# Generated by pormake.
# Topology fcd, (5)-cn, num edge types: 1
# Building blocks:
#     Node 0, Type 0, BuildingBlock: XOMCOT_clean_sbu_0, # of connection points: 5
#     Node 1, Type 0, BuildingBlock: XOMCOT_clean_sbu_0, # of connection points: 5
#     Node 2, Type 0, BuildingBlock: XOMCOT_clean_sbu_0, # of connection points: 5
#     Node 3, Type 0, BuildingBlock: XOMCOT_clean_sbu_0, # of connection points: 5
#     Node 4, Type 0, BuildingBlock: XOMCOT_clean_sbu_0, # of connection points: 5
#     Node 5, Type 0, BuildingBlock: XOMCOT_clean_sbu_0, # of connection points: 5
#     Node 6, Type 0, BuildingBlock: XOMCOT_clean_sbu_0, # of connection points: 5
#     Node 7, Type 0, BuildingBlock: XOMCOT_clean_sbu_0, # of connection points: 5
#     Node 8, Type 0, BuildingBlock: XOMCOT_clean_sbu_0, # of connection points: 5
#     Node 9, Type 0, BuildingBlock: XOMCOT_clean_sbu_0, # of connection points: 5
#     Node 10, Type 0, BuildingBlock: XOMCOT_clean_sbu_0, # of connection points: 5
#     Node 11, Type 0, BuildingBlock: XOMCOT_clean_sbu_0, # of connection points: 5
#     Node 12, Type 0, BuildingBlock: XOMCOT_clean_sbu_0, # of connection points: 5
#     Node 13, Type 0, BuildingBlock: XOMCOT_clean_sbu_0, # of connection points: 5
#     Node 14, Type 0, BuildingBlock: XOMCOT_clean_sbu_0, # of connection points: 5
#     Node 15, Type 0, BuildingBlock: XOMCOT_clean_sbu_0, # of connection points: 5
#     Node 16, Type 0, BuildingBlock: XOMCOT_clean_sbu_0, # of connection points: 5
#     Node 17, Type 0, BuildingBlock: XOMCOT_clean_sbu_0, # of connection points: 5
#     Node 18, Type 0, BuildingBlock: XOMCOT_clean_sbu_0, # of connection points: 5
#     Node 19, Type 0, BuildingBlock: XOMCOT_clean_sbu_0, # of connection points: 5
#     Node 20, Type 0, BuildingBlock: XOMCOT_clean_sbu_0, # of connection points: 5
#     Node 21, Type 0, BuildingBlock: XOMCOT_clean_sbu_0, # of connection points: 5
#     Node 22, Type 0, BuildingBlock: XOMCOT_clean_sbu_0, # of connection points: 5
#     Node 23, Type 0, BuildingBlock: XOMCOT_clean_sbu_0, # of connection points: 5
#     Node 24, Type 0, BuildingBlock: XOMCOT_clean_sbu_0, # of connection points: 5
#     Node 25, Type 0, BuildingBlock: XOMCOT_clean_sbu_0, # of connection points: 5
#     Node 26, Type 0, BuildingBlock: XOMCOT_clean_sbu_0, # of connection points: 5
#     Node 27, Type 0, BuildingBlock: XOMCOT_clean_sbu_0, # of connection points: 5
#     Node 28, Type 0, BuildingBlock: XOMCOT_clean_sbu_0, # of connection points: 5
#     Node 29, Type 0, BuildingBlock: XOMCOT_clean_sbu_0, # of connection points: 5
#     Node 30, Type 0, BuildingBlock: XOMCOT_clean_sbu_0, # of connection points: 5
#     Node 31, Type 0, BuildingBlock: XOMCOT_clean_sbu_0, # of connection points: 5
#     Node 32, Type 0, BuildingBlock: XOMCOT_clean_sbu_0, # of connection points: 5
#     Node 33, Type 0, BuildingBlock: XOMCOT_clean_sbu_0, # of connection points: 5
#     Node 34, Type 0, BuildingBlock: XOMCOT_clean_sbu_0, # of connection points: 5
#     Node 35, Type 0, BuildingBlock: XOMCOT_clean_sbu_0, # of connection points: 5
#     Node 36, Type 0, BuildingBlock: XOMCOT_clean_sbu_0, # of connection points: 5
#     Node 37, Type 0, BuildingBlock: XOMCOT_clean_sbu_0, # of connection points: 5
#     Node 38, Type 0, BuildingBlock: XOMCOT_clean_sbu_0, # of connection points: 5
#     Node 39, Type 0, BuildingBlock: XOMCOT_clean_sbu_0, # of connection points: 5
#     Node 40, Type 0, BuildingBlock: XOMCOT_clean_sbu_0, # of connection points: 5
#     Node 41, Type 0, BuildingBlock: XOMCOT_clean_sbu_0, # of connection points: 5
#     Node 42, Type 0, BuildingBlock: XOMCOT_clean_sbu_0, # of connection points: 5
#     Node 43, Type 0, BuildingBlock: XOMCOT_clean_sbu_0, # of connection points: 5
#     Node 44, Type 0, BuildingBlock: XOMCOT_clean_sbu_0, # of connection points: 5
#     Node 45, Type 0, BuildingBlock: XOMCOT_clean_sbu_0, # of connection points: 5
#     Node 46, Type 0, BuildingBlock: XOMCOT_clean_sbu_0, # of connection points: 5
#     Node 47, Type 0, BuildingBlock: XOMCOT_clean_sbu_0, # of connection points: 5
#     Edge 48, Type (0, 0), BuildingBlock: OJICUG_clean_linker_0, # of connection points: 2
#     Edge 49, Type (0, 0), BuildingBlock: OJICUG_clean_linker_0, # of connection points: 2
#     Edge 50, Type (0, 0), BuildingBlock: OJICUG_clean_linker_0, # of connection points: 2
#     Edge 51, Type (0, 0), BuildingBlock: OJICUG_clean_linker_0, # of connection points: 2
#     Edge 52, Type (0, 0), BuildingBlock: OJICUG_clean_linker_0, # of connection points: 2
#     Edge 53, Type (0, 0), BuildingBlock: OJICUG_clean_linker_0, # of connection points: 2
#     Edge 54, Type (0, 0), BuildingBlock: OJICUG_clean_linker_0, # of connection points: 2
#     Edge 55, Type (0, 0), BuildingBlock: OJICUG_clean_linker_0, # of connection points: 2
#     Edge 56, Type (0, 0), BuildingBlock: OJICUG_clean_linker_0, # of connection points: 2
#     Edge 57, Type (0, 0), BuildingBlock: OJICUG_clean_linker_0, # of connection points: 2
#     Edge 58, Type (0, 0), BuildingBlock: OJICUG_clean_linker_0, # of connection points: 2
#     Edge 59, Type (0, 0), BuildingBlock: OJICUG_clean_linker_0, # of connection points: 2
#     Edge 60, Type (0, 0), BuildingBlock: OJICUG_clean_linker_0, # of connection points: 2
#     Edge 61, Type (0, 0), BuildingBlock: OJICUG_clean_linker_0, # of connection points: 2
#     Edge 62, Type (0, 0), BuildingBlock: OJICUG_clean_linker_0, # of connection points: 2
#     Edge 63, Type (0, 0), BuildingBlock: OJICUG_clean_linker_0, # of connection points: 2
#     Edge 64, Type (0, 0), BuildingBlock: OJICUG_clean_linker_0, # of connection points: 2
#     Edge 65, Type (0, 0), BuildingBlock: OJICUG_clean_linker_0, # of connection points: 2
#     Edge 66, Type (0, 0), BuildingBlock: OJICUG_clean_linker_0, # of connection points: 2
#     Edge 67, Type (0, 0), BuildingBlock: OJICUG_clean_linker_0, # of connection points: 2
#     Edge 68, Type (0, 0), BuildingBlock: OJICUG_clean_linker_0, # of connection points: 2
#     Edge 69, Type (0, 0), BuildingBlock: OJICUG_clean_linker_0, # of connection points: 2
#     Edge 70, Type (0, 0), BuildingBlock: OJICUG_clean_linker_0, # of connection points: 2
#     Edge 71, Type (0, 0), BuildingBlock: OJICUG_clean_linker_0, # of connection points: 2
#     Edge 72, Type (0, 0), BuildingBlock: OJICUG_clean_linker_0, # of connection points: 2
#     Edge 73, Type (0, 0), BuildingBlock: OJICUG_clean_linker_0, # of connection points: 2
#     Edge 74, Type (0, 0), BuildingBlock: OJICUG_clean_linker_0, # of connection points: 2
#     Edge 75, Type (0, 0), BuildingBlock: OJICUG_clean_linker_0, # of connection points: 2
#     Edge 76, Type (0, 0), BuildingBlock: OJICUG_clean_linker_0, # of connection points: 2
#     Edge 77, Type (0, 0), BuildingBlock: OJICUG_clean_linker_0, # of connection points: 2
#     Edge 78, Type (0, 0), BuildingBlock: OJICUG_clean_linker_0, # of connection points: 2
#     Edge 79, Type (0, 0), BuildingBlock: OJICUG_clean_linker_0, # of connection points: 2
#     Edge 80, Type (0, 0), BuildingBlock: OJICUG_clean_linker_0, # of connection points: 2
#     Edge 81, Type (0, 0), BuildingBlock: OJICUG_clean_linker_0, # of connection points: 2
#     Edge 82, Type (0, 0), BuildingBlock: OJICUG_clean_linker_0, # of connection points: 2
#     Edge 83, Type (0, 0), BuildingBlock: OJICUG_clean_linker_0, # of connection points: 2
#     Edge 84, Type (0, 0), BuildingBlock: OJICUG_clean_linker_0, # of connection points: 2
#     Edge 85, Type (0, 0), BuildingBlock: OJICUG_clean_linker_0, # of connection points: 2
#     Edge 86, Type (0, 0), BuildingBlock: OJICUG_clean_linker_0, # of connection points: 2
#     Edge 87, Type (0, 0), BuildingBlock: OJICUG_clean_linker_0, # of connection points: 2
#     Edge 88, Type (0, 0), BuildingBlock: OJICUG_clean_linker_0, # of connection points: 2
#     Edge 89, Type (0, 0), BuildingBlock: OJICUG_clean_linker_0, # of connection points: 2
#     Edge 90, Type (0, 0), BuildingBlock: OJICUG_clean_linker_0, # of connection points: 2
#     Edge 91, Type (0, 0), BuildingBlock: OJICUG_clean_linker_0, # of connection points: 2
#     Edge 92, Type (0, 0), BuildingBlock: OJICUG_clean_linker_0, # of connection points: 2
#     Edge 93, Type (0, 0), BuildingBlock: OJICUG_clean_linker_0, # of connection points: 2
#     Edge 94, Type (0, 0), BuildingBlock: OJICUG_clean_linker_0, # of connection points: 2
#     Edge 95, Type (0, 0), BuildingBlock: OJICUG_clean_linker_0, # of connection points: 2
#     Edge 96, Type (0, 0), BuildingBlock: OJICUG_clean_linker_0, # of connection points: 2
#     Edge 97, Type (0, 0), BuildingBlock: OJICUG_clean_linker_0, # of connection points: 2
#     Edge 98, Type (0, 0), BuildingBlock: OJICUG_clean_linker_0, # of connection points: 2
#     Edge 99, Type (0, 0), BuildingBlock: OJICUG_clean_linker_0, # of connection points: 2
#     Edge 100, Type (0, 0), BuildingBlock: OJICUG_clean_linker_0, # of connection points: 2
#     Edge 101, Type (0, 0), BuildingBlock: OJICUG_clean_linker_0, # of connection points: 2
#     Edge 102, Type (0, 0), BuildingBlock: OJICUG_clean_linker_0, # of connection points: 2
#     Edge 103, Type (0, 0), BuildingBlock: OJICUG_clean_linker_0, # of connection points: 2
#     Edge 104, Type (0, 0), BuildingBlock: OJICUG_clean_linker_0, # of connection points: 2
#     Edge 105, Type (0, 0), BuildingBlock: OJICUG_clean_linker_0, # of connection points: 2
#     Edge 106, Type (0, 0), BuildingBlock: OJICUG_clean_linker_0, # of connection points: 2
#     Edge 107, Type (0, 0), BuildingBlock: OJICUG_clean_linker_0, # of connection points: 2
#     Edge 108, Type (0, 0), BuildingBlock: OJICUG_clean_linker_0, # of connection points: 2
#     Edge 109, Type (0, 0), BuildingBlock: OJICUG_clean_linker_0, # of connection points: 2
#     Edge 110, Type (0, 0), BuildingBlock: OJICUG_clean_linker_0, # of connection points: 2
#     Edge 111, Type (0, 0), BuildingBlock: OJICUG_clean_linker_0, # of connection points: 2
#     Edge 112, Type (0, 0), BuildingBlock: OJICUG_clean_linker_0, # of connection points: 2
#     Edge 113, Type (0, 0), BuildingBlock: OJICUG_clean_linker_0, # of connection points: 2
#     Edge 114, Type (0, 0), BuildingBlock: OJICUG_clean_linker_0, # of connection points: 2
#     Edge 115, Type (0, 0), BuildingBlock: OJICUG_clean_linker_0, # of connection points: 2
#     Edge 116, Type (0, 0), BuildingBlock: OJICUG_clean_linker_0, # of connection points: 2
#     Edge 117, Type (0, 0), BuildingBlock: OJICUG_clean_linker_0, # of connection points: 2
#     Edge 118, Type (0, 0), BuildingBlock: OJICUG_clean_linker_0, # of connection points: 2
#     Edge 119, Type (0, 0), BuildingBlock: OJICUG_clean_linker_0, # of connection points: 2
#     Edge 120, Type (0, 0), BuildingBlock: OJICUG_clean_linker_0, # of connection points: 2
#     Edge 121, Type (0, 0), BuildingBlock: OJICUG_clean_linker_0, # of connection points: 2
#     Edge 122, Type (0, 0), BuildingBlock: OJICUG_clean_linker_0, # of connection points: 2
#     Edge 123, Type (0, 0), BuildingBlock: OJICUG_clean_linker_0, # of connection points: 2
#     Edge 124, Type (0, 0), BuildingBlock: OJICUG_clean_linker_0, # of connection points: 2
#     Edge 125, Type (0, 0), BuildingBlock: OJICUG_clean_linker_0, # of connection points: 2
#     Edge 126, Type (0, 0), BuildingBlock: OJICUG_clean_linker_0, # of connection points: 2
#     Edge 127, Type (0, 0), BuildingBlock: OJICUG_clean_linker_0, # of connection points: 2
#     Edge 128, Type (0, 0), BuildingBlock: OJICUG_clean_linker_0, # of connection points: 2
#     Edge 129, Type (0, 0), BuildingBlock: OJICUG_clean_linker_0, # of connection points: 2
#     Edge 130, Type (0, 0), BuildingBlock: OJICUG_clean_linker_0, # of connection points: 2
#     Edge 131, Type (0, 0), BuildingBlock: OJICUG_clean_linker_0, # of connection points: 2
#     Edge 132, Type (0, 0), BuildingBlock: OJICUG_clean_linker_0, # of connection points: 2
#     Edge 133, Type (0, 0), BuildingBlock: OJICUG_clean_linker_0, # of connection points: 2
#     Edge 134, Type (0, 0), BuildingBlock: OJICUG_clean_linker_0, # of connection points: 2
#     Edge 135, Type (0, 0), BuildingBlock: OJICUG_clean_linker_0, # of connection points: 2
#     Edge 136, Type (0, 0), BuildingBlock: OJICUG_clean_linker_0, # of connection points: 2
#     Edge 137, Type (0, 0), BuildingBlock: OJICUG_clean_linker_0, # of connection points: 2
#     Edge 138, Type (0, 0), BuildingBlock: OJICUG_clean_linker_0, # of connection points: 2
#     Edge 139, Type (0, 0), BuildingBlock: OJICUG_clean_linker_0, # of connection points: 2
#     Edge 140, Type (0, 0), BuildingBlock: OJICUG_clean_linker_0, # of connection points: 2
#     Edge 141, Type (0, 0), BuildingBlock: OJICUG_clean_linker_0, # of connection points: 2
#     Edge 142, Type (0, 0), BuildingBlock: OJICUG_clean_linker_0, # of connection points: 2
#     Edge 143, Type (0, 0), BuildingBlock: OJICUG_clean_linker_0, # of connection points: 2
#     Edge 144, Type (0, 0), BuildingBlock: OJICUG_clean_linker_0, # of connection points: 2
#     Edge 145, Type (0, 0), BuildingBlock: OJICUG_clean_linker_0, # of connection points: 2
#     Edge 146, Type (0, 0), BuildingBlock: OJICUG_clean_linker_0, # of connection points: 2
#     Edge 147, Type (0, 0), BuildingBlock: OJICUG_clean_linker_0, # of connection points: 2
#     Edge 148, Type (0, 0), BuildingBlock: OJICUG_clean_linker_0, # of connection points: 2
#     Edge 149, Type (0, 0), BuildingBlock: OJICUG_clean_linker_0, # of connection points: 2
#     Edge 150, Type (0, 0), BuildingBlock: OJICUG_clean_linker_0, # of connection points: 2
#     Edge 151, Type (0, 0), BuildingBlock: OJICUG_clean_linker_0, # of connection points: 2
#     Edge 152, Type (0, 0), BuildingBlock: OJICUG_clean_linker_0, # of connection points: 2
#     Edge 153, Type (0, 0), BuildingBlock: OJICUG_clean_linker_0, # of connection points: 2
#     Edge 154, Type (0, 0), BuildingBlock: OJICUG_clean_linker_0, # of connection points: 2
#     Edge 155, Type (0, 0), BuildingBlock: OJICUG_clean_linker_0, # of connection points: 2
#     Edge 156, Type (0, 0), BuildingBlock: OJICUG_clean_linker_0, # of connection points: 2
#     Edge 157, Type (0, 0), BuildingBlock: OJICUG_clean_linker_0, # of connection points: 2
#     Edge 158, Type (0, 0), BuildingBlock: OJICUG_clean_linker_0, # of connection points: 2
#     Edge 159, Type (0, 0), BuildingBlock: OJICUG_clean_linker_0, # of connection points: 2
#     Edge 160, Type (0, 0), BuildingBlock: OJICUG_clean_linker_0, # of connection points: 2
#     Edge 161, Type (0, 0), BuildingBlock: OJICUG_clean_linker_0, # of connection points: 2
#     Edge 162, Type (0, 0), BuildingBlock: OJICUG_clean_linker_0, # of connection points: 2
#     Edge 163, Type (0, 0), BuildingBlock: OJICUG_clean_linker_0, # of connection points: 2
#     Edge 164, Type (0, 0), BuildingBlock: OJICUG_clean_linker_0, # of connection points: 2
#     Edge 165, Type (0, 0), BuildingBlock: OJICUG_clean_linker_0, # of connection points: 2
#     Edge 166, Type (0, 0), BuildingBlock: OJICUG_clean_linker_0, # of connection points: 2
#     Edge 167, Type (0, 0), BuildingBlock: OJICUG_clean_linker_0, # of connection points: 2
# Relax obj value: 0.308
# Max RMSD: 0.255
# Mean RMSD: 0.255
data_MOF--net-fcd--node1-XOMCOT_clean_sbu_0--edge1-OJICUG_clean_linker_0
_symmetry_space_group_name_H-M    P1
_symmetry_Int_Tables_number       1
_symmetry_cell_setting            triclinic
loop_
_symmetry_equiv_pos_as_xyz
'x, y, z'
_cell_length_a     53.019365
_cell_length_b     53.00057
_cell_length_c     53.030017
_cell_angle_alpha  89.993985
_cell_angle_beta   89.997158
_cell_angle_gamma 89.997246
loop_
_atom_site_label
_atom_site_type_symbol
_atom_site_fract_x
_atom_site_fract_y
_atom_site_fract_z
_atom_type_partial_charge
Co0 Co 0.10738 0.19001 0.39228 0.0
C1 C 0.06158 0.2183 0.40523 0.0
C2 C 0.08881 0.21969 0.43518 0.0
C3 C 0.06766 0.23282 0.44259 0.0
N4 N 0.08473 0.21044 0.41191 0.0
N5 N 0.05055 0.23181 0.42375 0.0
H6 H 0.05273 0.21336 0.38752 0.0
H7 H 0.10587 0.21693 0.44602 0.0
C8 C 0.11809 0.14882 0.42965 0.0
O9 O 0.11141 0.13178 0.41296 0.0
N10 N 0.13143 0.17024 0.37281 0.0
C11 C 0.13385 0.16863 0.34746 0.0
C12 C 0.15686 0.15803 0.34168 0.0
C13 C 0.15365 0.16169 0.38186 0.0
N14 N 0.16932 0.15392 0.36338 0.0
C15 C 0.07274 0.16151 0.36194 0.0
C16 C 0.04015 0.14935 0.40074 0.0
C17 C 0.03221 0.14556 0.37577 0.0
C18 C 0.04952 0.15056 0.35639 0.0
C19 C 0.06402 0.15959 0.40553 0.0
N20 N 0.07976 0.16634 0.38618 0.0
H21 H 0.08396 0.16793 0.34644 0.0
H22 H 0.06883 0.16422 0.42478 0.0
H23 H 0.1213 0.17697 0.33379 0.0
H24 H 0.15907 0.1628 0.40147 0.0
O25 O 0.10186 0.21215 0.36404 0.0
O26 O 0.13151 0.2173 0.39315 0.0
O27 O 0.1178 0.17226 0.42412 0.0
C28 C 0.12007 0.22585 0.37314 0.0
H29 H 0.06515 0.24236 0.46046 0.0
H30 H 0.16471 0.15569 0.32298 0.0
H31 H 0.02753 0.14614 0.41645 0.0
H32 H 0.04472 0.1474 0.3368 0.0
Co33 Co 0.89066 0.30789 0.39312 0.0
C34 C 0.93773 0.2812 0.40544 0.0
C35 C 0.91043 0.27809 0.43518 0.0
C36 C 0.93208 0.2658 0.44253 0.0
N37 N 0.91418 0.28787 0.41207 0.0
N38 N 0.94925 0.2679 0.42383 0.0
H39 H 0.94644 0.28671 0.38783 0.0
H40 H 0.89321 0.27994 0.44597 0.0
C41 C 0.87838 0.34957 0.42955 0.0
O42 O 0.87955 0.36614 0.41116 0.0
N43 N 0.86588 0.32749 0.37448 0.0
C44 C 0.86531 0.33405 0.34986 0.0
C45 C 0.84201 0.34401 0.34424 0.0
C46 C 0.84251 0.33277 0.3831 0.0
N47 N 0.82766 0.34306 0.36515 0.0
C48 C 0.9266 0.33196 0.36099 0.0
C49 C 0.95642 0.3515 0.39892 0.0
C50 C 0.96558 0.35178 0.37408 0.0
C51 C 0.94965 0.34292 0.35492 0.0
C52 C 0.93265 0.34118 0.40408 0.0
N53 N 0.91807 0.33121 0.38523 0.0
H54 H 0.91701 0.32188 0.3463 0.0
H55 H 0.92732 0.33891 0.42359 0.0
H56 H 0.8797 0.3304 0.33608 0.0
H57 H 0.8363 0.32841 0.40204 0.0
O58 O 0.89444 0.2852 0.365 0.0
O59 O 0.86648 0.28069 0.39576 0.0
O60 O 0.882 0.32618 0.42517 0.0
C61 C 0.87667 0.27178 0.37525 0.0
H62 H 0.93486 0.25604 0.46023 0.0
H63 H 0.83566 0.35006 0.3258 0.0
H64 H 0.96812 0.3575 0.41453 0.0
H65 H 0.95549 0.34295 0.33537 0.0
Co66 Co 0.10857 0.80802 0.10526 0.0
C67 C 0.06214 0.78006 0.09345 0.0
C68 C 0.08929 0.77746 0.06352 0.0
C69 C 0.06781 0.76476 0.05633 0.0
N70 N 0.08551 0.78717 0.08665 0.0
N71 N 0.05074 0.76656 0.07515 0.0
H72 H 0.05339 0.78549 0.11106 0.0
H73 H 0.10634 0.77973 0.05256 0.0
C74 C 0.12076 0.84966 0.069 0.0
O75 O 0.12038 0.86598 0.08763 0.0
N76 N 0.13289 0.82856 0.12344 0.0
C77 C 0.13111 0.84127 0.14545 0.0
C78 C 0.15436 0.85118 0.15135 0.0
C79 C 0.15728 0.83084 0.11653 0.0
N80 N 0.17085 0.84455 0.13317 0.0
C81 C 0.07135 0.83021 0.13716 0.0
C82 C 0.04193 0.85017 0.09911 0.0
C83 C 0.0322 0.84955 0.12373 0.0
C84 C 0.04786 0.84039 0.14298 0.0
C85 C 0.06605 0.84058 0.0942 0.0
N86 N 0.08048 0.83051 0.1131 0.0
H87 H 0.08127 0.82032 0.15188 0.0
H88 H 0.07183 0.839 0.07477 0.0
H89 H 0.1146 0.84325 0.157 0.0
H90 H 0.1648 0.82262 0.09944 0.0
O91 O 0.10568 0.78552 0.13363 0.0
O92 O 0.13346 0.78138 0.10269 0.0
O93 O 0.11661 0.82631 0.07311 0.0
C94 C 0.12367 0.77242 0.12337 0.0
H95 H 0.06502 0.75507 0.0386 0.0
H96 H 0.1588 0.86197 0.16809 0.0
H97 H 0.03048 0.85637 0.08339 0.0
H98 H 0.04163 0.83979 0.16241 0.0
Co99 Co 0.89122 0.69059 0.10572 0.0
C100 C 0.9376 0.71857 0.09373 0.0
C101 C 0.9103 0.72123 0.06394 0.0
C102 C 0.93173 0.73394 0.05666 0.0
N103 N 0.9142 0.71147 0.08703 0.0
N104 N 0.9489 0.73211 0.07539 0.0
H105 H 0.94643 0.7131 0.11128 0.0
H106 H 0.89319 0.71898 0.05306 0.0
C107 C 0.8789 0.649 0.06942 0.0
O108 O 0.87941 0.63263 0.08801 0.0
N109 N 0.86699 0.67002 0.12399 0.0
C110 C 0.8687 0.65772 0.14623 0.0
C111 C 0.84553 0.64755 0.15203 0.0
C112 C 0.84271 0.66732 0.11687 0.0
N113 N 0.82917 0.65365 0.13357 0.0
C114 C 0.92858 0.66827 0.13738 0.0
C115 C 0.95783 0.64846 0.09913 0.0
C116 C 0.96767 0.64901 0.12371 0.0
C117 C 0.95209 0.65808 0.14307 0.0
C118 C 0.93369 0.65806 0.09437 0.0
N119 N 0.91934 0.66807 0.11337 0.0
H120 H 0.91878 0.67817 0.15217 0.0
H121 H 0.92783 0.65971 0.07497 0.0
H122 H 0.88508 0.65625 0.15804 0.0
H123 H 0.83525 0.67519 0.09959 0.0
O124 O 0.89428 0.71302 0.13413 0.0
O125 O 0.86633 0.71725 0.10336 0.0
O126 O 0.88303 0.67236 0.07357 0.0
C127 C 0.87625 0.72616 0.124 0.0
H128 H 0.93444 0.74367 0.03893 0.0
H129 H 0.84104 0.63697 0.1689 0.0
H130 H 0.96922 0.64233 0.08335 0.0
H131 H 0.95842 0.65864 0.16246 0.0
Co132 Co 0.39173 0.10878 0.19044 0.0
C133 C 0.40554 0.06273 0.2181 0.0
C134 C 0.43466 0.09078 0.22027 0.0
C135 C 0.44269 0.06951 0.23284 0.0
N136 N 0.4115 0.08631 0.21092 0.0
N137 N 0.42438 0.05186 0.23133 0.0
H138 H 0.38811 0.05349 0.21292 0.0
H139 H 0.44506 0.10817 0.21785 0.0
C140 C 0.42743 0.12155 0.14861 0.0
O141 O 0.40993 0.11619 0.13192 0.0
N142 N 0.37253 0.13257 0.17018 0.0
C143 C 0.35037 0.13051 0.15775 0.0
C144 C 0.34411 0.15368 0.14778 0.0
C145 C 0.37915 0.15702 0.16766 0.0
N146 N 0.36219 0.17036 0.15414 0.0
C147 C 0.36116 0.07092 0.16758 0.0
C148 C 0.4001 0.04248 0.1479 0.0
C149 C 0.37564 0.03234 0.14788 0.0
C150 C 0.35595 0.04747 0.15701 0.0
C151 C 0.40439 0.06653 0.15799 0.0
N152 N 0.38501 0.08056 0.16773 0.0
H153 H 0.34612 0.08032 0.1775 0.0
H154 H 0.42368 0.07271 0.16007 0.0
H155 H 0.33894 0.11388 0.15602 0.0
H156 H 0.39627 0.16479 0.1756 0.0
O157 O 0.36361 0.10429 0.21305 0.0
O158 O 0.39323 0.13346 0.2173 0.0
O159 O 0.42324 0.11903 0.17215 0.0
C160 C 0.37308 0.12263 0.22626 0.0
H161 H 0.46063 0.06729 0.2423 0.0
H162 H 0.32723 0.15796 0.13714 0.0
H163 H 0.4161 0.03137 0.14177 0.0
H164 H 0.33666 0.0408 0.15727 0.0
Co165 Co 0.60575 0.38907 0.19119 0.0
C166 C 0.59237 0.43528 0.21872 0.0
C167 C 0.56276 0.40772 0.22056 0.0
C168 C 0.55494 0.42914 0.23301 0.0
N169 N 0.5861 0.41179 0.21149 0.0
N170 N 0.57356 0.44649 0.2317 0.0
H171 H 0.61001 0.44422 0.21372 0.0
H172 H 0.55208 0.39052 0.21802 0.0
C173 C 0.57034 0.37671 0.149 0.0
O174 O 0.58804 0.38192 0.13248 0.0
N175 N 0.62489 0.36508 0.17111 0.0
C176 C 0.64732 0.3669 0.15916 0.0
C177 C 0.65363 0.34364 0.14946 0.0
C178 C 0.61813 0.34067 0.16859 0.0
N179 N 0.63529 0.32713 0.15553 0.0
C180 C 0.63704 0.4266 0.16871 0.0
C181 C 0.59867 0.45546 0.14853 0.0
C182 C 0.62326 0.4653 0.14874 0.0
C183 C 0.64265 0.44995 0.15813 0.0
C184 C 0.59397 0.43147 0.15861 0.0
N185 N 0.61308 0.41722 0.16858 0.0
H186 H 0.65183 0.41707 0.17885 0.0
H187 H 0.5746 0.42553 0.16048 0.0
H188 H 0.65897 0.3834 0.15764 0.0
H189 H 0.60083 0.33306 0.1763 0.0
O190 O 0.63369 0.39314 0.21408 0.0
O191 O 0.60363 0.36436 0.21798 0.0
O192 O 0.57432 0.37922 0.17258 0.0
C193 C 0.62385 0.37487 0.22714 0.0
H194 H 0.53691 0.43169 0.24223 0.0
H195 H 0.67074 0.33916 0.13928 0.0
H196 H 0.58287 0.46674 0.14222 0.0
H197 H 0.66203 0.45636 0.15858 0.0
Co198 Co 0.39577 0.89221 0.30715 0.0
C199 C 0.40849 0.9386 0.28004 0.0
C200 C 0.43906 0.91207 0.27872 0.0
C201 C 0.4463 0.93373 0.26628 0.0
N202 N 0.41546 0.91537 0.28742 0.0
N203 N 0.42703 0.95039 0.26722 0.0
H204 H 0.39046 0.94691 0.28471 0.0
H205 H 0.45025 0.89523 0.28142 0.0
C206 C 0.43114 0.87893 0.34919 0.0
O207 O 0.41334 0.88352 0.36579 0.0
N208 N 0.37635 0.868 0.3266 0.0
C209 C 0.35242 0.86898 0.33527 0.0
C210 C 0.34602 0.84577 0.34504 0.0
C211 C 0.38384 0.84403 0.33076 0.0
N212 N 0.36578 0.83008 0.34206 0.0
C213 C 0.36458 0.92952 0.33012 0.0
C214 C 0.40282 0.95692 0.35248 0.0
C215 C 0.3783 0.96681 0.35246 0.0
C216 C 0.35904 0.95255 0.34141 0.0
C217 C 0.40754 0.93356 0.34109 0.0
N218 N 0.38844 0.91987 0.33034 0.0
H219 H 0.34993 0.92076 0.31917 0.0
H220 H 0.4269 0.9276 0.33922 0.0
H221 H 0.3397 0.88469 0.3338 0.0
H222 H 0.40212 0.8369 0.32516 0.0
O223 O 0.36801 0.89689 0.28428 0.0
O224 O 0.39786 0.86795 0.27993 0.0
O225 O 0.42716 0.88195 0.32566 0.0
C226 C 0.37773 0.87878 0.27095 0.0
H227 H 0.46432 0.93689 0.25723 0.0
H228 H 0.32784 0.8406 0.35274 0.0
H229 H 0.41839 0.96755 0.36034 0.0
H230 H 0.34005 0.95992 0.33984 0.0
Co231 Co 0.60322 0.60588 0.3078 0.0
C232 C 0.59053 0.55974 0.28011 0.0
C233 C 0.56015 0.58649 0.27869 0.0
C234 C 0.5529 0.565 0.26599 0.0
N235 N 0.5836 0.58293 0.28769 0.0
N236 N 0.57203 0.54817 0.26703 0.0
H237 H 0.60842 0.55125 0.28503 0.0
H238 H 0.54904 0.6034 0.28138 0.0
C239 C 0.5661 0.61701 0.34909 0.0
O240 O 0.5829 0.6105 0.3661 0.0
N241 N 0.62281 0.63008 0.32727 0.0
C242 C 0.64819 0.63235 0.32871 0.0
C243 C 0.65419 0.65531 0.33925 0.0
C244 C 0.61395 0.65239 0.33584 0.0
N245 N 0.6326 0.66793 0.34349 0.0
C246 C 0.63377 0.57133 0.33616 0.0
C247 C 0.59499 0.53887 0.34876 0.0
C248 C 0.61998 0.5308 0.35212 0.0
C249 C 0.63937 0.54805 0.34697 0.0
C250 C 0.59017 0.5628 0.33867 0.0
N251 N 0.60949 0.57845 0.33164 0.0
H252 H 0.64925 0.58245 0.32952 0.0
H253 H 0.57088 0.56768 0.33426 0.0
H254 H 0.66174 0.6197 0.32032 0.0
H255 H 0.59435 0.6579 0.3349 0.0
O256 O 0.63136 0.60029 0.28556 0.0
O257 O 0.60213 0.62985 0.2804 0.0
O258 O 0.57147 0.61641 0.32563 0.0
C259 C 0.62218 0.61848 0.27186 0.0
H260 H 0.53495 0.56205 0.25676 0.0
H261 H 0.67297 0.66301 0.34149 0.0
H262 H 0.57928 0.52629 0.35214 0.0
H263 H 0.65898 0.54314 0.34983 0.0
Co264 Co 0.19036 0.39455 0.10566 0.0
C265 C 0.21753 0.40757 0.05924 0.0
C266 C 0.21995 0.43717 0.08676 0.0
C267 C 0.23267 0.4447 0.06542 0.0
N268 N 0.21039 0.41402 0.08266 0.0
N269 N 0.23103 0.42605 0.04815 0.0
H270 H 0.21237 0.38995 0.05035 0.0
H271 H 0.21777 0.44781 0.10403 0.0
C272 C 0.14866 0.43025 0.11993 0.0
O273 O 0.13236 0.41158 0.11997 0.0
N274 N 0.17063 0.37546 0.12983 0.0
C275 C 0.15889 0.35294 0.12783 0.0
C276 C 0.14902 0.34655 0.151 0.0
C277 C 0.16801 0.38213 0.15421 0.0
N278 N 0.15484 0.36492 0.16758 0.0
C279 C 0.16844 0.36317 0.06786 0.0
C280 C 0.14441 0.40104 0.04134 0.0
C281 C 0.14546 0.37677 0.03088 0.0
C282 C 0.15731 0.35765 0.04473 0.0
C283 C 0.15573 0.40576 0.06471 0.0
N284 N 0.16743 0.38687 0.0779 0.0
H285 H 0.1795 0.3486 0.07674 0.0
H286 H 0.15672 0.42506 0.07101 0.0
H287 H 0.15768 0.34141 0.11121 0.0
H288 H 0.1755 0.3995 0.16187 0.0
O289 O 0.21331 0.3666 0.10179 0.0
O290 O 0.21737 0.39703 0.13013 0.0
O291 O 0.17182 0.42628 0.11477 0.0
C292 C 0.22648 0.37668 0.11981 0.0
H293 H 0.24246 0.46243 0.06293 0.0
H294 H 0.13881 0.32941 0.15534 0.0
H295 H 0.13578 0.41649 0.03113 0.0
H296 H 0.15948 0.33884 0.03704 0.0
Co297 Co 0.18937 0.6043 0.39125 0.0
C298 C 0.21791 0.59203 0.43718 0.0
C299 C 0.2197 0.56203 0.41002 0.0
C300 C 0.23268 0.55472 0.43129 0.0
N301 N 0.21031 0.58528 0.41395 0.0
N302 N 0.23139 0.57357 0.44838 0.0
H303 H 0.21275 0.60971 0.44596 0.0
H304 H 0.21703 0.55108 0.39302 0.0
C305 C 0.14821 0.56701 0.38053 0.0
O306 O 0.13111 0.58361 0.38725 0.0
N307 N 0.16842 0.62283 0.36729 0.0
C308 C 0.14618 0.63486 0.37062 0.0
C309 C 0.13654 0.6415 0.34747 0.0
C310 C 0.17162 0.6222 0.34202 0.0
N311 N 0.15249 0.63339 0.32942 0.0
C312 C 0.16472 0.63577 0.4269 0.0
C313 C 0.14904 0.59765 0.45882 0.0
C314 C 0.14739 0.62278 0.46709 0.0
C315 C 0.15444 0.64194 0.45025 0.0
C316 C 0.15876 0.59231 0.43488 0.0
N317 N 0.16675 0.61127 0.41931 0.0
H318 H 0.17187 0.65078 0.41509 0.0
H319 H 0.16191 0.57282 0.42982 0.0
H320 H 0.1362 0.63705 0.38818 0.0
H321 H 0.18712 0.61262 0.33296 0.0
O322 O 0.21134 0.63292 0.39543 0.0
O323 O 0.21654 0.60288 0.36685 0.0
O324 O 0.17165 0.57233 0.38154 0.0
C325 C 0.22498 0.62337 0.37745 0.0
H326 H 0.24223 0.53687 0.43391 0.0
H327 H 0.11823 0.64993 0.34424 0.0
H328 H 0.14441 0.58211 0.47122 0.0
H329 H 0.15299 0.66167 0.45532 0.0
Co330 Co 0.80945 0.8921 0.39081 0.0
C331 C 0.78177 0.90635 0.43659 0.0
C332 C 0.78089 0.93593 0.40892 0.0
C333 C 0.76795 0.94391 0.42997 0.0
N334 N 0.78968 0.91252 0.41332 0.0
N335 N 0.76863 0.9253 0.44736 0.0
H336 H 0.78633 0.88864 0.44565 0.0
H337 H 0.78376 0.94644 0.39168 0.0
C338 C 0.85129 0.92849 0.37931 0.0
O339 O 0.86806 0.91174 0.3865 0.0
N340 N 0.82856 0.87193 0.36682 0.0
C341 C 0.82959 0.84652 0.36455 0.0
C342 C 0.83966 0.84038 0.34139 0.0
C343 C 0.83692 0.88065 0.34441 0.0
N344 N 0.84398 0.86192 0.32872 0.0
C345 C 0.83776 0.86165 0.42548 0.0
C346 C 0.8508 0.90058 0.45758 0.0
C347 C 0.8542 0.87562 0.46575 0.0
C348 C 0.84875 0.85614 0.44869 0.0
C349 C 0.84045 0.90531 0.43376 0.0
N350 N 0.83327 0.88591 0.41826 0.0
H351 H 0.83104 0.84614 0.41444 0.0
H352 H 0.83612 0.9246 0.42878 0.0
H353 H 0.82119 0.83311 0.37735 0.0
H354 H 0.83611 0.90026 0.33887 0.0
O355 O 0.78687 0.86435 0.39703 0.0
O356 O 0.78189 0.89308 0.36698 0.0
O357 O 0.82776 0.92341 0.37969 0.0
C358 C 0.77315 0.87336 0.37879 0.0
H359 H 0.7587 0.96197 0.4322 0.0
H360 H 0.84147 0.82158 0.33362 0.0
H361 H 0.85439 0.91635 0.47002 0.0
H362 H 0.85157 0.83654 0.45371 0.0
Co363 Co 0.30865 0.60552 0.60688 0.0
C364 C 0.28092 0.59228 0.56087 0.0
C365 C 0.27981 0.56216 0.58793 0.0
C366 C 0.26703 0.55462 0.5666 0.0
N367 N 0.28866 0.58563 0.58407 0.0
N368 N 0.26788 0.57357 0.54958 0.0
H369 H 0.28565 0.61014 0.55218 0.0
H370 H 0.28262 0.55126 0.60494 0.0
C371 C 0.35039 0.56877 0.61776 0.0
O372 O 0.36723 0.58552 0.61072 0.0
N373 N 0.32801 0.62527 0.63102 0.0
C374 C 0.32925 0.65065 0.63349 0.0
C375 C 0.33971 0.65654 0.65652 0.0
C376 C 0.33664 0.6163 0.65324 0.0
N377 N 0.3441 0.63486 0.66895 0.0
C378 C 0.33665 0.63641 0.57236 0.0
C379 C 0.34962 0.59783 0.53981 0.0
C380 C 0.35284 0.62287 0.53185 0.0
C381 C 0.34744 0.64218 0.54912 0.0
C382 C 0.33948 0.59284 0.56367 0.0
N383 N 0.33233 0.61206 0.57939 0.0
H384 H 0.32989 0.65179 0.58355 0.0
H385 H 0.33522 0.57349 0.56848 0.0
H386 H 0.32077 0.66423 0.62093 0.0
H387 H 0.33582 0.59665 0.65861 0.0
O388 O 0.28612 0.63345 0.60132 0.0
O389 O 0.28129 0.60421 0.63091 0.0
O390 O 0.32688 0.57396 0.61743 0.0
C391 C 0.27254 0.62418 0.61954 0.0
H392 H 0.25786 0.53658 0.56391 0.0
H393 H 0.34179 0.67526 0.6644 0.0
H394 H 0.35317 0.58218 0.52719 0.0
H395 H 0.35013 0.66183 0.54425 0.0
Co396 Co 0.89094 0.80877 0.60611 0.0
C397 C 0.93713 0.78101 0.59314 0.0
C398 C 0.90979 0.77913 0.56333 0.0
C399 C 0.93113 0.76638 0.55582 0.0
N400 N 0.91379 0.78846 0.58657 0.0
N401 N 0.94834 0.76772 0.57456 0.0
H402 H 0.94596 0.78614 0.61081 0.0
H403 H 0.89266 0.78164 0.55254 0.0
C404 C 0.88036 0.85016 0.5688 0.0
O405 O 0.88669 0.8672 0.58563 0.0
N406 N 0.86677 0.82851 0.62549 0.0
C407 C 0.86439 0.83031 0.65083 0.0
C408 C 0.8415 0.84118 0.65655 0.0
C409 C 0.84463 0.83721 0.61639 0.0
N410 N 0.82907 0.84528 0.63484 0.0
C411 C 0.92555 0.8367 0.63694 0.0
C412 C 0.95784 0.85013 0.59832 0.0
C413 C 0.96577 0.85353 0.62333 0.0
C414 C 0.94864 0.84782 0.64266 0.0
C415 C 0.93413 0.83965 0.59337 0.0
N416 N 0.91848 0.83239 0.61261 0.0
H417 H 0.9145 0.82971 0.65232 0.0
H418 H 0.92938 0.83526 0.57405 0.0
H419 H 0.87687 0.82198 0.66456 0.0
H420 H 0.83923 0.83608 0.59677 0.0
O421 O 0.89605 0.78643 0.63431 0.0
O422 O 0.86679 0.78155 0.60479 0.0
O423 O 0.88083 0.8267 0.57424 0.0
C424 C 0.87787 0.77287 0.62493 0.0
H425 H 0.93371 0.7569 0.53794 0.0
H426 H 0.83369 0.84375 0.67524 0.0
H427 H 0.9704 0.85384 0.58266 0.0
H428 H 0.9535 0.85057 0.6623 0.0
Co429 Co 0.10788 0.69175 0.60543 0.0
C430 C 0.0614 0.71897 0.59254 0.0
C431 C 0.08822 0.72034 0.56223 0.0
C432 C 0.0667 0.73288 0.55484 0.0
N433 N 0.08465 0.71147 0.58572 0.0
N434 N 0.04982 0.73187 0.57391 0.0
H435 H 0.0529 0.71418 0.61046 0.0
H436 H 0.10518 0.7177 0.55121 0.0
C437 C 0.11893 0.64999 0.56893 0.0
O438 O 0.11254 0.63325 0.58604 0.0
N439 N 0.13246 0.6727 0.62497 0.0
C440 C 0.13512 0.67156 0.65032 0.0
C441 C 0.15832 0.66139 0.65606 0.0
C442 C 0.15473 0.66433 0.61586 0.0
N443 N 0.17066 0.65708 0.63433 0.0
C444 C 0.07393 0.6633 0.63663 0.0
C445 C 0.04111 0.65022 0.59834 0.0
C446 C 0.03337 0.64687 0.62344 0.0
C447 C 0.05083 0.65228 0.64258 0.0
C448 C 0.06487 0.66049 0.59316 0.0
N449 N 0.08069 0.66777 0.61224 0.0
H450 H 0.08523 0.67008 0.65192 0.0
H451 H 0.06949 0.66479 0.57379 0.0
H452 H 0.12255 0.67992 0.66396 0.0
H453 H 0.15993 0.66513 0.59618 0.0
O454 O 0.10235 0.71426 0.63334 0.0
O455 O 0.13159 0.71935 0.6038 0.0
O456 O 0.11826 0.67356 0.57385 0.0
C457 C 0.12033 0.72802 0.62385 0.0
H458 H 0.06378 0.74201 0.53683 0.0
H459 H 0.16632 0.6594 0.67474 0.0
H460 H 0.02839 0.64666 0.58278 0.0
H461 H 0.04622 0.64944 0.66226 0.0
Co462 Co 0.89051 0.19142 0.89368 0.0
C463 C 0.93693 0.21954 0.90504 0.0
C464 C 0.91004 0.22219 0.9352 0.0
C465 C 0.93155 0.23495 0.94215 0.0
N466 N 0.91364 0.2124 0.91207 0.0
N467 N 0.94845 0.23313 0.92318 0.0
H468 H 0.94554 0.21406 0.88738 0.0
H469 H 0.89308 0.21992 0.94631 0.0
C470 C 0.87829 0.1501 0.9303 0.0
O471 O 0.87876 0.13359 0.91183 0.0
N472 N 0.86617 0.17076 0.87568 0.0
C473 C 0.86784 0.15828 0.85354 0.0
C474 C 0.8446 0.14831 0.84772 0.0
C475 C 0.84184 0.16832 0.88275 0.0
N476 N 0.82821 0.15469 0.86608 0.0
C477 C 0.92772 0.16909 0.86187 0.0
C478 C 0.9572 0.1494 0.90001 0.0
C479 C 0.96695 0.14997 0.8754 0.0
C480 C 0.95125 0.15897 0.8561 0.0
C481 C 0.93304 0.15892 0.90487 0.0
N482 N 0.91859 0.16889 0.88592 0.0
H483 H 0.91782 0.17893 0.84711 0.0
H484 H 0.92725 0.16056 0.92429 0.0
H485 H 0.88425 0.15656 0.8418 0.0
H486 H 0.8344 0.17641 0.89993 0.0
O487 O 0.8933 0.21375 0.86516 0.0
O488 O 0.86562 0.21801 0.89618 0.0
O489 O 0.88252 0.17339 0.92598 0.0
C490 C 0.87533 0.22687 0.87543 0.0
H491 H 0.93449 0.24471 0.95983 0.0
H492 H 0.84008 0.13769 0.83089 0.0
H493 H 0.96867 0.1433 0.91576 0.0
H494 H 0.9575 0.15953 0.83668 0.0
Co495 Co 0.10766 0.30939 0.89142 0.0
C496 C 0.06138 0.28123 0.90356 0.0
C497 C 0.08904 0.27823 0.93298 0.0
C498 C 0.06769 0.26546 0.94039 0.0
N499 N 0.08487 0.28825 0.91005 0.0
N500 N 0.05029 0.26751 0.92189 0.0
H501 H 0.05232 0.28689 0.88618 0.0
H502 H 0.10627 0.28036 0.94368 0.0
C503 C 0.12025 0.35057 0.92813 0.0
O504 O 0.11984 0.3672 0.90976 0.0
N505 N 0.13173 0.33027 0.87323 0.0
C506 C 0.12937 0.34433 0.85211 0.0
C507 C 0.15252 0.35441 0.84605 0.0
C508 C 0.15633 0.33202 0.87951 0.0
N509 N 0.1695 0.3466 0.86328 0.0
C510 C 0.07009 0.33162 0.86 0.0
C511 C 0.04091 0.3513 0.89838 0.0
C512 C 0.03098 0.35079 0.87383 0.0
C513 C 0.04652 0.34175 0.85441 0.0
C514 C 0.0651 0.34174 0.90305 0.0
N515 N 0.0794 0.3318 0.88398 0.0
H516 H 0.08008 0.32204 0.8451 0.0
H517 H 0.07108 0.34012 0.92242 0.0
H518 H 0.11246 0.34734 0.84138 0.0
H519 H 0.16428 0.32293 0.89596 0.0
O520 O 0.10468 0.28708 0.86287 0.0
O521 O 0.13269 0.28287 0.89358 0.0
O522 O 0.11588 0.32733 0.92369 0.0
C523 C 0.12278 0.27398 0.87294 0.0
H524 H 0.06518 0.25555 0.95805 0.0
H525 H 0.15651 0.36626 0.82993 0.0
H526 H 0.02958 0.35743 0.91421 0.0
H527 H 0.04016 0.34128 0.83503 0.0
Co528 Co 0.60413 0.89196 0.80702 0.0
C529 C 0.5911 0.93842 0.77979 0.0
C530 C 0.56111 0.91126 0.77795 0.0
C531 C 0.55364 0.93273 0.76537 0.0
N532 N 0.58445 0.91506 0.78712 0.0
N533 N 0.5725 0.94982 0.76668 0.0
H534 H 0.60887 0.9471 0.78482 0.0
H535 H 0.55025 0.89415 0.78039 0.0
C536 C 0.56722 0.88062 0.84846 0.0
O537 O 0.58419 0.88679 0.86543 0.0
N538 N 0.62366 0.86754 0.82629 0.0
C539 C 0.64902 0.86524 0.82786 0.0
C540 C 0.65493 0.84215 0.83818 0.0
C541 C 0.61472 0.84515 0.83457 0.0
N542 N 0.63331 0.8295 0.84216 0.0
C543 C 0.635 0.92637 0.83521 0.0
C544 C 0.59629 0.95834 0.84921 0.0
C545 C 0.62129 0.96637 0.85253 0.0
C546 C 0.64067 0.94939 0.84652 0.0
C547 C 0.5914 0.9347 0.8385 0.0
N548 N 0.61067 0.91923 0.83095 0.0
H549 H 0.65039 0.91547 0.82802 0.0
H550 H 0.57207 0.92991 0.83417 0.0
H551 H 0.66264 0.87797 0.81972 0.0
H552 H 0.59511 0.8397 0.83351 0.0
O553 O 0.63224 0.89742 0.78465 0.0
O554 O 0.60273 0.86815 0.77954 0.0
O555 O 0.57241 0.8815 0.82497 0.0
C556 C 0.62288 0.87931 0.77097 0.0
H557 H 0.53572 0.93546 0.75599 0.0
H558 H 0.67369 0.83444 0.84049 0.0
H559 H 0.58059 0.97078 0.85316 0.0
H560 H 0.6603 0.95433 0.84918 0.0
Co561 Co 0.39543 0.60644 0.80676 0.0
C562 C 0.4081 0.56005 0.77956 0.0
C563 C 0.4385 0.58676 0.77791 0.0
C564 C 0.44576 0.56511 0.76547 0.0
N565 N 0.41499 0.58335 0.78682 0.0
N566 N 0.42661 0.54834 0.76663 0.0
H567 H 0.39017 0.55164 0.78442 0.0
H568 H 0.44962 0.60367 0.78048 0.0
C569 C 0.431 0.61986 0.84852 0.0
O570 O 0.41316 0.61544 0.86515 0.0
N571 N 0.37619 0.63062 0.82642 0.0
C572 C 0.35269 0.62934 0.83618 0.0
C573 C 0.34636 0.65255 0.84599 0.0
C574 C 0.38348 0.65473 0.83006 0.0
N575 N 0.36572 0.66853 0.84202 0.0
C576 C 0.36458 0.56889 0.82986 0.0
C577 C 0.40316 0.54159 0.85178 0.0
C578 C 0.37873 0.53151 0.85182 0.0
C579 C 0.35928 0.54573 0.84101 0.0
C580 C 0.40764 0.56508 0.84054 0.0
N581 N 0.38839 0.57871 0.82997 0.0
H582 H 0.34979 0.5777 0.81912 0.0
H583 H 0.42695 0.57117 0.8386 0.0
H584 H 0.34026 0.61334 0.83562 0.0
H585 H 0.40147 0.66202 0.82377 0.0
O586 O 0.36745 0.60173 0.78413 0.0
O587 O 0.3972 0.63072 0.77951 0.0
O588 O 0.42696 0.61671 0.82502 0.0
C589 C 0.37701 0.61985 0.7707 0.0
H590 H 0.46373 0.56204 0.7563 0.0
H591 H 0.3285 0.65747 0.85455 0.0
H592 H 0.41886 0.53102 0.85947 0.0
H593 H 0.34033 0.53824 0.83953 0.0
Co594 Co 0.60526 0.10905 0.6909 0.0
C595 C 0.59156 0.06263 0.71772 0.0
C596 C 0.5617 0.08995 0.71931 0.0
C597 C 0.55394 0.06842 0.73166 0.0
N598 N 0.58518 0.08609 0.7105 0.0
N599 N 0.57275 0.05126 0.73054 0.0
H600 H 0.60936 0.05389 0.71298 0.0
H601 H 0.55096 0.10711 0.71678 0.0
C602 C 0.57039 0.12304 0.64879 0.0
O603 O 0.58822 0.11818 0.63229 0.0
N604 N 0.62492 0.13316 0.67153 0.0
C605 C 0.64758 0.13121 0.66003 0.0
C606 C 0.65415 0.15443 0.65037 0.0
C607 C 0.61833 0.1576 0.66889 0.0
N608 N 0.63576 0.17104 0.65606 0.0
C609 C 0.63607 0.07131 0.6682 0.0
C610 C 0.59765 0.04444 0.6455 0.0
C611 C 0.62201 0.03417 0.64578 0.0
C612 C 0.64138 0.04816 0.65701 0.0
C613 C 0.59317 0.0679 0.6568 0.0
N614 N 0.61236 0.08133 0.66771 0.0
H615 H 0.65082 0.08009 0.67906 0.0
H616 H 0.57388 0.07417 0.65845 0.0
H617 H 0.65914 0.1146 0.65886 0.0
H618 H 0.60092 0.16531 0.67624 0.0
O619 O 0.63289 0.10395 0.71388 0.0
O620 O 0.60335 0.13319 0.71827 0.0
O621 O 0.57411 0.11979 0.67232 0.0
C622 C 0.62328 0.12205 0.72732 0.0
H623 H 0.53589 0.06573 0.74077 0.0
H624 H 0.67143 0.15883 0.64044 0.0
H625 H 0.582 0.03405 0.63748 0.0
H626 H 0.66026 0.04054 0.65872 0.0
Co627 Co 0.39223 0.39006 0.68953 0.0
C628 C 0.40568 0.4359 0.71769 0.0
C629 C 0.43501 0.40804 0.71959 0.0
C630 C 0.4429 0.42926 0.73233 0.0
N631 N 0.41181 0.41242 0.7103 0.0
N632 N 0.42446 0.4468 0.73097 0.0
H633 H 0.3882 0.44507 0.71257 0.0
H634 H 0.44555 0.39076 0.71699 0.0
C635 C 0.42815 0.37789 0.64766 0.0
O636 O 0.41074 0.38331 0.63089 0.0
N637 N 0.37319 0.36644 0.66894 0.0
C638 C 0.35158 0.36887 0.65564 0.0
C639 C 0.3452 0.34575 0.64564 0.0
C640 C 0.37944 0.34187 0.66681 0.0
N641 N 0.3627 0.32876 0.65279 0.0
C642 C 0.36127 0.42795 0.66734 0.0
C643 C 0.39982 0.45688 0.64762 0.0
C644 C 0.37525 0.46677 0.6478 0.0
C645 C 0.35577 0.45141 0.65696 0.0
C646 C 0.40441 0.43278 0.6575 0.0
N647 N 0.38521 0.41851 0.66723 0.0
H648 H 0.34635 0.41822 0.67714 0.0
H649 H 0.42375 0.42674 0.65938 0.0
H650 H 0.34066 0.38574 0.65316 0.0
H651 H 0.39617 0.33386 0.67531 0.0
O652 O 0.36409 0.39396 0.71223 0.0
O653 O 0.39402 0.36504 0.71604 0.0
O654 O 0.42381 0.38028 0.67118 0.0
C655 C 0.37377 0.37552 0.72515 0.0
H656 H 0.46085 0.43156 0.74175 0.0
H657 H 0.32867 0.34175 0.63436 0.0
H658 H 0.41568 0.46817 0.64146 0.0
H659 H 0.3364 0.45785 0.65733 0.0
Co660 Co 0.80883 0.6051 0.89219 0.0
C661 C 0.7819 0.59111 0.93842 0.0
C662 C 0.78023 0.56152 0.91082 0.0
C663 C 0.76765 0.55366 0.93216 0.0
N664 N 0.78922 0.58488 0.91497 0.0
N665 N 0.76882 0.5723 0.9495 0.0
H666 H 0.78669 0.60882 0.94732 0.0
H667 H 0.78271 0.55094 0.89355 0.0
C668 C 0.85096 0.57013 0.8781 0.0
O669 O 0.86754 0.58783 0.88318 0.0
N670 N 0.82821 0.62487 0.86822 0.0
C671 C 0.83883 0.64798 0.86992 0.0
C672 C 0.84877 0.6544 0.84677 0.0
C673 C 0.83153 0.61791 0.84399 0.0
N674 N 0.84405 0.63548 0.83048 0.0
C675 C 0.83169 0.63579 0.92991 0.0
C676 C 0.85446 0.59731 0.95665 0.0
C677 C 0.85429 0.6217 0.96691 0.0
C678 C 0.84301 0.64108 0.95297 0.0
C679 C 0.84299 0.59284 0.93328 0.0
N680 N 0.83206 0.61206 0.91991 0.0
H681 H 0.82076 0.65054 0.92124 0.0
H682 H 0.84127 0.57355 0.92701 0.0
H683 H 0.83907 0.65999 0.88624 0.0
H684 H 0.82482 0.60015 0.83648 0.0
O685 O 0.78589 0.63275 0.89746 0.0
O686 O 0.78144 0.60344 0.86802 0.0
O687 O 0.82742 0.57395 0.88127 0.0
C688 C 0.77244 0.62334 0.87929 0.0
H689 H 0.75828 0.53569 0.93459 0.0
H690 H 0.85814 0.67195 0.84218 0.0
H691 H 0.86251 0.58165 0.967 0.0
H692 H 0.84133 0.65997 0.96058 0.0
Co693 Co 0.80844 0.39536 0.60687 0.0
C694 C 0.78143 0.40822 0.56024 0.0
C695 C 0.77909 0.438 0.58757 0.0
C696 C 0.76645 0.44545 0.56616 0.0
N697 N 0.78856 0.41478 0.58365 0.0
N698 N 0.76803 0.4267 0.54899 0.0
H699 H 0.78649 0.39051 0.55149 0.0
H700 H 0.78128 0.44875 0.60477 0.0
C701 C 0.85023 0.43092 0.62131 0.0
O702 O 0.8664 0.41214 0.62173 0.0
N703 N 0.82805 0.37625 0.63121 0.0
C704 C 0.84027 0.35401 0.62902 0.0
C705 C 0.84972 0.34727 0.65225 0.0
C706 C 0.83006 0.38246 0.6558 0.0
N707 N 0.84322 0.36517 0.66911 0.0
C708 C 0.82997 0.36359 0.56919 0.0
C709 C 0.85456 0.40099 0.54253 0.0
C710 C 0.85313 0.3767 0.53214 0.0
C711 C 0.84098 0.35783 0.54606 0.0
C712 C 0.84335 0.40596 0.56592 0.0
N713 N 0.83134 0.3873 0.57916 0.0
H714 H 0.81881 0.34917 0.5782 0.0
H715 H 0.84271 0.42529 0.5722 0.0
H716 H 0.84214 0.34288 0.61218 0.0
H717 H 0.82211 0.39954 0.66365 0.0
O718 O 0.78532 0.36753 0.6032 0.0
O719 O 0.7814 0.39819 0.63129 0.0
O720 O 0.82713 0.42706 0.61581 0.0
C721 C 0.7722 0.37779 0.62115 0.0
H722 H 0.75672 0.46321 0.56356 0.0
H723 H 0.86013 0.33021 0.65643 0.0
H724 H 0.86345 0.41626 0.53227 0.0
H725 H 0.83853 0.33902 0.53846 0.0
Co726 Co 0.18942 0.10605 0.60751 0.0
C727 C 0.21727 0.09236 0.56163 0.0
C728 C 0.21815 0.0625 0.58899 0.0
C729 C 0.2311 0.05474 0.56785 0.0
N730 N 0.20935 0.08594 0.58484 0.0
N731 N 0.23041 0.07352 0.55065 0.0
H732 H 0.21268 0.11015 0.55275 0.0
H733 H 0.21525 0.05179 0.60611 0.0
C734 C 0.14736 0.06965 0.61854 0.0
O735 O 0.13056 0.08663 0.61193 0.0
N736 N 0.17009 0.12596 0.63153 0.0
C737 C 0.16869 0.15136 0.63371 0.0
C738 C 0.1584 0.15742 0.65678 0.0
C739 C 0.16171 0.11717 0.65391 0.0
N740 N 0.15428 0.13587 0.66949 0.0
C741 C 0.16227 0.13717 0.5725 0.0
C742 C 0.14799 0.09843 0.54069 0.0
C743 C 0.14514 0.12343 0.53244 0.0
C744 C 0.15131 0.14286 0.54931 0.0
C745 C 0.15835 0.09355 0.56447 0.0
N746 N 0.166 0.11282 0.57988 0.0
H747 H 0.16961 0.15252 0.58336 0.0
H748 H 0.1623 0.07419 0.56945 0.0
H749 H 0.17699 0.16487 0.62098 0.0
H750 H 0.1627 0.09758 0.65946 0.0
O751 O 0.21235 0.1338 0.60227 0.0
O752 O 0.21652 0.10428 0.63169 0.0
O753 O 0.17089 0.07466 0.61788 0.0
C754 C 0.22564 0.12419 0.62054 0.0
H755 H 0.24034 0.0367 0.56544 0.0
H756 H 0.15629 0.17623 0.66448 0.0
H757 H 0.14393 0.08269 0.52835 0.0
H758 H 0.14903 0.1625 0.54419 0.0
Co759 Co 0.68892 0.39297 0.39176 0.0
C760 C 0.71632 0.40698 0.43774 0.0
C761 C 0.71776 0.43649 0.41003 0.0
C762 C 0.73057 0.44439 0.4312 0.0
N763 N 0.70876 0.41315 0.41436 0.0
N764 N 0.72956 0.4258 0.44859 0.0
H765 H 0.71161 0.3893 0.44677 0.0
H766 H 0.71512 0.44701 0.39276 0.0
C767 C 0.64687 0.42808 0.37783 0.0
O768 O 0.63031 0.41025 0.38248 0.0
N769 N 0.66932 0.37329 0.36792 0.0
C770 C 0.65796 0.35056 0.3699 0.0
C771 C 0.64832 0.34394 0.34668 0.0
C772 C 0.66664 0.37987 0.34352 0.0
N773 N 0.65393 0.36237 0.33009 0.0
C774 C 0.66635 0.36241 0.42977 0.0
C775 C 0.64383 0.40103 0.45652 0.0
C776 C 0.64415 0.37671 0.46694 0.0
C777 C 0.65529 0.35725 0.45299 0.0
C778 C 0.65505 0.40538 0.43301 0.0
N779 N 0.66589 0.38609 0.41966 0.0
H780 H 0.6771 0.34758 0.42098 0.0
H781 H 0.65669 0.42463 0.42663 0.0
H782 H 0.65694 0.33897 0.3865 0.0
H783 H 0.67396 0.3973 0.33581 0.0
O784 O 0.71181 0.36522 0.39682 0.0
O785 O 0.71614 0.39462 0.36745 0.0
O786 O 0.67039 0.4242 0.38108 0.0
C787 C 0.72516 0.37466 0.37859 0.0
H788 H 0.73999 0.46235 0.43348 0.0
H789 H 0.63853 0.32658 0.34227 0.0
H790 H 0.63586 0.41675 0.46684 0.0
H791 H 0.65703 0.3384 0.46069 0.0
Co792 Co 0.60777 0.69116 0.89384 0.0
C793 C 0.56124 0.7184 0.90649 0.0
C794 C 0.58799 0.71999 0.93685 0.0
C795 C 0.56644 0.73256 0.94411 0.0
N796 N 0.58448 0.71097 0.91341 0.0
N797 N 0.54961 0.73141 0.92501 0.0
H798 H 0.55279 0.71349 0.88858 0.0
H799 H 0.60493 0.71745 0.94793 0.0
C800 C 0.61875 0.64968 0.93076 0.0
O801 O 0.61255 0.63281 0.91371 0.0
N802 N 0.63236 0.67203 0.87437 0.0
C803 C 0.635 0.67087 0.84902 0.0
C804 C 0.65808 0.66046 0.84325 0.0
C805 C 0.65455 0.66344 0.88346 0.0
N806 N 0.67039 0.65602 0.86496 0.0
C807 C 0.57398 0.66234 0.86284 0.0
C808 C 0.54108 0.64954 0.90117 0.0
C809 C 0.53344 0.64596 0.87608 0.0
C810 C 0.55093 0.65123 0.85694 0.0
C811 C 0.5648 0.65992 0.90631 0.0
N812 N 0.58065 0.66707 0.8872 0.0
H813 H 0.58529 0.669 0.84752 0.0
H814 H 0.56935 0.66441 0.92566 0.0
H815 H 0.62249 0.67933 0.83538 0.0
H816 H 0.65978 0.66418 0.90314 0.0
O817 O 0.60213 0.71348 0.86578 0.0
O818 O 0.6314 0.71888 0.89523 0.0
O819 O 0.61816 0.6732 0.9256 0.0
C820 C 0.62005 0.72739 0.87515 0.0
H821 H 0.56347 0.7418 0.96206 0.0
H822 H 0.66605 0.65841 0.82457 0.0
H823 H 0.52831 0.64609 0.91671 0.0
H824 H 0.54637 0.6482 0.83727 0.0
Co825 Co 0.3903 0.80741 0.89216 0.0
C826 C 0.4367 0.78 0.90527 0.0
C827 C 0.40933 0.77808 0.93506 0.0
C828 C 0.43075 0.7655 0.94266 0.0
N829 N 0.4133 0.78732 0.91177 0.0
N830 N 0.44798 0.76687 0.92394 0.0
H831 H 0.44552 0.7851 0.88759 0.0
H832 H 0.39217 0.78052 0.94581 0.0
C833 C 0.37954 0.84899 0.92912 0.0
O834 O 0.38572 0.86589 0.91208 0.0
N835 N 0.36598 0.82691 0.87273 0.0
C836 C 0.36357 0.8287 0.84739 0.0
C837 C 0.34063 0.8395 0.84169 0.0
C838 C 0.34381 0.83553 0.88184 0.0
N839 N 0.3282 0.84356 0.86341 0.0
C840 C 0.42478 0.83536 0.86114 0.0
C841 C 0.45697 0.8492 0.8997 0.0
C842 C 0.46489 0.85254 0.87467 0.0
C843 C 0.44781 0.84659 0.85537 0.0
C844 C 0.43332 0.83859 0.90469 0.0
N845 N 0.41772 0.83114 0.88549 0.0
H846 H 0.41378 0.82822 0.8458 0.0
H847 H 0.4286 0.83428 0.92404 0.0
H848 H 0.37611 0.82045 0.83366 0.0
H849 H 0.33844 0.83443 0.90147 0.0
O850 O 0.39552 0.78497 0.86405 0.0
O851 O 0.36632 0.78004 0.89363 0.0
O852 O 0.38014 0.82547 0.92394 0.0
C853 C 0.37743 0.77134 0.87351 0.0
H854 H 0.43335 0.75612 0.96059 0.0
H855 H 0.33283 0.8421 0.823 0.0
H856 H 0.46948 0.85308 0.91535 0.0
H857 H 0.45266 0.84926 0.83572 0.0
Co858 Co 0.60787 0.30918 0.60662 0.0
C859 C 0.56172 0.28082 0.59452 0.0
C860 C 0.58934 0.27797 0.56503 0.0
C861 C 0.56802 0.26513 0.55765 0.0
N862 N 0.58517 0.28794 0.58799 0.0
N863 N 0.55065 0.26708 0.57618 0.0
H864 H 0.55267 0.28643 0.61191 0.0
H865 H 0.60654 0.2802 0.5543 0.0
C866 C 0.62028 0.35043 0.56993 0.0
O867 O 0.61982 0.36701 0.58833 0.0
N868 N 0.63183 0.33016 0.62481 0.0
C869 C 0.62948 0.34397 0.6461 0.0
C870 C 0.65255 0.35431 0.65203 0.0
C871 C 0.65635 0.33227 0.61834 0.0
N872 N 0.66947 0.34689 0.63457 0.0
C873 C 0.57012 0.33145 0.63782 0.0
C874 C 0.54105 0.35087 0.59922 0.0
C875 C 0.53102 0.35042 0.62372 0.0
C876 C 0.54649 0.34152 0.64326 0.0
C877 C 0.56528 0.34135 0.5947 0.0
N878 N 0.57953 0.33155 0.61388 0.0
H879 H 0.58004 0.3219 0.65279 0.0
H880 H 0.5713 0.33963 0.57536 0.0
H881 H 0.61264 0.3466 0.65704 0.0
H882 H 0.66426 0.32342 0.60174 0.0
O883 O 0.60484 0.28695 0.63522 0.0
O884 O 0.63297 0.28269 0.60464 0.0
O885 O 0.61611 0.32713 0.57433 0.0
C886 C 0.62301 0.27385 0.62527 0.0
H887 H 0.56552 0.25525 0.53998 0.0
H888 H 0.65655 0.36607 0.66822 0.0
H889 H 0.52976 0.35687 0.58332 0.0
H890 H 0.54001 0.34108 0.66261 0.0
Co891 Co 0.39113 0.19047 0.60469 0.0
C892 C 0.43745 0.21875 0.59327 0.0
C893 C 0.41054 0.22121 0.5631 0.0
C894 C 0.432 0.23404 0.5561 0.0
N895 N 0.41418 0.2115 0.58626 0.0
N896 N 0.44892 0.23234 0.57507 0.0
H897 H 0.44608 0.21336 0.61094 0.0
H898 H 0.3936 0.21884 0.552 0.0
C899 C 0.37905 0.14898 0.56824 0.0
O900 O 0.37935 0.13255 0.58678 0.0
N901 N 0.36687 0.16974 0.62274 0.0
C902 C 0.3688 0.15661 0.64448 0.0
C903 C 0.34555 0.14675 0.65046 0.0
C904 C 0.34241 0.16771 0.61602 0.0
N905 N 0.32892 0.1538 0.63257 0.0
C906 C 0.42839 0.16851 0.63666 0.0
C907 C 0.45803 0.14881 0.59865 0.0
C908 C 0.46774 0.1496 0.62327 0.0
C909 C 0.45198 0.1586 0.64251 0.0
C910 C 0.43382 0.15815 0.59372 0.0
N911 N 0.4193 0.16813 0.6126 0.0
H912 H 0.41831 0.17826 0.65139 0.0
H913 H 0.42803 0.15963 0.57429 0.0
H914 H 0.38544 0.15426 0.65579 0.0
H915 H 0.33478 0.17625 0.59913 0.0
O916 O 0.39374 0.21292 0.63313 0.0
O917 O 0.36612 0.21692 0.60203 0.0
O918 O 0.3833 0.17228 0.57247 0.0
C919 C 0.37571 0.2259 0.62277 0.0
H920 H 0.43491 0.24375 0.53839 0.0
H921 H 0.34123 0.13568 0.66704 0.0
H922 H 0.46956 0.1427 0.58296 0.0
H923 H 0.4582 0.15929 0.66194 0.0
Co924 Co 0.89481 0.60813 0.69238 0.0
C925 C 0.90729 0.56161 0.71948 0.0
C926 C 0.93759 0.5884 0.72154 0.0
C927 C 0.94487 0.56666 0.7338 0.0
N928 N 0.91414 0.58499 0.71248 0.0
N929 N 0.92579 0.54983 0.73236 0.0
H930 H 0.88944 0.55316 0.71441 0.0
H931 H 0.94869 0.60535 0.71913 0.0
C932 C 0.93067 0.62122 0.65068 0.0
O933 O 0.91287 0.617 0.63397 0.0
N934 N 0.87582 0.63235 0.67253 0.0
C935 C 0.85245 0.63106 0.66249 0.0
C936 C 0.84626 0.65427 0.65258 0.0
C937 C 0.8832 0.65644 0.66893 0.0
N938 N 0.86559 0.67024 0.65675 0.0
C939 C 0.86372 0.57061 0.66946 0.0
C940 C 0.90209 0.54327 0.64722 0.0
C941 C 0.87762 0.53327 0.64722 0.0
C942 C 0.85828 0.5475 0.65822 0.0
C943 C 0.90672 0.56666 0.65859 0.0
N944 N 0.88756 0.58034 0.66927 0.0
H945 H 0.84899 0.57949 0.68024 0.0
H946 H 0.92606 0.57265 0.66049 0.0
H947 H 0.84003 0.61505 0.66288 0.0
H948 H 0.90114 0.6637 0.67539 0.0
O949 O 0.86669 0.6039 0.71501 0.0
O950 O 0.8968 0.63252 0.71947 0.0
O951 O 0.9265 0.61804 0.67416 0.0
C952 C 0.87643 0.62203 0.72831 0.0
H953 H 0.96283 0.56354 0.74298 0.0
H954 H 0.82851 0.65918 0.64378 0.0
H955 H 0.91772 0.53271 0.63938 0.0
H956 H 0.8393 0.54009 0.65973 0.0
Co957 Co 0.10468 0.89233 0.69162 0.0
C958 C 0.09145 0.9385 0.71919 0.0
C959 C 0.06165 0.91112 0.72096 0.0
C960 C 0.05405 0.93249 0.73365 0.0
N961 N 0.08495 0.91514 0.71176 0.0
N962 N 0.0728 0.94971 0.73239 0.0
H963 H 0.10914 0.94732 0.71415 0.0
H964 H 0.05089 0.89397 0.71843 0.0
C965 C 0.06808 0.88114 0.64991 0.0
O966 O 0.0852 0.88727 0.63308 0.0
N967 N 0.12423 0.86822 0.67205 0.0
C968 C 0.14957 0.86623 0.66984 0.0
C969 C 0.15548 0.84315 0.6595 0.0
C970 C 0.11535 0.8457 0.6641 0.0
N971 N 0.13392 0.83023 0.65615 0.0
C972 C 0.13555 0.92756 0.66454 0.0
C973 C 0.09665 0.95896 0.64981 0.0
C974 C 0.12158 0.96739 0.64706 0.0
C975 C 0.1411 0.95073 0.65348 0.0
C976 C 0.09191 0.93521 0.66032 0.0
N977 N 0.11126 0.91995 0.66811 0.0
H978 H 0.15094 0.91693 0.67214 0.0
H979 H 0.07257 0.93015 0.66429 0.0
H980 H 0.16325 0.87913 0.67757 0.0
H981 H 0.09583 0.84006 0.66567 0.0
O982 O 0.13275 0.89744 0.71413 0.0
O983 O 0.1032 0.86812 0.71875 0.0
O984 O 0.07304 0.8821 0.67344 0.0
C985 C 0.12334 0.87914 0.72753 0.0
H986 H 0.03613 0.93506 0.74306 0.0
H987 H 0.17427 0.83563 0.65675 0.0
H988 H 0.08085 0.97119 0.64557 0.0
H989 H 0.16071 0.95604 0.65134 0.0
Co990 Co 0.8921 0.39089 0.8078 0.0
C991 C 0.90535 0.43669 0.7796 0.0
C992 C 0.93484 0.409 0.77769 0.0
C993 C 0.94264 0.43032 0.76504 0.0
N994 N 0.9116 0.41323 0.78694 0.0
N995 N 0.92409 0.44774 0.76641 0.0
H996 H 0.88783 0.44576 0.78476 0.0
H997 H 0.9455 0.3918 0.7803 0.0
C998 C 0.92822 0.37864 0.84946 0.0
O999 O 0.9109 0.38419 0.86628 0.0
N1000 N 0.87311 0.36729 0.82849 0.0
C1001 C 0.85159 0.3698 0.84192 0.0
C1002 C 0.84524 0.34673 0.85205 0.0
C1003 C 0.87933 0.34271 0.83068 0.0
N1004 N 0.86266 0.32968 0.84486 0.0
C1005 C 0.86147 0.4289 0.83023 0.0
C1006 C 0.90034 0.4579 0.84918 0.0
C1007 C 0.87583 0.46794 0.84906 0.0
C1008 C 0.85618 0.45252 0.84036 0.0
C1009 C 0.90471 0.43364 0.83962 0.0
N1010 N 0.88536 0.41935 0.83019 0.0
H1011 H 0.84642 0.41918 0.82063 0.0
H1012 H 0.92401 0.42748 0.83763 0.0
H1013 H 0.84072 0.3867 0.84444 0.0
H1014 H 0.896 0.33465 0.8221 0.0
O1015 O 0.86382 0.39499 0.78531 0.0
O1016 O 0.89357 0.36594 0.78119 0.0
O1017 O 0.92378 0.38095 0.82595 0.0
C1018 C 0.87334 0.37659 0.77221 0.0
H1019 H 0.96063 0.43279 0.75571 0.0
H1020 H 0.82877 0.34281 0.86345 0.0
H1021 H 0.91632 0.4692 0.85501 0.0
H1022 H 0.83684 0.45903 0.8401 0.0
Co1023 Co 0.10468 0.10893 0.80821 0.0
C1024 C 0.09121 0.06258 0.78126 0.0
C1025 C 0.06121 0.08974 0.77973 0.0
C1026 C 0.05355 0.0682 0.76737 0.0
N1027 N 0.08471 0.08598 0.78852 0.0
N1028 N 0.07245 0.05113 0.76845 0.0
H1029 H 0.10905 0.05391 0.786 0.0
H1030 H 0.05037 0.10684 0.78231 0.0
C1031 C 0.06959 0.1228 0.85023 0.0
O1032 O 0.08733 0.11794 0.86682 0.0
N1033 N 0.12425 0.13302 0.8277 0.0
C1034 C 0.14678 0.131 0.83943 0.0
C1035 C 0.1534 0.15425 0.84898 0.0
C1036 C 0.11777 0.1575 0.83012 0.0
N1037 N 0.13517 0.17092 0.843 0.0
C1038 C 0.13554 0.07119 0.83081 0.0
C1039 C 0.09718 0.04414 0.85341 0.0
C1040 C 0.12157 0.03391 0.85306 0.0
C1041 C 0.14089 0.048 0.84188 0.0
C1042 C 0.09264 0.06765 0.84222 0.0
N1043 N 0.11181 0.08116 0.83135 0.0
H1044 H 0.15028 0.08007 0.82001 0.0
H1045 H 0.07335 0.0739 0.84063 0.0
H1046 H 0.15822 0.11433 0.84085 0.0
H1047 H 0.10047 0.16525 0.82256 0.0
O1048 O 0.1324 0.10397 0.78531 0.0
O1049 O 0.10281 0.13315 0.78089 0.0
O1050 O 0.07344 0.11958 0.82672 0.0
C1051 C 0.12282 0.12209 0.77189 0.0
H1052 H 0.0355 0.06541 0.75827 0.0
H1053 H 0.17062 0.15861 0.85903 0.0
H1054 H 0.08156 0.03368 0.8614 0.0
H1055 H 0.15979 0.04043 0.84013 0.0
Co1056 Co 0.69086 0.89594 0.60636 0.0
C1057 C 0.71734 0.90859 0.55942 0.0
C1058 C 0.72007 0.93849 0.58659 0.0
C1059 C 0.73251 0.94579 0.565 0.0
N1060 N 0.71049 0.91529 0.58287 0.0
N1061 N 0.7307 0.92696 0.54794 0.0
H1062 H 0.71214 0.89085 0.55082 0.0
H1063 H 0.71812 0.94931 0.60377 0.0
C1064 C 0.64918 0.93165 0.62069 0.0
O1065 O 0.63293 0.91294 0.62082 0.0
N1066 N 0.67151 0.87693 0.63094 0.0
C1067 C 0.66047 0.85403 0.62934 0.0
C1068 C 0.65069 0.84776 0.65255 0.0
C1069 C 0.66863 0.88393 0.65522 0.0
N1070 N 0.65587 0.86658 0.66883 0.0
C1071 C 0.66864 0.86409 0.56923 0.0
C1072 C 0.64398 0.90139 0.54251 0.0
C1073 C 0.64505 0.87696 0.53241 0.0
C1074 C 0.65726 0.85816 0.54636 0.0
C1075 C 0.65558 0.90654 0.56568 0.0
N1076 N 0.66758 0.88791 0.57898 0.0
H1077 H 0.67998 0.84973 0.57806 0.0
H1078 H 0.65652 0.92593 0.57171 0.0
H1079 H 0.65975 0.8421 0.61298 0.0
H1080 H 0.67567 0.9016 0.66264 0.0
O1081 O 0.71374 0.86811 0.60223 0.0
O1082 O 0.71829 0.89854 0.63047 0.0
O1083 O 0.67234 0.92769 0.61549 0.0
C1084 C 0.72722 0.87818 0.62 0.0
H1085 H 0.7423 0.96349 0.56224 0.0
H1086 H 0.64101 0.83038 0.65715 0.0
H1087 H 0.63511 0.91662 0.53219 0.0
H1088 H 0.65954 0.83926 0.53893 0.0
Co1089 Co 0.68931 0.1053 0.89184 0.0
C1090 C 0.7175 0.09174 0.9375 0.0
C1091 C 0.71844 0.06189 0.91014 0.0
C1092 C 0.73155 0.05422 0.93121 0.0
N1093 N 0.7095 0.08527 0.91434 0.0
N1094 N 0.73082 0.07301 0.94841 0.0
H1095 H 0.71282 0.1095 0.94641 0.0
H1096 H 0.71552 0.05116 0.89304 0.0
C1097 C 0.64751 0.06863 0.88088 0.0
O1098 O 0.63066 0.08554 0.88756 0.0
N1099 N 0.66975 0.12517 0.86797 0.0
C1100 C 0.66835 0.15058 0.86584 0.0
C1101 C 0.65808 0.1567 0.84279 0.0
C1102 C 0.66138 0.11644 0.84557 0.0
N1103 N 0.65397 0.13518 0.83002 0.0
C1104 C 0.66171 0.13597 0.92694 0.0
C1105 C 0.64842 0.09701 0.95892 0.0
C1106 C 0.64518 0.12196 0.96718 0.0
C1107 C 0.65078 0.14147 0.95019 0.0
C1108 C 0.65865 0.0923 0.93505 0.0
N1109 N 0.66589 0.11169 0.91958 0.0
H1110 H 0.66863 0.15146 0.916 0.0
H1111 H 0.66287 0.073 0.93002 0.0
H1112 H 0.6767 0.16405 0.87858 0.0
H1113 H 0.66243 0.09686 0.83996 0.0
O1114 O 0.712 0.13323 0.89716 0.0
O1115 O 0.71637 0.10392 0.86757 0.0
O1116 O 0.67101 0.07378 0.88141 0.0
C1117 C 0.72534 0.12386 0.8788 0.0
H1118 H 0.74091 0.03624 0.93359 0.0
H1119 H 0.65602 0.17552 0.83512 0.0
H1120 H 0.64477 0.0812 0.97131 0.0
H1121 H 0.64811 0.16107 0.95526 0.0
Co1122 Co 0.30905 0.39356 0.89011 0.0
C1123 C 0.28199 0.40695 0.93652 0.0
C1124 C 0.2798 0.43645 0.90886 0.0
C1125 C 0.26716 0.44419 0.93017 0.0
N1126 N 0.28917 0.41324 0.91306 0.0
N1127 N 0.26865 0.42561 0.94753 0.0
H1128 H 0.287 0.38934 0.94549 0.0
H1129 H 0.28207 0.447 0.89155 0.0
C1130 C 0.35109 0.42888 0.87581 0.0
O1131 O 0.36718 0.41004 0.87545 0.0
N1132 N 0.32865 0.37426 0.86597 0.0
C1133 C 0.34089 0.35204 0.86821 0.0
C1134 C 0.35034 0.34528 0.84496 0.0
C1135 C 0.33064 0.38045 0.84139 0.0
N1136 N 0.34379 0.36315 0.8281 0.0
C1137 C 0.33049 0.36194 0.92803 0.0
C1138 C 0.35493 0.39955 0.95454 0.0
C1139 C 0.35354 0.37532 0.96506 0.0
C1140 C 0.34147 0.35633 0.95122 0.0
C1141 C 0.34375 0.40436 0.93112 0.0
N1142 N 0.33183 0.38561 0.91795 0.0
H1143 H 0.31938 0.34747 0.91905 0.0
H1144 H 0.34304 0.42367 0.92478 0.0
H1145 H 0.34279 0.34096 0.88508 0.0
H1146 H 0.32271 0.39753 0.83352 0.0
O1147 O 0.28578 0.36585 0.89389 0.0
O1148 O 0.2821 0.39637 0.8656 0.0
O1149 O 0.32792 0.4251 0.88108 0.0
C1150 C 0.27275 0.37611 0.87587 0.0
H1151 H 0.25752 0.46202 0.93258 0.0
H1152 H 0.36079 0.32825 0.84078 0.0
H1153 H 0.36375 0.4149 0.96473 0.0
H1154 H 0.33907 0.33755 0.95892 0.0
Co1155 Co 0.80837 0.10393 0.10735 0.0
C1156 C 0.78169 0.09103 0.06052 0.0
C1157 C 0.77922 0.06123 0.08784 0.0
C1158 C 0.76682 0.05373 0.0663 0.0
N1159 N 0.78862 0.0845 0.08401 0.0
N1160 N 0.76849 0.07249 0.04913 0.0
H1161 H 0.78678 0.10875 0.05181 0.0
H1162 H 0.78132 0.05048 0.10505 0.0
C1163 C 0.85035 0.06849 0.1216 0.0
O1164 O 0.86644 0.08732 0.12213 0.0
N1165 N 0.82786 0.12304 0.13176 0.0
C1166 C 0.83991 0.14539 0.12967 0.0
C1167 C 0.84951 0.15197 0.15288 0.0
C1168 C 0.8301 0.11662 0.15627 0.0
N1169 N 0.84327 0.13388 0.16962 0.0
C1170 C 0.82988 0.1359 0.0698 0.0
C1171 C 0.85467 0.09862 0.04316 0.0
C1172 C 0.85321 0.12292 0.03283 0.0
C1173 C 0.84097 0.14175 0.04674 0.0
C1174 C 0.84338 0.09357 0.06648 0.0
N1175 N 0.83128 0.11216 0.07972 0.0
H1176 H 0.81861 0.15024 0.07879 0.0
H1177 H 0.84272 0.07421 0.07266 0.0
H1178 H 0.84156 0.15668 0.11292 0.0
H1179 H 0.82236 0.09941 0.16404 0.0
O1180 O 0.78511 0.13164 0.10374 0.0
O1181 O 0.78134 0.10084 0.13172 0.0
O1182 O 0.82722 0.0723 0.11618 0.0
C1183 C 0.77201 0.12121 0.12162 0.0
H1184 H 0.75722 0.03592 0.06361 0.0
H1185 H 0.85986 0.16905 0.15713 0.0
H1186 H 0.8636 0.08339 0.03289 0.0
H1187 H 0.83851 0.16056 0.03916 0.0
Co1188 Co 0.39124 0.30832 0.10494 0.0
C1189 C 0.43761 0.28 0.0936 0.0
C1190 C 0.41049 0.27705 0.06367 0.0
C1191 C 0.43197 0.26425 0.05667 0.0
N1192 N 0.41425 0.28706 0.08668 0.0
N1193 N 0.44903 0.26626 0.07548 0.0
H1194 H 0.44634 0.28565 0.11114 0.0
H1195 H 0.39347 0.27922 0.05265 0.0
C1196 C 0.37899 0.34938 0.06792 0.0
O1197 O 0.37928 0.36608 0.08621 0.0
N1198 N 0.36707 0.32935 0.12285 0.0
C1199 C 0.36934 0.34321 0.14411 0.0
C1200 C 0.34625 0.35347 0.15001 0.0
C1201 C 0.34255 0.33137 0.11634 0.0
N1202 N 0.32937 0.34598 0.13255 0.0
C1203 C 0.42858 0.33039 0.13669 0.0
C1204 C 0.45814 0.35009 0.09861 0.0
C1205 C 0.46785 0.34944 0.12324 0.0
C1206 C 0.45212 0.34043 0.14251 0.0
C1207 C 0.43396 0.34063 0.09371 0.0
N1208 N 0.41948 0.33067 0.11263 0.0
H1209 H 0.41847 0.32077 0.15148 0.0
H1210 H 0.42813 0.3391 0.07429 0.0
H1211 H 0.38614 0.34593 0.15508 0.0
H1212 H 0.33467 0.32245 0.09977 0.0
O1213 O 0.39382 0.28609 0.1336 0.0
O1214 O 0.36615 0.28188 0.10259 0.0
O1215 O 0.38339 0.32617 0.07249 0.0
C1216 C 0.37578 0.27304 0.12338 0.0
H1217 H 0.43478 0.25434 0.03906 0.0
H1218 H 0.34222 0.36521 0.1662 0.0
H1219 H 0.46964 0.35623 0.08291 0.0
H1220 H 0.45832 0.33987 0.16194 0.0
Co1221 Co 0.60754 0.18883 0.10688 0.0
C1222 C 0.56183 0.21775 0.09466 0.0
C1223 C 0.58917 0.21968 0.06484 0.0
C1224 C 0.56795 0.23271 0.05747 0.0
N1225 N 0.58511 0.21017 0.08801 0.0
N1226 N 0.55075 0.23133 0.07621 0.0
H1227 H 0.55288 0.21251 0.11222 0.0
H1228 H 0.60621 0.21698 0.05395 0.0
C1229 C 0.6189 0.14744 0.07015 0.0
O1230 O 0.61394 0.13049 0.08754 0.0
N1231 N 0.63126 0.1677 0.1252 0.0
C1232 C 0.62913 0.15436 0.14681 0.0
C1233 C 0.65224 0.14403 0.15266 0.0
C1234 C 0.65567 0.16527 0.11843 0.0
N1235 N 0.66895 0.15101 0.13483 0.0
C1236 C 0.56976 0.16646 0.13786 0.0
C1237 C 0.54005 0.1483 0.09915 0.0
C1238 C 0.53028 0.14834 0.12377 0.0
C1239 C 0.54606 0.1566 0.14332 0.0
C1240 C 0.56437 0.15757 0.0946 0.0
N1241 N 0.57899 0.16665 0.11385 0.0
H1242 H 0.57978 0.17578 0.15288 0.0
H1243 H 0.5703 0.15968 0.07525 0.0
H1244 H 0.61247 0.15216 0.15812 0.0
H1245 H 0.66344 0.17382 0.10161 0.0
O1246 O 0.60422 0.2111 0.13544 0.0
O1247 O 0.63275 0.21517 0.10518 0.0
O1248 O 0.61664 0.17092 0.07484 0.0
C1249 C 0.62257 0.2241 0.12566 0.0
H1250 H 0.56538 0.24229 0.03964 0.0
H1251 H 0.65645 0.13271 0.16911 0.0
H1252 H 0.5285 0.14281 0.08324 0.0
H1253 H 0.53976 0.15677 0.16273 0.0
Co1254 Co 0.38942 0.69106 0.39219 0.0
C1255 C 0.43581 0.71837 0.40549 0.0
C1256 C 0.40844 0.72006 0.4353 0.0
C1257 C 0.42979 0.73273 0.44293 0.0
N1258 N 0.41245 0.71092 0.41198 0.0
N1259 N 0.44701 0.73152 0.42418 0.0
H1260 H 0.44464 0.71342 0.38778 0.0
H1261 H 0.39128 0.71756 0.44603 0.0
C1262 C 0.3782 0.64944 0.42892 0.0
O1263 O 0.38431 0.63258 0.41182 0.0
N1264 N 0.36502 0.67186 0.37259 0.0
C1265 C 0.36268 0.67034 0.34723 0.0
C1266 C 0.33954 0.66011 0.34135 0.0
C1267 C 0.34263 0.66365 0.38154 0.0
N1268 N 0.32692 0.65615 0.36298 0.0
C1269 C 0.4238 0.66286 0.36129 0.0
C1270 C 0.4558 0.64888 0.39996 0.0
C1271 C 0.46379 0.64549 0.37496 0.0
C1272 C 0.4468 0.65151 0.3556 0.0
C1273 C 0.43219 0.65961 0.40487 0.0
N1274 N 0.4167 0.66714 0.38562 0.0
H1275 H 0.41288 0.67002 0.3459 0.0
H1276 H 0.42742 0.66395 0.4242 0.0
H1277 H 0.37541 0.67847 0.33361 0.0
H1278 H 0.3372 0.66472 0.40116 0.0
O1279 O 0.39499 0.71351 0.36419 0.0
O1280 O 0.36565 0.71862 0.39361 0.0
O1281 O 0.37897 0.67297 0.42384 0.0
C1282 C 0.37695 0.72726 0.37357 0.0
H1283 H 0.43235 0.7421 0.46087 0.0
H1284 H 0.33177 0.65785 0.32261 0.0
H1285 H 0.46825 0.64494 0.41565 0.0
H1286 H 0.4517 0.6488 0.33596 0.0
Co1287 Co 0.60746 0.80662 0.39434 0.0
C1288 C 0.5602 0.78043 0.40682 0.0
C1289 C 0.58716 0.77772 0.43692 0.0
C1290 C 0.56544 0.76547 0.44414 0.0
N1291 N 0.58365 0.78725 0.41367 0.0
N1292 N 0.54848 0.76731 0.42521 0.0
H1293 H 0.55174 0.78572 0.38902 0.0
H1294 H 0.60429 0.7796 0.44783 0.0
C1295 C 0.6196 0.84837 0.43043 0.0
O1296 O 0.61734 0.8648 0.41201 0.0
N1297 N 0.63258 0.82531 0.37512 0.0
C1298 C 0.63476 0.82756 0.34981 0.0
C1299 C 0.65805 0.83746 0.34405 0.0
C1300 C 0.65527 0.83266 0.38413 0.0
N1301 N 0.67096 0.84049 0.36567 0.0
C1302 C 0.57341 0.83428 0.36267 0.0
C1303 C 0.54181 0.8499 0.40103 0.0
C1304 C 0.53357 0.85222 0.37599 0.0
C1305 C 0.55043 0.84552 0.35674 0.0
C1306 C 0.56548 0.83937 0.40616 0.0
N1307 N 0.58071 0.83092 0.38708 0.0
H1308 H 0.58401 0.82626 0.34749 0.0
H1309 H 0.57026 0.83564 0.4256 0.0
H1310 H 0.62178 0.82021 0.33603 0.0
H1311 H 0.6607 0.83103 0.40371 0.0
O1312 O 0.60218 0.78416 0.36636 0.0
O1313 O 0.63081 0.77868 0.39641 0.0
O1314 O 0.61706 0.8248 0.42618 0.0
C1315 C 0.61978 0.77015 0.37616 0.0
H1316 H 0.56248 0.75585 0.46189 0.0
H1317 H 0.66563 0.84027 0.3253 0.0
H1318 H 0.52949 0.8544 0.41667 0.0
H1319 H 0.54539 0.84745 0.33705 0.0
Co1320 Co 0.10427 0.39079 0.30602 0.0
C1321 C 0.09148 0.43742 0.27896 0.0
C1322 C 0.06108 0.41069 0.27751 0.0
C1323 C 0.05373 0.43232 0.26511 0.0
N1324 N 0.08461 0.41413 0.28634 0.0
N1325 N 0.07285 0.44914 0.26617 0.0
H1326 H 0.10943 0.44583 0.28378 0.0
H1327 H 0.04999 0.39376 0.28011 0.0
C1328 C 0.06784 0.37978 0.34793 0.0
O1329 O 0.08497 0.38607 0.36468 0.0
N1330 N 0.12384 0.36622 0.32505 0.0
C1331 C 0.14921 0.36378 0.32632 0.0
C1332 C 0.15511 0.34062 0.33644 0.0
C1333 C 0.11488 0.34385 0.33334 0.0
N1334 N 0.13348 0.32806 0.34061 0.0
C1335 C 0.13566 0.42492 0.33403 0.0
C1336 C 0.09724 0.45702 0.34851 0.0
C1337 C 0.12231 0.46482 0.35183 0.0
C1338 C 0.14155 0.4478 0.34554 0.0
C1339 C 0.09214 0.43354 0.33762 0.0
N1340 N 0.11126 0.41798 0.3299 0.0
H1341 H 0.15094 0.41398 0.32666 0.0
H1342 H 0.07275 0.42892 0.33337 0.0
H1343 H 0.1628 0.37646 0.31804 0.0
H1344 H 0.09522 0.33851 0.33248 0.0
O1345 O 0.13218 0.39602 0.28336 0.0
O1346 O 0.10235 0.367 0.27858 0.0
O1347 O 0.07271 0.38052 0.32437 0.0
C1348 C 0.12253 0.37796 0.26981 0.0
H1349 H 0.0357 0.43535 0.25604 0.0
H1350 H 0.17386 0.33278 0.33847 0.0
H1351 H 0.08163 0.46952 0.35262 0.0
H1352 H 0.16123 0.45258 0.34815 0.0
Co1353 Co 0.89308 0.10713 0.30788 0.0
C1354 C 0.90596 0.06097 0.27994 0.0
C1355 C 0.93548 0.08859 0.2776 0.0
C1356 C 0.94312 0.0672 0.26498 0.0
N1357 N 0.91232 0.08446 0.28709 0.0
N1358 N 0.92455 0.04981 0.26661 0.0
H1359 H 0.88844 0.05197 0.28526 0.0
H1360 H 0.94618 0.1058 0.27999 0.0
C1361 C 0.92939 0.11933 0.34943 0.0
O1362 O 0.91184 0.11459 0.36626 0.0
N1363 N 0.87435 0.13103 0.32845 0.0
C1364 C 0.85203 0.12916 0.34061 0.0
C1365 C 0.84598 0.15228 0.35076 0.0
C1366 C 0.88128 0.15536 0.33127 0.0
N1367 N 0.86435 0.16878 0.34478 0.0
C1368 C 0.86211 0.06952 0.33057 0.0
C1369 C 0.90074 0.04051 0.35002 0.0
C1370 C 0.87616 0.03065 0.34996 0.0
C1371 C 0.85664 0.04607 0.34099 0.0
C1372 C 0.9053 0.06459 0.34012 0.0
N1373 N 0.88608 0.07889 0.33046 0.0
H1374 H 0.84718 0.07911 0.32069 0.0
H1375 H 0.92465 0.07055 0.33808 0.0
H1376 H 0.84028 0.11272 0.34195 0.0
H1377 H 0.89852 0.16301 0.32347 0.0
O1378 O 0.86472 0.10324 0.28547 0.0
O1379 O 0.89477 0.13197 0.28118 0.0
O1380 O 0.92493 0.11671 0.32594 0.0
C1381 C 0.87438 0.12152 0.27231 0.0
H1382 H 0.96098 0.0647 0.25544 0.0
H1383 H 0.82899 0.1567 0.36117 0.0
H1384 H 0.91661 0.02917 0.35604 0.0
H1385 H 0.83727 0.03964 0.3407 0.0
Co1386 Co 0.10604 0.60818 0.18998 0.0
C1387 C 0.09263 0.56205 0.21755 0.0
C1388 C 0.06305 0.58964 0.21959 0.0
C1389 C 0.05531 0.56822 0.23212 0.0
N1390 N 0.08633 0.58555 0.21037 0.0
N1391 N 0.07392 0.55086 0.2307 0.0
H1392 H 0.11023 0.5531 0.21246 0.0
H1393 H 0.05238 0.60686 0.21713 0.0
C1394 C 0.07042 0.62163 0.14828 0.0
O1395 O 0.08796 0.61664 0.13153 0.0
N1396 N 0.12535 0.6319 0.16981 0.0
C1397 C 0.14764 0.62962 0.15768 0.0
C1398 C 0.15419 0.65272 0.1477 0.0
C1399 C 0.11894 0.65638 0.16719 0.0
N1400 N 0.13616 0.66955 0.15383 0.0
C1401 C 0.13642 0.56999 0.16744 0.0
C1402 C 0.09763 0.54308 0.14541 0.0
C1403 C 0.12198 0.53277 0.14541 0.0
C1404 C 0.14152 0.54676 0.15633 0.0
C1405 C 0.09335 0.5666 0.15663 0.0
N1406 N 0.11273 0.58007 0.16716 0.0
H1407 H 0.15135 0.5789 0.17797 0.0
H1408 H 0.07411 0.57293 0.15849 0.0
H1409 H 0.15897 0.61287 0.15627 0.0
H1410 H 0.10182 0.66431 0.17498 0.0
O1411 O 0.13412 0.60362 0.21259 0.0
O1412 O 0.10457 0.63286 0.21685 0.0
O1413 O 0.07454 0.61859 0.17178 0.0
C1414 C 0.12472 0.62203 0.22577 0.0
H1415 H 0.03736 0.56569 0.24149 0.0
H1416 H 0.17125 0.65688 0.13729 0.0
H1417 H 0.08186 0.53268 0.13764 0.0
H1418 H 0.16041 0.53912 0.15781 0.0
Co1419 Co 0.89414 0.89053 0.19065 0.0
C1420 C 0.90708 0.93661 0.21829 0.0
C1421 C 0.93732 0.9097 0.21967 0.0
C1422 C 0.94476 0.93123 0.23222 0.0
N1423 N 0.91381 0.91332 0.21085 0.0
N1424 N 0.92571 0.94813 0.23123 0.0
H1425 H 0.88921 0.94518 0.21352 0.0
H1426 H 0.94835 0.89276 0.21692 0.0
C1427 C 0.92962 0.87711 0.14883 0.0
O1428 O 0.91199 0.88207 0.13215 0.0
N1429 N 0.8748 0.86668 0.17064 0.0
C1430 C 0.85245 0.86892 0.15861 0.0
C1431 C 0.8459 0.84581 0.14866 0.0
C1432 C 0.88125 0.84221 0.16799 0.0
N1433 N 0.864 0.82902 0.15469 0.0
C1434 C 0.86352 0.92857 0.16816 0.0
C1435 C 0.90213 0.95571 0.14609 0.0
C1436 C 0.87775 0.96593 0.14621 0.0
C1437 C 0.8583 0.95181 0.15714 0.0
C1438 C 0.90653 0.93214 0.1572 0.0
N1439 N 0.88725 0.91857 0.16777 0.0
H1440 H 0.84867 0.91962 0.17875 0.0
H1441 H 0.92581 0.92587 0.15897 0.0
H1442 H 0.84108 0.88563 0.15723 0.0
H1443 H 0.89842 0.83431 0.1757 0.0
O1444 O 0.86617 0.89511 0.21334 0.0
O1445 O 0.89579 0.86596 0.21765 0.0
O1446 O 0.92559 0.88015 0.17234 0.0
C1447 C 0.87566 0.87682 0.22659 0.0
H1448 H 0.96279 0.93415 0.24132 0.0
H1449 H 0.82881 0.84163 0.13832 0.0
H1450 H 0.91784 0.96621 0.13832 0.0
H1451 H 0.83938 0.95938 0.15871 0.0
Co1452 Co 0.30792 0.10425 0.39164 0.0
C1453 C 0.28146 0.09122 0.43853 0.0
C1454 C 0.27896 0.0614 0.41124 0.0
C1455 C 0.26657 0.05393 0.43281 0.0
N1456 N 0.28837 0.08466 0.41503 0.0
N1457 N 0.26825 0.0727 0.44995 0.0
H1458 H 0.28655 0.10896 0.4472 0.0
H1459 H 0.28101 0.05065 0.39402 0.0
C1460 C 0.34974 0.06903 0.3769 0.0
O1461 O 0.36576 0.08793 0.3768 0.0
N1462 N 0.32717 0.12353 0.36715 0.0
C1463 C 0.33891 0.14606 0.36911 0.0
C1464 C 0.34836 0.15268 0.34585 0.0
C1465 C 0.32941 0.11708 0.34264 0.0
N1466 N 0.34232 0.13445 0.32919 0.0
C1467 C 0.33029 0.13568 0.42911 0.0
C1468 C 0.3547 0.09787 0.45536 0.0
C1469 C 0.35376 0.12215 0.46578 0.0
C1470 C 0.34171 0.14124 0.45208 0.0
C1471 C 0.34312 0.09312 0.43212 0.0
N1472 N 0.33124 0.11199 0.41906 0.0
H1473 H 0.31906 0.15021 0.4204 0.0
H1474 H 0.34204 0.0738 0.42587 0.0
H1475 H 0.34041 0.15747 0.38579 0.0
H1476 H 0.32182 0.09976 0.33496 0.0
O1477 O 0.28494 0.13199 0.39603 0.0
O1478 O 0.2805 0.10174 0.36756 0.0
O1479 O 0.32655 0.07268 0.38218 0.0
C1480 C 0.27149 0.12198 0.37818 0.0
H1481 H 0.25694 0.03614 0.43551 0.0
H1482 H 0.35844 0.16989 0.3415 0.0
H1483 H 0.36344 0.08243 0.46551 0.0
H1484 H 0.3396 0.16004 0.45979 0.0
Co1485 Co 0.30993 0.8933 0.10731 0.0
C1486 C 0.28159 0.907 0.06178 0.0
C1487 C 0.28098 0.93684 0.08916 0.0
C1488 C 0.26781 0.94462 0.06818 0.0
N1489 N 0.28976 0.91341 0.08489 0.0
N1490 N 0.26833 0.92584 0.05097 0.0
H1491 H 0.2861 0.88923 0.05283 0.0
H1492 H 0.28406 0.94754 0.10626 0.0
C1493 C 0.3519 0.93012 0.11769 0.0
O1494 O 0.36878 0.91354 0.11033 0.0
N1495 N 0.32951 0.87341 0.13114 0.0
C1496 C 0.33057 0.84802 0.13362 0.0
C1497 C 0.34109 0.84209 0.15662 0.0
C1498 C 0.33835 0.88235 0.15327 0.0
N1499 N 0.3457 0.86375 0.16898 0.0
C1500 C 0.33729 0.86223 0.07243 0.0
C1501 C 0.35041 0.90073 0.03985 0.0
C1502 C 0.35356 0.87566 0.03191 0.0
C1503 C 0.34801 0.8564 0.04918 0.0
C1504 C 0.34033 0.90579 0.06372 0.0
N1505 N 0.33318 0.88661 0.07949 0.0
H1506 H 0.33047 0.8469 0.08366 0.0
H1507 H 0.3362 0.92516 0.06854 0.0
H1508 H 0.32186 0.8345 0.12117 0.0
H1509 H 0.33764 0.902 0.15864 0.0
O1510 O 0.28708 0.86549 0.10214 0.0
O1511 O 0.28297 0.89487 0.13169 0.0
O1512 O 0.32843 0.92476 0.11764 0.0
C1513 C 0.27385 0.87496 0.12053 0.0
H1514 H 0.25855 0.96266 0.06586 0.0
H1515 H 0.34298 0.82336 0.16456 0.0
H1516 H 0.35405 0.91636 0.02722 0.0
H1517 H 0.3506 0.83672 0.04434 0.0
Co1518 Co 0.69029 0.60375 0.10766 0.0
C1519 C 0.71776 0.59048 0.06144 0.0
C1520 C 0.71871 0.56028 0.08841 0.0
C1521 C 0.73149 0.55274 0.0671 0.0
N1522 N 0.70996 0.5838 0.08462 0.0
N1523 N 0.73076 0.57175 0.05013 0.0
H1524 H 0.71319 0.60842 0.05284 0.0
H1525 H 0.71589 0.54937 0.10542 0.0
C1526 C 0.64827 0.5672 0.11842 0.0
O1527 O 0.63147 0.58405 0.11152 0.0
N1528 N 0.67126 0.62349 0.13207 0.0
C1529 C 0.67044 0.64887 0.13476 0.0
C1530 C 0.6602 0.65472 0.15789 0.0
C1531 C 0.6626 0.61446 0.15425 0.0
N1532 N 0.65552 0.63301 0.17016 0.0
C1533 C 0.6624 0.63528 0.07359 0.0
C1534 C 0.64869 0.59716 0.04083 0.0
C1535 C 0.64551 0.62232 0.03317 0.0
C1536 C 0.65134 0.64139 0.05056 0.0
C1537 C 0.6591 0.59183 0.06449 0.0
N1538 N 0.66656 0.61082 0.08034 0.0
H1539 H 0.66942 0.65048 0.08487 0.0
H1540 H 0.66324 0.5724 0.06906 0.0
H1541 H 0.67907 0.66243 0.12227 0.0
H1542 H 0.6631 0.59475 0.15943 0.0
O1543 O 0.71313 0.63153 0.10234 0.0
O1544 O 0.71769 0.60184 0.13153 0.0
O1545 O 0.6718 0.57229 0.11802 0.0
C1546 C 0.72662 0.62189 0.12044 0.0
H1547 H 0.74067 0.53471 0.06442 0.0
H1548 H 0.65844 0.67341 0.16592 0.0
H1549 H 0.64484 0.58166 0.0281 0.0
H1550 H 0.64873 0.66112 0.04596 0.0
Co1551 Co 0.19045 0.89551 0.8922 0.0
C1552 C 0.21704 0.90833 0.93904 0.0
C1553 C 0.21993 0.938 0.91162 0.0
C1554 C 0.23237 0.94542 0.93317 0.0
N1555 N 0.21024 0.91487 0.91552 0.0
N1556 N 0.23044 0.92674 0.95038 0.0
H1557 H 0.21171 0.89069 0.94778 0.0
H1558 H 0.21803 0.9487 0.89436 0.0
C1559 C 0.14893 0.9313 0.87774 0.0
O1560 O 0.13264 0.91263 0.87774 0.0
N1561 N 0.17095 0.87648 0.86775 0.0
C1562 C 0.15943 0.85383 0.86952 0.0
C1563 C 0.14976 0.8475 0.84627 0.0
C1564 C 0.16842 0.88329 0.84338 0.0
N1565 N 0.15547 0.86604 0.82983 0.0
C1566 C 0.16796 0.86406 0.92955 0.0
C1567 C 0.14401 0.90185 0.95624 0.0
C1568 C 0.14485 0.87748 0.96648 0.0
C1569 C 0.15665 0.85842 0.95254 0.0
C1570 C 0.15547 0.9067 0.93293 0.0
N1571 N 0.16715 0.88784 0.91968 0.0
H1572 H 0.17906 0.84951 0.92072 0.0
H1573 H 0.15662 0.92604 0.92677 0.0
H1574 H 0.15827 0.84213 0.88602 0.0
H1575 H 0.17583 0.90076 0.83586 0.0
O1576 O 0.21316 0.86753 0.89648 0.0
O1577 O 0.21787 0.89775 0.86804 0.0
O1578 O 0.1721 0.92731 0.88289 0.0
C1579 C 0.22667 0.87738 0.87861 0.0
H1580 H 0.24221 0.96311 0.93581 0.0
H1581 H 0.13976 0.83028 0.84177 0.0
H1582 H 0.13547 0.91726 0.96657 0.0
H1583 H 0.1587 0.83954 0.96009 0.0
C1584 C 0.11156 0.28708 0.33781 0.0
C1585 C 0.13098 0.30201 0.34787 0.0
H1586 H 0.09327 0.25116 0.33747 0.0
C1587 C 0.14796 0.29113 0.36508 0.0
H1588 H 0.09852 0.29478 0.32412 0.0
C1589 C 0.14499 0.26604 0.37276 0.0
C1590 C 0.12518 0.25132 0.3631 0.0
H1591 H 0.16308 0.30225 0.37311 0.0
H1592 H 0.15788 0.25836 0.38662 0.0
C1593 C 0.10876 0.26198 0.34524 0.0
C1594 C 0.85296 0.20453 0.37265 0.0
C1595 C 0.86565 0.19519 0.3513 0.0
H1596 H 0.84625 0.23618 0.39687 0.0
C1597 C 0.88014 0.21197 0.33674 0.0
H1598 H 0.84176 0.19215 0.38438 0.0
C1599 C 0.88275 0.23717 0.34393 0.0
C1600 C 0.87087 0.24622 0.36581 0.0
H1601 H 0.8897 0.20562 0.31987 0.0
H1602 H 0.89462 0.24939 0.33267 0.0
C1603 C 0.85553 0.22979 0.37983 0.0
C1604 C 0.12126 0.71291 0.16234 0.0
C1605 C 0.13525 0.696 0.14746 0.0
H1606 H 0.10703 0.7504 0.16663 0.0
C1607 C 0.14759 0.70522 0.12585 0.0
H1608 H 0.11203 0.70665 0.17942 0.0
C1609 C 0.14497 0.73049 0.11865 0.0
C1610 C 0.12996 0.74701 0.13292 0.0
H1611 H 0.15843 0.69271 0.11391 0.0
H1612 H 0.15384 0.73678 0.10135 0.0
C1613 C 0.11862 0.7381 0.15514 0.0
C1614 C 0.8816 0.76046 0.15574 0.0
C1615 C 0.87007 0.75158 0.13362 0.0
H1616 H 0.88841 0.79189 0.18 0.0
C1617 C 0.85496 0.76812 0.11948 0.0
H1618 H 0.89328 0.74814 0.16712 0.0
C1619 C 0.85241 0.79338 0.12673 0.0
C1620 C 0.86492 0.80258 0.14826 0.0
H1621 H 0.84595 0.76185 0.10226 0.0
H1622 H 0.84147 0.8059 0.11489 0.0
C1623 C 0.87903 0.78565 0.16299 0.0
C1624 C 0.34181 0.11595 0.26084 0.0
C1625 C 0.36336 0.12838 0.25173 0.0
H1626 H 0.31796 0.10844 0.29242 0.0
C1627 C 0.37691 0.14422 0.26807 0.0
H1628 H 0.3309 0.10367 0.24868 0.0
C1629 C 0.36967 0.1467 0.29331 0.0
C1630 C 0.3487 0.13342 0.30274 0.0
H1631 H 0.39369 0.15395 0.26164 0.0
H1632 H 0.38112 0.15826 0.30562 0.0
C1633 C 0.33454 0.11848 0.28602 0.0
C1634 C 0.65506 0.38086 0.26181 0.0
C1635 C 0.63335 0.36881 0.25261 0.0
H1636 H 0.67889 0.38791 0.29349 0.0
C1637 C 0.61951 0.35308 0.26884 0.0
H1638 H 0.66621 0.393 0.24974 0.0
C1639 C 0.62662 0.35041 0.29411 0.0
C1640 C 0.64772 0.36339 0.30362 0.0
H1641 H 0.60262 0.34364 0.26231 0.0
H1642 H 0.61501 0.33896 0.30638 0.0
C1643 C 0.66219 0.37815 0.287 0.0
C1644 C 0.34952 0.88879 0.23482 0.0
C1645 C 0.36799 0.8731 0.24551 0.0
H1646 H 0.32796 0.89806 0.20209 0.0
C1647 C 0.37829 0.85349 0.23094 0.0
H1648 H 0.3412 0.90407 0.24554 0.0
C1649 C 0.37062 0.85007 0.20591 0.0
C1650 C 0.35284 0.86641 0.195 0.0
H1651 H 0.39261 0.84115 0.23869 0.0
H1652 H 0.37909 0.83515 0.19483 0.0
C1653 C 0.34212 0.88555 0.20982 0.0
C1654 C 0.65025 0.60748 0.23581 0.0
C1655 C 0.63235 0.62383 0.24651 0.0
H1656 H 0.67163 0.5976 0.20311 0.0
C1657 C 0.62292 0.6439 0.232 0.0
H1658 H 0.65786 0.5918 0.24649 0.0
C1659 C 0.63086 0.6472 0.20705 0.0
C1660 C 0.64809 0.63029 0.19611 0.0
H1661 H 0.60905 0.65676 0.23974 0.0
H1662 H 0.62301 0.66252 0.19606 0.0
C1663 C 0.65793 0.6106 0.21085 0.0
C1664 C 0.26856 0.38164 0.14057 0.0
C1665 C 0.25199 0.36724 0.12579 0.0
H1666 H 0.30625 0.38651 0.15393 0.0
C1667 C 0.26085 0.34492 0.11458 0.0
H1668 H 0.26232 0.39903 0.14931 0.0
C1669 C 0.28602 0.33763 0.11732 0.0
C1670 C 0.30297 0.35257 0.13121 0.0
H1671 H 0.24849 0.33335 0.10315 0.0
H1672 H 0.29218 0.3204 0.1083 0.0
C1673 C 0.2938 0.37442 0.14321 0.0
C1674 C 0.26087 0.65195 0.38769 0.0
C1675 C 0.25033 0.63349 0.37187 0.0
H1676 H 0.2935 0.67359 0.39727 0.0
C1677 C 0.26508 0.62336 0.35232 0.0
H1678 H 0.25002 0.66011 0.40297 0.0
C1679 C 0.2901 0.63115 0.34907 0.0
C1680 C 0.30088 0.64892 0.36554 0.0
H1681 H 0.25748 0.60904 0.33988 0.0
H1682 H 0.30128 0.62276 0.33419 0.0
C1683 C 0.28589 0.65948 0.38464 0.0
C1684 C 0.73274 0.87317 0.35426 0.0
C1685 C 0.74761 0.86339 0.37388 0.0
H1686 H 0.69648 0.87354 0.33637 0.0
C1687 C 0.73711 0.84532 0.3902 0.0
H1688 H 0.74028 0.88719 0.34145 0.0
C1689 C 0.71205 0.83774 0.38743 0.0
C1690 C 0.69698 0.84788 0.36815 0.0
H1691 H 0.74806 0.83744 0.40554 0.0
H1692 H 0.70451 0.82386 0.40037 0.0
C1693 C 0.70769 0.86538 0.35134 0.0
C1694 C 0.21136 0.65978 0.61194 0.0
C1695 C 0.19665 0.64974 0.63154 0.0
H1696 H 0.247 0.65996 0.59315 0.0
C1697 C 0.20764 0.63238 0.64829 0.0
H1698 H 0.20358 0.67357 0.59906 0.0
C1699 C 0.23263 0.62454 0.64493 0.0
C1700 C 0.24712 0.63419 0.62494 0.0
H1701 H 0.19668 0.62437 0.66354 0.0
H1702 H 0.24042 0.61059 0.65766 0.0
C1703 C 0.23635 0.65218 0.60875 0.0
C1704 C 0.88561 0.73818 0.65585 0.0
C1705 C 0.87236 0.74742 0.63486 0.0
H1706 H 0.8936 0.70655 0.6795 0.0
C1707 C 0.85568 0.73128 0.62209 0.0
H1708 H 0.89855 0.75018 0.66615 0.0
C1709 C 0.85305 0.70612 0.62959 0.0
C1710 C 0.86705 0.69657 0.65001 0.0
H1711 H 0.84529 0.73782 0.60576 0.0
H1712 H 0.84072 0.69395 0.6188 0.0
C1713 C 0.88297 0.71306 0.66335 0.0
C1714 C 0.14483 0.76846 0.62335 0.0
C1715 C 0.12555 0.75352 0.63372 0.0
H1716 H 0.16254 0.80486 0.62244 0.0
C1717 C 0.10978 0.76392 0.6523 0.0
H1718 H 0.15722 0.76097 0.60895 0.0
C1719 C 0.11266 0.78899 0.65976 0.0
C1720 C 0.13151 0.80416 0.64897 0.0
H1721 H 0.09474 0.7529 0.66066 0.0
H1722 H 0.10013 0.79648 0.67402 0.0
C1723 C 0.14787 0.79354 0.63104 0.0
C1724 C 0.85173 0.29413 0.87319 0.0
C1725 C 0.86363 0.30324 0.85128 0.0
H1726 H 0.84581 0.26268 0.89788 0.0
C1727 C 0.87722 0.28621 0.83615 0.0
H1728 H 0.84122 0.30668 0.88535 0.0
C1729 C 0.87991 0.26103 0.84339 0.0
C1730 C 0.86898 0.25225 0.86586 0.0
H1731 H 0.88611 0.29236 0.81885 0.0
H1732 H 0.8912 0.24863 0.83172 0.0
C1733 C 0.85435 0.26887 0.88038 0.0
C1734 C 0.11978 0.21414 0.83447 0.0
C1735 C 0.13423 0.19743 0.84914 0.0
H1736 H 0.10522 0.25152 0.83023 0.0
C1737 C 0.14702 0.20691 0.87037 0.0
H1738 H 0.11016 0.20767 0.81768 0.0
C1739 C 0.14444 0.23222 0.87742 0.0
C1740 C 0.12899 0.24854 0.86338 0.0
H1741 H 0.15823 0.19458 0.88215 0.0
H1742 H 0.15369 0.23869 0.89444 0.0
C1743 C 0.11717 0.23938 0.84152 0.0
C1744 C 0.65442 0.8866 0.73674 0.0
C1745 C 0.63302 0.87376 0.74564 0.0
H1746 H 0.67873 0.89407 0.7055 0.0
C1747 C 0.62017 0.85733 0.72933 0.0
H1748 H 0.66479 0.89932 0.7489 0.0
C1749 C 0.62797 0.85456 0.70431 0.0
C1750 C 0.64885 0.86811 0.69508 0.0
H1751 H 0.60353 0.84727 0.73561 0.0
H1752 H 0.61708 0.84247 0.69201 0.0
C1753 C 0.66226 0.88378 0.71176 0.0
C1754 C 0.36926 0.64858 0.70571 0.0
C1755 C 0.35144 0.63219 0.69492 0.0
H1756 H 0.39148 0.65755 0.73832 0.0
C1757 C 0.34092 0.61298 0.70982 0.0
H1758 H 0.3776 0.66353 0.69458 0.0
C1759 C 0.34854 0.60975 0.73476 0.0
C1760 C 0.36704 0.62551 0.74533 0.0
H1761 H 0.32676 0.60042 0.70219 0.0
H1762 H 0.34037 0.59443 0.74554 0.0
C1763 C 0.37715 0.64516 0.73068 0.0
C1764 C 0.65796 0.11395 0.78886 0.0
C1765 C 0.64713 0.13289 0.80387 0.0
H1766 H 0.65934 0.0961 0.75281 0.0
C1767 C 0.62959 0.14952 0.79297 0.0
H1768 H 0.67194 0.10123 0.79658 0.0
C1769 C 0.62231 0.14661 0.76776 0.0
C1770 C 0.63274 0.12723 0.75297 0.0
H1771 H 0.62101 0.16428 0.80417 0.0
H1772 H 0.60818 0.15918 0.76002 0.0
C1773 C 0.65094 0.11123 0.76368 0.0
C1774 C 0.37118 0.35129 0.79214 0.0
C1775 C 0.34989 0.36401 0.80159 0.0
H1776 H 0.3953 0.34469 0.76041 0.0
C1777 C 0.33518 0.37842 0.78487 0.0
H1778 H 0.38301 0.34012 0.80446 0.0
C1779 C 0.34229 0.3811 0.75966 0.0
C1780 C 0.36419 0.36934 0.75055 0.0
H1781 H 0.31833 0.38796 0.79129 0.0
H1782 H 0.33098 0.39302 0.74751 0.0
C1783 C 0.37824 0.3539 0.76686 0.0
C1784 C 0.73227 0.62326 0.85422 0.0
C1785 C 0.74691 0.63312 0.87398 0.0
H1786 H 0.69616 0.62294 0.83589 0.0
C1787 C 0.73621 0.65123 0.89012 0.0
H1788 H 0.73999 0.60922 0.84155 0.0
C1789 C 0.7112 0.65876 0.88708 0.0
C1790 C 0.69636 0.64857 0.86768 0.0
H1791 H 0.74697 0.65919 0.90556 0.0
H1792 H 0.70352 0.67267 0.8999 0.0
C1793 C 0.70724 0.63107 0.85099 0.0
C1794 C 0.73015 0.38288 0.64202 0.0
C1795 C 0.74672 0.36837 0.62732 0.0
H1796 H 0.69247 0.38771 0.65549 0.0
C1797 C 0.73792 0.34588 0.61645 0.0
H1798 H 0.73636 0.4004 0.65052 0.0
C1799 C 0.71281 0.33851 0.61939 0.0
C1800 C 0.69584 0.35354 0.63316 0.0
H1801 H 0.75029 0.33421 0.60511 0.0
H1802 H 0.70669 0.32114 0.61061 0.0
C1803 C 0.70496 0.37557 0.64487 0.0
C1804 C 0.29282 0.12647 0.64416 0.0
C1805 C 0.30244 0.14758 0.63124 0.0
H1806 H 0.26094 0.10273 0.65119 0.0
C1807 C 0.28583 0.16213 0.6165 0.0
H1808 H 0.30498 0.11469 0.65554 0.0
C1809 C 0.26057 0.15512 0.61388 0.0
C1810 C 0.25128 0.13353 0.62608 0.0
H1811 H 0.29233 0.17882 0.60674 0.0
H1812 H 0.24847 0.16633 0.60182 0.0
C1813 C 0.26751 0.11957 0.64166 0.0
C1814 C 0.76069 0.34522 0.38775 0.0
C1815 C 0.75069 0.36495 0.37315 0.0
H1816 H 0.79291 0.32268 0.39656 0.0
C1817 C 0.76609 0.37663 0.35504 0.0
H1818 H 0.7493 0.33581 0.40187 0.0
C1819 C 0.79124 0.36917 0.35212 0.0
C1820 C 0.80147 0.34999 0.36735 0.0
H1821 H 0.75895 0.39197 0.34359 0.0
H1822 H 0.80287 0.37894 0.33849 0.0
C1823 C 0.7858 0.33786 0.38492 0.0
C1824 C 0.64469 0.76777 0.87493 0.0
C1825 C 0.62506 0.7529 0.86515 0.0
H1826 H 0.66264 0.80405 0.87521 0.0
C1827 C 0.60879 0.76337 0.84704 0.0
H1828 H 0.65746 0.76023 0.88898 0.0
C1829 C 0.61158 0.78842 0.83944 0.0
C1830 C 0.63084 0.8035 0.8496 0.0
H1831 H 0.59344 0.75242 0.83915 0.0
H1832 H 0.59867 0.79595 0.82555 0.0
C1833 C 0.64765 0.79281 0.86709 0.0
C1834 C 0.35288 0.70446 0.86898 0.0
C1835 C 0.36705 0.69489 0.84869 0.0
H1836 H 0.34486 0.73623 0.89263 0.0
C1837 C 0.38301 0.71138 0.83539 0.0
H1838 H 0.34052 0.69228 0.87971 0.0
C1839 C 0.3855 0.73654 0.8428 0.0
C1840 C 0.37208 0.74582 0.86367 0.0
H1841 H 0.39377 0.70485 0.81934 0.0
H1842 H 0.39847 0.74854 0.83254 0.0
C1843 C 0.35538 0.72966 0.8764 0.0
C1844 C 0.62007 0.21423 0.66414 0.0
C1845 C 0.6347 0.19749 0.64968 0.0
H1846 H 0.6053 0.25157 0.66802 0.0
C1847 C 0.64755 0.20688 0.62844 0.0
H1848 H 0.6104 0.20784 0.68093 0.0
C1849 C 0.64486 0.23212 0.62118 0.0
C1850 C 0.62926 0.24848 0.63501 0.0
H1851 H 0.65889 0.19452 0.61682 0.0
H1852 H 0.65417 0.23853 0.60416 0.0
C1853 C 0.61737 0.23941 0.65688 0.0
C1854 C 0.35455 0.26778 0.61759 0.0
C1855 C 0.36921 0.25127 0.63223 0.0
H1856 H 0.34132 0.30553 0.61242 0.0
C1857 C 0.38003 0.26017 0.65469 0.0
H1858 H 0.34608 0.26148 0.6001 0.0
C1859 C 0.37725 0.28537 0.6618 0.0
C1860 C 0.36368 0.30229 0.64655 0.0
H1861 H 0.39133 0.24785 0.66646 0.0
H1862 H 0.38608 0.29162 0.6791 0.0
C1863 C 0.35184 0.29305 0.62467 0.0
C1864 C 0.84476 0.61584 0.76254 0.0
C1865 C 0.86647 0.62811 0.7536 0.0
H1866 H 0.82038 0.60888 0.79382 0.0
C1867 C 0.87973 0.64427 0.76988 0.0
H1868 H 0.83404 0.60336 0.75042 0.0
C1869 C 0.87201 0.64723 0.79494 0.0
C1870 C 0.8509 0.63408 0.80419 0.0
H1871 H 0.89659 0.65391 0.76355 0.0
H1872 H 0.88316 0.65906 0.80728 0.0
C1873 C 0.83706 0.61881 0.78752 0.0
C1874 C 0.16257 0.8828 0.78685 0.0
C1875 C 0.14874 0.86747 0.80351 0.0
H1876 H 0.1656 0.89823 0.7497 0.0
C1877 C 0.1277 0.85425 0.79418 0.0
H1878 H 0.17919 0.89281 0.79318 0.0
C1879 C 0.1201 0.85711 0.7691 0.0
C1880 C 0.13333 0.8733 0.75284 0.0
H1881 H 0.1165 0.84241 0.80645 0.0
H1882 H 0.10331 0.84736 0.76275 0.0
C1883 C 0.15492 0.88572 0.76183 0.0
C1884 C 0.842 0.38291 0.73765 0.0
C1885 C 0.8637 0.37074 0.74674 0.0
H1886 H 0.81821 0.39036 0.70602 0.0
C1887 C 0.87754 0.35522 0.73034 0.0
H1888 H 0.83087 0.39493 0.74986 0.0
C1889 C 0.87049 0.35288 0.70504 0.0
C1890 C 0.84939 0.36596 0.69562 0.0
H1891 H 0.89445 0.3457 0.73676 0.0
H1892 H 0.88218 0.34161 0.69269 0.0
C1893 C 0.8349 0.38051 0.7124 0.0
C1894 C 0.12212 0.14691 0.73158 0.0
C1895 C 0.13245 0.12745 0.74633 0.0
H1896 H 0.12111 0.16482 0.69527 0.0
C1897 C 0.15078 0.11155 0.73567 0.0
H1898 H 0.10791 0.1594 0.73928 0.0
C1899 C 0.15802 0.11446 0.71057 0.0
C1900 C 0.14728 0.13347 0.69559 0.0
H1901 H 0.15911 0.09636 0.74652 0.0
H1902 H 0.17207 0.1018 0.7029 0.0
C1903 C 0.12962 0.15 0.70645 0.0
C1904 C 0.76761 0.87905 0.64478 0.0
C1905 C 0.7527 0.86845 0.6256 0.0
H1906 H 0.80391 0.87981 0.66276 0.0
C1907 C 0.76307 0.84951 0.61022 0.0
H1908 H 0.76013 0.89373 0.65687 0.0
C1909 C 0.78803 0.84189 0.61337 0.0
C1910 C 0.80315 0.85282 0.63213 0.0
H1911 H 0.75212 0.84095 0.59526 0.0
H1912 H 0.79547 0.82735 0.60112 0.0
C1913 C 0.7926 0.87114 0.64814 0.0
C1914 C 0.78528 0.16222 0.88294 0.0
C1915 C 0.80182 0.14816 0.86767 0.0
H1916 H 0.74806 0.16577 0.89816 0.0
C1917 C 0.79224 0.12722 0.85446 0.0
H1918 H 0.79175 0.17876 0.89296 0.0
C1919 C 0.76703 0.12002 0.85714 0.0
C1920 C 0.75085 0.1335 0.87319 0.0
H1921 H 0.80436 0.11581 0.84268 0.0
H1922 H 0.76049 0.10332 0.84734 0.0
C1923 C 0.7601 0.15493 0.88572 0.0
C1924 C 0.23811 0.3446 0.88081 0.0
C1925 C 0.24714 0.36696 0.86984 0.0
H1926 H 0.20658 0.32032 0.88694 0.0
C1927 C 0.23065 0.38169 0.85526 0.0
H1928 H 0.25041 0.33278 0.89206 0.0
C1929 C 0.20533 0.37475 0.85265 0.0
C1930 C 0.19599 0.35287 0.86446 0.0
H1931 H 0.23702 0.39912 0.84671 0.0
H1932 H 0.19293 0.38708 0.84213 0.0
C1933 C 0.21287 0.33759 0.87809 0.0
C1934 C 0.73735 0.15264 0.11663 0.0
C1935 C 0.74643 0.13037 0.12774 0.0
H1936 H 0.70581 0.17691 0.11054 0.0
C1937 C 0.73004 0.1158 0.14259 0.0
H1938 H 0.74956 0.16434 0.10517 0.0
C1939 C 0.70475 0.12283 0.14538 0.0
C1940 C 0.69537 0.14461 0.13343 0.0
H1941 H 0.73647 0.09845 0.15127 0.0
H1942 H 0.6924 0.11068 0.15616 0.0
C1943 C 0.71215 0.15971 0.11949 0.0
C1944 C 0.38055 0.23873 0.15525 0.0
C1945 C 0.36926 0.24772 0.13304 0.0
H1946 H 0.38683 0.20726 0.1796 0.0
C1947 C 0.35404 0.23133 0.11885 0.0
H1948 H 0.3923 0.25093 0.16668 0.0
C1949 C 0.35116 0.20611 0.1261 0.0
C1950 C 0.36342 0.19679 0.14771 0.0
H1951 H 0.3452 0.23768 0.10156 0.0
H1952 H 0.34016 0.19372 0.1142 0.0
C1953 C 0.37764 0.21359 0.16252 0.0
C1954 C 0.64445 0.2657 0.12134 0.0
C1955 C 0.62877 0.24951 0.13525 0.0
H1956 H 0.65849 0.30322 0.11661 0.0
C1957 C 0.61674 0.25879 0.15694 0.0
H1958 H 0.65386 0.25913 0.10444 0.0
C1959 C 0.61943 0.28404 0.16395 0.0
C1960 C 0.63414 0.30062 0.14939 0.0
H1961 H 0.6046 0.24674 0.16812 0.0
H1962 H 0.60968 0.29059 0.18064 0.0
C1963 C 0.64709 0.29101 0.12832 0.0
C1964 C 0.38582 0.76219 0.34327 0.0
C1965 C 0.37184 0.75282 0.36372 0.0
H1966 H 0.39467 0.79399 0.32015 0.0
C1967 C 0.35475 0.76888 0.37604 0.0
H1968 H 0.39911 0.75026 0.33334 0.0
C1969 C 0.35238 0.79409 0.36862 0.0
C1970 C 0.36708 0.80374 0.34875 0.0
H1971 H 0.34379 0.76223 0.39195 0.0
H1972 H 0.33966 0.80621 0.379 0.0
C1973 C 0.38348 0.78736 0.33588 0.0
C1974 C 0.64405 0.72953 0.37645 0.0
C1975 C 0.62469 0.74455 0.36636 0.0
H1976 H 0.66171 0.69308 0.37694 0.0
C1977 C 0.60856 0.7342 0.34806 0.0
H1978 H 0.65671 0.73699 0.39064 0.0
C1979 C 0.61122 0.70913 0.34055 0.0
C1980 C 0.63023 0.69391 0.35096 0.0
H1981 H 0.59342 0.74527 0.33995 0.0
H1982 H 0.59844 0.70169 0.32649 0.0
C1983 C 0.6469 0.70445 0.36866 0.0
C1984 C 0.16199 0.38137 0.21064 0.0
C1985 C 0.148 0.36631 0.19387 0.0
H1986 H 0.16508 0.3966 0.24787 0.0
C1987 C 0.12673 0.35336 0.20304 0.0
H1988 H 0.17878 0.39115 0.20444 0.0
C1989 C 0.11906 0.35624 0.2281 0.0
C1990 C 0.13246 0.37217 0.24447 0.0
H1991 H 0.11543 0.34173 0.19067 0.0
H1992 H 0.10211 0.3467 0.23435 0.0
C1993 C 0.15426 0.38431 0.23564 0.0
C1994 C 0.84273 0.11556 0.23799 0.0
C1995 C 0.86458 0.12756 0.24695 0.0
H1996 H 0.81856 0.10849 0.20656 0.0
C1997 C 0.87833 0.14314 0.23053 0.0
H1998 H 0.83165 0.1035 0.25023 0.0
C1999 C 0.871 0.14573 0.20532 0.0
C2000 C 0.84973 0.13283 0.19604 0.0
H2001 H 0.89534 0.15252 0.23684 0.0
H2002 H 0.8826 0.15705 0.19293 0.0
C2003 C 0.83536 0.1182 0.21285 0.0
C2004 C 0.12318 0.64648 0.26618 0.0
C2005 C 0.13448 0.6278 0.2512 0.0
H2006 H 0.12049 0.66337 0.3027 0.0
C2007 C 0.15351 0.61268 0.2617 0.0
H2008 H 0.10854 0.65853 0.25855 0.0
C2009 C 0.16007 0.61514 0.28705 0.0
C2010 C 0.14788 0.63292 0.30255 0.0
H2011 H 0.16258 0.59808 0.25066 0.0
H2012 H 0.17388 0.60218 0.29458 0.0
C2013 C 0.12989 0.64909 0.29157 0.0
C2014 C 0.84006 0.88352 0.28777 0.0
C2015 C 0.85083 0.8644 0.30259 0.0
H2016 H 0.83906 0.90203 0.25203 0.0
C2017 C 0.86853 0.848 0.29161 0.0
H2018 H 0.82597 0.89608 0.29555 0.0
C2019 C 0.87611 0.8514 0.26654 0.0
C2020 C 0.86582 0.87104 0.25199 0.0
H2021 H 0.87705 0.83311 0.30268 0.0
H2022 H 0.8904 0.83905 0.25876 0.0
C2023 C 0.84737 0.88673 0.26273 0.0
C2024 C 0.20615 0.12867 0.34991 0.0
C2025 C 0.19534 0.1467 0.36606 0.0
H2026 H 0.23888 0.10653 0.34106 0.0
C2027 C 0.2103 0.15763 0.38497 0.0
H2028 H 0.19498 0.12001 0.33518 0.0
C2029 C 0.23533 0.15025 0.38813 0.0
C2030 C 0.24594 0.13157 0.3726 0.0
H2031 H 0.20266 0.17196 0.39734 0.0
H2032 H 0.24616 0.15877 0.40321 0.0
C2033 C 0.23122 0.12101 0.35327 0.0
C2034 C 0.23905 0.84389 0.11389 0.0
C2035 C 0.24831 0.86544 0.1262 0.0
H2036 H 0.20738 0.82005 0.1068 0.0
C2037 C 0.2321 0.87915 0.14203 0.0
H2038 H 0.25112 0.83287 0.10163 0.0
C2039 C 0.20686 0.87204 0.14469 0.0
C2040 C 0.19728 0.85098 0.13167 0.0
H2041 H 0.23865 0.89595 0.15164 0.0
H2042 H 0.19471 0.88362 0.15628 0.0
C2043 C 0.21385 0.83669 0.11666 0.0
C2044 C 0.76839 0.61813 0.14201 0.0
C2045 C 0.7521 0.6316 0.12606 0.0
H2046 H 0.80576 0.61425 0.15655 0.0
C2047 C 0.76114 0.65325 0.11376 0.0
H2048 H 0.76201 0.60128 0.15164 0.0
C2049 C 0.78621 0.6608 0.11666 0.0
C2050 C 0.80287 0.6468 0.13185 0.0
H2051 H 0.749 0.66409 0.10141 0.0
H2052 H 0.79253 0.67752 0.10682 0.0
C2053 C 0.79351 0.62561 0.14484 0.0
C2054 C 0.28722 0.84059 0.88511 0.0
C2055 C 0.30233 0.85127 0.86618 0.0
H2056 H 0.25142 0.84009 0.90346 0.0
C2057 C 0.29182 0.86957 0.85012 0.0
H2058 H 0.29462 0.82608 0.89742 0.0
C2059 C 0.26692 0.87772 0.85358 0.0
C2060 C 0.25205 0.86738 0.87293 0.0
H2061 H 0.30311 0.87806 0.83537 0.0
H2062 H 0.25949 0.89238 0.84144 0.0
C2063 C 0.26235 0.84846 0.88837 0.0
C2064 C 0.01262 0.24642 0.40102 0.0
C2065 C 0.02522 0.24157 0.42383 0.0
H2066 H 0.97854 0.25802 0.38309 0.0
C2067 C 0.01241 0.24568 0.44666 0.0
H2068 H 0.02198 0.24376 0.38309 0.0
C2069 C 0.98753 0.25426 0.44667 0.0
C2070 C 0.97486 0.25888 0.42385 0.0
H2071 H 0.02141 0.24189 0.46456 0.0
H2072 H 0.97836 0.25747 0.4646 0.0
C2073 C 0.98773 0.25489 0.40103 0.0
C2074 C 0.98725 0.74528 0.05244 0.0
C2075 C 0.9745 0.74113 0.07529 0.0
H2076 H 0.02138 0.75677 0.03444 0.0
C2077 C 0.98736 0.74529 0.09808 0.0
H2078 H 0.97806 0.74196 0.03454 0.0
C2079 C 0.0124 0.75333 0.09802 0.0
C2080 C 0.02514 0.75753 0.07517 0.0
H2081 H 0.97808 0.74253 0.11603 0.0
H2082 H 0.02177 0.75606 0.11593 0.0
C2083 C 0.01228 0.75342 0.05238 0.0
C2084 C 0.4027 0.01279 0.24454 0.0
C2085 C 0.42515 0.02631 0.24058 0.0
H2086 H 0.38567 0.97803 0.25538 0.0
C2087 C 0.44831 0.01426 0.24528 0.0
H2088 H 0.3845 0.02146 0.2414 0.0
C2089 C 0.44897 0.98933 0.25379 0.0
C2090 C 0.42649 0.97585 0.25774 0.0
H2091 H 0.46599 0.02394 0.24214 0.0
H2092 H 0.46711 0.9808 0.25758 0.0
C2093 C 0.40336 0.98787 0.25289 0.0
C2094 C 0.54968 0.5095 0.2535 0.0
C2095 C 0.57231 0.52267 0.25765 0.0
H2096 H 0.53227 0.47511 0.24184 0.0
C2097 C 0.59531 0.51027 0.25317 0.0
H2098 H 0.53162 0.51832 0.25702 0.0
C2099 C 0.5957 0.48529 0.24497 0.0
C2100 C 0.57309 0.4721 0.24081 0.0
H2101 H 0.61312 0.51986 0.25584 0.0
H2102 H 0.61379 0.47633 0.24211 0.0
C2103 C 0.55006 0.48452 0.24514 0.0
C2104 C 0.25419 0.40304 0.98555 0.0
C2105 C 0.25891 0.42581 0.97285 0.0
H2106 H 0.24226 0.38524 0.01954 0.0
C2107 C 0.25444 0.44872 0.98542 0.0
H2108 H 0.25712 0.38505 0.97639 0.0
C2109 C 0.24545 0.44883 0.01014 0.0
C2110 C 0.24079 0.42603 0.02284 0.0
H2111 H 0.25816 0.4666 0.97631 0.0
H2112 H 0.24188 0.46679 0.01915 0.0
C2113 C 0.24534 0.40315 0.01027 0.0
C2114 C 0.24554 0.55067 0.48648 0.0
C2115 C 0.24087 0.57351 0.47384 0.0
H2116 H 0.25794 0.53274 0.52033 0.0
C2117 C 0.24503 0.59633 0.48667 0.0
H2118 H 0.24224 0.53274 0.47734 0.0
C2119 C 0.25354 0.59632 0.51154 0.0
C2120 C 0.25831 0.5735 0.52417 0.0
H2121 H 0.2419 0.61429 0.4775 0.0
H2122 H 0.2562 0.61427 0.52087 0.0
C2123 C 0.25419 0.55067 0.51134 0.0
C2124 C 0.7544 0.94886 0.48499 0.0
C2125 C 0.75861 0.92581 0.47258 0.0
H2126 H 0.74201 0.96734 0.51856 0.0
C2127 C 0.75345 0.9032 0.48541 0.0
H2128 H 0.75843 0.96663 0.4758 0.0
C2129 C 0.74452 0.9036 0.51011 0.0
C2130 C 0.74032 0.92663 0.52256 0.0
H2131 H 0.75616 0.88511 0.47637 0.0
H2132 H 0.74117 0.88579 0.51948 0.0
C2133 C 0.74532 0.94926 0.50969 0.0
C2134 C 0.98684 0.7542 0.59707 0.0
C2135 C 0.97385 0.75836 0.57434 0.0
H2136 H 0.02122 0.74318 0.61478 0.0
C2137 C 0.9864 0.75381 0.55144 0.0
H2138 H 0.97776 0.75722 0.61507 0.0
C2139 C 0.01132 0.74531 0.55127 0.0
C2140 C 0.02431 0.74122 0.57401 0.0
H2141 H 0.97714 0.7571 0.53357 0.0
H2142 H 0.02023 0.74166 0.53329 0.0
C2143 C 0.01177 0.74583 0.5969 0.0
C2144 C 0.98716 0.24621 0.94556 0.0
C2145 C 0.97404 0.24218 0.9229 0.0
H2146 H 0.0216 0.25756 0.96304 0.0
C2147 C 0.98651 0.24647 0.89991 0.0
H2148 H 0.97826 0.24279 0.96359 0.0
C2149 C 0.01155 0.25449 0.89959 0.0
C2150 C 0.02468 0.25854 0.92225 0.0
H2151 H 0.97692 0.2438 0.88211 0.0
H2152 H 0.02064 0.25733 0.88155 0.0
C2153 C 0.01219 0.25432 0.94523 0.0
C2154 C 0.59536 0.013 0.74456 0.0
C2155 C 0.57259 0.02575 0.73994 0.0
H2156 H 0.61325 0.97885 0.75601 0.0
C2157 C 0.54973 0.01299 0.74413 0.0
H2158 H 0.61334 0.02225 0.74186 0.0
C2159 C 0.54967 0.98809 0.75273 0.0
C2160 C 0.57247 0.97533 0.75727 0.0
H2161 H 0.53183 0.02208 0.7405 0.0
H2162 H 0.53172 0.979 0.75609 0.0
C2163 C 0.59531 0.98809 0.75301 0.0
C2164 C 0.40311 0.51061 0.75268 0.0
C2165 C 0.42619 0.52283 0.75729 0.0
H2166 H 0.38443 0.47685 0.74141 0.0
C2167 C 0.44874 0.5095 0.75323 0.0
H2168 H 0.38537 0.52033 0.75528 0.0
C2169 C 0.4482 0.48454 0.74479 0.0
C2170 C 0.4251 0.47233 0.74028 0.0
H2171 H 0.46684 0.51818 0.75685 0.0
H2172 H 0.46593 0.475 0.74152 0.0
C2173 C 0.40258 0.48567 0.7444 0.0
C2174 C 0.75426 0.54916 0.98731 0.0
C2175 C 0.75901 0.57207 0.97483 0.0
H2176 H 0.74137 0.53104 0.02088 0.0
C2177 C 0.75446 0.59481 0.98766 0.0
H2178 H 0.75781 0.53128 0.97814 0.0
C2179 C 0.74553 0.59468 0.01237 0.0
C2180 C 0.74068 0.57179 0.02485 0.0
H2181 H 0.75757 0.61283 0.97862 0.0
H2182 H 0.7426 0.61259 0.0217 0.0
C2183 C 0.74516 0.54902 0.01201 0.0
C2184 C 0.74464 0.40341 0.48652 0.0
C2185 C 0.73961 0.42612 0.47381 0.0
H2186 H 0.75699 0.38574 0.52043 0.0
C2187 C 0.74406 0.44907 0.4863 0.0
H2188 H 0.74175 0.38538 0.47742 0.0
C2189 C 0.75328 0.44929 0.51095 0.0
C2190 C 0.75819 0.42656 0.52368 0.0
H2191 H 0.74014 0.46691 0.4772 0.0
H2192 H 0.75679 0.4673 0.51988 0.0
C2193 C 0.75372 0.40363 0.51117 0.0
C2194 C 0.25376 0.0501 0.4881 0.0
C2195 C 0.25866 0.07284 0.47536 0.0
H2196 H 0.24076 0.03245 0.52187 0.0
C2197 C 0.25437 0.09576 0.48798 0.0
H2198 H 0.25714 0.0321 0.47911 0.0
C2199 C 0.24545 0.09595 0.5127 0.0
C2200 C 0.2404 0.07324 0.5254 0.0
H2201 H 0.25764 0.11365 0.47873 0.0
H2202 H 0.24266 0.11397 0.52186 0.0
C2203 C 0.24471 0.0503 0.51281 0.0
C2204 C 0.48606 0.75329 0.94721 0.0
C2205 C 0.47355 0.75767 0.92425 0.0
H2206 H 0.51989 0.74134 0.9655 0.0
C2207 C 0.48662 0.75347 0.90158 0.0
H2208 H 0.47675 0.75662 0.96504 0.0
C2209 C 0.51158 0.74519 0.90185 0.0
C2210 C 0.52408 0.74071 0.9248 0.0
H2211 H 0.47757 0.75638 0.88354 0.0
H2212 H 0.52109 0.74248 0.88401 0.0
C2213 C 0.51101 0.74487 0.94748 0.0
C2214 C 0.48698 0.24581 0.59827 0.0
C2215 C 0.47448 0.24148 0.57531 0.0
H2216 H 0.52109 0.2568 0.61658 0.0
C2217 C 0.48756 0.24554 0.55263 0.0
H2218 H 0.47742 0.24312 0.61609 0.0
C2219 C 0.51256 0.25374 0.55291 0.0
C2220 C 0.52507 0.25802 0.57587 0.0
H2221 H 0.47864 0.24208 0.53461 0.0
H2222 H 0.52193 0.25701 0.53509 0.0
C2223 C 0.51199 0.25393 0.59855 0.0
C2224 C 0.94769 0.4858 0.7532 0.0
C2225 C 0.92464 0.47337 0.75739 0.0
H2226 H 0.96617 0.51975 0.74182 0.0
C2227 C 0.90205 0.48664 0.75336 0.0
H2228 H 0.96546 0.4763 0.75641 0.0
C2229 C 0.90247 0.51172 0.74553 0.0
C2230 C 0.92549 0.52416 0.74127 0.0
H2231 H 0.88394 0.47766 0.75611 0.0
H2232 H 0.88468 0.52137 0.743 0.0
C2233 C 0.94811 0.5109 0.7452 0.0
C2234 C 0.04964 0.01271 0.75497 0.0
C2235 C 0.07242 0.02563 0.75907 0.0
H2236 H 0.03183 0.97857 0.74312 0.0
C2237 C 0.09527 0.01303 0.75439 0.0
H2238 H 0.03169 0.02169 0.75864 0.0
C2239 C 0.09537 0.98812 0.746 0.0
C2240 C 0.07261 0.9752 0.74182 0.0
H2241 H 0.11319 0.02242 0.75702 0.0
H2242 H 0.11336 0.979 0.74296 0.0
C2243 C 0.04973 0.98779 0.74641 0.0
C2244 C 0.75469 0.09543 0.01102 0.0
C2245 C 0.75898 0.07254 0.0237 0.0
H2246 H 0.74302 0.11354 0.97707 0.0
C2247 C 0.7542 0.04977 0.011 0.0
H2248 H 0.75789 0.11335 0.02023 0.0
C2249 C 0.74521 0.04989 0.98626 0.0
C2250 C 0.74086 0.07279 0.97363 0.0
H2251 H 0.7576 0.03179 0.02003 0.0
H2252 H 0.74132 0.03201 0.97723 0.0
C2253 C 0.74584 0.09554 0.98628 0.0
C2254 C 0.51252 0.24457 0.05307 0.0
C2255 C 0.52523 0.24061 0.07599 0.0
H2256 H 0.47844 0.25597 0.03491 0.0
C2257 C 0.51237 0.24513 0.09871 0.0
H2258 H 0.52171 0.24098 0.03522 0.0
C2259 C 0.48736 0.25328 0.09854 0.0
C2260 C 0.47463 0.25723 0.07563 0.0
H2261 H 0.52163 0.24253 0.1167 0.0
H2262 H 0.47798 0.25626 0.11641 0.0
C2263 C 0.48752 0.2528 0.0529 0.0
C2264 C 0.50997 0.75365 0.44767 0.0
C2265 C 0.5229 0.75817 0.42498 0.0
H2266 H 0.47587 0.74145 0.46525 0.0
C2267 C 0.51029 0.75402 0.40203 0.0
H2268 H 0.51894 0.75694 0.46569 0.0
C2269 C 0.48537 0.7456 0.40179 0.0
C2270 C 0.47248 0.74096 0.42448 0.0
H2271 H 0.51968 0.75704 0.38418 0.0
H2272 H 0.47622 0.74289 0.38377 0.0
C2273 C 0.48507 0.74511 0.44742 0.0
C2274 C 0.09624 0.51217 0.24409 0.0
C2275 C 0.07357 0.52528 0.23994 0.0
H2276 H 0.11383 0.47769 0.25501 0.0
C2277 C 0.05061 0.51279 0.24441 0.0
H2278 H 0.11429 0.5212 0.24115 0.0
C2279 C 0.05035 0.48782 0.25283 0.0
C2280 C 0.07304 0.47471 0.25691 0.0
H2281 H 0.03278 0.52215 0.24114 0.0
H2282 H 0.03233 0.47896 0.2564 0.0
C2283 C 0.09598 0.4872 0.25237 0.0
C2284 C 0.90259 0.98603 0.24538 0.0
C2285 C 0.92554 0.97364 0.2406 0.0
H2286 H 0.88422 0.01996 0.25671 0.0
C2287 C 0.94821 0.98682 0.24446 0.0
H2288 H 0.88475 0.97642 0.24293 0.0
C2289 C 0.94791 0.01181 0.25282 0.0
C2290 C 0.92494 0.02421 0.25747 0.0
H2291 H 0.96622 0.978 0.24071 0.0
H2292 H 0.96574 0.02124 0.2559 0.0
C2293 C 0.90229 0.011 0.2536 0.0
C2294 C 0.24406 0.90367 0.98846 0.0
C2295 C 0.23997 0.92659 0.9758 0.0
H2296 H 0.25562 0.88544 0.02238 0.0
C2297 C 0.24501 0.94933 0.98847 0.0
H2298 H 0.24067 0.88578 0.97925 0.0
C2299 C 0.25405 0.94911 0.01318 0.0
C2300 C 0.2582 0.92616 0.0258 0.0
H2301 H 0.24177 0.96733 0.97944 0.0
H2302 H 0.25814 0.96695 0.02221 0.0
C2303 C 0.25296 0.90346 0.01318 0.0
C2304 C 0.11552 0.11971 0.46689 0.0
C2305 C 0.12562 0.14131 0.45535 0.0
H2306 H 0.11286 0.09756 0.50059 0.0
C2307 C 0.14233 0.15658 0.46899 0.0
H2308 H 0.10241 0.10772 0.45679 0.0
C2309 C 0.14877 0.15055 0.49373 0.0
C2310 C 0.13814 0.12939 0.50582 0.0
H2311 H 0.15065 0.17318 0.46043 0.0
H2312 H 0.16235 0.16246 0.50323 0.0
C2313 C 0.12154 0.11391 0.49198 0.0
C2314 C 0.87896 0.34111 0.47586 0.0
C2315 C 0.87372 0.3577 0.45585 0.0
H2316 H 0.87743 0.33443 0.51556 0.0
C2317 C 0.86359 0.38158 0.46132 0.0
H2318 H 0.88719 0.32273 0.47237 0.0
C2319 C 0.85777 0.38824 0.48623 0.0
C2320 C 0.86216 0.3712 0.50614 0.0
H2321 H 0.85939 0.39479 0.44631 0.0
H2322 H 0.84889 0.4063 0.48974 0.0
C2323 C 0.87336 0.34781 0.50066 0.0
C2324 C 0.12401 0.84892 0.99781 0.0
C2325 C 0.13582 0.87204 0.99246 0.0
H2326 H 0.11007 0.8238 0.02602 0.0
C2327 C 0.14107 0.88866 0.01249 0.0
H2328 H 0.11932 0.83588 0.9828 0.0
C2329 C 0.13558 0.88179 0.03741 0.0
C2330 C 0.12492 0.85811 0.04274 0.0
H2331 H 0.15044 0.90649 0.00905 0.0
H2332 H 0.14049 0.89463 0.05252 0.0
C2333 C 0.11874 0.842 0.02262 0.0
C2334 C 0.87576 0.64977 0.99824 0.0
C2335 C 0.86346 0.62691 0.99289 0.0
H2336 H 0.89018 0.67461 0.02646 0.0
C2337 C 0.85788 0.61039 0.01292 0.0
H2338 H 0.88073 0.66272 0.98324 0.0
C2339 C 0.86352 0.61714 0.03785 0.0
C2340 C 0.87463 0.64061 0.04317 0.0
H2341 H 0.84815 0.59275 0.00949 0.0
H2342 H 0.85834 0.60441 0.05296 0.0
C2343 C 0.88115 0.65659 0.02305 0.0
C2344 C 0.46509 0.11775 0.12027 0.0
C2345 C 0.45279 0.12947 0.14056 0.0
H2346 H 0.49957 0.11365 0.09959 0.0
C2347 C 0.46553 0.14793 0.15449 0.0
H2348 H 0.45562 0.10327 0.10941 0.0
C2349 C 0.49028 0.15441 0.14853 0.0
C2350 C 0.50332 0.14196 0.129 0.0
H2351 H 0.45628 0.15745 0.17004 0.0
H2352 H 0.4991 0.1693 0.15936 0.0
C2353 C 0.49025 0.12374 0.11469 0.0
C2354 C 0.50764 0.3747 0.11489 0.0
C2355 C 0.49471 0.35603 0.12874 0.0
H2356 H 0.54209 0.39563 0.11016 0.0
C2357 C 0.50782 0.34328 0.14805 0.0
H2358 H 0.49827 0.38504 0.09999 0.0
C2359 C 0.53248 0.34989 0.15422 0.0
C2360 C 0.54508 0.36877 0.14073 0.0
H2361 H 0.49914 0.32806 0.15852 0.0
H2362 H 0.54179 0.34013 0.16959 0.0
C2363 C 0.53272 0.38082 0.12068 0.0
C2364 C 0.49504 0.84811 0.34871 0.0
C2365 C 0.50693 0.85902 0.36983 0.0
H2366 H 0.46198 0.84607 0.32572 0.0
C2367 C 0.49286 0.87569 0.38505 0.0
H2368 H 0.50464 0.8344 0.33703 0.0
C2369 C 0.46779 0.88157 0.37898 0.0
C2370 C 0.45656 0.87129 0.35733 0.0
H2371 H 0.50129 0.88458 0.40138 0.0
H2372 H 0.45751 0.89478 0.3907 0.0
C2373 C 0.47036 0.85448 0.34235 0.0
C2374 C 0.52908 0.61523 0.37856 0.0
C2375 C 0.54052 0.62486 0.3567 0.0
H2376 H 0.49557 0.6133 0.40106 0.0
C2377 C 0.52689 0.64146 0.34128 0.0
H2378 H 0.53918 0.60223 0.39067 0.0
C2379 C 0.50227 0.64825 0.34744 0.0
C2380 C 0.49028 0.6381 0.36887 0.0
H2381 H 0.53537 0.64943 0.32448 0.0
H2382 H 0.49279 0.66174 0.3354 0.0
C2383 C 0.50411 0.62162 0.38449 0.0
C2384 C 0.11064 0.48671 0.14224 0.0
C2385 C 0.12701 0.50676 0.13625 0.0
H2386 H 0.10465 0.44664 0.14183 0.0
C2387 C 0.14953 0.50144 0.12336 0.0
H2388 H 0.09327 0.49015 0.15242 0.0
C2389 C 0.15617 0.47664 0.11769 0.0
C2390 C 0.14036 0.45649 0.12457 0.0
H2391 H 0.16234 0.51647 0.11809 0.0
H2392 H 0.17392 0.47328 0.10816 0.0
C2393 C 0.11723 0.46178 0.13636 0.0
C2394 C 0.14997 0.50321 0.3493 0.0
C2395 C 0.12854 0.49121 0.35943 0.0
H2396 H 0.17292 0.53634 0.34818 0.0
C2397 C 0.11298 0.50495 0.37603 0.0
H2398 H 0.16196 0.49379 0.33573 0.0
C2399 C 0.11891 0.5299 0.38247 0.0
C2400 C 0.14073 0.54138 0.3728 0.0
H2401 H 0.09643 0.49638 0.38436 0.0
H2402 H 0.10682 0.53995 0.39551 0.0
C2403 C 0.15614 0.52781 0.35617 0.0
C2404 C 0.87915 0.96655 0.38273 0.0
C2405 C 0.85925 0.95373 0.37087 0.0
H2406 H 0.89958 0.00127 0.3862 0.0
C2407 C 0.84579 0.96577 0.3516 0.0
H2408 H 0.88968 0.95762 0.39779 0.0
C2409 C 0.8518 0.99033 0.34448 0.0
C2410 C 0.87093 0.00388 0.35703 0.0
H2411 H 0.83059 0.95611 0.34193 0.0
H2412 H 0.84135 0.99862 0.32903 0.0
C2413 C 0.88479 0.99152 0.37604 0.0
C2414 C 0.35085 0.50712 0.65295 0.0
C2415 C 0.36999 0.49349 0.64051 0.0
H2416 H 0.32963 0.54136 0.65525 0.0
C2417 C 0.38382 0.50571 0.62138 0.0
H2418 H 0.34041 0.49896 0.66847 0.0
C2419 C 0.37816 0.53062 0.6145 0.0
C2420 C 0.35826 0.54353 0.62627 0.0
H2421 H 0.39861 0.49589 0.61129 0.0
H2422 H 0.3887 0.53945 0.59938 0.0
C2423 C 0.34482 0.53163 0.64563 0.0
C2424 C 0.85069 0.84819 0.50423 0.0
C2425 C 0.86098 0.86966 0.49243 0.0
H2426 H 0.84883 0.82529 0.53735 0.0
C2427 C 0.87701 0.88543 0.50662 0.0
H2428 H 0.83752 0.83603 0.49446 0.0
C2429 C 0.88282 0.8796 0.53175 0.0
C2430 C 0.87306 0.85769 0.54302 0.0
H2431 H 0.88542 0.90204 0.49823 0.0
H2432 H 0.8955 0.89182 0.54212 0.0
C2433 C 0.8569 0.84214 0.52903 0.0
C2434 C 0.12279 0.61431 0.50716 0.0
C2435 C 0.14026 0.62906 0.49359 0.0
H2436 H 0.10259 0.60916 0.54192 0.0
C2437 C 0.15135 0.64993 0.50574 0.0
H2438 H 0.1137 0.59822 0.49848 0.0
C2439 C 0.14448 0.65647 0.53024 0.0
C2440 C 0.12689 0.64193 0.54357 0.0
H2441 H 0.16557 0.66126 0.49646 0.0
H2442 H 0.15313 0.67286 0.53886 0.0
C2443 C 0.11637 0.62055 0.53203 0.0
C2444 C 0.86343 0.11814 0.96204 0.0
C2445 C 0.87373 0.14195 0.9566 0.0
H2446 H 0.84863 0.09348 0.99045 0.0
C2447 C 0.87916 0.15847 0.97662 0.0
H2448 H 0.85907 0.105 0.94702 0.0
C2449 C 0.87357 0.15176 0.00142 0.0
C2450 C 0.86222 0.12844 0.00686 0.0
H2451 H 0.8875 0.1768 0.97314 0.0
H2452 H 0.87773 0.16508 0.01634 0.0
C2453 C 0.85764 0.11148 0.98695 0.0
C2454 C 0.13546 0.38215 0.96009 0.0
C2455 C 0.12483 0.35853 0.95448 0.0
H2456 H 0.15055 0.40642 0.98867 0.0
C2457 C 0.11911 0.34197 0.97439 0.0
H2458 H 0.14005 0.39531 0.94515 0.0
C2459 C 0.12473 0.34845 -0.00075 0.0
C2460 C 0.13642 0.37156 0.00485 0.0
H2461 H 0.11051 0.32379 0.97079 0.0
H2462 H 0.12033 0.3351 0.01408 0.0
C2463 C 0.14129 0.38857 0.98505 0.0
C2464 C 0.50326 0.84967 0.847 0.0
C2465 C 0.4914 0.85982 0.8685 0.0
H2466 H 0.53627 0.84841 0.8239 0.0
C2467 C 0.50536 0.87621 0.88409 0.0
H2468 H 0.49368 0.83624 0.83497 0.0
C2469 C 0.53034 0.88249 0.87809 0.0
C2470 C 0.54164 0.87287 0.85616 0.0
H2471 H 0.49692 0.88452 0.90072 0.0
H2472 H 0.54054 0.89541 0.89018 0.0
C2473 C 0.52788 0.85637 0.84075 0.0
C2474 C 0.49213 0.62369 0.88539 0.0
C2475 C 0.50685 0.63923 0.86962 0.0
H2476 H 0.45628 0.60566 0.8913 0.0
C2477 C 0.49567 0.64912 0.84763 0.0
H2478 H 0.5 0.61559 0.90239 0.0
C2479 C 0.471 0.64291 0.84108 0.0
C2480 C 0.45651 0.62726 0.85666 0.0
H2481 H 0.50581 0.66196 0.83542 0.0
H2482 H 0.46316 0.65058 0.82383 0.0
C2483 C 0.46708 0.61797 0.87908 0.0
C2484 C 0.53247 0.14974 0.65402 0.0
C2485 C 0.54515 0.13094 0.6405 0.0
H2486 H 0.49896 0.17129 0.65842 0.0
C2487 C 0.53282 0.11874 0.62053 0.0
H2488 H 0.54177 0.15956 0.66936 0.0
C2489 C 0.50767 0.12464 0.61485 0.0
C2490 C 0.49465 0.14323 0.62872 0.0
H2491 H 0.54225 0.10397 0.61003 0.0
H2492 H 0.49832 0.11417 0.60003 0.0
C2493 C 0.50773 0.15613 0.64794 0.0
C2494 C 0.46589 0.35105 0.65361 0.0
C2495 C 0.45351 0.36986 0.6398 0.0
H2496 H 0.49918 0.32928 0.65862 0.0
C2497 C 0.46622 0.38181 0.6199 0.0
H2498 H 0.45632 0.34138 0.66887 0.0
C2499 C 0.4914 0.37566 0.61459 0.0
C2500 C 0.50409 0.35706 0.62877 0.0
H2501 H 0.45704 0.39656 0.60915 0.0
H2502 H 0.50102 0.38592 0.59979 0.0
C2503 C 0.49066 0.34443 0.64791 0.0
C2504 C 0.88491 0.5074 0.87457 0.0
C2505 C 0.87076 0.49483 0.85589 0.0
H2506 H 0.89 0.54149 0.896 0.0
C2507 C 0.85144 0.50826 0.84351 0.0
H2508 H 0.89986 0.49777 0.8846 0.0
C2509 C 0.84544 0.53285 0.85057 0.0
C2510 C 0.85915 0.54505 0.86954 0.0
H2511 H 0.84076 0.49986 0.82829 0.0
H2512 H 0.83001 0.54239 0.84115 0.0
C2513 C 0.8793 0.53241 0.88115 0.0
C2514 C 0.88183 0.46225 0.63784 0.0
C2515 C 0.85862 0.45713 0.62613 0.0
H2516 H 0.90602 0.49039 0.65392 0.0
C2517 C 0.84285 0.4774 0.61951 0.0
H2518 H 0.89439 0.44703 0.64314 0.0
C2519 C 0.84964 0.50215 0.62531 0.0
C2520 C 0.87228 0.50729 0.63805 0.0
H2521 H 0.82502 0.47419 0.61007 0.0
H2522 H 0.83687 0.51727 0.62021 0.0
C2523 C 0.88857 0.48711 0.64383 0.0
C2524 C 0.11219 0.0075 0.62277 0.0
C2525 C 0.1274 0.994 0.63989 0.0
H2526 H 0.10639 0.04231 0.60278 0.0
C2527 C 0.14825 0.00635 0.65077 0.0
H2528 H 0.09605 0.99866 0.61394 0.0
C2529 C 0.15438 0.03098 0.64396 0.0
C2530 C 0.13948 0.04423 0.62661 0.0
H2531 H 0.15989 0.99712 0.66477 0.0
H2532 H 0.17079 0.03973 0.65243 0.0
C2533 C 0.11808 0.03249 0.61635 0.0
C2534 C 0.6478 0.49263 0.3483 0.0
C2535 C 0.62609 0.50405 0.35853 0.0
H2536 H 0.67127 0.45989 0.34655 0.0
C2537 C 0.61032 0.48945 0.37419 0.0
H2538 H 0.65996 0.50269 0.33535 0.0
C2539 C 0.61646 0.46432 0.37983 0.0
C2540 C 0.63868 0.45355 0.37028 0.0
H2541 H 0.59351 0.49751 0.38252 0.0
H2542 H 0.60431 0.45364 0.39231 0.0
C2543 C 0.65418 0.46789 0.3544 0.0
C2544 C 0.61634 0.61973 0.96735 0.0
C2545 C 0.62611 0.6418 0.95641 0.0
H2546 H 0.61388 0.5967 0.00046 0.0
C2547 C 0.64238 0.65707 0.97057 0.0
H2548 H 0.60357 0.60773 0.95686 0.0
C2549 C 0.64877 0.65054 0.99521 0.0
C2550 C 0.63851 0.62886 0.00668 0.0
H2551 H 0.65044 0.67403 0.96248 0.0
H2552 H 0.66206 0.66247 0.00509 0.0
C2553 C 0.6223 0.61343 0.99234 0.0
C2554 C 0.34988 0.84782 0.99372 0.0
C2555 C 0.36026 0.86939 0.00527 0.0
H2556 H 0.34796 0.82454 0.96086 0.0
C2557 C 0.37634 0.88493 0.9909 0.0
H2558 H 0.33667 0.83581 0.00363 0.0
C2559 C 0.38212 0.8788 0.96583 0.0
C2560 C 0.37228 0.8568 0.95482 0.0
H2561 H 0.38482 0.90161 0.99908 0.0
H2562 H 0.39483 0.89086 0.95532 0.0
C2563 C 0.35608 0.84145 0.96899 0.0
C2564 C 0.61784 0.3423 0.52366 0.0
C2565 C 0.62445 0.35852 0.54356 0.0
H2566 H 0.61801 0.33575 0.48391 0.0
C2567 C 0.6355 0.38194 0.53791 0.0
H2568 H 0.60886 0.32431 0.52731 0.0
C2569 C 0.64097 0.38843 0.51288 0.0
C2570 C 0.63527 0.37169 0.49306 0.0
H2571 H 0.64074 0.39484 0.55286 0.0
H2572 H 0.65064 0.40605 0.5092 0.0
C2573 C 0.62307 0.34886 0.49874 0.0
C2574 C 0.38049 0.15712 0.52192 0.0
C2575 C 0.37462 0.14077 0.54195 0.0
H2576 H 0.37929 0.16369 0.48218 0.0
C2577 C 0.36391 0.11714 0.53653 0.0
H2578 H 0.38916 0.1753 0.52539 0.0
C2579 C 0.35808 0.11054 0.51163 0.0
C2580 C 0.36302 0.1274 0.49171 0.0
H2581 H 0.35922 0.10414 0.55157 0.0
H2582 H 0.3487 0.09273 0.50813 0.0
C2583 C 0.37485 0.15048 0.49712 0.0
C2584 C 0.96692 0.61907 0.6203 0.0
C2585 C 0.95629 0.62844 0.64267 0.0
H2586 H -0.0001 0.61651 0.59712 0.0
C2587 C 0.97081 0.64403 0.65829 0.0
H2588 H 0.9561 0.60681 0.60805 0.0
C2589 C 0.99552 0.65014 0.65182 0.0
C2590 C 0.00675 0.64019 0.62987 0.0
H2591 H 0.96293 0.65175 0.6755 0.0
H2592 H 0.00567 0.66295 0.66404 0.0
C2593 C 0.99201 0.62468 0.61408 0.0
C2594 C 0.00406 0.85036 0.65103 0.0
C2595 C 0.99232 0.8606 0.62951 0.0
H2596 H 0.03697 0.84895 0.67425 0.0
C2597 C 0.00641 0.87691 0.61394 0.0
H2598 H 0.99438 0.83698 0.66302 0.0
C2599 C 0.03139 0.88309 0.62005 0.0
C2600 C 0.04255 0.87343 0.64203 0.0
H2601 H 0.99805 0.88527 0.59729 0.0
H2602 H 0.04169 0.89599 0.608 0.0
C2603 C 0.02868 0.85696 0.65736 0.0
C2604 C 0.96625 0.38243 0.87732 0.0
C2605 C 0.95361 0.3706 0.8573 0.0
H2606 H 0.00094 0.38635 0.89765 0.0
C2607 C 0.96602 0.35183 0.84348 0.0
H2608 H 0.95705 0.39715 0.88809 0.0
C2609 C 0.99074 0.34509 0.84931 0.0
C2610 C 0.0041 0.35758 0.86861 0.0
H2611 H 0.95651 0.34224 0.82814 0.0
H2612 H 0.99925 0.32995 0.8386 0.0
C2613 C 0.99138 0.37618 0.88276 0.0
C2614 C 0.0319 0.11882 0.87843 0.0
C2615 C 0.04432 0.13081 0.85838 0.0
H2616 H 0.99735 0.11456 0.89893 0.0
C2617 C 0.03172 0.14954 0.84469 0.0
H2618 H 0.04126 0.1041 0.88907 0.0
C2619 C 0.007 0.15609 0.85069 0.0
C2620 C 0.99383 0.14341 0.87 0.0
H2621 H 0.04108 0.15921 0.82929 0.0
H2622 H 0.99832 0.17121 0.84008 0.0
C2623 C 0.00676 0.12486 0.88403 0.0
C2624 C 0.61081 0.98809 0.64249 0.0
C2625 C 0.62721 0.00816 0.63668 0.0
H2626 H 0.6049 0.94801 0.64207 0.0
C2627 C 0.64991 0.00286 0.62411 0.0
H2628 H 0.5933 0.9915 0.65244 0.0
C2629 C 0.65667 0.97807 0.61856 0.0
C2630 C 0.64082 0.95789 0.62526 0.0
H2631 H 0.66276 0.01791 0.61899 0.0
H2632 H 0.67456 0.97473 0.60926 0.0
C2633 C 0.61753 0.96316 0.63675 0.0
C2634 C 0.65495 0.02949 0.85623 0.0
C2635 C 0.6397 0.04312 0.87299 0.0
H2636 H 0.66064 0.99539 0.8359 0.0
C2637 C 0.61788 0.0317 0.88276 0.0
H2638 H 0.6717 0.03796 0.84814 0.0
C2639 C 0.61188 0.00672 0.8764 0.0
C2640 C 0.62737 0.99289 0.85981 0.0
H2641 H 0.6059 0.04179 0.89588 0.0
H2642 H 0.59536 0.99818 0.88483 0.0
C2643 C 0.64871 0.00488 0.84948 0.0
C2644 C 0.38281 0.46035 0.85981 0.0
C2645 C 0.35965 0.45511 0.87157 0.0
H2646 H 0.40702 0.48873 0.84415 0.0
C2647 C 0.34409 0.47531 0.87884 0.0
H2648 H 0.39522 0.44518 0.85405 0.0
C2649 C 0.35098 0.50013 0.87357 0.0
C2650 C 0.37351 0.50543 0.8607 0.0
H2651 H 0.32633 0.47198 0.88837 0.0
H2652 H 0.33834 0.51521 0.8791 0.0
C2653 C 0.38965 0.48531 0.85433 0.0
C2654 C 0.84321 0.02205 0.1189 0.0
C2655 C 0.85885 0.04226 0.12599 0.0
H2656 H 0.83734 0.98217 0.11895 0.0
C2657 C 0.88201 0.03702 0.13776 0.0
H2658 H 0.82544 0.02536 0.10938 0.0
C2659 C 0.88879 0.01208 0.1434 0.0
C2660 C 0.87257 0.99198 0.13722 0.0
H2661 H 0.89448 0.0522 0.14339 0.0
H2662 H 0.90617 0.00867 0.15357 0.0
C2663 C 0.85003 0.99725 0.12435 0.0
C2664 C 0.35799 0.38724 0.01086 0.0
C2665 C 0.36252 0.37005 0.99112 0.0
H2666 H 0.35959 0.39422 0.05069 0.0
C2667 C 0.3739 0.3468 0.99681 0.0
H2668 H 0.34895 0.40519 0.00718 0.0
C2669 C 0.37963 0.34042 0.02168 0.0
C2670 C 0.37429 0.35719 0.04152 0.0
H2671 H 0.37804 0.33331 0.98204 0.0
H2672 H 0.38801 0.32214 0.02534 0.0
C2673 C 0.3639 0.38089 0.03582 0.0
C2674 C 0.6423 0.15544 0.03045 0.0
C2675 C 0.62626 0.13978 0.04446 0.0
H2676 H 0.66168 0.16163 0.99592 0.0
C2677 C 0.61668 0.11777 0.03327 0.0
H2678 H 0.65021 0.17236 0.03875 0.0
C2679 C 0.6225 0.11197 0.00812 0.0
C2680 C 0.6384 0.12785 0.99389 0.0
H2681 H 0.6041 0.10549 0.04369 0.0
H2682 H 0.61418 0.0953 -0.00023 0.0
C2683 C 0.64857 0.14939 0.00568 0.0
C2684 C 0.35491 0.65697 0.46887 0.0
C2685 C 0.37103 0.6416 0.45463 0.0
H2686 H 0.33576 0.66266 0.50364 0.0
C2687 C 0.38094 0.61961 0.46559 0.0
H2688 H 0.34675 0.67387 0.46077 0.0
C2689 C 0.37534 0.61352 0.49071 0.0
C2690 C 0.35937 0.6291 0.50517 0.0
H2691 H 0.39359 0.60754 0.45502 0.0
H2692 H 0.38387 0.59685 0.49887 0.0
C2693 C 0.3489 0.65065 0.49365 0.0
C2694 C 0.63434 0.88087 0.46164 0.0
C2695 C 0.6243 0.85687 0.45656 0.0
H2696 H 0.64904 0.90603 0.48965 0.0
C2697 C 0.61904 0.84059 0.47679 0.0
H2698 H 0.63852 0.89384 0.44641 0.0
C2699 C 0.62456 0.84771 0.50148 0.0
C2700 C 0.63578 0.87118 0.50658 0.0
H2701 H 0.61082 0.82216 0.47357 0.0
H2702 H 0.62049 0.83457 0.51659 0.0
C2703 C 0.64015 0.88792 0.48643 0.0
C2704 C 0.03021 0.3836 0.37631 0.0
C2705 C 0.04245 0.3719 0.35596 0.0
H2706 H 0.99597 0.38728 0.39746 0.0
C2707 C 0.02976 0.35325 0.34224 0.0
H2708 H 0.03965 0.3982 0.38705 0.0
C2709 C 0.00518 0.34649 0.34853 0.0
C2710 C 0.99224 0.3588 0.36822 0.0
H2711 H 0.03896 0.34371 0.32667 0.0
H2712 H 0.99646 0.3314 0.3379 0.0
C2713 C 0.00521 0.3773 0.38224 0.0
C2714 C 0.99413 0.14854 0.34771 0.0
C2715 C 0.00553 0.13882 0.36965 0.0
H2716 H 0.9614 0.14983 0.32422 0.0
C2717 C 0.99095 0.1234 0.38569 0.0
H2718 H 0.00415 0.16128 0.33531 0.0
C2719 C 0.96585 0.11759 0.37965 0.0
C2720 C 0.95504 0.12671 0.35726 0.0
H2721 H 0.999 0.11543 0.40267 0.0
H2722 H 0.95517 0.10538 0.39207 0.0
C2723 C 0.9694 0.14227 0.34144 0.0
C2724 C 0.00736 0.62377 0.1149 0.0
C2725 C 0.99456 0.64235 0.129 0.0
H2726 H 0.0418 0.60294 0.10966 0.0
C2727 C 0.00785 0.65497 0.14825 0.0
H2728 H 0.99786 0.6135 0.10004 0.0
C2729 C 0.03259 0.64837 0.15412 0.0
C2730 C 0.04507 0.62962 0.14035 0.0
H2731 H 0.99926 0.67012 0.15891 0.0
H2732 H 0.04205 0.65802 0.16946 0.0
C2733 C 0.03252 0.61767 0.12037 0.0
C2734 C 0.99252 0.8749 0.11516 0.0
C2735 C 0.00535 0.85627 0.12917 0.0
H2736 H 0.9581 0.89579 0.1101 0.0
C2737 C 0.99214 0.84366 0.14849 0.0
H2738 H 0.00197 0.88516 0.10026 0.0
C2739 C 0.96744 0.85032 0.15449 0.0
C2740 C 0.95492 0.8691 0.14079 0.0
H2741 H 0.00074 0.82849 0.15909 0.0
H2742 H 0.95803 0.84067 0.16986 0.0
C2743 C 0.96741 0.88104 0.12075 0.0
C2744 C 0.38175 0.03791 0.36087 0.0
C2745 C 0.35846 0.0429 0.37249 0.0
H2746 H 0.40631 0.00983 0.34524 0.0
C2747 C 0.34301 0.02254 0.37954 0.0
H2748 H 0.39408 0.05322 0.35529 0.0
C2749 C 0.35015 0.99781 0.37421 0.0
C2750 C 0.37282 0.99278 0.36147 0.0
H2751 H 0.32516 0.02568 0.38897 0.0
H2752 H 0.3376 0.9826 0.37957 0.0
C2753 C 0.38884 0.01305 0.35532 0.0
C2754 C 0.38469 0.99355 0.1214 0.0
C2755 C 0.37072 0.00557 0.14056 0.0
H2756 H 0.38993 0.9599 0.09933 0.0
C2757 C 0.35181 0.99168 0.15303 0.0
H2758 H 0.39933 0.00357 0.1113 0.0
C2759 C 0.34609 0.9671 0.14572 0.0
C2760 C 0.35962 0.95538 0.12629 0.0
H2761 H 0.34129 -0.00031 0.16858 0.0
H2762 H 0.33105 0.95717 0.15537 0.0
C2763 C 0.37933 0.96856 0.11449 0.0
C2764 C 0.6477 0.50564 0.15377 0.0
C2765 C 0.62859 0.49197 0.14134 0.0
H2766 H 0.66891 0.53989 0.15603 0.0
C2767 C 0.61481 0.50415 0.12213 0.0
H2768 H 0.6581 0.49754 0.16935 0.0
C2769 C 0.62048 0.52905 0.1152 0.0
C2770 C 0.64034 0.54199 0.12698 0.0
H2771 H 0.60004 0.49431 0.11203 0.0
H2772 H 0.60998 0.53784 0.10003 0.0
C2773 C 0.65374 0.53013 0.1464 0.0
C2774 C 0.15643 0.97772 0.87989 0.0
C2775 C 0.14057 0.95755 0.8732 0.0
H2776 H 0.16245 0.01758 0.87961 0.0
C2777 C 0.11723 0.96284 0.86183 0.0
H2778 H 0.17435 0.97437 0.88912 0.0
C2779 C 0.11045 0.98778 0.8562 0.0
C2780 C 0.12684 0.00786 0.86203 0.0
H2781 H 0.10459 0.9477 0.85651 0.0
H2782 H 0.0929 0.99121 0.84634 0.0
C2783 C 0.14961 0.00254 0.87448 0.0
loop_
_geom_bond_atom_site_label_1
_geom_bond_atom_site_label_2
_geom_bond_distance
_geom_bond_site_symmetry_2
_ccdc_geom_bond_type
Co0 N4 2.148 . S
Co0 N10 2.128 . S
Co0 N20 2.194 . S
Co0 O25 2.351 . S
Co0 O26 2.155 . S
Co0 O27 2.096 . S
C1 N4 1.301 . S
C1 N5 1.328 . S
C1 H6 0.930 . S
C2 C3 1.333 . S
C2 N4 1.317 . S
C2 H7 0.930 . S
C3 C2 1.333 . S
C3 N5 1.350 . S
C3 H29 0.931 . S
N4 Co0 2.148 . S
N4 C1 1.301 . S
N4 C2 1.317 . S
N5 C1 1.328 . S
N5 C3 1.350 . S
H6 C1 0.930 . S
H7 C2 0.930 . S
C8 O9 1.224 . S
C8 O27 1.247 . S
O9 C8 1.224 . S
N10 Co0 2.128 . S
N10 C11 1.355 . S
N10 C13 1.311 . S
C11 N10 1.355 . S
C11 C12 1.363 . S
C11 H23 0.929 . S
C12 C11 1.363 . S
C12 N14 1.375 . S
C12 H30 0.931 . S
C13 N10 1.311 . S
C13 N14 1.347 . S
C13 H24 0.929 . S
N14 C12 1.375 . S
N14 C13 1.347 . S
C15 C18 1.365 . S
C15 N20 1.328 . S
C15 H21 0.929 . S
C16 C17 1.362 . S
C16 C19 1.378 . S
C16 H31 0.929 . S
C17 C16 1.362 . S
C17 C18 1.366 . S
C18 C15 1.365 . S
C18 C17 1.366 . S
C18 H32 0.930 . S
C19 C16 1.378 . S
C19 N20 1.315 . S
C19 H22 0.930 . S
N20 Co0 2.194 . S
N20 C15 1.328 . S
N20 C19 1.315 . S
H21 C15 0.929 . S
H22 C19 0.930 . S
H23 C11 0.929 . S
H24 C13 0.929 . S
O25 Co0 2.351 . S
O25 C28 1.244 . S
O26 Co0 2.155 . S
O26 C28 1.240 . S
O27 Co0 2.096 . S
O27 C8 1.247 . S
C28 O25 1.244 . S
C28 O26 1.240 . S
H29 C3 0.931 . S
H30 C12 0.931 . S
H31 C16 0.929 . S
H32 C18 0.930 . S
Co33 N37 2.148 . S
Co33 N43 2.128 . S
Co33 N53 2.194 . S
Co33 O58 2.351 . S
Co33 O59 2.155 . S
Co33 O60 2.096 . S
C34 N37 1.301 . S
C34 N38 1.328 . S
C34 H39 0.930 . S
C35 C36 1.333 . S
C35 N37 1.317 . S
C35 H40 0.930 . S
C36 C35 1.333 . S
C36 N38 1.350 . S
C36 H62 0.931 . S
N37 Co33 2.148 . S
N37 C34 1.301 . S
N37 C35 1.317 . S
N38 C34 1.328 . S
N38 C36 1.350 . S
H39 C34 0.930 . S
H40 C35 0.930 . S
C41 O42 1.224 . S
C41 O60 1.247 . S
O42 C41 1.224 . S
N43 Co33 2.128 . S
N43 C44 1.355 . S
N43 C46 1.311 . S
C44 N43 1.355 . S
C44 C45 1.363 . S
C44 H56 0.929 . S
C45 C44 1.363 . S
C45 N47 1.375 . S
C45 H63 0.931 . S
C46 N43 1.311 . S
C46 N47 1.347 . S
C46 H57 0.929 . S
N47 C45 1.375 . S
N47 C46 1.347 . S
C48 C51 1.365 . S
C48 N53 1.328 . S
C48 H54 0.929 . S
C49 C50 1.362 . S
C49 C52 1.378 . S
C49 H64 0.929 . S
C50 C49 1.362 . S
C50 C51 1.366 . S
C51 C48 1.365 . S
C51 C50 1.366 . S
C51 H65 0.930 . S
C52 C49 1.378 . S
C52 N53 1.315 . S
C52 H55 0.930 . S
N53 Co33 2.194 . S
N53 C48 1.328 . S
N53 C52 1.315 . S
H54 C48 0.929 . S
H55 C52 0.930 . S
H56 C44 0.929 . S
H57 C46 0.929 . S
O58 Co33 2.351 . S
O58 C61 1.244 . S
O59 Co33 2.155 . S
O59 C61 1.240 . S
O60 Co33 2.096 . S
O60 C41 1.247 . S
C61 O58 1.244 . S
C61 O59 1.240 . S
H62 C36 0.931 . S
H63 C45 0.931 . S
H64 C49 0.929 . S
H65 C51 0.930 . S
Co66 N70 2.148 . S
Co66 N76 2.128 . S
Co66 N86 2.194 . S
Co66 O91 2.351 . S
Co66 O92 2.155 . S
Co66 O93 2.096 . S
C67 N70 1.301 . S
C67 N71 1.328 . S
C67 H72 0.930 . S
C68 C69 1.333 . S
C68 N70 1.317 . S
C68 H73 0.930 . S
C69 C68 1.333 . S
C69 N71 1.350 . S
C69 H95 0.931 . S
N70 Co66 2.148 . S
N70 C67 1.301 . S
N70 C68 1.317 . S
N71 C67 1.328 . S
N71 C69 1.350 . S
H72 C67 0.930 . S
H73 C68 0.930 . S
C74 O75 1.224 . S
C74 O93 1.247 . S
O75 C74 1.224 . S
N76 Co66 2.128 . S
N76 C77 1.355 . S
N76 C79 1.311 . S
C77 N76 1.355 . S
C77 C78 1.363 . S
C77 H89 0.929 . S
C78 C77 1.363 . S
C78 N80 1.375 . S
C78 H96 0.931 . S
C79 N76 1.311 . S
C79 N80 1.347 . S
C79 H90 0.929 . S
N80 C78 1.375 . S
N80 C79 1.347 . S
C81 C84 1.365 . S
C81 N86 1.328 . S
C81 H87 0.929 . S
C82 C83 1.362 . S
C82 C85 1.378 . S
C82 H97 0.929 . S
C83 C82 1.362 . S
C83 C84 1.366 . S
C84 C81 1.365 . S
C84 C83 1.366 . S
C84 H98 0.930 . S
C85 C82 1.378 . S
C85 N86 1.315 . S
C85 H88 0.930 . S
N86 Co66 2.194 . S
N86 C81 1.328 . S
N86 C85 1.315 . S
H87 C81 0.929 . S
H88 C85 0.930 . S
H89 C77 0.929 . S
H90 C79 0.929 . S
O91 Co66 2.351 . S
O91 C94 1.244 . S
O92 Co66 2.155 . S
O92 C94 1.240 . S
O93 Co66 2.096 . S
O93 C74 1.247 . S
C94 O91 1.244 . S
C94 O92 1.240 . S
H95 C69 0.931 . S
H96 C78 0.931 . S
H97 C82 0.929 . S
H98 C84 0.930 . S
Co99 N103 2.148 . S
Co99 N109 2.128 . S
Co99 N119 2.194 . S
Co99 O124 2.351 . S
Co99 O125 2.155 . S
Co99 O126 2.096 . S
C100 N103 1.301 . S
C100 N104 1.328 . S
C100 H105 0.930 . S
C101 C102 1.333 . S
C101 N103 1.317 . S
C101 H106 0.930 . S
C102 C101 1.333 . S
C102 N104 1.350 . S
C102 H128 0.931 . S
N103 Co99 2.148 . S
N103 C100 1.301 . S
N103 C101 1.317 . S
N104 C100 1.328 . S
N104 C102 1.350 . S
H105 C100 0.930 . S
H106 C101 0.930 . S
C107 O108 1.224 . S
C107 O126 1.247 . S
O108 C107 1.224 . S
N109 Co99 2.128 . S
N109 C110 1.355 . S
N109 C112 1.311 . S
C110 N109 1.355 . S
C110 C111 1.363 . S
C110 H122 0.929 . S
C111 C110 1.363 . S
C111 N113 1.375 . S
C111 H129 0.931 . S
C112 N109 1.311 . S
C112 N113 1.347 . S
C112 H123 0.929 . S
N113 C111 1.375 . S
N113 C112 1.347 . S
C114 C117 1.365 . S
C114 N119 1.328 . S
C114 H120 0.929 . S
C115 C116 1.362 . S
C115 C118 1.378 . S
C115 H130 0.929 . S
C116 C115 1.362 . S
C116 C117 1.366 . S
C117 C114 1.365 . S
C117 C116 1.366 . S
C117 H131 0.930 . S
C118 C115 1.378 . S
C118 N119 1.315 . S
C118 H121 0.930 . S
N119 Co99 2.194 . S
N119 C114 1.328 . S
N119 C118 1.315 . S
H120 C114 0.929 . S
H121 C118 0.930 . S
H122 C110 0.929 . S
H123 C112 0.929 . S
O124 Co99 2.351 . S
O124 C127 1.244 . S
O125 Co99 2.155 . S
O125 C127 1.240 . S
O126 Co99 2.096 . S
O126 C107 1.247 . S
C127 O124 1.244 . S
C127 O125 1.240 . S
H128 C102 0.931 . S
H129 C111 0.931 . S
H130 C115 0.929 . S
H131 C117 0.930 . S
Co132 N136 2.148 . S
Co132 N142 2.128 . S
Co132 N152 2.194 . S
Co132 O157 2.351 . S
Co132 O158 2.155 . S
Co132 O159 2.096 . S
C133 N136 1.301 . S
C133 N137 1.328 . S
C133 H138 0.930 . S
C134 C135 1.333 . S
C134 N136 1.317 . S
C134 H139 0.930 . S
C135 C134 1.333 . S
C135 N137 1.350 . S
C135 H161 0.931 . S
N136 Co132 2.148 . S
N136 C133 1.301 . S
N136 C134 1.317 . S
N137 C133 1.328 . S
N137 C135 1.350 . S
H138 C133 0.930 . S
H139 C134 0.930 . S
C140 O141 1.224 . S
C140 O159 1.247 . S
O141 C140 1.224 . S
N142 Co132 2.128 . S
N142 C143 1.355 . S
N142 C145 1.311 . S
C143 N142 1.355 . S
C143 C144 1.363 . S
C143 H155 0.929 . S
C144 C143 1.363 . S
C144 N146 1.375 . S
C144 H162 0.931 . S
C145 N142 1.311 . S
C145 N146 1.347 . S
C145 H156 0.929 . S
N146 C144 1.375 . S
N146 C145 1.347 . S
C147 C150 1.365 . S
C147 N152 1.328 . S
C147 H153 0.929 . S
C148 C149 1.362 . S
C148 C151 1.378 . S
C148 H163 0.929 . S
C149 C148 1.362 . S
C149 C150 1.366 . S
C150 C147 1.365 . S
C150 C149 1.366 . S
C150 H164 0.930 . S
C151 C148 1.378 . S
C151 N152 1.315 . S
C151 H154 0.930 . S
N152 Co132 2.194 . S
N152 C147 1.328 . S
N152 C151 1.315 . S
H153 C147 0.929 . S
H154 C151 0.930 . S
H155 C143 0.929 . S
H156 C145 0.929 . S
O157 Co132 2.351 . S
O157 C160 1.244 . S
O158 Co132 2.155 . S
O158 C160 1.240 . S
O159 Co132 2.096 . S
O159 C140 1.247 . S
C160 O157 1.244 . S
C160 O158 1.240 . S
H161 C135 0.931 . S
H162 C144 0.931 . S
H163 C148 0.929 . S
H164 C150 0.930 . S
Co165 N169 2.148 . S
Co165 N175 2.128 . S
Co165 N185 2.194 . S
Co165 O190 2.351 . S
Co165 O191 2.155 . S
Co165 O192 2.096 . S
C166 N169 1.301 . S
C166 N170 1.328 . S
C166 H171 0.930 . S
C167 C168 1.333 . S
C167 N169 1.317 . S
C167 H172 0.930 . S
C168 C167 1.333 . S
C168 N170 1.350 . S
C168 H194 0.931 . S
N169 Co165 2.148 . S
N169 C166 1.301 . S
N169 C167 1.317 . S
N170 C166 1.328 . S
N170 C168 1.350 . S
H171 C166 0.930 . S
H172 C167 0.930 . S
C173 O174 1.224 . S
C173 O192 1.247 . S
O174 C173 1.224 . S
N175 Co165 2.128 . S
N175 C176 1.355 . S
N175 C178 1.311 . S
C176 N175 1.355 . S
C176 C177 1.363 . S
C176 H188 0.929 . S
C177 C176 1.363 . S
C177 N179 1.375 . S
C177 H195 0.931 . S
C178 N175 1.311 . S
C178 N179 1.347 . S
C178 H189 0.929 . S
N179 C177 1.375 . S
N179 C178 1.347 . S
C180 C183 1.365 . S
C180 N185 1.328 . S
C180 H186 0.929 . S
C181 C182 1.362 . S
C181 C184 1.378 . S
C181 H196 0.929 . S
C182 C181 1.362 . S
C182 C183 1.366 . S
C183 C180 1.365 . S
C183 C182 1.366 . S
C183 H197 0.930 . S
C184 C181 1.378 . S
C184 N185 1.315 . S
C184 H187 0.930 . S
N185 Co165 2.194 . S
N185 C180 1.328 . S
N185 C184 1.315 . S
H186 C180 0.929 . S
H187 C184 0.930 . S
H188 C176 0.929 . S
H189 C178 0.929 . S
O190 Co165 2.351 . S
O190 C193 1.244 . S
O191 Co165 2.155 . S
O191 C193 1.240 . S
O192 Co165 2.096 . S
O192 C173 1.247 . S
C193 O190 1.244 . S
C193 O191 1.240 . S
H194 C168 0.931 . S
H195 C177 0.931 . S
H196 C181 0.929 . S
H197 C183 0.930 . S
Co198 N202 2.148 . S
Co198 N208 2.128 . S
Co198 N218 2.194 . S
Co198 O223 2.351 . S
Co198 O224 2.155 . S
Co198 O225 2.096 . S
C199 N202 1.301 . S
C199 N203 1.328 . S
C199 H204 0.930 . S
C200 C201 1.333 . S
C200 N202 1.317 . S
C200 H205 0.930 . S
C201 C200 1.333 . S
C201 N203 1.350 . S
C201 H227 0.931 . S
N202 Co198 2.148 . S
N202 C199 1.301 . S
N202 C200 1.317 . S
N203 C199 1.328 . S
N203 C201 1.350 . S
H204 C199 0.930 . S
H205 C200 0.930 . S
C206 O207 1.224 . S
C206 O225 1.247 . S
O207 C206 1.224 . S
N208 Co198 2.128 . S
N208 C209 1.355 . S
N208 C211 1.311 . S
C209 N208 1.355 . S
C209 C210 1.363 . S
C209 H221 0.929 . S
C210 C209 1.363 . S
C210 N212 1.375 . S
C210 H228 0.931 . S
C211 N208 1.311 . S
C211 N212 1.347 . S
C211 H222 0.929 . S
N212 C210 1.375 . S
N212 C211 1.347 . S
C213 C216 1.365 . S
C213 N218 1.328 . S
C213 H219 0.929 . S
C214 C215 1.362 . S
C214 C217 1.378 . S
C214 H229 0.929 . S
C215 C214 1.362 . S
C215 C216 1.366 . S
C216 C213 1.365 . S
C216 C215 1.366 . S
C216 H230 0.930 . S
C217 C214 1.378 . S
C217 N218 1.315 . S
C217 H220 0.930 . S
N218 Co198 2.194 . S
N218 C213 1.328 . S
N218 C217 1.315 . S
H219 C213 0.929 . S
H220 C217 0.930 . S
H221 C209 0.929 . S
H222 C211 0.929 . S
O223 Co198 2.351 . S
O223 C226 1.244 . S
O224 Co198 2.155 . S
O224 C226 1.240 . S
O225 Co198 2.096 . S
O225 C206 1.247 . S
C226 O223 1.244 . S
C226 O224 1.240 . S
H227 C201 0.931 . S
H228 C210 0.931 . S
H229 C214 0.929 . S
H230 C216 0.930 . S
Co231 N235 2.148 . S
Co231 N241 2.128 . S
Co231 N251 2.194 . S
Co231 O256 2.351 . S
Co231 O257 2.155 . S
Co231 O258 2.096 . S
C232 N235 1.301 . S
C232 N236 1.328 . S
C232 H237 0.930 . S
C233 C234 1.333 . S
C233 N235 1.317 . S
C233 H238 0.930 . S
C234 C233 1.333 . S
C234 N236 1.350 . S
C234 H260 0.931 . S
N235 Co231 2.148 . S
N235 C232 1.301 . S
N235 C233 1.317 . S
N236 C232 1.328 . S
N236 C234 1.350 . S
H237 C232 0.930 . S
H238 C233 0.930 . S
C239 O240 1.224 . S
C239 O258 1.247 . S
O240 C239 1.224 . S
N241 Co231 2.128 . S
N241 C242 1.355 . S
N241 C244 1.311 . S
C242 N241 1.355 . S
C242 C243 1.363 . S
C242 H254 0.929 . S
C243 C242 1.363 . S
C243 N245 1.375 . S
C243 H261 0.931 . S
C244 N241 1.311 . S
C244 N245 1.347 . S
C244 H255 0.929 . S
N245 C243 1.375 . S
N245 C244 1.347 . S
C246 C249 1.365 . S
C246 N251 1.328 . S
C246 H252 0.929 . S
C247 C248 1.362 . S
C247 C250 1.378 . S
C247 H262 0.929 . S
C248 C247 1.362 . S
C248 C249 1.366 . S
C249 C246 1.365 . S
C249 C248 1.366 . S
C249 H263 0.930 . S
C250 C247 1.378 . S
C250 N251 1.315 . S
C250 H253 0.930 . S
N251 Co231 2.194 . S
N251 C246 1.328 . S
N251 C250 1.315 . S
H252 C246 0.929 . S
H253 C250 0.930 . S
H254 C242 0.929 . S
H255 C244 0.929 . S
O256 Co231 2.351 . S
O256 C259 1.244 . S
O257 Co231 2.155 . S
O257 C259 1.240 . S
O258 Co231 2.096 . S
O258 C239 1.247 . S
C259 O256 1.244 . S
C259 O257 1.240 . S
H260 C234 0.931 . S
H261 C243 0.931 . S
H262 C247 0.929 . S
H263 C249 0.930 . S
Co264 N268 2.148 . S
Co264 N274 2.128 . S
Co264 N284 2.194 . S
Co264 O289 2.351 . S
Co264 O290 2.155 . S
Co264 O291 2.096 . S
C265 N268 1.301 . S
C265 N269 1.328 . S
C265 H270 0.930 . S
C266 C267 1.333 . S
C266 N268 1.317 . S
C266 H271 0.930 . S
C267 C266 1.333 . S
C267 N269 1.350 . S
C267 H293 0.931 . S
N268 Co264 2.148 . S
N268 C265 1.301 . S
N268 C266 1.317 . S
N269 C265 1.328 . S
N269 C267 1.350 . S
H270 C265 0.930 . S
H271 C266 0.930 . S
C272 O273 1.224 . S
C272 O291 1.247 . S
O273 C272 1.224 . S
N274 Co264 2.128 . S
N274 C275 1.355 . S
N274 C277 1.311 . S
C275 N274 1.355 . S
C275 C276 1.363 . S
C275 H287 0.929 . S
C276 C275 1.363 . S
C276 N278 1.375 . S
C276 H294 0.931 . S
C277 N274 1.311 . S
C277 N278 1.347 . S
C277 H288 0.929 . S
N278 C276 1.375 . S
N278 C277 1.347 . S
C279 C282 1.365 . S
C279 N284 1.328 . S
C279 H285 0.929 . S
C280 C281 1.362 . S
C280 C283 1.378 . S
C280 H295 0.929 . S
C281 C280 1.362 . S
C281 C282 1.366 . S
C282 C279 1.365 . S
C282 C281 1.366 . S
C282 H296 0.930 . S
C283 C280 1.378 . S
C283 N284 1.315 . S
C283 H286 0.930 . S
N284 Co264 2.194 . S
N284 C279 1.328 . S
N284 C283 1.315 . S
H285 C279 0.929 . S
H286 C283 0.930 . S
H287 C275 0.929 . S
H288 C277 0.929 . S
O289 Co264 2.351 . S
O289 C292 1.244 . S
O290 Co264 2.155 . S
O290 C292 1.240 . S
O291 Co264 2.096 . S
O291 C272 1.247 . S
C292 O289 1.244 . S
C292 O290 1.240 . S
H293 C267 0.931 . S
H294 C276 0.931 . S
H295 C280 0.929 . S
H296 C282 0.930 . S
Co297 N301 2.148 . S
Co297 N307 2.128 . S
Co297 N317 2.194 . S
Co297 O322 2.351 . S
Co297 O323 2.155 . S
Co297 O324 2.096 . S
C298 N301 1.301 . S
C298 N302 1.328 . S
C298 H303 0.930 . S
C299 C300 1.333 . S
C299 N301 1.317 . S
C299 H304 0.930 . S
C300 C299 1.333 . S
C300 N302 1.350 . S
C300 H326 0.931 . S
N301 Co297 2.148 . S
N301 C298 1.301 . S
N301 C299 1.317 . S
N302 C298 1.328 . S
N302 C300 1.350 . S
H303 C298 0.930 . S
H304 C299 0.930 . S
C305 O306 1.224 . S
C305 O324 1.247 . S
O306 C305 1.224 . S
N307 Co297 2.128 . S
N307 C308 1.355 . S
N307 C310 1.311 . S
C308 N307 1.355 . S
C308 C309 1.363 . S
C308 H320 0.929 . S
C309 C308 1.363 . S
C309 N311 1.375 . S
C309 H327 0.931 . S
C310 N307 1.311 . S
C310 N311 1.347 . S
C310 H321 0.929 . S
N311 C309 1.375 . S
N311 C310 1.347 . S
C312 C315 1.365 . S
C312 N317 1.328 . S
C312 H318 0.929 . S
C313 C314 1.362 . S
C313 C316 1.378 . S
C313 H328 0.929 . S
C314 C313 1.362 . S
C314 C315 1.366 . S
C315 C312 1.365 . S
C315 C314 1.366 . S
C315 H329 0.930 . S
C316 C313 1.378 . S
C316 N317 1.315 . S
C316 H319 0.930 . S
N317 Co297 2.194 . S
N317 C312 1.328 . S
N317 C316 1.315 . S
H318 C312 0.929 . S
H319 C316 0.930 . S
H320 C308 0.929 . S
H321 C310 0.929 . S
O322 Co297 2.351 . S
O322 C325 1.244 . S
O323 Co297 2.155 . S
O323 C325 1.240 . S
O324 Co297 2.096 . S
O324 C305 1.247 . S
C325 O322 1.244 . S
C325 O323 1.240 . S
H326 C300 0.931 . S
H327 C309 0.931 . S
H328 C313 0.929 . S
H329 C315 0.930 . S
Co330 N334 2.148 . S
Co330 N340 2.128 . S
Co330 N350 2.194 . S
Co330 O355 2.351 . S
Co330 O356 2.155 . S
Co330 O357 2.096 . S
C331 N334 1.301 . S
C331 N335 1.328 . S
C331 H336 0.930 . S
C332 C333 1.333 . S
C332 N334 1.317 . S
C332 H337 0.930 . S
C333 C332 1.333 . S
C333 N335 1.350 . S
C333 H359 0.931 . S
N334 Co330 2.148 . S
N334 C331 1.301 . S
N334 C332 1.317 . S
N335 C331 1.328 . S
N335 C333 1.350 . S
H336 C331 0.930 . S
H337 C332 0.930 . S
C338 O339 1.224 . S
C338 O357 1.247 . S
O339 C338 1.224 . S
N340 Co330 2.128 . S
N340 C341 1.355 . S
N340 C343 1.311 . S
C341 N340 1.355 . S
C341 C342 1.363 . S
C341 H353 0.929 . S
C342 C341 1.363 . S
C342 N344 1.375 . S
C342 H360 0.931 . S
C343 N340 1.311 . S
C343 N344 1.347 . S
C343 H354 0.929 . S
N344 C342 1.375 . S
N344 C343 1.347 . S
C345 C348 1.365 . S
C345 N350 1.328 . S
C345 H351 0.929 . S
C346 C347 1.362 . S
C346 C349 1.378 . S
C346 H361 0.929 . S
C347 C346 1.362 . S
C347 C348 1.366 . S
C348 C345 1.365 . S
C348 C347 1.366 . S
C348 H362 0.930 . S
C349 C346 1.378 . S
C349 N350 1.315 . S
C349 H352 0.930 . S
N350 Co330 2.194 . S
N350 C345 1.328 . S
N350 C349 1.315 . S
H351 C345 0.929 . S
H352 C349 0.930 . S
H353 C341 0.929 . S
H354 C343 0.929 . S
O355 Co330 2.351 . S
O355 C358 1.244 . S
O356 Co330 2.155 . S
O356 C358 1.240 . S
O357 Co330 2.096 . S
O357 C338 1.247 . S
C358 O355 1.244 . S
C358 O356 1.240 . S
H359 C333 0.931 . S
H360 C342 0.931 . S
H361 C346 0.929 . S
H362 C348 0.930 . S
Co363 N367 2.148 . S
Co363 N373 2.128 . S
Co363 N383 2.194 . S
Co363 O388 2.351 . S
Co363 O389 2.155 . S
Co363 O390 2.096 . S
C364 N367 1.301 . S
C364 N368 1.328 . S
C364 H369 0.930 . S
C365 C366 1.333 . S
C365 N367 1.317 . S
C365 H370 0.930 . S
C366 C365 1.333 . S
C366 N368 1.350 . S
C366 H392 0.931 . S
N367 Co363 2.148 . S
N367 C364 1.301 . S
N367 C365 1.317 . S
N368 C364 1.328 . S
N368 C366 1.350 . S
H369 C364 0.930 . S
H370 C365 0.930 . S
C371 O372 1.224 . S
C371 O390 1.247 . S
O372 C371 1.224 . S
N373 Co363 2.128 . S
N373 C374 1.355 . S
N373 C376 1.311 . S
C374 N373 1.355 . S
C374 C375 1.363 . S
C374 H386 0.929 . S
C375 C374 1.363 . S
C375 N377 1.375 . S
C375 H393 0.931 . S
C376 N373 1.311 . S
C376 N377 1.347 . S
C376 H387 0.929 . S
N377 C375 1.375 . S
N377 C376 1.347 . S
C378 C381 1.365 . S
C378 N383 1.328 . S
C378 H384 0.929 . S
C379 C380 1.362 . S
C379 C382 1.378 . S
C379 H394 0.929 . S
C380 C379 1.362 . S
C380 C381 1.366 . S
C381 C378 1.365 . S
C381 C380 1.366 . S
C381 H395 0.930 . S
C382 C379 1.378 . S
C382 N383 1.315 . S
C382 H385 0.930 . S
N383 Co363 2.194 . S
N383 C378 1.328 . S
N383 C382 1.315 . S
H384 C378 0.929 . S
H385 C382 0.930 . S
H386 C374 0.929 . S
H387 C376 0.929 . S
O388 Co363 2.351 . S
O388 C391 1.244 . S
O389 Co363 2.155 . S
O389 C391 1.240 . S
O390 Co363 2.096 . S
O390 C371 1.247 . S
C391 O388 1.244 . S
C391 O389 1.240 . S
H392 C366 0.931 . S
H393 C375 0.931 . S
H394 C379 0.929 . S
H395 C381 0.930 . S
Co396 N400 2.148 . S
Co396 N406 2.128 . S
Co396 N416 2.194 . S
Co396 O421 2.351 . S
Co396 O422 2.155 . S
Co396 O423 2.096 . S
C397 N400 1.301 . S
C397 N401 1.328 . S
C397 H402 0.930 . S
C398 C399 1.333 . S
C398 N400 1.317 . S
C398 H403 0.930 . S
C399 C398 1.333 . S
C399 N401 1.350 . S
C399 H425 0.931 . S
N400 Co396 2.148 . S
N400 C397 1.301 . S
N400 C398 1.317 . S
N401 C397 1.328 . S
N401 C399 1.350 . S
H402 C397 0.930 . S
H403 C398 0.930 . S
C404 O405 1.224 . S
C404 O423 1.247 . S
O405 C404 1.224 . S
N406 Co396 2.128 . S
N406 C407 1.355 . S
N406 C409 1.311 . S
C407 N406 1.355 . S
C407 C408 1.363 . S
C407 H419 0.929 . S
C408 C407 1.363 . S
C408 N410 1.375 . S
C408 H426 0.931 . S
C409 N406 1.311 . S
C409 N410 1.347 . S
C409 H420 0.929 . S
N410 C408 1.375 . S
N410 C409 1.347 . S
C411 C414 1.365 . S
C411 N416 1.328 . S
C411 H417 0.929 . S
C412 C413 1.362 . S
C412 C415 1.378 . S
C412 H427 0.929 . S
C413 C412 1.362 . S
C413 C414 1.366 . S
C414 C411 1.365 . S
C414 C413 1.366 . S
C414 H428 0.930 . S
C415 C412 1.378 . S
C415 N416 1.315 . S
C415 H418 0.930 . S
N416 Co396 2.194 . S
N416 C411 1.328 . S
N416 C415 1.315 . S
H417 C411 0.929 . S
H418 C415 0.930 . S
H419 C407 0.929 . S
H420 C409 0.929 . S
O421 Co396 2.351 . S
O421 C424 1.244 . S
O422 Co396 2.155 . S
O422 C424 1.240 . S
O423 Co396 2.096 . S
O423 C404 1.247 . S
C424 O421 1.244 . S
C424 O422 1.240 . S
H425 C399 0.931 . S
H426 C408 0.931 . S
H427 C412 0.929 . S
H428 C414 0.930 . S
Co429 N433 2.148 . S
Co429 N439 2.128 . S
Co429 N449 2.194 . S
Co429 O454 2.351 . S
Co429 O455 2.155 . S
Co429 O456 2.096 . S
C430 N433 1.301 . S
C430 N434 1.328 . S
C430 H435 0.930 . S
C431 C432 1.333 . S
C431 N433 1.317 . S
C431 H436 0.930 . S
C432 C431 1.333 . S
C432 N434 1.350 . S
C432 H458 0.931 . S
N433 Co429 2.148 . S
N433 C430 1.301 . S
N433 C431 1.317 . S
N434 C430 1.328 . S
N434 C432 1.350 . S
H435 C430 0.930 . S
H436 C431 0.930 . S
C437 O438 1.224 . S
C437 O456 1.247 . S
O438 C437 1.224 . S
N439 Co429 2.128 . S
N439 C440 1.355 . S
N439 C442 1.311 . S
C440 N439 1.355 . S
C440 C441 1.363 . S
C440 H452 0.929 . S
C441 C440 1.363 . S
C441 N443 1.375 . S
C441 H459 0.931 . S
C442 N439 1.311 . S
C442 N443 1.347 . S
C442 H453 0.929 . S
N443 C441 1.375 . S
N443 C442 1.347 . S
C444 C447 1.365 . S
C444 N449 1.328 . S
C444 H450 0.929 . S
C445 C446 1.362 . S
C445 C448 1.378 . S
C445 H460 0.929 . S
C446 C445 1.362 . S
C446 C447 1.366 . S
C447 C444 1.365 . S
C447 C446 1.366 . S
C447 H461 0.930 . S
C448 C445 1.378 . S
C448 N449 1.315 . S
C448 H451 0.930 . S
N449 Co429 2.194 . S
N449 C444 1.328 . S
N449 C448 1.315 . S
H450 C444 0.929 . S
H451 C448 0.930 . S
H452 C440 0.929 . S
H453 C442 0.929 . S
O454 Co429 2.351 . S
O454 C457 1.244 . S
O455 Co429 2.155 . S
O455 C457 1.240 . S
O456 Co429 2.096 . S
O456 C437 1.247 . S
C457 O454 1.244 . S
C457 O455 1.240 . S
H458 C432 0.931 . S
H459 C441 0.931 . S
H460 C445 0.929 . S
H461 C447 0.930 . S
Co462 N466 2.148 . S
Co462 N472 2.128 . S
Co462 N482 2.194 . S
Co462 O487 2.351 . S
Co462 O488 2.155 . S
Co462 O489 2.096 . S
C463 N466 1.301 . S
C463 N467 1.328 . S
C463 H468 0.930 . S
C464 C465 1.333 . S
C464 N466 1.317 . S
C464 H469 0.930 . S
C465 C464 1.333 . S
C465 N467 1.350 . S
C465 H491 0.931 . S
N466 Co462 2.148 . S
N466 C463 1.301 . S
N466 C464 1.317 . S
N467 C463 1.328 . S
N467 C465 1.350 . S
H468 C463 0.930 . S
H469 C464 0.930 . S
C470 O471 1.224 . S
C470 O489 1.247 . S
O471 C470 1.224 . S
N472 Co462 2.128 . S
N472 C473 1.355 . S
N472 C475 1.311 . S
C473 N472 1.355 . S
C473 C474 1.363 . S
C473 H485 0.929 . S
C474 C473 1.363 . S
C474 N476 1.375 . S
C474 H492 0.931 . S
C475 N472 1.311 . S
C475 N476 1.347 . S
C475 H486 0.929 . S
N476 C474 1.375 . S
N476 C475 1.347 . S
C477 C480 1.365 . S
C477 N482 1.328 . S
C477 H483 0.929 . S
C478 C479 1.362 . S
C478 C481 1.378 . S
C478 H493 0.929 . S
C479 C478 1.362 . S
C479 C480 1.366 . S
C480 C477 1.365 . S
C480 C479 1.366 . S
C480 H494 0.930 . S
C481 C478 1.378 . S
C481 N482 1.315 . S
C481 H484 0.930 . S
N482 Co462 2.194 . S
N482 C477 1.328 . S
N482 C481 1.315 . S
H483 C477 0.929 . S
H484 C481 0.930 . S
H485 C473 0.929 . S
H486 C475 0.929 . S
O487 Co462 2.351 . S
O487 C490 1.244 . S
O488 Co462 2.155 . S
O488 C490 1.240 . S
O489 Co462 2.096 . S
O489 C470 1.247 . S
C490 O487 1.244 . S
C490 O488 1.240 . S
H491 C465 0.931 . S
H492 C474 0.931 . S
H493 C478 0.929 . S
H494 C480 0.930 . S
Co495 N499 2.148 . S
Co495 N505 2.128 . S
Co495 N515 2.194 . S
Co495 O520 2.351 . S
Co495 O521 2.155 . S
Co495 O522 2.096 . S
C496 N499 1.301 . S
C496 N500 1.328 . S
C496 H501 0.930 . S
C497 C498 1.333 . S
C497 N499 1.317 . S
C497 H502 0.930 . S
C498 C497 1.333 . S
C498 N500 1.350 . S
C498 H524 0.931 . S
N499 Co495 2.148 . S
N499 C496 1.301 . S
N499 C497 1.317 . S
N500 C496 1.328 . S
N500 C498 1.350 . S
H501 C496 0.930 . S
H502 C497 0.930 . S
C503 O504 1.224 . S
C503 O522 1.247 . S
O504 C503 1.224 . S
N505 Co495 2.128 . S
N505 C506 1.355 . S
N505 C508 1.311 . S
C506 N505 1.355 . S
C506 C507 1.363 . S
C506 H518 0.929 . S
C507 C506 1.363 . S
C507 N509 1.375 . S
C507 H525 0.931 . S
C508 N505 1.311 . S
C508 N509 1.347 . S
C508 H519 0.929 . S
N509 C507 1.375 . S
N509 C508 1.347 . S
C510 C513 1.365 . S
C510 N515 1.328 . S
C510 H516 0.929 . S
C511 C512 1.362 . S
C511 C514 1.378 . S
C511 H526 0.929 . S
C512 C511 1.362 . S
C512 C513 1.366 . S
C513 C510 1.365 . S
C513 C512 1.366 . S
C513 H527 0.930 . S
C514 C511 1.378 . S
C514 N515 1.315 . S
C514 H517 0.930 . S
N515 Co495 2.194 . S
N515 C510 1.328 . S
N515 C514 1.315 . S
H516 C510 0.929 . S
H517 C514 0.930 . S
H518 C506 0.929 . S
H519 C508 0.929 . S
O520 Co495 2.351 . S
O520 C523 1.244 . S
O521 Co495 2.155 . S
O521 C523 1.240 . S
O522 Co495 2.096 . S
O522 C503 1.247 . S
C523 O520 1.244 . S
C523 O521 1.240 . S
H524 C498 0.931 . S
H525 C507 0.931 . S
H526 C511 0.929 . S
H527 C513 0.930 . S
Co528 N532 2.148 . S
Co528 N538 2.128 . S
Co528 N548 2.194 . S
Co528 O553 2.351 . S
Co528 O554 2.155 . S
Co528 O555 2.096 . S
C529 N532 1.301 . S
C529 N533 1.328 . S
C529 H534 0.930 . S
C530 C531 1.333 . S
C530 N532 1.317 . S
C530 H535 0.930 . S
C531 C530 1.333 . S
C531 N533 1.350 . S
C531 H557 0.931 . S
N532 Co528 2.148 . S
N532 C529 1.301 . S
N532 C530 1.317 . S
N533 C529 1.328 . S
N533 C531 1.350 . S
H534 C529 0.930 . S
H535 C530 0.930 . S
C536 O537 1.224 . S
C536 O555 1.247 . S
O537 C536 1.224 . S
N538 Co528 2.128 . S
N538 C539 1.355 . S
N538 C541 1.311 . S
C539 N538 1.355 . S
C539 C540 1.363 . S
C539 H551 0.929 . S
C540 C539 1.363 . S
C540 N542 1.375 . S
C540 H558 0.931 . S
C541 N538 1.311 . S
C541 N542 1.347 . S
C541 H552 0.929 . S
N542 C540 1.375 . S
N542 C541 1.347 . S
C543 C546 1.365 . S
C543 N548 1.328 . S
C543 H549 0.929 . S
C544 C545 1.362 . S
C544 C547 1.378 . S
C544 H559 0.929 . S
C545 C544 1.362 . S
C545 C546 1.366 . S
C546 C543 1.365 . S
C546 C545 1.366 . S
C546 H560 0.930 . S
C547 C544 1.378 . S
C547 N548 1.315 . S
C547 H550 0.930 . S
N548 Co528 2.194 . S
N548 C543 1.328 . S
N548 C547 1.315 . S
H549 C543 0.929 . S
H550 C547 0.930 . S
H551 C539 0.929 . S
H552 C541 0.929 . S
O553 Co528 2.351 . S
O553 C556 1.244 . S
O554 Co528 2.155 . S
O554 C556 1.240 . S
O555 Co528 2.096 . S
O555 C536 1.247 . S
C556 O553 1.244 . S
C556 O554 1.240 . S
H557 C531 0.931 . S
H558 C540 0.931 . S
H559 C544 0.929 . S
H560 C546 0.930 . S
Co561 N565 2.148 . S
Co561 N571 2.128 . S
Co561 N581 2.194 . S
Co561 O586 2.351 . S
Co561 O587 2.155 . S
Co561 O588 2.096 . S
C562 N565 1.301 . S
C562 N566 1.328 . S
C562 H567 0.930 . S
C563 C564 1.333 . S
C563 N565 1.317 . S
C563 H568 0.930 . S
C564 C563 1.333 . S
C564 N566 1.350 . S
C564 H590 0.931 . S
N565 Co561 2.148 . S
N565 C562 1.301 . S
N565 C563 1.317 . S
N566 C562 1.328 . S
N566 C564 1.350 . S
H567 C562 0.930 . S
H568 C563 0.930 . S
C569 O570 1.224 . S
C569 O588 1.247 . S
O570 C569 1.224 . S
N571 Co561 2.128 . S
N571 C572 1.355 . S
N571 C574 1.311 . S
C572 N571 1.355 . S
C572 C573 1.363 . S
C572 H584 0.929 . S
C573 C572 1.363 . S
C573 N575 1.375 . S
C573 H591 0.931 . S
C574 N571 1.311 . S
C574 N575 1.347 . S
C574 H585 0.929 . S
N575 C573 1.375 . S
N575 C574 1.347 . S
C576 C579 1.365 . S
C576 N581 1.328 . S
C576 H582 0.929 . S
C577 C578 1.362 . S
C577 C580 1.378 . S
C577 H592 0.929 . S
C578 C577 1.362 . S
C578 C579 1.366 . S
C579 C576 1.365 . S
C579 C578 1.366 . S
C579 H593 0.930 . S
C580 C577 1.378 . S
C580 N581 1.315 . S
C580 H583 0.930 . S
N581 Co561 2.194 . S
N581 C576 1.328 . S
N581 C580 1.315 . S
H582 C576 0.929 . S
H583 C580 0.930 . S
H584 C572 0.929 . S
H585 C574 0.929 . S
O586 Co561 2.351 . S
O586 C589 1.244 . S
O587 Co561 2.155 . S
O587 C589 1.240 . S
O588 Co561 2.096 . S
O588 C569 1.247 . S
C589 O586 1.244 . S
C589 O587 1.240 . S
H590 C564 0.931 . S
H591 C573 0.931 . S
H592 C577 0.929 . S
H593 C579 0.930 . S
Co594 N598 2.148 . S
Co594 N604 2.128 . S
Co594 N614 2.194 . S
Co594 O619 2.351 . S
Co594 O620 2.155 . S
Co594 O621 2.096 . S
C595 N598 1.301 . S
C595 N599 1.328 . S
C595 H600 0.930 . S
C596 C597 1.333 . S
C596 N598 1.317 . S
C596 H601 0.930 . S
C597 C596 1.333 . S
C597 N599 1.350 . S
C597 H623 0.931 . S
N598 Co594 2.148 . S
N598 C595 1.301 . S
N598 C596 1.317 . S
N599 C595 1.328 . S
N599 C597 1.350 . S
H600 C595 0.930 . S
H601 C596 0.930 . S
C602 O603 1.224 . S
C602 O621 1.247 . S
O603 C602 1.224 . S
N604 Co594 2.128 . S
N604 C605 1.355 . S
N604 C607 1.311 . S
C605 N604 1.355 . S
C605 C606 1.363 . S
C605 H617 0.929 . S
C606 C605 1.363 . S
C606 N608 1.375 . S
C606 H624 0.931 . S
C607 N604 1.311 . S
C607 N608 1.347 . S
C607 H618 0.929 . S
N608 C606 1.375 . S
N608 C607 1.347 . S
C609 C612 1.365 . S
C609 N614 1.328 . S
C609 H615 0.929 . S
C610 C611 1.362 . S
C610 C613 1.378 . S
C610 H625 0.929 . S
C611 C610 1.362 . S
C611 C612 1.366 . S
C612 C609 1.365 . S
C612 C611 1.366 . S
C612 H626 0.930 . S
C613 C610 1.378 . S
C613 N614 1.315 . S
C613 H616 0.930 . S
N614 Co594 2.194 . S
N614 C609 1.328 . S
N614 C613 1.315 . S
H615 C609 0.929 . S
H616 C613 0.930 . S
H617 C605 0.929 . S
H618 C607 0.929 . S
O619 Co594 2.351 . S
O619 C622 1.244 . S
O620 Co594 2.155 . S
O620 C622 1.240 . S
O621 Co594 2.096 . S
O621 C602 1.247 . S
C622 O619 1.244 . S
C622 O620 1.240 . S
H623 C597 0.931 . S
H624 C606 0.931 . S
H625 C610 0.929 . S
H626 C612 0.930 . S
Co627 N631 2.148 . S
Co627 N637 2.128 . S
Co627 N647 2.194 . S
Co627 O652 2.351 . S
Co627 O653 2.155 . S
Co627 O654 2.096 . S
C628 N631 1.301 . S
C628 N632 1.328 . S
C628 H633 0.930 . S
C629 C630 1.333 . S
C629 N631 1.317 . S
C629 H634 0.930 . S
C630 C629 1.333 . S
C630 N632 1.350 . S
C630 H656 0.931 . S
N631 Co627 2.148 . S
N631 C628 1.301 . S
N631 C629 1.317 . S
N632 C628 1.328 . S
N632 C630 1.350 . S
H633 C628 0.930 . S
H634 C629 0.930 . S
C635 O636 1.224 . S
C635 O654 1.247 . S
O636 C635 1.224 . S
N637 Co627 2.128 . S
N637 C638 1.355 . S
N637 C640 1.311 . S
C638 N637 1.355 . S
C638 C639 1.363 . S
C638 H650 0.929 . S
C639 C638 1.363 . S
C639 N641 1.375 . S
C639 H657 0.931 . S
C640 N637 1.311 . S
C640 N641 1.347 . S
C640 H651 0.929 . S
N641 C639 1.375 . S
N641 C640 1.347 . S
C642 C645 1.365 . S
C642 N647 1.328 . S
C642 H648 0.929 . S
C643 C644 1.362 . S
C643 C646 1.378 . S
C643 H658 0.929 . S
C644 C643 1.362 . S
C644 C645 1.366 . S
C645 C642 1.365 . S
C645 C644 1.366 . S
C645 H659 0.930 . S
C646 C643 1.378 . S
C646 N647 1.315 . S
C646 H649 0.930 . S
N647 Co627 2.194 . S
N647 C642 1.328 . S
N647 C646 1.315 . S
H648 C642 0.929 . S
H649 C646 0.930 . S
H650 C638 0.929 . S
H651 C640 0.929 . S
O652 Co627 2.351 . S
O652 C655 1.244 . S
O653 Co627 2.155 . S
O653 C655 1.240 . S
O654 Co627 2.096 . S
O654 C635 1.247 . S
C655 O652 1.244 . S
C655 O653 1.240 . S
H656 C630 0.931 . S
H657 C639 0.931 . S
H658 C643 0.929 . S
H659 C645 0.930 . S
Co660 N664 2.148 . S
Co660 N670 2.128 . S
Co660 N680 2.194 . S
Co660 O685 2.351 . S
Co660 O686 2.155 . S
Co660 O687 2.096 . S
C661 N664 1.301 . S
C661 N665 1.328 . S
C661 H666 0.930 . S
C662 C663 1.333 . S
C662 N664 1.317 . S
C662 H667 0.930 . S
C663 C662 1.333 . S
C663 N665 1.350 . S
C663 H689 0.931 . S
N664 Co660 2.148 . S
N664 C661 1.301 . S
N664 C662 1.317 . S
N665 C661 1.328 . S
N665 C663 1.350 . S
H666 C661 0.930 . S
H667 C662 0.930 . S
C668 O669 1.224 . S
C668 O687 1.247 . S
O669 C668 1.224 . S
N670 Co660 2.128 . S
N670 C671 1.355 . S
N670 C673 1.311 . S
C671 N670 1.355 . S
C671 C672 1.363 . S
C671 H683 0.929 . S
C672 C671 1.363 . S
C672 N674 1.375 . S
C672 H690 0.931 . S
C673 N670 1.311 . S
C673 N674 1.347 . S
C673 H684 0.929 . S
N674 C672 1.375 . S
N674 C673 1.347 . S
C675 C678 1.365 . S
C675 N680 1.328 . S
C675 H681 0.929 . S
C676 C677 1.362 . S
C676 C679 1.378 . S
C676 H691 0.929 . S
C677 C676 1.362 . S
C677 C678 1.366 . S
C678 C675 1.365 . S
C678 C677 1.366 . S
C678 H692 0.930 . S
C679 C676 1.378 . S
C679 N680 1.315 . S
C679 H682 0.930 . S
N680 Co660 2.194 . S
N680 C675 1.328 . S
N680 C679 1.315 . S
H681 C675 0.929 . S
H682 C679 0.930 . S
H683 C671 0.929 . S
H684 C673 0.929 . S
O685 Co660 2.351 . S
O685 C688 1.244 . S
O686 Co660 2.155 . S
O686 C688 1.240 . S
O687 Co660 2.096 . S
O687 C668 1.247 . S
C688 O685 1.244 . S
C688 O686 1.240 . S
H689 C663 0.931 . S
H690 C672 0.931 . S
H691 C676 0.929 . S
H692 C678 0.930 . S
Co693 N697 2.148 . S
Co693 N703 2.128 . S
Co693 N713 2.194 . S
Co693 O718 2.351 . S
Co693 O719 2.155 . S
Co693 O720 2.096 . S
C694 N697 1.301 . S
C694 N698 1.328 . S
C694 H699 0.930 . S
C695 C696 1.333 . S
C695 N697 1.317 . S
C695 H700 0.930 . S
C696 C695 1.333 . S
C696 N698 1.350 . S
C696 H722 0.931 . S
N697 Co693 2.148 . S
N697 C694 1.301 . S
N697 C695 1.317 . S
N698 C694 1.328 . S
N698 C696 1.350 . S
H699 C694 0.930 . S
H700 C695 0.930 . S
C701 O702 1.224 . S
C701 O720 1.247 . S
O702 C701 1.224 . S
N703 Co693 2.128 . S
N703 C704 1.355 . S
N703 C706 1.311 . S
C704 N703 1.355 . S
C704 C705 1.363 . S
C704 H716 0.929 . S
C705 C704 1.363 . S
C705 N707 1.375 . S
C705 H723 0.931 . S
C706 N703 1.311 . S
C706 N707 1.347 . S
C706 H717 0.929 . S
N707 C705 1.375 . S
N707 C706 1.347 . S
C708 C711 1.365 . S
C708 N713 1.328 . S
C708 H714 0.929 . S
C709 C710 1.362 . S
C709 C712 1.378 . S
C709 H724 0.929 . S
C710 C709 1.362 . S
C710 C711 1.366 . S
C711 C708 1.365 . S
C711 C710 1.366 . S
C711 H725 0.930 . S
C712 C709 1.378 . S
C712 N713 1.315 . S
C712 H715 0.930 . S
N713 Co693 2.194 . S
N713 C708 1.328 . S
N713 C712 1.315 . S
H714 C708 0.929 . S
H715 C712 0.930 . S
H716 C704 0.929 . S
H717 C706 0.929 . S
O718 Co693 2.351 . S
O718 C721 1.244 . S
O719 Co693 2.155 . S
O719 C721 1.240 . S
O720 Co693 2.096 . S
O720 C701 1.247 . S
C721 O718 1.244 . S
C721 O719 1.240 . S
H722 C696 0.931 . S
H723 C705 0.931 . S
H724 C709 0.929 . S
H725 C711 0.930 . S
Co726 N730 2.148 . S
Co726 N736 2.128 . S
Co726 N746 2.194 . S
Co726 O751 2.351 . S
Co726 O752 2.155 . S
Co726 O753 2.096 . S
C727 N730 1.301 . S
C727 N731 1.328 . S
C727 H732 0.930 . S
C728 C729 1.333 . S
C728 N730 1.317 . S
C728 H733 0.930 . S
C729 C728 1.333 . S
C729 N731 1.350 . S
C729 H755 0.931 . S
N730 Co726 2.148 . S
N730 C727 1.301 . S
N730 C728 1.317 . S
N731 C727 1.328 . S
N731 C729 1.350 . S
H732 C727 0.930 . S
H733 C728 0.930 . S
C734 O735 1.224 . S
C734 O753 1.247 . S
O735 C734 1.224 . S
N736 Co726 2.128 . S
N736 C737 1.355 . S
N736 C739 1.311 . S
C737 N736 1.355 . S
C737 C738 1.363 . S
C737 H749 0.929 . S
C738 C737 1.363 . S
C738 N740 1.375 . S
C738 H756 0.931 . S
C739 N736 1.311 . S
C739 N740 1.347 . S
C739 H750 0.929 . S
N740 C738 1.375 . S
N740 C739 1.347 . S
C741 C744 1.365 . S
C741 N746 1.328 . S
C741 H747 0.929 . S
C742 C743 1.362 . S
C742 C745 1.378 . S
C742 H757 0.929 . S
C743 C742 1.362 . S
C743 C744 1.366 . S
C744 C741 1.365 . S
C744 C743 1.366 . S
C744 H758 0.930 . S
C745 C742 1.378 . S
C745 N746 1.315 . S
C745 H748 0.930 . S
N746 Co726 2.194 . S
N746 C741 1.328 . S
N746 C745 1.315 . S
H747 C741 0.929 . S
H748 C745 0.930 . S
H749 C737 0.929 . S
H750 C739 0.929 . S
O751 Co726 2.351 . S
O751 C754 1.244 . S
O752 Co726 2.155 . S
O752 C754 1.240 . S
O753 Co726 2.096 . S
O753 C734 1.247 . S
C754 O751 1.244 . S
C754 O752 1.240 . S
H755 C729 0.931 . S
H756 C738 0.931 . S
H757 C742 0.929 . S
H758 C744 0.930 . S
Co759 N763 2.148 . S
Co759 N769 2.128 . S
Co759 N779 2.194 . S
Co759 O784 2.351 . S
Co759 O785 2.155 . S
Co759 O786 2.096 . S
C760 N763 1.301 . S
C760 N764 1.328 . S
C760 H765 0.930 . S
C761 C762 1.333 . S
C761 N763 1.317 . S
C761 H766 0.930 . S
C762 C761 1.333 . S
C762 N764 1.350 . S
C762 H788 0.931 . S
N763 Co759 2.148 . S
N763 C760 1.301 . S
N763 C761 1.317 . S
N764 C760 1.328 . S
N764 C762 1.350 . S
H765 C760 0.930 . S
H766 C761 0.930 . S
C767 O768 1.224 . S
C767 O786 1.247 . S
O768 C767 1.224 . S
N769 Co759 2.128 . S
N769 C770 1.355 . S
N769 C772 1.311 . S
C770 N769 1.355 . S
C770 C771 1.363 . S
C770 H782 0.929 . S
C771 C770 1.363 . S
C771 N773 1.375 . S
C771 H789 0.931 . S
C772 N769 1.311 . S
C772 N773 1.347 . S
C772 H783 0.929 . S
N773 C771 1.375 . S
N773 C772 1.347 . S
C774 C777 1.365 . S
C774 N779 1.328 . S
C774 H780 0.929 . S
C775 C776 1.362 . S
C775 C778 1.378 . S
C775 H790 0.929 . S
C776 C775 1.362 . S
C776 C777 1.366 . S
C777 C774 1.365 . S
C777 C776 1.366 . S
C777 H791 0.930 . S
C778 C775 1.378 . S
C778 N779 1.315 . S
C778 H781 0.930 . S
N779 Co759 2.194 . S
N779 C774 1.328 . S
N779 C778 1.315 . S
H780 C774 0.929 . S
H781 C778 0.930 . S
H782 C770 0.929 . S
H783 C772 0.929 . S
O784 Co759 2.351 . S
O784 C787 1.244 . S
O785 Co759 2.155 . S
O785 C787 1.240 . S
O786 Co759 2.096 . S
O786 C767 1.247 . S
C787 O784 1.244 . S
C787 O785 1.240 . S
H788 C762 0.931 . S
H789 C771 0.931 . S
H790 C775 0.929 . S
H791 C777 0.930 . S
Co792 N796 2.148 . S
Co792 N802 2.128 . S
Co792 N812 2.194 . S
Co792 O817 2.351 . S
Co792 O818 2.155 . S
Co792 O819 2.096 . S
C793 N796 1.301 . S
C793 N797 1.328 . S
C793 H798 0.930 . S
C794 C795 1.333 . S
C794 N796 1.317 . S
C794 H799 0.930 . S
C795 C794 1.333 . S
C795 N797 1.350 . S
C795 H821 0.931 . S
N796 Co792 2.148 . S
N796 C793 1.301 . S
N796 C794 1.317 . S
N797 C793 1.328 . S
N797 C795 1.350 . S
H798 C793 0.930 . S
H799 C794 0.930 . S
C800 O801 1.224 . S
C800 O819 1.247 . S
O801 C800 1.224 . S
N802 Co792 2.128 . S
N802 C803 1.355 . S
N802 C805 1.311 . S
C803 N802 1.355 . S
C803 C804 1.363 . S
C803 H815 0.929 . S
C804 C803 1.363 . S
C804 N806 1.375 . S
C804 H822 0.931 . S
C805 N802 1.311 . S
C805 N806 1.347 . S
C805 H816 0.929 . S
N806 C804 1.375 . S
N806 C805 1.347 . S
C807 C810 1.365 . S
C807 N812 1.328 . S
C807 H813 0.929 . S
C808 C809 1.362 . S
C808 C811 1.378 . S
C808 H823 0.929 . S
C809 C808 1.362 . S
C809 C810 1.366 . S
C810 C807 1.365 . S
C810 C809 1.366 . S
C810 H824 0.930 . S
C811 C808 1.378 . S
C811 N812 1.315 . S
C811 H814 0.930 . S
N812 Co792 2.194 . S
N812 C807 1.328 . S
N812 C811 1.315 . S
H813 C807 0.929 . S
H814 C811 0.930 . S
H815 C803 0.929 . S
H816 C805 0.929 . S
O817 Co792 2.351 . S
O817 C820 1.244 . S
O818 Co792 2.155 . S
O818 C820 1.240 . S
O819 Co792 2.096 . S
O819 C800 1.247 . S
C820 O817 1.244 . S
C820 O818 1.240 . S
H821 C795 0.931 . S
H822 C804 0.931 . S
H823 C808 0.929 . S
H824 C810 0.930 . S
Co825 N829 2.148 . S
Co825 N835 2.128 . S
Co825 N845 2.194 . S
Co825 O850 2.351 . S
Co825 O851 2.155 . S
Co825 O852 2.096 . S
C826 N829 1.301 . S
C826 N830 1.328 . S
C826 H831 0.930 . S
C827 C828 1.333 . S
C827 N829 1.317 . S
C827 H832 0.930 . S
C828 C827 1.333 . S
C828 N830 1.350 . S
C828 H854 0.931 . S
N829 Co825 2.148 . S
N829 C826 1.301 . S
N829 C827 1.317 . S
N830 C826 1.328 . S
N830 C828 1.350 . S
H831 C826 0.930 . S
H832 C827 0.930 . S
C833 O834 1.224 . S
C833 O852 1.247 . S
O834 C833 1.224 . S
N835 Co825 2.128 . S
N835 C836 1.355 . S
N835 C838 1.311 . S
C836 N835 1.355 . S
C836 C837 1.363 . S
C836 H848 0.929 . S
C837 C836 1.363 . S
C837 N839 1.375 . S
C837 H855 0.931 . S
C838 N835 1.311 . S
C838 N839 1.347 . S
C838 H849 0.929 . S
N839 C837 1.375 . S
N839 C838 1.347 . S
C840 C843 1.365 . S
C840 N845 1.328 . S
C840 H846 0.929 . S
C841 C842 1.362 . S
C841 C844 1.378 . S
C841 H856 0.929 . S
C842 C841 1.362 . S
C842 C843 1.366 . S
C843 C840 1.365 . S
C843 C842 1.366 . S
C843 H857 0.930 . S
C844 C841 1.378 . S
C844 N845 1.315 . S
C844 H847 0.930 . S
N845 Co825 2.194 . S
N845 C840 1.328 . S
N845 C844 1.315 . S
H846 C840 0.929 . S
H847 C844 0.930 . S
H848 C836 0.929 . S
H849 C838 0.929 . S
O850 Co825 2.351 . S
O850 C853 1.244 . S
O851 Co825 2.155 . S
O851 C853 1.240 . S
O852 Co825 2.096 . S
O852 C833 1.247 . S
C853 O850 1.244 . S
C853 O851 1.240 . S
H854 C828 0.931 . S
H855 C837 0.931 . S
H856 C841 0.929 . S
H857 C843 0.930 . S
Co858 N862 2.148 . S
Co858 N868 2.128 . S
Co858 N878 2.194 . S
Co858 O883 2.351 . S
Co858 O884 2.155 . S
Co858 O885 2.096 . S
C859 N862 1.301 . S
C859 N863 1.328 . S
C859 H864 0.930 . S
C860 C861 1.333 . S
C860 N862 1.317 . S
C860 H865 0.930 . S
C861 C860 1.333 . S
C861 N863 1.350 . S
C861 H887 0.931 . S
N862 Co858 2.148 . S
N862 C859 1.301 . S
N862 C860 1.317 . S
N863 C859 1.328 . S
N863 C861 1.350 . S
H864 C859 0.930 . S
H865 C860 0.930 . S
C866 O867 1.224 . S
C866 O885 1.247 . S
O867 C866 1.224 . S
N868 Co858 2.128 . S
N868 C869 1.355 . S
N868 C871 1.311 . S
C869 N868 1.355 . S
C869 C870 1.363 . S
C869 H881 0.929 . S
C870 C869 1.363 . S
C870 N872 1.375 . S
C870 H888 0.931 . S
C871 N868 1.311 . S
C871 N872 1.347 . S
C871 H882 0.929 . S
N872 C870 1.375 . S
N872 C871 1.347 . S
C873 C876 1.365 . S
C873 N878 1.328 . S
C873 H879 0.929 . S
C874 C875 1.362 . S
C874 C877 1.378 . S
C874 H889 0.929 . S
C875 C874 1.362 . S
C875 C876 1.366 . S
C876 C873 1.365 . S
C876 C875 1.366 . S
C876 H890 0.930 . S
C877 C874 1.378 . S
C877 N878 1.315 . S
C877 H880 0.930 . S
N878 Co858 2.194 . S
N878 C873 1.328 . S
N878 C877 1.315 . S
H879 C873 0.929 . S
H880 C877 0.930 . S
H881 C869 0.929 . S
H882 C871 0.929 . S
O883 Co858 2.351 . S
O883 C886 1.244 . S
O884 Co858 2.155 . S
O884 C886 1.240 . S
O885 Co858 2.096 . S
O885 C866 1.247 . S
C886 O883 1.244 . S
C886 O884 1.240 . S
H887 C861 0.931 . S
H888 C870 0.931 . S
H889 C874 0.929 . S
H890 C876 0.930 . S
Co891 N895 2.148 . S
Co891 N901 2.128 . S
Co891 N911 2.194 . S
Co891 O916 2.351 . S
Co891 O917 2.155 . S
Co891 O918 2.096 . S
C892 N895 1.301 . S
C892 N896 1.328 . S
C892 H897 0.930 . S
C893 C894 1.333 . S
C893 N895 1.317 . S
C893 H898 0.930 . S
C894 C893 1.333 . S
C894 N896 1.350 . S
C894 H920 0.931 . S
N895 Co891 2.148 . S
N895 C892 1.301 . S
N895 C893 1.317 . S
N896 C892 1.328 . S
N896 C894 1.350 . S
H897 C892 0.930 . S
H898 C893 0.930 . S
C899 O900 1.224 . S
C899 O918 1.247 . S
O900 C899 1.224 . S
N901 Co891 2.128 . S
N901 C902 1.355 . S
N901 C904 1.311 . S
C902 N901 1.355 . S
C902 C903 1.363 . S
C902 H914 0.929 . S
C903 C902 1.363 . S
C903 N905 1.375 . S
C903 H921 0.931 . S
C904 N901 1.311 . S
C904 N905 1.347 . S
C904 H915 0.929 . S
N905 C903 1.375 . S
N905 C904 1.347 . S
C906 C909 1.365 . S
C906 N911 1.328 . S
C906 H912 0.929 . S
C907 C908 1.362 . S
C907 C910 1.378 . S
C907 H922 0.929 . S
C908 C907 1.362 . S
C908 C909 1.366 . S
C909 C906 1.365 . S
C909 C908 1.366 . S
C909 H923 0.930 . S
C910 C907 1.378 . S
C910 N911 1.315 . S
C910 H913 0.930 . S
N911 Co891 2.194 . S
N911 C906 1.328 . S
N911 C910 1.315 . S
H912 C906 0.929 . S
H913 C910 0.930 . S
H914 C902 0.929 . S
H915 C904 0.929 . S
O916 Co891 2.351 . S
O916 C919 1.244 . S
O917 Co891 2.155 . S
O917 C919 1.240 . S
O918 Co891 2.096 . S
O918 C899 1.247 . S
C919 O916 1.244 . S
C919 O917 1.240 . S
H920 C894 0.931 . S
H921 C903 0.931 . S
H922 C907 0.929 . S
H923 C909 0.930 . S
Co924 N928 2.148 . S
Co924 N934 2.128 . S
Co924 N944 2.194 . S
Co924 O949 2.351 . S
Co924 O950 2.155 . S
Co924 O951 2.096 . S
C925 N928 1.301 . S
C925 N929 1.328 . S
C925 H930 0.930 . S
C926 C927 1.333 . S
C926 N928 1.317 . S
C926 H931 0.930 . S
C927 C926 1.333 . S
C927 N929 1.350 . S
C927 H953 0.931 . S
N928 Co924 2.148 . S
N928 C925 1.301 . S
N928 C926 1.317 . S
N929 C925 1.328 . S
N929 C927 1.350 . S
H930 C925 0.930 . S
H931 C926 0.930 . S
C932 O933 1.224 . S
C932 O951 1.247 . S
O933 C932 1.224 . S
N934 Co924 2.128 . S
N934 C935 1.355 . S
N934 C937 1.311 . S
C935 N934 1.355 . S
C935 C936 1.363 . S
C935 H947 0.929 . S
C936 C935 1.363 . S
C936 N938 1.375 . S
C936 H954 0.931 . S
C937 N934 1.311 . S
C937 N938 1.347 . S
C937 H948 0.929 . S
N938 C936 1.375 . S
N938 C937 1.347 . S
C939 C942 1.365 . S
C939 N944 1.328 . S
C939 H945 0.929 . S
C940 C941 1.362 . S
C940 C943 1.378 . S
C940 H955 0.929 . S
C941 C940 1.362 . S
C941 C942 1.366 . S
C942 C939 1.365 . S
C942 C941 1.366 . S
C942 H956 0.930 . S
C943 C940 1.378 . S
C943 N944 1.315 . S
C943 H946 0.930 . S
N944 Co924 2.194 . S
N944 C939 1.328 . S
N944 C943 1.315 . S
H945 C939 0.929 . S
H946 C943 0.930 . S
H947 C935 0.929 . S
H948 C937 0.929 . S
O949 Co924 2.351 . S
O949 C952 1.244 . S
O950 Co924 2.155 . S
O950 C952 1.240 . S
O951 Co924 2.096 . S
O951 C932 1.247 . S
C952 O949 1.244 . S
C952 O950 1.240 . S
H953 C927 0.931 . S
H954 C936 0.931 . S
H955 C940 0.929 . S
H956 C942 0.930 . S
Co957 N961 2.148 . S
Co957 N967 2.128 . S
Co957 N977 2.194 . S
Co957 O982 2.351 . S
Co957 O983 2.155 . S
Co957 O984 2.096 . S
C958 N961 1.301 . S
C958 N962 1.328 . S
C958 H963 0.930 . S
C959 C960 1.333 . S
C959 N961 1.317 . S
C959 H964 0.930 . S
C960 C959 1.333 . S
C960 N962 1.350 . S
C960 H986 0.931 . S
N961 Co957 2.148 . S
N961 C958 1.301 . S
N961 C959 1.317 . S
N962 C958 1.328 . S
N962 C960 1.350 . S
H963 C958 0.930 . S
H964 C959 0.930 . S
C965 O966 1.224 . S
C965 O984 1.247 . S
O966 C965 1.224 . S
N967 Co957 2.128 . S
N967 C968 1.355 . S
N967 C970 1.311 . S
C968 N967 1.355 . S
C968 C969 1.363 . S
C968 H980 0.929 . S
C969 C968 1.363 . S
C969 N971 1.375 . S
C969 H987 0.931 . S
C970 N967 1.311 . S
C970 N971 1.347 . S
C970 H981 0.929 . S
N971 C969 1.375 . S
N971 C970 1.347 . S
C972 C975 1.365 . S
C972 N977 1.328 . S
C972 H978 0.929 . S
C973 C974 1.362 . S
C973 C976 1.378 . S
C973 H988 0.929 . S
C974 C973 1.362 . S
C974 C975 1.366 . S
C975 C972 1.365 . S
C975 C974 1.366 . S
C975 H989 0.930 . S
C976 C973 1.378 . S
C976 N977 1.315 . S
C976 H979 0.930 . S
N977 Co957 2.194 . S
N977 C972 1.328 . S
N977 C976 1.315 . S
H978 C972 0.929 . S
H979 C976 0.930 . S
H980 C968 0.929 . S
H981 C970 0.929 . S
O982 Co957 2.351 . S
O982 C985 1.244 . S
O983 Co957 2.155 . S
O983 C985 1.240 . S
O984 Co957 2.096 . S
O984 C965 1.247 . S
C985 O982 1.244 . S
C985 O983 1.240 . S
H986 C960 0.931 . S
H987 C969 0.931 . S
H988 C973 0.929 . S
H989 C975 0.930 . S
Co990 N994 2.148 . S
Co990 N1000 2.128 . S
Co990 N1010 2.194 . S
Co990 O1015 2.351 . S
Co990 O1016 2.155 . S
Co990 O1017 2.096 . S
C991 N994 1.301 . S
C991 N995 1.328 . S
C991 H996 0.930 . S
C992 C993 1.333 . S
C992 N994 1.317 . S
C992 H997 0.930 . S
C993 C992 1.333 . S
C993 N995 1.350 . S
C993 H1019 0.931 . S
N994 Co990 2.148 . S
N994 C991 1.301 . S
N994 C992 1.317 . S
N995 C991 1.328 . S
N995 C993 1.350 . S
H996 C991 0.930 . S
H997 C992 0.930 . S
C998 O999 1.224 . S
C998 O1017 1.247 . S
O999 C998 1.224 . S
N1000 Co990 2.128 . S
N1000 C1001 1.355 . S
N1000 C1003 1.311 . S
C1001 N1000 1.355 . S
C1001 C1002 1.363 . S
C1001 H1013 0.929 . S
C1002 C1001 1.363 . S
C1002 N1004 1.375 . S
C1002 H1020 0.931 . S
C1003 N1000 1.311 . S
C1003 N1004 1.347 . S
C1003 H1014 0.929 . S
N1004 C1002 1.375 . S
N1004 C1003 1.347 . S
C1005 C1008 1.365 . S
C1005 N1010 1.328 . S
C1005 H1011 0.929 . S
C1006 C1007 1.362 . S
C1006 C1009 1.378 . S
C1006 H1021 0.929 . S
C1007 C1006 1.362 . S
C1007 C1008 1.366 . S
C1008 C1005 1.365 . S
C1008 C1007 1.366 . S
C1008 H1022 0.930 . S
C1009 C1006 1.378 . S
C1009 N1010 1.315 . S
C1009 H1012 0.930 . S
N1010 Co990 2.194 . S
N1010 C1005 1.328 . S
N1010 C1009 1.315 . S
H1011 C1005 0.929 . S
H1012 C1009 0.930 . S
H1013 C1001 0.929 . S
H1014 C1003 0.929 . S
O1015 Co990 2.351 . S
O1015 C1018 1.244 . S
O1016 Co990 2.155 . S
O1016 C1018 1.240 . S
O1017 Co990 2.096 . S
O1017 C998 1.247 . S
C1018 O1015 1.244 . S
C1018 O1016 1.240 . S
H1019 C993 0.931 . S
H1020 C1002 0.931 . S
H1021 C1006 0.929 . S
H1022 C1008 0.930 . S
Co1023 N1027 2.148 . S
Co1023 N1033 2.128 . S
Co1023 N1043 2.194 . S
Co1023 O1048 2.351 . S
Co1023 O1049 2.155 . S
Co1023 O1050 2.096 . S
C1024 N1027 1.301 . S
C1024 N1028 1.328 . S
C1024 H1029 0.930 . S
C1025 C1026 1.333 . S
C1025 N1027 1.317 . S
C1025 H1030 0.930 . S
C1026 C1025 1.333 . S
C1026 N1028 1.350 . S
C1026 H1052 0.931 . S
N1027 Co1023 2.148 . S
N1027 C1024 1.301 . S
N1027 C1025 1.317 . S
N1028 C1024 1.328 . S
N1028 C1026 1.350 . S
H1029 C1024 0.930 . S
H1030 C1025 0.930 . S
C1031 O1032 1.224 . S
C1031 O1050 1.247 . S
O1032 C1031 1.224 . S
N1033 Co1023 2.128 . S
N1033 C1034 1.355 . S
N1033 C1036 1.311 . S
C1034 N1033 1.355 . S
C1034 C1035 1.363 . S
C1034 H1046 0.929 . S
C1035 C1034 1.363 . S
C1035 N1037 1.375 . S
C1035 H1053 0.931 . S
C1036 N1033 1.311 . S
C1036 N1037 1.347 . S
C1036 H1047 0.929 . S
N1037 C1035 1.375 . S
N1037 C1036 1.347 . S
C1038 C1041 1.365 . S
C1038 N1043 1.328 . S
C1038 H1044 0.929 . S
C1039 C1040 1.362 . S
C1039 C1042 1.378 . S
C1039 H1054 0.929 . S
C1040 C1039 1.362 . S
C1040 C1041 1.366 . S
C1041 C1038 1.365 . S
C1041 C1040 1.366 . S
C1041 H1055 0.930 . S
C1042 C1039 1.378 . S
C1042 N1043 1.315 . S
C1042 H1045 0.930 . S
N1043 Co1023 2.194 . S
N1043 C1038 1.328 . S
N1043 C1042 1.315 . S
H1044 C1038 0.929 . S
H1045 C1042 0.930 . S
H1046 C1034 0.929 . S
H1047 C1036 0.929 . S
O1048 Co1023 2.351 . S
O1048 C1051 1.244 . S
O1049 Co1023 2.155 . S
O1049 C1051 1.240 . S
O1050 Co1023 2.096 . S
O1050 C1031 1.247 . S
C1051 O1048 1.244 . S
C1051 O1049 1.240 . S
H1052 C1026 0.931 . S
H1053 C1035 0.931 . S
H1054 C1039 0.929 . S
H1055 C1041 0.930 . S
Co1056 N1060 2.148 . S
Co1056 N1066 2.128 . S
Co1056 N1076 2.194 . S
Co1056 O1081 2.351 . S
Co1056 O1082 2.155 . S
Co1056 O1083 2.096 . S
C1057 N1060 1.301 . S
C1057 N1061 1.328 . S
C1057 H1062 0.930 . S
C1058 C1059 1.333 . S
C1058 N1060 1.317 . S
C1058 H1063 0.930 . S
C1059 C1058 1.333 . S
C1059 N1061 1.350 . S
C1059 H1085 0.931 . S
N1060 Co1056 2.148 . S
N1060 C1057 1.301 . S
N1060 C1058 1.317 . S
N1061 C1057 1.328 . S
N1061 C1059 1.350 . S
H1062 C1057 0.930 . S
H1063 C1058 0.930 . S
C1064 O1065 1.224 . S
C1064 O1083 1.247 . S
O1065 C1064 1.224 . S
N1066 Co1056 2.128 . S
N1066 C1067 1.355 . S
N1066 C1069 1.311 . S
C1067 N1066 1.355 . S
C1067 C1068 1.363 . S
C1067 H1079 0.929 . S
C1068 C1067 1.363 . S
C1068 N1070 1.375 . S
C1068 H1086 0.931 . S
C1069 N1066 1.311 . S
C1069 N1070 1.347 . S
C1069 H1080 0.929 . S
N1070 C1068 1.375 . S
N1070 C1069 1.347 . S
C1071 C1074 1.365 . S
C1071 N1076 1.328 . S
C1071 H1077 0.929 . S
C1072 C1073 1.362 . S
C1072 C1075 1.378 . S
C1072 H1087 0.929 . S
C1073 C1072 1.362 . S
C1073 C1074 1.366 . S
C1074 C1071 1.365 . S
C1074 C1073 1.366 . S
C1074 H1088 0.930 . S
C1075 C1072 1.378 . S
C1075 N1076 1.315 . S
C1075 H1078 0.930 . S
N1076 Co1056 2.194 . S
N1076 C1071 1.328 . S
N1076 C1075 1.315 . S
H1077 C1071 0.929 . S
H1078 C1075 0.930 . S
H1079 C1067 0.929 . S
H1080 C1069 0.929 . S
O1081 Co1056 2.351 . S
O1081 C1084 1.244 . S
O1082 Co1056 2.155 . S
O1082 C1084 1.240 . S
O1083 Co1056 2.096 . S
O1083 C1064 1.247 . S
C1084 O1081 1.244 . S
C1084 O1082 1.240 . S
H1085 C1059 0.931 . S
H1086 C1068 0.931 . S
H1087 C1072 0.929 . S
H1088 C1074 0.930 . S
Co1089 N1093 2.148 . S
Co1089 N1099 2.128 . S
Co1089 N1109 2.194 . S
Co1089 O1114 2.351 . S
Co1089 O1115 2.155 . S
Co1089 O1116 2.096 . S
C1090 N1093 1.301 . S
C1090 N1094 1.328 . S
C1090 H1095 0.930 . S
C1091 C1092 1.333 . S
C1091 N1093 1.317 . S
C1091 H1096 0.930 . S
C1092 C1091 1.333 . S
C1092 N1094 1.350 . S
C1092 H1118 0.931 . S
N1093 Co1089 2.148 . S
N1093 C1090 1.301 . S
N1093 C1091 1.317 . S
N1094 C1090 1.328 . S
N1094 C1092 1.350 . S
H1095 C1090 0.930 . S
H1096 C1091 0.930 . S
C1097 O1098 1.224 . S
C1097 O1116 1.247 . S
O1098 C1097 1.224 . S
N1099 Co1089 2.128 . S
N1099 C1100 1.355 . S
N1099 C1102 1.311 . S
C1100 N1099 1.355 . S
C1100 C1101 1.363 . S
C1100 H1112 0.929 . S
C1101 C1100 1.363 . S
C1101 N1103 1.375 . S
C1101 H1119 0.931 . S
C1102 N1099 1.311 . S
C1102 N1103 1.347 . S
C1102 H1113 0.929 . S
N1103 C1101 1.375 . S
N1103 C1102 1.347 . S
C1104 C1107 1.365 . S
C1104 N1109 1.328 . S
C1104 H1110 0.929 . S
C1105 C1106 1.362 . S
C1105 C1108 1.378 . S
C1105 H1120 0.929 . S
C1106 C1105 1.362 . S
C1106 C1107 1.366 . S
C1107 C1104 1.365 . S
C1107 C1106 1.366 . S
C1107 H1121 0.930 . S
C1108 C1105 1.378 . S
C1108 N1109 1.315 . S
C1108 H1111 0.930 . S
N1109 Co1089 2.194 . S
N1109 C1104 1.328 . S
N1109 C1108 1.315 . S
H1110 C1104 0.929 . S
H1111 C1108 0.930 . S
H1112 C1100 0.929 . S
H1113 C1102 0.929 . S
O1114 Co1089 2.351 . S
O1114 C1117 1.244 . S
O1115 Co1089 2.155 . S
O1115 C1117 1.240 . S
O1116 Co1089 2.096 . S
O1116 C1097 1.247 . S
C1117 O1114 1.244 . S
C1117 O1115 1.240 . S
H1118 C1092 0.931 . S
H1119 C1101 0.931 . S
H1120 C1105 0.929 . S
H1121 C1107 0.930 . S
Co1122 N1126 2.148 . S
Co1122 N1132 2.128 . S
Co1122 N1142 2.194 . S
Co1122 O1147 2.351 . S
Co1122 O1148 2.155 . S
Co1122 O1149 2.096 . S
C1123 N1126 1.301 . S
C1123 N1127 1.328 . S
C1123 H1128 0.930 . S
C1124 C1125 1.333 . S
C1124 N1126 1.317 . S
C1124 H1129 0.930 . S
C1125 C1124 1.333 . S
C1125 N1127 1.350 . S
C1125 H1151 0.931 . S
N1126 Co1122 2.148 . S
N1126 C1123 1.301 . S
N1126 C1124 1.317 . S
N1127 C1123 1.328 . S
N1127 C1125 1.350 . S
H1128 C1123 0.930 . S
H1129 C1124 0.930 . S
C1130 O1131 1.224 . S
C1130 O1149 1.247 . S
O1131 C1130 1.224 . S
N1132 Co1122 2.128 . S
N1132 C1133 1.355 . S
N1132 C1135 1.311 . S
C1133 N1132 1.355 . S
C1133 C1134 1.363 . S
C1133 H1145 0.929 . S
C1134 C1133 1.363 . S
C1134 N1136 1.375 . S
C1134 H1152 0.931 . S
C1135 N1132 1.311 . S
C1135 N1136 1.347 . S
C1135 H1146 0.929 . S
N1136 C1134 1.375 . S
N1136 C1135 1.347 . S
C1137 C1140 1.365 . S
C1137 N1142 1.328 . S
C1137 H1143 0.929 . S
C1138 C1139 1.362 . S
C1138 C1141 1.378 . S
C1138 H1153 0.929 . S
C1139 C1138 1.362 . S
C1139 C1140 1.366 . S
C1140 C1137 1.365 . S
C1140 C1139 1.366 . S
C1140 H1154 0.930 . S
C1141 C1138 1.378 . S
C1141 N1142 1.315 . S
C1141 H1144 0.930 . S
N1142 Co1122 2.194 . S
N1142 C1137 1.328 . S
N1142 C1141 1.315 . S
H1143 C1137 0.929 . S
H1144 C1141 0.930 . S
H1145 C1133 0.929 . S
H1146 C1135 0.929 . S
O1147 Co1122 2.351 . S
O1147 C1150 1.244 . S
O1148 Co1122 2.155 . S
O1148 C1150 1.240 . S
O1149 Co1122 2.096 . S
O1149 C1130 1.247 . S
C1150 O1147 1.244 . S
C1150 O1148 1.240 . S
H1151 C1125 0.931 . S
H1152 C1134 0.931 . S
H1153 C1138 0.929 . S
H1154 C1140 0.930 . S
Co1155 N1159 2.148 . S
Co1155 N1165 2.128 . S
Co1155 N1175 2.194 . S
Co1155 O1180 2.351 . S
Co1155 O1181 2.155 . S
Co1155 O1182 2.096 . S
C1156 N1159 1.301 . S
C1156 N1160 1.328 . S
C1156 H1161 0.930 . S
C1157 C1158 1.333 . S
C1157 N1159 1.317 . S
C1157 H1162 0.930 . S
C1158 C1157 1.333 . S
C1158 N1160 1.350 . S
C1158 H1184 0.931 . S
N1159 Co1155 2.148 . S
N1159 C1156 1.301 . S
N1159 C1157 1.317 . S
N1160 C1156 1.328 . S
N1160 C1158 1.350 . S
H1161 C1156 0.930 . S
H1162 C1157 0.930 . S
C1163 O1164 1.224 . S
C1163 O1182 1.247 . S
O1164 C1163 1.224 . S
N1165 Co1155 2.128 . S
N1165 C1166 1.355 . S
N1165 C1168 1.311 . S
C1166 N1165 1.355 . S
C1166 C1167 1.363 . S
C1166 H1178 0.929 . S
C1167 C1166 1.363 . S
C1167 N1169 1.375 . S
C1167 H1185 0.931 . S
C1168 N1165 1.311 . S
C1168 N1169 1.347 . S
C1168 H1179 0.929 . S
N1169 C1167 1.375 . S
N1169 C1168 1.347 . S
C1170 C1173 1.365 . S
C1170 N1175 1.328 . S
C1170 H1176 0.929 . S
C1171 C1172 1.362 . S
C1171 C1174 1.378 . S
C1171 H1186 0.929 . S
C1172 C1171 1.362 . S
C1172 C1173 1.366 . S
C1173 C1170 1.365 . S
C1173 C1172 1.366 . S
C1173 H1187 0.930 . S
C1174 C1171 1.378 . S
C1174 N1175 1.315 . S
C1174 H1177 0.930 . S
N1175 Co1155 2.194 . S
N1175 C1170 1.328 . S
N1175 C1174 1.315 . S
H1176 C1170 0.929 . S
H1177 C1174 0.930 . S
H1178 C1166 0.929 . S
H1179 C1168 0.929 . S
O1180 Co1155 2.351 . S
O1180 C1183 1.244 . S
O1181 Co1155 2.155 . S
O1181 C1183 1.240 . S
O1182 Co1155 2.096 . S
O1182 C1163 1.247 . S
C1183 O1180 1.244 . S
C1183 O1181 1.240 . S
H1184 C1158 0.931 . S
H1185 C1167 0.931 . S
H1186 C1171 0.929 . S
H1187 C1173 0.930 . S
Co1188 N1192 2.148 . S
Co1188 N1198 2.128 . S
Co1188 N1208 2.194 . S
Co1188 O1213 2.351 . S
Co1188 O1214 2.155 . S
Co1188 O1215 2.096 . S
C1189 N1192 1.301 . S
C1189 N1193 1.328 . S
C1189 H1194 0.930 . S
C1190 C1191 1.333 . S
C1190 N1192 1.317 . S
C1190 H1195 0.930 . S
C1191 C1190 1.333 . S
C1191 N1193 1.350 . S
C1191 H1217 0.931 . S
N1192 Co1188 2.148 . S
N1192 C1189 1.301 . S
N1192 C1190 1.317 . S
N1193 C1189 1.328 . S
N1193 C1191 1.350 . S
H1194 C1189 0.930 . S
H1195 C1190 0.930 . S
C1196 O1197 1.224 . S
C1196 O1215 1.247 . S
O1197 C1196 1.224 . S
N1198 Co1188 2.128 . S
N1198 C1199 1.355 . S
N1198 C1201 1.311 . S
C1199 N1198 1.355 . S
C1199 C1200 1.363 . S
C1199 H1211 0.929 . S
C1200 C1199 1.363 . S
C1200 N1202 1.375 . S
C1200 H1218 0.931 . S
C1201 N1198 1.311 . S
C1201 N1202 1.347 . S
C1201 H1212 0.929 . S
N1202 C1200 1.375 . S
N1202 C1201 1.347 . S
C1203 C1206 1.365 . S
C1203 N1208 1.328 . S
C1203 H1209 0.929 . S
C1204 C1205 1.362 . S
C1204 C1207 1.378 . S
C1204 H1219 0.929 . S
C1205 C1204 1.362 . S
C1205 C1206 1.366 . S
C1206 C1203 1.365 . S
C1206 C1205 1.366 . S
C1206 H1220 0.930 . S
C1207 C1204 1.378 . S
C1207 N1208 1.315 . S
C1207 H1210 0.930 . S
N1208 Co1188 2.194 . S
N1208 C1203 1.328 . S
N1208 C1207 1.315 . S
H1209 C1203 0.929 . S
H1210 C1207 0.930 . S
H1211 C1199 0.929 . S
H1212 C1201 0.929 . S
O1213 Co1188 2.351 . S
O1213 C1216 1.244 . S
O1214 Co1188 2.155 . S
O1214 C1216 1.240 . S
O1215 Co1188 2.096 . S
O1215 C1196 1.247 . S
C1216 O1213 1.244 . S
C1216 O1214 1.240 . S
H1217 C1191 0.931 . S
H1218 C1200 0.931 . S
H1219 C1204 0.929 . S
H1220 C1206 0.930 . S
Co1221 N1225 2.148 . S
Co1221 N1231 2.128 . S
Co1221 N1241 2.194 . S
Co1221 O1246 2.351 . S
Co1221 O1247 2.155 . S
Co1221 O1248 2.096 . S
C1222 N1225 1.301 . S
C1222 N1226 1.328 . S
C1222 H1227 0.930 . S
C1223 C1224 1.333 . S
C1223 N1225 1.317 . S
C1223 H1228 0.930 . S
C1224 C1223 1.333 . S
C1224 N1226 1.350 . S
C1224 H1250 0.931 . S
N1225 Co1221 2.148 . S
N1225 C1222 1.301 . S
N1225 C1223 1.317 . S
N1226 C1222 1.328 . S
N1226 C1224 1.350 . S
H1227 C1222 0.930 . S
H1228 C1223 0.930 . S
C1229 O1230 1.224 . S
C1229 O1248 1.247 . S
O1230 C1229 1.224 . S
N1231 Co1221 2.128 . S
N1231 C1232 1.355 . S
N1231 C1234 1.311 . S
C1232 N1231 1.355 . S
C1232 C1233 1.363 . S
C1232 H1244 0.929 . S
C1233 C1232 1.363 . S
C1233 N1235 1.375 . S
C1233 H1251 0.931 . S
C1234 N1231 1.311 . S
C1234 N1235 1.347 . S
C1234 H1245 0.929 . S
N1235 C1233 1.375 . S
N1235 C1234 1.347 . S
C1236 C1239 1.365 . S
C1236 N1241 1.328 . S
C1236 H1242 0.929 . S
C1237 C1238 1.362 . S
C1237 C1240 1.378 . S
C1237 H1252 0.929 . S
C1238 C1237 1.362 . S
C1238 C1239 1.366 . S
C1239 C1236 1.365 . S
C1239 C1238 1.366 . S
C1239 H1253 0.930 . S
C1240 C1237 1.378 . S
C1240 N1241 1.315 . S
C1240 H1243 0.930 . S
N1241 Co1221 2.194 . S
N1241 C1236 1.328 . S
N1241 C1240 1.315 . S
H1242 C1236 0.929 . S
H1243 C1240 0.930 . S
H1244 C1232 0.929 . S
H1245 C1234 0.929 . S
O1246 Co1221 2.351 . S
O1246 C1249 1.244 . S
O1247 Co1221 2.155 . S
O1247 C1249 1.240 . S
O1248 Co1221 2.096 . S
O1248 C1229 1.247 . S
C1249 O1246 1.244 . S
C1249 O1247 1.240 . S
H1250 C1224 0.931 . S
H1251 C1233 0.931 . S
H1252 C1237 0.929 . S
H1253 C1239 0.930 . S
Co1254 N1258 2.148 . S
Co1254 N1264 2.128 . S
Co1254 N1274 2.194 . S
Co1254 O1279 2.351 . S
Co1254 O1280 2.155 . S
Co1254 O1281 2.096 . S
C1255 N1258 1.301 . S
C1255 N1259 1.328 . S
C1255 H1260 0.930 . S
C1256 C1257 1.333 . S
C1256 N1258 1.317 . S
C1256 H1261 0.930 . S
C1257 C1256 1.333 . S
C1257 N1259 1.350 . S
C1257 H1283 0.931 . S
N1258 Co1254 2.148 . S
N1258 C1255 1.301 . S
N1258 C1256 1.317 . S
N1259 C1255 1.328 . S
N1259 C1257 1.350 . S
H1260 C1255 0.930 . S
H1261 C1256 0.930 . S
C1262 O1263 1.224 . S
C1262 O1281 1.247 . S
O1263 C1262 1.224 . S
N1264 Co1254 2.128 . S
N1264 C1265 1.355 . S
N1264 C1267 1.311 . S
C1265 N1264 1.355 . S
C1265 C1266 1.363 . S
C1265 H1277 0.929 . S
C1266 C1265 1.363 . S
C1266 N1268 1.375 . S
C1266 H1284 0.931 . S
C1267 N1264 1.311 . S
C1267 N1268 1.347 . S
C1267 H1278 0.929 . S
N1268 C1266 1.375 . S
N1268 C1267 1.347 . S
C1269 C1272 1.365 . S
C1269 N1274 1.328 . S
C1269 H1275 0.929 . S
C1270 C1271 1.362 . S
C1270 C1273 1.378 . S
C1270 H1285 0.929 . S
C1271 C1270 1.362 . S
C1271 C1272 1.366 . S
C1272 C1269 1.365 . S
C1272 C1271 1.366 . S
C1272 H1286 0.930 . S
C1273 C1270 1.378 . S
C1273 N1274 1.315 . S
C1273 H1276 0.930 . S
N1274 Co1254 2.194 . S
N1274 C1269 1.328 . S
N1274 C1273 1.315 . S
H1275 C1269 0.929 . S
H1276 C1273 0.930 . S
H1277 C1265 0.929 . S
H1278 C1267 0.929 . S
O1279 Co1254 2.351 . S
O1279 C1282 1.244 . S
O1280 Co1254 2.155 . S
O1280 C1282 1.240 . S
O1281 Co1254 2.096 . S
O1281 C1262 1.247 . S
C1282 O1279 1.244 . S
C1282 O1280 1.240 . S
H1283 C1257 0.931 . S
H1284 C1266 0.931 . S
H1285 C1270 0.929 . S
H1286 C1272 0.930 . S
Co1287 N1291 2.148 . S
Co1287 N1297 2.128 . S
Co1287 N1307 2.194 . S
Co1287 O1312 2.351 . S
Co1287 O1313 2.155 . S
Co1287 O1314 2.096 . S
C1288 N1291 1.301 . S
C1288 N1292 1.328 . S
C1288 H1293 0.930 . S
C1289 C1290 1.333 . S
C1289 N1291 1.317 . S
C1289 H1294 0.930 . S
C1290 C1289 1.333 . S
C1290 N1292 1.350 . S
C1290 H1316 0.931 . S
N1291 Co1287 2.148 . S
N1291 C1288 1.301 . S
N1291 C1289 1.317 . S
N1292 C1288 1.328 . S
N1292 C1290 1.350 . S
H1293 C1288 0.930 . S
H1294 C1289 0.930 . S
C1295 O1296 1.224 . S
C1295 O1314 1.247 . S
O1296 C1295 1.224 . S
N1297 Co1287 2.128 . S
N1297 C1298 1.355 . S
N1297 C1300 1.311 . S
C1298 N1297 1.355 . S
C1298 C1299 1.363 . S
C1298 H1310 0.929 . S
C1299 C1298 1.363 . S
C1299 N1301 1.375 . S
C1299 H1317 0.931 . S
C1300 N1297 1.311 . S
C1300 N1301 1.347 . S
C1300 H1311 0.929 . S
N1301 C1299 1.375 . S
N1301 C1300 1.347 . S
C1302 C1305 1.365 . S
C1302 N1307 1.328 . S
C1302 H1308 0.929 . S
C1303 C1304 1.362 . S
C1303 C1306 1.378 . S
C1303 H1318 0.929 . S
C1304 C1303 1.362 . S
C1304 C1305 1.366 . S
C1305 C1302 1.365 . S
C1305 C1304 1.366 . S
C1305 H1319 0.930 . S
C1306 C1303 1.378 . S
C1306 N1307 1.315 . S
C1306 H1309 0.930 . S
N1307 Co1287 2.194 . S
N1307 C1302 1.328 . S
N1307 C1306 1.315 . S
H1308 C1302 0.929 . S
H1309 C1306 0.930 . S
H1310 C1298 0.929 . S
H1311 C1300 0.929 . S
O1312 Co1287 2.351 . S
O1312 C1315 1.244 . S
O1313 Co1287 2.155 . S
O1313 C1315 1.240 . S
O1314 Co1287 2.096 . S
O1314 C1295 1.247 . S
C1315 O1312 1.244 . S
C1315 O1313 1.240 . S
H1316 C1290 0.931 . S
H1317 C1299 0.931 . S
H1318 C1303 0.929 . S
H1319 C1305 0.930 . S
Co1320 N1324 2.148 . S
Co1320 N1330 2.128 . S
Co1320 N1340 2.194 . S
Co1320 O1345 2.351 . S
Co1320 O1346 2.155 . S
Co1320 O1347 2.096 . S
C1321 N1324 1.301 . S
C1321 N1325 1.328 . S
C1321 H1326 0.930 . S
C1322 C1323 1.333 . S
C1322 N1324 1.317 . S
C1322 H1327 0.930 . S
C1323 C1322 1.333 . S
C1323 N1325 1.350 . S
C1323 H1349 0.931 . S
N1324 Co1320 2.148 . S
N1324 C1321 1.301 . S
N1324 C1322 1.317 . S
N1325 C1321 1.328 . S
N1325 C1323 1.350 . S
H1326 C1321 0.930 . S
H1327 C1322 0.930 . S
C1328 O1329 1.224 . S
C1328 O1347 1.247 . S
O1329 C1328 1.224 . S
N1330 Co1320 2.128 . S
N1330 C1331 1.355 . S
N1330 C1333 1.311 . S
C1331 N1330 1.355 . S
C1331 C1332 1.363 . S
C1331 H1343 0.929 . S
C1332 C1331 1.363 . S
C1332 N1334 1.375 . S
C1332 H1350 0.931 . S
C1333 N1330 1.311 . S
C1333 N1334 1.347 . S
C1333 H1344 0.929 . S
N1334 C1332 1.375 . S
N1334 C1333 1.347 . S
C1335 C1338 1.365 . S
C1335 N1340 1.328 . S
C1335 H1341 0.929 . S
C1336 C1337 1.362 . S
C1336 C1339 1.378 . S
C1336 H1351 0.929 . S
C1337 C1336 1.362 . S
C1337 C1338 1.366 . S
C1338 C1335 1.365 . S
C1338 C1337 1.366 . S
C1338 H1352 0.930 . S
C1339 C1336 1.378 . S
C1339 N1340 1.315 . S
C1339 H1342 0.930 . S
N1340 Co1320 2.194 . S
N1340 C1335 1.328 . S
N1340 C1339 1.315 . S
H1341 C1335 0.929 . S
H1342 C1339 0.930 . S
H1343 C1331 0.929 . S
H1344 C1333 0.929 . S
O1345 Co1320 2.351 . S
O1345 C1348 1.244 . S
O1346 Co1320 2.155 . S
O1346 C1348 1.240 . S
O1347 Co1320 2.096 . S
O1347 C1328 1.247 . S
C1348 O1345 1.244 . S
C1348 O1346 1.240 . S
H1349 C1323 0.931 . S
H1350 C1332 0.931 . S
H1351 C1336 0.929 . S
H1352 C1338 0.930 . S
Co1353 N1357 2.148 . S
Co1353 N1363 2.128 . S
Co1353 N1373 2.194 . S
Co1353 O1378 2.351 . S
Co1353 O1379 2.155 . S
Co1353 O1380 2.096 . S
C1354 N1357 1.301 . S
C1354 N1358 1.328 . S
C1354 H1359 0.930 . S
C1355 C1356 1.333 . S
C1355 N1357 1.317 . S
C1355 H1360 0.930 . S
C1356 C1355 1.333 . S
C1356 N1358 1.350 . S
C1356 H1382 0.931 . S
N1357 Co1353 2.148 . S
N1357 C1354 1.301 . S
N1357 C1355 1.317 . S
N1358 C1354 1.328 . S
N1358 C1356 1.350 . S
H1359 C1354 0.930 . S
H1360 C1355 0.930 . S
C1361 O1362 1.224 . S
C1361 O1380 1.247 . S
O1362 C1361 1.224 . S
N1363 Co1353 2.128 . S
N1363 C1364 1.355 . S
N1363 C1366 1.311 . S
C1364 N1363 1.355 . S
C1364 C1365 1.363 . S
C1364 H1376 0.929 . S
C1365 C1364 1.363 . S
C1365 N1367 1.375 . S
C1365 H1383 0.931 . S
C1366 N1363 1.311 . S
C1366 N1367 1.347 . S
C1366 H1377 0.929 . S
N1367 C1365 1.375 . S
N1367 C1366 1.347 . S
C1368 C1371 1.365 . S
C1368 N1373 1.328 . S
C1368 H1374 0.929 . S
C1369 C1370 1.362 . S
C1369 C1372 1.378 . S
C1369 H1384 0.929 . S
C1370 C1369 1.362 . S
C1370 C1371 1.366 . S
C1371 C1368 1.365 . S
C1371 C1370 1.366 . S
C1371 H1385 0.930 . S
C1372 C1369 1.378 . S
C1372 N1373 1.315 . S
C1372 H1375 0.930 . S
N1373 Co1353 2.194 . S
N1373 C1368 1.328 . S
N1373 C1372 1.315 . S
H1374 C1368 0.929 . S
H1375 C1372 0.930 . S
H1376 C1364 0.929 . S
H1377 C1366 0.929 . S
O1378 Co1353 2.351 . S
O1378 C1381 1.244 . S
O1379 Co1353 2.155 . S
O1379 C1381 1.240 . S
O1380 Co1353 2.096 . S
O1380 C1361 1.247 . S
C1381 O1378 1.244 . S
C1381 O1379 1.240 . S
H1382 C1356 0.931 . S
H1383 C1365 0.931 . S
H1384 C1369 0.929 . S
H1385 C1371 0.930 . S
Co1386 N1390 2.148 . S
Co1386 N1396 2.128 . S
Co1386 N1406 2.194 . S
Co1386 O1411 2.351 . S
Co1386 O1412 2.155 . S
Co1386 O1413 2.096 . S
C1387 N1390 1.301 . S
C1387 N1391 1.328 . S
C1387 H1392 0.930 . S
C1388 C1389 1.333 . S
C1388 N1390 1.317 . S
C1388 H1393 0.930 . S
C1389 C1388 1.333 . S
C1389 N1391 1.350 . S
C1389 H1415 0.931 . S
N1390 Co1386 2.148 . S
N1390 C1387 1.301 . S
N1390 C1388 1.317 . S
N1391 C1387 1.328 . S
N1391 C1389 1.350 . S
H1392 C1387 0.930 . S
H1393 C1388 0.930 . S
C1394 O1395 1.224 . S
C1394 O1413 1.247 . S
O1395 C1394 1.224 . S
N1396 Co1386 2.128 . S
N1396 C1397 1.355 . S
N1396 C1399 1.311 . S
C1397 N1396 1.355 . S
C1397 C1398 1.363 . S
C1397 H1409 0.929 . S
C1398 C1397 1.363 . S
C1398 N1400 1.375 . S
C1398 H1416 0.931 . S
C1399 N1396 1.311 . S
C1399 N1400 1.347 . S
C1399 H1410 0.929 . S
N1400 C1398 1.375 . S
N1400 C1399 1.347 . S
C1401 C1404 1.365 . S
C1401 N1406 1.328 . S
C1401 H1407 0.929 . S
C1402 C1403 1.362 . S
C1402 C1405 1.378 . S
C1402 H1417 0.929 . S
C1403 C1402 1.362 . S
C1403 C1404 1.366 . S
C1404 C1401 1.365 . S
C1404 C1403 1.366 . S
C1404 H1418 0.930 . S
C1405 C1402 1.378 . S
C1405 N1406 1.315 . S
C1405 H1408 0.930 . S
N1406 Co1386 2.194 . S
N1406 C1401 1.328 . S
N1406 C1405 1.315 . S
H1407 C1401 0.929 . S
H1408 C1405 0.930 . S
H1409 C1397 0.929 . S
H1410 C1399 0.929 . S
O1411 Co1386 2.351 . S
O1411 C1414 1.244 . S
O1412 Co1386 2.155 . S
O1412 C1414 1.240 . S
O1413 Co1386 2.096 . S
O1413 C1394 1.247 . S
C1414 O1411 1.244 . S
C1414 O1412 1.240 . S
H1415 C1389 0.931 . S
H1416 C1398 0.931 . S
H1417 C1402 0.929 . S
H1418 C1404 0.930 . S
Co1419 N1423 2.148 . S
Co1419 N1429 2.128 . S
Co1419 N1439 2.194 . S
Co1419 O1444 2.351 . S
Co1419 O1445 2.155 . S
Co1419 O1446 2.096 . S
C1420 N1423 1.301 . S
C1420 N1424 1.328 . S
C1420 H1425 0.930 . S
C1421 C1422 1.333 . S
C1421 N1423 1.317 . S
C1421 H1426 0.930 . S
C1422 C1421 1.333 . S
C1422 N1424 1.350 . S
C1422 H1448 0.931 . S
N1423 Co1419 2.148 . S
N1423 C1420 1.301 . S
N1423 C1421 1.317 . S
N1424 C1420 1.328 . S
N1424 C1422 1.350 . S
H1425 C1420 0.930 . S
H1426 C1421 0.930 . S
C1427 O1428 1.224 . S
C1427 O1446 1.247 . S
O1428 C1427 1.224 . S
N1429 Co1419 2.128 . S
N1429 C1430 1.355 . S
N1429 C1432 1.311 . S
C1430 N1429 1.355 . S
C1430 C1431 1.363 . S
C1430 H1442 0.929 . S
C1431 C1430 1.363 . S
C1431 N1433 1.375 . S
C1431 H1449 0.931 . S
C1432 N1429 1.311 . S
C1432 N1433 1.347 . S
C1432 H1443 0.929 . S
N1433 C1431 1.375 . S
N1433 C1432 1.347 . S
C1434 C1437 1.365 . S
C1434 N1439 1.328 . S
C1434 H1440 0.929 . S
C1435 C1436 1.362 . S
C1435 C1438 1.378 . S
C1435 H1450 0.929 . S
C1436 C1435 1.362 . S
C1436 C1437 1.366 . S
C1437 C1434 1.365 . S
C1437 C1436 1.366 . S
C1437 H1451 0.930 . S
C1438 C1435 1.378 . S
C1438 N1439 1.315 . S
C1438 H1441 0.930 . S
N1439 Co1419 2.194 . S
N1439 C1434 1.328 . S
N1439 C1438 1.315 . S
H1440 C1434 0.929 . S
H1441 C1438 0.930 . S
H1442 C1430 0.929 . S
H1443 C1432 0.929 . S
O1444 Co1419 2.351 . S
O1444 C1447 1.244 . S
O1445 Co1419 2.155 . S
O1445 C1447 1.240 . S
O1446 Co1419 2.096 . S
O1446 C1427 1.247 . S
C1447 O1444 1.244 . S
C1447 O1445 1.240 . S
H1448 C1422 0.931 . S
H1449 C1431 0.931 . S
H1450 C1435 0.929 . S
H1451 C1437 0.930 . S
Co1452 N1456 2.148 . S
Co1452 N1462 2.128 . S
Co1452 N1472 2.194 . S
Co1452 O1477 2.351 . S
Co1452 O1478 2.155 . S
Co1452 O1479 2.096 . S
C1453 N1456 1.301 . S
C1453 N1457 1.328 . S
C1453 H1458 0.930 . S
C1454 C1455 1.333 . S
C1454 N1456 1.317 . S
C1454 H1459 0.930 . S
C1455 C1454 1.333 . S
C1455 N1457 1.350 . S
C1455 H1481 0.931 . S
N1456 Co1452 2.148 . S
N1456 C1453 1.301 . S
N1456 C1454 1.317 . S
N1457 C1453 1.328 . S
N1457 C1455 1.350 . S
H1458 C1453 0.930 . S
H1459 C1454 0.930 . S
C1460 O1461 1.224 . S
C1460 O1479 1.247 . S
O1461 C1460 1.224 . S
N1462 Co1452 2.128 . S
N1462 C1463 1.355 . S
N1462 C1465 1.311 . S
C1463 N1462 1.355 . S
C1463 C1464 1.363 . S
C1463 H1475 0.929 . S
C1464 C1463 1.363 . S
C1464 N1466 1.375 . S
C1464 H1482 0.931 . S
C1465 N1462 1.311 . S
C1465 N1466 1.347 . S
C1465 H1476 0.929 . S
N1466 C1464 1.375 . S
N1466 C1465 1.347 . S
C1467 C1470 1.365 . S
C1467 N1472 1.328 . S
C1467 H1473 0.929 . S
C1468 C1469 1.362 . S
C1468 C1471 1.378 . S
C1468 H1483 0.929 . S
C1469 C1468 1.362 . S
C1469 C1470 1.366 . S
C1470 C1467 1.365 . S
C1470 C1469 1.366 . S
C1470 H1484 0.930 . S
C1471 C1468 1.378 . S
C1471 N1472 1.315 . S
C1471 H1474 0.930 . S
N1472 Co1452 2.194 . S
N1472 C1467 1.328 . S
N1472 C1471 1.315 . S
H1473 C1467 0.929 . S
H1474 C1471 0.930 . S
H1475 C1463 0.929 . S
H1476 C1465 0.929 . S
O1477 Co1452 2.351 . S
O1477 C1480 1.244 . S
O1478 Co1452 2.155 . S
O1478 C1480 1.240 . S
O1479 Co1452 2.096 . S
O1479 C1460 1.247 . S
C1480 O1477 1.244 . S
C1480 O1478 1.240 . S
H1481 C1455 0.931 . S
H1482 C1464 0.931 . S
H1483 C1468 0.929 . S
H1484 C1470 0.930 . S
Co1485 N1489 2.148 . S
Co1485 N1495 2.128 . S
Co1485 N1505 2.194 . S
Co1485 O1510 2.351 . S
Co1485 O1511 2.155 . S
Co1485 O1512 2.096 . S
C1486 N1489 1.301 . S
C1486 N1490 1.328 . S
C1486 H1491 0.930 . S
C1487 C1488 1.333 . S
C1487 N1489 1.317 . S
C1487 H1492 0.930 . S
C1488 C1487 1.333 . S
C1488 N1490 1.350 . S
C1488 H1514 0.931 . S
N1489 Co1485 2.148 . S
N1489 C1486 1.301 . S
N1489 C1487 1.317 . S
N1490 C1486 1.328 . S
N1490 C1488 1.350 . S
H1491 C1486 0.930 . S
H1492 C1487 0.930 . S
C1493 O1494 1.224 . S
C1493 O1512 1.247 . S
O1494 C1493 1.224 . S
N1495 Co1485 2.128 . S
N1495 C1496 1.355 . S
N1495 C1498 1.311 . S
C1496 N1495 1.355 . S
C1496 C1497 1.363 . S
C1496 H1508 0.929 . S
C1497 C1496 1.363 . S
C1497 N1499 1.375 . S
C1497 H1515 0.931 . S
C1498 N1495 1.311 . S
C1498 N1499 1.347 . S
C1498 H1509 0.929 . S
N1499 C1497 1.375 . S
N1499 C1498 1.347 . S
C1500 C1503 1.365 . S
C1500 N1505 1.328 . S
C1500 H1506 0.929 . S
C1501 C1502 1.362 . S
C1501 C1504 1.378 . S
C1501 H1516 0.929 . S
C1502 C1501 1.362 . S
C1502 C1503 1.366 . S
C1503 C1500 1.365 . S
C1503 C1502 1.366 . S
C1503 H1517 0.930 . S
C1504 C1501 1.378 . S
C1504 N1505 1.315 . S
C1504 H1507 0.930 . S
N1505 Co1485 2.194 . S
N1505 C1500 1.328 . S
N1505 C1504 1.315 . S
H1506 C1500 0.929 . S
H1507 C1504 0.930 . S
H1508 C1496 0.929 . S
H1509 C1498 0.929 . S
O1510 Co1485 2.351 . S
O1510 C1513 1.244 . S
O1511 Co1485 2.155 . S
O1511 C1513 1.240 . S
O1512 Co1485 2.096 . S
O1512 C1493 1.247 . S
C1513 O1510 1.244 . S
C1513 O1511 1.240 . S
H1514 C1488 0.931 . S
H1515 C1497 0.931 . S
H1516 C1501 0.929 . S
H1517 C1503 0.930 . S
Co1518 N1522 2.148 . S
Co1518 N1528 2.128 . S
Co1518 N1538 2.194 . S
Co1518 O1543 2.351 . S
Co1518 O1544 2.155 . S
Co1518 O1545 2.096 . S
C1519 N1522 1.301 . S
C1519 N1523 1.328 . S
C1519 H1524 0.930 . S
C1520 C1521 1.333 . S
C1520 N1522 1.317 . S
C1520 H1525 0.930 . S
C1521 C1520 1.333 . S
C1521 N1523 1.350 . S
C1521 H1547 0.931 . S
N1522 Co1518 2.148 . S
N1522 C1519 1.301 . S
N1522 C1520 1.317 . S
N1523 C1519 1.328 . S
N1523 C1521 1.350 . S
H1524 C1519 0.930 . S
H1525 C1520 0.930 . S
C1526 O1527 1.224 . S
C1526 O1545 1.247 . S
O1527 C1526 1.224 . S
N1528 Co1518 2.128 . S
N1528 C1529 1.355 . S
N1528 C1531 1.311 . S
C1529 N1528 1.355 . S
C1529 C1530 1.363 . S
C1529 H1541 0.929 . S
C1530 C1529 1.363 . S
C1530 N1532 1.375 . S
C1530 H1548 0.931 . S
C1531 N1528 1.311 . S
C1531 N1532 1.347 . S
C1531 H1542 0.929 . S
N1532 C1530 1.375 . S
N1532 C1531 1.347 . S
C1533 C1536 1.365 . S
C1533 N1538 1.328 . S
C1533 H1539 0.929 . S
C1534 C1535 1.362 . S
C1534 C1537 1.378 . S
C1534 H1549 0.929 . S
C1535 C1534 1.362 . S
C1535 C1536 1.366 . S
C1536 C1533 1.365 . S
C1536 C1535 1.366 . S
C1536 H1550 0.930 . S
C1537 C1534 1.378 . S
C1537 N1538 1.315 . S
C1537 H1540 0.930 . S
N1538 Co1518 2.194 . S
N1538 C1533 1.328 . S
N1538 C1537 1.315 . S
H1539 C1533 0.929 . S
H1540 C1537 0.930 . S
H1541 C1529 0.929 . S
H1542 C1531 0.929 . S
O1543 Co1518 2.351 . S
O1543 C1546 1.244 . S
O1544 Co1518 2.155 . S
O1544 C1546 1.240 . S
O1545 Co1518 2.096 . S
O1545 C1526 1.247 . S
C1546 O1543 1.244 . S
C1546 O1544 1.240 . S
H1547 C1521 0.931 . S
H1548 C1530 0.931 . S
H1549 C1534 0.929 . S
H1550 C1536 0.930 . S
Co1551 N1555 2.148 . S
Co1551 N1561 2.128 . S
Co1551 N1571 2.194 . S
Co1551 O1576 2.351 . S
Co1551 O1577 2.155 . S
Co1551 O1578 2.096 . S
C1552 N1555 1.301 . S
C1552 N1556 1.328 . S
C1552 H1557 0.930 . S
C1553 C1554 1.333 . S
C1553 N1555 1.317 . S
C1553 H1558 0.930 . S
C1554 C1553 1.333 . S
C1554 N1556 1.350 . S
C1554 H1580 0.931 . S
N1555 Co1551 2.148 . S
N1555 C1552 1.301 . S
N1555 C1553 1.317 . S
N1556 C1552 1.328 . S
N1556 C1554 1.350 . S
H1557 C1552 0.930 . S
H1558 C1553 0.930 . S
C1559 O1560 1.224 . S
C1559 O1578 1.247 . S
O1560 C1559 1.224 . S
N1561 Co1551 2.128 . S
N1561 C1562 1.355 . S
N1561 C1564 1.311 . S
C1562 N1561 1.355 . S
C1562 C1563 1.363 . S
C1562 H1574 0.929 . S
C1563 C1562 1.363 . S
C1563 N1565 1.375 . S
C1563 H1581 0.931 . S
C1564 N1561 1.311 . S
C1564 N1565 1.347 . S
C1564 H1575 0.929 . S
N1565 C1563 1.375 . S
N1565 C1564 1.347 . S
C1566 C1569 1.365 . S
C1566 N1571 1.328 . S
C1566 H1572 0.929 . S
C1567 C1568 1.362 . S
C1567 C1570 1.378 . S
C1567 H1582 0.929 . S
C1568 C1567 1.362 . S
C1568 C1569 1.366 . S
C1569 C1566 1.365 . S
C1569 C1568 1.366 . S
C1569 H1583 0.930 . S
C1570 C1567 1.378 . S
C1570 N1571 1.315 . S
C1570 H1573 0.930 . S
N1571 Co1551 2.194 . S
N1571 C1566 1.328 . S
N1571 C1570 1.315 . S
H1572 C1566 0.929 . S
H1573 C1570 0.930 . S
H1574 C1562 0.929 . S
H1575 C1564 0.929 . S
O1576 Co1551 2.351 . S
O1576 C1579 1.244 . S
O1577 Co1551 2.155 . S
O1577 C1579 1.240 . S
O1578 Co1551 2.096 . S
O1578 C1559 1.247 . S
C1579 O1576 1.244 . S
C1579 O1577 1.240 . S
H1580 C1554 0.931 . S
H1581 C1563 0.931 . S
H1582 C1567 0.929 . S
H1583 C1569 0.930 . S
C1584 C1585 1.387 . S
C1584 H1588 0.950 . S
C1584 C1593 1.390 . S
C1585 C1584 1.387 . S
C1585 C1587 1.387 . S
H1586 C1593 0.950 . S
C1587 C1585 1.387 . S
C1587 C1589 1.390 . S
C1587 H1591 0.950 . S
H1588 C1584 0.950 . S
C1589 C1587 1.390 . S
C1589 C1590 1.387 . S
C1589 H1592 0.950 . S
C1590 C1589 1.387 . S
C1590 C1593 1.387 . S
H1591 C1587 0.950 . S
H1592 C1589 0.950 . S
C1593 C1584 1.390 . S
C1593 H1586 0.950 . S
C1593 C1590 1.387 . S
C1594 C1595 1.387 . S
C1594 H1598 0.950 . S
C1594 C1603 1.390 . S
C1595 C1594 1.387 . S
C1595 C1597 1.387 . S
H1596 C1603 0.950 . S
C1597 C1595 1.387 . S
C1597 C1599 1.390 . S
C1597 H1601 0.950 . S
H1598 C1594 0.950 . S
C1599 C1597 1.390 . S
C1599 C1600 1.387 . S
C1599 H1602 0.950 . S
C1600 C1599 1.387 . S
C1600 C1603 1.387 . S
H1601 C1597 0.950 . S
H1602 C1599 0.950 . S
C1603 C1594 1.390 . S
C1603 H1596 0.950 . S
C1603 C1600 1.387 . S
C1604 C1605 1.387 . S
C1604 H1608 0.950 . S
C1604 C1613 1.390 . S
C1605 C1604 1.387 . S
C1605 C1607 1.387 . S
H1606 C1613 0.950 . S
C1607 C1605 1.387 . S
C1607 C1609 1.390 . S
C1607 H1611 0.950 . S
H1608 C1604 0.950 . S
C1609 C1607 1.390 . S
C1609 C1610 1.387 . S
C1609 H1612 0.950 . S
C1610 C1609 1.387 . S
C1610 C1613 1.387 . S
H1611 C1607 0.950 . S
H1612 C1609 0.950 . S
C1613 C1604 1.390 . S
C1613 H1606 0.950 . S
C1613 C1610 1.387 . S
C1614 C1615 1.387 . S
C1614 H1618 0.950 . S
C1614 C1623 1.390 . S
C1615 C1614 1.387 . S
C1615 C1617 1.387 . S
H1616 C1623 0.950 . S
C1617 C1615 1.387 . S
C1617 C1619 1.390 . S
C1617 H1621 0.950 . S
H1618 C1614 0.950 . S
C1619 C1617 1.390 . S
C1619 C1620 1.387 . S
C1619 H1622 0.950 . S
C1620 C1619 1.387 . S
C1620 C1623 1.387 . S
H1621 C1617 0.950 . S
H1622 C1619 0.950 . S
C1623 C1614 1.390 . S
C1623 H1616 0.950 . S
C1623 C1620 1.387 . S
C1624 C1625 1.387 . S
C1624 H1628 0.950 . S
C1624 C1633 1.390 . S
C1625 C1624 1.387 . S
C1625 C1627 1.387 . S
H1626 C1633 0.950 . S
C1627 C1625 1.387 . S
C1627 C1629 1.390 . S
C1627 H1631 0.950 . S
H1628 C1624 0.950 . S
C1629 C1627 1.390 . S
C1629 C1630 1.387 . S
C1629 H1632 0.950 . S
C1630 C1629 1.387 . S
C1630 C1633 1.387 . S
H1631 C1627 0.950 . S
H1632 C1629 0.950 . S
C1633 C1624 1.390 . S
C1633 H1626 0.950 . S
C1633 C1630 1.387 . S
C1634 C1635 1.387 . S
C1634 H1638 0.950 . S
C1634 C1643 1.390 . S
C1635 C1634 1.387 . S
C1635 C1637 1.387 . S
H1636 C1643 0.950 . S
C1637 C1635 1.387 . S
C1637 C1639 1.390 . S
C1637 H1641 0.950 . S
H1638 C1634 0.950 . S
C1639 C1637 1.390 . S
C1639 C1640 1.387 . S
C1639 H1642 0.950 . S
C1640 C1639 1.387 . S
C1640 C1643 1.387 . S
H1641 C1637 0.950 . S
H1642 C1639 0.950 . S
C1643 C1634 1.390 . S
C1643 H1636 0.950 . S
C1643 C1640 1.387 . S
C1644 C1645 1.387 . S
C1644 H1648 0.950 . S
C1644 C1653 1.390 . S
C1645 C1644 1.387 . S
C1645 C1647 1.387 . S
H1646 C1653 0.950 . S
C1647 C1645 1.387 . S
C1647 C1649 1.390 . S
C1647 H1651 0.950 . S
H1648 C1644 0.950 . S
C1649 C1647 1.390 . S
C1649 C1650 1.387 . S
C1649 H1652 0.950 . S
C1650 C1649 1.387 . S
C1650 C1653 1.387 . S
H1651 C1647 0.950 . S
H1652 C1649 0.950 . S
C1653 C1644 1.390 . S
C1653 H1646 0.950 . S
C1653 C1650 1.387 . S
C1654 C1655 1.387 . S
C1654 H1658 0.950 . S
C1654 C1663 1.390 . S
C1655 C1654 1.387 . S
C1655 C1657 1.387 . S
H1656 C1663 0.950 . S
C1657 C1655 1.387 . S
C1657 C1659 1.390 . S
C1657 H1661 0.950 . S
H1658 C1654 0.950 . S
C1659 C1657 1.390 . S
C1659 C1660 1.387 . S
C1659 H1662 0.950 . S
C1660 C1659 1.387 . S
C1660 C1663 1.387 . S
H1661 C1657 0.950 . S
H1662 C1659 0.950 . S
C1663 C1654 1.390 . S
C1663 H1656 0.950 . S
C1663 C1660 1.387 . S
C1664 C1665 1.387 . S
C1664 H1668 0.950 . S
C1664 C1673 1.390 . S
C1665 C1664 1.387 . S
C1665 C1667 1.387 . S
H1666 C1673 0.950 . S
C1667 C1665 1.387 . S
C1667 C1669 1.390 . S
C1667 H1671 0.950 . S
H1668 C1664 0.950 . S
C1669 C1667 1.390 . S
C1669 C1670 1.387 . S
C1669 H1672 0.950 . S
C1670 C1669 1.387 . S
C1670 C1673 1.387 . S
H1671 C1667 0.950 . S
H1672 C1669 0.950 . S
C1673 C1664 1.390 . S
C1673 H1666 0.950 . S
C1673 C1670 1.387 . S
C1674 C1675 1.387 . S
C1674 H1678 0.950 . S
C1674 C1683 1.390 . S
C1675 C1674 1.387 . S
C1675 C1677 1.387 . S
H1676 C1683 0.950 . S
C1677 C1675 1.387 . S
C1677 C1679 1.390 . S
C1677 H1681 0.950 . S
H1678 C1674 0.950 . S
C1679 C1677 1.390 . S
C1679 C1680 1.387 . S
C1679 H1682 0.950 . S
C1680 C1679 1.387 . S
C1680 C1683 1.387 . S
H1681 C1677 0.950 . S
H1682 C1679 0.950 . S
C1683 C1674 1.390 . S
C1683 H1676 0.950 . S
C1683 C1680 1.387 . S
C1684 C1685 1.387 . S
C1684 H1688 0.950 . S
C1684 C1693 1.390 . S
C1685 C1684 1.387 . S
C1685 C1687 1.387 . S
H1686 C1693 0.950 . S
C1687 C1685 1.387 . S
C1687 C1689 1.390 . S
C1687 H1691 0.950 . S
H1688 C1684 0.950 . S
C1689 C1687 1.390 . S
C1689 C1690 1.387 . S
C1689 H1692 0.950 . S
C1690 C1689 1.387 . S
C1690 C1693 1.387 . S
H1691 C1687 0.950 . S
H1692 C1689 0.950 . S
C1693 C1684 1.390 . S
C1693 H1686 0.950 . S
C1693 C1690 1.387 . S
C1694 C1695 1.387 . S
C1694 H1698 0.950 . S
C1694 C1703 1.390 . S
C1695 C1694 1.387 . S
C1695 C1697 1.387 . S
H1696 C1703 0.950 . S
C1697 C1695 1.387 . S
C1697 C1699 1.390 . S
C1697 H1701 0.950 . S
H1698 C1694 0.950 . S
C1699 C1697 1.390 . S
C1699 C1700 1.387 . S
C1699 H1702 0.950 . S
C1700 C1699 1.387 . S
C1700 C1703 1.387 . S
H1701 C1697 0.950 . S
H1702 C1699 0.950 . S
C1703 C1694 1.390 . S
C1703 H1696 0.950 . S
C1703 C1700 1.387 . S
C1704 C1705 1.387 . S
C1704 H1708 0.950 . S
C1704 C1713 1.390 . S
C1705 C1704 1.387 . S
C1705 C1707 1.387 . S
H1706 C1713 0.950 . S
C1707 C1705 1.387 . S
C1707 C1709 1.390 . S
C1707 H1711 0.950 . S
H1708 C1704 0.950 . S
C1709 C1707 1.390 . S
C1709 C1710 1.387 . S
C1709 H1712 0.950 . S
C1710 C1709 1.387 . S
C1710 C1713 1.387 . S
H1711 C1707 0.950 . S
H1712 C1709 0.950 . S
C1713 C1704 1.390 . S
C1713 H1706 0.950 . S
C1713 C1710 1.387 . S
C1714 C1715 1.387 . S
C1714 H1718 0.950 . S
C1714 C1723 1.390 . S
C1715 C1714 1.387 . S
C1715 C1717 1.387 . S
H1716 C1723 0.950 . S
C1717 C1715 1.387 . S
C1717 C1719 1.390 . S
C1717 H1721 0.950 . S
H1718 C1714 0.950 . S
C1719 C1717 1.390 . S
C1719 C1720 1.387 . S
C1719 H1722 0.950 . S
C1720 C1719 1.387 . S
C1720 C1723 1.387 . S
H1721 C1717 0.950 . S
H1722 C1719 0.950 . S
C1723 C1714 1.390 . S
C1723 H1716 0.950 . S
C1723 C1720 1.387 . S
C1724 C1725 1.387 . S
C1724 H1728 0.950 . S
C1724 C1733 1.390 . S
C1725 C1724 1.387 . S
C1725 C1727 1.387 . S
H1726 C1733 0.950 . S
C1727 C1725 1.387 . S
C1727 C1729 1.390 . S
C1727 H1731 0.950 . S
H1728 C1724 0.950 . S
C1729 C1727 1.390 . S
C1729 C1730 1.387 . S
C1729 H1732 0.950 . S
C1730 C1729 1.387 . S
C1730 C1733 1.387 . S
H1731 C1727 0.950 . S
H1732 C1729 0.950 . S
C1733 C1724 1.390 . S
C1733 H1726 0.950 . S
C1733 C1730 1.387 . S
C1734 C1735 1.387 . S
C1734 H1738 0.950 . S
C1734 C1743 1.390 . S
C1735 C1734 1.387 . S
C1735 C1737 1.387 . S
H1736 C1743 0.950 . S
C1737 C1735 1.387 . S
C1737 C1739 1.390 . S
C1737 H1741 0.950 . S
H1738 C1734 0.950 . S
C1739 C1737 1.390 . S
C1739 C1740 1.387 . S
C1739 H1742 0.950 . S
C1740 C1739 1.387 . S
C1740 C1743 1.387 . S
H1741 C1737 0.950 . S
H1742 C1739 0.950 . S
C1743 C1734 1.390 . S
C1743 H1736 0.950 . S
C1743 C1740 1.387 . S
C1744 C1745 1.387 . S
C1744 H1748 0.950 . S
C1744 C1753 1.390 . S
C1745 C1744 1.387 . S
C1745 C1747 1.387 . S
H1746 C1753 0.950 . S
C1747 C1745 1.387 . S
C1747 C1749 1.390 . S
C1747 H1751 0.950 . S
H1748 C1744 0.950 . S
C1749 C1747 1.390 . S
C1749 C1750 1.387 . S
C1749 H1752 0.950 . S
C1750 C1749 1.387 . S
C1750 C1753 1.387 . S
H1751 C1747 0.950 . S
H1752 C1749 0.950 . S
C1753 C1744 1.390 . S
C1753 H1746 0.950 . S
C1753 C1750 1.387 . S
C1754 C1755 1.387 . S
C1754 H1758 0.950 . S
C1754 C1763 1.390 . S
C1755 C1754 1.387 . S
C1755 C1757 1.387 . S
H1756 C1763 0.950 . S
C1757 C1755 1.387 . S
C1757 C1759 1.390 . S
C1757 H1761 0.950 . S
H1758 C1754 0.950 . S
C1759 C1757 1.390 . S
C1759 C1760 1.387 . S
C1759 H1762 0.950 . S
C1760 C1759 1.387 . S
C1760 C1763 1.387 . S
H1761 C1757 0.950 . S
H1762 C1759 0.950 . S
C1763 C1754 1.390 . S
C1763 H1756 0.950 . S
C1763 C1760 1.387 . S
C1764 C1765 1.387 . S
C1764 H1768 0.950 . S
C1764 C1773 1.390 . S
C1765 C1764 1.387 . S
C1765 C1767 1.387 . S
H1766 C1773 0.950 . S
C1767 C1765 1.387 . S
C1767 C1769 1.390 . S
C1767 H1771 0.950 . S
H1768 C1764 0.950 . S
C1769 C1767 1.390 . S
C1769 C1770 1.387 . S
C1769 H1772 0.950 . S
C1770 C1769 1.387 . S
C1770 C1773 1.387 . S
H1771 C1767 0.950 . S
H1772 C1769 0.950 . S
C1773 C1764 1.390 . S
C1773 H1766 0.950 . S
C1773 C1770 1.387 . S
C1774 C1775 1.387 . S
C1774 H1778 0.950 . S
C1774 C1783 1.390 . S
C1775 C1774 1.387 . S
C1775 C1777 1.387 . S
H1776 C1783 0.950 . S
C1777 C1775 1.387 . S
C1777 C1779 1.390 . S
C1777 H1781 0.950 . S
H1778 C1774 0.950 . S
C1779 C1777 1.390 . S
C1779 C1780 1.387 . S
C1779 H1782 0.950 . S
C1780 C1779 1.387 . S
C1780 C1783 1.387 . S
H1781 C1777 0.950 . S
H1782 C1779 0.950 . S
C1783 C1774 1.390 . S
C1783 H1776 0.950 . S
C1783 C1780 1.387 . S
C1784 C1785 1.387 . S
C1784 H1788 0.950 . S
C1784 C1793 1.390 . S
C1785 C1784 1.387 . S
C1785 C1787 1.387 . S
H1786 C1793 0.950 . S
C1787 C1785 1.387 . S
C1787 C1789 1.390 . S
C1787 H1791 0.950 . S
H1788 C1784 0.950 . S
C1789 C1787 1.390 . S
C1789 C1790 1.387 . S
C1789 H1792 0.950 . S
C1790 C1789 1.387 . S
C1790 C1793 1.387 . S
H1791 C1787 0.950 . S
H1792 C1789 0.950 . S
C1793 C1784 1.390 . S
C1793 H1786 0.950 . S
C1793 C1790 1.387 . S
C1794 C1795 1.387 . S
C1794 H1798 0.950 . S
C1794 C1803 1.390 . S
C1795 C1794 1.387 . S
C1795 C1797 1.387 . S
H1796 C1803 0.950 . S
C1797 C1795 1.387 . S
C1797 C1799 1.390 . S
C1797 H1801 0.950 . S
H1798 C1794 0.950 . S
C1799 C1797 1.390 . S
C1799 C1800 1.387 . S
C1799 H1802 0.950 . S
C1800 C1799 1.387 . S
C1800 C1803 1.387 . S
H1801 C1797 0.950 . S
H1802 C1799 0.950 . S
C1803 C1794 1.390 . S
C1803 H1796 0.950 . S
C1803 C1800 1.387 . S
C1804 C1805 1.387 . S
C1804 H1808 0.950 . S
C1804 C1813 1.390 . S
C1805 C1804 1.387 . S
C1805 C1807 1.387 . S
H1806 C1813 0.950 . S
C1807 C1805 1.387 . S
C1807 C1809 1.390 . S
C1807 H1811 0.950 . S
H1808 C1804 0.950 . S
C1809 C1807 1.390 . S
C1809 C1810 1.387 . S
C1809 H1812 0.950 . S
C1810 C1809 1.387 . S
C1810 C1813 1.387 . S
H1811 C1807 0.950 . S
H1812 C1809 0.950 . S
C1813 C1804 1.390 . S
C1813 H1806 0.950 . S
C1813 C1810 1.387 . S
C1814 C1815 1.387 . S
C1814 H1818 0.950 . S
C1814 C1823 1.390 . S
C1815 C1814 1.387 . S
C1815 C1817 1.387 . S
H1816 C1823 0.950 . S
C1817 C1815 1.387 . S
C1817 C1819 1.390 . S
C1817 H1821 0.950 . S
H1818 C1814 0.950 . S
C1819 C1817 1.390 . S
C1819 C1820 1.387 . S
C1819 H1822 0.950 . S
C1820 C1819 1.387 . S
C1820 C1823 1.387 . S
H1821 C1817 0.950 . S
H1822 C1819 0.950 . S
C1823 C1814 1.390 . S
C1823 H1816 0.950 . S
C1823 C1820 1.387 . S
C1824 C1825 1.387 . S
C1824 H1828 0.950 . S
C1824 C1833 1.390 . S
C1825 C1824 1.387 . S
C1825 C1827 1.387 . S
H1826 C1833 0.950 . S
C1827 C1825 1.387 . S
C1827 C1829 1.390 . S
C1827 H1831 0.950 . S
H1828 C1824 0.950 . S
C1829 C1827 1.390 . S
C1829 C1830 1.387 . S
C1829 H1832 0.950 . S
C1830 C1829 1.387 . S
C1830 C1833 1.387 . S
H1831 C1827 0.950 . S
H1832 C1829 0.950 . S
C1833 C1824 1.390 . S
C1833 H1826 0.950 . S
C1833 C1830 1.387 . S
C1834 C1835 1.387 . S
C1834 H1838 0.950 . S
C1834 C1843 1.390 . S
C1835 C1834 1.387 . S
C1835 C1837 1.387 . S
H1836 C1843 0.950 . S
C1837 C1835 1.387 . S
C1837 C1839 1.390 . S
C1837 H1841 0.950 . S
H1838 C1834 0.950 . S
C1839 C1837 1.390 . S
C1839 C1840 1.387 . S
C1839 H1842 0.950 . S
C1840 C1839 1.387 . S
C1840 C1843 1.387 . S
H1841 C1837 0.950 . S
H1842 C1839 0.950 . S
C1843 C1834 1.390 . S
C1843 H1836 0.950 . S
C1843 C1840 1.387 . S
C1844 C1845 1.387 . S
C1844 H1848 0.950 . S
C1844 C1853 1.390 . S
C1845 C1844 1.387 . S
C1845 C1847 1.387 . S
H1846 C1853 0.950 . S
C1847 C1845 1.387 . S
C1847 C1849 1.390 . S
C1847 H1851 0.950 . S
H1848 C1844 0.950 . S
C1849 C1847 1.390 . S
C1849 C1850 1.387 . S
C1849 H1852 0.950 . S
C1850 C1849 1.387 . S
C1850 C1853 1.387 . S
H1851 C1847 0.950 . S
H1852 C1849 0.950 . S
C1853 C1844 1.390 . S
C1853 H1846 0.950 . S
C1853 C1850 1.387 . S
C1854 C1855 1.387 . S
C1854 H1858 0.950 . S
C1854 C1863 1.390 . S
C1855 C1854 1.387 . S
C1855 C1857 1.387 . S
H1856 C1863 0.950 . S
C1857 C1855 1.387 . S
C1857 C1859 1.390 . S
C1857 H1861 0.950 . S
H1858 C1854 0.950 . S
C1859 C1857 1.390 . S
C1859 C1860 1.387 . S
C1859 H1862 0.950 . S
C1860 C1859 1.387 . S
C1860 C1863 1.387 . S
H1861 C1857 0.950 . S
H1862 C1859 0.950 . S
C1863 C1854 1.390 . S
C1863 H1856 0.950 . S
C1863 C1860 1.387 . S
C1864 C1865 1.387 . S
C1864 H1868 0.950 . S
C1864 C1873 1.390 . S
C1865 C1864 1.387 . S
C1865 C1867 1.387 . S
H1866 C1873 0.950 . S
C1867 C1865 1.387 . S
C1867 C1869 1.390 . S
C1867 H1871 0.950 . S
H1868 C1864 0.950 . S
C1869 C1867 1.390 . S
C1869 C1870 1.387 . S
C1869 H1872 0.950 . S
C1870 C1869 1.387 . S
C1870 C1873 1.387 . S
H1871 C1867 0.950 . S
H1872 C1869 0.950 . S
C1873 C1864 1.390 . S
C1873 H1866 0.950 . S
C1873 C1870 1.387 . S
C1874 C1875 1.387 . S
C1874 H1878 0.950 . S
C1874 C1883 1.390 . S
C1875 C1874 1.387 . S
C1875 C1877 1.387 . S
H1876 C1883 0.950 . S
C1877 C1875 1.387 . S
C1877 C1879 1.390 . S
C1877 H1881 0.950 . S
H1878 C1874 0.950 . S
C1879 C1877 1.390 . S
C1879 C1880 1.387 . S
C1879 H1882 0.950 . S
C1880 C1879 1.387 . S
C1880 C1883 1.387 . S
H1881 C1877 0.950 . S
H1882 C1879 0.950 . S
C1883 C1874 1.390 . S
C1883 H1876 0.950 . S
C1883 C1880 1.387 . S
C1884 C1885 1.387 . S
C1884 H1888 0.950 . S
C1884 C1893 1.390 . S
C1885 C1884 1.387 . S
C1885 C1887 1.387 . S
H1886 C1893 0.950 . S
C1887 C1885 1.387 . S
C1887 C1889 1.390 . S
C1887 H1891 0.950 . S
H1888 C1884 0.950 . S
C1889 C1887 1.390 . S
C1889 C1890 1.387 . S
C1889 H1892 0.950 . S
C1890 C1889 1.387 . S
C1890 C1893 1.387 . S
H1891 C1887 0.950 . S
H1892 C1889 0.950 . S
C1893 C1884 1.390 . S
C1893 H1886 0.950 . S
C1893 C1890 1.387 . S
C1894 C1895 1.387 . S
C1894 H1898 0.950 . S
C1894 C1903 1.390 . S
C1895 C1894 1.387 . S
C1895 C1897 1.387 . S
H1896 C1903 0.950 . S
C1897 C1895 1.387 . S
C1897 C1899 1.390 . S
C1897 H1901 0.950 . S
H1898 C1894 0.950 . S
C1899 C1897 1.390 . S
C1899 C1900 1.387 . S
C1899 H1902 0.950 . S
C1900 C1899 1.387 . S
C1900 C1903 1.387 . S
H1901 C1897 0.950 . S
H1902 C1899 0.950 . S
C1903 C1894 1.390 . S
C1903 H1896 0.950 . S
C1903 C1900 1.387 . S
C1904 C1905 1.387 . S
C1904 H1908 0.950 . S
C1904 C1913 1.390 . S
C1905 C1904 1.387 . S
C1905 C1907 1.387 . S
H1906 C1913 0.950 . S
C1907 C1905 1.387 . S
C1907 C1909 1.390 . S
C1907 H1911 0.950 . S
H1908 C1904 0.950 . S
C1909 C1907 1.390 . S
C1909 C1910 1.387 . S
C1909 H1912 0.950 . S
C1910 C1909 1.387 . S
C1910 C1913 1.387 . S
H1911 C1907 0.950 . S
H1912 C1909 0.950 . S
C1913 C1904 1.390 . S
C1913 H1906 0.950 . S
C1913 C1910 1.387 . S
C1914 C1915 1.387 . S
C1914 H1918 0.950 . S
C1914 C1923 1.390 . S
C1915 C1914 1.387 . S
C1915 C1917 1.387 . S
H1916 C1923 0.950 . S
C1917 C1915 1.387 . S
C1917 C1919 1.390 . S
C1917 H1921 0.950 . S
H1918 C1914 0.950 . S
C1919 C1917 1.390 . S
C1919 C1920 1.387 . S
C1919 H1922 0.950 . S
C1920 C1919 1.387 . S
C1920 C1923 1.387 . S
H1921 C1917 0.950 . S
H1922 C1919 0.950 . S
C1923 C1914 1.390 . S
C1923 H1916 0.950 . S
C1923 C1920 1.387 . S
C1924 C1925 1.387 . S
C1924 H1928 0.950 . S
C1924 C1933 1.390 . S
C1925 C1924 1.387 . S
C1925 C1927 1.387 . S
H1926 C1933 0.950 . S
C1927 C1925 1.387 . S
C1927 C1929 1.390 . S
C1927 H1931 0.950 . S
H1928 C1924 0.950 . S
C1929 C1927 1.390 . S
C1929 C1930 1.387 . S
C1929 H1932 0.950 . S
C1930 C1929 1.387 . S
C1930 C1933 1.387 . S
H1931 C1927 0.950 . S
H1932 C1929 0.950 . S
C1933 C1924 1.390 . S
C1933 H1926 0.950 . S
C1933 C1930 1.387 . S
C1934 C1935 1.387 . S
C1934 H1938 0.950 . S
C1934 C1943 1.390 . S
C1935 C1934 1.387 . S
C1935 C1937 1.387 . S
H1936 C1943 0.950 . S
C1937 C1935 1.387 . S
C1937 C1939 1.390 . S
C1937 H1941 0.950 . S
H1938 C1934 0.950 . S
C1939 C1937 1.390 . S
C1939 C1940 1.387 . S
C1939 H1942 0.950 . S
C1940 C1939 1.387 . S
C1940 C1943 1.387 . S
H1941 C1937 0.950 . S
H1942 C1939 0.950 . S
C1943 C1934 1.390 . S
C1943 H1936 0.950 . S
C1943 C1940 1.387 . S
C1944 C1945 1.387 . S
C1944 H1948 0.950 . S
C1944 C1953 1.390 . S
C1945 C1944 1.387 . S
C1945 C1947 1.387 . S
H1946 C1953 0.950 . S
C1947 C1945 1.387 . S
C1947 C1949 1.390 . S
C1947 H1951 0.950 . S
H1948 C1944 0.950 . S
C1949 C1947 1.390 . S
C1949 C1950 1.387 . S
C1949 H1952 0.950 . S
C1950 C1949 1.387 . S
C1950 C1953 1.387 . S
H1951 C1947 0.950 . S
H1952 C1949 0.950 . S
C1953 C1944 1.390 . S
C1953 H1946 0.950 . S
C1953 C1950 1.387 . S
C1954 C1955 1.387 . S
C1954 H1958 0.950 . S
C1954 C1963 1.390 . S
C1955 C1954 1.387 . S
C1955 C1957 1.387 . S
H1956 C1963 0.950 . S
C1957 C1955 1.387 . S
C1957 C1959 1.390 . S
C1957 H1961 0.950 . S
H1958 C1954 0.950 . S
C1959 C1957 1.390 . S
C1959 C1960 1.387 . S
C1959 H1962 0.950 . S
C1960 C1959 1.387 . S
C1960 C1963 1.387 . S
H1961 C1957 0.950 . S
H1962 C1959 0.950 . S
C1963 C1954 1.390 . S
C1963 H1956 0.950 . S
C1963 C1960 1.387 . S
C1964 C1965 1.387 . S
C1964 H1968 0.950 . S
C1964 C1973 1.390 . S
C1965 C1964 1.387 . S
C1965 C1967 1.387 . S
H1966 C1973 0.950 . S
C1967 C1965 1.387 . S
C1967 C1969 1.390 . S
C1967 H1971 0.950 . S
H1968 C1964 0.950 . S
C1969 C1967 1.390 . S
C1969 C1970 1.387 . S
C1969 H1972 0.950 . S
C1970 C1969 1.387 . S
C1970 C1973 1.387 . S
H1971 C1967 0.950 . S
H1972 C1969 0.950 . S
C1973 C1964 1.390 . S
C1973 H1966 0.950 . S
C1973 C1970 1.387 . S
C1974 C1975 1.387 . S
C1974 H1978 0.950 . S
C1974 C1983 1.390 . S
C1975 C1974 1.387 . S
C1975 C1977 1.387 . S
H1976 C1983 0.950 . S
C1977 C1975 1.387 . S
C1977 C1979 1.390 . S
C1977 H1981 0.950 . S
H1978 C1974 0.950 . S
C1979 C1977 1.390 . S
C1979 C1980 1.387 . S
C1979 H1982 0.950 . S
C1980 C1979 1.387 . S
C1980 C1983 1.387 . S
H1981 C1977 0.950 . S
H1982 C1979 0.950 . S
C1983 C1974 1.390 . S
C1983 H1976 0.950 . S
C1983 C1980 1.387 . S
C1984 C1985 1.387 . S
C1984 H1988 0.950 . S
C1984 C1993 1.390 . S
C1985 C1984 1.387 . S
C1985 C1987 1.387 . S
H1986 C1993 0.950 . S
C1987 C1985 1.387 . S
C1987 C1989 1.390 . S
C1987 H1991 0.950 . S
H1988 C1984 0.950 . S
C1989 C1987 1.390 . S
C1989 C1990 1.387 . S
C1989 H1992 0.950 . S
C1990 C1989 1.387 . S
C1990 C1993 1.387 . S
H1991 C1987 0.950 . S
H1992 C1989 0.950 . S
C1993 C1984 1.390 . S
C1993 H1986 0.950 . S
C1993 C1990 1.387 . S
C1994 C1995 1.387 . S
C1994 H1998 0.950 . S
C1994 C2003 1.390 . S
C1995 C1994 1.387 . S
C1995 C1997 1.387 . S
H1996 C2003 0.950 . S
C1997 C1995 1.387 . S
C1997 C1999 1.390 . S
C1997 H2001 0.950 . S
H1998 C1994 0.950 . S
C1999 C1997 1.390 . S
C1999 C2000 1.387 . S
C1999 H2002 0.950 . S
C2000 C1999 1.387 . S
C2000 C2003 1.387 . S
H2001 C1997 0.950 . S
H2002 C1999 0.950 . S
C2003 C1994 1.390 . S
C2003 H1996 0.950 . S
C2003 C2000 1.387 . S
C2004 C2005 1.387 . S
C2004 H2008 0.950 . S
C2004 C2013 1.390 . S
C2005 C2004 1.387 . S
C2005 C2007 1.387 . S
H2006 C2013 0.950 . S
C2007 C2005 1.387 . S
C2007 C2009 1.390 . S
C2007 H2011 0.950 . S
H2008 C2004 0.950 . S
C2009 C2007 1.390 . S
C2009 C2010 1.387 . S
C2009 H2012 0.950 . S
C2010 C2009 1.387 . S
C2010 C2013 1.387 . S
H2011 C2007 0.950 . S
H2012 C2009 0.950 . S
C2013 C2004 1.390 . S
C2013 H2006 0.950 . S
C2013 C2010 1.387 . S
C2014 C2015 1.387 . S
C2014 H2018 0.950 . S
C2014 C2023 1.390 . S
C2015 C2014 1.387 . S
C2015 C2017 1.387 . S
H2016 C2023 0.950 . S
C2017 C2015 1.387 . S
C2017 C2019 1.390 . S
C2017 H2021 0.950 . S
H2018 C2014 0.950 . S
C2019 C2017 1.390 . S
C2019 C2020 1.387 . S
C2019 H2022 0.950 . S
C2020 C2019 1.387 . S
C2020 C2023 1.387 . S
H2021 C2017 0.950 . S
H2022 C2019 0.950 . S
C2023 C2014 1.390 . S
C2023 H2016 0.950 . S
C2023 C2020 1.387 . S
C2024 C2025 1.387 . S
C2024 H2028 0.950 . S
C2024 C2033 1.390 . S
C2025 C2024 1.387 . S
C2025 C2027 1.387 . S
H2026 C2033 0.950 . S
C2027 C2025 1.387 . S
C2027 C2029 1.390 . S
C2027 H2031 0.950 . S
H2028 C2024 0.950 . S
C2029 C2027 1.390 . S
C2029 C2030 1.387 . S
C2029 H2032 0.950 . S
C2030 C2029 1.387 . S
C2030 C2033 1.387 . S
H2031 C2027 0.950 . S
H2032 C2029 0.950 . S
C2033 C2024 1.390 . S
C2033 H2026 0.950 . S
C2033 C2030 1.387 . S
C2034 C2035 1.387 . S
C2034 H2038 0.950 . S
C2034 C2043 1.390 . S
C2035 C2034 1.387 . S
C2035 C2037 1.387 . S
H2036 C2043 0.950 . S
C2037 C2035 1.387 . S
C2037 C2039 1.390 . S
C2037 H2041 0.950 . S
H2038 C2034 0.950 . S
C2039 C2037 1.390 . S
C2039 C2040 1.387 . S
C2039 H2042 0.950 . S
C2040 C2039 1.387 . S
C2040 C2043 1.387 . S
H2041 C2037 0.950 . S
H2042 C2039 0.950 . S
C2043 C2034 1.390 . S
C2043 H2036 0.950 . S
C2043 C2040 1.387 . S
C2044 C2045 1.387 . S
C2044 H2048 0.950 . S
C2044 C2053 1.390 . S
C2045 C2044 1.387 . S
C2045 C2047 1.387 . S
H2046 C2053 0.950 . S
C2047 C2045 1.387 . S
C2047 C2049 1.390 . S
C2047 H2051 0.950 . S
H2048 C2044 0.950 . S
C2049 C2047 1.390 . S
C2049 C2050 1.387 . S
C2049 H2052 0.950 . S
C2050 C2049 1.387 . S
C2050 C2053 1.387 . S
H2051 C2047 0.950 . S
H2052 C2049 0.950 . S
C2053 C2044 1.390 . S
C2053 H2046 0.950 . S
C2053 C2050 1.387 . S
C2054 C2055 1.387 . S
C2054 H2058 0.950 . S
C2054 C2063 1.390 . S
C2055 C2054 1.387 . S
C2055 C2057 1.387 . S
H2056 C2063 0.950 . S
C2057 C2055 1.387 . S
C2057 C2059 1.390 . S
C2057 H2061 0.950 . S
H2058 C2054 0.950 . S
C2059 C2057 1.390 . S
C2059 C2060 1.387 . S
C2059 H2062 0.950 . S
C2060 C2059 1.387 . S
C2060 C2063 1.387 . S
H2061 C2057 0.950 . S
H2062 C2059 0.950 . S
C2063 C2054 1.390 . S
C2063 H2056 0.950 . S
C2063 C2060 1.387 . S
C2064 C2065 1.387 . S
C2064 H2068 0.950 . S
C2064 C2073 1.390 1_455 S
C2065 C2064 1.387 . S
C2065 C2067 1.387 . S
H2066 C2073 0.950 . S
C2067 C2065 1.387 . S
C2067 C2069 1.390 1_455 S
C2067 H2071 0.950 . S
H2068 C2064 0.950 . S
C2069 C2067 1.390 1_655 S
C2069 C2070 1.387 . S
C2069 H2072 0.950 . S
C2070 C2069 1.387 . S
C2070 C2073 1.387 . S
H2071 C2067 0.950 . S
H2072 C2069 0.950 . S
C2073 C2064 1.390 1_655 S
C2073 H2066 0.950 . S
C2073 C2070 1.387 . S
C2074 C2075 1.387 . S
C2074 H2078 0.950 . S
C2074 C2083 1.390 1_655 S
C2075 C2074 1.387 . S
C2075 C2077 1.387 . S
H2076 C2083 0.950 . S
C2077 C2075 1.387 . S
C2077 C2079 1.390 1_655 S
C2077 H2081 0.950 . S
H2078 C2074 0.950 . S
C2079 C2077 1.390 1_455 S
C2079 C2080 1.387 . S
C2079 H2082 0.950 . S
C2080 C2079 1.387 . S
C2080 C2083 1.387 . S
H2081 C2077 0.950 . S
H2082 C2079 0.950 . S
C2083 C2074 1.390 1_455 S
C2083 H2076 0.950 . S
C2083 C2080 1.387 . S
C2084 C2085 1.387 . S
C2084 H2088 0.950 . S
C2084 C2093 1.390 1_545 S
C2085 C2084 1.387 . S
C2085 C2087 1.387 . S
H2086 C2093 0.950 . S
C2087 C2085 1.387 . S
C2087 C2089 1.390 1_545 S
C2087 H2091 0.950 . S
H2088 C2084 0.950 . S
C2089 C2087 1.390 1_565 S
C2089 C2090 1.387 . S
C2089 H2092 0.950 . S
C2090 C2089 1.387 . S
C2090 C2093 1.387 . S
H2091 C2087 0.950 . S
H2092 C2089 0.950 . S
C2093 C2084 1.390 1_565 S
C2093 H2086 0.950 . S
C2093 C2090 1.387 . S
C2094 C2095 1.387 . S
C2094 H2098 0.950 . S
C2094 C2103 1.390 . S
C2095 C2094 1.387 . S
C2095 C2097 1.387 . S
H2096 C2103 0.950 . S
C2097 C2095 1.387 . S
C2097 C2099 1.390 . S
C2097 H2101 0.950 . S
H2098 C2094 0.950 . S
C2099 C2097 1.390 . S
C2099 C2100 1.387 . S
C2099 H2102 0.950 . S
C2100 C2099 1.387 . S
C2100 C2103 1.387 . S
H2101 C2097 0.950 . S
H2102 C2099 0.950 . S
C2103 C2094 1.390 . S
C2103 H2096 0.950 . S
C2103 C2100 1.387 . S
C2104 C2105 1.387 . S
C2104 H2108 0.950 . S
C2104 C2113 1.390 1_556 S
C2105 C2104 1.387 . S
C2105 C2107 1.387 . S
H2106 C2113 0.950 . S
C2107 C2105 1.387 . S
C2107 C2109 1.390 1_556 S
C2107 H2111 0.950 . S
H2108 C2104 0.950 . S
C2109 C2107 1.390 1_554 S
C2109 C2110 1.387 . S
C2109 H2112 0.950 . S
C2110 C2109 1.387 . S
C2110 C2113 1.387 . S
H2111 C2107 0.950 . S
H2112 C2109 0.950 . S
C2113 C2104 1.390 1_554 S
C2113 H2106 0.950 . S
C2113 C2110 1.387 . S
C2114 C2115 1.387 . S
C2114 H2118 0.950 . S
C2114 C2123 1.390 . S
C2115 C2114 1.387 . S
C2115 C2117 1.387 . S
H2116 C2123 0.950 . S
C2117 C2115 1.387 . S
C2117 C2119 1.390 . S
C2117 H2121 0.950 . S
H2118 C2114 0.950 . S
C2119 C2117 1.390 . S
C2119 C2120 1.387 . S
C2119 H2122 0.950 . S
C2120 C2119 1.387 . S
C2120 C2123 1.387 . S
H2121 C2117 0.950 . S
H2122 C2119 0.950 . S
C2123 C2114 1.390 . S
C2123 H2116 0.950 . S
C2123 C2120 1.387 . S
C2124 C2125 1.387 . S
C2124 H2128 0.950 . S
C2124 C2133 1.390 . S
C2125 C2124 1.387 . S
C2125 C2127 1.387 . S
H2126 C2133 0.950 . S
C2127 C2125 1.387 . S
C2127 C2129 1.390 . S
C2127 H2131 0.950 . S
H2128 C2124 0.950 . S
C2129 C2127 1.390 . S
C2129 C2130 1.387 . S
C2129 H2132 0.950 . S
C2130 C2129 1.387 . S
C2130 C2133 1.387 . S
H2131 C2127 0.950 . S
H2132 C2129 0.950 . S
C2133 C2124 1.390 . S
C2133 H2126 0.950 . S
C2133 C2130 1.387 . S
C2134 C2135 1.387 . S
C2134 H2138 0.950 . S
C2134 C2143 1.390 1_655 S
C2135 C2134 1.387 . S
C2135 C2137 1.387 . S
H2136 C2143 0.950 . S
C2137 C2135 1.387 . S
C2137 C2139 1.390 1_655 S
C2137 H2141 0.950 . S
H2138 C2134 0.950 . S
C2139 C2137 1.390 1_455 S
C2139 C2140 1.387 . S
C2139 H2142 0.950 . S
C2140 C2139 1.387 . S
C2140 C2143 1.387 . S
H2141 C2137 0.950 . S
H2142 C2139 0.950 . S
C2143 C2134 1.390 1_455 S
C2143 H2136 0.950 . S
C2143 C2140 1.387 . S
C2144 C2145 1.387 . S
C2144 H2148 0.950 . S
C2144 C2153 1.390 1_655 S
C2145 C2144 1.387 . S
C2145 C2147 1.387 . S
H2146 C2153 0.950 . S
C2147 C2145 1.387 . S
C2147 C2149 1.390 1_655 S
C2147 H2151 0.950 . S
H2148 C2144 0.950 . S
C2149 C2147 1.390 1_455 S
C2149 C2150 1.387 . S
C2149 H2152 0.950 . S
C2150 C2149 1.387 . S
C2150 C2153 1.387 . S
H2151 C2147 0.950 . S
H2152 C2149 0.950 . S
C2153 C2144 1.390 1_455 S
C2153 H2146 0.950 . S
C2153 C2150 1.387 . S
C2154 C2155 1.387 . S
C2154 H2158 0.950 . S
C2154 C2163 1.390 1_545 S
C2155 C2154 1.387 . S
C2155 C2157 1.387 . S
H2156 C2163 0.950 . S
C2157 C2155 1.387 . S
C2157 C2159 1.390 1_545 S
C2157 H2161 0.950 . S
H2158 C2154 0.950 . S
C2159 C2157 1.390 1_565 S
C2159 C2160 1.387 . S
C2159 H2162 0.950 . S
C2160 C2159 1.387 . S
C2160 C2163 1.387 . S
H2161 C2157 0.950 . S
H2162 C2159 0.950 . S
C2163 C2154 1.390 1_565 S
C2163 H2156 0.950 . S
C2163 C2160 1.387 . S
C2164 C2165 1.387 . S
C2164 H2168 0.950 . S
C2164 C2173 1.390 . S
C2165 C2164 1.387 . S
C2165 C2167 1.387 . S
H2166 C2173 0.950 . S
C2167 C2165 1.387 . S
C2167 C2169 1.390 . S
C2167 H2171 0.950 . S
H2168 C2164 0.950 . S
C2169 C2167 1.390 . S
C2169 C2170 1.387 . S
C2169 H2172 0.950 . S
C2170 C2169 1.387 . S
C2170 C2173 1.387 . S
H2171 C2167 0.950 . S
H2172 C2169 0.950 . S
C2173 C2164 1.390 . S
C2173 H2166 0.950 . S
C2173 C2170 1.387 . S
C2174 C2175 1.387 . S
C2174 H2178 0.950 . S
C2174 C2183 1.390 1_556 S
C2175 C2174 1.387 . S
C2175 C2177 1.387 . S
H2176 C2183 0.950 . S
C2177 C2175 1.387 . S
C2177 C2179 1.390 1_556 S
C2177 H2181 0.950 . S
H2178 C2174 0.950 . S
C2179 C2177 1.390 1_554 S
C2179 C2180 1.387 . S
C2179 H2182 0.950 . S
C2180 C2179 1.387 . S
C2180 C2183 1.387 . S
H2181 C2177 0.950 . S
H2182 C2179 0.950 . S
C2183 C2174 1.390 1_554 S
C2183 H2176 0.950 . S
C2183 C2180 1.387 . S
C2184 C2185 1.387 . S
C2184 H2188 0.950 . S
C2184 C2193 1.390 . S
C2185 C2184 1.387 . S
C2185 C2187 1.387 . S
H2186 C2193 0.950 . S
C2187 C2185 1.387 . S
C2187 C2189 1.390 . S
C2187 H2191 0.950 . S
H2188 C2184 0.950 . S
C2189 C2187 1.390 . S
C2189 C2190 1.387 . S
C2189 H2192 0.950 . S
C2190 C2189 1.387 . S
C2190 C2193 1.387 . S
H2191 C2187 0.950 . S
H2192 C2189 0.950 . S
C2193 C2184 1.390 . S
C2193 H2186 0.950 . S
C2193 C2190 1.387 . S
C2194 C2195 1.387 . S
C2194 H2198 0.950 . S
C2194 C2203 1.390 . S
C2195 C2194 1.387 . S
C2195 C2197 1.387 . S
H2196 C2203 0.950 . S
C2197 C2195 1.387 . S
C2197 C2199 1.390 . S
C2197 H2201 0.950 . S
H2198 C2194 0.950 . S
C2199 C2197 1.390 . S
C2199 C2200 1.387 . S
C2199 H2202 0.950 . S
C2200 C2199 1.387 . S
C2200 C2203 1.387 . S
H2201 C2197 0.950 . S
H2202 C2199 0.950 . S
C2203 C2194 1.390 . S
C2203 H2196 0.950 . S
C2203 C2200 1.387 . S
C2204 C2205 1.387 . S
C2204 H2208 0.950 . S
C2204 C2213 1.390 . S
C2205 C2204 1.387 . S
C2205 C2207 1.387 . S
H2206 C2213 0.950 . S
C2207 C2205 1.387 . S
C2207 C2209 1.390 . S
C2207 H2211 0.950 . S
H2208 C2204 0.950 . S
C2209 C2207 1.390 . S
C2209 C2210 1.387 . S
C2209 H2212 0.950 . S
C2210 C2209 1.387 . S
C2210 C2213 1.387 . S
H2211 C2207 0.950 . S
H2212 C2209 0.950 . S
C2213 C2204 1.390 . S
C2213 H2206 0.950 . S
C2213 C2210 1.387 . S
C2214 C2215 1.387 . S
C2214 H2218 0.950 . S
C2214 C2223 1.390 . S
C2215 C2214 1.387 . S
C2215 C2217 1.387 . S
H2216 C2223 0.950 . S
C2217 C2215 1.387 . S
C2217 C2219 1.390 . S
C2217 H2221 0.950 . S
H2218 C2214 0.950 . S
C2219 C2217 1.390 . S
C2219 C2220 1.387 . S
C2219 H2222 0.950 . S
C2220 C2219 1.387 . S
C2220 C2223 1.387 . S
H2221 C2217 0.950 . S
H2222 C2219 0.950 . S
C2223 C2214 1.390 . S
C2223 H2216 0.950 . S
C2223 C2220 1.387 . S
C2224 C2225 1.387 . S
C2224 H2228 0.950 . S
C2224 C2233 1.390 . S
C2225 C2224 1.387 . S
C2225 C2227 1.387 . S
H2226 C2233 0.950 . S
C2227 C2225 1.387 . S
C2227 C2229 1.390 . S
C2227 H2231 0.950 . S
H2228 C2224 0.950 . S
C2229 C2227 1.390 . S
C2229 C2230 1.387 . S
C2229 H2232 0.950 . S
C2230 C2229 1.387 . S
C2230 C2233 1.387 . S
H2231 C2227 0.950 . S
H2232 C2229 0.950 . S
C2233 C2224 1.390 . S
C2233 H2226 0.950 . S
C2233 C2230 1.387 . S
C2234 C2235 1.387 . S
C2234 H2238 0.950 . S
C2234 C2243 1.390 1_545 S
C2235 C2234 1.387 . S
C2235 C2237 1.387 . S
H2236 C2243 0.950 . S
C2237 C2235 1.387 . S
C2237 C2239 1.390 1_545 S
C2237 H2241 0.950 . S
H2238 C2234 0.950 . S
C2239 C2237 1.390 1_565 S
C2239 C2240 1.387 . S
C2239 H2242 0.950 . S
C2240 C2239 1.387 . S
C2240 C2243 1.387 . S
H2241 C2237 0.950 . S
H2242 C2239 0.950 . S
C2243 C2234 1.390 1_565 S
C2243 H2236 0.950 . S
C2243 C2240 1.387 . S
C2244 C2245 1.387 . S
C2244 H2248 0.950 . S
C2244 C2253 1.390 1_554 S
C2245 C2244 1.387 . S
C2245 C2247 1.387 . S
H2246 C2253 0.950 . S
C2247 C2245 1.387 . S
C2247 C2249 1.390 1_554 S
C2247 H2251 0.950 . S
H2248 C2244 0.950 . S
C2249 C2247 1.390 1_556 S
C2249 C2250 1.387 . S
C2249 H2252 0.950 . S
C2250 C2249 1.387 . S
C2250 C2253 1.387 . S
H2251 C2247 0.950 . S
H2252 C2249 0.950 . S
C2253 C2244 1.390 1_556 S
C2253 H2246 0.950 . S
C2253 C2250 1.387 . S
C2254 C2255 1.387 . S
C2254 H2258 0.950 . S
C2254 C2263 1.390 . S
C2255 C2254 1.387 . S
C2255 C2257 1.387 . S
H2256 C2263 0.950 . S
C2257 C2255 1.387 . S
C2257 C2259 1.390 . S
C2257 H2261 0.950 . S
H2258 C2254 0.950 . S
C2259 C2257 1.390 . S
C2259 C2260 1.387 . S
C2259 H2262 0.950 . S
C2260 C2259 1.387 . S
C2260 C2263 1.387 . S
H2261 C2257 0.950 . S
H2262 C2259 0.950 . S
C2263 C2254 1.390 . S
C2263 H2256 0.950 . S
C2263 C2260 1.387 . S
C2264 C2265 1.387 . S
C2264 H2268 0.950 . S
C2264 C2273 1.390 . S
C2265 C2264 1.387 . S
C2265 C2267 1.387 . S
H2266 C2273 0.950 . S
C2267 C2265 1.387 . S
C2267 C2269 1.390 . S
C2267 H2271 0.950 . S
H2268 C2264 0.950 . S
C2269 C2267 1.390 . S
C2269 C2270 1.387 . S
C2269 H2272 0.950 . S
C2270 C2269 1.387 . S
C2270 C2273 1.387 . S
H2271 C2267 0.950 . S
H2272 C2269 0.950 . S
C2273 C2264 1.390 . S
C2273 H2266 0.950 . S
C2273 C2270 1.387 . S
C2274 C2275 1.387 . S
C2274 H2278 0.950 . S
C2274 C2283 1.390 . S
C2275 C2274 1.387 . S
C2275 C2277 1.387 . S
H2276 C2283 0.950 . S
C2277 C2275 1.387 . S
C2277 C2279 1.390 . S
C2277 H2281 0.950 . S
H2278 C2274 0.950 . S
C2279 C2277 1.390 . S
C2279 C2280 1.387 . S
C2279 H2282 0.950 . S
C2280 C2279 1.387 . S
C2280 C2283 1.387 . S
H2281 C2277 0.950 . S
H2282 C2279 0.950 . S
C2283 C2274 1.390 . S
C2283 H2276 0.950 . S
C2283 C2280 1.387 . S
C2284 C2285 1.387 . S
C2284 H2288 0.950 . S
C2284 C2293 1.390 1_565 S
C2285 C2284 1.387 . S
C2285 C2287 1.387 . S
H2286 C2293 0.950 . S
C2287 C2285 1.387 . S
C2287 C2289 1.390 1_565 S
C2287 H2291 0.950 . S
H2288 C2284 0.950 . S
C2289 C2287 1.390 1_545 S
C2289 C2290 1.387 . S
C2289 H2292 0.950 . S
C2290 C2289 1.387 . S
C2290 C2293 1.387 . S
H2291 C2287 0.950 . S
H2292 C2289 0.950 . S
C2293 C2284 1.390 1_545 S
C2293 H2286 0.950 . S
C2293 C2290 1.387 . S
C2294 C2295 1.387 . S
C2294 H2298 0.950 . S
C2294 C2303 1.390 1_556 S
C2295 C2294 1.387 . S
C2295 C2297 1.387 . S
H2296 C2303 0.950 . S
C2297 C2295 1.387 . S
C2297 C2299 1.390 1_556 S
C2297 H2301 0.950 . S
H2298 C2294 0.950 . S
C2299 C2297 1.390 1_554 S
C2299 C2300 1.387 . S
C2299 H2302 0.950 . S
C2300 C2299 1.387 . S
C2300 C2303 1.387 . S
H2301 C2297 0.950 . S
H2302 C2299 0.950 . S
C2303 C2294 1.390 1_554 S
C2303 H2296 0.950 . S
C2303 C2300 1.387 . S
C2304 C2305 1.387 . S
C2304 H2308 0.950 . S
C2304 C2313 1.390 . S
C2305 C2304 1.387 . S
C2305 C2307 1.387 . S
H2306 C2313 0.950 . S
C2307 C2305 1.387 . S
C2307 C2309 1.390 . S
C2307 H2311 0.950 . S
H2308 C2304 0.950 . S
C2309 C2307 1.390 . S
C2309 C2310 1.387 . S
C2309 H2312 0.950 . S
C2310 C2309 1.387 . S
C2310 C2313 1.387 . S
H2311 C2307 0.950 . S
H2312 C2309 0.950 . S
C2313 C2304 1.390 . S
C2313 H2306 0.950 . S
C2313 C2310 1.387 . S
C2314 C2315 1.387 . S
C2314 H2318 0.950 . S
C2314 C2323 1.390 . S
C2315 C2314 1.387 . S
C2315 C2317 1.387 . S
H2316 C2323 0.950 . S
C2317 C2315 1.387 . S
C2317 C2319 1.390 . S
C2317 H2321 0.950 . S
H2318 C2314 0.950 . S
C2319 C2317 1.390 . S
C2319 C2320 1.387 . S
C2319 H2322 0.950 . S
C2320 C2319 1.387 . S
C2320 C2323 1.387 . S
H2321 C2317 0.950 . S
H2322 C2319 0.950 . S
C2323 C2314 1.390 . S
C2323 H2316 0.950 . S
C2323 C2320 1.387 . S
C2324 C2325 1.387 . S
C2324 H2328 0.950 . S
C2324 C2333 1.390 1_556 S
C2325 C2324 1.387 . S
C2325 C2327 1.387 . S
H2326 C2333 0.950 . S
C2327 C2325 1.387 . S
C2327 C2329 1.390 1_556 S
C2327 H2331 0.950 . S
H2328 C2324 0.950 . S
C2329 C2327 1.390 1_554 S
C2329 C2330 1.387 . S
C2329 H2332 0.950 . S
C2330 C2329 1.387 . S
C2330 C2333 1.387 . S
H2331 C2327 0.950 . S
H2332 C2329 0.950 . S
C2333 C2324 1.390 1_554 S
C2333 H2326 0.950 . S
C2333 C2330 1.387 . S
C2334 C2335 1.387 . S
C2334 H2338 0.950 . S
C2334 C2343 1.390 1_556 S
C2335 C2334 1.387 . S
C2335 C2337 1.387 . S
H2336 C2343 0.950 . S
C2337 C2335 1.387 . S
C2337 C2339 1.390 1_556 S
C2337 H2341 0.950 . S
H2338 C2334 0.950 . S
C2339 C2337 1.390 1_554 S
C2339 C2340 1.387 . S
C2339 H2342 0.950 . S
C2340 C2339 1.387 . S
C2340 C2343 1.387 . S
H2341 C2337 0.950 . S
H2342 C2339 0.950 . S
C2343 C2334 1.390 1_554 S
C2343 H2336 0.950 . S
C2343 C2340 1.387 . S
C2344 C2345 1.387 . S
C2344 H2348 0.950 . S
C2344 C2353 1.390 . S
C2345 C2344 1.387 . S
C2345 C2347 1.387 . S
H2346 C2353 0.950 . S
C2347 C2345 1.387 . S
C2347 C2349 1.390 . S
C2347 H2351 0.950 . S
H2348 C2344 0.950 . S
C2349 C2347 1.390 . S
C2349 C2350 1.387 . S
C2349 H2352 0.950 . S
C2350 C2349 1.387 . S
C2350 C2353 1.387 . S
H2351 C2347 0.950 . S
H2352 C2349 0.950 . S
C2353 C2344 1.390 . S
C2353 H2346 0.950 . S
C2353 C2350 1.387 . S
C2354 C2355 1.387 . S
C2354 H2358 0.950 . S
C2354 C2363 1.390 . S
C2355 C2354 1.387 . S
C2355 C2357 1.387 . S
H2356 C2363 0.950 . S
C2357 C2355 1.387 . S
C2357 C2359 1.390 . S
C2357 H2361 0.950 . S
H2358 C2354 0.950 . S
C2359 C2357 1.390 . S
C2359 C2360 1.387 . S
C2359 H2362 0.950 . S
C2360 C2359 1.387 . S
C2360 C2363 1.387 . S
H2361 C2357 0.950 . S
H2362 C2359 0.950 . S
C2363 C2354 1.390 . S
C2363 H2356 0.950 . S
C2363 C2360 1.387 . S
C2364 C2365 1.387 . S
C2364 H2368 0.950 . S
C2364 C2373 1.390 . S
C2365 C2364 1.387 . S
C2365 C2367 1.387 . S
H2366 C2373 0.950 . S
C2367 C2365 1.387 . S
C2367 C2369 1.390 . S
C2367 H2371 0.950 . S
H2368 C2364 0.950 . S
C2369 C2367 1.390 . S
C2369 C2370 1.387 . S
C2369 H2372 0.950 . S
C2370 C2369 1.387 . S
C2370 C2373 1.387 . S
H2371 C2367 0.950 . S
H2372 C2369 0.950 . S
C2373 C2364 1.390 . S
C2373 H2366 0.950 . S
C2373 C2370 1.387 . S
C2374 C2375 1.387 . S
C2374 H2378 0.950 . S
C2374 C2383 1.390 . S
C2375 C2374 1.387 . S
C2375 C2377 1.387 . S
H2376 C2383 0.950 . S
C2377 C2375 1.387 . S
C2377 C2379 1.390 . S
C2377 H2381 0.950 . S
H2378 C2374 0.950 . S
C2379 C2377 1.390 . S
C2379 C2380 1.387 . S
C2379 H2382 0.950 . S
C2380 C2379 1.387 . S
C2380 C2383 1.387 . S
H2381 C2377 0.950 . S
H2382 C2379 0.950 . S
C2383 C2374 1.390 . S
C2383 H2376 0.950 . S
C2383 C2380 1.387 . S
C2384 C2385 1.387 . S
C2384 H2388 0.950 . S
C2384 C2393 1.390 . S
C2385 C2384 1.387 . S
C2385 C2387 1.387 . S
H2386 C2393 0.950 . S
C2387 C2385 1.387 . S
C2387 C2389 1.390 . S
C2387 H2391 0.950 . S
H2388 C2384 0.950 . S
C2389 C2387 1.390 . S
C2389 C2390 1.387 . S
C2389 H2392 0.950 . S
C2390 C2389 1.387 . S
C2390 C2393 1.387 . S
H2391 C2387 0.950 . S
H2392 C2389 0.950 . S
C2393 C2384 1.390 . S
C2393 H2386 0.950 . S
C2393 C2390 1.387 . S
C2394 C2395 1.387 . S
C2394 H2398 0.950 . S
C2394 C2403 1.390 . S
C2395 C2394 1.387 . S
C2395 C2397 1.387 . S
H2396 C2403 0.950 . S
C2397 C2395 1.387 . S
C2397 C2399 1.390 . S
C2397 H2401 0.950 . S
H2398 C2394 0.950 . S
C2399 C2397 1.390 . S
C2399 C2400 1.387 . S
C2399 H2402 0.950 . S
C2400 C2399 1.387 . S
C2400 C2403 1.387 . S
H2401 C2397 0.950 . S
H2402 C2399 0.950 . S
C2403 C2394 1.390 . S
C2403 H2396 0.950 . S
C2403 C2400 1.387 . S
C2404 C2405 1.387 . S
C2404 H2408 0.950 . S
C2404 C2413 1.390 1_565 S
C2405 C2404 1.387 . S
C2405 C2407 1.387 . S
H2406 C2413 0.950 . S
C2407 C2405 1.387 . S
C2407 C2409 1.390 1_565 S
C2407 H2411 0.950 . S
H2408 C2404 0.950 . S
C2409 C2407 1.390 1_545 S
C2409 C2410 1.387 . S
C2409 H2412 0.950 . S
C2410 C2409 1.387 . S
C2410 C2413 1.387 . S
H2411 C2407 0.950 . S
H2412 C2409 0.950 . S
C2413 C2404 1.390 1_545 S
C2413 H2406 0.950 . S
C2413 C2410 1.387 . S
C2414 C2415 1.387 . S
C2414 H2418 0.950 . S
C2414 C2423 1.390 . S
C2415 C2414 1.387 . S
C2415 C2417 1.387 . S
H2416 C2423 0.950 . S
C2417 C2415 1.387 . S
C2417 C2419 1.390 . S
C2417 H2421 0.950 . S
H2418 C2414 0.950 . S
C2419 C2417 1.390 . S
C2419 C2420 1.387 . S
C2419 H2422 0.950 . S
C2420 C2419 1.387 . S
C2420 C2423 1.387 . S
H2421 C2417 0.950 . S
H2422 C2419 0.950 . S
C2423 C2414 1.390 . S
C2423 H2416 0.950 . S
C2423 C2420 1.387 . S
C2424 C2425 1.387 . S
C2424 H2428 0.950 . S
C2424 C2433 1.390 . S
C2425 C2424 1.387 . S
C2425 C2427 1.387 . S
H2426 C2433 0.950 . S
C2427 C2425 1.387 . S
C2427 C2429 1.390 . S
C2427 H2431 0.950 . S
H2428 C2424 0.950 . S
C2429 C2427 1.390 . S
C2429 C2430 1.387 . S
C2429 H2432 0.950 . S
C2430 C2429 1.387 . S
C2430 C2433 1.387 . S
H2431 C2427 0.950 . S
H2432 C2429 0.950 . S
C2433 C2424 1.390 . S
C2433 H2426 0.950 . S
C2433 C2430 1.387 . S
C2434 C2435 1.387 . S
C2434 H2438 0.950 . S
C2434 C2443 1.390 . S
C2435 C2434 1.387 . S
C2435 C2437 1.387 . S
H2436 C2443 0.950 . S
C2437 C2435 1.387 . S
C2437 C2439 1.390 . S
C2437 H2441 0.950 . S
H2438 C2434 0.950 . S
C2439 C2437 1.390 . S
C2439 C2440 1.387 . S
C2439 H2442 0.950 . S
C2440 C2439 1.387 . S
C2440 C2443 1.387 . S
H2441 C2437 0.950 . S
H2442 C2439 0.950 . S
C2443 C2434 1.390 . S
C2443 H2436 0.950 . S
C2443 C2440 1.387 . S
C2444 C2445 1.387 . S
C2444 H2448 0.950 . S
C2444 C2453 1.390 1_556 S
C2445 C2444 1.387 . S
C2445 C2447 1.387 . S
H2446 C2453 0.950 . S
C2447 C2445 1.387 . S
C2447 C2449 1.390 1_556 S
C2447 H2451 0.950 . S
H2448 C2444 0.950 . S
C2449 C2447 1.390 1_554 S
C2449 C2450 1.387 . S
C2449 H2452 0.950 . S
C2450 C2449 1.387 . S
C2450 C2453 1.387 . S
H2451 C2447 0.950 . S
H2452 C2449 0.950 . S
C2453 C2444 1.390 1_554 S
C2453 H2446 0.950 . S
C2453 C2450 1.387 . S
C2454 C2455 1.387 . S
C2454 H2458 0.950 . S
C2454 C2463 1.390 1_556 S
C2455 C2454 1.387 . S
C2455 C2457 1.387 . S
H2456 C2463 0.950 . S
C2457 C2455 1.387 . S
C2457 C2459 1.390 1_556 S
C2457 H2461 0.950 . S
H2458 C2454 0.950 . S
C2459 C2457 1.390 1_554 S
C2459 C2460 1.387 . S
C2459 H2462 0.950 . S
C2460 C2459 1.387 . S
C2460 C2463 1.387 . S
H2461 C2457 0.950 . S
H2462 C2459 0.950 . S
C2463 C2454 1.390 1_554 S
C2463 H2456 0.950 . S
C2463 C2460 1.387 . S
C2464 C2465 1.387 . S
C2464 H2468 0.950 . S
C2464 C2473 1.390 . S
C2465 C2464 1.387 . S
C2465 C2467 1.387 . S
H2466 C2473 0.950 . S
C2467 C2465 1.387 . S
C2467 C2469 1.390 . S
C2467 H2471 0.950 . S
H2468 C2464 0.950 . S
C2469 C2467 1.390 . S
C2469 C2470 1.387 . S
C2469 H2472 0.950 . S
C2470 C2469 1.387 . S
C2470 C2473 1.387 . S
H2471 C2467 0.950 . S
H2472 C2469 0.950 . S
C2473 C2464 1.390 . S
C2473 H2466 0.950 . S
C2473 C2470 1.387 . S
C2474 C2475 1.387 . S
C2474 H2478 0.950 . S
C2474 C2483 1.390 . S
C2475 C2474 1.387 . S
C2475 C2477 1.387 . S
H2476 C2483 0.950 . S
C2477 C2475 1.387 . S
C2477 C2479 1.390 . S
C2477 H2481 0.950 . S
H2478 C2474 0.950 . S
C2479 C2477 1.390 . S
C2479 C2480 1.387 . S
C2479 H2482 0.950 . S
C2480 C2479 1.387 . S
C2480 C2483 1.387 . S
H2481 C2477 0.950 . S
H2482 C2479 0.950 . S
C2483 C2474 1.390 . S
C2483 H2476 0.950 . S
C2483 C2480 1.387 . S
C2484 C2485 1.387 . S
C2484 H2488 0.950 . S
C2484 C2493 1.390 . S
C2485 C2484 1.387 . S
C2485 C2487 1.387 . S
H2486 C2493 0.950 . S
C2487 C2485 1.387 . S
C2487 C2489 1.390 . S
C2487 H2491 0.950 . S
H2488 C2484 0.950 . S
C2489 C2487 1.390 . S
C2489 C2490 1.387 . S
C2489 H2492 0.950 . S
C2490 C2489 1.387 . S
C2490 C2493 1.387 . S
H2491 C2487 0.950 . S
H2492 C2489 0.950 . S
C2493 C2484 1.390 . S
C2493 H2486 0.950 . S
C2493 C2490 1.387 . S
C2494 C2495 1.387 . S
C2494 H2498 0.950 . S
C2494 C2503 1.390 . S
C2495 C2494 1.387 . S
C2495 C2497 1.387 . S
H2496 C2503 0.950 . S
C2497 C2495 1.387 . S
C2497 C2499 1.390 . S
C2497 H2501 0.950 . S
H2498 C2494 0.950 . S
C2499 C2497 1.390 . S
C2499 C2500 1.387 . S
C2499 H2502 0.950 . S
C2500 C2499 1.387 . S
C2500 C2503 1.387 . S
H2501 C2497 0.950 . S
H2502 C2499 0.950 . S
C2503 C2494 1.390 . S
C2503 H2496 0.950 . S
C2503 C2500 1.387 . S
C2504 C2505 1.387 . S
C2504 H2508 0.950 . S
C2504 C2513 1.390 . S
C2505 C2504 1.387 . S
C2505 C2507 1.387 . S
H2506 C2513 0.950 . S
C2507 C2505 1.387 . S
C2507 C2509 1.390 . S
C2507 H2511 0.950 . S
H2508 C2504 0.950 . S
C2509 C2507 1.390 . S
C2509 C2510 1.387 . S
C2509 H2512 0.950 . S
C2510 C2509 1.387 . S
C2510 C2513 1.387 . S
H2511 C2507 0.950 . S
H2512 C2509 0.950 . S
C2513 C2504 1.390 . S
C2513 H2506 0.950 . S
C2513 C2510 1.387 . S
C2514 C2515 1.387 . S
C2514 H2518 0.950 . S
C2514 C2523 1.390 . S
C2515 C2514 1.387 . S
C2515 C2517 1.387 . S
H2516 C2523 0.950 . S
C2517 C2515 1.387 . S
C2517 C2519 1.390 . S
C2517 H2521 0.950 . S
H2518 C2514 0.950 . S
C2519 C2517 1.390 . S
C2519 C2520 1.387 . S
C2519 H2522 0.950 . S
C2520 C2519 1.387 . S
C2520 C2523 1.387 . S
H2521 C2517 0.950 . S
H2522 C2519 0.950 . S
C2523 C2514 1.390 . S
C2523 H2516 0.950 . S
C2523 C2520 1.387 . S
C2524 C2525 1.387 . S
C2524 H2528 0.950 . S
C2524 C2533 1.390 1_565 S
C2525 C2524 1.387 . S
C2525 C2527 1.387 . S
H2526 C2533 0.950 . S
C2527 C2525 1.387 . S
C2527 C2529 1.390 1_565 S
C2527 H2531 0.950 . S
H2528 C2524 0.950 . S
C2529 C2527 1.390 1_545 S
C2529 C2530 1.387 . S
C2529 H2532 0.950 . S
C2530 C2529 1.387 . S
C2530 C2533 1.387 . S
H2531 C2527 0.950 . S
H2532 C2529 0.950 . S
C2533 C2524 1.390 1_545 S
C2533 H2526 0.950 . S
C2533 C2530 1.387 . S
C2534 C2535 1.387 . S
C2534 H2538 0.950 . S
C2534 C2543 1.390 . S
C2535 C2534 1.387 . S
C2535 C2537 1.387 . S
H2536 C2543 0.950 . S
C2537 C2535 1.387 . S
C2537 C2539 1.390 . S
C2537 H2541 0.950 . S
H2538 C2534 0.950 . S
C2539 C2537 1.390 . S
C2539 C2540 1.387 . S
C2539 H2542 0.950 . S
C2540 C2539 1.387 . S
C2540 C2543 1.387 . S
H2541 C2537 0.950 . S
H2542 C2539 0.950 . S
C2543 C2534 1.390 . S
C2543 H2536 0.950 . S
C2543 C2540 1.387 . S
C2544 C2545 1.387 . S
C2544 H2548 0.950 . S
C2544 C2553 1.390 1_556 S
C2545 C2544 1.387 . S
C2545 C2547 1.387 . S
H2546 C2553 0.950 . S
C2547 C2545 1.387 . S
C2547 C2549 1.390 1_556 S
C2547 H2551 0.950 . S
H2548 C2544 0.950 . S
C2549 C2547 1.390 1_554 S
C2549 C2550 1.387 . S
C2549 H2552 0.950 . S
C2550 C2549 1.387 . S
C2550 C2553 1.387 . S
H2551 C2547 0.950 . S
H2552 C2549 0.950 . S
C2553 C2544 1.390 1_554 S
C2553 H2546 0.950 . S
C2553 C2550 1.387 . S
C2554 C2555 1.387 . S
C2554 H2558 0.950 . S
C2554 C2563 1.390 1_554 S
C2555 C2554 1.387 . S
C2555 C2557 1.387 . S
H2556 C2563 0.950 . S
C2557 C2555 1.387 . S
C2557 C2559 1.390 1_554 S
C2557 H2561 0.950 . S
H2558 C2554 0.950 . S
C2559 C2557 1.390 1_556 S
C2559 C2560 1.387 . S
C2559 H2562 0.950 . S
C2560 C2559 1.387 . S
C2560 C2563 1.387 . S
H2561 C2557 0.950 . S
H2562 C2559 0.950 . S
C2563 C2554 1.390 1_556 S
C2563 H2556 0.950 . S
C2563 C2560 1.387 . S
C2564 C2565 1.387 . S
C2564 H2568 0.950 . S
C2564 C2573 1.390 . S
C2565 C2564 1.387 . S
C2565 C2567 1.387 . S
H2566 C2573 0.950 . S
C2567 C2565 1.387 . S
C2567 C2569 1.390 . S
C2567 H2571 0.950 . S
H2568 C2564 0.950 . S
C2569 C2567 1.390 . S
C2569 C2570 1.387 . S
C2569 H2572 0.950 . S
C2570 C2569 1.387 . S
C2570 C2573 1.387 . S
H2571 C2567 0.950 . S
H2572 C2569 0.950 . S
C2573 C2564 1.390 . S
C2573 H2566 0.950 . S
C2573 C2570 1.387 . S
C2574 C2575 1.387 . S
C2574 H2578 0.950 . S
C2574 C2583 1.390 . S
C2575 C2574 1.387 . S
C2575 C2577 1.387 . S
H2576 C2583 0.950 . S
C2577 C2575 1.387 . S
C2577 C2579 1.390 . S
C2577 H2581 0.950 . S
H2578 C2574 0.950 . S
C2579 C2577 1.390 . S
C2579 C2580 1.387 . S
C2579 H2582 0.950 . S
C2580 C2579 1.387 . S
C2580 C2583 1.387 . S
H2581 C2577 0.950 . S
H2582 C2579 0.950 . S
C2583 C2574 1.390 . S
C2583 H2576 0.950 . S
C2583 C2580 1.387 . S
C2584 C2585 1.387 . S
C2584 H2588 0.950 . S
C2584 C2593 1.390 1_655 S
C2585 C2584 1.387 . S
C2585 C2587 1.387 . S
H2586 C2593 0.950 . S
C2587 C2585 1.387 . S
C2587 C2589 1.390 1_655 S
C2587 H2591 0.950 . S
H2588 C2584 0.950 . S
C2589 C2587 1.390 1_455 S
C2589 C2590 1.387 . S
C2589 H2592 0.950 . S
C2590 C2589 1.387 . S
C2590 C2593 1.387 . S
H2591 C2587 0.950 . S
H2592 C2589 0.950 . S
C2593 C2584 1.390 1_455 S
C2593 H2586 0.950 . S
C2593 C2590 1.387 . S
C2594 C2595 1.387 . S
C2594 H2598 0.950 . S
C2594 C2603 1.390 1_655 S
C2595 C2594 1.387 . S
C2595 C2597 1.387 . S
H2596 C2603 0.950 . S
C2597 C2595 1.387 . S
C2597 C2599 1.390 1_655 S
C2597 H2601 0.950 . S
H2598 C2594 0.950 . S
C2599 C2597 1.390 1_455 S
C2599 C2600 1.387 . S
C2599 H2602 0.950 . S
C2600 C2599 1.387 . S
C2600 C2603 1.387 . S
H2601 C2597 0.950 . S
H2602 C2599 0.950 . S
C2603 C2594 1.390 1_455 S
C2603 H2596 0.950 . S
C2603 C2600 1.387 . S
C2604 C2605 1.387 . S
C2604 H2608 0.950 . S
C2604 C2613 1.390 1_655 S
C2605 C2604 1.387 . S
C2605 C2607 1.387 . S
H2606 C2613 0.950 . S
C2607 C2605 1.387 . S
C2607 C2609 1.390 1_655 S
C2607 H2611 0.950 . S
H2608 C2604 0.950 . S
C2609 C2607 1.390 1_455 S
C2609 C2610 1.387 . S
C2609 H2612 0.950 . S
C2610 C2609 1.387 . S
C2610 C2613 1.387 . S
H2611 C2607 0.950 . S
H2612 C2609 0.950 . S
C2613 C2604 1.390 1_455 S
C2613 H2606 0.950 . S
C2613 C2610 1.387 . S
C2614 C2615 1.387 . S
C2614 H2618 0.950 . S
C2614 C2623 1.390 1_455 S
C2615 C2614 1.387 . S
C2615 C2617 1.387 . S
H2616 C2623 0.950 . S
C2617 C2615 1.387 . S
C2617 C2619 1.390 1_455 S
C2617 H2621 0.950 . S
H2618 C2614 0.950 . S
C2619 C2617 1.390 1_655 S
C2619 C2620 1.387 . S
C2619 H2622 0.950 . S
C2620 C2619 1.387 . S
C2620 C2623 1.387 . S
H2621 C2617 0.950 . S
H2622 C2619 0.950 . S
C2623 C2614 1.390 1_655 S
C2623 H2616 0.950 . S
C2623 C2620 1.387 . S
C2624 C2625 1.387 . S
C2624 H2628 0.950 . S
C2624 C2633 1.390 1_545 S
C2625 C2624 1.387 . S
C2625 C2627 1.387 . S
H2626 C2633 0.950 . S
C2627 C2625 1.387 . S
C2627 C2629 1.390 1_545 S
C2627 H2631 0.950 . S
H2628 C2624 0.950 . S
C2629 C2627 1.390 1_565 S
C2629 C2630 1.387 . S
C2629 H2632 0.950 . S
C2630 C2629 1.387 . S
C2630 C2633 1.387 . S
H2631 C2627 0.950 . S
H2632 C2629 0.950 . S
C2633 C2624 1.390 1_565 S
C2633 H2626 0.950 . S
C2633 C2630 1.387 . S
C2634 C2635 1.387 . S
C2634 H2638 0.950 . S
C2634 C2643 1.390 1_545 S
C2635 C2634 1.387 . S
C2635 C2637 1.387 . S
H2636 C2643 0.950 . S
C2637 C2635 1.387 . S
C2637 C2639 1.390 1_545 S
C2637 H2641 0.950 . S
H2638 C2634 0.950 . S
C2639 C2637 1.390 1_565 S
C2639 C2640 1.387 . S
C2639 H2642 0.950 . S
C2640 C2639 1.387 . S
C2640 C2643 1.387 . S
H2641 C2637 0.950 . S
H2642 C2639 0.950 . S
C2643 C2634 1.390 1_565 S
C2643 H2636 0.950 . S
C2643 C2640 1.387 . S
C2644 C2645 1.387 . S
C2644 H2648 0.950 . S
C2644 C2653 1.390 . S
C2645 C2644 1.387 . S
C2645 C2647 1.387 . S
H2646 C2653 0.950 . S
C2647 C2645 1.387 . S
C2647 C2649 1.390 . S
C2647 H2651 0.950 . S
H2648 C2644 0.950 . S
C2649 C2647 1.390 . S
C2649 C2650 1.387 . S
C2649 H2652 0.950 . S
C2650 C2649 1.387 . S
C2650 C2653 1.387 . S
H2651 C2647 0.950 . S
H2652 C2649 0.950 . S
C2653 C2644 1.390 . S
C2653 H2646 0.950 . S
C2653 C2650 1.387 . S
C2654 C2655 1.387 . S
C2654 H2658 0.950 . S
C2654 C2663 1.390 1_545 S
C2655 C2654 1.387 . S
C2655 C2657 1.387 . S
H2656 C2663 0.950 . S
C2657 C2655 1.387 . S
C2657 C2659 1.390 1_545 S
C2657 H2661 0.950 . S
H2658 C2654 0.950 . S
C2659 C2657 1.390 1_565 S
C2659 C2660 1.387 . S
C2659 H2662 0.950 . S
C2660 C2659 1.387 . S
C2660 C2663 1.387 . S
H2661 C2657 0.950 . S
H2662 C2659 0.950 . S
C2663 C2654 1.390 1_565 S
C2663 H2656 0.950 . S
C2663 C2660 1.387 . S
C2664 C2665 1.387 . S
C2664 H2668 0.950 . S
C2664 C2673 1.390 1_556 S
C2665 C2664 1.387 . S
C2665 C2667 1.387 . S
H2666 C2673 0.950 . S
C2667 C2665 1.387 . S
C2667 C2669 1.390 1_556 S
C2667 H2671 0.950 . S
H2668 C2664 0.950 . S
C2669 C2667 1.390 1_554 S
C2669 C2670 1.387 . S
C2669 H2672 0.950 . S
C2670 C2669 1.387 . S
C2670 C2673 1.387 . S
H2671 C2667 0.950 . S
H2672 C2669 0.950 . S
C2673 C2664 1.390 1_554 S
C2673 H2666 0.950 . S
C2673 C2670 1.387 . S
C2674 C2675 1.387 . S
C2674 H2678 0.950 . S
C2674 C2683 1.390 1_554 S
C2675 C2674 1.387 . S
C2675 C2677 1.387 . S
H2676 C2683 0.950 . S
C2677 C2675 1.387 . S
C2677 C2679 1.390 1_554 S
C2677 H2681 0.950 . S
H2678 C2674 0.950 . S
C2679 C2677 1.390 1_556 S
C2679 C2680 1.387 . S
C2679 H2682 0.950 . S
C2680 C2679 1.387 . S
C2680 C2683 1.387 . S
H2681 C2677 0.950 . S
H2682 C2679 0.950 . S
C2683 C2674 1.390 1_556 S
C2683 H2676 0.950 . S
C2683 C2680 1.387 . S
C2684 C2685 1.387 . S
C2684 H2688 0.950 . S
C2684 C2693 1.390 . S
C2685 C2684 1.387 . S
C2685 C2687 1.387 . S
H2686 C2693 0.950 . S
C2687 C2685 1.387 . S
C2687 C2689 1.390 . S
C2687 H2691 0.950 . S
H2688 C2684 0.950 . S
C2689 C2687 1.390 . S
C2689 C2690 1.387 . S
C2689 H2692 0.950 . S
C2690 C2689 1.387 . S
C2690 C2693 1.387 . S
H2691 C2687 0.950 . S
H2692 C2689 0.950 . S
C2693 C2684 1.390 . S
C2693 H2686 0.950 . S
C2693 C2690 1.387 . S
C2694 C2695 1.387 . S
C2694 H2698 0.950 . S
C2694 C2703 1.390 . S
C2695 C2694 1.387 . S
C2695 C2697 1.387 . S
H2696 C2703 0.950 . S
C2697 C2695 1.387 . S
C2697 C2699 1.390 . S
C2697 H2701 0.950 . S
H2698 C2694 0.950 . S
C2699 C2697 1.390 . S
C2699 C2700 1.387 . S
C2699 H2702 0.950 . S
C2700 C2699 1.387 . S
C2700 C2703 1.387 . S
H2701 C2697 0.950 . S
H2702 C2699 0.950 . S
C2703 C2694 1.390 . S
C2703 H2696 0.950 . S
C2703 C2700 1.387 . S
C2704 C2705 1.387 . S
C2704 H2708 0.950 . S
C2704 C2713 1.390 1_455 S
C2705 C2704 1.387 . S
C2705 C2707 1.387 . S
H2706 C2713 0.950 . S
C2707 C2705 1.387 . S
C2707 C2709 1.390 1_455 S
C2707 H2711 0.950 . S
H2708 C2704 0.950 . S
C2709 C2707 1.390 1_655 S
C2709 C2710 1.387 . S
C2709 H2712 0.950 . S
C2710 C2709 1.387 . S
C2710 C2713 1.387 . S
H2711 C2707 0.950 . S
H2712 C2709 0.950 . S
C2713 C2704 1.390 1_655 S
C2713 H2706 0.950 . S
C2713 C2710 1.387 . S
C2714 C2715 1.387 . S
C2714 H2718 0.950 . S
C2714 C2723 1.390 1_455 S
C2715 C2714 1.387 . S
C2715 C2717 1.387 . S
H2716 C2723 0.950 . S
C2717 C2715 1.387 . S
C2717 C2719 1.390 1_455 S
C2717 H2721 0.950 . S
H2718 C2714 0.950 . S
C2719 C2717 1.390 1_655 S
C2719 C2720 1.387 . S
C2719 H2722 0.950 . S
C2720 C2719 1.387 . S
C2720 C2723 1.387 . S
H2721 C2717 0.950 . S
H2722 C2719 0.950 . S
C2723 C2714 1.390 1_655 S
C2723 H2716 0.950 . S
C2723 C2720 1.387 . S
C2724 C2725 1.387 . S
C2724 H2728 0.950 . S
C2724 C2733 1.390 1_655 S
C2725 C2724 1.387 . S
C2725 C2727 1.387 . S
H2726 C2733 0.950 . S
C2727 C2725 1.387 . S
C2727 C2729 1.390 1_655 S
C2727 H2731 0.950 . S
H2728 C2724 0.950 . S
C2729 C2727 1.390 1_455 S
C2729 C2730 1.387 . S
C2729 H2732 0.950 . S
C2730 C2729 1.387 . S
C2730 C2733 1.387 . S
H2731 C2727 0.950 . S
H2732 C2729 0.950 . S
C2733 C2724 1.390 1_455 S
C2733 H2726 0.950 . S
C2733 C2730 1.387 . S
C2734 C2735 1.387 . S
C2734 H2738 0.950 . S
C2734 C2743 1.390 1_455 S
C2735 C2734 1.387 . S
C2735 C2737 1.387 . S
H2736 C2743 0.950 . S
C2737 C2735 1.387 . S
C2737 C2739 1.390 1_455 S
C2737 H2741 0.950 . S
H2738 C2734 0.950 . S
C2739 C2737 1.390 1_655 S
C2739 C2740 1.387 . S
C2739 H2742 0.950 . S
C2740 C2739 1.387 . S
C2740 C2743 1.387 . S
H2741 C2737 0.950 . S
H2742 C2739 0.950 . S
C2743 C2734 1.390 1_655 S
C2743 H2736 0.950 . S
C2743 C2740 1.387 . S
C2744 C2745 1.387 . S
C2744 H2748 0.950 . S
C2744 C2753 1.390 1_545 S
C2745 C2744 1.387 . S
C2745 C2747 1.387 . S
H2746 C2753 0.950 . S
C2747 C2745 1.387 . S
C2747 C2749 1.390 1_545 S
C2747 H2751 0.950 . S
H2748 C2744 0.950 . S
C2749 C2747 1.390 1_565 S
C2749 C2750 1.387 . S
C2749 H2752 0.950 . S
C2750 C2749 1.387 . S
C2750 C2753 1.387 . S
H2751 C2747 0.950 . S
H2752 C2749 0.950 . S
C2753 C2744 1.390 1_565 S
C2753 H2746 0.950 . S
C2753 C2750 1.387 . S
C2754 C2755 1.387 . S
C2754 H2758 0.950 . S
C2754 C2763 1.390 1_545 S
C2755 C2754 1.387 . S
C2755 C2757 1.387 . S
H2756 C2763 0.950 . S
C2757 C2755 1.387 . S
C2757 C2759 1.390 1_545 S
C2757 H2761 0.950 . S
H2758 C2754 0.950 . S
C2759 C2757 1.390 1_565 S
C2759 C2760 1.387 . S
C2759 H2762 0.950 . S
C2760 C2759 1.387 . S
C2760 C2763 1.387 . S
H2761 C2757 0.950 . S
H2762 C2759 0.950 . S
C2763 C2754 1.390 1_565 S
C2763 H2756 0.950 . S
C2763 C2760 1.387 . S
C2764 C2765 1.387 . S
C2764 H2768 0.950 . S
C2764 C2773 1.390 . S
C2765 C2764 1.387 . S
C2765 C2767 1.387 . S
H2766 C2773 0.950 . S
C2767 C2765 1.387 . S
C2767 C2769 1.390 . S
C2767 H2771 0.950 . S
H2768 C2764 0.950 . S
C2769 C2767 1.390 . S
C2769 C2770 1.387 . S
C2769 H2772 0.950 . S
C2770 C2769 1.387 . S
C2770 C2773 1.387 . S
H2771 C2767 0.950 . S
H2772 C2769 0.950 . S
C2773 C2764 1.390 . S
C2773 H2766 0.950 . S
C2773 C2770 1.387 . S
C2774 C2775 1.387 . S
C2774 H2778 0.950 . S
C2774 C2783 1.390 1_565 S
C2775 C2774 1.387 . S
C2775 C2777 1.387 . S
H2776 C2783 0.950 . S
C2777 C2775 1.387 . S
C2777 C2779 1.390 1_565 S
C2777 H2781 0.950 . S
H2778 C2774 0.950 . S
C2779 C2777 1.390 1_545 S
C2779 C2780 1.387 . S
C2779 H2782 0.950 . S
C2780 C2779 1.387 . S
C2780 C2783 1.387 . S
H2781 C2777 0.950 . S
H2782 C2779 0.950 . S
C2783 C2774 1.390 1_545 S
C2783 H2776 0.950 . S
C2783 C2780 1.387 . S
C1585 N1334 1.573 . S
C1590 C28 1.592 . S
C1595 N1367 1.573 . S
C1600 C61 1.591 . S
C1605 N1400 1.572 . S
C1610 C94 1.591 . S
C1615 C127 1.591 . S
C1620 N1433 1.573 . S
C1625 C160 1.592 . S
C1630 N1466 1.574 . S
C1635 C193 1.592 . S
C1640 N773 1.573 . S
C1645 C226 1.592 . S
C1650 N1499 1.573 . S
C1655 C259 1.592 . S
C1660 N1532 1.574 . S
C1665 C292 1.590 . S
C1670 N1202 1.572 . S
C1675 C325 1.592 . S
C1680 N1268 1.574 . S
C1685 C358 1.590 . S
C1690 N1301 1.572 . S
C1695 N443 1.574 . S
C1700 C391 1.592 . S
C1705 C424 1.590 . S
C1710 N938 1.572 . S
C1715 C457 1.591 . S
C1720 N971 1.573 . S
C1725 N1004 1.573 . S
C1730 C490 1.591 . S
C1735 N1037 1.572 . S
C1740 C523 1.591 . S
C1745 C556 1.590 . S
C1750 N1070 1.572 . S
C1755 N377 1.574 . S
C1760 C589 1.592 . S
C1765 N1103 1.572 . S
C1770 C622 1.590 . S
C1775 N1136 1.574 . S
C1780 C655 1.592 . S
C1785 C688 1.592 . S
C1790 N806 1.574 . S
C1795 C721 1.592 . S
C1800 N872 1.574 . S
C1805 N905 1.573 . S
C1810 C754 1.591 . S
C1815 C787 1.590 . S
C1820 N47 1.572 . S
C1825 C820 1.590 . S
C1830 N542 1.572 . S
C1835 N575 1.571 . S
C1840 C853 1.590 . S
C1845 N608 1.573 . S
C1850 C886 1.591 . S
C1855 C919 1.591 . S
C1860 N641 1.572 . S
C1865 C952 1.591 . S
C1870 N674 1.573 . S
C1875 N1565 1.574 . S
C1880 C985 1.592 . S
C1885 C1018 1.591 . S
C1890 N707 1.573 . S
C1895 C1051 1.591 . S
C1900 N740 1.572 . S
C1905 C1084 1.590 . S
C1910 N410 1.571 . S
C1915 N476 1.574 . S
C1920 C1117 1.592 . S
C1925 C1150 1.591 . S
C1930 N509 1.573 . S
C1935 C1183 1.592 . S
C1940 N1235 1.574 . S
C1945 C1216 1.591 . S
C1950 N146 1.572 . S
C1955 C1249 1.591 . S
C1960 N179 1.573 . S
C1965 C1282 1.590 . S
C1970 N212 1.571 . S
C1975 C1315 1.592 . S
C1980 N245 1.574 . S
C1985 N278 1.572 . S
C1990 C1348 1.590 . S
C1995 C1381 1.590 . S
C2000 N1169 1.571 . S
C2005 C1414 1.592 . S
C2010 N311 1.574 . S
C2015 N344 1.572 . S
C2020 C1447 1.590 . S
C2025 N14 1.574 . S
C2030 C1480 1.592 . S
C2035 C1513 1.590 . S
C2040 N80 1.572 . S
C2045 C1546 1.592 . S
C2050 N113 1.574 . S
C2055 N839 1.572 . S
C2060 C1579 1.590 . S
C2065 N5 0.484 . S
C2070 N38 0.484 . S
C2075 N104 0.486 . S
C2080 N71 0.486 . S
C2085 N137 0.484 . S
C2090 N203 0.484 . S
C2095 N236 0.486 . S
C2100 N170 0.486 . S
C2105 N1127 0.484 . S
C2110 N269 0.484 . S
C2115 N302 0.486 . S
C2120 N368 0.486 . S
C2125 N335 0.486 . S
C2130 N1061 0.486 . S
C2135 N401 0.486 . S
C2140 N434 0.486 . S
C2145 N467 0.484 . S
C2150 N500 0.484 . S
C2155 N599 0.486 . S
C2160 N533 0.486 . S
C2165 N566 0.486 . S
C2170 N632 0.486 . S
C2175 N665 0.484 . S
C2180 N1523 0.484 . S
C2185 N764 0.486 . S
C2190 N698 0.486 . S
C2195 N1457 0.484 . S
C2200 N731 0.484 . S
C2205 N830 0.486 . S
C2210 N797 0.486 . S
C2215 N896 0.484 . S
C2220 N863 0.484 . S
C2225 N995 0.486 . S
C2230 N929 0.486 . S
C2235 N1028 0.486 . S
C2240 N962 0.486 . S
C2245 N1160 0.484 . S
C2250 N1094 0.484 . S
C2255 N1226 0.484 . S
C2260 N1193 0.484 . S
C2265 N1292 0.484 . S
C2270 N1259 0.484 . S
C2275 N1391 0.486 . S
C2280 N1325 0.486 . S
C2285 N1424 0.486 . S
C2290 N1358 0.486 . S
C2295 N1556 0.486 . S
C2300 N1490 0.486 . S
C2305 C8 1.398 . S
C2310 C743 1.257 . S
C2315 C41 1.399 . S
C2320 C710 1.263 . S
C2325 C1568 1.259 . S
C2330 C74 1.398 . S
C2335 C677 1.261 . S
C2340 C107 1.399 . S
C2345 C140 1.398 . S
C2350 C1238 1.258 . S
C2355 C1205 1.258 . S
C2360 C173 1.398 . S
C2365 C1304 1.263 . S
C2370 C206 1.399 . S
C2375 C239 1.398 . S
C2380 C1271 1.258 . S
C2385 C1403 1.261 . S
C2390 C272 1.398 . S
C2395 C1337 1.262 . S
C2400 C305 1.398 . S
C2405 C338 1.398 . S
C2410 C1370 1.258 . S
C2415 C644 1.262 . S
C2420 C371 1.398 . S
C2425 C347 1.259 . S
C2430 C404 1.398 . S
C2435 C314 1.262 . S
C2440 C437 1.398 . S
C2445 C470 1.399 . S
C2450 C1172 1.263 . S
C2455 C503 1.399 . S
C2460 C281 1.262 . S
C2465 C842 1.258 . S
C2470 C536 1.398 . S
C2475 C809 1.263 . S
C2480 C569 1.399 . S
C2485 C602 1.398 . S
C2490 C908 1.258 . S
C2495 C635 1.398 . S
C2500 C875 1.258 . S
C2505 C1007 1.262 . S
C2510 C668 1.399 . S
C2515 C701 1.398 . S
C2520 C941 1.259 . S
C2525 C974 1.262 . S
C2530 C734 1.399 . S
C2535 C248 1.258 . S
C2540 C767 1.398 . S
C2545 C800 1.398 . S
C2550 C1535 1.258 . S
C2555 C1502 1.262 . S
C2560 C833 1.398 . S
C2565 C866 1.399 . S
C2570 C776 1.263 . S
C2575 C899 1.399 . S
C2580 C1469 1.261 . S
C2585 C932 1.398 . S
C2590 C446 1.258 . S
C2595 C413 1.263 . S
C2600 C965 1.399 . S
C2605 C998 1.398 . S
C2610 C512 1.259 . S
C2615 C1031 1.398 . S
C2620 C479 1.258 . S
C2625 C611 1.261 . S
C2630 C1064 1.398 . S
C2635 C1097 1.398 . S
C2640 C545 1.262 . S
C2645 C1130 1.398 . S
C2650 C578 1.261 . S
C2655 C1163 1.398 . S
C2660 C1436 1.260 . S
C2665 C1139 1.263 . S
C2670 C1196 1.399 . S
C2675 C1229 1.398 . S
C2680 C1106 1.258 . S
C2685 C1262 1.398 . S
C2690 C380 1.258 . S
C2695 C1295 1.399 . S
C2700 C1073 1.263 . S
C2705 C1328 1.399 . S
C2710 C50 1.263 . S
C2715 C17 1.258 . S
C2720 C1361 1.398 . S
C2725 C116 1.263 . S
C2730 C1394 1.399 . S
C2735 C83 1.262 . S
C2740 C1427 1.398 . S
C2745 C1460 1.398 . S
C2750 C215 1.259 . S
C2755 C149 1.262 . S
C2760 C1493 1.398 . S
C2765 C182 1.258 . S
C2770 C1526 1.398 . S
C2775 C1559 1.398 . S
C2780 C1040 1.257 . S
