# Generated by pormake.
# Topology lcs-a, (4)-cn, num edge types: 1
# Building blocks:
#     Node 0, Type 0, BuildingBlock: QUQFOY_clean_sbu_3, # of connection points: 4
#     Node 1, Type 0, BuildingBlock: QUQFOY_clean_sbu_3, # of connection points: 4
#     Node 2, Type 0, BuildingBlock: QUQFOY_clean_sbu_3, # of connection points: 4
#     Node 3, Type 0, BuildingBlock: QUQFOY_clean_sbu_3, # of connection points: 4
#     Node 4, Type 0, BuildingBlock: QUQFOY_clean_sbu_3, # of connection points: 4
#     Node 5, Type 0, BuildingBlock: QUQFOY_clean_sbu_3, # of connection points: 4
#     Node 6, Type 0, BuildingBlock: QUQFOY_clean_sbu_3, # of connection points: 4
#     Node 7, Type 0, BuildingBlock: QUQFOY_clean_sbu_3, # of connection points: 4
#     Node 8, Type 0, BuildingBlock: QUQFOY_clean_sbu_3, # of connection points: 4
#     Node 9, Type 0, BuildingBlock: QUQFOY_clean_sbu_3, # of connection points: 4
#     Node 10, Type 0, BuildingBlock: QUQFOY_clean_sbu_3, # of connection points: 4
#     Node 11, Type 0, BuildingBlock: QUQFOY_clean_sbu_3, # of connection points: 4
#     Node 12, Type 0, BuildingBlock: QUQFOY_clean_sbu_3, # of connection points: 4
#     Node 13, Type 0, BuildingBlock: QUQFOY_clean_sbu_3, # of connection points: 4
#     Node 14, Type 0, BuildingBlock: QUQFOY_clean_sbu_3, # of connection points: 4
#     Node 15, Type 0, BuildingBlock: QUQFOY_clean_sbu_3, # of connection points: 4
#     Node 16, Type 0, BuildingBlock: QUQFOY_clean_sbu_3, # of connection points: 4
#     Node 17, Type 0, BuildingBlock: QUQFOY_clean_sbu_3, # of connection points: 4
#     Node 18, Type 0, BuildingBlock: QUQFOY_clean_sbu_3, # of connection points: 4
#     Node 19, Type 0, BuildingBlock: QUQFOY_clean_sbu_3, # of connection points: 4
#     Node 20, Type 0, BuildingBlock: QUQFOY_clean_sbu_3, # of connection points: 4
#     Node 21, Type 0, BuildingBlock: QUQFOY_clean_sbu_3, # of connection points: 4
#     Node 22, Type 0, BuildingBlock: QUQFOY_clean_sbu_3, # of connection points: 4
#     Node 23, Type 0, BuildingBlock: QUQFOY_clean_sbu_3, # of connection points: 4
#     Node 24, Type 0, BuildingBlock: QUQFOY_clean_sbu_3, # of connection points: 4
#     Node 25, Type 0, BuildingBlock: QUQFOY_clean_sbu_3, # of connection points: 4
#     Node 26, Type 0, BuildingBlock: QUQFOY_clean_sbu_3, # of connection points: 4
#     Node 27, Type 0, BuildingBlock: QUQFOY_clean_sbu_3, # of connection points: 4
#     Node 28, Type 0, BuildingBlock: QUQFOY_clean_sbu_3, # of connection points: 4
#     Node 29, Type 0, BuildingBlock: QUQFOY_clean_sbu_3, # of connection points: 4
#     Node 30, Type 0, BuildingBlock: QUQFOY_clean_sbu_3, # of connection points: 4
#     Node 31, Type 0, BuildingBlock: QUQFOY_clean_sbu_3, # of connection points: 4
#     Node 32, Type 0, BuildingBlock: QUQFOY_clean_sbu_3, # of connection points: 4
#     Node 33, Type 0, BuildingBlock: QUQFOY_clean_sbu_3, # of connection points: 4
#     Node 34, Type 0, BuildingBlock: QUQFOY_clean_sbu_3, # of connection points: 4
#     Node 35, Type 0, BuildingBlock: QUQFOY_clean_sbu_3, # of connection points: 4
#     Node 36, Type 0, BuildingBlock: QUQFOY_clean_sbu_3, # of connection points: 4
#     Node 37, Type 0, BuildingBlock: QUQFOY_clean_sbu_3, # of connection points: 4
#     Node 38, Type 0, BuildingBlock: QUQFOY_clean_sbu_3, # of connection points: 4
#     Node 39, Type 0, BuildingBlock: QUQFOY_clean_sbu_3, # of connection points: 4
#     Node 40, Type 0, BuildingBlock: QUQFOY_clean_sbu_3, # of connection points: 4
#     Node 41, Type 0, BuildingBlock: QUQFOY_clean_sbu_3, # of connection points: 4
#     Node 42, Type 0, BuildingBlock: QUQFOY_clean_sbu_3, # of connection points: 4
#     Node 43, Type 0, BuildingBlock: QUQFOY_clean_sbu_3, # of connection points: 4
#     Node 44, Type 0, BuildingBlock: QUQFOY_clean_sbu_3, # of connection points: 4
#     Node 45, Type 0, BuildingBlock: QUQFOY_clean_sbu_3, # of connection points: 4
#     Node 46, Type 0, BuildingBlock: QUQFOY_clean_sbu_3, # of connection points: 4
#     Node 47, Type 0, BuildingBlock: QUQFOY_clean_sbu_3, # of connection points: 4
#     Node 48, Type 0, BuildingBlock: QUQFOY_clean_sbu_3, # of connection points: 4
#     Node 49, Type 0, BuildingBlock: QUQFOY_clean_sbu_3, # of connection points: 4
#     Node 50, Type 0, BuildingBlock: QUQFOY_clean_sbu_3, # of connection points: 4
#     Node 51, Type 0, BuildingBlock: QUQFOY_clean_sbu_3, # of connection points: 4
#     Node 52, Type 0, BuildingBlock: QUQFOY_clean_sbu_3, # of connection points: 4
#     Node 53, Type 0, BuildingBlock: QUQFOY_clean_sbu_3, # of connection points: 4
#     Node 54, Type 0, BuildingBlock: QUQFOY_clean_sbu_3, # of connection points: 4
#     Node 55, Type 0, BuildingBlock: QUQFOY_clean_sbu_3, # of connection points: 4
#     Node 56, Type 0, BuildingBlock: QUQFOY_clean_sbu_3, # of connection points: 4
#     Node 57, Type 0, BuildingBlock: QUQFOY_clean_sbu_3, # of connection points: 4
#     Node 58, Type 0, BuildingBlock: QUQFOY_clean_sbu_3, # of connection points: 4
#     Node 59, Type 0, BuildingBlock: QUQFOY_clean_sbu_3, # of connection points: 4
#     Node 60, Type 0, BuildingBlock: QUQFOY_clean_sbu_3, # of connection points: 4
#     Node 61, Type 0, BuildingBlock: QUQFOY_clean_sbu_3, # of connection points: 4
#     Node 62, Type 0, BuildingBlock: QUQFOY_clean_sbu_3, # of connection points: 4
#     Node 63, Type 0, BuildingBlock: QUQFOY_clean_sbu_3, # of connection points: 4
#     Node 64, Type 0, BuildingBlock: QUQFOY_clean_sbu_3, # of connection points: 4
#     Node 65, Type 0, BuildingBlock: QUQFOY_clean_sbu_3, # of connection points: 4
#     Node 66, Type 0, BuildingBlock: QUQFOY_clean_sbu_3, # of connection points: 4
#     Node 67, Type 0, BuildingBlock: QUQFOY_clean_sbu_3, # of connection points: 4
#     Node 68, Type 0, BuildingBlock: QUQFOY_clean_sbu_3, # of connection points: 4
#     Node 69, Type 0, BuildingBlock: QUQFOY_clean_sbu_3, # of connection points: 4
#     Node 70, Type 0, BuildingBlock: QUQFOY_clean_sbu_3, # of connection points: 4
#     Node 71, Type 0, BuildingBlock: QUQFOY_clean_sbu_3, # of connection points: 4
#     Node 72, Type 0, BuildingBlock: QUQFOY_clean_sbu_3, # of connection points: 4
#     Node 73, Type 0, BuildingBlock: QUQFOY_clean_sbu_3, # of connection points: 4
#     Node 74, Type 0, BuildingBlock: QUQFOY_clean_sbu_3, # of connection points: 4
#     Node 75, Type 0, BuildingBlock: QUQFOY_clean_sbu_3, # of connection points: 4
#     Node 76, Type 0, BuildingBlock: QUQFOY_clean_sbu_3, # of connection points: 4
#     Node 77, Type 0, BuildingBlock: QUQFOY_clean_sbu_3, # of connection points: 4
#     Node 78, Type 0, BuildingBlock: QUQFOY_clean_sbu_3, # of connection points: 4
#     Node 79, Type 0, BuildingBlock: QUQFOY_clean_sbu_3, # of connection points: 4
#     Node 80, Type 0, BuildingBlock: QUQFOY_clean_sbu_3, # of connection points: 4
#     Node 81, Type 0, BuildingBlock: QUQFOY_clean_sbu_3, # of connection points: 4
#     Node 82, Type 0, BuildingBlock: QUQFOY_clean_sbu_3, # of connection points: 4
#     Node 83, Type 0, BuildingBlock: QUQFOY_clean_sbu_3, # of connection points: 4
#     Node 84, Type 0, BuildingBlock: QUQFOY_clean_sbu_3, # of connection points: 4
#     Node 85, Type 0, BuildingBlock: QUQFOY_clean_sbu_3, # of connection points: 4
#     Node 86, Type 0, BuildingBlock: QUQFOY_clean_sbu_3, # of connection points: 4
#     Node 87, Type 0, BuildingBlock: QUQFOY_clean_sbu_3, # of connection points: 4
#     Node 88, Type 0, BuildingBlock: QUQFOY_clean_sbu_3, # of connection points: 4
#     Node 89, Type 0, BuildingBlock: QUQFOY_clean_sbu_3, # of connection points: 4
#     Node 90, Type 0, BuildingBlock: QUQFOY_clean_sbu_3, # of connection points: 4
#     Node 91, Type 0, BuildingBlock: QUQFOY_clean_sbu_3, # of connection points: 4
#     Node 92, Type 0, BuildingBlock: QUQFOY_clean_sbu_3, # of connection points: 4
#     Node 93, Type 0, BuildingBlock: QUQFOY_clean_sbu_3, # of connection points: 4
#     Node 94, Type 0, BuildingBlock: QUQFOY_clean_sbu_3, # of connection points: 4
#     Node 95, Type 0, BuildingBlock: QUQFOY_clean_sbu_3, # of connection points: 4
#     Edge 96, Type (0, 0), BuildingBlock: OJICUG_clean_linker_0, # of connection points: 2
#     Edge 97, Type (0, 0), BuildingBlock: OJICUG_clean_linker_0, # of connection points: 2
#     Edge 98, Type (0, 0), BuildingBlock: OJICUG_clean_linker_0, # of connection points: 2
#     Edge 99, Type (0, 0), BuildingBlock: OJICUG_clean_linker_0, # of connection points: 2
#     Edge 100, Type (0, 0), BuildingBlock: OJICUG_clean_linker_0, # of connection points: 2
#     Edge 101, Type (0, 0), BuildingBlock: OJICUG_clean_linker_0, # of connection points: 2
#     Edge 102, Type (0, 0), BuildingBlock: OJICUG_clean_linker_0, # of connection points: 2
#     Edge 103, Type (0, 0), BuildingBlock: OJICUG_clean_linker_0, # of connection points: 2
#     Edge 104, Type (0, 0), BuildingBlock: OJICUG_clean_linker_0, # of connection points: 2
#     Edge 105, Type (0, 0), BuildingBlock: OJICUG_clean_linker_0, # of connection points: 2
#     Edge 106, Type (0, 0), BuildingBlock: OJICUG_clean_linker_0, # of connection points: 2
#     Edge 107, Type (0, 0), BuildingBlock: OJICUG_clean_linker_0, # of connection points: 2
#     Edge 108, Type (0, 0), BuildingBlock: OJICUG_clean_linker_0, # of connection points: 2
#     Edge 109, Type (0, 0), BuildingBlock: OJICUG_clean_linker_0, # of connection points: 2
#     Edge 110, Type (0, 0), BuildingBlock: OJICUG_clean_linker_0, # of connection points: 2
#     Edge 111, Type (0, 0), BuildingBlock: OJICUG_clean_linker_0, # of connection points: 2
#     Edge 112, Type (0, 0), BuildingBlock: OJICUG_clean_linker_0, # of connection points: 2
#     Edge 113, Type (0, 0), BuildingBlock: OJICUG_clean_linker_0, # of connection points: 2
#     Edge 114, Type (0, 0), BuildingBlock: OJICUG_clean_linker_0, # of connection points: 2
#     Edge 115, Type (0, 0), BuildingBlock: OJICUG_clean_linker_0, # of connection points: 2
#     Edge 116, Type (0, 0), BuildingBlock: OJICUG_clean_linker_0, # of connection points: 2
#     Edge 117, Type (0, 0), BuildingBlock: OJICUG_clean_linker_0, # of connection points: 2
#     Edge 118, Type (0, 0), BuildingBlock: OJICUG_clean_linker_0, # of connection points: 2
#     Edge 119, Type (0, 0), BuildingBlock: OJICUG_clean_linker_0, # of connection points: 2
#     Edge 120, Type (0, 0), BuildingBlock: OJICUG_clean_linker_0, # of connection points: 2
#     Edge 121, Type (0, 0), BuildingBlock: OJICUG_clean_linker_0, # of connection points: 2
#     Edge 122, Type (0, 0), BuildingBlock: OJICUG_clean_linker_0, # of connection points: 2
#     Edge 123, Type (0, 0), BuildingBlock: OJICUG_clean_linker_0, # of connection points: 2
#     Edge 124, Type (0, 0), BuildingBlock: OJICUG_clean_linker_0, # of connection points: 2
#     Edge 125, Type (0, 0), BuildingBlock: OJICUG_clean_linker_0, # of connection points: 2
#     Edge 126, Type (0, 0), BuildingBlock: OJICUG_clean_linker_0, # of connection points: 2
#     Edge 127, Type (0, 0), BuildingBlock: OJICUG_clean_linker_0, # of connection points: 2
#     Edge 128, Type (0, 0), BuildingBlock: OJICUG_clean_linker_0, # of connection points: 2
#     Edge 129, Type (0, 0), BuildingBlock: OJICUG_clean_linker_0, # of connection points: 2
#     Edge 130, Type (0, 0), BuildingBlock: OJICUG_clean_linker_0, # of connection points: 2
#     Edge 131, Type (0, 0), BuildingBlock: OJICUG_clean_linker_0, # of connection points: 2
#     Edge 132, Type (0, 0), BuildingBlock: OJICUG_clean_linker_0, # of connection points: 2
#     Edge 133, Type (0, 0), BuildingBlock: OJICUG_clean_linker_0, # of connection points: 2
#     Edge 134, Type (0, 0), BuildingBlock: OJICUG_clean_linker_0, # of connection points: 2
#     Edge 135, Type (0, 0), BuildingBlock: OJICUG_clean_linker_0, # of connection points: 2
#     Edge 136, Type (0, 0), BuildingBlock: OJICUG_clean_linker_0, # of connection points: 2
#     Edge 137, Type (0, 0), BuildingBlock: OJICUG_clean_linker_0, # of connection points: 2
#     Edge 138, Type (0, 0), BuildingBlock: OJICUG_clean_linker_0, # of connection points: 2
#     Edge 139, Type (0, 0), BuildingBlock: OJICUG_clean_linker_0, # of connection points: 2
#     Edge 140, Type (0, 0), BuildingBlock: OJICUG_clean_linker_0, # of connection points: 2
#     Edge 141, Type (0, 0), BuildingBlock: OJICUG_clean_linker_0, # of connection points: 2
#     Edge 142, Type (0, 0), BuildingBlock: OJICUG_clean_linker_0, # of connection points: 2
#     Edge 143, Type (0, 0), BuildingBlock: OJICUG_clean_linker_0, # of connection points: 2
#     Edge 144, Type (0, 0), BuildingBlock: OJICUG_clean_linker_0, # of connection points: 2
#     Edge 145, Type (0, 0), BuildingBlock: OJICUG_clean_linker_0, # of connection points: 2
#     Edge 146, Type (0, 0), BuildingBlock: OJICUG_clean_linker_0, # of connection points: 2
#     Edge 147, Type (0, 0), BuildingBlock: OJICUG_clean_linker_0, # of connection points: 2
#     Edge 148, Type (0, 0), BuildingBlock: OJICUG_clean_linker_0, # of connection points: 2
#     Edge 149, Type (0, 0), BuildingBlock: OJICUG_clean_linker_0, # of connection points: 2
#     Edge 150, Type (0, 0), BuildingBlock: OJICUG_clean_linker_0, # of connection points: 2
#     Edge 151, Type (0, 0), BuildingBlock: OJICUG_clean_linker_0, # of connection points: 2
#     Edge 152, Type (0, 0), BuildingBlock: OJICUG_clean_linker_0, # of connection points: 2
#     Edge 153, Type (0, 0), BuildingBlock: OJICUG_clean_linker_0, # of connection points: 2
#     Edge 154, Type (0, 0), BuildingBlock: OJICUG_clean_linker_0, # of connection points: 2
#     Edge 155, Type (0, 0), BuildingBlock: OJICUG_clean_linker_0, # of connection points: 2
#     Edge 156, Type (0, 0), BuildingBlock: OJICUG_clean_linker_0, # of connection points: 2
#     Edge 157, Type (0, 0), BuildingBlock: OJICUG_clean_linker_0, # of connection points: 2
#     Edge 158, Type (0, 0), BuildingBlock: OJICUG_clean_linker_0, # of connection points: 2
#     Edge 159, Type (0, 0), BuildingBlock: OJICUG_clean_linker_0, # of connection points: 2
#     Edge 160, Type (0, 0), BuildingBlock: OJICUG_clean_linker_0, # of connection points: 2
#     Edge 161, Type (0, 0), BuildingBlock: OJICUG_clean_linker_0, # of connection points: 2
#     Edge 162, Type (0, 0), BuildingBlock: OJICUG_clean_linker_0, # of connection points: 2
#     Edge 163, Type (0, 0), BuildingBlock: OJICUG_clean_linker_0, # of connection points: 2
#     Edge 164, Type (0, 0), BuildingBlock: OJICUG_clean_linker_0, # of connection points: 2
#     Edge 165, Type (0, 0), BuildingBlock: OJICUG_clean_linker_0, # of connection points: 2
#     Edge 166, Type (0, 0), BuildingBlock: OJICUG_clean_linker_0, # of connection points: 2
#     Edge 167, Type (0, 0), BuildingBlock: OJICUG_clean_linker_0, # of connection points: 2
#     Edge 168, Type (0, 0), BuildingBlock: OJICUG_clean_linker_0, # of connection points: 2
#     Edge 169, Type (0, 0), BuildingBlock: OJICUG_clean_linker_0, # of connection points: 2
#     Edge 170, Type (0, 0), BuildingBlock: OJICUG_clean_linker_0, # of connection points: 2
#     Edge 171, Type (0, 0), BuildingBlock: OJICUG_clean_linker_0, # of connection points: 2
#     Edge 172, Type (0, 0), BuildingBlock: OJICUG_clean_linker_0, # of connection points: 2
#     Edge 173, Type (0, 0), BuildingBlock: OJICUG_clean_linker_0, # of connection points: 2
#     Edge 174, Type (0, 0), BuildingBlock: OJICUG_clean_linker_0, # of connection points: 2
#     Edge 175, Type (0, 0), BuildingBlock: OJICUG_clean_linker_0, # of connection points: 2
#     Edge 176, Type (0, 0), BuildingBlock: OJICUG_clean_linker_0, # of connection points: 2
#     Edge 177, Type (0, 0), BuildingBlock: OJICUG_clean_linker_0, # of connection points: 2
#     Edge 178, Type (0, 0), BuildingBlock: OJICUG_clean_linker_0, # of connection points: 2
#     Edge 179, Type (0, 0), BuildingBlock: OJICUG_clean_linker_0, # of connection points: 2
#     Edge 180, Type (0, 0), BuildingBlock: OJICUG_clean_linker_0, # of connection points: 2
#     Edge 181, Type (0, 0), BuildingBlock: OJICUG_clean_linker_0, # of connection points: 2
#     Edge 182, Type (0, 0), BuildingBlock: OJICUG_clean_linker_0, # of connection points: 2
#     Edge 183, Type (0, 0), BuildingBlock: OJICUG_clean_linker_0, # of connection points: 2
#     Edge 184, Type (0, 0), BuildingBlock: OJICUG_clean_linker_0, # of connection points: 2
#     Edge 185, Type (0, 0), BuildingBlock: OJICUG_clean_linker_0, # of connection points: 2
#     Edge 186, Type (0, 0), BuildingBlock: OJICUG_clean_linker_0, # of connection points: 2
#     Edge 187, Type (0, 0), BuildingBlock: OJICUG_clean_linker_0, # of connection points: 2
#     Edge 188, Type (0, 0), BuildingBlock: OJICUG_clean_linker_0, # of connection points: 2
#     Edge 189, Type (0, 0), BuildingBlock: OJICUG_clean_linker_0, # of connection points: 2
#     Edge 190, Type (0, 0), BuildingBlock: OJICUG_clean_linker_0, # of connection points: 2
#     Edge 191, Type (0, 0), BuildingBlock: OJICUG_clean_linker_0, # of connection points: 2
#     Edge 192, Type (0, 0), BuildingBlock: OJICUG_clean_linker_0, # of connection points: 2
#     Edge 193, Type (0, 0), BuildingBlock: OJICUG_clean_linker_0, # of connection points: 2
#     Edge 194, Type (0, 0), BuildingBlock: OJICUG_clean_linker_0, # of connection points: 2
#     Edge 195, Type (0, 0), BuildingBlock: OJICUG_clean_linker_0, # of connection points: 2
#     Edge 196, Type (0, 0), BuildingBlock: OJICUG_clean_linker_0, # of connection points: 2
#     Edge 197, Type (0, 0), BuildingBlock: OJICUG_clean_linker_0, # of connection points: 2
#     Edge 198, Type (0, 0), BuildingBlock: OJICUG_clean_linker_0, # of connection points: 2
#     Edge 199, Type (0, 0), BuildingBlock: OJICUG_clean_linker_0, # of connection points: 2
#     Edge 200, Type (0, 0), BuildingBlock: OJICUG_clean_linker_0, # of connection points: 2
#     Edge 201, Type (0, 0), BuildingBlock: OJICUG_clean_linker_0, # of connection points: 2
#     Edge 202, Type (0, 0), BuildingBlock: OJICUG_clean_linker_0, # of connection points: 2
#     Edge 203, Type (0, 0), BuildingBlock: OJICUG_clean_linker_0, # of connection points: 2
#     Edge 204, Type (0, 0), BuildingBlock: OJICUG_clean_linker_0, # of connection points: 2
#     Edge 205, Type (0, 0), BuildingBlock: OJICUG_clean_linker_0, # of connection points: 2
#     Edge 206, Type (0, 0), BuildingBlock: OJICUG_clean_linker_0, # of connection points: 2
#     Edge 207, Type (0, 0), BuildingBlock: OJICUG_clean_linker_0, # of connection points: 2
#     Edge 208, Type (0, 0), BuildingBlock: OJICUG_clean_linker_0, # of connection points: 2
#     Edge 209, Type (0, 0), BuildingBlock: OJICUG_clean_linker_0, # of connection points: 2
#     Edge 210, Type (0, 0), BuildingBlock: OJICUG_clean_linker_0, # of connection points: 2
#     Edge 211, Type (0, 0), BuildingBlock: OJICUG_clean_linker_0, # of connection points: 2
#     Edge 212, Type (0, 0), BuildingBlock: OJICUG_clean_linker_0, # of connection points: 2
#     Edge 213, Type (0, 0), BuildingBlock: OJICUG_clean_linker_0, # of connection points: 2
#     Edge 214, Type (0, 0), BuildingBlock: OJICUG_clean_linker_0, # of connection points: 2
#     Edge 215, Type (0, 0), BuildingBlock: OJICUG_clean_linker_0, # of connection points: 2
#     Edge 216, Type (0, 0), BuildingBlock: OJICUG_clean_linker_0, # of connection points: 2
#     Edge 217, Type (0, 0), BuildingBlock: OJICUG_clean_linker_0, # of connection points: 2
#     Edge 218, Type (0, 0), BuildingBlock: OJICUG_clean_linker_0, # of connection points: 2
#     Edge 219, Type (0, 0), BuildingBlock: OJICUG_clean_linker_0, # of connection points: 2
#     Edge 220, Type (0, 0), BuildingBlock: OJICUG_clean_linker_0, # of connection points: 2
#     Edge 221, Type (0, 0), BuildingBlock: OJICUG_clean_linker_0, # of connection points: 2
#     Edge 222, Type (0, 0), BuildingBlock: OJICUG_clean_linker_0, # of connection points: 2
#     Edge 223, Type (0, 0), BuildingBlock: OJICUG_clean_linker_0, # of connection points: 2
#     Edge 224, Type (0, 0), BuildingBlock: OJICUG_clean_linker_0, # of connection points: 2
#     Edge 225, Type (0, 0), BuildingBlock: OJICUG_clean_linker_0, # of connection points: 2
#     Edge 226, Type (0, 0), BuildingBlock: OJICUG_clean_linker_0, # of connection points: 2
#     Edge 227, Type (0, 0), BuildingBlock: OJICUG_clean_linker_0, # of connection points: 2
#     Edge 228, Type (0, 0), BuildingBlock: OJICUG_clean_linker_0, # of connection points: 2
#     Edge 229, Type (0, 0), BuildingBlock: OJICUG_clean_linker_0, # of connection points: 2
#     Edge 230, Type (0, 0), BuildingBlock: OJICUG_clean_linker_0, # of connection points: 2
#     Edge 231, Type (0, 0), BuildingBlock: OJICUG_clean_linker_0, # of connection points: 2
#     Edge 232, Type (0, 0), BuildingBlock: OJICUG_clean_linker_0, # of connection points: 2
#     Edge 233, Type (0, 0), BuildingBlock: OJICUG_clean_linker_0, # of connection points: 2
#     Edge 234, Type (0, 0), BuildingBlock: OJICUG_clean_linker_0, # of connection points: 2
#     Edge 235, Type (0, 0), BuildingBlock: OJICUG_clean_linker_0, # of connection points: 2
#     Edge 236, Type (0, 0), BuildingBlock: OJICUG_clean_linker_0, # of connection points: 2
#     Edge 237, Type (0, 0), BuildingBlock: OJICUG_clean_linker_0, # of connection points: 2
#     Edge 238, Type (0, 0), BuildingBlock: OJICUG_clean_linker_0, # of connection points: 2
#     Edge 239, Type (0, 0), BuildingBlock: OJICUG_clean_linker_0, # of connection points: 2
#     Edge 240, Type (0, 0), BuildingBlock: OJICUG_clean_linker_0, # of connection points: 2
#     Edge 241, Type (0, 0), BuildingBlock: OJICUG_clean_linker_0, # of connection points: 2
#     Edge 242, Type (0, 0), BuildingBlock: OJICUG_clean_linker_0, # of connection points: 2
#     Edge 243, Type (0, 0), BuildingBlock: OJICUG_clean_linker_0, # of connection points: 2
#     Edge 244, Type (0, 0), BuildingBlock: OJICUG_clean_linker_0, # of connection points: 2
#     Edge 245, Type (0, 0), BuildingBlock: OJICUG_clean_linker_0, # of connection points: 2
#     Edge 246, Type (0, 0), BuildingBlock: OJICUG_clean_linker_0, # of connection points: 2
#     Edge 247, Type (0, 0), BuildingBlock: OJICUG_clean_linker_0, # of connection points: 2
#     Edge 248, Type (0, 0), BuildingBlock: OJICUG_clean_linker_0, # of connection points: 2
#     Edge 249, Type (0, 0), BuildingBlock: OJICUG_clean_linker_0, # of connection points: 2
#     Edge 250, Type (0, 0), BuildingBlock: OJICUG_clean_linker_0, # of connection points: 2
#     Edge 251, Type (0, 0), BuildingBlock: OJICUG_clean_linker_0, # of connection points: 2
#     Edge 252, Type (0, 0), BuildingBlock: OJICUG_clean_linker_0, # of connection points: 2
#     Edge 253, Type (0, 0), BuildingBlock: OJICUG_clean_linker_0, # of connection points: 2
#     Edge 254, Type (0, 0), BuildingBlock: OJICUG_clean_linker_0, # of connection points: 2
#     Edge 255, Type (0, 0), BuildingBlock: OJICUG_clean_linker_0, # of connection points: 2
#     Edge 256, Type (0, 0), BuildingBlock: OJICUG_clean_linker_0, # of connection points: 2
#     Edge 257, Type (0, 0), BuildingBlock: OJICUG_clean_linker_0, # of connection points: 2
#     Edge 258, Type (0, 0), BuildingBlock: OJICUG_clean_linker_0, # of connection points: 2
#     Edge 259, Type (0, 0), BuildingBlock: OJICUG_clean_linker_0, # of connection points: 2
#     Edge 260, Type (0, 0), BuildingBlock: OJICUG_clean_linker_0, # of connection points: 2
#     Edge 261, Type (0, 0), BuildingBlock: OJICUG_clean_linker_0, # of connection points: 2
#     Edge 262, Type (0, 0), BuildingBlock: OJICUG_clean_linker_0, # of connection points: 2
#     Edge 263, Type (0, 0), BuildingBlock: OJICUG_clean_linker_0, # of connection points: 2
#     Edge 264, Type (0, 0), BuildingBlock: OJICUG_clean_linker_0, # of connection points: 2
#     Edge 265, Type (0, 0), BuildingBlock: OJICUG_clean_linker_0, # of connection points: 2
#     Edge 266, Type (0, 0), BuildingBlock: OJICUG_clean_linker_0, # of connection points: 2
#     Edge 267, Type (0, 0), BuildingBlock: OJICUG_clean_linker_0, # of connection points: 2
#     Edge 268, Type (0, 0), BuildingBlock: OJICUG_clean_linker_0, # of connection points: 2
#     Edge 269, Type (0, 0), BuildingBlock: OJICUG_clean_linker_0, # of connection points: 2
#     Edge 270, Type (0, 0), BuildingBlock: OJICUG_clean_linker_0, # of connection points: 2
#     Edge 271, Type (0, 0), BuildingBlock: OJICUG_clean_linker_0, # of connection points: 2
#     Edge 272, Type (0, 0), BuildingBlock: OJICUG_clean_linker_0, # of connection points: 2
#     Edge 273, Type (0, 0), BuildingBlock: OJICUG_clean_linker_0, # of connection points: 2
#     Edge 274, Type (0, 0), BuildingBlock: OJICUG_clean_linker_0, # of connection points: 2
#     Edge 275, Type (0, 0), BuildingBlock: OJICUG_clean_linker_0, # of connection points: 2
#     Edge 276, Type (0, 0), BuildingBlock: OJICUG_clean_linker_0, # of connection points: 2
#     Edge 277, Type (0, 0), BuildingBlock: OJICUG_clean_linker_0, # of connection points: 2
#     Edge 278, Type (0, 0), BuildingBlock: OJICUG_clean_linker_0, # of connection points: 2
#     Edge 279, Type (0, 0), BuildingBlock: OJICUG_clean_linker_0, # of connection points: 2
#     Edge 280, Type (0, 0), BuildingBlock: OJICUG_clean_linker_0, # of connection points: 2
#     Edge 281, Type (0, 0), BuildingBlock: OJICUG_clean_linker_0, # of connection points: 2
#     Edge 282, Type (0, 0), BuildingBlock: OJICUG_clean_linker_0, # of connection points: 2
#     Edge 283, Type (0, 0), BuildingBlock: OJICUG_clean_linker_0, # of connection points: 2
#     Edge 284, Type (0, 0), BuildingBlock: OJICUG_clean_linker_0, # of connection points: 2
#     Edge 285, Type (0, 0), BuildingBlock: OJICUG_clean_linker_0, # of connection points: 2
#     Edge 286, Type (0, 0), BuildingBlock: OJICUG_clean_linker_0, # of connection points: 2
#     Edge 287, Type (0, 0), BuildingBlock: OJICUG_clean_linker_0, # of connection points: 2
# Relax obj value: 0.762
# Max RMSD: 0.640
# Mean RMSD: 0.639
data_MOF--net-lcs-a--node1-QUQFOY_clean_sbu_3--edge1-OJICUG_clean_linker_0
_symmetry_space_group_name_H-M    P1
_symmetry_Int_Tables_number       1
_symmetry_cell_setting            triclinic
loop_
_symmetry_equiv_pos_as_xyz
'x, y, z'
_cell_length_a     60.639896
_cell_length_b     60.565859
_cell_length_c     60.531555
_cell_angle_alpha  90.005414
_cell_angle_beta   89.952434
_cell_angle_gamma 90.020634
loop_
_atom_site_label
_atom_site_type_symbol
_atom_site_fract_x
_atom_site_fract_y
_atom_site_fract_z
_atom_type_partial_charge
C0 C 0.05437 0.34612 0.40805 0.0
O1 O 0.0437 0.33746 0.42383 0.0
Cd2 Cd 0.05487 0.30894 0.45024 0.0
O3 O 0.07371 0.33927 0.40407 0.0
Cd4 Cd 0.08422 0.301 0.41269 0.0
C5 C 0.03092 0.27806 0.41558 0.0
O6 O 0.08132 0.27892 0.44621 0.0
O7 O 0.11409 0.28943 0.43741 0.0
O8 O 0.11756 0.30417 0.3919 0.0
C9 C 0.10191 0.27535 0.44699 0.0
O10 O 0.02765 0.28512 0.43509 0.0
C11 C 0.11073 0.29429 0.37476 0.0
O12 O 0.04876 0.28226 0.40521 0.0
O13 O 0.09192 0.28503 0.37612 0.0
C14 C 0.91195 0.81206 0.6102 0.0
O15 O 0.91659 0.81311 0.63064 0.0
Cd16 Cd 0.94992 0.83273 0.64718 0.0
O17 O 0.92368 0.82304 0.59673 0.0
Cd18 Cd 0.94446 0.84071 0.62594 0.0
C19 C 0.97199 0.7925 0.63798 0.0
O20 O 0.9764 0.86148 0.63582 0.0
O21 O 0.96549 0.86478 0.60176 0.0
O22 O 0.91639 0.84728 0.65769 0.0
C23 C 0.97945 0.86963 0.61668 0.0
O24 O 0.97241 0.80217 0.65649 0.0
C25 C 0.90649 0.86168 0.64614 0.0
O26 O 0.9618 0.80181 0.6222 0.0
O27 O 0.91422 0.866 0.62714 0.0
C28 C 0.43894 0.65342 0.8739 0.0
O29 O 0.43813 0.65755 0.89446 0.0
Cd30 Cd 0.41642 0.68934 0.91106 0.0
O31 O 0.4264 0.66435 0.86115 0.0
Cd32 Cd 0.40808 0.6833 0.89137 0.0
C33 C 0.45358 0.71494 0.89947 0.0
O34 O 0.38463 0.71299 0.90291 0.0
O35 O 0.38016 0.70191 0.86911 0.0
O36 O 0.40512 0.65594 0.92457 0.0
C37 C 0.37499 0.71534 0.88445 0.0
O38 O 0.44485 0.71457 0.91844 0.0
C39 C 0.39305 0.64346 0.91285 0.0
O40 O 0.44459 0.70379 0.88421 0.0
O41 O 0.3885 0.64953 0.8933 0.0
C42 C 0.61781 0.18926 0.10213 0.0
O43 O 0.60853 0.19286 0.12059 0.0
Cd44 Cd 0.5831 0.16335 0.13709 0.0
O45 O 0.61493 0.17053 0.09348 0.0
Cd46 Cd 0.58872 0.15778 0.1211 0.0
C47 C 0.55508 0.19883 0.14184 0.0
O48 O 0.55563 0.14209 0.11302 0.0
O49 O 0.58071 0.13587 0.08787 0.0
O50 O 0.59246 0.12468 0.14547 0.0
C51 C 0.56093 0.13363 0.09451 0.0
O52 O 0.55868 0.18731 0.15891 0.0
C53 C 0.60994 0.13056 0.15531 0.0
O54 O 0.56469 0.19343 0.12403 0.0
O55 O 0.6175 0.14951 0.15031 0.0
C56 C 0.03759 0.66475 0.05863 0.0
O57 O 0.0445 0.67021 0.03956 0.0
Cd58 Cd 0.07143 0.69527 0.05654 0.0
O59 O 0.04759 0.67225 0.07543 0.0
Cd60 Cd 0.08086 0.69807 0.07472 0.0
C61 C 0.04 0.72248 0.08937 0.0
O62 O 0.08973 0.72478 0.0413 0.0
O63 O 0.09797 0.73279 0.07531 0.0
O64 O 0.10853 0.66871 0.07276 0.0
C65 C 0.09813 0.73834 0.0551 0.0
O66 O 0.04136 0.71831 0.06899 0.0
C67 C 0.11529 0.67201 0.0924 0.0
O68 O 0.05523 0.71544 0.10184 0.0
O69 O 0.10626 0.68759 0.10316 0.0
C70 C 0.58786 0.8167 0.37068 0.0
O71 O 0.5832 0.81881 0.35028 0.0
Cd72 Cd 0.55323 0.84202 0.33326 0.0
O73 O 0.57884 0.82984 0.38429 0.0
Cd74 Cd 0.55767 0.85259 0.3595 0.0
C75 C 0.52656 0.8057 0.3501 0.0
O76 O 0.52644 0.87104 0.34578 0.0
O77 O 0.53471 0.8761 0.38072 0.0
O78 O 0.58495 0.86617 0.33179 0.0
C79 C 0.52224 0.88033 0.36427 0.0
O80 O 0.52801 0.81222 0.33027 0.0
C81 C 0.59155 0.88112 0.34515 0.0
O82 O 0.53678 0.81641 0.36496 0.0
O83 O 0.58328 0.88134 0.36449 0.0
C84 C 0.45077 0.34164 0.5642 0.0
O85 O 0.43902 0.33908 0.547 0.0
Cd86 Cd 0.41705 0.31069 0.56635 0.0
O87 O 0.44562 0.33109 0.58153 0.0
Cd88 Cd 0.41068 0.30891 0.58485 0.0
C89 C 0.45106 0.28048 0.59265 0.0
O90 O 0.39303 0.28313 0.55522 0.0
O91 O 0.38619 0.27925 0.59035 0.0
O92 O 0.39177 0.3435 0.57901 0.0
C93 C 0.38335 0.27244 0.57069 0.0
O94 O 0.44726 0.28587 0.57287 0.0
C95 C 0.38425 0.34429 0.5986 0.0
O96 O 0.43832 0.28799 0.60752 0.0
O97 O 0.38884 0.32844 0.61166 0.0
C98 C 0.90972 0.18389 0.87358 0.0
O99 O 0.91654 0.17938 0.85421 0.0
Cd100 Cd 0.95161 0.15957 0.84371 0.0
O101 O 0.91993 0.17569 0.88994 0.0
Cd102 Cd 0.94484 0.15294 0.86971 0.0
C103 C 0.97339 0.20072 0.8578 0.0
O104 O 0.97722 0.13287 0.86206 0.0
O105 O 0.96619 0.13379 0.89657 0.0
O106 O 0.91884 0.13661 0.84174 0.0
C107 C 0.98015 0.12725 0.8822 0.0
O108 O 0.97473 0.19122 0.83922 0.0
C109 C 0.91033 0.12429 0.8566 0.0
O110 O 0.96219 0.19142 0.87292 0.0
O111 O 0.91791 0.12568 0.87614 0.0
C112 C 0.44149 0.04787 0.33485 0.0
O113 O 0.45018 0.04545 0.31597 0.0
Cd114 Cd 0.45522 0.08138 0.29546 0.0
O115 O 0.43418 0.06692 0.33903 0.0
Cd116 Cd 0.41993 0.07128 0.30135 0.0
C117 C 0.45379 0.05139 0.25804 0.0
O118 O 0.42438 0.10545 0.28132 0.0
O119 O 0.40507 0.10704 0.31131 0.0
O120 O 0.39434 0.04339 0.31455 0.0
C121 C 0.40959 0.11529 0.29259 0.0
O122 O 0.4678 0.06657 0.26121 0.0
C123 C 0.37758 0.05097 0.30471 0.0
O124 O 0.43702 0.04975 0.27061 0.0
O125 O 0.38113 0.06644 0.29106 0.0
C126 C 0.2363 0.19935 0.57864 0.0
O127 O 0.23566 0.21625 0.56629 0.0
Cd128 Cd 0.21071 0.21361 0.53477 0.0
O129 O 0.22141 0.18478 0.57668 0.0
Cd130 Cd 0.1893 0.17686 0.55398 0.0
C131 C 0.22856 0.16295 0.51949 0.0
O132 O 0.17071 0.20749 0.53342 0.0
O133 O 0.1738 0.17465 0.51899 0.0
O134 O 0.16031 0.16975 0.58084 0.0
C135 C 0.16462 0.19342 0.51888 0.0
O136 O 0.22878 0.18352 0.51521 0.0
C137 C 0.16068 0.14901 0.57753 0.0
O138 O 0.21603 0.15517 0.53434 0.0
O139 O 0.17459 0.14161 0.56377 0.0
C140 C 0.06076 0.97239 0.84388 0.0
O141 O 0.04345 0.96082 0.84126 0.0
Cd142 Cd 0.06514 0.93364 0.81981 0.0
O143 O 0.07891 0.96495 0.83674 0.0
Cd144 Cd 0.08473 0.92727 0.82039 0.0
C145 C 0.09368 0.96188 0.78552 0.0
O146 O 0.05752 0.90442 0.79614 0.0
O147 O 0.09311 0.89957 0.79448 0.0
O148 O 0.07941 0.90756 0.85471 0.0
C149 C 0.07401 0.8943 0.78763 0.0
O150 O 0.07362 0.95907 0.79041 0.0
C151 C 0.1 0.90583 0.85829 0.0
O152 O 0.108 0.95075 0.79595 0.0
O153 O 0.11325 0.91406 0.84421 0.0
C154 C 0.32387 0.83053 0.0944 0.0
O155 O 0.33501 0.813 0.09141 0.0
Cd156 Cd 0.35092 0.82908 0.05762 0.0
O157 O 0.32735 0.84681 0.0817 0.0
Cd158 Cd 0.35622 0.84923 0.05142 0.0
C159 C 0.31027 0.84634 0.0299 0.0
O160 O 0.37333 0.81541 0.02998 0.0
O161 O 0.37233 0.84855 0.01612 0.0
O162 O 0.38418 0.8609 0.07769 0.0
C163 C 0.37776 0.82844 0.01395 0.0
O164 O 0.31673 0.82793 0.03722 0.0
C165 C 0.38371 0.88096 0.07134 0.0
O166 O 0.32256 0.86302 0.03283 0.0
O167 O 0.37133 0.8856 0.05506 0.0
C168 C 0.34776 0.00131 0.16668 0.0
O169 O 0.36746 0.00528 0.16114 0.0
Cd170 Cd 0.38502 0.96987 0.17563 0.0
O171 O 0.3445 0.98276 0.17557 0.0
Cd172 Cd 0.38342 0.9687 0.17689 0.0
C173 C 0.42139 0.99629 0.19269 0.0
O174 O 0.3617 0.94746 0.20146 0.0
O175 O 0.39595 0.9459 0.2098 0.0
O176 O 0.40663 0.94292 0.15437 0.0
C177 C 0.37634 0.94018 0.21442 0.0
O178 O 0.42298 0.97555 0.19178 0.0
C179 C 0.39599 0.94554 0.13655 0.0
O180 O 0.40367 0.00443 0.18547 0.0
O181 O 0.38003 0.9591 0.13698 0.0
C182 C 0.29043 0.13911 0.38542 0.0
O183 O 0.30972 0.14493 0.37972 0.0
Cd184 Cd 0.32532 0.1166 0.40476 0.0
O185 O 0.28824 0.12275 0.39825 0.0
Cd186 Cd 0.32139 0.09961 0.40906 0.0
C187 C 0.29399 0.11206 0.44699 0.0
O188 O 0.35699 0.11959 0.42441 0.0
O189 O 0.34788 0.08685 0.43568 0.0
O190 O 0.32734 0.09413 0.37003 0.0
C191 C 0.36039 0.10358 0.43771 0.0
O192 O 0.30549 0.12684 0.43784 0.0
C193 C 0.32447 0.07336 0.3702 0.0
O194 O 0.29408 0.09282 0.43867 0.0
O195 O 0.32095 0.06423 0.38885 0.0
C196 C 0.06255 0.02957 0.64584 0.0
O197 O 0.04624 0.04241 0.64889 0.0
Cd198 Cd 0.07029 0.06747 0.67034 0.0
O199 O 0.08134 0.03549 0.65274 0.0
Cd200 Cd 0.09048 0.07225 0.66965 0.0
C201 C 0.09629 0.03767 0.70517 0.0
O202 O 0.06482 0.0978 0.69311 0.0
O203 O 0.10063 0.09892 0.69588 0.0
O204 O 0.08927 0.09315 0.63572 0.0
C205 C 0.082 0.10629 0.70201 0.0
O206 O 0.07651 0.04184 0.70014 0.0
C207 C 0.11013 0.09293 0.63348 0.0
O208 O 0.11144 0.04748 0.69458 0.0
O209 O 0.12149 0.08267 0.64783 0.0
C210 C 0.20392 0.8032 0.91043 0.0
O211 O 0.19771 0.78508 0.91897 0.0
Cd212 Cd 0.18034 0.80494 0.9497 0.0
O213 O 0.19667 0.82103 0.91862 0.0
Cd214 Cd 0.16966 0.82717 0.9495 0.0
C215 C 0.215 0.83231 0.97559 0.0
O216 O 0.15337 0.79663 0.97565 0.0
O217 O 0.1509 0.83177 0.98276 0.0
O218 O 0.14013 0.83311 0.92334 0.0
C219 C 0.14661 0.81206 0.98839 0.0
O220 O 0.21186 0.81194 0.97242 0.0
C221 C 0.14093 0.85403 0.92524 0.0
O222 O 0.20118 0.8459 0.9677 0.0
O223 O 0.15465 0.86208 0.9389 0.0
C224 C 0.35021 0.43129 0.04691 0.0
O225 O 0.34382 0.44997 0.05403 0.0
Cd226 Cd 0.31959 0.43164 0.0807 0.0
O227 O 0.34352 0.41407 0.05682 0.0
Cd228 Cd 0.31621 0.41371 0.0893 0.0
C229 C 0.29476 0.39762 0.04813 0.0
O230 O 0.28991 0.44796 0.09732 0.0
O231 O 0.27873 0.41402 0.10015 0.0
O232 O 0.34325 0.41374 0.11962 0.0
C233 C 0.27456 0.43442 0.10221 0.0
O234 O 0.29766 0.41815 0.05008 0.0
C235 C 0.33783 0.39452 0.12624 0.0
O236 O 0.3021 0.38522 0.06326 0.0
O237 O 0.32233 0.38497 0.11591 0.0
C238 C 0.81344 0.13175 0.92661 0.0
O239 O 0.81924 0.11166 0.92916 0.0
Cd240 Cd 0.79702 0.07696 0.92004 0.0
O241 O 0.79594 0.1357 0.91581 0.0
Cd242 Cd 0.78901 0.0984 0.90393 0.0
C243 C 0.77308 0.08972 0.95873 0.0
O244 O 0.76362 0.0693 0.89682 0.0
O245 O 0.75745 0.10128 0.8812 0.0
O246 O 0.82476 0.08201 0.89229 0.0
C247 C 0.75124 0.0815 0.88493 0.0
O248 O 0.78077 0.07054 0.95566 0.0
C249 C 0.82674 0.0952 0.87597 0.0
O250 O 0.77513 0.10395 0.94341 0.0
O251 O 0.81126 0.109 0.87281 0.0
C252 C 0.14107 0.58927 0.20627 0.0
O253 O 0.15734 0.58184 0.19524 0.0
Cd254 Cd 0.1557 0.55165 0.16658 0.0
O255 O 0.12175 0.58399 0.20023 0.0
Cd256 Cd 0.12916 0.56356 0.16766 0.0
C257 C 0.14742 0.52632 0.20629 0.0
O258 O 0.12588 0.53249 0.14434 0.0
O259 O 0.09498 0.54823 0.1548 0.0
O260 O 0.15534 0.5859 0.14507 0.0
C261 C 0.10478 0.53281 0.14428 0.0
O262 O 0.16329 0.52314 0.19304 0.0
C263 C 0.14089 0.60107 0.14294 0.0
O264 O 0.13324 0.54098 0.20177 0.0
O265 O 0.1221 0.59834 0.15194 0.0
C266 C 0.65688 0.8815 0.42884 0.0
O267 O 0.66902 0.89825 0.42513 0.0
Cd268 Cd 0.70623 0.89855 0.40599 0.0
O269 O 0.66239 0.86318 0.4203 0.0
Cd270 Cd 0.6939 0.87622 0.40054 0.0
C271 C 0.72276 0.88632 0.44881 0.0
O272 O 0.72781 0.87173 0.38304 0.0
O273 O 0.7072 0.84209 0.38551 0.0
O274 O 0.67899 0.91039 0.3809 0.0
C275 C 0.72491 0.85127 0.37885 0.0
O276 O 0.72891 0.90291 0.43768 0.0
C277 C 0.66994 0.89814 0.36639 0.0
O278 O 0.70867 0.87332 0.4403 0.0
O279 O 0.67178 0.87738 0.36869 0.0
C280 C 0.8579 0.89035 0.20369 0.0
O281 O 0.84069 0.90181 0.20013 0.0
Cd282 Cd 0.83617 0.93267 0.17262 0.0
O283 O 0.87403 0.89252 0.19052 0.0
Cd284 Cd 0.85916 0.92003 0.16621 0.0
C285 C 0.85274 0.95685 0.20948 0.0
O286 O 0.86025 0.95209 0.14513 0.0
O287 O 0.8911 0.93327 0.14656 0.0
O288 O 0.82416 0.90474 0.14844 0.0
C289 C 0.88027 0.94971 0.13911 0.0
O290 O 0.83464 0.96049 0.19973 0.0
C291 C 0.83614 0.89427 0.13465 0.0
O292 O 0.86537 0.94191 0.20196 0.0
O293 O 0.85691 0.89426 0.13759 0.0
C294 C 0.15829 0.61619 0.55051 0.0
O295 O 0.16399 0.59664 0.55568 0.0
Cd296 Cd 0.19666 0.58514 0.57851 0.0
O297 O 0.16829 0.63225 0.55956 0.0
Cd298 Cd 0.19009 0.61151 0.58496 0.0
C299 C 0.223 0.6002 0.54022 0.0
O300 O 0.22036 0.60144 0.60771 0.0
O301 O 0.21165 0.63652 0.60672 0.0
O302 O 0.16226 0.58352 0.5982 0.0
C303 C 0.2244 0.62125 0.61366 0.0
O304 O 0.22285 0.58156 0.54966 0.0
C305 C 0.1518 0.59849 0.60867 0.0
O306 O 0.21108 0.61546 0.54827 0.0
O307 O 0.15917 0.61816 0.60802 0.0
C308 C 0.09112 0.40394 0.29296 0.0
O309 O 0.11084 0.39781 0.28895 0.0
Cd310 Cd 0.14466 0.41106 0.31135 0.0
O311 O 0.08765 0.41491 0.31045 0.0
Cd312 Cd 0.12501 0.41171 0.3239 0.0
C313 C 0.14187 0.44562 0.28142 0.0
O314 O 0.14954 0.43338 0.3459 0.0
O315 O 0.11638 0.42971 0.35891 0.0
O316 O 0.14552 0.37429 0.32096 0.0
C317 C 0.13524 0.43888 0.36027 0.0
O318 O 0.1602 0.43631 0.28503 0.0
C319 C 0.12825 0.36362 0.32612 0.0
O320 O 0.12511 0.4394 0.29226 0.0
O321 O 0.11115 0.37478 0.33076 0.0
C322 C 0.31819 0.59899 0.81208 0.0
O323 O 0.29916 0.5945 0.8197 0.0
Cd324 Cd 0.31425 0.5621 0.83891 0.0
O325 O 0.3344 0.5875 0.81866 0.0
Cd326 Cd 0.33264 0.55607 0.84662 0.0
C327 C 0.34087 0.53572 0.80182 0.0
O328 O 0.29745 0.53293 0.85698 0.0
O329 O 0.3308 0.51956 0.85829 0.0
O330 O 0.33309 0.57869 0.87918 0.0
C331 C 0.31036 0.51701 0.86196 0.0
O332 O 0.32136 0.54214 0.80527 0.0
C333 C 0.35273 0.57362 0.88455 0.0
O334 O 0.35518 0.53935 0.81665 0.0
O335 O 0.36316 0.56062 0.87178 0.0
C336 C 0.88814 0.72635 0.60541 0.0
O337 O 0.89813 0.71437 0.59132 0.0
Cd338 Cd 0.91959 0.67917 0.59887 0.0
O339 O 0.88636 0.71921 0.625 0.0
Cd340 Cd 0.90455 0.685 0.62028 0.0
C341 C 0.95392 0.70988 0.60178 0.0
O342 O 0.92879 0.6577 0.6337 0.0
O343 O 0.90991 0.67526 0.65896 0.0
O344 O 0.88669 0.66165 0.59034 0.0
C345 C 0.92406 0.66052 0.65405 0.0
O346 O 0.95456 0.6939 0.58831 0.0
C347 C 0.86938 0.65839 0.60177 0.0
O348 O 0.93745 0.71161 0.61472 0.0
O349 O 0.86792 0.66889 0.61992 0.0
C350 C 0.0243 0.14268 0.38655 0.0
O351 O 0.03653 0.14743 0.37011 0.0
Cd352 Cd 0.06963 0.17343 0.37065 0.0
O353 O 0.03044 0.1489 0.40563 0.0
Cd354 Cd 0.06527 0.16317 0.39344 0.0
C355 C 0.03614 0.20525 0.36883 0.0
O356 O 0.09432 0.18998 0.39891 0.0
O357 O 0.08076 0.17532 0.4288 0.0
O358 O 0.0812 0.13824 0.3631 0.0
C359 C 0.09375 0.18931 0.41993 0.0
O360 O 0.05205 0.20467 0.3553 0.0
C361 C 0.08135 0.12144 0.37564 0.0
O362 O 0.03558 0.19134 0.38447 0.0
O363 O 0.07474 0.12425 0.39541 0.0
C364 C 0.60694 0.26869 0.06455 0.0
O365 O 0.60608 0.27873 0.04619 0.0
Cd366 Cd 0.57047 0.29706 0.05463 0.0
O367 O 0.59391 0.2746 0.07973 0.0
Cd368 Cd 0.57565 0.31027 0.0798 0.0
C369 C 0.54264 0.271 0.09179 0.0
O370 O 0.54893 0.33049 0.05483 0.0
O371 O 0.54918 0.33566 0.09072 0.0
O372 O 0.60851 0.33129 0.07026 0.0
C373 C 0.54086 0.34012 0.07194 0.0
O374 O 0.5456 0.27051 0.07105 0.0
C375 C 0.6133 0.33487 0.09042 0.0
O376 O 0.55301 0.28526 0.10319 0.0
O377 O 0.60056 0.32696 0.10518 0.0
C378 C 0.45351 0.84339 0.9065 0.0
O379 O 0.45828 0.84456 0.88606 0.0
Cd380 Cd 0.43495 0.82591 0.85615 0.0
O381 O 0.43516 0.83492 0.91173 0.0
Cd382 Cd 0.42334 0.82838 0.87387 0.0
C383 C 0.46599 0.79265 0.861 0.0
O384 O 0.40062 0.80193 0.85737 0.0
O385 O 0.38896 0.81381 0.8891 0.0
O386 O 0.41667 0.86819 0.87459 0.0
C387 C 0.38633 0.80095 0.8727 0.0
O388 O 0.46118 0.79958 0.84188 0.0
C389 C 0.41249 0.87139 0.85428 0.0
O390 O 0.45596 0.80096 0.87739 0.0
O391 O 0.41561 0.85509 0.84151 0.0
C392 C 0.88836 0.27054 0.88046 0.0
O393 O 0.89603 0.27897 0.89813 0.0
Cd394 Cd 0.92068 0.31312 0.89955 0.0
O395 O 0.89094 0.28108 0.8626 0.0
Cd396 Cd 0.90894 0.31173 0.87871 0.0
C397 C 0.9547 0.28196 0.89668 0.0
O398 O 0.93392 0.34046 0.87082 0.0
O399 O 0.9156 0.32789 0.84255 0.0
O400 O 0.87088 0.32337 0.88128 0.0
C401 C 0.93016 0.34093 0.85013 0.0
O402 O 0.95421 0.29612 0.91204 0.0
C403 C 0.87119 0.33246 0.9002 0.0
O404 O 0.93946 0.28228 0.88228 0.0
O405 O 0.88902 0.33076 0.91109 0.0
C406 C 0.45732 0.14251 0.58901 0.0
O407 O 0.45963 0.14793 0.60919 0.0
Cd408 Cd 0.42877 0.16894 0.62999 0.0
O409 O 0.43903 0.14655 0.57994 0.0
Cd410 Cd 0.42334 0.16364 0.61238 0.0
C411 C 0.4607 0.20195 0.63183 0.0
O412 O 0.39827 0.19207 0.61125 0.0
O413 O 0.39796 0.17101 0.58212 0.0
O414 O 0.42409 0.12593 0.62861 0.0
C415 C 0.39076 0.18807 0.592 0.0
O416 O 0.45061 0.19729 0.64954 0.0
C417 C 0.40713 0.1278 0.64078 0.0
O418 O 0.45551 0.19145 0.6145 0.0
O419 O 0.39859 0.14691 0.64165 0.0
C420 C 0.59585 0.73012 0.39994 0.0
O421 O 0.59766 0.72356 0.41976 0.0
Cd422 Cd 0.56606 0.69957 0.42943 0.0
O423 O 0.58287 0.71968 0.38736 0.0
Cd424 Cd 0.5675 0.68609 0.40221 0.0
C425 C 0.53365 0.72787 0.39929 0.0
O426 O 0.54095 0.66746 0.42598 0.0
O427 O 0.54254 0.65921 0.39052 0.0
O428 O 0.60051 0.67119 0.41916 0.0
C429 C 0.53367 0.65629 0.40946 0.0
O430 O 0.53883 0.72637 0.41953 0.0
C431 C 0.60607 0.66158 0.40119 0.0
O432 O 0.54246 0.71463 0.38558 0.0
O433 O 0.59407 0.66428 0.38406 0.0
C434 C 0.0164 0.86427 0.11614 0.0
O435 O 0.02577 0.85531 0.13267 0.0
Cd436 Cd 0.06083 0.83213 0.13129 0.0
O437 O 0.02636 0.8638 0.09776 0.0
Cd438 Cd 0.0581 0.84432 0.11054 0.0
C439 C 0.03055 0.798 0.13277 0.0
O440 O 0.08459 0.81733 0.10072 0.0
O441 O 0.07073 0.8357 0.0731 0.0
O442 O 0.07921 0.87882 0.11142 0.0
C443 C 0.0837 0.82072 0.07999 0.0
O444 O 0.04581 0.79925 0.14697 0.0
C445 C 0.08538 0.8786 0.13149 0.0
O446 O 0.02959 0.81262 0.11768 0.0
O447 O 0.07746 0.86341 0.14355 0.0
C448 C 0.65376 0.88869 0.71845 0.0
O449 O 0.63456 0.89678 0.72035 0.0
Cd450 Cd 0.61876 0.91832 0.68779 0.0
O451 O 0.66313 0.89053 0.69996 0.0
Cd452 Cd 0.63391 0.91185 0.68262 0.0
C453 C 0.61609 0.95247 0.71798 0.0
O454 O 0.64054 0.94034 0.65856 0.0
O455 O 0.66689 0.91623 0.65955 0.0
O456 O 0.61578 0.87582 0.67401 0.0
C457 C 0.65951 0.93432 0.65206 0.0
O458 O 0.59904 0.94852 0.7066 0.0
C459 C 0.60126 0.88295 0.66065 0.0
O460 O 0.63287 0.94038 0.71493 0.0
O461 O 0.60028 0.90373 0.65832 0.0
C462 C 0.84404 0.87401 0.46924 0.0
O463 O 0.84655 0.85344 0.47303 0.0
Cd464 Cd 0.8278 0.82174 0.45233 0.0
O465 O 0.83392 0.87965 0.45182 0.0
Cd466 Cd 0.83015 0.84338 0.43653 0.0
C467 C 0.7896 0.83713 0.47638 0.0
O468 O 0.8083 0.81849 0.41559 0.0
O469 O 0.81368 0.85142 0.4019 0.0
O470 O 0.86482 0.82103 0.43336 0.0
C471 C 0.80492 0.83238 0.40013 0.0
O472 O 0.79547 0.81708 0.47575 0.0
C473 C 0.87469 0.83704 0.42378 0.0
O474 O 0.80046 0.85102 0.46506 0.0
O475 O 0.86446 0.85528 0.42239 0.0
C476 C 0.87966 0.09288 0.21627 0.0
O477 O 0.8996 0.09566 0.2104 0.0
Cd478 Cd 0.91803 0.06659 0.18805 0.0
O479 O 0.8682 0.07896 0.20571 0.0
Cd480 Cd 0.89039 0.06644 0.17566 0.0
C481 C 0.8966 0.03206 0.21912 0.0
O482 O 0.91384 0.04169 0.15558 0.0
O483 O 0.87828 0.0421 0.14814 0.0
O484 O 0.90772 0.10033 0.16204 0.0
C485 C 0.89749 0.0342 0.14447 0.0
O486 O 0.91625 0.03849 0.21594 0.0
C487 C 0.88983 0.10628 0.15253 0.0
O488 O 0.88144 0.04013 0.20709 0.0
O489 O 0.87272 0.09421 0.15485 0.0
C490 C 0.62697 0.10991 0.98845 0.0
O491 O 0.63345 0.128 0.97992 0.0
Cd492 Cd 0.65587 0.13297 0.94515 0.0
O493 O 0.62983 0.09225 0.97758 0.0
Cd494 Cd 0.64546 0.10886 0.94551 0.0
C495 C 0.6938 0.12708 0.97173 0.0
O496 O 0.6679 0.10931 0.91384 0.0
O497 O 0.6572 0.0766 0.92466 0.0
O498 O 0.62134 0.14041 0.93134 0.0
C499 C 0.66792 0.08851 0.91101 0.0
O500 O 0.69022 0.14371 0.95963 0.0
C501 C 0.60667 0.1272 0.92422 0.0
O502 O 0.67958 0.11158 0.97183 0.0
O503 O 0.60879 0.10698 0.92958 0.0
C504 C 0.65331 0.10892 0.78019 0.0
O505 O 0.63448 0.10037 0.77703 0.0
Cd506 Cd 0.61627 0.08015 0.80905 0.0
O507 O 0.66108 0.10796 0.79946 0.0
Cd508 Cd 0.63144 0.08603 0.81554 0.0
C509 C 0.61484 0.04528 0.7796 0.0
O510 O 0.63619 0.05695 0.83893 0.0
O511 O 0.66394 0.07946 0.83863 0.0
O512 O 0.61495 0.12137 0.82882 0.0
C513 C 0.65532 0.06182 0.84585 0.0
O514 O 0.59709 0.04996 0.78957 0.0
C515 C 0.5993 0.11326 0.84024 0.0
O516 O 0.63163 0.0571 0.78351 0.0
O517 O 0.59665 0.09256 0.83881 0.0
C518 C 0.63101 0.88051 0.5152 0.0
O519 O 0.63704 0.86214 0.52341 0.0
Cd520 Cd 0.65865 0.85796 0.55926 0.0
O521 O 0.63378 0.89772 0.5267 0.0
Cd522 Cd 0.64935 0.87944 0.55786 0.0
C523 C 0.69441 0.85497 0.53081 0.0
O524 O 0.67481 0.88458 0.58684 0.0
O525 O 0.65991 0.91473 0.57426 0.0
O526 O 0.61223 0.88074 0.57327 0.0
C527 C 0.67329 0.90551 0.5875 0.0
O528 O 0.6907 0.83994 0.54485 0.0
C529 C 0.61067 0.86112 0.58055 0.0
O530 O 0.68144 0.87149 0.53016 0.0
O531 O 0.62629 0.84809 0.57558 0.0
C532 C 0.88138 0.88433 0.29194 0.0
O533 O 0.90216 0.88501 0.29485 0.0
Cd534 Cd 0.92169 0.91262 0.31869 0.0
O535 O 0.86924 0.89504 0.30519 0.0
Cd536 Cd 0.89575 0.90885 0.33089 0.0
C537 C 0.90095 0.9457 0.28818 0.0
O538 O 0.91454 0.93639 0.35176 0.0
O539 O 0.87987 0.92997 0.35991 0.0
O540 O 0.92099 0.87839 0.34218 0.0
C541 C 0.89756 0.94088 0.36343 0.0
O542 O 0.92111 0.94175 0.29199 0.0
C543 C 0.90526 0.86828 0.35199 0.0
O544 O 0.88656 0.935 0.29906 0.0
O545 O 0.88595 0.87645 0.35055 0.0
C546 C 0.83778 0.18072 -0.00051 0.0
O547 O 0.83299 0.19985 0.00667 0.0
Cd548 Cd 0.82267 0.18407 0.04238 0.0
O549 O 0.83721 0.16466 0.01294 0.0
Cd550 Cd 0.82438 0.16717 0.05315 0.0
C551 C 0.78738 0.14738 0.02684 0.0
O552 O 0.80072 0.20096 0.06798 0.0
O553 O 0.7951 0.16732 0.07913 0.0
O554 O 0.85777 0.17485 0.07519 0.0
C555 C 0.79026 0.18764 0.0805 0.0
O556 O 0.79091 0.16779 0.02467 0.0
C557 C 0.85934 0.15501 0.08185 0.0
O558 O 0.80036 0.1365 0.03911 0.0
O559 O 0.84547 0.14117 0.07446 0.0
C560 C 0.72051 0.65691 0.883 0.0
O561 O 0.72254 0.63708 0.88956 0.0
Cd562 Cd 0.68992 0.61759 0.90799 0.0
O563 O 0.70185 0.66584 0.88525 0.0
Cd564 Cd 0.6839 0.63466 0.90249 0.0
C565 C 0.71604 0.61593 0.94529 0.0
O566 O 0.65662 0.63427 0.92869 0.0
O567 O 0.65832 0.66508 0.91052 0.0
O568 O 0.67975 0.62305 0.86345 0.0
C569 C 0.64962 0.65383 0.92592 0.0
O570 O 0.70748 0.59807 0.93864 0.0
C571 C 0.66713 0.60657 0.86643 0.0
O572 O 0.71262 0.63332 0.93414 0.0
O573 O 0.66367 0.60115 0.88637 0.0
C574 C 0.23798 0.85124 0.11202 0.0
O575 O 0.2355 0.87032 0.10366 0.0
Cd576 Cd 0.20041 0.88064 0.08243 0.0
O577 O 0.22172 0.83829 0.11132 0.0
Cd578 Cd 0.19696 0.86278 0.09177 0.0
C579 C 0.22917 0.88141 0.04728 0.0
O580 O 0.17057 0.85721 0.06419 0.0
O581 O 0.17638 0.8286 0.0849 0.0
O582 O 0.17885 0.8699 0.1274 0.0
C583 C 0.16615 0.83724 0.06882 0.0
O584 O 0.21698 0.89813 0.0501 0.0
C585 C 0.17167 0.88931 0.12399 0.0
O586 O 0.22738 0.86543 0.06078 0.0
O587 O 0.17843 0.89871 0.10654 0.0
C588 C 0.90924 0.45521 0.8546 0.0
O589 O 0.88958 0.45793 0.84791 0.0
Cd590 Cd 0.87103 0.4248 0.82803 0.0
O591 O 0.91763 0.43637 0.85214 0.0
Cd592 Cd 0.88586 0.42088 0.83361 0.0
C593 C 0.86533 0.4544 0.7937 0.0
O594 O 0.89185 0.396 0.80499 0.0
O595 O 0.91865 0.39869 0.82841 0.0
O596 O 0.869 0.41968 0.87113 0.0
C597 C 0.91145 0.39088 0.81038 0.0
O598 O 0.84904 0.44224 0.79844 0.0
C599 C 0.85565 0.40389 0.86767 0.0
O600 O 0.88259 0.45257 0.80528 0.0
O601 O 0.85507 0.39631 0.84812 0.0
C602 C 0.30925 0.14554 0.58275 0.0
O603 O 0.30201 0.12577 0.58241 0.0
Cd604 Cd 0.32155 0.0919 0.56467 0.0
O605 O 0.32804 0.14928 0.57432 0.0
Cd606 Cd 0.33408 0.11129 0.56346 0.0
C607 C 0.2867 0.09634 0.53517 0.0
O608 O 0.34958 0.09342 0.53316 0.0
O609 O 0.3633 0.12608 0.54018 0.0
O610 O 0.33012 0.0996 0.60354 0.0
C611 C 0.36258 0.1091 0.5277 0.0
O612 O 0.29009 0.07755 0.5437 0.0
C613 C 0.34816 0.08907 0.60418 0.0
O614 O 0.2993 0.11217 0.54041 0.0
O615 O 0.35839 0.08741 0.58598 0.0
C616 C 0.09469 0.05452 0.84091 0.0
O617 O 0.11477 0.05001 0.83678 0.0
Cd618 Cd 0.13849 0.07557 0.81206 0.0
O619 O 0.08714 0.07257 0.83377 0.0
Cd620 Cd 0.12119 0.08349 0.81607 0.0
C621 C 0.13805 0.0394 0.78349 0.0
O622 O 0.12291 0.10367 0.78405 0.0
O623 O 0.0937 0.11009 0.80393 0.0
O624 O 0.13599 0.08897 0.85419 0.0
C625 C 0.10444 0.11347 0.78621 0.0
O626 O 0.15643 0.04859 0.78713 0.0
C627 C 0.15043 0.10341 0.84944 0.0
O628 O 0.12116 0.0473 0.793 0.0
O629 O 0.15277 0.10771 0.82907 0.0
C630 C 0.75295 0.41701 0.40348 0.0
O631 O 0.7607 0.43633 0.40616 0.0
Cd632 Cd 0.79212 0.42102 0.42699 0.0
O633 O 0.76407 0.40076 0.41058 0.0
Cd634 Cd 0.8011 0.40269 0.43043 0.0
C635 C 0.76627 0.3899 0.46209 0.0
O636 O 0.8138 0.43738 0.45382 0.0
O637 O 0.82362 0.40396 0.46245 0.0
O638 O 0.82494 0.40472 0.39777 0.0
C639 C 0.82431 0.42445 0.46677 0.0
O640 O 0.76686 0.40964 0.45547 0.0
C641 C 0.83164 0.38493 0.39995 0.0
O642 O 0.77991 0.37635 0.45388 0.0
O643 O 0.82389 0.37385 0.41601 0.0
C644 C 0.90226 0.5259 0.64683 0.0
O645 O 0.88158 0.52325 0.64942 0.0
Cd646 Cd 0.85757 0.55117 0.67088 0.0
O647 O 0.91052 0.54394 0.65327 0.0
Cd648 Cd 0.87659 0.55993 0.66678 0.0
C649 C 0.85916 0.51855 0.70289 0.0
O650 O 0.86981 0.58312 0.6964 0.0
O651 O 0.90157 0.58847 0.68066 0.0
O652 O 0.87145 0.56888 0.62747 0.0
C653 C 0.88809 0.59346 0.69594 0.0
O654 O 0.84043 0.52645 0.69814 0.0
C655 C 0.85292 0.57856 0.62884 0.0
O656 O 0.87591 0.52612 0.69288 0.0
O657 O 0.84347 0.5778 0.64752 0.0
C658 C 0.61731 0.45582 0.15516 0.0
O659 O 0.63706 0.45028 0.15964 0.0
Cd660 Cd 0.64882 0.42405 0.18962 0.0
O661 O 0.60168 0.44518 0.16421 0.0
Cd662 Cd 0.6242 0.41846 0.18206 0.0
C663 C 0.63599 0.45859 0.22061 0.0
O664 O 0.63342 0.39067 0.20783 0.0
O665 O 0.59875 0.39231 0.19817 0.0
O666 O 0.65418 0.40601 0.15558 0.0
C667 C 0.61388 0.38316 0.2096 0.0
O668 O 0.65441 0.4489 0.21923 0.0
C669 C 0.63981 0.40056 0.14126 0.0
O670 O 0.62058 0.45219 0.20795 0.0
O671 O 0.61964 0.40415 0.14578 0.0
C672 C 0.53395 0.83184 0.94621 0.0
O673 O 0.54247 0.82591 0.96445 0.0
Cd674 Cd 0.57173 0.80564 0.94461 0.0
O675 O 0.54356 0.82635 0.92843 0.0
Cd676 Cd 0.57935 0.80456 0.92579 0.0
C677 C 0.54196 0.77939 0.90855 0.0
O678 O 0.59061 0.77404 0.95484 0.0
O679 O 0.60032 0.77218 0.92032 0.0
O680 O 0.60076 0.83776 0.9332 0.0
C681 C 0.60024 0.76339 0.93934 0.0
O682 O 0.54413 0.7818 0.92913 0.0
C683 C 0.60964 0.83758 0.91415 0.0
O684 O 0.55556 0.78908 0.89595 0.0
O685 O 0.60479 0.82183 0.90117 0.0
C686 C 0.40838 0.27311 0.119 0.0
O687 O 0.41604 0.2765 0.13831 0.0
Cd688 Cd 0.44219 0.30842 0.14875 0.0
O689 O 0.41268 0.28716 0.10411 0.0
Cd690 Cd 0.43389 0.31103 0.12778 0.0
C691 C 0.47349 0.27442 0.14769 0.0
O692 O 0.46315 0.33439 0.12208 0.0
O693 O 0.44151 0.33049 0.09355 0.0
O694 O 0.4213 0.34177 0.15305 0.0
C695 C 0.45879 0.33895 0.10199 0.0
O696 O 0.47296 0.28695 0.16442 0.0
C697 C 0.40121 0.336 0.15273 0.0
O698 O 0.46006 0.27818 0.1321 0.0
O699 O 0.39693 0.31791 0.14312 0.0
C700 C 0.9378 0.15304 0.36214 0.0
O701 O 0.92893 0.16652 0.37559 0.0
Cd702 Cd 0.9057 0.20055 0.36577 0.0
O703 O 0.93322 0.15501 0.34178 0.0
Cd704 Cd 0.91009 0.1871 0.3467 0.0
C705 C 0.94524 0.21896 0.37885 0.0
O706 O 0.90277 0.222 0.33075 0.0
O707 O 0.91258 0.19627 0.30736 0.0
O708 O 0.87154 0.17465 0.34407 0.0
C709 C 0.90722 0.21631 0.31096 0.0
O710 O 0.92749 0.22427 0.38853 0.0
C711 C 0.86829 0.16905 0.36402 0.0
O712 O 0.94452 0.20542 0.36289 0.0
O713 O 0.8843 0.1718 0.37716 0.0
C714 C 0.08182 0.69462 0.68214 0.0
O715 O 0.07588 0.68692 0.70076 0.0
Cd716 Cd 0.04937 0.66251 0.68213 0.0
O717 O 0.07364 0.68622 0.6648 0.0
Cd718 Cd 0.04588 0.65438 0.66404 0.0
C719 C 0.02582 0.69673 0.64882 0.0
O720 O 0.01748 0.64827 0.69661 0.0
O721 O 0.00996 0.63875 0.66284 0.0
O722 O 0.07428 0.62665 0.66959 0.0
C723 C 0.0037 0.6403 0.6828 0.0
O724 O 0.0295 0.69457 0.66921 0.0
C725 C 0.07337 0.61935 0.64989 0.0
O726 O 0.03168 0.68118 0.63607 0.0
O727 O 0.05875 0.6276 0.63729 0.0
C728 C 0.53995 0.15415 0.55739 0.0
O729 O 0.55011 0.1585 0.53952 0.0
Cd730 Cd 0.57271 0.18618 0.55909 0.0
O731 O 0.54629 0.16346 0.57502 0.0
Cd732 Cd 0.58001 0.18753 0.57778 0.0
C733 C 0.53884 0.21365 0.58863 0.0
O734 O 0.59563 0.21511 0.54851 0.0
O735 O 0.60277 0.21818 0.58365 0.0
O736 O 0.60165 0.15464 0.57171 0.0
C737 C 0.60524 0.22557 0.56417 0.0
O738 O 0.54195 0.20945 0.56843 0.0
C739 C 0.6096 0.15487 0.59115 0.0
O740 O 0.55255 0.20601 0.60248 0.0
O741 O 0.60363 0.17025 0.60418 0.0
C742 C 0.08643 0.29975 0.81967 0.0
O743 O 0.08077 0.30881 0.8016 0.0
Cd744 Cd 0.05417 0.33181 0.82176 0.0
O745 O 0.07821 0.30698 0.83752 0.0
Cd746 Cd 0.0516 0.3394 0.84024 0.0
C747 C 0.02845 0.29662 0.85182 0.0
O748 O 0.02398 0.35037 0.80865 0.0
O749 O 0.01777 0.35791 0.84325 0.0
O750 O 0.08065 0.36628 0.83562 0.0
C751 C 0.0113 0.35868 0.82331 0.0
O752 O 0.03265 0.29972 0.83163 0.0
C753 C 0.08037 0.37255 0.85569 0.0
O754 O 0.03491 0.31113 0.86549 0.0
O755 O 0.06611 0.36371 0.86836 0.0
C756 C 0.92857 0.84305 0.11846 0.0
O757 O 0.92395 0.83259 0.10081 0.0
Cd758 Cd 0.90296 0.79648 0.09818 0.0
O759 O 0.91999 0.83645 0.13637 0.0
Cd760 Cd 0.899 0.80667 0.12109 0.0
C761 C 0.94518 0.77703 0.10462 0.0
O762 O 0.88139 0.77274 0.12439 0.0
O763 O 0.88572 0.79107 0.15524 0.0
O764 O 0.87607 0.82252 0.08894 0.0
C765 C 0.87816 0.77424 0.14515 0.0
O766 O 0.93275 0.77306 0.08832 0.0
C767 C 0.86242 0.83025 0.10295 0.0
O768 O 0.93818 0.79001 0.11957 0.0
O769 O 0.86727 0.82857 0.12329 0.0
C770 C 0.3935 0.71449 0.35735 0.0
O771 O 0.40282 0.70669 0.34018 0.0
Cd772 Cd 0.43455 0.67964 0.33995 0.0
O773 O 0.39837 0.70626 0.37599 0.0
Cd774 Cd 0.42168 0.67749 0.36377 0.0
C775 C 0.45967 0.71802 0.35321 0.0
O776 O 0.4511 0.6524 0.36656 0.0
O777 O 0.43327 0.65933 0.39723 0.0
O778 O 0.40283 0.65798 0.33213 0.0
C779 C 0.44899 0.64944 0.38733 0.0
O780 O 0.46331 0.7061 0.33642 0.0
C781 C 0.38611 0.65424 0.34433 0.0
O782 O 0.44423 0.71259 0.36626 0.0
O783 O 0.38642 0.66128 0.36411 0.0
C784 C 0.93709 0.537 0.83953 0.0
O785 O 0.93668 0.55615 0.84775 0.0
Cd786 Cd 0.91345 0.57019 0.81581 0.0
O787 O 0.92715 0.5346 0.82147 0.0
Cd788 Cd 0.90243 0.56882 0.81597 0.0
C789 C 0.89579 0.53543 0.78187 0.0
O790 O 0.92163 0.59922 0.79273 0.0
O791 O 0.88662 0.59372 0.78907 0.0
O792 O 0.90593 0.58631 0.85242 0.0
C793 C 0.90382 0.6038 0.78253 0.0
O794 O 0.91416 0.54499 0.78386 0.0
C795 C 0.88647 0.58193 0.85868 0.0
O796 O 0.88061 0.54075 0.79525 0.0
O797 O 0.87411 0.57191 0.84499 0.0
C798 C 0.68899 0.6672 0.08787 0.0
O799 O 0.67919 0.68547 0.08456 0.0
Cd800 Cd 0.6548 0.66841 0.057 0.0
O801 O 0.68173 0.65015 0.07805 0.0
Cd802 Cd 0.64898 0.64953 0.05155 0.0
C803 C 0.69213 0.64393 0.02789 0.0
O804 O 0.63782 0.6812 0.02495 0.0
O805 O 0.63148 0.64661 0.01704 0.0
O806 O 0.62181 0.65793 0.07957 0.0
C807 C 0.6304 0.6668 0.01135 0.0
O808 O 0.68648 0.66268 0.03489 0.0
C809 C 0.61336 0.63872 0.07989 0.0
O810 O 0.67966 0.62766 0.03244 0.0
O811 O 0.62189 0.62415 0.06723 0.0
C812 C 0.64993 0.43927 0.34623 0.0
O813 O 0.62998 0.44506 0.34933 0.0
Cd814 Cd 0.59677 0.42687 0.33058 0.0
O815 O 0.65351 0.42229 0.33457 0.0
Cd816 Cd 0.61492 0.41396 0.32771 0.0
C817 C 0.60058 0.46172 0.30103 0.0
O818 O 0.59498 0.39721 0.30035 0.0
O819 O 0.62765 0.38327 0.30571 0.0
O820 O 0.5849 0.39568 0.34987 0.0
C821 C 0.60946 0.38292 0.2952 0.0
O822 O 0.58197 0.45724 0.30939 0.0
C823 C 0.59829 0.39064 0.36505 0.0
O824 O 0.61693 0.4498 0.30611 0.0
O825 O 0.61641 0.40115 0.36532 0.0
C826 C 0.77358 0.3625 0.60533 0.0
O827 O 0.78429 0.34694 0.59612 0.0
Cd828 Cd 0.81323 0.35216 0.56608 0.0
O829 O 0.77945 0.38223 0.60148 0.0
Cd830 Cd 0.81047 0.37442 0.5791 0.0
C831 C 0.77493 0.35286 0.54056 0.0
O832 O 0.83303 0.38482 0.54914 0.0
O833 O 0.82008 0.41208 0.56888 0.0
O834 O 0.83566 0.34541 0.59605 0.0
C835 C 0.83108 0.40557 0.55216 0.0
O836 O 0.79044 0.33936 0.53691 0.0
C837 C 0.83602 0.35581 0.61427 0.0
O838 O 0.77704 0.36713 0.55569 0.0
O839 O 0.82533 0.37382 0.61551 0.0
C840 C 0.94311 0.44497 0.65648 0.0
O841 O 0.96205 0.44094 0.66455 0.0
Cd842 Cd 0.94509 0.41651 0.69175 0.0
O843 O 0.92687 0.43361 0.66331 0.0
Cd844 Cd 0.9265 0.4047 0.6945 0.0
C845 C 0.91146 0.44672 0.71852 0.0
O846 O 0.95822 0.40024 0.72351 0.0
O847 O 0.93696 0.37292 0.71609 0.0
O848 O 0.91882 0.37712 0.66694 0.0
C849 C 0.95051 0.3816 0.72934 0.0
O850 O 0.93053 0.44825 0.71034 0.0
C851 C 0.89974 0.37301 0.67485 0.0
O852 O 0.90122 0.42864 0.71633 0.0
O853 O 0.89359 0.38391 0.69175 0.0
C854 C 0.79771 0.69801 0.9013 0.0
O855 O 0.79687 0.71624 0.91152 0.0
Cd856 Cd 0.80742 0.71405 0.95019 0.0
O857 O 0.80823 0.68214 0.90991 0.0
Cd858 Cd 0.82998 0.67211 0.94191 0.0
C859 C 0.78258 0.66809 0.96985 0.0
O860 O 0.83982 0.70118 0.96934 0.0
O861 O 0.86638 0.6827 0.95459 0.0
O862 O 0.85359 0.65356 0.91713 0.0
C863 C 0.85935 0.6938 0.97082 0.0
O864 O 0.78121 0.68868 0.96592 0.0
C865 C 0.85083 0.6345 0.92544 0.0
O866 O 0.7995 0.65712 0.9641 0.0
O867 O 0.83811 0.63259 0.94207 0.0
C868 C 0.61039 0.54501 0.15721 0.0
O869 O 0.59428 0.55005 0.16971 0.0
Cd870 Cd 0.59303 0.58043 0.19924 0.0
O871 O 0.62788 0.55647 0.15846 0.0
Cd872 Cd 0.61363 0.58066 0.18629 0.0
C873 C 0.59816 0.54272 0.22579 0.0
O874 O 0.6241 0.60137 0.21731 0.0
O875 O 0.65039 0.59415 0.19354 0.0
O876 O 0.60484 0.61359 0.16598 0.0
C877 C 0.64443 0.60264 0.21188 0.0
O878 O 0.58235 0.55606 0.22878 0.0
C879 C 0.5865 0.60784 0.15777 0.0
O880 O 0.61202 0.54674 0.21066 0.0
O881 O 0.57862 0.58953 0.16412 0.0
C882 C 0.67374 0.37432 0.41015 0.0
O883 O 0.68021 0.35501 0.41533 0.0
Cd884 Cd 0.65864 0.3281 0.44025 0.0
O885 O 0.65486 0.38041 0.41677 0.0
Cd886 Cd 0.64727 0.34594 0.43636 0.0
C887 C 0.6922 0.33907 0.46939 0.0
O888 O 0.62828 0.33721 0.4679 0.0
O889 O 0.61528 0.36571 0.45002 0.0
O890 O 0.62457 0.31467 0.42273 0.0
C891 C 0.61425 0.35282 0.46667 0.0
O892 O 0.68769 0.31898 0.46575 0.0
C893 C 0.63053 0.31758 0.4029 0.0
O894 O 0.68083 0.35376 0.45992 0.0
O895 O 0.64964 0.32586 0.40062 0.0
C896 C 0.83216 0.91763 0.54786 0.0
O897 O 0.82813 0.93683 0.55536 0.0
Cd898 Cd 0.80063 0.92122 0.5808 0.0
O899 O 0.82274 0.90122 0.55682 0.0
Cd900 Cd 0.79634 0.90325 0.58951 0.0
C901 C 0.77287 0.89099 0.54725 0.0
O902 O 0.77039 0.93675 0.59778 0.0
O903 O 0.76222 0.9032 0.60788 0.0
O904 O 0.82513 0.91093 0.6157 0.0
C905 C 0.75681 0.92346 0.60698 0.0
O906 O 0.77851 0.9109 0.54957 0.0
C907 C 0.82507 0.89178 0.62434 0.0
O908 O 0.77818 0.87747 0.5624 0.0
O909 O 0.81118 0.87785 0.61687 0.0
C910 C 0.34208 0.55851 0.44714 0.0
O911 O 0.3359 0.53948 0.44076 0.0
Cd912 Cd 0.30909 0.55644 0.4156 0.0
O913 O 0.33417 0.57529 0.4374 0.0
Cd914 Cd 0.30546 0.57499 0.40637 0.0
C915 C 0.28431 0.58924 0.44909 0.0
O916 O 0.27898 0.54122 0.39779 0.0
O917 O 0.26937 0.57539 0.39253 0.0
O918 O 0.33143 0.57613 0.37528 0.0
C919 C 0.26465 0.55508 0.39093 0.0
O920 O 0.28819 0.56886 0.44716 0.0
C921 C 0.32555 0.59556 0.36977 0.0
O922 O 0.29031 0.60186 0.43354 0.0
O923 O 0.31077 0.60474 0.38142 0.0
C924 C 0.68886 0.09011 0.70106 0.0
O925 O 0.70689 0.0863 0.69102 0.0
Cd926 Cd 0.689 0.05586 0.67057 0.0
O927 O 0.67192 0.07915 0.69563 0.0
Cd928 Cd 0.67081 0.05352 0.6629 0.0
C929 C 0.6599 0.02824 0.70466 0.0
O930 O 0.70175 0.02686 0.64912 0.0
O931 O 0.66721 0.02241 0.64036 0.0
O932 O 0.67539 0.08611 0.64055 0.0
C933 C 0.68696 0.01553 0.63917 0.0
O934 O 0.67993 0.03346 0.7022 0.0
C935 C 0.65598 0.08496 0.6327 0.0
O936 O 0.64627 0.03463 0.69012 0.0
O937 O 0.64378 0.06894 0.63871 0.0
C938 C 0.16906 0.35813 0.94736 0.0
O939 O 0.17409 0.37828 0.94424 0.0
Cd940 Cd 0.20568 0.39258 0.92064 0.0
O941 O 0.17917 0.34353 0.93621 0.0
Cd942 Cd 0.19918 0.36985 0.9141 0.0
C943 C 0.23218 0.3835 0.95838 0.0
O944 O 0.22892 0.37892 0.89004 0.0
O945 O 0.21887 0.34439 0.89021 0.0
O946 O 0.17149 0.40123 0.90616 0.0
C947 C 0.23187 0.35931 0.88308 0.0
O948 O 0.23172 0.4017 0.94815 0.0
C949 C 0.16036 0.38845 0.89382 0.0
O950 O 0.22065 0.36765 0.95093 0.0
O951 O 0.16705 0.36873 0.89139 0.0
C952 C 0.31274 0.41474 0.70422 0.0
O953 O 0.29468 0.41762 0.69397 0.0
Cd954 Cd 0.31117 0.44899 0.67375 0.0
O955 O 0.32911 0.4267 0.69912 0.0
Cd956 Cd 0.32885 0.45236 0.66632 0.0
C957 C 0.33927 0.47668 0.70852 0.0
O958 O 0.29677 0.47865 0.6546 0.0
O959 O 0.33073 0.48459 0.64451 0.0
O960 O 0.32321 0.41939 0.64479 0.0
C961 C 0.31077 0.49102 0.64473 0.0
O962 O 0.31945 0.47088 0.70583 0.0
C963 C 0.34252 0.41968 0.63656 0.0
O964 O 0.35322 0.47109 0.6939 0.0
O965 O 0.35505 0.43589 0.64134 0.0
C966 C 0.65119 0.11355 0.0745 0.0
O967 O 0.66578 0.09861 0.07664 0.0
Cd968 Cd 0.70206 0.10266 0.09817 0.0
O969 O 0.65421 0.13177 0.08435 0.0
Cd970 Cd 0.6895 0.1213 0.09909 0.0
C971 C 0.71927 0.09996 0.05536 0.0
O972 O 0.72238 0.13852 0.10686 0.0
O973 O 0.69391 0.16074 0.10499 0.0
O974 O 0.69074 0.11277 0.13881 0.0
C975 C 0.71459 0.15807 0.10778 0.0
O976 O 0.72574 0.0866 0.07009 0.0
C977 C 0.6774 0.09666 0.13889 0.0
O978 O 0.70506 0.11439 0.06054 0.0
O979 O 0.67136 0.08981 0.12002 0.0
C980 C 0.68325 0.90512 0.80059 0.0
O981 O 0.70071 0.90878 0.81162 0.0
Cd982 Cd 0.68172 0.93852 0.83195 0.0
O983 O 0.66601 0.91593 0.80536 0.0
Cd984 Cd 0.66362 0.94115 0.83842 0.0
C985 C 0.65521 0.96729 0.79671 0.0
O986 O 0.69424 0.96773 0.85294 0.0
O987 O 0.65946 0.97263 0.86048 0.0
O988 O 0.66923 0.90884 0.86095 0.0
C989 C 0.67922 0.97943 0.86209 0.0
O990 O 0.67488 0.9615 0.80036 0.0
C991 C 0.64978 0.90912 0.86882 0.0
O992 O 0.64046 0.9608 0.81012 0.0
O993 O 0.63681 0.92443 0.86254 0.0
C994 C 0.86058 0.08432 0.30524 0.0
O995 O 0.84226 0.07529 0.31009 0.0
Cd996 Cd 0.83562 0.04429 0.33718 0.0
O997 O 0.87736 0.07956 0.31686 0.0
Cd998 Cd 0.85949 0.05589 0.34307 0.0
C999 C 0.85331 0.01921 0.30022 0.0
O1000 O 0.85675 0.02514 0.36678 0.0
O1001 O 0.88897 0.04146 0.36513 0.0
O1002 O 0.82613 0.07912 0.35274 0.0
C1003 C 0.87693 0.02593 0.37274 0.0
O1004 O 0.83512 0.01614 0.31005 0.0
C1005 C 0.83791 0.09143 0.36508 0.0
O1006 O 0.86623 0.03399 0.30755 0.0
O1007 O 0.85826 0.0867 0.36695 0.0
C1008 C 0.40672 0.18359 0.10555 0.0
O1009 O 0.40704 0.17182 0.08819 0.0
Cd1010 Cd 0.4386 0.15145 0.10277 0.0
O1011 O 0.4196 0.17845 0.12124 0.0
Cd1012 Cd 0.44721 0.14626 0.11979 0.0
C1013 C 0.47275 0.18902 0.11725 0.0
O1014 O 0.46019 0.1297 0.08128 0.0
O1015 O 0.48192 0.13124 0.10975 0.0
O1016 O 0.42316 0.11631 0.13101 0.0
C1017 C 0.47885 0.12537 0.08986 0.0
O1018 O 0.46249 0.18349 0.09998 0.0
C1019 C 0.43154 0.11403 0.15013 0.0
O1020 O 0.47069 0.17684 0.13417 0.0
O1021 O 0.44719 0.12701 0.1553 0.0
C1022 C 0.52651 0.6402 0.86278 0.0
O1023 O 0.53621 0.65084 0.84745 0.0
Cd1024 Cd 0.5695 0.67611 0.85233 0.0
O1025 O 0.53535 0.6399 0.88174 0.0
Cd1026 Cd 0.56708 0.66072 0.87268 0.0
C1027 C 0.53595 0.70704 0.85871 0.0
O1028 O 0.59341 0.68721 0.88454 0.0
O1029 O 0.58024 0.66592 0.91043 0.0
O1030 O 0.58311 0.62438 0.86749 0.0
C1031 C 0.59251 0.68207 0.90494 0.0
O1032 O 0.55078 0.70968 0.84423 0.0
C1033 C 0.5907 0.62682 0.84804 0.0
O1034 O 0.5366 0.69002 0.87097 0.0
O1035 O 0.58678 0.64515 0.83861 0.0
C1036 C 0.09833 0.77502 0.64345 0.0
O1037 O 0.10114 0.77223 0.62274 0.0
Cd1038 Cd 0.08494 0.7969 0.5922 0.0
O1039 O 0.08919 0.79271 0.64984 0.0
Cd1040 Cd 0.0867 0.80905 0.61384 0.0
C1041 C 0.0473 0.76992 0.59918 0.0
O1042 O 0.06537 0.83407 0.59318 0.0
O1043 O 0.07176 0.84328 0.62736 0.0
O1044 O 0.11995 0.81552 0.5893 0.0
C1045 C 0.06272 0.84778 0.60893 0.0
O1046 O 0.05464 0.77357 0.57994 0.0
C1047 C 0.13197 0.82045 0.60582 0.0
O1048 O 0.05675 0.77933 0.61533 0.0
O1049 O 0.12375 0.81697 0.6248 0.0
C1050 C 0.99105 0.3573 0.34239 0.0
O1051 O 0.99226 0.35734 0.3214 0.0
Cd1052 Cd 0.95913 0.33394 0.31851 0.0
O1053 O 0.97438 0.34827 0.35129 0.0
Cd1054 Cd 0.94222 0.32873 0.33279 0.0
C1055 C 0.97423 0.29386 0.34827 0.0
O1056 O 0.93966 0.31403 0.29174 0.0
O1057 O 0.92839 0.29484 0.32 0.0
O1058 O 0.91416 0.35809 0.33525 0.0
C1059 C 0.93014 0.2967 0.29924 0.0
O1060 O 0.97954 0.30187 0.32977 0.0
C1061 C 0.90333 0.34784 0.3501 0.0
O1062 O 0.95802 0.30214 0.35849 0.0
O1063 O 0.9108 0.32932 0.35633 0.0
C1064 C 0.38674 0.80261 0.37053 0.0
O1065 O 0.38985 0.80498 0.39119 0.0
Cd1066 Cd 0.41719 0.83114 0.40875 0.0
O1067 O 0.39575 0.81628 0.35744 0.0
Cd1068 Cd 0.41007 0.83917 0.38616 0.0
C1069 C 0.45028 0.79994 0.3948 0.0
O1070 O 0.43545 0.86639 0.39827 0.0
O1071 O 0.42424 0.86938 0.36423 0.0
O1072 O 0.38255 0.84562 0.4177 0.0
C1073 C 0.43644 0.87644 0.37984 0.0
O1074 O 0.4478 0.80744 0.41415 0.0
C1075 C 0.36774 0.85169 0.40411 0.0
O1076 O 0.43761 0.80719 0.37978 0.0
O1077 O 0.37252 0.85091 0.38368 0.0
C1078 C 0.9606 0.65381 0.10496 0.0
O1079 O 0.96509 0.64891 0.12497 0.0
Cd1080 Cd 0.9474 0.66578 0.15939 0.0
O1081 O 0.94378 0.66567 0.10129 0.0
Cd1082 Cd 0.93017 0.66652 0.13847 0.0
C1083 C 0.97194 0.70453 0.14568 0.0
O1084 O 0.91198 0.68626 0.16712 0.0
O1085 O 0.8962 0.68556 0.13469 0.0
O1086 O 0.92649 0.62951 0.15653 0.0
C1087 C 0.896 0.69203 0.15472 0.0
O1088 O 0.9724 0.69671 0.16507 0.0
C1089 C 0.91524 0.6224 0.14015 0.0
O1090 O 0.95925 0.69556 0.13165 0.0
O1091 O 0.91317 0.63505 0.12353 0.0
C1092 C 0.10019 0.21846 0.85591 0.0
O1093 O 0.10362 0.22073 0.87659 0.0
Cd1094 Cd 0.08701 0.19653 0.90722 0.0
O1095 O 0.08997 0.20141 0.84943 0.0
Cd1096 Cd 0.08823 0.18408 0.88488 0.0
C1097 C 0.04838 0.2225 0.89908 0.0
O1098 O 0.06789 0.15929 0.90701 0.0
O1099 O 0.07242 0.15011 0.87249 0.0
O1100 O 0.12335 0.17888 0.90676 0.0
C1101 C 0.06421 0.14572 0.89135 0.0
O1102 O 0.05583 0.21923 0.91833 0.0
C1103 C 0.13377 0.17299 0.88942 0.0
O1104 O 0.05809 0.21324 0.88299 0.0
O1105 O 0.12363 0.17468 0.87116 0.0
C1106 C 0.53341 0.35151 0.5944 0.0
O1107 O 0.53076 0.34408 0.61386 0.0
Cd1108 Cd 0.56217 0.32194 0.63249 0.0
O1109 O 0.55195 0.34871 0.58538 0.0
Cd1110 Cd 0.56703 0.32874 0.61652 0.0
C1111 C 0.5305 0.28877 0.63336 0.0
O1112 O 0.59258 0.30093 0.61157 0.0
O1113 O 0.59204 0.32525 0.58519 0.0
O1114 O 0.56452 0.36442 0.63695 0.0
C1115 C 0.59956 0.30719 0.59272 0.0
O1116 O 0.54121 0.29224 0.65096 0.0
C1117 C 0.58111 0.36174 0.64943 0.0
O1118 O 0.53502 0.3005 0.61664 0.0
O1119 O 0.59079 0.3432 0.64796 0.0
C1120 C 0.04303 0.4152 0.21486 0.0
O1121 O 0.02667 0.42784 0.21169 0.0
Cd1122 Cd 0.04038 0.45221 0.18115 0.0
O1123 O 0.05807 0.41549 0.2005 0.0
Cd1124 Cd 0.08623 0.41588 0.17392 0.0
C1125 C 0.09298 0.45887 0.20725 0.0
O1126 O 0.06228 0.4371 0.15112 0.0
O1127 O 0.09605 0.43525 0.14024 0.0
O1128 O 0.08165 0.37755 0.1632 0.0
C1129 C 0.07769 0.44535 0.13932 0.0
O1130 O 0.07311 0.46293 0.20166 0.0
C1131 C 0.10166 0.37248 0.167 0.0
O1132 O 0.1034 0.44204 0.19994 0.0
O1133 O 0.11403 0.38753 0.17491 0.0
C1134 C 0.35953 0.39239 0.96483 0.0
O1135 O 0.36385 0.37185 0.96671 0.0
Cd1136 Cd 0.34655 0.34066 0.94382 0.0
O1137 O 0.348 0.39853 0.94849 0.0
Cd1138 Cd 0.34586 0.363 0.93107 0.0
C1139 C 0.311 0.34749 0.9737 0.0
O1140 O 0.32345 0.33995 0.90891 0.0
O1141 O 0.32617 0.3743 0.89854 0.0
O1142 O 0.38094 0.3415 0.92366 0.0
C1143 C 0.31794 0.35519 0.89548 0.0
O1144 O 0.31874 0.32846 0.96988 0.0
C1145 C 0.39055 0.35876 0.9164 0.0
O1146 O 0.3189 0.36376 0.96315 0.0
O1147 O 0.38018 0.37689 0.9182 0.0
C1148 C 0.34814 0.61753 0.72891 0.0
O1149 O 0.36688 0.60827 0.72866 0.0
Cd1150 Cd 0.37873 0.58771 0.6941 0.0
O1151 O 0.33729 0.61736 0.71115 0.0
Cd1152 Cd 0.36286 0.59507 0.68929 0.0
C1153 C 0.38163 0.55282 0.72336 0.0
O1154 O 0.35398 0.56651 0.66632 0.0
O1155 O 0.32825 0.59129 0.66801 0.0
O1156 O 0.37925 0.63002 0.67472 0.0
C1157 C 0.335 0.57301 0.66036 0.0
O1158 O 0.39847 0.55661 0.71157 0.0
C1159 C 0.39413 0.62167 0.66247 0.0
O1160 O 0.36497 0.56523 0.72086 0.0
O1161 O 0.39651 0.60094 0.66378 0.0
C1162 C 0.14486 0.6241 0.46244 0.0
O1163 O 0.15587 0.64073 0.45592 0.0
Cd1164 Cd 0.18195 0.63869 0.42305 0.0
O1165 O 0.14561 0.60676 0.4508 0.0
Cd1166 Cd 0.16977 0.62196 0.42338 0.0
C1167 C 0.21319 0.63733 0.45648 0.0
O1168 O 0.19535 0.60636 0.39929 0.0
O1169 O 0.1686 0.58424 0.40832 0.0
O1170 O 0.13452 0.64007 0.4155 0.0
C1171 C 0.18662 0.58729 0.39805 0.0
O1172 O 0.21476 0.65176 0.44142 0.0
C1173 C 0.14022 0.65243 0.3996 0.0
O1174 O 0.19739 0.62369 0.4556 0.0
O1175 O 0.16065 0.65254 0.39498 0.0
C1176 C 0.13851 0.58539 0.29642 0.0
O1177 O 0.11834 0.58358 0.30195 0.0
Cd1178 Cd 0.10232 0.55563 0.32849 0.0
O1179 O 0.15275 0.57423 0.30703 0.0
Cd1180 Cd 0.12702 0.56059 0.33408 0.0
C1181 C 0.11068 0.52691 0.29184 0.0
O1182 O 0.11524 0.5327 0.35974 0.0
O1183 O 0.15047 0.53981 0.35945 0.0
O1184 O 0.09893 0.59133 0.34241 0.0
C1185 C 0.13453 0.52803 0.3666 0.0
O1186 O 0.09252 0.52888 0.30196 0.0
C1187 C 0.11443 0.6049 0.34637 0.0
O1188 O 0.12725 0.53746 0.29897 0.0
O1189 O 0.13408 0.59754 0.34628 0.0
C1190 C 0.15605 0.35318 0.03589 0.0
O1191 O 0.16825 0.33875 0.04496 0.0
Cd1192 Cd 0.19387 0.34726 0.07686 0.0
O1193 O 0.15496 0.37201 0.0449 0.0
Cd1194 Cd 0.17993 0.36481 0.07471 0.0
C1195 C 0.22449 0.34798 0.04293 0.0
O1196 O 0.20567 0.3835 0.09561 0.0
O1197 O 0.17874 0.40431 0.08404 0.0
O1198 O 0.17415 0.33929 0.10821 0.0
C1199 C 0.19676 0.40249 0.09462 0.0
O1200 O 0.22726 0.33507 0.05914 0.0
C1201 C 0.15337 0.33922 0.10601 0.0
O1202 O 0.20782 0.3606 0.0429 0.0
O1203 O 0.14574 0.34912 0.08919 0.0
C1204 C 0.34597 0.39527 0.78455 0.0
O1205 O 0.36454 0.40475 0.78271 0.0
Cd1206 Cd 0.37917 0.42597 0.81614 0.0
O1207 O 0.33693 0.39555 0.80328 0.0
Cd1208 Cd 0.36464 0.41865 0.82073 0.0
C1209 C 0.38189 0.46028 0.78581 0.0
O1210 O 0.35406 0.44635 0.84411 0.0
O1211 O 0.33086 0.41908 0.84314 0.0
O1212 O 0.38726 0.38463 0.82722 0.0
C1213 C 0.3358 0.43811 0.85035 0.0
O1214 O 0.39877 0.45675 0.79758 0.0
C1215 C 0.39919 0.39221 0.84274 0.0
O1216 O 0.36528 0.44791 0.78875 0.0
O1217 O 0.39643 0.41241 0.84752 0.0
C1218 C 0.35497 0.59771 0.52863 0.0
O1219 O 0.35598 0.6186 0.52626 0.0
Cd1220 Cd 0.33761 0.64738 0.55115 0.0
O1221 O 0.34641 0.59025 0.5462 0.0
Cd1222 Cd 0.33973 0.62522 0.56381 0.0
C1223 C 0.30141 0.63915 0.52319 0.0
O1224 O 0.31499 0.645 0.58631 0.0
O1225 O 0.32133 0.611 0.59619 0.0
O1226 O 0.37049 0.65264 0.57146 0.0
C1227 C 0.31114 0.62908 0.59951 0.0
O1228 O 0.30825 0.65854 0.52695 0.0
C1229 C 0.38257 0.63778 0.5801 0.0
O1230 O 0.31092 0.62314 0.53282 0.0
O1231 O 0.37592 0.61795 0.57825 0.0
C1232 C 0.20417 0.14164 0.3945 0.0
O1233 O 0.20329 0.12228 0.40241 0.0
Cd1234 Cd 0.17226 0.11377 0.4302 0.0
O1235 O 0.18908 0.15491 0.39985 0.0
Cd1236 Cd 0.16957 0.12797 0.42279 0.0
C1237 C 0.20688 0.10639 0.45858 0.0
O1238 O 0.14928 0.13987 0.45341 0.0
O1239 O 0.14844 0.16265 0.42592 0.0
O1240 O 0.16276 0.10725 0.38788 0.0
C1241 C 0.14349 0.15858 0.4459 0.0
O1242 O 0.19176 0.09201 0.45837 0.0
C1243 C 0.14836 0.0937 0.39482 0.0
O1244 O 0.20495 0.123 0.44604 0.0
O1245 O 0.14345 0.09509 0.41517 0.0
C1246 C 0.68484 0.36739 0.6047 0.0
O1247 O 0.68203 0.38799 0.60163 0.0
Cd1248 Cd 0.65721 0.40519 0.57278 0.0
O1249 O 0.67229 0.35398 0.5946 0.0
Cd1250 Cd 0.64912 0.38252 0.57981 0.0
C1251 C 0.69074 0.38956 0.5424 0.0
O1252 O 0.62351 0.39425 0.55215 0.0
O1253 O 0.61953 0.36072 0.56447 0.0
O1254 O 0.64389 0.41354 0.60848 0.0
C1255 C 0.61351 0.3758 0.55109 0.0
O1256 O 0.68308 0.40896 0.54359 0.0
C1257 C 0.63736 0.39948 0.62269 0.0
O1258 O 0.68259 0.37499 0.55501 0.0
O1259 O 0.63616 0.37941 0.61662 0.0
C1260 C 0.38562 0.97621 0.3557 0.0
O1261 O 0.36565 0.98206 0.35806 0.0
Cd1262 Cd 0.33581 0.9541 0.34644 0.0
O1263 O 0.389 0.9568 0.34892 0.0
Cd1264 Cd 0.35062 0.94691 0.34251 0.0
C1265 C 0.31919 0.98955 0.32363 0.0
O1266 O 0.33854 0.93375 0.30918 0.0
O1267 O 0.37134 0.92253 0.31795 0.0
O1268 O 0.32608 0.91847 0.36016 0.0
C1269 C 0.35611 0.92379 0.30353 0.0
O1270 O 0.30586 0.97938 0.33615 0.0
C1271 C 0.33248 0.92178 0.37984 0.0
O1272 O 0.33909 0.98322 0.32323 0.0
O1273 O 0.34596 0.93762 0.38264 0.0
C1274 C 0.77753 0.64569 0.09824 0.0
O1275 O 0.7796 0.62562 0.0925 0.0
Cd1276 Cd 0.81171 0.61287 0.06808 0.0
O1277 O 0.79345 0.65852 0.09413 0.0
Cd1278 Cd 0.81665 0.63127 0.07594 0.0
C1279 C 0.77829 0.61296 0.037 0.0
O1280 O 0.84004 0.6352 0.04568 0.0
O1281 O 0.84055 0.66292 0.06841 0.0
O1282 O 0.82831 0.62051 0.11366 0.0
C1283 C 0.84739 0.65427 0.05056 0.0
O1284 O 0.79019 0.59586 0.03855 0.0
C1285 C 0.83995 0.60375 0.10879 0.0
O1286 O 0.78271 0.62923 0.04942 0.0
O1287 O 0.83952 0.59771 0.08875 0.0
C1288 C 0.69142 0.51874 0.34818 0.0
O1289 O 0.70884 0.52849 0.34172 0.0
Cd1290 Cd 0.6865 0.55993 0.3287 0.0
O1291 O 0.67318 0.52879 0.34637 0.0
Cd1292 Cd 0.66781 0.56738 0.33072 0.0
C1293 C 0.64973 0.53587 0.29804 0.0
O1294 O 0.69494 0.58514 0.30157 0.0
O1295 O 0.65989 0.59271 0.30196 0.0
O1296 O 0.67628 0.59146 0.36224 0.0
C1297 C 0.67866 0.59551 0.29309 0.0
O1298 O 0.67035 0.53684 0.30063 0.0
C1299 C 0.65605 0.59387 0.36723 0.0
O1300 O 0.63773 0.54764 0.3105 0.0
O1301 O 0.64191 0.5837 0.35558 0.0
C1302 C 0.28414 0.83664 0.89051 0.0
O1303 O 0.28194 0.85635 0.89729 0.0
Cd1304 Cd 0.31463 0.87525 0.91581 0.0
O1305 O 0.30299 0.82803 0.8922 0.0
Cd1306 Cd 0.32063 0.85943 0.91014 0.0
C1307 C 0.28671 0.87839 0.95176 0.0
O1308 O 0.34703 0.85727 0.93702 0.0
O1309 O 0.34685 0.82867 0.91549 0.0
O1310 O 0.3258 0.87545 0.87247 0.0
C1311 C 0.35501 0.83853 0.93206 0.0
O1312 O 0.29624 0.89595 0.94565 0.0
C1313 C 0.33884 0.89109 0.87761 0.0
O1314 O 0.29049 0.86088 0.94091 0.0
O1315 O 0.34223 0.89382 0.89808 0.0
C1316 C 0.29627 0.07488 0.1903 0.0
O1317 O 0.28751 0.07152 0.20899 0.0
Cd1318 Cd 0.28734 0.10099 0.23751 0.0
O1319 O 0.30631 0.09299 0.18802 0.0
Cd1320 Cd 0.32739 0.09253 0.22215 0.0
C1321 C 0.3003 0.06038 0.26342 0.0
O1322 O 0.32169 0.11945 0.25083 0.0
O1323 O 0.33814 0.13108 0.22135 0.0
O1324 O 0.35271 0.07467 0.19702 0.0
C1325 C 0.33578 0.13244 0.24215 0.0
O1326 O 0.28495 0.07435 0.26634 0.0
C1327 C 0.37012 0.07882 0.20772 0.0
O1328 O 0.31497 0.06374 0.24863 0.0
O1329 O 0.36756 0.08748 0.22662 0.0
C1330 C 0.09102 0.94578 0.64885 0.0
O1331 O 0.11117 0.94941 0.65341 0.0
Cd1332 Cd 0.13284 0.92226 0.67808 0.0
O1333 O 0.08261 0.92797 0.65561 0.0
Cd1334 Cd 0.1158 0.91535 0.67393 0.0
C1335 C 0.13511 0.95789 0.70702 0.0
O1336 O 0.11545 0.89507 0.7059 0.0
O1337 O 0.08644 0.89026 0.68539 0.0
O1338 O 0.1311 0.90816 0.63621 0.0
C1339 C 0.09654 0.8863 0.70333 0.0
O1340 O 0.1528 0.94749 0.70322 0.0
C1341 C 0.14529 0.89374 0.64169 0.0
O1342 O 0.11773 0.95139 0.69737 0.0
O1343 O 0.14718 0.89004 0.66222 0.0
C1344 C 0.09356 0.2148 0.45248 0.0
C1345 C 0.10354 0.20783 0.43271 0.0
H1346 H 0.08577 0.24244 0.47318 0.0
C1347 C 0.11901 0.22189 0.42256 0.0
H1348 H 0.08178 0.20429 0.46089 0.0
C1349 C 0.12171 0.24364 0.42995 0.0
C1350 C 0.10856 0.25178 0.44728 0.0
H1351 H 0.12732 0.21686 0.40753 0.0
H1352 H 0.13172 0.25474 0.42012 0.0
C1353 C 0.09595 0.23668 0.45963 0.0
C1354 C 0.01025 0.8726 0.59015 0.0
C1355 C 0.00163 0.87786 0.61103 0.0
H1356 H 0.03768 0.85871 0.57291 0.0
C1357 C 0.01638 0.88232 0.62838 0.0
H1358 H -0.0006 0.86982 0.57621 0.0
C1359 C 0.03837 0.87577 0.62657 0.0
C1360 C 0.04556 0.86502 0.60732 0.0
H1361 H 0.01026 0.88729 0.64446 0.0
H1362 H 0.0486 0.87614 0.64124 0.0
C1363 C 0.03225 0.86602 0.58832 0.0
C1364 C 0.36403 0.77403 0.89426 0.0
C1365 C 0.37114 0.78189 0.87364 0.0
H1366 H 0.35841 0.74527 0.9139 0.0
C1367 C 0.36951 0.76788 0.85516 0.0
H1368 H 0.36445 0.78457 0.90872 0.0
C1369 C 0.36596 0.74528 0.85814 0.0
C1370 C 0.36432 0.73672 0.87962 0.0
H1371 H 0.37411 0.77371 0.83888 0.0
H1372 H 0.36821 0.73441 0.8441 0.0
C1373 C 0.36052 0.75142 0.89722 0.0
C1374 C 0.51093 0.10149 0.08682 0.0
C1375 C 0.49818 0.11827 0.07721 0.0
H1376 H 0.54267 0.09336 0.09991 0.0
C1377 C 0.50884 0.13468 0.06478 0.0
H1378 H 0.50303 0.08857 0.09635 0.0
C1379 C 0.53166 0.13749 0.06688 0.0
C1380 C 0.54364 0.12357 0.081 0.0
H1381 H 0.49935 0.14779 0.05716 0.0
H1382 H 0.53907 0.15251 0.06059 0.0
C1383 C 0.53367 0.10431 0.089 0.0
C1384 C 0.11299 0.79342 0.07216 0.0
C1385 C 0.09402 0.80453 0.06502 0.0
H1386 H 0.13087 0.76313 0.07208 0.0
C1387 C 0.08191 0.79577 0.04726 0.0
H1388 H 0.12281 0.79997 0.08561 0.0
C1389 C 0.08624 0.77424 0.03985 0.0
C1390 C 0.10276 0.76167 0.05014 0.0
H1391 H 0.06723 0.80408 0.04139 0.0
H1392 H 0.07449 0.76642 0.02887 0.0
C1393 C 0.11774 0.77237 0.06422 0.0
C1394 C 0.47036 0.89509 0.39283 0.0
C1395 C 0.45569 0.89064 0.37538 0.0
H1396 H 0.50412 0.89537 0.40288 0.0
C1397 C 0.46341 0.89241 0.35359 0.0
H1398 H 0.46472 0.89477 0.40982 0.0
C1399 C 0.48607 0.8928 0.3496 0.0
C1400 C 0.50091 0.89156 0.3674 0.0
H1401 H 0.4524 0.8899 0.33973 0.0
H1402 H 0.49178 0.89089 0.33274 0.0
C1403 C 0.49302 0.89536 0.38886 0.0
C1404 C 0.38774 0.21301 0.55976 0.0
C1405 C 0.37901 0.20561 0.57998 0.0
H1406 H 0.39543 0.24141 0.54012 0.0
C1407 C 0.36432 0.21922 0.59153 0.0
H1408 H 0.39902 0.2027 0.55046 0.0
C1409 C 0.3617 0.24121 0.58517 0.0
C1410 C 0.37452 0.24991 0.56785 0.0
H1411 H 0.35712 0.21374 0.60697 0.0
H1412 H 0.35258 0.25212 0.59604 0.0
C1413 C 0.38558 0.23524 0.55372 0.0
C1414 C 0.01696 0.11269 0.87234 0.0
C1415 C 0.00198 0.11899 0.8889 0.0
H1416 H 0.04993 0.11604 0.86039 0.0
C1417 C 0.01016 0.12493 0.90976 0.0
H1418 H 0.01111 0.10713 0.85637 0.0
C1419 C 0.03248 0.13008 0.91207 0.0
C1420 C 0.04645 0.1292 0.89352 0.0
H1421 H -0.00096 0.12914 0.92313 0.0
H1422 H 0.03782 0.13793 0.92724 0.0
C1423 C 0.03925 0.11785 0.87463 0.0
C1424 C 0.35366 0.13759 0.27895 0.0
C1425 C 0.35519 0.13869 0.2558 0.0
H1426 H 0.37017 0.12997 0.30916 0.0
C1427 C 0.37634 0.13909 0.24613 0.0
H1428 H 0.33768 0.13759 0.28698 0.0
C1429 C 0.39505 0.13435 0.25884 0.0
C1430 C 0.39294 0.12948 0.28145 0.0
H1431 H 0.37826 0.1402 0.22837 0.0
H1432 H 0.41069 0.13211 0.25048 0.0
C1433 C 0.37239 0.13314 0.29168 0.0
C1434 C 0.1514 0.19546 0.4615 0.0
C1435 C 0.13815 0.17639 0.46164 0.0
H1436 H 0.16989 0.21795 0.48155 0.0
C1437 C 0.1262 0.1713 0.48081 0.0
H1438 H 0.16064 0.19993 0.44684 0.0
C1439 C 0.1309 0.18232 0.50054 0.0
C1440 C 0.14839 0.19755 0.50138 0.0
H1441 H 0.11565 0.15686 0.48128 0.0
H1442 H 0.1241 0.17568 0.51573 0.0
C1443 C 0.15653 0.20606 0.48143 0.0
C1444 C 0.06413 0.8859 0.72819 0.0
C1445 C 0.085 0.87734 0.72275 0.0
H1446 H 0.04357 0.89782 0.75441 0.0
C1447 C 0.09735 0.86671 0.73915 0.0
H1448 H 0.0542 0.89406 0.71575 0.0
C1449 C 0.09096 0.86837 0.76122 0.0
C1450 C 0.0726 0.88132 0.76706 0.0
H1451 H 0.11335 0.85972 0.73529 0.0
H1452 H 0.10228 0.86256 0.77379 0.0
C1453 C 0.05795 0.88801 0.7504 0.0
C1454 C 0.38771 0.83952 0.9563 0.0
C1455 C 0.36988 0.82754 0.94777 0.0
H1456 H 0.40617 0.84745 0.98523 0.0
C1457 C 0.362 0.80915 0.95953 0.0
H1458 H 0.39419 0.85363 0.9474 0.0
C1459 C 0.36866 0.80579 0.98145 0.0
C1460 C 0.38314 0.82088 0.99146 0.0
H1461 H 0.34827 0.79962 0.95317 0.0
H1462 H 0.35961 0.79401 0.99142 0.0
C1463 C 0.39468 0.83583 0.97796 0.0
C1464 C 0.38754 0.92295 0.25028 0.0
C1465 C 0.37078 0.92893 0.2354 0.0
H1466 H 0.39591 0.91571 0.28384 0.0
C1467 C 0.3487 0.92724 0.24223 0.0
H1468 H 0.40472 0.92369 0.24538 0.0
C1469 C 0.34364 0.92263 0.26428 0.0
C1470 C 0.36058 0.91961 0.27985 0.0
H1471 H 0.33538 0.93134 0.23104 0.0
H1472 H 0.32657 0.9235 0.26951 0.0
C1473 C 0.38247 0.91821 0.27232 0.0
C1474 C 0.37649 0.08749 0.4717 0.0
C1475 C 0.37231 0.10639 0.45888 0.0
H1476 H 0.3768 0.07358 0.5042 0.0
C1477 C 0.37227 0.12712 0.46939 0.0
H1478 H 0.3769 0.07131 0.46407 0.0
C1479 C 0.37238 0.12842 0.49255 0.0
C1480 C 0.37247 0.10902 0.50533 0.0
H1481 H 0.36911 0.14201 0.46 0.0
H1482 H 0.36951 0.14431 0.50026 0.0
C1483 C 0.37633 0.08876 0.49475 0.0
C1484 C 0.07233 0.1163 0.76111 0.0
C1485 C 0.09384 0.12309 0.76658 0.0
H1486 H 0.05099 0.10591 0.7349 0.0
C1487 C 0.10713 0.13252 0.75016 0.0
H1488 H 0.06167 0.10913 0.77357 0.0
C1489 C 0.10072 0.13123 0.72807 0.0
C1490 C 0.08138 0.11979 0.72227 0.0
H1491 H 0.12363 0.13819 0.75403 0.0
H1492 H 0.11257 0.13593 0.7155 0.0
C1493 C 0.06612 0.11454 0.73889 0.0
C1494 C 0.15512 0.79601 0.02462 0.0
C1495 C 0.14056 0.80853 0.01165 0.0
H1496 H 0.17503 0.79581 0.05388 0.0
C1497 C 0.12852 0.82558 0.02181 0.0
H1498 H 0.16444 0.78261 0.01732 0.0
C1499 C 0.13528 0.8338 0.04223 0.0
C1500 C 0.15304 0.82397 0.0533 0.0
H1501 H 0.1168 0.83518 0.01229 0.0
H1502 H 0.1282 0.84909 0.04824 0.0
C1503 C 0.16146 0.80383 0.04545 0.0
C1504 C 0.21759 0.43643 0.08572 0.0
C1505 C 0.20973 0.42172 0.10186 0.0
H1506 H 0.24593 0.45391 0.07384 0.0
C1507 C 0.22077 0.42043 0.12216 0.0
H1508 H 0.20935 0.43767 0.06989 0.0
C1509 C 0.24149 0.4302 0.12461 0.0
C1510 C 0.25156 0.44063 0.10651 0.0
H1511 H 0.21496 0.40927 0.13489 0.0
H1512 H 0.25116 0.426 0.13906 0.0
C1513 C 0.23855 0.44594 0.08807 0.0
C1514 C 0.69689 0.06098 0.9024 0.0
C1515 C 0.68435 0.07927 0.89577 0.0
H1516 H 0.72894 0.04645 0.90278 0.0
C1517 C 0.6922 0.09269 0.87855 0.0
H1518 H 0.69107 0.05014 0.91539 0.0
C1519 C 0.71389 0.09059 0.87126 0.0
C1520 C 0.72794 0.07537 0.88158 0.0
H1521 H 0.68258 0.10663 0.87279 0.0
H1522 H 0.72041 0.10302 0.86017 0.0
C1523 C 0.71865 0.05888 0.8951 0.0
C1524 C 0.06567 0.48471 0.14457 0.0
C1525 C 0.07845 0.46905 0.13315 0.0
H1526 H 0.06398 0.51786 0.15689 0.0
C1527 C 0.09627 0.47655 0.12028 0.0
H1528 H 0.05163 0.47961 0.15431 0.0
C1529 C 0.1034 0.49842 0.12179 0.0
C1530 C 0.09266 0.51327 0.13598 0.0
H1531 H 0.10623 0.46498 0.11094 0.0
H1532 H 0.11855 0.50309 0.11352 0.0
C1533 C 0.07276 0.50672 0.146 0.0
C1534 C 0.77013 0.81375 0.38933 0.0
C1535 C 0.78708 0.82872 0.38403 0.0
H1536 H 0.73523 0.80912 0.39065 0.0
C1537 C 0.78315 0.84483 0.36785 0.0
H1538 H 0.77286 0.80061 0.40116 0.0
C1539 C 0.76154 0.84951 0.36161 0.0
C1540 C 0.74406 0.83825 0.37184 0.0
H1541 H 0.79613 0.85603 0.36275 0.0
H1542 H 0.75845 0.86432 0.35206 0.0
C1543 C 0.74848 0.81853 0.38315 0.0
C1544 C 0.9116 0.97554 0.13653 0.0
C1545 C 0.89114 0.96852 0.12836 0.0
H1546 H 0.93015 0.00331 0.14779 0.0
C1547 C 0.87777 0.98368 0.11703 0.0
H1548 H 0.92246 0.96406 0.1449 0.0
C1549 C 0.88194 0.00622 0.11898 0.0
C1550 C 0.8997 0.01347 0.13193 0.0
H1551 H 0.86221 0.97847 0.10993 0.0
H1552 H 0.8696 0.01776 0.11318 0.0
C1553 C 0.91592 -0.00187 0.13831 0.0
C1554 C 0.27831 0.64909 0.61401 0.0
C1555 C 0.29174 0.63014 0.61428 0.0
H1556 H 0.24527 0.6613 0.61459 0.0
C1557 C 0.28332 0.61064 0.62357 0.0
H1558 H 0.28455 0.66463 0.60771 0.0
C1559 C 0.26075 0.60881 0.62775 0.0
C1560 C 0.24654 0.6264 0.62242 0.0
H1561 H 0.29344 0.59595 0.62475 0.0
H1562 H 0.25416 0.59271 0.63194 0.0
C1563 C 0.25572 0.64723 0.61812 0.0
C1564 C 0.1199 0.47053 0.38182 0.0
C1565 C 0.13837 0.45964 0.37301 0.0
H1566 H 0.10442 0.50173 0.38756 0.0
C1567 C 0.15811 0.47168 0.37054 0.0
H1568 H 0.10457 0.46172 0.38448 0.0
C1569 C 0.15804 0.49474 0.37235 0.0
C1570 C 0.1382 0.50595 0.37658 0.0
H1571 H 0.17287 0.4637 0.36436 0.0
H1572 H 0.17266 0.50374 0.36735 0.0
C1573 C 0.11982 0.49357 0.3836 0.0
C1574 C 0.32495 0.46356 0.88035 0.0
C1575 C 0.31936 0.45242 0.86089 0.0
H1576 H 0.32323 0.4941 0.8978 0.0
C1577 C 0.30206 0.46055 0.84779 0.0
H1578 H 0.33817 0.4575 0.89075 0.0
C1579 C 0.29383 0.48182 0.85156 0.0
C1580 C 0.30311 0.49482 0.86832 0.0
H1581 H 0.29747 0.45213 0.83268 0.0
H1582 H 0.2836 0.48936 0.83897 0.0
C1583 C 0.31614 0.48445 0.88449 0.0
C1584 C 0.9019 0.78215 0.58402 0.0
C1585 C 0.89679 0.79451 0.60293 0.0
H1586 H 0.90236 0.74998 0.56958 0.0
C1587 C 0.88175 0.78582 0.61834 0.0
H1588 H 0.91319 0.78857 0.57171 0.0
C1589 C 0.87569 0.76363 0.61728 0.0
C1590 C 0.88457 0.75003 0.60075 0.0
H1591 H 0.87707 0.79529 0.6328 0.0
H1592 H 0.86648 0.75661 0.63093 0.0
C1593 C 0.89573 0.75993 0.58289 0.0
C1594 C 0.97285 0.13291 0.35423 0.0
C1595 C 0.95717 0.14017 0.36968 0.0
H1596 H 0.00705 0.12733 0.3478 0.0
C1597 C 0.96308 0.14073 0.39218 0.0
H1598 H 0.96876 0.13182 0.33685 0.0
C1599 C 0.98513 0.13835 0.39847 0.0
C1600 C 0.00144 0.13525 0.38233 0.0
H1601 H 0.95122 0.14568 0.40463 0.0
H1602 H 0.98958 0.14159 0.4155 0.0
C1603 C 0.99488 0.13044 0.36054 0.0
C1604 C 0.63282 0.22728 0.10014 0.0
C1605 C 0.62609 0.2081 0.08906 0.0
H1606 H 0.63292 0.26253 0.09994 0.0
C1607 C 0.62083 0.20945 0.06644 0.0
H1608 H 0.63723 0.22667 0.11748 0.0
C1609 C 0.61812 0.23014 0.05639 0.0
C1610 C 0.62098 0.2494 0.0689 0.0
H1611 H 0.61572 0.19486 0.05743 0.0
H1612 H 0.6108 0.23096 0.04009 0.0
C1613 C 0.63042 0.24782 0.09004 0.0
C1614 C 0.48894 0.86092 0.91731 0.0
C1615 C 0.47105 0.84737 0.92303 0.0
H1616 H 0.5234 0.86714 0.92134 0.0
C1617 C 0.47288 0.83365 0.94172 0.0
H1618 H 0.48793 0.87182 0.90315 0.0
C1619 C 0.49335 0.831 0.95224 0.0
C1620 C 0.51202 0.84215 0.94421 0.0
H1621 H 0.45934 0.823 0.9465 0.0
H1622 H 0.4951 0.81821 0.96463 0.0
C1623 C 0.50924 0.85835 0.92785 0.0
C1624 C 0.89132 0.21191 0.89745 0.0
C1625 C 0.89404 0.20232 0.87653 0.0
H1626 H 0.88626 0.24189 0.9153 0.0
C1627 C 0.88643 0.21382 0.85783 0.0
H1628 H 0.89634 0.20321 0.91225 0.0
C1629 C 0.88074 0.23607 0.85955 0.0
C1630 C 0.8826 0.24688 0.87999 0.0
H1631 H 0.88755 0.20659 0.84149 0.0
H1632 H 0.87781 0.24531 0.84451 0.0
C1633 C 0.8855 0.23414 0.89919 0.0
C1634 C 0.47983 0.14532 0.55466 0.0
C1635 C 0.47684 0.1363 0.57589 0.0
H1636 H 0.5034 0.15775 0.53128 0.0
C1637 C 0.49481 0.12637 0.5865 0.0
H1638 H 0.46617 0.15301 0.54608 0.0
C1639 C 0.51596 0.12863 0.57775 0.0
C1640 C 0.51943 0.14124 0.55857 0.0
H1641 H 0.49288 0.11904 0.60272 0.0
H1642 H 0.52985 0.12321 0.58763 0.0
C1643 C 0.50115 0.14788 0.54604 0.0
C1644 C 0.60276 0.779 0.36316 0.0
C1645 C 0.59881 0.79615 0.37836 0.0
H1646 H 0.60528 0.74409 0.3583 0.0
C1647 C 0.6007 0.79155 0.40105 0.0
H1648 H 0.60185 0.78195 0.34553 0.0
C1649 C 0.60315 0.76973 0.40837 0.0
C1650 C 0.60341 0.75227 0.39307 0.0
H1651 H 0.59811 0.80442 0.4132 0.0
H1652 H 0.60214 0.76641 0.42592 0.0
C1653 C 0.60483 0.75722 0.37046 0.0
C1654 C 0.98005 0.86967 0.09779 0.0
C1655 C 0.99257 0.8693 0.1173 0.0
H1656 H 0.94906 0.86191 0.08289 0.0
C1657 C 0.98152 0.8676 0.13767 0.0
H1658 H 0.98797 0.87145 0.08184 0.0
C1659 C 0.95913 0.86218 0.13828 0.0
C1660 C 0.94762 0.85833 0.11852 0.0
H1661 H 0.99065 0.86782 0.15305 0.0
H1662 H 0.95171 0.85835 0.15411 0.0
C1663 C 0.95769 0.86414 0.09839 0.0
C1664 C 0.6956 0.89536 0.76277 0.0
C1665 C 0.68225 0.89068 0.78111 0.0
H1666 H 0.69684 0.89764 0.72747 0.0
C1667 C 0.6628 0.87843 0.77805 0.0
H1668 H 0.71057 0.90493 0.76472 0.0
C1669 C 0.6547 0.87469 0.75684 0.0
C1670 C 0.6662 0.88279 0.73848 0.0
H1671 H 0.65231 0.87455 0.79203 0.0
H1672 H 0.63828 0.86788 0.75497 0.0
C1673 C 0.68762 0.89128 0.74142 0.0
C1674 C 0.8376 0.91068 0.48743 0.0
C1675 C 0.84858 0.89019 0.48704 0.0
H1676 H 0.82437 0.93645 0.50784 0.0
C1677 C 0.86004 0.88336 0.50601 0.0
H1678 H 0.82872 0.91648 0.47305 0.0
C1679 C 0.85767 0.89492 0.52582 0.0
C1680 C 0.84392 0.91353 0.52698 0.0
H1681 H 0.86896 0.86786 0.50616 0.0
H1682 H 0.86442 0.88778 0.54078 0.0
C1683 C 0.8353 0.92231 0.50734 0.0
C1684 C 0.85072 0.09565 0.24534 0.0
C1685 C 0.87233 0.10023 0.23836 0.0
H1686 H 0.82979 0.08767 0.27252 0.0
C1687 C 0.88818 0.10611 0.25428 0.0
H1688 H 0.83803 0.09146 0.23347 0.0
C1689 C 0.8836 0.10351 0.27677 0.0
C1690 C 0.863 0.09541 0.28358 0.0
H1691 H 0.90491 0.11012 0.24943 0.0
H1692 H 0.89684 0.1057 0.28857 0.0
C1693 C 0.84604 0.09342 0.26782 0.0
C1694 C 0.62652 0.1303 0.04626 0.0
C1695 C 0.63461 0.1113 0.05677 0.0
H1696 H 0.61691 0.14464 0.01548 0.0
C1697 C 0.63193 0.09072 0.04633 0.0
H1698 H 0.62785 0.14634 0.05405 0.0
C1699 C 0.62559 0.08972 0.02418 0.0
C1700 C 0.62205 0.10932 0.01234 0.0
H1701 H 0.63741 0.07568 0.05432 0.0
H1702 H 0.62649 0.07397 0.01575 0.0
C1703 C 0.62028 0.12931 0.02407 0.0
C1704 C 0.66719 0.11767 0.72123 0.0
C1705 C 0.68667 0.10516 0.71998 0.0
H1706 H 0.64099 0.12894 0.74207 0.0
C1707 C 0.69844 0.10077 0.73943 0.0
H1708 H 0.65788 0.12131 0.70639 0.0
C1709 C 0.68883 0.10545 0.75998 0.0
C1710 C 0.66735 0.11423 0.76105 0.0
H1711 H 0.71338 0.09099 0.73889 0.0
H1712 H 0.69683 0.09934 0.77477 0.0
C1713 C 0.65744 0.12197 0.74165 0.0
C1714 C 0.63045 0.90229 0.48037 0.0
C1715 C 0.62696 0.88208 0.4912 0.0
H1716 H 0.64246 0.91804 0.45117 0.0
C1717 C 0.62598 0.86264 0.47855 0.0
H1718 H 0.63078 0.91765 0.48954 0.0
C1719 C 0.63271 0.86284 0.45648 0.0
C1720 C 0.6405 0.88249 0.44694 0.0
H1721 H 0.62268 0.84687 0.48633 0.0
H1722 H 0.63439 0.84723 0.44792 0.0
C1723 C 0.63724 0.90249 0.45832 0.0
C1724 C 0.88153 0.87119 0.23159 0.0
C1725 C 0.86087 0.87975 0.22557 0.0
H1726 H 0.90414 0.86511 0.25795 0.0
C1727 C 0.84494 0.88307 0.24218 0.0
H1728 H 0.89402 0.86799 0.2192 0.0
C1729 C 0.85079 0.8816 0.26446 0.0
C1730 C 0.87262 0.87664 0.27043 0.0
H1731 H 0.82866 0.88921 0.23812 0.0
H1732 H 0.8389 0.88671 0.27681 0.0
C1733 C 0.88733 0.86955 0.25389 0.0
C1734 C 0.8442 0.14412 0.95108 0.0
C1735 C 0.82469 0.14922 0.93964 0.0
H1736 H 0.86443 0.15118 0.97915 0.0
C1737 C 0.81403 0.16934 0.94428 0.0
H1738 H 0.85309 0.12899 0.94765 0.0
C1739 C 0.82085 0.18232 0.96222 0.0
C1740 C 0.83829 0.17523 0.97575 0.0
H1741 H 0.79908 0.17387 0.93563 0.0
H1742 H 0.8107 0.19619 0.96715 0.0
C1743 C 0.85091 0.157 0.969 0.0
C1744 C 0.76032 0.70398 0.88534 0.0
C1745 C 0.78026 0.69211 0.88518 0.0
H1746 H 0.7251 0.7018 0.88455 0.0
C1747 C 0.78021 0.67057 0.8764 0.0
H1748 H 0.75975 0.72075 0.89154 0.0
C1749 C 0.76029 0.65952 0.87293 0.0
C1750 C 0.74024 0.67015 0.87743 0.0
H1751 H 0.79537 0.66114 0.87542 0.0
H1752 H 0.76068 0.64205 0.86909 0.0
C1753 C 0.74036 0.69301 0.8815 0.0
C1754 C 0.28824 0.81558 0.10831 0.0
C1755 C 0.3046 0.83195 0.10921 0.0
H1756 H 0.25353 0.80896 0.10905 0.0
C1757 C 0.29914 0.85281 0.11782 0.0
H1758 H 0.29198 0.79941 0.10163 0.0
C1759 C 0.27717 0.85843 0.12167 0.0
C1760 C 0.26037 0.84315 0.11728 0.0
H1761 H 0.31153 0.86568 0.11884 0.0
H1762 H 0.2732 0.87539 0.12576 0.0
C1763 C 0.26616 0.82115 0.11243 0.0
C1764 C 0.92335 0.51337 0.86898 0.0
C1765 C 0.93983 0.51713 0.85307 0.0
H1766 H 0.8997 0.49011 0.88141 0.0
C1767 C 0.9506 0.49894 0.84361 0.0
H1768 H 0.91465 0.52716 0.87636 0.0
C1769 C 0.94247 0.47761 0.84708 0.0
C1770 C 0.92313 0.4745 0.85949 0.0
H1771 H 0.96317 0.50143 0.83111 0.0
H1772 H 0.94937 0.46416 0.83751 0.0
C1773 C 0.91456 0.4922 0.87167 0.0
C1774 C 0.29585 0.18461 0.57951 0.0
C1775 C 0.29424 0.16368 0.58944 0.0
H1776 H 0.27831 0.21343 0.56896 0.0
C1777 C 0.27548 0.15883 0.60219 0.0
H1778 H 0.31025 0.18898 0.56985 0.0
C1779 C 0.25732 0.17303 0.60205 0.0
C1780 C 0.25742 0.19208 0.58874 0.0
H1781 H 0.27397 0.14306 0.6105 0.0
H1782 H 0.24225 0.16759 0.61 0.0
C1783 C 0.27753 0.19877 0.57917 0.0
C1784 C 0.08847 0.02164 0.86453 0.0
C1785 C 0.08002 0.03718 0.84966 0.0
H1786 H 0.08722 0.98823 0.8757 0.0
C1787 C 0.05983 0.03282 0.83906 0.0
H1788 H 0.10388 0.02471 0.87305 0.0
C1789 C 0.05036 0.01172 0.84038 0.0
C1790 C 0.06097 0.99508 0.85249 0.0
H1791 H 0.05298 0.04461 0.82749 0.0
H1792 H 0.03679 0.00767 0.82947 0.0
C1793 C 0.07877 0.00082 0.86621 0.0
C1794 C 0.69212 0.41136 0.40876 0.0
C1795 C 0.68982 0.38985 0.40025 0.0
H1796 H 0.71474 0.43775 0.41591 0.0
C1797 C 0.70656 0.3814 0.38665 0.0
H1798 H 0.67946 0.41829 0.41931 0.0
C1799 C 0.72652 0.39266 0.38444 0.0
C1800 C 0.73021 0.41242 0.39601 0.0
H1801 H 0.70513 0.36498 0.37968 0.0
H1802 H 0.74002 0.38449 0.376 0.0
C1803 C 0.71231 0.42261 0.40669 0.0
C1804 C 0.94907 0.48529 0.65034 0.0
C1805 C 0.93798 0.46573 0.6446 0.0
H1806 H 0.9463 0.52022 0.65531 0.0
C1807 C 0.91759 0.46738 0.63363 0.0
H1808 H 0.96477 0.48461 0.65883 0.0
C1809 C 0.90681 0.4877 0.63197 0.0
C1810 C 0.91641 0.5068 0.64092 0.0
H1811 H 0.90873 0.45262 0.62877 0.0
H1812 H 0.89011 0.48805 0.62563 0.0
C1813 C 0.93834 0.50573 0.64849 0.0
C1814 C 0.59092 0.51035 0.14709 0.0
C1815 C 0.61007 0.52344 0.1459 0.0
H1816 H 0.57809 0.47766 0.1505 0.0
C1817 C 0.62996 0.51355 0.1394 0.0
H1818 H 0.57514 0.51762 0.1513 0.0
C1819 C 0.63157 0.49058 0.13867 0.0
C1820 C 0.61337 0.47744 0.14468 0.0
H1821 H 0.64487 0.52326 0.1377 0.0
H1822 H 0.64772 0.4833 0.13634 0.0
C1823 C 0.59257 0.48738 0.14655 0.0
C1824 C 0.58832 0.70379 0.93977 0.0
C1825 C 0.60126 0.69785 0.92139 0.0
H1826 H 0.57836 0.73031 0.96106 0.0
C1827 C 0.61919 0.7113 0.91559 0.0
H1828 H 0.57446 0.69363 0.94471 0.0
C1829 C 0.62186 0.73194 0.92548 0.0
C1830 C 0.60612 0.73976 0.94065 0.0
H1831 H 0.62969 0.70692 0.90178 0.0
H1832 H 0.63415 0.74306 0.91873 0.0
C1833 C 0.59069 0.72478 0.94935 0.0
C1834 C 0.49178 0.36284 0.09852 0.0
C1835 C 0.47597 0.34939 0.08826 0.0
H1836 H 0.52582 0.37169 0.10003 0.0
C1837 C 0.48058 0.34069 0.06723 0.0
H1838 H 0.48845 0.37016 0.11452 0.0
C1839 C 0.50215 0.34144 0.05894 0.0
C1840 C 0.51902 0.35088 0.07174 0.0
H1841 H 0.46855 0.33051 0.05879 0.0
H1842 H 0.5061 0.33161 0.04452 0.0
C1843 C 0.51318 0.36381 0.09013 0.0
C1844 C 0.89421 0.25041 0.29278 0.0
C1845 C 0.91033 0.2339 0.29443 0.0
H1846 H 0.88816 0.28506 0.29042 0.0
C1847 C 0.93188 0.23864 0.28731 0.0
H1848 H 0.87748 0.24714 0.29815 0.0
C1849 C 0.93808 0.26056 0.28305 0.0
C1850 C 0.92275 0.27774 0.28595 0.0
H1851 H 0.94467 0.2262 0.28855 0.0
H1852 H 0.95549 0.26432 0.28153 0.0
C1853 C 0.90035 0.27218 0.28811 0.0
C1854 C 0.96895 0.65741 0.69544 0.0
C1855 C 0.97985 0.63866 0.6872 0.0
H1856 H 0.94144 0.67922 0.69116 0.0
C1857 C 0.96777 0.62335 0.67465 0.0
H1858 H 0.97786 0.66947 0.70519 0.0
C1859 C 0.94709 0.62907 0.66633 0.0
C1860 C 0.93816 0.64996 0.67088 0.0
H1861 H 0.97572 0.60863 0.66832 0.0
H1862 H 0.93953 0.61847 0.65406 0.0
C1863 C 0.94808 0.66308 0.68725 0.0
C1864 C 0.62845 0.25544 0.57874 0.0
C1865 C 0.61418 0.24809 0.56194 0.0
H1866 H 0.63461 0.28091 0.60249 0.0
C1867 C 0.60196 0.26379 0.5501 0.0
H1868 H 0.63842 0.2437 0.58783 0.0
C1869 C 0.60024 0.28539 0.55821 0.0
C1870 C 0.61058 0.29112 0.57821 0.0
H1871 H 0.59096 0.25865 0.53698 0.0
H1872 H 0.58813 0.29629 0.55087 0.0
C1873 C 0.62624 0.27675 0.58724 0.0
C1874 C 0.95675 0.37125 0.84341 0.0
C1875 C 0.94587 0.35239 0.83557 0.0
H1876 H 0.98656 0.38993 0.84319 0.0
C1877 C 0.95431 0.34141 0.81692 0.0
H1878 H 0.95045 0.38015 0.8576 0.0
C1879 C 0.97527 0.34684 0.80885 0.0
C1880 C 0.98779 0.36311 0.8196 0.0
H1881 H 0.94613 0.32687 0.81047 0.0
H1882 H 0.98289 0.33598 0.79683 0.0
C1883 C 0.97733 0.37701 0.83494 0.0
C1884 C 0.88331 0.74755 0.17525 0.0
C1885 C 0.87087 0.75443 0.157 0.0
H1886 H 0.90115 0.72063 0.1893 0.0
C1887 C 0.8588 0.73866 0.14505 0.0
H1888 H 0.89225 0.75946 0.18517 0.0
C1889 C 0.86411 0.71638 0.14716 0.0
C1890 C 0.88119 0.71009 0.16145 0.0
H1891 H 0.84839 0.74369 0.1314 0.0
H1892 H 0.85747 0.70483 0.13522 0.0
C1893 C 0.88853 0.72521 0.17749 0.0
C1894 C 0.49611 0.65189 0.42546 0.0
C1895 C 0.51243 0.64442 0.41074 0.0
H1896 H 0.46173 0.65861 0.42966 0.0
C1897 C 0.50618 0.63065 0.39316 0.0
H1898 H 0.50044 0.66215 0.43946 0.0
C1899 C 0.48395 0.62844 0.38766 0.0
C1900 C 0.46791 0.64024 0.39955 0.0
H1901 H 0.51846 0.62409 0.38191 0.0
H1902 H 0.47974 0.62037 0.37225 0.0
C1903 C 0.47381 0.64977 0.41988 0.0
C1904 C 0.88283 0.6194 0.75133 0.0
C1905 C 0.90345 0.6136 0.76019 0.0
H1906 H 0.86158 0.61735 0.72322 0.0
C1907 C 0.92089 0.60901 0.74557 0.0
H1908 H 0.86918 0.62345 0.76217 0.0
C1909 C 0.91655 0.6057 0.72306 0.0
C1910 C 0.89476 0.6069 0.7152 0.0
H1911 H 0.93704 0.60468 0.75187 0.0
H1912 H 0.92959 0.59924 0.71266 0.0
C1913 C 0.87841 0.61577 0.729 0.0
C1914 C 0.64505 0.6827 0.95449 0.0
C1915 C 0.63649 0.6641 0.94355 0.0
H1916 H 0.64896 0.69894 0.98568 0.0
C1917 C 0.61972 0.65182 0.95366 0.0
H1918 H 0.65803 0.69243 0.94695 0.0
C1919 C 0.61419 0.65585 0.97566 0.0
C1920 C 0.62597 0.67167 0.98792 0.0
H1921 H 0.61276 0.63753 0.94543 0.0
H1922 H 0.60316 0.64441 0.98389 0.0
C1923 C 0.63975 0.68653 0.97668 0.0
C1924 C 0.62641 0.36073 0.24123 0.0
C1925 C 0.60869 0.36921 0.22885 0.0
H1926 H 0.64061 0.35847 0.27344 0.0
C1927 C 0.58825 0.3721 0.2393 0.0
H1928 H 0.64213 0.35736 0.2334 0.0
C1929 C 0.58735 0.37266 0.26232 0.0
C1930 C 0.60686 0.3702 0.27464 0.0
H1931 H 0.57402 0.37776 0.23009 0.0
H1932 H 0.57231 0.37839 0.27011 0.0
C1933 C 0.62558 0.36144 0.26424 0.0
C1934 C 0.82035 0.43564 0.52637 0.0
C1935 C 0.83638 0.42046 0.53356 0.0
H1936 H 0.80416 0.44969 0.49818 0.0
C1937 C 0.85319 0.41427 0.51886 0.0
H1938 H 0.80719 0.44072 0.53736 0.0
C1939 C 0.85156 0.41962 0.49648 0.0
C1940 C 0.83303 0.43105 0.48854 0.0
H1941 H 0.86587 0.40278 0.52403 0.0
H1942 H 0.86298 0.41197 0.48502 0.0
C1943 C 0.81865 0.44089 0.50384 0.0
C1944 C 0.94644 0.39315 0.7893 0.0
C1945 C 0.92666 0.38184 0.79373 0.0
H1946 H 0.97066 0.4013 0.76489 0.0
C1947 C 0.91975 0.3652 0.7793 0.0
H1948 H 0.95218 0.40601 0.80034 0.0
C1949 C 0.93095 0.36178 0.75942 0.0
C1950 C 0.94826 0.37605 0.75309 0.0
H1951 H 0.90473 0.35606 0.78256 0.0
H1952 H 0.92396 0.35016 0.74776 0.0
C1953 C 0.95718 0.39032 0.76904 0.0
C1954 C 0.85569 0.68989 0.0317 0.0
C1955 C 0.8597 0.66715 0.03389 0.0
H1956 H 0.85319 0.71699 0.0091 0.0
C1957 C 0.87115 0.65612 0.01703 0.0
H1958 H 0.84715 0.6989 0.04459 0.0
C1959 C 0.87529 0.6667 0.99695 0.0
C1960 C 0.8672 0.68817 0.99325 0.0
H1961 H 0.87483 0.63867 0.01848 0.0
H1962 H 0.88175 0.6569 0.98344 0.0
C1963 C 0.8593 0.70033 0.01139 0.0
C1964 C 0.68871 0.59427 0.25339 0.0
C1965 C 0.67928 0.60593 0.27109 0.0
H1966 H 0.68486 0.58449 0.21958 0.0
C1967 C 0.6635 0.62229 0.26653 0.0
H1968 H 0.70087 0.58153 0.25644 0.0
C1969 C 0.65409 0.62375 0.24556 0.0
C1970 C 0.66064 0.60911 0.22885 0.0
H1971 H 0.65613 0.63167 0.27988 0.0
H1972 H 0.63985 0.63432 0.24327 0.0
C1973 C 0.67941 0.5959 0.23224 0.0
C1974 C 0.59826 0.38664 0.51454 0.0
C1975 C 0.60076 0.37038 0.53099 0.0
H1976 H 0.60012 0.39349 0.47992 0.0
C1977 C 0.59808 0.34812 0.52509 0.0
H1978 H 0.59947 0.404 0.51865 0.0
C1979 C 0.59847 0.34211 0.50283 0.0
C1980 C 0.60129 0.35835 0.48649 0.0
H1981 H 0.5992 0.33521 0.53741 0.0
H1982 H 0.59982 0.32475 0.49869 0.0
C1983 C 0.59855 0.38061 0.49225 0.0
C1984 C 0.70052 0.93621 0.58946 0.0
C1985 C 0.69013 0.91811 0.59965 0.0
H1986 H 0.73114 0.95322 0.58475 0.0
C1987 C 0.69998 0.90848 0.61825 0.0
H1988 H 0.69314 0.94407 0.5752 0.0
C1989 C 0.72136 0.91433 0.62424 0.0
C1990 C 0.73349 0.92894 0.6109 0.0
H1991 H 0.69214 0.89473 0.62661 0.0
H1992 H 0.72953 0.9047 0.63691 0.0
C1993 C 0.72225 0.94165 0.59511 0.0
C1994 C 0.20691 0.55252 0.40467 0.0
C1995 C 0.20003 0.56883 0.38964 0.0
H1996 H 0.23441 0.53352 0.41616 0.0
C1997 C 0.21202 0.57177 0.37006 0.0
H1998 H 0.1979 0.54994 0.41992 0.0
C1999 C 0.23261 0.56171 0.36758 0.0
C2000 C 0.24175 0.5496 0.38515 0.0
H2001 H 0.20697 0.58412 0.35815 0.0
H2002 H 0.24296 0.56692 0.35393 0.0
C2003 C 0.22782 0.54287 0.40241 0.0
C2004 C 0.67372 0.98344 0.61845 0.0
C2005 C 0.69011 0.99244 0.63222 0.0
H2006 H 0.65 0.95746 0.6149 0.0
C2007 C 0.70167 0.97827 0.64644 0.0
H2008 H 0.66492 0.99391 0.60691 0.0
C2009 C 0.69341 0.95707 0.65061 0.0
C2010 C 0.67371 0.95019 0.64051 0.0
H2011 H 0.71457 0.98464 0.65705 0.0
H2012 H 0.70055 0.94751 0.66393 0.0
C2013 C 0.66496 0.96268 0.62317 0.0
C2014 C 0.26696 0.37119 0.86597 0.0
C2015 C 0.25339 0.35377 0.87316 0.0
H2016 H 0.29924 0.38528 0.86738 0.0
C2017 C 0.26326 0.33358 0.8788 0.0
H2018 H 0.25977 0.38671 0.86071 0.0
C2019 C 0.28596 0.33276 0.8827 0.0
C2020 C 0.29872 0.35209 0.88078 0.0
H2021 H 0.25327 0.3196 0.88376 0.0
H2022 H 0.29272 0.31802 0.89023 0.0
C2023 C 0.28962 0.37042 0.86991 0.0
C2024 C 0.32883 0.5464 0.63011 0.0
C2025 C 0.32046 0.55761 0.64853 0.0
H2026 H 0.3304 0.51565 0.61296 0.0
C2027 C 0.30206 0.5489 0.65965 0.0
H2028 H 0.34289 0.55293 0.62119 0.0
C2029 C 0.29511 0.52727 0.65521 0.0
C2030 C 0.3066 0.51447 0.63964 0.0
H2031 H 0.29533 0.55735 0.67392 0.0
H2032 H 0.2834 0.51962 0.66636 0.0
C2033 C 0.32156 0.52506 0.62537 0.0
C2034 C 0.74865 0.17541 0.12149 0.0
C2035 C 0.73016 0.17665 0.10767 0.0
H2036 H 0.78348 0.17996 0.12378 0.0
C2037 C 0.73099 0.19032 0.08893 0.0
H2038 H 0.74832 0.16504 0.13608 0.0
C2039 C 0.75129 0.19879 0.08176 0.0
C2040 C 0.77062 0.19359 0.0934 0.0
H2041 H 0.7169 0.19146 0.07798 0.0
H2042 H 0.75229 0.20599 0.0654 0.0
C2043 C 0.76878 0.18409 0.11448 0.0
C2044 C 0.688 0.03751 0.84926 0.0
C2045 C 0.66805 0.04532 0.85811 0.0
H2046 H 0.70849 0.00909 0.84469 0.0
C2047 C 0.65779 0.03351 0.87512 0.0
H2048 H 0.69629 0.04656 0.83624 0.0
C2049 C 0.66544 0.01257 0.88076 0.0
C2050 C 0.68236 0.00273 0.86826 0.0
H2051 H 0.64261 0.03948 0.88244 0.0
H2052 H 0.65561 0.00271 0.89201 0.0
C2053 C 0.6952 0.01614 0.85435 0.0
C2054 C 0.91331 0.97759 0.37321 0.0
C2055 C 0.897 0.9614 0.37662 0.0
H2056 H 0.91977 0.01215 0.3702 0.0
C2057 C 0.87755 0.96735 0.38771 0.0
H2058 H 0.92882 0.97344 0.36533 0.0
C2059 C 0.87252 0.98961 0.39081 0.0
C2060 C 0.88676 0.00594 0.3825 0.0
H2061 H 0.865 0.95513 0.39131 0.0
H2062 H 0.85614 0.99391 0.39652 0.0
C2063 C 0.9082 -0.00011 0.37618 0.0
C2064 C 0.39113 0.21443 0.12721 0.0
C2065 C 0.39634 0.20559 0.10639 0.0
H2066 H 0.39056 0.24328 0.14754 0.0
C2067 C 0.39892 0.22003 0.08841 0.0
H2068 H 0.38887 0.20364 0.14131 0.0
C2069 C 0.40006 0.24287 0.092 0.0
C2070 C 0.39859 0.25138 0.11359 0.0
H2071 H 0.40301 0.21366 0.07219 0.0
H2072 H 0.40465 0.25347 0.07834 0.0
C2073 C 0.3923 0.23716 0.1308 0.0
C2074 C 0.46942 0.62706 0.88055 0.0
C2075 C 0.45779 0.64047 0.8656 0.0
H2076 H 0.50114 0.61592 0.89111 0.0
C2077 C 0.468 0.64661 0.84572 0.0
H2078 H 0.46172 0.62157 0.89575 0.0
C2079 C 0.49065 0.64324 0.84299 0.0
C2080 C 0.50313 0.63386 0.8602 0.0
H2081 H 0.45933 0.65664 0.83373 0.0
H2082 H 0.49867 0.65067 0.82883 0.0
C2083 C 0.49204 0.62383 0.8779 0.0
C2084 C 0.08983 0.75513 0.67879 0.0
C2085 C 0.10156 0.75618 0.65873 0.0
H2086 H 0.07483 0.73391 0.7029 0.0
C2087 C 0.1125 0.73718 0.65121 0.0
H2088 H 0.08134 0.76954 0.68513 0.0
C2089 C 0.10891 0.71688 0.66152 0.0
C2090 C 0.09439 0.71527 0.67953 0.0
H2091 H 0.12198 0.73752 0.63603 0.0
H2092 H 0.11537 0.70209 0.65379 0.0
C2093 C 0.08627 0.73473 0.68917 0.0
C2094 C 0.02079 0.36657 0.39565 0.0
C2095 C 0.0417 0.35798 0.39058 0.0
H2096 H 0.98835 0.37385 0.38388 0.0
C2097 C 0.04743 0.35539 0.36811 0.0
H2098 H 0.01587 0.36897 0.41269 0.0
C2099 C 0.03148 0.35815 0.35145 0.0
C2100 C 0.00966 0.36363 0.35704 0.0
H2101 H 0.06339 0.34878 0.36353 0.0
H2102 H 0.03561 0.35353 0.33466 0.0
C2103 C 0.00497 0.36937 0.37907 0.0
C2104 C 0.36884 0.76663 0.37801 0.0
C2105 C 0.37802 0.78135 0.36257 0.0
H2106 H 0.36649 0.73295 0.38832 0.0
C2107 C 0.38486 0.7732 0.34197 0.0
H2108 H 0.36277 0.77254 0.39378 0.0
C2109 C 0.38675 0.75045 0.33875 0.0
C2110 C 0.38193 0.73584 0.35618 0.0
H2111 H 0.39159 0.78419 0.32955 0.0
H2112 H 0.39477 0.74463 0.32385 0.0
C2113 C 0.37099 0.74393 0.37492 0.0
C2114 C 0.9956 0.63633 0.09218 0.0
C2115 C 0.97724 0.64968 0.08748 0.0
H2116 H 0.02968 0.63009 0.08555 0.0
C2117 C 0.97747 0.66253 0.0681 0.0
H2118 H 0.99583 0.62596 0.10676 0.0
C2119 C 0.9969 0.66459 0.05568 0.0
C2120 C 0.01624 0.65387 0.06257 0.0
H2121 H 0.96353 0.6729 0.06392 0.0
H2122 H -0.00247 0.6768 0.0426 0.0
C2123 C 0.01495 0.63847 0.07985 0.0
C2124 C 0.11628 0.25558 0.8484 0.0
C2125 C 0.10417 0.23731 0.84085 0.0
H2126 H 0.1208 0.29052 0.84638 0.0
C2127 C 0.09218 0.23926 0.82104 0.0
H2128 H 0.12602 0.2545 0.86336 0.0
C2129 C 0.08945 0.25998 0.8111 0.0
C2130 C 0.09865 0.27883 0.82093 0.0
H2131 H 0.08284 0.22541 0.81467 0.0
H2132 H 0.07772 0.26162 0.7977 0.0
C2133 C 0.11353 0.27619 0.8385 0.0
C2134 C 0.47515 0.36688 0.58417 0.0
C2135 C 0.47125 0.35455 0.56489 0.0
H2136 H 0.4987 0.37562 0.60897 0.0
C2137 C 0.48924 0.34783 0.55196 0.0
H2138 H 0.46147 0.37228 0.59436 0.0
C2139 C 0.51071 0.34999 0.56027 0.0
C2140 C 0.51408 0.35862 0.58159 0.0
H2141 H 0.48662 0.33814 0.53715 0.0
H2142 H 0.52413 0.34217 0.55141 0.0
C2143 C 0.49644 0.36867 0.59263 0.0
C2144 C 0.04275 0.41766 0.25613 0.0
C2145 C 0.04876 0.40623 0.23684 0.0
H2146 H 0.05156 0.42577 0.28948 0.0
C2147 C 0.06557 0.39029 0.2381 0.0
H2148 H 0.02998 0.43015 0.25565 0.0
C2149 C 0.07808 0.38799 0.25729 0.0
C2150 C 0.07395 0.40148 0.27571 0.0
H2151 H 0.07054 0.38117 0.22351 0.0
H2152 H 0.09213 0.37693 0.25704 0.0
C2153 C 0.05527 0.41528 0.27548 0.0
C2154 C 0.37479 0.41014 0.02217 0.0
C2155 C 0.36061 0.42823 0.02509 0.0
H2156 H 0.38602 0.38476 0.00038 0.0
C2157 C 0.35079 0.43786 0.00642 0.0
H2158 H 0.38254 0.40241 0.03632 0.0
C2159 C 0.35247 0.4275 0.98575 0.0
C2160 C 0.36408 0.40749 0.98358 0.0
H2161 H 0.33956 0.45165 0.00825 0.0
H2162 H 0.34279 0.4339 0.97215 0.0
C2163 C 0.37658 0.3999 0.00158 0.0
C2164 C 0.31521 0.61805 0.75369 0.0
C2165 C 0.33768 0.62288 0.75031 0.0
H2166 H 0.29085 0.60684 0.77688 0.0
C2167 C 0.3511 0.62684 0.76874 0.0
H2168 H 0.30443 0.615 0.73974 0.0
C2169 C 0.34322 0.62249 0.78996 0.0
C2170 C 0.32191 0.61382 0.79304 0.0
H2171 H 0.36838 0.63091 0.76664 0.0
H2172 H 0.35471 0.62326 0.80365 0.0
C2173 C 0.30735 0.61344 0.77501 0.0
C2174 C 0.13756 0.60101 0.51845 0.0
C2175 C 0.1444 0.61951 0.53077 0.0
H2176 H 0.1316 0.58807 0.48617 0.0
C2177 C 0.14281 0.64053 0.52119 0.0
H2178 H 0.13785 0.58461 0.52558 0.0
C2179 C 0.13894 0.64252 0.49856 0.0
C2180 C 0.13688 0.62348 0.48542 0.0
H2181 H 0.14726 0.65517 0.53045 0.0
H2182 H 0.14057 0.65867 0.49103 0.0
C2183 C 0.13383 0.60299 0.4958 0.0
C2184 C 0.12659 0.60651 0.26338 0.0
C2185 C 0.14363 0.59581 0.27497 0.0
H2186 H 0.11245 0.61304 0.23169 0.0
C2187 C 0.16299 0.59012 0.26361 0.0
H2188 H 0.11171 0.61173 0.2718 0.0
C2189 C 0.16356 0.59133 0.24056 0.0
C2190 C 0.14467 0.59795 0.22876 0.0
H2191 H 0.17656 0.58223 0.27214 0.0
H2192 H 0.17764 0.58433 0.23205 0.0
C2193 C 0.127 0.60735 0.24036 0.0
C2194 C 0.15631 0.33134 0.00102 0.0
C2195 C 0.14897 0.35005 0.01273 0.0
H2196 H 0.16832 0.31909 0.97012 0.0
C2197 C 0.14082 0.36814 0.00078 0.0
H2198 H 0.16213 0.31684 0.00972 0.0
C2199 C 0.14425 0.36934 0.97801 0.0
C2200 C 0.15587 0.35247 0.96706 0.0
H2201 H 0.13445 0.38256 0.00924 0.0
H2202 H 0.14034 0.38464 0.96959 0.0
C2203 C 0.15982 0.33257 0.97823 0.0
C2204 C 0.31137 0.39715 0.7627 0.0
C2205 C 0.33336 0.38989 0.76449 0.0
H2206 H 0.28686 0.41074 0.74102 0.0
C2207 C 0.3448 0.38388 0.74531 0.0
H2208 H 0.30219 0.40192 0.7773 0.0
C2209 C 0.33583 0.3885 0.72464 0.0
C2210 C 0.31551 0.39954 0.72294 0.0
H2211 H 0.36168 0.37809 0.74628 0.0
H2212 H 0.34611 0.38622 0.71015 0.0
C2213 C 0.30249 0.40212 0.74191 0.0
C2214 C 0.36944 0.59195 0.49045 0.0
C2215 C 0.35938 0.58313 0.50941 0.0
H2216 H 0.37252 0.59017 0.4553 0.0
C2217 C 0.34956 0.56209 0.50803 0.0
H2218 H 0.37749 0.60792 0.49101 0.0
C2219 C 0.3469 0.55176 0.48744 0.0
C2220 C 0.354 0.56239 0.46807 0.0
H2221 H 0.34182 0.55474 0.52238 0.0
H2222 H 0.33689 0.53697 0.48647 0.0
C2223 C 0.36676 0.58167 0.46997 0.0
C2224 C 0.234 0.13555 0.36732 0.0
C2225 C 0.22444 0.14904 0.3835 0.0
H2226 H 0.26409 0.12341 0.35359 0.0
C2227 C 0.23733 0.16538 0.39371 0.0
H2228 H 0.22432 0.12284 0.35927 0.0
C2229 C 0.26023 0.16546 0.39073 0.0
C2230 C 0.27017 0.14941 0.37729 0.0
H2231 H 0.23026 0.17586 0.40639 0.0
H2232 H 0.27023 0.17567 0.40148 0.0
C2233 C 0.25676 0.13607 0.36391 0.0
C2234 C 0.73928 0.34013 0.60706 0.0
C2235 C 0.75168 0.35813 0.61495 0.0
H2236 H 0.70715 0.32875 0.59792 0.0
C2237 C 0.74093 0.37487 0.62678 0.0
H2238 H 0.74717 0.32676 0.59817 0.0
C2239 C 0.71796 0.37577 0.62696 0.0
C2240 C 0.70566 0.3602 0.61493 0.0
H2241 H 0.75014 0.38864 0.63351 0.0
H2242 H 0.71007 0.39029 0.63383 0.0
C2243 C 0.71625 0.3412 0.60697 0.0
C2244 C 0.40023 0.01354 0.36616 0.0
C2245 C 0.40373 0.9927 0.35658 0.0
H2246 H 0.4101 0.04741 0.3675 0.0
C2247 C 0.42315 0.98922 0.34434 0.0
H2248 H 0.38557 0.01667 0.37591 0.0
C2249 C 0.43716 0.00692 0.33928 0.0
C2250 C 0.43214 0.02839 0.34658 0.0
H2251 H 0.42648 0.9733 0.33689 0.0
H2252 H 0.4508 0.00411 0.32806 0.0
C2253 C 0.41441 0.03117 0.36138 0.0
C2254 C 0.72692 0.68148 0.09591 0.0
C2255 C 0.71052 0.66542 0.09925 0.0
H2256 H 0.76163 0.68784 0.0934 0.0
C2257 C 0.71665 0.64488 0.10816 0.0
H2258 H 0.7227 0.69741 0.08895 0.0
C2259 C 0.73887 0.63934 0.1106 0.0
C2260 C 0.7554 0.65426 0.10421 0.0
H2261 H 0.70434 0.63224 0.1111 0.0
H2262 H 0.74305 0.62263 0.11541 0.0
C2263 C 0.74927 0.67593 0.09841 0.0
C2264 C 0.69636 0.4793 0.33839 0.0
C2265 C 0.69045 0.49519 0.35422 0.0
H2266 H 0.68797 0.44821 0.32359 0.0
C2267 C 0.67591 0.48914 0.37125 0.0
H2268 H 0.7073 0.48364 0.32491 0.0
C2269 C 0.66457 0.4691 0.37031 0.0
C2270 C 0.66782 0.45469 0.35245 0.0
H2271 H 0.67107 0.50114 0.38363 0.0
H2272 H 0.65155 0.46602 0.38219 0.0
C2273 C 0.68511 0.45904 0.33754 0.0
C2274 C 0.24196 0.79268 0.89933 0.0
C2275 C 0.22282 0.80502 0.89514 0.0
H2276 H 0.27728 0.79326 0.90058 0.0
C2277 C 0.22458 0.82443 0.88249 0.0
H2278 H 0.24111 0.77767 0.90903 0.0
C2279 C 0.24522 0.83364 0.87817 0.0
C2280 C 0.26436 0.82322 0.88587 0.0
H2281 H 0.21003 0.83413 0.87878 0.0
H2282 H 0.24606 0.85005 0.87107 0.0
C2283 C 0.26273 0.80174 0.89461 0.0
C2284 C 0.29794 0.03399 0.18434 0.0
C2285 C 0.3039 0.05536 0.17743 0.0
H2286 H 0.30714 -6e-05 0.18614 0.0
C2287 C 0.32128 0.05754 0.16212 0.0
H2288 H 0.28439 0.03156 0.19577 0.0
C2289 C 0.3346 0.03938 0.15687 0.0
C2290 C 0.33047 0.01865 0.16643 0.0
H2291 H 0.32612 0.07367 0.15606 0.0
H2292 H 0.3491 0.04197 0.14673 0.0
C2293 C 0.31109 0.01581 0.17888 0.0
C2294 C 0.05758 0.96951 0.65106 0.0
C2295 C 0.07725 0.96381 0.64009 0.0
H2296 H 0.0364 0.99615 0.66088 0.0
C2297 C 0.08632 0.97862 0.62483 0.0
H2298 H 0.05027 0.9583 0.66294 0.0
C2299 C 0.07788 -3e-05 0.62308 0.0
C2300 C 0.06082 0.00697 0.63717 0.0
H2301 H 0.10134 0.9745 0.61604 0.0
H2302 H 0.08691 0.01191 0.61327 0.0
C2303 C 0.04943 0.99114 0.64969 0.0
C2304 C 0.98339 0.23627 0.36263 0.0
C2305 C 0.966 0.22988 0.38404 0.0
H2306 H 0.03037 0.2679 0.36823 0.0
C2307 C 0.9711 0.23867 0.41021 0.0
H2308 H 0.97894 0.23032 0.34615 0.0
C2309 C 0.9926 0.25438 0.41943 0.0
C2310 C 0.01399 0.26495 0.40459 0.0
H2311 H 0.95904 0.23409 0.42257 0.0
H2312 H 0.99247 0.25806 0.43691 0.0
C2313 C 0.01627 0.26051 0.37677 0.0
C2314 C 0.01073 0.72284 0.61397 0.0
C2315 C 0.01469 0.71689 0.64137 0.0
H2316 H 0.98333 0.76922 0.59514 0.0
C2317 C 0.0052 0.73401 0.66155 0.0
H2318 H 0.01728 0.71114 0.60185 0.0
C2319 C 0.99112 0.75809 0.65884 0.0
C2320 C 0.98309 0.77105 0.6353 0.0
H2321 H 0.00832 0.72909 0.67844 0.0
H2322 H 0.98689 0.76611 0.67424 0.0
C2323 C 0.98888 0.76004 0.60968 0.0
C2324 C 0.50858 0.75363 0.92132 0.0
C2325 C 0.52365 0.76566 0.90094 0.0
H2326 H 0.47958 0.73145 0.93463 0.0
C2327 C 0.5173 0.76172 0.8736 0.0
H2328 H 0.51354 0.75688 0.93816 0.0
C2329 C 0.48278 0.73562 0.86998 0.0
C2330 C 0.47361 0.728 0.89586 0.0
H2331 H 0.52761 0.77002 0.8613 0.0
H2332 H 0.47371 0.72944 0.85564 0.0
C2333 C 0.48641 0.73691 0.91905 0.0
C2334 C 0.50766 0.2488 0.16502 0.0
C2335 C 0.49037 0.25722 0.1444 0.0
H2336 H 0.53764 0.22689 0.17868 0.0
C2337 C 0.49284 0.24694 0.11818 0.0
H2338 H 0.50504 0.25624 0.18105 0.0
C2339 C 0.52509 0.21857 0.1158 0.0
C2340 C 0.53761 0.21553 0.14086 0.0
H2341 H 0.48131 0.25311 0.1057 0.0
H2342 H 0.53141 0.20863 0.10207 0.0
C2343 C 0.52886 0.22999 0.16345 0.0
C2344 C 0.01701 0.74047 0.12488 0.0
C2345 C 0.02076 0.73477 0.0974 0.0
H2346 H 0.97211 0.76878 0.14576 0.0
C2347 C 0.00205 0.74299 0.07812 0.0
H2348 H 0.02963 0.73461 0.13639 0.0
C2349 C 0.97815 0.75718 0.08195 0.0
C2350 C 0.96709 0.76663 0.10595 0.0
H2351 H 0.00557 0.73868 0.06115 0.0
H2352 H 0.96881 0.76038 0.06707 0.0
C2353 C 0.98017 0.76246 0.13087 0.0
C2354 C 0.48439 0.75026 0.33502 0.0
C2355 C 0.47307 0.73776 0.35728 0.0
H2356 H 0.50689 0.77712 0.31789 0.0
C2357 C 0.47867 0.74662 0.38365 0.0
H2358 H 0.48004 0.74349 0.31907 0.0
C2359 C 0.50605 0.7802 0.38252 0.0
C2360 C 0.51261 0.78657 0.35564 0.0
H2361 H 0.47093 0.7377 0.39734 0.0
H2362 H 0.5134 0.79031 0.39557 0.0
C2363 C 0.50198 0.77198 0.33428 0.0
C2364 C 0.48331 0.25592 0.57431 0.0
C2365 C 0.46985 0.26581 0.59701 0.0
H2366 H 0.51121 0.23493 0.55677 0.0
C2367 C 0.47821 0.25892 0.62326 0.0
H2368 H 0.4771 0.26099 0.55836 0.0
C2369 C 0.51259 0.23253 0.62164 0.0
C2370 C 0.5199 0.22748 0.59466 0.0
H2371 H 0.4689 0.26587 0.63711 0.0
H2372 H 0.52248 0.22474 0.63459 0.0
C2373 C 0.50557 0.23884 0.57327 0.0
C2374 C 0.01179 0.26948 0.88516 0.0
C2375 C 0.01647 0.27646 0.85811 0.0
H2376 H 0.98397 0.22241 0.90162 0.0
C2377 C 0.00744 0.26011 0.83708 0.0
H2378 H 0.0181 0.28068 0.89786 0.0
C2379 C 0.99327 0.23591 0.83856 0.0
C2380 C 0.98465 0.22207 0.86142 0.0
H2381 H 0.01107 0.26564 0.82048 0.0
H2382 H 0.98939 0.22846 0.8228 0.0
C2383 C 0.98986 0.23213 0.88756 0.0
C2384 C 0.44671 0.04658 0.21833 0.0
C2385 C 0.4543 0.03756 0.23825 0.0
H2386 H 0.43003 0.0402 0.1878 0.0
C2387 C 0.45557 0.01458 0.24063 0.0
H2388 H 0.44536 0.0643 0.21638 0.0
C2389 C 0.44731 0.00076 0.22413 0.0
C2390 C 0.43696 0.00988 0.20548 0.0
H2391 H 0.46105 0.00739 0.25607 0.0
H2392 H 0.44678 0.98314 0.22717 0.0
C2393 C 0.43783 0.03281 0.2021 0.0
C2394 C 0.26384 0.09979 0.47929 0.0
C2395 C 0.27973 0.1186 0.46525 0.0
H2396 H 0.22568 0.11392 0.51928 0.0
C2397 C 0.27785 0.14624 0.47054 0.0
H2398 H 0.26569 0.08235 0.4749 0.0
C2399 C 0.26117 0.1594 0.48899 0.0
C2400 C 0.24239 0.1481 0.50658 0.0
H2401 H 0.28822 0.15705 0.4608 0.0
H2402 H 0.26261 0.1772 0.4892 0.0
C2403 C 0.23817 0.12005 0.50773 0.0
C2404 C 0.12595 0.98384 0.76103 0.0
C2405 C 0.09916 0.97791 0.76822 0.0
H2406 H 0.14058 0.02176 0.72097 0.0
C2407 C 0.07753 0.99079 0.75566 0.0
H2408 H 0.13905 0.975 0.76976 0.0
C2409 C 0.07817 0.01026 0.73537 0.0
C2410 C 0.1006 0.0216 0.72271 0.0
H2411 H 0.06117 0.98617 0.76111 0.0
H2412 H 0.06217 0.01596 0.72994 0.0
C2413 C 0.12693 0.01388 0.7298 0.0
C2414 C 0.25182 0.81986 0.99807 0.0
C2415 C 0.23463 0.83957 0.98764 0.0
H2416 H 0.28435 0.80842 0.01681 0.0
C2417 C 0.24061 0.86716 0.99014 0.0
H2418 H 0.24689 0.80286 0.99569 0.0
C2419 C 0.278 0.87271 0.01114 0.0
C2420 C 0.28916 0.84765 0.01825 0.0
H2421 H 0.22892 0.8789 0.98295 0.0
H2422 H 0.28718 0.88755 0.0158 0.0
C2423 C 0.27619 0.82347 0.01178 0.0
C2424 C 0.2789 0.36188 0.02384 0.0
C2425 C 0.28243 0.38949 0.02898 0.0
H2426 H 0.24749 0.34129 0.9808 0.0
C2427 C 0.27053 0.409 0.01268 0.0
H2428 H 0.28699 0.3502 0.03501 0.0
C2429 C 0.25415 0.40539 0.99025 0.0
C2430 C 0.24564 0.3814 0.9785 0.0
H2431 H 0.27347 0.42606 0.01709 0.0
H2432 H 0.24853 0.42049 0.98256 0.0
C2433 C 0.25346 0.35616 0.98914 0.0
C2434 C 0.74074 0.07771 0.02207 0.0
C2435 C 0.72941 0.10074 0.03337 0.0
H2436 H 0.76059 0.05886 0.99383 0.0
C2437 C 0.73116 0.12582 0.02041 0.0
H2438 H 0.73899 0.06265 0.03151 0.0
C2439 C 0.75289 0.12217 0.98324 0.0
C2440 C 0.76104 0.09541 0.9791 0.0
H2441 H 0.72367 0.14002 0.02871 0.0
H2442 H 0.7574 0.13428 0.97059 0.0
C2443 C 0.75488 0.07531 0.99777 0.0
C2444 C 0.11665 0.508 0.23367 0.0
C2445 C 0.1433 0.51137 0.22481 0.0
H2446 H 0.10026 0.46799 0.27075 0.0
C2447 C 0.16392 0.495 0.23426 0.0
H2448 H 0.10408 0.5189 0.22665 0.0
C2449 C 0.16233 0.47375 0.2526 0.0
C2450 C 0.1397 0.46384 0.2658 0.0
H2451 H 0.18013 0.49809 0.22745 0.0
H2452 H 0.17777 0.46557 0.25618 0.0
C2453 C 0.11417 0.47521 0.26175 0.0
C2454 C 0.7532 0.85836 0.5211 0.0
C2455 C 0.76105 0.88493 0.52692 0.0
H2456 H 0.72587 0.84295 0.47339 0.0
C2457 C 0.75566 0.90596 0.50901 0.0
H2458 H 0.75725 0.84562 0.53325 0.0
C2459 C 0.74265 0.9049 0.48418 0.0
C2460 C 0.73183 0.88261 0.47108 0.0
H2461 H 0.76119 0.92225 0.51379 0.0
H2462 H 0.74132 0.92054 0.47566 0.0
C2463 C 0.73301 0.85667 0.48274 0.0
C2464 C 0.8849 0.97569 0.23671 0.0
C2465 C 0.85821 0.96926 0.22957 0.0
H2466 H 0.8985 0.00903 0.28108 0.0
C2467 C 0.83656 0.97893 0.24426 0.0
H2468 H 0.89817 0.96906 0.22641 0.0
C2469 C 0.83669 0.99543 0.26675 0.0
C2470 C 0.8585 0.00641 0.28023 0.0
H2471 H 0.82035 0.97416 0.23852 0.0
H2472 H 0.82055 -0.00066 0.27329 0.0
C2473 C 0.8851 0.0015 0.2716 0.0
C2474 C 0.2612 0.57686 0.48489 0.0
C2475 C 0.27223 0.59687 0.46861 0.0
H2476 H 0.24015 0.56433 0.51521 0.0
C2477 C 0.26815 0.62431 0.47422 0.0
H2478 H 0.26443 0.55995 0.48015 0.0
C2479 C 0.24335 0.62888 0.50963 0.0
C2480 C 0.23638 0.60326 0.52005 0.0
H2481 H 0.27569 0.63634 0.46303 0.0
H2482 H 0.23716 0.64347 0.5183 0.0
C2483 C 0.24525 0.57971 0.50771 0.0
C2484 C 0.37199 0.51807 0.77283 0.0
C2485 C 0.34555 0.52345 0.78152 0.0
H2486 H 0.38468 0.4882 0.72584 0.0
C2487 C 0.32329 0.51425 0.767 0.0
H2488 H 0.38552 0.52446 0.78294 0.0
C2489 C 0.32293 0.49919 0.74326 0.0
C2490 C 0.34474 0.4897 0.72818 0.0
H2491 H 0.30721 0.51826 0.77361 0.0
H2492 H 0.30663 0.49526 0.73717 0.0
C2493 C 0.37145 0.49484 0.7362 0.0
C2494 C 0.01781 0.7541 0.62968 0.0
C2495 C 0.02727 0.75664 0.60312 0.0
H2496 H 0.96977 0.72719 0.64412 0.0
C2497 C 0.01301 0.74571 0.58152 0.0
H2498 H 0.02773 0.76157 0.64282 0.0
C2499 C 0.98872 0.73135 0.58208 0.0
C2500 C 0.97297 0.72464 0.60437 0.0
H2501 H 0.02008 0.74821 0.5653 0.0
H2502 H 0.98282 0.72557 0.56625 0.0
C2503 C 0.98053 0.73229 0.63051 0.0
C2504 C 0.00453 0.22973 0.39059 0.0
C2505 C 0.0197 0.22279 0.36757 0.0
H2506 H 0.97011 0.27511 0.39326 0.0
C2507 C 0.01847 0.23807 0.34406 0.0
H2508 H 0.00629 0.21937 0.4053 0.0
C2509 C 0.00345 0.26129 0.33916 0.0
C2510 C 0.98603 0.27475 0.35662 0.0
H2511 H 0.02877 0.23266 0.3305 0.0
H2512 H 0.00524 0.26817 0.32277 0.0
C2513 C 0.98151 0.26561 0.38296 0.0
C2514 C 0.49878 0.21927 0.13997 0.0
C2515 C 0.4875 0.20822 0.11642 0.0
H2516 H 0.5366 0.26197 0.14025 0.0
C2517 C 0.49424 0.21818 0.0909 0.0
H2518 H 0.49382 0.21202 0.15577 0.0
C2519 C 0.51209 0.23901 0.0844 0.0
C2520 C 0.52745 0.25495 0.10184 0.0
H2521 H 0.48656 0.21019 0.07691 0.0
H2522 H 0.5139 0.24224 0.06692 0.0
C2523 C 0.52621 0.25132 0.13 0.0
C2524 C 0.49316 0.76197 0.842 0.0
C2525 C 0.48148 0.77431 0.86432 0.0
H2526 H 0.51594 0.73481 0.82512 0.0
C2527 C 0.48603 0.76465 0.89052 0.0
H2528 H 0.48926 0.76906 0.82608 0.0
C2529 C 0.51211 0.73014 0.88945 0.0
C2530 C 0.51952 0.72425 0.8628 0.0
H2531 H 0.47794 0.77329 0.90418 0.0
H2532 H 0.51894 0.71969 0.90252 0.0
C2533 C 0.51018 0.73962 0.84134 0.0
C2534 C 0.01925 0.23882 0.86844 0.0
C2535 C 0.0281 0.23535 0.8951 0.0
H2536 H 0.9716 0.26625 0.85393 0.0
C2537 C 0.0133 0.24542 0.91677 0.0
H2538 H 0.02953 0.23191 0.85527 0.0
C2539 C 0.98902 0.25975 0.91621 0.0
C2540 C 0.9738 0.26729 0.89385 0.0
H2541 H 0.02003 0.24241 0.93304 0.0
H2542 H 0.98275 0.26493 0.93212 0.0
C2543 C 0.98201 0.26063 0.86759 0.0
C2544 C 0.50466 0.25593 0.65273 0.0
C2545 C 0.51478 0.27047 0.6308 0.0
H2546 H 0.4828 0.22686 0.66829 0.0
C2547 C 0.50812 0.26345 0.60431 0.0
H2548 H 0.50985 0.26142 0.66892 0.0
C2549 C 0.48195 0.22927 0.60368 0.0
C2550 C 0.47633 0.22043 0.62989 0.0
H2551 H 0.51528 0.27338 0.59099 0.0
H2552 H 0.47426 0.22025 0.59002 0.0
C2553 C 0.48734 0.23346 0.65233 0.0
C2554 C 0.47584 0.77626 0.36401 0.0
C2555 C 0.46789 0.78368 0.39033 0.0
H2556 H 0.51902 0.74046 0.35296 0.0
C2557 C 0.48109 0.77361 0.41282 0.0
H2558 H 0.46674 0.78337 0.35013 0.0
C2559 C 0.50268 0.75599 0.41394 0.0
C2560 C 0.51653 0.74387 0.39285 0.0
H2561 H 0.47515 0.77911 0.42874 0.0
H2562 H 0.50799 0.75189 0.43049 0.0
C2563 C 0.50949 0.74886 0.36582 0.0
C2564 C 0.01091 0.76439 0.15598 0.0
C2565 C 0.0157 0.7788 0.13231 0.0
H2566 H 0.99579 0.734 0.17593 0.0
C2567 C 0.00604 0.7696 0.10735 0.0
H2568 H 0.01788 0.77125 0.17092 0.0
C2569 C 0.98468 0.73232 0.11224 0.0
C2570 C 0.98441 0.72448 0.13943 0.0
H2571 H 0.00996 0.7795 0.09274 0.0
H2572 H 0.97631 0.72155 0.10038 0.0
C2573 C 0.99689 0.7401 0.15917 0.0
C2574 C 0.64437 0.98005 0.73872 0.0
C2575 C 0.61816 0.97201 0.73221 0.0
H2576 H 0.65725 0.02632 0.769 0.0
C2577 C 0.59587 0.98703 0.74057 0.0
H2578 H 0.65795 0.96977 0.73267 0.0
C2579 C 0.59557 0.01092 0.75586 0.0
C2580 C 0.61751 0.02527 0.76609 0.0
H2581 H 0.57991 0.98084 0.73553 0.0
H2582 H 0.57944 0.01766 0.75941 0.0
C2583 C 0.64393 0.0164 0.76187 0.0
C2584 C 0.72706 0.83003 0.51169 0.0
C2585 C 0.71454 0.85457 0.51723 0.0
H2586 H 0.75635 0.80836 0.49686 0.0
C2587 C 0.72646 0.8791 0.50973 0.0
H2588 H 0.71849 0.81539 0.51726 0.0
C2589 C 0.76431 0.87214 0.49007 0.0
C2590 C 0.76972 0.84443 0.48842 0.0
H2591 H 0.71766 0.89428 0.51403 0.0
H2592 H 0.77653 0.88345 0.48302 0.0
C2593 C 0.75173 0.8255 0.49878 0.0
C2594 C 0.9147 0.00072 0.245 0.0
C2595 C 0.89225 0.01411 0.23512 0.0
H2596 H 0.9323 0.97289 0.26574 0.0
C2597 C 0.86602 0.00555 0.24176 0.0
H2598 H 0.9306 0.007 0.2399 0.0
C2599 C 0.86773 0.97059 0.26757 0.0
C2600 C 0.89476 0.96357 0.27269 0.0
H2601 H 0.85219 0.0148 0.23477 0.0
H2602 H 0.85485 0.96054 0.27527 0.0
C2603 C 0.91581 0.97827 0.26161 0.0
C2604 C 0.72652 0.15105 0.99005 0.0
C2605 C 0.71409 0.12637 0.98521 0.0
H2606 H 0.75493 0.17345 0.00462 0.0
C2607 C 0.72563 0.10201 0.9944 0.0
H2608 H 0.71827 0.16553 0.98367 0.0
C2609 C 0.76277 0.11007 0.01535 0.0
C2610 C 0.76802 0.13788 0.01574 0.0
H2611 H 0.71693 0.08663 0.99064 0.0
H2612 H 0.77472 0.09922 0.02344 0.0
C2613 C 0.7505 0.15618 0.00362 0.0
C2614 C 0.74087 0.59558 0.97779 0.0
C2615 C 0.72774 0.61763 0.96643 0.0
H2616 H 0.76365 0.57895 0.00526 0.0
C2617 C 0.72831 0.64297 0.97881 0.0
H2618 H 0.73974 0.58023 0.96873 0.0
C2619 C 0.75153 0.64164 0.01515 0.0
C2620 C 0.76171 0.61565 0.01946 0.0
H2621 H 0.71953 0.65645 0.97058 0.0
H2622 H 0.75599 0.65445 0.02711 0.0
C2623 C 0.75614 0.59471 0.00154 0.0
C2624 C 0.27169 0.85094 0.9835 0.0
C2625 C 0.27409 0.87679 0.97243 0.0
H2626 H 0.24571 0.83915 0.03262 0.0
C2627 C 0.26342 0.89934 0.98563 0.0
H2628 H 0.27903 0.83723 0.97426 0.0
C2629 C 0.24936 0.90015 0.01034 0.0
C2630 C 0.24296 0.87862 0.02745 0.0
H2631 H 0.26581 0.91507 0.9775 0.0
H2632 H 0.24373 0.91628 0.01554 0.0
C2633 C 0.2505 0.85219 0.02104 0.0
C2634 C 0.88937 0.50183 0.73086 0.0
C2635 C 0.86282 0.50359 0.72166 0.0
H2636 H 0.90564 0.47316 0.77704 0.0
C2637 C 0.84181 0.49069 0.73532 0.0
H2638 H 0.90202 0.51069 0.72147 0.0
C2639 C 0.8433 0.47485 0.75884 0.0
C2640 C 0.86613 0.46852 0.77406 0.0
H2641 H 0.82548 0.49295 0.72851 0.0
H2642 H 0.82783 0.46815 0.76471 0.0
C2643 C 0.89166 0.47789 0.76663 0.0
C2644 C 0.22947 0.08459 0.49211 0.0
C2645 C 0.22565 0.10558 0.47369 0.0
H2646 H 0.24896 0.06744 0.52194 0.0
C2647 C 0.24278 0.12796 0.47318 0.0
H2648 H 0.21769 0.0712 0.49139 0.0
C2649 C 0.27329 0.12444 0.50336 0.0
C2650 C 0.2703 0.10037 0.51786 0.0
H2651 H 0.23934 0.1409 0.46103 0.0
H2652 H 0.28697 0.13533 0.50794 0.0
C2653 C 0.24959 0.08223 0.51195 0.0
C2654 C 0.15683 0.00809 0.75519 0.0
C2655 C 0.13511 0.02136 0.76734 0.0
H2656 H 0.17194 0.98141 0.73011 0.0
C2657 C 0.10853 0.01501 0.76042 0.0
H2658 H 0.17308 0.01322 0.76043 0.0
C2659 C 0.10742 0.98396 0.73049 0.0
C2660 C 0.13347 0.97584 0.72342 0.0
H2661 H 0.09538 0.02421 0.76873 0.0
H2662 H 0.09364 0.97571 0.72222 0.0
C2663 C 0.15609 0.98759 0.73549 0.0
C2664 C 0.73663 0.40606 0.49067 0.0
C2665 C 0.75043 0.38435 0.47949 0.0
H2666 H 0.71131 0.42215 0.51548 0.0
C2667 C 0.74634 0.35794 0.48882 0.0
H2668 H 0.74016 0.42223 0.48395 0.0
C2669 C 0.71715 0.3578 0.52113 0.0
C2670 C 0.70809 0.38437 0.52615 0.0
H2671 H 0.75577 0.34471 0.48091 0.0
H2672 H 0.71018 0.34446 0.53112 0.0
C2673 C 0.71787 0.40606 0.51139 0.0
C2674 C 0.66072 0.50714 0.26619 0.0
C2675 C 0.64124 0.52086 0.28103 0.0
H2676 H 0.67234 0.48119 0.23955 0.0
C2677 C 0.61365 0.51605 0.277 0.0
H2678 H 0.67777 0.51098 0.26974 0.0
C2679 C 0.60805 0.48578 0.24622 0.0
C2680 C 0.63334 0.47696 0.23646 0.0
H2681 H 0.60197 0.5253 0.28722 0.0
H2682 H 0.59324 0.4781 0.23933 0.0
C2683 C 0.6572 0.48767 0.24643 0.0
C2684 C 0.91835 0.50584 0.7576 0.0
C2685 C 0.8941 0.51682 0.76666 0.0
H2686 H 0.93939 0.47902 0.73837 0.0
C2687 C 0.86923 0.5049 0.76022 0.0
H2688 H 0.93331 0.51415 0.76266 0.0
C2689 C 0.87532 0.4694 0.73603 0.0
C2690 C 0.90303 0.46526 0.73147 0.0
H2691 H 0.85431 0.51269 0.76679 0.0
H2692 H 0.86381 0.45748 0.72885 0.0
C2693 C 0.92233 0.48286 0.74191 0.0
C2694 C 0.72531 0.61944 0.00552 0.0
C2695 C 0.71251 0.64319 0.01459 0.0
H2696 H 0.77336 0.61924 0.97455 0.0
C2697 C 0.72319 0.66859 0.00868 0.0
H2698 H 0.71771 0.60364 0.00985 0.0
C2699 C 0.74618 0.67498 0.99414 0.0
C2700 C 0.76438 0.65764 0.98182 0.0
H2701 H 0.71438 0.68286 0.01479 0.0
H2702 H 0.74945 0.69247 0.99267 0.0
C2703 C 0.76106 0.62948 0.98294 0.0
C2704 C 0.62946 0.48414 0.27471 0.0
C2705 C 0.60347 0.4791 0.28454 0.0
H2706 H 0.64144 0.52284 0.2347 0.0
C2707 C 0.58128 0.49308 0.27479 0.0
H2708 H 0.64305 0.4745 0.28168 0.0
C2709 C 0.58061 0.5132 0.25516 0.0
C2710 C 0.60194 0.52403 0.24062 0.0
H2711 H 0.56548 0.48871 0.28186 0.0
H2712 H 0.5645 0.52006 0.25174 0.0
C2713 C 0.62844 0.51499 0.2445 0.0
C2714 C 0.72431 0.32611 0.49808 0.0
C2715 C 0.70951 0.34572 0.48472 0.0
H2716 H 0.75238 0.3146 0.52287 0.0
C2717 C 0.71418 0.3733 0.48911 0.0
H2718 H 0.72023 0.30915 0.49429 0.0
C2719 C 0.74589 0.37866 0.51792 0.0
C2720 C 0.75563 0.35354 0.52643 0.0
H2721 H 0.70406 0.38511 0.47992 0.0
H2722 H 0.75376 0.39343 0.52472 0.0
C2723 C 0.74495 0.32962 0.51671 0.0
C2724 C 0.62477 0.98686 0.7678 0.0
C2725 C 0.65091 0.9811 0.77721 0.0
H2726 H 0.61391 0.01693 0.72044 0.0
C2727 C 0.67367 0.99023 0.76338 0.0
H2728 H 0.61086 0.98042 0.77737 0.0
C2729 C 0.67492 0.00534 0.73973 0.0
C2730 C 0.65373 0.01507 0.72405 0.0
H2731 H 0.68954 0.98592 0.77028 0.0
H2732 H 0.69144 0.00914 0.73414 0.0
C2733 C 0.62673 0.01016 0.7312 0.0
C2734 C 0.12986 0.47506 0.22968 0.0
C2735 C 0.10211 0.47288 0.22463 0.0
H2736 H 0.15204 0.50824 0.27065 0.0
C2737 C 0.08335 0.48724 0.23978 0.0
H2738 H 0.14105 0.46533 0.21936 0.0
C2739 C 0.08783 0.50495 0.26093 0.0
C2740 C 0.11214 0.51274 0.27228 0.0
H2741 H 0.06616 0.48484 0.23572 0.0
H2742 H 0.07307 0.51191 0.26815 0.0
C2743 C 0.13692 0.5027 0.2625 0.0
C2744 C 0.27993 0.32913 0.00129 0.0
C2745 C 0.29219 0.351 0.98866 0.0
H2746 H 0.25262 0.31315 0.0247 0.0
C2747 C 0.28211 0.37726 0.99178 0.0
H2748 H 0.2873 0.31314 -0.00168 0.0
C2749 C 0.2473 0.37712 0.01737 0.0
C2750 C 0.24157 0.35086 0.02611 0.0
H2751 H 0.29075 0.3906 0.98316 0.0
H2752 H 0.23666 0.39042 0.02342 0.0
C2753 C 0.25729 0.32907 0.01808 0.0
C2754 C 0.3533 0.48834 0.76628 0.0
C2755 C 0.37963 0.47976 0.7714 0.0
H2756 H 0.33974 0.53492 0.73679 0.0
C2757 C 0.40178 0.49435 0.76181 0.0
H2758 H 0.33986 0.47833 0.77306 0.0
C2759 C 0.40173 0.51829 0.74648 0.0
C2760 C 0.37951 0.5331 0.73746 0.0
H2761 H 0.41786 0.48786 0.766 0.0
H2762 H 0.41776 0.52469 0.74198 0.0
C2763 C 0.35323 0.52475 0.7432 0.0
C2764 C 0.23707 0.60821 0.48122 0.0
C2765 C 0.23054 0.63447 0.47301 0.0
H2766 H 0.28167 0.59537 0.51415 0.0
C2767 C 0.24589 0.65649 0.48101 0.0
H2768 H 0.22666 0.59473 0.47519 0.0
C2769 C 0.26886 0.65677 0.49721 0.0
C2770 C 0.28198 0.63507 0.5092 0.0
H2771 H 0.24072 0.67239 0.47472 0.0
H2772 H 0.27595 0.6729 0.50013 0.0
C2773 C 0.27247 0.6086 0.50599 0.0
C2774 C 0.28984 0.03824 0.29722 0.0
C2775 C 0.30267 0.04095 0.27798 0.0
H2776 H 0.28497 0.01958 0.32714 0.0
C2777 C 0.3194 0.02564 0.27338 0.0
H2778 H 0.27678 0.04979 0.30115 0.0
C2779 C 0.32414 0.00884 0.28817 0.0
C2780 C 0.31217 0.00668 0.3079 0.0
H2781 H 0.32944 0.02699 0.25863 0.0
H2782 H 0.33756 0.99768 0.28425 0.0
C2783 C 0.29451 0.02107 0.31209 0.0
C2784 C 0.10476 0.30818 0.3373 0.0
C2785 C 0.11993 0.30118 0.35335 0.0
H2786 H 0.09539 0.33493 0.31622 0.0
C2787 C 0.1413 0.31027 0.35314 0.0
H2788 H 0.08834 0.30114 0.33664 0.0
C2789 C 0.14544 0.3296 0.34119 0.0
C2790 C 0.12823 0.33959 0.32942 0.0
H2791 H 0.15349 0.3048 0.36502 0.0
H2792 H 0.16086 0.33825 0.34383 0.0
C2793 C 0.10867 0.32775 0.3258 0.0
C2794 C 0.86687 0.85517 0.65105 0.0
C2795 C 0.88465 0.86997 0.65189 0.0
H2796 H 0.83322 0.85069 0.64145 0.0
C2797 C 0.88075 0.89266 0.65011 0.0
H2798 H 0.86968 0.83754 0.65227 0.0
C2799 C 0.85991 0.90024 0.64413 0.0
C2800 C 0.84304 0.88508 0.63929 0.0
H2801 H 0.89433 0.90428 0.65076 0.0
H2802 H 0.85788 0.91768 0.64071 0.0
C2803 C 0.84607 0.8627 0.64464 0.0
C2804 C 0.3872 0.58567 0.9031 0.0
C2805 C 0.36405 0.58556 0.90237 0.0
H2806 H 0.41569 0.60552 0.90914 0.0
C2807 C 0.35226 0.60106 0.91495 0.0
H2808 H 0.39674 0.57354 0.89406 0.0
C2809 C 0.36323 0.61919 0.92385 0.0
C2810 C 0.38584 0.62175 0.92002 0.0
H2811 H 0.3344 0.60089 0.9153 0.0
H2812 H 0.35355 0.63284 0.93019 0.0
C2813 C 0.39813 0.60383 0.91207 0.0
C2814 C 0.64316 0.12148 0.17728 0.0
C2815 C 0.62405 0.11417 0.16643 0.0
H2816 H 0.67805 0.118 0.17913 0.0
C2817 C 0.62353 0.09233 0.15853 0.0
H2818 H 0.64375 0.13775 0.18469 0.0
C2819 C 0.64345 0.08132 0.1548 0.0
C2820 C 0.66327 0.09279 0.15848 0.0
H2821 H 0.60868 0.08561 0.15119 0.0
H2822 H 0.64323 0.06677 0.14437 0.0
C2823 C 0.66288 0.10997 0.17413 0.0
C2824 C 0.13454 0.6592 0.12629 0.0
C2825 C 0.13007 0.6563 0.10369 0.0
H2826 H 0.14212 0.6432 0.15686 0.0
C2827 C 0.13605 0.63634 0.09346 0.0
H2828 H 0.13051 0.67453 0.13458 0.0
C2829 C 0.14323 0.61852 0.10627 0.0
C2830 C 0.14436 0.62062 0.12929 0.0
H2831 H 0.13306 0.63373 0.07601 0.0
H2832 H 0.14526 0.60252 0.09852 0.0
C2833 C 0.1414 0.64136 0.13906 0.0
C2834 C 0.61472 0.91339 0.3544 0.0
C2835 C 0.61059 0.89534 0.34038 0.0
H2836 H 0.63933 0.93016 0.3732 0.0
C2837 C 0.62769 0.88728 0.32707 0.0
H2838 H 0.60154 0.92058 0.36414 0.0
C2839 C 0.64937 0.89312 0.33206 0.0
C2840 C 0.65357 0.9064 0.35065 0.0
H2841 H 0.62483 0.87389 0.31555 0.0
H2842 H 0.66261 0.88379 0.32447 0.0
C2843 C 0.63642 0.91917 0.35938 0.0
C2844 C 0.3549 0.36083 0.6219 0.0
C2845 C 0.37174 0.36347 0.60627 0.0
H2846 H 0.33179 0.3769 0.64319 0.0
C2847 C 0.37751 0.38472 0.59902 0.0
H2848 H 0.35018 0.34454 0.62759 0.0
C2849 C 0.36745 0.40322 0.60834 0.0
C2850 C 0.35101 0.40059 0.62441 0.0
H2851 H 0.39056 0.38705 0.587 0.0
H2852 H 0.37284 0.41954 0.60337 0.0
C2853 C 0.34433 0.37928 0.63065 0.0
C2854 C 0.86603 0.08481 0.87051 0.0
C2855 C 0.84768 0.09718 0.86375 0.0
H2856 H 0.90118 0.0838 0.87279 0.0
C2857 C 0.85069 0.1145 0.84852 0.0
H2858 H 0.8642 0.07107 0.88182 0.0
C2859 C 0.87196 0.12158 0.84309 0.0
C2860 C 0.89021 0.11143 0.85299 0.0
H2861 H 0.83678 0.12406 0.84267 0.0
H2862 H 0.87393 0.1366 0.83357 0.0
C2863 C 0.88721 0.092 0.86524 0.0
C2864 C 0.35374 0.03441 0.33343 0.0
C2865 C 0.35566 0.04818 0.31483 0.0
H2866 H 0.34161 0.03178 0.36655 0.0
C2867 C 0.34006 0.06503 0.31181 0.0
H2868 H 0.36502 0.02079 0.33571 0.0
C2869 C 0.32675 0.07142 0.32946 0.0
C2870 C 0.32871 0.06068 0.34994 0.0
H2871 H 0.34055 0.0755 0.2973 0.0
H2872 H 0.31719 0.08646 0.32796 0.0
C2873 C 0.34032 0.04071 0.3511 0.0
C2874 C 0.15333 0.11218 0.59373 0.0
C2875 C 0.14633 0.1339 0.58974 0.0
H2876 H 0.14715 0.08204 0.61111 0.0
C2877 C 0.126 0.14112 0.59811 0.0
H2878 H 0.16891 0.10623 0.58729 0.0
C2879 C 0.11325 0.12703 0.61111 0.0
C2880 C 0.12107 0.10588 0.61635 0.0
H2881 H 0.12019 0.15774 0.59493 0.0
H2882 H 0.09796 0.13312 0.61812 0.0
C2883 C 0.14093 0.09836 0.60726 0.0
C2884 C 0.09917 0.87358 0.88356 0.0
C2885 C 0.10838 0.89394 0.8775 0.0
H2886 H 0.10266 0.84454 0.90351 0.0
C2887 C 0.12684 0.90204 0.88877 0.0
H2888 H 0.08492 0.86709 0.87494 0.0
C2889 C 0.13654 0.88955 0.90542 0.0
C2890 C 0.12831 0.86848 0.9105 0.0
H2891 H 0.13404 0.91782 0.88435 0.0
H2892 H 0.15121 0.89587 0.91344 0.0
C2893 C 0.1093 0.86072 0.89978 0.0
C2894 C 0.40821 0.90978 0.12038 0.0
C2895 C 0.39946 0.93104 0.11738 0.0
H2896 H 0.41016 0.87683 0.10774 0.0
C2897 C 0.3904 0.93676 0.09686 0.0
H2898 H 0.41549 0.90503 0.13601 0.0
C2899 C 0.38767 0.92074 0.08057 0.0
C2900 C 0.39356 0.8987 0.08477 0.0
H2901 H 0.38391 0.95318 0.09401 0.0
H2902 H 0.37905 0.92526 0.06556 0.0
C2903 C 0.40514 0.89363 0.10421 0.0
C2904 C 0.36141 0.34531 0.15471 0.0
C2905 C 0.38344 0.35214 0.1568 0.0
H2906 H 0.32915 0.35393 0.14359 0.0
C2907 C 0.38829 0.37484 0.15575 0.0
H2908 H 0.35708 0.328 0.15597 0.0
C2909 C 0.37231 0.38973 0.14832 0.0
C2910 C 0.35134 0.38201 0.1422 0.0
H2911 H 0.40505 0.38069 0.15773 0.0
H2912 H 0.37716 0.40662 0.14499 0.0
C2913 C 0.34543 0.36019 0.14746 0.0
C2914 C 0.82508 0.84193 0.11155 0.0
C2915 C 0.84308 0.84343 0.09694 0.0
H2916 H 0.80755 0.8595 0.13666 0.0
C2917 C 0.84723 0.86367 0.0866 0.0
H2918 H 0.82084 0.82616 0.1189 0.0
C2919 C 0.83897 0.88286 0.09635 0.0
C2920 C 0.82724 0.88124 0.11635 0.0
H2921 H 0.86038 0.86519 0.07457 0.0
H2922 H 0.84596 0.89855 0.09132 0.0
C2923 C 0.81734 0.8611 0.12176 0.0
C2924 C 0.11138 0.59474 0.60779 0.0
C2925 C 0.13098 0.59425 0.62003 0.0
H2926 H 0.07704 0.60277 0.60801 0.0
C2927 C 0.13018 0.59653 0.64303 0.0
H2928 H 0.1118 0.59327 0.58995 0.0
C2929 C 0.11035 0.60186 0.65343 0.0
C2930 C 0.09126 0.60553 0.6408 0.0
H2931 H 0.14524 0.59636 0.65265 0.0
H2932 H 0.1106 0.60547 0.67096 0.0
C2933 C 0.09155 0.60033 0.61814 0.0
C2934 C 0.83772 0.6347 0.61247 0.0
C2935 C 0.85557 0.63859 0.59818 0.0
H2936 H 0.82177 0.61101 0.63313 0.0
C2937 C 0.86482 0.62057 0.58684 0.0
H2938 H 0.82966 0.64831 0.62083 0.0
C2939 C 0.86053 0.59909 0.59415 0.0
C2940 C 0.84682 0.59573 0.61257 0.0
H2941 H 0.87808 0.62302 0.57509 0.0
H2942 H 0.87061 0.58576 0.58778 0.0
C2943 C 0.8332 0.6132 0.61954 0.0
C2944 C 0.11415 0.07341 0.38895 0.0
C2945 C 0.1332 0.0825 0.37935 0.0
H2946 H 0.08036 0.08082 0.39584 0.0
C2947 C 0.1308 0.0928 0.35869 0.0
H2948 H 0.11543 0.06324 0.40362 0.0
C2949 C 0.1107 0.10309 0.35406 0.0
C2950 C 0.09347 0.10129 0.36952 0.0
H2951 H 0.1452 0.09795 0.34941 0.0
H2952 H 0.11027 0.11551 0.34118 0.0
C2953 C 0.09401 0.08369 0.38463 0.0
C2954 C 0.64321 0.34668 0.11541 0.0
C2955 C 0.63012 0.35095 0.09682 0.0
H2956 H 0.65852 0.36052 0.14401 0.0
C2957 C 0.62797 0.37267 0.08911 0.0
H2958 H 0.64506 0.32997 0.12152 0.0
C2959 C 0.63507 0.39016 0.10233 0.0
C2960 C 0.6449 0.38585 0.12284 0.0
H2961 H 0.61788 0.37626 0.07479 0.0
H2962 H 0.63012 0.40681 0.09802 0.0
C2963 C 0.65104 0.36418 0.12817 0.0
C2964 C 0.3942 0.90659 0.86325 0.0
C2965 C 0.39716 0.8893 0.84809 0.0
H2966 H 0.37093 0.92232 0.8845 0.0
C2967 C 0.37922 0.88343 0.83457 0.0
H2968 H 0.40794 0.91239 0.87311 0.0
C2969 C 0.35783 0.88866 0.84149 0.0
C2970 C 0.35489 0.90006 0.8615 0.0
H2971 H 0.38113 0.87104 0.8218 0.0
H2972 H 0.34413 0.88015 0.83377 0.0
C2973 C 0.37284 0.91219 0.86987 0.0
C2974 C 0.83704 0.35218 0.89067 0.0
C2975 C 0.85503 0.35003 0.90514 0.0
H2976 H 0.82242 0.37319 0.86642 0.0
C2977 C 0.86305 0.36921 0.91548 0.0
H2978 H 0.82951 0.33765 0.88343 0.0
C2979 C 0.85892 0.38973 0.90574 0.0
C2980 C 0.8467 0.3906 0.88604 0.0
H2981 H 0.87602 0.36816 0.92774 0.0
H2982 H 0.86879 0.40371 0.91096 0.0
C2983 C 0.833 0.37263 0.88083 0.0
C2984 C 0.37194 0.11161 0.65344 0.0
C2985 C 0.3938 0.10814 0.64649 0.0
H2986 H 0.33821 0.1064 0.64487 0.0
C2987 C 0.39862 0.0884 0.63525 0.0
H2988 H 0.36776 0.12588 0.66341 0.0
C2989 C 0.38161 0.07736 0.62427 0.0
C2990 C 0.36013 0.08601 0.62522 0.0
H2991 H 0.41547 0.08431 0.6309 0.0
H2992 H 0.38596 0.06522 0.61186 0.0
C2993 C 0.3549 0.10037 0.64271 0.0
C2994 C 0.64334 0.64954 0.38965 0.0
C2995 C 0.62347 0.64497 0.40056 0.0
H2996 H 0.6703 0.63607 0.37113 0.0
C2997 C 0.61759 0.62305 0.40506 0.0
H2998 H 0.64787 0.66641 0.38578 0.0
C2999 C 0.62999 0.6058 0.39623 0.0
C3000 C 0.64858 0.61038 0.38324 0.0
H3001 H 0.60212 0.61929 0.41321 0.0
H3002 H 0.6239 0.58904 0.39779 0.0
C3003 C 0.65611 0.63222 0.38132 0.0
C3004 C 0.1139 0.90728 0.12429 0.0
C3005 C 0.10541 0.8908 0.13822 0.0
H3006 H 0.14289 0.92098 0.10972 0.0
C3007 C 0.11949 0.88124 0.15401 0.0
H3008 H 0.10332 0.91545 0.11241 0.0
C3009 C 0.1423 0.88407 0.15219 0.0
C3010 C 0.15103 0.89668 0.13478 0.0
H3011 H 0.11336 0.86892 0.16545 0.0
H3012 H 0.15298 0.8738 0.1622 0.0
C3013 C 0.13668 0.91047 0.1228 0.0
C3014 C 0.6042 0.84247 0.61629 0.0
C3015 C 0.59616 0.85655 0.59964 0.0
H3016 H 0.61158 0.83997 0.65071 0.0
C3017 C 0.58032 0.87244 0.60542 0.0
H3018 H 0.6157 0.82937 0.61233 0.0
C3019 C 0.57777 0.8784 0.62756 0.0
C3020 C 0.59126 0.86854 0.64368 0.0
H3021 H 0.57302 0.88289 0.59287 0.0
H3022 H 0.5685 0.89322 0.63134 0.0
C3023 C 0.60183 0.84858 0.63845 0.0
C3024 C 0.91017 0.84976 0.40888 0.0
C3025 C 0.89336 0.83381 0.40865 0.0
H3026 H 0.92852 0.87294 0.38955 0.0
C3027 C 0.88838 0.82323 0.38861 0.0
H3028 H 0.91427 0.85819 0.42413 0.0
C3029 C 0.89579 0.83233 0.36869 0.0
C3030 C 0.90913 0.85127 0.36886 0.0
H3031 H 0.87545 0.81088 0.38797 0.0
H3032 H 0.8885 0.82664 0.35337 0.0
C3033 C 0.91826 0.8583 0.38897 0.0
C3034 C 0.86712 0.1543 0.12177 0.0
C3035 C 0.87367 0.14867 0.10026 0.0
H3036 H 0.86743 0.14483 0.15592 0.0
C3037 C 0.88976 0.13235 0.09716 0.0
H3038 H 0.85436 0.16656 0.12442 0.0
C3039 C 0.89776 0.12044 0.11524 0.0
C3040 C 0.88917 0.12431 0.13643 0.0
H3041 H 0.89468 0.12752 0.08063 0.0
H3042 H 0.90866 0.10657 0.1123 0.0
C3043 C 0.87457 0.14193 0.13976 0.0
C3044 C 0.60032 0.14452 0.86689 0.0
C3045 C 0.58977 0.1253 0.85929 0.0
H3046 H 0.61318 0.16117 0.89517 0.0
C3047 C 0.57614 0.11364 0.87406 0.0
H3048 H 0.6103 0.15439 0.8558 0.0
C3049 C 0.57801 0.11735 0.89676 0.0
C3050 C 0.59329 0.13291 0.90461 0.0
H3051 H 0.56698 0.09929 0.86856 0.0
H3052 H 0.57041 0.10568 0.908 0.0
C3053 C 0.60193 0.14843 0.88961 0.0
C3054 C 0.62546 0.62107 0.82741 0.0
C3055 C 0.60819 0.61194 0.83993 0.0
H3056 H 0.66039 0.62491 0.82543 0.0
C3057 C 0.61213 0.59221 0.85147 0.0
H3058 H 0.62278 0.63567 0.81742 0.0
C3059 C 0.63383 0.58585 0.85582 0.0
C3060 C 0.65117 0.59982 0.84925 0.0
H3061 H 0.5989 0.58407 0.86035 0.0
H3062 H 0.63658 0.57311 0.86808 0.0
C3063 C 0.64717 0.61478 0.83195 0.0
C3064 C 0.16972 0.13822 0.85965 0.0
C3065 C 0.15918 0.11868 0.86647 0.0
H3066 H 0.17105 0.1732 0.86398 0.0
C3067 C 0.15083 0.11764 0.88813 0.0
H3068 H 0.17719 0.13938 0.84343 0.0
C3069 C 0.14795 0.13715 0.90023 0.0
C3070 C 0.15246 0.15754 0.89011 0.0
H3071 H 0.14338 0.1026 0.8943 0.0
H3072 H 0.13785 0.13647 0.91499 0.0
C3073 C 0.16655 0.15768 0.87167 0.0
C3074 C 0.87147 0.344 0.37557 0.0
C3075 C 0.88352 0.35713 0.36073 0.0
H3076 H 0.84562 0.34246 0.39939 0.0
C3077 C 0.87721 0.3792 0.35744 0.0
H3078 H 0.87574 0.32684 0.3783 0.0
C3079 C 0.85977 0.38823 0.36964 0.0
C3080 C 0.84845 0.37526 0.38525 0.0
H3081 H 0.88618 0.38966 0.34603 0.0
H3082 H 0.85564 0.40547 0.36737 0.0
C3083 C 0.85416 0.35295 0.38768 0.0
C3084 C 0.62545 0.89534 0.89893 0.0
C3085 C 0.64203 0.89135 0.88325 0.0
H3086 H 0.60268 0.88104 0.92191 0.0
C3087 C 0.64994 0.86981 0.88013 0.0
H3088 H 0.61925 0.91189 0.90164 0.0
C3089 C 0.64016 0.85222 0.89126 0.0
C3090 C 0.62288 0.85609 0.90615 0.0
H3091 H 0.66271 0.86639 0.86808 0.0
H3092 H 0.64549 0.83554 0.8876 0.0
C3093 C 0.61615 0.87779 0.91061 0.0
C3094 C 0.84073 0.12221 0.39099 0.0
C3095 C 0.83073 0.11345 0.37201 0.0
H3096 H 0.861 0.14819 0.4034 0.0
C3097 C 0.82443 0.12791 0.35505 0.0
H3098 H 0.84507 0.11147 0.40463 0.0
C3099 C 0.83403 0.14885 0.354 0.0
C3100 C 0.84925 0.15525 0.37029 0.0
H3101 H 0.81604 0.12169 0.34052 0.0
H3102 H 0.83227 0.15831 0.33892 0.0
C3103 C 0.85014 0.14321 0.39011 0.0
C3104 C 0.64071 0.14186 0.61422 0.0
C3105 C 0.62401 0.1372 0.59892 0.0
H3106 H 0.66466 0.12855 0.63646 0.0
C3107 C 0.6198 0.1153 0.5927 0.0
H3108 H 0.64422 0.15872 0.61908 0.0
C3109 C 0.63101 0.09809 0.60305 0.0
C3110 C 0.647 0.10272 0.61911 0.0
H3111 H 0.60692 0.11144 0.58092 0.0
H3112 H 0.62669 0.08119 0.59906 0.0
C3113 C 0.65242 0.12469 0.62401 0.0
C3114 C 0.12039 0.39393 0.89736 0.0
C3115 C 0.13933 0.3949 0.88414 0.0
H3116 H 0.08598 0.3863 0.89837 0.0
C3117 C 0.13733 0.39478 0.86111 0.0
H3118 H 0.12175 0.39386 0.91521 0.0
C3119 C 0.11692 0.3906 0.85142 0.0
C3120 C 0.09854 0.3859 0.86478 0.0
H3121 H 0.15187 0.39549 0.85073 0.0
H3122 H 0.11621 0.38844 0.83367 0.0
C3123 C 0.09998 0.38944 0.88769 0.0
C3124 C 0.3468 0.64592 0.3421 0.0
C3125 C 0.36849 0.63917 0.33798 0.0
H3126 H 0.31545 0.63668 0.35503 0.0
C3127 C 0.37347 0.61657 0.33731 0.0
H3128 H 0.34268 0.66333 0.34262 0.0
C3129 C 0.3581 0.60125 0.34515 0.0
C3130 C 0.33769 0.60863 0.35326 0.0
H3131 H 0.3902 0.61111 0.33417 0.0
H3132 H 0.36323 0.58427 0.34737 0.0
C3133 C 0.33135 0.63064 0.34954 0.0
C3134 C 0.85596 0.58792 0.88596 0.0
C3135 C 0.87823 0.59032 0.87996 0.0
H3136 H 0.82966 0.60007 0.90636 0.0
C3137 C 0.89216 0.60335 0.89315 0.0
H3138 H 0.84494 0.57772 0.87626 0.0
C3139 C 0.88342 0.61609 0.91014 0.0
C3140 C 0.86078 0.61554 0.91449 0.0
H3141 H 0.9095 0.60518 0.88923 0.0
H3142 H 0.89402 0.62773 0.91864 0.0
C3143 C 0.84727 0.60047 0.90329 0.0
C3144 C 0.59221 0.64804 0.11384 0.0
C3145 C 0.59672 0.633 0.09671 0.0
H3146 H 0.58386 0.6515 0.14797 0.0
C3147 C 0.58848 0.6114 0.09826 0.0
H3148 H 0.59768 0.66504 0.11283 0.0
C3149 C 0.57965 0.60393 0.11823 0.0
C3150 C 0.57988 0.61784 0.1368 0.0
H3151 H 0.59109 0.59964 0.08503 0.0
H3152 H 0.57635 0.58643 0.12002 0.0
C3153 C 0.58389 0.64043 0.1339 0.0
C3154 C 0.58912 0.35885 0.38976 0.0
C3155 C 0.59955 0.3674 0.37109 0.0
H3156 H 0.58939 0.33324 0.41385 0.0
C3157 C 0.61399 0.35406 0.3588 0.0
H3158 H 0.57744 0.36873 0.39902 0.0
C3159 C 0.62086 0.33382 0.36708 0.0
C3160 C 0.61381 0.32717 0.3881 0.0
H3161 H 0.62173 0.36032 0.34392 0.0
H3162 H 0.63437 0.3254 0.35891 0.0
C3163 C 0.59579 0.33834 0.39793 0.0
C3164 C 0.88959 0.35015 0.64223 0.0
C3165 C 0.88383 0.35934 0.66275 0.0
H3166 H 0.87792 0.34085 0.61022 0.0
C3167 C 0.86158 0.35969 0.66922 0.0
H3168 H 0.90667 0.34915 0.6371 0.0
C3169 C 0.84523 0.35521 0.65378 0.0
C3170 C 0.85109 0.34987 0.63206 0.0
H3171 H 0.85668 0.36606 0.68521 0.0
H3172 H 0.82817 0.35843 0.6581 0.0
C3173 C 0.87314 0.34524 0.6269 0.0
C3174 C 0.40812 0.09388 0.20386 0.0
C3175 C 0.39141 0.07988 0.19596 0.0
H3176 H 0.43438 0.11588 0.19518 0.0
C3177 C 0.3924 0.07253 0.17396 0.0
H3178 H 0.40803 0.09953 0.22084 0.0
C3179 C 0.40719 0.0822 0.1592 0.0
C3180 C 0.42149 0.09893 0.16639 0.0
H3181 H 0.38008 0.06129 0.16753 0.0
H3182 H 0.40607 0.07797 0.14184 0.0
C3183 C 0.42314 0.10337 0.18911 0.0
C3184 C 0.16379 0.83912 0.62235 0.0
C3185 C 0.14937 0.8374 0.60428 0.0
H3186 H 0.17403 0.85966 0.64915 0.0
C3187 C 0.1435 0.85689 0.59312 0.0
H3188 H 0.16936 0.82435 0.63077 0.0
C3189 C 0.14561 0.87721 0.60394 0.0
C3190 C 0.15444 0.87792 0.6254 0.0
H3191 H 0.13313 0.85616 0.57856 0.0
H3192 H 0.13723 0.89144 0.59708 0.0
C3193 C 0.16616 0.85942 0.63309 0.0
C3194 C 0.32053 0.88407 0.39009 0.0
C3195 C 0.32999 0.90423 0.39664 0.0
H3196 H 0.32564 0.8492 0.38866 0.0
C3197 C 0.34405 0.90436 0.4151 0.0
H3198 H 0.30882 0.88345 0.3766 0.0
C3199 C 0.35328 0.88451 0.42243 0.0
C3200 C 0.34865 0.86495 0.41089 0.0
H3201 H 0.3509 0.91971 0.42122 0.0
H3202 H 0.36715 0.8853 0.43368 0.0
C3203 C 0.33002 0.86431 0.39718 0.0
C3204 C 0.88042 0.60872 0.15436 0.0
C3205 C 0.89944 0.60412 0.14192 0.0
H3206 H 0.84533 0.61248 0.15299 0.0
C3207 C 0.89745 0.5903 0.12342 0.0
H3208 H 0.88151 0.61903 0.16896 0.0
C3209 C 0.87665 0.58627 0.11431 0.0
C3210 C 0.85787 0.59625 0.12367 0.0
H3211 H 0.91192 0.58615 0.11375 0.0
H3212 H 0.87585 0.57858 0.09818 0.0
C3213 C 0.85959 0.60523 0.14501 0.0
C3214 C 0.63127 0.3904 0.66103 0.0
C3215 C 0.62747 0.40565 0.64397 0.0
H3216 H 0.6173 0.36219 0.67699 0.0
C3217 C 0.60617 0.41449 0.6422 0.0
H3218 H 0.64787 0.38454 0.66414 0.0
C3219 C 0.58838 0.40176 0.64965 0.0
C3220 C 0.59268 0.38095 0.65906 0.0
H3221 H 0.60287 0.42763 0.63051 0.0
H3222 H 0.57204 0.40587 0.64373 0.0
C3223 C 0.61365 0.37738 0.66829 0.0
C3224 C 0.11588 0.33489 0.12168 0.0
C3225 C 0.1388 0.3345 0.12492 0.0
H3226 H 0.08513 0.34697 0.13385 0.0
C3227 C 0.14711 0.33793 0.14632 0.0
H3228 H 0.10896 0.33162 0.1055 0.0
C3229 C 0.13353 0.34724 0.16245 0.0
C3230 C 0.1116 0.35254 0.15728 0.0
H3231 H 0.16466 0.33708 0.14953 0.0
H3232 H 0.14099 0.35318 0.17758 0.0
C3233 C 0.1022 0.34374 0.13798 0.0
C3234 C 0.40339 0.34518 0.88085 0.0
C3235 C 0.40824 0.35772 0.89978 0.0
H3236 H 0.39638 0.3471 0.84627 0.0
C3237 C 0.42096 0.37693 0.89714 0.0
H3238 H 0.39443 0.32977 0.88235 0.0
C3239 C 0.42196 0.38706 0.87642 0.0
C3240 C 0.41079 0.37752 0.85844 0.0
H3241 H 0.42581 0.38646 0.91149 0.0
H3242 H 0.4281 0.40384 0.87545 0.0
C3243 C 0.40427 0.3553 0.86006 0.0
C3244 C 0.41537 0.62181 0.62736 0.0
C3245 C 0.40307 0.6337 0.6431 0.0
H3246 H 0.41903 0.61462 0.59296 0.0
C3247 C 0.39322 0.65365 0.63656 0.0
H3248 H 0.42396 0.60682 0.63197 0.0
C3249 C 0.39091 0.65843 0.61405 0.0
C3250 C 0.39798 0.64295 0.59823 0.0
H3251 H 0.38426 0.66366 0.64838 0.0
H3252 H 0.38 0.67181 0.60937 0.0
C3253 C 0.41275 0.6264 0.60489 0.0
C3254 C 0.13181 0.66045 0.36119 0.0
C3255 C 0.12365 0.65889 0.38285 0.0
H3256 H 0.13603 0.64139 0.3317 0.0
C3257 C 0.10273 0.64912 0.38551 0.0
H3258 H 0.14657 0.66995 0.35778 0.0
C3259 C 0.09664 0.63237 0.37079 0.0
C3260 C 0.11041 0.62789 0.35272 0.0
H3261 H 0.09456 0.64968 0.40143 0.0
H3262 H 0.08382 0.62086 0.37559 0.0
C3263 C 0.12597 0.64385 0.3463 0.0
loop_
_geom_bond_atom_site_label_1
_geom_bond_atom_site_label_2
_geom_bond_distance
_geom_bond_site_symmetry_2
_ccdc_geom_bond_type
C0 O1 1.306 . S
C0 O3 1.160 . S
O1 C0 1.306 . S
O1 Cd2 2.228 . S
Cd2 O1 2.228 . S
Cd2 O6 2.273 . S
Cd2 O10 2.277 . S
O3 C0 1.160 . S
O3 Cd4 2.203 . S
Cd4 O3 2.203 . S
Cd4 O6 2.411 . S
Cd4 O7 2.333 . S
Cd4 O8 2.352 . S
Cd4 O12 2.277 . S
Cd4 O13 2.356 . S
C5 O10 1.209 . S
C5 O12 1.226 . S
O6 Cd2 2.273 . S
O6 Cd4 2.411 . S
O6 C9 1.320 . S
O7 Cd4 2.333 . S
O7 C9 1.214 . S
O8 Cd4 2.352 . S
O8 C11 1.258 . S
C9 O6 1.320 . S
C9 O7 1.214 . S
O10 Cd2 2.277 . S
O10 C5 1.209 . S
C11 O8 1.258 . S
C11 O13 1.282 . S
O12 Cd4 2.277 . S
O12 C5 1.226 . S
O13 Cd4 2.356 . S
O13 C11 1.282 . S
C14 O15 1.306 . S
C14 O17 1.160 . S
O15 C14 1.306 . S
O15 Cd16 2.228 . S
Cd16 O15 2.228 . S
Cd16 O20 2.273 . S
Cd16 O24 2.277 . S
O17 C14 1.160 . S
O17 Cd18 2.203 . S
Cd18 O17 2.203 . S
Cd18 O20 2.411 . S
Cd18 O21 2.333 . S
Cd18 O22 2.352 . S
Cd18 O26 2.277 . S
Cd18 O27 2.356 . S
C19 O24 1.209 . S
C19 O26 1.226 . S
O20 Cd16 2.273 . S
O20 Cd18 2.411 . S
O20 C23 1.320 . S
O21 Cd18 2.333 . S
O21 C23 1.214 . S
O22 Cd18 2.352 . S
O22 C25 1.258 . S
C23 O20 1.320 . S
C23 O21 1.214 . S
O24 Cd16 2.277 . S
O24 C19 1.209 . S
C25 O22 1.258 . S
C25 O27 1.282 . S
O26 Cd18 2.277 . S
O26 C19 1.226 . S
O27 Cd18 2.356 . S
O27 C25 1.282 . S
C28 O29 1.306 . S
C28 O31 1.160 . S
O29 C28 1.306 . S
O29 Cd30 2.228 . S
Cd30 O29 2.228 . S
Cd30 O34 2.273 . S
Cd30 O38 2.277 . S
O31 C28 1.160 . S
O31 Cd32 2.203 . S
Cd32 O31 2.203 . S
Cd32 O34 2.411 . S
Cd32 O35 2.333 . S
Cd32 O36 2.352 . S
Cd32 O40 2.277 . S
Cd32 O41 2.356 . S
C33 O38 1.209 . S
C33 O40 1.226 . S
O34 Cd30 2.273 . S
O34 Cd32 2.411 . S
O34 C37 1.320 . S
O35 Cd32 2.333 . S
O35 C37 1.214 . S
O36 Cd32 2.352 . S
O36 C39 1.258 . S
C37 O34 1.320 . S
C37 O35 1.214 . S
O38 Cd30 2.277 . S
O38 C33 1.209 . S
C39 O36 1.258 . S
C39 O41 1.282 . S
O40 Cd32 2.277 . S
O40 C33 1.226 . S
O41 Cd32 2.356 . S
O41 C39 1.282 . S
C42 O43 1.306 . S
C42 O45 1.160 . S
O43 C42 1.306 . S
O43 Cd44 2.228 . S
Cd44 O43 2.228 . S
Cd44 O48 2.273 . S
Cd44 O52 2.277 . S
O45 C42 1.160 . S
O45 Cd46 2.203 . S
Cd46 O45 2.203 . S
Cd46 O48 2.411 . S
Cd46 O49 2.333 . S
Cd46 O50 2.352 . S
Cd46 O54 2.277 . S
Cd46 O55 2.356 . S
C47 O52 1.209 . S
C47 O54 1.226 . S
O48 Cd44 2.273 . S
O48 Cd46 2.411 . S
O48 C51 1.320 . S
O49 Cd46 2.333 . S
O49 C51 1.214 . S
O50 Cd46 2.352 . S
O50 C53 1.258 . S
C51 O48 1.320 . S
C51 O49 1.214 . S
O52 Cd44 2.277 . S
O52 C47 1.209 . S
C53 O50 1.258 . S
C53 O55 1.282 . S
O54 Cd46 2.277 . S
O54 C47 1.226 . S
O55 Cd46 2.356 . S
O55 C53 1.282 . S
C56 O57 1.306 . S
C56 O59 1.160 . S
O57 C56 1.306 . S
O57 Cd58 2.228 . S
Cd58 O57 2.228 . S
Cd58 O62 2.273 . S
Cd58 O66 2.277 . S
O59 C56 1.160 . S
O59 Cd60 2.203 . S
Cd60 O59 2.203 . S
Cd60 O62 2.411 . S
Cd60 O63 2.333 . S
Cd60 O64 2.352 . S
Cd60 O68 2.277 . S
Cd60 O69 2.356 . S
C61 O66 1.209 . S
C61 O68 1.226 . S
O62 Cd58 2.273 . S
O62 Cd60 2.411 . S
O62 C65 1.320 . S
O63 Cd60 2.333 . S
O63 C65 1.214 . S
O64 Cd60 2.352 . S
O64 C67 1.258 . S
C65 O62 1.320 . S
C65 O63 1.214 . S
O66 Cd58 2.277 . S
O66 C61 1.209 . S
C67 O64 1.258 . S
C67 O69 1.282 . S
O68 Cd60 2.277 . S
O68 C61 1.226 . S
O69 Cd60 2.356 . S
O69 C67 1.282 . S
C70 O71 1.306 . S
C70 O73 1.160 . S
O71 C70 1.306 . S
O71 Cd72 2.228 . S
Cd72 O71 2.228 . S
Cd72 O76 2.273 . S
Cd72 O80 2.277 . S
O73 C70 1.160 . S
O73 Cd74 2.203 . S
Cd74 O73 2.203 . S
Cd74 O76 2.411 . S
Cd74 O77 2.333 . S
Cd74 O78 2.352 . S
Cd74 O82 2.277 . S
Cd74 O83 2.356 . S
C75 O80 1.209 . S
C75 O82 1.226 . S
O76 Cd72 2.273 . S
O76 Cd74 2.411 . S
O76 C79 1.320 . S
O77 Cd74 2.333 . S
O77 C79 1.214 . S
O78 Cd74 2.352 . S
O78 C81 1.258 . S
C79 O76 1.320 . S
C79 O77 1.214 . S
O80 Cd72 2.277 . S
O80 C75 1.209 . S
C81 O78 1.258 . S
C81 O83 1.282 . S
O82 Cd74 2.277 . S
O82 C75 1.226 . S
O83 Cd74 2.356 . S
O83 C81 1.282 . S
C84 O85 1.306 . S
C84 O87 1.160 . S
O85 C84 1.306 . S
O85 Cd86 2.228 . S
Cd86 O85 2.228 . S
Cd86 O90 2.273 . S
Cd86 O94 2.277 . S
O87 C84 1.160 . S
O87 Cd88 2.203 . S
Cd88 O87 2.203 . S
Cd88 O90 2.411 . S
Cd88 O91 2.333 . S
Cd88 O92 2.352 . S
Cd88 O96 2.277 . S
Cd88 O97 2.356 . S
C89 O94 1.209 . S
C89 O96 1.226 . S
O90 Cd86 2.273 . S
O90 Cd88 2.411 . S
O90 C93 1.320 . S
O91 Cd88 2.333 . S
O91 C93 1.214 . S
O92 Cd88 2.352 . S
O92 C95 1.258 . S
C93 O90 1.320 . S
C93 O91 1.214 . S
O94 Cd86 2.277 . S
O94 C89 1.209 . S
C95 O92 1.258 . S
C95 O97 1.282 . S
O96 Cd88 2.277 . S
O96 C89 1.226 . S
O97 Cd88 2.356 . S
O97 C95 1.282 . S
C98 O99 1.306 . S
C98 O101 1.160 . S
O99 C98 1.306 . S
O99 Cd100 2.228 . S
Cd100 O99 2.228 . S
Cd100 O104 2.273 . S
Cd100 O108 2.277 . S
O101 C98 1.160 . S
O101 Cd102 2.203 . S
Cd102 O101 2.203 . S
Cd102 O104 2.411 . S
Cd102 O105 2.333 . S
Cd102 O106 2.352 . S
Cd102 O110 2.277 . S
Cd102 O111 2.356 . S
C103 O108 1.209 . S
C103 O110 1.226 . S
O104 Cd100 2.273 . S
O104 Cd102 2.411 . S
O104 C107 1.320 . S
O105 Cd102 2.333 . S
O105 C107 1.214 . S
O106 Cd102 2.352 . S
O106 C109 1.258 . S
C107 O104 1.320 . S
C107 O105 1.214 . S
O108 Cd100 2.277 . S
O108 C103 1.209 . S
C109 O106 1.258 . S
C109 O111 1.282 . S
O110 Cd102 2.277 . S
O110 C103 1.226 . S
O111 Cd102 2.356 . S
O111 C109 1.282 . S
C112 O113 1.306 . S
C112 O115 1.160 . S
O113 C112 1.306 . S
O113 Cd114 2.228 . S
Cd114 O113 2.228 . S
Cd114 O118 2.273 . S
Cd114 O122 2.277 . S
O115 C112 1.160 . S
O115 Cd116 2.203 . S
Cd116 O115 2.203 . S
Cd116 O118 2.411 . S
Cd116 O119 2.333 . S
Cd116 O120 2.352 . S
Cd116 O124 2.277 . S
Cd116 O125 2.356 . S
C117 O122 1.209 . S
C117 O124 1.226 . S
O118 Cd114 2.273 . S
O118 Cd116 2.411 . S
O118 C121 1.320 . S
O119 Cd116 2.333 . S
O119 C121 1.214 . S
O120 Cd116 2.352 . S
O120 C123 1.258 . S
C121 O118 1.320 . S
C121 O119 1.214 . S
O122 Cd114 2.277 . S
O122 C117 1.209 . S
C123 O120 1.258 . S
C123 O125 1.282 . S
O124 Cd116 2.277 . S
O124 C117 1.226 . S
O125 Cd116 2.356 . S
O125 C123 1.282 . S
C126 O127 1.306 . S
C126 O129 1.160 . S
O127 C126 1.306 . S
O127 Cd128 2.228 . S
Cd128 O127 2.228 . S
Cd128 O132 2.273 . S
Cd128 O136 2.277 . S
O129 C126 1.160 . S
O129 Cd130 2.203 . S
Cd130 O129 2.203 . S
Cd130 O132 2.411 . S
Cd130 O133 2.333 . S
Cd130 O134 2.352 . S
Cd130 O138 2.277 . S
Cd130 O139 2.356 . S
C131 O136 1.209 . S
C131 O138 1.226 . S
O132 Cd128 2.273 . S
O132 Cd130 2.411 . S
O132 C135 1.320 . S
O133 Cd130 2.333 . S
O133 C135 1.214 . S
O134 Cd130 2.352 . S
O134 C137 1.258 . S
C135 O132 1.320 . S
C135 O133 1.214 . S
O136 Cd128 2.277 . S
O136 C131 1.209 . S
C137 O134 1.258 . S
C137 O139 1.282 . S
O138 Cd130 2.277 . S
O138 C131 1.226 . S
O139 Cd130 2.356 . S
O139 C137 1.282 . S
C140 O141 1.306 . S
C140 O143 1.160 . S
O141 C140 1.306 . S
O141 Cd142 2.228 . S
Cd142 O141 2.228 . S
Cd142 O146 2.273 . S
Cd142 O150 2.277 . S
O143 C140 1.160 . S
O143 Cd144 2.203 . S
Cd144 O143 2.203 . S
Cd144 O146 2.411 . S
Cd144 O147 2.333 . S
Cd144 O148 2.352 . S
Cd144 O152 2.277 . S
Cd144 O153 2.356 . S
C145 O150 1.209 . S
C145 O152 1.226 . S
O146 Cd142 2.273 . S
O146 Cd144 2.411 . S
O146 C149 1.320 . S
O147 Cd144 2.333 . S
O147 C149 1.214 . S
O148 Cd144 2.352 . S
O148 C151 1.258 . S
C149 O146 1.320 . S
C149 O147 1.214 . S
O150 Cd142 2.277 . S
O150 C145 1.209 . S
C151 O148 1.258 . S
C151 O153 1.282 . S
O152 Cd144 2.277 . S
O152 C145 1.226 . S
O153 Cd144 2.356 . S
O153 C151 1.282 . S
C154 O155 1.306 . S
C154 O157 1.160 . S
O155 C154 1.306 . S
O155 Cd156 2.228 . S
Cd156 O155 2.228 . S
Cd156 O160 2.273 . S
Cd156 O164 2.277 . S
O157 C154 1.160 . S
O157 Cd158 2.203 . S
Cd158 O157 2.203 . S
Cd158 O160 2.411 . S
Cd158 O161 2.333 . S
Cd158 O162 2.352 . S
Cd158 O166 2.277 . S
Cd158 O167 2.356 . S
C159 O164 1.209 . S
C159 O166 1.226 . S
O160 Cd156 2.273 . S
O160 Cd158 2.411 . S
O160 C163 1.320 . S
O161 Cd158 2.333 . S
O161 C163 1.214 . S
O162 Cd158 2.352 . S
O162 C165 1.258 . S
C163 O160 1.320 . S
C163 O161 1.214 . S
O164 Cd156 2.277 . S
O164 C159 1.209 . S
C165 O162 1.258 . S
C165 O167 1.282 . S
O166 Cd158 2.277 . S
O166 C159 1.226 . S
O167 Cd158 2.356 . S
O167 C165 1.282 . S
C168 O169 1.306 . S
C168 O171 1.160 . S
O169 C168 1.306 . S
O169 Cd170 2.228 . S
Cd170 O169 2.228 . S
Cd170 O174 2.273 . S
Cd170 O178 2.277 . S
O171 C168 1.160 . S
O171 Cd172 2.203 . S
Cd172 O171 2.203 . S
Cd172 O174 2.411 . S
Cd172 O175 2.333 . S
Cd172 O176 2.352 . S
Cd172 O180 2.277 . S
Cd172 O181 2.356 . S
C173 O178 1.209 . S
C173 O180 1.226 . S
O174 Cd170 2.273 . S
O174 Cd172 2.411 . S
O174 C177 1.320 . S
O175 Cd172 2.333 . S
O175 C177 1.214 . S
O176 Cd172 2.352 . S
O176 C179 1.258 . S
C177 O174 1.320 . S
C177 O175 1.214 . S
O178 Cd170 2.277 . S
O178 C173 1.209 . S
C179 O176 1.258 . S
C179 O181 1.282 . S
O180 Cd172 2.277 . S
O180 C173 1.226 . S
O181 Cd172 2.356 . S
O181 C179 1.282 . S
C182 O183 1.306 . S
C182 O185 1.160 . S
O183 C182 1.306 . S
O183 Cd184 2.228 . S
Cd184 O183 2.228 . S
Cd184 O188 2.273 . S
Cd184 O192 2.277 . S
O185 C182 1.160 . S
O185 Cd186 2.203 . S
Cd186 O185 2.203 . S
Cd186 O188 2.411 . S
Cd186 O189 2.333 . S
Cd186 O190 2.352 . S
Cd186 O194 2.277 . S
Cd186 O195 2.356 . S
C187 O192 1.209 . S
C187 O194 1.226 . S
O188 Cd184 2.273 . S
O188 Cd186 2.411 . S
O188 C191 1.320 . S
O189 Cd186 2.333 . S
O189 C191 1.214 . S
O190 Cd186 2.352 . S
O190 C193 1.258 . S
C191 O188 1.320 . S
C191 O189 1.214 . S
O192 Cd184 2.277 . S
O192 C187 1.209 . S
C193 O190 1.258 . S
C193 O195 1.282 . S
O194 Cd186 2.277 . S
O194 C187 1.226 . S
O195 Cd186 2.356 . S
O195 C193 1.282 . S
C196 O197 1.306 . S
C196 O199 1.160 . S
O197 C196 1.306 . S
O197 Cd198 2.228 . S
Cd198 O197 2.228 . S
Cd198 O202 2.273 . S
Cd198 O206 2.277 . S
O199 C196 1.160 . S
O199 Cd200 2.203 . S
Cd200 O199 2.203 . S
Cd200 O202 2.411 . S
Cd200 O203 2.333 . S
Cd200 O204 2.352 . S
Cd200 O208 2.277 . S
Cd200 O209 2.356 . S
C201 O206 1.209 . S
C201 O208 1.226 . S
O202 Cd198 2.273 . S
O202 Cd200 2.411 . S
O202 C205 1.320 . S
O203 Cd200 2.333 . S
O203 C205 1.214 . S
O204 Cd200 2.352 . S
O204 C207 1.258 . S
C205 O202 1.320 . S
C205 O203 1.214 . S
O206 Cd198 2.277 . S
O206 C201 1.209 . S
C207 O204 1.258 . S
C207 O209 1.282 . S
O208 Cd200 2.277 . S
O208 C201 1.226 . S
O209 Cd200 2.356 . S
O209 C207 1.282 . S
C210 O211 1.306 . S
C210 O213 1.160 . S
O211 C210 1.306 . S
O211 Cd212 2.228 . S
Cd212 O211 2.228 . S
Cd212 O216 2.273 . S
Cd212 O220 2.277 . S
O213 C210 1.160 . S
O213 Cd214 2.203 . S
Cd214 O213 2.203 . S
Cd214 O216 2.411 . S
Cd214 O217 2.333 . S
Cd214 O218 2.352 . S
Cd214 O222 2.277 . S
Cd214 O223 2.356 . S
C215 O220 1.209 . S
C215 O222 1.226 . S
O216 Cd212 2.273 . S
O216 Cd214 2.411 . S
O216 C219 1.320 . S
O217 Cd214 2.333 . S
O217 C219 1.214 . S
O218 Cd214 2.352 . S
O218 C221 1.258 . S
C219 O216 1.320 . S
C219 O217 1.214 . S
O220 Cd212 2.277 . S
O220 C215 1.209 . S
C221 O218 1.258 . S
C221 O223 1.282 . S
O222 Cd214 2.277 . S
O222 C215 1.226 . S
O223 Cd214 2.356 . S
O223 C221 1.282 . S
C224 O225 1.306 . S
C224 O227 1.160 . S
O225 C224 1.306 . S
O225 Cd226 2.228 . S
Cd226 O225 2.228 . S
Cd226 O230 2.273 . S
Cd226 O234 2.277 . S
O227 C224 1.160 . S
O227 Cd228 2.203 . S
Cd228 O227 2.203 . S
Cd228 O230 2.411 . S
Cd228 O231 2.333 . S
Cd228 O232 2.352 . S
Cd228 O236 2.277 . S
Cd228 O237 2.356 . S
C229 O234 1.209 . S
C229 O236 1.226 . S
O230 Cd226 2.273 . S
O230 Cd228 2.411 . S
O230 C233 1.320 . S
O231 Cd228 2.333 . S
O231 C233 1.214 . S
O232 Cd228 2.352 . S
O232 C235 1.258 . S
C233 O230 1.320 . S
C233 O231 1.214 . S
O234 Cd226 2.277 . S
O234 C229 1.209 . S
C235 O232 1.258 . S
C235 O237 1.282 . S
O236 Cd228 2.277 . S
O236 C229 1.226 . S
O237 Cd228 2.356 . S
O237 C235 1.282 . S
C238 O239 1.306 . S
C238 O241 1.160 . S
O239 C238 1.306 . S
O239 Cd240 2.228 . S
Cd240 O239 2.228 . S
Cd240 O244 2.273 . S
Cd240 O248 2.277 . S
O241 C238 1.160 . S
O241 Cd242 2.203 . S
Cd242 O241 2.203 . S
Cd242 O244 2.411 . S
Cd242 O245 2.333 . S
Cd242 O246 2.352 . S
Cd242 O250 2.277 . S
Cd242 O251 2.356 . S
C243 O248 1.209 . S
C243 O250 1.226 . S
O244 Cd240 2.273 . S
O244 Cd242 2.411 . S
O244 C247 1.320 . S
O245 Cd242 2.333 . S
O245 C247 1.214 . S
O246 Cd242 2.352 . S
O246 C249 1.258 . S
C247 O244 1.320 . S
C247 O245 1.214 . S
O248 Cd240 2.277 . S
O248 C243 1.209 . S
C249 O246 1.258 . S
C249 O251 1.282 . S
O250 Cd242 2.277 . S
O250 C243 1.226 . S
O251 Cd242 2.356 . S
O251 C249 1.282 . S
C252 O253 1.306 . S
C252 O255 1.160 . S
O253 C252 1.306 . S
O253 Cd254 2.228 . S
Cd254 O253 2.228 . S
Cd254 O258 2.273 . S
Cd254 O262 2.277 . S
O255 C252 1.160 . S
O255 Cd256 2.203 . S
Cd256 O255 2.203 . S
Cd256 O258 2.411 . S
Cd256 O259 2.333 . S
Cd256 O260 2.352 . S
Cd256 O264 2.277 . S
Cd256 O265 2.356 . S
C257 O262 1.209 . S
C257 O264 1.226 . S
O258 Cd254 2.273 . S
O258 Cd256 2.411 . S
O258 C261 1.320 . S
O259 Cd256 2.333 . S
O259 C261 1.214 . S
O260 Cd256 2.352 . S
O260 C263 1.258 . S
C261 O258 1.320 . S
C261 O259 1.214 . S
O262 Cd254 2.277 . S
O262 C257 1.209 . S
C263 O260 1.258 . S
C263 O265 1.282 . S
O264 Cd256 2.277 . S
O264 C257 1.226 . S
O265 Cd256 2.356 . S
O265 C263 1.282 . S
C266 O267 1.306 . S
C266 O269 1.160 . S
O267 C266 1.306 . S
O267 Cd268 2.228 . S
Cd268 O267 2.228 . S
Cd268 O272 2.273 . S
Cd268 O276 2.277 . S
O269 C266 1.160 . S
O269 Cd270 2.203 . S
Cd270 O269 2.203 . S
Cd270 O272 2.411 . S
Cd270 O273 2.333 . S
Cd270 O274 2.352 . S
Cd270 O278 2.277 . S
Cd270 O279 2.356 . S
C271 O276 1.209 . S
C271 O278 1.226 . S
O272 Cd268 2.273 . S
O272 Cd270 2.411 . S
O272 C275 1.320 . S
O273 Cd270 2.333 . S
O273 C275 1.214 . S
O274 Cd270 2.352 . S
O274 C277 1.258 . S
C275 O272 1.320 . S
C275 O273 1.214 . S
O276 Cd268 2.277 . S
O276 C271 1.209 . S
C277 O274 1.258 . S
C277 O279 1.282 . S
O278 Cd270 2.277 . S
O278 C271 1.226 . S
O279 Cd270 2.356 . S
O279 C277 1.282 . S
C280 O281 1.306 . S
C280 O283 1.160 . S
O281 C280 1.306 . S
O281 Cd282 2.228 . S
Cd282 O281 2.228 . S
Cd282 O286 2.273 . S
Cd282 O290 2.277 . S
O283 C280 1.160 . S
O283 Cd284 2.203 . S
Cd284 O283 2.203 . S
Cd284 O286 2.411 . S
Cd284 O287 2.333 . S
Cd284 O288 2.352 . S
Cd284 O292 2.277 . S
Cd284 O293 2.356 . S
C285 O290 1.209 . S
C285 O292 1.226 . S
O286 Cd282 2.273 . S
O286 Cd284 2.411 . S
O286 C289 1.320 . S
O287 Cd284 2.333 . S
O287 C289 1.214 . S
O288 Cd284 2.352 . S
O288 C291 1.258 . S
C289 O286 1.320 . S
C289 O287 1.214 . S
O290 Cd282 2.277 . S
O290 C285 1.209 . S
C291 O288 1.258 . S
C291 O293 1.282 . S
O292 Cd284 2.277 . S
O292 C285 1.226 . S
O293 Cd284 2.356 . S
O293 C291 1.282 . S
C294 O295 1.306 . S
C294 O297 1.160 . S
O295 C294 1.306 . S
O295 Cd296 2.228 . S
Cd296 O295 2.228 . S
Cd296 O300 2.273 . S
Cd296 O304 2.277 . S
O297 C294 1.160 . S
O297 Cd298 2.203 . S
Cd298 O297 2.203 . S
Cd298 O300 2.411 . S
Cd298 O301 2.333 . S
Cd298 O302 2.352 . S
Cd298 O306 2.277 . S
Cd298 O307 2.356 . S
C299 O304 1.209 . S
C299 O306 1.226 . S
O300 Cd296 2.273 . S
O300 Cd298 2.411 . S
O300 C303 1.320 . S
O301 Cd298 2.333 . S
O301 C303 1.214 . S
O302 Cd298 2.352 . S
O302 C305 1.258 . S
C303 O300 1.320 . S
C303 O301 1.214 . S
O304 Cd296 2.277 . S
O304 C299 1.209 . S
C305 O302 1.258 . S
C305 O307 1.282 . S
O306 Cd298 2.277 . S
O306 C299 1.226 . S
O307 Cd298 2.356 . S
O307 C305 1.282 . S
C308 O309 1.306 . S
C308 O311 1.160 . S
O309 C308 1.306 . S
O309 Cd310 2.228 . S
Cd310 O309 2.228 . S
Cd310 O314 2.273 . S
Cd310 O318 2.277 . S
O311 C308 1.160 . S
O311 Cd312 2.203 . S
Cd312 O311 2.203 . S
Cd312 O314 2.411 . S
Cd312 O315 2.333 . S
Cd312 O316 2.352 . S
Cd312 O320 2.277 . S
Cd312 O321 2.356 . S
C313 O318 1.209 . S
C313 O320 1.226 . S
O314 Cd310 2.273 . S
O314 Cd312 2.411 . S
O314 C317 1.320 . S
O315 Cd312 2.333 . S
O315 C317 1.214 . S
O316 Cd312 2.352 . S
O316 C319 1.258 . S
C317 O314 1.320 . S
C317 O315 1.214 . S
O318 Cd310 2.277 . S
O318 C313 1.209 . S
C319 O316 1.258 . S
C319 O321 1.282 . S
O320 Cd312 2.277 . S
O320 C313 1.226 . S
O321 Cd312 2.356 . S
O321 C319 1.282 . S
C322 O323 1.306 . S
C322 O325 1.160 . S
O323 C322 1.306 . S
O323 Cd324 2.228 . S
Cd324 O323 2.228 . S
Cd324 O328 2.273 . S
Cd324 O332 2.277 . S
O325 C322 1.160 . S
O325 Cd326 2.203 . S
Cd326 O325 2.203 . S
Cd326 O328 2.411 . S
Cd326 O329 2.333 . S
Cd326 O330 2.352 . S
Cd326 O334 2.277 . S
Cd326 O335 2.356 . S
C327 O332 1.209 . S
C327 O334 1.226 . S
O328 Cd324 2.273 . S
O328 Cd326 2.411 . S
O328 C331 1.320 . S
O329 Cd326 2.333 . S
O329 C331 1.214 . S
O330 Cd326 2.352 . S
O330 C333 1.258 . S
C331 O328 1.320 . S
C331 O329 1.214 . S
O332 Cd324 2.277 . S
O332 C327 1.209 . S
C333 O330 1.258 . S
C333 O335 1.282 . S
O334 Cd326 2.277 . S
O334 C327 1.226 . S
O335 Cd326 2.356 . S
O335 C333 1.282 . S
C336 O337 1.306 . S
C336 O339 1.160 . S
O337 C336 1.306 . S
O337 Cd338 2.228 . S
Cd338 O337 2.228 . S
Cd338 O342 2.273 . S
Cd338 O346 2.277 . S
O339 C336 1.160 . S
O339 Cd340 2.203 . S
Cd340 O339 2.203 . S
Cd340 O342 2.411 . S
Cd340 O343 2.333 . S
Cd340 O344 2.352 . S
Cd340 O348 2.277 . S
Cd340 O349 2.356 . S
C341 O346 1.209 . S
C341 O348 1.226 . S
O342 Cd338 2.273 . S
O342 Cd340 2.411 . S
O342 C345 1.320 . S
O343 Cd340 2.333 . S
O343 C345 1.214 . S
O344 Cd340 2.352 . S
O344 C347 1.258 . S
C345 O342 1.320 . S
C345 O343 1.214 . S
O346 Cd338 2.277 . S
O346 C341 1.209 . S
C347 O344 1.258 . S
C347 O349 1.282 . S
O348 Cd340 2.277 . S
O348 C341 1.226 . S
O349 Cd340 2.356 . S
O349 C347 1.282 . S
C350 O351 1.306 . S
C350 O353 1.160 . S
O351 C350 1.306 . S
O351 Cd352 2.228 . S
Cd352 O351 2.228 . S
Cd352 O356 2.273 . S
Cd352 O360 2.277 . S
O353 C350 1.160 . S
O353 Cd354 2.203 . S
Cd354 O353 2.203 . S
Cd354 O356 2.411 . S
Cd354 O357 2.333 . S
Cd354 O358 2.352 . S
Cd354 O362 2.277 . S
Cd354 O363 2.356 . S
C355 O360 1.209 . S
C355 O362 1.226 . S
O356 Cd352 2.273 . S
O356 Cd354 2.411 . S
O356 C359 1.320 . S
O357 Cd354 2.333 . S
O357 C359 1.214 . S
O358 Cd354 2.352 . S
O358 C361 1.258 . S
C359 O356 1.320 . S
C359 O357 1.214 . S
O360 Cd352 2.277 . S
O360 C355 1.209 . S
C361 O358 1.258 . S
C361 O363 1.282 . S
O362 Cd354 2.277 . S
O362 C355 1.226 . S
O363 Cd354 2.356 . S
O363 C361 1.282 . S
C364 O365 1.306 . S
C364 O367 1.160 . S
O365 C364 1.306 . S
O365 Cd366 2.228 . S
Cd366 O365 2.228 . S
Cd366 O370 2.273 . S
Cd366 O374 2.277 . S
O367 C364 1.160 . S
O367 Cd368 2.203 . S
Cd368 O367 2.203 . S
Cd368 O370 2.411 . S
Cd368 O371 2.333 . S
Cd368 O372 2.352 . S
Cd368 O376 2.277 . S
Cd368 O377 2.356 . S
C369 O374 1.209 . S
C369 O376 1.226 . S
O370 Cd366 2.273 . S
O370 Cd368 2.411 . S
O370 C373 1.320 . S
O371 Cd368 2.333 . S
O371 C373 1.214 . S
O372 Cd368 2.352 . S
O372 C375 1.258 . S
C373 O370 1.320 . S
C373 O371 1.214 . S
O374 Cd366 2.277 . S
O374 C369 1.209 . S
C375 O372 1.258 . S
C375 O377 1.282 . S
O376 Cd368 2.277 . S
O376 C369 1.226 . S
O377 Cd368 2.356 . S
O377 C375 1.282 . S
C378 O379 1.306 . S
C378 O381 1.160 . S
O379 C378 1.306 . S
O379 Cd380 2.228 . S
Cd380 O379 2.228 . S
Cd380 O384 2.273 . S
Cd380 O388 2.277 . S
O381 C378 1.160 . S
O381 Cd382 2.203 . S
Cd382 O381 2.203 . S
Cd382 O384 2.411 . S
Cd382 O385 2.333 . S
Cd382 O386 2.352 . S
Cd382 O390 2.277 . S
Cd382 O391 2.356 . S
C383 O388 1.209 . S
C383 O390 1.226 . S
O384 Cd380 2.273 . S
O384 Cd382 2.411 . S
O384 C387 1.320 . S
O385 Cd382 2.333 . S
O385 C387 1.214 . S
O386 Cd382 2.352 . S
O386 C389 1.258 . S
C387 O384 1.320 . S
C387 O385 1.214 . S
O388 Cd380 2.277 . S
O388 C383 1.209 . S
C389 O386 1.258 . S
C389 O391 1.282 . S
O390 Cd382 2.277 . S
O390 C383 1.226 . S
O391 Cd382 2.356 . S
O391 C389 1.282 . S
C392 O393 1.306 . S
C392 O395 1.160 . S
O393 C392 1.306 . S
O393 Cd394 2.228 . S
Cd394 O393 2.228 . S
Cd394 O398 2.273 . S
Cd394 O402 2.277 . S
O395 C392 1.160 . S
O395 Cd396 2.203 . S
Cd396 O395 2.203 . S
Cd396 O398 2.411 . S
Cd396 O399 2.333 . S
Cd396 O400 2.352 . S
Cd396 O404 2.277 . S
Cd396 O405 2.356 . S
C397 O402 1.209 . S
C397 O404 1.226 . S
O398 Cd394 2.273 . S
O398 Cd396 2.411 . S
O398 C401 1.320 . S
O399 Cd396 2.333 . S
O399 C401 1.214 . S
O400 Cd396 2.352 . S
O400 C403 1.258 . S
C401 O398 1.320 . S
C401 O399 1.214 . S
O402 Cd394 2.277 . S
O402 C397 1.209 . S
C403 O400 1.258 . S
C403 O405 1.282 . S
O404 Cd396 2.277 . S
O404 C397 1.226 . S
O405 Cd396 2.356 . S
O405 C403 1.282 . S
C406 O407 1.306 . S
C406 O409 1.160 . S
O407 C406 1.306 . S
O407 Cd408 2.228 . S
Cd408 O407 2.228 . S
Cd408 O412 2.273 . S
Cd408 O416 2.277 . S
O409 C406 1.160 . S
O409 Cd410 2.203 . S
Cd410 O409 2.203 . S
Cd410 O412 2.411 . S
Cd410 O413 2.333 . S
Cd410 O414 2.352 . S
Cd410 O418 2.277 . S
Cd410 O419 2.356 . S
C411 O416 1.209 . S
C411 O418 1.226 . S
O412 Cd408 2.273 . S
O412 Cd410 2.411 . S
O412 C415 1.320 . S
O413 Cd410 2.333 . S
O413 C415 1.214 . S
O414 Cd410 2.352 . S
O414 C417 1.258 . S
C415 O412 1.320 . S
C415 O413 1.214 . S
O416 Cd408 2.277 . S
O416 C411 1.209 . S
C417 O414 1.258 . S
C417 O419 1.282 . S
O418 Cd410 2.277 . S
O418 C411 1.226 . S
O419 Cd410 2.356 . S
O419 C417 1.282 . S
C420 O421 1.306 . S
C420 O423 1.160 . S
O421 C420 1.306 . S
O421 Cd422 2.228 . S
Cd422 O421 2.228 . S
Cd422 O426 2.273 . S
Cd422 O430 2.277 . S
O423 C420 1.160 . S
O423 Cd424 2.203 . S
Cd424 O423 2.203 . S
Cd424 O426 2.411 . S
Cd424 O427 2.333 . S
Cd424 O428 2.352 . S
Cd424 O432 2.277 . S
Cd424 O433 2.356 . S
C425 O430 1.209 . S
C425 O432 1.226 . S
O426 Cd422 2.273 . S
O426 Cd424 2.411 . S
O426 C429 1.320 . S
O427 Cd424 2.333 . S
O427 C429 1.214 . S
O428 Cd424 2.352 . S
O428 C431 1.258 . S
C429 O426 1.320 . S
C429 O427 1.214 . S
O430 Cd422 2.277 . S
O430 C425 1.209 . S
C431 O428 1.258 . S
C431 O433 1.282 . S
O432 Cd424 2.277 . S
O432 C425 1.226 . S
O433 Cd424 2.356 . S
O433 C431 1.282 . S
C434 O435 1.306 . S
C434 O437 1.160 . S
O435 C434 1.306 . S
O435 Cd436 2.228 . S
Cd436 O435 2.228 . S
Cd436 O440 2.273 . S
Cd436 O444 2.277 . S
O437 C434 1.160 . S
O437 Cd438 2.203 . S
Cd438 O437 2.203 . S
Cd438 O440 2.411 . S
Cd438 O441 2.333 . S
Cd438 O442 2.352 . S
Cd438 O446 2.277 . S
Cd438 O447 2.356 . S
C439 O444 1.209 . S
C439 O446 1.226 . S
O440 Cd436 2.273 . S
O440 Cd438 2.411 . S
O440 C443 1.320 . S
O441 Cd438 2.333 . S
O441 C443 1.214 . S
O442 Cd438 2.352 . S
O442 C445 1.258 . S
C443 O440 1.320 . S
C443 O441 1.214 . S
O444 Cd436 2.277 . S
O444 C439 1.209 . S
C445 O442 1.258 . S
C445 O447 1.282 . S
O446 Cd438 2.277 . S
O446 C439 1.226 . S
O447 Cd438 2.356 . S
O447 C445 1.282 . S
C448 O449 1.306 . S
C448 O451 1.160 . S
O449 C448 1.306 . S
O449 Cd450 2.228 . S
Cd450 O449 2.228 . S
Cd450 O454 2.273 . S
Cd450 O458 2.277 . S
O451 C448 1.160 . S
O451 Cd452 2.203 . S
Cd452 O451 2.203 . S
Cd452 O454 2.411 . S
Cd452 O455 2.333 . S
Cd452 O456 2.352 . S
Cd452 O460 2.277 . S
Cd452 O461 2.356 . S
C453 O458 1.209 . S
C453 O460 1.226 . S
O454 Cd450 2.273 . S
O454 Cd452 2.411 . S
O454 C457 1.320 . S
O455 Cd452 2.333 . S
O455 C457 1.214 . S
O456 Cd452 2.352 . S
O456 C459 1.258 . S
C457 O454 1.320 . S
C457 O455 1.214 . S
O458 Cd450 2.277 . S
O458 C453 1.209 . S
C459 O456 1.258 . S
C459 O461 1.282 . S
O460 Cd452 2.277 . S
O460 C453 1.226 . S
O461 Cd452 2.356 . S
O461 C459 1.282 . S
C462 O463 1.306 . S
C462 O465 1.160 . S
O463 C462 1.306 . S
O463 Cd464 2.228 . S
Cd464 O463 2.228 . S
Cd464 O468 2.273 . S
Cd464 O472 2.277 . S
O465 C462 1.160 . S
O465 Cd466 2.203 . S
Cd466 O465 2.203 . S
Cd466 O468 2.411 . S
Cd466 O469 2.333 . S
Cd466 O470 2.352 . S
Cd466 O474 2.277 . S
Cd466 O475 2.356 . S
C467 O472 1.209 . S
C467 O474 1.226 . S
O468 Cd464 2.273 . S
O468 Cd466 2.411 . S
O468 C471 1.320 . S
O469 Cd466 2.333 . S
O469 C471 1.214 . S
O470 Cd466 2.352 . S
O470 C473 1.258 . S
C471 O468 1.320 . S
C471 O469 1.214 . S
O472 Cd464 2.277 . S
O472 C467 1.209 . S
C473 O470 1.258 . S
C473 O475 1.282 . S
O474 Cd466 2.277 . S
O474 C467 1.226 . S
O475 Cd466 2.356 . S
O475 C473 1.282 . S
C476 O477 1.306 . S
C476 O479 1.160 . S
O477 C476 1.306 . S
O477 Cd478 2.228 . S
Cd478 O477 2.228 . S
Cd478 O482 2.273 . S
Cd478 O486 2.277 . S
O479 C476 1.160 . S
O479 Cd480 2.203 . S
Cd480 O479 2.203 . S
Cd480 O482 2.411 . S
Cd480 O483 2.333 . S
Cd480 O484 2.352 . S
Cd480 O488 2.277 . S
Cd480 O489 2.356 . S
C481 O486 1.209 . S
C481 O488 1.226 . S
O482 Cd478 2.273 . S
O482 Cd480 2.411 . S
O482 C485 1.320 . S
O483 Cd480 2.333 . S
O483 C485 1.214 . S
O484 Cd480 2.352 . S
O484 C487 1.258 . S
C485 O482 1.320 . S
C485 O483 1.214 . S
O486 Cd478 2.277 . S
O486 C481 1.209 . S
C487 O484 1.258 . S
C487 O489 1.282 . S
O488 Cd480 2.277 . S
O488 C481 1.226 . S
O489 Cd480 2.356 . S
O489 C487 1.282 . S
C490 O491 1.306 . S
C490 O493 1.160 . S
O491 C490 1.306 . S
O491 Cd492 2.228 . S
Cd492 O491 2.228 . S
Cd492 O496 2.273 . S
Cd492 O500 2.277 . S
O493 C490 1.160 . S
O493 Cd494 2.203 . S
Cd494 O493 2.203 . S
Cd494 O496 2.411 . S
Cd494 O497 2.333 . S
Cd494 O498 2.352 . S
Cd494 O502 2.277 . S
Cd494 O503 2.356 . S
C495 O500 1.209 . S
C495 O502 1.226 . S
O496 Cd492 2.273 . S
O496 Cd494 2.411 . S
O496 C499 1.320 . S
O497 Cd494 2.333 . S
O497 C499 1.214 . S
O498 Cd494 2.352 . S
O498 C501 1.258 . S
C499 O496 1.320 . S
C499 O497 1.214 . S
O500 Cd492 2.277 . S
O500 C495 1.209 . S
C501 O498 1.258 . S
C501 O503 1.282 . S
O502 Cd494 2.277 . S
O502 C495 1.226 . S
O503 Cd494 2.356 . S
O503 C501 1.282 . S
C504 O505 1.306 . S
C504 O507 1.160 . S
O505 C504 1.306 . S
O505 Cd506 2.228 . S
Cd506 O505 2.228 . S
Cd506 O510 2.273 . S
Cd506 O514 2.277 . S
O507 C504 1.160 . S
O507 Cd508 2.203 . S
Cd508 O507 2.203 . S
Cd508 O510 2.411 . S
Cd508 O511 2.333 . S
Cd508 O512 2.352 . S
Cd508 O516 2.277 . S
Cd508 O517 2.356 . S
C509 O514 1.209 . S
C509 O516 1.226 . S
O510 Cd506 2.273 . S
O510 Cd508 2.411 . S
O510 C513 1.320 . S
O511 Cd508 2.333 . S
O511 C513 1.214 . S
O512 Cd508 2.352 . S
O512 C515 1.258 . S
C513 O510 1.320 . S
C513 O511 1.214 . S
O514 Cd506 2.277 . S
O514 C509 1.209 . S
C515 O512 1.258 . S
C515 O517 1.282 . S
O516 Cd508 2.277 . S
O516 C509 1.226 . S
O517 Cd508 2.356 . S
O517 C515 1.282 . S
C518 O519 1.306 . S
C518 O521 1.160 . S
O519 C518 1.306 . S
O519 Cd520 2.228 . S
Cd520 O519 2.228 . S
Cd520 O524 2.273 . S
Cd520 O528 2.277 . S
O521 C518 1.160 . S
O521 Cd522 2.203 . S
Cd522 O521 2.203 . S
Cd522 O524 2.411 . S
Cd522 O525 2.333 . S
Cd522 O526 2.352 . S
Cd522 O530 2.277 . S
Cd522 O531 2.356 . S
C523 O528 1.209 . S
C523 O530 1.226 . S
O524 Cd520 2.273 . S
O524 Cd522 2.411 . S
O524 C527 1.320 . S
O525 Cd522 2.333 . S
O525 C527 1.214 . S
O526 Cd522 2.352 . S
O526 C529 1.258 . S
C527 O524 1.320 . S
C527 O525 1.214 . S
O528 Cd520 2.277 . S
O528 C523 1.209 . S
C529 O526 1.258 . S
C529 O531 1.282 . S
O530 Cd522 2.277 . S
O530 C523 1.226 . S
O531 Cd522 2.356 . S
O531 C529 1.282 . S
C532 O533 1.306 . S
C532 O535 1.160 . S
O533 C532 1.306 . S
O533 Cd534 2.228 . S
Cd534 O533 2.228 . S
Cd534 O538 2.273 . S
Cd534 O542 2.277 . S
O535 C532 1.160 . S
O535 Cd536 2.203 . S
Cd536 O535 2.203 . S
Cd536 O538 2.411 . S
Cd536 O539 2.333 . S
Cd536 O540 2.352 . S
Cd536 O544 2.277 . S
Cd536 O545 2.356 . S
C537 O542 1.209 . S
C537 O544 1.226 . S
O538 Cd534 2.273 . S
O538 Cd536 2.411 . S
O538 C541 1.320 . S
O539 Cd536 2.333 . S
O539 C541 1.214 . S
O540 Cd536 2.352 . S
O540 C543 1.258 . S
C541 O538 1.320 . S
C541 O539 1.214 . S
O542 Cd534 2.277 . S
O542 C537 1.209 . S
C543 O540 1.258 . S
C543 O545 1.282 . S
O544 Cd536 2.277 . S
O544 C537 1.226 . S
O545 Cd536 2.356 . S
O545 C543 1.282 . S
C546 O547 1.306 . S
C546 O549 1.160 . S
O547 C546 1.306 . S
O547 Cd548 2.228 . S
Cd548 O547 2.228 . S
Cd548 O552 2.273 . S
Cd548 O556 2.277 . S
O549 C546 1.160 . S
O549 Cd550 2.203 . S
Cd550 O549 2.203 . S
Cd550 O552 2.411 . S
Cd550 O553 2.333 . S
Cd550 O554 2.352 . S
Cd550 O558 2.277 . S
Cd550 O559 2.356 . S
C551 O556 1.209 . S
C551 O558 1.226 . S
O552 Cd548 2.273 . S
O552 Cd550 2.411 . S
O552 C555 1.320 . S
O553 Cd550 2.333 . S
O553 C555 1.214 . S
O554 Cd550 2.352 . S
O554 C557 1.258 . S
C555 O552 1.320 . S
C555 O553 1.214 . S
O556 Cd548 2.277 . S
O556 C551 1.209 . S
C557 O554 1.258 . S
C557 O559 1.282 . S
O558 Cd550 2.277 . S
O558 C551 1.226 . S
O559 Cd550 2.356 . S
O559 C557 1.282 . S
C560 O561 1.306 . S
C560 O563 1.160 . S
O561 C560 1.306 . S
O561 Cd562 2.228 . S
Cd562 O561 2.228 . S
Cd562 O566 2.273 . S
Cd562 O570 2.277 . S
O563 C560 1.160 . S
O563 Cd564 2.203 . S
Cd564 O563 2.203 . S
Cd564 O566 2.411 . S
Cd564 O567 2.333 . S
Cd564 O568 2.352 . S
Cd564 O572 2.277 . S
Cd564 O573 2.356 . S
C565 O570 1.209 . S
C565 O572 1.226 . S
O566 Cd562 2.273 . S
O566 Cd564 2.411 . S
O566 C569 1.320 . S
O567 Cd564 2.333 . S
O567 C569 1.214 . S
O568 Cd564 2.352 . S
O568 C571 1.258 . S
C569 O566 1.320 . S
C569 O567 1.214 . S
O570 Cd562 2.277 . S
O570 C565 1.209 . S
C571 O568 1.258 . S
C571 O573 1.282 . S
O572 Cd564 2.277 . S
O572 C565 1.226 . S
O573 Cd564 2.356 . S
O573 C571 1.282 . S
C574 O575 1.306 . S
C574 O577 1.160 . S
O575 C574 1.306 . S
O575 Cd576 2.228 . S
Cd576 O575 2.228 . S
Cd576 O580 2.273 . S
Cd576 O584 2.277 . S
O577 C574 1.160 . S
O577 Cd578 2.203 . S
Cd578 O577 2.203 . S
Cd578 O580 2.411 . S
Cd578 O581 2.333 . S
Cd578 O582 2.352 . S
Cd578 O586 2.277 . S
Cd578 O587 2.356 . S
C579 O584 1.209 . S
C579 O586 1.226 . S
O580 Cd576 2.273 . S
O580 Cd578 2.411 . S
O580 C583 1.320 . S
O581 Cd578 2.333 . S
O581 C583 1.214 . S
O582 Cd578 2.352 . S
O582 C585 1.258 . S
C583 O580 1.320 . S
C583 O581 1.214 . S
O584 Cd576 2.277 . S
O584 C579 1.209 . S
C585 O582 1.258 . S
C585 O587 1.282 . S
O586 Cd578 2.277 . S
O586 C579 1.226 . S
O587 Cd578 2.356 . S
O587 C585 1.282 . S
C588 O589 1.306 . S
C588 O591 1.160 . S
O589 C588 1.306 . S
O589 Cd590 2.228 . S
Cd590 O589 2.228 . S
Cd590 O594 2.273 . S
Cd590 O598 2.277 . S
O591 C588 1.160 . S
O591 Cd592 2.203 . S
Cd592 O591 2.203 . S
Cd592 O594 2.411 . S
Cd592 O595 2.333 . S
Cd592 O596 2.352 . S
Cd592 O600 2.277 . S
Cd592 O601 2.356 . S
C593 O598 1.209 . S
C593 O600 1.226 . S
O594 Cd590 2.273 . S
O594 Cd592 2.411 . S
O594 C597 1.320 . S
O595 Cd592 2.333 . S
O595 C597 1.214 . S
O596 Cd592 2.352 . S
O596 C599 1.258 . S
C597 O594 1.320 . S
C597 O595 1.214 . S
O598 Cd590 2.277 . S
O598 C593 1.209 . S
C599 O596 1.258 . S
C599 O601 1.282 . S
O600 Cd592 2.277 . S
O600 C593 1.226 . S
O601 Cd592 2.356 . S
O601 C599 1.282 . S
C602 O603 1.306 . S
C602 O605 1.160 . S
O603 C602 1.306 . S
O603 Cd604 2.228 . S
Cd604 O603 2.228 . S
Cd604 O608 2.273 . S
Cd604 O612 2.277 . S
O605 C602 1.160 . S
O605 Cd606 2.203 . S
Cd606 O605 2.203 . S
Cd606 O608 2.411 . S
Cd606 O609 2.333 . S
Cd606 O610 2.352 . S
Cd606 O614 2.277 . S
Cd606 O615 2.356 . S
C607 O612 1.209 . S
C607 O614 1.226 . S
O608 Cd604 2.273 . S
O608 Cd606 2.411 . S
O608 C611 1.320 . S
O609 Cd606 2.333 . S
O609 C611 1.214 . S
O610 Cd606 2.352 . S
O610 C613 1.258 . S
C611 O608 1.320 . S
C611 O609 1.214 . S
O612 Cd604 2.277 . S
O612 C607 1.209 . S
C613 O610 1.258 . S
C613 O615 1.282 . S
O614 Cd606 2.277 . S
O614 C607 1.226 . S
O615 Cd606 2.356 . S
O615 C613 1.282 . S
C616 O617 1.306 . S
C616 O619 1.160 . S
O617 C616 1.306 . S
O617 Cd618 2.228 . S
Cd618 O617 2.228 . S
Cd618 O622 2.273 . S
Cd618 O626 2.277 . S
O619 C616 1.160 . S
O619 Cd620 2.203 . S
Cd620 O619 2.203 . S
Cd620 O622 2.411 . S
Cd620 O623 2.333 . S
Cd620 O624 2.352 . S
Cd620 O628 2.277 . S
Cd620 O629 2.356 . S
C621 O626 1.209 . S
C621 O628 1.226 . S
O622 Cd618 2.273 . S
O622 Cd620 2.411 . S
O622 C625 1.320 . S
O623 Cd620 2.333 . S
O623 C625 1.214 . S
O624 Cd620 2.352 . S
O624 C627 1.258 . S
C625 O622 1.320 . S
C625 O623 1.214 . S
O626 Cd618 2.277 . S
O626 C621 1.209 . S
C627 O624 1.258 . S
C627 O629 1.282 . S
O628 Cd620 2.277 . S
O628 C621 1.226 . S
O629 Cd620 2.356 . S
O629 C627 1.282 . S
C630 O631 1.306 . S
C630 O633 1.160 . S
O631 C630 1.306 . S
O631 Cd632 2.228 . S
Cd632 O631 2.228 . S
Cd632 O636 2.273 . S
Cd632 O640 2.277 . S
O633 C630 1.160 . S
O633 Cd634 2.203 . S
Cd634 O633 2.203 . S
Cd634 O636 2.411 . S
Cd634 O637 2.333 . S
Cd634 O638 2.352 . S
Cd634 O642 2.277 . S
Cd634 O643 2.356 . S
C635 O640 1.209 . S
C635 O642 1.226 . S
O636 Cd632 2.273 . S
O636 Cd634 2.411 . S
O636 C639 1.320 . S
O637 Cd634 2.333 . S
O637 C639 1.214 . S
O638 Cd634 2.352 . S
O638 C641 1.258 . S
C639 O636 1.320 . S
C639 O637 1.214 . S
O640 Cd632 2.277 . S
O640 C635 1.209 . S
C641 O638 1.258 . S
C641 O643 1.282 . S
O642 Cd634 2.277 . S
O642 C635 1.226 . S
O643 Cd634 2.356 . S
O643 C641 1.282 . S
C644 O645 1.306 . S
C644 O647 1.160 . S
O645 C644 1.306 . S
O645 Cd646 2.228 . S
Cd646 O645 2.228 . S
Cd646 O650 2.273 . S
Cd646 O654 2.277 . S
O647 C644 1.160 . S
O647 Cd648 2.203 . S
Cd648 O647 2.203 . S
Cd648 O650 2.411 . S
Cd648 O651 2.333 . S
Cd648 O652 2.352 . S
Cd648 O656 2.277 . S
Cd648 O657 2.356 . S
C649 O654 1.209 . S
C649 O656 1.226 . S
O650 Cd646 2.273 . S
O650 Cd648 2.411 . S
O650 C653 1.320 . S
O651 Cd648 2.333 . S
O651 C653 1.214 . S
O652 Cd648 2.352 . S
O652 C655 1.258 . S
C653 O650 1.320 . S
C653 O651 1.214 . S
O654 Cd646 2.277 . S
O654 C649 1.209 . S
C655 O652 1.258 . S
C655 O657 1.282 . S
O656 Cd648 2.277 . S
O656 C649 1.226 . S
O657 Cd648 2.356 . S
O657 C655 1.282 . S
C658 O659 1.306 . S
C658 O661 1.160 . S
O659 C658 1.306 . S
O659 Cd660 2.228 . S
Cd660 O659 2.228 . S
Cd660 O664 2.273 . S
Cd660 O668 2.277 . S
O661 C658 1.160 . S
O661 Cd662 2.203 . S
Cd662 O661 2.203 . S
Cd662 O664 2.411 . S
Cd662 O665 2.333 . S
Cd662 O666 2.352 . S
Cd662 O670 2.277 . S
Cd662 O671 2.356 . S
C663 O668 1.209 . S
C663 O670 1.226 . S
O664 Cd660 2.273 . S
O664 Cd662 2.411 . S
O664 C667 1.320 . S
O665 Cd662 2.333 . S
O665 C667 1.214 . S
O666 Cd662 2.352 . S
O666 C669 1.258 . S
C667 O664 1.320 . S
C667 O665 1.214 . S
O668 Cd660 2.277 . S
O668 C663 1.209 . S
C669 O666 1.258 . S
C669 O671 1.282 . S
O670 Cd662 2.277 . S
O670 C663 1.226 . S
O671 Cd662 2.356 . S
O671 C669 1.282 . S
C672 O673 1.306 . S
C672 O675 1.160 . S
O673 C672 1.306 . S
O673 Cd674 2.228 . S
Cd674 O673 2.228 . S
Cd674 O678 2.273 . S
Cd674 O682 2.277 . S
O675 C672 1.160 . S
O675 Cd676 2.203 . S
Cd676 O675 2.203 . S
Cd676 O678 2.411 . S
Cd676 O679 2.333 . S
Cd676 O680 2.352 . S
Cd676 O684 2.277 . S
Cd676 O685 2.356 . S
C677 O682 1.209 . S
C677 O684 1.226 . S
O678 Cd674 2.273 . S
O678 Cd676 2.411 . S
O678 C681 1.320 . S
O679 Cd676 2.333 . S
O679 C681 1.214 . S
O680 Cd676 2.352 . S
O680 C683 1.258 . S
C681 O678 1.320 . S
C681 O679 1.214 . S
O682 Cd674 2.277 . S
O682 C677 1.209 . S
C683 O680 1.258 . S
C683 O685 1.282 . S
O684 Cd676 2.277 . S
O684 C677 1.226 . S
O685 Cd676 2.356 . S
O685 C683 1.282 . S
C686 O687 1.306 . S
C686 O689 1.160 . S
O687 C686 1.306 . S
O687 Cd688 2.228 . S
Cd688 O687 2.228 . S
Cd688 O692 2.273 . S
Cd688 O696 2.277 . S
O689 C686 1.160 . S
O689 Cd690 2.203 . S
Cd690 O689 2.203 . S
Cd690 O692 2.411 . S
Cd690 O693 2.333 . S
Cd690 O694 2.352 . S
Cd690 O698 2.277 . S
Cd690 O699 2.356 . S
C691 O696 1.209 . S
C691 O698 1.226 . S
O692 Cd688 2.273 . S
O692 Cd690 2.411 . S
O692 C695 1.320 . S
O693 Cd690 2.333 . S
O693 C695 1.214 . S
O694 Cd690 2.352 . S
O694 C697 1.258 . S
C695 O692 1.320 . S
C695 O693 1.214 . S
O696 Cd688 2.277 . S
O696 C691 1.209 . S
C697 O694 1.258 . S
C697 O699 1.282 . S
O698 Cd690 2.277 . S
O698 C691 1.226 . S
O699 Cd690 2.356 . S
O699 C697 1.282 . S
C700 O701 1.306 . S
C700 O703 1.160 . S
O701 C700 1.306 . S
O701 Cd702 2.228 . S
Cd702 O701 2.228 . S
Cd702 O706 2.273 . S
Cd702 O710 2.277 . S
O703 C700 1.160 . S
O703 Cd704 2.203 . S
Cd704 O703 2.203 . S
Cd704 O706 2.411 . S
Cd704 O707 2.333 . S
Cd704 O708 2.352 . S
Cd704 O712 2.277 . S
Cd704 O713 2.356 . S
C705 O710 1.209 . S
C705 O712 1.226 . S
O706 Cd702 2.273 . S
O706 Cd704 2.411 . S
O706 C709 1.320 . S
O707 Cd704 2.333 . S
O707 C709 1.214 . S
O708 Cd704 2.352 . S
O708 C711 1.258 . S
C709 O706 1.320 . S
C709 O707 1.214 . S
O710 Cd702 2.277 . S
O710 C705 1.209 . S
C711 O708 1.258 . S
C711 O713 1.282 . S
O712 Cd704 2.277 . S
O712 C705 1.226 . S
O713 Cd704 2.356 . S
O713 C711 1.282 . S
C714 O715 1.306 . S
C714 O717 1.160 . S
O715 C714 1.306 . S
O715 Cd716 2.228 . S
Cd716 O715 2.228 . S
Cd716 O720 2.273 . S
Cd716 O724 2.277 . S
O717 C714 1.160 . S
O717 Cd718 2.203 . S
Cd718 O717 2.203 . S
Cd718 O720 2.411 . S
Cd718 O721 2.333 . S
Cd718 O722 2.352 . S
Cd718 O726 2.277 . S
Cd718 O727 2.356 . S
C719 O724 1.209 . S
C719 O726 1.226 . S
O720 Cd716 2.273 . S
O720 Cd718 2.411 . S
O720 C723 1.320 . S
O721 Cd718 2.333 . S
O721 C723 1.214 . S
O722 Cd718 2.352 . S
O722 C725 1.258 . S
C723 O720 1.320 . S
C723 O721 1.214 . S
O724 Cd716 2.277 . S
O724 C719 1.209 . S
C725 O722 1.258 . S
C725 O727 1.282 . S
O726 Cd718 2.277 . S
O726 C719 1.226 . S
O727 Cd718 2.356 . S
O727 C725 1.282 . S
C728 O729 1.306 . S
C728 O731 1.160 . S
O729 C728 1.306 . S
O729 Cd730 2.228 . S
Cd730 O729 2.228 . S
Cd730 O734 2.273 . S
Cd730 O738 2.277 . S
O731 C728 1.160 . S
O731 Cd732 2.203 . S
Cd732 O731 2.203 . S
Cd732 O734 2.411 . S
Cd732 O735 2.333 . S
Cd732 O736 2.352 . S
Cd732 O740 2.277 . S
Cd732 O741 2.356 . S
C733 O738 1.209 . S
C733 O740 1.226 . S
O734 Cd730 2.273 . S
O734 Cd732 2.411 . S
O734 C737 1.320 . S
O735 Cd732 2.333 . S
O735 C737 1.214 . S
O736 Cd732 2.352 . S
O736 C739 1.258 . S
C737 O734 1.320 . S
C737 O735 1.214 . S
O738 Cd730 2.277 . S
O738 C733 1.209 . S
C739 O736 1.258 . S
C739 O741 1.282 . S
O740 Cd732 2.277 . S
O740 C733 1.226 . S
O741 Cd732 2.356 . S
O741 C739 1.282 . S
C742 O743 1.306 . S
C742 O745 1.160 . S
O743 C742 1.306 . S
O743 Cd744 2.228 . S
Cd744 O743 2.228 . S
Cd744 O748 2.273 . S
Cd744 O752 2.277 . S
O745 C742 1.160 . S
O745 Cd746 2.203 . S
Cd746 O745 2.203 . S
Cd746 O748 2.411 . S
Cd746 O749 2.333 . S
Cd746 O750 2.352 . S
Cd746 O754 2.277 . S
Cd746 O755 2.356 . S
C747 O752 1.209 . S
C747 O754 1.226 . S
O748 Cd744 2.273 . S
O748 Cd746 2.411 . S
O748 C751 1.320 . S
O749 Cd746 2.333 . S
O749 C751 1.214 . S
O750 Cd746 2.352 . S
O750 C753 1.258 . S
C751 O748 1.320 . S
C751 O749 1.214 . S
O752 Cd744 2.277 . S
O752 C747 1.209 . S
C753 O750 1.258 . S
C753 O755 1.282 . S
O754 Cd746 2.277 . S
O754 C747 1.226 . S
O755 Cd746 2.356 . S
O755 C753 1.282 . S
C756 O757 1.306 . S
C756 O759 1.160 . S
O757 C756 1.306 . S
O757 Cd758 2.228 . S
Cd758 O757 2.228 . S
Cd758 O762 2.273 . S
Cd758 O766 2.277 . S
O759 C756 1.160 . S
O759 Cd760 2.203 . S
Cd760 O759 2.203 . S
Cd760 O762 2.411 . S
Cd760 O763 2.333 . S
Cd760 O764 2.352 . S
Cd760 O768 2.277 . S
Cd760 O769 2.356 . S
C761 O766 1.209 . S
C761 O768 1.226 . S
O762 Cd758 2.273 . S
O762 Cd760 2.411 . S
O762 C765 1.320 . S
O763 Cd760 2.333 . S
O763 C765 1.214 . S
O764 Cd760 2.352 . S
O764 C767 1.258 . S
C765 O762 1.320 . S
C765 O763 1.214 . S
O766 Cd758 2.277 . S
O766 C761 1.209 . S
C767 O764 1.258 . S
C767 O769 1.282 . S
O768 Cd760 2.277 . S
O768 C761 1.226 . S
O769 Cd760 2.356 . S
O769 C767 1.282 . S
C770 O771 1.306 . S
C770 O773 1.160 . S
O771 C770 1.306 . S
O771 Cd772 2.228 . S
Cd772 O771 2.228 . S
Cd772 O776 2.273 . S
Cd772 O780 2.277 . S
O773 C770 1.160 . S
O773 Cd774 2.203 . S
Cd774 O773 2.203 . S
Cd774 O776 2.411 . S
Cd774 O777 2.333 . S
Cd774 O778 2.352 . S
Cd774 O782 2.277 . S
Cd774 O783 2.356 . S
C775 O780 1.209 . S
C775 O782 1.226 . S
O776 Cd772 2.273 . S
O776 Cd774 2.411 . S
O776 C779 1.320 . S
O777 Cd774 2.333 . S
O777 C779 1.214 . S
O778 Cd774 2.352 . S
O778 C781 1.258 . S
C779 O776 1.320 . S
C779 O777 1.214 . S
O780 Cd772 2.277 . S
O780 C775 1.209 . S
C781 O778 1.258 . S
C781 O783 1.282 . S
O782 Cd774 2.277 . S
O782 C775 1.226 . S
O783 Cd774 2.356 . S
O783 C781 1.282 . S
C784 O785 1.306 . S
C784 O787 1.160 . S
O785 C784 1.306 . S
O785 Cd786 2.228 . S
Cd786 O785 2.228 . S
Cd786 O790 2.273 . S
Cd786 O794 2.277 . S
O787 C784 1.160 . S
O787 Cd788 2.203 . S
Cd788 O787 2.203 . S
Cd788 O790 2.411 . S
Cd788 O791 2.333 . S
Cd788 O792 2.352 . S
Cd788 O796 2.277 . S
Cd788 O797 2.356 . S
C789 O794 1.209 . S
C789 O796 1.226 . S
O790 Cd786 2.273 . S
O790 Cd788 2.411 . S
O790 C793 1.320 . S
O791 Cd788 2.333 . S
O791 C793 1.214 . S
O792 Cd788 2.352 . S
O792 C795 1.258 . S
C793 O790 1.320 . S
C793 O791 1.214 . S
O794 Cd786 2.277 . S
O794 C789 1.209 . S
C795 O792 1.258 . S
C795 O797 1.282 . S
O796 Cd788 2.277 . S
O796 C789 1.226 . S
O797 Cd788 2.356 . S
O797 C795 1.282 . S
C798 O799 1.306 . S
C798 O801 1.160 . S
O799 C798 1.306 . S
O799 Cd800 2.228 . S
Cd800 O799 2.228 . S
Cd800 O804 2.273 . S
Cd800 O808 2.277 . S
O801 C798 1.160 . S
O801 Cd802 2.203 . S
Cd802 O801 2.203 . S
Cd802 O804 2.411 . S
Cd802 O805 2.333 . S
Cd802 O806 2.352 . S
Cd802 O810 2.277 . S
Cd802 O811 2.356 . S
C803 O808 1.209 . S
C803 O810 1.226 . S
O804 Cd800 2.273 . S
O804 Cd802 2.411 . S
O804 C807 1.320 . S
O805 Cd802 2.333 . S
O805 C807 1.214 . S
O806 Cd802 2.352 . S
O806 C809 1.258 . S
C807 O804 1.320 . S
C807 O805 1.214 . S
O808 Cd800 2.277 . S
O808 C803 1.209 . S
C809 O806 1.258 . S
C809 O811 1.282 . S
O810 Cd802 2.277 . S
O810 C803 1.226 . S
O811 Cd802 2.356 . S
O811 C809 1.282 . S
C812 O813 1.306 . S
C812 O815 1.160 . S
O813 C812 1.306 . S
O813 Cd814 2.228 . S
Cd814 O813 2.228 . S
Cd814 O818 2.273 . S
Cd814 O822 2.277 . S
O815 C812 1.160 . S
O815 Cd816 2.203 . S
Cd816 O815 2.203 . S
Cd816 O818 2.411 . S
Cd816 O819 2.333 . S
Cd816 O820 2.352 . S
Cd816 O824 2.277 . S
Cd816 O825 2.356 . S
C817 O822 1.209 . S
C817 O824 1.226 . S
O818 Cd814 2.273 . S
O818 Cd816 2.411 . S
O818 C821 1.320 . S
O819 Cd816 2.333 . S
O819 C821 1.214 . S
O820 Cd816 2.352 . S
O820 C823 1.258 . S
C821 O818 1.320 . S
C821 O819 1.214 . S
O822 Cd814 2.277 . S
O822 C817 1.209 . S
C823 O820 1.258 . S
C823 O825 1.282 . S
O824 Cd816 2.277 . S
O824 C817 1.226 . S
O825 Cd816 2.356 . S
O825 C823 1.282 . S
C826 O827 1.306 . S
C826 O829 1.160 . S
O827 C826 1.306 . S
O827 Cd828 2.228 . S
Cd828 O827 2.228 . S
Cd828 O832 2.273 . S
Cd828 O836 2.277 . S
O829 C826 1.160 . S
O829 Cd830 2.203 . S
Cd830 O829 2.203 . S
Cd830 O832 2.411 . S
Cd830 O833 2.333 . S
Cd830 O834 2.352 . S
Cd830 O838 2.277 . S
Cd830 O839 2.356 . S
C831 O836 1.209 . S
C831 O838 1.226 . S
O832 Cd828 2.273 . S
O832 Cd830 2.411 . S
O832 C835 1.320 . S
O833 Cd830 2.333 . S
O833 C835 1.214 . S
O834 Cd830 2.352 . S
O834 C837 1.258 . S
C835 O832 1.320 . S
C835 O833 1.214 . S
O836 Cd828 2.277 . S
O836 C831 1.209 . S
C837 O834 1.258 . S
C837 O839 1.282 . S
O838 Cd830 2.277 . S
O838 C831 1.226 . S
O839 Cd830 2.356 . S
O839 C837 1.282 . S
C840 O841 1.306 . S
C840 O843 1.160 . S
O841 C840 1.306 . S
O841 Cd842 2.228 . S
Cd842 O841 2.228 . S
Cd842 O846 2.273 . S
Cd842 O850 2.277 . S
O843 C840 1.160 . S
O843 Cd844 2.203 . S
Cd844 O843 2.203 . S
Cd844 O846 2.411 . S
Cd844 O847 2.333 . S
Cd844 O848 2.352 . S
Cd844 O852 2.277 . S
Cd844 O853 2.356 . S
C845 O850 1.209 . S
C845 O852 1.226 . S
O846 Cd842 2.273 . S
O846 Cd844 2.411 . S
O846 C849 1.320 . S
O847 Cd844 2.333 . S
O847 C849 1.214 . S
O848 Cd844 2.352 . S
O848 C851 1.258 . S
C849 O846 1.320 . S
C849 O847 1.214 . S
O850 Cd842 2.277 . S
O850 C845 1.209 . S
C851 O848 1.258 . S
C851 O853 1.282 . S
O852 Cd844 2.277 . S
O852 C845 1.226 . S
O853 Cd844 2.356 . S
O853 C851 1.282 . S
C854 O855 1.306 . S
C854 O857 1.160 . S
O855 C854 1.306 . S
O855 Cd856 2.228 . S
Cd856 O855 2.228 . S
Cd856 O860 2.273 . S
Cd856 O864 2.277 . S
O857 C854 1.160 . S
O857 Cd858 2.203 . S
Cd858 O857 2.203 . S
Cd858 O860 2.411 . S
Cd858 O861 2.333 . S
Cd858 O862 2.352 . S
Cd858 O866 2.277 . S
Cd858 O867 2.356 . S
C859 O864 1.209 . S
C859 O866 1.226 . S
O860 Cd856 2.273 . S
O860 Cd858 2.411 . S
O860 C863 1.320 . S
O861 Cd858 2.333 . S
O861 C863 1.214 . S
O862 Cd858 2.352 . S
O862 C865 1.258 . S
C863 O860 1.320 . S
C863 O861 1.214 . S
O864 Cd856 2.277 . S
O864 C859 1.209 . S
C865 O862 1.258 . S
C865 O867 1.282 . S
O866 Cd858 2.277 . S
O866 C859 1.226 . S
O867 Cd858 2.356 . S
O867 C865 1.282 . S
C868 O869 1.306 . S
C868 O871 1.160 . S
O869 C868 1.306 . S
O869 Cd870 2.228 . S
Cd870 O869 2.228 . S
Cd870 O874 2.273 . S
Cd870 O878 2.277 . S
O871 C868 1.160 . S
O871 Cd872 2.203 . S
Cd872 O871 2.203 . S
Cd872 O874 2.411 . S
Cd872 O875 2.333 . S
Cd872 O876 2.352 . S
Cd872 O880 2.277 . S
Cd872 O881 2.356 . S
C873 O878 1.209 . S
C873 O880 1.226 . S
O874 Cd870 2.273 . S
O874 Cd872 2.411 . S
O874 C877 1.320 . S
O875 Cd872 2.333 . S
O875 C877 1.214 . S
O876 Cd872 2.352 . S
O876 C879 1.258 . S
C877 O874 1.320 . S
C877 O875 1.214 . S
O878 Cd870 2.277 . S
O878 C873 1.209 . S
C879 O876 1.258 . S
C879 O881 1.282 . S
O880 Cd872 2.277 . S
O880 C873 1.226 . S
O881 Cd872 2.356 . S
O881 C879 1.282 . S
C882 O883 1.306 . S
C882 O885 1.160 . S
O883 C882 1.306 . S
O883 Cd884 2.228 . S
Cd884 O883 2.228 . S
Cd884 O888 2.273 . S
Cd884 O892 2.277 . S
O885 C882 1.160 . S
O885 Cd886 2.203 . S
Cd886 O885 2.203 . S
Cd886 O888 2.411 . S
Cd886 O889 2.333 . S
Cd886 O890 2.352 . S
Cd886 O894 2.277 . S
Cd886 O895 2.356 . S
C887 O892 1.209 . S
C887 O894 1.226 . S
O888 Cd884 2.273 . S
O888 Cd886 2.411 . S
O888 C891 1.320 . S
O889 Cd886 2.333 . S
O889 C891 1.214 . S
O890 Cd886 2.352 . S
O890 C893 1.258 . S
C891 O888 1.320 . S
C891 O889 1.214 . S
O892 Cd884 2.277 . S
O892 C887 1.209 . S
C893 O890 1.258 . S
C893 O895 1.282 . S
O894 Cd886 2.277 . S
O894 C887 1.226 . S
O895 Cd886 2.356 . S
O895 C893 1.282 . S
C896 O897 1.306 . S
C896 O899 1.160 . S
O897 C896 1.306 . S
O897 Cd898 2.228 . S
Cd898 O897 2.228 . S
Cd898 O902 2.273 . S
Cd898 O906 2.277 . S
O899 C896 1.160 . S
O899 Cd900 2.203 . S
Cd900 O899 2.203 . S
Cd900 O902 2.411 . S
Cd900 O903 2.333 . S
Cd900 O904 2.352 . S
Cd900 O908 2.277 . S
Cd900 O909 2.356 . S
C901 O906 1.209 . S
C901 O908 1.226 . S
O902 Cd898 2.273 . S
O902 Cd900 2.411 . S
O902 C905 1.320 . S
O903 Cd900 2.333 . S
O903 C905 1.214 . S
O904 Cd900 2.352 . S
O904 C907 1.258 . S
C905 O902 1.320 . S
C905 O903 1.214 . S
O906 Cd898 2.277 . S
O906 C901 1.209 . S
C907 O904 1.258 . S
C907 O909 1.282 . S
O908 Cd900 2.277 . S
O908 C901 1.226 . S
O909 Cd900 2.356 . S
O909 C907 1.282 . S
C910 O911 1.306 . S
C910 O913 1.160 . S
O911 C910 1.306 . S
O911 Cd912 2.228 . S
Cd912 O911 2.228 . S
Cd912 O916 2.273 . S
Cd912 O920 2.277 . S
O913 C910 1.160 . S
O913 Cd914 2.203 . S
Cd914 O913 2.203 . S
Cd914 O916 2.411 . S
Cd914 O917 2.333 . S
Cd914 O918 2.352 . S
Cd914 O922 2.277 . S
Cd914 O923 2.356 . S
C915 O920 1.209 . S
C915 O922 1.226 . S
O916 Cd912 2.273 . S
O916 Cd914 2.411 . S
O916 C919 1.320 . S
O917 Cd914 2.333 . S
O917 C919 1.214 . S
O918 Cd914 2.352 . S
O918 C921 1.258 . S
C919 O916 1.320 . S
C919 O917 1.214 . S
O920 Cd912 2.277 . S
O920 C915 1.209 . S
C921 O918 1.258 . S
C921 O923 1.282 . S
O922 Cd914 2.277 . S
O922 C915 1.226 . S
O923 Cd914 2.356 . S
O923 C921 1.282 . S
C924 O925 1.306 . S
C924 O927 1.160 . S
O925 C924 1.306 . S
O925 Cd926 2.228 . S
Cd926 O925 2.228 . S
Cd926 O930 2.273 . S
Cd926 O934 2.277 . S
O927 C924 1.160 . S
O927 Cd928 2.203 . S
Cd928 O927 2.203 . S
Cd928 O930 2.411 . S
Cd928 O931 2.333 . S
Cd928 O932 2.352 . S
Cd928 O936 2.277 . S
Cd928 O937 2.356 . S
C929 O934 1.209 . S
C929 O936 1.226 . S
O930 Cd926 2.273 . S
O930 Cd928 2.411 . S
O930 C933 1.320 . S
O931 Cd928 2.333 . S
O931 C933 1.214 . S
O932 Cd928 2.352 . S
O932 C935 1.258 . S
C933 O930 1.320 . S
C933 O931 1.214 . S
O934 Cd926 2.277 . S
O934 C929 1.209 . S
C935 O932 1.258 . S
C935 O937 1.282 . S
O936 Cd928 2.277 . S
O936 C929 1.226 . S
O937 Cd928 2.356 . S
O937 C935 1.282 . S
C938 O939 1.306 . S
C938 O941 1.160 . S
O939 C938 1.306 . S
O939 Cd940 2.228 . S
Cd940 O939 2.228 . S
Cd940 O944 2.273 . S
Cd940 O948 2.277 . S
O941 C938 1.160 . S
O941 Cd942 2.203 . S
Cd942 O941 2.203 . S
Cd942 O944 2.411 . S
Cd942 O945 2.333 . S
Cd942 O946 2.352 . S
Cd942 O950 2.277 . S
Cd942 O951 2.356 . S
C943 O948 1.209 . S
C943 O950 1.226 . S
O944 Cd940 2.273 . S
O944 Cd942 2.411 . S
O944 C947 1.320 . S
O945 Cd942 2.333 . S
O945 C947 1.214 . S
O946 Cd942 2.352 . S
O946 C949 1.258 . S
C947 O944 1.320 . S
C947 O945 1.214 . S
O948 Cd940 2.277 . S
O948 C943 1.209 . S
C949 O946 1.258 . S
C949 O951 1.282 . S
O950 Cd942 2.277 . S
O950 C943 1.226 . S
O951 Cd942 2.356 . S
O951 C949 1.282 . S
C952 O953 1.306 . S
C952 O955 1.160 . S
O953 C952 1.306 . S
O953 Cd954 2.228 . S
Cd954 O953 2.228 . S
Cd954 O958 2.273 . S
Cd954 O962 2.277 . S
O955 C952 1.160 . S
O955 Cd956 2.203 . S
Cd956 O955 2.203 . S
Cd956 O958 2.411 . S
Cd956 O959 2.333 . S
Cd956 O960 2.352 . S
Cd956 O964 2.277 . S
Cd956 O965 2.356 . S
C957 O962 1.209 . S
C957 O964 1.226 . S
O958 Cd954 2.273 . S
O958 Cd956 2.411 . S
O958 C961 1.320 . S
O959 Cd956 2.333 . S
O959 C961 1.214 . S
O960 Cd956 2.352 . S
O960 C963 1.258 . S
C961 O958 1.320 . S
C961 O959 1.214 . S
O962 Cd954 2.277 . S
O962 C957 1.209 . S
C963 O960 1.258 . S
C963 O965 1.282 . S
O964 Cd956 2.277 . S
O964 C957 1.226 . S
O965 Cd956 2.356 . S
O965 C963 1.282 . S
C966 O967 1.306 . S
C966 O969 1.160 . S
O967 C966 1.306 . S
O967 Cd968 2.228 . S
Cd968 O967 2.228 . S
Cd968 O972 2.273 . S
Cd968 O976 2.277 . S
O969 C966 1.160 . S
O969 Cd970 2.203 . S
Cd970 O969 2.203 . S
Cd970 O972 2.411 . S
Cd970 O973 2.333 . S
Cd970 O974 2.352 . S
Cd970 O978 2.277 . S
Cd970 O979 2.356 . S
C971 O976 1.209 . S
C971 O978 1.226 . S
O972 Cd968 2.273 . S
O972 Cd970 2.411 . S
O972 C975 1.320 . S
O973 Cd970 2.333 . S
O973 C975 1.214 . S
O974 Cd970 2.352 . S
O974 C977 1.258 . S
C975 O972 1.320 . S
C975 O973 1.214 . S
O976 Cd968 2.277 . S
O976 C971 1.209 . S
C977 O974 1.258 . S
C977 O979 1.282 . S
O978 Cd970 2.277 . S
O978 C971 1.226 . S
O979 Cd970 2.356 . S
O979 C977 1.282 . S
C980 O981 1.306 . S
C980 O983 1.160 . S
O981 C980 1.306 . S
O981 Cd982 2.228 . S
Cd982 O981 2.228 . S
Cd982 O986 2.273 . S
Cd982 O990 2.277 . S
O983 C980 1.160 . S
O983 Cd984 2.203 . S
Cd984 O983 2.203 . S
Cd984 O986 2.411 . S
Cd984 O987 2.333 . S
Cd984 O988 2.352 . S
Cd984 O992 2.277 . S
Cd984 O993 2.356 . S
C985 O990 1.209 . S
C985 O992 1.226 . S
O986 Cd982 2.273 . S
O986 Cd984 2.411 . S
O986 C989 1.320 . S
O987 Cd984 2.333 . S
O987 C989 1.214 . S
O988 Cd984 2.352 . S
O988 C991 1.258 . S
C989 O986 1.320 . S
C989 O987 1.214 . S
O990 Cd982 2.277 . S
O990 C985 1.209 . S
C991 O988 1.258 . S
C991 O993 1.282 . S
O992 Cd984 2.277 . S
O992 C985 1.226 . S
O993 Cd984 2.356 . S
O993 C991 1.282 . S
C994 O995 1.306 . S
C994 O997 1.160 . S
O995 C994 1.306 . S
O995 Cd996 2.228 . S
Cd996 O995 2.228 . S
Cd996 O1000 2.273 . S
Cd996 O1004 2.277 . S
O997 C994 1.160 . S
O997 Cd998 2.203 . S
Cd998 O997 2.203 . S
Cd998 O1000 2.411 . S
Cd998 O1001 2.333 . S
Cd998 O1002 2.352 . S
Cd998 O1006 2.277 . S
Cd998 O1007 2.356 . S
C999 O1004 1.209 . S
C999 O1006 1.226 . S
O1000 Cd996 2.273 . S
O1000 Cd998 2.411 . S
O1000 C1003 1.320 . S
O1001 Cd998 2.333 . S
O1001 C1003 1.214 . S
O1002 Cd998 2.352 . S
O1002 C1005 1.258 . S
C1003 O1000 1.320 . S
C1003 O1001 1.214 . S
O1004 Cd996 2.277 . S
O1004 C999 1.209 . S
C1005 O1002 1.258 . S
C1005 O1007 1.282 . S
O1006 Cd998 2.277 . S
O1006 C999 1.226 . S
O1007 Cd998 2.356 . S
O1007 C1005 1.282 . S
C1008 O1009 1.306 . S
C1008 O1011 1.160 . S
O1009 C1008 1.306 . S
O1009 Cd1010 2.228 . S
Cd1010 O1009 2.228 . S
Cd1010 O1014 2.273 . S
Cd1010 O1018 2.277 . S
O1011 C1008 1.160 . S
O1011 Cd1012 2.203 . S
Cd1012 O1011 2.203 . S
Cd1012 O1014 2.411 . S
Cd1012 O1015 2.333 . S
Cd1012 O1016 2.352 . S
Cd1012 O1020 2.277 . S
Cd1012 O1021 2.356 . S
C1013 O1018 1.209 . S
C1013 O1020 1.226 . S
O1014 Cd1010 2.273 . S
O1014 Cd1012 2.411 . S
O1014 C1017 1.320 . S
O1015 Cd1012 2.333 . S
O1015 C1017 1.214 . S
O1016 Cd1012 2.352 . S
O1016 C1019 1.258 . S
C1017 O1014 1.320 . S
C1017 O1015 1.214 . S
O1018 Cd1010 2.277 . S
O1018 C1013 1.209 . S
C1019 O1016 1.258 . S
C1019 O1021 1.282 . S
O1020 Cd1012 2.277 . S
O1020 C1013 1.226 . S
O1021 Cd1012 2.356 . S
O1021 C1019 1.282 . S
C1022 O1023 1.306 . S
C1022 O1025 1.160 . S
O1023 C1022 1.306 . S
O1023 Cd1024 2.228 . S
Cd1024 O1023 2.228 . S
Cd1024 O1028 2.273 . S
Cd1024 O1032 2.277 . S
O1025 C1022 1.160 . S
O1025 Cd1026 2.203 . S
Cd1026 O1025 2.203 . S
Cd1026 O1028 2.411 . S
Cd1026 O1029 2.333 . S
Cd1026 O1030 2.352 . S
Cd1026 O1034 2.277 . S
Cd1026 O1035 2.356 . S
C1027 O1032 1.209 . S
C1027 O1034 1.226 . S
O1028 Cd1024 2.273 . S
O1028 Cd1026 2.411 . S
O1028 C1031 1.320 . S
O1029 Cd1026 2.333 . S
O1029 C1031 1.214 . S
O1030 Cd1026 2.352 . S
O1030 C1033 1.258 . S
C1031 O1028 1.320 . S
C1031 O1029 1.214 . S
O1032 Cd1024 2.277 . S
O1032 C1027 1.209 . S
C1033 O1030 1.258 . S
C1033 O1035 1.282 . S
O1034 Cd1026 2.277 . S
O1034 C1027 1.226 . S
O1035 Cd1026 2.356 . S
O1035 C1033 1.282 . S
C1036 O1037 1.306 . S
C1036 O1039 1.160 . S
O1037 C1036 1.306 . S
O1037 Cd1038 2.228 . S
Cd1038 O1037 2.228 . S
Cd1038 O1042 2.273 . S
Cd1038 O1046 2.277 . S
O1039 C1036 1.160 . S
O1039 Cd1040 2.203 . S
Cd1040 O1039 2.203 . S
Cd1040 O1042 2.411 . S
Cd1040 O1043 2.333 . S
Cd1040 O1044 2.352 . S
Cd1040 O1048 2.277 . S
Cd1040 O1049 2.356 . S
C1041 O1046 1.209 . S
C1041 O1048 1.226 . S
O1042 Cd1038 2.273 . S
O1042 Cd1040 2.411 . S
O1042 C1045 1.320 . S
O1043 Cd1040 2.333 . S
O1043 C1045 1.214 . S
O1044 Cd1040 2.352 . S
O1044 C1047 1.258 . S
C1045 O1042 1.320 . S
C1045 O1043 1.214 . S
O1046 Cd1038 2.277 . S
O1046 C1041 1.209 . S
C1047 O1044 1.258 . S
C1047 O1049 1.282 . S
O1048 Cd1040 2.277 . S
O1048 C1041 1.226 . S
O1049 Cd1040 2.356 . S
O1049 C1047 1.282 . S
C1050 O1051 1.306 . S
C1050 O1053 1.160 . S
O1051 C1050 1.306 . S
O1051 Cd1052 2.228 . S
Cd1052 O1051 2.228 . S
Cd1052 O1056 2.273 . S
Cd1052 O1060 2.277 . S
O1053 C1050 1.160 . S
O1053 Cd1054 2.203 . S
Cd1054 O1053 2.203 . S
Cd1054 O1056 2.411 . S
Cd1054 O1057 2.333 . S
Cd1054 O1058 2.352 . S
Cd1054 O1062 2.277 . S
Cd1054 O1063 2.356 . S
C1055 O1060 1.209 . S
C1055 O1062 1.226 . S
O1056 Cd1052 2.273 . S
O1056 Cd1054 2.411 . S
O1056 C1059 1.320 . S
O1057 Cd1054 2.333 . S
O1057 C1059 1.214 . S
O1058 Cd1054 2.352 . S
O1058 C1061 1.258 . S
C1059 O1056 1.320 . S
C1059 O1057 1.214 . S
O1060 Cd1052 2.277 . S
O1060 C1055 1.209 . S
C1061 O1058 1.258 . S
C1061 O1063 1.282 . S
O1062 Cd1054 2.277 . S
O1062 C1055 1.226 . S
O1063 Cd1054 2.356 . S
O1063 C1061 1.282 . S
C1064 O1065 1.306 . S
C1064 O1067 1.160 . S
O1065 C1064 1.306 . S
O1065 Cd1066 2.228 . S
Cd1066 O1065 2.228 . S
Cd1066 O1070 2.273 . S
Cd1066 O1074 2.277 . S
O1067 C1064 1.160 . S
O1067 Cd1068 2.203 . S
Cd1068 O1067 2.203 . S
Cd1068 O1070 2.411 . S
Cd1068 O1071 2.333 . S
Cd1068 O1072 2.352 . S
Cd1068 O1076 2.277 . S
Cd1068 O1077 2.356 . S
C1069 O1074 1.209 . S
C1069 O1076 1.226 . S
O1070 Cd1066 2.273 . S
O1070 Cd1068 2.411 . S
O1070 C1073 1.320 . S
O1071 Cd1068 2.333 . S
O1071 C1073 1.214 . S
O1072 Cd1068 2.352 . S
O1072 C1075 1.258 . S
C1073 O1070 1.320 . S
C1073 O1071 1.214 . S
O1074 Cd1066 2.277 . S
O1074 C1069 1.209 . S
C1075 O1072 1.258 . S
C1075 O1077 1.282 . S
O1076 Cd1068 2.277 . S
O1076 C1069 1.226 . S
O1077 Cd1068 2.356 . S
O1077 C1075 1.282 . S
C1078 O1079 1.306 . S
C1078 O1081 1.160 . S
O1079 C1078 1.306 . S
O1079 Cd1080 2.228 . S
Cd1080 O1079 2.228 . S
Cd1080 O1084 2.273 . S
Cd1080 O1088 2.277 . S
O1081 C1078 1.160 . S
O1081 Cd1082 2.203 . S
Cd1082 O1081 2.203 . S
Cd1082 O1084 2.411 . S
Cd1082 O1085 2.333 . S
Cd1082 O1086 2.352 . S
Cd1082 O1090 2.277 . S
Cd1082 O1091 2.356 . S
C1083 O1088 1.209 . S
C1083 O1090 1.226 . S
O1084 Cd1080 2.273 . S
O1084 Cd1082 2.411 . S
O1084 C1087 1.320 . S
O1085 Cd1082 2.333 . S
O1085 C1087 1.214 . S
O1086 Cd1082 2.352 . S
O1086 C1089 1.258 . S
C1087 O1084 1.320 . S
C1087 O1085 1.214 . S
O1088 Cd1080 2.277 . S
O1088 C1083 1.209 . S
C1089 O1086 1.258 . S
C1089 O1091 1.282 . S
O1090 Cd1082 2.277 . S
O1090 C1083 1.226 . S
O1091 Cd1082 2.356 . S
O1091 C1089 1.282 . S
C1092 O1093 1.306 . S
C1092 O1095 1.160 . S
O1093 C1092 1.306 . S
O1093 Cd1094 2.228 . S
Cd1094 O1093 2.228 . S
Cd1094 O1098 2.273 . S
Cd1094 O1102 2.277 . S
O1095 C1092 1.160 . S
O1095 Cd1096 2.203 . S
Cd1096 O1095 2.203 . S
Cd1096 O1098 2.411 . S
Cd1096 O1099 2.333 . S
Cd1096 O1100 2.352 . S
Cd1096 O1104 2.277 . S
Cd1096 O1105 2.356 . S
C1097 O1102 1.209 . S
C1097 O1104 1.226 . S
O1098 Cd1094 2.273 . S
O1098 Cd1096 2.411 . S
O1098 C1101 1.320 . S
O1099 Cd1096 2.333 . S
O1099 C1101 1.214 . S
O1100 Cd1096 2.352 . S
O1100 C1103 1.258 . S
C1101 O1098 1.320 . S
C1101 O1099 1.214 . S
O1102 Cd1094 2.277 . S
O1102 C1097 1.209 . S
C1103 O1100 1.258 . S
C1103 O1105 1.282 . S
O1104 Cd1096 2.277 . S
O1104 C1097 1.226 . S
O1105 Cd1096 2.356 . S
O1105 C1103 1.282 . S
C1106 O1107 1.306 . S
C1106 O1109 1.160 . S
O1107 C1106 1.306 . S
O1107 Cd1108 2.228 . S
Cd1108 O1107 2.228 . S
Cd1108 O1112 2.273 . S
Cd1108 O1116 2.277 . S
O1109 C1106 1.160 . S
O1109 Cd1110 2.203 . S
Cd1110 O1109 2.203 . S
Cd1110 O1112 2.411 . S
Cd1110 O1113 2.333 . S
Cd1110 O1114 2.352 . S
Cd1110 O1118 2.277 . S
Cd1110 O1119 2.356 . S
C1111 O1116 1.209 . S
C1111 O1118 1.226 . S
O1112 Cd1108 2.273 . S
O1112 Cd1110 2.411 . S
O1112 C1115 1.320 . S
O1113 Cd1110 2.333 . S
O1113 C1115 1.214 . S
O1114 Cd1110 2.352 . S
O1114 C1117 1.258 . S
C1115 O1112 1.320 . S
C1115 O1113 1.214 . S
O1116 Cd1108 2.277 . S
O1116 C1111 1.209 . S
C1117 O1114 1.258 . S
C1117 O1119 1.282 . S
O1118 Cd1110 2.277 . S
O1118 C1111 1.226 . S
O1119 Cd1110 2.356 . S
O1119 C1117 1.282 . S
C1120 O1121 1.306 . S
C1120 O1123 1.160 . S
O1121 C1120 1.306 . S
O1121 Cd1122 2.228 . S
Cd1122 O1121 2.228 . S
Cd1122 O1126 2.273 . S
Cd1122 O1130 2.277 . S
O1123 C1120 1.160 . S
O1123 Cd1124 2.203 . S
Cd1124 O1123 2.203 . S
Cd1124 O1126 2.411 . S
Cd1124 O1127 2.333 . S
Cd1124 O1128 2.352 . S
Cd1124 O1132 2.277 . S
Cd1124 O1133 2.356 . S
C1125 O1130 1.209 . S
C1125 O1132 1.226 . S
O1126 Cd1122 2.273 . S
O1126 Cd1124 2.411 . S
O1126 C1129 1.320 . S
O1127 Cd1124 2.333 . S
O1127 C1129 1.214 . S
O1128 Cd1124 2.352 . S
O1128 C1131 1.258 . S
C1129 O1126 1.320 . S
C1129 O1127 1.214 . S
O1130 Cd1122 2.277 . S
O1130 C1125 1.209 . S
C1131 O1128 1.258 . S
C1131 O1133 1.282 . S
O1132 Cd1124 2.277 . S
O1132 C1125 1.226 . S
O1133 Cd1124 2.356 . S
O1133 C1131 1.282 . S
C1134 O1135 1.306 . S
C1134 O1137 1.160 . S
O1135 C1134 1.306 . S
O1135 Cd1136 2.228 . S
Cd1136 O1135 2.228 . S
Cd1136 O1140 2.273 . S
Cd1136 O1144 2.277 . S
O1137 C1134 1.160 . S
O1137 Cd1138 2.203 . S
Cd1138 O1137 2.203 . S
Cd1138 O1140 2.411 . S
Cd1138 O1141 2.333 . S
Cd1138 O1142 2.352 . S
Cd1138 O1146 2.277 . S
Cd1138 O1147 2.356 . S
C1139 O1144 1.209 . S
C1139 O1146 1.226 . S
O1140 Cd1136 2.273 . S
O1140 Cd1138 2.411 . S
O1140 C1143 1.320 . S
O1141 Cd1138 2.333 . S
O1141 C1143 1.214 . S
O1142 Cd1138 2.352 . S
O1142 C1145 1.258 . S
C1143 O1140 1.320 . S
C1143 O1141 1.214 . S
O1144 Cd1136 2.277 . S
O1144 C1139 1.209 . S
C1145 O1142 1.258 . S
C1145 O1147 1.282 . S
O1146 Cd1138 2.277 . S
O1146 C1139 1.226 . S
O1147 Cd1138 2.356 . S
O1147 C1145 1.282 . S
C1148 O1149 1.306 . S
C1148 O1151 1.160 . S
O1149 C1148 1.306 . S
O1149 Cd1150 2.228 . S
Cd1150 O1149 2.228 . S
Cd1150 O1154 2.273 . S
Cd1150 O1158 2.277 . S
O1151 C1148 1.160 . S
O1151 Cd1152 2.203 . S
Cd1152 O1151 2.203 . S
Cd1152 O1154 2.411 . S
Cd1152 O1155 2.333 . S
Cd1152 O1156 2.352 . S
Cd1152 O1160 2.277 . S
Cd1152 O1161 2.356 . S
C1153 O1158 1.209 . S
C1153 O1160 1.226 . S
O1154 Cd1150 2.273 . S
O1154 Cd1152 2.411 . S
O1154 C1157 1.320 . S
O1155 Cd1152 2.333 . S
O1155 C1157 1.214 . S
O1156 Cd1152 2.352 . S
O1156 C1159 1.258 . S
C1157 O1154 1.320 . S
C1157 O1155 1.214 . S
O1158 Cd1150 2.277 . S
O1158 C1153 1.209 . S
C1159 O1156 1.258 . S
C1159 O1161 1.282 . S
O1160 Cd1152 2.277 . S
O1160 C1153 1.226 . S
O1161 Cd1152 2.356 . S
O1161 C1159 1.282 . S
C1162 O1163 1.306 . S
C1162 O1165 1.160 . S
O1163 C1162 1.306 . S
O1163 Cd1164 2.228 . S
Cd1164 O1163 2.228 . S
Cd1164 O1168 2.273 . S
Cd1164 O1172 2.277 . S
O1165 C1162 1.160 . S
O1165 Cd1166 2.203 . S
Cd1166 O1165 2.203 . S
Cd1166 O1168 2.411 . S
Cd1166 O1169 2.333 . S
Cd1166 O1170 2.352 . S
Cd1166 O1174 2.277 . S
Cd1166 O1175 2.356 . S
C1167 O1172 1.209 . S
C1167 O1174 1.226 . S
O1168 Cd1164 2.273 . S
O1168 Cd1166 2.411 . S
O1168 C1171 1.320 . S
O1169 Cd1166 2.333 . S
O1169 C1171 1.214 . S
O1170 Cd1166 2.352 . S
O1170 C1173 1.258 . S
C1171 O1168 1.320 . S
C1171 O1169 1.214 . S
O1172 Cd1164 2.277 . S
O1172 C1167 1.209 . S
C1173 O1170 1.258 . S
C1173 O1175 1.282 . S
O1174 Cd1166 2.277 . S
O1174 C1167 1.226 . S
O1175 Cd1166 2.356 . S
O1175 C1173 1.282 . S
C1176 O1177 1.306 . S
C1176 O1179 1.160 . S
O1177 C1176 1.306 . S
O1177 Cd1178 2.228 . S
Cd1178 O1177 2.228 . S
Cd1178 O1182 2.273 . S
Cd1178 O1186 2.277 . S
O1179 C1176 1.160 . S
O1179 Cd1180 2.203 . S
Cd1180 O1179 2.203 . S
Cd1180 O1182 2.411 . S
Cd1180 O1183 2.333 . S
Cd1180 O1184 2.352 . S
Cd1180 O1188 2.277 . S
Cd1180 O1189 2.356 . S
C1181 O1186 1.209 . S
C1181 O1188 1.226 . S
O1182 Cd1178 2.273 . S
O1182 Cd1180 2.411 . S
O1182 C1185 1.320 . S
O1183 Cd1180 2.333 . S
O1183 C1185 1.214 . S
O1184 Cd1180 2.352 . S
O1184 C1187 1.258 . S
C1185 O1182 1.320 . S
C1185 O1183 1.214 . S
O1186 Cd1178 2.277 . S
O1186 C1181 1.209 . S
C1187 O1184 1.258 . S
C1187 O1189 1.282 . S
O1188 Cd1180 2.277 . S
O1188 C1181 1.226 . S
O1189 Cd1180 2.356 . S
O1189 C1187 1.282 . S
C1190 O1191 1.306 . S
C1190 O1193 1.160 . S
O1191 C1190 1.306 . S
O1191 Cd1192 2.228 . S
Cd1192 O1191 2.228 . S
Cd1192 O1196 2.273 . S
Cd1192 O1200 2.277 . S
O1193 C1190 1.160 . S
O1193 Cd1194 2.203 . S
Cd1194 O1193 2.203 . S
Cd1194 O1196 2.411 . S
Cd1194 O1197 2.333 . S
Cd1194 O1198 2.352 . S
Cd1194 O1202 2.277 . S
Cd1194 O1203 2.356 . S
C1195 O1200 1.209 . S
C1195 O1202 1.226 . S
O1196 Cd1192 2.273 . S
O1196 Cd1194 2.411 . S
O1196 C1199 1.320 . S
O1197 Cd1194 2.333 . S
O1197 C1199 1.214 . S
O1198 Cd1194 2.352 . S
O1198 C1201 1.258 . S
C1199 O1196 1.320 . S
C1199 O1197 1.214 . S
O1200 Cd1192 2.277 . S
O1200 C1195 1.209 . S
C1201 O1198 1.258 . S
C1201 O1203 1.282 . S
O1202 Cd1194 2.277 . S
O1202 C1195 1.226 . S
O1203 Cd1194 2.356 . S
O1203 C1201 1.282 . S
C1204 O1205 1.306 . S
C1204 O1207 1.160 . S
O1205 C1204 1.306 . S
O1205 Cd1206 2.228 . S
Cd1206 O1205 2.228 . S
Cd1206 O1210 2.273 . S
Cd1206 O1214 2.277 . S
O1207 C1204 1.160 . S
O1207 Cd1208 2.203 . S
Cd1208 O1207 2.203 . S
Cd1208 O1210 2.411 . S
Cd1208 O1211 2.333 . S
Cd1208 O1212 2.352 . S
Cd1208 O1216 2.277 . S
Cd1208 O1217 2.356 . S
C1209 O1214 1.209 . S
C1209 O1216 1.226 . S
O1210 Cd1206 2.273 . S
O1210 Cd1208 2.411 . S
O1210 C1213 1.320 . S
O1211 Cd1208 2.333 . S
O1211 C1213 1.214 . S
O1212 Cd1208 2.352 . S
O1212 C1215 1.258 . S
C1213 O1210 1.320 . S
C1213 O1211 1.214 . S
O1214 Cd1206 2.277 . S
O1214 C1209 1.209 . S
C1215 O1212 1.258 . S
C1215 O1217 1.282 . S
O1216 Cd1208 2.277 . S
O1216 C1209 1.226 . S
O1217 Cd1208 2.356 . S
O1217 C1215 1.282 . S
C1218 O1219 1.306 . S
C1218 O1221 1.160 . S
O1219 C1218 1.306 . S
O1219 Cd1220 2.228 . S
Cd1220 O1219 2.228 . S
Cd1220 O1224 2.273 . S
Cd1220 O1228 2.277 . S
O1221 C1218 1.160 . S
O1221 Cd1222 2.203 . S
Cd1222 O1221 2.203 . S
Cd1222 O1224 2.411 . S
Cd1222 O1225 2.333 . S
Cd1222 O1226 2.352 . S
Cd1222 O1230 2.277 . S
Cd1222 O1231 2.356 . S
C1223 O1228 1.209 . S
C1223 O1230 1.226 . S
O1224 Cd1220 2.273 . S
O1224 Cd1222 2.411 . S
O1224 C1227 1.320 . S
O1225 Cd1222 2.333 . S
O1225 C1227 1.214 . S
O1226 Cd1222 2.352 . S
O1226 C1229 1.258 . S
C1227 O1224 1.320 . S
C1227 O1225 1.214 . S
O1228 Cd1220 2.277 . S
O1228 C1223 1.209 . S
C1229 O1226 1.258 . S
C1229 O1231 1.282 . S
O1230 Cd1222 2.277 . S
O1230 C1223 1.226 . S
O1231 Cd1222 2.356 . S
O1231 C1229 1.282 . S
C1232 O1233 1.306 . S
C1232 O1235 1.160 . S
O1233 C1232 1.306 . S
O1233 Cd1234 2.228 . S
Cd1234 O1233 2.228 . S
Cd1234 O1238 2.273 . S
Cd1234 O1242 2.277 . S
O1235 C1232 1.160 . S
O1235 Cd1236 2.203 . S
Cd1236 O1235 2.203 . S
Cd1236 O1238 2.411 . S
Cd1236 O1239 2.333 . S
Cd1236 O1240 2.352 . S
Cd1236 O1244 2.277 . S
Cd1236 O1245 2.356 . S
C1237 O1242 1.209 . S
C1237 O1244 1.226 . S
O1238 Cd1234 2.273 . S
O1238 Cd1236 2.411 . S
O1238 C1241 1.320 . S
O1239 Cd1236 2.333 . S
O1239 C1241 1.214 . S
O1240 Cd1236 2.352 . S
O1240 C1243 1.258 . S
C1241 O1238 1.320 . S
C1241 O1239 1.214 . S
O1242 Cd1234 2.277 . S
O1242 C1237 1.209 . S
C1243 O1240 1.258 . S
C1243 O1245 1.282 . S
O1244 Cd1236 2.277 . S
O1244 C1237 1.226 . S
O1245 Cd1236 2.356 . S
O1245 C1243 1.282 . S
C1246 O1247 1.306 . S
C1246 O1249 1.160 . S
O1247 C1246 1.306 . S
O1247 Cd1248 2.228 . S
Cd1248 O1247 2.228 . S
Cd1248 O1252 2.273 . S
Cd1248 O1256 2.277 . S
O1249 C1246 1.160 . S
O1249 Cd1250 2.203 . S
Cd1250 O1249 2.203 . S
Cd1250 O1252 2.411 . S
Cd1250 O1253 2.333 . S
Cd1250 O1254 2.352 . S
Cd1250 O1258 2.277 . S
Cd1250 O1259 2.356 . S
C1251 O1256 1.209 . S
C1251 O1258 1.226 . S
O1252 Cd1248 2.273 . S
O1252 Cd1250 2.411 . S
O1252 C1255 1.320 . S
O1253 Cd1250 2.333 . S
O1253 C1255 1.214 . S
O1254 Cd1250 2.352 . S
O1254 C1257 1.258 . S
C1255 O1252 1.320 . S
C1255 O1253 1.214 . S
O1256 Cd1248 2.277 . S
O1256 C1251 1.209 . S
C1257 O1254 1.258 . S
C1257 O1259 1.282 . S
O1258 Cd1250 2.277 . S
O1258 C1251 1.226 . S
O1259 Cd1250 2.356 . S
O1259 C1257 1.282 . S
C1260 O1261 1.306 . S
C1260 O1263 1.160 . S
O1261 C1260 1.306 . S
O1261 Cd1262 2.228 . S
Cd1262 O1261 2.228 . S
Cd1262 O1266 2.273 . S
Cd1262 O1270 2.277 . S
O1263 C1260 1.160 . S
O1263 Cd1264 2.203 . S
Cd1264 O1263 2.203 . S
Cd1264 O1266 2.411 . S
Cd1264 O1267 2.333 . S
Cd1264 O1268 2.352 . S
Cd1264 O1272 2.277 . S
Cd1264 O1273 2.356 . S
C1265 O1270 1.209 . S
C1265 O1272 1.226 . S
O1266 Cd1262 2.273 . S
O1266 Cd1264 2.411 . S
O1266 C1269 1.320 . S
O1267 Cd1264 2.333 . S
O1267 C1269 1.214 . S
O1268 Cd1264 2.352 . S
O1268 C1271 1.258 . S
C1269 O1266 1.320 . S
C1269 O1267 1.214 . S
O1270 Cd1262 2.277 . S
O1270 C1265 1.209 . S
C1271 O1268 1.258 . S
C1271 O1273 1.282 . S
O1272 Cd1264 2.277 . S
O1272 C1265 1.226 . S
O1273 Cd1264 2.356 . S
O1273 C1271 1.282 . S
C1274 O1275 1.306 . S
C1274 O1277 1.160 . S
O1275 C1274 1.306 . S
O1275 Cd1276 2.228 . S
Cd1276 O1275 2.228 . S
Cd1276 O1280 2.273 . S
Cd1276 O1284 2.277 . S
O1277 C1274 1.160 . S
O1277 Cd1278 2.203 . S
Cd1278 O1277 2.203 . S
Cd1278 O1280 2.411 . S
Cd1278 O1281 2.333 . S
Cd1278 O1282 2.352 . S
Cd1278 O1286 2.277 . S
Cd1278 O1287 2.356 . S
C1279 O1284 1.209 . S
C1279 O1286 1.226 . S
O1280 Cd1276 2.273 . S
O1280 Cd1278 2.411 . S
O1280 C1283 1.320 . S
O1281 Cd1278 2.333 . S
O1281 C1283 1.214 . S
O1282 Cd1278 2.352 . S
O1282 C1285 1.258 . S
C1283 O1280 1.320 . S
C1283 O1281 1.214 . S
O1284 Cd1276 2.277 . S
O1284 C1279 1.209 . S
C1285 O1282 1.258 . S
C1285 O1287 1.282 . S
O1286 Cd1278 2.277 . S
O1286 C1279 1.226 . S
O1287 Cd1278 2.356 . S
O1287 C1285 1.282 . S
C1288 O1289 1.306 . S
C1288 O1291 1.160 . S
O1289 C1288 1.306 . S
O1289 Cd1290 2.228 . S
Cd1290 O1289 2.228 . S
Cd1290 O1294 2.273 . S
Cd1290 O1298 2.277 . S
O1291 C1288 1.160 . S
O1291 Cd1292 2.203 . S
Cd1292 O1291 2.203 . S
Cd1292 O1294 2.411 . S
Cd1292 O1295 2.333 . S
Cd1292 O1296 2.352 . S
Cd1292 O1300 2.277 . S
Cd1292 O1301 2.356 . S
C1293 O1298 1.209 . S
C1293 O1300 1.226 . S
O1294 Cd1290 2.273 . S
O1294 Cd1292 2.411 . S
O1294 C1297 1.320 . S
O1295 Cd1292 2.333 . S
O1295 C1297 1.214 . S
O1296 Cd1292 2.352 . S
O1296 C1299 1.258 . S
C1297 O1294 1.320 . S
C1297 O1295 1.214 . S
O1298 Cd1290 2.277 . S
O1298 C1293 1.209 . S
C1299 O1296 1.258 . S
C1299 O1301 1.282 . S
O1300 Cd1292 2.277 . S
O1300 C1293 1.226 . S
O1301 Cd1292 2.356 . S
O1301 C1299 1.282 . S
C1302 O1303 1.306 . S
C1302 O1305 1.160 . S
O1303 C1302 1.306 . S
O1303 Cd1304 2.228 . S
Cd1304 O1303 2.228 . S
Cd1304 O1308 2.273 . S
Cd1304 O1312 2.277 . S
O1305 C1302 1.160 . S
O1305 Cd1306 2.203 . S
Cd1306 O1305 2.203 . S
Cd1306 O1308 2.411 . S
Cd1306 O1309 2.333 . S
Cd1306 O1310 2.352 . S
Cd1306 O1314 2.277 . S
Cd1306 O1315 2.356 . S
C1307 O1312 1.209 . S
C1307 O1314 1.226 . S
O1308 Cd1304 2.273 . S
O1308 Cd1306 2.411 . S
O1308 C1311 1.320 . S
O1309 Cd1306 2.333 . S
O1309 C1311 1.214 . S
O1310 Cd1306 2.352 . S
O1310 C1313 1.258 . S
C1311 O1308 1.320 . S
C1311 O1309 1.214 . S
O1312 Cd1304 2.277 . S
O1312 C1307 1.209 . S
C1313 O1310 1.258 . S
C1313 O1315 1.282 . S
O1314 Cd1306 2.277 . S
O1314 C1307 1.226 . S
O1315 Cd1306 2.356 . S
O1315 C1313 1.282 . S
C1316 O1317 1.306 . S
C1316 O1319 1.160 . S
O1317 C1316 1.306 . S
O1317 Cd1318 2.228 . S
Cd1318 O1317 2.228 . S
Cd1318 O1322 2.273 . S
Cd1318 O1326 2.277 . S
O1319 C1316 1.160 . S
O1319 Cd1320 2.203 . S
Cd1320 O1319 2.203 . S
Cd1320 O1322 2.411 . S
Cd1320 O1323 2.333 . S
Cd1320 O1324 2.352 . S
Cd1320 O1328 2.277 . S
Cd1320 O1329 2.356 . S
C1321 O1326 1.209 . S
C1321 O1328 1.226 . S
O1322 Cd1318 2.273 . S
O1322 Cd1320 2.411 . S
O1322 C1325 1.320 . S
O1323 Cd1320 2.333 . S
O1323 C1325 1.214 . S
O1324 Cd1320 2.352 . S
O1324 C1327 1.258 . S
C1325 O1322 1.320 . S
C1325 O1323 1.214 . S
O1326 Cd1318 2.277 . S
O1326 C1321 1.209 . S
C1327 O1324 1.258 . S
C1327 O1329 1.282 . S
O1328 Cd1320 2.277 . S
O1328 C1321 1.226 . S
O1329 Cd1320 2.356 . S
O1329 C1327 1.282 . S
C1330 O1331 1.306 . S
C1330 O1333 1.160 . S
O1331 C1330 1.306 . S
O1331 Cd1332 2.228 . S
Cd1332 O1331 2.228 . S
Cd1332 O1336 2.273 . S
Cd1332 O1340 2.277 . S
O1333 C1330 1.160 . S
O1333 Cd1334 2.203 . S
Cd1334 O1333 2.203 . S
Cd1334 O1336 2.411 . S
Cd1334 O1337 2.333 . S
Cd1334 O1338 2.352 . S
Cd1334 O1342 2.277 . S
Cd1334 O1343 2.356 . S
C1335 O1340 1.209 . S
C1335 O1342 1.226 . S
O1336 Cd1332 2.273 . S
O1336 Cd1334 2.411 . S
O1336 C1339 1.320 . S
O1337 Cd1334 2.333 . S
O1337 C1339 1.214 . S
O1338 Cd1334 2.352 . S
O1338 C1341 1.258 . S
C1339 O1336 1.320 . S
C1339 O1337 1.214 . S
O1340 Cd1332 2.277 . S
O1340 C1335 1.209 . S
C1341 O1338 1.258 . S
C1341 O1343 1.282 . S
O1342 Cd1334 2.277 . S
O1342 C1335 1.226 . S
O1343 Cd1334 2.356 . S
O1343 C1341 1.282 . S
C1344 C1345 1.387 . S
C1344 H1348 0.950 . S
C1344 C1353 1.390 . S
C1345 C1344 1.387 . S
C1345 C1347 1.387 . S
H1346 C1353 0.950 . S
C1347 C1345 1.387 . S
C1347 C1349 1.390 . S
C1347 H1351 0.950 . S
H1348 C1344 0.950 . S
C1349 C1347 1.390 . S
C1349 C1350 1.387 . S
C1349 H1352 0.950 . S
C1350 C1349 1.387 . S
C1350 C1353 1.387 . S
H1351 C1347 0.950 . S
H1352 C1349 0.950 . S
C1353 C1344 1.390 . S
C1353 H1346 0.950 . S
C1353 C1350 1.387 . S
C1354 C1355 1.387 . S
C1354 H1358 0.950 . S
C1354 C1363 1.390 . S
C1355 C1354 1.387 . S
C1355 C1357 1.387 . S
H1356 C1363 0.950 1_455 S
C1357 C1355 1.387 . S
C1357 C1359 1.390 . S
C1357 H1361 0.950 . S
H1358 C1354 0.950 . S
C1359 C1357 1.390 . S
C1359 C1360 1.387 1_655 S
C1359 H1362 0.950 . S
C1360 C1359 1.387 1_455 S
C1360 C1363 1.387 1_455 S
H1361 C1357 0.950 . S
H1362 C1359 0.950 . S
C1363 C1354 1.390 . S
C1363 H1356 0.950 1_655 S
C1363 C1360 1.387 1_655 S
C1364 C1365 1.387 . S
C1364 H1368 0.950 . S
C1364 C1373 1.390 . S
C1365 C1364 1.387 . S
C1365 C1367 1.387 . S
H1366 C1373 0.950 . S
C1367 C1365 1.387 . S
C1367 C1369 1.390 . S
C1367 H1371 0.950 . S
H1368 C1364 0.950 . S
C1369 C1367 1.390 . S
C1369 C1370 1.387 . S
C1369 H1372 0.950 . S
C1370 C1369 1.387 . S
C1370 C1373 1.387 . S
H1371 C1367 0.950 . S
H1372 C1369 0.950 . S
C1373 C1364 1.390 . S
C1373 H1366 0.950 . S
C1373 C1370 1.387 . S
C1374 C1375 1.387 . S
C1374 H1378 0.950 . S
C1374 C1383 1.390 . S
C1375 C1374 1.387 . S
C1375 C1377 1.387 . S
H1376 C1383 0.950 . S
C1377 C1375 1.387 . S
C1377 C1379 1.390 . S
C1377 H1381 0.950 . S
H1378 C1374 0.950 . S
C1379 C1377 1.390 . S
C1379 C1380 1.387 . S
C1379 H1382 0.950 . S
C1380 C1379 1.387 . S
C1380 C1383 1.387 . S
H1381 C1377 0.950 . S
H1382 C1379 0.950 . S
C1383 C1374 1.390 . S
C1383 H1376 0.950 . S
C1383 C1380 1.387 . S
C1384 C1385 1.387 . S
C1384 H1388 0.950 . S
C1384 C1393 1.390 . S
C1385 C1384 1.387 . S
C1385 C1387 1.387 . S
H1386 C1393 0.950 . S
C1387 C1385 1.387 . S
C1387 C1389 1.390 . S
C1387 H1391 0.950 . S
H1388 C1384 0.950 . S
C1389 C1387 1.390 . S
C1389 C1390 1.387 . S
C1389 H1392 0.950 . S
C1390 C1389 1.387 . S
C1390 C1393 1.387 . S
H1391 C1387 0.950 . S
H1392 C1389 0.950 . S
C1393 C1384 1.390 . S
C1393 H1386 0.950 . S
C1393 C1390 1.387 . S
C1394 C1395 1.387 . S
C1394 H1398 0.950 . S
C1394 C1403 1.390 . S
C1395 C1394 1.387 . S
C1395 C1397 1.387 . S
H1396 C1403 0.950 . S
C1397 C1395 1.387 . S
C1397 C1399 1.390 . S
C1397 H1401 0.950 . S
H1398 C1394 0.950 . S
C1399 C1397 1.390 . S
C1399 C1400 1.387 . S
C1399 H1402 0.950 . S
C1400 C1399 1.387 . S
C1400 C1403 1.387 . S
H1401 C1397 0.950 . S
H1402 C1399 0.950 . S
C1403 C1394 1.390 . S
C1403 H1396 0.950 . S
C1403 C1400 1.387 . S
C1404 C1405 1.387 . S
C1404 H1408 0.950 . S
C1404 C1413 1.390 . S
C1405 C1404 1.387 . S
C1405 C1407 1.387 . S
H1406 C1413 0.950 . S
C1407 C1405 1.387 . S
C1407 C1409 1.390 . S
C1407 H1411 0.950 . S
H1408 C1404 0.950 . S
C1409 C1407 1.390 . S
C1409 C1410 1.387 . S
C1409 H1412 0.950 . S
C1410 C1409 1.387 . S
C1410 C1413 1.387 . S
H1411 C1407 0.950 . S
H1412 C1409 0.950 . S
C1413 C1404 1.390 . S
C1413 H1406 0.950 . S
C1413 C1410 1.387 . S
C1414 C1415 1.387 . S
C1414 H1418 0.950 . S
C1414 C1423 1.390 . S
C1415 C1414 1.387 . S
C1415 C1417 1.387 . S
H1416 C1423 0.950 . S
C1417 C1415 1.387 . S
C1417 C1419 1.390 . S
C1417 H1421 0.950 . S
H1418 C1414 0.950 . S
C1419 C1417 1.390 . S
C1419 C1420 1.387 1_655 S
C1419 H1422 0.950 1_655 S
C1420 C1419 1.387 1_455 S
C1420 C1423 1.387 1_455 S
H1421 C1417 0.950 . S
H1422 C1419 0.950 1_455 S
C1423 C1414 1.390 . S
C1423 H1416 0.950 . S
C1423 C1420 1.387 1_655 S
C1424 C1425 1.387 . S
C1424 H1428 0.950 . S
C1424 C1433 1.390 . S
C1425 C1424 1.387 . S
C1425 C1427 1.387 . S
H1426 C1433 0.950 . S
C1427 C1425 1.387 . S
C1427 C1429 1.390 . S
C1427 H1431 0.950 . S
H1428 C1424 0.950 . S
C1429 C1427 1.390 . S
C1429 C1430 1.387 . S
C1429 H1432 0.950 . S
C1430 C1429 1.387 . S
C1430 C1433 1.387 . S
H1431 C1427 0.950 . S
H1432 C1429 0.950 . S
C1433 C1424 1.390 . S
C1433 H1426 0.950 . S
C1433 C1430 1.387 . S
C1434 C1435 1.387 . S
C1434 H1438 0.950 . S
C1434 C1443 1.390 . S
C1435 C1434 1.387 . S
C1435 C1437 1.387 . S
H1436 C1443 0.950 . S
C1437 C1435 1.387 . S
C1437 C1439 1.390 . S
C1437 H1441 0.950 . S
H1438 C1434 0.950 . S
C1439 C1437 1.390 . S
C1439 C1440 1.387 . S
C1439 H1442 0.950 . S
C1440 C1439 1.387 . S
C1440 C1443 1.387 . S
H1441 C1437 0.950 . S
H1442 C1439 0.950 . S
C1443 C1434 1.390 . S
C1443 H1436 0.950 . S
C1443 C1440 1.387 . S
C1444 C1445 1.387 . S
C1444 H1448 0.950 . S
C1444 C1453 1.390 . S
C1445 C1444 1.387 . S
C1445 C1447 1.387 . S
H1446 C1453 0.950 . S
C1447 C1445 1.387 . S
C1447 C1449 1.390 . S
C1447 H1451 0.950 . S
H1448 C1444 0.950 . S
C1449 C1447 1.390 . S
C1449 C1450 1.387 . S
C1449 H1452 0.950 . S
C1450 C1449 1.387 . S
C1450 C1453 1.387 . S
H1451 C1447 0.950 . S
H1452 C1449 0.950 . S
C1453 C1444 1.390 . S
C1453 H1446 0.950 . S
C1453 C1450 1.387 . S
C1454 C1455 1.390 . S
C1454 H1458 0.964 . S
C1454 C1463 1.375 1_556 S
C1455 C1454 1.390 . S
C1455 C1457 1.387 1_556 S
H1456 C1463 0.950 . S
C1457 C1455 1.387 1_554 S
C1457 C1459 1.390 . S
C1457 H1461 0.950 . S
H1458 C1454 0.964 . S
C1459 C1457 1.390 . S
C1459 C1460 1.387 . S
C1459 H1462 0.950 . S
C1460 C1459 1.387 . S
C1460 C1463 1.387 . S
H1461 C1457 0.950 . S
H1462 C1459 0.950 . S
C1463 C1454 1.375 1_554 S
C1463 H1456 0.950 . S
C1463 C1460 1.387 . S
C1464 C1465 1.387 . S
C1464 H1468 0.950 . S
C1464 C1473 1.390 . S
C1465 C1464 1.387 . S
C1465 C1467 1.387 . S
H1466 C1473 0.950 . S
C1467 C1465 1.387 . S
C1467 C1469 1.390 . S
C1467 H1471 0.950 . S
H1468 C1464 0.950 . S
C1469 C1467 1.390 . S
C1469 C1470 1.387 . S
C1469 H1472 0.950 . S
C1470 C1469 1.387 . S
C1470 C1473 1.387 . S
H1471 C1467 0.950 . S
H1472 C1469 0.950 . S
C1473 C1464 1.390 . S
C1473 H1466 0.950 . S
C1473 C1470 1.387 . S
C1474 C1475 1.387 . S
C1474 H1478 0.950 . S
C1474 C1483 1.390 . S
C1475 C1474 1.387 . S
C1475 C1477 1.387 . S
H1476 C1483 0.950 . S
C1477 C1475 1.387 . S
C1477 C1479 1.390 . S
C1477 H1481 0.950 . S
H1478 C1474 0.950 . S
C1479 C1477 1.390 . S
C1479 C1480 1.387 . S
C1479 H1482 0.950 . S
C1480 C1479 1.387 . S
C1480 C1483 1.387 . S
H1481 C1477 0.950 . S
H1482 C1479 0.950 . S
C1483 C1474 1.390 . S
C1483 H1476 0.950 . S
C1483 C1480 1.387 . S
C1484 C1485 1.387 . S
C1484 H1488 0.950 . S
C1484 C1493 1.390 . S
C1485 C1484 1.387 . S
C1485 C1487 1.387 . S
H1486 C1493 0.950 . S
C1487 C1485 1.387 . S
C1487 C1489 1.390 . S
C1487 H1491 0.950 . S
H1488 C1484 0.950 . S
C1489 C1487 1.390 . S
C1489 C1490 1.387 . S
C1489 H1492 0.950 . S
C1490 C1489 1.387 . S
C1490 C1493 1.387 . S
H1491 C1487 0.950 . S
H1492 C1489 0.950 . S
C1493 C1484 1.390 . S
C1493 H1486 0.950 . S
C1493 C1490 1.387 . S
C1494 C1495 1.387 . S
C1494 H1498 0.950 . S
C1494 C1503 1.390 . S
C1495 C1494 1.387 . S
C1495 C1497 1.387 . S
H1496 C1503 0.955 . S
C1497 C1495 1.387 . S
C1497 C1499 1.390 . S
C1497 H1501 0.950 . S
H1498 C1494 0.950 . S
C1499 C1497 1.390 . S
C1499 C1500 1.387 1_556 S
C1499 H1502 0.950 1_556 S
C1500 C1499 1.387 1_554 S
C1500 C1503 1.387 1_554 S
H1501 C1497 0.950 . S
H1502 C1499 0.950 1_554 S
C1503 C1494 1.390 . S
C1503 H1496 0.955 . S
C1503 C1500 1.387 1_556 S
C1504 C1505 1.387 . S
C1504 H1508 0.950 . S
C1504 C1513 1.390 . S
C1505 C1504 1.387 . S
C1505 C1507 1.387 . S
H1506 C1513 0.950 . S
C1507 C1505 1.387 . S
C1507 C1509 1.390 . S
C1507 H1511 0.950 . S
H1508 C1504 0.950 . S
C1509 C1507 1.390 . S
C1509 C1510 1.387 . S
C1509 H1512 0.950 . S
C1510 C1509 1.387 . S
C1510 C1513 1.387 . S
H1511 C1507 0.950 . S
H1512 C1509 0.950 . S
C1513 C1504 1.390 . S
C1513 H1506 0.950 . S
C1513 C1510 1.387 . S
C1514 C1515 1.387 . S
C1514 H1518 0.950 . S
C1514 C1523 1.390 . S
C1515 C1514 1.387 . S
C1515 C1517 1.387 . S
H1516 C1523 0.950 . S
C1517 C1515 1.387 . S
C1517 C1519 1.390 . S
C1517 H1521 0.950 . S
H1518 C1514 0.950 . S
C1519 C1517 1.390 . S
C1519 C1520 1.387 . S
C1519 H1522 0.950 . S
C1520 C1519 1.387 . S
C1520 C1523 1.387 . S
H1521 C1517 0.950 . S
H1522 C1519 0.950 . S
C1523 C1514 1.390 . S
C1523 H1516 0.950 . S
C1523 C1520 1.387 . S
C1524 C1525 1.387 . S
C1524 H1528 0.950 . S
C1524 C1533 1.390 . S
C1525 C1524 1.387 . S
C1525 C1527 1.387 . S
H1526 C1533 0.950 . S
C1527 C1525 1.387 . S
C1527 C1529 1.390 . S
C1527 H1531 0.950 . S
H1528 C1524 0.950 . S
C1529 C1527 1.390 . S
C1529 C1530 1.387 . S
C1529 H1532 0.950 . S
C1530 C1529 1.387 . S
C1530 C1533 1.387 . S
H1531 C1527 0.950 . S
H1532 C1529 0.950 . S
C1533 C1524 1.390 . S
C1533 H1526 0.950 . S
C1533 C1530 1.387 . S
C1534 C1535 1.387 . S
C1534 H1538 0.950 . S
C1534 C1543 1.390 . S
C1535 C1534 1.387 . S
C1535 C1537 1.387 . S
H1536 C1543 0.950 . S
C1537 C1535 1.387 . S
C1537 C1539 1.390 . S
C1537 H1541 0.950 . S
H1538 C1534 0.950 . S
C1539 C1537 1.390 . S
C1539 C1540 1.387 . S
C1539 H1542 0.950 . S
C1540 C1539 1.387 . S
C1540 C1543 1.387 . S
H1541 C1537 0.950 . S
H1542 C1539 0.950 . S
C1543 C1534 1.390 . S
C1543 H1536 0.950 . S
C1543 C1540 1.387 . S
C1544 C1545 1.387 . S
C1544 H1548 0.950 . S
C1544 C1553 1.390 . S
C1545 C1544 1.387 . S
C1545 C1547 1.387 . S
H1546 C1553 0.950 1_545 S
C1547 C1545 1.387 . S
C1547 C1549 1.390 . S
C1547 H1551 0.950 . S
H1548 C1544 0.950 . S
C1549 C1547 1.390 . S
C1549 C1550 1.387 1_565 S
C1549 H1552 0.950 . S
C1550 C1549 1.387 1_545 S
C1550 C1553 1.387 1_545 S
H1551 C1547 0.950 . S
H1552 C1549 0.950 . S
C1553 C1544 1.390 . S
C1553 H1546 0.950 1_565 S
C1553 C1550 1.387 1_565 S
C1554 C1555 1.387 . S
C1554 H1558 0.950 . S
C1554 C1563 1.390 . S
C1555 C1554 1.387 . S
C1555 C1557 1.387 . S
H1556 C1563 0.950 . S
C1557 C1555 1.387 . S
C1557 C1559 1.390 . S
C1557 H1561 0.950 . S
H1558 C1554 0.950 . S
C1559 C1557 1.390 . S
C1559 C1560 1.387 . S
C1559 H1562 0.950 . S
C1560 C1559 1.387 . S
C1560 C1563 1.387 . S
H1561 C1557 0.950 . S
H1562 C1559 0.950 . S
C1563 C1554 1.390 . S
C1563 H1556 0.950 . S
C1563 C1560 1.387 . S
C1564 C1565 1.387 . S
C1564 H1568 0.950 . S
C1564 C1573 1.390 . S
C1565 C1564 1.387 . S
C1565 C1567 1.387 . S
H1566 C1573 0.950 . S
C1567 C1565 1.387 . S
C1567 C1569 1.390 . S
C1567 H1571 0.950 . S
H1568 C1564 0.950 . S
C1569 C1567 1.390 . S
C1569 C1570 1.387 . S
C1569 H1572 0.950 . S
C1570 C1569 1.387 . S
C1570 C1573 1.387 . S
H1571 C1567 0.950 . S
H1572 C1569 0.950 . S
C1573 C1564 1.390 . S
C1573 H1566 0.950 . S
C1573 C1570 1.387 . S
C1574 C1575 1.387 . S
C1574 H1578 0.950 . S
C1574 C1583 1.390 . S
C1575 C1574 1.387 . S
C1575 C1577 1.387 . S
H1576 C1583 0.950 . S
C1577 C1575 1.387 . S
C1577 C1579 1.390 . S
C1577 H1581 0.950 . S
H1578 C1574 0.950 . S
C1579 C1577 1.390 . S
C1579 C1580 1.387 . S
C1579 H1582 0.950 . S
C1580 C1579 1.387 . S
C1580 C1583 1.387 . S
H1581 C1577 0.950 . S
H1582 C1579 0.950 . S
C1583 C1574 1.390 . S
C1583 H1576 0.950 . S
C1583 C1580 1.387 . S
C1584 C1585 1.387 . S
C1584 H1588 0.950 . S
C1584 C1593 1.390 . S
C1585 C1584 1.387 . S
C1585 C1587 1.387 . S
H1586 C1593 0.950 . S
C1587 C1585 1.387 . S
C1587 C1589 1.390 . S
C1587 H1591 0.950 . S
H1588 C1584 0.950 . S
C1589 C1587 1.390 . S
C1589 C1590 1.387 . S
C1589 H1592 0.950 . S
C1590 C1589 1.387 . S
C1590 C1593 1.387 . S
H1591 C1587 0.950 . S
H1592 C1589 0.950 . S
C1593 C1584 1.390 . S
C1593 H1586 0.950 . S
C1593 C1590 1.387 . S
C1594 C1595 1.387 . S
C1594 H1598 0.950 . S
C1594 C1603 1.390 . S
C1595 C1594 1.387 . S
C1595 C1597 1.387 1_655 S
H1596 C1603 0.950 . S
C1597 C1595 1.387 1_455 S
C1597 C1599 1.390 . S
C1597 H1601 0.950 . S
H1598 C1594 0.950 . S
C1599 C1597 1.390 . S
C1599 C1600 1.387 . S
C1599 H1602 0.950 . S
C1600 C1599 1.387 . S
C1600 C1603 1.387 1_455 S
H1601 C1597 0.950 . S
H1602 C1599 0.950 . S
C1603 C1594 1.390 . S
C1603 H1596 0.950 . S
C1603 C1600 1.387 1_655 S
C1604 C1605 1.387 . S
C1604 H1608 0.950 . S
C1604 C1613 1.390 . S
C1605 C1604 1.387 . S
C1605 C1607 1.387 . S
H1606 C1613 0.950 . S
C1607 C1605 1.387 . S
C1607 C1609 1.390 . S
C1607 H1611 0.950 . S
H1608 C1604 0.950 . S
C1609 C1607 1.390 . S
C1609 C1610 1.387 . S
C1609 H1612 0.950 . S
C1610 C1609 1.387 . S
C1610 C1613 1.387 . S
H1611 C1607 0.950 . S
H1612 C1609 0.950 . S
C1613 C1604 1.390 . S
C1613 H1606 0.950 . S
C1613 C1610 1.387 . S
C1614 C1615 1.387 . S
C1614 H1618 0.950 . S
C1614 C1623 1.390 . S
C1615 C1614 1.387 . S
C1615 C1617 1.387 . S
H1616 C1623 0.950 . S
C1617 C1615 1.387 . S
C1617 C1619 1.390 . S
C1617 H1621 0.950 . S
H1618 C1614 0.950 . S
C1619 C1617 1.390 . S
C1619 C1620 1.387 . S
C1619 H1622 0.950 . S
C1620 C1619 1.387 . S
C1620 C1623 1.387 . S
H1621 C1617 0.950 . S
H1622 C1619 0.950 . S
C1623 C1614 1.390 . S
C1623 H1616 0.950 . S
C1623 C1620 1.387 . S
C1624 C1625 1.387 . S
C1624 H1628 0.950 . S
C1624 C1633 1.390 . S
C1625 C1624 1.387 . S
C1625 C1627 1.387 . S
H1626 C1633 0.950 . S
C1627 C1625 1.387 . S
C1627 C1629 1.390 . S
C1627 H1631 0.950 . S
H1628 C1624 0.950 . S
C1629 C1627 1.390 . S
C1629 C1630 1.387 . S
C1629 H1632 0.950 . S
C1630 C1629 1.387 . S
C1630 C1633 1.387 . S
H1631 C1627 0.950 . S
H1632 C1629 0.950 . S
C1633 C1624 1.390 . S
C1633 H1626 0.950 . S
C1633 C1630 1.387 . S
C1634 C1635 1.387 . S
C1634 H1638 0.950 . S
C1634 C1643 1.390 . S
C1635 C1634 1.387 . S
C1635 C1637 1.387 . S
H1636 C1643 0.950 . S
C1637 C1635 1.387 . S
C1637 C1639 1.390 . S
C1637 H1641 0.950 . S
H1638 C1634 0.950 . S
C1639 C1637 1.390 . S
C1639 C1640 1.387 . S
C1639 H1642 0.950 . S
C1640 C1639 1.387 . S
C1640 C1643 1.387 . S
H1641 C1637 0.950 . S
H1642 C1639 0.950 . S
C1643 C1634 1.390 . S
C1643 H1636 0.950 . S
C1643 C1640 1.387 . S
C1644 C1645 1.387 . S
C1644 H1648 0.950 . S
C1644 C1653 1.390 . S
C1645 C1644 1.387 . S
C1645 C1647 1.387 . S
H1646 C1653 0.950 . S
C1647 C1645 1.387 . S
C1647 C1649 1.390 . S
C1647 H1651 0.950 . S
H1648 C1644 0.950 . S
C1649 C1647 1.390 . S
C1649 C1650 1.387 . S
C1649 H1652 0.950 . S
C1650 C1649 1.387 . S
C1650 C1653 1.387 . S
H1651 C1647 0.950 . S
H1652 C1649 0.950 . S
C1653 C1644 1.390 . S
C1653 H1646 0.950 . S
C1653 C1650 1.387 . S
C1654 C1655 1.387 . S
C1654 H1658 0.950 . S
C1654 C1663 1.387 1_455 S
C1655 C1654 1.387 . S
C1655 C1657 1.387 . S
H1656 C1663 0.953 . S
C1657 C1655 1.387 . S
C1657 C1659 1.390 . S
C1657 H1661 0.950 . S
H1658 C1654 0.950 . S
C1659 C1657 1.390 . S
C1659 C1660 1.387 1_455 S
C1659 H1662 0.950 . S
C1660 C1659 1.387 1_655 S
C1660 C1663 1.388 . S
H1661 C1657 0.950 . S
H1662 C1659 0.950 . S
C1663 C1654 1.387 1_655 S
C1663 H1656 0.953 . S
C1663 C1660 1.388 . S
C1664 C1665 1.387 . S
C1664 H1668 0.950 . S
C1664 C1673 1.390 . S
C1665 C1664 1.387 . S
C1665 C1667 1.387 . S
H1666 C1673 0.950 . S
C1667 C1665 1.387 . S
C1667 C1669 1.390 . S
C1667 H1671 0.950 . S
H1668 C1664 0.950 . S
C1669 C1667 1.390 . S
C1669 C1670 1.387 . S
C1669 H1672 0.950 . S
C1670 C1669 1.387 . S
C1670 C1673 1.387 . S
H1671 C1667 0.950 . S
H1672 C1669 0.950 . S
C1673 C1664 1.390 . S
C1673 H1666 0.950 . S
C1673 C1670 1.387 . S
C1674 C1675 1.387 . S
C1674 H1678 0.950 . S
C1674 C1683 1.390 . S
C1675 C1674 1.387 . S
C1675 C1677 1.387 . S
H1676 C1683 0.950 . S
C1677 C1675 1.387 . S
C1677 C1679 1.390 . S
C1677 H1681 0.950 . S
H1678 C1674 0.950 . S
C1679 C1677 1.390 . S
C1679 C1680 1.387 . S
C1679 H1682 0.950 . S
C1680 C1679 1.387 . S
C1680 C1683 1.387 . S
H1681 C1677 0.950 . S
H1682 C1679 0.950 . S
C1683 C1674 1.390 . S
C1683 H1676 0.950 . S
C1683 C1680 1.387 . S
C1684 C1685 1.387 . S
C1684 H1688 0.950 . S
C1684 C1693 1.390 . S
C1685 C1684 1.387 . S
C1685 C1687 1.387 . S
H1686 C1693 0.950 . S
C1687 C1685 1.387 . S
C1687 C1689 1.390 . S
C1687 H1691 0.950 . S
H1688 C1684 0.950 . S
C1689 C1687 1.390 . S
C1689 C1690 1.387 . S
C1689 H1692 0.950 . S
C1690 C1689 1.387 . S
C1690 C1693 1.387 . S
H1691 C1687 0.950 . S
H1692 C1689 0.950 . S
C1693 C1684 1.390 . S
C1693 H1686 0.950 . S
C1693 C1690 1.387 . S
C1694 C1695 1.387 . S
C1694 H1698 0.950 . S
C1694 C1703 1.390 . S
C1695 C1694 1.387 . S
C1695 C1697 1.387 1_554 S
H1696 C1703 0.950 . S
C1697 C1695 1.387 1_556 S
C1697 C1699 1.390 . S
C1697 H1701 0.950 . S
H1698 C1694 0.950 . S
C1699 C1697 1.390 . S
C1699 C1700 1.387 . S
C1699 H1702 0.950 . S
C1700 C1699 1.387 . S
C1700 C1703 1.387 1_556 S
H1701 C1697 0.950 . S
H1702 C1699 0.950 . S
C1703 C1694 1.390 . S
C1703 H1696 0.950 . S
C1703 C1700 1.387 1_554 S
C1704 C1705 1.387 . S
C1704 H1708 0.950 . S
C1704 C1713 1.390 . S
C1705 C1704 1.387 . S
C1705 C1707 1.387 . S
H1706 C1713 0.950 . S
C1707 C1705 1.387 . S
C1707 C1709 1.390 . S
C1707 H1711 0.950 . S
H1708 C1704 0.950 . S
C1709 C1707 1.390 . S
C1709 C1710 1.387 . S
C1709 H1712 0.950 . S
C1710 C1709 1.387 . S
C1710 C1713 1.387 . S
H1711 C1707 0.950 . S
H1712 C1709 0.950 . S
C1713 C1704 1.390 . S
C1713 H1706 0.950 . S
C1713 C1710 1.387 . S
C1714 C1715 1.387 . S
C1714 H1718 0.950 . S
C1714 C1723 1.390 . S
C1715 C1714 1.387 . S
C1715 C1717 1.387 . S
H1716 C1723 0.950 . S
C1717 C1715 1.387 . S
C1717 C1719 1.390 . S
C1717 H1721 0.950 . S
H1718 C1714 0.950 . S
C1719 C1717 1.390 . S
C1719 C1720 1.387 . S
C1719 H1722 0.950 . S
C1720 C1719 1.387 . S
C1720 C1723 1.387 . S
H1721 C1717 0.950 . S
H1722 C1719 0.950 . S
C1723 C1714 1.390 . S
C1723 H1716 0.950 . S
C1723 C1720 1.387 . S
C1724 C1725 1.387 . S
C1724 H1728 0.950 . S
C1724 C1733 1.390 . S
C1725 C1724 1.387 . S
C1725 C1727 1.387 . S
H1726 C1733 0.950 . S
C1727 C1725 1.387 . S
C1727 C1729 1.390 . S
C1727 H1731 0.950 . S
H1728 C1724 0.950 . S
C1729 C1727 1.390 . S
C1729 C1730 1.387 . S
C1729 H1732 0.950 . S
C1730 C1729 1.387 . S
C1730 C1733 1.387 . S
H1731 C1727 0.950 . S
H1732 C1729 0.950 . S
C1733 C1724 1.390 . S
C1733 H1726 0.950 . S
C1733 C1730 1.387 . S
C1734 C1735 1.387 1_554 S
C1734 H1738 0.950 . S
C1734 C1743 1.390 . S
C1735 C1734 1.387 1_556 S
C1735 C1737 1.387 . S
H1736 C1743 0.950 . S
C1737 C1735 1.387 . S
C1737 C1739 1.390 1_556 S
C1737 H1741 0.950 . S
H1738 C1734 0.950 . S
C1739 C1737 1.390 1_554 S
C1739 C1740 1.387 . S
C1739 H1742 0.950 . S
C1740 C1739 1.387 . S
C1740 C1743 1.387 . S
H1741 C1737 0.950 . S
H1742 C1739 0.950 . S
C1743 C1734 1.390 . S
C1743 H1736 0.950 . S
C1743 C1740 1.387 . S
C1744 C1745 1.387 . S
C1744 H1748 0.950 . S
C1744 C1753 1.390 . S
C1745 C1744 1.387 . S
C1745 C1747 1.387 . S
H1746 C1753 0.950 . S
C1747 C1745 1.387 . S
C1747 C1749 1.390 . S
C1747 H1751 0.950 . S
H1748 C1744 0.950 . S
C1749 C1747 1.390 . S
C1749 C1750 1.387 . S
C1749 H1752 0.950 . S
C1750 C1749 1.387 . S
C1750 C1753 1.387 . S
H1751 C1747 0.950 . S
H1752 C1749 0.950 . S
C1753 C1744 1.390 . S
C1753 H1746 0.950 . S
C1753 C1750 1.387 . S
C1754 C1755 1.387 . S
C1754 H1758 0.950 . S
C1754 C1763 1.390 . S
C1755 C1754 1.387 . S
C1755 C1757 1.387 . S
H1756 C1763 0.950 . S
C1757 C1755 1.387 . S
C1757 C1759 1.390 . S
C1757 H1761 0.950 . S
H1758 C1754 0.950 . S
C1759 C1757 1.390 . S
C1759 C1760 1.387 . S
C1759 H1762 0.950 . S
C1760 C1759 1.387 . S
C1760 C1763 1.387 . S
H1761 C1757 0.950 . S
H1762 C1759 0.950 . S
C1763 C1754 1.390 . S
C1763 H1756 0.950 . S
C1763 C1760 1.387 . S
C1764 C1765 1.387 . S
C1764 H1768 0.950 . S
C1764 C1773 1.390 . S
C1765 C1764 1.387 . S
C1765 C1767 1.387 . S
H1766 C1773 0.950 . S
C1767 C1765 1.387 . S
C1767 C1769 1.390 . S
C1767 H1771 0.950 . S
H1768 C1764 0.950 . S
C1769 C1767 1.390 . S
C1769 C1770 1.387 . S
C1769 H1772 0.950 . S
C1770 C1769 1.387 . S
C1770 C1773 1.387 . S
H1771 C1767 0.950 . S
H1772 C1769 0.950 . S
C1773 C1764 1.390 . S
C1773 H1766 0.950 . S
C1773 C1770 1.387 . S
C1774 C1775 1.387 . S
C1774 H1778 0.950 . S
C1774 C1783 1.390 . S
C1775 C1774 1.387 . S
C1775 C1777 1.387 . S
H1776 C1783 0.950 . S
C1777 C1775 1.387 . S
C1777 C1779 1.390 . S
C1777 H1781 0.950 . S
H1778 C1774 0.950 . S
C1779 C1777 1.390 . S
C1779 C1780 1.387 . S
C1779 H1782 0.950 . S
C1780 C1779 1.387 . S
C1780 C1783 1.387 . S
H1781 C1777 0.950 . S
H1782 C1779 0.950 . S
C1783 C1774 1.390 . S
C1783 H1776 0.950 . S
C1783 C1780 1.387 . S
C1784 C1785 1.387 . S
C1784 H1788 0.950 . S
C1784 C1793 1.390 1_545 S
C1785 C1784 1.387 . S
C1785 C1787 1.387 . S
H1786 C1793 0.950 . S
C1787 C1785 1.387 . S
C1787 C1789 1.390 . S
C1787 H1791 0.950 . S
H1788 C1784 0.950 . S
C1789 C1787 1.390 . S
C1789 C1790 1.387 1_545 S
C1789 H1792 0.950 . S
C1790 C1789 1.387 1_565 S
C1790 C1793 1.387 . S
H1791 C1787 0.950 . S
H1792 C1789 0.950 . S
C1793 C1784 1.390 1_565 S
C1793 H1786 0.950 . S
C1793 C1790 1.387 . S
C1794 C1795 1.387 . S
C1794 H1798 0.950 . S
C1794 C1803 1.390 . S
C1795 C1794 1.387 . S
C1795 C1797 1.387 . S
H1796 C1803 0.950 . S
C1797 C1795 1.387 . S
C1797 C1799 1.390 . S
C1797 H1801 0.950 . S
H1798 C1794 0.950 . S
C1799 C1797 1.390 . S
C1799 C1800 1.387 . S
C1799 H1802 0.950 . S
C1800 C1799 1.387 . S
C1800 C1803 1.387 . S
H1801 C1797 0.950 . S
H1802 C1799 0.950 . S
C1803 C1794 1.390 . S
C1803 H1796 0.950 . S
C1803 C1800 1.387 . S
C1804 C1805 1.387 . S
C1804 H1808 0.950 . S
C1804 C1813 1.390 . S
C1805 C1804 1.387 . S
C1805 C1807 1.387 . S
H1806 C1813 0.950 . S
C1807 C1805 1.387 . S
C1807 C1809 1.390 . S
C1807 H1811 0.950 . S
H1808 C1804 0.950 . S
C1809 C1807 1.390 . S
C1809 C1810 1.387 . S
C1809 H1812 0.950 . S
C1810 C1809 1.387 . S
C1810 C1813 1.387 . S
H1811 C1807 0.950 . S
H1812 C1809 0.950 . S
C1813 C1804 1.390 . S
C1813 H1806 0.950 . S
C1813 C1810 1.387 . S
C1814 C1815 1.387 . S
C1814 H1818 0.950 . S
C1814 C1823 1.390 . S
C1815 C1814 1.387 . S
C1815 C1817 1.387 . S
H1816 C1823 0.950 . S
C1817 C1815 1.387 . S
C1817 C1819 1.390 . S
C1817 H1821 0.950 . S
H1818 C1814 0.950 . S
C1819 C1817 1.390 . S
C1819 C1820 1.387 . S
C1819 H1822 0.950 . S
C1820 C1819 1.387 . S
C1820 C1823 1.387 . S
H1821 C1817 0.950 . S
H1822 C1819 0.950 . S
C1823 C1814 1.390 . S
C1823 H1816 0.950 . S
C1823 C1820 1.387 . S
C1824 C1825 1.387 . S
C1824 H1828 0.950 . S
C1824 C1833 1.390 . S
C1825 C1824 1.387 . S
C1825 C1827 1.387 . S
H1826 C1833 0.950 . S
C1827 C1825 1.387 . S
C1827 C1829 1.390 . S
C1827 H1831 0.950 . S
H1828 C1824 0.950 . S
C1829 C1827 1.390 . S
C1829 C1830 1.387 . S
C1829 H1832 0.950 . S
C1830 C1829 1.387 . S
C1830 C1833 1.387 . S
H1831 C1827 0.950 . S
H1832 C1829 0.950 . S
C1833 C1824 1.390 . S
C1833 H1826 0.950 . S
C1833 C1830 1.387 . S
C1834 C1835 1.387 . S
C1834 H1838 0.950 . S
C1834 C1843 1.390 . S
C1835 C1834 1.387 . S
C1835 C1837 1.387 . S
H1836 C1843 0.950 . S
C1837 C1835 1.387 . S
C1837 C1839 1.390 . S
C1837 H1841 0.950 . S
H1838 C1834 0.950 . S
C1839 C1837 1.390 . S
C1839 C1840 1.387 . S
C1839 H1842 0.950 . S
C1840 C1839 1.387 . S
C1840 C1843 1.387 . S
H1841 C1837 0.950 . S
H1842 C1839 0.950 . S
C1843 C1834 1.390 . S
C1843 H1836 0.950 . S
C1843 C1840 1.387 . S
C1844 C1845 1.387 . S
C1844 H1848 0.950 . S
C1844 C1853 1.390 . S
C1845 C1844 1.387 . S
C1845 C1847 1.387 . S
H1846 C1853 0.950 . S
C1847 C1845 1.387 . S
C1847 C1849 1.390 . S
C1847 H1851 0.950 . S
H1848 C1844 0.950 . S
C1849 C1847 1.390 . S
C1849 C1850 1.387 . S
C1849 H1852 0.950 . S
C1850 C1849 1.387 . S
C1850 C1853 1.387 . S
H1851 C1847 0.950 . S
H1852 C1849 0.950 . S
C1853 C1844 1.390 . S
C1853 H1846 0.950 . S
C1853 C1850 1.387 . S
C1854 C1855 1.387 . S
C1854 H1858 0.950 . S
C1854 C1863 1.390 . S
C1855 C1854 1.387 . S
C1855 C1857 1.387 . S
H1856 C1863 0.950 1_655 S
C1857 C1855 1.387 . S
C1857 C1859 1.390 . S
C1857 H1861 0.950 . S
H1858 C1854 0.950 . S
C1859 C1857 1.390 . S
C1859 C1860 1.387 1_455 S
C1859 H1862 0.950 . S
C1860 C1859 1.387 1_655 S
C1860 C1863 1.387 1_655 S
H1861 C1857 0.950 . S
H1862 C1859 0.950 . S
C1863 C1854 1.390 . S
C1863 H1856 0.950 1_455 S
C1863 C1860 1.387 1_455 S
C1864 C1865 1.387 . S
C1864 H1868 0.950 . S
C1864 C1873 1.390 . S
C1865 C1864 1.387 . S
C1865 C1867 1.387 . S
H1866 C1873 0.950 . S
C1867 C1865 1.387 . S
C1867 C1869 1.390 . S
C1867 H1871 0.950 . S
H1868 C1864 0.950 . S
C1869 C1867 1.390 . S
C1869 C1870 1.387 . S
C1869 H1872 0.950 . S
C1870 C1869 1.387 . S
C1870 C1873 1.387 . S
H1871 C1867 0.950 . S
H1872 C1869 0.950 . S
C1873 C1864 1.390 . S
C1873 H1866 0.950 . S
C1873 C1870 1.387 . S
C1874 C1875 1.387 1_455 S
C1874 H1878 0.950 1_455 S
C1874 C1883 1.390 . S
C1875 C1874 1.387 1_655 S
C1875 C1877 1.387 1_655 S
H1876 C1883 0.950 . S
C1877 C1875 1.387 1_455 S
C1877 C1879 1.390 . S
C1877 H1881 0.954 . S
H1878 C1874 0.950 1_655 S
C1879 C1877 1.390 . S
C1879 C1880 1.387 . S
C1879 H1882 0.950 . S
C1880 C1879 1.387 . S
C1880 C1883 1.387 . S
H1881 C1877 0.954 . S
H1882 C1879 0.950 . S
C1883 C1874 1.390 . S
C1883 H1876 0.950 . S
C1883 C1880 1.387 . S
C1884 C1885 1.387 . S
C1884 H1888 0.950 . S
C1884 C1893 1.390 . S
C1885 C1884 1.387 . S
C1885 C1887 1.387 . S
H1886 C1893 0.950 . S
C1887 C1885 1.387 . S
C1887 C1889 1.390 . S
C1887 H1891 0.950 . S
H1888 C1884 0.950 . S
C1889 C1887 1.390 . S
C1889 C1890 1.387 . S
C1889 H1892 0.950 . S
C1890 C1889 1.387 . S
C1890 C1893 1.387 . S
H1891 C1887 0.950 . S
H1892 C1889 0.950 . S
C1893 C1884 1.390 . S
C1893 H1886 0.950 . S
C1893 C1890 1.387 . S
C1894 C1895 1.387 . S
C1894 H1898 0.950 . S
C1894 C1903 1.390 . S
C1895 C1894 1.387 . S
C1895 C1897 1.387 . S
H1896 C1903 0.950 . S
C1897 C1895 1.387 . S
C1897 C1899 1.390 . S
C1897 H1901 0.950 . S
H1898 C1894 0.950 . S
C1899 C1897 1.390 . S
C1899 C1900 1.387 . S
C1899 H1902 0.950 . S
C1900 C1899 1.387 . S
C1900 C1903 1.387 . S
H1901 C1897 0.950 . S
H1902 C1899 0.950 . S
C1903 C1894 1.390 . S
C1903 H1896 0.950 . S
C1903 C1900 1.387 . S
C1904 C1905 1.387 . S
C1904 H1908 0.950 . S
C1904 C1913 1.390 . S
C1905 C1904 1.387 . S
C1905 C1907 1.387 . S
H1906 C1913 0.950 . S
C1907 C1905 1.387 . S
C1907 C1909 1.390 . S
C1907 H1911 0.950 . S
H1908 C1904 0.950 . S
C1909 C1907 1.390 . S
C1909 C1910 1.387 . S
C1909 H1912 0.950 . S
C1910 C1909 1.387 . S
C1910 C1913 1.387 . S
H1911 C1907 0.950 . S
H1912 C1909 0.950 . S
C1913 C1904 1.390 . S
C1913 H1906 0.950 . S
C1913 C1910 1.387 . S
C1914 C1915 1.387 . S
C1914 H1918 0.950 . S
C1914 C1923 1.390 1_556 S
C1915 C1914 1.387 . S
C1915 C1917 1.387 1_556 S
H1916 C1923 0.950 . S
C1917 C1915 1.387 1_554 S
C1917 C1919 1.390 . S
C1917 H1921 0.950 . S
H1918 C1914 0.950 . S
C1919 C1917 1.390 . S
C1919 C1920 1.387 . S
C1919 H1922 0.950 . S
C1920 C1919 1.387 . S
C1920 C1923 1.387 . S
H1921 C1917 0.950 . S
H1922 C1919 0.950 . S
C1923 C1914 1.390 1_554 S
C1923 H1916 0.950 . S
C1923 C1920 1.387 . S
C1924 C1925 1.387 . S
C1924 H1928 0.950 . S
C1924 C1933 1.390 . S
C1925 C1924 1.387 . S
C1925 C1927 1.387 . S
H1926 C1933 0.950 . S
C1927 C1925 1.387 . S
C1927 C1929 1.390 . S
C1927 H1931 0.950 . S
H1928 C1924 0.950 . S
C1929 C1927 1.390 . S
C1929 C1930 1.387 . S
C1929 H1932 0.950 . S
C1930 C1929 1.387 . S
C1930 C1933 1.387 . S
H1931 C1927 0.950 . S
H1932 C1929 0.950 . S
C1933 C1924 1.390 . S
C1933 H1926 0.950 . S
C1933 C1930 1.387 . S
C1934 C1935 1.387 . S
C1934 H1938 0.950 . S
C1934 C1943 1.390 . S
C1935 C1934 1.387 . S
C1935 C1937 1.387 . S
H1936 C1943 0.950 . S
C1937 C1935 1.387 . S
C1937 C1939 1.390 . S
C1937 H1941 0.950 . S
H1938 C1934 0.950 . S
C1939 C1937 1.390 . S
C1939 C1940 1.387 . S
C1939 H1942 0.950 . S
C1940 C1939 1.387 . S
C1940 C1943 1.387 . S
H1941 C1937 0.950 . S
H1942 C1939 0.950 . S
C1943 C1934 1.390 . S
C1943 H1936 0.950 . S
C1943 C1940 1.387 . S
C1944 C1945 1.387 . S
C1944 H1948 0.950 . S
C1944 C1953 1.390 . S
C1945 C1944 1.387 . S
C1945 C1947 1.387 . S
H1946 C1953 0.950 . S
C1947 C1945 1.387 . S
C1947 C1949 1.390 . S
C1947 H1951 0.950 . S
H1948 C1944 0.950 . S
C1949 C1947 1.390 . S
C1949 C1950 1.387 . S
C1949 H1952 0.950 . S
C1950 C1949 1.387 . S
C1950 C1953 1.387 . S
H1951 C1947 0.950 . S
H1952 C1949 0.950 . S
C1953 C1944 1.390 . S
C1953 H1946 0.950 . S
C1953 C1950 1.387 . S
C1954 C1955 1.387 . S
C1954 H1958 0.950 . S
C1954 C1963 1.390 1_554 S
C1955 C1954 1.387 . S
C1955 C1957 1.387 1_554 S
H1956 C1963 0.955 . S
C1957 C1955 1.387 1_556 S
C1957 C1959 1.390 . S
C1957 H1961 0.950 . S
H1958 C1954 0.950 . S
C1959 C1957 1.390 . S
C1959 C1960 1.387 . S
C1959 H1962 0.950 . S
C1960 C1959 1.387 . S
C1960 C1963 1.387 . S
H1961 C1957 0.950 . S
H1962 C1959 0.950 . S
C1963 C1954 1.390 1_556 S
C1963 H1956 0.955 . S
C1963 C1960 1.387 . S
C1964 C1965 1.387 . S
C1964 H1968 0.950 . S
C1964 C1973 1.390 . S
C1965 C1964 1.387 . S
C1965 C1967 1.387 . S
H1966 C1973 0.950 . S
C1967 C1965 1.387 . S
C1967 C1969 1.390 . S
C1967 H1971 0.950 . S
H1968 C1964 0.950 . S
C1969 C1967 1.390 . S
C1969 C1970 1.387 . S
C1969 H1972 0.950 . S
C1970 C1969 1.387 . S
C1970 C1973 1.387 . S
H1971 C1967 0.950 . S
H1972 C1969 0.950 . S
C1973 C1964 1.390 . S
C1973 H1966 0.950 . S
C1973 C1970 1.387 . S
C1974 C1975 1.387 . S
C1974 H1978 0.950 . S
C1974 C1983 1.390 . S
C1975 C1974 1.387 . S
C1975 C1977 1.387 . S
H1976 C1983 0.950 . S
C1977 C1975 1.387 . S
C1977 C1979 1.390 . S
C1977 H1981 0.950 . S
H1978 C1974 0.950 . S
C1979 C1977 1.390 . S
C1979 C1980 1.387 . S
C1979 H1982 0.950 . S
C1980 C1979 1.387 . S
C1980 C1983 1.387 . S
H1981 C1977 0.950 . S
H1982 C1979 0.950 . S
C1983 C1974 1.390 . S
C1983 H1976 0.950 . S
C1983 C1980 1.387 . S
C1984 C1985 1.387 . S
C1984 H1988 0.950 . S
C1984 C1993 1.390 . S
C1985 C1984 1.387 . S
C1985 C1987 1.387 . S
H1986 C1993 0.950 . S
C1987 C1985 1.387 . S
C1987 C1989 1.390 . S
C1987 H1991 0.950 . S
H1988 C1984 0.950 . S
C1989 C1987 1.390 . S
C1989 C1990 1.387 . S
C1989 H1992 0.950 . S
C1990 C1989 1.387 . S
C1990 C1993 1.387 . S
H1991 C1987 0.950 . S
H1992 C1989 0.950 . S
C1993 C1984 1.390 . S
C1993 H1986 0.950 . S
C1993 C1990 1.387 . S
C1994 C1995 1.387 . S
C1994 H1998 0.950 . S
C1994 C2003 1.390 . S
C1995 C1994 1.387 . S
C1995 C1997 1.387 . S
H1996 C2003 0.950 . S
C1997 C1995 1.387 . S
C1997 C1999 1.390 . S
C1997 H2001 0.950 . S
H1998 C1994 0.950 . S
C1999 C1997 1.390 . S
C1999 C2000 1.387 . S
C1999 H2002 0.950 . S
C2000 C1999 1.387 . S
C2000 C2003 1.387 . S
H2001 C1997 0.950 . S
H2002 C1999 0.950 . S
C2003 C1994 1.390 . S
C2003 H1996 0.950 . S
C2003 C2000 1.387 . S
C2004 C2005 1.387 . S
C2004 H2008 0.950 . S
C2004 C2013 1.390 . S
C2005 C2004 1.387 . S
C2005 C2007 1.387 . S
H2006 C2013 0.960 . S
C2007 C2005 1.387 . S
C2007 C2009 1.390 . S
C2007 H2011 0.950 . S
H2008 C2004 0.950 . S
C2009 C2007 1.390 . S
C2009 C2010 1.387 1_545 S
C2009 H2012 0.950 1_545 S
C2010 C2009 1.387 1_565 S
C2010 C2013 1.387 1_565 S
H2011 C2007 0.950 . S
H2012 C2009 0.950 1_565 S
C2013 C2004 1.390 . S
C2013 H2006 0.960 . S
C2013 C2010 1.387 1_545 S
C2014 C2015 1.387 . S
C2014 H2018 0.950 . S
C2014 C2023 1.390 . S
C2015 C2014 1.387 . S
C2015 C2017 1.387 . S
H2016 C2023 0.950 . S
C2017 C2015 1.387 . S
C2017 C2019 1.390 . S
C2017 H2021 0.950 . S
H2018 C2014 0.950 . S
C2019 C2017 1.390 . S
C2019 C2020 1.387 . S
C2019 H2022 0.950 . S
C2020 C2019 1.387 . S
C2020 C2023 1.387 . S
H2021 C2017 0.950 . S
H2022 C2019 0.950 . S
C2023 C2014 1.390 . S
C2023 H2016 0.950 . S
C2023 C2020 1.387 . S
C2024 C2025 1.387 . S
C2024 H2028 0.950 . S
C2024 C2033 1.390 . S
C2025 C2024 1.387 . S
C2025 C2027 1.387 . S
H2026 C2033 0.950 . S
C2027 C2025 1.387 . S
C2027 C2029 1.390 . S
C2027 H2031 0.950 . S
H2028 C2024 0.950 . S
C2029 C2027 1.390 . S
C2029 C2030 1.387 . S
C2029 H2032 0.950 . S
C2030 C2029 1.387 . S
C2030 C2033 1.387 . S
H2031 C2027 0.950 . S
H2032 C2029 0.950 . S
C2033 C2024 1.390 . S
C2033 H2026 0.950 . S
C2033 C2030 1.387 . S
C2034 C2035 1.387 . S
C2034 H2038 0.950 . S
C2034 C2043 1.390 . S
C2035 C2034 1.387 . S
C2035 C2037 1.387 . S
H2036 C2043 0.950 . S
C2037 C2035 1.387 . S
C2037 C2039 1.390 . S
C2037 H2041 0.950 . S
H2038 C2034 0.950 . S
C2039 C2037 1.390 . S
C2039 C2040 1.387 . S
C2039 H2042 0.950 . S
C2040 C2039 1.387 . S
C2040 C2043 1.387 . S
H2041 C2037 0.950 . S
H2042 C2039 0.950 . S
C2043 C2034 1.390 . S
C2043 H2036 0.950 . S
C2043 C2040 1.387 . S
C2044 C2045 1.387 1_565 S
C2044 H2048 0.950 1_565 S
C2044 C2053 1.390 . S
C2045 C2044 1.387 1_545 S
C2045 C2047 1.387 1_545 S
H2046 C2053 0.950 . S
C2047 C2045 1.387 1_565 S
C2047 C2049 1.390 . S
C2047 H2051 0.950 . S
H2048 C2044 0.950 1_545 S
C2049 C2047 1.390 . S
C2049 C2050 1.387 . S
C2049 H2052 0.950 . S
C2050 C2049 1.387 . S
C2050 C2053 1.387 . S
H2051 C2047 0.950 . S
H2052 C2049 0.950 . S
C2053 C2044 1.390 . S
C2053 H2046 0.950 . S
C2053 C2050 1.387 . S
C2054 C2055 1.387 1_545 S
C2054 H2058 0.950 1_545 S
C2054 C2063 1.390 . S
C2055 C2054 1.387 1_565 S
C2055 C2057 1.387 1_565 S
H2056 C2063 0.950 . S
C2057 C2055 1.387 1_545 S
C2057 C2059 1.390 . S
C2057 H2061 0.959 . S
H2058 C2054 0.950 1_565 S
C2059 C2057 1.390 . S
C2059 C2060 1.387 . S
C2059 H2062 0.950 . S
C2060 C2059 1.387 . S
C2060 C2063 1.387 . S
H2061 C2057 0.959 . S
H2062 C2059 0.950 . S
C2063 C2054 1.390 . S
C2063 H2056 0.950 . S
C2063 C2060 1.387 . S
C2064 C2065 1.387 . S
C2064 H2068 0.950 . S
C2064 C2073 1.390 . S
C2065 C2064 1.387 . S
C2065 C2067 1.387 . S
H2066 C2073 0.950 . S
C2067 C2065 1.387 . S
C2067 C2069 1.390 . S
C2067 H2071 0.950 . S
H2068 C2064 0.950 . S
C2069 C2067 1.390 . S
C2069 C2070 1.387 . S
C2069 H2072 0.950 . S
C2070 C2069 1.387 . S
C2070 C2073 1.387 . S
H2071 C2067 0.950 . S
H2072 C2069 0.950 . S
C2073 C2064 1.390 . S
C2073 H2066 0.950 . S
C2073 C2070 1.387 . S
C2074 C2075 1.387 . S
C2074 H2078 0.950 . S
C2074 C2083 1.390 . S
C2075 C2074 1.387 . S
C2075 C2077 1.387 . S
H2076 C2083 0.950 . S
C2077 C2075 1.387 . S
C2077 C2079 1.390 . S
C2077 H2081 0.950 . S
H2078 C2074 0.950 . S
C2079 C2077 1.390 . S
C2079 C2080 1.387 . S
C2079 H2082 0.950 . S
C2080 C2079 1.387 . S
C2080 C2083 1.387 . S
H2081 C2077 0.950 . S
H2082 C2079 0.950 . S
C2083 C2074 1.390 . S
C2083 H2076 0.950 . S
C2083 C2080 1.387 . S
C2084 C2085 1.387 . S
C2084 H2088 0.950 . S
C2084 C2093 1.390 . S
C2085 C2084 1.387 . S
C2085 C2087 1.387 . S
H2086 C2093 0.950 . S
C2087 C2085 1.387 . S
C2087 C2089 1.390 . S
C2087 H2091 0.950 . S
H2088 C2084 0.950 . S
C2089 C2087 1.390 . S
C2089 C2090 1.387 . S
C2089 H2092 0.950 . S
C2090 C2089 1.387 . S
C2090 C2093 1.387 . S
H2091 C2087 0.950 . S
H2092 C2089 0.950 . S
C2093 C2084 1.390 . S
C2093 H2086 0.950 . S
C2093 C2090 1.387 . S
C2094 C2095 1.387 1_655 S
C2094 H2098 0.947 1_655 S
C2094 C2103 1.390 . S
C2095 C2094 1.387 1_455 S
C2095 C2097 1.387 1_455 S
H2096 C2103 0.950 . S
C2097 C2095 1.387 1_655 S
C2097 C2099 1.390 . S
C2097 H2101 0.945 1_655 S
H2098 C2094 0.947 1_455 S
C2099 C2097 1.390 . S
C2099 C2100 1.387 . S
C2099 H2102 0.950 . S
C2100 C2099 1.387 . S
C2100 C2103 1.387 . S
H2101 C2097 0.945 1_455 S
H2102 C2099 0.950 . S
C2103 C2094 1.390 . S
C2103 H2096 0.950 . S
C2103 C2100 1.387 . S
C2104 C2105 1.387 . S
C2104 H2108 0.950 . S
C2104 C2113 1.390 . S
C2105 C2104 1.387 . S
C2105 C2107 1.387 . S
H2106 C2113 0.950 . S
C2107 C2105 1.387 . S
C2107 C2109 1.390 . S
C2107 H2111 0.950 . S
H2108 C2104 0.950 . S
C2109 C2107 1.390 . S
C2109 C2110 1.387 . S
C2109 H2112 0.950 . S
C2110 C2109 1.387 . S
C2110 C2113 1.387 . S
H2111 C2107 0.950 . S
H2112 C2109 0.950 . S
C2113 C2104 1.390 . S
C2113 H2106 0.950 . S
C2113 C2110 1.387 . S
C2114 C2115 1.387 . S
C2114 H2118 0.950 . S
C2114 C2123 1.390 . S
C2115 C2114 1.387 . S
C2115 C2117 1.387 . S
H2116 C2123 0.953 . S
C2117 C2115 1.387 . S
C2117 C2119 1.390 . S
C2117 H2121 0.950 . S
H2118 C2114 0.950 . S
C2119 C2117 1.390 . S
C2119 C2120 1.387 1_655 S
C2119 H2122 0.950 1_655 S
C2120 C2119 1.387 1_455 S
C2120 C2123 1.387 1_455 S
H2121 C2117 0.950 . S
H2122 C2119 0.950 1_455 S
C2123 C2114 1.390 . S
C2123 H2116 0.953 . S
C2123 C2120 1.387 1_655 S
C2124 C2125 1.387 . S
C2124 H2128 0.950 . S
C2124 C2133 1.390 . S
C2125 C2124 1.387 . S
C2125 C2127 1.387 . S
H2126 C2133 0.950 . S
C2127 C2125 1.387 . S
C2127 C2129 1.390 . S
C2127 H2131 0.950 . S
H2128 C2124 0.950 . S
C2129 C2127 1.390 . S
C2129 C2130 1.387 . S
C2129 H2132 0.950 . S
C2130 C2129 1.387 . S
C2130 C2133 1.387 . S
H2131 C2127 0.950 . S
H2132 C2129 0.950 . S
C2133 C2124 1.390 . S
C2133 H2126 0.950 . S
C2133 C2130 1.387 . S
C2134 C2135 1.387 . S
C2134 H2138 0.950 . S
C2134 C2143 1.390 . S
C2135 C2134 1.387 . S
C2135 C2137 1.387 . S
H2136 C2143 0.950 . S
C2137 C2135 1.387 . S
C2137 C2139 1.390 . S
C2137 H2141 0.950 . S
H2138 C2134 0.950 . S
C2139 C2137 1.390 . S
C2139 C2140 1.387 . S
C2139 H2142 0.950 . S
C2140 C2139 1.387 . S
C2140 C2143 1.387 . S
H2141 C2137 0.950 . S
H2142 C2139 0.950 . S
C2143 C2134 1.390 . S
C2143 H2136 0.950 . S
C2143 C2140 1.387 . S
C2144 C2145 1.387 . S
C2144 H2148 0.950 . S
C2144 C2153 1.390 . S
C2145 C2144 1.387 . S
C2145 C2147 1.387 . S
H2146 C2153 0.950 . S
C2147 C2145 1.387 . S
C2147 C2149 1.390 . S
C2147 H2151 0.950 . S
H2148 C2144 0.950 . S
C2149 C2147 1.390 . S
C2149 C2150 1.387 . S
C2149 H2152 0.950 . S
C2150 C2149 1.387 . S
C2150 C2153 1.387 . S
H2151 C2147 0.950 . S
H2152 C2149 0.950 . S
C2153 C2144 1.390 . S
C2153 H2146 0.950 . S
C2153 C2150 1.387 . S
C2154 C2155 1.387 1_556 S
C2154 H2158 0.941 1_556 S
C2154 C2163 1.390 . S
C2155 C2154 1.387 1_554 S
C2155 C2157 1.387 1_554 S
H2156 C2163 0.950 . S
C2157 C2155 1.387 1_556 S
C2157 C2159 1.390 . S
C2157 H2161 0.949 . S
H2158 C2154 0.941 1_554 S
C2159 C2157 1.390 . S
C2159 C2160 1.387 . S
C2159 H2162 0.950 . S
C2160 C2159 1.387 . S
C2160 C2163 1.387 . S
H2161 C2157 0.949 . S
H2162 C2159 0.950 . S
C2163 C2154 1.390 . S
C2163 H2156 0.950 . S
C2163 C2160 1.387 . S
C2164 C2165 1.387 . S
C2164 H2168 0.950 . S
C2164 C2173 1.390 . S
C2165 C2164 1.387 . S
C2165 C2167 1.387 . S
H2166 C2173 0.950 . S
C2167 C2165 1.387 . S
C2167 C2169 1.390 . S
C2167 H2171 0.950 . S
H2168 C2164 0.950 . S
C2169 C2167 1.390 . S
C2169 C2170 1.387 . S
C2169 H2172 0.950 . S
C2170 C2169 1.387 . S
C2170 C2173 1.387 . S
H2171 C2167 0.950 . S
H2172 C2169 0.950 . S
C2173 C2164 1.390 . S
C2173 H2166 0.950 . S
C2173 C2170 1.387 . S
C2174 C2175 1.387 . S
C2174 H2178 0.950 . S
C2174 C2183 1.390 . S
C2175 C2174 1.387 . S
C2175 C2177 1.387 . S
H2176 C2183 0.950 . S
C2177 C2175 1.387 . S
C2177 C2179 1.390 . S
C2177 H2181 0.950 . S
H2178 C2174 0.950 . S
C2179 C2177 1.390 . S
C2179 C2180 1.387 . S
C2179 H2182 0.950 . S
C2180 C2179 1.387 . S
C2180 C2183 1.387 . S
H2181 C2177 0.950 . S
H2182 C2179 0.950 . S
C2183 C2174 1.390 . S
C2183 H2176 0.950 . S
C2183 C2180 1.387 . S
C2184 C2185 1.387 . S
C2184 H2188 0.950 . S
C2184 C2193 1.390 . S
C2185 C2184 1.387 . S
C2185 C2187 1.387 . S
H2186 C2193 0.950 . S
C2187 C2185 1.387 . S
C2187 C2189 1.390 . S
C2187 H2191 0.950 . S
H2188 C2184 0.950 . S
C2189 C2187 1.390 . S
C2189 C2190 1.387 . S
C2189 H2192 0.950 . S
C2190 C2189 1.387 . S
C2190 C2193 1.387 . S
H2191 C2187 0.950 . S
H2192 C2189 0.950 . S
C2193 C2184 1.390 . S
C2193 H2186 0.950 . S
C2193 C2190 1.387 . S
C2194 C2195 1.387 . S
C2194 H2198 0.950 1_554 S
C2194 C2203 1.390 1_554 S
C2195 C2194 1.387 . S
C2195 C2197 1.387 . S
H2196 C2203 0.950 . S
C2197 C2195 1.387 . S
C2197 C2199 1.390 . S
C2197 H2201 0.950 . S
H2198 C2194 0.950 1_556 S
C2199 C2197 1.390 . S
C2199 C2200 1.387 1_554 S
C2199 H2202 0.950 . S
C2200 C2199 1.387 1_556 S
C2200 C2203 1.387 . S
H2201 C2197 0.950 . S
H2202 C2199 0.950 . S
C2203 C2194 1.390 1_556 S
C2203 H2196 0.950 . S
C2203 C2200 1.387 . S
C2204 C2205 1.387 . S
C2204 H2208 0.950 . S
C2204 C2213 1.390 . S
C2205 C2204 1.387 . S
C2205 C2207 1.387 . S
H2206 C2213 0.950 . S
C2207 C2205 1.387 . S
C2207 C2209 1.390 . S
C2207 H2211 0.950 . S
H2208 C2204 0.950 . S
C2209 C2207 1.390 . S
C2209 C2210 1.387 . S
C2209 H2212 0.950 . S
C2210 C2209 1.387 . S
C2210 C2213 1.387 . S
H2211 C2207 0.950 . S
H2212 C2209 0.950 . S
C2213 C2204 1.390 . S
C2213 H2206 0.950 . S
C2213 C2210 1.387 . S
C2214 C2215 1.387 . S
C2214 H2218 0.950 . S
C2214 C2223 1.390 . S
C2215 C2214 1.387 . S
C2215 C2217 1.387 . S
H2216 C2223 0.950 . S
C2217 C2215 1.387 . S
C2217 C2219 1.390 . S
C2217 H2221 0.950 . S
H2218 C2214 0.950 . S
C2219 C2217 1.390 . S
C2219 C2220 1.387 . S
C2219 H2222 0.950 . S
C2220 C2219 1.387 . S
C2220 C2223 1.387 . S
H2221 C2217 0.950 . S
H2222 C2219 0.950 . S
C2223 C2214 1.390 . S
C2223 H2216 0.950 . S
C2223 C2220 1.387 . S
C2224 C2225 1.387 . S
C2224 H2228 0.950 . S
C2224 C2233 1.390 . S
C2225 C2224 1.387 . S
C2225 C2227 1.387 . S
H2226 C2233 0.950 . S
C2227 C2225 1.387 . S
C2227 C2229 1.390 . S
C2227 H2231 0.950 . S
H2228 C2224 0.950 . S
C2229 C2227 1.390 . S
C2229 C2230 1.387 . S
C2229 H2232 0.950 . S
C2230 C2229 1.387 . S
C2230 C2233 1.387 . S
H2231 C2227 0.950 . S
H2232 C2229 0.950 . S
C2233 C2224 1.390 . S
C2233 H2226 0.950 . S
C2233 C2230 1.387 . S
C2234 C2235 1.387 . S
C2234 H2238 0.950 . S
C2234 C2243 1.390 . S
C2235 C2234 1.387 . S
C2235 C2237 1.387 . S
H2236 C2243 0.950 . S
C2237 C2235 1.387 . S
C2237 C2239 1.390 . S
C2237 H2241 0.950 . S
H2238 C2234 0.950 . S
C2239 C2237 1.390 . S
C2239 C2240 1.387 . S
C2239 H2242 0.950 . S
C2240 C2239 1.387 . S
C2240 C2243 1.387 . S
H2241 C2237 0.950 . S
H2242 C2239 0.950 . S
C2243 C2234 1.390 . S
C2243 H2236 0.950 . S
C2243 C2240 1.387 . S
C2244 C2245 1.387 . S
C2244 H2248 0.950 . S
C2244 C2253 1.390 . S
C2245 C2244 1.387 . S
C2245 C2247 1.387 . S
H2246 C2253 0.950 . S
C2247 C2245 1.387 . S
C2247 C2249 1.405 . S
C2247 H2251 0.950 . S
H2248 C2244 0.950 . S
C2249 C2247 1.405 . S
C2249 C2250 1.384 1_565 S
C2249 H2252 0.941 1_565 S
C2250 C2249 1.384 1_545 S
C2250 C2253 1.387 1_545 S
H2251 C2247 0.950 . S
H2252 C2249 0.941 1_545 S
C2253 C2244 1.390 . S
C2253 H2246 0.950 . S
C2253 C2250 1.387 1_565 S
C2254 C2255 1.387 . S
C2254 H2258 0.950 . S
C2254 C2263 1.390 . S
C2255 C2254 1.387 . S
C2255 C2257 1.387 . S
H2256 C2263 0.950 . S
C2257 C2255 1.387 . S
C2257 C2259 1.390 . S
C2257 H2261 0.950 . S
H2258 C2254 0.950 . S
C2259 C2257 1.390 . S
C2259 C2260 1.387 . S
C2259 H2262 0.950 . S
C2260 C2259 1.387 . S
C2260 C2263 1.387 . S
H2261 C2257 0.950 . S
H2262 C2259 0.950 . S
C2263 C2254 1.390 . S
C2263 H2256 0.950 . S
C2263 C2260 1.387 . S
C2264 C2265 1.387 . S
C2264 H2268 0.950 . S
C2264 C2273 1.390 . S
C2265 C2264 1.387 . S
C2265 C2267 1.387 . S
H2266 C2273 0.950 . S
C2267 C2265 1.387 . S
C2267 C2269 1.390 . S
C2267 H2271 0.950 . S
H2268 C2264 0.950 . S
C2269 C2267 1.390 . S
C2269 C2270 1.387 . S
C2269 H2272 0.950 . S
C2270 C2269 1.387 . S
C2270 C2273 1.387 . S
H2271 C2267 0.950 . S
H2272 C2269 0.950 . S
C2273 C2264 1.390 . S
C2273 H2266 0.950 . S
C2273 C2270 1.387 . S
C2274 C2275 1.387 . S
C2274 H2278 0.950 . S
C2274 C2283 1.390 . S
C2275 C2274 1.387 . S
C2275 C2277 1.387 . S
H2276 C2283 0.950 . S
C2277 C2275 1.387 . S
C2277 C2279 1.390 . S
C2277 H2281 0.950 . S
H2278 C2274 0.950 . S
C2279 C2277 1.390 . S
C2279 C2280 1.387 . S
C2279 H2282 0.950 . S
C2280 C2279 1.387 . S
C2280 C2283 1.387 . S
H2281 C2277 0.950 . S
H2282 C2279 0.950 . S
C2283 C2274 1.390 . S
C2283 H2276 0.950 . S
C2283 C2280 1.387 . S
C2284 C2285 1.387 . S
C2284 H2288 0.950 . S
C2284 C2293 1.406 . S
C2285 C2284 1.387 . S
C2285 C2287 1.387 . S
H2286 C2293 0.940 1_565 S
C2287 C2285 1.387 . S
C2287 C2289 1.390 . S
C2287 H2291 0.950 . S
H2288 C2284 0.950 . S
C2289 C2287 1.390 . S
C2289 C2290 1.387 1_545 S
C2289 H2292 0.950 . S
C2290 C2289 1.387 1_565 S
C2290 C2293 1.383 1_565 S
H2291 C2287 0.950 . S
H2292 C2289 0.950 . S
C2293 C2284 1.406 . S
C2293 H2286 0.940 1_545 S
C2293 C2290 1.383 1_545 S
C2294 C2295 1.387 . S
C2294 H2298 0.950 . S
C2294 C2303 1.404 . S
C2295 C2294 1.387 . S
C2295 C2297 1.387 . S
H2296 C2303 0.941 1_545 S
C2297 C2295 1.387 . S
C2297 C2299 1.390 . S
C2297 H2301 0.950 . S
H2298 C2294 0.950 . S
C2299 C2297 1.390 . S
C2299 C2300 1.387 1_565 S
C2299 H2302 0.950 . S
C2300 C2299 1.387 1_545 S
C2300 C2303 1.384 1_545 S
H2301 C2297 0.950 . S
H2302 C2299 0.950 . S
C2303 C2294 1.404 . S
C2303 H2296 0.941 1_565 S
C2303 C2300 1.384 1_565 S
C2304 C2305 1.387 . S
C2304 H2308 0.950 . S
C2304 C2313 1.390 1_655 S
C2305 C2304 1.387 . S
C2305 C2307 1.387 . S
H2306 C2313 0.950 . S
C2307 C2305 1.387 . S
C2307 C2309 1.390 1_655 S
C2307 H2311 0.950 . S
H2308 C2304 0.950 . S
C2309 C2307 1.390 1_455 S
C2309 C2310 1.387 . S
C2309 H2312 0.950 . S
C2310 C2309 1.387 . S
C2310 C2313 1.387 . S
H2311 C2307 0.950 . S
H2312 C2309 0.950 . S
C2313 C2304 1.390 1_455 S
C2313 H2306 0.950 . S
C2313 C2310 1.387 . S
C2314 C2315 1.387 . S
C2314 H2318 0.950 . S
C2314 C2323 1.390 1_455 S
C2315 C2314 1.387 . S
C2315 C2317 1.387 . S
H2316 C2323 0.950 . S
C2317 C2315 1.387 . S
C2317 C2319 1.390 1_455 S
C2317 H2321 0.950 . S
H2318 C2314 0.950 . S
C2319 C2317 1.390 1_655 S
C2319 C2320 1.387 . S
C2319 H2322 0.950 . S
C2320 C2319 1.387 . S
C2320 C2323 1.387 . S
H2321 C2317 0.950 . S
H2322 C2319 0.950 . S
C2323 C2314 1.390 1_655 S
C2323 H2316 0.950 . S
C2323 C2320 1.387 . S
C2324 C2325 1.387 . S
C2324 H2328 0.950 . S
C2324 C2333 1.390 . S
C2325 C2324 1.387 . S
C2325 C2327 1.387 . S
H2326 C2333 0.950 . S
C2327 C2325 1.387 . S
C2327 C2329 1.390 . S
C2327 H2331 0.950 . S
H2328 C2324 0.950 . S
C2329 C2327 1.390 . S
C2329 C2330 1.387 . S
C2329 H2332 0.950 . S
C2330 C2329 1.387 . S
C2330 C2333 1.387 . S
H2331 C2327 0.950 . S
H2332 C2329 0.950 . S
C2333 C2324 1.390 . S
C2333 H2326 0.950 . S
C2333 C2330 1.387 . S
C2334 C2335 1.387 . S
C2334 H2338 0.950 . S
C2334 C2343 1.390 . S
C2335 C2334 1.387 . S
C2335 C2337 1.387 . S
H2336 C2343 0.950 . S
C2337 C2335 1.387 . S
C2337 C2339 1.390 . S
C2337 H2341 0.950 . S
H2338 C2334 0.950 . S
C2339 C2337 1.390 . S
C2339 C2340 1.387 . S
C2339 H2342 0.950 . S
C2340 C2339 1.387 . S
C2340 C2343 1.387 . S
H2341 C2337 0.950 . S
H2342 C2339 0.950 . S
C2343 C2334 1.390 . S
C2343 H2336 0.950 . S
C2343 C2340 1.387 . S
C2344 C2345 1.387 . S
C2344 H2348 0.950 . S
C2344 C2353 1.390 1_455 S
C2345 C2344 1.387 . S
C2345 C2347 1.387 . S
H2346 C2353 0.950 . S
C2347 C2345 1.387 . S
C2347 C2349 1.390 1_455 S
C2347 H2351 0.950 . S
H2348 C2344 0.950 . S
C2349 C2347 1.390 1_655 S
C2349 C2350 1.387 . S
C2349 H2352 0.950 . S
C2350 C2349 1.387 . S
C2350 C2353 1.387 . S
H2351 C2347 0.950 . S
H2352 C2349 0.950 . S
C2353 C2344 1.390 1_655 S
C2353 H2346 0.950 . S
C2353 C2350 1.387 . S
C2354 C2355 1.387 . S
C2354 H2358 0.950 . S
C2354 C2363 1.390 . S
C2355 C2354 1.387 . S
C2355 C2357 1.387 . S
H2356 C2363 0.950 . S
C2357 C2355 1.387 . S
C2357 C2359 1.390 . S
C2357 H2361 0.950 . S
H2358 C2354 0.950 . S
C2359 C2357 1.390 . S
C2359 C2360 1.387 . S
C2359 H2362 0.950 . S
C2360 C2359 1.387 . S
C2360 C2363 1.387 . S
H2361 C2357 0.950 . S
H2362 C2359 0.950 . S
C2363 C2354 1.390 . S
C2363 H2356 0.950 . S
C2363 C2360 1.387 . S
C2364 C2365 1.387 . S
C2364 H2368 0.950 . S
C2364 C2373 1.390 . S
C2365 C2364 1.387 . S
C2365 C2367 1.387 . S
H2366 C2373 0.950 . S
C2367 C2365 1.387 . S
C2367 C2369 1.390 . S
C2367 H2371 0.950 . S
H2368 C2364 0.950 . S
C2369 C2367 1.390 . S
C2369 C2370 1.387 . S
C2369 H2372 0.950 . S
C2370 C2369 1.387 . S
C2370 C2373 1.387 . S
H2371 C2367 0.950 . S
H2372 C2369 0.950 . S
C2373 C2364 1.390 . S
C2373 H2366 0.950 . S
C2373 C2370 1.387 . S
C2374 C2375 1.387 . S
C2374 H2378 0.950 . S
C2374 C2383 1.390 1_455 S
C2375 C2374 1.387 . S
C2375 C2377 1.387 . S
H2376 C2383 0.950 . S
C2377 C2375 1.387 . S
C2377 C2379 1.390 1_455 S
C2377 H2381 0.950 . S
H2378 C2374 0.950 . S
C2379 C2377 1.390 1_655 S
C2379 C2380 1.387 . S
C2379 H2382 0.950 . S
C2380 C2379 1.387 . S
C2380 C2383 1.387 . S
H2381 C2377 0.950 . S
H2382 C2379 0.950 . S
C2383 C2374 1.390 1_655 S
C2383 H2376 0.950 . S
C2383 C2380 1.387 . S
C2384 C2385 1.387 . S
C2384 H2388 0.950 . S
C2384 C2393 1.390 . S
C2385 C2384 1.387 . S
C2385 C2387 1.387 1_545 S
H2386 C2393 0.950 . S
C2387 C2385 1.387 1_565 S
C2387 C2389 1.390 . S
C2387 H2391 0.950 . S
H2388 C2384 0.950 . S
C2389 C2387 1.390 . S
C2389 C2390 1.387 . S
C2389 H2392 0.950 . S
C2390 C2389 1.387 . S
C2390 C2393 1.387 1_565 S
H2391 C2387 0.950 . S
H2392 C2389 0.950 . S
C2393 C2384 1.390 . S
C2393 H2386 0.950 . S
C2393 C2390 1.387 1_545 S
C2394 C2395 1.387 . S
C2394 H2398 0.950 . S
C2394 C2403 1.390 . S
C2395 C2394 1.387 . S
C2395 C2397 1.387 . S
H2396 C2403 0.950 . S
C2397 C2395 1.387 . S
C2397 C2399 1.390 . S
C2397 H2401 0.950 . S
H2398 C2394 0.950 . S
C2399 C2397 1.390 . S
C2399 C2400 1.387 . S
C2399 H2402 0.950 . S
C2400 C2399 1.387 . S
C2400 C2403 1.387 . S
H2401 C2397 0.950 . S
H2402 C2399 0.950 . S
C2403 C2394 1.390 . S
C2403 H2396 0.950 . S
C2403 C2400 1.387 . S
C2404 C2405 1.387 . S
C2404 H2408 0.950 . S
C2404 C2413 1.390 1_565 S
C2405 C2404 1.387 . S
C2405 C2407 1.387 . S
H2406 C2413 0.950 . S
C2407 C2405 1.387 . S
C2407 C2409 1.390 1_565 S
C2407 H2411 0.950 . S
H2408 C2404 0.950 . S
C2409 C2407 1.390 1_545 S
C2409 C2410 1.387 . S
C2409 H2412 0.950 . S
C2410 C2409 1.387 . S
C2410 C2413 1.387 . S
H2411 C2407 0.950 . S
H2412 C2409 0.950 . S
C2413 C2404 1.390 1_545 S
C2413 H2406 0.950 . S
C2413 C2410 1.387 . S
C2414 C2415 1.387 . S
C2414 H2418 0.950 . S
C2414 C2423 1.390 1_556 S
C2415 C2414 1.387 . S
C2415 C2417 1.387 . S
H2416 C2423 0.950 . S
C2417 C2415 1.387 . S
C2417 C2419 1.390 1_556 S
C2417 H2421 0.950 . S
H2418 C2414 0.950 . S
C2419 C2417 1.390 1_554 S
C2419 C2420 1.387 . S
C2419 H2422 0.950 . S
C2420 C2419 1.387 . S
C2420 C2423 1.387 . S
H2421 C2417 0.950 . S
H2422 C2419 0.950 . S
C2423 C2414 1.390 1_554 S
C2423 H2416 0.950 . S
C2423 C2420 1.387 . S
C2424 C2425 1.387 . S
C2424 H2428 0.950 . S
C2424 C2433 1.390 1_554 S
C2425 C2424 1.387 . S
C2425 C2427 1.387 . S
H2426 C2433 0.950 . S
C2427 C2425 1.387 . S
C2427 C2429 1.390 1_554 S
C2427 H2431 0.950 . S
H2428 C2424 0.950 . S
C2429 C2427 1.390 1_556 S
C2429 C2430 1.387 . S
C2429 H2432 0.950 . S
C2430 C2429 1.387 . S
C2430 C2433 1.387 . S
H2431 C2427 0.950 . S
H2432 C2429 0.950 . S
C2433 C2424 1.390 1_556 S
C2433 H2426 0.950 . S
C2433 C2430 1.387 . S
C2434 C2435 1.387 . S
C2434 H2438 0.950 . S
C2434 C2443 1.390 1_554 S
C2435 C2434 1.387 . S
C2435 C2437 1.387 . S
H2436 C2443 0.950 . S
C2437 C2435 1.387 . S
C2437 C2439 1.390 1_554 S
C2437 H2441 0.950 . S
H2438 C2434 0.950 . S
C2439 C2437 1.390 1_556 S
C2439 C2440 1.387 . S
C2439 H2442 0.950 . S
C2440 C2439 1.387 . S
C2440 C2443 1.387 . S
H2441 C2437 0.950 . S
H2442 C2439 0.950 . S
C2443 C2434 1.390 1_556 S
C2443 H2436 0.950 . S
C2443 C2440 1.387 . S
C2444 C2445 1.387 . S
C2444 H2448 0.950 . S
C2444 C2453 1.390 . S
C2445 C2444 1.387 . S
C2445 C2447 1.387 . S
H2446 C2453 0.950 . S
C2447 C2445 1.387 . S
C2447 C2449 1.390 . S
C2447 H2451 0.950 . S
H2448 C2444 0.950 . S
C2449 C2447 1.390 . S
C2449 C2450 1.387 . S
C2449 H2452 0.950 . S
C2450 C2449 1.387 . S
C2450 C2453 1.387 . S
H2451 C2447 0.950 . S
H2452 C2449 0.950 . S
C2453 C2444 1.390 . S
C2453 H2446 0.950 . S
C2453 C2450 1.387 . S
C2454 C2455 1.387 . S
C2454 H2458 0.950 . S
C2454 C2463 1.390 . S
C2455 C2454 1.387 . S
C2455 C2457 1.387 . S
H2456 C2463 0.950 . S
C2457 C2455 1.387 . S
C2457 C2459 1.390 . S
C2457 H2461 0.950 . S
H2458 C2454 0.950 . S
C2459 C2457 1.390 . S
C2459 C2460 1.387 . S
C2459 H2462 0.950 . S
C2460 C2459 1.387 . S
C2460 C2463 1.387 . S
H2461 C2457 0.950 . S
H2462 C2459 0.950 . S
C2463 C2454 1.390 . S
C2463 H2456 0.950 . S
C2463 C2460 1.387 . S
C2464 C2465 1.387 . S
C2464 H2468 0.950 . S
C2464 C2473 1.390 1_565 S
C2465 C2464 1.387 . S
C2465 C2467 1.387 . S
H2466 C2473 0.950 . S
C2467 C2465 1.387 . S
C2467 C2469 1.390 1_565 S
C2467 H2471 0.950 . S
H2468 C2464 0.950 . S
C2469 C2467 1.390 1_545 S
C2469 C2470 1.387 . S
C2469 H2472 0.950 . S
C2470 C2469 1.387 . S
C2470 C2473 1.387 . S
H2471 C2467 0.950 . S
H2472 C2469 0.950 . S
C2473 C2464 1.390 1_545 S
C2473 H2466 0.950 . S
C2473 C2470 1.387 . S
C2474 C2475 1.387 . S
C2474 H2478 0.950 . S
C2474 C2483 1.390 . S
C2475 C2474 1.387 . S
C2475 C2477 1.387 . S
H2476 C2483 0.950 . S
C2477 C2475 1.387 . S
C2477 C2479 1.390 . S
C2477 H2481 0.950 . S
H2478 C2474 0.950 . S
C2479 C2477 1.390 . S
C2479 C2480 1.387 . S
C2479 H2482 0.950 . S
C2480 C2479 1.387 . S
C2480 C2483 1.387 . S
H2481 C2477 0.950 . S
H2482 C2479 0.950 . S
C2483 C2474 1.390 . S
C2483 H2476 0.950 . S
C2483 C2480 1.387 . S
C2484 C2485 1.387 . S
C2484 H2488 0.950 . S
C2484 C2493 1.390 . S
C2485 C2484 1.387 . S
C2485 C2487 1.387 . S
H2486 C2493 0.950 . S
C2487 C2485 1.387 . S
C2487 C2489 1.390 . S
C2487 H2491 0.950 . S
H2488 C2484 0.950 . S
C2489 C2487 1.390 . S
C2489 C2490 1.387 . S
C2489 H2492 0.950 . S
C2490 C2489 1.387 . S
C2490 C2493 1.387 . S
H2491 C2487 0.950 . S
H2492 C2489 0.950 . S
C2493 C2484 1.390 . S
C2493 H2486 0.950 . S
C2493 C2490 1.387 . S
C2494 C2495 1.387 . S
C2494 H2498 0.950 . S
C2494 C2503 1.390 1_455 S
C2495 C2494 1.387 . S
C2495 C2497 1.387 . S
H2496 C2503 0.950 . S
C2497 C2495 1.387 . S
C2497 C2499 1.390 1_455 S
C2497 H2501 0.950 . S
H2498 C2494 0.950 . S
C2499 C2497 1.390 1_655 S
C2499 C2500 1.387 . S
C2499 H2502 0.950 . S
C2500 C2499 1.387 . S
C2500 C2503 1.387 . S
H2501 C2497 0.950 . S
H2502 C2499 0.950 . S
C2503 C2494 1.390 1_655 S
C2503 H2496 0.950 . S
C2503 C2500 1.387 . S
C2504 C2505 1.387 . S
C2504 H2508 0.950 . S
C2504 C2513 1.390 1_455 S
C2505 C2504 1.387 . S
C2505 C2507 1.387 . S
H2506 C2513 0.950 . S
C2507 C2505 1.387 . S
C2507 C2509 1.390 1_455 S
C2507 H2511 0.950 . S
H2508 C2504 0.950 . S
C2509 C2507 1.390 1_655 S
C2509 C2510 1.387 . S
C2509 H2512 0.950 . S
C2510 C2509 1.387 . S
C2510 C2513 1.387 . S
H2511 C2507 0.950 . S
H2512 C2509 0.950 . S
C2513 C2504 1.390 1_655 S
C2513 H2506 0.950 . S
C2513 C2510 1.387 . S
C2514 C2515 1.387 . S
C2514 H2518 0.950 . S
C2514 C2523 1.390 . S
C2515 C2514 1.387 . S
C2515 C2517 1.387 . S
H2516 C2523 0.950 . S
C2517 C2515 1.387 . S
C2517 C2519 1.390 . S
C2517 H2521 0.950 . S
H2518 C2514 0.950 . S
C2519 C2517 1.390 . S
C2519 C2520 1.387 . S
C2519 H2522 0.950 . S
C2520 C2519 1.387 . S
C2520 C2523 1.387 . S
H2521 C2517 0.950 . S
H2522 C2519 0.950 . S
C2523 C2514 1.390 . S
C2523 H2516 0.950 . S
C2523 C2520 1.387 . S
C2524 C2525 1.387 . S
C2524 H2528 0.950 . S
C2524 C2533 1.390 . S
C2525 C2524 1.387 . S
C2525 C2527 1.387 . S
H2526 C2533 0.950 . S
C2527 C2525 1.387 . S
C2527 C2529 1.390 . S
C2527 H2531 0.950 . S
H2528 C2524 0.950 . S
C2529 C2527 1.390 . S
C2529 C2530 1.387 . S
C2529 H2532 0.950 . S
C2530 C2529 1.387 . S
C2530 C2533 1.387 . S
H2531 C2527 0.950 . S
H2532 C2529 0.950 . S
C2533 C2524 1.390 . S
C2533 H2526 0.950 . S
C2533 C2530 1.387 . S
C2534 C2535 1.387 . S
C2534 H2538 0.950 . S
C2534 C2543 1.390 1_455 S
C2535 C2534 1.387 . S
C2535 C2537 1.387 . S
H2536 C2543 0.950 . S
C2537 C2535 1.387 . S
C2537 C2539 1.390 1_455 S
C2537 H2541 0.950 . S
H2538 C2534 0.950 . S
C2539 C2537 1.390 1_655 S
C2539 C2540 1.387 . S
C2539 H2542 0.950 . S
C2540 C2539 1.387 . S
C2540 C2543 1.387 . S
H2541 C2537 0.950 . S
H2542 C2539 0.950 . S
C2543 C2534 1.390 1_655 S
C2543 H2536 0.950 . S
C2543 C2540 1.387 . S
C2544 C2545 1.387 . S
C2544 H2548 0.950 . S
C2544 C2553 1.390 . S
C2545 C2544 1.387 . S
C2545 C2547 1.387 . S
H2546 C2553 0.950 . S
C2547 C2545 1.387 . S
C2547 C2549 1.390 . S
C2547 H2551 0.950 . S
H2548 C2544 0.950 . S
C2549 C2547 1.390 . S
C2549 C2550 1.387 . S
C2549 H2552 0.950 . S
C2550 C2549 1.387 . S
C2550 C2553 1.387 . S
H2551 C2547 0.950 . S
H2552 C2549 0.950 . S
C2553 C2544 1.390 . S
C2553 H2546 0.950 . S
C2553 C2550 1.387 . S
C2554 C2555 1.387 . S
C2554 H2558 0.950 . S
C2554 C2563 1.390 . S
C2555 C2554 1.387 . S
C2555 C2557 1.387 . S
H2556 C2563 0.950 . S
C2557 C2555 1.387 . S
C2557 C2559 1.390 . S
C2557 H2561 0.950 . S
H2558 C2554 0.950 . S
C2559 C2557 1.390 . S
C2559 C2560 1.387 . S
C2559 H2562 0.950 . S
C2560 C2559 1.387 . S
C2560 C2563 1.387 . S
H2561 C2557 0.950 . S
H2562 C2559 0.950 . S
C2563 C2554 1.390 . S
C2563 H2556 0.950 . S
C2563 C2560 1.387 . S
C2564 C2565 1.387 . S
C2564 H2568 0.950 . S
C2564 C2573 1.390 1_455 S
C2565 C2564 1.387 . S
C2565 C2567 1.387 . S
H2566 C2573 0.950 . S
C2567 C2565 1.387 . S
C2567 C2569 1.390 1_455 S
C2567 H2571 0.950 . S
H2568 C2564 0.950 . S
C2569 C2567 1.390 1_655 S
C2569 C2570 1.387 . S
C2569 H2572 0.950 . S
C2570 C2569 1.387 . S
C2570 C2573 1.387 . S
H2571 C2567 0.950 . S
H2572 C2569 0.950 . S
C2573 C2564 1.390 1_655 S
C2573 H2566 0.950 . S
C2573 C2570 1.387 . S
C2574 C2575 1.387 . S
C2574 H2578 0.950 . S
C2574 C2583 1.390 1_565 S
C2575 C2574 1.387 . S
C2575 C2577 1.387 . S
H2576 C2583 0.950 . S
C2577 C2575 1.387 . S
C2577 C2579 1.390 1_565 S
C2577 H2581 0.950 . S
H2578 C2574 0.950 . S
C2579 C2577 1.390 1_545 S
C2579 C2580 1.387 . S
C2579 H2582 0.950 . S
C2580 C2579 1.387 . S
C2580 C2583 1.387 . S
H2581 C2577 0.950 . S
H2582 C2579 0.950 . S
C2583 C2574 1.390 1_545 S
C2583 H2576 0.950 . S
C2583 C2580 1.387 . S
C2584 C2585 1.387 . S
C2584 H2588 0.950 . S
C2584 C2593 1.390 . S
C2585 C2584 1.387 . S
C2585 C2587 1.387 . S
H2586 C2593 0.950 . S
C2587 C2585 1.387 . S
C2587 C2589 1.390 . S
C2587 H2591 0.950 . S
H2588 C2584 0.950 . S
C2589 C2587 1.390 . S
C2589 C2590 1.387 . S
C2589 H2592 0.950 . S
C2590 C2589 1.387 . S
C2590 C2593 1.387 . S
H2591 C2587 0.950 . S
H2592 C2589 0.950 . S
C2593 C2584 1.390 . S
C2593 H2586 0.950 . S
C2593 C2590 1.387 . S
C2594 C2595 1.387 . S
C2594 H2598 0.950 . S
C2594 C2603 1.390 1_545 S
C2595 C2594 1.387 . S
C2595 C2597 1.387 . S
H2596 C2603 0.950 . S
C2597 C2595 1.387 . S
C2597 C2599 1.390 1_545 S
C2597 H2601 0.950 . S
H2598 C2594 0.950 . S
C2599 C2597 1.390 1_565 S
C2599 C2600 1.387 . S
C2599 H2602 0.950 . S
C2600 C2599 1.387 . S
C2600 C2603 1.387 . S
H2601 C2597 0.950 . S
H2602 C2599 0.950 . S
C2603 C2594 1.390 1_565 S
C2603 H2596 0.950 . S
C2603 C2600 1.387 . S
C2604 C2605 1.387 . S
C2604 H2608 0.950 . S
C2604 C2613 1.390 1_556 S
C2605 C2604 1.387 . S
C2605 C2607 1.387 . S
H2606 C2613 0.950 . S
C2607 C2605 1.387 . S
C2607 C2609 1.390 1_556 S
C2607 H2611 0.950 . S
H2608 C2604 0.950 . S
C2609 C2607 1.390 1_554 S
C2609 C2610 1.387 . S
C2609 H2612 0.950 . S
C2610 C2609 1.387 . S
C2610 C2613 1.387 . S
H2611 C2607 0.950 . S
H2612 C2609 0.950 . S
C2613 C2604 1.390 1_554 S
C2613 H2606 0.950 . S
C2613 C2610 1.387 . S
C2614 C2615 1.387 . S
C2614 H2618 0.950 . S
C2614 C2623 1.390 1_556 S
C2615 C2614 1.387 . S
C2615 C2617 1.387 . S
H2616 C2623 0.950 . S
C2617 C2615 1.387 . S
C2617 C2619 1.390 1_556 S
C2617 H2621 0.950 . S
H2618 C2614 0.950 . S
C2619 C2617 1.390 1_554 S
C2619 C2620 1.387 . S
C2619 H2622 0.950 . S
C2620 C2619 1.387 . S
C2620 C2623 1.387 . S
H2621 C2617 0.950 . S
H2622 C2619 0.950 . S
C2623 C2614 1.390 1_554 S
C2623 H2616 0.950 . S
C2623 C2620 1.387 . S
C2624 C2625 1.387 . S
C2624 H2628 0.950 . S
C2624 C2633 1.390 1_556 S
C2625 C2624 1.387 . S
C2625 C2627 1.387 . S
H2626 C2633 0.950 . S
C2627 C2625 1.387 . S
C2627 C2629 1.390 1_556 S
C2627 H2631 0.950 . S
H2628 C2624 0.950 . S
C2629 C2627 1.390 1_554 S
C2629 C2630 1.387 . S
C2629 H2632 0.950 . S
C2630 C2629 1.387 . S
C2630 C2633 1.387 . S
H2631 C2627 0.950 . S
H2632 C2629 0.950 . S
C2633 C2624 1.390 1_554 S
C2633 H2626 0.950 . S
C2633 C2630 1.387 . S
C2634 C2635 1.387 . S
C2634 H2638 0.950 . S
C2634 C2643 1.390 . S
C2635 C2634 1.387 . S
C2635 C2637 1.387 . S
H2636 C2643 0.950 . S
C2637 C2635 1.387 . S
C2637 C2639 1.390 . S
C2637 H2641 0.950 . S
H2638 C2634 0.950 . S
C2639 C2637 1.390 . S
C2639 C2640 1.387 . S
C2639 H2642 0.950 . S
C2640 C2639 1.387 . S
C2640 C2643 1.387 . S
H2641 C2637 0.950 . S
H2642 C2639 0.950 . S
C2643 C2634 1.390 . S
C2643 H2636 0.950 . S
C2643 C2640 1.387 . S
C2644 C2645 1.387 . S
C2644 H2648 0.950 . S
C2644 C2653 1.390 . S
C2645 C2644 1.387 . S
C2645 C2647 1.387 . S
H2646 C2653 0.950 . S
C2647 C2645 1.387 . S
C2647 C2649 1.390 . S
C2647 H2651 0.950 . S
H2648 C2644 0.950 . S
C2649 C2647 1.390 . S
C2649 C2650 1.387 . S
C2649 H2652 0.950 . S
C2650 C2649 1.387 . S
C2650 C2653 1.387 . S
H2651 C2647 0.950 . S
H2652 C2649 0.950 . S
C2653 C2644 1.390 . S
C2653 H2646 0.950 . S
C2653 C2650 1.387 . S
C2654 C2655 1.387 . S
C2654 H2658 0.950 . S
C2654 C2663 1.390 1_545 S
C2655 C2654 1.387 . S
C2655 C2657 1.387 . S
H2656 C2663 0.950 . S
C2657 C2655 1.387 . S
C2657 C2659 1.390 1_545 S
C2657 H2661 0.950 . S
H2658 C2654 0.950 . S
C2659 C2657 1.390 1_565 S
C2659 C2660 1.387 . S
C2659 H2662 0.950 . S
C2660 C2659 1.387 . S
C2660 C2663 1.387 . S
H2661 C2657 0.950 . S
H2662 C2659 0.950 . S
C2663 C2654 1.390 1_565 S
C2663 H2656 0.950 . S
C2663 C2660 1.387 . S
C2664 C2665 1.387 . S
C2664 H2668 0.950 . S
C2664 C2673 1.390 . S
C2665 C2664 1.387 . S
C2665 C2667 1.387 . S
H2666 C2673 0.950 . S
C2667 C2665 1.387 . S
C2667 C2669 1.390 . S
C2667 H2671 0.950 . S
H2668 C2664 0.950 . S
C2669 C2667 1.390 . S
C2669 C2670 1.387 . S
C2669 H2672 0.950 . S
C2670 C2669 1.387 . S
C2670 C2673 1.387 . S
H2671 C2667 0.950 . S
H2672 C2669 0.950 . S
C2673 C2664 1.390 . S
C2673 H2666 0.950 . S
C2673 C2670 1.387 . S
C2674 C2675 1.387 . S
C2674 H2678 0.950 . S
C2674 C2683 1.390 . S
C2675 C2674 1.387 . S
C2675 C2677 1.387 . S
H2676 C2683 0.950 . S
C2677 C2675 1.387 . S
C2677 C2679 1.390 . S
C2677 H2681 0.950 . S
H2678 C2674 0.950 . S
C2679 C2677 1.390 . S
C2679 C2680 1.387 . S
C2679 H2682 0.950 . S
C2680 C2679 1.387 . S
C2680 C2683 1.387 . S
H2681 C2677 0.950 . S
H2682 C2679 0.950 . S
C2683 C2674 1.390 . S
C2683 H2676 0.950 . S
C2683 C2680 1.387 . S
C2684 C2685 1.387 . S
C2684 H2688 0.950 . S
C2684 C2693 1.390 . S
C2685 C2684 1.387 . S
C2685 C2687 1.387 . S
H2686 C2693 0.950 . S
C2687 C2685 1.387 . S
C2687 C2689 1.390 . S
C2687 H2691 0.950 . S
H2688 C2684 0.950 . S
C2689 C2687 1.390 . S
C2689 C2690 1.387 . S
C2689 H2692 0.950 . S
C2690 C2689 1.387 . S
C2690 C2693 1.387 . S
H2691 C2687 0.950 . S
H2692 C2689 0.950 . S
C2693 C2684 1.390 . S
C2693 H2686 0.950 . S
C2693 C2690 1.387 . S
C2694 C2695 1.387 . S
C2694 H2698 0.950 . S
C2694 C2703 1.390 1_554 S
C2695 C2694 1.387 . S
C2695 C2697 1.387 . S
H2696 C2703 0.950 . S
C2697 C2695 1.387 . S
C2697 C2699 1.390 1_554 S
C2697 H2701 0.950 . S
H2698 C2694 0.950 . S
C2699 C2697 1.390 1_556 S
C2699 C2700 1.387 . S
C2699 H2702 0.950 . S
C2700 C2699 1.387 . S
C2700 C2703 1.387 . S
H2701 C2697 0.950 . S
H2702 C2699 0.950 . S
C2703 C2694 1.390 1_556 S
C2703 H2696 0.950 . S
C2703 C2700 1.387 . S
C2704 C2705 1.387 . S
C2704 H2708 0.950 . S
C2704 C2713 1.390 . S
C2705 C2704 1.387 . S
C2705 C2707 1.387 . S
H2706 C2713 0.950 . S
C2707 C2705 1.387 . S
C2707 C2709 1.390 . S
C2707 H2711 0.950 . S
H2708 C2704 0.950 . S
C2709 C2707 1.390 . S
C2709 C2710 1.387 . S
C2709 H2712 0.950 . S
C2710 C2709 1.387 . S
C2710 C2713 1.387 . S
H2711 C2707 0.950 . S
H2712 C2709 0.950 . S
C2713 C2704 1.390 . S
C2713 H2706 0.950 . S
C2713 C2710 1.387 . S
C2714 C2715 1.387 . S
C2714 H2718 0.950 . S
C2714 C2723 1.390 . S
C2715 C2714 1.387 . S
C2715 C2717 1.387 . S
H2716 C2723 0.950 . S
C2717 C2715 1.387 . S
C2717 C2719 1.390 . S
C2717 H2721 0.950 . S
H2718 C2714 0.950 . S
C2719 C2717 1.390 . S
C2719 C2720 1.387 . S
C2719 H2722 0.950 . S
C2720 C2719 1.387 . S
C2720 C2723 1.387 . S
H2721 C2717 0.950 . S
H2722 C2719 0.950 . S
C2723 C2714 1.390 . S
C2723 H2716 0.950 . S
C2723 C2720 1.387 . S
C2724 C2725 1.387 . S
C2724 H2728 0.950 . S
C2724 C2733 1.390 1_565 S
C2725 C2724 1.387 . S
C2725 C2727 1.387 . S
H2726 C2733 0.950 . S
C2727 C2725 1.387 . S
C2727 C2729 1.390 1_565 S
C2727 H2731 0.950 . S
H2728 C2724 0.950 . S
C2729 C2727 1.390 1_545 S
C2729 C2730 1.387 . S
C2729 H2732 0.950 . S
C2730 C2729 1.387 . S
C2730 C2733 1.387 . S
H2731 C2727 0.950 . S
H2732 C2729 0.950 . S
C2733 C2724 1.390 1_545 S
C2733 H2726 0.950 . S
C2733 C2730 1.387 . S
C2734 C2735 1.387 . S
C2734 H2738 0.950 . S
C2734 C2743 1.390 . S
C2735 C2734 1.387 . S
C2735 C2737 1.387 . S
H2736 C2743 0.950 . S
C2737 C2735 1.387 . S
C2737 C2739 1.390 . S
C2737 H2741 0.950 . S
H2738 C2734 0.950 . S
C2739 C2737 1.390 . S
C2739 C2740 1.387 . S
C2739 H2742 0.950 . S
C2740 C2739 1.387 . S
C2740 C2743 1.387 . S
H2741 C2737 0.950 . S
H2742 C2739 0.950 . S
C2743 C2734 1.390 . S
C2743 H2736 0.950 . S
C2743 C2740 1.387 . S
C2744 C2745 1.387 . S
C2744 H2748 0.950 . S
C2744 C2753 1.390 1_556 S
C2745 C2744 1.387 . S
C2745 C2747 1.387 . S
H2746 C2753 0.950 . S
C2747 C2745 1.387 . S
C2747 C2749 1.390 1_556 S
C2747 H2751 0.950 . S
H2748 C2744 0.950 . S
C2749 C2747 1.390 1_554 S
C2749 C2750 1.387 . S
C2749 H2752 0.950 . S
C2750 C2749 1.387 . S
C2750 C2753 1.387 . S
H2751 C2747 0.950 . S
H2752 C2749 0.950 . S
C2753 C2744 1.390 1_554 S
C2753 H2746 0.950 . S
C2753 C2750 1.387 . S
C2754 C2755 1.387 . S
C2754 H2758 0.950 . S
C2754 C2763 1.390 . S
C2755 C2754 1.387 . S
C2755 C2757 1.387 . S
H2756 C2763 0.950 . S
C2757 C2755 1.387 . S
C2757 C2759 1.390 . S
C2757 H2761 0.950 . S
H2758 C2754 0.950 . S
C2759 C2757 1.390 . S
C2759 C2760 1.387 . S
C2759 H2762 0.950 . S
C2760 C2759 1.387 . S
C2760 C2763 1.387 . S
H2761 C2757 0.950 . S
H2762 C2759 0.950 . S
C2763 C2754 1.390 . S
C2763 H2756 0.950 . S
C2763 C2760 1.387 . S
C2764 C2765 1.387 . S
C2764 H2768 0.950 . S
C2764 C2773 1.390 . S
C2765 C2764 1.387 . S
C2765 C2767 1.387 . S
H2766 C2773 0.950 . S
C2767 C2765 1.387 . S
C2767 C2769 1.390 . S
C2767 H2771 0.950 . S
H2768 C2764 0.950 . S
C2769 C2767 1.390 . S
C2769 C2770 1.387 . S
C2769 H2772 0.950 . S
C2770 C2769 1.387 . S
C2770 C2773 1.387 . S
H2771 C2767 0.950 . S
H2772 C2769 0.950 . S
C2773 C2764 1.390 . S
C2773 H2766 0.950 . S
C2773 C2770 1.387 . S
C2774 C2775 1.387 . S
C2774 H2778 0.950 . S
C2774 C2783 1.390 1_545 S
C2775 C2774 1.387 . S
C2775 C2777 1.387 . S
H2776 C2783 0.950 . S
C2777 C2775 1.387 . S
C2777 C2779 1.390 1_545 S
C2777 H2781 0.950 . S
H2778 C2774 0.950 . S
C2779 C2777 1.390 1_565 S
C2779 C2780 1.387 . S
C2779 H2782 0.950 . S
C2780 C2779 1.387 . S
C2780 C2783 1.387 . S
H2781 C2777 0.950 . S
H2782 C2779 0.950 . S
C2783 C2774 1.390 1_565 S
C2783 H2776 0.950 . S
C2783 C2780 1.387 . S
C2784 C2785 1.387 . S
C2784 H2788 0.950 . S
C2784 C2793 1.390 . S
C2785 C2784 1.387 . S
C2785 C2787 1.387 . S
H2786 C2793 0.950 . S
C2787 C2785 1.387 . S
C2787 C2789 1.390 . S
C2787 H2791 0.950 . S
H2788 C2784 0.950 . S
C2789 C2787 1.390 . S
C2789 C2790 1.387 . S
C2789 H2792 0.950 . S
C2790 C2789 1.387 . S
C2790 C2793 1.387 . S
H2791 C2787 0.950 . S
H2792 C2789 0.950 . S
C2793 C2784 1.390 . S
C2793 H2786 0.950 . S
C2793 C2790 1.387 . S
C2794 C2795 1.387 . S
C2794 H2798 0.950 . S
C2794 C2803 1.390 . S
C2795 C2794 1.387 . S
C2795 C2797 1.387 . S
H2796 C2803 0.950 . S
C2797 C2795 1.387 . S
C2797 C2799 1.390 . S
C2797 H2801 0.950 . S
H2798 C2794 0.950 . S
C2799 C2797 1.390 . S
C2799 C2800 1.387 . S
C2799 H2802 0.950 . S
C2800 C2799 1.387 . S
C2800 C2803 1.387 . S
H2801 C2797 0.950 . S
H2802 C2799 0.950 . S
C2803 C2794 1.390 . S
C2803 H2796 0.950 . S
C2803 C2800 1.387 . S
C2804 C2805 1.387 . S
C2804 H2808 0.950 . S
C2804 C2813 1.390 . S
C2805 C2804 1.387 . S
C2805 C2807 1.387 . S
H2806 C2813 0.950 . S
C2807 C2805 1.387 . S
C2807 C2809 1.390 . S
C2807 H2811 0.950 . S
H2808 C2804 0.950 . S
C2809 C2807 1.390 . S
C2809 C2810 1.387 . S
C2809 H2812 0.950 . S
C2810 C2809 1.387 . S
C2810 C2813 1.387 . S
H2811 C2807 0.950 . S
H2812 C2809 0.950 . S
C2813 C2804 1.390 . S
C2813 H2806 0.950 . S
C2813 C2810 1.387 . S
C2814 C2815 1.387 . S
C2814 H2818 0.950 . S
C2814 C2823 1.390 . S
C2815 C2814 1.387 . S
C2815 C2817 1.387 . S
H2816 C2823 0.950 . S
C2817 C2815 1.387 . S
C2817 C2819 1.390 . S
C2817 H2821 0.950 . S
H2818 C2814 0.950 . S
C2819 C2817 1.390 . S
C2819 C2820 1.387 . S
C2819 H2822 0.950 . S
C2820 C2819 1.387 . S
C2820 C2823 1.387 . S
H2821 C2817 0.950 . S
H2822 C2819 0.950 . S
C2823 C2814 1.390 . S
C2823 H2816 0.950 . S
C2823 C2820 1.387 . S
C2824 C2825 1.387 . S
C2824 H2828 0.950 . S
C2824 C2833 1.390 . S
C2825 C2824 1.387 . S
C2825 C2827 1.387 . S
H2826 C2833 0.950 . S
C2827 C2825 1.387 . S
C2827 C2829 1.390 . S
C2827 H2831 0.950 . S
H2828 C2824 0.950 . S
C2829 C2827 1.390 . S
C2829 C2830 1.387 . S
C2829 H2832 0.950 . S
C2830 C2829 1.387 . S
C2830 C2833 1.387 . S
H2831 C2827 0.950 . S
H2832 C2829 0.950 . S
C2833 C2824 1.390 . S
C2833 H2826 0.950 . S
C2833 C2830 1.387 . S
C2834 C2835 1.387 . S
C2834 H2838 0.950 . S
C2834 C2843 1.390 . S
C2835 C2834 1.387 . S
C2835 C2837 1.387 . S
H2836 C2843 0.950 . S
C2837 C2835 1.387 . S
C2837 C2839 1.390 . S
C2837 H2841 0.950 . S
H2838 C2834 0.950 . S
C2839 C2837 1.390 . S
C2839 C2840 1.387 . S
C2839 H2842 0.950 . S
C2840 C2839 1.387 . S
C2840 C2843 1.387 . S
H2841 C2837 0.950 . S
H2842 C2839 0.950 . S
C2843 C2834 1.390 . S
C2843 H2836 0.950 . S
C2843 C2840 1.387 . S
C2844 C2845 1.387 . S
C2844 H2848 0.950 . S
C2844 C2853 1.390 . S
C2845 C2844 1.387 . S
C2845 C2847 1.387 . S
H2846 C2853 0.950 . S
C2847 C2845 1.387 . S
C2847 C2849 1.390 . S
C2847 H2851 0.950 . S
H2848 C2844 0.950 . S
C2849 C2847 1.390 . S
C2849 C2850 1.387 . S
C2849 H2852 0.950 . S
C2850 C2849 1.387 . S
C2850 C2853 1.387 . S
H2851 C2847 0.950 . S
H2852 C2849 0.950 . S
C2853 C2844 1.390 . S
C2853 H2846 0.950 . S
C2853 C2850 1.387 . S
C2854 C2855 1.387 . S
C2854 H2858 0.950 . S
C2854 C2863 1.390 . S
C2855 C2854 1.387 . S
C2855 C2857 1.387 . S
H2856 C2863 0.950 . S
C2857 C2855 1.387 . S
C2857 C2859 1.390 . S
C2857 H2861 0.950 . S
H2858 C2854 0.950 . S
C2859 C2857 1.390 . S
C2859 C2860 1.387 . S
C2859 H2862 0.950 . S
C2860 C2859 1.387 . S
C2860 C2863 1.387 . S
H2861 C2857 0.950 . S
H2862 C2859 0.950 . S
C2863 C2854 1.390 . S
C2863 H2856 0.950 . S
C2863 C2860 1.387 . S
C2864 C2865 1.387 . S
C2864 H2868 0.950 . S
C2864 C2873 1.390 . S
C2865 C2864 1.387 . S
C2865 C2867 1.387 . S
H2866 C2873 0.950 . S
C2867 C2865 1.387 . S
C2867 C2869 1.390 . S
C2867 H2871 0.950 . S
H2868 C2864 0.950 . S
C2869 C2867 1.390 . S
C2869 C2870 1.387 . S
C2869 H2872 0.950 . S
C2870 C2869 1.387 . S
C2870 C2873 1.387 . S
H2871 C2867 0.950 . S
H2872 C2869 0.950 . S
C2873 C2864 1.390 . S
C2873 H2866 0.950 . S
C2873 C2870 1.387 . S
C2874 C2875 1.387 . S
C2874 H2878 0.950 . S
C2874 C2883 1.390 . S
C2875 C2874 1.387 . S
C2875 C2877 1.387 . S
H2876 C2883 0.950 . S
C2877 C2875 1.387 . S
C2877 C2879 1.390 . S
C2877 H2881 0.950 . S
H2878 C2874 0.950 . S
C2879 C2877 1.390 . S
C2879 C2880 1.387 . S
C2879 H2882 0.950 . S
C2880 C2879 1.387 . S
C2880 C2883 1.387 . S
H2881 C2877 0.950 . S
H2882 C2879 0.950 . S
C2883 C2874 1.390 . S
C2883 H2876 0.950 . S
C2883 C2880 1.387 . S
C2884 C2885 1.387 . S
C2884 H2888 0.950 . S
C2884 C2893 1.390 . S
C2885 C2884 1.387 . S
C2885 C2887 1.387 . S
H2886 C2893 0.950 . S
C2887 C2885 1.387 . S
C2887 C2889 1.390 . S
C2887 H2891 0.950 . S
H2888 C2884 0.950 . S
C2889 C2887 1.390 . S
C2889 C2890 1.387 . S
C2889 H2892 0.950 . S
C2890 C2889 1.387 . S
C2890 C2893 1.387 . S
H2891 C2887 0.950 . S
H2892 C2889 0.950 . S
C2893 C2884 1.390 . S
C2893 H2886 0.950 . S
C2893 C2890 1.387 . S
C2894 C2895 1.387 . S
C2894 H2898 0.950 . S
C2894 C2903 1.390 . S
C2895 C2894 1.387 . S
C2895 C2897 1.387 . S
H2896 C2903 0.950 . S
C2897 C2895 1.387 . S
C2897 C2899 1.390 . S
C2897 H2901 0.950 . S
H2898 C2894 0.950 . S
C2899 C2897 1.390 . S
C2899 C2900 1.387 . S
C2899 H2902 0.950 . S
C2900 C2899 1.387 . S
C2900 C2903 1.387 . S
H2901 C2897 0.950 . S
H2902 C2899 0.950 . S
C2903 C2894 1.390 . S
C2903 H2896 0.950 . S
C2903 C2900 1.387 . S
C2904 C2905 1.387 . S
C2904 H2908 0.950 . S
C2904 C2913 1.390 . S
C2905 C2904 1.387 . S
C2905 C2907 1.387 . S
H2906 C2913 0.950 . S
C2907 C2905 1.387 . S
C2907 C2909 1.390 . S
C2907 H2911 0.950 . S
H2908 C2904 0.950 . S
C2909 C2907 1.390 . S
C2909 C2910 1.387 . S
C2909 H2912 0.950 . S
C2910 C2909 1.387 . S
C2910 C2913 1.387 . S
H2911 C2907 0.950 . S
H2912 C2909 0.950 . S
C2913 C2904 1.390 . S
C2913 H2906 0.950 . S
C2913 C2910 1.387 . S
C2914 C2915 1.387 . S
C2914 H2918 0.950 . S
C2914 C2923 1.390 . S
C2915 C2914 1.387 . S
C2915 C2917 1.387 . S
H2916 C2923 0.950 . S
C2917 C2915 1.387 . S
C2917 C2919 1.390 . S
C2917 H2921 0.950 . S
H2918 C2914 0.950 . S
C2919 C2917 1.390 . S
C2919 C2920 1.387 . S
C2919 H2922 0.950 . S
C2920 C2919 1.387 . S
C2920 C2923 1.387 . S
H2921 C2917 0.950 . S
H2922 C2919 0.950 . S
C2923 C2914 1.390 . S
C2923 H2916 0.950 . S
C2923 C2920 1.387 . S
C2924 C2925 1.387 . S
C2924 H2928 0.950 . S
C2924 C2933 1.390 . S
C2925 C2924 1.387 . S
C2925 C2927 1.387 . S
H2926 C2933 0.950 . S
C2927 C2925 1.387 . S
C2927 C2929 1.390 . S
C2927 H2931 0.950 . S
H2928 C2924 0.950 . S
C2929 C2927 1.390 . S
C2929 C2930 1.387 . S
C2929 H2932 0.950 . S
C2930 C2929 1.387 . S
C2930 C2933 1.387 . S
H2931 C2927 0.950 . S
H2932 C2929 0.950 . S
C2933 C2924 1.390 . S
C2933 H2926 0.950 . S
C2933 C2930 1.387 . S
C2934 C2935 1.387 . S
C2934 H2938 0.950 . S
C2934 C2943 1.390 . S
C2935 C2934 1.387 . S
C2935 C2937 1.387 . S
H2936 C2943 0.950 . S
C2937 C2935 1.387 . S
C2937 C2939 1.390 . S
C2937 H2941 0.950 . S
H2938 C2934 0.950 . S
C2939 C2937 1.390 . S
C2939 C2940 1.387 . S
C2939 H2942 0.950 . S
C2940 C2939 1.387 . S
C2940 C2943 1.387 . S
H2941 C2937 0.950 . S
H2942 C2939 0.950 . S
C2943 C2934 1.390 . S
C2943 H2936 0.950 . S
C2943 C2940 1.387 . S
C2944 C2945 1.387 . S
C2944 H2948 0.950 . S
C2944 C2953 1.390 . S
C2945 C2944 1.387 . S
C2945 C2947 1.387 . S
H2946 C2953 0.950 . S
C2947 C2945 1.387 . S
C2947 C2949 1.390 . S
C2947 H2951 0.950 . S
H2948 C2944 0.950 . S
C2949 C2947 1.390 . S
C2949 C2950 1.387 . S
C2949 H2952 0.950 . S
C2950 C2949 1.387 . S
C2950 C2953 1.387 . S
H2951 C2947 0.950 . S
H2952 C2949 0.950 . S
C2953 C2944 1.390 . S
C2953 H2946 0.950 . S
C2953 C2950 1.387 . S
C2954 C2955 1.387 . S
C2954 H2958 0.950 . S
C2954 C2963 1.390 . S
C2955 C2954 1.387 . S
C2955 C2957 1.387 . S
H2956 C2963 0.950 . S
C2957 C2955 1.387 . S
C2957 C2959 1.390 . S
C2957 H2961 0.950 . S
H2958 C2954 0.950 . S
C2959 C2957 1.390 . S
C2959 C2960 1.387 . S
C2959 H2962 0.950 . S
C2960 C2959 1.387 . S
C2960 C2963 1.387 . S
H2961 C2957 0.950 . S
H2962 C2959 0.950 . S
C2963 C2954 1.390 . S
C2963 H2956 0.950 . S
C2963 C2960 1.387 . S
C2964 C2965 1.387 . S
C2964 H2968 0.950 . S
C2964 C2973 1.390 . S
C2965 C2964 1.387 . S
C2965 C2967 1.387 . S
H2966 C2973 0.950 . S
C2967 C2965 1.387 . S
C2967 C2969 1.390 . S
C2967 H2971 0.950 . S
H2968 C2964 0.950 . S
C2969 C2967 1.390 . S
C2969 C2970 1.387 . S
C2969 H2972 0.950 . S
C2970 C2969 1.387 . S
C2970 C2973 1.387 . S
H2971 C2967 0.950 . S
H2972 C2969 0.950 . S
C2973 C2964 1.390 . S
C2973 H2966 0.950 . S
C2973 C2970 1.387 . S
C2974 C2975 1.387 . S
C2974 H2978 0.950 . S
C2974 C2983 1.390 . S
C2975 C2974 1.387 . S
C2975 C2977 1.387 . S
H2976 C2983 0.950 . S
C2977 C2975 1.387 . S
C2977 C2979 1.390 . S
C2977 H2981 0.950 . S
H2978 C2974 0.950 . S
C2979 C2977 1.390 . S
C2979 C2980 1.387 . S
C2979 H2982 0.950 . S
C2980 C2979 1.387 . S
C2980 C2983 1.387 . S
H2981 C2977 0.950 . S
H2982 C2979 0.950 . S
C2983 C2974 1.390 . S
C2983 H2976 0.950 . S
C2983 C2980 1.387 . S
C2984 C2985 1.387 . S
C2984 H2988 0.950 . S
C2984 C2993 1.390 . S
C2985 C2984 1.387 . S
C2985 C2987 1.387 . S
H2986 C2993 0.950 . S
C2987 C2985 1.387 . S
C2987 C2989 1.390 . S
C2987 H2991 0.950 . S
H2988 C2984 0.950 . S
C2989 C2987 1.390 . S
C2989 C2990 1.387 . S
C2989 H2992 0.950 . S
C2990 C2989 1.387 . S
C2990 C2993 1.387 . S
H2991 C2987 0.950 . S
H2992 C2989 0.950 . S
C2993 C2984 1.390 . S
C2993 H2986 0.950 . S
C2993 C2990 1.387 . S
C2994 C2995 1.387 . S
C2994 H2998 0.950 . S
C2994 C3003 1.390 . S
C2995 C2994 1.387 . S
C2995 C2997 1.387 . S
H2996 C3003 0.950 . S
C2997 C2995 1.387 . S
C2997 C2999 1.390 . S
C2997 H3001 0.950 . S
H2998 C2994 0.950 . S
C2999 C2997 1.390 . S
C2999 C3000 1.387 . S
C2999 H3002 0.950 . S
C3000 C2999 1.387 . S
C3000 C3003 1.387 . S
H3001 C2997 0.950 . S
H3002 C2999 0.950 . S
C3003 C2994 1.390 . S
C3003 H2996 0.950 . S
C3003 C3000 1.387 . S
C3004 C3005 1.387 . S
C3004 H3008 0.950 . S
C3004 C3013 1.390 . S
C3005 C3004 1.387 . S
C3005 C3007 1.387 . S
H3006 C3013 0.950 . S
C3007 C3005 1.387 . S
C3007 C3009 1.390 . S
C3007 H3011 0.950 . S
H3008 C3004 0.950 . S
C3009 C3007 1.390 . S
C3009 C3010 1.387 . S
C3009 H3012 0.950 . S
C3010 C3009 1.387 . S
C3010 C3013 1.387 . S
H3011 C3007 0.950 . S
H3012 C3009 0.950 . S
C3013 C3004 1.390 . S
C3013 H3006 0.950 . S
C3013 C3010 1.387 . S
C3014 C3015 1.387 . S
C3014 H3018 0.950 . S
C3014 C3023 1.390 . S
C3015 C3014 1.387 . S
C3015 C3017 1.387 . S
H3016 C3023 0.950 . S
C3017 C3015 1.387 . S
C3017 C3019 1.390 . S
C3017 H3021 0.950 . S
H3018 C3014 0.950 . S
C3019 C3017 1.390 . S
C3019 C3020 1.387 . S
C3019 H3022 0.950 . S
C3020 C3019 1.387 . S
C3020 C3023 1.387 . S
H3021 C3017 0.950 . S
H3022 C3019 0.950 . S
C3023 C3014 1.390 . S
C3023 H3016 0.950 . S
C3023 C3020 1.387 . S
C3024 C3025 1.387 . S
C3024 H3028 0.950 . S
C3024 C3033 1.390 . S
C3025 C3024 1.387 . S
C3025 C3027 1.387 . S
H3026 C3033 0.950 . S
C3027 C3025 1.387 . S
C3027 C3029 1.390 . S
C3027 H3031 0.950 . S
H3028 C3024 0.950 . S
C3029 C3027 1.390 . S
C3029 C3030 1.387 . S
C3029 H3032 0.950 . S
C3030 C3029 1.387 . S
C3030 C3033 1.387 . S
H3031 C3027 0.950 . S
H3032 C3029 0.950 . S
C3033 C3024 1.390 . S
C3033 H3026 0.950 . S
C3033 C3030 1.387 . S
C3034 C3035 1.387 . S
C3034 H3038 0.950 . S
C3034 C3043 1.390 . S
C3035 C3034 1.387 . S
C3035 C3037 1.387 . S
H3036 C3043 0.950 . S
C3037 C3035 1.387 . S
C3037 C3039 1.390 . S
C3037 H3041 0.950 . S
H3038 C3034 0.950 . S
C3039 C3037 1.390 . S
C3039 C3040 1.387 . S
C3039 H3042 0.950 . S
C3040 C3039 1.387 . S
C3040 C3043 1.387 . S
H3041 C3037 0.950 . S
H3042 C3039 0.950 . S
C3043 C3034 1.390 . S
C3043 H3036 0.950 . S
C3043 C3040 1.387 . S
C3044 C3045 1.387 . S
C3044 H3048 0.950 . S
C3044 C3053 1.390 . S
C3045 C3044 1.387 . S
C3045 C3047 1.387 . S
H3046 C3053 0.950 . S
C3047 C3045 1.387 . S
C3047 C3049 1.390 . S
C3047 H3051 0.950 . S
H3048 C3044 0.950 . S
C3049 C3047 1.390 . S
C3049 C3050 1.387 . S
C3049 H3052 0.950 . S
C3050 C3049 1.387 . S
C3050 C3053 1.387 . S
H3051 C3047 0.950 . S
H3052 C3049 0.950 . S
C3053 C3044 1.390 . S
C3053 H3046 0.950 . S
C3053 C3050 1.387 . S
C3054 C3055 1.387 . S
C3054 H3058 0.950 . S
C3054 C3063 1.390 . S
C3055 C3054 1.387 . S
C3055 C3057 1.387 . S
H3056 C3063 0.950 . S
C3057 C3055 1.387 . S
C3057 C3059 1.390 . S
C3057 H3061 0.950 . S
H3058 C3054 0.950 . S
C3059 C3057 1.390 . S
C3059 C3060 1.387 . S
C3059 H3062 0.950 . S
C3060 C3059 1.387 . S
C3060 C3063 1.387 . S
H3061 C3057 0.950 . S
H3062 C3059 0.950 . S
C3063 C3054 1.390 . S
C3063 H3056 0.950 . S
C3063 C3060 1.387 . S
C3064 C3065 1.387 . S
C3064 H3068 0.950 . S
C3064 C3073 1.390 . S
C3065 C3064 1.387 . S
C3065 C3067 1.387 . S
H3066 C3073 0.950 . S
C3067 C3065 1.387 . S
C3067 C3069 1.390 . S
C3067 H3071 0.950 . S
H3068 C3064 0.950 . S
C3069 C3067 1.390 . S
C3069 C3070 1.387 . S
C3069 H3072 0.950 . S
C3070 C3069 1.387 . S
C3070 C3073 1.387 . S
H3071 C3067 0.950 . S
H3072 C3069 0.950 . S
C3073 C3064 1.390 . S
C3073 H3066 0.950 . S
C3073 C3070 1.387 . S
C3074 C3075 1.387 . S
C3074 H3078 0.950 . S
C3074 C3083 1.390 . S
C3075 C3074 1.387 . S
C3075 C3077 1.387 . S
H3076 C3083 0.950 . S
C3077 C3075 1.387 . S
C3077 C3079 1.390 . S
C3077 H3081 0.950 . S
H3078 C3074 0.950 . S
C3079 C3077 1.390 . S
C3079 C3080 1.387 . S
C3079 H3082 0.950 . S
C3080 C3079 1.387 . S
C3080 C3083 1.387 . S
H3081 C3077 0.950 . S
H3082 C3079 0.950 . S
C3083 C3074 1.390 . S
C3083 H3076 0.950 . S
C3083 C3080 1.387 . S
C3084 C3085 1.387 . S
C3084 H3088 0.950 . S
C3084 C3093 1.390 . S
C3085 C3084 1.387 . S
C3085 C3087 1.387 . S
H3086 C3093 0.950 . S
C3087 C3085 1.387 . S
C3087 C3089 1.390 . S
C3087 H3091 0.950 . S
H3088 C3084 0.950 . S
C3089 C3087 1.390 . S
C3089 C3090 1.387 . S
C3089 H3092 0.950 . S
C3090 C3089 1.387 . S
C3090 C3093 1.387 . S
H3091 C3087 0.950 . S
H3092 C3089 0.950 . S
C3093 C3084 1.390 . S
C3093 H3086 0.950 . S
C3093 C3090 1.387 . S
C3094 C3095 1.387 . S
C3094 H3098 0.950 . S
C3094 C3103 1.390 . S
C3095 C3094 1.387 . S
C3095 C3097 1.387 . S
H3096 C3103 0.950 . S
C3097 C3095 1.387 . S
C3097 C3099 1.390 . S
C3097 H3101 0.950 . S
H3098 C3094 0.950 . S
C3099 C3097 1.390 . S
C3099 C3100 1.387 . S
C3099 H3102 0.950 . S
C3100 C3099 1.387 . S
C3100 C3103 1.387 . S
H3101 C3097 0.950 . S
H3102 C3099 0.950 . S
C3103 C3094 1.390 . S
C3103 H3096 0.950 . S
C3103 C3100 1.387 . S
C3104 C3105 1.387 . S
C3104 H3108 0.950 . S
C3104 C3113 1.390 . S
C3105 C3104 1.387 . S
C3105 C3107 1.387 . S
H3106 C3113 0.950 . S
C3107 C3105 1.387 . S
C3107 C3109 1.390 . S
C3107 H3111 0.950 . S
H3108 C3104 0.950 . S
C3109 C3107 1.390 . S
C3109 C3110 1.387 . S
C3109 H3112 0.950 . S
C3110 C3109 1.387 . S
C3110 C3113 1.387 . S
H3111 C3107 0.950 . S
H3112 C3109 0.950 . S
C3113 C3104 1.390 . S
C3113 H3106 0.950 . S
C3113 C3110 1.387 . S
C3114 C3115 1.387 . S
C3114 H3118 0.950 . S
C3114 C3123 1.390 . S
C3115 C3114 1.387 . S
C3115 C3117 1.387 . S
H3116 C3123 0.950 . S
C3117 C3115 1.387 . S
C3117 C3119 1.390 . S
C3117 H3121 0.950 . S
H3118 C3114 0.950 . S
C3119 C3117 1.390 . S
C3119 C3120 1.387 . S
C3119 H3122 0.950 . S
C3120 C3119 1.387 . S
C3120 C3123 1.387 . S
H3121 C3117 0.950 . S
H3122 C3119 0.950 . S
C3123 C3114 1.390 . S
C3123 H3116 0.950 . S
C3123 C3120 1.387 . S
C3124 C3125 1.387 . S
C3124 H3128 0.950 . S
C3124 C3133 1.390 . S
C3125 C3124 1.387 . S
C3125 C3127 1.387 . S
H3126 C3133 0.950 . S
C3127 C3125 1.387 . S
C3127 C3129 1.390 . S
C3127 H3131 0.950 . S
H3128 C3124 0.950 . S
C3129 C3127 1.390 . S
C3129 C3130 1.387 . S
C3129 H3132 0.950 . S
C3130 C3129 1.387 . S
C3130 C3133 1.387 . S
H3131 C3127 0.950 . S
H3132 C3129 0.950 . S
C3133 C3124 1.390 . S
C3133 H3126 0.950 . S
C3133 C3130 1.387 . S
C3134 C3135 1.387 . S
C3134 H3138 0.950 . S
C3134 C3143 1.390 . S
C3135 C3134 1.387 . S
C3135 C3137 1.387 . S
H3136 C3143 0.950 . S
C3137 C3135 1.387 . S
C3137 C3139 1.390 . S
C3137 H3141 0.950 . S
H3138 C3134 0.950 . S
C3139 C3137 1.390 . S
C3139 C3140 1.387 . S
C3139 H3142 0.950 . S
C3140 C3139 1.387 . S
C3140 C3143 1.387 . S
H3141 C3137 0.950 . S
H3142 C3139 0.950 . S
C3143 C3134 1.390 . S
C3143 H3136 0.950 . S
C3143 C3140 1.387 . S
C3144 C3145 1.387 . S
C3144 H3148 0.950 . S
C3144 C3153 1.390 . S
C3145 C3144 1.387 . S
C3145 C3147 1.387 . S
H3146 C3153 0.950 . S
C3147 C3145 1.387 . S
C3147 C3149 1.390 . S
C3147 H3151 0.950 . S
H3148 C3144 0.950 . S
C3149 C3147 1.390 . S
C3149 C3150 1.387 . S
C3149 H3152 0.950 . S
C3150 C3149 1.387 . S
C3150 C3153 1.387 . S
H3151 C3147 0.950 . S
H3152 C3149 0.950 . S
C3153 C3144 1.390 . S
C3153 H3146 0.950 . S
C3153 C3150 1.387 . S
C3154 C3155 1.387 . S
C3154 H3158 0.950 . S
C3154 C3163 1.390 . S
C3155 C3154 1.387 . S
C3155 C3157 1.387 . S
H3156 C3163 0.950 . S
C3157 C3155 1.387 . S
C3157 C3159 1.390 . S
C3157 H3161 0.950 . S
H3158 C3154 0.950 . S
C3159 C3157 1.390 . S
C3159 C3160 1.387 . S
C3159 H3162 0.950 . S
C3160 C3159 1.387 . S
C3160 C3163 1.387 . S
H3161 C3157 0.950 . S
H3162 C3159 0.950 . S
C3163 C3154 1.390 . S
C3163 H3156 0.950 . S
C3163 C3160 1.387 . S
C3164 C3165 1.387 . S
C3164 H3168 0.950 . S
C3164 C3173 1.390 . S
C3165 C3164 1.387 . S
C3165 C3167 1.387 . S
H3166 C3173 0.950 . S
C3167 C3165 1.387 . S
C3167 C3169 1.390 . S
C3167 H3171 0.950 . S
H3168 C3164 0.950 . S
C3169 C3167 1.390 . S
C3169 C3170 1.387 . S
C3169 H3172 0.950 . S
C3170 C3169 1.387 . S
C3170 C3173 1.387 . S
H3171 C3167 0.950 . S
H3172 C3169 0.950 . S
C3173 C3164 1.390 . S
C3173 H3166 0.950 . S
C3173 C3170 1.387 . S
C3174 C3175 1.387 . S
C3174 H3178 0.950 . S
C3174 C3183 1.390 . S
C3175 C3174 1.387 . S
C3175 C3177 1.387 . S
H3176 C3183 0.950 . S
C3177 C3175 1.387 . S
C3177 C3179 1.390 . S
C3177 H3181 0.950 . S
H3178 C3174 0.950 . S
C3179 C3177 1.390 . S
C3179 C3180 1.387 . S
C3179 H3182 0.950 . S
C3180 C3179 1.387 . S
C3180 C3183 1.387 . S
H3181 C3177 0.950 . S
H3182 C3179 0.950 . S
C3183 C3174 1.390 . S
C3183 H3176 0.950 . S
C3183 C3180 1.387 . S
C3184 C3185 1.387 . S
C3184 H3188 0.950 . S
C3184 C3193 1.390 . S
C3185 C3184 1.387 . S
C3185 C3187 1.387 . S
H3186 C3193 0.950 . S
C3187 C3185 1.387 . S
C3187 C3189 1.390 . S
C3187 H3191 0.950 . S
H3188 C3184 0.950 . S
C3189 C3187 1.390 . S
C3189 C3190 1.387 . S
C3189 H3192 0.950 . S
C3190 C3189 1.387 . S
C3190 C3193 1.387 . S
H3191 C3187 0.950 . S
H3192 C3189 0.950 . S
C3193 C3184 1.390 . S
C3193 H3186 0.950 . S
C3193 C3190 1.387 . S
C3194 C3195 1.387 . S
C3194 H3198 0.950 . S
C3194 C3203 1.390 . S
C3195 C3194 1.387 . S
C3195 C3197 1.387 . S
H3196 C3203 0.950 . S
C3197 C3195 1.387 . S
C3197 C3199 1.390 . S
C3197 H3201 0.950 . S
H3198 C3194 0.950 . S
C3199 C3197 1.390 . S
C3199 C3200 1.387 . S
C3199 H3202 0.950 . S
C3200 C3199 1.387 . S
C3200 C3203 1.387 . S
H3201 C3197 0.950 . S
H3202 C3199 0.950 . S
C3203 C3194 1.390 . S
C3203 H3196 0.950 . S
C3203 C3200 1.387 . S
C3204 C3205 1.387 . S
C3204 H3208 0.950 . S
C3204 C3213 1.390 . S
C3205 C3204 1.387 . S
C3205 C3207 1.387 . S
H3206 C3213 0.950 . S
C3207 C3205 1.387 . S
C3207 C3209 1.390 . S
C3207 H3211 0.950 . S
H3208 C3204 0.950 . S
C3209 C3207 1.390 . S
C3209 C3210 1.387 . S
C3209 H3212 0.950 . S
C3210 C3209 1.387 . S
C3210 C3213 1.387 . S
H3211 C3207 0.950 . S
H3212 C3209 0.950 . S
C3213 C3204 1.390 . S
C3213 H3206 0.950 . S
C3213 C3210 1.387 . S
C3214 C3215 1.387 . S
C3214 H3218 0.950 . S
C3214 C3223 1.390 . S
C3215 C3214 1.387 . S
C3215 C3217 1.387 . S
H3216 C3223 0.950 . S
C3217 C3215 1.387 . S
C3217 C3219 1.390 . S
C3217 H3221 0.950 . S
H3218 C3214 0.950 . S
C3219 C3217 1.390 . S
C3219 C3220 1.387 . S
C3219 H3222 0.950 . S
C3220 C3219 1.387 . S
C3220 C3223 1.387 . S
H3221 C3217 0.950 . S
H3222 C3219 0.950 . S
C3223 C3214 1.390 . S
C3223 H3216 0.950 . S
C3223 C3220 1.387 . S
C3224 C3225 1.387 . S
C3224 H3228 0.950 . S
C3224 C3233 1.390 . S
C3225 C3224 1.387 . S
C3225 C3227 1.387 . S
H3226 C3233 0.950 . S
C3227 C3225 1.387 . S
C3227 C3229 1.390 . S
C3227 H3231 0.950 . S
H3228 C3224 0.950 . S
C3229 C3227 1.390 . S
C3229 C3230 1.387 . S
C3229 H3232 0.950 . S
C3230 C3229 1.387 . S
C3230 C3233 1.387 . S
H3231 C3227 0.950 . S
H3232 C3229 0.950 . S
C3233 C3224 1.390 . S
C3233 H3226 0.950 . S
C3233 C3230 1.387 . S
C3234 C3235 1.387 . S
C3234 H3238 0.950 . S
C3234 C3243 1.390 . S
C3235 C3234 1.387 . S
C3235 C3237 1.387 . S
H3236 C3243 0.950 . S
C3237 C3235 1.387 . S
C3237 C3239 1.390 . S
C3237 H3241 0.950 . S
H3238 C3234 0.950 . S
C3239 C3237 1.390 . S
C3239 C3240 1.387 . S
C3239 H3242 0.950 . S
C3240 C3239 1.387 . S
C3240 C3243 1.387 . S
H3241 C3237 0.950 . S
H3242 C3239 0.950 . S
C3243 C3234 1.390 . S
C3243 H3236 0.950 . S
C3243 C3240 1.387 . S
C3244 C3245 1.387 . S
C3244 H3248 0.950 . S
C3244 C3253 1.390 . S
C3245 C3244 1.387 . S
C3245 C3247 1.387 . S
H3246 C3253 0.950 . S
C3247 C3245 1.387 . S
C3247 C3249 1.390 . S
C3247 H3251 0.950 . S
H3248 C3244 0.950 . S
C3249 C3247 1.390 . S
C3249 C3250 1.387 . S
C3249 H3252 0.950 . S
C3250 C3249 1.387 . S
C3250 C3253 1.387 . S
H3251 C3247 0.950 . S
H3252 C3249 0.950 . S
C3253 C3244 1.390 . S
C3253 H3246 0.950 . S
C3253 C3250 1.387 . S
C3254 C3255 1.387 . S
C3254 H3258 0.950 . S
C3254 C3263 1.390 . S
C3255 C3254 1.387 . S
C3255 C3257 1.387 . S
H3256 C3263 0.950 . S
C3257 C3255 1.387 . S
C3257 C3259 1.390 . S
C3257 H3261 0.950 . S
H3258 C3254 0.950 . S
C3259 C3257 1.390 . S
C3259 C3260 1.387 . S
C3259 H3262 0.950 . S
C3260 C3259 1.387 . S
C3260 C3263 1.387 . S
H3261 C3257 0.950 . S
H3262 C3259 0.950 . S
C3263 C3254 1.390 . S
C3263 H3256 0.950 . S
C3263 C3260 1.387 . S
C1345 C359 2.429 . S
C1350 C9 2.430 . S
C1355 C23 2.429 . S
C1360 C1045 2.430 . S
C1365 C387 2.429 . S
C1370 C37 2.430 . S
C1375 C1017 2.427 . S
C1380 C51 2.427 . S
C1385 C443 2.427 . S
C1390 C65 2.427 . S
C1395 C1073 2.430 . S
C1400 C79 2.430 . S
C1405 C415 2.430 . S
C1410 C93 2.430 . S
C1415 C107 2.427 . S
C1420 C1101 2.427 . S
C1425 C1325 2.427 . S
C1430 C121 2.427 . S
C1435 C1241 2.430 . S
C1440 C135 2.430 . S
C1445 C1339 2.430 . S
C1450 C149 2.429 . S
C1455 C1311 2.427 . S
C1460 C163 2.427 . S
C1465 C177 2.426 . S
C1470 C1269 2.427 . S
C1475 C191 2.426 . S
C1480 C611 2.427 . S
C1485 C625 2.430 . S
C1490 C205 2.430 . S
C1495 C219 2.430 . S
C1500 C583 2.430 . S
C1505 C1199 2.430 . S
C1510 C233 2.429 . S
C1515 C499 2.430 . S
C1520 C247 2.430 . S
C1525 C1129 2.430 . S
C1530 C261 2.429 . S
C1535 C471 2.430 . S
C1540 C275 2.429 . S
C1545 C289 2.430 . S
C1550 C485 2.430 . S
C1555 C1227 2.430 . S
C1560 C303 2.429 . S
C1565 C317 2.426 . S
C1570 C1185 2.427 . S
C1575 C1213 2.428 . S
C1580 C331 2.427 . S
C1585 C14 2.613 . S
C1590 C336 2.613 . S
C1595 C700 2.614 . S
C1600 C350 2.613 . S
C1605 C42 2.614 . S
C1610 C364 2.616 . S
C1615 C378 2.616 . S
C1620 C672 2.615 . S
C1625 C98 2.615 . S
C1630 C392 2.616 . S
C1635 C406 2.614 . S
C1640 C728 2.612 . S
C1645 C70 2.612 . S
C1650 C420 2.616 . S
C1655 C434 2.614 . S
C1660 C756 2.613 . S
C1665 C980 2.612 . S
C1670 C448 2.614 . S
C1675 C462 2.614 . S
C1680 C896 2.612 . S
C1685 C476 2.614 . S
C1690 C994 2.612 . S
C1695 C966 2.615 . S
C1700 C490 2.614 . S
C1705 C924 2.615 . S
C1710 C504 2.616 . S
C1715 C518 2.614 . S
C1720 C266 2.612 . S
C1725 C280 2.615 . S
C1730 C532 2.616 . S
C1735 C238 2.615 . S
C1740 C546 2.616 . S
C1745 C854 2.615 . S
C1750 C560 2.616 . S
C1755 C154 2.612 . S
C1760 C574 2.614 . S
C1765 C784 2.615 . S
C1770 C588 2.616 . S
C1775 C602 2.616 . S
C1780 C126 2.615 . S
C1785 C616 2.614 . S
C1790 C140 2.613 . S
C1795 C882 2.615 . S
C1800 C630 2.616 . S
C1805 C840 2.612 . S
C1810 C644 2.614 . S
C1815 C868 2.612 . S
C1820 C658 2.616 . S
C1825 C1031 2.430 . S
C1830 C681 2.429 . S
C1835 C695 2.427 . S
C1840 C373 2.427 . S
C1845 C709 2.427 . S
C1850 C1059 2.427 . S
C1855 C723 2.430 . S
C1860 C345 2.430 . S
C1865 C737 2.427 . S
C1870 C1115 2.427 . S
C1875 C401 2.427 . S
C1880 C751 2.427 . S
C1885 C765 2.429 . S
C1890 C1087 2.430 . S
C1895 C429 2.430 . S
C1900 C779 2.430 . S
C1905 C793 2.426 . S
C1910 C653 2.427 . S
C1915 C569 2.430 . S
C1920 C807 2.430 . S
C1925 C667 2.427 . S
C1930 C821 2.427 . S
C1935 C835 2.429 . S
C1940 C639 2.430 . S
C1945 C597 2.430 . S
C1950 C849 2.429 . S
C1955 C1283 2.429 . S
C1960 C863 2.430 . S
C1965 C1297 2.430 . S
C1970 C877 2.430 . S
C1975 C1255 2.431 . S
C1980 C891 2.429 . S
C1985 C527 2.430 . S
C1990 C905 2.429 . S
C1995 C1171 2.430 . S
C2000 C919 2.430 . S
C2005 C933 2.427 . S
C2010 C457 2.427 . S
C2015 C947 2.427 . S
C2020 C1143 2.427 . S
C2025 C1157 2.427 . S
C2030 C961 2.427 . S
C2035 C975 2.427 . S
C2040 C555 2.427 . S
C2045 C513 2.430 . S
C2050 C989 2.429 . S
C2055 C541 2.430 . S
C2060 C1003 2.430 . S
C2065 C1008 2.615 . S
C2070 C686 2.612 . S
C2075 C28 2.614 . S
C2080 C1022 2.616 . S
C2085 C1036 2.614 . S
C2090 C714 2.612 . S
C2095 C0 2.615 . S
C2100 C1050 2.616 . S
C2105 C1064 2.616 . S
C2110 C770 2.615 . S
C2115 C1078 2.616 . S
C2120 C56 2.615 . S
C2125 C1092 2.616 . S
C2130 C742 2.615 . S
C2135 C84 2.615 . S
C2140 C1106 2.616 . S
C2145 C1120 2.616 . S
C2150 C308 2.614 . S
C2155 C224 2.615 . S
C2160 C1134 2.616 . S
C2165 C1148 2.616 . S
C2170 C322 2.615 . S
C2175 C294 2.613 . S
C2180 C1162 2.614 . S
C2185 C1176 2.616 . S
C2190 C252 2.615 . S
C2195 C1190 2.613 . S
C2200 C938 2.613 . S
C2205 C1204 2.616 . S
C2210 C952 2.615 . S
C2215 C1218 2.616 . S
C2220 C910 2.615 . S
C2225 C1232 2.616 . S
C2230 C182 2.615 . S
C2235 C826 2.612 . S
C2240 C1246 2.614 . S
C2245 C1260 2.616 . S
C2250 C112 2.615 . S
C2255 C798 2.615 . S
C2260 C1274 2.616 . S
C2265 C1288 2.614 . S
C2270 C812 2.612 . S
C2275 C210 2.612 . S
C2280 C1302 2.614 . S
C2285 C1316 2.614 . S
C2290 C168 2.612 . S
C2295 C1330 2.614 . S
C2300 C196 2.613 . S
C2305 C705 1.140 . S
C2310 C5 1.140 . S
C2315 C719 1.140 . S
C2320 C19 1.140 . S
C2325 C677 1.141 . S
C2330 C33 1.141 . S
C2335 C691 1.141 . S
C2340 C47 1.141 . S
C2345 C61 1.140 . S
C2350 C761 1.140 . S
C2355 C775 1.141 . S
C2360 C75 1.141 . S
C2365 C89 1.141 . S
C2370 C733 1.141 . S
C2375 C747 1.140 . S
C2380 C103 1.140 . S
C2385 C117 1.141 . S
C2390 C173 1.139 . S
C2395 C187 1.140 . S
C2400 C131 1.140 . S
C2405 C145 1.140 . S
C2410 C201 1.140 . S
C2415 C215 1.141 . S
C2420 C159 1.141 . S
C2425 C229 1.140 . S
C2430 C943 1.140 . S
C2435 C971 1.141 . S
C2440 C243 1.141 . S
C2445 C257 1.140 . S
C2450 C313 1.140 . S
C2455 C901 1.140 . S
C2460 C271 1.140 . S
C2465 C285 1.140 . S
C2470 C999 1.140 . S
C2475 C915 1.141 . S
C2480 C299 1.141 . S
C2485 C327 1.140 . S
C2490 C957 1.140 . S
C2495 C1041 1.109 . S
C2500 C341 1.109 . S
C2505 C355 1.109 . S
C2510 C1055 1.109 . S
C2515 C1013 1.109 . S
C2520 C369 1.109 . S
C2525 C383 1.110 . S
C2530 C1027 1.110 . S
C2535 C1097 1.109 . S
C2540 C397 1.109 . S
C2545 C1111 1.110 . S
C2550 C411 1.110 . S
C2555 C1069 1.109 . S
C2560 C425 1.109 . S
C2565 C439 1.110 . S
C2570 C1083 1.110 . S
C2575 C453 1.109 . S
C2580 C509 1.109 . S
C2585 C523 1.110 . S
C2590 C467 1.110 . S
C2595 C481 1.110 . S
C2600 C537 1.110 . S
C2605 C495 1.110 . S
C2610 C551 1.110 . S
C2615 C565 1.110 . S
C2620 C1279 1.110 . S
C2625 C1307 1.109 . S
C2630 C579 1.109 . S
C2635 C649 1.109 . S
C2640 C593 1.109 . S
C2645 C1237 1.110 . S
C2650 C607 1.110 . S
C2655 C621 1.110 . S
C2660 C1335 1.110 . S
C2665 C635 1.110 . S
C2670 C1251 1.110 . S
C2675 C1293 1.110 . S
C2680 C663 1.110 . S
C2685 C789 1.141 . S
C2690 C845 1.141 . S
C2695 C803 1.140 . S
C2700 C859 1.140 . S
C2705 C817 1.140 . S
C2710 C873 1.140 . S
C2715 C887 1.141 . S
C2720 C831 1.141 . S
C2725 C985 1.140 . S
C2730 C929 1.140 . S
C2735 C1125 1.109 . S
C2740 C1181 1.109 . S
C2745 C1139 1.110 . S
C2750 C1195 1.110 . S
C2755 C1209 1.109 . S
C2760 C1153 1.109 . S
C2765 C1167 1.109 . S
C2770 C1223 1.109 . S
C2775 C1321 1.110 . S
C2780 C1265 1.110 . S
C2785 C11 1.449 . S
C2790 C319 1.449 . S
C2795 C25 1.449 . S
C2800 C907 1.449 . S
C2805 C333 1.450 . S
C2810 C39 1.449 . S
C2815 C53 1.450 . S
C2820 C977 1.450 . S
C2825 C67 1.449 . S
C2830 C263 1.449 . S
C2835 C81 1.449 . S
C2840 C277 1.450 . S
C2845 C95 1.449 . S
C2850 C963 1.449 . S
C2855 C249 1.449 . S
C2860 C109 1.450 . S
C2865 C123 1.449 . S
C2870 C193 1.449 . S
C2875 C137 1.449 . S
C2880 C207 1.449 . S
C2885 C151 1.449 . S
C2890 C221 1.449 . S
C2895 C179 1.449 . S
C2900 C165 1.449 . S
C2905 C697 1.449 . S
C2910 C235 1.449 . S
C2915 C767 1.449 . S
C2920 C291 1.449 . S
C2925 C305 1.449 . S
C2930 C725 1.449 . S
C2935 C347 1.420 . S
C2940 C655 1.421 . S
C2945 C1243 1.421 . S
C2950 C361 1.421 . S
C2955 C375 1.420 . S
C2960 C669 1.421 . S
C2965 C389 1.420 . S
C2970 C1313 1.421 . S
C2975 C403 1.421 . S
C2980 C599 1.421 . S
C2985 C417 1.421 . S
C2990 C613 1.421 . S
C2995 C431 1.420 . S
C3000 C1299 1.421 . S
C3005 C445 1.420 . S
C3010 C585 1.420 . S
C3015 C529 1.421 . S
C3020 C459 1.420 . S
C3025 C473 1.420 . S
C3030 C543 1.421 . S
C3035 C557 1.421 . S
C3040 C487 1.420 . S
C3045 C515 1.420 . S
C3050 C501 1.421 . S
C3055 C1033 1.420 . S
C3060 C571 1.420 . S
C3065 C627 1.421 . S
C3070 C1103 1.421 . S
C3075 C1061 1.421 . S
C3080 C641 1.421 . S
C3085 C991 1.449 . S
C3090 C683 1.449 . S
C3095 C1005 1.449 . S
C3100 C711 1.449 . S
C3105 C739 1.449 . S
C3110 C935 1.449 . S
C3115 C949 1.449 . S
C3120 C753 1.449 . S
C3125 C781 1.449 . S
C3130 C921 1.449 . S
C3135 C795 1.449 . S
C3140 C865 1.449 . S
C3145 C809 1.449 . S
C3150 C879 1.450 . S
C3155 C823 1.450 . S
C3160 C893 1.449 . S
C3165 C851 1.449 . S
C3170 C837 1.449 . S
C3175 C1327 1.421 . S
C3180 C1019 1.421 . S
C3185 C1047 1.421 . S
C3190 C1341 1.421 . S
C3195 C1271 1.421 . S
C3200 C1075 1.421 . S
C3205 C1089 1.420 . S
C3210 C1285 1.420 . S
C3215 C1257 1.420 . S
C3220 C1117 1.421 . S
C3225 C1201 1.420 . S
C3230 C1131 1.421 . S
C3235 C1145 1.421 . S
C3240 C1215 1.420 . S
C3245 C1159 1.421 . S
C3250 C1229 1.420 . S
C3255 C1173 1.421 . S
C3260 C1187 1.421 . S
