# Generated by pormake.
# Topology rho, (4)-cn, num edge types: 1
# Building blocks:
#     Node 0, Type 0, BuildingBlock: QUQFOY_clean_sbu_3, # of connection points: 4
#     Node 1, Type 0, BuildingBlock: QUQFOY_clean_sbu_3, # of connection points: 4
#     Node 2, Type 0, BuildingBlock: QUQFOY_clean_sbu_3, # of connection points: 4
#     Node 3, Type 0, BuildingBlock: QUQFOY_clean_sbu_3, # of connection points: 4
#     Node 4, Type 0, BuildingBlock: QUQFOY_clean_sbu_3, # of connection points: 4
#     Node 5, Type 0, BuildingBlock: QUQFOY_clean_sbu_3, # of connection points: 4
#     Node 6, Type 0, BuildingBlock: QUQFOY_clean_sbu_3, # of connection points: 4
#     Node 7, Type 0, BuildingBlock: QUQFOY_clean_sbu_3, # of connection points: 4
#     Node 8, Type 0, BuildingBlock: QUQFOY_clean_sbu_3, # of connection points: 4
#     Node 9, Type 0, BuildingBlock: QUQFOY_clean_sbu_3, # of connection points: 4
#     Node 10, Type 0, BuildingBlock: QUQFOY_clean_sbu_3, # of connection points: 4
#     Node 11, Type 0, BuildingBlock: QUQFOY_clean_sbu_3, # of connection points: 4
#     Node 12, Type 0, BuildingBlock: QUQFOY_clean_sbu_3, # of connection points: 4
#     Node 13, Type 0, BuildingBlock: QUQFOY_clean_sbu_3, # of connection points: 4
#     Node 14, Type 0, BuildingBlock: QUQFOY_clean_sbu_3, # of connection points: 4
#     Node 15, Type 0, BuildingBlock: QUQFOY_clean_sbu_3, # of connection points: 4
#     Node 16, Type 0, BuildingBlock: QUQFOY_clean_sbu_3, # of connection points: 4
#     Node 17, Type 0, BuildingBlock: QUQFOY_clean_sbu_3, # of connection points: 4
#     Node 18, Type 0, BuildingBlock: QUQFOY_clean_sbu_3, # of connection points: 4
#     Node 19, Type 0, BuildingBlock: QUQFOY_clean_sbu_3, # of connection points: 4
#     Node 20, Type 0, BuildingBlock: QUQFOY_clean_sbu_3, # of connection points: 4
#     Node 21, Type 0, BuildingBlock: QUQFOY_clean_sbu_3, # of connection points: 4
#     Node 22, Type 0, BuildingBlock: QUQFOY_clean_sbu_3, # of connection points: 4
#     Node 23, Type 0, BuildingBlock: QUQFOY_clean_sbu_3, # of connection points: 4
#     Node 24, Type 0, BuildingBlock: QUQFOY_clean_sbu_3, # of connection points: 4
#     Node 25, Type 0, BuildingBlock: QUQFOY_clean_sbu_3, # of connection points: 4
#     Node 26, Type 0, BuildingBlock: QUQFOY_clean_sbu_3, # of connection points: 4
#     Node 27, Type 0, BuildingBlock: QUQFOY_clean_sbu_3, # of connection points: 4
#     Node 28, Type 0, BuildingBlock: QUQFOY_clean_sbu_3, # of connection points: 4
#     Node 29, Type 0, BuildingBlock: QUQFOY_clean_sbu_3, # of connection points: 4
#     Node 30, Type 0, BuildingBlock: QUQFOY_clean_sbu_3, # of connection points: 4
#     Node 31, Type 0, BuildingBlock: QUQFOY_clean_sbu_3, # of connection points: 4
#     Node 32, Type 0, BuildingBlock: QUQFOY_clean_sbu_3, # of connection points: 4
#     Node 33, Type 0, BuildingBlock: QUQFOY_clean_sbu_3, # of connection points: 4
#     Node 34, Type 0, BuildingBlock: QUQFOY_clean_sbu_3, # of connection points: 4
#     Node 35, Type 0, BuildingBlock: QUQFOY_clean_sbu_3, # of connection points: 4
#     Node 36, Type 0, BuildingBlock: QUQFOY_clean_sbu_3, # of connection points: 4
#     Node 37, Type 0, BuildingBlock: QUQFOY_clean_sbu_3, # of connection points: 4
#     Node 38, Type 0, BuildingBlock: QUQFOY_clean_sbu_3, # of connection points: 4
#     Node 39, Type 0, BuildingBlock: QUQFOY_clean_sbu_3, # of connection points: 4
#     Node 40, Type 0, BuildingBlock: QUQFOY_clean_sbu_3, # of connection points: 4
#     Node 41, Type 0, BuildingBlock: QUQFOY_clean_sbu_3, # of connection points: 4
#     Node 42, Type 0, BuildingBlock: QUQFOY_clean_sbu_3, # of connection points: 4
#     Node 43, Type 0, BuildingBlock: QUQFOY_clean_sbu_3, # of connection points: 4
#     Node 44, Type 0, BuildingBlock: QUQFOY_clean_sbu_3, # of connection points: 4
#     Node 45, Type 0, BuildingBlock: QUQFOY_clean_sbu_3, # of connection points: 4
#     Node 46, Type 0, BuildingBlock: QUQFOY_clean_sbu_3, # of connection points: 4
#     Node 47, Type 0, BuildingBlock: QUQFOY_clean_sbu_3, # of connection points: 4
#     Edge 48, Type (0, 0), BuildingBlock: XIVTED_clean_linker_0, # of connection points: 2
#     Edge 49, Type (0, 0), BuildingBlock: XIVTED_clean_linker_0, # of connection points: 2
#     Edge 50, Type (0, 0), BuildingBlock: XIVTED_clean_linker_0, # of connection points: 2
#     Edge 51, Type (0, 0), BuildingBlock: XIVTED_clean_linker_0, # of connection points: 2
#     Edge 52, Type (0, 0), BuildingBlock: XIVTED_clean_linker_0, # of connection points: 2
#     Edge 53, Type (0, 0), BuildingBlock: XIVTED_clean_linker_0, # of connection points: 2
#     Edge 54, Type (0, 0), BuildingBlock: XIVTED_clean_linker_0, # of connection points: 2
#     Edge 55, Type (0, 0), BuildingBlock: XIVTED_clean_linker_0, # of connection points: 2
#     Edge 56, Type (0, 0), BuildingBlock: XIVTED_clean_linker_0, # of connection points: 2
#     Edge 57, Type (0, 0), BuildingBlock: XIVTED_clean_linker_0, # of connection points: 2
#     Edge 58, Type (0, 0), BuildingBlock: XIVTED_clean_linker_0, # of connection points: 2
#     Edge 59, Type (0, 0), BuildingBlock: XIVTED_clean_linker_0, # of connection points: 2
#     Edge 60, Type (0, 0), BuildingBlock: XIVTED_clean_linker_0, # of connection points: 2
#     Edge 61, Type (0, 0), BuildingBlock: XIVTED_clean_linker_0, # of connection points: 2
#     Edge 62, Type (0, 0), BuildingBlock: XIVTED_clean_linker_0, # of connection points: 2
#     Edge 63, Type (0, 0), BuildingBlock: XIVTED_clean_linker_0, # of connection points: 2
#     Edge 64, Type (0, 0), BuildingBlock: XIVTED_clean_linker_0, # of connection points: 2
#     Edge 65, Type (0, 0), BuildingBlock: XIVTED_clean_linker_0, # of connection points: 2
#     Edge 66, Type (0, 0), BuildingBlock: XIVTED_clean_linker_0, # of connection points: 2
#     Edge 67, Type (0, 0), BuildingBlock: XIVTED_clean_linker_0, # of connection points: 2
#     Edge 68, Type (0, 0), BuildingBlock: XIVTED_clean_linker_0, # of connection points: 2
#     Edge 69, Type (0, 0), BuildingBlock: XIVTED_clean_linker_0, # of connection points: 2
#     Edge 70, Type (0, 0), BuildingBlock: XIVTED_clean_linker_0, # of connection points: 2
#     Edge 71, Type (0, 0), BuildingBlock: XIVTED_clean_linker_0, # of connection points: 2
#     Edge 72, Type (0, 0), BuildingBlock: XIVTED_clean_linker_0, # of connection points: 2
#     Edge 73, Type (0, 0), BuildingBlock: XIVTED_clean_linker_0, # of connection points: 2
#     Edge 74, Type (0, 0), BuildingBlock: XIVTED_clean_linker_0, # of connection points: 2
#     Edge 75, Type (0, 0), BuildingBlock: XIVTED_clean_linker_0, # of connection points: 2
#     Edge 76, Type (0, 0), BuildingBlock: XIVTED_clean_linker_0, # of connection points: 2
#     Edge 77, Type (0, 0), BuildingBlock: XIVTED_clean_linker_0, # of connection points: 2
#     Edge 78, Type (0, 0), BuildingBlock: XIVTED_clean_linker_0, # of connection points: 2
#     Edge 79, Type (0, 0), BuildingBlock: XIVTED_clean_linker_0, # of connection points: 2
#     Edge 80, Type (0, 0), BuildingBlock: XIVTED_clean_linker_0, # of connection points: 2
#     Edge 81, Type (0, 0), BuildingBlock: XIVTED_clean_linker_0, # of connection points: 2
#     Edge 82, Type (0, 0), BuildingBlock: XIVTED_clean_linker_0, # of connection points: 2
#     Edge 83, Type (0, 0), BuildingBlock: XIVTED_clean_linker_0, # of connection points: 2
#     Edge 84, Type (0, 0), BuildingBlock: XIVTED_clean_linker_0, # of connection points: 2
#     Edge 85, Type (0, 0), BuildingBlock: XIVTED_clean_linker_0, # of connection points: 2
#     Edge 86, Type (0, 0), BuildingBlock: XIVTED_clean_linker_0, # of connection points: 2
#     Edge 87, Type (0, 0), BuildingBlock: XIVTED_clean_linker_0, # of connection points: 2
#     Edge 88, Type (0, 0), BuildingBlock: XIVTED_clean_linker_0, # of connection points: 2
#     Edge 89, Type (0, 0), BuildingBlock: XIVTED_clean_linker_0, # of connection points: 2
#     Edge 90, Type (0, 0), BuildingBlock: XIVTED_clean_linker_0, # of connection points: 2
#     Edge 91, Type (0, 0), BuildingBlock: XIVTED_clean_linker_0, # of connection points: 2
#     Edge 92, Type (0, 0), BuildingBlock: XIVTED_clean_linker_0, # of connection points: 2
#     Edge 93, Type (0, 0), BuildingBlock: XIVTED_clean_linker_0, # of connection points: 2
#     Edge 94, Type (0, 0), BuildingBlock: XIVTED_clean_linker_0, # of connection points: 2
#     Edge 95, Type (0, 0), BuildingBlock: XIVTED_clean_linker_0, # of connection points: 2
#     Edge 96, Type (0, 0), BuildingBlock: XIVTED_clean_linker_0, # of connection points: 2
#     Edge 97, Type (0, 0), BuildingBlock: XIVTED_clean_linker_0, # of connection points: 2
#     Edge 98, Type (0, 0), BuildingBlock: XIVTED_clean_linker_0, # of connection points: 2
#     Edge 99, Type (0, 0), BuildingBlock: XIVTED_clean_linker_0, # of connection points: 2
#     Edge 100, Type (0, 0), BuildingBlock: XIVTED_clean_linker_0, # of connection points: 2
#     Edge 101, Type (0, 0), BuildingBlock: XIVTED_clean_linker_0, # of connection points: 2
#     Edge 102, Type (0, 0), BuildingBlock: XIVTED_clean_linker_0, # of connection points: 2
#     Edge 103, Type (0, 0), BuildingBlock: XIVTED_clean_linker_0, # of connection points: 2
#     Edge 104, Type (0, 0), BuildingBlock: XIVTED_clean_linker_0, # of connection points: 2
#     Edge 105, Type (0, 0), BuildingBlock: XIVTED_clean_linker_0, # of connection points: 2
#     Edge 106, Type (0, 0), BuildingBlock: XIVTED_clean_linker_0, # of connection points: 2
#     Edge 107, Type (0, 0), BuildingBlock: XIVTED_clean_linker_0, # of connection points: 2
#     Edge 108, Type (0, 0), BuildingBlock: XIVTED_clean_linker_0, # of connection points: 2
#     Edge 109, Type (0, 0), BuildingBlock: XIVTED_clean_linker_0, # of connection points: 2
#     Edge 110, Type (0, 0), BuildingBlock: XIVTED_clean_linker_0, # of connection points: 2
#     Edge 111, Type (0, 0), BuildingBlock: XIVTED_clean_linker_0, # of connection points: 2
#     Edge 112, Type (0, 0), BuildingBlock: XIVTED_clean_linker_0, # of connection points: 2
#     Edge 113, Type (0, 0), BuildingBlock: XIVTED_clean_linker_0, # of connection points: 2
#     Edge 114, Type (0, 0), BuildingBlock: XIVTED_clean_linker_0, # of connection points: 2
#     Edge 115, Type (0, 0), BuildingBlock: XIVTED_clean_linker_0, # of connection points: 2
#     Edge 116, Type (0, 0), BuildingBlock: XIVTED_clean_linker_0, # of connection points: 2
#     Edge 117, Type (0, 0), BuildingBlock: XIVTED_clean_linker_0, # of connection points: 2
#     Edge 118, Type (0, 0), BuildingBlock: XIVTED_clean_linker_0, # of connection points: 2
#     Edge 119, Type (0, 0), BuildingBlock: XIVTED_clean_linker_0, # of connection points: 2
#     Edge 120, Type (0, 0), BuildingBlock: XIVTED_clean_linker_0, # of connection points: 2
#     Edge 121, Type (0, 0), BuildingBlock: XIVTED_clean_linker_0, # of connection points: 2
#     Edge 122, Type (0, 0), BuildingBlock: XIVTED_clean_linker_0, # of connection points: 2
#     Edge 123, Type (0, 0), BuildingBlock: XIVTED_clean_linker_0, # of connection points: 2
#     Edge 124, Type (0, 0), BuildingBlock: XIVTED_clean_linker_0, # of connection points: 2
#     Edge 125, Type (0, 0), BuildingBlock: XIVTED_clean_linker_0, # of connection points: 2
#     Edge 126, Type (0, 0), BuildingBlock: XIVTED_clean_linker_0, # of connection points: 2
#     Edge 127, Type (0, 0), BuildingBlock: XIVTED_clean_linker_0, # of connection points: 2
#     Edge 128, Type (0, 0), BuildingBlock: XIVTED_clean_linker_0, # of connection points: 2
#     Edge 129, Type (0, 0), BuildingBlock: XIVTED_clean_linker_0, # of connection points: 2
#     Edge 130, Type (0, 0), BuildingBlock: XIVTED_clean_linker_0, # of connection points: 2
#     Edge 131, Type (0, 0), BuildingBlock: XIVTED_clean_linker_0, # of connection points: 2
#     Edge 132, Type (0, 0), BuildingBlock: XIVTED_clean_linker_0, # of connection points: 2
#     Edge 133, Type (0, 0), BuildingBlock: XIVTED_clean_linker_0, # of connection points: 2
#     Edge 134, Type (0, 0), BuildingBlock: XIVTED_clean_linker_0, # of connection points: 2
#     Edge 135, Type (0, 0), BuildingBlock: XIVTED_clean_linker_0, # of connection points: 2
#     Edge 136, Type (0, 0), BuildingBlock: XIVTED_clean_linker_0, # of connection points: 2
#     Edge 137, Type (0, 0), BuildingBlock: XIVTED_clean_linker_0, # of connection points: 2
#     Edge 138, Type (0, 0), BuildingBlock: XIVTED_clean_linker_0, # of connection points: 2
#     Edge 139, Type (0, 0), BuildingBlock: XIVTED_clean_linker_0, # of connection points: 2
#     Edge 140, Type (0, 0), BuildingBlock: XIVTED_clean_linker_0, # of connection points: 2
#     Edge 141, Type (0, 0), BuildingBlock: XIVTED_clean_linker_0, # of connection points: 2
#     Edge 142, Type (0, 0), BuildingBlock: XIVTED_clean_linker_0, # of connection points: 2
#     Edge 143, Type (0, 0), BuildingBlock: XIVTED_clean_linker_0, # of connection points: 2
# Relax obj value: 0.073
# Max RMSD: 0.094
# Mean RMSD: 0.088
data_MOF--net-rho--node1-QUQFOY_clean_sbu_3--edge1-XIVTED_clean_linker_0
_symmetry_space_group_name_H-M    P1
_symmetry_Int_Tables_number       1
_symmetry_cell_setting            triclinic
loop_
_symmetry_equiv_pos_as_xyz
'x, y, z'
_cell_length_a     73.261345
_cell_length_b     73.656676
_cell_length_c     73.770679
_cell_angle_alpha  90.183996
_cell_angle_beta   90.123943
_cell_angle_gamma 90.859018
loop_
_atom_site_label
_atom_site_type_symbol
_atom_site_fract_x
_atom_site_fract_y
_atom_site_fract_z
_atom_type_partial_charge
C0 C 0.10824 0.20063 0.36656 0.0
O1 O 0.09307 0.19397 0.37179 0.0
Cd2 Cd 0.07017 0.212 0.38606 0.0
O3 O 0.11173 0.21754 0.36842 0.0
Cd4 Cd 0.09694 0.24533 0.37954 0.0
C5 C 0.09461 0.22914 0.42224 0.0
O6 O 0.06653 0.23849 0.36759 0.0
O7 O 0.06872 0.2614 0.38579 0.0
O8 O 0.11131 0.26087 0.35423 0.0
C9 C 0.05897 0.25197 0.37502 0.0
O10 O 0.08167 0.21884 0.41659 0.0
C11 C 0.11711 0.27437 0.36344 0.0
O12 O 0.10327 0.23946 0.41134 0.0
O13 O 0.11406 0.27405 0.38038 0.0
C14 C 0.78434 0.10551 0.37702 0.0
O15 O 0.79019 0.08958 0.37956 0.0
Cd16 Cd 0.77182 0.06583 0.39242 0.0
O17 O 0.76763 0.10914 0.37977 0.0
Cd18 Cd 0.73852 0.09389 0.3879 0.0
C19 C 0.75532 0.08933 0.42993 0.0
O20 O 0.74435 0.06385 0.37535 0.0
O21 O 0.72149 0.0659 0.39358 0.0
O22 O 0.72637 0.10862 0.36145 0.0
C23 C 0.73093 0.05611 0.38314 0.0
O24 O 0.76525 0.07716 0.42281 0.0
C25 C 0.71191 0.11416 0.36895 0.0
O26 O 0.74442 0.09856 0.42027 0.0
O27 O 0.71003 0.11089 0.38576 0.0
C28 C 0.87536 0.78574 0.36804 0.0
O29 O 0.8909 0.79243 0.37215 0.0
Cd30 Cd 0.91442 0.7745 0.38546 0.0
O31 O 0.87192 0.7689 0.37038 0.0
Cd32 Cd 0.88662 0.74069 0.38053 0.0
C33 C 0.89129 0.75785 0.4228 0.0
O34 O 0.91621 0.74769 0.3671 0.0
O35 O 0.91515 0.72434 0.38463 0.0
O36 O 0.86918 0.72703 0.35596 0.0
C37 C 0.92434 0.73426 0.37391 0.0
O38 O 0.90385 0.76807 0.41634 0.0
C39 C 0.86458 0.71275 0.36449 0.0
O40 O 0.88214 0.74713 0.41256 0.0
O41 O 0.86988 0.71156 0.38084 0.0
C42 C 0.20096 0.88402 0.37614 0.0
O43 O 0.19586 0.90033 0.37791 0.0
Cd44 Cd 0.2155 0.92389 0.38932 0.0
O45 O 0.21755 0.87982 0.3789 0.0
Cd46 Cd 0.24768 0.89389 0.38593 0.0
C47 C 0.23163 0.90158 0.42774 0.0
O48 O 0.24261 0.92318 0.3719 0.0
O49 O 0.26599 0.92177 0.3895 0.0
O50 O 0.25769 0.87618 0.36045 0.0
C51 C 0.25632 0.93119 0.37894 0.0
O52 O 0.22215 0.91375 0.42007 0.0
C53 C 0.27253 0.87101 0.3675 0.0
O54 O 0.24201 0.89134 0.41851 0.0
O55 O 0.27572 0.87596 0.38375 0.0
C56 C 0.10287 0.78503 0.61761 0.0
O57 O 0.08642 0.78977 0.61542 0.0
Cd58 Cd 0.06289 0.77003 0.60398 0.0
O59 O 0.10753 0.76863 0.61495 0.0
Cd60 Cd 0.09366 0.73862 0.60723 0.0
C61 C 0.08497 0.75437 0.56537 0.0
O62 O 0.06406 0.74305 0.62137 0.0
O63 O 0.06596 0.71987 0.60373 0.0
O64 O 0.1118 0.72716 0.63198 0.0
C65 C 0.05627 0.72929 0.61429 0.0
O66 O 0.07249 0.76355 0.57298 0.0
C67 C 0.11732 0.71314 0.62373 0.0
O68 O 0.09564 0.74453 0.57468 0.0
O69 O 0.1123 0.71114 0.60733 0.0
C70 C 0.28576 0.1192 0.61151 0.0
O71 O 0.29233 0.11576 0.59599 0.0
Cd72 Cd 0.27362 0.10282 0.57247 0.0
O73 O 0.26879 0.11681 0.61461 0.0
Cd74 Cd 0.23973 0.10794 0.59982 0.0
C75 C 0.25597 0.06569 0.59586 0.0
O76 O 0.24709 0.12125 0.57065 0.0
O77 O 0.22318 0.10381 0.57126 0.0
O78 O 0.22874 0.1335 0.61687 0.0
C79 C 0.23344 0.11448 0.56232 0.0
O80 O 0.26638 0.07226 0.58363 0.0
C81 C 0.21346 0.12641 0.62108 0.0
O82 O 0.24516 0.07581 0.60467 0.0
O83 O 0.21041 0.11018 0.61585 0.0
C84 C 0.8846 0.20446 0.61684 0.0
O85 O 0.90074 0.19909 0.614 0.0
Cd86 Cd 0.92455 0.21791 0.60165 0.0
O87 O 0.88041 0.22096 0.61415 0.0
Cd88 Cd 0.89503 0.25006 0.60524 0.0
C89 C 0.90232 0.2335 0.56327 0.0
O90 O 0.92504 0.24533 0.61873 0.0
O91 O 0.92276 0.26809 0.60063 0.0
O92 O 0.87874 0.2636 0.63023 0.0
C93 C 0.93263 0.25893 0.61122 0.0
O94 O 0.91478 0.2241 0.57061 0.0
C95 C 0.87262 0.27688 0.62127 0.0
O96 O 0.89212 0.24361 0.57283 0.0
O97 O 0.87645 0.27742 0.60448 0.0
C98 C 0.70162 0.87386 0.61307 0.0
O99 O 0.69546 0.8767 0.59725 0.0
Cd100 Cd 0.71424 0.88745 0.57309 0.0
O101 O 0.71862 0.87562 0.61645 0.0
Cd102 Cd 0.74768 0.88258 0.60068 0.0
C103 C 0.73275 0.9251 0.59494 0.0
O104 O 0.73987 0.86789 0.5722 0.0
O105 O 0.76373 0.88528 0.57156 0.0
O106 O 0.75917 0.85752 0.61809 0.0
C107 C 0.75334 0.87408 0.56332 0.0
O108 O 0.7223 0.91832 0.58278 0.0
C109 C 0.77445 0.86489 0.62201 0.0
O110 O 0.74316 0.91505 0.60429 0.0
O111 O 0.77717 0.88105 0.61655 0.0
C112 C 0.37908 0.11824 0.28241 0.0
O113 O 0.39501 0.11415 0.28767 0.0
Cd114 Cd 0.41746 0.10125 0.26844 0.0
O115 O 0.37443 0.11634 0.26585 0.0
Cd116 Cd 0.38842 0.10716 0.23671 0.0
C117 C 0.39272 0.0644 0.25219 0.0
O118 O 0.41824 0.12058 0.24255 0.0
O119 O 0.41679 0.10282 0.21938 0.0
O120 O 0.37245 0.13236 0.22318 0.0
C121 C 0.42615 0.11387 0.22892 0.0
O122 O 0.40588 0.07056 0.26185 0.0
C123 C 0.36673 0.12357 0.20942 0.0
O124 O 0.38341 0.07495 0.24229 0.0
O125 O 0.37052 0.10681 0.20868 0.0
C126 C 0.8779 0.3682 0.20375 0.0
O127 O 0.89343 0.37187 0.19697 0.0
Cd128 Cd 0.91786 0.38514 0.21472 0.0
O129 O 0.87496 0.37081 0.22056 0.0
Cd130 Cd 0.89022 0.38074 0.24879 0.0
C131 C 0.89612 0.42296 0.23204 0.0
O132 O 0.92033 0.36825 0.24221 0.0
O133 O 0.91828 0.38564 0.26568 0.0
O134 O 0.87375 0.35536 0.26198 0.0
C135 C 0.92813 0.37578 0.25571 0.0
O136 O 0.9081 0.41592 0.22178 0.0
C137 C 0.86832 0.36377 0.27595 0.0
O138 O 0.88658 0.41313 0.24272 0.0
O139 O 0.8728 0.38046 0.27727 0.0
C140 C 0.59935 0.87184 0.28669 0.0
O141 O 0.58313 0.87488 0.29179 0.0
Cd142 Cd 0.56043 0.88796 0.27274 0.0
O143 O 0.60417 0.87476 0.27035 0.0
Cd144 Cd 0.59073 0.88443 0.24115 0.0
C145 C 0.58422 0.92633 0.25825 0.0
O146 O 0.56041 0.87096 0.2453 0.0
O147 O 0.56346 0.88941 0.22288 0.0
O148 O 0.60697 0.85947 0.22756 0.0
C149 C 0.55325 0.87861 0.23173 0.0
O150 O 0.57131 0.91901 0.26734 0.0
C151 C 0.61342 0.86853 0.21438 0.0
O152 O 0.59436 0.91678 0.24808 0.0
O153 O 0.60986 0.88536 0.21397 0.0
C154 C 0.10956 0.62393 0.20202 0.0
O155 O 0.09389 0.61955 0.19589 0.0
Cd156 Cd 0.07048 0.60667 0.2148 0.0
O157 O 0.11322 0.62214 0.21881 0.0
Cd158 Cd 0.09878 0.61268 0.24759 0.0
C159 C 0.09362 0.5699 0.23176 0.0
O160 O 0.06892 0.62545 0.24133 0.0
O161 O 0.07064 0.60818 0.26479 0.0
O162 O 0.1161 0.63784 0.26053 0.0
C163 C 0.06113 0.61859 0.25508 0.0
O164 O 0.0809 0.57601 0.22177 0.0
C165 C 0.12111 0.62948 0.27467 0.0
O166 O 0.10306 0.58051 0.24185 0.0
O167 O 0.11609 0.61296 0.27609 0.0
C168 C 0.37721 0.86574 0.70174 0.0
O169 O 0.39291 0.87015 0.69581 0.0
Cd170 Cd 0.4162 0.88305 0.71502 0.0
O171 O 0.37346 0.86746 0.71852 0.0
Cd172 Cd 0.3878 0.87677 0.74752 0.0
C173 C 0.3928 0.91962 0.73211 0.0
O174 O 0.41768 0.86407 0.7413 0.0
O175 O 0.41593 0.88126 0.76492 0.0
O176 O 0.37043 0.85167 0.76034 0.0
C177 C 0.42545 0.87088 0.75517 0.0
O178 O 0.40562 0.91366 0.72218 0.0
C179 C 0.3654 0.86014 0.77444 0.0
O180 O 0.38341 0.90889 0.74201 0.0
O181 O 0.37043 0.87665 0.77588 0.0
C182 C 0.10172 0.37288 0.78348 0.0
O183 O 0.08557 0.37577 0.78886 0.0
Cd184 Cd 0.06246 0.38869 0.77018 0.0
O185 O 0.10623 0.37586 0.76707 0.0
Cd186 Cd 0.09232 0.38542 0.73812 0.0
C187 C 0.08581 0.42723 0.75544 0.0
O188 O 0.06213 0.37178 0.74264 0.0
O189 O 0.06474 0.39014 0.72013 0.0
O190 O 0.10879 0.36053 0.72466 0.0
C191 C 0.0547 0.37937 0.72918 0.0
O192 O 0.07311 0.41976 0.7647 0.0
C193 C 0.11483 0.36944 0.7112 0.0
O194 O 0.09586 0.41782 0.74505 0.0
O195 O 0.11091 0.38617 0.71051 0.0
C196 C 0.60726 0.1201 0.70217 0.0
O197 O 0.59159 0.11631 0.69566 0.0
Cd198 Cd 0.56733 0.10372 0.71393 0.0
O199 O 0.6105 0.11791 0.71898 0.0
Cd200 Cd 0.59564 0.10862 0.74751 0.0
C201 C 0.589 0.06609 0.73147 0.0
O202 O 0.56551 0.12126 0.74118 0.0
O203 O 0.56786 0.10433 0.76485 0.0
O204 O 0.6128 0.13393 0.76027 0.0
C205 C 0.5579 0.11409 0.7549 0.0
O206 O 0.57684 0.07297 0.72131 0.0
C207 C 0.61815 0.12565 0.77432 0.0
O208 O 0.59887 0.0761 0.74179 0.0
O209 O 0.61333 0.10908 0.77586 0.0
C210 C 0.88042 0.62013 0.7878 0.0
O211 O 0.89639 0.61621 0.79309 0.0
Cd212 Cd 0.91931 0.60392 0.77389 0.0
O213 O 0.87588 0.61839 0.77119 0.0
Cd214 Cd 0.89004 0.60969 0.74199 0.0
C215 C 0.8952 0.56686 0.75716 0.0
O216 O 0.91986 0.62323 0.748 0.0
O217 O 0.9182 0.60584 0.72452 0.0
O218 O 0.87371 0.63468 0.72845 0.0
C219 C 0.92765 0.61668 0.73419 0.0
O220 O 0.90826 0.57312 0.76688 0.0
C221 C 0.86811 0.62576 0.71471 0.0
O222 O 0.88568 0.57736 0.7474 0.0
O223 O 0.87213 0.60906 0.71402 0.0
C224 C 0.19924 0.36847 0.11141 0.0
O225 O 0.19208 0.37235 0.09625 0.0
Cd226 Cd 0.20985 0.38508 0.07207 0.0
O227 O 0.21632 0.37074 0.11402 0.0
Cd228 Cd 0.24455 0.38046 0.09839 0.0
C229 C 0.22753 0.42254 0.09486 0.0
O230 O 0.23651 0.36684 0.06938 0.0
O231 O 0.26012 0.38471 0.06943 0.0
O232 O 0.25731 0.3554 0.11486 0.0
C233 C 0.24985 0.37372 0.06076 0.0
O234 O 0.21695 0.41588 0.08273 0.0
C235 C 0.27232 0.36326 0.11885 0.0
O236 O 0.23857 0.4125 0.10346 0.0
O237 O 0.27437 0.37963 0.11377 0.0
C238 C 0.28968 0.60593 0.87618 0.0
O239 O 0.29547 0.58998 0.87874 0.0
Cd240 Cd 0.2769 0.56594 0.89081 0.0
O241 O 0.27292 0.60955 0.8786 0.0
Cd242 Cd 0.24377 0.59407 0.88618 0.0
C243 C 0.25955 0.58843 0.92847 0.0
O244 O 0.24969 0.56415 0.87331 0.0
O245 O 0.2267 0.56607 0.89139 0.0
O246 O 0.23137 0.6089 0.85986 0.0
C247 C 0.23618 0.55637 0.8809 0.0
O248 O 0.26958 0.57636 0.92134 0.0
C249 C 0.21699 0.61441 0.86754 0.0
O250 O 0.24903 0.59802 0.91874 0.0
O251 O 0.21534 0.61114 0.88438 0.0
C252 C 0.3777 0.28813 0.8649 0.0
O253 O 0.39295 0.29512 0.86957 0.0
Cd254 Cd 0.41636 0.27762 0.88378 0.0
O255 O 0.37446 0.27128 0.8673 0.0
Cd256 Cd 0.38952 0.24385 0.87865 0.0
C257 C 0.39292 0.2614 0.92086 0.0
O258 O 0.41967 0.25046 0.86606 0.0
O259 O 0.41779 0.22787 0.88454 0.0
O260 O 0.3742 0.22827 0.85379 0.0
C261 C 0.42738 0.23716 0.87361 0.0
O262 O 0.40561 0.27161 0.91465 0.0
C263 C 0.36882 0.21475 0.86308 0.0
O264 O 0.38403 0.25066 0.91044 0.0
O265 O 0.37259 0.21501 0.87989 0.0
C266 C 0.70277 0.38373 0.8773 0.0
O267 O 0.69737 0.39993 0.87915 0.0
Cd268 Cd 0.71663 0.42379 0.8906 0.0
O269 O 0.71945 0.37982 0.87996 0.0
Cd270 Cd 0.74935 0.3944 0.88685 0.0
C271 C 0.73339 0.40152 0.92879 0.0
O272 O 0.74366 0.42369 0.87305 0.0
O273 O 0.7672 0.42254 0.89047 0.0
O274 O 0.75938 0.37711 0.8611 0.0
C275 C 0.75729 0.43188 0.88005 0.0
O276 O 0.72366 0.41356 0.92124 0.0
C277 C 0.77437 0.3721 0.86794 0.0
O278 O 0.74392 0.39153 0.91946 0.0
O279 O 0.77765 0.37693 0.88421 0.0
C280 C 0.61041 0.70548 0.86863 0.0
O281 O 0.59477 0.69922 0.8729 0.0
Cd282 Cd 0.57183 0.71784 0.88627 0.0
O283 O 0.61435 0.72224 0.87096 0.0
Cd284 Cd 0.60049 0.75081 0.88149 0.0
C285 C 0.59557 0.7338 0.92368 0.0
O286 O 0.5707 0.74463 0.86796 0.0
O287 O 0.57243 0.76793 0.88567 0.0
O288 O 0.61826 0.76421 0.85716 0.0
C289 C 0.56297 0.75831 0.87481 0.0
O290 O 0.58266 0.72395 0.9172 0.0
C291 C 0.6231 0.77837 0.86588 0.0
O292 O 0.60497 0.74421 0.91346 0.0
O293 O 0.61782 0.77957 0.88222 0.0
C294 C 0.78408 0.61468 0.11247 0.0
O295 O 0.78932 0.61185 0.09634 0.0
Cd296 Cd 0.76924 0.60018 0.07362 0.0
O297 O 0.76731 0.61275 0.11675 0.0
Cd298 Cd 0.73733 0.60589 0.10234 0.0
C299 C 0.75166 0.56321 0.09721 0.0
O300 O 0.74391 0.62008 0.07349 0.0
O301 O 0.72019 0.60251 0.07369 0.0
O302 O 0.72728 0.63145 0.12007 0.0
C303 C 0.73014 0.61375 0.06509 0.0
O304 O 0.76167 0.56965 0.08459 0.0
C305 C 0.71186 0.62466 0.1243 0.0
O306 O 0.74157 0.57353 0.10661 0.0
O307 O 0.70841 0.60857 0.1189 0.0
C308 C 0.3834 0.70033 0.1161 0.0
O309 O 0.39957 0.69511 0.11314 0.0
Cd310 Cd 0.42352 0.71426 0.10155 0.0
O311 O 0.37916 0.71689 0.11388 0.0
Cd312 Cd 0.39379 0.74621 0.10574 0.0
C313 C 0.40173 0.73091 0.06341 0.0
O314 O 0.42379 0.74129 0.11926 0.0
O315 O 0.42144 0.76443 0.10167 0.0
O316 O 0.37749 0.7596 0.13085 0.0
C317 C 0.43133 0.75509 0.11208 0.0
O318 O 0.41417 0.72139 0.07061 0.0
C319 C 0.37133 0.7729 0.12193 0.0
O320 O 0.3913 0.74062 0.07313 0.0
O321 O 0.37509 0.77347 0.10513 0.0
C322 C 0.60347 0.28232 0.11599 0.0
O323 O 0.58711 0.28729 0.11367 0.0
Cd324 Cd 0.5632 0.26776 0.1026 0.0
O325 O 0.60787 0.26581 0.11356 0.0
Cd326 Cd 0.59362 0.23594 0.10607 0.0
C327 C 0.58482 0.25138 0.06406 0.0
O328 O 0.56417 0.24096 0.12028 0.0
O329 O 0.5657 0.21742 0.1031 0.0
O330 O 0.61181 0.22458 0.13082 0.0
C331 C 0.55617 0.22717 0.11349 0.0
O332 O 0.57248 0.26077 0.07162 0.0
C333 C 0.61717 0.21043 0.12268 0.0
O334 O 0.59545 0.24155 0.07344 0.0
O335 O 0.61201 0.20829 0.10634 0.0
C336 C 0.86514 0.69893 0.60623 0.0
O337 O 0.86947 0.69204 0.59106 0.0
Cd338 Cd 0.88506 0.70965 0.56837 0.0
O339 O 0.86815 0.71571 0.60942 0.0
Cd340 Cd 0.87976 0.74388 0.59528 0.0
C341 C 0.92165 0.72557 0.59406 0.0
O342 O 0.86843 0.73717 0.56485 0.0
O343 O 0.88666 0.7603 0.56744 0.0
O344 O 0.85402 0.75684 0.61078 0.0
C345 C 0.87659 0.75045 0.55734 0.0
O346 O 0.91543 0.71541 0.58139 0.0
C347 C 0.86231 0.7711 0.6162 0.0
O348 O 0.91138 0.73677 0.60217 0.0
O349 O 0.87907 0.77278 0.61204 0.0
C350 C 0.19807 0.882 0.6159 0.0
O351 O 0.1925 0.898 0.61312 0.0
Cd352 Cd 0.21124 0.92202 0.60135 0.0
O353 O 0.21481 0.87813 0.61358 0.0
Cd354 Cd 0.2441 0.89343 0.60567 0.0
C355 C 0.22846 0.90013 0.56338 0.0
O356 O 0.23826 0.92309 0.61914 0.0
O357 O 0.26144 0.92157 0.60131 0.0
O358 O 0.25719 0.87745 0.63105 0.0
C359 C 0.25181 0.93108 0.61184 0.0
O360 O 0.21855 0.91226 0.57058 0.0
C361 C 0.27122 0.87208 0.62264 0.0
O362 O 0.23868 0.89022 0.57309 0.0
O363 O 0.27237 0.8761 0.60593 0.0
C364 C 0.12315 0.29353 0.60438 0.0
O365 O 0.11878 0.29983 0.589 0.0
Cd366 Cd 0.10351 0.28135 0.56655 0.0
O367 O 0.12047 0.2768 0.60796 0.0
Cd368 Cd 0.10941 0.24817 0.59406 0.0
C369 C 0.06724 0.26571 0.59242 0.0
O370 O 0.12015 0.25378 0.56319 0.0
O371 O 0.10177 0.23093 0.56687 0.0
O372 O 0.13539 0.2349 0.60898 0.0
C373 C 0.11173 0.24024 0.55628 0.0
O374 O 0.07321 0.27555 0.57948 0.0
C375 C 0.12684 0.22112 0.6151 0.0
O376 O 0.07777 0.255 0.60084 0.0
O377 O 0.10986 0.21994 0.61167 0.0
C378 C 0.78882 0.10875 0.61881 0.0
O379 O 0.79421 0.09268 0.61603 0.0
Cd380 Cd 0.77568 0.06913 0.60313 0.0
O381 O 0.77221 0.11291 0.61606 0.0
Cd382 Cd 0.74294 0.09763 0.60736 0.0
C383 C 0.75934 0.09184 0.56529 0.0
O384 O 0.7484 0.06779 0.6203 0.0
O385 O 0.72605 0.06933 0.60145 0.0
O386 O 0.72886 0.11247 0.633 0.0
C387 C 0.73527 0.05977 0.61228 0.0
O388 O 0.76916 0.07966 0.57249 0.0
C389 C 0.71494 0.11789 0.62442 0.0
O390 O 0.74876 0.10147 0.57493 0.0
O391 O 0.7144 0.11463 0.60749 0.0
C392 C 0.87767 0.20423 0.37656 0.0
O393 O 0.89423 0.19966 0.3783 0.0
Cd394 Cd 0.91799 0.21974 0.38801 0.0
O395 O 0.87293 0.22064 0.37908 0.0
Cd396 Cd 0.8871 0.2509 0.38582 0.0
C397 C 0.89796 0.23614 0.42747 0.0
O398 O 0.91484 0.24548 0.36916 0.0
O399 O 0.91581 0.26897 0.38644 0.0
O400 O 0.86693 0.26126 0.36217 0.0
C401 C 0.92376 0.2592 0.3748 0.0
O402 O 0.91005 0.22688 0.41936 0.0
C403 C 0.86316 0.2763 0.36959 0.0
O404 O 0.88678 0.24578 0.41856 0.0
O405 O 0.86983 0.27929 0.38525 0.0
C406 C 0.69477 0.86815 0.38102 0.0
O407 O 0.6894 0.87172 0.39698 0.0
Cd408 Cd 0.70881 0.88419 0.42002 0.0
O409 O 0.71153 0.8701 0.37673 0.0
Cd410 Cd 0.74098 0.87858 0.39128 0.0
C411 C 0.72586 0.92121 0.39645 0.0
O412 O 0.73498 0.86535 0.42085 0.0
O413 O 0.7584 0.88332 0.4193 0.0
O414 O 0.75404 0.85313 0.37526 0.0
C415 C 0.74884 0.87235 0.42861 0.0
O416 O 0.71601 0.91488 0.40924 0.0
C417 C 0.76819 0.86169 0.36992 0.0
O418 O 0.7358 0.91081 0.38698 0.0
O419 O 0.76934 0.87847 0.37387 0.0
C420 C 0.10646 0.78605 0.37888 0.0
O421 O 0.09004 0.7909 0.38096 0.0
Cd422 Cd 0.06632 0.77071 0.39064 0.0
O423 O 0.11092 0.76953 0.38101 0.0
Cd424 Cd 0.0967 0.7394 0.38744 0.0
C425 C 0.08679 0.75372 0.42951 0.0
O426 O 0.06852 0.74499 0.37132 0.0
O427 O 0.06823 0.72109 0.38795 0.0
O428 O 0.11643 0.72955 0.3633 0.0
C429 C 0.05989 0.73104 0.37677 0.0
O430 O 0.07464 0.7632 0.42178 0.0
C431 C 0.12088 0.71466 0.37054 0.0
O432 O 0.09768 0.74409 0.42023 0.0
O433 O 0.11461 0.7114 0.38626 0.0
C434 C 0.28739 0.12 0.37951 0.0
O435 O 0.29318 0.11681 0.3954 0.0
Cd436 Cd 0.2746 0.10368 0.41851 0.0
O437 O 0.27066 0.11725 0.37542 0.0
Cd438 Cd 0.24176 0.10776 0.39016 0.0
C439 C 0.25872 0.06584 0.39512 0.0
O440 O 0.2479 0.12183 0.41929 0.0
O441 O 0.22499 0.10321 0.4187 0.0
O442 O 0.22799 0.13253 0.37385 0.0
C443 C 0.2345 0.11469 0.42756 0.0
O444 O 0.26859 0.07266 0.40774 0.0
C445 C 0.21393 0.12363 0.36874 0.0
O446 O 0.24809 0.07574 0.38588 0.0
O447 O 0.21307 0.10695 0.37302 0.0
C448 C 0.60822 0.87825 0.70982 0.0
O449 O 0.5919 0.87953 0.70417 0.0
Cd450 Cd 0.56772 0.88994 0.72289 0.0
O451 O 0.6122 0.88154 0.72635 0.0
Cd452 Cd 0.59762 0.88924 0.75564 0.0
C453 C 0.58787 0.93022 0.73851 0.0
O454 O 0.56987 0.87216 0.74957 0.0
O455 O 0.56881 0.88954 0.77298 0.0
O456 O 0.61783 0.8661 0.76638 0.0
C457 C 0.56085 0.87784 0.76298 0.0
O458 O 0.57604 0.92166 0.72894 0.0
C459 C 0.62189 0.87375 0.7813 0.0
O460 O 0.59843 0.92178 0.74922 0.0
O461 O 0.61512 0.88928 0.78422 0.0
C462 C 0.11184 0.6163 0.78583 0.0
O463 O 0.09582 0.61362 0.79186 0.0
Cd464 Cd 0.07159 0.60233 0.77305 0.0
O465 O 0.11542 0.61367 0.76913 0.0
Cd466 Cd 0.10022 0.60518 0.74018 0.0
C467 C 0.09141 0.56324 0.75609 0.0
O468 O 0.07199 0.62084 0.74658 0.0
O469 O 0.07127 0.60306 0.72339 0.0
O470 O 0.11932 0.62945 0.72842 0.0
C471 C 0.06313 0.61457 0.73315 0.0
O472 O 0.07964 0.57101 0.76603 0.0
C473 C 0.12296 0.62182 0.71345 0.0
O474 O 0.10182 0.57249 0.74568 0.0
O475 O 0.11663 0.60584 0.71106 0.0
C476 C 0.36709 0.10411 0.79214 0.0
O477 O 0.37232 0.08937 0.79918 0.0
Cd478 Cd 0.38811 0.06697 0.78168 0.0
O479 O 0.36937 0.10704 0.77529 0.0
Cd480 Cd 0.38077 0.09237 0.7476 0.0
C481 C 0.42346 0.09337 0.76462 0.0
O482 O 0.37089 0.06132 0.7545 0.0
O483 O 0.38897 0.06477 0.73166 0.0
O484 O 0.35404 0.10477 0.73313 0.0
C485 C 0.37923 0.05421 0.74126 0.0
O486 O 0.41803 0.0807 0.77512 0.0
C487 C 0.36243 0.11111 0.71945 0.0
O488 O 0.41244 0.10087 0.75369 0.0
O489 O 0.37961 0.10903 0.71897 0.0
C490 C 0.86419 0.38311 0.69767 0.0
O491 O 0.86896 0.39835 0.69107 0.0
Cd492 Cd 0.88428 0.42127 0.70888 0.0
O493 O 0.86656 0.37982 0.71445 0.0
Cd494 Cd 0.87759 0.39423 0.74277 0.0
C495 C 0.91998 0.39557 0.7251 0.0
O496 O 0.86724 0.42486 0.73624 0.0
O497 O 0.88528 0.42206 0.75916 0.0
O498 O 0.85129 0.3794 0.75632 0.0
C499 C 0.87557 0.4323 0.74946 0.0
O500 O 0.91426 0.40834 0.71505 0.0
C501 C 0.85954 0.37388 0.77036 0.0
O502 O 0.90925 0.38731 0.73597 0.0
O503 O 0.8765 0.37755 0.77154 0.0
C504 C 0.60868 0.11601 0.28514 0.0
O505 O 0.59248 0.11345 0.29074 0.0
Cd506 Cd 0.5689 0.10159 0.27146 0.0
O507 O 0.61275 0.11299 0.26861 0.0
Cd508 Cd 0.5985 0.10378 0.23936 0.0
C509 C 0.58955 0.06223 0.25616 0.0
O510 O 0.56998 0.11937 0.24455 0.0
O511 O 0.57011 0.10091 0.22187 0.0
O512 O 0.61784 0.12788 0.22769 0.0
C513 C 0.5616 0.11264 0.23102 0.0
O514 O 0.57741 0.07017 0.26553 0.0
C515 C 0.62192 0.11997 0.21298 0.0
O516 O 0.60019 0.07128 0.24582 0.0
O517 O 0.61571 0.10392 0.21073 0.0
C518 C 0.87905 0.61077 0.20808 0.0
O519 O 0.89541 0.609 0.20281 0.0
Cd520 Cd 0.91914 0.59857 0.22202 0.0
O521 O 0.8747 0.6079 0.22457 0.0
Cd522 Cd 0.88889 0.60033 0.25417 0.0
C523 C 0.89814 0.55888 0.23766 0.0
O524 O 0.91686 0.61702 0.24832 0.0
O525 O 0.91765 0.5999 0.27181 0.0
O526 O 0.86897 0.6239 0.26466 0.0
C527 C 0.92574 0.61147 0.26187 0.0
O528 O 0.91022 0.56709 0.22821 0.0
C529 C 0.86483 0.61649 0.27962 0.0
O530 O 0.88759 0.56767 0.24811 0.0
O531 O 0.87137 0.60089 0.28264 0.0
C532 C 0.36282 0.87979 0.19774 0.0
O533 O 0.36751 0.89499 0.19096 0.0
Cd534 Cd 0.38248 0.91836 0.20853 0.0
O535 O 0.36512 0.87674 0.21457 0.0
Cd536 Cd 0.37587 0.89159 0.24275 0.0
C537 C 0.41838 0.89332 0.2253 0.0
O538 O 0.36534 0.92208 0.23581 0.0
O539 O 0.38311 0.91959 0.25899 0.0
O540 O 0.34966 0.87665 0.25634 0.0
C541 C 0.3735 0.9297 0.24904 0.0
O542 O 0.41259 0.90593 0.21508 0.0
C543 C 0.35793 0.87131 0.27044 0.0
O544 O 0.40765 0.88503 0.23616 0.0
O545 O 0.37486 0.87513 0.27164 0.0
C546 C 0.1189 0.3847 0.29216 0.0
O547 O 0.11387 0.3994 0.29952 0.0
Cd548 Cd 0.09841 0.42224 0.28234 0.0
O549 O 0.11661 0.3821 0.27524 0.0
Cd550 Cd 0.10553 0.39724 0.24777 0.0
C551 C 0.06281 0.39642 0.26454 0.0
O552 O 0.11562 0.42813 0.2553 0.0
O553 O 0.09762 0.42506 0.23224 0.0
O554 O 0.1325 0.38517 0.23368 0.0
C555 C 0.10738 0.43544 0.24212 0.0
O556 O 0.06841 0.40887 0.27533 0.0
C557 C 0.1244 0.3786 0.21987 0.0
O558 O 0.07372 0.38896 0.25346 0.0
O559 O 0.1072 0.38046 0.21906 0.0
C560 C 0.78707 0.62041 0.88372 0.0
O561 O 0.79248 0.61714 0.89972 0.0
Cd562 Cd 0.7733 0.60369 0.92221 0.0
O563 O 0.77042 0.61772 0.87924 0.0
Cd564 Cd 0.74103 0.6083 0.89316 0.0
C565 C 0.75787 0.56631 0.89765 0.0
O566 O 0.74651 0.62164 0.92279 0.0
O567 O 0.72359 0.60303 0.92105 0.0
O568 O 0.72817 0.6337 0.87717 0.0
C569 C 0.73284 0.61429 0.93045 0.0
O570 O 0.76746 0.57296 0.91056 0.0
C571 C 0.71402 0.62524 0.87158 0.0
O572 O 0.74737 0.57632 0.88836 0.0
O573 O 0.71272 0.60847 0.87541 0.0
C574 C 0.69832 0.37984 0.11626 0.0
O575 O 0.69298 0.39594 0.11366 0.0
Cd576 Cd 0.71201 0.41991 0.10238 0.0
O577 O 0.71504 0.37578 0.1141 0.0
Cd578 Cd 0.74459 0.39105 0.10685 0.0
C579 C 0.72967 0.39829 0.06444 0.0
O580 O 0.73872 0.42057 0.12058 0.0
O581 O 0.76201 0.41932 0.10296 0.0
O582 O 0.75718 0.37445 0.13216 0.0
C583 C 0.75226 0.4287 0.11348 0.0
O584 O 0.71975 0.41038 0.07168 0.0
C585 C 0.7717 0.36986 0.12412 0.0
O586 O 0.73971 0.38818 0.07413 0.0
O587 O 0.77331 0.37444 0.1076 0.0
C588 C 0.62168 0.79262 0.10766 0.0
O589 O 0.61712 0.79929 0.0925 0.0
Cd590 Cd 0.60231 0.78129 0.06941 0.0
O591 O 0.6193 0.77575 0.11079 0.0
Cd592 Cd 0.60855 0.74735 0.09619 0.0
C593 C 0.56606 0.76428 0.09448 0.0
O594 O 0.61961 0.7542 0.06577 0.0
O595 O 0.60177 0.73078 0.06827 0.0
O596 O 0.63452 0.73405 0.11111 0.0
C597 C 0.61164 0.74077 0.0582 0.0
O598 O 0.57199 0.77458 0.08188 0.0
C599 C 0.62604 0.7201 0.11693 0.0
O600 O 0.57669 0.75353 0.10271 0.0
O601 O 0.60912 0.7188 0.11326 0.0
C602 C 0.28743 0.60442 0.11734 0.0
O603 O 0.29247 0.58817 0.11498 0.0
Cd604 Cd 0.27319 0.56491 0.10248 0.0
O605 O 0.27094 0.60887 0.11438 0.0
Cd606 Cd 0.24129 0.5945 0.10577 0.0
C607 C 0.25807 0.58747 0.06406 0.0
O608 O 0.24571 0.56482 0.11944 0.0
O609 O 0.2233 0.56667 0.10067 0.0
O610 O 0.22821 0.61083 0.13097 0.0
C611 C 0.23228 0.55706 0.11165 0.0
O612 O 0.26739 0.57509 0.07157 0.0
C613 C 0.21446 0.61657 0.12234 0.0
O614 O 0.24768 0.59758 0.07339 0.0
O615 O 0.21348 0.61265 0.10557 0.0
C616 C 0.36476 0.1996 0.10317 0.0
O617 O 0.36931 0.19283 0.08802 0.0
Cd618 Cd 0.38544 0.21058 0.06582 0.0
O619 O 0.3679 0.21632 0.1066 0.0
Cd620 Cd 0.38014 0.24451 0.09299 0.0
C621 C 0.42178 0.22572 0.09231 0.0
O622 O 0.3691 0.2383 0.06233 0.0
O623 O 0.38757 0.26118 0.06543 0.0
O624 O 0.35431 0.2573 0.10845 0.0
C625 C 0.37747 0.2516 0.0551 0.0
O626 O 0.41562 0.21579 0.07943 0.0
C627 C 0.36249 0.27161 0.1139 0.0
O628 O 0.41155 0.237 0.10036 0.0
O629 O 0.37925 0.27341 0.10979 0.0
C630 C 0.19668 0.36874 0.87836 0.0
O631 O 0.19141 0.37211 0.89439 0.0
Cd632 Cd 0.21081 0.38422 0.91756 0.0
O633 O 0.21341 0.37074 0.87398 0.0
Cd634 Cd 0.24288 0.37902 0.88864 0.0
C635 C 0.22792 0.4216 0.89468 0.0
O636 O 0.23685 0.3652 0.91784 0.0
O637 O 0.26024 0.38319 0.91698 0.0
O638 O 0.2565 0.35406 0.87227 0.0
C639 C 0.25056 0.37203 0.92596 0.0
O640 O 0.21803 0.41511 0.90737 0.0
C641 C 0.27042 0.36302 0.86696 0.0
O642 O 0.2378 0.41131 0.88504 0.0
O643 O 0.27117 0.37977 0.8711 0.0
C644 C 0.60954 0.28439 0.87842 0.0
O645 O 0.59307 0.28917 0.88032 0.0
Cd646 Cd 0.56896 0.26913 0.88912 0.0
O647 O 0.61402 0.26784 0.88033 0.0
Cd648 Cd 0.59933 0.2377 0.88607 0.0
C649 C 0.58846 0.25135 0.92814 0.0
O650 O 0.57164 0.24383 0.86944 0.0
O651 O 0.57046 0.21994 0.88602 0.0
O652 O 0.61906 0.22737 0.86208 0.0
C653 C 0.56261 0.23005 0.87463 0.0
O654 O 0.5765 0.26096 0.92028 0.0
C655 C 0.62297 0.21232 0.86932 0.0
O656 O 0.59961 0.2419 0.91897 0.0
O657 O 0.61656 0.2093 0.88503 0.0
C658 C 0.38294 0.70487 0.87644 0.0
O659 O 0.39959 0.70056 0.87793 0.0
Cd660 Cd 0.42283 0.72119 0.88791 0.0
O661 O 0.37796 0.72116 0.87926 0.0
Cd662 Cd 0.39126 0.75166 0.88625 0.0
C663 C 0.40228 0.73636 0.92762 0.0
O664 O 0.41913 0.74721 0.8695 0.0
O665 O 0.4194 0.77062 0.88692 0.0
O666 O 0.37067 0.76112 0.86268 0.0
C667 C 0.42764 0.76115 0.87523 0.0
O668 O 0.41457 0.72749 0.91937 0.0
C669 C 0.36612 0.77592 0.87012 0.0
O670 O 0.39099 0.74601 0.91888 0.0
O671 O 0.37272 0.77928 0.88574 0.0
H672 H 0.13301 0.35255 0.28061 0.0
H673 H 0.12405 0.30789 0.37828 0.0
H674 H 0.12058 0.38261 0.32929 0.0
H675 H 0.12772 0.27778 0.32816 0.0
H676 H 0.13095 0.33587 0.36171 0.0
H677 H 0.13929 0.32597 0.29904 0.0
C678 C 0.13184 0.35365 0.2952 0.0
C679 C 0.12584 0.36972 0.30339 0.0
C680 C 0.13057 0.32309 0.35441 0.0
C681 C 0.13291 0.33925 0.32456 0.0
C682 C 0.12669 0.30711 0.36386 0.0
C683 C 0.12495 0.29056 0.3545 0.0
C684 C 0.13272 0.32245 0.33551 0.0
C685 C 0.12862 0.2903 0.33586 0.0
C686 C 0.13544 0.33845 0.30572 0.0
C687 C 0.1249 0.37042 0.32238 0.0
N688 N 0.13209 0.30605 0.32693 0.0
N689 N 0.12809 0.35528 0.33232 0.0
H690 H 0.7138 0.12619 0.3341 0.0
H691 H 0.60599 0.12057 0.32197 0.0
H692 H 0.67621 0.11911 0.37857 0.0
H693 H 0.64444 0.12426 0.27778 0.0
H694 H 0.63097 0.12626 0.34332 0.0
H695 H 0.68816 0.13228 0.31404 0.0
C696 C 0.70015 0.12624 0.33972 0.0
C697 C 0.69708 0.1218 0.35794 0.0
C698 C 0.63389 0.12605 0.32894 0.0
C699 C 0.66762 0.12844 0.33499 0.0
C700 C 0.61964 0.12278 0.31672 0.0
C701 C 0.62318 0.12159 0.29806 0.0
C702 C 0.6518 0.12811 0.32244 0.0
C703 C 0.6411 0.12476 0.29206 0.0
C704 C 0.6855 0.12968 0.32824 0.0
C705 C 0.67915 0.1223 0.36455 0.0
N706 N 0.65476 0.12767 0.30423 0.0
N707 N 0.66503 0.12521 0.35299 0.0
H708 H 0.84566 0.71368 0.33268 0.0
H709 H 0.86323 0.60982 0.31615 0.0
H710 H 0.86312 0.677 0.37454 0.0
H711 H 0.8451 0.6472 0.27521 0.0
H712 H 0.85501 0.63185 0.33954 0.0
H713 H 0.8371 0.68771 0.31379 0.0
C714 C 0.84736 0.70013 0.33803 0.0
C715 C 0.85551 0.69745 0.35499 0.0
C716 C 0.8524 0.63505 0.32546 0.0
C717 C 0.84614 0.66763 0.3333 0.0
C718 C 0.85702 0.62243 0.31211 0.0
C719 C 0.85529 0.62693 0.29373 0.0
C720 C 0.84612 0.65223 0.3203 0.0
C721 C 0.84706 0.64338 0.28924 0.0
C722 C 0.84248 0.68528 0.32724 0.0
C723 C 0.85711 0.67963 0.3614 0.0
N724 N 0.84312 0.65558 0.30241 0.0
N725 N 0.85289 0.66535 0.35036 0.0
H726 H 0.32468 0.8544 0.26883 0.0
H727 H 0.30934 0.86846 0.37372 0.0
H728 H 0.36788 0.86901 0.30618 0.0
H729 H 0.26714 0.8534 0.33542 0.0
H730 H 0.33239 0.86091 0.35102 0.0
H731 H 0.30527 0.84615 0.29438 0.0
C732 C 0.33017 0.85558 0.28244 0.0
C733 C 0.34773 0.86277 0.28545 0.0
C734 C 0.3181 0.85884 0.34774 0.0
C735 C 0.32548 0.85373 0.31482 0.0
C736 C 0.30494 0.86307 0.36073 0.0
C737 C 0.28634 0.86197 0.35625 0.0
C738 C 0.31251 0.85356 0.33023 0.0
C739 C 0.28136 0.85483 0.33927 0.0
C740 C 0.31909 0.85086 0.29705 0.0
C741 C 0.3543 0.86373 0.30331 0.0
N742 N 0.29437 0.85121 0.32678 0.0
N743 N 0.34301 0.85966 0.31739 0.0
H744 H 0.14283 0.65326 0.71635 0.0
H745 H 0.12135 0.67742 0.61414 0.0
H746 H 0.12247 0.61449 0.67699 0.0
H747 H 0.13513 0.71628 0.65606 0.0
H748 H 0.1309 0.6529 0.63425 0.0
H749 H 0.14965 0.67445 0.69189 0.0
C750 C 0.14019 0.64905 0.7025 0.0
C751 C 0.13166 0.63229 0.69871 0.0
C752 C 0.13223 0.66683 0.63888 0.0
C753 C 0.13903 0.65663 0.67067 0.0
C754 C 0.12685 0.68083 0.62738 0.0
C755 C 0.12706 0.69885 0.63364 0.0
C756 C 0.13786 0.67095 0.65666 0.0
C757 C 0.13438 0.70252 0.65086 0.0
C758 C 0.14404 0.66118 0.68852 0.0
C759 C 0.12881 0.6274 0.68051 0.0
N760 N 0.13921 0.68868 0.66187 0.0
N761 N 0.13208 0.63971 0.66716 0.0
H762 H 0.32319 0.12182 0.61151 0.0
H763 H 0.327 0.12183 0.71891 0.0
H764 H 0.27624 0.12862 0.64604 0.0
H765 H 0.37482 0.11804 0.68513 0.0
H766 H 0.30905 0.12979 0.69233 0.0
H767 H 0.34302 0.12576 0.63795 0.0
C768 C 0.31705 0.12441 0.62459 0.0
C769 C 0.29801 0.12449 0.62663 0.0
C770 C 0.32352 0.12748 0.69072 0.0
C771 C 0.3206 0.12891 0.65692 0.0
C772 C 0.33377 0.12292 0.70591 0.0
C773 C 0.35233 0.11895 0.70414 0.0
C774 C 0.33183 0.1278 0.67358 0.0
C775 C 0.36048 0.12082 0.68704 0.0
C776 C 0.32839 0.12666 0.63969 0.0
C777 C 0.29083 0.12811 0.64387 0.0
N778 N 0.3501 0.1248 0.67233 0.0
N779 N 0.30213 0.12991 0.65837 0.0
H780 H 0.86496 0.31054 0.60778 0.0
H781 H 0.85098 0.34956 0.70724 0.0
H782 H 0.85981 0.27775 0.65593 0.0
H783 H 0.86272 0.38285 0.66049 0.0
H784 H 0.84599 0.32356 0.68724 0.0
H785 H 0.85601 0.33714 0.62542 0.0
C786 C 0.86155 0.30886 0.62196 0.0
C787 C 0.8635 0.29201 0.63052 0.0
C788 C 0.84939 0.33661 0.68132 0.0
C789 C 0.85342 0.32233 0.65075 0.0
C790 C 0.85224 0.35148 0.69274 0.0
C791 C 0.85771 0.36832 0.68556 0.0
C792 C 0.85217 0.33853 0.66259 0.0
C793 C 0.85881 0.37006 0.66665 0.0
C794 C 0.85651 0.32406 0.63203 0.0
C795 C 0.8588 0.29056 0.64888 0.0
N796 N 0.85639 0.35525 0.65582 0.0
N797 N 0.85425 0.30558 0.65844 0.0
H798 H 0.7096 0.86586 0.64846 0.0
H799 H 0.64505 0.87721 0.71614 0.0
H800 H 0.6643 0.87283 0.61171 0.0
H801 H 0.60473 0.86899 0.67401 0.0
H802 H 0.66901 0.87262 0.69403 0.0
H803 H 0.68818 0.86285 0.67345 0.0
C804 C 0.69513 0.86676 0.64565 0.0
C805 C 0.68877 0.86995 0.628 0.0
C806 C 0.65499 0.87134 0.68957 0.0
C807 C 0.66406 0.86714 0.6567 0.0
C808 C 0.64123 0.87413 0.70226 0.0
C809 C 0.62284 0.87366 0.6969 0.0
C810 C 0.65031 0.86795 0.67135 0.0
C811 C 0.61872 0.86964 0.67874 0.0
C812 C 0.68284 0.86523 0.66001 0.0
C813 C 0.66986 0.87062 0.62512 0.0
N814 N 0.63235 0.86711 0.66661 0.0
N815 N 0.65821 0.86942 0.63935 0.0
H816 H 0.34253 0.12403 0.27731 0.0
H817 H 0.32362 0.12862 0.38351 0.0
H818 H 0.38465 0.12553 0.31837 0.0
H819 H 0.28108 0.12377 0.34308 0.0
H820 H 0.34591 0.13327 0.35945 0.0
H821 H 0.31977 0.12957 0.30078 0.0
C822 C 0.34703 0.12575 0.29122 0.0
C823 C 0.36549 0.12399 0.29593 0.0
C824 C 0.33167 0.13139 0.35583 0.0
C825 C 0.33954 0.13026 0.32281 0.0
C826 C 0.31892 0.12873 0.36958 0.0
C827 C 0.30049 0.12546 0.36529 0.0
C828 C 0.326 0.13064 0.33765 0.0
C829 C 0.29518 0.12602 0.347 0.0
C830 C 0.33403 0.1289 0.30461 0.0
C831 C 0.37055 0.1265 0.31414 0.0
N832 N 0.30792 0.12829 0.33383 0.0
N833 N 0.35762 0.1293 0.32693 0.0
H834 H 0.84291 0.27227 0.33877 0.0
H835 H 0.86449 0.37419 0.31146 0.0
H836 H 0.86342 0.31296 0.37608 0.0
H837 H 0.85113 0.33081 0.27408 0.0
H838 H 0.85497 0.35462 0.33664 0.0
H839 H 0.83611 0.2961 0.31704 0.0
C840 C 0.84557 0.28628 0.34256 0.0
C841 C 0.85417 0.29063 0.35904 0.0
C842 C 0.85374 0.34954 0.32289 0.0
C843 C 0.84684 0.31794 0.33407 0.0
C844 C 0.85913 0.36071 0.30852 0.0
C845 C 0.85898 0.35392 0.29073 0.0
C846 C 0.84816 0.33153 0.31935 0.0
C847 C 0.85183 0.33643 0.28764 0.0
C848 C 0.84174 0.2999 0.33012 0.0
C849 C 0.85703 0.30901 0.36339 0.0
N850 N 0.84695 0.32575 0.30183 0.0
N851 N 0.8538 0.322 0.35078 0.0
H852 H 0.70043 0.86287 0.34465 0.0
H853 H 0.59392 0.86356 0.32245 0.0
H854 H 0.65805 0.86232 0.38527 0.0
H855 H 0.63604 0.86703 0.28167 0.0
H856 H 0.61724 0.85781 0.34525 0.0
H857 H 0.67711 0.85908 0.32119 0.0
C858 C 0.68625 0.86171 0.34867 0.0
C859 C 0.68117 0.86323 0.36695 0.0
C860 C 0.62137 0.85964 0.33129 0.0
C861 C 0.65443 0.85898 0.34015 0.0
C862 C 0.60805 0.86293 0.31824 0.0
C863 C 0.61305 0.86609 0.30015 0.0
C864 C 0.63985 0.8596 0.32625 0.0
C865 C 0.63157 0.86489 0.29548 0.0
C866 C 0.67294 0.85957 0.33526 0.0
C867 C 0.6626 0.86148 0.37134 0.0
N868 N 0.64432 0.86196 0.3085 0.0
N869 N 0.64989 0.85966 0.35803 0.0
H870 H 0.13945 0.66188 0.27308 0.0
H871 H 0.12334 0.67817 0.37723 0.0
H872 H 0.12342 0.61955 0.31033 0.0
H873 H 0.13995 0.71963 0.33925 0.0
H874 H 0.13168 0.65496 0.35507 0.0
H875 H 0.14813 0.68113 0.2987 0.0
C876 C 0.13809 0.65652 0.28668 0.0
C877 C 0.1303 0.63929 0.28964 0.0
C878 C 0.13393 0.66913 0.35175 0.0
C879 C 0.13979 0.66138 0.31907 0.0
C880 C 0.12924 0.68238 0.36444 0.0
C881 C 0.1305 0.70082 0.35985 0.0
C882 C 0.13981 0.67444 0.33441 0.0
C883 C 0.13835 0.70554 0.34316 0.0
C884 C 0.14304 0.66751 0.30133 0.0
C885 C 0.12913 0.63288 0.30749 0.0
N886 N 0.14237 0.69244 0.33091 0.0
N887 N 0.1334 0.6441 0.32159 0.0
H888 H 0.37868 0.86411 0.66458 0.0
H889 H 0.27077 0.85806 0.65679 0.0
H890 H 0.34244 0.85439 0.70974 0.0
H891 H 0.30633 0.86732 0.61108 0.0
H892 H 0.29722 0.85031 0.67514 0.0
H893 H 0.35301 0.85927 0.64383 0.0
C894 C 0.3654 0.86069 0.67014 0.0
C895 C 0.36263 0.86004 0.68895 0.0
C896 C 0.29926 0.85374 0.66102 0.0
C897 C 0.33321 0.85457 0.66529 0.0
C898 C 0.28414 0.85814 0.65053 0.0
C899 C 0.28642 0.86367 0.6325 0.0
C900 C 0.31682 0.85514 0.65351 0.0
C901 C 0.304 0.86331 0.625 0.0
C902 C 0.35074 0.85793 0.65827 0.0
C903 C 0.34516 0.85537 0.69535 0.0
N904 N 0.3186 0.85948 0.63565 0.0
N905 N 0.33108 0.85306 0.68356 0.0
H906 H 0.12887 0.33535 0.71095 0.0
H907 H 0.12582 0.33077 0.60376 0.0
H908 H 0.1212 0.38218 0.67692 0.0
H909 H 0.13475 0.28459 0.63842 0.0
H910 H 0.13063 0.35085 0.62981 0.0
H911 H 0.13775 0.31789 0.68436 0.0
C912 C 0.12937 0.34205 0.69791 0.0
C913 C 0.12394 0.36013 0.69606 0.0
C914 C 0.13184 0.33634 0.63165 0.0
C915 C 0.13377 0.34014 0.66549 0.0
C916 C 0.12912 0.32485 0.61676 0.0
C917 C 0.12946 0.30594 0.61899 0.0
C918 C 0.13483 0.32884 0.64887 0.0
C919 C 0.13399 0.29907 0.63612 0.0
C920 C 0.13443 0.33207 0.6827 0.0
C921 C 0.12509 0.3682 0.6789 0.0
N922 N 0.1362 0.3105 0.65044 0.0
N923 N 0.12953 0.35804 0.66418 0.0
H924 H 0.6803 0.12326 0.61159 0.0
H925 H 0.6413 0.13238 0.71185 0.0
H926 H 0.71359 0.12909 0.65966 0.0
H927 H 0.60761 0.12108 0.66493 0.0
H928 H 0.66725 0.13791 0.69194 0.0
H929 H 0.65318 0.12933 0.62984 0.0
C930 C 0.68195 0.12622 0.6259 0.0
C931 C 0.69917 0.12536 0.6342 0.0
C932 C 0.65414 0.13442 0.68596 0.0
C933 C 0.66826 0.13211 0.65513 0.0
C934 C 0.6393 0.13124 0.69733 0.0
C935 C 0.62231 0.12591 0.69007 0.0
C936 C 0.65208 0.13214 0.66716 0.0
C937 C 0.6205 0.12494 0.67114 0.0
C938 C 0.66646 0.12959 0.63632 0.0
C939 C 0.70054 0.12935 0.65276 0.0
N940 N 0.63528 0.12776 0.66033 0.0
N941 N 0.68526 0.13231 0.66264 0.0
H942 H 0.86107 0.6618 0.60638 0.0
H943 H 0.85531 0.66036 0.7135 0.0
H944 H 0.85339 0.70932 0.63979 0.0
H945 H 0.86179 0.61233 0.6806 0.0
H946 H 0.84771 0.67744 0.68632 0.0
H947 H 0.85477 0.64268 0.6327 0.0
C948 C 0.85776 0.66822 0.61916 0.0
C949 C 0.85819 0.6872 0.62098 0.0
C950 C 0.85048 0.66309 0.68505 0.0
C951 C 0.85108 0.66541 0.65116 0.0
C952 C 0.85479 0.65332 0.70058 0.0
C953 C 0.85956 0.63501 0.69923 0.0
C954 C 0.85121 0.65453 0.66802 0.0
C955 C 0.85843 0.62651 0.68221 0.0
C956 C 0.85416 0.65729 0.6342 0.0
C957 C 0.85358 0.69475 0.63782 0.0
N958 N 0.85473 0.63644 0.66719 0.0
N959 N 0.8505 0.68384 0.65231 0.0
H960 H 0.3089 0.37177 0.11911 0.0
H961 H 0.33077 0.26816 0.13268 0.0
H962 H 0.26996 0.33091 0.13645 0.0
H963 H 0.37084 0.30798 0.11551 0.0
H964 H 0.31071 0.29257 0.14189 0.0
H965 H 0.33365 0.35068 0.12538 0.0
C966 C 0.3056 0.35855 0.1247 0.0
C967 C 0.28737 0.35287 0.12684 0.0
C968 C 0.324 0.29605 0.1364 0.0
C969 C 0.31547 0.3287 0.13384 0.0
C970 C 0.33546 0.28209 0.13114 0.0
C971 C 0.35228 0.2861 0.12297 0.0
C972 C 0.32922 0.31416 0.13307 0.0
C973 C 0.35785 0.30435 0.12157 0.0
C974 C 0.31972 0.34649 0.12821 0.0
C975 C 0.28383 0.33567 0.13422 0.0
N976 N 0.34614 0.31776 0.12617 0.0
N977 N 0.29773 0.32409 0.13716 0.0
H978 H 0.3887 0.6691 0.86856 0.0
H979 H 0.28285 0.64222 0.87241 0.0
H980 H 0.34571 0.70813 0.87475 0.0
H981 H 0.32637 0.60337 0.86985 0.0
H982 H 0.30532 0.66674 0.86871 0.0
H983 H 0.36571 0.6452 0.86451 0.0
C984 C 0.37442 0.67269 0.86894 0.0
C985 C 0.36914 0.69063 0.87225 0.0
C986 C 0.30992 0.65283 0.86878 0.0
C987 C 0.34271 0.66325 0.86769 0.0
C988 C 0.2971 0.63881 0.87087 0.0
C989 C 0.30276 0.6207 0.8717 0.0
C990 C 0.32852 0.64872 0.86755 0.0
C991 C 0.32139 0.61712 0.86949 0.0
C992 C 0.36129 0.65901 0.86662 0.0
C993 C 0.35042 0.69446 0.8724 0.0
N994 N 0.33361 0.63102 0.86769 0.0
N995 N 0.33787 0.68085 0.87034 0.0
H996 H 0.30469 0.37685 0.86047 0.0
H997 H 0.34444 0.27752 0.85136 0.0
H998 H 0.27184 0.32801 0.85487 0.0
H999 H 0.37735 0.32533 0.86283 0.0
H1000 H 0.31858 0.29688 0.84483 0.0
H1001 H 0.33187 0.35935 0.8534 0.0
C1002 C 0.30313 0.36254 0.85734 0.0
C1003 C 0.28605 0.35377 0.85865 0.0
C1004 C 0.33152 0.30316 0.84853 0.0
C1005 C 0.31705 0.33368 0.85075 0.0
C1006 C 0.34631 0.29211 0.85229 0.0
C1007 C 0.36298 0.2998 0.85807 0.0
C1008 C 0.33335 0.32204 0.85071 0.0
C1009 C 0.36467 0.3188 0.8587 0.0
C1010 C 0.31867 0.35254 0.85338 0.0
C1011 C 0.2848 0.33524 0.85433 0.0
N1012 N 0.34994 0.32927 0.85538 0.0
N1013 N 0.30014 0.32575 0.85086 0.0
H1014 H 0.64663 0.28016 0.87595 0.0
H1015 H 0.66628 0.38693 0.87014 0.0
H1016 H 0.60466 0.32056 0.8722 0.0
H1017 H 0.70864 0.34711 0.8754 0.0
H1018 H 0.64379 0.3624 0.86701 0.0
H1019 H 0.66975 0.3041 0.87209 0.0
C1020 C 0.64226 0.29403 0.87418 0.0
C1021 C 0.62368 0.29838 0.87463 0.0
C1022 C 0.65802 0.35901 0.8687 0.0
C1023 C 0.65005 0.32581 0.87023 0.0
C1024 C 0.67089 0.37303 0.87047 0.0
C1025 C 0.68936 0.36908 0.87328 0.0
C1026 C 0.66362 0.3409 0.86983 0.0
C1027 C 0.69453 0.35079 0.87343 0.0
C1028 C 0.65547 0.30769 0.87198 0.0
C1029 C 0.61882 0.31657 0.87214 0.0
N1030 N 0.68169 0.33737 0.87192 0.0
N1031 N 0.63193 0.32962 0.87019 0.0
H1032 H 0.67902 0.61308 0.86538 0.0
H1033 H 0.64443 0.71434 0.85592 0.0
H1034 H 0.7143 0.6601 0.85925 0.0
H1035 H 0.60897 0.66827 0.86665 0.0
H1036 H 0.66932 0.69364 0.84978 0.0
H1037 H 0.65273 0.63191 0.85833 0.0
C1038 C 0.68128 0.62726 0.86213 0.0
C1039 C 0.6988 0.63515 0.86328 0.0
C1040 C 0.65604 0.68803 0.85324 0.0
C1041 C 0.66885 0.65675 0.85541 0.0
C1042 C 0.64181 0.69986 0.85679 0.0
C1043 C 0.62469 0.69304 0.86221 0.0
C1044 C 0.6532 0.66925 0.8553 0.0
C1045 C 0.62202 0.67414 0.86279 0.0
C1046 C 0.66626 0.63802 0.85819 0.0
C1047 C 0.70097 0.65355 0.85884 0.0
N1048 N 0.63622 0.6629 0.85967 0.0
N1049 N 0.68614 0.66379 0.85538 0.0
H1050 H 0.61492 0.68478 0.12209 0.0
H1051 H 0.71691 0.65664 0.14237 0.0
H1052 H 0.65976 0.72206 0.13242 0.0
H1053 H 0.67481 0.61901 0.12463 0.0
H1054 H 0.69366 0.67921 0.14831 0.0
H1055 H 0.63414 0.65966 0.13187 0.0
C1056 C 0.62866 0.68772 0.1268 0.0
C1057 C 0.63594 0.70543 0.12606 0.0
C1058 C 0.68943 0.6659 0.14346 0.0
C1059 C 0.6579 0.67689 0.13722 0.0
C1060 C 0.70271 0.65299 0.14012 0.0
C1061 C 0.69779 0.63612 0.13257 0.0
C1062 C 0.67116 0.66201 0.13891 0.0
C1063 C 0.67919 0.63198 0.1302 0.0
C1064 C 0.63963 0.67339 0.13235 0.0
C1065 C 0.65376 0.70853 0.13242 0.0
N1066 N 0.66653 0.64502 0.13295 0.0
N1067 N 0.6642 0.69438 0.13749 0.0
H1068 H 0.3468 0.70589 0.12092 0.0
H1069 H 0.32355 0.59982 0.12538 0.0
H1070 H 0.38739 0.66398 0.12236 0.0
H1071 H 0.28273 0.6412 0.12017 0.0
H1072 H 0.34683 0.6235 0.12932 0.0
H1073 H 0.32304 0.68276 0.12554 0.0
C1074 C 0.35075 0.69186 0.1224 0.0
C1075 C 0.36911 0.68684 0.12098 0.0
C1076 C 0.33276 0.62741 0.12749 0.0
C1077 C 0.34197 0.66032 0.12622 0.0
C1078 C 0.31943 0.61388 0.12525 0.0
C1079 C 0.30118 0.61853 0.12215 0.0
C1080 C 0.32784 0.64573 0.12654 0.0
C1081 C 0.29666 0.63699 0.12233 0.0
C1082 C 0.33717 0.67866 0.12502 0.0
C1083 C 0.37341 0.66846 0.12314 0.0
N1084 N 0.30993 0.64992 0.12426 0.0
N1085 N 0.35992 0.65586 0.12548 0.0
H1086 H 0.66203 0.38383 0.12365 0.0
H1087 H 0.64036 0.27738 0.1195 0.0
H1088 H 0.70358 0.34312 0.11882 0.0
H1089 H 0.59916 0.31862 0.1224 0.0
H1090 H 0.6639 0.30092 0.12342 0.0
H1091 H 0.63914 0.35982 0.12745 0.0
C1092 C 0.66638 0.36984 0.12354 0.0
C1093 C 0.68474 0.36549 0.12066 0.0
C1094 C 0.6497 0.30479 0.12337 0.0
C1095 C 0.65852 0.33788 0.1249 0.0
C1096 C 0.63624 0.29135 0.12115 0.0
C1097 C 0.61775 0.29605 0.12037 0.0
C1098 C 0.64464 0.32305 0.1248 0.0
C1099 C 0.61323 0.31437 0.12271 0.0
C1100 C 0.65328 0.35612 0.12572 0.0
C1101 C 0.68957 0.34711 0.12085 0.0
N1102 N 0.62659 0.3272 0.12465 0.0
N1103 N 0.6765 0.33397 0.12273 0.0
H1104 H 0.6234 0.88075 0.81783 0.0
H1105 H 0.64216 0.77736 0.83423 0.0
H1106 H 0.64233 0.84349 0.77698 0.0
H1107 H 0.62471 0.8141 0.87619 0.0
H1108 H 0.65068 0.8033 0.81548 0.0
H1109 H 0.6321 0.85906 0.84126 0.0
C1110 C 0.62988 0.86824 0.81382 0.0
C1111 C 0.63169 0.86365 0.79545 0.0
C1112 C 0.64533 0.80576 0.82893 0.0
C1113 C 0.64141 0.83874 0.82206 0.0
C1114 C 0.64047 0.79092 0.83963 0.0
C1115 C 0.63232 0.79362 0.85657 0.0
C1116 C 0.64159 0.82341 0.83504 0.0
C1117 C 0.63072 0.81145 0.86307 0.0
C1118 C 0.63478 0.85582 0.82719 0.0
C1119 C 0.64028 0.84736 0.79099 0.0
N1120 N 0.63488 0.82571 0.85209 0.0
N1121 N 0.64449 0.83534 0.80419 0.0
H1122 H 0.21817 0.62598 0.83249 0.0
H1123 H 0.11009 0.62065 0.82274 0.0
H1124 H 0.18153 0.61961 0.87783 0.0
H1125 H 0.14749 0.62428 0.77766 0.0
H1126 H 0.13559 0.62622 0.84351 0.0
H1127 H 0.19211 0.6319 0.81291 0.0
C1128 C 0.20465 0.62616 0.8384 0.0
C1129 C 0.20196 0.62196 0.85674 0.0
C1130 C 0.13817 0.62602 0.82906 0.0
C1131 C 0.17202 0.62842 0.83433 0.0
C1132 C 0.12362 0.62281 0.81718 0.0
C1133 C 0.1267 0.62166 0.79843 0.0
C1134 C 0.15592 0.62805 0.82215 0.0
C1135 C 0.14449 0.62476 0.79202 0.0
C1136 C 0.18975 0.62949 0.82719 0.0
C1137 C 0.18418 0.62261 0.86372 0.0
N1138 N 0.15845 0.62761 0.80387 0.0
N1139 N 0.16982 0.62542 0.85242 0.0
H1140 H 0.36456 0.10508 0.82928 0.0
H1141 H 0.35539 0.21193 0.82865 0.0
H1142 H 0.35349 0.13673 0.78142 0.0
H1143 H 0.36399 0.18073 0.87726 0.0
H1144 H 0.34812 0.18394 0.81228 0.0
H1145 H 0.35808 0.13164 0.84798 0.0
C1146 C 0.36046 0.11751 0.8227 0.0
C1147 C 0.36 0.11881 0.80373 0.0
C1148 C 0.35129 0.18319 0.8266 0.0
C1149 C 0.35269 0.14925 0.82504 0.0
C1150 C 0.35543 0.1992 0.83596 0.0
C1151 C 0.36066 0.19858 0.85423 0.0
C1152 C 0.35269 0.16644 0.83552 0.0
C1153 C 0.36024 0.18176 0.8631 0.0
C1154 C 0.35677 0.13268 0.8334 0.0
C1155 C 0.3544 0.13519 0.79598 0.0
N1156 N 0.35671 0.16629 0.85356 0.0
N1157 N 0.35125 0.14984 0.80665 0.0
H1158 H 0.82613 0.3573 0.76869 0.0
H1159 H 0.81126 0.36984 0.87385 0.0
H1160 H 0.86958 0.37111 0.80604 0.0
H1161 H 0.76893 0.35493 0.83564 0.0
H1162 H 0.83422 0.3628 0.8509 0.0
H1163 H 0.80678 0.34882 0.7942 0.0
C1164 C 0.83169 0.35826 0.78229 0.0
C1165 C 0.84932 0.36528 0.78531 0.0
C1166 C 0.81992 0.36066 0.84768 0.0
C1167 C 0.82713 0.35597 0.81466 0.0
C1168 C 0.80681 0.36459 0.86081 0.0
C1169 C 0.78819 0.36338 0.85645 0.0
C1170 C 0.81426 0.35555 0.83014 0.0
C1171 C 0.78316 0.35644 0.83942 0.0
C1172 C 0.82064 0.35341 0.79688 0.0
C1173 C 0.85596 0.36596 0.80316 0.0
N1174 N 0.79611 0.35309 0.82678 0.0
N1175 N 0.84471 0.36176 0.81722 0.0
H1176 H 0.62103 0.17462 0.11337 0.0
H1177 H 0.6419 0.15134 0.21582 0.0
H1178 H 0.63512 0.21377 0.15492 0.0
H1179 H 0.62196 0.11219 0.17663 0.0
H1180 H 0.64908 0.17225 0.19122 0.0
H1181 H 0.63051 0.15023 0.13366 0.0
C1182 C 0.62657 0.17811 0.12657 0.0
C1183 C 0.62689 0.19618 0.13267 0.0
C1184 C 0.64349 0.15895 0.18792 0.0
C1185 C 0.63761 0.16844 0.15591 0.0
C1186 C 0.63943 0.14698 0.20198 0.0
C1187 C 0.63091 0.13021 0.19826 0.0
C1188 C 0.63866 0.15424 0.17006 0.0
C1189 C 0.62829 0.12512 0.18008 0.0
C1190 C 0.63192 0.16419 0.13817 0.0
C1191 C 0.63428 0.19997 0.14983 0.0
N1192 N 0.63173 0.13729 0.16664 0.0
N1193 N 0.63907 0.1862 0.16096 0.0
H1194 H 0.84223 0.61399 0.2137 0.0
H1195 H 0.82054 0.62184 0.10807 0.0
H1196 H 0.88342 0.6183 0.17206 0.0
H1197 H 0.7789 0.61693 0.1492 0.0
H1198 H 0.84357 0.62478 0.1318 0.0
H1199 H 0.81875 0.61904 0.19077 0.0
C1200 C 0.84636 0.61615 0.19978 0.0
C1201 C 0.86481 0.61546 0.19476 0.0
C1202 C 0.82938 0.62324 0.13565 0.0
C1203 C 0.83802 0.62123 0.16848 0.0
C1204 C 0.81621 0.62156 0.1221 0.0
C1205 C 0.79778 0.61886 0.12665 0.0
C1206 C 0.82414 0.62208 0.15391 0.0
C1207 C 0.79297 0.61882 0.14506 0.0
C1208 C 0.83295 0.61905 0.1867 0.0
C1209 C 0.86936 0.6185 0.17654 0.0
N1210 N 0.8061 0.62017 0.15804 0.0
N1211 N 0.85605 0.62109 0.16405 0.0
H1212 H 0.36327 0.80642 0.10834 0.0
H1213 H 0.35009 0.84618 0.20767 0.0
H1214 H 0.35906 0.77397 0.1568 0.0
H1215 H 0.36125 0.87915 0.16055 0.0
H1216 H 0.34523 0.81995 0.18793 0.0
H1217 H 0.35445 0.8331 0.12591 0.0
C1218 C 0.3601 0.80482 0.12258 0.0
C1219 C 0.36227 0.78805 0.13123 0.0
C1220 C 0.34847 0.83298 0.18188 0.0
C1221 C 0.35233 0.81847 0.15138 0.0
C1222 C 0.35125 0.84798 0.19315 0.0
C1223 C 0.35651 0.86481 0.18579 0.0
C1224 C 0.3511 0.83475 0.16312 0.0
C1225 C 0.3575 0.86637 0.16685 0.0
C1226 C 0.35513 0.82007 0.13262 0.0
C1227 C 0.35787 0.78672 0.14967 0.0
N1228 N 0.35514 0.85145 0.15617 0.0
N1229 N 0.35337 0.80179 0.15919 0.0
H1230 H 0.20967 0.35247 0.14306 0.0
H1231 H 0.16039 0.36997 0.21971 0.0
H1232 H 0.16223 0.37193 0.11477 0.0
H1233 H 0.11228 0.36929 0.18584 0.0
H1234 H 0.17863 0.36167 0.19374 0.0
H1235 H 0.19122 0.34821 0.17014 0.0
C1236 C 0.19533 0.35583 0.14256 0.0
C1237 C 0.18758 0.36303 0.1268 0.0
C1238 C 0.16404 0.36269 0.19192 0.0
C1239 C 0.16649 0.35901 0.15803 0.0
C1240 C 0.1536 0.36766 0.20682 0.0
C1241 C 0.13484 0.37055 0.20487 0.0
C1242 C 0.15566 0.36064 0.17486 0.0
C1243 C 0.12675 0.3673 0.1879 0.0
C1244 C 0.18481 0.35358 0.15813 0.0
C1245 C 0.16883 0.36662 0.12673 0.0
N1246 N 0.13727 0.36283 0.17345 0.0
N1247 N 0.15899 0.36487 0.14223 0.0
H1248 H 0.82338 0.62835 0.88844 0.0
H1249 H 0.84393 0.62606 0.78242 0.0
H1250 H 0.78146 0.62489 0.84726 0.0
H1251 H 0.88548 0.62635 0.82405 0.0
H1252 H 0.82086 0.63101 0.80571 0.0
H1253 H 0.84613 0.63312 0.86482 0.0
C1254 C 0.81892 0.62879 0.87444 0.0
C1255 C 0.80051 0.62589 0.8698 0.0
C1256 C 0.83506 0.63019 0.80971 0.0
C1257 C 0.82655 0.63122 0.84267 0.0
C1258 C 0.84824 0.62738 0.79642 0.0
C1259 C 0.86664 0.62548 0.80132 0.0
C1260 C 0.84031 0.63107 0.82801 0.0
C1261 C 0.87144 0.62747 0.81966 0.0
C1262 C 0.83193 0.63151 0.86095 0.0
C1263 C 0.79552 0.62685 0.85145 0.0
N1264 N 0.85833 0.62996 0.83235 0.0
N1265 N 0.80851 0.62919 0.83852 0.0
H1266 H 0.34712 0.82767 0.77284 0.0
H1267 H 0.36358 0.81243 0.87691 0.0
H1268 H 0.36289 0.87045 0.81002 0.0
H1269 H 0.34634 0.77066 0.8392 0.0
H1270 H 0.35496 0.83545 0.85478 0.0
H1271 H 0.33835 0.8087 0.79848 0.0
C1272 C 0.3484 0.83319 0.78642 0.0
C1273 C 0.35615 0.85046 0.78937 0.0
C1274 C 0.35262 0.82126 0.85152 0.0
C1275 C 0.34655 0.8287 0.81883 0.0
C1276 C 0.35746 0.80811 0.8642 0.0
C1277 C 0.35614 0.78963 0.85964 0.0
C1278 C 0.34654 0.8158 0.83422 0.0
C1279 C 0.34801 0.78478 0.84307 0.0
C1280 C 0.34339 0.82236 0.80109 0.0
C1281 C 0.35721 0.85709 0.8072 0.0
N1282 N 0.34387 0.79778 0.83081 0.0
N1283 N 0.3529 0.84602 0.82131 0.0
H1284 H 0.16033 0.36127 0.88314 0.0
H1285 H 0.13819 0.3675 0.77756 0.0
H1286 H 0.2017 0.36543 0.84167 0.0
H1287 H 0.0972 0.36539 0.81953 0.0
H1288 H 0.16159 0.36178 0.80037 0.0
H1289 H 0.13716 0.35766 0.85961 0.0
C1290 C 0.16458 0.36123 0.86908 0.0
C1291 C 0.18296 0.36396 0.86436 0.0
C1292 C 0.14745 0.36237 0.80455 0.0
C1293 C 0.15644 0.35997 0.83733 0.0
C1294 C 0.13407 0.36563 0.79153 0.0
C1295 C 0.11572 0.36722 0.79668 0.0
C1296 C 0.14246 0.36074 0.82284 0.0
C1297 C 0.11119 0.36451 0.81496 0.0
C1298 C 0.15133 0.35917 0.85564 0.0
C1299 C 0.18767 0.36355 0.84593 0.0
N1300 N 0.12449 0.3616 0.8274 0.0
N1301 N 0.17446 0.36185 0.83307 0.0
H1302 H 0.63681 0.15779 0.77193 0.0
H1303 H 0.62426 0.17581 0.87633 0.0
H1304 H 0.62099 0.11623 0.81011 0.0
H1305 H 0.64149 0.21627 0.83755 0.0
H1306 H 0.63102 0.15209 0.85416 0.0
H1307 H 0.64654 0.17719 0.79707 0.0
C1308 C 0.63569 0.15263 0.78563 0.0
C1309 C 0.62771 0.13557 0.789 0.0
C1310 C 0.63376 0.16613 0.85066 0.0
C1311 C 0.63843 0.15785 0.8179 0.0
C1312 C 0.62998 0.17969 0.86335 0.0
C1313 C 0.63186 0.19804 0.85856 0.0
C1314 C 0.63935 0.17106 0.83311 0.0
C1315 C 0.63944 0.20229 0.84164 0.0
C1316 C 0.64126 0.16371 0.80001 0.0
C1317 C 0.62687 0.12942 0.80696 0.0
N1318 N 0.64256 0.18892 0.82939 0.0
N1319 N 0.63175 0.14073 0.8208 0.0
H1320 H 0.84379 0.35704 0.2141 0.0
H1321 H 0.77023 0.35223 0.15655 0.0
H1322 H 0.87713 0.36534 0.16659 0.0
H1323 H 0.80786 0.36969 0.11503 0.0
H1324 H 0.79582 0.34511 0.17605 0.0
H1325 H 0.81767 0.35114 0.19488 0.0
C1326 C 0.84567 0.35734 0.19954 0.0
C1327 C 0.86264 0.36201 0.19198 0.0
C1328 C 0.7987 0.35058 0.16279 0.0
C1329 C 0.83252 0.35499 0.16947 0.0
C1330 C 0.78396 0.35442 0.15152 0.0
C1331 C 0.78694 0.36193 0.13433 0.0
C1332 C 0.81656 0.35479 0.157 0.0
C1333 C 0.80496 0.36412 0.1283 0.0
C1334 C 0.83063 0.35381 0.18841 0.0
C1335 C 0.86426 0.36199 0.17303 0.0
N1336 N 0.81909 0.36092 0.13976 0.0
N1337 N 0.84933 0.35881 0.16245 0.0
H1338 H 0.62159 0.88226 0.18084 0.0
H1339 H 0.63447 0.78287 0.14105 0.0
H1340 H 0.62569 0.83377 0.2132 0.0
H1341 H 0.62329 0.82988 0.10824 0.0
H1342 H 0.63946 0.80272 0.16713 0.0
H1343 H 0.63038 0.86474 0.15409 0.0
C1344 C 0.62475 0.86803 0.1824 0.0
C1345 C 0.62255 0.85935 0.19917 0.0
C1346 C 0.63618 0.80874 0.15417 0.0
C1347 C 0.63243 0.83925 0.16868 0.0
C1348 C 0.63332 0.79739 0.13925 0.0
C1349 C 0.62803 0.80469 0.12252 0.0
C1350 C 0.63359 0.8275 0.15241 0.0
C1351 C 0.62707 0.82364 0.12095 0.0
C1352 C 0.62969 0.85802 0.16711 0.0
C1353 C 0.6269 0.84092 0.20045 0.0
N1354 N 0.6295 0.83438 0.13579 0.0
N1355 N 0.63138 0.83143 0.18535 0.0
H1356 H 0.14378 0.63665 0.21056 0.0
H1357 H 0.17984 0.62288 0.10992 0.0
H1358 H 0.10878 0.62438 0.16482 0.0
H1359 H 0.21445 0.62967 0.15695 0.0
H1360 H 0.15345 0.63091 0.12842 0.0
H1361 H 0.16922 0.64151 0.18982 0.0
C1362 C 0.14138 0.63519 0.19613 0.0
C1363 C 0.1242 0.62971 0.18945 0.0
C1364 C 0.16687 0.63097 0.1346 0.0
C1365 C 0.15335 0.63514 0.16561 0.0
C1366 C 0.18195 0.62647 0.12403 0.0
C1367 C 0.19929 0.62526 0.13202 0.0
C1368 C 0.16921 0.63425 0.15324 0.0
C1369 C 0.20126 0.63012 0.15032 0.0
C1370 C 0.15592 0.63799 0.18428 0.0
C1371 C 0.12185 0.62834 0.17059 0.0
N1372 N 0.18637 0.63415 0.16037 0.0
N1373 N 0.13634 0.63074 0.15934 0.0
H1374 H 0.35123 0.20985 0.1361 0.0
H1375 H 0.35928 0.11009 0.1755 0.0
H1376 H 0.36161 0.16242 0.10336 0.0
H1377 H 0.35522 0.15861 0.20812 0.0
H1378 H 0.35188 0.12787 0.1486 0.0
H1379 H 0.34447 0.19019 0.16179 0.0
C1380 C 0.35184 0.19528 0.13422 0.0
C1381 C 0.35743 0.18778 0.11766 0.0
C1382 C 0.35227 0.13455 0.1617 0.0
C1383 C 0.34984 0.16519 0.14711 0.0
C1384 C 0.35642 0.1244 0.17707 0.0
C1385 C 0.35827 0.133 0.19399 0.0
C1386 C 0.34998 0.15339 0.16332 0.0
C1387 C 0.35428 0.15152 0.19527 0.0
C1388 C 0.34797 0.18405 0.14892 0.0
C1389 C 0.35765 0.1688 0.11596 0.0
N1390 N 0.35061 0.16116 0.18009 0.0
N1391 N 0.35424 0.15815 0.13061 0.0
H1392 H 0.83018 0.76806 0.63439 0.0
H1393 H 0.81122 0.87246 0.62277 0.0
H1394 H 0.87146 0.80725 0.61862 0.0
H1395 H 0.77106 0.83244 0.63935 0.0
H1396 H 0.83531 0.85062 0.62885 0.0
H1397 H 0.81064 0.79278 0.64391 0.0
C1398 C 0.83523 0.78191 0.63321 0.0
C1399 C 0.85226 0.78567 0.62534 0.0
C1400 C 0.82126 0.84676 0.63157 0.0
C1401 C 0.82982 0.8141 0.63584 0.0
C1402 C 0.80751 0.85926 0.62817 0.0
C1403 C 0.78911 0.85406 0.63012 0.0
C1404 C 0.81649 0.829 0.63687 0.0
C1405 C 0.78507 0.83686 0.63726 0.0
C1406 C 0.82408 0.79604 0.63866 0.0
C1407 C 0.8583 0.80381 0.62442 0.0
N1408 N 0.79861 0.82484 0.64006 0.0
N1409 N 0.84691 0.81741 0.62921 0.0
H1410 H 0.8832 0.16854 0.36827 0.0
H1411 H 0.77742 0.1418 0.3734 0.0
H1412 H 0.84042 0.20766 0.37529 0.0
H1413 H 0.82088 0.10295 0.36993 0.0
H1414 H 0.79982 0.16634 0.36944 0.0
H1415 H 0.86011 0.14475 0.36427 0.0
C1416 C 0.86894 0.17217 0.36885 0.0
C1417 C 0.86375 0.1901 0.37238 0.0
C1418 C 0.80442 0.15243 0.36936 0.0
C1419 C 0.8372 0.16284 0.36786 0.0
C1420 C 0.79164 0.1384 0.37159 0.0
C1421 C 0.79731 0.12028 0.37226 0.0
C1422 C 0.823 0.14832 0.36781 0.0
C1423 C 0.81589 0.11671 0.36971 0.0
C1424 C 0.85575 0.15855 0.36654 0.0
C1425 C 0.84505 0.194 0.37276 0.0
N1426 N 0.82808 0.13062 0.36777 0.0
N1427 N 0.83244 0.18043 0.37072 0.0
H1428 H 0.7684 0.82688 0.35715 0.0
H1429 H 0.87627 0.82284 0.36455 0.0
H1430 H 0.80317 0.87414 0.36467 0.0
H1431 H 0.84088 0.77597 0.35714 0.0
H1432 H 0.85042 0.84247 0.35837 0.0
H1433 H 0.79527 0.80895 0.35043 0.0
C1434 C 0.78168 0.83356 0.35704 0.0
C1435 C 0.78362 0.85193 0.36183 0.0
C1436 C 0.84837 0.82789 0.35784 0.0
C1437 C 0.81447 0.83142 0.3545 0.0
C1438 C 0.86313 0.81666 0.36138 0.0
C1439 C 0.86065 0.79773 0.36175 0.0
C1440 C 0.83102 0.82011 0.35472 0.0
C1441 C 0.84337 0.79049 0.35734 0.0
C1442 C 0.79703 0.82331 0.35325 0.0
C1443 C 0.8011 0.85995 0.36125 0.0
N1444 N 0.82917 0.8017 0.35426 0.0
N1445 N 0.81591 0.84956 0.35803 0.0
H1446 H 0.14336 0.78135 0.37533 0.0
H1447 H 0.16447 0.88782 0.3693 0.0
H1448 H 0.10187 0.82233 0.3728 0.0
H1449 H 0.20622 0.84731 0.37405 0.0
H1450 H 0.14155 0.86365 0.3664 0.0
H1451 H 0.16668 0.80495 0.37091 0.0
C1452 C 0.13913 0.79528 0.37371 0.0
C1453 C 0.12063 0.79989 0.37467 0.0
C1454 C 0.15574 0.86004 0.36792 0.0
C1455 C 0.14726 0.82695 0.36963 0.0
C1456 C 0.16886 0.87385 0.36956 0.0
C1457 C 0.18728 0.8696 0.37217 0.0
C1458 C 0.16106 0.84183 0.36899 0.0
C1459 C 0.19216 0.85123 0.37223 0.0
C1460 C 0.15246 0.80875 0.37118 0.0
C1461 C 0.11597 0.81815 0.37235 0.0
N1462 N 0.17909 0.83802 0.37086 0.0
N1463 N 0.1292 0.83102 0.37007 0.0
H1464 H 0.17925 0.11033 0.36304 0.0
H1465 H 0.14152 0.21027 0.35253 0.0
H1466 H 0.21303 0.15827 0.35585 0.0
H1467 H 0.10776 0.16341 0.36499 0.0
H1468 H 0.16684 0.19021 0.34601 0.0
H1469 H 0.15233 0.12822 0.35592 0.0
C1470 C 0.18105 0.12452 0.35955 0.0
C1471 C 0.19833 0.13295 0.36043 0.0
C1472 C 0.15383 0.18428 0.34993 0.0
C1473 C 0.16765 0.15348 0.35247 0.0
C1474 C 0.13935 0.19574 0.35368 0.0
C1475 C 0.12261 0.18853 0.35973 0.0
C1476 C 0.15162 0.16548 0.3524 0.0
C1477 C 0.12052 0.16958 0.36065 0.0
C1478 C 0.16567 0.13474 0.35556 0.0
C1479 C 0.1999 0.15132 0.35566 0.0
N1480 N 0.13496 0.15871 0.35733 0.0
N1481 N 0.18472 0.16104 0.35217 0.0
H1482 H 0.21804 0.15802 0.63983 0.0
H1483 H 0.11584 0.18571 0.61987 0.0
H1484 H 0.17643 0.12047 0.62082 0.0
H1485 H 0.16044 0.22309 0.63081 0.0
H1486 H 0.13523 0.16055 0.62923 0.0
H1487 H 0.19453 0.18019 0.6462 0.0
C1488 C 0.20388 0.1543 0.63737 0.0
C1489 C 0.19918 0.13759 0.62937 0.0
C1490 C 0.14062 0.1743 0.62994 0.0
C1491 C 0.17225 0.16304 0.63622 0.0
C1492 C 0.12956 0.18866 0.62465 0.0
C1493 C 0.13673 0.20642 0.62419 0.0
C1494 C 0.15887 0.17785 0.63485 0.0
C1495 C 0.15452 0.20954 0.6306 0.0
C1496 C 0.19046 0.16698 0.64096 0.0
C1497 C 0.18063 0.13333 0.62676 0.0
N1498 N 0.16506 0.19536 0.63543 0.0
N1499 N 0.16783 0.14617 0.62976 0.0
H1500 H 0.82468 0.10439 0.62789 0.0
H1501 H 0.84798 0.21025 0.62128 0.0
H1502 H 0.7839 0.14556 0.62104 0.0
H1503 H 0.88847 0.16834 0.62433 0.0
H1504 H 0.82414 0.18731 0.62634 0.0
H1505 H 0.84782 0.12816 0.63192 0.0
C1506 C 0.82054 0.11844 0.62742 0.0
C1507 C 0.80235 0.12298 0.62382 0.0
C1508 C 0.83826 0.18317 0.62609 0.0
C1509 C 0.82886 0.1503 0.6283 0.0
C1510 C 0.85189 0.19626 0.62321 0.0
C1511 C 0.87025 0.19117 0.62209 0.0
C1512 C 0.84301 0.16487 0.62784 0.0
C1513 C 0.8745 0.17287 0.62486 0.0
C1514 C 0.83378 0.13202 0.62972 0.0
C1515 C 0.79778 0.14142 0.6236 0.0
N1516 N 0.86096 0.16037 0.62742 0.0
N1517 N 0.811 0.15442 0.62557 0.0
H1518 H 0.20419 0.84558 0.62 0.0
H1519 H 0.09787 0.82101 0.62524 0.0
H1520 H 0.16155 0.88536 0.62262 0.0
H1521 H 0.13996 0.78091 0.61993 0.0
H1522 H 0.12139 0.84448 0.62887 0.0
H1523 H 0.18128 0.82158 0.62446 0.0
C1524 C 0.19005 0.8493 0.6217 0.0
C1525 C 0.18476 0.86751 0.62067 0.0
C1526 C 0.1255 0.83053 0.62707 0.0
C1527 C 0.15848 0.84009 0.62572 0.0
C1528 C 0.11206 0.81709 0.625 0.0
C1529 C 0.11694 0.79898 0.62201 0.0
C1530 C 0.14398 0.82586 0.62605 0.0
C1531 C 0.13556 0.79472 0.62203 0.0
C1532 C 0.17697 0.83557 0.62423 0.0
C1533 C 0.16625 0.87151 0.62311 0.0
N1534 N 0.14841 0.8081 0.62381 0.0
N1535 N 0.15377 0.8579 0.62535 0.0
H1536 H 0.11939 0.25131 0.43982 0.0
H1537 H 0.09389 0.21297 0.53806 0.0
H1538 H 0.08037 0.20785 0.44927 0.0
H1539 H 0.12881 0.25989 0.52954 0.0
H1540 H 0.09145 0.20894 0.50532 0.0
H1541 H 0.12552 0.25274 0.47237 0.0
C1542 C 0.11218 0.24199 0.4487 0.0
C1543 C 0.09924 0.22952 0.44178 0.0
C1544 C 0.09973 0.22007 0.51058 0.0
C1545 C 0.10621 0.23111 0.47906 0.0
C1546 C 0.10115 0.22237 0.52929 0.0
C1547 C 0.11146 0.23688 0.53653 0.0
C1548 C 0.10865 0.23238 0.49898 0.0
C1549 C 0.12065 0.24857 0.52452 0.0
C1550 C 0.11568 0.24284 0.46729 0.0
C1551 C 0.09036 0.21777 0.45397 0.0
N1552 N 0.11894 0.24612 0.50632 0.0
N1553 N 0.09397 0.2189 0.472 0.0
H1554 H 0.78441 0.0782 0.54195 0.0
H1555 H 0.7331 0.10986 0.45185 0.0
H1556 H 0.73592 0.11079 0.54327 0.0
H1557 H 0.78052 0.07575 0.45319 0.0
H1558 H 0.73495 0.11288 0.48497 0.0
H1559 H 0.78437 0.07986 0.50912 0.0
C1560 C 0.77375 0.08579 0.53533 0.0
C1561 C 0.76003 0.09421 0.5454 0.0
C1562 C 0.74498 0.10483 0.47795 0.0
C1563 C 0.75983 0.09609 0.50755 0.0
C1564 C 0.74395 0.10312 0.45906 0.0
C1565 C 0.75657 0.09239 0.44973 0.0
C1566 C 0.75877 0.09581 0.48747 0.0
C1567 C 0.77036 0.084 0.45976 0.0
C1568 C 0.77374 0.08674 0.51652 0.0
C1569 C 0.74672 0.10403 0.53602 0.0
N1570 N 0.77102 0.08584 0.47803 0.0
N1571 N 0.74685 0.10457 0.51757 0.0
H1572 H 0.90652 0.78036 0.44848 0.0
H1573 H 0.85828 0.73 0.53187 0.0
H1574 H 0.86764 0.73613 0.44211 0.0
H1575 H 0.8947 0.77629 0.53757 0.0
H1576 H 0.86027 0.73289 0.49891 0.0
H1577 H 0.90124 0.77987 0.48109 0.0
C1578 C 0.89682 0.77057 0.45392 0.0
C1579 C 0.88759 0.75819 0.44252 0.0
C1580 C 0.86773 0.74249 0.50738 0.0
C1581 C 0.88151 0.75753 0.47994 0.0
C1582 C 0.86658 0.74085 0.52619 0.0
C1583 C 0.87644 0.75285 0.53747 0.0
C1584 C 0.87887 0.75617 0.49981 0.0
C1585 C 0.88695 0.76668 0.52939 0.0
C1586 C 0.89379 0.77032 0.47257 0.0
C1587 C 0.87511 0.74589 0.45036 0.0
N1588 N 0.88797 0.76789 0.51106 0.0
N1589 N 0.87251 0.7458 0.4686 0.0
H1590 H 0.20766 0.918 0.45041 0.0
H1591 H 0.25059 0.87911 0.5419 0.0
H1592 H 0.25255 0.88064 0.4505 0.0
H1593 H 0.20585 0.91654 0.5393 0.0
H1594 H 0.2508 0.87775 0.50866 0.0
H1595 H 0.2061 0.9159 0.48314 0.0
C1596 C 0.21721 0.90931 0.45731 0.0
C1597 C 0.23035 0.89958 0.44765 0.0
C1598 C 0.2409 0.88616 0.51542 0.0
C1599 C 0.22865 0.89713 0.48543 0.0
C1600 C 0.24075 0.88693 0.53438 0.0
C1601 C 0.22827 0.89806 0.54342 0.0
C1602 C 0.22846 0.89657 0.50551 0.0
C1603 C 0.21582 0.90788 0.53298 0.0
C1604 C 0.21629 0.90809 0.47607 0.0
C1605 C 0.24223 0.88842 0.45741 0.0
N1606 N 0.2163 0.90695 0.51465 0.0
N1607 N 0.24117 0.88757 0.47582 0.0
H1608 H 0.06661 0.77622 0.54205 0.0
H1609 H 0.10909 0.73377 0.45178 0.0
H1610 H 0.10717 0.73426 0.5431 0.0
H1611 H 0.06736 0.77456 0.45294 0.0
H1612 H 0.11002 0.73445 0.48503 0.0
H1613 H 0.06827 0.7766 0.50921 0.0
C1614 C 0.07592 0.76708 0.53538 0.0
C1615 C 0.08669 0.7551 0.5454 0.0
C1616 C 0.10071 0.74326 0.47795 0.0
C1617 C 0.08861 0.75543 0.50754 0.0
C1618 C 0.10017 0.74289 0.45899 0.0
C1619 C 0.08806 0.75406 0.44953 0.0
C1620 C 0.08909 0.75492 0.48745 0.0
C1621 C 0.07685 0.76563 0.45958 0.0
C1622 C 0.07686 0.76731 0.51656 0.0
C1623 C 0.09858 0.74369 0.53593 0.0
N1624 N 0.07763 0.76571 0.47794 0.0
N1625 N 0.09917 0.74407 0.51749 0.0
H1626 H 0.25386 0.13743 0.44992 0.0
H1627 H 0.20752 0.0989 0.54019 0.0
H1628 H 0.20955 0.09811 0.44988 0.0
H1629 H 0.25403 0.13559 0.53962 0.0
H1630 H 0.20557 0.1012 0.50719 0.0
H1631 H 0.25155 0.13975 0.4828 0.0
C1632 C 0.24355 0.12939 0.45682 0.0
C1633 C 0.23203 0.11742 0.4472 0.0
C1634 C 0.21612 0.10885 0.5143 0.0
C1635 C 0.22935 0.11992 0.48486 0.0
C1636 C 0.21723 0.10756 0.53314 0.0
C1637 C 0.23108 0.11693 0.54262 0.0
C1638 C 0.22895 0.11959 0.50492 0.0
C1639 C 0.24323 0.12802 0.53282 0.0
C1640 C 0.24224 0.1307 0.47561 0.0
C1641 C 0.21882 0.10742 0.45683 0.0
N1642 N 0.24195 0.12894 0.51449 0.0
N1643 N 0.21794 0.10878 0.47517 0.0
H1644 H 0.92009 0.21177 0.53929 0.0
H1645 H 0.87593 0.25554 0.45053 0.0
H1646 H 0.87975 0.25387 0.54171 0.0
H1647 H 0.91804 0.21512 0.45015 0.0
H1648 H 0.87562 0.2543 0.48375 0.0
H1649 H 0.91785 0.21185 0.50644 0.0
C1650 C 0.9107 0.22102 0.53292 0.0
C1651 C 0.90017 0.23291 0.54332 0.0
C1652 C 0.88487 0.24569 0.47634 0.0
C1653 C 0.89758 0.23312 0.50548 0.0
C1654 C 0.88506 0.24639 0.45739 0.0
C1655 C 0.89709 0.23548 0.44751 0.0
C1656 C 0.89676 0.23398 0.48542 0.0
C1657 C 0.90859 0.22386 0.45714 0.0
C1658 C 0.90943 0.22107 0.51411 0.0
C1659 C 0.88816 0.2445 0.53424 0.0
N1660 N 0.90815 0.22345 0.4755 0.0
N1661 N 0.88725 0.24438 0.51581 0.0
H1662 H 0.77574 0.88794 0.44955 0.0
H1663 H 0.73207 0.8519 0.54207 0.0
H1664 H 0.72906 0.85158 0.45232 0.0
H1665 H 0.77814 0.88906 0.53977 0.0
H1666 H 0.73295 0.84901 0.50914 0.0
H1667 H 0.77898 0.88598 0.48247 0.0
C1668 C 0.76626 0.87943 0.45707 0.0
C1669 C 0.75199 0.87005 0.44822 0.0
C1670 C 0.74297 0.85769 0.51583 0.0
C1671 C 0.75558 0.86779 0.48585 0.0
C1672 C 0.74247 0.85933 0.53464 0.0
C1673 C 0.75493 0.87088 0.54364 0.0
C1674 C 0.75596 0.86773 0.50592 0.0
C1675 C 0.76819 0.8801 0.53335 0.0
C1676 C 0.76812 0.87832 0.47586 0.0
C1677 C 0.74018 0.85915 0.45861 0.0
N1678 N 0.76826 0.87845 0.515 0.0
N1679 N 0.74215 0.85843 0.47689 0.0
H1680 H 0.44798 0.09763 0.20368 0.0
H1681 H 0.53971 0.13596 0.24947 0.0
H1682 H 0.44945 0.1358 0.24821 0.0
H1683 H 0.53885 0.09664 0.20595 0.0
H1684 H 0.50671 0.13885 0.24657 0.0
H1685 H 0.48126 0.09981 0.2017 0.0
C1686 C 0.45528 0.10659 0.21291 0.0
C1687 C 0.44597 0.11638 0.22627 0.0
C1688 C 0.51374 0.12969 0.23754 0.0
C1689 C 0.48398 0.11891 0.22413 0.0
C1690 C 0.53259 0.12804 0.23919 0.0
C1691 C 0.542 0.11588 0.22807 0.0
C1692 C 0.50419 0.11903 0.22474 0.0
C1693 C 0.5321 0.10607 0.21489 0.0
C1694 C 0.47428 0.10783 0.21179 0.0
C1695 C 0.4561 0.12787 0.23782 0.0
N1696 N 0.51369 0.10773 0.2137 0.0
N1697 N 0.47456 0.1287 0.23658 0.0
H1698 H 0.91581 0.5367 0.21405 0.0
H1699 H 0.87507 0.44403 0.2545 0.0
H1700 H 0.87655 0.53542 0.25765 0.0
H1701 H 0.91262 0.44748 0.20954 0.0
H1702 H 0.87406 0.47728 0.25533 0.0
H1703 H 0.91361 0.50386 0.21182 0.0
C1704 C 0.90669 0.52952 0.22319 0.0
C1705 C 0.89643 0.53888 0.23615 0.0
C1706 C 0.88241 0.47071 0.24523 0.0
C1707 C 0.89384 0.50101 0.23363 0.0
C1708 C 0.88298 0.45174 0.24472 0.0
C1709 C 0.89405 0.44292 0.23201 0.0
C1710 C 0.89301 0.48089 0.23296 0.0
C1711 C 0.90399 0.45362 0.21967 0.0
C1712 C 0.90541 0.5107 0.22187 0.0
C1713 C 0.88476 0.52876 0.2475 0.0
N1714 N 0.90328 0.47199 0.22052 0.0
N1715 N 0.88385 0.51033 0.24604 0.0
H1716 H 0.53412 0.89493 0.20463 0.0
H1717 H 0.43665 0.86927 0.24689 0.0
H1718 H 0.52711 0.8607 0.25158 0.0
H1719 H 0.44473 0.90667 0.20253 0.0
H1720 H 0.46937 0.86317 0.24678 0.0
H1721 H 0.50102 0.89635 0.20149 0.0
C1722 C 0.5256 0.88757 0.21419 0.0
C1723 C 0.53336 0.87784 0.22851 0.0
C1724 C 0.46394 0.87263 0.23701 0.0
C1725 C 0.49544 0.8795 0.22506 0.0
C1726 C 0.44526 0.87612 0.23706 0.0
C1727 C 0.43794 0.88863 0.2248 0.0
C1728 C 0.47537 0.88169 0.22461 0.0
C1729 C 0.44976 0.89703 0.21234 0.0
C1730 C 0.50669 0.88841 0.21241 0.0
C1731 C 0.52168 0.86846 0.24041 0.0
N1732 N 0.46788 0.89347 0.21263 0.0
N1733 N 0.50328 0.86965 0.23851 0.0
H1734 H 0.07808 0.54353 0.21025 0.0
H1735 H 0.12541 0.4615 0.26218 0.0
H1736 H 0.11717 0.55128 0.25361 0.0
H1737 H 0.08945 0.45459 0.21615 0.0
H1738 H 0.12359 0.49445 0.25864 0.0
H1739 H 0.083 0.51092 0.21162 0.0
C1740 C 0.08775 0.5384 0.22003 0.0
C1741 C 0.09714 0.55018 0.23191 0.0
C1742 C 0.11619 0.48571 0.24925 0.0
C1743 C 0.10282 0.51276 0.23358 0.0
C1744 C 0.11723 0.46691 0.25127 0.0
C1745 C 0.10747 0.4553 0.23952 0.0
C1746 C 0.10527 0.49292 0.23543 0.0
C1747 C 0.09713 0.46303 0.22558 0.0
C1748 C 0.09058 0.51975 0.22079 0.0
C1749 C 0.10958 0.54271 0.24422 0.0
N1750 N 0.09622 0.48135 0.224 0.0
N1751 N 0.11198 0.52446 0.24481 0.0
H1752 H 0.44962 0.85086 0.73556 0.0
H1753 H 0.53686 0.8912 0.78797 0.0
H1754 H 0.44627 0.88643 0.78201 0.0
H1755 H 0.53989 0.85556 0.74154 0.0
H1756 H 0.50368 0.88702 0.7881 0.0
H1757 H 0.48269 0.84986 0.73956 0.0
C1758 C 0.45583 0.85835 0.74669 0.0
C1759 C 0.44521 0.86889 0.75836 0.0
C1760 C 0.51162 0.87998 0.77799 0.0
C1761 C 0.48306 0.86789 0.76297 0.0
C1762 C 0.53056 0.88235 0.77792 0.0
C1763 C 0.54111 0.87388 0.76459 0.0
C1764 C 0.5032 0.86911 0.7646 0.0
C1765 C 0.53226 0.86248 0.75197 0.0
C1766 C 0.47472 0.85778 0.74897 0.0
C1767 C 0.45397 0.87824 0.77261 0.0
N1768 N 0.51381 0.86056 0.75218 0.0
N1769 N 0.4724 0.87764 0.77443 0.0
H1770 H 0.06938 0.45062 0.7788 0.0
H1771 H 0.11234 0.54078 0.73488 0.0
H1772 H 0.10815 0.44937 0.73481 0.0
H1773 H 0.07313 0.53994 0.77852 0.0
H1774 H 0.11263 0.50748 0.73544 0.0
H1775 H 0.0723 0.48348 0.77974 0.0
C1776 C 0.07857 0.45725 0.76934 0.0
C1777 C 0.08844 0.44717 0.75662 0.0
C1778 C 0.10404 0.51464 0.74492 0.0
C1779 C 0.09181 0.48506 0.75759 0.0
C1780 C 0.10387 0.53363 0.74462 0.0
C1781 C 0.0926 0.5432 0.75659 0.0
C1782 C 0.09289 0.50519 0.75729 0.0
C1783 C 0.08195 0.53321 0.76894 0.0
C1784 C 0.08024 0.47608 0.7699 0.0
C1785 C 0.10024 0.45659 0.74482 0.0
N1786 N 0.08232 0.51481 0.76891 0.0
N1787 N 0.10152 0.47504 0.74551 0.0
H1788 H 0.44988 0.08336 0.78865 0.0
H1789 H 0.5318 0.12912 0.73301 0.0
H1790 H 0.4415 0.11605 0.74094 0.0
H1791 H 0.53856 0.09968 0.78302 0.0
H1792 H 0.49861 0.12645 0.73655 0.0
H1793 H 0.48231 0.09099 0.78764 0.0
C1794 C 0.45484 0.09222 0.77799 0.0
C1795 C 0.44294 0.09895 0.76477 0.0
C1796 C 0.50738 0.12074 0.74682 0.0
C1797 C 0.4802 0.10771 0.76348 0.0
C1798 C 0.52631 0.12229 0.74483 0.0
C1799 C 0.53795 0.11447 0.75766 0.0
C1800 C 0.5001 0.11126 0.76172 0.0
C1801 C 0.53012 0.10578 0.77271 0.0
C1802 C 0.47339 0.09661 0.77744 0.0
C1803 C 0.45017 0.1105 0.75138 0.0
N1804 N 0.51171 0.1043 0.77424 0.0
N1805 N 0.46837 0.11439 0.75098 0.0
H1806 H 0.91066 0.54072 0.77827 0.0
H1807 H 0.8583 0.45809 0.72927 0.0
H1808 H 0.8705 0.54796 0.73607 0.0
H1809 H 0.89469 0.45185 0.77486 0.0
H1810 H 0.86179 0.49108 0.732 0.0
H1811 H 0.9044 0.50813 0.77755 0.0
C1812 C 0.9005 0.53547 0.76886 0.0
C1813 C 0.89116 0.54712 0.75715 0.0
C1814 C 0.86891 0.48249 0.74148 0.0
C1815 C 0.88392 0.50973 0.75624 0.0
C1816 C 0.86691 0.46366 0.73993 0.0
C1817 C 0.8763 0.45222 0.75178 0.0
C1818 C 0.88046 0.48989 0.75491 0.0
C1819 C 0.88725 0.46016 0.76537 0.0
C1820 C 0.89689 0.51684 0.76849 0.0
C1821 C 0.87806 0.53951 0.74532 0.0
N1822 N 0.88911 0.47849 0.76649 0.0
N1823 N 0.8749 0.52128 0.7451 0.0
H1824 H 0.25247 0.53223 0.13024 0.0
H1825 H 0.20421 0.44753 0.0808 0.0
H1826 H 0.20644 0.53655 0.09396 0.0
H1827 H 0.2492 0.44238 0.11829 0.0
H1828 H 0.20372 0.48001 0.08703 0.0
H1829 H 0.25014 0.49915 0.12791 0.0
C1830 C 0.24175 0.52622 0.12195 0.0
C1831 C 0.22973 0.53715 0.11214 0.0
C1832 C 0.21366 0.47178 0.09396 0.0
C1833 C 0.22709 0.49936 0.1093 0.0
C1834 C 0.21399 0.45321 0.09037 0.0
C1835 C 0.22686 0.4422 0.09894 0.0
C1836 C 0.22634 0.47948 0.10615 0.0
C1837 C 0.23909 0.45035 0.11131 0.0
C1838 C 0.24046 0.50734 0.12059 0.0
C1839 C 0.21607 0.52865 0.10165 0.0
N1840 N 0.23859 0.46852 0.11447 0.0
N1841 N 0.21522 0.51026 0.10039 0.0
H1842 H 0.25664 0.5313 0.86277 0.0
H1843 H 0.20617 0.44717 0.91021 0.0
H1844 H 0.20986 0.53615 0.89785 0.0
H1845 H 0.24958 0.4411 0.87122 0.0
H1846 H 0.20685 0.4798 0.90499 0.0
H1847 H 0.25364 0.49822 0.86455 0.0
C1848 C 0.24564 0.52541 0.8707 0.0
C1849 C 0.23357 0.53648 0.88029 0.0
C1850 C 0.21618 0.47134 0.8975 0.0
C1851 C 0.23014 0.49872 0.8825 0.0
C1852 C 0.21584 0.45268 0.90052 0.0
C1853 C 0.22791 0.44136 0.89122 0.0
C1854 C 0.22876 0.47882 0.88517 0.0
C1855 C 0.24005 0.44931 0.87874 0.0
C1856 C 0.24395 0.50653 0.87174 0.0
C1857 C 0.21955 0.52814 0.89033 0.0
N1858 N 0.24024 0.46757 0.87615 0.0
N1859 N 0.21831 0.50977 0.89127 0.0
H1860 H 0.44757 0.21026 0.88886 0.0
H1861 H 0.54208 0.25095 0.85222 0.0
H1862 H 0.45186 0.2562 0.85284 0.0
H1863 H 0.53813 0.20555 0.88893 0.0
H1864 H 0.5089 0.25067 0.84938 0.0
H1865 H 0.48049 0.20611 0.88637 0.0
C1866 C 0.45543 0.21941 0.88033 0.0
C1867 C 0.44701 0.23372 0.87119 0.0
C1868 C 0.51527 0.24066 0.85793 0.0
C1869 C 0.48466 0.22906 0.8683 0.0
C1870 C 0.53423 0.24079 0.85953 0.0
C1871 C 0.54284 0.2284 0.87101 0.0
C1872 C 0.50484 0.2281 0.86795 0.0
C1873 C 0.53202 0.21544 0.88005 0.0
C1874 C 0.47421 0.21702 0.8789 0.0
C1875 C 0.45781 0.24507 0.86023 0.0
N1876 N 0.51355 0.21575 0.87848 0.0
N1877 N 0.47611 0.24258 0.8592 0.0
H1878 H 0.78144 0.54177 0.91202 0.0
H1879 H 0.73546 0.45607 0.86245 0.0
H1880 H 0.73716 0.54618 0.87362 0.0
H1881 H 0.78312 0.45318 0.89677 0.0
H1882 H 0.73669 0.48919 0.86496 0.0
H1883 H 0.78287 0.50939 0.90555 0.0
C1884 C 0.77201 0.53594 0.9022 0.0
C1885 C 0.75907 0.54672 0.89345 0.0
C1886 C 0.74697 0.48131 0.8718 0.0
C1887 C 0.76065 0.50953 0.88595 0.0
C1888 C 0.7463 0.46241 0.87034 0.0
C1889 C 0.75911 0.45185 0.87955 0.0
C1890 C 0.7605 0.48968 0.88262 0.0
C1891 C 0.77289 0.46077 0.88955 0.0
C1892 C 0.77288 0.51743 0.89846 0.0
C1893 C 0.74731 0.53839 0.88075 0.0
N1894 N 0.77312 0.47915 0.89094 0.0
N1895 N 0.74831 0.52026 0.87746 0.0
H1896 H 0.44885 0.74181 0.85202 0.0
H1897 H 0.54212 0.78486 0.88998 0.0
H1898 H 0.45128 0.78606 0.8905 0.0
H1899 H 0.53906 0.73894 0.85354 0.0
H1900 H 0.50907 0.78817 0.88732 0.0
H1901 H 0.482 0.74341 0.84922 0.0
C1902 C 0.45635 0.75201 0.85974 0.0
C1903 C 0.44733 0.76367 0.87169 0.0
C1904 C 0.51565 0.77746 0.87979 0.0
C1905 C 0.48531 0.76547 0.86867 0.0
C1906 C 0.53451 0.77556 0.8813 0.0
C1907 C 0.54331 0.76147 0.87212 0.0
C1908 C 0.50552 0.76516 0.86904 0.0
C1909 C 0.53281 0.74989 0.86098 0.0
C1910 C 0.47529 0.75289 0.85816 0.0
C1911 C 0.45771 0.77671 0.88124 0.0
N1912 N 0.51445 0.75192 0.85986 0.0
N1913 N 0.4762 0.77713 0.87967 0.0
H1914 H 0.73051 0.54365 0.12114 0.0
H1915 H 0.77857 0.44968 0.09741 0.0
H1916 H 0.77429 0.53799 0.08249 0.0
H1917 H 0.73002 0.45319 0.13022 0.0
H1918 H 0.77936 0.48268 0.09498 0.0
H1919 H 0.73195 0.51107 0.12732 0.0
C1920 C 0.74043 0.53559 0.11397 0.0
C1921 C 0.75222 0.54356 0.10119 0.0
C1922 C 0.76859 0.47626 0.10281 0.0
C1923 C 0.75401 0.50636 0.1083 0.0
C1924 C 0.76817 0.45742 0.10426 0.0
C1925 C 0.7541 0.44868 0.11389 0.0
C1926 C 0.75484 0.48648 0.11103 0.0
C1927 C 0.74105 0.45939 0.12258 0.0
C1928 C 0.74125 0.517 0.11752 0.0
C1929 C 0.76483 0.53245 0.09236 0.0
N1930 N 0.74165 0.47776 0.12084 0.0
N1931 N 0.76537 0.51444 0.09607 0.0
H1932 H 0.54012 0.7876 0.08223 0.0
H1933 H 0.45704 0.73445 0.1291 0.0
H1934 H 0.5473 0.74167 0.11766 0.0
H1935 H 0.45106 0.78252 0.09642 0.0
H1936 H 0.49024 0.73798 0.12699 0.0
H1937 H 0.50759 0.78695 0.08896 0.0
C1938 C 0.53488 0.7774 0.09149 0.0
C1939 C 0.54647 0.76457 0.09927 0.0
C1940 C 0.48165 0.74785 0.12043 0.0
C1941 C 0.50912 0.76373 0.10702 0.0
C1942 C 0.46271 0.74586 0.12166 0.0
C1943 C 0.45128 0.75811 0.11278 0.0
C1944 C 0.48918 0.76215 0.11019 0.0
C1945 C 0.45935 0.77266 0.10336 0.0
C1946 C 0.51628 0.77707 0.09536 0.0
C1947 C 0.53888 0.75178 0.11128 0.0
N1948 N 0.47779 0.77419 0.10219 0.0
N1949 N 0.52065 0.7516 0.11468 0.0
H1950 H 0.53136 0.2491 0.1302 0.0
H1951 H 0.44655 0.20084 0.08071 0.0
H1952 H 0.53527 0.20053 0.09762 0.0
H1953 H 0.44125 0.24719 0.11622 0.0
H1954 H 0.4788 0.19945 0.08852 0.0
H1955 H 0.4981 0.24739 0.12732 0.0
C1956 C 0.52522 0.23795 0.12264 0.0
C1957 C 0.5361 0.22503 0.11397 0.0
C1958 C 0.47059 0.20987 0.0947 0.0
C1959 C 0.49812 0.2231 0.11048 0.0
C1960 C 0.45214 0.21071 0.09021 0.0
C1961 C 0.44117 0.22426 0.0977 0.0
C1962 C 0.47823 0.22274 0.1067 0.0
C1963 C 0.44919 0.23656 0.11005 0.0
C1964 C 0.50623 0.23701 0.12096 0.0
C1965 C 0.52742 0.21086 0.10439 0.0
N1966 N 0.46728 0.2356 0.11406 0.0
N1967 N 0.50896 0.21038 0.10277 0.0
H1968 H 0.62966 0.7613 0.0328 0.0
H1969 H 0.58009 0.7116 0.94928 0.0
H1970 H 0.59336 0.71494 0.03831 0.0
H1971 H 0.61981 0.75504 0.94302 0.0
H1972 H 0.58567 0.71198 0.98188 0.0
H1973 H 0.62729 0.7585 -0.00017 0.0
C1974 C 0.6213 0.75045 0.02708 0.0
C1975 C 0.61159 0.73841 0.03831 0.0
C1976 C 0.59324 0.72138 0.97337 0.0
C1977 C 0.60873 0.7352 0.00063 0.0
C1978 C 0.59003 0.72119 0.95474 0.0
C1979 C 0.59941 0.73338 0.94337 0.0
C1980 C 0.60585 0.73391 0.98077 0.0
C1981 C 0.61222 0.74543 0.95124 0.0
C1982 C 0.61994 0.74887 0.00825 0.0
C1983 C 0.60101 0.72458 0.03017 0.0
N1984 N 0.61498 0.74546 0.96947 0.0
N1985 N 0.59976 0.72344 0.01183 0.0
H1986 H 0.2371 0.60899 0.95011 0.0
H1987 H 0.28251 0.57196 0.04122 0.0
H1988 H 0.2832 0.57319 0.95232 0.0
H1989 H 0.23661 0.60808 0.04155 0.0
H1990 H 0.28374 0.57417 0.00845 0.0
H1991 H 0.23746 0.61073 0.98335 0.0
C1992 C 0.24735 0.60162 0.95754 0.0
C1993 C 0.26004 0.59081 0.9484 0.0
C1994 C 0.27341 0.58169 0.01562 0.0
C1995 C 0.26051 0.59273 0.98629 0.0
C1996 C 0.27268 0.58042 0.0344 0.0
C1997 C 0.25934 0.58973 0.04418 0.0
C1998 C 0.26064 0.59229 0.00639 0.0
C1999 C 0.2471 0.60062 0.03454 0.0
C2000 C 0.24753 0.6026 0.97649 0.0
C2001 C 0.27303 0.58157 0.95872 0.0
N2002 N 0.24795 0.6015 0.01612 0.0
N2003 N 0.27286 0.5827 0.97705 0.0
H2004 H 0.35908 0.23183 0.02917 0.0
H2005 H 0.40777 0.2837 0.94695 0.0
H2006 H 0.39582 0.27773 0.03592 0.0
H2007 H 0.36894 0.23956 0.93963 0.0
H2008 H 0.40225 0.28269 0.97952 0.0
H2009 H 0.36111 0.23545 -0.00371 0.0
C2010 C 0.36747 0.24274 0.02374 0.0
C2011 C 0.3774 0.25441 0.03529 0.0
C2012 C 0.39485 0.27328 0.97079 0.0
C2013 C 0.37986 0.25858 -0.00229 0.0
C2014 C 0.39802 0.27384 0.95217 0.0
C2015 C 0.3889 0.26161 0.94052 0.0
C2016 C 0.38255 0.26035 0.97788 0.0
C2017 C 0.37634 0.24921 0.94808 0.0
C2018 C 0.36863 0.2448 0.00497 0.0
C2019 C 0.38801 0.26836 0.02752 0.0
N2020 N 0.37362 0.24882 0.96629 0.0
N2021 N 0.38905 0.26997 0.00922 0.0
H2022 H 0.75203 0.37763 0.04281 0.0
H2023 H 0.70944 0.4177 0.95165 0.0
H2024 H 0.70726 0.41504 0.04044 0.0
H2025 H 0.75444 0.38047 0.95135 0.0
H2026 H 0.70785 0.41522 0.98434 0.0
H2027 H 0.7525 0.37679 0.00954 0.0
C2028 C 0.74224 0.38556 0.03533 0.0
C2029 C 0.72967 0.39652 0.04445 0.0
C2030 C 0.71808 0.40753 0.97721 0.0
C2031 C 0.73016 0.39564 0.00652 0.0
C2032 C 0.71902 0.40896 0.95846 0.0
C2033 C 0.73219 0.39937 0.94869 0.0
C2034 C 0.73044 0.39649 0.98645 0.0
C2035 C 0.7441 0.38815 0.95834 0.0
C2036 C 0.74254 0.38509 0.01636 0.0
C2037 C 0.7173 0.4065 0.03407 0.0
N2038 N 0.74302 0.38708 0.97674 0.0
N2039 N 0.71792 0.40585 0.01573 0.0
H2040 H 0.61064 0.2315 0.95065 0.0
H2041 H 0.56586 0.27246 0.04051 0.0
H2042 H 0.56797 0.27133 0.95142 0.0
H2043 H 0.6075 0.23158 0.04198 0.0
H2044 H 0.5677 0.27275 0.00769 0.0
H2045 H 0.61085 0.23178 0.98391 0.0
C2046 C 0.60136 0.24031 0.95777 0.0
C2047 C 0.58922 0.25136 0.9482 0.0
C2048 C 0.57648 0.26371 0.01513 0.0
C2049 C 0.58942 0.25175 0.98614 0.0
C2050 C 0.57544 0.26353 0.03394 0.0
C2051 C 0.58648 0.25191 0.04407 0.0
C2052 C 0.58864 0.25216 0.00622 0.0
C2053 C 0.5987 0.24073 0.03472 0.0
C2054 C 0.60149 0.24046 0.97674 0.0
C2055 C 0.57752 0.26252 0.95815 0.0
N2056 N 0.59941 0.24109 0.01628 0.0
N2057 N 0.57792 0.2624 0.97651 0.0
H2058 H 0.74966 0.63689 0.04354 0.0
H2059 H 0.70694 0.59747 0.95154 0.0
H2060 H 0.7056 0.59734 0.04194 0.0
H2061 H 0.75149 0.63643 0.95397 0.0
H2062 H 0.70382 0.59966 0.98448 0.0
H2063 H 0.74803 0.63942 0.01065 0.0
C2064 C 0.73953 0.62884 0.03627 0.0
C2065 C 0.72788 0.61673 0.04545 0.0
C2066 C 0.71417 0.60784 0.97778 0.0
C2067 C 0.72602 0.61945 0.00775 0.0
C2068 C 0.71596 0.6066 0.95899 0.0
C2069 C 0.72963 0.61663 0.95005 0.0
C2070 C 0.72617 0.61917 0.98767 0.0
C2071 C 0.74087 0.62832 0.96033 0.0
C2072 C 0.7386 0.63028 0.01747 0.0
C2073 C 0.71492 0.60675 0.03536 0.0
N2074 N 0.73897 0.62916 0.97861 0.0
N2075 N 0.71445 0.6082 0.017 0.0
H2076 H 0.42245 0.71499 0.94989 0.0
H2077 H 0.37906 0.75158 0.04222 0.0
H2078 H 0.37967 0.7547 0.95099 0.0
H2079 H 0.4205 0.7106 0.03894 0.0
H2080 H 0.37807 0.75255 0.00901 0.0
H2081 H 0.42104 0.71299 0.98268 0.0
C2082 C 0.41273 0.72332 0.95702 0.0
C2083 C 0.4012 0.73509 0.94762 0.0
C2084 C 0.3873 0.74331 0.01561 0.0
C2085 C 0.39952 0.73285 0.98543 0.0
C2086 C 0.38786 0.74272 0.03456 0.0
C2087 C 0.39996 0.73106 0.04341 0.0
C2088 C 0.39892 0.73217 0.0055 0.0
C2089 C 0.41103 0.71989 0.03277 0.0
C2090 C 0.41191 0.72214 0.97581 0.0
C2091 C 0.38884 0.74547 0.95768 0.0
N2092 N 0.41028 0.72078 0.01444 0.0
N2093 N 0.38836 0.74415 0.97608 0.0
H2094 H 0.22935 0.35166 0.03864 0.0
H2095 H 0.27644 0.388 0.94787 0.0
H2096 H 0.27515 0.38922 0.03812 0.0
H2097 H 0.23034 0.35082 0.94885 0.0
H2098 H 0.27832 0.38621 0.98091 0.0
H2099 H 0.23158 0.34882 0.00576 0.0
C2100 C 0.23995 0.35922 0.03161 0.0
C2101 C 0.25197 0.37084 0.04109 0.0
C2102 C 0.26789 0.37833 0.97388 0.0
C2103 C 0.25456 0.36771 0.00345 0.0
C2104 C 0.26683 0.37933 0.95502 0.0
C2105 C 0.25309 0.3697 0.94564 0.0
C2106 C 0.25509 0.36765 0.98339 0.0
C2107 C 0.24105 0.3586 0.95557 0.0
C2108 C 0.24123 0.35759 0.01283 0.0
C2109 C 0.26552 0.38022 0.03131 0.0
N2110 N 0.24225 0.35799 0.97391 0.0
N2111 N 0.26636 0.37856 0.01299 0.0
H2112 H 0.04187 0.63713 0.75325 0.0
H2113 H 0.94888 0.6015 0.70784 0.0
H2114 H 0.03966 0.59982 0.70801 0.0
H2115 H 0.9515 0.63749 0.7541 0.0
H2116 H 0.98211 0.60357 0.70529 0.0
H2117 H 0.00882 0.64033 0.75132 0.0
C2118 C 0.03444 0.62973 0.7428 0.0
C2119 C 0.04348 0.61803 0.7309 0.0
C2120 C 0.9754 0.61113 0.7159 0.0
C2121 C 0.00564 0.62154 0.72869 0.0
C2122 C 0.95643 0.60997 0.71735 0.0
C2123 C 0.94745 0.61917 0.73133 0.0
C2124 C 0.98543 0.62155 0.72854 0.0
C2125 C 0.95789 0.63003 0.74322 0.0
C2126 C 0.01557 0.63155 0.74172 0.0
C2127 C 0.0332 0.60888 0.71755 0.0
N2128 N 0.97633 0.6308 0.74164 0.0
N2129 N 0.01479 0.6107 0.71691 0.0
H2130 H 0.36844 0.93778 0.75347 0.0
H2131 H 0.39723 0.03549 0.71498 0.0
H2132 H 0.40857 0.94635 0.71143 0.0
H2133 H 0.36163 0.02779 0.76096 0.0
H2134 H 0.39907 0.00263 0.71156 0.0
H2135 H 0.36345 0.97048 0.75455 0.0
C2136 C 0.37615 0.94651 0.74441 0.0
C2137 C 0.38904 0.93929 0.73241 0.0
C2138 C 0.39079 0.00811 0.72236 0.0
C2139 C 0.38336 0.97674 0.73359 0.0
C2140 C 0.38971 0.02688 0.72431 0.0
C2141 C 0.37936 0.03438 0.73837 0.0
C2142 C 0.38146 -0.00328 0.73456 0.0
C2143 C 0.36983 0.02257 0.74999 0.0
C2144 C 0.3733 0.96519 0.74505 0.0
C2145 C 0.39858 0.95129 0.72097 0.0
N2146 N 0.37118 0.0043 0.74788 0.0
N2147 N 0.39558 0.96941 0.72188 0.0
H2148 H 0.03523 0.3953 0.70214 0.0
H2149 H 0.9383 0.37145 0.74658 0.0
H2150 H 0.02879 0.36202 0.74984 0.0
H2151 H 0.9461 0.40837 0.7018 0.0
H2152 H 0.97093 0.36488 0.74594 0.0
H2153 H 0.0021 0.39699 0.6996 0.0
C2154 C 0.02682 0.38819 0.712 0.0
C2155 C 0.03476 0.37866 0.72635 0.0
C2156 C 0.96546 0.37434 0.73619 0.0
C2157 C -0.00319 0.38066 0.7236 0.0
C2158 C 0.94683 0.37809 0.73654 0.0
C2159 C 0.93946 0.39061 0.72432 0.0
C2160 C 0.97677 0.38313 0.72351 0.0
C2161 C 0.95117 0.39875 0.71159 0.0
C2162 C 0.0079 0.3892 0.71056 0.0
C2163 C 0.02323 0.36961 0.73864 0.0
N2164 N 0.96923 0.39493 0.71157 0.0
N2165 N 0.00481 0.37097 0.73708 0.0
H2166 H 0.56946 0.95187 0.71501 0.0
H2167 H 0.61067 0.04547 0.75368 0.0
H2168 H 0.60944 0.95422 0.75811 0.0
H2169 H 0.57165 0.04111 0.70986 0.0
H2170 H 0.61172 0.01224 0.75494 0.0
H2171 H 0.57125 0.9847 0.71251 0.0
C2172 C 0.57865 0.95928 0.72398 0.0
C2173 C 0.58925 0.95022 0.73687 0.0
C2174 C 0.60302 0.01861 0.745 0.0
C2175 C 0.59137 0.98807 0.73404 0.0
C2176 C 0.60244 0.03756 0.74425 0.0
C2177 C 0.59096 0.04612 0.73172 0.0
C2178 C 0.59206 0.00818 0.73315 0.0
C2179 C 0.58061 0.03517 0.71983 0.0
C2180 C 0.57969 0.97809 0.72251 0.0
C2181 C 0.60098 0.96063 0.74801 0.0
N2182 N 0.58135 0.01682 0.7209 0.0
N2183 N 0.60167 0.97904 0.7464 0.0
H2184 H 0.95395 0.3606 0.23361 0.0
H2185 H 0.03664 0.40656 0.28872 0.0
H2186 H 0.94786 0.3907 0.28348 0.0
H2187 H 0.0444 0.37402 0.24062 0.0
H2188 H 0.00419 0.39911 0.2878 0.0
H2189 H 0.98719 0.3634 0.23678 0.0
C2190 C 0.9596 0.36761 0.24531 0.0
C2191 C 0.94814 0.37556 0.25822 0.0
C2192 C 0.01297 0.39349 0.27749 0.0
C2193 C 0.98604 0.37892 0.26186 0.0
C2194 C 0.03154 0.39777 0.27798 0.0
C2195 C 0.04328 0.39102 0.26464 0.0
C2196 C 0.00596 0.38245 0.26348 0.0
C2197 C 0.03585 0.37958 0.25115 0.0
C2198 C 0.97856 0.36924 0.24709 0.0
C2199 C 0.95617 0.38449 0.27312 0.0
N2200 N 0.01763 0.37576 0.25083 0.0
N2201 N 0.9746 0.38603 0.27445 0.0
H2202 H 0.61107 0.03939 0.23601 0.0
H2203 H 0.56761 0.95008 0.28112 0.0
H2204 H 0.57099 0.0394 0.27886 0.0
H2205 H 0.60694 0.94809 0.23766 0.0
H2206 H 0.57056 0.98296 0.28157 0.0
H2207 H 0.61154 0.00613 0.23742 0.0
C2208 C 0.60245 0.03244 0.24576 0.0
C2209 C 0.59088 0.04222 0.25725 0.0
C2210 C 0.57862 0.97539 0.27195 0.0
C2211 C 0.59136 0.00427 0.25891 0.0
C2212 C 0.57694 0.95655 0.27169 0.0
C2213 C 0.58694 0.94627 0.25924 0.0
C2214 C 0.59034 0.98415 0.25963 0.0
C2215 C 0.59892 0.95547 0.24746 0.0
C2216 C 0.60272 0.01347 0.24655 0.0
C2217 C 0.58004 0.03249 0.26964 0.0
N2218 N 0.60021 0.97393 0.24785 0.0
N2219 N 0.58051 0.0141 0.27008 0.0
H2220 H 0.03698 0.63872 0.23559 0.0
H2221 H 0.94965 0.59798 0.28691 0.0
H2222 H 0.04028 0.60286 0.28162 0.0
H2223 H 0.94675 0.63387 0.24088 0.0
H2224 H 0.98283 0.6022 0.28735 0.0
H2225 H 0.00391 0.63966 0.2394 0.0
C2226 C 0.03076 0.63116 0.24659 0.0
C2227 C 0.04136 0.62055 0.25819 0.0
C2228 C 0.97491 0.60928 0.27726 0.0
C2229 C 0.00351 0.62148 0.26259 0.0
C2230 C 0.95597 0.6069 0.27702 0.0
C2231 C 0.94546 0.61543 0.26371 0.0
C2232 C 0.98337 0.62023 0.26406 0.0
C2233 C 0.95435 0.6269 0.25128 0.0
C2234 C 0.01187 0.63169 0.24876 0.0
C2235 C 0.03259 0.61111 0.27228 0.0
N2236 N 0.97279 0.62884 0.25167 0.0
N2237 N 0.01415 0.61167 0.27399 0.0
H2238 H 0.36771 0.04563 0.23133 0.0
H2239 H 0.3917 0.94949 0.27489 0.0
H2240 H 0.40756 0.03833 0.27382 0.0
H2241 H 0.35712 0.95532 0.22787 0.0
H2242 H 0.395 0.98243 0.27667 0.0
H2243 H 0.36125 0.01296 0.23168 0.0
C2244 C 0.37507 0.03719 0.24077 0.0
C2245 C 0.38829 0.04474 0.25249 0.0
C2246 C 0.38661 0.97654 0.266 0.0
C2247 C 0.3809 0.00737 0.25299 0.0
C2248 C 0.38468 0.95771 0.265 0.0
C2249 C 0.37422 0.94965 0.25112 0.0
C2250 C 0.37802 0.98742 0.25303 0.0
C2251 C 0.36538 0.96099 0.23875 0.0
C2252 C 0.37137 0.01854 0.24095 0.0
C2253 C 0.39735 0.03313 0.26446 0.0
N2254 N 0.36756 0.97931 0.23993 0.0
N2255 N 0.39351 0.01504 0.26437 0.0
H2256 H 0.75609 0.03521 0.63053 0.0
H2257 H 0.71048 0.95011 0.57938 0.0
H2258 H 0.71036 0.03888 0.59379 0.0
H2259 H 0.75396 0.94517 0.61862 0.0
H2260 H 0.70979 0.98261 0.58532 0.0
H2261 H 0.75476 0.00213 0.62756 0.0
C2262 C 0.74565 0.02905 0.62199 0.0
C2263 C 0.7334 0.0398 0.61228 0.0
C2264 C 0.71946 0.97443 0.59268 0.0
C2265 C 0.73192 0.00204 0.6087 0.0
C2266 C 0.71992 0.95585 0.58925 0.0
C2267 C 0.73236 0.94487 0.59845 0.0
C2268 C 0.73159 0.98219 0.60537 0.0
C2269 C 0.74417 0.95311 0.61116 0.0
C2270 C 0.74494 0.01017 0.62027 0.0
C2271 C 0.72015 0.03112 0.60144 0.0
N2272 N 0.74354 0.9713 0.6142 0.0
N2273 N 0.71985 0.01276 0.59984 0.0
H2274 H 0.70445 0.03599 0.4 0.0
H2275 H 0.74715 0.94045 0.37242 0.0
H2276 H 0.75161 0.03092 0.36545 0.0
H2277 H 0.70415 0.94692 0.41179 0.0
H2278 H 0.74709 0.97322 0.36715 0.0
H2279 H 0.70206 0.00298 0.40163 0.0
C2280 C 0.71423 0.02792 0.39263 0.0
C2281 C 0.72835 0.03621 0.3827 0.0
C2282 C 0.73764 0.96743 0.37689 0.0
C2283 C 0.72575 -0.00162 0.3846 0.0
C2284 C 0.73765 0.94873 0.37991 0.0
C2285 C 0.72572 0.94092 0.39266 0.0
C2286 C 0.72555 0.97838 0.38664 0.0
C2287 C 0.71369 0.95232 0.40192 0.0
C2288 C 0.71288 0.00907 0.39361 0.0
C2289 C 0.74056 0.02508 0.37334 0.0
N2290 N 0.71395 0.97046 0.39876 0.0
N2291 N 0.73906 0.00671 0.37462 0.0
H2292 H 0.94778 0.75444 0.35306 0.0
H2293 H 0.03663 0.70497 0.3903 0.0
H2294 H 0.94592 0.70831 0.389 0.0
H2295 H 0.03817 0.75199 0.35551 0.0
H2296 H 0.00341 0.70369 0.38712 0.0
H2297 H 0.98086 0.75154 0.35102 0.0
C2298 C 0.95432 0.74361 0.36042 0.0
C2299 C 0.94412 0.73171 0.37136 0.0
C2300 C 0.01103 0.71419 0.38005 0.0
C2301 C 0.98199 0.72835 0.36915 0.0
C2302 C 0.03 0.71491 0.38183 0.0
C2303 C 0.04014 0.72874 0.37332 0.0
C2304 C 0.00217 0.72742 0.36971 0.0
C2305 C 0.03086 0.74119 0.36245 0.0
C2306 C 0.97322 0.74196 0.35925 0.0
C2307 C 0.95329 0.71787 0.38051 0.0
N2308 N 0.01239 0.74033 0.36108 0.0
N2309 N 0.97173 0.71665 0.37931 0.0
H2310 H 0.28199 0.04118 0.40986 0.0
H2311 H 0.23514 0.95556 0.36083 0.0
H2312 H 0.23781 0.04563 0.37135 0.0
H2313 H 0.28224 0.95225 0.39587 0.0
H2314 H 0.23686 0.98868 0.36306 0.0
H2315 H 0.28302 0.00868 0.4038 0.0
C2316 C 0.27251 0.03534 0.4001 0.0
C2317 C 0.25971 0.04617 0.39119 0.0
C2318 C 0.24692 0.98071 0.37012 0.0
C2319 C 0.26083 0.00886 0.38417 0.0
C2320 C 0.24597 0.9618 0.36882 0.0
C2321 C 0.25847 0.95114 0.37831 0.0
C2322 C 0.26041 0.98897 0.38105 0.0
C2323 C 0.27224 0.95994 0.38843 0.0
C2324 C 0.27314 0.01676 0.3966 0.0
C2325 C 0.24786 0.03782 0.37859 0.0
N2326 N 0.27274 0.97833 0.38965 0.0
N2327 N 0.24864 0.01964 0.37553 0.0
H2328 H 0.03879 0.27876 0.3906 0.0
H2329 H 0.94444 0.23897 0.35189 0.0
H2330 H 0.03451 0.23316 0.35385 0.0
H2331 H 0.94813 0.28331 0.39019 0.0
H2332 H 0.97763 0.23928 0.34947 0.0
H2333 H 0.00588 0.28304 0.3879 0.0
C2334 C 0.03094 0.26972 0.38188 0.0
C2335 C 0.03935 0.25546 0.37258 0.0
C2336 C 0.9712 0.24906 0.35828 0.0
C2337 C 0.00173 0.26027 0.36942 0.0
C2338 C 0.95223 0.24891 0.35964 0.0
C2339 C 0.94354 0.26098 0.37143 0.0
C2340 C 0.98156 0.26131 0.36886 0.0
C2341 C 0.9543 0.27367 0.38104 0.0
C2342 C 0.01216 0.27218 0.38032 0.0
C2343 C 0.02855 0.24423 0.36137 0.0
N2344 N 0.97279 0.27337 0.37969 0.0
N2345 N 0.01028 0.24681 0.36021 0.0
H2346 H 0.27938 0.0407 0.58193 0.0
H2347 H 0.23049 0.95573 0.62952 0.0
H2348 H 0.23406 0.04582 0.61886 0.0
H2349 H 0.27799 0.95186 0.59528 0.0
H2350 H 0.23252 0.98884 0.62735 0.0
H2351 H 0.27981 0.00823 0.58791 0.0
C2352 C 0.26951 0.03501 0.59133 0.0
C2353 C 0.25658 0.04602 0.59981 0.0
C2354 C 0.24259 0.98074 0.62044 0.0
C2355 C 0.25702 0.00872 0.60674 0.0
C2356 C 0.24147 0.96185 0.62171 0.0
C2357 C 0.25401 0.95103 0.61243 0.0
C2358 C 0.25631 0.98884 0.60977 0.0
C2359 C 0.26796 0.95966 0.60254 0.0
C2360 C 0.26981 0.01644 0.59478 0.0
C2361 C 0.24423 0.03786 0.61196 0.0
N2362 N 0.26864 0.97805 0.60136 0.0
N2363 N 0.24469 0.01967 0.61498 0.0
H2364 H 0.9582 0.2386 0.6288 0.0
H2365 H 0.04159 0.28911 0.57975 0.0
H2366 H 0.95257 0.28568 0.59464 0.0
H2367 H 0.04837 0.24414 0.61646 0.0
H2368 H 0.00913 0.28921 0.5868 0.0
H2369 H 0.99141 0.24168 0.62643 0.0
C2370 C 0.96395 0.2497 0.62098 0.0
C2371 C 0.95261 0.26179 0.61176 0.0
C2372 C 0.01772 0.27938 0.59341 0.0
C2373 C 0.99053 0.26531 0.60887 0.0
C2374 C 0.03628 0.27929 0.58936 0.0
C2375 C 0.04773 0.2665 0.59741 0.0
C2376 C 0.01046 0.26651 0.60552 0.0
C2377 C 0.04005 0.2542 0.60986 0.0
C2378 C 0.9829 0.25143 0.6196 0.0
C2379 C 0.96079 0.27595 0.60186 0.0
N2380 N 0.02186 0.25442 0.61343 0.0
N2381 N 0.97924 0.27722 0.60055 0.0
H2382 H 0.03113 0.75047 0.63145 0.0
H2383 H 0.9468 0.70133 0.58189 0.0
H2384 H 0.03577 0.70267 0.59785 0.0
H2385 H 0.941 0.74723 0.61789 0.0
H2386 H 0.97918 0.70052 0.58929 0.0
H2387 H -0.00211 0.74824 0.62865 0.0
C2388 C 0.02515 0.73938 0.62368 0.0
C2389 C 0.03623 0.72683 0.61473 0.0
C2390 C 0.97083 0.71072 0.59566 0.0
C2391 C -0.00174 0.72431 0.61133 0.0
C2392 C 0.95231 0.71122 0.5914 0.0
C2393 C 0.94115 0.72447 0.59916 0.0
C2394 C 0.97835 0.72362 0.6077 0.0
C2395 C 0.94908 0.73683 0.61151 0.0
C2396 C 0.00618 0.73814 0.62204 0.0
C2397 C 0.02776 0.71273 0.60487 0.0
N2398 N 0.96723 0.73619 0.6153 0.0
N2399 N 0.0093 0.71194 0.6033 0.0
loop_
_geom_bond_atom_site_label_1
_geom_bond_atom_site_label_2
_geom_bond_distance
_geom_bond_site_symmetry_2
_ccdc_geom_bond_type
C0 O1 1.306 . S
C0 O3 1.160 . S
O1 C0 1.306 . S
O1 Cd2 2.228 . S
Cd2 O1 2.228 . S
Cd2 O6 2.273 . S
Cd2 O10 2.277 . S
O3 C0 1.160 . S
O3 Cd4 2.203 . S
Cd4 O3 2.203 . S
Cd4 O6 2.411 . S
Cd4 O7 2.333 . S
Cd4 O8 2.352 . S
Cd4 O12 2.277 . S
Cd4 O13 2.356 . S
C5 O10 1.209 . S
C5 O12 1.226 . S
O6 Cd2 2.273 . S
O6 Cd4 2.411 . S
O6 C9 1.320 . S
O7 Cd4 2.333 . S
O7 C9 1.214 . S
O8 Cd4 2.352 . S
O8 C11 1.258 . S
C9 O6 1.320 . S
C9 O7 1.214 . S
O10 Cd2 2.277 . S
O10 C5 1.209 . S
C11 O8 1.258 . S
C11 O13 1.282 . S
O12 Cd4 2.277 . S
O12 C5 1.226 . S
O13 Cd4 2.356 . S
O13 C11 1.282 . S
C14 O15 1.306 . S
C14 O17 1.160 . S
O15 C14 1.306 . S
O15 Cd16 2.228 . S
Cd16 O15 2.228 . S
Cd16 O20 2.273 . S
Cd16 O24 2.277 . S
O17 C14 1.160 . S
O17 Cd18 2.203 . S
Cd18 O17 2.203 . S
Cd18 O20 2.411 . S
Cd18 O21 2.333 . S
Cd18 O22 2.352 . S
Cd18 O26 2.277 . S
Cd18 O27 2.356 . S
C19 O24 1.209 . S
C19 O26 1.226 . S
O20 Cd16 2.273 . S
O20 Cd18 2.411 . S
O20 C23 1.320 . S
O21 Cd18 2.333 . S
O21 C23 1.214 . S
O22 Cd18 2.352 . S
O22 C25 1.258 . S
C23 O20 1.320 . S
C23 O21 1.214 . S
O24 Cd16 2.277 . S
O24 C19 1.209 . S
C25 O22 1.258 . S
C25 O27 1.282 . S
O26 Cd18 2.277 . S
O26 C19 1.226 . S
O27 Cd18 2.356 . S
O27 C25 1.282 . S
C28 O29 1.306 . S
C28 O31 1.160 . S
O29 C28 1.306 . S
O29 Cd30 2.228 . S
Cd30 O29 2.228 . S
Cd30 O34 2.273 . S
Cd30 O38 2.277 . S
O31 C28 1.160 . S
O31 Cd32 2.203 . S
Cd32 O31 2.203 . S
Cd32 O34 2.411 . S
Cd32 O35 2.333 . S
Cd32 O36 2.352 . S
Cd32 O40 2.277 . S
Cd32 O41 2.356 . S
C33 O38 1.209 . S
C33 O40 1.226 . S
O34 Cd30 2.273 . S
O34 Cd32 2.411 . S
O34 C37 1.320 . S
O35 Cd32 2.333 . S
O35 C37 1.214 . S
O36 Cd32 2.352 . S
O36 C39 1.258 . S
C37 O34 1.320 . S
C37 O35 1.214 . S
O38 Cd30 2.277 . S
O38 C33 1.209 . S
C39 O36 1.258 . S
C39 O41 1.282 . S
O40 Cd32 2.277 . S
O40 C33 1.226 . S
O41 Cd32 2.356 . S
O41 C39 1.282 . S
C42 O43 1.306 . S
C42 O45 1.160 . S
O43 C42 1.306 . S
O43 Cd44 2.228 . S
Cd44 O43 2.228 . S
Cd44 O48 2.273 . S
Cd44 O52 2.277 . S
O45 C42 1.160 . S
O45 Cd46 2.203 . S
Cd46 O45 2.203 . S
Cd46 O48 2.411 . S
Cd46 O49 2.333 . S
Cd46 O50 2.352 . S
Cd46 O54 2.277 . S
Cd46 O55 2.356 . S
C47 O52 1.209 . S
C47 O54 1.226 . S
O48 Cd44 2.273 . S
O48 Cd46 2.411 . S
O48 C51 1.320 . S
O49 Cd46 2.333 . S
O49 C51 1.214 . S
O50 Cd46 2.352 . S
O50 C53 1.258 . S
C51 O48 1.320 . S
C51 O49 1.214 . S
O52 Cd44 2.277 . S
O52 C47 1.209 . S
C53 O50 1.258 . S
C53 O55 1.282 . S
O54 Cd46 2.277 . S
O54 C47 1.226 . S
O55 Cd46 2.356 . S
O55 C53 1.282 . S
C56 O57 1.306 . S
C56 O59 1.160 . S
O57 C56 1.306 . S
O57 Cd58 2.228 . S
Cd58 O57 2.228 . S
Cd58 O62 2.273 . S
Cd58 O66 2.277 . S
O59 C56 1.160 . S
O59 Cd60 2.203 . S
Cd60 O59 2.203 . S
Cd60 O62 2.411 . S
Cd60 O63 2.333 . S
Cd60 O64 2.352 . S
Cd60 O68 2.277 . S
Cd60 O69 2.356 . S
C61 O66 1.209 . S
C61 O68 1.226 . S
O62 Cd58 2.273 . S
O62 Cd60 2.411 . S
O62 C65 1.320 . S
O63 Cd60 2.333 . S
O63 C65 1.214 . S
O64 Cd60 2.352 . S
O64 C67 1.258 . S
C65 O62 1.320 . S
C65 O63 1.214 . S
O66 Cd58 2.277 . S
O66 C61 1.209 . S
C67 O64 1.258 . S
C67 O69 1.282 . S
O68 Cd60 2.277 . S
O68 C61 1.226 . S
O69 Cd60 2.356 . S
O69 C67 1.282 . S
C70 O71 1.306 . S
C70 O73 1.160 . S
O71 C70 1.306 . S
O71 Cd72 2.228 . S
Cd72 O71 2.228 . S
Cd72 O76 2.273 . S
Cd72 O80 2.277 . S
O73 C70 1.160 . S
O73 Cd74 2.203 . S
Cd74 O73 2.203 . S
Cd74 O76 2.411 . S
Cd74 O77 2.333 . S
Cd74 O78 2.352 . S
Cd74 O82 2.277 . S
Cd74 O83 2.356 . S
C75 O80 1.209 . S
C75 O82 1.226 . S
O76 Cd72 2.273 . S
O76 Cd74 2.411 . S
O76 C79 1.320 . S
O77 Cd74 2.333 . S
O77 C79 1.214 . S
O78 Cd74 2.352 . S
O78 C81 1.258 . S
C79 O76 1.320 . S
C79 O77 1.214 . S
O80 Cd72 2.277 . S
O80 C75 1.209 . S
C81 O78 1.258 . S
C81 O83 1.282 . S
O82 Cd74 2.277 . S
O82 C75 1.226 . S
O83 Cd74 2.356 . S
O83 C81 1.282 . S
C84 O85 1.306 . S
C84 O87 1.160 . S
O85 C84 1.306 . S
O85 Cd86 2.228 . S
Cd86 O85 2.228 . S
Cd86 O90 2.273 . S
Cd86 O94 2.277 . S
O87 C84 1.160 . S
O87 Cd88 2.203 . S
Cd88 O87 2.203 . S
Cd88 O90 2.411 . S
Cd88 O91 2.333 . S
Cd88 O92 2.352 . S
Cd88 O96 2.277 . S
Cd88 O97 2.356 . S
C89 O94 1.209 . S
C89 O96 1.226 . S
O90 Cd86 2.273 . S
O90 Cd88 2.411 . S
O90 C93 1.320 . S
O91 Cd88 2.333 . S
O91 C93 1.214 . S
O92 Cd88 2.352 . S
O92 C95 1.258 . S
C93 O90 1.320 . S
C93 O91 1.214 . S
O94 Cd86 2.277 . S
O94 C89 1.209 . S
C95 O92 1.258 . S
C95 O97 1.282 . S
O96 Cd88 2.277 . S
O96 C89 1.226 . S
O97 Cd88 2.356 . S
O97 C95 1.282 . S
C98 O99 1.306 . S
C98 O101 1.160 . S
O99 C98 1.306 . S
O99 Cd100 2.228 . S
Cd100 O99 2.228 . S
Cd100 O104 2.273 . S
Cd100 O108 2.277 . S
O101 C98 1.160 . S
O101 Cd102 2.203 . S
Cd102 O101 2.203 . S
Cd102 O104 2.411 . S
Cd102 O105 2.333 . S
Cd102 O106 2.352 . S
Cd102 O110 2.277 . S
Cd102 O111 2.356 . S
C103 O108 1.209 . S
C103 O110 1.226 . S
O104 Cd100 2.273 . S
O104 Cd102 2.411 . S
O104 C107 1.320 . S
O105 Cd102 2.333 . S
O105 C107 1.214 . S
O106 Cd102 2.352 . S
O106 C109 1.258 . S
C107 O104 1.320 . S
C107 O105 1.214 . S
O108 Cd100 2.277 . S
O108 C103 1.209 . S
C109 O106 1.258 . S
C109 O111 1.282 . S
O110 Cd102 2.277 . S
O110 C103 1.226 . S
O111 Cd102 2.356 . S
O111 C109 1.282 . S
C112 O113 1.306 . S
C112 O115 1.160 . S
O113 C112 1.306 . S
O113 Cd114 2.228 . S
Cd114 O113 2.228 . S
Cd114 O118 2.273 . S
Cd114 O122 2.277 . S
O115 C112 1.160 . S
O115 Cd116 2.203 . S
Cd116 O115 2.203 . S
Cd116 O118 2.411 . S
Cd116 O119 2.333 . S
Cd116 O120 2.352 . S
Cd116 O124 2.277 . S
Cd116 O125 2.356 . S
C117 O122 1.209 . S
C117 O124 1.226 . S
O118 Cd114 2.273 . S
O118 Cd116 2.411 . S
O118 C121 1.320 . S
O119 Cd116 2.333 . S
O119 C121 1.214 . S
O120 Cd116 2.352 . S
O120 C123 1.258 . S
C121 O118 1.320 . S
C121 O119 1.214 . S
O122 Cd114 2.277 . S
O122 C117 1.209 . S
C123 O120 1.258 . S
C123 O125 1.282 . S
O124 Cd116 2.277 . S
O124 C117 1.226 . S
O125 Cd116 2.356 . S
O125 C123 1.282 . S
C126 O127 1.306 . S
C126 O129 1.160 . S
O127 C126 1.306 . S
O127 Cd128 2.228 . S
Cd128 O127 2.228 . S
Cd128 O132 2.273 . S
Cd128 O136 2.277 . S
O129 C126 1.160 . S
O129 Cd130 2.203 . S
Cd130 O129 2.203 . S
Cd130 O132 2.411 . S
Cd130 O133 2.333 . S
Cd130 O134 2.352 . S
Cd130 O138 2.277 . S
Cd130 O139 2.356 . S
C131 O136 1.209 . S
C131 O138 1.226 . S
O132 Cd128 2.273 . S
O132 Cd130 2.411 . S
O132 C135 1.320 . S
O133 Cd130 2.333 . S
O133 C135 1.214 . S
O134 Cd130 2.352 . S
O134 C137 1.258 . S
C135 O132 1.320 . S
C135 O133 1.214 . S
O136 Cd128 2.277 . S
O136 C131 1.209 . S
C137 O134 1.258 . S
C137 O139 1.282 . S
O138 Cd130 2.277 . S
O138 C131 1.226 . S
O139 Cd130 2.356 . S
O139 C137 1.282 . S
C140 O141 1.306 . S
C140 O143 1.160 . S
O141 C140 1.306 . S
O141 Cd142 2.228 . S
Cd142 O141 2.228 . S
Cd142 O146 2.273 . S
Cd142 O150 2.277 . S
O143 C140 1.160 . S
O143 Cd144 2.203 . S
Cd144 O143 2.203 . S
Cd144 O146 2.411 . S
Cd144 O147 2.333 . S
Cd144 O148 2.352 . S
Cd144 O152 2.277 . S
Cd144 O153 2.356 . S
C145 O150 1.209 . S
C145 O152 1.226 . S
O146 Cd142 2.273 . S
O146 Cd144 2.411 . S
O146 C149 1.320 . S
O147 Cd144 2.333 . S
O147 C149 1.214 . S
O148 Cd144 2.352 . S
O148 C151 1.258 . S
C149 O146 1.320 . S
C149 O147 1.214 . S
O150 Cd142 2.277 . S
O150 C145 1.209 . S
C151 O148 1.258 . S
C151 O153 1.282 . S
O152 Cd144 2.277 . S
O152 C145 1.226 . S
O153 Cd144 2.356 . S
O153 C151 1.282 . S
C154 O155 1.306 . S
C154 O157 1.160 . S
O155 C154 1.306 . S
O155 Cd156 2.228 . S
Cd156 O155 2.228 . S
Cd156 O160 2.273 . S
Cd156 O164 2.277 . S
O157 C154 1.160 . S
O157 Cd158 2.203 . S
Cd158 O157 2.203 . S
Cd158 O160 2.411 . S
Cd158 O161 2.333 . S
Cd158 O162 2.352 . S
Cd158 O166 2.277 . S
Cd158 O167 2.356 . S
C159 O164 1.209 . S
C159 O166 1.226 . S
O160 Cd156 2.273 . S
O160 Cd158 2.411 . S
O160 C163 1.320 . S
O161 Cd158 2.333 . S
O161 C163 1.214 . S
O162 Cd158 2.352 . S
O162 C165 1.258 . S
C163 O160 1.320 . S
C163 O161 1.214 . S
O164 Cd156 2.277 . S
O164 C159 1.209 . S
C165 O162 1.258 . S
C165 O167 1.282 . S
O166 Cd158 2.277 . S
O166 C159 1.226 . S
O167 Cd158 2.356 . S
O167 C165 1.282 . S
C168 O169 1.306 . S
C168 O171 1.160 . S
O169 C168 1.306 . S
O169 Cd170 2.228 . S
Cd170 O169 2.228 . S
Cd170 O174 2.273 . S
Cd170 O178 2.277 . S
O171 C168 1.160 . S
O171 Cd172 2.203 . S
Cd172 O171 2.203 . S
Cd172 O174 2.411 . S
Cd172 O175 2.333 . S
Cd172 O176 2.352 . S
Cd172 O180 2.277 . S
Cd172 O181 2.356 . S
C173 O178 1.209 . S
C173 O180 1.226 . S
O174 Cd170 2.273 . S
O174 Cd172 2.411 . S
O174 C177 1.320 . S
O175 Cd172 2.333 . S
O175 C177 1.214 . S
O176 Cd172 2.352 . S
O176 C179 1.258 . S
C177 O174 1.320 . S
C177 O175 1.214 . S
O178 Cd170 2.277 . S
O178 C173 1.209 . S
C179 O176 1.258 . S
C179 O181 1.282 . S
O180 Cd172 2.277 . S
O180 C173 1.226 . S
O181 Cd172 2.356 . S
O181 C179 1.282 . S
C182 O183 1.306 . S
C182 O185 1.160 . S
O183 C182 1.306 . S
O183 Cd184 2.228 . S
Cd184 O183 2.228 . S
Cd184 O188 2.273 . S
Cd184 O192 2.277 . S
O185 C182 1.160 . S
O185 Cd186 2.203 . S
Cd186 O185 2.203 . S
Cd186 O188 2.411 . S
Cd186 O189 2.333 . S
Cd186 O190 2.352 . S
Cd186 O194 2.277 . S
Cd186 O195 2.356 . S
C187 O192 1.209 . S
C187 O194 1.226 . S
O188 Cd184 2.273 . S
O188 Cd186 2.411 . S
O188 C191 1.320 . S
O189 Cd186 2.333 . S
O189 C191 1.214 . S
O190 Cd186 2.352 . S
O190 C193 1.258 . S
C191 O188 1.320 . S
C191 O189 1.214 . S
O192 Cd184 2.277 . S
O192 C187 1.209 . S
C193 O190 1.258 . S
C193 O195 1.282 . S
O194 Cd186 2.277 . S
O194 C187 1.226 . S
O195 Cd186 2.356 . S
O195 C193 1.282 . S
C196 O197 1.306 . S
C196 O199 1.160 . S
O197 C196 1.306 . S
O197 Cd198 2.228 . S
Cd198 O197 2.228 . S
Cd198 O202 2.273 . S
Cd198 O206 2.277 . S
O199 C196 1.160 . S
O199 Cd200 2.203 . S
Cd200 O199 2.203 . S
Cd200 O202 2.411 . S
Cd200 O203 2.333 . S
Cd200 O204 2.352 . S
Cd200 O208 2.277 . S
Cd200 O209 2.356 . S
C201 O206 1.209 . S
C201 O208 1.226 . S
O202 Cd198 2.273 . S
O202 Cd200 2.411 . S
O202 C205 1.320 . S
O203 Cd200 2.333 . S
O203 C205 1.214 . S
O204 Cd200 2.352 . S
O204 C207 1.258 . S
C205 O202 1.320 . S
C205 O203 1.214 . S
O206 Cd198 2.277 . S
O206 C201 1.209 . S
C207 O204 1.258 . S
C207 O209 1.282 . S
O208 Cd200 2.277 . S
O208 C201 1.226 . S
O209 Cd200 2.356 . S
O209 C207 1.282 . S
C210 O211 1.306 . S
C210 O213 1.160 . S
O211 C210 1.306 . S
O211 Cd212 2.228 . S
Cd212 O211 2.228 . S
Cd212 O216 2.273 . S
Cd212 O220 2.277 . S
O213 C210 1.160 . S
O213 Cd214 2.203 . S
Cd214 O213 2.203 . S
Cd214 O216 2.411 . S
Cd214 O217 2.333 . S
Cd214 O218 2.352 . S
Cd214 O222 2.277 . S
Cd214 O223 2.356 . S
C215 O220 1.209 . S
C215 O222 1.226 . S
O216 Cd212 2.273 . S
O216 Cd214 2.411 . S
O216 C219 1.320 . S
O217 Cd214 2.333 . S
O217 C219 1.214 . S
O218 Cd214 2.352 . S
O218 C221 1.258 . S
C219 O216 1.320 . S
C219 O217 1.214 . S
O220 Cd212 2.277 . S
O220 C215 1.209 . S
C221 O218 1.258 . S
C221 O223 1.282 . S
O222 Cd214 2.277 . S
O222 C215 1.226 . S
O223 Cd214 2.356 . S
O223 C221 1.282 . S
C224 O225 1.306 . S
C224 O227 1.160 . S
O225 C224 1.306 . S
O225 Cd226 2.228 . S
Cd226 O225 2.228 . S
Cd226 O230 2.273 . S
Cd226 O234 2.277 . S
O227 C224 1.160 . S
O227 Cd228 2.203 . S
Cd228 O227 2.203 . S
Cd228 O230 2.411 . S
Cd228 O231 2.333 . S
Cd228 O232 2.352 . S
Cd228 O236 2.277 . S
Cd228 O237 2.356 . S
C229 O234 1.209 . S
C229 O236 1.226 . S
O230 Cd226 2.273 . S
O230 Cd228 2.411 . S
O230 C233 1.320 . S
O231 Cd228 2.333 . S
O231 C233 1.214 . S
O232 Cd228 2.352 . S
O232 C235 1.258 . S
C233 O230 1.320 . S
C233 O231 1.214 . S
O234 Cd226 2.277 . S
O234 C229 1.209 . S
C235 O232 1.258 . S
C235 O237 1.282 . S
O236 Cd228 2.277 . S
O236 C229 1.226 . S
O237 Cd228 2.356 . S
O237 C235 1.282 . S
C238 O239 1.306 . S
C238 O241 1.160 . S
O239 C238 1.306 . S
O239 Cd240 2.228 . S
Cd240 O239 2.228 . S
Cd240 O244 2.273 . S
Cd240 O248 2.277 . S
O241 C238 1.160 . S
O241 Cd242 2.203 . S
Cd242 O241 2.203 . S
Cd242 O244 2.411 . S
Cd242 O245 2.333 . S
Cd242 O246 2.352 . S
Cd242 O250 2.277 . S
Cd242 O251 2.356 . S
C243 O248 1.209 . S
C243 O250 1.226 . S
O244 Cd240 2.273 . S
O244 Cd242 2.411 . S
O244 C247 1.320 . S
O245 Cd242 2.333 . S
O245 C247 1.214 . S
O246 Cd242 2.352 . S
O246 C249 1.258 . S
C247 O244 1.320 . S
C247 O245 1.214 . S
O248 Cd240 2.277 . S
O248 C243 1.209 . S
C249 O246 1.258 . S
C249 O251 1.282 . S
O250 Cd242 2.277 . S
O250 C243 1.226 . S
O251 Cd242 2.356 . S
O251 C249 1.282 . S
C252 O253 1.306 . S
C252 O255 1.160 . S
O253 C252 1.306 . S
O253 Cd254 2.228 . S
Cd254 O253 2.228 . S
Cd254 O258 2.273 . S
Cd254 O262 2.277 . S
O255 C252 1.160 . S
O255 Cd256 2.203 . S
Cd256 O255 2.203 . S
Cd256 O258 2.411 . S
Cd256 O259 2.333 . S
Cd256 O260 2.352 . S
Cd256 O264 2.277 . S
Cd256 O265 2.356 . S
C257 O262 1.209 . S
C257 O264 1.226 . S
O258 Cd254 2.273 . S
O258 Cd256 2.411 . S
O258 C261 1.320 . S
O259 Cd256 2.333 . S
O259 C261 1.214 . S
O260 Cd256 2.352 . S
O260 C263 1.258 . S
C261 O258 1.320 . S
C261 O259 1.214 . S
O262 Cd254 2.277 . S
O262 C257 1.209 . S
C263 O260 1.258 . S
C263 O265 1.282 . S
O264 Cd256 2.277 . S
O264 C257 1.226 . S
O265 Cd256 2.356 . S
O265 C263 1.282 . S
C266 O267 1.306 . S
C266 O269 1.160 . S
O267 C266 1.306 . S
O267 Cd268 2.228 . S
Cd268 O267 2.228 . S
Cd268 O272 2.273 . S
Cd268 O276 2.277 . S
O269 C266 1.160 . S
O269 Cd270 2.203 . S
Cd270 O269 2.203 . S
Cd270 O272 2.411 . S
Cd270 O273 2.333 . S
Cd270 O274 2.352 . S
Cd270 O278 2.277 . S
Cd270 O279 2.356 . S
C271 O276 1.209 . S
C271 O278 1.226 . S
O272 Cd268 2.273 . S
O272 Cd270 2.411 . S
O272 C275 1.320 . S
O273 Cd270 2.333 . S
O273 C275 1.214 . S
O274 Cd270 2.352 . S
O274 C277 1.258 . S
C275 O272 1.320 . S
C275 O273 1.214 . S
O276 Cd268 2.277 . S
O276 C271 1.209 . S
C277 O274 1.258 . S
C277 O279 1.282 . S
O278 Cd270 2.277 . S
O278 C271 1.226 . S
O279 Cd270 2.356 . S
O279 C277 1.282 . S
C280 O281 1.306 . S
C280 O283 1.160 . S
O281 C280 1.306 . S
O281 Cd282 2.228 . S
Cd282 O281 2.228 . S
Cd282 O286 2.273 . S
Cd282 O290 2.277 . S
O283 C280 1.160 . S
O283 Cd284 2.203 . S
Cd284 O283 2.203 . S
Cd284 O286 2.411 . S
Cd284 O287 2.333 . S
Cd284 O288 2.352 . S
Cd284 O292 2.277 . S
Cd284 O293 2.356 . S
C285 O290 1.209 . S
C285 O292 1.226 . S
O286 Cd282 2.273 . S
O286 Cd284 2.411 . S
O286 C289 1.320 . S
O287 Cd284 2.333 . S
O287 C289 1.214 . S
O288 Cd284 2.352 . S
O288 C291 1.258 . S
C289 O286 1.320 . S
C289 O287 1.214 . S
O290 Cd282 2.277 . S
O290 C285 1.209 . S
C291 O288 1.258 . S
C291 O293 1.282 . S
O292 Cd284 2.277 . S
O292 C285 1.226 . S
O293 Cd284 2.356 . S
O293 C291 1.282 . S
C294 O295 1.306 . S
C294 O297 1.160 . S
O295 C294 1.306 . S
O295 Cd296 2.228 . S
Cd296 O295 2.228 . S
Cd296 O300 2.273 . S
Cd296 O304 2.277 . S
O297 C294 1.160 . S
O297 Cd298 2.203 . S
Cd298 O297 2.203 . S
Cd298 O300 2.411 . S
Cd298 O301 2.333 . S
Cd298 O302 2.352 . S
Cd298 O306 2.277 . S
Cd298 O307 2.356 . S
C299 O304 1.209 . S
C299 O306 1.226 . S
O300 Cd296 2.273 . S
O300 Cd298 2.411 . S
O300 C303 1.320 . S
O301 Cd298 2.333 . S
O301 C303 1.214 . S
O302 Cd298 2.352 . S
O302 C305 1.258 . S
C303 O300 1.320 . S
C303 O301 1.214 . S
O304 Cd296 2.277 . S
O304 C299 1.209 . S
C305 O302 1.258 . S
C305 O307 1.282 . S
O306 Cd298 2.277 . S
O306 C299 1.226 . S
O307 Cd298 2.356 . S
O307 C305 1.282 . S
C308 O309 1.306 . S
C308 O311 1.160 . S
O309 C308 1.306 . S
O309 Cd310 2.228 . S
Cd310 O309 2.228 . S
Cd310 O314 2.273 . S
Cd310 O318 2.277 . S
O311 C308 1.160 . S
O311 Cd312 2.203 . S
Cd312 O311 2.203 . S
Cd312 O314 2.411 . S
Cd312 O315 2.333 . S
Cd312 O316 2.352 . S
Cd312 O320 2.277 . S
Cd312 O321 2.356 . S
C313 O318 1.209 . S
C313 O320 1.226 . S
O314 Cd310 2.273 . S
O314 Cd312 2.411 . S
O314 C317 1.320 . S
O315 Cd312 2.333 . S
O315 C317 1.214 . S
O316 Cd312 2.352 . S
O316 C319 1.258 . S
C317 O314 1.320 . S
C317 O315 1.214 . S
O318 Cd310 2.277 . S
O318 C313 1.209 . S
C319 O316 1.258 . S
C319 O321 1.282 . S
O320 Cd312 2.277 . S
O320 C313 1.226 . S
O321 Cd312 2.356 . S
O321 C319 1.282 . S
C322 O323 1.306 . S
C322 O325 1.160 . S
O323 C322 1.306 . S
O323 Cd324 2.228 . S
Cd324 O323 2.228 . S
Cd324 O328 2.273 . S
Cd324 O332 2.277 . S
O325 C322 1.160 . S
O325 Cd326 2.203 . S
Cd326 O325 2.203 . S
Cd326 O328 2.411 . S
Cd326 O329 2.333 . S
Cd326 O330 2.352 . S
Cd326 O334 2.277 . S
Cd326 O335 2.356 . S
C327 O332 1.209 . S
C327 O334 1.226 . S
O328 Cd324 2.273 . S
O328 Cd326 2.411 . S
O328 C331 1.320 . S
O329 Cd326 2.333 . S
O329 C331 1.214 . S
O330 Cd326 2.352 . S
O330 C333 1.258 . S
C331 O328 1.320 . S
C331 O329 1.214 . S
O332 Cd324 2.277 . S
O332 C327 1.209 . S
C333 O330 1.258 . S
C333 O335 1.282 . S
O334 Cd326 2.277 . S
O334 C327 1.226 . S
O335 Cd326 2.356 . S
O335 C333 1.282 . S
C336 O337 1.306 . S
C336 O339 1.160 . S
O337 C336 1.306 . S
O337 Cd338 2.228 . S
Cd338 O337 2.228 . S
Cd338 O342 2.273 . S
Cd338 O346 2.277 . S
O339 C336 1.160 . S
O339 Cd340 2.203 . S
Cd340 O339 2.203 . S
Cd340 O342 2.411 . S
Cd340 O343 2.333 . S
Cd340 O344 2.352 . S
Cd340 O348 2.277 . S
Cd340 O349 2.356 . S
C341 O346 1.209 . S
C341 O348 1.226 . S
O342 Cd338 2.273 . S
O342 Cd340 2.411 . S
O342 C345 1.320 . S
O343 Cd340 2.333 . S
O343 C345 1.214 . S
O344 Cd340 2.352 . S
O344 C347 1.258 . S
C345 O342 1.320 . S
C345 O343 1.214 . S
O346 Cd338 2.277 . S
O346 C341 1.209 . S
C347 O344 1.258 . S
C347 O349 1.282 . S
O348 Cd340 2.277 . S
O348 C341 1.226 . S
O349 Cd340 2.356 . S
O349 C347 1.282 . S
C350 O351 1.306 . S
C350 O353 1.160 . S
O351 C350 1.306 . S
O351 Cd352 2.228 . S
Cd352 O351 2.228 . S
Cd352 O356 2.273 . S
Cd352 O360 2.277 . S
O353 C350 1.160 . S
O353 Cd354 2.203 . S
Cd354 O353 2.203 . S
Cd354 O356 2.411 . S
Cd354 O357 2.333 . S
Cd354 O358 2.352 . S
Cd354 O362 2.277 . S
Cd354 O363 2.356 . S
C355 O360 1.209 . S
C355 O362 1.226 . S
O356 Cd352 2.273 . S
O356 Cd354 2.411 . S
O356 C359 1.320 . S
O357 Cd354 2.333 . S
O357 C359 1.214 . S
O358 Cd354 2.352 . S
O358 C361 1.258 . S
C359 O356 1.320 . S
C359 O357 1.214 . S
O360 Cd352 2.277 . S
O360 C355 1.209 . S
C361 O358 1.258 . S
C361 O363 1.282 . S
O362 Cd354 2.277 . S
O362 C355 1.226 . S
O363 Cd354 2.356 . S
O363 C361 1.282 . S
C364 O365 1.306 . S
C364 O367 1.160 . S
O365 C364 1.306 . S
O365 Cd366 2.228 . S
Cd366 O365 2.228 . S
Cd366 O370 2.273 . S
Cd366 O374 2.277 . S
O367 C364 1.160 . S
O367 Cd368 2.203 . S
Cd368 O367 2.203 . S
Cd368 O370 2.411 . S
Cd368 O371 2.333 . S
Cd368 O372 2.352 . S
Cd368 O376 2.277 . S
Cd368 O377 2.356 . S
C369 O374 1.209 . S
C369 O376 1.226 . S
O370 Cd366 2.273 . S
O370 Cd368 2.411 . S
O370 C373 1.320 . S
O371 Cd368 2.333 . S
O371 C373 1.214 . S
O372 Cd368 2.352 . S
O372 C375 1.258 . S
C373 O370 1.320 . S
C373 O371 1.214 . S
O374 Cd366 2.277 . S
O374 C369 1.209 . S
C375 O372 1.258 . S
C375 O377 1.282 . S
O376 Cd368 2.277 . S
O376 C369 1.226 . S
O377 Cd368 2.356 . S
O377 C375 1.282 . S
C378 O379 1.306 . S
C378 O381 1.160 . S
O379 C378 1.306 . S
O379 Cd380 2.228 . S
Cd380 O379 2.228 . S
Cd380 O384 2.273 . S
Cd380 O388 2.277 . S
O381 C378 1.160 . S
O381 Cd382 2.203 . S
Cd382 O381 2.203 . S
Cd382 O384 2.411 . S
Cd382 O385 2.333 . S
Cd382 O386 2.352 . S
Cd382 O390 2.277 . S
Cd382 O391 2.356 . S
C383 O388 1.209 . S
C383 O390 1.226 . S
O384 Cd380 2.273 . S
O384 Cd382 2.411 . S
O384 C387 1.320 . S
O385 Cd382 2.333 . S
O385 C387 1.214 . S
O386 Cd382 2.352 . S
O386 C389 1.258 . S
C387 O384 1.320 . S
C387 O385 1.214 . S
O388 Cd380 2.277 . S
O388 C383 1.209 . S
C389 O386 1.258 . S
C389 O391 1.282 . S
O390 Cd382 2.277 . S
O390 C383 1.226 . S
O391 Cd382 2.356 . S
O391 C389 1.282 . S
C392 O393 1.306 . S
C392 O395 1.160 . S
O393 C392 1.306 . S
O393 Cd394 2.228 . S
Cd394 O393 2.228 . S
Cd394 O398 2.273 . S
Cd394 O402 2.277 . S
O395 C392 1.160 . S
O395 Cd396 2.203 . S
Cd396 O395 2.203 . S
Cd396 O398 2.411 . S
Cd396 O399 2.333 . S
Cd396 O400 2.352 . S
Cd396 O404 2.277 . S
Cd396 O405 2.356 . S
C397 O402 1.209 . S
C397 O404 1.226 . S
O398 Cd394 2.273 . S
O398 Cd396 2.411 . S
O398 C401 1.320 . S
O399 Cd396 2.333 . S
O399 C401 1.214 . S
O400 Cd396 2.352 . S
O400 C403 1.258 . S
C401 O398 1.320 . S
C401 O399 1.214 . S
O402 Cd394 2.277 . S
O402 C397 1.209 . S
C403 O400 1.258 . S
C403 O405 1.282 . S
O404 Cd396 2.277 . S
O404 C397 1.226 . S
O405 Cd396 2.356 . S
O405 C403 1.282 . S
C406 O407 1.306 . S
C406 O409 1.160 . S
O407 C406 1.306 . S
O407 Cd408 2.228 . S
Cd408 O407 2.228 . S
Cd408 O412 2.273 . S
Cd408 O416 2.277 . S
O409 C406 1.160 . S
O409 Cd410 2.203 . S
Cd410 O409 2.203 . S
Cd410 O412 2.411 . S
Cd410 O413 2.333 . S
Cd410 O414 2.352 . S
Cd410 O418 2.277 . S
Cd410 O419 2.356 . S
C411 O416 1.209 . S
C411 O418 1.226 . S
O412 Cd408 2.273 . S
O412 Cd410 2.411 . S
O412 C415 1.320 . S
O413 Cd410 2.333 . S
O413 C415 1.214 . S
O414 Cd410 2.352 . S
O414 C417 1.258 . S
C415 O412 1.320 . S
C415 O413 1.214 . S
O416 Cd408 2.277 . S
O416 C411 1.209 . S
C417 O414 1.258 . S
C417 O419 1.282 . S
O418 Cd410 2.277 . S
O418 C411 1.226 . S
O419 Cd410 2.356 . S
O419 C417 1.282 . S
C420 O421 1.306 . S
C420 O423 1.160 . S
O421 C420 1.306 . S
O421 Cd422 2.228 . S
Cd422 O421 2.228 . S
Cd422 O426 2.273 . S
Cd422 O430 2.277 . S
O423 C420 1.160 . S
O423 Cd424 2.203 . S
Cd424 O423 2.203 . S
Cd424 O426 2.411 . S
Cd424 O427 2.333 . S
Cd424 O428 2.352 . S
Cd424 O432 2.277 . S
Cd424 O433 2.356 . S
C425 O430 1.209 . S
C425 O432 1.226 . S
O426 Cd422 2.273 . S
O426 Cd424 2.411 . S
O426 C429 1.320 . S
O427 Cd424 2.333 . S
O427 C429 1.214 . S
O428 Cd424 2.352 . S
O428 C431 1.258 . S
C429 O426 1.320 . S
C429 O427 1.214 . S
O430 Cd422 2.277 . S
O430 C425 1.209 . S
C431 O428 1.258 . S
C431 O433 1.282 . S
O432 Cd424 2.277 . S
O432 C425 1.226 . S
O433 Cd424 2.356 . S
O433 C431 1.282 . S
C434 O435 1.306 . S
C434 O437 1.160 . S
O435 C434 1.306 . S
O435 Cd436 2.228 . S
Cd436 O435 2.228 . S
Cd436 O440 2.273 . S
Cd436 O444 2.277 . S
O437 C434 1.160 . S
O437 Cd438 2.203 . S
Cd438 O437 2.203 . S
Cd438 O440 2.411 . S
Cd438 O441 2.333 . S
Cd438 O442 2.352 . S
Cd438 O446 2.277 . S
Cd438 O447 2.356 . S
C439 O444 1.209 . S
C439 O446 1.226 . S
O440 Cd436 2.273 . S
O440 Cd438 2.411 . S
O440 C443 1.320 . S
O441 Cd438 2.333 . S
O441 C443 1.214 . S
O442 Cd438 2.352 . S
O442 C445 1.258 . S
C443 O440 1.320 . S
C443 O441 1.214 . S
O444 Cd436 2.277 . S
O444 C439 1.209 . S
C445 O442 1.258 . S
C445 O447 1.282 . S
O446 Cd438 2.277 . S
O446 C439 1.226 . S
O447 Cd438 2.356 . S
O447 C445 1.282 . S
C448 O449 1.306 . S
C448 O451 1.160 . S
O449 C448 1.306 . S
O449 Cd450 2.228 . S
Cd450 O449 2.228 . S
Cd450 O454 2.273 . S
Cd450 O458 2.277 . S
O451 C448 1.160 . S
O451 Cd452 2.203 . S
Cd452 O451 2.203 . S
Cd452 O454 2.411 . S
Cd452 O455 2.333 . S
Cd452 O456 2.352 . S
Cd452 O460 2.277 . S
Cd452 O461 2.356 . S
C453 O458 1.209 . S
C453 O460 1.226 . S
O454 Cd450 2.273 . S
O454 Cd452 2.411 . S
O454 C457 1.320 . S
O455 Cd452 2.333 . S
O455 C457 1.214 . S
O456 Cd452 2.352 . S
O456 C459 1.258 . S
C457 O454 1.320 . S
C457 O455 1.214 . S
O458 Cd450 2.277 . S
O458 C453 1.209 . S
C459 O456 1.258 . S
C459 O461 1.282 . S
O460 Cd452 2.277 . S
O460 C453 1.226 . S
O461 Cd452 2.356 . S
O461 C459 1.282 . S
C462 O463 1.306 . S
C462 O465 1.160 . S
O463 C462 1.306 . S
O463 Cd464 2.228 . S
Cd464 O463 2.228 . S
Cd464 O468 2.273 . S
Cd464 O472 2.277 . S
O465 C462 1.160 . S
O465 Cd466 2.203 . S
Cd466 O465 2.203 . S
Cd466 O468 2.411 . S
Cd466 O469 2.333 . S
Cd466 O470 2.352 . S
Cd466 O474 2.277 . S
Cd466 O475 2.356 . S
C467 O472 1.209 . S
C467 O474 1.226 . S
O468 Cd464 2.273 . S
O468 Cd466 2.411 . S
O468 C471 1.320 . S
O469 Cd466 2.333 . S
O469 C471 1.214 . S
O470 Cd466 2.352 . S
O470 C473 1.258 . S
C471 O468 1.320 . S
C471 O469 1.214 . S
O472 Cd464 2.277 . S
O472 C467 1.209 . S
C473 O470 1.258 . S
C473 O475 1.282 . S
O474 Cd466 2.277 . S
O474 C467 1.226 . S
O475 Cd466 2.356 . S
O475 C473 1.282 . S
C476 O477 1.306 . S
C476 O479 1.160 . S
O477 C476 1.306 . S
O477 Cd478 2.228 . S
Cd478 O477 2.228 . S
Cd478 O482 2.273 . S
Cd478 O486 2.277 . S
O479 C476 1.160 . S
O479 Cd480 2.203 . S
Cd480 O479 2.203 . S
Cd480 O482 2.411 . S
Cd480 O483 2.333 . S
Cd480 O484 2.352 . S
Cd480 O488 2.277 . S
Cd480 O489 2.356 . S
C481 O486 1.209 . S
C481 O488 1.226 . S
O482 Cd478 2.273 . S
O482 Cd480 2.411 . S
O482 C485 1.320 . S
O483 Cd480 2.333 . S
O483 C485 1.214 . S
O484 Cd480 2.352 . S
O484 C487 1.258 . S
C485 O482 1.320 . S
C485 O483 1.214 . S
O486 Cd478 2.277 . S
O486 C481 1.209 . S
C487 O484 1.258 . S
C487 O489 1.282 . S
O488 Cd480 2.277 . S
O488 C481 1.226 . S
O489 Cd480 2.356 . S
O489 C487 1.282 . S
C490 O491 1.306 . S
C490 O493 1.160 . S
O491 C490 1.306 . S
O491 Cd492 2.228 . S
Cd492 O491 2.228 . S
Cd492 O496 2.273 . S
Cd492 O500 2.277 . S
O493 C490 1.160 . S
O493 Cd494 2.203 . S
Cd494 O493 2.203 . S
Cd494 O496 2.411 . S
Cd494 O497 2.333 . S
Cd494 O498 2.352 . S
Cd494 O502 2.277 . S
Cd494 O503 2.356 . S
C495 O500 1.209 . S
C495 O502 1.226 . S
O496 Cd492 2.273 . S
O496 Cd494 2.411 . S
O496 C499 1.320 . S
O497 Cd494 2.333 . S
O497 C499 1.214 . S
O498 Cd494 2.352 . S
O498 C501 1.258 . S
C499 O496 1.320 . S
C499 O497 1.214 . S
O500 Cd492 2.277 . S
O500 C495 1.209 . S
C501 O498 1.258 . S
C501 O503 1.282 . S
O502 Cd494 2.277 . S
O502 C495 1.226 . S
O503 Cd494 2.356 . S
O503 C501 1.282 . S
C504 O505 1.306 . S
C504 O507 1.160 . S
O505 C504 1.306 . S
O505 Cd506 2.228 . S
Cd506 O505 2.228 . S
Cd506 O510 2.273 . S
Cd506 O514 2.277 . S
O507 C504 1.160 . S
O507 Cd508 2.203 . S
Cd508 O507 2.203 . S
Cd508 O510 2.411 . S
Cd508 O511 2.333 . S
Cd508 O512 2.352 . S
Cd508 O516 2.277 . S
Cd508 O517 2.356 . S
C509 O514 1.209 . S
C509 O516 1.226 . S
O510 Cd506 2.273 . S
O510 Cd508 2.411 . S
O510 C513 1.320 . S
O511 Cd508 2.333 . S
O511 C513 1.214 . S
O512 Cd508 2.352 . S
O512 C515 1.258 . S
C513 O510 1.320 . S
C513 O511 1.214 . S
O514 Cd506 2.277 . S
O514 C509 1.209 . S
C515 O512 1.258 . S
C515 O517 1.282 . S
O516 Cd508 2.277 . S
O516 C509 1.226 . S
O517 Cd508 2.356 . S
O517 C515 1.282 . S
C518 O519 1.306 . S
C518 O521 1.160 . S
O519 C518 1.306 . S
O519 Cd520 2.228 . S
Cd520 O519 2.228 . S
Cd520 O524 2.273 . S
Cd520 O528 2.277 . S
O521 C518 1.160 . S
O521 Cd522 2.203 . S
Cd522 O521 2.203 . S
Cd522 O524 2.411 . S
Cd522 O525 2.333 . S
Cd522 O526 2.352 . S
Cd522 O530 2.277 . S
Cd522 O531 2.356 . S
C523 O528 1.209 . S
C523 O530 1.226 . S
O524 Cd520 2.273 . S
O524 Cd522 2.411 . S
O524 C527 1.320 . S
O525 Cd522 2.333 . S
O525 C527 1.214 . S
O526 Cd522 2.352 . S
O526 C529 1.258 . S
C527 O524 1.320 . S
C527 O525 1.214 . S
O528 Cd520 2.277 . S
O528 C523 1.209 . S
C529 O526 1.258 . S
C529 O531 1.282 . S
O530 Cd522 2.277 . S
O530 C523 1.226 . S
O531 Cd522 2.356 . S
O531 C529 1.282 . S
C532 O533 1.306 . S
C532 O535 1.160 . S
O533 C532 1.306 . S
O533 Cd534 2.228 . S
Cd534 O533 2.228 . S
Cd534 O538 2.273 . S
Cd534 O542 2.277 . S
O535 C532 1.160 . S
O535 Cd536 2.203 . S
Cd536 O535 2.203 . S
Cd536 O538 2.411 . S
Cd536 O539 2.333 . S
Cd536 O540 2.352 . S
Cd536 O544 2.277 . S
Cd536 O545 2.356 . S
C537 O542 1.209 . S
C537 O544 1.226 . S
O538 Cd534 2.273 . S
O538 Cd536 2.411 . S
O538 C541 1.320 . S
O539 Cd536 2.333 . S
O539 C541 1.214 . S
O540 Cd536 2.352 . S
O540 C543 1.258 . S
C541 O538 1.320 . S
C541 O539 1.214 . S
O542 Cd534 2.277 . S
O542 C537 1.209 . S
C543 O540 1.258 . S
C543 O545 1.282 . S
O544 Cd536 2.277 . S
O544 C537 1.226 . S
O545 Cd536 2.356 . S
O545 C543 1.282 . S
C546 O547 1.306 . S
C546 O549 1.160 . S
O547 C546 1.306 . S
O547 Cd548 2.228 . S
Cd548 O547 2.228 . S
Cd548 O552 2.273 . S
Cd548 O556 2.277 . S
O549 C546 1.160 . S
O549 Cd550 2.203 . S
Cd550 O549 2.203 . S
Cd550 O552 2.411 . S
Cd550 O553 2.333 . S
Cd550 O554 2.352 . S
Cd550 O558 2.277 . S
Cd550 O559 2.356 . S
C551 O556 1.209 . S
C551 O558 1.226 . S
O552 Cd548 2.273 . S
O552 Cd550 2.411 . S
O552 C555 1.320 . S
O553 Cd550 2.333 . S
O553 C555 1.214 . S
O554 Cd550 2.352 . S
O554 C557 1.258 . S
C555 O552 1.320 . S
C555 O553 1.214 . S
O556 Cd548 2.277 . S
O556 C551 1.209 . S
C557 O554 1.258 . S
C557 O559 1.282 . S
O558 Cd550 2.277 . S
O558 C551 1.226 . S
O559 Cd550 2.356 . S
O559 C557 1.282 . S
C560 O561 1.306 . S
C560 O563 1.160 . S
O561 C560 1.306 . S
O561 Cd562 2.228 . S
Cd562 O561 2.228 . S
Cd562 O566 2.273 . S
Cd562 O570 2.277 . S
O563 C560 1.160 . S
O563 Cd564 2.203 . S
Cd564 O563 2.203 . S
Cd564 O566 2.411 . S
Cd564 O567 2.333 . S
Cd564 O568 2.352 . S
Cd564 O572 2.277 . S
Cd564 O573 2.356 . S
C565 O570 1.209 . S
C565 O572 1.226 . S
O566 Cd562 2.273 . S
O566 Cd564 2.411 . S
O566 C569 1.320 . S
O567 Cd564 2.333 . S
O567 C569 1.214 . S
O568 Cd564 2.352 . S
O568 C571 1.258 . S
C569 O566 1.320 . S
C569 O567 1.214 . S
O570 Cd562 2.277 . S
O570 C565 1.209 . S
C571 O568 1.258 . S
C571 O573 1.282 . S
O572 Cd564 2.277 . S
O572 C565 1.226 . S
O573 Cd564 2.356 . S
O573 C571 1.282 . S
C574 O575 1.306 . S
C574 O577 1.160 . S
O575 C574 1.306 . S
O575 Cd576 2.228 . S
Cd576 O575 2.228 . S
Cd576 O580 2.273 . S
Cd576 O584 2.277 . S
O577 C574 1.160 . S
O577 Cd578 2.203 . S
Cd578 O577 2.203 . S
Cd578 O580 2.411 . S
Cd578 O581 2.333 . S
Cd578 O582 2.352 . S
Cd578 O586 2.277 . S
Cd578 O587 2.356 . S
C579 O584 1.209 . S
C579 O586 1.226 . S
O580 Cd576 2.273 . S
O580 Cd578 2.411 . S
O580 C583 1.320 . S
O581 Cd578 2.333 . S
O581 C583 1.214 . S
O582 Cd578 2.352 . S
O582 C585 1.258 . S
C583 O580 1.320 . S
C583 O581 1.214 . S
O584 Cd576 2.277 . S
O584 C579 1.209 . S
C585 O582 1.258 . S
C585 O587 1.282 . S
O586 Cd578 2.277 . S
O586 C579 1.226 . S
O587 Cd578 2.356 . S
O587 C585 1.282 . S
C588 O589 1.306 . S
C588 O591 1.160 . S
O589 C588 1.306 . S
O589 Cd590 2.228 . S
Cd590 O589 2.228 . S
Cd590 O594 2.273 . S
Cd590 O598 2.277 . S
O591 C588 1.160 . S
O591 Cd592 2.203 . S
Cd592 O591 2.203 . S
Cd592 O594 2.411 . S
Cd592 O595 2.333 . S
Cd592 O596 2.352 . S
Cd592 O600 2.277 . S
Cd592 O601 2.356 . S
C593 O598 1.209 . S
C593 O600 1.226 . S
O594 Cd590 2.273 . S
O594 Cd592 2.411 . S
O594 C597 1.320 . S
O595 Cd592 2.333 . S
O595 C597 1.214 . S
O596 Cd592 2.352 . S
O596 C599 1.258 . S
C597 O594 1.320 . S
C597 O595 1.214 . S
O598 Cd590 2.277 . S
O598 C593 1.209 . S
C599 O596 1.258 . S
C599 O601 1.282 . S
O600 Cd592 2.277 . S
O600 C593 1.226 . S
O601 Cd592 2.356 . S
O601 C599 1.282 . S
C602 O603 1.306 . S
C602 O605 1.160 . S
O603 C602 1.306 . S
O603 Cd604 2.228 . S
Cd604 O603 2.228 . S
Cd604 O608 2.273 . S
Cd604 O612 2.277 . S
O605 C602 1.160 . S
O605 Cd606 2.203 . S
Cd606 O605 2.203 . S
Cd606 O608 2.411 . S
Cd606 O609 2.333 . S
Cd606 O610 2.352 . S
Cd606 O614 2.277 . S
Cd606 O615 2.356 . S
C607 O612 1.209 . S
C607 O614 1.226 . S
O608 Cd604 2.273 . S
O608 Cd606 2.411 . S
O608 C611 1.320 . S
O609 Cd606 2.333 . S
O609 C611 1.214 . S
O610 Cd606 2.352 . S
O610 C613 1.258 . S
C611 O608 1.320 . S
C611 O609 1.214 . S
O612 Cd604 2.277 . S
O612 C607 1.209 . S
C613 O610 1.258 . S
C613 O615 1.282 . S
O614 Cd606 2.277 . S
O614 C607 1.226 . S
O615 Cd606 2.356 . S
O615 C613 1.282 . S
C616 O617 1.306 . S
C616 O619 1.160 . S
O617 C616 1.306 . S
O617 Cd618 2.228 . S
Cd618 O617 2.228 . S
Cd618 O622 2.273 . S
Cd618 O626 2.277 . S
O619 C616 1.160 . S
O619 Cd620 2.203 . S
Cd620 O619 2.203 . S
Cd620 O622 2.411 . S
Cd620 O623 2.333 . S
Cd620 O624 2.352 . S
Cd620 O628 2.277 . S
Cd620 O629 2.356 . S
C621 O626 1.209 . S
C621 O628 1.226 . S
O622 Cd618 2.273 . S
O622 Cd620 2.411 . S
O622 C625 1.320 . S
O623 Cd620 2.333 . S
O623 C625 1.214 . S
O624 Cd620 2.352 . S
O624 C627 1.258 . S
C625 O622 1.320 . S
C625 O623 1.214 . S
O626 Cd618 2.277 . S
O626 C621 1.209 . S
C627 O624 1.258 . S
C627 O629 1.282 . S
O628 Cd620 2.277 . S
O628 C621 1.226 . S
O629 Cd620 2.356 . S
O629 C627 1.282 . S
C630 O631 1.306 . S
C630 O633 1.160 . S
O631 C630 1.306 . S
O631 Cd632 2.228 . S
Cd632 O631 2.228 . S
Cd632 O636 2.273 . S
Cd632 O640 2.277 . S
O633 C630 1.160 . S
O633 Cd634 2.203 . S
Cd634 O633 2.203 . S
Cd634 O636 2.411 . S
Cd634 O637 2.333 . S
Cd634 O638 2.352 . S
Cd634 O642 2.277 . S
Cd634 O643 2.356 . S
C635 O640 1.209 . S
C635 O642 1.226 . S
O636 Cd632 2.273 . S
O636 Cd634 2.411 . S
O636 C639 1.320 . S
O637 Cd634 2.333 . S
O637 C639 1.214 . S
O638 Cd634 2.352 . S
O638 C641 1.258 . S
C639 O636 1.320 . S
C639 O637 1.214 . S
O640 Cd632 2.277 . S
O640 C635 1.209 . S
C641 O638 1.258 . S
C641 O643 1.282 . S
O642 Cd634 2.277 . S
O642 C635 1.226 . S
O643 Cd634 2.356 . S
O643 C641 1.282 . S
C644 O645 1.306 . S
C644 O647 1.160 . S
O645 C644 1.306 . S
O645 Cd646 2.228 . S
Cd646 O645 2.228 . S
Cd646 O650 2.273 . S
Cd646 O654 2.277 . S
O647 C644 1.160 . S
O647 Cd648 2.203 . S
Cd648 O647 2.203 . S
Cd648 O650 2.411 . S
Cd648 O651 2.333 . S
Cd648 O652 2.352 . S
Cd648 O656 2.277 . S
Cd648 O657 2.356 . S
C649 O654 1.209 . S
C649 O656 1.226 . S
O650 Cd646 2.273 . S
O650 Cd648 2.411 . S
O650 C653 1.320 . S
O651 Cd648 2.333 . S
O651 C653 1.214 . S
O652 Cd648 2.352 . S
O652 C655 1.258 . S
C653 O650 1.320 . S
C653 O651 1.214 . S
O654 Cd646 2.277 . S
O654 C649 1.209 . S
C655 O652 1.258 . S
C655 O657 1.282 . S
O656 Cd648 2.277 . S
O656 C649 1.226 . S
O657 Cd648 2.356 . S
O657 C655 1.282 . S
C658 O659 1.306 . S
C658 O661 1.160 . S
O659 C658 1.306 . S
O659 Cd660 2.228 . S
Cd660 O659 2.228 . S
Cd660 O664 2.273 . S
Cd660 O668 2.277 . S
O661 C658 1.160 . S
O661 Cd662 2.203 . S
Cd662 O661 2.203 . S
Cd662 O664 2.411 . S
Cd662 O665 2.333 . S
Cd662 O666 2.352 . S
Cd662 O670 2.277 . S
Cd662 O671 2.356 . S
C663 O668 1.209 . S
C663 O670 1.226 . S
O664 Cd660 2.273 . S
O664 Cd662 2.411 . S
O664 C667 1.320 . S
O665 Cd662 2.333 . S
O665 C667 1.214 . S
O666 Cd662 2.352 . S
O666 C669 1.258 . S
C667 O664 1.320 . S
C667 O665 1.214 . S
O668 Cd660 2.277 . S
O668 C663 1.209 . S
C669 O666 1.258 . S
C669 O671 1.282 . S
O670 Cd662 2.277 . S
O670 C663 1.226 . S
O671 Cd662 2.356 . S
O671 C669 1.282 . S
H672 C678 0.930 . S
H673 C682 0.930 . S
H674 C687 0.929 . S
H675 C685 0.929 . S
H676 C680 0.929 . S
H677 C686 0.929 . S
C678 H672 0.930 . S
C678 C679 1.367 . S
C678 C686 1.378 . S
C679 C678 1.367 . S
C679 C687 1.433 . S
C680 H676 0.929 . S
C680 C682 1.378 . S
C680 C684 1.350 . S
C681 C684 1.463 . S
C681 C686 1.350 . S
C681 N689 1.427 . S
C682 H673 0.930 . S
C682 C680 1.378 . S
C682 C683 1.367 . S
C683 C682 1.367 . S
C683 C685 1.433 . S
C684 C680 1.350 . S
C684 C681 1.463 . S
C684 N688 1.427 . S
C685 H675 0.929 . S
C685 C683 1.433 . S
C685 N688 1.384 . S
C686 H677 0.929 . S
C686 C678 1.378 . S
C686 C681 1.350 . S
C687 H674 0.929 . S
C687 C679 1.433 . S
C687 N689 1.384 . S
N688 C684 1.427 . S
N688 C685 1.384 . S
N689 C681 1.427 . S
N689 C687 1.384 . S
H690 C696 0.930 . S
H691 C700 0.930 . S
H692 C705 0.929 . S
H693 C703 0.929 . S
H694 C698 0.929 . S
H695 C704 0.929 . S
C696 H690 0.930 . S
C696 C697 1.367 . S
C696 C704 1.378 . S
C697 C696 1.367 . S
C697 C705 1.433 . S
C698 H694 0.929 . S
C698 C700 1.378 . S
C698 C702 1.350 . S
C699 C702 1.463 . S
C699 C704 1.350 . S
C699 N707 1.427 . S
C700 H691 0.930 . S
C700 C698 1.378 . S
C700 C701 1.367 . S
C701 C700 1.367 . S
C701 C703 1.433 . S
C702 C698 1.350 . S
C702 C699 1.463 . S
C702 N706 1.427 . S
C703 H693 0.929 . S
C703 C701 1.433 . S
C703 N706 1.384 . S
C704 H695 0.929 . S
C704 C696 1.378 . S
C704 C699 1.350 . S
C705 H692 0.929 . S
C705 C697 1.433 . S
C705 N707 1.384 . S
N706 C702 1.427 . S
N706 C703 1.384 . S
N707 C699 1.427 . S
N707 C705 1.384 . S
H708 C714 0.930 . S
H709 C718 0.930 . S
H710 C723 0.929 . S
H711 C721 0.929 . S
H712 C716 0.929 . S
H713 C722 0.929 . S
C714 H708 0.930 . S
C714 C715 1.367 . S
C714 C722 1.378 . S
C715 C714 1.367 . S
C715 C723 1.433 . S
C716 H712 0.929 . S
C716 C718 1.378 . S
C716 C720 1.350 . S
C717 C720 1.463 . S
C717 C722 1.350 . S
C717 N725 1.427 . S
C718 H709 0.930 . S
C718 C716 1.378 . S
C718 C719 1.367 . S
C719 C718 1.367 . S
C719 C721 1.433 . S
C720 C716 1.350 . S
C720 C717 1.463 . S
C720 N724 1.427 . S
C721 H711 0.929 . S
C721 C719 1.433 . S
C721 N724 1.384 . S
C722 H713 0.929 . S
C722 C714 1.378 . S
C722 C717 1.350 . S
C723 H710 0.929 . S
C723 C715 1.433 . S
C723 N725 1.384 . S
N724 C720 1.427 . S
N724 C721 1.384 . S
N725 C717 1.427 . S
N725 C723 1.384 . S
H726 C732 0.930 . S
H727 C736 0.930 . S
H728 C741 0.929 . S
H729 C739 0.929 . S
H730 C734 0.929 . S
H731 C740 0.929 . S
C732 H726 0.930 . S
C732 C733 1.367 . S
C732 C740 1.378 . S
C733 C732 1.367 . S
C733 C741 1.433 . S
C734 H730 0.929 . S
C734 C736 1.378 . S
C734 C738 1.350 . S
C735 C738 1.463 . S
C735 C740 1.350 . S
C735 N743 1.427 . S
C736 H727 0.930 . S
C736 C734 1.378 . S
C736 C737 1.367 . S
C737 C736 1.367 . S
C737 C739 1.433 . S
C738 C734 1.350 . S
C738 C735 1.463 . S
C738 N742 1.427 . S
C739 H729 0.929 . S
C739 C737 1.433 . S
C739 N742 1.384 . S
C740 H731 0.929 . S
C740 C732 1.378 . S
C740 C735 1.350 . S
C741 H728 0.929 . S
C741 C733 1.433 . S
C741 N743 1.384 . S
N742 C738 1.427 . S
N742 C739 1.384 . S
N743 C735 1.427 . S
N743 C741 1.384 . S
H744 C750 0.930 . S
H745 C754 0.930 . S
H746 C759 0.929 . S
H747 C757 0.929 . S
H748 C752 0.929 . S
H749 C758 0.929 . S
C750 H744 0.930 . S
C750 C751 1.367 . S
C750 C758 1.378 . S
C751 C750 1.367 . S
C751 C759 1.433 . S
C752 H748 0.929 . S
C752 C754 1.378 . S
C752 C756 1.350 . S
C753 C756 1.463 . S
C753 C758 1.350 . S
C753 N761 1.427 . S
C754 H745 0.930 . S
C754 C752 1.378 . S
C754 C755 1.367 . S
C755 C754 1.367 . S
C755 C757 1.433 . S
C756 C752 1.350 . S
C756 C753 1.463 . S
C756 N760 1.427 . S
C757 H747 0.929 . S
C757 C755 1.433 . S
C757 N760 1.384 . S
C758 H749 0.929 . S
C758 C750 1.378 . S
C758 C753 1.350 . S
C759 H746 0.929 . S
C759 C751 1.433 . S
C759 N761 1.384 . S
N760 C756 1.427 . S
N760 C757 1.384 . S
N761 C753 1.427 . S
N761 C759 1.384 . S
H762 C768 0.930 . S
H763 C772 0.930 . S
H764 C777 0.929 . S
H765 C775 0.929 . S
H766 C770 0.929 . S
H767 C776 0.929 . S
C768 H762 0.930 . S
C768 C769 1.367 . S
C768 C776 1.378 . S
C769 C768 1.367 . S
C769 C777 1.433 . S
C770 H766 0.929 . S
C770 C772 1.378 . S
C770 C774 1.350 . S
C771 C774 1.463 . S
C771 C776 1.350 . S
C771 N779 1.427 . S
C772 H763 0.930 . S
C772 C770 1.378 . S
C772 C773 1.367 . S
C773 C772 1.367 . S
C773 C775 1.433 . S
C774 C770 1.350 . S
C774 C771 1.463 . S
C774 N778 1.427 . S
C775 H765 0.929 . S
C775 C773 1.433 . S
C775 N778 1.384 . S
C776 H767 0.929 . S
C776 C768 1.378 . S
C776 C771 1.350 . S
C777 H764 0.929 . S
C777 C769 1.433 . S
C777 N779 1.384 . S
N778 C774 1.427 . S
N778 C775 1.384 . S
N779 C771 1.427 . S
N779 C777 1.384 . S
H780 C786 0.930 . S
H781 C790 0.930 . S
H782 C795 0.929 . S
H783 C793 0.929 . S
H784 C788 0.929 . S
H785 C794 0.929 . S
C786 H780 0.930 . S
C786 C787 1.367 . S
C786 C794 1.378 . S
C787 C786 1.367 . S
C787 C795 1.433 . S
C788 H784 0.929 . S
C788 C790 1.378 . S
C788 C792 1.350 . S
C789 C792 1.463 . S
C789 C794 1.350 . S
C789 N797 1.427 . S
C790 H781 0.930 . S
C790 C788 1.378 . S
C790 C791 1.367 . S
C791 C790 1.367 . S
C791 C793 1.433 . S
C792 C788 1.350 . S
C792 C789 1.463 . S
C792 N796 1.427 . S
C793 H783 0.929 . S
C793 C791 1.433 . S
C793 N796 1.384 . S
C794 H785 0.929 . S
C794 C786 1.378 . S
C794 C789 1.350 . S
C795 H782 0.929 . S
C795 C787 1.433 . S
C795 N797 1.384 . S
N796 C792 1.427 . S
N796 C793 1.384 . S
N797 C789 1.427 . S
N797 C795 1.384 . S
H798 C804 0.930 . S
H799 C808 0.930 . S
H800 C813 0.929 . S
H801 C811 0.929 . S
H802 C806 0.929 . S
H803 C812 0.929 . S
C804 H798 0.930 . S
C804 C805 1.367 . S
C804 C812 1.378 . S
C805 C804 1.367 . S
C805 C813 1.433 . S
C806 H802 0.929 . S
C806 C808 1.378 . S
C806 C810 1.350 . S
C807 C810 1.463 . S
C807 C812 1.350 . S
C807 N815 1.427 . S
C808 H799 0.930 . S
C808 C806 1.378 . S
C808 C809 1.367 . S
C809 C808 1.367 . S
C809 C811 1.433 . S
C810 C806 1.350 . S
C810 C807 1.463 . S
C810 N814 1.427 . S
C811 H801 0.929 . S
C811 C809 1.433 . S
C811 N814 1.384 . S
C812 H803 0.929 . S
C812 C804 1.378 . S
C812 C807 1.350 . S
C813 H800 0.929 . S
C813 C805 1.433 . S
C813 N815 1.384 . S
N814 C810 1.427 . S
N814 C811 1.384 . S
N815 C807 1.427 . S
N815 C813 1.384 . S
H816 C822 0.930 . S
H817 C826 0.930 . S
H818 C831 0.929 . S
H819 C829 0.929 . S
H820 C824 0.929 . S
H821 C830 0.929 . S
C822 H816 0.930 . S
C822 C823 1.367 . S
C822 C830 1.378 . S
C823 C822 1.367 . S
C823 C831 1.433 . S
C824 H820 0.929 . S
C824 C826 1.378 . S
C824 C828 1.350 . S
C825 C828 1.463 . S
C825 C830 1.350 . S
C825 N833 1.427 . S
C826 H817 0.930 . S
C826 C824 1.378 . S
C826 C827 1.367 . S
C827 C826 1.367 . S
C827 C829 1.433 . S
C828 C824 1.350 . S
C828 C825 1.463 . S
C828 N832 1.427 . S
C829 H819 0.929 . S
C829 C827 1.433 . S
C829 N832 1.384 . S
C830 H821 0.929 . S
C830 C822 1.378 . S
C830 C825 1.350 . S
C831 H818 0.929 . S
C831 C823 1.433 . S
C831 N833 1.384 . S
N832 C828 1.427 . S
N832 C829 1.384 . S
N833 C825 1.427 . S
N833 C831 1.384 . S
H834 C840 0.930 . S
H835 C844 0.930 . S
H836 C849 0.929 . S
H837 C847 0.929 . S
H838 C842 0.929 . S
H839 C848 0.929 . S
C840 H834 0.930 . S
C840 C841 1.367 . S
C840 C848 1.378 . S
C841 C840 1.367 . S
C841 C849 1.433 . S
C842 H838 0.929 . S
C842 C844 1.378 . S
C842 C846 1.350 . S
C843 C846 1.463 . S
C843 C848 1.350 . S
C843 N851 1.427 . S
C844 H835 0.930 . S
C844 C842 1.378 . S
C844 C845 1.367 . S
C845 C844 1.367 . S
C845 C847 1.433 . S
C846 C842 1.350 . S
C846 C843 1.463 . S
C846 N850 1.427 . S
C847 H837 0.929 . S
C847 C845 1.433 . S
C847 N850 1.384 . S
C848 H839 0.929 . S
C848 C840 1.378 . S
C848 C843 1.350 . S
C849 H836 0.929 . S
C849 C841 1.433 . S
C849 N851 1.384 . S
N850 C846 1.427 . S
N850 C847 1.384 . S
N851 C843 1.427 . S
N851 C849 1.384 . S
H852 C858 0.930 . S
H853 C862 0.930 . S
H854 C867 0.929 . S
H855 C865 0.929 . S
H856 C860 0.929 . S
H857 C866 0.929 . S
C858 H852 0.930 . S
C858 C859 1.367 . S
C858 C866 1.378 . S
C859 C858 1.367 . S
C859 C867 1.433 . S
C860 H856 0.929 . S
C860 C862 1.378 . S
C860 C864 1.350 . S
C861 C864 1.463 . S
C861 C866 1.350 . S
C861 N869 1.427 . S
C862 H853 0.930 . S
C862 C860 1.378 . S
C862 C863 1.367 . S
C863 C862 1.367 . S
C863 C865 1.433 . S
C864 C860 1.350 . S
C864 C861 1.463 . S
C864 N868 1.427 . S
C865 H855 0.929 . S
C865 C863 1.433 . S
C865 N868 1.384 . S
C866 H857 0.929 . S
C866 C858 1.378 . S
C866 C861 1.350 . S
C867 H854 0.929 . S
C867 C859 1.433 . S
C867 N869 1.384 . S
N868 C864 1.427 . S
N868 C865 1.384 . S
N869 C861 1.427 . S
N869 C867 1.384 . S
H870 C876 0.930 . S
H871 C880 0.930 . S
H872 C885 0.929 . S
H873 C883 0.929 . S
H874 C878 0.929 . S
H875 C884 0.929 . S
C876 H870 0.930 . S
C876 C877 1.367 . S
C876 C884 1.378 . S
C877 C876 1.367 . S
C877 C885 1.433 . S
C878 H874 0.929 . S
C878 C880 1.378 . S
C878 C882 1.350 . S
C879 C882 1.463 . S
C879 C884 1.350 . S
C879 N887 1.427 . S
C880 H871 0.930 . S
C880 C878 1.378 . S
C880 C881 1.367 . S
C881 C880 1.367 . S
C881 C883 1.433 . S
C882 C878 1.350 . S
C882 C879 1.463 . S
C882 N886 1.427 . S
C883 H873 0.929 . S
C883 C881 1.433 . S
C883 N886 1.384 . S
C884 H875 0.929 . S
C884 C876 1.378 . S
C884 C879 1.350 . S
C885 H872 0.929 . S
C885 C877 1.433 . S
C885 N887 1.384 . S
N886 C882 1.427 . S
N886 C883 1.384 . S
N887 C879 1.427 . S
N887 C885 1.384 . S
H888 C894 0.930 . S
H889 C898 0.930 . S
H890 C903 0.929 . S
H891 C901 0.929 . S
H892 C896 0.929 . S
H893 C902 0.929 . S
C894 H888 0.930 . S
C894 C895 1.367 . S
C894 C902 1.378 . S
C895 C894 1.367 . S
C895 C903 1.433 . S
C896 H892 0.929 . S
C896 C898 1.378 . S
C896 C900 1.350 . S
C897 C900 1.463 . S
C897 C902 1.350 . S
C897 N905 1.427 . S
C898 H889 0.930 . S
C898 C896 1.378 . S
C898 C899 1.367 . S
C899 C898 1.367 . S
C899 C901 1.433 . S
C900 C896 1.350 . S
C900 C897 1.463 . S
C900 N904 1.427 . S
C901 H891 0.929 . S
C901 C899 1.433 . S
C901 N904 1.384 . S
C902 H893 0.929 . S
C902 C894 1.378 . S
C902 C897 1.350 . S
C903 H890 0.929 . S
C903 C895 1.433 . S
C903 N905 1.384 . S
N904 C900 1.427 . S
N904 C901 1.384 . S
N905 C897 1.427 . S
N905 C903 1.384 . S
H906 C912 0.930 . S
H907 C916 0.930 . S
H908 C921 0.929 . S
H909 C919 0.929 . S
H910 C914 0.929 . S
H911 C920 0.929 . S
C912 H906 0.930 . S
C912 C913 1.367 . S
C912 C920 1.378 . S
C913 C912 1.367 . S
C913 C921 1.433 . S
C914 H910 0.929 . S
C914 C916 1.378 . S
C914 C918 1.350 . S
C915 C918 1.463 . S
C915 C920 1.350 . S
C915 N923 1.427 . S
C916 H907 0.930 . S
C916 C914 1.378 . S
C916 C917 1.367 . S
C917 C916 1.367 . S
C917 C919 1.433 . S
C918 C914 1.350 . S
C918 C915 1.463 . S
C918 N922 1.427 . S
C919 H909 0.929 . S
C919 C917 1.433 . S
C919 N922 1.384 . S
C920 H911 0.929 . S
C920 C912 1.378 . S
C920 C915 1.350 . S
C921 H908 0.929 . S
C921 C913 1.433 . S
C921 N923 1.384 . S
N922 C918 1.427 . S
N922 C919 1.384 . S
N923 C915 1.427 . S
N923 C921 1.384 . S
H924 C930 0.930 . S
H925 C934 0.930 . S
H926 C939 0.929 . S
H927 C937 0.929 . S
H928 C932 0.929 . S
H929 C938 0.929 . S
C930 H924 0.930 . S
C930 C931 1.367 . S
C930 C938 1.378 . S
C931 C930 1.367 . S
C931 C939 1.433 . S
C932 H928 0.929 . S
C932 C934 1.378 . S
C932 C936 1.350 . S
C933 C936 1.463 . S
C933 C938 1.350 . S
C933 N941 1.427 . S
C934 H925 0.930 . S
C934 C932 1.378 . S
C934 C935 1.367 . S
C935 C934 1.367 . S
C935 C937 1.433 . S
C936 C932 1.350 . S
C936 C933 1.463 . S
C936 N940 1.427 . S
C937 H927 0.929 . S
C937 C935 1.433 . S
C937 N940 1.384 . S
C938 H929 0.929 . S
C938 C930 1.378 . S
C938 C933 1.350 . S
C939 H926 0.929 . S
C939 C931 1.433 . S
C939 N941 1.384 . S
N940 C936 1.427 . S
N940 C937 1.384 . S
N941 C933 1.427 . S
N941 C939 1.384 . S
H942 C948 0.930 . S
H943 C952 0.930 . S
H944 C957 0.929 . S
H945 C955 0.929 . S
H946 C950 0.929 . S
H947 C956 0.929 . S
C948 H942 0.930 . S
C948 C949 1.367 . S
C948 C956 1.378 . S
C949 C948 1.367 . S
C949 C957 1.433 . S
C950 H946 0.929 . S
C950 C952 1.378 . S
C950 C954 1.350 . S
C951 C954 1.463 . S
C951 C956 1.350 . S
C951 N959 1.427 . S
C952 H943 0.930 . S
C952 C950 1.378 . S
C952 C953 1.367 . S
C953 C952 1.367 . S
C953 C955 1.433 . S
C954 C950 1.350 . S
C954 C951 1.463 . S
C954 N958 1.427 . S
C955 H945 0.929 . S
C955 C953 1.433 . S
C955 N958 1.384 . S
C956 H947 0.929 . S
C956 C948 1.378 . S
C956 C951 1.350 . S
C957 H944 0.929 . S
C957 C949 1.433 . S
C957 N959 1.384 . S
N958 C954 1.427 . S
N958 C955 1.384 . S
N959 C951 1.427 . S
N959 C957 1.384 . S
H960 C966 0.930 . S
H961 C970 0.930 . S
H962 C975 0.929 . S
H963 C973 0.929 . S
H964 C968 0.929 . S
H965 C974 0.929 . S
C966 H960 0.930 . S
C966 C967 1.367 . S
C966 C974 1.378 . S
C967 C966 1.367 . S
C967 C975 1.433 . S
C968 H964 0.929 . S
C968 C970 1.378 . S
C968 C972 1.350 . S
C969 C972 1.463 . S
C969 C974 1.350 . S
C969 N977 1.427 . S
C970 H961 0.930 . S
C970 C968 1.378 . S
C970 C971 1.367 . S
C971 C970 1.367 . S
C971 C973 1.433 . S
C972 C968 1.350 . S
C972 C969 1.463 . S
C972 N976 1.427 . S
C973 H963 0.929 . S
C973 C971 1.433 . S
C973 N976 1.384 . S
C974 H965 0.929 . S
C974 C966 1.378 . S
C974 C969 1.350 . S
C975 H962 0.929 . S
C975 C967 1.433 . S
C975 N977 1.384 . S
N976 C972 1.427 . S
N976 C973 1.384 . S
N977 C969 1.427 . S
N977 C975 1.384 . S
H978 C984 0.930 . S
H979 C988 0.930 . S
H980 C993 0.929 . S
H981 C991 0.929 . S
H982 C986 0.929 . S
H983 C992 0.929 . S
C984 H978 0.930 . S
C984 C985 1.367 . S
C984 C992 1.378 . S
C985 C984 1.367 . S
C985 C993 1.433 . S
C986 H982 0.929 . S
C986 C988 1.378 . S
C986 C990 1.350 . S
C987 C990 1.463 . S
C987 C992 1.350 . S
C987 N995 1.427 . S
C988 H979 0.930 . S
C988 C986 1.378 . S
C988 C989 1.367 . S
C989 C988 1.367 . S
C989 C991 1.433 . S
C990 C986 1.350 . S
C990 C987 1.463 . S
C990 N994 1.427 . S
C991 H981 0.929 . S
C991 C989 1.433 . S
C991 N994 1.384 . S
C992 H983 0.929 . S
C992 C984 1.378 . S
C992 C987 1.350 . S
C993 H980 0.929 . S
C993 C985 1.433 . S
C993 N995 1.384 . S
N994 C990 1.427 . S
N994 C991 1.384 . S
N995 C987 1.427 . S
N995 C993 1.384 . S
H996 C1002 0.930 . S
H997 C1006 0.930 . S
H998 C1011 0.929 . S
H999 C1009 0.929 . S
H1000 C1004 0.929 . S
H1001 C1010 0.929 . S
C1002 H996 0.930 . S
C1002 C1003 1.367 . S
C1002 C1010 1.378 . S
C1003 C1002 1.367 . S
C1003 C1011 1.433 . S
C1004 H1000 0.929 . S
C1004 C1006 1.378 . S
C1004 C1008 1.350 . S
C1005 C1008 1.463 . S
C1005 C1010 1.350 . S
C1005 N1013 1.427 . S
C1006 H997 0.930 . S
C1006 C1004 1.378 . S
C1006 C1007 1.367 . S
C1007 C1006 1.367 . S
C1007 C1009 1.433 . S
C1008 C1004 1.350 . S
C1008 C1005 1.463 . S
C1008 N1012 1.427 . S
C1009 H999 0.929 . S
C1009 C1007 1.433 . S
C1009 N1012 1.384 . S
C1010 H1001 0.929 . S
C1010 C1002 1.378 . S
C1010 C1005 1.350 . S
C1011 H998 0.929 . S
C1011 C1003 1.433 . S
C1011 N1013 1.384 . S
N1012 C1008 1.427 . S
N1012 C1009 1.384 . S
N1013 C1005 1.427 . S
N1013 C1011 1.384 . S
H1014 C1020 0.930 . S
H1015 C1024 0.930 . S
H1016 C1029 0.929 . S
H1017 C1027 0.929 . S
H1018 C1022 0.929 . S
H1019 C1028 0.929 . S
C1020 H1014 0.930 . S
C1020 C1021 1.367 . S
C1020 C1028 1.378 . S
C1021 C1020 1.367 . S
C1021 C1029 1.433 . S
C1022 H1018 0.929 . S
C1022 C1024 1.378 . S
C1022 C1026 1.350 . S
C1023 C1026 1.463 . S
C1023 C1028 1.350 . S
C1023 N1031 1.427 . S
C1024 H1015 0.930 . S
C1024 C1022 1.378 . S
C1024 C1025 1.367 . S
C1025 C1024 1.367 . S
C1025 C1027 1.433 . S
C1026 C1022 1.350 . S
C1026 C1023 1.463 . S
C1026 N1030 1.427 . S
C1027 H1017 0.929 . S
C1027 C1025 1.433 . S
C1027 N1030 1.384 . S
C1028 H1019 0.929 . S
C1028 C1020 1.378 . S
C1028 C1023 1.350 . S
C1029 H1016 0.929 . S
C1029 C1021 1.433 . S
C1029 N1031 1.384 . S
N1030 C1026 1.427 . S
N1030 C1027 1.384 . S
N1031 C1023 1.427 . S
N1031 C1029 1.384 . S
H1032 C1038 0.930 . S
H1033 C1042 0.930 . S
H1034 C1047 0.929 . S
H1035 C1045 0.929 . S
H1036 C1040 0.929 . S
H1037 C1046 0.929 . S
C1038 H1032 0.930 . S
C1038 C1039 1.367 . S
C1038 C1046 1.378 . S
C1039 C1038 1.367 . S
C1039 C1047 1.433 . S
C1040 H1036 0.929 . S
C1040 C1042 1.378 . S
C1040 C1044 1.350 . S
C1041 C1044 1.463 . S
C1041 C1046 1.350 . S
C1041 N1049 1.427 . S
C1042 H1033 0.930 . S
C1042 C1040 1.378 . S
C1042 C1043 1.367 . S
C1043 C1042 1.367 . S
C1043 C1045 1.433 . S
C1044 C1040 1.350 . S
C1044 C1041 1.463 . S
C1044 N1048 1.427 . S
C1045 H1035 0.929 . S
C1045 C1043 1.433 . S
C1045 N1048 1.384 . S
C1046 H1037 0.929 . S
C1046 C1038 1.378 . S
C1046 C1041 1.350 . S
C1047 H1034 0.929 . S
C1047 C1039 1.433 . S
C1047 N1049 1.384 . S
N1048 C1044 1.427 . S
N1048 C1045 1.384 . S
N1049 C1041 1.427 . S
N1049 C1047 1.384 . S
H1050 C1056 0.930 . S
H1051 C1060 0.930 . S
H1052 C1065 0.929 . S
H1053 C1063 0.929 . S
H1054 C1058 0.929 . S
H1055 C1064 0.929 . S
C1056 H1050 0.930 . S
C1056 C1057 1.367 . S
C1056 C1064 1.378 . S
C1057 C1056 1.367 . S
C1057 C1065 1.433 . S
C1058 H1054 0.929 . S
C1058 C1060 1.378 . S
C1058 C1062 1.350 . S
C1059 C1062 1.463 . S
C1059 C1064 1.350 . S
C1059 N1067 1.427 . S
C1060 H1051 0.930 . S
C1060 C1058 1.378 . S
C1060 C1061 1.367 . S
C1061 C1060 1.367 . S
C1061 C1063 1.433 . S
C1062 C1058 1.350 . S
C1062 C1059 1.463 . S
C1062 N1066 1.427 . S
C1063 H1053 0.929 . S
C1063 C1061 1.433 . S
C1063 N1066 1.384 . S
C1064 H1055 0.929 . S
C1064 C1056 1.378 . S
C1064 C1059 1.350 . S
C1065 H1052 0.929 . S
C1065 C1057 1.433 . S
C1065 N1067 1.384 . S
N1066 C1062 1.427 . S
N1066 C1063 1.384 . S
N1067 C1059 1.427 . S
N1067 C1065 1.384 . S
H1068 C1074 0.930 . S
H1069 C1078 0.930 . S
H1070 C1083 0.929 . S
H1071 C1081 0.929 . S
H1072 C1076 0.929 . S
H1073 C1082 0.929 . S
C1074 H1068 0.930 . S
C1074 C1075 1.367 . S
C1074 C1082 1.378 . S
C1075 C1074 1.367 . S
C1075 C1083 1.433 . S
C1076 H1072 0.929 . S
C1076 C1078 1.378 . S
C1076 C1080 1.350 . S
C1077 C1080 1.463 . S
C1077 C1082 1.350 . S
C1077 N1085 1.427 . S
C1078 H1069 0.930 . S
C1078 C1076 1.378 . S
C1078 C1079 1.367 . S
C1079 C1078 1.367 . S
C1079 C1081 1.433 . S
C1080 C1076 1.350 . S
C1080 C1077 1.463 . S
C1080 N1084 1.427 . S
C1081 H1071 0.929 . S
C1081 C1079 1.433 . S
C1081 N1084 1.384 . S
C1082 H1073 0.929 . S
C1082 C1074 1.378 . S
C1082 C1077 1.350 . S
C1083 H1070 0.929 . S
C1083 C1075 1.433 . S
C1083 N1085 1.384 . S
N1084 C1080 1.427 . S
N1084 C1081 1.384 . S
N1085 C1077 1.427 . S
N1085 C1083 1.384 . S
H1086 C1092 0.930 . S
H1087 C1096 0.930 . S
H1088 C1101 0.929 . S
H1089 C1099 0.929 . S
H1090 C1094 0.929 . S
H1091 C1100 0.929 . S
C1092 H1086 0.930 . S
C1092 C1093 1.367 . S
C1092 C1100 1.378 . S
C1093 C1092 1.367 . S
C1093 C1101 1.433 . S
C1094 H1090 0.929 . S
C1094 C1096 1.378 . S
C1094 C1098 1.350 . S
C1095 C1098 1.463 . S
C1095 C1100 1.350 . S
C1095 N1103 1.427 . S
C1096 H1087 0.930 . S
C1096 C1094 1.378 . S
C1096 C1097 1.367 . S
C1097 C1096 1.367 . S
C1097 C1099 1.433 . S
C1098 C1094 1.350 . S
C1098 C1095 1.463 . S
C1098 N1102 1.427 . S
C1099 H1089 0.929 . S
C1099 C1097 1.433 . S
C1099 N1102 1.384 . S
C1100 H1091 0.929 . S
C1100 C1092 1.378 . S
C1100 C1095 1.350 . S
C1101 H1088 0.929 . S
C1101 C1093 1.433 . S
C1101 N1103 1.384 . S
N1102 C1098 1.427 . S
N1102 C1099 1.384 . S
N1103 C1095 1.427 . S
N1103 C1101 1.384 . S
H1104 C1110 0.930 . S
H1105 C1114 0.930 . S
H1106 C1119 0.929 . S
H1107 C1117 0.929 . S
H1108 C1112 0.929 . S
H1109 C1118 0.929 . S
C1110 H1104 0.930 . S
C1110 C1111 1.367 . S
C1110 C1118 1.378 . S
C1111 C1110 1.367 . S
C1111 C1119 1.433 . S
C1112 H1108 0.929 . S
C1112 C1114 1.378 . S
C1112 C1116 1.350 . S
C1113 C1116 1.463 . S
C1113 C1118 1.350 . S
C1113 N1121 1.427 . S
C1114 H1105 0.930 . S
C1114 C1112 1.378 . S
C1114 C1115 1.367 . S
C1115 C1114 1.367 . S
C1115 C1117 1.433 . S
C1116 C1112 1.350 . S
C1116 C1113 1.463 . S
C1116 N1120 1.427 . S
C1117 H1107 0.929 . S
C1117 C1115 1.433 . S
C1117 N1120 1.384 . S
C1118 H1109 0.929 . S
C1118 C1110 1.378 . S
C1118 C1113 1.350 . S
C1119 H1106 0.929 . S
C1119 C1111 1.433 . S
C1119 N1121 1.384 . S
N1120 C1116 1.427 . S
N1120 C1117 1.384 . S
N1121 C1113 1.427 . S
N1121 C1119 1.384 . S
H1122 C1128 0.930 . S
H1123 C1132 0.930 . S
H1124 C1137 0.929 . S
H1125 C1135 0.929 . S
H1126 C1130 0.929 . S
H1127 C1136 0.929 . S
C1128 H1122 0.930 . S
C1128 C1129 1.367 . S
C1128 C1136 1.378 . S
C1129 C1128 1.367 . S
C1129 C1137 1.433 . S
C1130 H1126 0.929 . S
C1130 C1132 1.378 . S
C1130 C1134 1.350 . S
C1131 C1134 1.463 . S
C1131 C1136 1.350 . S
C1131 N1139 1.427 . S
C1132 H1123 0.930 . S
C1132 C1130 1.378 . S
C1132 C1133 1.367 . S
C1133 C1132 1.367 . S
C1133 C1135 1.433 . S
C1134 C1130 1.350 . S
C1134 C1131 1.463 . S
C1134 N1138 1.427 . S
C1135 H1125 0.929 . S
C1135 C1133 1.433 . S
C1135 N1138 1.384 . S
C1136 H1127 0.929 . S
C1136 C1128 1.378 . S
C1136 C1131 1.350 . S
C1137 H1124 0.929 . S
C1137 C1129 1.433 . S
C1137 N1139 1.384 . S
N1138 C1134 1.427 . S
N1138 C1135 1.384 . S
N1139 C1131 1.427 . S
N1139 C1137 1.384 . S
H1140 C1146 0.930 . S
H1141 C1150 0.930 . S
H1142 C1155 0.929 . S
H1143 C1153 0.929 . S
H1144 C1148 0.929 . S
H1145 C1154 0.929 . S
C1146 H1140 0.930 . S
C1146 C1147 1.367 . S
C1146 C1154 1.378 . S
C1147 C1146 1.367 . S
C1147 C1155 1.433 . S
C1148 H1144 0.929 . S
C1148 C1150 1.378 . S
C1148 C1152 1.350 . S
C1149 C1152 1.463 . S
C1149 C1154 1.350 . S
C1149 N1157 1.427 . S
C1150 H1141 0.930 . S
C1150 C1148 1.378 . S
C1150 C1151 1.367 . S
C1151 C1150 1.367 . S
C1151 C1153 1.433 . S
C1152 C1148 1.350 . S
C1152 C1149 1.463 . S
C1152 N1156 1.427 . S
C1153 H1143 0.929 . S
C1153 C1151 1.433 . S
C1153 N1156 1.384 . S
C1154 H1145 0.929 . S
C1154 C1146 1.378 . S
C1154 C1149 1.350 . S
C1155 H1142 0.929 . S
C1155 C1147 1.433 . S
C1155 N1157 1.384 . S
N1156 C1152 1.427 . S
N1156 C1153 1.384 . S
N1157 C1149 1.427 . S
N1157 C1155 1.384 . S
H1158 C1164 0.930 . S
H1159 C1168 0.930 . S
H1160 C1173 0.929 . S
H1161 C1171 0.929 . S
H1162 C1166 0.929 . S
H1163 C1172 0.929 . S
C1164 H1158 0.930 . S
C1164 C1165 1.367 . S
C1164 C1172 1.378 . S
C1165 C1164 1.367 . S
C1165 C1173 1.433 . S
C1166 H1162 0.929 . S
C1166 C1168 1.378 . S
C1166 C1170 1.350 . S
C1167 C1170 1.463 . S
C1167 C1172 1.350 . S
C1167 N1175 1.427 . S
C1168 H1159 0.930 . S
C1168 C1166 1.378 . S
C1168 C1169 1.367 . S
C1169 C1168 1.367 . S
C1169 C1171 1.433 . S
C1170 C1166 1.350 . S
C1170 C1167 1.463 . S
C1170 N1174 1.427 . S
C1171 H1161 0.929 . S
C1171 C1169 1.433 . S
C1171 N1174 1.384 . S
C1172 H1163 0.929 . S
C1172 C1164 1.378 . S
C1172 C1167 1.350 . S
C1173 H1160 0.929 . S
C1173 C1165 1.433 . S
C1173 N1175 1.384 . S
N1174 C1170 1.427 . S
N1174 C1171 1.384 . S
N1175 C1167 1.427 . S
N1175 C1173 1.384 . S
H1176 C1182 0.930 . S
H1177 C1186 0.930 . S
H1178 C1191 0.929 . S
H1179 C1189 0.929 . S
H1180 C1184 0.929 . S
H1181 C1190 0.929 . S
C1182 H1176 0.930 . S
C1182 C1183 1.367 . S
C1182 C1190 1.378 . S
C1183 C1182 1.367 . S
C1183 C1191 1.433 . S
C1184 H1180 0.929 . S
C1184 C1186 1.378 . S
C1184 C1188 1.350 . S
C1185 C1188 1.463 . S
C1185 C1190 1.350 . S
C1185 N1193 1.427 . S
C1186 H1177 0.930 . S
C1186 C1184 1.378 . S
C1186 C1187 1.367 . S
C1187 C1186 1.367 . S
C1187 C1189 1.433 . S
C1188 C1184 1.350 . S
C1188 C1185 1.463 . S
C1188 N1192 1.427 . S
C1189 H1179 0.929 . S
C1189 C1187 1.433 . S
C1189 N1192 1.384 . S
C1190 H1181 0.929 . S
C1190 C1182 1.378 . S
C1190 C1185 1.350 . S
C1191 H1178 0.929 . S
C1191 C1183 1.433 . S
C1191 N1193 1.384 . S
N1192 C1188 1.427 . S
N1192 C1189 1.384 . S
N1193 C1185 1.427 . S
N1193 C1191 1.384 . S
H1194 C1200 0.930 . S
H1195 C1204 0.930 . S
H1196 C1209 0.929 . S
H1197 C1207 0.929 . S
H1198 C1202 0.929 . S
H1199 C1208 0.929 . S
C1200 H1194 0.930 . S
C1200 C1201 1.367 . S
C1200 C1208 1.378 . S
C1201 C1200 1.367 . S
C1201 C1209 1.433 . S
C1202 H1198 0.929 . S
C1202 C1204 1.378 . S
C1202 C1206 1.350 . S
C1203 C1206 1.463 . S
C1203 C1208 1.350 . S
C1203 N1211 1.427 . S
C1204 H1195 0.930 . S
C1204 C1202 1.378 . S
C1204 C1205 1.367 . S
C1205 C1204 1.367 . S
C1205 C1207 1.433 . S
C1206 C1202 1.350 . S
C1206 C1203 1.463 . S
C1206 N1210 1.427 . S
C1207 H1197 0.929 . S
C1207 C1205 1.433 . S
C1207 N1210 1.384 . S
C1208 H1199 0.929 . S
C1208 C1200 1.378 . S
C1208 C1203 1.350 . S
C1209 H1196 0.929 . S
C1209 C1201 1.433 . S
C1209 N1211 1.384 . S
N1210 C1206 1.427 . S
N1210 C1207 1.384 . S
N1211 C1203 1.427 . S
N1211 C1209 1.384 . S
H1212 C1218 0.930 . S
H1213 C1222 0.930 . S
H1214 C1227 0.929 . S
H1215 C1225 0.929 . S
H1216 C1220 0.929 . S
H1217 C1226 0.929 . S
C1218 H1212 0.930 . S
C1218 C1219 1.367 . S
C1218 C1226 1.378 . S
C1219 C1218 1.367 . S
C1219 C1227 1.433 . S
C1220 H1216 0.929 . S
C1220 C1222 1.378 . S
C1220 C1224 1.350 . S
C1221 C1224 1.463 . S
C1221 C1226 1.350 . S
C1221 N1229 1.427 . S
C1222 H1213 0.930 . S
C1222 C1220 1.378 . S
C1222 C1223 1.367 . S
C1223 C1222 1.367 . S
C1223 C1225 1.433 . S
C1224 C1220 1.350 . S
C1224 C1221 1.463 . S
C1224 N1228 1.427 . S
C1225 H1215 0.929 . S
C1225 C1223 1.433 . S
C1225 N1228 1.384 . S
C1226 H1217 0.929 . S
C1226 C1218 1.378 . S
C1226 C1221 1.350 . S
C1227 H1214 0.929 . S
C1227 C1219 1.433 . S
C1227 N1229 1.384 . S
N1228 C1224 1.427 . S
N1228 C1225 1.384 . S
N1229 C1221 1.427 . S
N1229 C1227 1.384 . S
H1230 C1236 0.930 . S
H1231 C1240 0.930 . S
H1232 C1245 0.929 . S
H1233 C1243 0.929 . S
H1234 C1238 0.929 . S
H1235 C1244 0.929 . S
C1236 H1230 0.930 . S
C1236 C1237 1.367 . S
C1236 C1244 1.378 . S
C1237 C1236 1.367 . S
C1237 C1245 1.433 . S
C1238 H1234 0.929 . S
C1238 C1240 1.378 . S
C1238 C1242 1.350 . S
C1239 C1242 1.463 . S
C1239 C1244 1.350 . S
C1239 N1247 1.427 . S
C1240 H1231 0.930 . S
C1240 C1238 1.378 . S
C1240 C1241 1.367 . S
C1241 C1240 1.367 . S
C1241 C1243 1.433 . S
C1242 C1238 1.350 . S
C1242 C1239 1.463 . S
C1242 N1246 1.427 . S
C1243 H1233 0.929 . S
C1243 C1241 1.433 . S
C1243 N1246 1.384 . S
C1244 H1235 0.929 . S
C1244 C1236 1.378 . S
C1244 C1239 1.350 . S
C1245 H1232 0.929 . S
C1245 C1237 1.433 . S
C1245 N1247 1.384 . S
N1246 C1242 1.427 . S
N1246 C1243 1.384 . S
N1247 C1239 1.427 . S
N1247 C1245 1.384 . S
H1248 C1254 0.930 . S
H1249 C1258 0.930 . S
H1250 C1263 0.929 . S
H1251 C1261 0.929 . S
H1252 C1256 0.929 . S
H1253 C1262 0.929 . S
C1254 H1248 0.930 . S
C1254 C1255 1.367 . S
C1254 C1262 1.378 . S
C1255 C1254 1.367 . S
C1255 C1263 1.433 . S
C1256 H1252 0.929 . S
C1256 C1258 1.378 . S
C1256 C1260 1.350 . S
C1257 C1260 1.463 . S
C1257 C1262 1.350 . S
C1257 N1265 1.427 . S
C1258 H1249 0.930 . S
C1258 C1256 1.378 . S
C1258 C1259 1.367 . S
C1259 C1258 1.367 . S
C1259 C1261 1.433 . S
C1260 C1256 1.350 . S
C1260 C1257 1.463 . S
C1260 N1264 1.427 . S
C1261 H1251 0.929 . S
C1261 C1259 1.433 . S
C1261 N1264 1.384 . S
C1262 H1253 0.929 . S
C1262 C1254 1.378 . S
C1262 C1257 1.350 . S
C1263 H1250 0.929 . S
C1263 C1255 1.433 . S
C1263 N1265 1.384 . S
N1264 C1260 1.427 . S
N1264 C1261 1.384 . S
N1265 C1257 1.427 . S
N1265 C1263 1.384 . S
H1266 C1272 0.930 . S
H1267 C1276 0.930 . S
H1268 C1281 0.929 . S
H1269 C1279 0.929 . S
H1270 C1274 0.929 . S
H1271 C1280 0.929 . S
C1272 H1266 0.930 . S
C1272 C1273 1.367 . S
C1272 C1280 1.378 . S
C1273 C1272 1.367 . S
C1273 C1281 1.433 . S
C1274 H1270 0.929 . S
C1274 C1276 1.378 . S
C1274 C1278 1.350 . S
C1275 C1278 1.463 . S
C1275 C1280 1.350 . S
C1275 N1283 1.427 . S
C1276 H1267 0.930 . S
C1276 C1274 1.378 . S
C1276 C1277 1.367 . S
C1277 C1276 1.367 . S
C1277 C1279 1.433 . S
C1278 C1274 1.350 . S
C1278 C1275 1.463 . S
C1278 N1282 1.427 . S
C1279 H1269 0.929 . S
C1279 C1277 1.433 . S
C1279 N1282 1.384 . S
C1280 H1271 0.929 . S
C1280 C1272 1.378 . S
C1280 C1275 1.350 . S
C1281 H1268 0.929 . S
C1281 C1273 1.433 . S
C1281 N1283 1.384 . S
N1282 C1278 1.427 . S
N1282 C1279 1.384 . S
N1283 C1275 1.427 . S
N1283 C1281 1.384 . S
H1284 C1290 0.930 . S
H1285 C1294 0.930 . S
H1286 C1299 0.929 . S
H1287 C1297 0.929 . S
H1288 C1292 0.929 . S
H1289 C1298 0.929 . S
C1290 H1284 0.930 . S
C1290 C1291 1.367 . S
C1290 C1298 1.378 . S
C1291 C1290 1.367 . S
C1291 C1299 1.433 . S
C1292 H1288 0.929 . S
C1292 C1294 1.378 . S
C1292 C1296 1.350 . S
C1293 C1296 1.463 . S
C1293 C1298 1.350 . S
C1293 N1301 1.427 . S
C1294 H1285 0.930 . S
C1294 C1292 1.378 . S
C1294 C1295 1.367 . S
C1295 C1294 1.367 . S
C1295 C1297 1.433 . S
C1296 C1292 1.350 . S
C1296 C1293 1.463 . S
C1296 N1300 1.427 . S
C1297 H1287 0.929 . S
C1297 C1295 1.433 . S
C1297 N1300 1.384 . S
C1298 H1289 0.929 . S
C1298 C1290 1.378 . S
C1298 C1293 1.350 . S
C1299 H1286 0.929 . S
C1299 C1291 1.433 . S
C1299 N1301 1.384 . S
N1300 C1296 1.427 . S
N1300 C1297 1.384 . S
N1301 C1293 1.427 . S
N1301 C1299 1.384 . S
H1302 C1308 0.930 . S
H1303 C1312 0.930 . S
H1304 C1317 0.929 . S
H1305 C1315 0.929 . S
H1306 C1310 0.929 . S
H1307 C1316 0.929 . S
C1308 H1302 0.930 . S
C1308 C1309 1.367 . S
C1308 C1316 1.378 . S
C1309 C1308 1.367 . S
C1309 C1317 1.433 . S
C1310 H1306 0.929 . S
C1310 C1312 1.378 . S
C1310 C1314 1.350 . S
C1311 C1314 1.463 . S
C1311 C1316 1.350 . S
C1311 N1319 1.427 . S
C1312 H1303 0.930 . S
C1312 C1310 1.378 . S
C1312 C1313 1.367 . S
C1313 C1312 1.367 . S
C1313 C1315 1.433 . S
C1314 C1310 1.350 . S
C1314 C1311 1.463 . S
C1314 N1318 1.427 . S
C1315 H1305 0.929 . S
C1315 C1313 1.433 . S
C1315 N1318 1.384 . S
C1316 H1307 0.929 . S
C1316 C1308 1.378 . S
C1316 C1311 1.350 . S
C1317 H1304 0.929 . S
C1317 C1309 1.433 . S
C1317 N1319 1.384 . S
N1318 C1314 1.427 . S
N1318 C1315 1.384 . S
N1319 C1311 1.427 . S
N1319 C1317 1.384 . S
H1320 C1326 0.930 . S
H1321 C1330 0.930 . S
H1322 C1335 0.929 . S
H1323 C1333 0.929 . S
H1324 C1328 0.929 . S
H1325 C1334 0.929 . S
C1326 H1320 0.930 . S
C1326 C1327 1.367 . S
C1326 C1334 1.378 . S
C1327 C1326 1.367 . S
C1327 C1335 1.433 . S
C1328 H1324 0.929 . S
C1328 C1330 1.378 . S
C1328 C1332 1.350 . S
C1329 C1332 1.463 . S
C1329 C1334 1.350 . S
C1329 N1337 1.427 . S
C1330 H1321 0.930 . S
C1330 C1328 1.378 . S
C1330 C1331 1.367 . S
C1331 C1330 1.367 . S
C1331 C1333 1.433 . S
C1332 C1328 1.350 . S
C1332 C1329 1.463 . S
C1332 N1336 1.427 . S
C1333 H1323 0.929 . S
C1333 C1331 1.433 . S
C1333 N1336 1.384 . S
C1334 H1325 0.929 . S
C1334 C1326 1.378 . S
C1334 C1329 1.350 . S
C1335 H1322 0.929 . S
C1335 C1327 1.433 . S
C1335 N1337 1.384 . S
N1336 C1332 1.427 . S
N1336 C1333 1.384 . S
N1337 C1329 1.427 . S
N1337 C1335 1.384 . S
H1338 C1344 0.930 . S
H1339 C1348 0.930 . S
H1340 C1353 0.929 . S
H1341 C1351 0.929 . S
H1342 C1346 0.929 . S
H1343 C1352 0.929 . S
C1344 H1338 0.930 . S
C1344 C1345 1.367 . S
C1344 C1352 1.378 . S
C1345 C1344 1.367 . S
C1345 C1353 1.433 . S
C1346 H1342 0.929 . S
C1346 C1348 1.378 . S
C1346 C1350 1.350 . S
C1347 C1350 1.463 . S
C1347 C1352 1.350 . S
C1347 N1355 1.427 . S
C1348 H1339 0.930 . S
C1348 C1346 1.378 . S
C1348 C1349 1.367 . S
C1349 C1348 1.367 . S
C1349 C1351 1.433 . S
C1350 C1346 1.350 . S
C1350 C1347 1.463 . S
C1350 N1354 1.427 . S
C1351 H1341 0.929 . S
C1351 C1349 1.433 . S
C1351 N1354 1.384 . S
C1352 H1343 0.929 . S
C1352 C1344 1.378 . S
C1352 C1347 1.350 . S
C1353 H1340 0.929 . S
C1353 C1345 1.433 . S
C1353 N1355 1.384 . S
N1354 C1350 1.427 . S
N1354 C1351 1.384 . S
N1355 C1347 1.427 . S
N1355 C1353 1.384 . S
H1356 C1362 0.930 . S
H1357 C1366 0.930 . S
H1358 C1371 0.929 . S
H1359 C1369 0.929 . S
H1360 C1364 0.929 . S
H1361 C1370 0.929 . S
C1362 H1356 0.930 . S
C1362 C1363 1.367 . S
C1362 C1370 1.378 . S
C1363 C1362 1.367 . S
C1363 C1371 1.433 . S
C1364 H1360 0.929 . S
C1364 C1366 1.378 . S
C1364 C1368 1.350 . S
C1365 C1368 1.463 . S
C1365 C1370 1.350 . S
C1365 N1373 1.427 . S
C1366 H1357 0.930 . S
C1366 C1364 1.378 . S
C1366 C1367 1.367 . S
C1367 C1366 1.367 . S
C1367 C1369 1.433 . S
C1368 C1364 1.350 . S
C1368 C1365 1.463 . S
C1368 N1372 1.427 . S
C1369 H1359 0.929 . S
C1369 C1367 1.433 . S
C1369 N1372 1.384 . S
C1370 H1361 0.929 . S
C1370 C1362 1.378 . S
C1370 C1365 1.350 . S
C1371 H1358 0.929 . S
C1371 C1363 1.433 . S
C1371 N1373 1.384 . S
N1372 C1368 1.427 . S
N1372 C1369 1.384 . S
N1373 C1365 1.427 . S
N1373 C1371 1.384 . S
H1374 C1380 0.930 . S
H1375 C1384 0.930 . S
H1376 C1389 0.929 . S
H1377 C1387 0.929 . S
H1378 C1382 0.929 . S
H1379 C1388 0.929 . S
C1380 H1374 0.930 . S
C1380 C1381 1.367 . S
C1380 C1388 1.378 . S
C1381 C1380 1.367 . S
C1381 C1389 1.433 . S
C1382 H1378 0.929 . S
C1382 C1384 1.378 . S
C1382 C1386 1.350 . S
C1383 C1386 1.463 . S
C1383 C1388 1.350 . S
C1383 N1391 1.427 . S
C1384 H1375 0.930 . S
C1384 C1382 1.378 . S
C1384 C1385 1.367 . S
C1385 C1384 1.367 . S
C1385 C1387 1.433 . S
C1386 C1382 1.350 . S
C1386 C1383 1.463 . S
C1386 N1390 1.427 . S
C1387 H1377 0.929 . S
C1387 C1385 1.433 . S
C1387 N1390 1.384 . S
C1388 H1379 0.929 . S
C1388 C1380 1.378 . S
C1388 C1383 1.350 . S
C1389 H1376 0.929 . S
C1389 C1381 1.433 . S
C1389 N1391 1.384 . S
N1390 C1386 1.427 . S
N1390 C1387 1.384 . S
N1391 C1383 1.427 . S
N1391 C1389 1.384 . S
H1392 C1398 0.930 . S
H1393 C1402 0.930 . S
H1394 C1407 0.929 . S
H1395 C1405 0.929 . S
H1396 C1400 0.929 . S
H1397 C1406 0.929 . S
C1398 H1392 0.930 . S
C1398 C1399 1.367 . S
C1398 C1406 1.378 . S
C1399 C1398 1.367 . S
C1399 C1407 1.433 . S
C1400 H1396 0.929 . S
C1400 C1402 1.378 . S
C1400 C1404 1.350 . S
C1401 C1404 1.463 . S
C1401 C1406 1.350 . S
C1401 N1409 1.427 . S
C1402 H1393 0.930 . S
C1402 C1400 1.378 . S
C1402 C1403 1.367 . S
C1403 C1402 1.367 . S
C1403 C1405 1.433 . S
C1404 C1400 1.350 . S
C1404 C1401 1.463 . S
C1404 N1408 1.427 . S
C1405 H1395 0.929 . S
C1405 C1403 1.433 . S
C1405 N1408 1.384 . S
C1406 H1397 0.929 . S
C1406 C1398 1.378 . S
C1406 C1401 1.350 . S
C1407 H1394 0.929 . S
C1407 C1399 1.433 . S
C1407 N1409 1.384 . S
N1408 C1404 1.427 . S
N1408 C1405 1.384 . S
N1409 C1401 1.427 . S
N1409 C1407 1.384 . S
H1410 C1416 0.930 . S
H1411 C1420 0.930 . S
H1412 C1425 0.929 . S
H1413 C1423 0.929 . S
H1414 C1418 0.929 . S
H1415 C1424 0.929 . S
C1416 H1410 0.930 . S
C1416 C1417 1.367 . S
C1416 C1424 1.378 . S
C1417 C1416 1.367 . S
C1417 C1425 1.433 . S
C1418 H1414 0.929 . S
C1418 C1420 1.378 . S
C1418 C1422 1.350 . S
C1419 C1422 1.463 . S
C1419 C1424 1.350 . S
C1419 N1427 1.427 . S
C1420 H1411 0.930 . S
C1420 C1418 1.378 . S
C1420 C1421 1.367 . S
C1421 C1420 1.367 . S
C1421 C1423 1.433 . S
C1422 C1418 1.350 . S
C1422 C1419 1.463 . S
C1422 N1426 1.427 . S
C1423 H1413 0.929 . S
C1423 C1421 1.433 . S
C1423 N1426 1.384 . S
C1424 H1415 0.929 . S
C1424 C1416 1.378 . S
C1424 C1419 1.350 . S
C1425 H1412 0.929 . S
C1425 C1417 1.433 . S
C1425 N1427 1.384 . S
N1426 C1422 1.427 . S
N1426 C1423 1.384 . S
N1427 C1419 1.427 . S
N1427 C1425 1.384 . S
H1428 C1434 0.930 . S
H1429 C1438 0.930 . S
H1430 C1443 0.929 . S
H1431 C1441 0.929 . S
H1432 C1436 0.929 . S
H1433 C1442 0.929 . S
C1434 H1428 0.930 . S
C1434 C1435 1.367 . S
C1434 C1442 1.378 . S
C1435 C1434 1.367 . S
C1435 C1443 1.433 . S
C1436 H1432 0.929 . S
C1436 C1438 1.378 . S
C1436 C1440 1.350 . S
C1437 C1440 1.463 . S
C1437 C1442 1.350 . S
C1437 N1445 1.427 . S
C1438 H1429 0.930 . S
C1438 C1436 1.378 . S
C1438 C1439 1.367 . S
C1439 C1438 1.367 . S
C1439 C1441 1.433 . S
C1440 C1436 1.350 . S
C1440 C1437 1.463 . S
C1440 N1444 1.427 . S
C1441 H1431 0.929 . S
C1441 C1439 1.433 . S
C1441 N1444 1.384 . S
C1442 H1433 0.929 . S
C1442 C1434 1.378 . S
C1442 C1437 1.350 . S
C1443 H1430 0.929 . S
C1443 C1435 1.433 . S
C1443 N1445 1.384 . S
N1444 C1440 1.427 . S
N1444 C1441 1.384 . S
N1445 C1437 1.427 . S
N1445 C1443 1.384 . S
H1446 C1452 0.930 . S
H1447 C1456 0.930 . S
H1448 C1461 0.929 . S
H1449 C1459 0.929 . S
H1450 C1454 0.929 . S
H1451 C1460 0.929 . S
C1452 H1446 0.930 . S
C1452 C1453 1.367 . S
C1452 C1460 1.378 . S
C1453 C1452 1.367 . S
C1453 C1461 1.433 . S
C1454 H1450 0.929 . S
C1454 C1456 1.378 . S
C1454 C1458 1.350 . S
C1455 C1458 1.463 . S
C1455 C1460 1.350 . S
C1455 N1463 1.427 . S
C1456 H1447 0.930 . S
C1456 C1454 1.378 . S
C1456 C1457 1.367 . S
C1457 C1456 1.367 . S
C1457 C1459 1.433 . S
C1458 C1454 1.350 . S
C1458 C1455 1.463 . S
C1458 N1462 1.427 . S
C1459 H1449 0.929 . S
C1459 C1457 1.433 . S
C1459 N1462 1.384 . S
C1460 H1451 0.929 . S
C1460 C1452 1.378 . S
C1460 C1455 1.350 . S
C1461 H1448 0.929 . S
C1461 C1453 1.433 . S
C1461 N1463 1.384 . S
N1462 C1458 1.427 . S
N1462 C1459 1.384 . S
N1463 C1455 1.427 . S
N1463 C1461 1.384 . S
H1464 C1470 0.930 . S
H1465 C1474 0.930 . S
H1466 C1479 0.929 . S
H1467 C1477 0.929 . S
H1468 C1472 0.929 . S
H1469 C1478 0.929 . S
C1470 H1464 0.930 . S
C1470 C1471 1.367 . S
C1470 C1478 1.378 . S
C1471 C1470 1.367 . S
C1471 C1479 1.433 . S
C1472 H1468 0.929 . S
C1472 C1474 1.378 . S
C1472 C1476 1.350 . S
C1473 C1476 1.463 . S
C1473 C1478 1.350 . S
C1473 N1481 1.427 . S
C1474 H1465 0.930 . S
C1474 C1472 1.378 . S
C1474 C1475 1.367 . S
C1475 C1474 1.367 . S
C1475 C1477 1.433 . S
C1476 C1472 1.350 . S
C1476 C1473 1.463 . S
C1476 N1480 1.427 . S
C1477 H1467 0.929 . S
C1477 C1475 1.433 . S
C1477 N1480 1.384 . S
C1478 H1469 0.929 . S
C1478 C1470 1.378 . S
C1478 C1473 1.350 . S
C1479 H1466 0.929 . S
C1479 C1471 1.433 . S
C1479 N1481 1.384 . S
N1480 C1476 1.427 . S
N1480 C1477 1.384 . S
N1481 C1473 1.427 . S
N1481 C1479 1.384 . S
H1482 C1488 0.930 . S
H1483 C1492 0.930 . S
H1484 C1497 0.929 . S
H1485 C1495 0.929 . S
H1486 C1490 0.929 . S
H1487 C1496 0.929 . S
C1488 H1482 0.930 . S
C1488 C1489 1.367 . S
C1488 C1496 1.378 . S
C1489 C1488 1.367 . S
C1489 C1497 1.433 . S
C1490 H1486 0.929 . S
C1490 C1492 1.378 . S
C1490 C1494 1.350 . S
C1491 C1494 1.463 . S
C1491 C1496 1.350 . S
C1491 N1499 1.427 . S
C1492 H1483 0.930 . S
C1492 C1490 1.378 . S
C1492 C1493 1.367 . S
C1493 C1492 1.367 . S
C1493 C1495 1.433 . S
C1494 C1490 1.350 . S
C1494 C1491 1.463 . S
C1494 N1498 1.427 . S
C1495 H1485 0.929 . S
C1495 C1493 1.433 . S
C1495 N1498 1.384 . S
C1496 H1487 0.929 . S
C1496 C1488 1.378 . S
C1496 C1491 1.350 . S
C1497 H1484 0.929 . S
C1497 C1489 1.433 . S
C1497 N1499 1.384 . S
N1498 C1494 1.427 . S
N1498 C1495 1.384 . S
N1499 C1491 1.427 . S
N1499 C1497 1.384 . S
H1500 C1506 0.930 . S
H1501 C1510 0.930 . S
H1502 C1515 0.929 . S
H1503 C1513 0.929 . S
H1504 C1508 0.929 . S
H1505 C1514 0.929 . S
C1506 H1500 0.930 . S
C1506 C1507 1.367 . S
C1506 C1514 1.378 . S
C1507 C1506 1.367 . S
C1507 C1515 1.433 . S
C1508 H1504 0.929 . S
C1508 C1510 1.378 . S
C1508 C1512 1.350 . S
C1509 C1512 1.463 . S
C1509 C1514 1.350 . S
C1509 N1517 1.427 . S
C1510 H1501 0.930 . S
C1510 C1508 1.378 . S
C1510 C1511 1.367 . S
C1511 C1510 1.367 . S
C1511 C1513 1.433 . S
C1512 C1508 1.350 . S
C1512 C1509 1.463 . S
C1512 N1516 1.427 . S
C1513 H1503 0.929 . S
C1513 C1511 1.433 . S
C1513 N1516 1.384 . S
C1514 H1505 0.929 . S
C1514 C1506 1.378 . S
C1514 C1509 1.350 . S
C1515 H1502 0.929 . S
C1515 C1507 1.433 . S
C1515 N1517 1.384 . S
N1516 C1512 1.427 . S
N1516 C1513 1.384 . S
N1517 C1509 1.427 . S
N1517 C1515 1.384 . S
H1518 C1524 0.930 . S
H1519 C1528 0.930 . S
H1520 C1533 0.929 . S
H1521 C1531 0.929 . S
H1522 C1526 0.929 . S
H1523 C1532 0.929 . S
C1524 H1518 0.930 . S
C1524 C1525 1.367 . S
C1524 C1532 1.378 . S
C1525 C1524 1.367 . S
C1525 C1533 1.433 . S
C1526 H1522 0.929 . S
C1526 C1528 1.378 . S
C1526 C1530 1.350 . S
C1527 C1530 1.463 . S
C1527 C1532 1.350 . S
C1527 N1535 1.427 . S
C1528 H1519 0.930 . S
C1528 C1526 1.378 . S
C1528 C1529 1.367 . S
C1529 C1528 1.367 . S
C1529 C1531 1.433 . S
C1530 C1526 1.350 . S
C1530 C1527 1.463 . S
C1530 N1534 1.427 . S
C1531 H1521 0.929 . S
C1531 C1529 1.433 . S
C1531 N1534 1.384 . S
C1532 H1523 0.929 . S
C1532 C1524 1.378 . S
C1532 C1527 1.350 . S
C1533 H1520 0.929 . S
C1533 C1525 1.433 . S
C1533 N1535 1.384 . S
N1534 C1530 1.427 . S
N1534 C1531 1.384 . S
N1535 C1527 1.427 . S
N1535 C1533 1.384 . S
H1536 C1542 0.930 . S
H1537 C1546 0.930 . S
H1538 C1551 0.929 . S
H1539 C1549 0.929 . S
H1540 C1544 0.929 . S
H1541 C1550 0.929 . S
C1542 H1536 0.930 . S
C1542 C1543 1.367 . S
C1542 C1550 1.378 . S
C1543 C1542 1.367 . S
C1543 C1551 1.433 . S
C1544 H1540 0.929 . S
C1544 C1546 1.378 . S
C1544 C1548 1.350 . S
C1545 C1548 1.463 . S
C1545 C1550 1.350 . S
C1545 N1553 1.427 . S
C1546 H1537 0.930 . S
C1546 C1544 1.378 . S
C1546 C1547 1.367 . S
C1547 C1546 1.367 . S
C1547 C1549 1.433 . S
C1548 C1544 1.350 . S
C1548 C1545 1.463 . S
C1548 N1552 1.427 . S
C1549 H1539 0.929 . S
C1549 C1547 1.433 . S
C1549 N1552 1.384 . S
C1550 H1541 0.929 . S
C1550 C1542 1.378 . S
C1550 C1545 1.350 . S
C1551 H1538 0.929 . S
C1551 C1543 1.433 . S
C1551 N1553 1.384 . S
N1552 C1548 1.427 . S
N1552 C1549 1.384 . S
N1553 C1545 1.427 . S
N1553 C1551 1.384 . S
H1554 C1560 0.930 . S
H1555 C1564 0.930 . S
H1556 C1569 0.929 . S
H1557 C1567 0.929 . S
H1558 C1562 0.929 . S
H1559 C1568 0.929 . S
C1560 H1554 0.930 . S
C1560 C1561 1.367 . S
C1560 C1568 1.378 . S
C1561 C1560 1.367 . S
C1561 C1569 1.433 . S
C1562 H1558 0.929 . S
C1562 C1564 1.378 . S
C1562 C1566 1.350 . S
C1563 C1566 1.463 . S
C1563 C1568 1.350 . S
C1563 N1571 1.427 . S
C1564 H1555 0.930 . S
C1564 C1562 1.378 . S
C1564 C1565 1.367 . S
C1565 C1564 1.367 . S
C1565 C1567 1.433 . S
C1566 C1562 1.350 . S
C1566 C1563 1.463 . S
C1566 N1570 1.427 . S
C1567 H1557 0.929 . S
C1567 C1565 1.433 . S
C1567 N1570 1.384 . S
C1568 H1559 0.929 . S
C1568 C1560 1.378 . S
C1568 C1563 1.350 . S
C1569 H1556 0.929 . S
C1569 C1561 1.433 . S
C1569 N1571 1.384 . S
N1570 C1566 1.427 . S
N1570 C1567 1.384 . S
N1571 C1563 1.427 . S
N1571 C1569 1.384 . S
H1572 C1578 0.930 . S
H1573 C1582 0.930 . S
H1574 C1587 0.929 . S
H1575 C1585 0.929 . S
H1576 C1580 0.929 . S
H1577 C1586 0.929 . S
C1578 H1572 0.930 . S
C1578 C1579 1.367 . S
C1578 C1586 1.378 . S
C1579 C1578 1.367 . S
C1579 C1587 1.433 . S
C1580 H1576 0.929 . S
C1580 C1582 1.378 . S
C1580 C1584 1.350 . S
C1581 C1584 1.463 . S
C1581 C1586 1.350 . S
C1581 N1589 1.427 . S
C1582 H1573 0.930 . S
C1582 C1580 1.378 . S
C1582 C1583 1.367 . S
C1583 C1582 1.367 . S
C1583 C1585 1.433 . S
C1584 C1580 1.350 . S
C1584 C1581 1.463 . S
C1584 N1588 1.427 . S
C1585 H1575 0.929 . S
C1585 C1583 1.433 . S
C1585 N1588 1.384 . S
C1586 H1577 0.929 . S
C1586 C1578 1.378 . S
C1586 C1581 1.350 . S
C1587 H1574 0.929 . S
C1587 C1579 1.433 . S
C1587 N1589 1.384 . S
N1588 C1584 1.427 . S
N1588 C1585 1.384 . S
N1589 C1581 1.427 . S
N1589 C1587 1.384 . S
H1590 C1596 0.930 . S
H1591 C1600 0.930 . S
H1592 C1605 0.929 . S
H1593 C1603 0.929 . S
H1594 C1598 0.929 . S
H1595 C1604 0.929 . S
C1596 H1590 0.930 . S
C1596 C1597 1.367 . S
C1596 C1604 1.378 . S
C1597 C1596 1.367 . S
C1597 C1605 1.433 . S
C1598 H1594 0.929 . S
C1598 C1600 1.378 . S
C1598 C1602 1.350 . S
C1599 C1602 1.463 . S
C1599 C1604 1.350 . S
C1599 N1607 1.427 . S
C1600 H1591 0.930 . S
C1600 C1598 1.378 . S
C1600 C1601 1.367 . S
C1601 C1600 1.367 . S
C1601 C1603 1.433 . S
C1602 C1598 1.350 . S
C1602 C1599 1.463 . S
C1602 N1606 1.427 . S
C1603 H1593 0.929 . S
C1603 C1601 1.433 . S
C1603 N1606 1.384 . S
C1604 H1595 0.929 . S
C1604 C1596 1.378 . S
C1604 C1599 1.350 . S
C1605 H1592 0.929 . S
C1605 C1597 1.433 . S
C1605 N1607 1.384 . S
N1606 C1602 1.427 . S
N1606 C1603 1.384 . S
N1607 C1599 1.427 . S
N1607 C1605 1.384 . S
H1608 C1614 0.930 . S
H1609 C1618 0.930 . S
H1610 C1623 0.929 . S
H1611 C1621 0.929 . S
H1612 C1616 0.929 . S
H1613 C1622 0.929 . S
C1614 H1608 0.930 . S
C1614 C1615 1.367 . S
C1614 C1622 1.378 . S
C1615 C1614 1.367 . S
C1615 C1623 1.433 . S
C1616 H1612 0.929 . S
C1616 C1618 1.378 . S
C1616 C1620 1.350 . S
C1617 C1620 1.463 . S
C1617 C1622 1.350 . S
C1617 N1625 1.427 . S
C1618 H1609 0.930 . S
C1618 C1616 1.378 . S
C1618 C1619 1.367 . S
C1619 C1618 1.367 . S
C1619 C1621 1.433 . S
C1620 C1616 1.350 . S
C1620 C1617 1.463 . S
C1620 N1624 1.427 . S
C1621 H1611 0.929 . S
C1621 C1619 1.433 . S
C1621 N1624 1.384 . S
C1622 H1613 0.929 . S
C1622 C1614 1.378 . S
C1622 C1617 1.350 . S
C1623 H1610 0.929 . S
C1623 C1615 1.433 . S
C1623 N1625 1.384 . S
N1624 C1620 1.427 . S
N1624 C1621 1.384 . S
N1625 C1617 1.427 . S
N1625 C1623 1.384 . S
H1626 C1632 0.930 . S
H1627 C1636 0.930 . S
H1628 C1641 0.929 . S
H1629 C1639 0.929 . S
H1630 C1634 0.929 . S
H1631 C1640 0.929 . S
C1632 H1626 0.930 . S
C1632 C1633 1.367 . S
C1632 C1640 1.378 . S
C1633 C1632 1.367 . S
C1633 C1641 1.433 . S
C1634 H1630 0.929 . S
C1634 C1636 1.378 . S
C1634 C1638 1.350 . S
C1635 C1638 1.463 . S
C1635 C1640 1.350 . S
C1635 N1643 1.427 . S
C1636 H1627 0.930 . S
C1636 C1634 1.378 . S
C1636 C1637 1.367 . S
C1637 C1636 1.367 . S
C1637 C1639 1.433 . S
C1638 C1634 1.350 . S
C1638 C1635 1.463 . S
C1638 N1642 1.427 . S
C1639 H1629 0.929 . S
C1639 C1637 1.433 . S
C1639 N1642 1.384 . S
C1640 H1631 0.929 . S
C1640 C1632 1.378 . S
C1640 C1635 1.350 . S
C1641 H1628 0.929 . S
C1641 C1633 1.433 . S
C1641 N1643 1.384 . S
N1642 C1638 1.427 . S
N1642 C1639 1.384 . S
N1643 C1635 1.427 . S
N1643 C1641 1.384 . S
H1644 C1650 0.930 . S
H1645 C1654 0.930 . S
H1646 C1659 0.929 . S
H1647 C1657 0.929 . S
H1648 C1652 0.929 . S
H1649 C1658 0.929 . S
C1650 H1644 0.930 . S
C1650 C1651 1.367 . S
C1650 C1658 1.378 . S
C1651 C1650 1.367 . S
C1651 C1659 1.433 . S
C1652 H1648 0.929 . S
C1652 C1654 1.378 . S
C1652 C1656 1.350 . S
C1653 C1656 1.463 . S
C1653 C1658 1.350 . S
C1653 N1661 1.427 . S
C1654 H1645 0.930 . S
C1654 C1652 1.378 . S
C1654 C1655 1.367 . S
C1655 C1654 1.367 . S
C1655 C1657 1.433 . S
C1656 C1652 1.350 . S
C1656 C1653 1.463 . S
C1656 N1660 1.427 . S
C1657 H1647 0.929 . S
C1657 C1655 1.433 . S
C1657 N1660 1.384 . S
C1658 H1649 0.929 . S
C1658 C1650 1.378 . S
C1658 C1653 1.350 . S
C1659 H1646 0.929 . S
C1659 C1651 1.433 . S
C1659 N1661 1.384 . S
N1660 C1656 1.427 . S
N1660 C1657 1.384 . S
N1661 C1653 1.427 . S
N1661 C1659 1.384 . S
H1662 C1668 0.930 . S
H1663 C1672 0.930 . S
H1664 C1677 0.929 . S
H1665 C1675 0.929 . S
H1666 C1670 0.929 . S
H1667 C1676 0.929 . S
C1668 H1662 0.930 . S
C1668 C1669 1.367 . S
C1668 C1676 1.378 . S
C1669 C1668 1.367 . S
C1669 C1677 1.433 . S
C1670 H1666 0.929 . S
C1670 C1672 1.378 . S
C1670 C1674 1.350 . S
C1671 C1674 1.463 . S
C1671 C1676 1.350 . S
C1671 N1679 1.427 . S
C1672 H1663 0.930 . S
C1672 C1670 1.378 . S
C1672 C1673 1.367 . S
C1673 C1672 1.367 . S
C1673 C1675 1.433 . S
C1674 C1670 1.350 . S
C1674 C1671 1.463 . S
C1674 N1678 1.427 . S
C1675 H1665 0.929 . S
C1675 C1673 1.433 . S
C1675 N1678 1.384 . S
C1676 H1667 0.929 . S
C1676 C1668 1.378 . S
C1676 C1671 1.350 . S
C1677 H1664 0.929 . S
C1677 C1669 1.433 . S
C1677 N1679 1.384 . S
N1678 C1674 1.427 . S
N1678 C1675 1.384 . S
N1679 C1671 1.427 . S
N1679 C1677 1.384 . S
H1680 C1686 0.930 . S
H1681 C1690 0.930 . S
H1682 C1695 0.929 . S
H1683 C1693 0.929 . S
H1684 C1688 0.929 . S
H1685 C1694 0.929 . S
C1686 H1680 0.930 . S
C1686 C1687 1.367 . S
C1686 C1694 1.378 . S
C1687 C1686 1.367 . S
C1687 C1695 1.433 . S
C1688 H1684 0.929 . S
C1688 C1690 1.378 . S
C1688 C1692 1.350 . S
C1689 C1692 1.463 . S
C1689 C1694 1.350 . S
C1689 N1697 1.427 . S
C1690 H1681 0.930 . S
C1690 C1688 1.378 . S
C1690 C1691 1.367 . S
C1691 C1690 1.367 . S
C1691 C1693 1.433 . S
C1692 C1688 1.350 . S
C1692 C1689 1.463 . S
C1692 N1696 1.427 . S
C1693 H1683 0.929 . S
C1693 C1691 1.433 . S
C1693 N1696 1.384 . S
C1694 H1685 0.929 . S
C1694 C1686 1.378 . S
C1694 C1689 1.350 . S
C1695 H1682 0.929 . S
C1695 C1687 1.433 . S
C1695 N1697 1.384 . S
N1696 C1692 1.427 . S
N1696 C1693 1.384 . S
N1697 C1689 1.427 . S
N1697 C1695 1.384 . S
H1698 C1704 0.930 . S
H1699 C1708 0.930 . S
H1700 C1713 0.929 . S
H1701 C1711 0.929 . S
H1702 C1706 0.929 . S
H1703 C1712 0.929 . S
C1704 H1698 0.930 . S
C1704 C1705 1.367 . S
C1704 C1712 1.378 . S
C1705 C1704 1.367 . S
C1705 C1713 1.433 . S
C1706 H1702 0.929 . S
C1706 C1708 1.378 . S
C1706 C1710 1.350 . S
C1707 C1710 1.463 . S
C1707 C1712 1.350 . S
C1707 N1715 1.427 . S
C1708 H1699 0.930 . S
C1708 C1706 1.378 . S
C1708 C1709 1.367 . S
C1709 C1708 1.367 . S
C1709 C1711 1.433 . S
C1710 C1706 1.350 . S
C1710 C1707 1.463 . S
C1710 N1714 1.427 . S
C1711 H1701 0.929 . S
C1711 C1709 1.433 . S
C1711 N1714 1.384 . S
C1712 H1703 0.929 . S
C1712 C1704 1.378 . S
C1712 C1707 1.350 . S
C1713 H1700 0.929 . S
C1713 C1705 1.433 . S
C1713 N1715 1.384 . S
N1714 C1710 1.427 . S
N1714 C1711 1.384 . S
N1715 C1707 1.427 . S
N1715 C1713 1.384 . S
H1716 C1722 0.930 . S
H1717 C1726 0.930 . S
H1718 C1731 0.929 . S
H1719 C1729 0.929 . S
H1720 C1724 0.929 . S
H1721 C1730 0.929 . S
C1722 H1716 0.930 . S
C1722 C1723 1.367 . S
C1722 C1730 1.378 . S
C1723 C1722 1.367 . S
C1723 C1731 1.433 . S
C1724 H1720 0.929 . S
C1724 C1726 1.378 . S
C1724 C1728 1.350 . S
C1725 C1728 1.463 . S
C1725 C1730 1.350 . S
C1725 N1733 1.427 . S
C1726 H1717 0.930 . S
C1726 C1724 1.378 . S
C1726 C1727 1.367 . S
C1727 C1726 1.367 . S
C1727 C1729 1.433 . S
C1728 C1724 1.350 . S
C1728 C1725 1.463 . S
C1728 N1732 1.427 . S
C1729 H1719 0.929 . S
C1729 C1727 1.433 . S
C1729 N1732 1.384 . S
C1730 H1721 0.929 . S
C1730 C1722 1.378 . S
C1730 C1725 1.350 . S
C1731 H1718 0.929 . S
C1731 C1723 1.433 . S
C1731 N1733 1.384 . S
N1732 C1728 1.427 . S
N1732 C1729 1.384 . S
N1733 C1725 1.427 . S
N1733 C1731 1.384 . S
H1734 C1740 0.930 . S
H1735 C1744 0.930 . S
H1736 C1749 0.929 . S
H1737 C1747 0.929 . S
H1738 C1742 0.929 . S
H1739 C1748 0.929 . S
C1740 H1734 0.930 . S
C1740 C1741 1.367 . S
C1740 C1748 1.378 . S
C1741 C1740 1.367 . S
C1741 C1749 1.433 . S
C1742 H1738 0.929 . S
C1742 C1744 1.378 . S
C1742 C1746 1.350 . S
C1743 C1746 1.463 . S
C1743 C1748 1.350 . S
C1743 N1751 1.427 . S
C1744 H1735 0.930 . S
C1744 C1742 1.378 . S
C1744 C1745 1.367 . S
C1745 C1744 1.367 . S
C1745 C1747 1.433 . S
C1746 C1742 1.350 . S
C1746 C1743 1.463 . S
C1746 N1750 1.427 . S
C1747 H1737 0.929 . S
C1747 C1745 1.433 . S
C1747 N1750 1.384 . S
C1748 H1739 0.929 . S
C1748 C1740 1.378 . S
C1748 C1743 1.350 . S
C1749 H1736 0.929 . S
C1749 C1741 1.433 . S
C1749 N1751 1.384 . S
N1750 C1746 1.427 . S
N1750 C1747 1.384 . S
N1751 C1743 1.427 . S
N1751 C1749 1.384 . S
H1752 C1758 0.930 . S
H1753 C1762 0.930 . S
H1754 C1767 0.929 . S
H1755 C1765 0.929 . S
H1756 C1760 0.929 . S
H1757 C1766 0.929 . S
C1758 H1752 0.930 . S
C1758 C1759 1.367 . S
C1758 C1766 1.378 . S
C1759 C1758 1.367 . S
C1759 C1767 1.433 . S
C1760 H1756 0.929 . S
C1760 C1762 1.378 . S
C1760 C1764 1.350 . S
C1761 C1764 1.463 . S
C1761 C1766 1.350 . S
C1761 N1769 1.427 . S
C1762 H1753 0.930 . S
C1762 C1760 1.378 . S
C1762 C1763 1.367 . S
C1763 C1762 1.367 . S
C1763 C1765 1.433 . S
C1764 C1760 1.350 . S
C1764 C1761 1.463 . S
C1764 N1768 1.427 . S
C1765 H1755 0.929 . S
C1765 C1763 1.433 . S
C1765 N1768 1.384 . S
C1766 H1757 0.929 . S
C1766 C1758 1.378 . S
C1766 C1761 1.350 . S
C1767 H1754 0.929 . S
C1767 C1759 1.433 . S
C1767 N1769 1.384 . S
N1768 C1764 1.427 . S
N1768 C1765 1.384 . S
N1769 C1761 1.427 . S
N1769 C1767 1.384 . S
H1770 C1776 0.930 . S
H1771 C1780 0.930 . S
H1772 C1785 0.929 . S
H1773 C1783 0.929 . S
H1774 C1778 0.929 . S
H1775 C1784 0.929 . S
C1776 H1770 0.930 . S
C1776 C1777 1.367 . S
C1776 C1784 1.378 . S
C1777 C1776 1.367 . S
C1777 C1785 1.433 . S
C1778 H1774 0.929 . S
C1778 C1780 1.378 . S
C1778 C1782 1.350 . S
C1779 C1782 1.463 . S
C1779 C1784 1.350 . S
C1779 N1787 1.427 . S
C1780 H1771 0.930 . S
C1780 C1778 1.378 . S
C1780 C1781 1.367 . S
C1781 C1780 1.367 . S
C1781 C1783 1.433 . S
C1782 C1778 1.350 . S
C1782 C1779 1.463 . S
C1782 N1786 1.427 . S
C1783 H1773 0.929 . S
C1783 C1781 1.433 . S
C1783 N1786 1.384 . S
C1784 H1775 0.929 . S
C1784 C1776 1.378 . S
C1784 C1779 1.350 . S
C1785 H1772 0.929 . S
C1785 C1777 1.433 . S
C1785 N1787 1.384 . S
N1786 C1782 1.427 . S
N1786 C1783 1.384 . S
N1787 C1779 1.427 . S
N1787 C1785 1.384 . S
H1788 C1794 0.930 . S
H1789 C1798 0.930 . S
H1790 C1803 0.929 . S
H1791 C1801 0.929 . S
H1792 C1796 0.929 . S
H1793 C1802 0.929 . S
C1794 H1788 0.930 . S
C1794 C1795 1.367 . S
C1794 C1802 1.378 . S
C1795 C1794 1.367 . S
C1795 C1803 1.433 . S
C1796 H1792 0.929 . S
C1796 C1798 1.378 . S
C1796 C1800 1.350 . S
C1797 C1800 1.463 . S
C1797 C1802 1.350 . S
C1797 N1805 1.427 . S
C1798 H1789 0.930 . S
C1798 C1796 1.378 . S
C1798 C1799 1.367 . S
C1799 C1798 1.367 . S
C1799 C1801 1.433 . S
C1800 C1796 1.350 . S
C1800 C1797 1.463 . S
C1800 N1804 1.427 . S
C1801 H1791 0.929 . S
C1801 C1799 1.433 . S
C1801 N1804 1.384 . S
C1802 H1793 0.929 . S
C1802 C1794 1.378 . S
C1802 C1797 1.350 . S
C1803 H1790 0.929 . S
C1803 C1795 1.433 . S
C1803 N1805 1.384 . S
N1804 C1800 1.427 . S
N1804 C1801 1.384 . S
N1805 C1797 1.427 . S
N1805 C1803 1.384 . S
H1806 C1812 0.930 . S
H1807 C1816 0.930 . S
H1808 C1821 0.929 . S
H1809 C1819 0.929 . S
H1810 C1814 0.929 . S
H1811 C1820 0.929 . S
C1812 H1806 0.930 . S
C1812 C1813 1.367 . S
C1812 C1820 1.378 . S
C1813 C1812 1.367 . S
C1813 C1821 1.433 . S
C1814 H1810 0.929 . S
C1814 C1816 1.378 . S
C1814 C1818 1.350 . S
C1815 C1818 1.463 . S
C1815 C1820 1.350 . S
C1815 N1823 1.427 . S
C1816 H1807 0.930 . S
C1816 C1814 1.378 . S
C1816 C1817 1.367 . S
C1817 C1816 1.367 . S
C1817 C1819 1.433 . S
C1818 C1814 1.350 . S
C1818 C1815 1.463 . S
C1818 N1822 1.427 . S
C1819 H1809 0.929 . S
C1819 C1817 1.433 . S
C1819 N1822 1.384 . S
C1820 H1811 0.929 . S
C1820 C1812 1.378 . S
C1820 C1815 1.350 . S
C1821 H1808 0.929 . S
C1821 C1813 1.433 . S
C1821 N1823 1.384 . S
N1822 C1818 1.427 . S
N1822 C1819 1.384 . S
N1823 C1815 1.427 . S
N1823 C1821 1.384 . S
H1824 C1830 0.930 . S
H1825 C1834 0.930 . S
H1826 C1839 0.929 . S
H1827 C1837 0.929 . S
H1828 C1832 0.929 . S
H1829 C1838 0.929 . S
C1830 H1824 0.930 . S
C1830 C1831 1.367 . S
C1830 C1838 1.378 . S
C1831 C1830 1.367 . S
C1831 C1839 1.433 . S
C1832 H1828 0.929 . S
C1832 C1834 1.378 . S
C1832 C1836 1.350 . S
C1833 C1836 1.463 . S
C1833 C1838 1.350 . S
C1833 N1841 1.427 . S
C1834 H1825 0.930 . S
C1834 C1832 1.378 . S
C1834 C1835 1.367 . S
C1835 C1834 1.367 . S
C1835 C1837 1.433 . S
C1836 C1832 1.350 . S
C1836 C1833 1.463 . S
C1836 N1840 1.427 . S
C1837 H1827 0.929 . S
C1837 C1835 1.433 . S
C1837 N1840 1.384 . S
C1838 H1829 0.929 . S
C1838 C1830 1.378 . S
C1838 C1833 1.350 . S
C1839 H1826 0.929 . S
C1839 C1831 1.433 . S
C1839 N1841 1.384 . S
N1840 C1836 1.427 . S
N1840 C1837 1.384 . S
N1841 C1833 1.427 . S
N1841 C1839 1.384 . S
H1842 C1848 0.930 . S
H1843 C1852 0.930 . S
H1844 C1857 0.929 . S
H1845 C1855 0.929 . S
H1846 C1850 0.929 . S
H1847 C1856 0.929 . S
C1848 H1842 0.930 . S
C1848 C1849 1.367 . S
C1848 C1856 1.378 . S
C1849 C1848 1.367 . S
C1849 C1857 1.433 . S
C1850 H1846 0.929 . S
C1850 C1852 1.378 . S
C1850 C1854 1.350 . S
C1851 C1854 1.463 . S
C1851 C1856 1.350 . S
C1851 N1859 1.427 . S
C1852 H1843 0.930 . S
C1852 C1850 1.378 . S
C1852 C1853 1.367 . S
C1853 C1852 1.367 . S
C1853 C1855 1.433 . S
C1854 C1850 1.350 . S
C1854 C1851 1.463 . S
C1854 N1858 1.427 . S
C1855 H1845 0.929 . S
C1855 C1853 1.433 . S
C1855 N1858 1.384 . S
C1856 H1847 0.929 . S
C1856 C1848 1.378 . S
C1856 C1851 1.350 . S
C1857 H1844 0.929 . S
C1857 C1849 1.433 . S
C1857 N1859 1.384 . S
N1858 C1854 1.427 . S
N1858 C1855 1.384 . S
N1859 C1851 1.427 . S
N1859 C1857 1.384 . S
H1860 C1866 0.930 . S
H1861 C1870 0.930 . S
H1862 C1875 0.929 . S
H1863 C1873 0.929 . S
H1864 C1868 0.929 . S
H1865 C1874 0.929 . S
C1866 H1860 0.930 . S
C1866 C1867 1.367 . S
C1866 C1874 1.378 . S
C1867 C1866 1.367 . S
C1867 C1875 1.433 . S
C1868 H1864 0.929 . S
C1868 C1870 1.378 . S
C1868 C1872 1.350 . S
C1869 C1872 1.463 . S
C1869 C1874 1.350 . S
C1869 N1877 1.427 . S
C1870 H1861 0.930 . S
C1870 C1868 1.378 . S
C1870 C1871 1.367 . S
C1871 C1870 1.367 . S
C1871 C1873 1.433 . S
C1872 C1868 1.350 . S
C1872 C1869 1.463 . S
C1872 N1876 1.427 . S
C1873 H1863 0.929 . S
C1873 C1871 1.433 . S
C1873 N1876 1.384 . S
C1874 H1865 0.929 . S
C1874 C1866 1.378 . S
C1874 C1869 1.350 . S
C1875 H1862 0.929 . S
C1875 C1867 1.433 . S
C1875 N1877 1.384 . S
N1876 C1872 1.427 . S
N1876 C1873 1.384 . S
N1877 C1869 1.427 . S
N1877 C1875 1.384 . S
H1878 C1884 0.930 . S
H1879 C1888 0.930 . S
H1880 C1893 0.929 . S
H1881 C1891 0.929 . S
H1882 C1886 0.929 . S
H1883 C1892 0.929 . S
C1884 H1878 0.930 . S
C1884 C1885 1.367 . S
C1884 C1892 1.378 . S
C1885 C1884 1.367 . S
C1885 C1893 1.433 . S
C1886 H1882 0.929 . S
C1886 C1888 1.378 . S
C1886 C1890 1.350 . S
C1887 C1890 1.463 . S
C1887 C1892 1.350 . S
C1887 N1895 1.427 . S
C1888 H1879 0.930 . S
C1888 C1886 1.378 . S
C1888 C1889 1.367 . S
C1889 C1888 1.367 . S
C1889 C1891 1.433 . S
C1890 C1886 1.350 . S
C1890 C1887 1.463 . S
C1890 N1894 1.427 . S
C1891 H1881 0.929 . S
C1891 C1889 1.433 . S
C1891 N1894 1.384 . S
C1892 H1883 0.929 . S
C1892 C1884 1.378 . S
C1892 C1887 1.350 . S
C1893 H1880 0.929 . S
C1893 C1885 1.433 . S
C1893 N1895 1.384 . S
N1894 C1890 1.427 . S
N1894 C1891 1.384 . S
N1895 C1887 1.427 . S
N1895 C1893 1.384 . S
H1896 C1902 0.930 . S
H1897 C1906 0.930 . S
H1898 C1911 0.929 . S
H1899 C1909 0.929 . S
H1900 C1904 0.929 . S
H1901 C1910 0.929 . S
C1902 H1896 0.930 . S
C1902 C1903 1.367 . S
C1902 C1910 1.378 . S
C1903 C1902 1.367 . S
C1903 C1911 1.433 . S
C1904 H1900 0.929 . S
C1904 C1906 1.378 . S
C1904 C1908 1.350 . S
C1905 C1908 1.463 . S
C1905 C1910 1.350 . S
C1905 N1913 1.427 . S
C1906 H1897 0.930 . S
C1906 C1904 1.378 . S
C1906 C1907 1.367 . S
C1907 C1906 1.367 . S
C1907 C1909 1.433 . S
C1908 C1904 1.350 . S
C1908 C1905 1.463 . S
C1908 N1912 1.427 . S
C1909 H1899 0.929 . S
C1909 C1907 1.433 . S
C1909 N1912 1.384 . S
C1910 H1901 0.929 . S
C1910 C1902 1.378 . S
C1910 C1905 1.350 . S
C1911 H1898 0.929 . S
C1911 C1903 1.433 . S
C1911 N1913 1.384 . S
N1912 C1908 1.427 . S
N1912 C1909 1.384 . S
N1913 C1905 1.427 . S
N1913 C1911 1.384 . S
H1914 C1920 0.930 . S
H1915 C1924 0.930 . S
H1916 C1929 0.929 . S
H1917 C1927 0.929 . S
H1918 C1922 0.929 . S
H1919 C1928 0.929 . S
C1920 H1914 0.930 . S
C1920 C1921 1.367 . S
C1920 C1928 1.378 . S
C1921 C1920 1.367 . S
C1921 C1929 1.433 . S
C1922 H1918 0.929 . S
C1922 C1924 1.378 . S
C1922 C1926 1.350 . S
C1923 C1926 1.463 . S
C1923 C1928 1.350 . S
C1923 N1931 1.427 . S
C1924 H1915 0.930 . S
C1924 C1922 1.378 . S
C1924 C1925 1.367 . S
C1925 C1924 1.367 . S
C1925 C1927 1.433 . S
C1926 C1922 1.350 . S
C1926 C1923 1.463 . S
C1926 N1930 1.427 . S
C1927 H1917 0.929 . S
C1927 C1925 1.433 . S
C1927 N1930 1.384 . S
C1928 H1919 0.929 . S
C1928 C1920 1.378 . S
C1928 C1923 1.350 . S
C1929 H1916 0.929 . S
C1929 C1921 1.433 . S
C1929 N1931 1.384 . S
N1930 C1926 1.427 . S
N1930 C1927 1.384 . S
N1931 C1923 1.427 . S
N1931 C1929 1.384 . S
H1932 C1938 0.930 . S
H1933 C1942 0.930 . S
H1934 C1947 0.929 . S
H1935 C1945 0.929 . S
H1936 C1940 0.929 . S
H1937 C1946 0.929 . S
C1938 H1932 0.930 . S
C1938 C1939 1.367 . S
C1938 C1946 1.378 . S
C1939 C1938 1.367 . S
C1939 C1947 1.433 . S
C1940 H1936 0.929 . S
C1940 C1942 1.378 . S
C1940 C1944 1.350 . S
C1941 C1944 1.463 . S
C1941 C1946 1.350 . S
C1941 N1949 1.427 . S
C1942 H1933 0.930 . S
C1942 C1940 1.378 . S
C1942 C1943 1.367 . S
C1943 C1942 1.367 . S
C1943 C1945 1.433 . S
C1944 C1940 1.350 . S
C1944 C1941 1.463 . S
C1944 N1948 1.427 . S
C1945 H1935 0.929 . S
C1945 C1943 1.433 . S
C1945 N1948 1.384 . S
C1946 H1937 0.929 . S
C1946 C1938 1.378 . S
C1946 C1941 1.350 . S
C1947 H1934 0.929 . S
C1947 C1939 1.433 . S
C1947 N1949 1.384 . S
N1948 C1944 1.427 . S
N1948 C1945 1.384 . S
N1949 C1941 1.427 . S
N1949 C1947 1.384 . S
H1950 C1956 0.930 . S
H1951 C1960 0.930 . S
H1952 C1965 0.929 . S
H1953 C1963 0.929 . S
H1954 C1958 0.929 . S
H1955 C1964 0.929 . S
C1956 H1950 0.930 . S
C1956 C1957 1.367 . S
C1956 C1964 1.378 . S
C1957 C1956 1.367 . S
C1957 C1965 1.433 . S
C1958 H1954 0.929 . S
C1958 C1960 1.378 . S
C1958 C1962 1.350 . S
C1959 C1962 1.463 . S
C1959 C1964 1.350 . S
C1959 N1967 1.427 . S
C1960 H1951 0.930 . S
C1960 C1958 1.378 . S
C1960 C1961 1.367 . S
C1961 C1960 1.367 . S
C1961 C1963 1.433 . S
C1962 C1958 1.350 . S
C1962 C1959 1.463 . S
C1962 N1966 1.427 . S
C1963 H1953 0.929 . S
C1963 C1961 1.433 . S
C1963 N1966 1.384 . S
C1964 H1955 0.929 . S
C1964 C1956 1.378 . S
C1964 C1959 1.350 . S
C1965 H1952 0.929 . S
C1965 C1957 1.433 . S
C1965 N1967 1.384 . S
N1966 C1962 1.427 . S
N1966 C1963 1.384 . S
N1967 C1959 1.427 . S
N1967 C1965 1.384 . S
H1968 C1974 0.930 . S
H1969 C1978 0.930 . S
H1970 C1983 0.929 . S
H1971 C1981 0.929 . S
H1972 C1976 0.929 . S
H1973 C1982 0.929 . S
C1974 H1968 0.930 . S
C1974 C1975 1.367 . S
C1974 C1982 1.378 . S
C1975 C1974 1.367 . S
C1975 C1983 1.433 . S
C1976 H1972 0.929 . S
C1976 C1978 1.378 . S
C1976 C1980 1.350 . S
C1977 C1980 1.463 1_554 S
C1977 C1982 1.350 . S
C1977 N1985 1.427 . S
C1978 H1969 0.930 . S
C1978 C1976 1.378 . S
C1978 C1979 1.367 . S
C1979 C1978 1.367 . S
C1979 C1981 1.433 . S
C1980 C1976 1.350 . S
C1980 C1977 1.463 1_556 S
C1980 N1984 1.427 . S
C1981 H1971 0.929 . S
C1981 C1979 1.433 . S
C1981 N1984 1.384 . S
C1982 H1973 0.929 . S
C1982 C1974 1.378 . S
C1982 C1977 1.350 . S
C1983 H1970 0.929 . S
C1983 C1975 1.433 . S
C1983 N1985 1.384 . S
N1984 C1980 1.427 . S
N1984 C1981 1.384 . S
N1985 C1977 1.427 . S
N1985 C1983 1.384 . S
H1986 C1992 0.930 . S
H1987 C1996 0.930 . S
H1988 C2001 0.929 . S
H1989 C1999 0.929 . S
H1990 C1994 0.929 . S
H1991 C2000 0.929 . S
C1992 H1986 0.930 . S
C1992 C1993 1.367 . S
C1992 C2000 1.378 . S
C1993 C1992 1.367 . S
C1993 C2001 1.433 . S
C1994 H1990 0.929 . S
C1994 C1996 1.378 . S
C1994 C1998 1.350 . S
C1995 C1998 1.463 1_556 S
C1995 C2000 1.350 . S
C1995 N2003 1.427 . S
C1996 H1987 0.930 . S
C1996 C1994 1.378 . S
C1996 C1997 1.367 . S
C1997 C1996 1.367 . S
C1997 C1999 1.433 . S
C1998 C1994 1.350 . S
C1998 C1995 1.463 1_554 S
C1998 N2002 1.427 . S
C1999 H1989 0.929 . S
C1999 C1997 1.433 . S
C1999 N2002 1.384 . S
C2000 H1991 0.929 . S
C2000 C1992 1.378 . S
C2000 C1995 1.350 . S
C2001 H1988 0.929 . S
C2001 C1993 1.433 . S
C2001 N2003 1.384 . S
N2002 C1998 1.427 . S
N2002 C1999 1.384 . S
N2003 C1995 1.427 . S
N2003 C2001 1.384 . S
H2004 C2010 0.930 . S
H2005 C2014 0.930 . S
H2006 C2019 0.929 . S
H2007 C2017 0.929 . S
H2008 C2012 0.929 . S
H2009 C2018 0.929 . S
C2010 H2004 0.930 . S
C2010 C2011 1.367 . S
C2010 C2018 1.378 . S
C2011 C2010 1.367 . S
C2011 C2019 1.433 . S
C2012 H2008 0.929 . S
C2012 C2014 1.378 . S
C2012 C2016 1.350 . S
C2013 C2016 1.463 1_554 S
C2013 C2018 1.350 . S
C2013 N2021 1.427 . S
C2014 H2005 0.930 . S
C2014 C2012 1.378 . S
C2014 C2015 1.367 . S
C2015 C2014 1.367 . S
C2015 C2017 1.433 . S
C2016 C2012 1.350 . S
C2016 C2013 1.463 1_556 S
C2016 N2020 1.427 . S
C2017 H2007 0.929 . S
C2017 C2015 1.433 . S
C2017 N2020 1.384 . S
C2018 H2009 0.929 . S
C2018 C2010 1.378 . S
C2018 C2013 1.350 . S
C2019 H2006 0.929 . S
C2019 C2011 1.433 . S
C2019 N2021 1.384 . S
N2020 C2016 1.427 . S
N2020 C2017 1.384 . S
N2021 C2013 1.427 . S
N2021 C2019 1.384 . S
H2022 C2028 0.930 . S
H2023 C2032 0.930 . S
H2024 C2037 0.929 . S
H2025 C2035 0.929 . S
H2026 C2030 0.929 . S
H2027 C2036 0.929 . S
C2028 H2022 0.930 . S
C2028 C2029 1.367 . S
C2028 C2036 1.378 . S
C2029 C2028 1.367 . S
C2029 C2037 1.433 . S
C2030 H2026 0.929 . S
C2030 C2032 1.378 . S
C2030 C2034 1.350 . S
C2031 C2034 1.463 1_554 S
C2031 C2036 1.350 . S
C2031 N2039 1.427 . S
C2032 H2023 0.930 . S
C2032 C2030 1.378 . S
C2032 C2033 1.367 . S
C2033 C2032 1.367 . S
C2033 C2035 1.433 . S
C2034 C2030 1.350 . S
C2034 C2031 1.463 1_556 S
C2034 N2038 1.427 . S
C2035 H2025 0.929 . S
C2035 C2033 1.433 . S
C2035 N2038 1.384 . S
C2036 H2027 0.929 . S
C2036 C2028 1.378 . S
C2036 C2031 1.350 . S
C2037 H2024 0.929 . S
C2037 C2029 1.433 . S
C2037 N2039 1.384 . S
N2038 C2034 1.427 . S
N2038 C2035 1.384 . S
N2039 C2031 1.427 . S
N2039 C2037 1.384 . S
H2040 C2046 0.930 . S
H2041 C2050 0.930 . S
H2042 C2055 0.929 . S
H2043 C2053 0.929 . S
H2044 C2048 0.929 . S
H2045 C2054 0.929 . S
C2046 H2040 0.930 . S
C2046 C2047 1.367 . S
C2046 C2054 1.378 . S
C2047 C2046 1.367 . S
C2047 C2055 1.433 . S
C2048 H2044 0.929 . S
C2048 C2050 1.378 . S
C2048 C2052 1.350 . S
C2049 C2052 1.463 1_556 S
C2049 C2054 1.350 . S
C2049 N2057 1.427 . S
C2050 H2041 0.930 . S
C2050 C2048 1.378 . S
C2050 C2051 1.367 . S
C2051 C2050 1.367 . S
C2051 C2053 1.433 . S
C2052 C2048 1.350 . S
C2052 C2049 1.463 1_554 S
C2052 N2056 1.427 . S
C2053 H2043 0.929 . S
C2053 C2051 1.433 . S
C2053 N2056 1.384 . S
C2054 H2045 0.929 . S
C2054 C2046 1.378 . S
C2054 C2049 1.350 . S
C2055 H2042 0.929 . S
C2055 C2047 1.433 . S
C2055 N2057 1.384 . S
N2056 C2052 1.427 . S
N2056 C2053 1.384 . S
N2057 C2049 1.427 . S
N2057 C2055 1.384 . S
H2058 C2064 0.930 . S
H2059 C2068 0.930 . S
H2060 C2073 0.929 . S
H2061 C2071 0.929 . S
H2062 C2066 0.929 . S
H2063 C2072 0.929 . S
C2064 H2058 0.930 . S
C2064 C2065 1.367 . S
C2064 C2072 1.378 . S
C2065 C2064 1.367 . S
C2065 C2073 1.433 . S
C2066 H2062 0.929 . S
C2066 C2068 1.378 . S
C2066 C2070 1.350 . S
C2067 C2070 1.463 1_554 S
C2067 C2072 1.350 . S
C2067 N2075 1.427 . S
C2068 H2059 0.930 . S
C2068 C2066 1.378 . S
C2068 C2069 1.367 . S
C2069 C2068 1.367 . S
C2069 C2071 1.433 . S
C2070 C2066 1.350 . S
C2070 C2067 1.463 1_556 S
C2070 N2074 1.427 . S
C2071 H2061 0.929 . S
C2071 C2069 1.433 . S
C2071 N2074 1.384 . S
C2072 H2063 0.929 . S
C2072 C2064 1.378 . S
C2072 C2067 1.350 . S
C2073 H2060 0.929 . S
C2073 C2065 1.433 . S
C2073 N2075 1.384 . S
N2074 C2070 1.427 . S
N2074 C2071 1.384 . S
N2075 C2067 1.427 . S
N2075 C2073 1.384 . S
H2076 C2082 0.930 . S
H2077 C2086 0.930 . S
H2078 C2091 0.929 . S
H2079 C2089 0.929 . S
H2080 C2084 0.929 . S
H2081 C2090 0.929 . S
C2082 H2076 0.930 . S
C2082 C2083 1.367 . S
C2082 C2090 1.378 . S
C2083 C2082 1.367 . S
C2083 C2091 1.433 . S
C2084 H2080 0.929 . S
C2084 C2086 1.378 . S
C2084 C2088 1.350 . S
C2085 C2088 1.463 1_556 S
C2085 C2090 1.350 . S
C2085 N2093 1.427 . S
C2086 H2077 0.930 . S
C2086 C2084 1.378 . S
C2086 C2087 1.367 . S
C2087 C2086 1.367 . S
C2087 C2089 1.433 . S
C2088 C2084 1.350 . S
C2088 C2085 1.463 1_554 S
C2088 N2092 1.427 . S
C2089 H2079 0.929 . S
C2089 C2087 1.433 . S
C2089 N2092 1.384 . S
C2090 H2081 0.929 . S
C2090 C2082 1.378 . S
C2090 C2085 1.350 . S
C2091 H2078 0.929 . S
C2091 C2083 1.433 . S
C2091 N2093 1.384 . S
N2092 C2088 1.427 . S
N2092 C2089 1.384 . S
N2093 C2085 1.427 . S
N2093 C2091 1.384 . S
H2094 C2100 0.930 . S
H2095 C2104 0.930 . S
H2096 C2109 0.929 . S
H2097 C2107 0.929 . S
H2098 C2102 0.929 . S
H2099 C2108 0.929 . S
C2100 H2094 0.930 . S
C2100 C2101 1.367 . S
C2100 C2108 1.378 . S
C2101 C2100 1.367 . S
C2101 C2109 1.433 . S
C2102 H2098 0.929 . S
C2102 C2104 1.378 . S
C2102 C2106 1.350 . S
C2103 C2106 1.463 1_554 S
C2103 C2108 1.350 . S
C2103 N2111 1.427 . S
C2104 H2095 0.930 . S
C2104 C2102 1.378 . S
C2104 C2105 1.367 . S
C2105 C2104 1.367 . S
C2105 C2107 1.433 . S
C2106 C2102 1.350 . S
C2106 C2103 1.463 1_556 S
C2106 N2110 1.427 . S
C2107 H2097 0.929 . S
C2107 C2105 1.433 . S
C2107 N2110 1.384 . S
C2108 H2099 0.929 . S
C2108 C2100 1.378 . S
C2108 C2103 1.350 . S
C2109 H2096 0.929 . S
C2109 C2101 1.433 . S
C2109 N2111 1.384 . S
N2110 C2106 1.427 . S
N2110 C2107 1.384 . S
N2111 C2103 1.427 . S
N2111 C2109 1.384 . S
H2112 C2118 0.930 . S
H2113 C2122 0.930 . S
H2114 C2127 0.929 . S
H2115 C2125 0.929 . S
H2116 C2120 0.929 . S
H2117 C2126 0.929 . S
C2118 H2112 0.930 . S
C2118 C2119 1.367 . S
C2118 C2126 1.378 . S
C2119 C2118 1.367 . S
C2119 C2127 1.433 . S
C2120 H2116 0.929 . S
C2120 C2122 1.378 . S
C2120 C2124 1.350 . S
C2121 C2124 1.463 1_455 S
C2121 C2126 1.350 . S
C2121 N2129 1.427 . S
C2122 H2113 0.930 . S
C2122 C2120 1.378 . S
C2122 C2123 1.367 . S
C2123 C2122 1.367 . S
C2123 C2125 1.433 . S
C2124 C2120 1.350 . S
C2124 C2121 1.463 1_655 S
C2124 N2128 1.427 . S
C2125 H2115 0.929 . S
C2125 C2123 1.433 . S
C2125 N2128 1.384 . S
C2126 H2117 0.929 . S
C2126 C2118 1.378 . S
C2126 C2121 1.350 . S
C2127 H2114 0.929 . S
C2127 C2119 1.433 . S
C2127 N2129 1.384 . S
N2128 C2124 1.427 . S
N2128 C2125 1.384 . S
N2129 C2121 1.427 . S
N2129 C2127 1.384 . S
H2130 C2136 0.930 . S
H2131 C2140 0.930 . S
H2132 C2145 0.929 . S
H2133 C2143 0.929 . S
H2134 C2138 0.929 . S
H2135 C2144 0.929 . S
C2136 H2130 0.930 . S
C2136 C2137 1.367 . S
C2136 C2144 1.378 . S
C2137 C2136 1.367 . S
C2137 C2145 1.433 . S
C2138 H2134 0.929 . S
C2138 C2140 1.378 . S
C2138 C2142 1.350 . S
C2139 C2142 1.463 1_565 S
C2139 C2144 1.350 . S
C2139 N2147 1.427 . S
C2140 H2131 0.930 . S
C2140 C2138 1.378 . S
C2140 C2141 1.367 . S
C2141 C2140 1.367 . S
C2141 C2143 1.433 . S
C2142 C2138 1.350 . S
C2142 C2139 1.463 1_545 S
C2142 N2146 1.427 . S
C2143 H2133 0.929 . S
C2143 C2141 1.433 . S
C2143 N2146 1.384 . S
C2144 H2135 0.929 . S
C2144 C2136 1.378 . S
C2144 C2139 1.350 . S
C2145 H2132 0.929 . S
C2145 C2137 1.433 . S
C2145 N2147 1.384 . S
N2146 C2142 1.427 . S
N2146 C2143 1.384 . S
N2147 C2139 1.427 . S
N2147 C2145 1.384 . S
H2148 C2154 0.930 . S
H2149 C2158 0.930 . S
H2150 C2163 0.929 . S
H2151 C2161 0.929 . S
H2152 C2156 0.929 . S
H2153 C2162 0.929 . S
C2154 H2148 0.930 . S
C2154 C2155 1.367 . S
C2154 C2162 1.378 . S
C2155 C2154 1.367 . S
C2155 C2163 1.433 . S
C2156 H2152 0.929 . S
C2156 C2158 1.378 . S
C2156 C2160 1.350 . S
C2157 C2160 1.463 1_455 S
C2157 C2162 1.350 . S
C2157 N2165 1.427 . S
C2158 H2149 0.930 . S
C2158 C2156 1.378 . S
C2158 C2159 1.367 . S
C2159 C2158 1.367 . S
C2159 C2161 1.433 . S
C2160 C2156 1.350 . S
C2160 C2157 1.463 1_655 S
C2160 N2164 1.427 . S
C2161 H2151 0.929 . S
C2161 C2159 1.433 . S
C2161 N2164 1.384 . S
C2162 H2153 0.929 . S
C2162 C2154 1.378 . S
C2162 C2157 1.350 . S
C2163 H2150 0.929 . S
C2163 C2155 1.433 . S
C2163 N2165 1.384 . S
N2164 C2160 1.427 . S
N2164 C2161 1.384 . S
N2165 C2157 1.427 . S
N2165 C2163 1.384 . S
H2166 C2172 0.930 . S
H2167 C2176 0.930 . S
H2168 C2181 0.929 . S
H2169 C2179 0.929 . S
H2170 C2174 0.929 . S
H2171 C2180 0.929 . S
C2172 H2166 0.930 . S
C2172 C2173 1.367 . S
C2172 C2180 1.378 . S
C2173 C2172 1.367 . S
C2173 C2181 1.433 . S
C2174 H2170 0.929 . S
C2174 C2176 1.378 . S
C2174 C2178 1.350 . S
C2175 C2178 1.463 1_565 S
C2175 C2180 1.350 . S
C2175 N2183 1.427 . S
C2176 H2167 0.930 . S
C2176 C2174 1.378 . S
C2176 C2177 1.367 . S
C2177 C2176 1.367 . S
C2177 C2179 1.433 . S
C2178 C2174 1.350 . S
C2178 C2175 1.463 1_545 S
C2178 N2182 1.427 . S
C2179 H2169 0.929 . S
C2179 C2177 1.433 . S
C2179 N2182 1.384 . S
C2180 H2171 0.929 . S
C2180 C2172 1.378 . S
C2180 C2175 1.350 . S
C2181 H2168 0.929 . S
C2181 C2173 1.433 . S
C2181 N2183 1.384 . S
N2182 C2178 1.427 . S
N2182 C2179 1.384 . S
N2183 C2175 1.427 . S
N2183 C2181 1.384 . S
H2184 C2190 0.930 . S
H2185 C2194 0.930 . S
H2186 C2199 0.929 . S
H2187 C2197 0.929 . S
H2188 C2192 0.929 . S
H2189 C2198 0.929 . S
C2190 H2184 0.930 . S
C2190 C2191 1.367 . S
C2190 C2198 1.378 . S
C2191 C2190 1.367 . S
C2191 C2199 1.433 . S
C2192 H2188 0.929 . S
C2192 C2194 1.378 . S
C2192 C2196 1.350 . S
C2193 C2196 1.463 1_655 S
C2193 C2198 1.350 . S
C2193 N2201 1.427 . S
C2194 H2185 0.930 . S
C2194 C2192 1.378 . S
C2194 C2195 1.367 . S
C2195 C2194 1.367 . S
C2195 C2197 1.433 . S
C2196 C2192 1.350 . S
C2196 C2193 1.463 1_455 S
C2196 N2200 1.427 . S
C2197 H2187 0.929 . S
C2197 C2195 1.433 . S
C2197 N2200 1.384 . S
C2198 H2189 0.929 . S
C2198 C2190 1.378 . S
C2198 C2193 1.350 . S
C2199 H2186 0.929 . S
C2199 C2191 1.433 . S
C2199 N2201 1.384 . S
N2200 C2196 1.427 . S
N2200 C2197 1.384 . S
N2201 C2193 1.427 . S
N2201 C2199 1.384 . S
H2202 C2208 0.930 . S
H2203 C2212 0.930 . S
H2204 C2217 0.929 . S
H2205 C2215 0.929 . S
H2206 C2210 0.929 . S
H2207 C2216 0.929 . S
C2208 H2202 0.930 . S
C2208 C2209 1.367 . S
C2208 C2216 1.378 . S
C2209 C2208 1.367 . S
C2209 C2217 1.433 . S
C2210 H2206 0.929 . S
C2210 C2212 1.378 . S
C2210 C2214 1.350 . S
C2211 C2214 1.463 1_545 S
C2211 C2216 1.350 . S
C2211 N2219 1.427 . S
C2212 H2203 0.930 . S
C2212 C2210 1.378 . S
C2212 C2213 1.367 . S
C2213 C2212 1.367 . S
C2213 C2215 1.433 . S
C2214 C2210 1.350 . S
C2214 C2211 1.463 1_565 S
C2214 N2218 1.427 . S
C2215 H2205 0.929 . S
C2215 C2213 1.433 . S
C2215 N2218 1.384 . S
C2216 H2207 0.929 . S
C2216 C2208 1.378 . S
C2216 C2211 1.350 . S
C2217 H2204 0.929 . S
C2217 C2209 1.433 . S
C2217 N2219 1.384 . S
N2218 C2214 1.427 . S
N2218 C2215 1.384 . S
N2219 C2211 1.427 . S
N2219 C2217 1.384 . S
H2220 C2226 0.930 . S
H2221 C2230 0.930 . S
H2222 C2235 0.929 . S
H2223 C2233 0.929 . S
H2224 C2228 0.929 . S
H2225 C2234 0.929 . S
C2226 H2220 0.930 . S
C2226 C2227 1.367 . S
C2226 C2234 1.378 . S
C2227 C2226 1.367 . S
C2227 C2235 1.433 . S
C2228 H2224 0.929 . S
C2228 C2230 1.378 . S
C2228 C2232 1.350 . S
C2229 C2232 1.463 1_455 S
C2229 C2234 1.350 . S
C2229 N2237 1.427 . S
C2230 H2221 0.930 . S
C2230 C2228 1.378 . S
C2230 C2231 1.367 . S
C2231 C2230 1.367 . S
C2231 C2233 1.433 . S
C2232 C2228 1.350 . S
C2232 C2229 1.463 1_655 S
C2232 N2236 1.427 . S
C2233 H2223 0.929 . S
C2233 C2231 1.433 . S
C2233 N2236 1.384 . S
C2234 H2225 0.929 . S
C2234 C2226 1.378 . S
C2234 C2229 1.350 . S
C2235 H2222 0.929 . S
C2235 C2227 1.433 . S
C2235 N2237 1.384 . S
N2236 C2232 1.427 . S
N2236 C2233 1.384 . S
N2237 C2229 1.427 . S
N2237 C2235 1.384 . S
H2238 C2244 0.930 . S
H2239 C2248 0.930 . S
H2240 C2253 0.929 . S
H2241 C2251 0.929 . S
H2242 C2246 0.929 . S
H2243 C2252 0.929 . S
C2244 H2238 0.930 . S
C2244 C2245 1.367 . S
C2244 C2252 1.378 . S
C2245 C2244 1.367 . S
C2245 C2253 1.433 . S
C2246 H2242 0.929 . S
C2246 C2248 1.378 . S
C2246 C2250 1.350 . S
C2247 C2250 1.463 1_545 S
C2247 C2252 1.350 . S
C2247 N2255 1.427 . S
C2248 H2239 0.930 . S
C2248 C2246 1.378 . S
C2248 C2249 1.367 . S
C2249 C2248 1.367 . S
C2249 C2251 1.433 . S
C2250 C2246 1.350 . S
C2250 C2247 1.463 1_565 S
C2250 N2254 1.427 . S
C2251 H2241 0.929 . S
C2251 C2249 1.433 . S
C2251 N2254 1.384 . S
C2252 H2243 0.929 . S
C2252 C2244 1.378 . S
C2252 C2247 1.350 . S
C2253 H2240 0.929 . S
C2253 C2245 1.433 . S
C2253 N2255 1.384 . S
N2254 C2250 1.427 . S
N2254 C2251 1.384 . S
N2255 C2247 1.427 . S
N2255 C2253 1.384 . S
H2256 C2262 0.930 . S
H2257 C2266 0.930 . S
H2258 C2271 0.929 . S
H2259 C2269 0.929 . S
H2260 C2264 0.929 . S
H2261 C2270 0.929 . S
C2262 H2256 0.930 . S
C2262 C2263 1.367 . S
C2262 C2270 1.378 . S
C2263 C2262 1.367 . S
C2263 C2271 1.433 . S
C2264 H2260 0.929 . S
C2264 C2266 1.378 . S
C2264 C2268 1.350 . S
C2265 C2268 1.463 1_545 S
C2265 C2270 1.350 . S
C2265 N2273 1.427 . S
C2266 H2257 0.930 . S
C2266 C2264 1.378 . S
C2266 C2267 1.367 . S
C2267 C2266 1.367 . S
C2267 C2269 1.433 . S
C2268 C2264 1.350 . S
C2268 C2265 1.463 1_565 S
C2268 N2272 1.427 . S
C2269 H2259 0.929 . S
C2269 C2267 1.433 . S
C2269 N2272 1.384 . S
C2270 H2261 0.929 . S
C2270 C2262 1.378 . S
C2270 C2265 1.350 . S
C2271 H2258 0.929 . S
C2271 C2263 1.433 . S
C2271 N2273 1.384 . S
N2272 C2268 1.427 . S
N2272 C2269 1.384 . S
N2273 C2265 1.427 . S
N2273 C2271 1.384 . S
H2274 C2280 0.930 . S
H2275 C2284 0.930 . S
H2276 C2289 0.929 . S
H2277 C2287 0.929 . S
H2278 C2282 0.929 . S
H2279 C2288 0.929 . S
C2280 H2274 0.930 . S
C2280 C2281 1.367 . S
C2280 C2288 1.378 . S
C2281 C2280 1.367 . S
C2281 C2289 1.433 . S
C2282 H2278 0.929 . S
C2282 C2284 1.378 . S
C2282 C2286 1.350 . S
C2283 C2286 1.463 1_545 S
C2283 C2288 1.350 . S
C2283 N2291 1.427 . S
C2284 H2275 0.930 . S
C2284 C2282 1.378 . S
C2284 C2285 1.367 . S
C2285 C2284 1.367 . S
C2285 C2287 1.433 . S
C2286 C2282 1.350 . S
C2286 C2283 1.463 1_565 S
C2286 N2290 1.427 . S
C2287 H2277 0.929 . S
C2287 C2285 1.433 . S
C2287 N2290 1.384 . S
C2288 H2279 0.929 . S
C2288 C2280 1.378 . S
C2288 C2283 1.350 . S
C2289 H2276 0.929 . S
C2289 C2281 1.433 . S
C2289 N2291 1.384 . S
N2290 C2286 1.427 . S
N2290 C2287 1.384 . S
N2291 C2283 1.427 . S
N2291 C2289 1.384 . S
H2292 C2298 0.930 . S
H2293 C2302 0.930 . S
H2294 C2307 0.929 . S
H2295 C2305 0.929 . S
H2296 C2300 0.929 . S
H2297 C2306 0.929 . S
C2298 H2292 0.930 . S
C2298 C2299 1.367 . S
C2298 C2306 1.378 . S
C2299 C2298 1.367 . S
C2299 C2307 1.433 . S
C2300 H2296 0.929 . S
C2300 C2302 1.378 . S
C2300 C2304 1.350 . S
C2301 C2304 1.463 1_655 S
C2301 C2306 1.350 . S
C2301 N2309 1.427 . S
C2302 H2293 0.930 . S
C2302 C2300 1.378 . S
C2302 C2303 1.367 . S
C2303 C2302 1.367 . S
C2303 C2305 1.433 . S
C2304 C2300 1.350 . S
C2304 C2301 1.463 1_455 S
C2304 N2308 1.427 . S
C2305 H2295 0.929 . S
C2305 C2303 1.433 . S
C2305 N2308 1.384 . S
C2306 H2297 0.929 . S
C2306 C2298 1.378 . S
C2306 C2301 1.350 . S
C2307 H2294 0.929 . S
C2307 C2299 1.433 . S
C2307 N2309 1.384 . S
N2308 C2304 1.427 . S
N2308 C2305 1.384 . S
N2309 C2301 1.427 . S
N2309 C2307 1.384 . S
H2310 C2316 0.930 . S
H2311 C2320 0.930 . S
H2312 C2325 0.929 . S
H2313 C2323 0.929 . S
H2314 C2318 0.929 . S
H2315 C2324 0.929 . S
C2316 H2310 0.930 . S
C2316 C2317 1.367 . S
C2316 C2324 1.378 . S
C2317 C2316 1.367 . S
C2317 C2325 1.433 . S
C2318 H2314 0.929 . S
C2318 C2320 1.378 . S
C2318 C2322 1.350 . S
C2319 C2322 1.463 1_545 S
C2319 C2324 1.350 . S
C2319 N2327 1.427 . S
C2320 H2311 0.930 . S
C2320 C2318 1.378 . S
C2320 C2321 1.367 . S
C2321 C2320 1.367 . S
C2321 C2323 1.433 . S
C2322 C2318 1.350 . S
C2322 C2319 1.463 1_565 S
C2322 N2326 1.427 . S
C2323 H2313 0.929 . S
C2323 C2321 1.433 . S
C2323 N2326 1.384 . S
C2324 H2315 0.929 . S
C2324 C2316 1.378 . S
C2324 C2319 1.350 . S
C2325 H2312 0.929 . S
C2325 C2317 1.433 . S
C2325 N2327 1.384 . S
N2326 C2322 1.427 . S
N2326 C2323 1.384 . S
N2327 C2319 1.427 . S
N2327 C2325 1.384 . S
H2328 C2334 0.930 . S
H2329 C2338 0.930 . S
H2330 C2343 0.929 . S
H2331 C2341 0.929 . S
H2332 C2336 0.929 . S
H2333 C2342 0.929 . S
C2334 H2328 0.930 . S
C2334 C2335 1.367 . S
C2334 C2342 1.378 . S
C2335 C2334 1.367 . S
C2335 C2343 1.433 . S
C2336 H2332 0.929 . S
C2336 C2338 1.378 . S
C2336 C2340 1.350 . S
C2337 C2340 1.463 1_455 S
C2337 C2342 1.350 . S
C2337 N2345 1.427 . S
C2338 H2329 0.930 . S
C2338 C2336 1.378 . S
C2338 C2339 1.367 . S
C2339 C2338 1.367 . S
C2339 C2341 1.433 . S
C2340 C2336 1.350 . S
C2340 C2337 1.463 1_655 S
C2340 N2344 1.427 . S
C2341 H2331 0.929 . S
C2341 C2339 1.433 . S
C2341 N2344 1.384 . S
C2342 H2333 0.929 . S
C2342 C2334 1.378 . S
C2342 C2337 1.350 . S
C2343 H2330 0.929 . S
C2343 C2335 1.433 . S
C2343 N2345 1.384 . S
N2344 C2340 1.427 . S
N2344 C2341 1.384 . S
N2345 C2337 1.427 . S
N2345 C2343 1.384 . S
H2346 C2352 0.930 . S
H2347 C2356 0.930 . S
H2348 C2361 0.929 . S
H2349 C2359 0.929 . S
H2350 C2354 0.929 . S
H2351 C2360 0.929 . S
C2352 H2346 0.930 . S
C2352 C2353 1.367 . S
C2352 C2360 1.378 . S
C2353 C2352 1.367 . S
C2353 C2361 1.433 . S
C2354 H2350 0.929 . S
C2354 C2356 1.378 . S
C2354 C2358 1.350 . S
C2355 C2358 1.463 1_545 S
C2355 C2360 1.350 . S
C2355 N2363 1.427 . S
C2356 H2347 0.930 . S
C2356 C2354 1.378 . S
C2356 C2357 1.367 . S
C2357 C2356 1.367 . S
C2357 C2359 1.433 . S
C2358 C2354 1.350 . S
C2358 C2355 1.463 1_565 S
C2358 N2362 1.427 . S
C2359 H2349 0.929 . S
C2359 C2357 1.433 . S
C2359 N2362 1.384 . S
C2360 H2351 0.929 . S
C2360 C2352 1.378 . S
C2360 C2355 1.350 . S
C2361 H2348 0.929 . S
C2361 C2353 1.433 . S
C2361 N2363 1.384 . S
N2362 C2358 1.427 . S
N2362 C2359 1.384 . S
N2363 C2355 1.427 . S
N2363 C2361 1.384 . S
H2364 C2370 0.930 . S
H2365 C2374 0.930 . S
H2366 C2379 0.929 . S
H2367 C2377 0.929 . S
H2368 C2372 0.929 . S
H2369 C2378 0.929 . S
C2370 H2364 0.930 . S
C2370 C2371 1.367 . S
C2370 C2378 1.378 . S
C2371 C2370 1.367 . S
C2371 C2379 1.433 . S
C2372 H2368 0.929 . S
C2372 C2374 1.378 . S
C2372 C2376 1.350 . S
C2373 C2376 1.463 1_655 S
C2373 C2378 1.350 . S
C2373 N2381 1.427 . S
C2374 H2365 0.930 . S
C2374 C2372 1.378 . S
C2374 C2375 1.367 . S
C2375 C2374 1.367 . S
C2375 C2377 1.433 . S
C2376 C2372 1.350 . S
C2376 C2373 1.463 1_455 S
C2376 N2380 1.427 . S
C2377 H2367 0.929 . S
C2377 C2375 1.433 . S
C2377 N2380 1.384 . S
C2378 H2369 0.929 . S
C2378 C2370 1.378 . S
C2378 C2373 1.350 . S
C2379 H2366 0.929 . S
C2379 C2371 1.433 . S
C2379 N2381 1.384 . S
N2380 C2376 1.427 . S
N2380 C2377 1.384 . S
N2381 C2373 1.427 . S
N2381 C2379 1.384 . S
H2382 C2388 0.930 . S
H2383 C2392 0.930 . S
H2384 C2397 0.929 . S
H2385 C2395 0.929 . S
H2386 C2390 0.929 . S
H2387 C2396 0.929 . S
C2388 H2382 0.930 . S
C2388 C2389 1.367 . S
C2388 C2396 1.378 . S
C2389 C2388 1.367 . S
C2389 C2397 1.433 . S
C2390 H2386 0.929 . S
C2390 C2392 1.378 . S
C2390 C2394 1.350 . S
C2391 C2394 1.463 1_455 S
C2391 C2396 1.350 . S
C2391 N2399 1.427 . S
C2392 H2383 0.930 . S
C2392 C2390 1.378 . S
C2392 C2393 1.367 . S
C2393 C2392 1.367 . S
C2393 C2395 1.433 . S
C2394 C2390 1.350 . S
C2394 C2391 1.463 1_655 S
C2394 N2398 1.427 . S
C2395 H2385 0.929 . S
C2395 C2393 1.433 . S
C2395 N2398 1.384 . S
C2396 H2387 0.929 . S
C2396 C2388 1.378 . S
C2396 C2391 1.350 . S
C2397 H2384 0.929 . S
C2397 C2389 1.433 . S
C2397 N2399 1.384 . S
N2398 C2394 1.427 . S
N2398 C2395 1.384 . S
N2399 C2391 1.427 . S
N2399 C2397 1.384 . S
C679 C546 1.338 . S
C683 C11 1.336 . S
C697 C25 1.218 . S
C701 C504 1.205 . S
C715 C39 1.299 . S
C719 C529 1.298 . S
C733 C543 1.172 . S
C737 C53 1.171 . S
C751 C473 1.232 . S
C755 C67 1.222 . S
C769 C70 1.217 . S
C773 C487 1.220 . S
C787 C95 1.272 . S
C791 C490 1.263 . S
C805 C98 1.261 . S
C809 C448 1.248 . S
C823 C112 1.397 . S
C827 C434 1.403 . S
C841 C403 1.221 . S
C845 C137 1.213 . S
C859 C406 1.339 . S
C863 C140 1.334 . S
C877 C165 1.279 . S
C881 C431 1.271 . S
C895 C168 1.231 . S
C899 C361 1.243 . S
C913 C193 1.292 . S
C917 C364 1.287 . S
C931 C389 1.182 . S
C935 C196 1.171 . S
C949 C336 1.342 . S
C953 C221 1.356 . S
C967 C235 1.214 . S
C971 C627 1.218 . S
C985 C658 1.241 . S
C989 C238 1.234 . S
C1003 C641 1.356 . S
C1007 C252 1.348 . S
C1021 C644 1.166 . S
C1025 C266 1.164 . S
C1039 C571 1.340 . S
C1043 C280 1.332 . S
C1057 C599 1.235 . S
C1061 C305 1.230 . S
C1075 C308 1.266 . S
C1079 C602 1.262 . S
C1093 C574 1.194 . S
C1097 C322 1.192 . S
C1111 C459 1.308 . S
C1115 C291 1.311 . S
C1129 C249 1.204 . S
C1133 C462 1.209 . S
C1147 C476 1.318 . S
C1151 C263 1.332 . S
C1165 C501 1.176 . S
C1169 C277 1.179 . S
C1183 C333 1.235 . S
C1187 C515 1.230 . S
C1201 C518 1.241 . S
C1205 C294 1.245 . S
C1219 C319 1.266 . S
C1223 C532 1.258 . S
C1237 C224 1.224 . S
C1241 C557 1.235 . S
C1255 C560 1.389 . S
C1259 C210 1.399 . S
C1273 C179 1.292 . S
C1277 C669 1.283 . S
C1291 C630 1.345 . S
C1295 C182 1.340 . S
C1309 C207 1.207 . S
C1313 C655 1.202 . S
C1327 C126 1.155 . S
C1331 C585 1.170 . S
C1345 C151 1.296 . S
C1349 C588 1.293 . S
C1363 C154 1.254 . S
C1367 C613 1.248 . S
C1381 C616 1.337 . S
C1385 C123 1.349 . S
C1399 C347 1.248 . S
C1403 C109 1.242 . S
C1417 C392 1.224 . S
C1421 C14 1.227 . S
C1435 C417 1.329 . S
C1439 C28 1.316 . S
C1453 C420 1.179 . S
C1457 C42 1.176 . S
C1471 C445 1.370 . S
C1475 C0 1.360 . S
C1489 C81 1.207 . S
C1493 C375 1.199 . S
C1507 C378 1.254 . S
C1511 C84 1.252 . S
C1525 C350 1.200 . S
C1529 C56 1.208 . S
C1543 C5 1.499 . S
C1547 C373 1.492 . S
C1561 C383 1.452 . S
C1565 C19 1.452 . S
C1579 C33 1.494 . S
C1583 C345 1.490 . S
C1597 C47 1.447 . S
C1601 C355 1.448 . S
C1615 C61 1.455 . S
C1619 C425 1.457 . S
C1633 C443 1.499 . S
C1637 C79 1.493 . S
C1651 C89 1.459 . S
C1655 C397 1.464 . S
C1669 C415 1.502 . S
C1673 C107 1.504 . S
C1687 C121 1.475 . S
C1691 C513 1.481 . S
C1705 C523 1.455 . S
C1709 C131 1.456 . S
C1723 C149 1.457 . S
C1727 C537 1.469 . S
C1741 C159 1.481 . S
C1745 C555 1.478 . S
C1759 C177 1.453 . S
C1763 C457 1.452 . S
C1777 C187 1.475 . S
C1781 C467 1.479 . S
C1795 C481 1.429 . S
C1799 C205 1.423 . S
C1813 C215 1.494 . S
C1817 C499 1.486 . S
C1831 C611 1.477 . S
C1835 C229 1.481 . S
C1849 C247 1.487 . S
C1853 C635 1.492 . S
C1867 C261 1.453 . S
C1871 C653 1.451 . S
C1885 C565 1.477 . S
C1889 C275 1.471 . S
C1903 C667 1.471 . S
C1907 C289 1.466 . S
C1921 C299 1.468 . S
C1925 C583 1.457 . S
C1939 C593 1.462 . S
C1943 C317 1.457 . S
C1957 C331 1.437 . S
C1961 C621 1.447 . S
C1975 C597 1.494 . S
C1979 C285 1.497 . S
C1993 C243 1.464 . S
C1997 C607 1.458 . S
C2011 C625 1.490 . S
C2015 C257 1.493 . S
C2029 C579 1.439 . S
C2033 C271 1.437 . S
C2047 C649 1.447 . S
C2051 C327 1.447 . S
C2065 C303 1.501 . S
C2069 C569 1.497 . S
C2083 C663 1.469 . S
C2087 C313 1.471 . S
C2101 C233 1.502 . S
C2105 C639 1.498 . S
C2119 C471 1.481 . S
C2123 C219 1.476 . S
C2137 C173 1.476 . S
C2141 C485 1.467 . S
C2155 C191 1.455 . S
C2159 C495 1.468 . S
C2173 C453 1.459 . S
C2177 C201 1.462 . S
C2191 C135 1.430 . S
C2195 C551 1.434 . S
C2209 C509 1.479 . S
C2213 C145 1.473 . S
C2227 C163 1.450 . S
C2231 C527 1.444 . S
C2245 C117 1.496 . S
C2249 C541 1.485 . S
C2263 C387 1.477 . S
C2267 C103 1.486 . S
C2281 C23 1.477 . S
C2285 C411 1.489 . S
C2299 C37 1.453 . S
C2303 C429 1.446 . S
C2317 C439 1.483 . S
C2321 C51 1.478 . S
C2335 C9 1.471 . S
C2339 C401 1.471 . S
C2353 C75 1.463 . S
C2357 C359 1.454 . S
C2371 C93 1.448 . S
C2375 C369 1.456 . S
C2389 C65 1.444 . S
C2393 C341 1.450 . S
