# Generated by pormake.
# Topology snz, (6)-cn, num edge types: 1
# Building blocks:
#     Node 0, Type 0, BuildingBlock: JUFBIX_clean_sbu_0, # of connection points: 6
#     Node 1, Type 0, BuildingBlock: JUFBIX_clean_sbu_0, # of connection points: 6
#     Node 2, Type 0, BuildingBlock: JUFBIX_clean_sbu_0, # of connection points: 6
#     Node 3, Type 0, BuildingBlock: JUFBIX_clean_sbu_0, # of connection points: 6
#     Node 4, Type 0, BuildingBlock: JUFBIX_clean_sbu_0, # of connection points: 6
#     Node 5, Type 0, BuildingBlock: JUFBIX_clean_sbu_0, # of connection points: 6
#     Node 6, Type 0, BuildingBlock: JUFBIX_clean_sbu_0, # of connection points: 6
#     Node 7, Type 0, BuildingBlock: JUFBIX_clean_sbu_0, # of connection points: 6
#     Node 8, Type 0, BuildingBlock: JUFBIX_clean_sbu_0, # of connection points: 6
#     Edge 9, Type (0, 0), None
#     Edge 10, Type (0, 0), None
#     Edge 11, Type (0, 0), None
#     Edge 12, Type (0, 0), None
#     Edge 13, Type (0, 0), None
#     Edge 14, Type (0, 0), None
#     Edge 15, Type (0, 0), None
#     Edge 16, Type (0, 0), None
#     Edge 17, Type (0, 0), None
#     Edge 18, Type (0, 0), None
#     Edge 19, Type (0, 0), None
#     Edge 20, Type (0, 0), None
#     Edge 21, Type (0, 0), None
#     Edge 22, Type (0, 0), None
#     Edge 23, Type (0, 0), None
#     Edge 24, Type (0, 0), None
#     Edge 25, Type (0, 0), None
#     Edge 26, Type (0, 0), None
#     Edge 27, Type (0, 0), None
#     Edge 28, Type (0, 0), None
#     Edge 29, Type (0, 0), None
#     Edge 30, Type (0, 0), None
#     Edge 31, Type (0, 0), None
#     Edge 32, Type (0, 0), None
#     Edge 33, Type (0, 0), None
#     Edge 34, Type (0, 0), None
#     Edge 35, Type (0, 0), None
# Relax obj value: 0.491
# Max RMSD: 0.320
# Mean RMSD: 0.235
data_MOF--net-snz--node1-JUFBIX_clean_sbu_0--edge1-none
_symmetry_space_group_name_H-M    P1
_symmetry_Int_Tables_number       1
_symmetry_cell_setting            triclinic
loop_
_symmetry_equiv_pos_as_xyz
'x, y, z'
_cell_length_a     26.264267
_cell_length_b     29.174645
_cell_length_c     6.4178854
_cell_angle_alpha  88.213514
_cell_angle_beta   87.683961
_cell_angle_gamma 118.90272
loop_
_atom_site_label
_atom_site_type_symbol
_atom_site_fract_x
_atom_site_fract_y
_atom_site_fract_z
_atom_type_partial_charge
Co0 Co 0.23464 0.67966 0.79206 0.0
C1 C 0.19486 0.63674 0.21284 0.0
Co2 Co 0.16085 0.59705 0.83759 0.0
C3 C 0.34245 0.75129 0.93463 0.0
C4 C 0.30021 0.7923 0.81399 0.0
N5 N 0.29912 0.74573 0.81164 0.0
N6 N 0.36903 0.79811 0.01608 0.0
C7 C 0.34249 0.8243 0.94168 0.0
H8 H 0.34621 0.71886 0.00181 0.0
H9 H 0.26646 0.79932 0.75838 0.0
C10 C 0.19968 0.63957 0.41829 0.0
N11 N 0.10313 0.52031 0.83213 0.0
C12 C 0.11558 0.48013 0.79574 0.0
C13 C 1.04426 0.49455 0.85227 0.0
N14 N 1.06764 0.43122 0.79376 0.0
C15 C 1.02275 0.44089 0.82929 0.0
C16 C 0.12961 0.68207 0.79852 0.0
O17 O 0.23583 0.68247 0.49511 0.0
O18 O 0.16792 0.59911 0.53818 0.0
O19 O 0.10472 0.63055 0.81036 0.0
O20 O 0.18444 0.7074 0.80085 0.0
O21 O 0.15477 0.59626 0.13542 0.0
H22 H 1.01813 0.51343 0.88107 0.0
H23 H 0.15948 0.48647 0.76879 0.0
O24 O 0.23114 0.67488 0.09257 0.0
O25 O 0.28651 0.65515 0.77464 0.0
O26 O 0.22199 0.57576 0.87572 0.0
C27 C 0.27545 0.61091 0.84671 0.0
H28 H 0.34754 0.86077 -0.00237 0.0
H29 H 0.97721 0.41127 0.83981 0.0
Co30 Co 0.67692 0.57696 0.02751 0.0
C31 C 0.68291 0.61791 0.62101 0.0
Co32 Co 0.69167 0.65795 0.00656 0.0
C33 C 0.62712 0.47136 0.90951 0.0
C34 C 0.70218 0.49457 0.08935 0.0
N35 N 0.66397 0.50977 0.02671 0.0
N36 N 0.64362 0.43478 0.88598 0.0
C37 C 0.69069 0.44916 -0.00141 0.0
H38 H 0.59237 0.47258 0.82846 0.0
H39 H 0.73871 0.51701 0.1825 0.0
C40 C 0.68511 0.6164 0.4144 0.0
N41 N 0.70847 0.7282 0.02741 0.0
C42 C 0.75575 0.75762 0.13576 0.0
C43 C 0.6679 0.74013 0.10658 0.0
N44 N 0.74328 0.77906 0.29771 0.0
C45 C 0.68867 0.77004 0.27742 0.0
C46 C 0.57407 0.5828 0.06254 0.0
O47 O 0.67927 0.57584 0.32658 0.0
O48 O 0.69297 0.65582 0.30303 0.0
O49 O 0.60716 0.63222 0.03776 0.0
O50 O 0.59675 0.55303 0.05943 0.0
O51 O 0.68946 0.65907 0.70826 0.0
H52 H 0.6226 0.72056 0.07096 0.0
H53 H 0.79534 0.7551 0.12803 0.0
O54 O 0.67457 0.57797 0.73207 0.0
O55 O 0.75718 0.60007 0.99016 0.0
O56 O 0.7758 0.68102 0.96998 0.0
C57 C 0.79398 0.64796 0.96061 0.0
H58 H 0.71442 0.42768 0.01747 0.0
H59 H 0.66316 0.77788 0.39315 0.0
Co60 Co 0.74299 0.0551 0.34179 0.0
C61 C 0.74061 0.09324 0.74144 0.0
Co62 Co 0.73602 0.1267 0.34939 0.0
C63 C 0.82076 1.01715 0.4512 0.0
C64 C 0.73148 0.95637 0.47146 0.0
N65 N 0.76689 1.00502 0.38599 0.0
N66 N 0.81945 0.97905 0.57816 0.0
C67 C 0.76322 0.94075 0.59025 0.0
H68 H 0.85993 0.05434 0.4194 0.0
H69 H 0.68459 0.93551 0.46751 0.0
C70 C 0.73659 0.08769 0.94902 0.0
N71 N 0.71916 0.18066 0.31462 0.0
C72 C 0.75389 0.22533 0.1967 0.0
C73 C 0.66476 0.17411 0.30301 0.0
N74 N 0.72324 0.24597 0.11313 0.0
C75 C 0.66695 0.21285 0.17213 0.0
C76 C 0.84376 0.15327 0.23603 0.0
O77 O 0.7379 1.04914 0.04479 0.0
O78 O 0.73329 0.12238 0.05297 0.0
O79 O 0.81661 0.17534 0.31033 0.0
O80 O 0.82217 0.10452 0.27567 0.0
O81 O 0.73761 0.13078 0.64661 0.0
H82 H 0.62489 0.1406 0.36469 0.0
H83 H 0.79884 0.23866 0.1465 0.0
O84 O 0.74769 0.06075 0.63624 0.0
O85 O 0.65998 1.00501 0.39326 0.0
O86 O 0.65607 0.0781 0.38536 0.0
C87 C 0.63 1.02859 0.40558 0.0
H88 H 0.74556 0.90425 0.68419 0.0
H89 H 0.62988 0.2147 0.11434 0.0
Co90 Co 0.97911 0.98851 0.66628 0.0
C91 C 0.94027 0.94599 0.08561 0.0
Co92 Co 0.90532 0.9059 0.71188 0.0
C93 C 1.02439 0.10543 0.70815 0.0
C94 C 0.0957 0.09101 0.65161 0.0
N95 N 1.03683 0.06525 0.67177 0.0
N96 N 1.07232 0.15434 0.71013 0.0
C97 C 0.11721 0.14467 0.6746 0.0
H98 H 0.98048 0.0991 0.7351 0.0
H99 H 0.12183 0.07214 0.62281 0.0
C100 C 0.9451 0.94883 0.29106 0.0
N101 N 0.84081 0.83983 0.6922 0.0
C102 C 0.79754 0.83433 0.56904 0.0
C103 C 0.83975 0.79326 0.68948 0.0
N104 N 0.77113 0.7876 0.48686 0.0
C105 C 0.79756 0.76133 0.56134 0.0
C106 C 0.86452 0.97467 0.65723 0.0
O107 O 0.98519 0.98931 0.36845 0.0
O108 O 0.90882 0.9107 0.41135 0.0
O109 O 0.85345 0.93042 0.72934 0.0
O110 O 0.91797 1.00981 0.62816 0.0
O111 O 0.90412 0.90308 0.00882 0.0
H112 H 0.87348 0.78623 0.74519 0.0
H113 H 0.79375 0.86677 0.50219 0.0
O114 O 0.97204 0.98645 0.9657 0.0
O115 O 1.03523 0.95501 0.69349 0.0
O116 O 0.95551 0.87815 0.70306 0.0
C117 C 1.01034 0.90349 0.70534 0.0
H118 H 0.16275 0.17429 0.66407 0.0
H119 H 0.79252 0.72488 0.50519 0.0
Co120 Co 0.44828 0.9276 0.4971 0.0
C121 C 0.45485 0.96917 0.08924 0.0
Co122 Co 0.46304 1.00859 0.47612 0.0
C123 C 0.38422 0.82801 0.36741 0.0
C124 C 0.47202 0.84539 0.39736 0.0
N125 N 0.43143 0.85734 0.47625 0.0
N126 N 0.39684 0.8067 0.20533 0.0
C127 C 0.45137 0.81558 0.22617 0.0
H128 H 0.34465 0.83055 0.37491 0.0
H129 H 0.51729 0.86489 0.43351 0.0
C130 C 0.45705 0.96765 0.88263 0.0
N131 N 0.476 0.07579 0.47693 0.0
C132 C 0.51285 0.11419 0.59417 0.0
C133 C 0.43779 0.091 0.41428 0.0
N134 N 0.49634 0.15077 0.61772 0.0
C135 C 0.44928 0.13641 0.50507 0.0
C136 C 0.34597 0.93761 0.54306 0.0
O137 O 0.4505 0.92649 0.79539 0.0
O138 O 0.46539 1.00759 0.77156 0.0
O139 O 0.38277 0.98549 0.51348 0.0
O140 O 0.36415 0.90454 0.5337 0.0
O141 O 0.46069 1.00973 0.17706 0.0
H142 H 0.40127 0.06857 0.3211 0.0
H143 H 0.54759 0.11296 0.67525 0.0
O144 O 0.44698 0.92975 0.20061 0.0
O145 O 0.53279 0.95331 0.46588 0.0
O146 O 0.5432 1.03251 0.44422 0.0
C147 C 0.56588 1.00274 0.44112 0.0
H148 H 0.47692 0.80773 0.11065 0.0
H149 H 0.42556 0.15789 0.4862 0.0
Co150 Co 0.40393 0.45883 0.15439 0.0
C151 C 0.40336 0.49784 0.55474 0.0
Co152 Co 0.39696 0.53043 0.16196 0.0
C153 C 0.38606 0.36021 0.30706 0.0
C154 C 0.47519 0.41142 0.20075 0.0
N155 N 0.42079 0.40488 0.18915 0.0
N156 N 0.41672 0.33957 0.39063 0.0
C157 C 0.473 0.37269 0.33164 0.0
H158 H 0.34112 0.34687 0.35726 0.0
H159 H 0.51507 0.44493 0.13908 0.0
C160 C 0.39934 0.49229 0.76233 0.0
N161 N 0.37306 0.58051 0.11781 0.0
C162 C 0.3192 0.56839 0.05262 0.0
C163 C 0.40848 0.62919 0.03257 0.0
N164 N 0.3205 0.60654 0.92602 0.0
C165 C 0.37673 0.64484 0.91396 0.0
C166 C 0.50995 0.55694 0.09813 0.0
O167 O 0.40234 0.45475 0.85717 0.0
O168 O 0.39226 0.52478 0.86752 0.0
O169 O 0.47997 0.58052 0.11046 0.0
O170 O 0.48388 0.50743 0.11838 0.0
O171 O 0.40206 0.53639 0.45897 0.0
H172 H 0.45537 0.65004 0.03653 0.0
H173 H 0.28004 0.53118 0.08414 0.0
O174 O 0.40667 0.46315 0.45081 0.0
O175 O 0.32334 0.41019 0.19348 0.0
O176 O 0.31779 0.48101 0.2281 0.0
C177 C 0.29619 0.43227 0.26777 0.0
H178 H 0.51008 0.37084 0.38943 0.0
H179 H 0.39439 0.68136 0.82013 0.0
Co180 Co 0.61284 0.29461 0.73767 0.0
C181 C 0.52309 0.19623 0.7135 0.0
Co182 Co 0.52713 0.29094 0.76609 0.0
C183 C 0.71628 0.31179 0.91956 0.0
C184 C 0.70693 0.277 0.6292 0.0
N185 N 0.68727 0.30305 0.74454 0.0
N186 N 0.74133 0.28142 0.93865 0.0
C187 C 0.74065 0.26366 0.74708 0.0
H188 H 0.70642 0.32813 0.0544 0.0
H189 H 0.68768 0.2598 0.49098 0.0
C190 C 0.61687 0.38932 0.79025 0.0
N191 N 0.4527 0.2825 0.75922 0.0
C192 C 0.42368 0.27375 0.5842 0.0
C193 C 0.43303 0.30854 0.87455 0.0
N194 N 0.39863 0.30412 0.56511 0.0
C195 C 0.39931 0.32188 0.75668 0.0
C196 C 0.56631 0.28933 0.14194 0.0
O197 O 0.64559 0.36568 0.75381 0.0
O198 O 0.56174 0.36522 0.78062 0.0
O199 O 0.52149 0.28563 0.06035 0.0
O200 O 0.6063 0.28881 0.02995 0.0
O201 O 0.49437 0.21986 0.74996 0.0
H202 H 0.45228 0.32574 0.01277 0.0
H203 H 0.43354 0.25741 0.44937 0.0
O204 O 0.57822 0.22032 0.72313 0.0
O205 O 0.61847 0.29992 0.4434 0.0
O206 O 0.53366 0.29674 0.47381 0.0
C207 C 0.57365 0.29622 0.36182 0.0
H208 H 0.7504 0.23252 0.71289 0.0
H209 H 0.38955 0.35301 0.79087 0.0
Co210 Co 0.11821 0.31301 0.74314 0.0
C211 C 1.06528 0.38264 0.76939 0.0
Co212 Co 1.02175 0.27255 0.76073 0.0
C213 C 0.22769 0.3603 0.51049 0.0
C214 C 0.22378 0.40392 0.76689 0.0
N215 N 0.19908 0.35493 0.69879 0.0
N216 N 0.26153 0.41113 0.44627 0.0
C217 C 0.25948 0.43856 0.60856 0.0
H218 H 0.21688 0.32837 0.40856 0.0
H219 H 0.20924 0.41486 0.90761 0.0
C220 C 1.07469 0.20293 0.73449 0.0
N221 N 0.94088 0.23063 0.80508 0.0
C222 C 0.91227 0.22525 0.99338 0.0
C223 C 0.91618 0.18164 0.73693 0.0
N224 N 0.87843 0.17441 0.05755 0.0
C225 C 0.88048 0.147 0.89523 0.0
C226 C 1.06775 0.29311 0.36367 0.0
O227 O 0.12301 0.2462 0.73265 0.0
O228 O 1.0281 0.2064 0.7526 0.0
O229 O 1.01858 0.27323 0.46598 0.0
O230 O 0.11404 0.3134 0.45631 0.0
O231 O 1.01695 0.33937 0.77123 0.0
H232 H 0.93073 0.17072 0.5962 0.0
H233 H 0.92308 0.25717 0.09534 0.0
O234 O 0.11187 0.37917 0.75128 0.0
O235 O 0.12138 0.31233 0.0379 0.0
O236 O 1.02592 0.27217 0.04756 0.0
C237 C 1.07221 0.29245 0.14021 0.0
H238 H 0.28184 0.48091 0.61232 0.0
H239 H 0.85812 0.10465 0.89143 0.0
Co240 Co 1.02442 0.75963 0.76619 0.0
C241 C 1.03784 0.86735 0.72673 0.0
Co242 Co 0.11554 0.82594 0.73762 0.0
C243 C 0.89868 0.70946 0.88745 0.0
C244 C 0.92436 0.65845 0.73882 0.0
N245 N 0.94535 0.7084 0.79314 0.0
N246 N 0.8499 0.66205 0.89404 0.0
C247 C 0.86645 0.62986 0.80372 0.0
H248 H 0.90132 0.74327 0.96131 0.0
H249 H 0.94959 0.64329 0.6588 0.0
C250 C 0.10211 0.71821 0.77709 0.0
N251 N 0.19461 0.87717 0.71065 0.0
C252 C 0.24128 0.87611 0.61629 0.0
C253 C 0.21561 0.92712 0.76497 0.0
N254 N 0.29006 0.92352 0.60967 0.0
C255 C 0.27351 0.95571 0.70002 0.0
C256 C 1.06988 0.79369 0.14012 0.0
O257 O 1.04758 0.70284 0.78363 0.0
O258 O 0.13653 0.76822 0.755 0.0
O259 O 0.11488 0.82704 0.03082 0.0
O260 O 1.02467 0.76142 0.0552 0.0
O261 O 0.09237 0.88273 0.72019 0.0
H262 H 0.19038 0.94228 0.84501 0.0
H263 H 0.23863 0.8423 0.54241 0.0
O264 O 1.00343 0.81734 0.74882 0.0
O265 O 1.02508 0.75853 0.47299 0.0
O266 O 0.11529 0.82415 0.44861 0.0
C267 C 1.07008 0.79188 0.36369 0.0
H268 H 0.83807 0.58879 0.7791 0.0
H269 H 0.30189 0.99678 0.72463 0.0
loop_
_geom_bond_atom_site_label_1
_geom_bond_atom_site_label_2
_geom_bond_distance
_geom_bond_site_symmetry_2
_ccdc_geom_bond_type
Co0 N5 2.057 . S
Co0 O17 2.021 1_554 S
Co0 O20 2.062 1_554 S
Co0 O24 2.117 . S
Co0 O25 2.020 . S
C1 O21 1.259 . S
C1 O24 1.258 . S
Co2 N11 2.057 1_454 S
Co2 O18 2.117 1_554 S
Co2 O19 2.020 1_454 S
Co2 O21 2.021 . S
Co2 O26 2.062 . S
C3 N5 1.316 1_556 S
C3 N6 1.347 1_556 S
C3 H8 0.931 . S
C4 N5 1.375 . S
C4 C7 1.350 . S
C4 H9 0.930 . S
N5 Co0 2.057 . S
N5 C3 1.316 1_554 S
N5 C4 1.375 . S
N6 C3 1.347 1_554 S
N6 C7 1.373 . S
C7 C4 1.350 . S
C7 N6 1.373 . S
C7 H28 0.931 . S
H8 C3 0.931 . S
H9 C4 0.930 . S
C10 O17 1.259 . S
C10 O18 1.258 . S
N11 Co2 2.057 1_656 S
N11 C12 1.316 1_556 S
N11 C13 1.375 . S
C12 N11 1.316 1_554 S
C12 N14 1.347 1_554 S
C12 H23 0.931 . S
C13 N11 1.375 . S
C13 C15 1.350 . S
C13 H22 0.930 . S
N14 C12 1.347 1_556 S
N14 C15 1.373 . S
C15 C13 1.350 . S
C15 N14 1.373 . S
C15 H29 0.931 . S
C16 O19 1.256 1_455 S
C16 O20 1.255 . S
O17 Co0 2.021 1_556 S
O17 C10 1.259 . S
O18 Co2 2.117 1_556 S
O18 C10 1.258 . S
O19 Co2 2.020 1_656 S
O19 C16 1.256 1_655 S
O20 Co0 2.062 1_556 S
O20 C16 1.255 . S
O21 C1 1.259 . S
O21 Co2 2.021 . S
H22 C13 0.930 . S
H23 C12 0.931 . S
O24 Co0 2.117 . S
O24 C1 1.258 . S
O25 Co0 2.020 . S
O25 C27 1.256 . S
O26 Co2 2.062 . S
O26 C27 1.255 . S
C27 O25 1.256 . S
C27 O26 1.255 . S
H28 C7 0.931 . S
H29 C15 0.931 . S
Co30 N35 2.057 . S
Co30 O47 2.021 . S
Co30 O50 2.062 . S
Co30 O54 2.117 1_554 S
Co30 O55 2.020 . S
C31 O51 1.259 . S
C31 O54 1.258 . S
Co32 N41 2.057 . S
Co32 O48 2.117 . S
Co32 O49 2.020 . S
Co32 O51 2.021 1_554 S
Co32 O56 2.062 . S
C33 N35 1.316 . S
C33 N36 1.347 . S
C33 H38 0.931 . S
C34 N35 1.375 1_556 S
C34 C37 1.350 . S
C34 H39 0.930 . S
N35 Co30 2.057 . S
N35 C33 1.316 . S
N35 C34 1.375 1_554 S
N36 C33 1.347 . S
N36 C37 1.373 1_554 S
C37 C34 1.350 . S
C37 N36 1.373 1_556 S
C37 H58 0.931 . S
H38 C33 0.931 . S
H39 C34 0.930 . S
C40 O47 1.259 . S
C40 O48 1.258 . S
N41 Co32 2.057 . S
N41 C42 1.316 . S
N41 C43 1.375 . S
C42 N41 1.316 . S
C42 N44 1.347 . S
C42 H53 0.931 . S
C43 N41 1.375 . S
C43 C45 1.350 . S
C43 H52 0.930 . S
N44 C42 1.347 . S
N44 C45 1.373 . S
C45 C43 1.350 . S
C45 N44 1.373 . S
C45 H59 0.931 . S
C46 O49 1.256 . S
C46 O50 1.255 . S
O47 Co30 2.021 . S
O47 C40 1.259 . S
O48 Co32 2.117 . S
O48 C40 1.258 . S
O49 Co32 2.020 . S
O49 C46 1.256 . S
O50 Co30 2.062 . S
O50 C46 1.255 . S
O51 C31 1.259 . S
O51 Co32 2.021 1_556 S
H52 C43 0.930 . S
H53 C42 0.931 . S
O54 Co30 2.117 1_556 S
O54 C31 1.258 . S
O55 Co30 2.020 . S
O55 C57 1.256 . S
O56 Co32 2.062 . S
O56 C57 1.255 . S
C57 O55 1.256 . S
C57 O56 1.255 . S
H58 C37 0.931 . S
H59 C45 0.931 . S
Co60 N65 2.057 . S
Co60 O77 2.021 . S
Co60 O80 2.062 1_565 S
Co60 O84 2.117 1_565 S
Co60 O85 2.020 . S
C61 O81 1.259 . S
C61 O84 1.258 . S
Co62 N71 2.057 . S
Co62 O78 2.117 . S
Co62 O79 2.020 . S
Co62 O81 2.021 . S
Co62 O86 2.062 . S
C63 N65 1.316 . S
C63 N66 1.347 . S
C63 H68 0.931 . S
C64 N65 1.375 . S
C64 C67 1.350 . S
C64 H69 0.930 . S
N65 Co60 2.057 . S
N65 C63 1.316 . S
N65 C64 1.375 . S
N66 C63 1.347 . S
N66 C67 1.373 . S
C67 C64 1.350 . S
C67 N66 1.373 . S
C67 H88 0.931 . S
H68 C63 0.931 . S
H69 C64 0.930 . S
C70 O77 1.259 1_546 S
C70 O78 1.258 1_556 S
N71 Co62 2.057 . S
N71 C72 1.316 . S
N71 C73 1.375 1_554 S
C72 N71 1.316 . S
C72 N74 1.347 . S
C72 H83 0.931 . S
C73 N71 1.375 1_556 S
C73 C75 1.350 . S
C73 H82 0.930 . S
N74 C72 1.347 . S
N74 C75 1.373 1_554 S
C75 C73 1.350 . S
C75 N74 1.373 1_556 S
C75 H89 0.931 . S
C76 O79 1.256 . S
C76 O80 1.255 . S
O77 Co60 2.021 . S
O77 C70 1.259 1_564 S
O78 Co62 2.117 . S
O78 C70 1.258 1_554 S
O79 Co62 2.020 . S
O79 C76 1.256 . S
O80 Co60 2.062 1_545 S
O80 C76 1.255 . S
O81 C61 1.259 . S
O81 Co62 2.021 . S
H82 C73 0.930 . S
H83 C72 0.931 . S
O84 Co60 2.117 1_545 S
O84 C61 1.258 . S
O85 Co60 2.020 . S
O85 C87 1.256 . S
O86 Co62 2.062 . S
O86 C87 1.255 1_545 S
C87 O85 1.256 . S
C87 O86 1.255 1_565 S
H88 C67 0.931 . S
H89 C75 0.931 . S
Co90 N95 2.057 1_665 S
Co90 O107 2.021 . S
Co90 O110 2.062 . S
Co90 O114 2.117 . S
Co90 O115 2.020 . S
C91 O111 1.259 . S
C91 O114 1.258 . S
Co92 N101 2.057 . S
Co92 O108 2.117 . S
Co92 O109 2.020 . S
Co92 O111 2.021 . S
Co92 O116 2.062 . S
C93 N95 1.316 . S
C93 N96 1.347 . S
C93 H98 0.931 . S
C94 N95 1.375 . S
C94 C97 1.350 . S
C94 H99 0.930 . S
N95 Co90 2.057 1_445 S
N95 C93 1.316 . S
N95 C94 1.375 . S
N96 C93 1.347 . S
N96 C97 1.373 . S
C97 C94 1.350 . S
C97 N96 1.373 . S
C97 H118 0.931 . S
H98 C93 0.931 . S
H99 C94 0.930 . S
C100 O107 1.259 . S
C100 O108 1.258 . S
N101 Co92 2.057 . S
N101 C102 1.316 . S
N101 C103 1.375 . S
C102 N101 1.316 . S
C102 N104 1.347 . S
C102 H113 0.931 . S
C103 N101 1.375 . S
C103 C105 1.350 . S
C103 H112 0.930 . S
N104 C102 1.347 . S
N104 C105 1.373 . S
C105 C103 1.350 . S
C105 N104 1.373 . S
C105 H119 0.931 . S
C106 O109 1.256 . S
C106 O110 1.255 . S
O107 Co90 2.021 . S
O107 C100 1.259 . S
O108 Co92 2.117 . S
O108 C100 1.258 . S
O109 Co92 2.020 . S
O109 C106 1.256 . S
O110 Co90 2.062 . S
O110 C106 1.255 . S
O111 C91 1.259 . S
O111 Co92 2.021 . S
H112 C103 0.930 . S
H113 C102 0.931 . S
O114 Co90 2.117 . S
O114 C91 1.258 . S
O115 Co90 2.020 . S
O115 C117 1.256 . S
O116 Co92 2.062 . S
O116 C117 1.255 . S
C117 O115 1.256 . S
C117 O116 1.255 . S
H118 C97 0.931 . S
H119 C105 0.931 . S
Co120 N125 2.057 . S
Co120 O137 2.021 . S
Co120 O140 2.062 . S
Co120 O144 2.117 . S
Co120 O145 2.020 . S
C121 O141 1.259 1_566 S
C121 O144 1.258 1_556 S
Co122 N131 2.057 . S
Co122 O138 2.117 1_545 S
Co122 O139 2.020 1_545 S
Co122 O141 2.021 . S
Co122 O146 2.062 . S
C123 N125 1.316 . S
C123 N126 1.347 . S
C123 H128 0.931 . S
C124 N125 1.375 . S
C124 C127 1.350 . S
C124 H129 0.930 1_554 S
N125 Co120 2.057 . S
N125 C123 1.316 . S
N125 C124 1.375 . S
N126 C123 1.347 . S
N126 C127 1.373 . S
C127 C124 1.350 . S
C127 N126 1.373 . S
C127 H148 0.931 1_554 S
H128 C123 0.931 . S
H129 C124 0.930 1_556 S
C130 O137 1.259 . S
C130 O138 1.258 . S
N131 Co122 2.057 . S
N131 C132 1.316 . S
N131 C133 1.375 . S
C132 N131 1.316 . S
C132 N134 1.347 . S
C132 H143 0.931 . S
C133 N131 1.375 . S
C133 C135 1.350 . S
C133 H142 0.930 . S
N134 C132 1.347 . S
N134 C135 1.373 . S
C135 C133 1.350 . S
C135 N134 1.373 . S
C135 H149 0.931 . S
C136 O139 1.256 . S
C136 O140 1.255 . S
O137 Co120 2.021 . S
O137 C130 1.259 . S
O138 Co122 2.117 1_565 S
O138 C130 1.258 . S
O139 Co122 2.020 1_565 S
O139 C136 1.256 . S
O140 Co120 2.062 . S
O140 C136 1.255 . S
O141 C121 1.259 1_544 S
O141 Co122 2.021 . S
H142 C133 0.930 . S
H143 C132 0.931 . S
O144 Co120 2.117 . S
O144 C121 1.258 1_554 S
O145 Co120 2.020 . S
O145 C147 1.256 . S
O146 Co122 2.062 . S
O146 C147 1.255 1_545 S
C147 O145 1.256 . S
C147 O146 1.255 1_565 S
H148 C127 0.931 1_556 S
H149 C135 0.931 . S
Co150 N155 2.057 . S
Co150 O167 2.021 1_554 S
Co150 O170 2.062 . S
Co150 O174 2.117 . S
Co150 O175 2.020 . S
C151 O171 1.259 . S
C151 O174 1.258 . S
Co152 N161 2.057 . S
Co152 O168 2.117 1_554 S
Co152 O169 2.020 . S
Co152 O171 2.021 . S
Co152 O176 2.062 . S
C153 N155 1.316 . S
C153 N156 1.347 . S
C153 H158 0.931 . S
C154 N155 1.375 . S
C154 C157 1.350 . S
C154 H159 0.930 . S
N155 Co150 2.057 . S
N155 C153 1.316 . S
N155 C154 1.375 . S
N156 C153 1.347 . S
N156 C157 1.373 . S
C157 C154 1.350 . S
C157 N156 1.373 . S
C157 H178 0.931 . S
H158 C153 0.931 . S
H159 C154 0.930 . S
C160 O167 1.259 . S
C160 O168 1.258 . S
N161 Co152 2.057 . S
N161 C162 1.316 . S
N161 C163 1.375 1_554 S
C162 N161 1.316 . S
C162 N164 1.347 . S
C162 H173 0.931 . S
C163 N161 1.375 1_556 S
C163 C165 1.350 . S
C163 H172 0.930 . S
N164 C162 1.347 . S
N164 C165 1.373 1_554 S
C165 C163 1.350 . S
C165 N164 1.373 1_556 S
C165 H179 0.931 . S
C166 O169 1.256 . S
C166 O170 1.255 . S
O167 Co150 2.021 1_556 S
O167 C160 1.259 . S
O168 Co152 2.117 1_556 S
O168 C160 1.258 . S
O169 Co152 2.020 . S
O169 C166 1.256 . S
O170 Co150 2.062 . S
O170 C166 1.255 . S
O171 C151 1.259 . S
O171 Co152 2.021 . S
H172 C163 0.930 . S
H173 C162 0.931 . S
O174 Co150 2.117 . S
O174 C151 1.258 . S
O175 Co150 2.020 . S
O175 C177 1.256 . S
O176 Co152 2.062 . S
O176 C177 1.255 . S
C177 O175 1.256 . S
C177 O176 1.255 . S
H178 C157 0.931 . S
H179 C165 0.931 . S
Co180 N185 2.057 . S
Co180 O197 2.021 . S
Co180 O200 2.062 1_556 S
Co180 O204 2.117 . S
Co180 O205 2.020 . S
C181 O201 1.259 . S
C181 O204 1.258 . S
Co182 N191 2.057 . S
Co182 O198 2.117 . S
Co182 O199 2.020 1_556 S
Co182 O201 2.021 . S
Co182 O206 2.062 . S
C183 N185 1.316 . S
C183 N186 1.347 . S
C183 H188 0.931 . S
C184 N185 1.375 . S
C184 C187 1.350 . S
C184 H189 0.930 . S
N185 Co180 2.057 . S
N185 C183 1.316 . S
N185 C184 1.375 . S
N186 C183 1.347 . S
N186 C187 1.373 . S
C187 C184 1.350 . S
C187 N186 1.373 . S
C187 H208 0.931 . S
H188 C183 0.931 . S
H189 C184 0.930 . S
C190 O197 1.259 . S
C190 O198 1.258 . S
N191 Co182 2.057 . S
N191 C192 1.316 . S
N191 C193 1.375 . S
C192 N191 1.316 . S
C192 N194 1.347 . S
C192 H203 0.931 . S
C193 N191 1.375 . S
C193 C195 1.350 . S
C193 H202 0.930 . S
N194 C192 1.347 . S
N194 C195 1.373 . S
C195 C193 1.350 . S
C195 N194 1.373 . S
C195 H209 0.931 . S
C196 O199 1.256 . S
C196 O200 1.255 . S
O197 Co180 2.021 . S
O197 C190 1.259 . S
O198 Co182 2.117 . S
O198 C190 1.258 . S
O199 Co182 2.020 1_554 S
O199 C196 1.256 . S
O200 Co180 2.062 1_554 S
O200 C196 1.255 . S
O201 C181 1.259 . S
O201 Co182 2.021 . S
H202 C193 0.930 . S
H203 C192 0.931 . S
O204 Co180 2.117 . S
O204 C181 1.258 . S
O205 Co180 2.020 . S
O205 C207 1.256 . S
O206 Co182 2.062 . S
O206 C207 1.255 . S
C207 O205 1.256 . S
C207 O206 1.255 . S
H208 C187 0.931 . S
H209 C195 0.931 . S
Co210 N215 2.057 . S
Co210 O227 2.021 . S
Co210 O230 2.062 . S
Co210 O234 2.117 . S
Co210 O235 2.020 1_556 S
C211 O231 1.259 . S
C211 O234 1.258 1_655 S
Co212 N221 2.057 . S
Co212 O228 2.117 . S
Co212 O229 2.020 . S
Co212 O231 2.021 . S
Co212 O236 2.062 1_556 S
C213 N215 1.316 . S
C213 N216 1.347 . S
C213 H218 0.931 . S
C214 N215 1.375 . S
C214 C217 1.350 . S
C214 H219 0.930 . S
N215 Co210 2.057 . S
N215 C213 1.316 . S
N215 C214 1.375 . S
N216 C213 1.347 . S
N216 C217 1.373 . S
C217 C214 1.350 . S
C217 N216 1.373 . S
C217 H238 0.931 . S
H218 C213 0.931 . S
H219 C214 0.930 . S
C220 O227 1.259 1_655 S
C220 O228 1.258 . S
N221 Co212 2.057 . S
N221 C222 1.316 . S
N221 C223 1.375 . S
C222 N221 1.316 . S
C222 N224 1.347 1_556 S
C222 H233 0.931 . S
C223 N221 1.375 . S
C223 C225 1.350 . S
C223 H232 0.930 . S
N224 C222 1.347 1_554 S
N224 C225 1.373 1_554 S
C225 C223 1.350 . S
C225 N224 1.373 1_556 S
C225 H239 0.931 . S
C226 O229 1.256 . S
C226 O230 1.255 1_655 S
O227 Co210 2.021 . S
O227 C220 1.259 1_455 S
O228 Co212 2.117 . S
O228 C220 1.258 . S
O229 Co212 2.020 . S
O229 C226 1.256 . S
O230 Co210 2.062 . S
O230 C226 1.255 1_455 S
O231 C211 1.259 . S
O231 Co212 2.021 . S
H232 C223 0.930 . S
H233 C222 0.931 . S
O234 Co210 2.117 . S
O234 C211 1.258 1_455 S
O235 Co210 2.020 1_554 S
O235 C237 1.256 . S
O236 Co212 2.062 1_554 S
O236 C237 1.255 1_655 S
C237 O235 1.256 . S
C237 O236 1.255 1_455 S
H238 C217 0.931 . S
H239 C225 0.931 . S
Co240 N245 2.057 . S
Co240 O257 2.021 . S
Co240 O260 2.062 1_556 S
Co240 O264 2.117 . S
Co240 O265 2.020 . S
C241 O261 1.259 1_655 S
C241 O264 1.258 . S
Co242 N251 2.057 . S
Co242 O258 2.117 . S
Co242 O259 2.020 1_556 S
Co242 O261 2.021 . S
Co242 O266 2.062 . S
C243 N245 1.316 . S
C243 N246 1.347 . S
C243 H248 0.931 . S
C244 N245 1.375 . S
C244 C247 1.350 . S
C244 H249 0.930 . S
N245 Co240 2.057 . S
N245 C243 1.316 . S
N245 C244 1.375 . S
N246 C243 1.347 . S
N246 C247 1.373 . S
C247 C244 1.350 . S
C247 N246 1.373 . S
C247 H268 0.931 . S
H248 C243 0.931 . S
H249 C244 0.930 . S
C250 O257 1.259 1_455 S
C250 O258 1.258 . S
N251 Co242 2.057 . S
N251 C252 1.316 . S
N251 C253 1.375 . S
C252 N251 1.316 . S
C252 N254 1.347 . S
C252 H263 0.931 . S
C253 N251 1.375 . S
C253 C255 1.350 . S
C253 H262 0.930 . S
N254 C252 1.347 . S
N254 C255 1.373 . S
C255 C253 1.350 . S
C255 N254 1.373 . S
C255 H269 0.931 . S
C256 O259 1.256 1_655 S
C256 O260 1.255 . S
O257 Co240 2.021 . S
O257 C250 1.259 1_655 S
O258 Co242 2.117 . S
O258 C250 1.258 . S
O259 Co242 2.020 1_554 S
O259 C256 1.256 1_455 S
O260 Co240 2.062 1_554 S
O260 C256 1.255 . S
O261 C241 1.259 1_455 S
O261 Co242 2.021 . S
H262 C253 0.930 . S
H263 C252 0.931 . S
O264 Co240 2.117 . S
O264 C241 1.258 . S
O265 Co240 2.020 . S
O265 C267 1.256 . S
O266 Co242 2.062 . S
O266 C267 1.255 1_455 S
C267 O265 1.256 . S
C267 O266 1.255 1_655 S
H268 C247 0.931 . S
H269 C255 0.931 . S
C10 C1 1.662 . S
C31 C40 1.692 . S
C70 C61 1.796 . S
C91 C100 1.662 1_556 S
C130 C121 1.692 . S
C151 C160 1.796 . S
C207 C196 1.834 . S
C226 C237 1.527 1_655 S
C267 C256 1.280 . S
N164 C27 2.442 . S
N44 N104 1.936 . S
C87 C147 3.061 . S
N74 N186 1.866 1_554 S
C211 N14 2.751 . S
N246 C57 1.799 1_556 S
C250 C16 3.080 . S
N36 C190 1.509 1_554 S
N224 C76 1.960 . S
N66 C106 2.442 . S
N126 N6 1.936 . S
C46 C166 3.061 . S
C241 C117 3.080 . S
C181 N134 1.508 . S
N216 C177 1.960 . S
N194 N156 1.866 . S
N96 C220 2.750 1_455 S
N254 C136 1.800 . S
