# Generated by pormake.
# Topology vbk, (5)-cn, num edge types: 1
# Building blocks:
#     Node 0, Type 0, BuildingBlock: XOMCOT_clean_sbu_1, # of connection points: 5
#     Node 1, Type 0, BuildingBlock: XOMCOT_clean_sbu_1, # of connection points: 5
#     Node 2, Type 0, BuildingBlock: XOMCOT_clean_sbu_1, # of connection points: 5
#     Node 3, Type 0, BuildingBlock: XOMCOT_clean_sbu_1, # of connection points: 5
#     Node 4, Type 0, BuildingBlock: XOMCOT_clean_sbu_1, # of connection points: 5
#     Node 5, Type 0, BuildingBlock: XOMCOT_clean_sbu_1, # of connection points: 5
#     Node 6, Type 0, BuildingBlock: XOMCOT_clean_sbu_1, # of connection points: 5
#     Node 7, Type 0, BuildingBlock: XOMCOT_clean_sbu_1, # of connection points: 5
#     Node 8, Type 0, BuildingBlock: XOMCOT_clean_sbu_1, # of connection points: 5
#     Node 9, Type 0, BuildingBlock: XOMCOT_clean_sbu_1, # of connection points: 5
#     Node 10, Type 0, BuildingBlock: XOMCOT_clean_sbu_1, # of connection points: 5
#     Node 11, Type 0, BuildingBlock: XOMCOT_clean_sbu_1, # of connection points: 5
#     Node 12, Type 0, BuildingBlock: XOMCOT_clean_sbu_1, # of connection points: 5
#     Node 13, Type 0, BuildingBlock: XOMCOT_clean_sbu_1, # of connection points: 5
#     Node 14, Type 0, BuildingBlock: XOMCOT_clean_sbu_1, # of connection points: 5
#     Node 15, Type 0, BuildingBlock: XOMCOT_clean_sbu_1, # of connection points: 5
#     Edge 16, Type (0, 0), BuildingBlock: XIVTED_clean_linker_0, # of connection points: 2
#     Edge 17, Type (0, 0), BuildingBlock: XIVTED_clean_linker_0, # of connection points: 2
#     Edge 18, Type (0, 0), BuildingBlock: XIVTED_clean_linker_0, # of connection points: 2
#     Edge 19, Type (0, 0), BuildingBlock: XIVTED_clean_linker_0, # of connection points: 2
#     Edge 20, Type (0, 0), BuildingBlock: XIVTED_clean_linker_0, # of connection points: 2
#     Edge 21, Type (0, 0), BuildingBlock: XIVTED_clean_linker_0, # of connection points: 2
#     Edge 22, Type (0, 0), BuildingBlock: XIVTED_clean_linker_0, # of connection points: 2
#     Edge 23, Type (0, 0), BuildingBlock: XIVTED_clean_linker_0, # of connection points: 2
#     Edge 24, Type (0, 0), BuildingBlock: XIVTED_clean_linker_0, # of connection points: 2
#     Edge 25, Type (0, 0), BuildingBlock: XIVTED_clean_linker_0, # of connection points: 2
#     Edge 26, Type (0, 0), BuildingBlock: XIVTED_clean_linker_0, # of connection points: 2
#     Edge 27, Type (0, 0), BuildingBlock: XIVTED_clean_linker_0, # of connection points: 2
#     Edge 28, Type (0, 0), BuildingBlock: XIVTED_clean_linker_0, # of connection points: 2
#     Edge 29, Type (0, 0), BuildingBlock: XIVTED_clean_linker_0, # of connection points: 2
#     Edge 30, Type (0, 0), BuildingBlock: XIVTED_clean_linker_0, # of connection points: 2
#     Edge 31, Type (0, 0), BuildingBlock: XIVTED_clean_linker_0, # of connection points: 2
#     Edge 32, Type (0, 0), BuildingBlock: XIVTED_clean_linker_0, # of connection points: 2
#     Edge 33, Type (0, 0), BuildingBlock: XIVTED_clean_linker_0, # of connection points: 2
#     Edge 34, Type (0, 0), BuildingBlock: XIVTED_clean_linker_0, # of connection points: 2
#     Edge 35, Type (0, 0), BuildingBlock: XIVTED_clean_linker_0, # of connection points: 2
#     Edge 36, Type (0, 0), BuildingBlock: XIVTED_clean_linker_0, # of connection points: 2
#     Edge 37, Type (0, 0), BuildingBlock: XIVTED_clean_linker_0, # of connection points: 2
#     Edge 38, Type (0, 0), BuildingBlock: XIVTED_clean_linker_0, # of connection points: 2
#     Edge 39, Type (0, 0), BuildingBlock: XIVTED_clean_linker_0, # of connection points: 2
#     Edge 40, Type (0, 0), BuildingBlock: XIVTED_clean_linker_0, # of connection points: 2
#     Edge 41, Type (0, 0), BuildingBlock: XIVTED_clean_linker_0, # of connection points: 2
#     Edge 42, Type (0, 0), BuildingBlock: XIVTED_clean_linker_0, # of connection points: 2
#     Edge 43, Type (0, 0), BuildingBlock: XIVTED_clean_linker_0, # of connection points: 2
#     Edge 44, Type (0, 0), BuildingBlock: XIVTED_clean_linker_0, # of connection points: 2
#     Edge 45, Type (0, 0), BuildingBlock: XIVTED_clean_linker_0, # of connection points: 2
#     Edge 46, Type (0, 0), BuildingBlock: XIVTED_clean_linker_0, # of connection points: 2
#     Edge 47, Type (0, 0), BuildingBlock: XIVTED_clean_linker_0, # of connection points: 2
#     Edge 48, Type (0, 0), BuildingBlock: XIVTED_clean_linker_0, # of connection points: 2
#     Edge 49, Type (0, 0), BuildingBlock: XIVTED_clean_linker_0, # of connection points: 2
#     Edge 50, Type (0, 0), BuildingBlock: XIVTED_clean_linker_0, # of connection points: 2
#     Edge 51, Type (0, 0), BuildingBlock: XIVTED_clean_linker_0, # of connection points: 2
#     Edge 52, Type (0, 0), BuildingBlock: XIVTED_clean_linker_0, # of connection points: 2
#     Edge 53, Type (0, 0), BuildingBlock: XIVTED_clean_linker_0, # of connection points: 2
#     Edge 54, Type (0, 0), BuildingBlock: XIVTED_clean_linker_0, # of connection points: 2
#     Edge 55, Type (0, 0), BuildingBlock: XIVTED_clean_linker_0, # of connection points: 2
# Relax obj value: 0.083
# Max RMSD: 0.146
# Mean RMSD: 0.146
data_MOF--net-vbk--node1-XOMCOT_clean_sbu_1--edge1-XIVTED_clean_linker_0
_symmetry_space_group_name_H-M    P1
_symmetry_Int_Tables_number       1
_symmetry_cell_setting            triclinic
loop_
_symmetry_equiv_pos_as_xyz
'x, y, z'
_cell_length_a     67.276598
_cell_length_b     46.025615
_cell_length_c     27.614388
_cell_angle_alpha  90.00657
_cell_angle_beta   90.20146
_cell_angle_gamma 90.01878
loop_
_atom_site_label
_atom_site_type_symbol
_atom_site_fract_x
_atom_site_fract_y
_atom_site_fract_z
_atom_type_partial_charge
C0 C 0.12782 0.21147 0.11141 0.0
C1 C 0.10757 0.21367 0.10737 0.0
N2 N 0.10021 0.1872 0.09698 0.0
N3 N 0.13338 0.18379 0.10312 0.0
C4 C 0.11614 0.16928 0.09484 0.0
H5 H 0.138 0.22918 0.11839 0.0
Co6 Co 0.16036 0.17388 0.10106 0.0
C7 C 0.16047 0.12384 0.03228 0.0
O8 O 0.17307 0.13772 0.00449 0.0
N9 N 0.18846 0.16457 0.10027 0.0
C10 C 0.22061 0.16341 0.08004 0.0
C11 C 0.20159 0.16803 0.06365 0.0
C12 C 0.20027 0.15726 0.13848 0.0
N13 N 0.21989 0.15689 0.12748 0.0
O14 O 0.15771 0.15783 0.16437 0.0
H15 H 0.19798 0.17515 0.02743 0.0
H16 H 0.19474 0.15296 0.17433 0.0
O17 O 0.15407 0.13592 0.07102 0.0
C18 C 0.16134 0.17958 0.19163 0.0
O19 O 0.16773 0.20377 0.17181 0.0
N20 N 0.1621 0.19394 0.04232 0.0
C21 C 0.15872 0.238 0.97333 0.0
C22 C 0.14795 0.21198 0.96831 0.0
C23 C 0.14959 0.19035 0.0037 0.0
C24 C 0.17262 0.21906 0.04762 0.0
C25 C 0.17142 0.24111 0.0133 0.0
H26 H 0.13987 0.17169 0.00169 0.0
H27 H 0.18123 0.22265 0.08023 0.0
H28 H 0.11531 0.1465 0.08534 0.0
H29 H 0.09887 0.23335 0.11083 0.0
H30 H 0.23397 0.16639 0.05893 0.0
H31 H 0.13783 0.20875 0.93821 0.0
H32 H 0.17953 0.26109 0.01959 0.0
C33 C 0.42226 0.82771 0.62183 0.0
C34 C 0.44247 0.82698 0.62802 0.0
N35 N 0.4495 0.85422 0.6237 0.0
N36 N 0.41641 0.8553 0.61383 0.0
C37 C 0.43342 0.87114 0.61491 0.0
H38 H 0.4123 0.80931 0.62403 0.0
Co39 Co 0.38935 0.86441 0.60944 0.0
C40 C 0.38878 0.91349 0.53973 0.0
O41 O 0.3771 0.8982 0.51148 0.0
N42 N 0.36113 0.8729 0.60698 0.0
C43 C 0.32895 0.87355 0.58602 0.0
C44 C 0.34806 0.86971 0.56986 0.0
C45 C 0.34917 0.87924 0.64521 0.0
N46 N 0.32963 0.87927 0.63368 0.0
O47 O 0.39125 0.88111 0.67241 0.0
H48 H 0.35174 0.86311 0.53349 0.0
H49 H 0.35438 0.88222 0.6818 0.0
O50 O 0.39534 0.90236 0.57919 0.0
C51 C 0.38847 0.85937 0.70013 0.0
O52 O 0.38326 0.83439 0.68084 0.0
N53 N 0.38841 0.84408 0.55056 0.0
C54 C 0.39298 0.80061 0.48044 0.0
C55 C 0.40474 0.82594 0.47954 0.0
C56 C 0.40223 0.84739 0.51487 0.0
C57 C 0.37709 0.81955 0.55243 0.0
C58 C 0.37859 0.79817 0.51695 0.0
H59 H 0.41238 0.86559 0.51567 0.0
H60 H 0.36727 0.81602 0.5828 0.0
H61 H 0.43394 0.89454 0.61128 0.0
H62 H 0.45136 0.80791 0.63565 0.0
H63 H 0.31556 0.87114 0.56455 0.0
H64 H 0.41655 0.8287 0.45347 0.0
H65 H 0.36884 0.77955 0.51932 0.0
C66 C 0.12165 0.8259 0.8681 0.0
C67 C 0.10155 0.82502 0.86017 0.0
N68 N 0.0946 0.85243 0.86036 0.0
N69 N 0.1275 0.85377 0.8731 0.0
C70 C 0.11061 0.86959 0.86841 0.0
H71 H 0.13151 0.80737 0.86984 0.0
Co72 Co 0.1544 0.86373 0.88007 0.0
C73 C 0.14788 0.9142 0.94864 0.0
O74 O 0.15362 0.8988 0.98612 0.0
N75 N 0.18194 0.87335 0.88455 0.0
C76 C 0.21199 0.89052 0.90371 0.0
C77 C 0.19256 0.88761 0.91873 0.0
C78 C 0.19551 0.86738 0.84982 0.0
N79 N 0.21382 0.87786 0.85999 0.0
O80 O 0.15387 0.87845 0.81491 0.0
H81 H 0.18686 0.89548 0.9526 0.0
H82 H 0.19199 0.8559 0.81703 0.0
O83 O 0.14746 0.90277 0.90621 0.0
C84 C 0.15537 0.85611 0.78779 0.0
O85 O 0.15793 0.83056 0.80805 0.0
N86 N 0.15475 0.84524 0.94163 0.0
C87 C 0.15083 0.80285 0.01405 0.0
C88 C 0.13614 0.82412 0.00711 0.0
C89 C 0.13836 0.845 0.97091 0.0
C90 C 0.16941 0.82516 0.94866 0.0
C91 C 0.16795 0.80427 0.98519 0.0
H92 H 0.12629 0.86004 0.96463 0.0
H93 H 0.18179 0.82388 0.92396 0.0
H94 H 0.11012 0.89308 0.86958 0.0
H95 H 0.09265 0.80567 0.8548 0.0
H96 H 0.22379 0.90113 0.9237 0.0
H97 H 0.12244 0.82385 0.02749 0.0
H98 H 0.1799 0.78873 0.98938 0.0
C99 C 0.42485 0.21311 0.41857 0.0
C100 C 0.445 0.21701 0.42111 0.0
N101 N 0.45392 0.19303 0.4037 0.0
N102 N 0.4208 0.18648 0.40058 0.0
C103 C 0.43892 0.17519 0.39001 0.0
H104 H 0.41387 0.22898 0.42909 0.0
Co105 Co 0.39474 0.1721 0.39034 0.0
C106 C 0.41445 0.12101 0.44382 0.0
O107 O 0.42937 0.13577 0.46223 0.0
N108 N 0.36878 0.15844 0.3795 0.0
C109 C 0.33955 0.13685 0.39004 0.0
C110 C 0.35816 0.14132 0.40946 0.0
C111 C 0.3563 0.16413 0.34212 0.0
N112 N 0.33837 0.15118 0.34759 0.0
O113 O 0.40214 0.15992 0.32689 0.0
H114 H 0.36353 0.13285 0.44363 0.0
H115 H 0.36008 0.17809 0.31205 0.0
O116 O 0.40141 0.13371 0.41737 0.0
C117 C 0.40199 0.18334 0.30228 0.0
O118 O 0.39716 0.20777 0.32386 0.0
N119 N 0.38674 0.18749 0.44999 0.0
C120 C 0.38303 0.22876 0.52304 0.0
C121 C 0.39255 0.20212 0.53205 0.0
C122 C 0.39418 0.18159 0.49494 0.0
C123 C 0.37556 0.21177 0.44231 0.0
C124 C 0.37351 0.23274 0.47834 0.0
H125 H 0.40262 0.16228 0.50184 0.0
H126 H 0.36996 0.21635 0.40636 0.0
H127 H 0.44105 0.15392 0.37414 0.0
H128 H 0.45252 0.23618 0.43458 0.0
H129 H 0.32784 0.12383 0.40583 0.0
H130 H 0.3996 0.19784 0.56663 0.0
H131 H 0.36602 0.25291 0.46968 0.0
C132 C 0.92176 0.82901 0.87787 0.0
C133 C 0.94196 0.82735 0.87264 0.0
N134 N 0.94923 0.85454 0.87 0.0
N135 N 0.91617 0.85714 0.87855 0.0
C136 C 0.93331 0.87234 0.87385 0.0
H137 H 0.9116 0.81081 0.87951 0.0
Co138 Co 0.88934 0.86802 0.87757 0.0
C139 C 0.89129 0.91795 0.94791 0.0
O140 O 0.88062 0.90392 0.97994 0.0
N141 N 0.86175 0.87849 0.8748 0.0
C142 C 0.82978 0.88663 0.89182 0.0
C143 C 0.84844 0.88205 0.91096 0.0
C144 C 0.85052 0.88097 0.83409 0.0
N145 N 0.83107 0.88581 0.84325 0.0
O146 O 0.8934 0.88413 0.81453 0.0
H147 H 0.85158 0.87949 0.94902 0.0
H148 H 0.85632 0.87873 0.79807 0.0
O149 O 0.89573 0.9059 0.90754 0.0
C150 C 0.89301 0.86215 0.78647 0.0
O151 O 0.88858 0.83659 0.80465 0.0
N152 N 0.88585 0.84836 0.93658 0.0
C153 C 0.88646 0.80418 0.00594 0.0
C154 C 0.89938 0.82806 0.00973 0.0
C155 C 0.89906 0.84971 0.97424 0.0
C156 C 0.87302 0.82552 0.93285 0.0
C157 C 0.87287 0.80346 0.96739 0.0
H158 H 0.91033 0.86646 0.9752 0.0
H159 H 0.86375 0.82327 0.90098 0.0
H160 H 0.934 0.89576 0.87077 0.0
H161 H 0.95066 0.80763 0.86997 0.0
H162 H 0.81617 0.8888 0.91229 0.0
H163 H 0.91016 0.8295 0.03884 0.0
H164 H 0.86302 0.7851 0.96212 0.0
C165 C 0.62901 0.21291 0.36999 0.0
C166 C 0.60878 0.2161 0.37148 0.0
N167 N 0.60057 0.18966 0.37713 0.0
N168 N 0.63369 0.1846 0.37526 0.0
C169 C 0.61596 0.17076 0.37893 0.0
H170 H 0.63976 0.23029 0.36715 0.0
Co171 Co 0.6603 0.1727 0.37925 0.0
C172 C 0.65601 0.12344 0.44996 0.0
O173 O 0.666 0.13794 0.48288 0.0
N174 N 0.68787 0.16129 0.38128 0.0
C175 C 0.7193 0.15284 0.40398 0.0
C176 C 0.70021 0.15784 0.4197 0.0
C177 C 0.70014 0.15803 0.34265 0.0
N178 N 0.71927 0.15308 0.35529 0.0
O179 O 0.65759 0.15695 0.31564 0.0
H180 H 0.69615 0.16072 0.4571 0.0
H181 H 0.6955 0.16061 0.30557 0.0
O182 O 0.65261 0.13483 0.40834 0.0
C183 C 0.66024 0.17887 0.28819 0.0
O184 O 0.66599 0.20355 0.30761 0.0
N185 N 0.66231 0.19221 0.4392 0.0
C186 C 0.65921 0.23614 0.50911 0.0
C187 C 0.64549 0.21309 0.50744 0.0
C188 C 0.64733 0.1914 0.47249 0.0
C189 C 0.6759 0.21419 0.44048 0.0
C190 C 0.67499 0.2358 0.47589 0.0
H191 H 0.63578 0.17516 0.46987 0.0
H192 H 0.68689 0.21602 0.41218 0.0
H193 H 0.61438 0.14766 0.3852 0.0
H194 H 0.60067 0.2364 0.36981 0.0
H195 H 0.73226 0.15011 0.42682 0.0
H196 H 0.63265 0.21249 0.53086 0.0
H197 H 0.68622 0.25262 0.47575 0.0
C198 C 0.92678 0.21628 0.09671 0.0
C199 C 0.94703 0.21776 0.09236 0.0
N200 N 0.95416 0.19056 0.08816 0.0
N201 N 0.92094 0.18828 0.09484 0.0
C202 C 0.93805 0.17292 0.09019 0.0
H203 H 0.9168 0.23458 0.09993 0.0
Co204 Co 0.89386 0.17845 0.0964 0.0
C205 C 0.8931 0.12806 0.02796 0.0
O206 O 0.88119 0.14213 -0.00149 0.0
N207 N 0.8659 0.16907 0.09922 0.0
C208 C 0.83357 0.16418 0.08185 0.0
C209 C 0.85214 0.16956 0.0633 0.0
C210 C 0.85496 0.16316 0.13934 0.0
N211 N 0.83529 0.16032 0.12993 0.0
O212 O 0.89779 0.16267 0.15966 0.0
H213 H 0.85499 0.17504 0.02597 0.0
H214 H 0.86114 0.16127 0.17519 0.0
O215 O 0.89933 0.14022 0.06688 0.0
C216 C 0.89675 0.18496 0.18692 0.0
O217 O 0.89211 0.21013 0.16751 0.0
N218 N 0.89066 0.19801 0.03726 0.0
C219 C 0.89195 0.24143 0.96665 0.0
C220 C 0.9035 0.21614 0.96206 0.0
C221 C 0.9029 0.19487 -0.00178 0.0
C222 C 0.87933 0.22239 0.04209 0.0
C223 C 0.87951 0.2441 0.00698 0.0
H224 H 0.91319 0.17688 -0.00359 0.0
H225 H 0.87096 0.22583 0.07496 0.0
H226 H 0.93865 0.14951 0.08682 0.0
H227 H 0.95588 0.23741 0.09208 0.0
H228 H 0.81976 0.1646 0.06165 0.0
H229 H 0.91344 0.21323 0.93168 0.0
H230 H 0.87081 0.26356 0.01295 0.0
C231 C 0.62238 0.82626 0.61527 0.0
C232 C 0.60226 0.82554 0.62273 0.0
N233 N 0.59518 0.8528 0.61901 0.0
N234 N 0.62814 0.85386 0.60709 0.0
C235 C 0.61117 0.86969 0.6093 0.0
H236 H 0.63232 0.8078 0.61624 0.0
Co237 Co 0.65504 0.86312 0.59943 0.0
C238 C 0.65361 0.91388 0.53356 0.0
O239 O 0.66452 0.89918 0.50287 0.0
N240 N 0.68313 0.8721 0.59339 0.0
C241 C 0.71478 0.8747 0.56892 0.0
C242 C 0.69547 0.8693 0.55499 0.0
C243 C 0.69565 0.87997 0.62992 0.0
N244 N 0.71492 0.88118 0.61638 0.0
O245 O 0.65512 0.87697 0.66456 0.0
H246 H 0.69112 0.86263 0.51901 0.0
H247 H 0.69102 0.88368 0.66669 0.0
O248 O 0.64835 0.90217 0.57367 0.0
C249 C 0.65951 0.85396 0.68811 0.0
O250 O 0.66417 0.83034 0.66396 0.0
N251 N 0.65416 0.8449 0.53869 0.0
C252 C 0.64726 0.80359 0.46617 0.0
C253 C 0.63572 0.82903 0.46893 0.0
C254 C 0.63933 0.84932 0.5056 0.0
C255 C 0.6653 0.82019 0.53696 0.0
C256 C 0.66257 0.79982 0.50026 0.0
H257 H 0.6293 0.86751 0.50944 0.0
H258 H 0.67591 0.81567 0.56548 0.0
H259 H 0.61059 0.89307 0.60529 0.0
H260 H 0.59345 0.8064 0.63031 0.0
H261 H 0.72772 0.87325 0.54591 0.0
H262 H 0.62328 0.83263 0.44472 0.0
H263 H 0.6721 0.7809 0.49973 0.0
C264 C 0.62585 0.71221 0.06308 0.0
C265 C 0.60576 0.71708 0.06117 0.0
N266 N 0.59639 0.69401 0.08057 0.0
N267 N 0.62937 0.68586 0.08271 0.0
C268 C 0.61108 0.67577 0.09469 0.0
H269 H 0.63716 0.72725 0.05129 0.0
Co270 Co 0.65492 0.67031 0.09473 0.0
C271 C 0.63409 0.61885 0.04446 0.0
O272 O 0.61921 0.63351 0.02564 0.0
N273 N 0.68044 0.65542 0.10751 0.0
C274 C 0.70886 0.63127 0.10003 0.0
C275 C 0.69036 0.63597 0.08022 0.0
C276 C 0.69328 0.66234 0.14361 0.0
N277 N 0.71076 0.64791 0.13997 0.0
O278 O 0.64661 0.6601 0.15835 0.0
H279 H 0.68464 0.62608 0.04749 0.0
H280 H 0.69006 0.67823 0.17133 0.0
O281 O 0.64738 0.63181 0.06978 0.0
C282 C 0.64796 0.68407 0.18119 0.0
O283 O 0.65494 0.70696 0.15842 0.0
N284 N 0.66366 0.6838 0.03443 0.0
C285 C 0.66801 0.72381 0.95974 0.0
C286 C 0.65744 0.69787 0.95228 0.0
C287 C 0.65552 0.67793 0.99018 0.0
C288 C 0.67581 0.70726 0.0405 0.0
C289 C 0.67826 0.72755 0.00352 0.0
H290 H 0.64611 0.65941 0.98474 0.0
H291 H 0.68189 0.71196 0.07594 0.0
H292 H 0.60861 0.6551 0.11236 0.0
H293 H 0.59865 0.73641 0.04708 0.0
H294 H 0.71999 0.61656 0.08603 0.0
H295 H 0.64968 0.69389 0.91848 0.0
H296 H 0.68655 0.74725 0.01089 0.0
C297 C 0.92162 0.32959 0.59649 0.0
C298 C 0.94183 0.32703 0.59272 0.0
N299 N 0.94959 0.35379 0.58765 0.0
N300 N 0.91649 0.35784 0.59329 0.0
C301 C 0.93394 0.37227 0.58848 0.0
H302 H 0.91118 0.31185 0.59991 0.0
Co303 Co 0.88973 0.3689 0.59298 0.0
C304 C 0.8906 0.41949 0.52508 0.0
O305 O 0.87865 0.40578 0.49523 0.0
N306 N 0.86199 0.37939 0.59398 0.0
C307 C 0.82977 0.38444 0.57536 0.0
C308 C 0.84849 0.3793 0.55743 0.0
C309 C 0.85077 0.38491 0.63373 0.0
N310 N 0.83118 0.38769 0.6236 0.0
O311 O 0.89334 0.384 0.65685 0.0
H312 H 0.85157 0.37389 0.52019 0.0
H313 H 0.85663 0.38621 0.66999 0.0
O314 O 0.89633 0.40715 0.56433 0.0
C315 C 0.89116 0.36163 0.68359 0.0
O316 O 0.8855 0.3371 0.66351 0.0
N317 N 0.88689 0.34983 0.5334 0.0
C318 C 0.88984 0.30551 0.46479 0.0
C319 C 0.90134 0.33087 0.46061 0.0
C320 C 0.89989 0.3526 0.49577 0.0
C321 C 0.8753 0.32563 0.53729 0.0
C322 C 0.87633 0.30344 0.50312 0.0
H323 H 0.9103 0.37048 0.49481 0.0
H324 H 0.86624 0.32253 0.56916 0.0
H325 H 0.93513 0.39555 0.58384 0.0
H326 H 0.95023 0.30696 0.59306 0.0
H327 H 0.81606 0.38389 0.55476 0.0
H328 H 0.91202 0.33338 0.43165 0.0
H329 H 0.86756 0.284 0.50866 0.0
C330 C 0.62297 0.32535 0.86788 0.0
C331 C 0.60271 0.32392 0.87233 0.0
N332 N 0.59586 0.35072 0.88227 0.0
N333 N 0.62905 0.35289 0.87543 0.0
C334 C 0.61211 0.36808 0.88364 0.0
H335 H 0.6328 0.30725 0.86093 0.0
Co336 Co 0.65614 0.36217 0.87636 0.0
C337 C 0.65769 0.41125 0.94682 0.0
O338 O 0.67017 0.39658 0.9739 0.0
N339 N 0.68429 0.37096 0.87618 0.0
C340 C 0.71643 0.37307 0.89666 0.0
C341 C 0.69756 0.36764 0.91277 0.0
C342 C 0.69592 0.37855 0.83798 0.0
N343 N 0.71552 0.37961 0.84927 0.0
O344 O 0.653 0.37947 0.81412 0.0
H345 H 0.69418 0.36028 0.94892 0.0
H346 H 0.69036 0.382 0.80178 0.0
O347 O 0.6506 0.39972 0.90825 0.0
C348 C 0.65572 0.35795 0.78585 0.0
O349 O 0.66147 0.33304 0.80437 0.0
N350 N 0.65846 0.34108 0.93395 0.0
C351 C 0.65761 0.29684 0.00301 0.0
C352 C 0.6465 0.32242 0.0096 0.0
C353 C 0.64685 0.34415 0.9741 0.0
C354 C 0.66897 0.31616 0.9267 0.0
C355 C 0.66901 0.29404 0.96094 0.0
H356 H 0.63708 0.36266 0.9777 0.0
H357 H 0.67682 0.31298 0.893 0.0
H358 H 0.61173 0.391 0.8923 0.0
H359 H 0.59366 0.30454 0.86915 0.0
H360 H 0.72983 0.37144 0.91826 0.0
H361 H 0.63729 0.32536 0.04129 0.0
H362 H 0.67724 0.27435 0.95335 0.0
C363 C 0.92041 0.7189 0.36523 0.0
C364 C 0.94059 0.72248 0.36764 0.0
N365 N 0.94894 0.69663 0.37801 0.0
N366 N 0.91582 0.69091 0.37416 0.0
C367 C 0.9336 0.67764 0.38138 0.0
H368 H 0.90962 0.73591 0.35904 0.0
Co369 Co 0.88911 0.67953 0.37864 0.0
C370 C 0.8928 0.63016 0.4494 0.0
O371 O 0.88271 0.64454 0.48208 0.0
N372 N 0.86141 0.6687 0.38197 0.0
C373 C 0.83013 0.66253 0.40712 0.0
C374 C 0.84943 0.66768 0.42123 0.0
C375 C 0.8487 0.66381 0.34445 0.0
N376 N 0.82961 0.6603 0.35859 0.0
O377 O 0.89116 0.6631 0.31537 0.0
H378 H 0.85392 0.67229 0.45795 0.0
H379 H 0.85304 0.6641 0.307 0.0
O380 O 0.89656 0.64184 0.40828 0.0
C381 C 0.88765 0.68462 0.28755 0.0
O382 O 0.88188 0.7093 0.30678 0.0
N383 N 0.88761 0.69985 0.43733 0.0
C384 C 0.89041 0.74484 0.50488 0.0
C385 C 0.90295 0.72049 0.50803 0.0
C386 C 0.90157 0.69847 0.47332 0.0
C387 C 0.87526 0.72324 0.43403 0.0
C388 C 0.87621 0.74573 0.46767 0.0
H389 H 0.9125 0.68127 0.47365 0.0
H390 H 0.86541 0.72539 0.40319 0.0
H391 H 0.93523 0.65499 0.39111 0.0
H392 H 0.94855 0.74273 0.36292 0.0
H393 H 0.81742 0.6614 0.43093 0.0
H394 H 0.91419 0.71887 0.53606 0.0
H395 H 0.86665 0.76442 0.46274 0.0
C396 C 0.42293 0.32666 0.88261 0.0
C397 C 0.4432 0.32525 0.88674 0.0
N398 N 0.4502 0.35236 0.8931 0.0
N399 N 0.41698 0.3545 0.88683 0.0
C400 C 0.43403 0.36989 0.89271 0.0
H401 H 0.41301 0.30834 0.87823 0.0
Co402 Co 0.38981 0.36361 0.88717 0.0
C403 C 0.38796 0.41455 0.95328 0.0
O404 O 0.37495 0.40053 0.97966 0.0
N405 N 0.36155 0.37202 0.8861 0.0
C406 C 0.32911 0.37313 0.90378 0.0
C407 C 0.3479 0.36807 0.92148 0.0
C408 C 0.35026 0.37983 0.84721 0.0
N409 N 0.33052 0.38031 0.85675 0.0
O410 O 0.39255 0.37839 0.82293 0.0
H411 H 0.35104 0.36075 0.95785 0.0
H412 H 0.35626 0.38462 0.81195 0.0
O413 O 0.39532 0.40238 0.91562 0.0
C414 C 0.39004 0.35559 0.79732 0.0
O415 O 0.38493 0.3313 0.81892 0.0
N416 N 0.38798 0.34474 0.94711 0.0
C417 C 0.39245 0.30219 0.01841 0.0
C418 C 0.40241 0.32896 0.02226 0.0
C419 C 0.40025 0.3498 0.98574 0.0
C420 C 0.3781 0.31898 0.94314 0.0
C421 C 0.37986 0.29764 0.97862 0.0
H422 H 0.40952 0.36895 0.98683 0.0
H423 H 0.36969 0.31426 0.91063 0.0
H424 H 0.43456 0.39314 0.89847 0.0
H425 H 0.45215 0.30572 0.88582 0.0
H426 H 0.31542 0.37019 0.92363 0.0
H427 H 0.41239 0.33336 0.05221 0.0
H428 H 0.37236 0.27707 0.97325 0.0
C429 C 0.12591 0.71768 0.38082 0.0
C430 C 0.10591 0.72311 0.38452 0.0
N431 N 0.09629 0.69753 0.38854 0.0
N432 N 0.12904 0.68881 0.38303 0.0
C433 C 0.11067 0.67698 0.38706 0.0
H434 H 0.13754 0.73376 0.37709 0.0
Co435 Co 0.15434 0.6721 0.37959 0.0
C436 C 0.15139 0.62504 0.45249 0.0
O437 O 0.16689 0.63648 0.47448 0.0
N438 N 0.18019 0.65507 0.37288 0.0
C439 C 0.20263 0.62113 0.35434 0.0
C440 C 0.18429 0.62627 0.37387 0.0
C441 C 0.19641 0.66674 0.35082 0.0
N442 N 0.2102 0.64651 0.33907 0.0
O443 O 0.14741 0.65666 0.31783 0.0
H444 H 0.17395 0.60922 0.38269 0.0
H445 H 0.19722 0.68904 0.33869 0.0
O446 O 0.14467 0.6368 0.41357 0.0
C447 C 0.15284 0.67673 0.28896 0.0
O448 O 0.16154 0.6999 0.30697 0.0
N449 N 0.16105 0.6912 0.43826 0.0
C450 C 0.16324 0.7354 0.50777 0.0
C451 C 0.14914 0.71309 0.51176 0.0
C452 C 0.1481 0.6915 0.47639 0.0
C453 C 0.1755 0.71193 0.43523 0.0
C454 C 0.177 0.73403 0.46983 0.0
H455 H 0.13576 0.6765 0.4776 0.0
H456 H 0.18474 0.71325 0.40359 0.0
H457 H 0.10792 0.65387 0.38964 0.0
H458 H 0.09895 0.7443 0.3838 0.0
H459 H 0.20917 0.59995 0.34838 0.0
H460 H 0.1383 0.71309 0.54064 0.0
H461 H 0.18789 0.75108 0.46475 0.0
C462 C 0.42053 0.71487 0.11766 0.0
C463 C 0.4407 0.71885 0.11621 0.0
N464 N 0.44937 0.69275 0.11045 0.0
N465 N 0.41635 0.6864 0.11224 0.0
C466 C 0.43432 0.67325 0.10865 0.0
H467 H 0.40947 0.73183 0.12039 0.0
Co468 Co 0.38991 0.67356 0.10806 0.0
C469 C 0.39761 0.62412 0.03737 0.0
O470 O 0.39086 0.63912 0.00044 0.0
N471 N 0.36279 0.66131 0.10629 0.0
C472 C 0.33305 0.64422 0.08433 0.0
C473 C 0.35243 0.64844 0.07016 0.0
C474 C 0.34909 0.66493 0.14181 0.0
N475 N 0.33094 0.65466 0.12953 0.0
O476 O 0.39277 0.65838 0.17201 0.0
H477 H 0.35816 0.64317 0.03495 0.0
H478 H 0.35222 0.67481 0.17639 0.0
O479 O 0.39808 0.63541 0.07994 0.0
C480 C 0.38991 0.68022 0.19946 0.0
O481 O 0.38396 0.70477 0.17992 0.0
N482 N 0.38747 0.69247 0.04722 0.0
C483 C 0.3887 0.73562 0.97557 0.0
C484 C 0.40415 0.71533 0.98047 0.0
C485 C 0.40323 0.69405 0.01615 0.0
C486 C 0.37211 0.71165 0.04251 0.0
C487 C 0.37221 0.73291 0.00633 0.0
H488 H 0.41587 0.67982 0.02053 0.0
H489 H 0.36023 0.71188 0.06872 0.0
H490 H 0.43631 0.65025 0.10213 0.0
H491 H 0.44843 0.73947 0.11776 0.0
H492 H 0.32132 0.63483 0.06245 0.0
H493 H 0.4175 0.71668 0.95888 0.0
H494 H 0.35975 0.7477 0.00389 0.0
C495 C 0.12372 0.3258 0.60437 0.0
C496 C 0.10347 0.32327 0.60093 0.0
N497 N 0.09566 0.35011 0.59709 0.0
N498 N 0.12881 0.3541 0.6023 0.0
C499 C 0.11132 0.36855 0.59861 0.0
H500 H 0.13421 0.30804 0.60644 0.0
Co501 Co 0.15548 0.36609 0.60144 0.0
C502 C 0.14992 0.41659 0.53271 0.0
O503 O 0.15854 0.40274 0.49701 0.0
N504 N 0.18279 0.3778 0.60254 0.0
C505 C 0.21361 0.39169 0.58346 0.0
C506 C 0.19467 0.38689 0.56613 0.0
C507 C 0.19513 0.37719 0.64154 0.0
N508 N 0.21388 0.38563 0.63111 0.0
O509 O 0.15212 0.38063 0.66577 0.0
H510 H 0.19032 0.38873 0.52872 0.0
H511 H 0.19077 0.36971 0.67687 0.0
O512 O 0.14796 0.40444 0.57421 0.0
C513 C 0.15355 0.35818 0.69255 0.0
O514 O 0.15843 0.33327 0.67262 0.0
N515 N 0.15843 0.34784 0.54033 0.0
C516 C 0.15745 0.30532 0.46754 0.0
C517 C 0.1427 0.32686 0.47026 0.0
C518 C 0.14348 0.34784 0.50664 0.0
C519 C 0.17309 0.32742 0.53781 0.0
C520 C 0.17317 0.30651 0.50112 0.0
H521 H 0.13123 0.36291 0.50966 0.0
H522 H 0.1842 0.32604 0.5661 0.0
H523 H 0.11011 0.39189 0.59482 0.0
H524 H 0.09511 0.30317 0.60041 0.0
H525 H 0.22623 0.39885 0.56238 0.0
H526 H 0.12991 0.32672 0.44641 0.0
H527 H 0.18513 0.2908 0.50048 0.0
H528 H 0.21997 0.16066 0.22657 0.0
H529 H 0.33854 0.15724 0.24958 0.0
H530 H 0.25879 0.14698 0.10434 0.0
H531 H 0.29935 0.1476 0.37175 0.0
H532 H 0.30951 0.15765 0.19561 0.0
H533 H 0.24879 0.15891 0.28012 0.0
C534 C 0.23442 0.15701 0.21072 0.0
C535 C 0.2367 0.15408 0.16031 0.0
C536 C 0.30727 0.1554 0.23424 0.0
C537 C 0.27008 0.1527 0.22209 0.0
C538 C 0.32384 0.15539 0.26508 0.0
C539 C 0.32142 0.15229 0.31531 0.0
C540 C 0.28808 0.15266 0.25374 0.0
C541 C 0.30197 0.14966 0.33329 0.0
C542 C 0.25096 0.1562 0.24154 0.0
C543 C 0.25611 0.14985 0.14259 0.0
N544 N 0.28609 0.15001 0.30263 0.0
N545 N 0.27197 0.14946 0.17331 0.0
H546 H 0.22052 0.84208 0.78277 0.0
H547 H 0.32764 0.90746 0.72034 0.0
H548 H 0.24719 0.91178 0.86527 0.0
H549 H 0.29367 0.85305 0.62342 0.0
H550 H 0.29975 0.90689 0.77739 0.0
H551 H 0.24861 0.84327 0.72786 0.0
C552 C 0.23215 0.85778 0.78948 0.0
C553 C 0.23114 0.87711 0.82886 0.0
C554 C 0.2984 0.8952 0.7435 0.0
C555 C 0.26388 0.87815 0.76579 0.0
C556 C 0.31434 0.89544 0.71098 0.0
C557 C 0.31303 0.88039 0.66679 0.0
C558 C 0.28108 0.87952 0.73204 0.0
C559 C 0.29532 0.86534 0.65655 0.0
C560 C 0.24833 0.85834 0.75798 0.0
C561 C 0.2472 0.89634 0.83581 0.0
N562 N 0.28015 0.86519 0.68893 0.0
N563 N 0.26285 0.89638 0.80461 0.0
H564 H 0.7166 0.90837 0.70419 0.0
H565 H 0.83015 0.86372 0.75149 0.0
H566 H 0.75274 0.86208 0.6009 0.0
H567 H 0.79461 0.91057 0.85533 0.0
H568 H 0.80237 0.86492 0.69476 0.0
H569 H 0.74519 0.91101 0.75882 0.0
C570 C 0.73049 0.89876 0.69283 0.0
C571 C 0.73209 0.88484 0.64766 0.0
C572 C 0.80065 0.87505 0.72989 0.0
C573 C 0.76509 0.888 0.7103 0.0
C574 C 0.81663 0.87456 0.76237 0.0
C575 C 0.81487 0.88711 0.8086 0.0
C576 C 0.78264 0.88813 0.74345 0.0
C577 C 0.79667 0.9003 0.82049 0.0
C578 C 0.74688 0.9004 0.72408 0.0
C579 C 0.7507 0.87328 0.63492 0.0
N580 N 0.7813 0.90041 0.78825 0.0
N581 N 0.76638 0.875 0.66608 0.0
H582 H 0.71978 0.13659 0.2605 0.0
H583 H 0.83522 0.17422 0.22606 0.0
H584 H 0.75787 0.16627 0.37645 0.0
H585 H 0.79823 0.1387 0.11262 0.0
H586 H 0.80737 0.17028 0.28205 0.0
H587 H 0.74837 0.13661 0.20616 0.0
C588 C 0.73411 0.14314 0.27464 0.0
C589 C 0.73628 0.15154 0.32332 0.0
C590 C 0.80536 0.1632 0.24496 0.0
C591 C 0.76928 0.15145 0.26101 0.0
C592 C 0.82137 0.16524 0.21292 0.0
C593 C 0.81921 0.15677 0.16426 0.0
C594 C 0.78692 0.1527 0.22842 0.0
C595 C 0.80061 0.14587 0.14947 0.0
C596 C 0.7505 0.143 0.24356 0.0
C597 C 0.7554 0.15934 0.33951 0.0
N598 N 0.78523 0.14425 0.18128 0.0
N599 N 0.77108 0.15925 0.30845 0.0
H600 H 0.74919 0.6354 0.11732 0.0
H601 H 0.79128 0.67405 0.38132 0.0
H602 H 0.71214 0.66526 0.23449 0.0
H603 H 0.82767 0.64121 0.26506 0.0
H604 H 0.76225 0.67096 0.3285 0.0
H605 H 0.778 0.63774 0.17086 0.0
C606 C 0.74702 0.6423 0.15436 0.0
C607 C 0.72804 0.64999 0.17126 0.0
C608 C 0.77658 0.66439 0.31455 0.0
C609 C 0.7613 0.65302 0.23307 0.0
C610 C 0.79323 0.66595 0.34489 0.0
C611 C 0.81214 0.65785 0.32793 0.0
C612 C 0.7787 0.65467 0.26664 0.0
C613 C 0.81356 0.64803 0.27982 0.0
C614 C 0.76358 0.64377 0.18495 0.0
C615 C 0.72641 0.65935 0.21957 0.0
N616 N 0.79712 0.64674 0.251 0.0
N617 N 0.74279 0.66053 0.24872 0.0
H618 H 0.83095 0.36934 0.71724 0.0
H619 H 0.7157 0.40505 0.75963 0.0
H620 H 0.79392 0.4091 0.60795 0.0
H621 H 0.75382 0.3623 0.86368 0.0
H622 H 0.74407 0.40909 0.70463 0.0
H623 H 0.80302 0.36977 0.77279 0.0
C624 C 0.81706 0.3786 0.70502 0.0
C625 C 0.81493 0.38934 0.65769 0.0
C626 C 0.74618 0.39897 0.73967 0.0
C627 C 0.78244 0.38928 0.72131 0.0
C628 C 0.72994 0.39652 0.77109 0.0
C629 C 0.7322 0.38333 0.81675 0.0
C630 C 0.76484 0.38814 0.75388 0.0
C631 C 0.7512 0.37304 0.82949 0.0
C632 C 0.80097 0.37857 0.73676 0.0
C633 C 0.79624 0.40035 0.64387 0.0
N634 N 0.76667 0.37561 0.79831 0.0
N635 N 0.78072 0.39998 0.67545 0.0
H636 H 0.21337 0.39366 0.72877 0.0
H637 H 0.33101 0.37346 0.75857 0.0
H638 H 0.2531 0.38024 0.60856 0.0
H639 H 0.29219 0.39531 0.87706 0.0
H640 H 0.30286 0.37662 0.7031 0.0
H641 H 0.24197 0.39425 0.78361 0.0
C642 C 0.22808 0.39071 0.71385 0.0
C643 C 0.23073 0.38675 0.66382 0.0
C644 C 0.3005 0.38088 0.74122 0.0
C645 C 0.26372 0.38767 0.72664 0.0
C646 C 0.31669 0.37928 0.77303 0.0
C647 C 0.31417 0.38404 0.82291 0.0
C648 C 0.28148 0.38718 0.7592 0.0
C649 C 0.29495 0.39101 0.83919 0.0
C650 C 0.24445 0.39126 0.74522 0.0
C651 C 0.25027 0.3836 0.64666 0.0
N652 N 0.27939 0.39223 0.80756 0.0
N653 N 0.26595 0.384 0.67797 0.0
H654 H 0.23602 0.69208 0.33431 0.0
H655 H 0.30001 0.61696 0.12366 0.0
H656 H 0.22312 0.60842 0.27142 0.0
H657 H 0.32089 0.6921 0.20222 0.0
H658 H 0.27011 0.61663 0.17316 0.0
H659 H 0.2656 0.69564 0.28206 0.0
C660 C 0.23937 0.67457 0.30948 0.0
C661 C 0.22724 0.64976 0.30776 0.0
C662 C 0.28121 0.63324 0.17967 0.0
C663 C 0.26082 0.65366 0.24789 0.0
C664 C 0.29828 0.63354 0.1511 0.0
C665 C 0.31309 0.65455 0.15865 0.0
C666 C 0.27871 0.65421 0.21617 0.0
C667 C 0.31003 0.67525 0.19543 0.0
C668 C 0.25626 0.67652 0.27987 0.0
C669 C 0.23224 0.62766 0.27488 0.0
N670 N 0.29318 0.6746 0.22275 0.0
N671 N 0.24855 0.63016 0.2464 0.0
H672 H 0.97547 0.14669 0.12979 0.0
H673 H 0.07715 0.21661 0.03482 0.0
H674 H 0.97989 0.21831 0.03011 0.0
H675 H 0.07654 0.14493 0.13479 0.0
H676 H 0.04127 0.2122 0.02494 0.0
H677 H 1.0119 0.14035 0.12522 0.0
C678 C 0.98407 0.16065 0.10629 0.0
C679 C 0.97477 0.18327 0.08071 0.0
C680 C 0.04885 0.19712 0.04875 0.0
C681 C 1.01617 0.17636 0.07539 0.0
C682 C 0.06936 0.19965 0.05422 0.0
C683 C 0.0797 0.18121 0.08575 0.0
C684 C 0.03836 0.17628 0.07575 0.0
C685 C 0.06901 0.15946 0.10999 0.0
C686 C 1.00482 0.15718 0.10387 0.0
C687 C 0.98653 0.20092 0.05099 0.0
N688 N 0.04881 0.15783 0.10508 0.0
N689 N 1.00652 0.19722 0.04943 0.0
H690 H 0.57313 0.89059 0.56513 0.0
H691 H 0.47345 0.83761 0.69632 0.0
H692 H 0.57057 0.83325 0.68811 0.0
H693 H 0.4722 0.8887 0.56586 0.0
H694 H 0.50938 0.84386 0.70098 0.0
H695 H 0.53682 0.89777 0.57104 0.0
C696 C 0.56496 0.88003 0.59389 0.0
C697 C 0.57473 0.86108 0.62591 0.0
C698 C 0.50137 0.85405 0.67146 0.0
C699 C 0.53349 0.86901 0.6329 0.0
C700 C 0.48084 0.85052 0.66897 0.0
C701 C 0.46997 0.86246 0.63051 0.0
C702 C 0.51132 0.86928 0.63469 0.0
C703 C 0.48015 0.87923 0.59611 0.0
C704 C 0.54429 0.88396 0.5971 0.0
C705 C 0.56353 0.8477 0.66233 0.0
N706 N 0.50037 0.88179 0.59853 0.0
N707 N 0.54359 0.85178 0.66463 0.0
H708 H 0.97185 0.89577 0.91444 0.0
H709 H 0.07014 0.83123 0.79209 0.0
H710 H 0.97314 0.82941 0.80462 0.0
H711 H 0.07255 0.89133 0.91141 0.0
H712 H 0.03428 0.83807 0.78699 0.0
H713 H 1.00816 0.90181 0.90562 0.0
C714 C 0.97975 0.88295 0.88787 0.0
C715 C 0.96966 0.86184 0.86057 0.0
C716 C 0.04255 0.85008 0.8141 0.0
C717 C 1.01083 0.86847 0.85027 0.0
C718 C 0.06303 0.84619 0.81687 0.0
C719 C 0.07419 0.8605 0.85249 0.0
C720 C 0.03295 0.86812 0.84778 0.0
C721 C 0.06437 0.87994 0.88344 0.0
C722 C 1.00041 0.88625 0.88301 0.0
C723 C 0.98047 0.8456 0.8268 0.0
N724 N 0.0442 0.88285 0.88094 0.0
N725 N 1.0004 0.84913 0.82285 0.0
H726 H 0.57675 0.14927 0.33424 0.0
H727 H 0.48068 0.21293 0.46861 0.0
H728 H 0.57719 0.21853 0.43899 0.0
H729 H 0.47549 0.16029 0.34002 0.0
H730 H 0.51654 0.20755 0.46597 0.0
H731 H 0.54023 0.14562 0.34318 0.0
C732 C 0.56916 0.16329 0.35965 0.0
C733 C 0.57982 0.18433 0.3858 0.0
C734 C 0.50766 0.19709 0.4382 0.0
C735 C 0.5385 0.18038 0.39625 0.0
C736 C 0.48712 0.2003 0.43957 0.0
C737 C 0.47506 0.1876 0.40385 0.0
C738 C 0.51646 0.18107 0.40074 0.0
C739 C 0.48427 0.17058 0.36808 0.0
C740 C 0.5484 0.16138 0.36449 0.0
C741 C 0.56943 0.20223 0.41794 0.0
N742 N 0.5045 0.16803 0.36709 0.0
N743 N 0.54943 0.19988 0.42218 0.0
H744 H 0.47171 0.72256 0.04761 0.0
H745 H 0.57538 0.66075 0.14469 0.0
H746 H 0.47428 0.65343 0.15239 0.0
H747 H 0.5686 0.71706 0.02085 0.0
H748 H 0.53895 0.65626 0.14892 0.0
H749 H 0.5076 0.71959 0.03766 0.0
C750 C 0.47995 0.70655 0.06826 0.0
C751 C 0.47015 0.6883 0.10093 0.0
C752 C 0.54552 0.66945 0.12073 0.0
C753 C 0.51145 0.6849 0.09047 0.0
C754 C 0.5663 0.67199 0.11826 0.0
C755 C 0.57512 0.68973 0.08286 0.0
C756 C 0.53356 0.68476 0.08756 0.0
C757 C 0.56258 0.70381 0.04959 0.0
C758 C 0.50045 0.7048 0.06263 0.0
C759 C 0.48141 0.66776 0.12668 0.0
N760 N 0.54256 0.70114 0.05297 0.0
N761 N 0.50158 0.66682 0.12139 0.0
H762 H 0.07376 0.39443 0.63486 0.0
H763 H 0.97357 0.32631 0.52546 0.0
H764 H 0.07047 0.32036 0.53983 0.0
H765 H 0.97269 0.3945 0.63208 0.0
H766 H 1.0096 0.33041 0.52074 0.0
H767 H 0.03747 0.40092 0.62601 0.0
C768 C 0.06543 0.37985 0.61166 0.0
C769 C 0.07499 0.35658 0.58856 0.0
C770 C 1.00165 0.34476 0.54497 0.0
C771 C 0.03382 0.36382 0.57812 0.0
C772 C 0.98107 0.34243 0.54749 0.0
C773 C 0.97027 0.35989 0.57948 0.0
C774 C 1.01171 0.36446 0.57526 0.0
C775 C 0.98059 0.38069 0.60695 0.0
C776 C 0.04478 0.38346 0.60677 0.0
C777 C 0.06361 0.33822 0.55898 0.0
N778 N 1.00085 0.38214 0.60481 0.0
N779 N 0.04371 0.34215 0.55482 0.0
H780 H 0.47442 0.32636 0.9569 0.0
H781 H 0.57394 0.39604 0.84776 0.0
H782 H 0.47279 0.39362 0.84873 0.0
H783 H 0.57127 0.32078 0.94003 0.0
H784 H 0.53767 0.40241 0.85753 0.0
H785 H 0.51043 0.33146 0.96229 0.0
C786 C 0.48174 0.34255 0.93477 0.0
C787 C 0.47073 0.35944 0.90214 0.0
C788 C 0.54511 0.38476 0.87614 0.0
C789 C 0.51217 0.36507 0.90703 0.0
C790 C 0.56575 0.38127 0.87079 0.0
C791 C 0.57546 0.35772 0.89285 0.0
C792 C 0.53431 0.36472 0.90421 0.0
C793 C 0.56427 0.339 0.92201 0.0
C794 C 0.50231 0.34543 0.93763 0.0
C795 C 0.48084 0.38028 0.87441 0.0
N796 N 0.54437 0.34282 0.92663 0.0
N797 N 0.50109 0.38224 0.87689 0.0
H798 H 0.97187 0.65057 0.35076 0.0
H799 H 0.0711 0.73337 0.43525 0.0
H800 H 0.97368 0.73251 0.42597 0.0
H801 H 0.07303 0.6532 0.35476 0.0
H802 H 0.0351 0.72976 0.43883 0.0
H803 H 1.00841 0.64723 0.35852 0.0
C804 C 0.97993 0.66757 0.3695 0.0
C805 C 0.96982 0.69203 0.38723 0.0
C806 C 0.04328 0.71279 0.42045 0.0
C807 C 1.01135 0.68852 0.39612 0.0
C808 C 0.0639 0.71495 0.41825 0.0
C809 C 0.0751 0.6938 0.39408 0.0
C810 C 0.03352 0.68937 0.39796 0.0
C811 C 0.06495 0.67 0.37372 0.0
C812 C 1.00074 0.66578 0.37368 0.0
C813 C 0.98092 0.71356 0.41102 0.0
N814 N 0.04468 0.66857 0.37564 0.0
N815 N 1.00097 0.71136 0.41452 0.0
H816 H 0.14117 0.08248 0.08703 0.0
H817 H 0.15042 0.95894 0.88246 0.0
H818 H 0.16553 0.0973 0.94479 0.0
H819 H 0.1379 0.94127 0.0327 0.0
H820 H 0.14986 1.01121 0.90056 0.0
H821 H 0.13399 0.03206 0.0637 0.0
C822 C 0.14482 0.07525 0.05081 0.0
C823 C 0.15419 0.09408 0.01809 0.0
C824 C 0.147 0.99585 0.92941 0.0
C825 C 0.14598 0.03649 -0.00896 0.0
C826 C 0.14719 0.96604 0.91899 0.0
C827 C 0.14441 0.94571 0.95619 0.0
C828 C 0.14386 1.00535 0.97728 0.0
C829 C 0.14036 0.95617 0.00298 0.0
C830 C 0.14077 0.04646 0.03751 0.0
C831 C 0.15853 0.0835 0.9715 0.0
N832 N 0.14034 0.98517 0.01223 0.0
N833 N 0.15449 0.05547 0.9595 0.0
H834 H 0.374 0.94341 0.46265 0.0
H835 H 0.4359 0.08906 0.50976 0.0
H836 H 0.41448 0.9527 0.58337 0.0
H837 H 0.38676 0.08237 0.40939 0.0
H838 H 0.43049 0.0384 0.53343 0.0
H839 H 0.38087 0.99317 0.43903 0.0
C840 C 0.38442 0.95587 0.48426 0.0
C841 C 0.39364 0.94373 0.52526 0.0
C842 C 0.42092 0.04804 0.50623 0.0
C843 C 0.40159 1.00127 0.49803 0.0
C844 C 0.42402 0.07695 0.49251 0.0
C845 C 0.41176 0.09007 0.45745 0.0
C846 C 0.40555 0.03202 0.48447 0.0
C847 C 0.39658 0.07326 0.43656 0.0
C848 C 0.38829 0.98444 0.4707 0.0
C849 C 0.40699 0.96116 0.55161 0.0
N850 N 0.39395 0.04517 0.45033 0.0
N851 N 0.41058 0.98908 0.53752 0.0
H852 H 0.90104 0.96142 0.8838 0.0
H853 H 0.90544 0.0846 0.08957 0.0
H854 H 0.89424 0.9439 0.03633 0.0
H855 H 0.89225 0.10205 0.93936 0.0
H856 H 0.90943 0.03291 0.06952 0.0
H857 H 0.90592 1.01309 0.90287 0.0
C858 C 0.9009 0.96835 0.92128 0.0
C859 C 0.89698 0.94841 0.95847 0.0
C860 C 0.90589 0.04817 0.04092 0.0
C861 C 0.9026 1.00728 0.98053 0.0
C862 C 0.90371 0.07765 0.05231 0.0
C863 C 0.89827 0.09758 0.0162 0.0
C864 C 0.90287 0.03869 -0.00699 0.0
C865 C 0.89618 0.08737 0.96848 0.0
C866 C 0.90358 0.99782 0.93214 0.0
C867 C 0.89694 0.95859 0.00645 0.0
N868 N 0.89839 0.05867 0.95832 0.0
N869 N 0.89959 0.98729 0.01608 0.0
H870 H 0.65063 0.1 0.53941 0.0
H871 H 0.65172 0.93756 0.44351 0.0
H872 H 0.64774 0.0781 0.38767 0.0
H873 H 0.6436 0.95932 0.59408 0.0
H874 H 0.64763 0.98858 0.42219 0.0
H875 H 0.64538 0.04905 0.55985 0.0
C876 C 0.64867 0.08448 0.51029 0.0
C877 C 0.64986 0.09331 0.46167 0.0
C878 C 0.64648 0.98227 0.45985 0.0
C879 C 0.64403 0.03462 0.48502 0.0
C880 C 0.64886 0.95308 0.47215 0.0
C881 C 0.64823 0.94417 0.52079 0.0
C882 C 0.64372 1.00297 0.49647 0.0
C883 C 0.64426 0.96523 0.55617 0.0
C884 C 0.64563 0.05534 0.52207 0.0
C885 C 0.64698 0.07226 0.42559 0.0
N886 N 0.64245 0.99373 0.54338 0.0
N887 N 0.6445 0.04381 0.438 0.0
H888 H 0.66131 0.58039 0.0812 0.0
H889 H 0.63118 0.44944 0.904 0.0
H890 H 0.61264 0.58623 0.97938 0.0
H891 H 0.67268 0.44189 0.02297 0.0
H892 H 0.62442 0.4998 0.92876 0.0
H893 H 0.66608 0.52974 0.05804 0.0
C894 C 0.65158 0.57102 0.05406 0.0
C895 C 0.63657 0.58768 0.03221 0.0
C896 C 0.63494 0.48699 0.94945 0.0
C897 C 0.642 0.52949 0.00521 0.0
C898 C 0.63881 0.45828 0.93531 0.0
C899 C 0.65255 0.44137 0.96132 0.0
C900 C 0.64499 0.49886 0.98964 0.0
C901 C 0.66198 0.45398 0.00167 0.0
C902 C 0.65429 0.54203 0.04084 0.0
C903 C 0.62438 0.57423 -0.00273 0.0
N904 N 0.65809 0.48188 0.01436 0.0
N905 N 0.62743 0.54598 0.98468 0.0
H906 H 0.89127 0.44459 0.43588 0.0
H907 H 0.89731 0.6051 0.53809 0.0
H908 H 0.90301 0.46326 0.58636 0.0
H909 H 0.90044 0.58554 0.38555 0.0
H910 H 0.90138 0.55357 0.55637 0.0
H911 H 0.8965 0.49571 0.41647 0.0
C912 C 0.89516 0.45943 0.46486 0.0
C913 C 0.8965 0.44966 0.51295 0.0
C914 C 0.90146 0.56051 0.5189 0.0
C915 C 0.9023 0.50853 0.4909 0.0
C916 C 0.89909 0.58997 0.50837 0.0
C917 C 0.89833 0.59964 0.46014 0.0
C918 C 0.90275 0.54034 0.48094 0.0
C919 C 0.90091 0.57906 0.42322 0.0
C920 C 0.8982 0.48866 0.45366 0.0
C921 C 0.90178 0.46985 0.54884 0.0
N922 N 0.90269 0.55032 0.43436 0.0
N923 N 0.90418 0.49842 0.53719 0.0
H924 H 0.38268 0.43947 0.04178 0.0
H925 H 0.40947 0.59889 0.95327 0.0
H926 H 0.40671 0.45743 0.90026 0.0
H927 H 0.39546 0.57836 0.10165 0.0
H928 H 0.41105 0.5471 0.93483 0.0
H929 H 0.38939 0.48947 0.06563 0.0
C930 C 0.38949 0.4539 0.01569 0.0
C931 C 0.39392 0.44425 0.96864 0.0
C932 C 0.40792 0.55381 0.9716 0.0
C933 C 0.40159 0.50195 -0.00406 0.0
C934 C 0.40702 0.58343 0.98223 0.0
C935 C 0.40217 0.593 0.02905 0.0
C936 C 0.40364 0.53342 0.00785 0.0
C937 C 0.39927 0.57198 0.06511 0.0
C938 C 0.3934 0.48251 0.0295 0.0
C939 C 0.40297 0.46393 0.93678 0.0
N940 N 0.39975 0.54317 0.05358 0.0
N941 N 0.40627 0.49195 0.95081 0.0
H942 H 0.15488 0.60151 0.54251 0.0
H943 H 0.13944 0.44138 0.44708 0.0
H944 H 0.13276 0.5824 0.39924 0.0
H945 H 0.1467 0.46121 0.59875 0.0
H946 H 0.13428 0.49286 0.43036 0.0
H947 H 0.14928 0.55097 0.56566 0.0
C948 C 0.14853 0.58674 0.51611 0.0
C949 C 0.14447 0.5961 0.4687 0.0
C950 C 0.1367 0.48601 0.46743 0.0
C951 C 0.13831 0.53799 0.4948 0.0
C952 C 0.13971 0.45659 0.47702 0.0
C953 C 0.14373 0.44704 0.52434 0.0
C954 C 0.13809 0.50626 0.50528 0.0
C955 C 0.14369 0.46766 0.56175 0.0
C956 C 0.14531 0.55787 0.5294 0.0
C957 C 0.13612 0.5761 0.43614 0.0
N958 N 0.14128 0.4964 0.5513 0.0
N959 N 0.13365 0.54785 0.44954 0.0
H960 H 0.18082 0.36985 0.76234 0.0
H961 H 0.12413 0.25716 0.93092 0.0
H962 H 0.12019 0.34309 0.73972 0.0
H963 H 0.18704 0.2753 0.93829 0.0
H964 H 0.12022 0.29714 0.87341 0.0
H965 H 0.18049 0.34643 0.84178 0.0
C966 C 0.1671 0.36035 0.77528 0.0
C967 C 0.15046 0.35846 0.74487 0.0
C968 C 0.13484 0.29253 0.888 0.0
C969 C 0.15024 0.33034 0.83419 0.0
C970 C 0.13714 0.26945 0.92034 0.0
C971 C 0.15601 0.2625 0.93889 0.0
C972 C 0.15153 0.30879 0.87397 0.0
C973 C 0.17221 0.27983 0.925 0.0
C974 C 0.16701 0.3465 0.82024 0.0
C975 C 0.13322 0.34524 0.76261 0.0
N976 N 0.16962 0.30197 0.8931 0.0
N977 N 0.13366 0.33109 0.80576 0.0
H978 H 0.38607 0.74153 0.49214 0.0
H979 H 0.42521 0.69923 0.23123 0.0
H980 H 0.40746 0.8038 0.38698 0.0
H981 H 0.36841 0.6679 0.28013 0.0
H982 H 0.42972 0.72441 0.30865 0.0
H983 H 0.38917 0.70334 0.43126 0.0
C984 C 0.39137 0.74745 0.45656 0.0
C985 C 0.39611 0.77649 0.4449 0.0
C986 C 0.41669 0.71094 0.30318 0.0
C987 C 0.40093 0.73211 0.37646 0.0
C988 C 0.41425 0.69621 0.25949 0.0
C989 C 0.39652 0.68131 0.24984 0.0
C990 C 0.40135 0.71041 0.33734 0.0
C991 C 0.38242 0.67883 0.2868 0.0
C992 C 0.39341 0.72539 0.42221 0.0
C993 C 0.40378 0.78201 0.39846 0.0
N994 N 0.38498 0.6937 0.32896 0.0
N995 N 0.40594 0.76005 0.36606 0.0
H996 H 0.13048 0.80387 0.1006 0.0
H997 H 0.17455 0.66439 0.20927 0.0
H998 H 0.16406 0.74606 0.00844 0.0
H999 H 0.11791 0.69725 0.25614 0.0
H1000 H 0.17062 0.6908 0.13278 0.0
H1001 H 0.12571 0.76414 0.15738 0.0
C1002 C 0.13669 0.78284 0.09177 0.0
C1003 C 0.14784 0.77866 0.04939 0.0
C1004 C 0.15866 0.69127 0.1589 0.0
C1005 C 0.14271 0.733 0.11543 0.0
C1006 C 0.16076 0.67581 0.20216 0.0
C1007 C 0.14638 0.6784 0.23847 0.0
C1008 C 0.14241 0.71011 0.15306 0.0
C1009 C 0.12914 0.69438 0.22851 0.0
C1010 C 0.13391 0.7601 0.12439 0.0
C1011 C 0.15583 0.75079 0.04107 0.0
N1012 N 0.12787 0.71038 0.18728 0.0
N1013 N 0.15337 0.72918 0.07411 0.0
H1014 H 0.42346 0.341 0.74985 0.0
H1015 H 0.35465 0.26893 0.54868 0.0
H1016 H 0.36209 0.36355 0.72791 0.0
H1017 H 0.41589 0.24546 0.57446 0.0
H1018 H 0.35868 0.31021 0.60366 0.0
H1019 H 0.4232 0.31483 0.67282 0.0
C1020 C 0.41022 0.34175 0.72741 0.0
C1021 C 0.39278 0.35453 0.74487 0.0
C1022 C 0.37126 0.29612 0.59707 0.0
C1023 C 0.39191 0.32322 0.65844 0.0
C1024 C 0.36894 0.27247 0.56583 0.0
C1025 C 0.38484 0.25335 0.55763 0.0
C1026 C 0.38962 0.30074 0.62028 0.0
C1027 C 0.40305 0.2591 0.58075 0.0
C1028 C 0.40991 0.32628 0.68393 0.0
C1029 C 0.37582 0.35412 0.71537 0.0
N1030 N 0.4049 0.28213 0.61119 0.0
N1031 N 0.37564 0.33809 0.67404 0.0
H1032 H 0.85821 0.6782 0.22166 0.0
H1033 H 0.9201 0.77934 0.04451 0.0
H1034 H 0.92112 0.69308 0.23591 0.0
H1035 H 0.85614 0.7716 0.04416 0.0
H1036 H 0.92201 0.73914 0.10215 0.0
H1037 H 0.85886 0.70092 0.14181 0.0
C1038 C 0.87237 0.68488 0.20675 0.0
C1039 C 0.88968 0.68359 0.23494 0.0
C1040 C 0.90757 0.74607 0.08907 0.0
C1041 C 0.89039 0.71119 0.14516 0.0
C1042 C 0.90645 0.76928 0.05664 0.0
C1043 C 0.8879 0.77928 0.04008 0.0
C1044 C 0.89003 0.73271 0.10517 0.0
C1045 C 0.87077 0.76471 0.0559 0.0
C1046 C 0.87269 0.69838 0.16156 0.0
C1047 C 0.90753 0.69335 0.21475 0.0
N1048 N 0.87225 0.74238 0.08785 0.0
N1049 N 0.90738 0.70739 0.17145 0.0
H1050 H 0.67078 0.29375 0.49857 0.0
H1051 H 0.62105 0.34253 0.74552 0.0
H1052 H 0.64102 0.236 0.59864 0.0
H1053 H 0.68053 0.36997 0.71105 0.0
H1054 H 0.61903 0.3176 0.66735 0.0
H1055 H 0.66657 0.33335 0.55668 0.0
C1056 C 0.66341 0.28913 0.53245 0.0
C1057 C 0.65644 0.26097 0.54344 0.0
C1058 C 0.63217 0.33021 0.67602 0.0
C1059 C 0.65051 0.30699 0.60827 0.0
C1060 C 0.6332 0.34486 0.72011 0.0
C1061 C 0.65092 0.3584 0.73427 0.0
C1062 C 0.64894 0.3294 0.64609 0.0
C1063 C 0.66653 0.36001 0.7009 0.0
C1064 C 0.66076 0.312 0.56511 0.0
C1065 C 0.64637 0.25711 0.58754 0.0
N1066 N 0.66536 0.3451 0.65845 0.0
N1067 N 0.64368 0.27982 0.61812 0.0
H1068 H 0.92555 0.26209 0.92194 0.0
H1069 H 0.86438 0.37123 0.75476 0.0
H1070 H 0.8623 0.27675 0.93181 0.0
H1071 H 0.92529 0.34749 0.72905 0.0
H1072 H 0.86605 0.34753 0.83387 0.0
H1073 H 0.9278 0.30163 0.86311 0.0
C1074 C 0.91211 0.27351 0.91164 0.0
C1075 C 0.89364 0.26571 0.93135 0.0
C1076 C 0.87928 0.3483 0.81171 0.0
C1077 C 0.89623 0.31154 0.86489 0.0
C1078 C 0.87842 0.36231 0.76693 0.0
C1079 C 0.89477 0.36146 0.7358 0.0
C1080 C 0.89656 0.33298 0.8248 0.0
C1081 C 0.91247 0.34892 0.75255 0.0
C1082 C 0.91346 0.29634 0.87851 0.0
C1083 C 0.87686 0.28196 0.9177 0.0
N1084 N 0.9128 0.3346 0.79558 0.0
N1085 N 0.87854 0.30391 0.88508 0.0
H1086 H 0.65234 0.74406 0.47376 0.0
H1087 H 0.61549 0.71462 0.20414 0.0
H1088 H 0.63207 0.81026 0.37398 0.0
H1089 H 0.66405 0.66665 0.26718 0.0
H1090 H 0.61078 0.73995 0.28114 0.0
H1091 H 0.64751 0.70763 0.41044 0.0
C1092 C 0.64692 0.75113 0.43876 0.0
C1093 C 0.64302 0.78068 0.42925 0.0
C1094 C 0.62201 0.72315 0.27865 0.0
C1095 C 0.63646 0.73855 0.35775 0.0
C1096 C 0.62451 0.70843 0.23509 0.0
C1097 C 0.64006 0.68849 0.22983 0.0
C1098 C 0.63526 0.71792 0.31695 0.0
C1099 C 0.65171 0.68163 0.27035 0.0
C1100 C 0.64392 0.73013 0.40296 0.0
C1101 C 0.6352 0.78795 0.38358 0.0
N1102 N 0.6493 0.69675 0.3123 0.0
N1103 N 0.63224 0.76706 0.3496 0.0
H1104 H 0.6345 0.74351 0.91472 0.0
H1105 H 0.69159 0.85484 0.7471 0.0
H1106 H 0.69733 0.76079 0.92782 0.0
H1107 H 0.62803 0.84426 0.74607 0.0
H1108 H 0.69337 0.82769 0.82305 0.0
H1109 H 0.63133 0.78486 0.86004 0.0
C1110 C 0.64769 0.75585 0.90565 0.0
C1111 C 0.66629 0.74831 0.92504 0.0
C1112 C 0.67893 0.83213 0.80726 0.0
C1113 C 0.66269 0.79622 0.86316 0.0
C1114 C 0.6779 0.84813 0.7644 0.0
C1115 C 0.6596 0.85204 0.74091 0.0
C1116 C 0.66157 0.81943 0.82588 0.0
C1117 C 0.64236 0.84208 0.76371 0.0
C1118 C 0.64581 0.77976 0.87499 0.0
C1119 C 0.68274 0.7657 0.91335 0.0
N1120 N 0.64379 0.82562 0.80443 0.0
N1121 N 0.68059 0.78866 0.88275 0.0
H1122 H 0.87001 0.17115 0.25665 0.0
H1123 H 0.92492 0.28484 0.42779 0.0
H1124 H 0.92993 0.20098 0.23455 0.0
H1125 H 0.86172 0.26841 0.42735 0.0
H1126 H 0.92942 0.24435 0.37167 0.0
H1127 H 0.86993 0.19441 0.33618 0.0
C1128 C 0.88351 0.18131 0.26963 0.0
C1129 C 0.9 0.18423 0.23925 0.0
C1130 C 0.9146 0.24945 0.38427 0.0
C1131 C 0.89978 0.21194 0.32889 0.0
C1132 C 0.91197 0.27282 0.41579 0.0
C1133 C 0.89285 0.28048 0.43159 0.0
C1134 C 0.898 0.23354 0.36841 0.0
C1135 C 0.87673 0.2634 0.41612 0.0
C1136 C 0.88336 0.19503 0.31471 0.0
C1137 C 0.917 0.19811 0.25732 0.0
N1138 N 0.87965 0.24092 0.38506 0.0
N1139 N 0.91632 0.21205 0.30063 0.0
H1140 H 0.62559 0.18704 0.24077 0.0
H1141 H 0.68819 0.26172 0.03258 0.0
H1142 H 0.68825 0.17379 0.21892 0.0
H1143 H 0.62541 0.27622 0.05378 0.0
H1144 H 0.68693 0.22193 0.09049 0.0
H1145 H 0.62337 0.2101 0.16103 0.0
C1146 C 0.63865 0.18756 0.2179 0.0
C1147 C 0.65708 0.17832 0.23588 0.0
C1148 C 0.67337 0.23362 0.08225 0.0
C1149 C 0.65497 0.20598 0.14627 0.0
C1150 C 0.67407 0.2564 0.0491 0.0
C1151 C 0.65691 0.27261 0.03854 0.0
C1152 C 0.65542 0.22702 0.10558 0.0
C1153 C 0.63911 0.2648 0.06159 0.0
C1154 C 0.63749 0.20123 0.17283 0.0
C1155 C 0.67373 0.18036 0.20587 0.0
N1156 N 0.63886 0.24272 0.09432 0.0
N1157 N 0.67238 0.19451 0.16286 0.0
H1158 H 0.92494 0.7681 0.54185 0.0
H1159 H 0.86633 0.87552 0.71598 0.0
H1160 H 0.8612 0.77933 0.54362 0.0
H1161 H 0.92681 0.84846 0.74002 0.0
H1162 H 0.8673 0.85358 0.63547 0.0
H1163 H 0.92817 0.80819 0.59941 0.0
C1164 C 0.91161 0.77891 0.55434 0.0
C1165 C 0.89272 0.76988 0.53848 0.0
C1166 C 0.88061 0.85333 0.65763 0.0
C1167 C 0.89642 0.81639 0.60323 0.0
C1168 C 0.88016 0.86631 0.70328 0.0
C1169 C 0.89654 0.86375 0.73439 0.0
C1170 C 0.8975 0.83751 0.6436 0.0
C1171 C 0.91396 0.85103 0.71667 0.0
C1172 C 0.91351 0.80205 0.58669 0.0
C1173 C 0.87607 0.78545 0.55471 0.0
N1174 N 0.91388 0.83777 0.67273 0.0
N1175 N 0.8783 0.80774 0.58648 0.0
H1176 H 0.42772 0.28659 0.06151 0.0
H1177 H 0.37657 0.16789 0.23043 0.0
H1178 H 0.36567 0.26281 0.05477 0.0
H1179 H 0.43427 0.20498 0.25768 0.0
H1180 H 0.37603 0.1915 0.1509 0.0
H1181 H 0.43324 0.24784 0.12047 0.0
C1182 C 0.41522 0.27334 0.07255 0.0
C1183 C 0.39611 0.27838 0.05374 0.0
C1184 C 0.38912 0.19368 0.17355 0.0
C1185 C 0.40249 0.23341 0.12031 0.0
C1186 C 0.38957 0.17977 0.21851 0.0
C1187 C 0.40555 0.18445 0.25015 0.0
C1188 C 0.40473 0.21247 0.16073 0.0
C1189 C 0.4218 0.20068 0.23382 0.0
C1190 C 0.41846 0.25097 0.10575 0.0
C1191 C 0.38065 0.2598 0.06824 0.0
N1192 N 0.42084 0.21458 0.19051 0.0
N1193 N 0.38415 0.23832 0.10093 0.0
H1194 H 0.12395 0.85187 0.72724 0.0
H1195 H 0.19436 0.76585 0.54841 0.0
H1196 H 0.18776 0.85842 0.72997 0.0
H1197 H 0.13028 0.76405 0.5408 0.0
H1198 H 0.19234 0.80671 0.60489 0.0
H1199 H 0.12581 0.82885 0.64758 0.0
C1200 C 0.13829 0.84987 0.70978 0.0
C1201 C 0.15571 0.85721 0.73483 0.0
C1202 C 0.17872 0.79755 0.59051 0.0
C1203 C 0.15814 0.82928 0.64532 0.0
C1204 C 0.17987 0.77417 0.55829 0.0
C1205 C 0.16247 0.76101 0.54064 0.0
C1206 C 0.16002 0.80785 0.60529 0.0
C1207 C 0.1441 0.77283 0.55465 0.0
C1208 C 0.13942 0.83618 0.66472 0.0
C1209 C 0.17398 0.85326 0.71153 0.0
N1210 N 0.14336 0.79532 0.58644 0.0
N1211 N 0.17478 0.83893 0.66854 0.0
H1212 H 0.36189 0.86835 0.77214 0.0
H1213 H 0.40808 0.73629 0.88787 0.0
H1214 H 0.42306 0.84703 0.74396 0.0
H1215 H 0.37337 0.79139 0.98227 0.0
H1216 H 0.4121 0.77688 0.83284 0.0
H1217 H 0.36433 0.84339 0.85043 0.0
C1218 C 0.37616 0.85993 0.78382 0.0
C1219 C 0.39237 0.85986 0.75211 0.0
C1220 C 0.40382 0.78012 0.86599 0.0
C1221 C 0.39488 0.82997 0.83935 0.0
C1222 C 0.40148 0.75689 0.89764 0.0
C1223 C 0.39043 0.76013 0.94041 0.0
C1224 C 0.39457 0.8067 0.87603 0.0
C1225 C 0.38168 0.78743 0.9495 0.0
C1226 C 0.37747 0.84536 0.8281 0.0
C1227 C 0.41034 0.84778 0.76791 0.0
N1228 N 0.38368 0.80957 0.91718 0.0
N1229 N 0.41096 0.83243 0.80983 0.0
H1230 H 0.1857 0.17025 0.26857 0.0
H1231 H 0.14007 0.30608 0.37687 0.0
H1232 H 0.12631 0.19579 0.22884 0.0
H1233 H 0.17089 0.24856 0.47572 0.0
H1234 H 0.13659 0.26604 0.32027 0.0
H1235 H 0.18205 0.19639 0.34552 0.0
C1236 C 0.17149 0.17994 0.27738 0.0
C1237 C 0.15616 0.18064 0.24291 0.0
C1238 C 0.14392 0.26219 0.35467 0.0
C1239 C 0.15238 0.21194 0.32863 0.0
C1240 C 0.14593 0.2851 0.38725 0.0
C1241 C 0.15579 0.28105 0.43171 0.0
C1242 C 0.15229 0.23509 0.36563 0.0
C1243 C 0.16358 0.25321 0.44167 0.0
C1244 C 0.16951 0.19519 0.32088 0.0
C1245 C 0.13831 0.19443 0.25501 0.0
N1246 N 0.16194 0.23141 0.40857 0.0
N1247 N 0.1371 0.21036 0.29628 0.0
loop_
_geom_bond_atom_site_label_1
_geom_bond_atom_site_label_2
_geom_bond_distance
_geom_bond_site_symmetry_2
_ccdc_geom_bond_type
C0 C1 1.351 . S
C0 N3 1.368 . S
C0 H5 0.931 . S
C1 C0 1.351 . S
C1 N2 1.373 . S
C1 H29 0.930 . S
N2 C1 1.373 . S
N2 C4 1.340 . S
N3 C0 1.368 . S
N3 C4 1.321 . S
N3 Co6 2.135 . S
C4 N2 1.340 . S
C4 N3 1.321 . S
C4 H28 0.930 . S
H5 C0 0.931 . S
Co6 N3 2.135 . S
Co6 N9 2.121 . S
Co6 O14 2.055 . S
Co6 O17 2.039 . S
Co6 N20 2.140 . S
C7 O8 1.227 . S
C7 O17 1.265 . S
O8 C7 1.227 . S
N9 Co6 2.121 . S
N9 C11 1.375 . S
N9 C12 1.313 . S
C10 C11 1.338 . S
C10 N13 1.377 . S
C10 H30 0.930 . S
C11 N9 1.375 . S
C11 C10 1.338 . S
C11 H15 0.931 . S
C12 N9 1.313 . S
C12 N13 1.344 . S
C12 H16 0.930 . S
N13 C10 1.377 . S
N13 C12 1.344 . S
O14 Co6 2.055 . S
O14 C18 1.253 . S
H15 C11 0.931 . S
H16 C12 0.930 . S
O17 Co6 2.039 . S
O17 C7 1.265 . S
C18 O14 1.253 . S
C18 O19 1.227 . S
O19 C18 1.227 . S
N20 Co6 2.140 . S
N20 C23 1.346 . S
N20 C24 1.345 . S
C21 C22 1.387 . S
C21 C25 1.391 1_556 S
C22 C21 1.387 . S
C22 C23 1.369 1_556 S
C22 H31 0.929 . S
C23 N20 1.346 . S
C23 C22 1.369 1_554 S
C23 H26 0.928 . S
C24 N20 1.345 . S
C24 C25 1.371 . S
C24 H27 0.931 . S
C25 C21 1.391 1_554 S
C25 C24 1.371 . S
C25 H32 0.930 . S
H26 C23 0.928 . S
H27 C24 0.931 . S
H28 C4 0.930 . S
H29 C1 0.930 . S
H30 C10 0.930 . S
H31 C22 0.929 . S
H32 C25 0.930 . S
C33 C34 1.351 . S
C33 N36 1.368 . S
C33 H38 0.931 . S
C34 C33 1.351 . S
C34 N35 1.373 . S
C34 H62 0.930 . S
N35 C34 1.373 . S
N35 C37 1.340 . S
N36 C33 1.368 . S
N36 C37 1.321 . S
N36 Co39 2.135 . S
C37 N35 1.340 . S
C37 N36 1.321 . S
C37 H61 0.930 . S
H38 C33 0.931 . S
Co39 N36 2.135 . S
Co39 N42 2.121 . S
Co39 O47 2.055 . S
Co39 O50 2.039 . S
Co39 N53 2.140 . S
C40 O41 1.227 . S
C40 O50 1.265 . S
O41 C40 1.227 . S
N42 Co39 2.121 . S
N42 C44 1.375 . S
N42 C45 1.313 . S
C43 C44 1.338 . S
C43 N46 1.377 . S
C43 H63 0.930 . S
C44 N42 1.375 . S
C44 C43 1.338 . S
C44 H48 0.931 . S
C45 N42 1.313 . S
C45 N46 1.344 . S
C45 H49 0.930 . S
N46 C43 1.377 . S
N46 C45 1.344 . S
O47 Co39 2.055 . S
O47 C51 1.253 . S
H48 C44 0.931 . S
H49 C45 0.930 . S
O50 Co39 2.039 . S
O50 C40 1.265 . S
C51 O47 1.253 . S
C51 O52 1.227 . S
O52 C51 1.227 . S
N53 Co39 2.140 . S
N53 C56 1.346 . S
N53 C57 1.345 . S
C54 C55 1.387 . S
C54 C58 1.391 . S
C55 C54 1.387 . S
C55 C56 1.369 . S
C55 H64 0.929 . S
C56 N53 1.346 . S
C56 C55 1.369 . S
C56 H59 0.928 . S
C57 N53 1.345 . S
C57 C58 1.371 . S
C57 H60 0.931 . S
C58 C54 1.391 . S
C58 C57 1.371 . S
C58 H65 0.930 . S
H59 C56 0.928 . S
H60 C57 0.931 . S
H61 C37 0.930 . S
H62 C34 0.930 . S
H63 C43 0.930 . S
H64 C55 0.929 . S
H65 C58 0.930 . S
C66 C67 1.351 . S
C66 N69 1.368 . S
C66 H71 0.931 . S
C67 C66 1.351 . S
C67 N68 1.373 . S
C67 H95 0.930 . S
N68 C67 1.373 . S
N68 C70 1.340 . S
N69 C66 1.368 . S
N69 C70 1.321 . S
N69 Co72 2.135 . S
C70 N68 1.340 . S
C70 N69 1.321 . S
C70 H94 0.930 . S
H71 C66 0.931 . S
Co72 N69 2.135 . S
Co72 N75 2.121 . S
Co72 O80 2.055 . S
Co72 O83 2.039 . S
Co72 N86 2.140 . S
C73 O74 1.227 . S
C73 O83 1.265 . S
O74 C73 1.227 . S
N75 Co72 2.121 . S
N75 C77 1.375 . S
N75 C78 1.313 . S
C76 C77 1.338 . S
C76 N79 1.377 . S
C76 H96 0.930 . S
C77 N75 1.375 . S
C77 C76 1.338 . S
C77 H81 0.931 . S
C78 N75 1.313 . S
C78 N79 1.344 . S
C78 H82 0.930 . S
N79 C76 1.377 . S
N79 C78 1.344 . S
O80 Co72 2.055 . S
O80 C84 1.253 . S
H81 C77 0.931 . S
H82 C78 0.930 . S
O83 Co72 2.039 . S
O83 C73 1.265 . S
C84 O80 1.253 . S
C84 O85 1.227 . S
O85 C84 1.227 . S
N86 Co72 2.140 . S
N86 C89 1.346 . S
N86 C90 1.345 . S
C87 C88 1.387 . S
C87 C91 1.391 1_554 S
C88 C87 1.387 . S
C88 C89 1.369 1_554 S
C88 H97 0.929 . S
C89 N86 1.346 . S
C89 C88 1.369 1_556 S
C89 H92 0.928 . S
C90 N86 1.345 . S
C90 C91 1.371 . S
C90 H93 0.931 . S
C91 C87 1.391 1_556 S
C91 C90 1.371 . S
C91 H98 0.930 . S
H92 C89 0.928 . S
H93 C90 0.931 . S
H94 C70 0.930 . S
H95 C67 0.930 . S
H96 C76 0.930 . S
H97 C88 0.929 . S
H98 C91 0.930 . S
C99 C100 1.351 . S
C99 N102 1.368 . S
C99 H104 0.931 . S
C100 C99 1.351 . S
C100 N101 1.373 . S
C100 H128 0.930 . S
N101 C100 1.373 . S
N101 C103 1.340 . S
N102 C99 1.368 . S
N102 C103 1.321 . S
N102 Co105 2.135 . S
C103 N101 1.340 . S
C103 N102 1.321 . S
C103 H127 0.930 . S
H104 C99 0.931 . S
Co105 N102 2.135 . S
Co105 N108 2.121 . S
Co105 O113 2.055 . S
Co105 O116 2.039 . S
Co105 N119 2.140 . S
C106 O107 1.227 . S
C106 O116 1.265 . S
O107 C106 1.227 . S
N108 Co105 2.121 . S
N108 C110 1.375 . S
N108 C111 1.313 . S
C109 C110 1.338 . S
C109 N112 1.377 . S
C109 H129 0.930 . S
C110 N108 1.375 . S
C110 C109 1.338 . S
C110 H114 0.931 . S
C111 N108 1.313 . S
C111 N112 1.344 . S
C111 H115 0.930 . S
N112 C109 1.377 . S
N112 C111 1.344 . S
O113 Co105 2.055 . S
O113 C117 1.253 . S
H114 C110 0.931 . S
H115 C111 0.930 . S
O116 Co105 2.039 . S
O116 C106 1.265 . S
C117 O113 1.253 . S
C117 O118 1.227 . S
O118 C117 1.227 . S
N119 Co105 2.140 . S
N119 C122 1.346 . S
N119 C123 1.345 . S
C120 C121 1.387 . S
C120 C124 1.391 . S
C121 C120 1.387 . S
C121 C122 1.369 . S
C121 H130 0.929 . S
C122 N119 1.346 . S
C122 C121 1.369 . S
C122 H125 0.928 . S
C123 N119 1.345 . S
C123 C124 1.371 . S
C123 H126 0.931 . S
C124 C120 1.391 . S
C124 C123 1.371 . S
C124 H131 0.930 . S
H125 C122 0.928 . S
H126 C123 0.931 . S
H127 C103 0.930 . S
H128 C100 0.930 . S
H129 C109 0.930 . S
H130 C121 0.929 . S
H131 C124 0.930 . S
C132 C133 1.351 . S
C132 N135 1.368 . S
C132 H137 0.931 . S
C133 C132 1.351 . S
C133 N134 1.373 . S
C133 H161 0.930 . S
N134 C133 1.373 . S
N134 C136 1.340 . S
N135 C132 1.368 . S
N135 C136 1.321 . S
N135 Co138 2.135 . S
C136 N134 1.340 . S
C136 N135 1.321 . S
C136 H160 0.930 . S
H137 C132 0.931 . S
Co138 N135 2.135 . S
Co138 N141 2.121 . S
Co138 O146 2.055 . S
Co138 O149 2.039 . S
Co138 N152 2.140 . S
C139 O140 1.227 . S
C139 O149 1.265 . S
O140 C139 1.227 . S
N141 Co138 2.121 . S
N141 C143 1.375 . S
N141 C144 1.313 . S
C142 C143 1.338 . S
C142 N145 1.377 . S
C142 H162 0.930 . S
C143 N141 1.375 . S
C143 C142 1.338 . S
C143 H147 0.931 . S
C144 N141 1.313 . S
C144 N145 1.344 . S
C144 H148 0.930 . S
N145 C142 1.377 . S
N145 C144 1.344 . S
O146 Co138 2.055 . S
O146 C150 1.253 . S
H147 C143 0.931 . S
H148 C144 0.930 . S
O149 Co138 2.039 . S
O149 C139 1.265 . S
C150 O146 1.253 . S
C150 O151 1.227 . S
O151 C150 1.227 . S
N152 Co138 2.140 . S
N152 C155 1.346 . S
N152 C156 1.345 . S
C153 C154 1.387 . S
C153 C157 1.391 1_554 S
C154 C153 1.387 . S
C154 C155 1.369 1_554 S
C154 H163 0.929 . S
C155 N152 1.346 . S
C155 C154 1.369 1_556 S
C155 H158 0.928 . S
C156 N152 1.345 . S
C156 C157 1.371 . S
C156 H159 0.931 . S
C157 C153 1.391 1_556 S
C157 C156 1.371 . S
C157 H164 0.930 . S
H158 C155 0.928 . S
H159 C156 0.931 . S
H160 C136 0.930 . S
H161 C133 0.930 . S
H162 C142 0.930 . S
H163 C154 0.929 . S
H164 C157 0.930 . S
C165 C166 1.351 . S
C165 N168 1.368 . S
C165 H170 0.931 . S
C166 C165 1.351 . S
C166 N167 1.373 . S
C166 H194 0.930 . S
N167 C166 1.373 . S
N167 C169 1.340 . S
N168 C165 1.368 . S
N168 C169 1.321 . S
N168 Co171 2.135 . S
C169 N167 1.340 . S
C169 N168 1.321 . S
C169 H193 0.930 . S
H170 C165 0.931 . S
Co171 N168 2.135 . S
Co171 N174 2.121 . S
Co171 O179 2.055 . S
Co171 O182 2.039 . S
Co171 N185 2.140 . S
C172 O173 1.227 . S
C172 O182 1.265 . S
O173 C172 1.227 . S
N174 Co171 2.121 . S
N174 C176 1.375 . S
N174 C177 1.313 . S
C175 C176 1.338 . S
C175 N178 1.377 . S
C175 H195 0.930 . S
C176 N174 1.375 . S
C176 C175 1.338 . S
C176 H180 0.931 . S
C177 N174 1.313 . S
C177 N178 1.344 . S
C177 H181 0.930 . S
N178 C175 1.377 . S
N178 C177 1.344 . S
O179 Co171 2.055 . S
O179 C183 1.253 . S
H180 C176 0.931 . S
H181 C177 0.930 . S
O182 Co171 2.039 . S
O182 C172 1.265 . S
C183 O179 1.253 . S
C183 O184 1.227 . S
O184 C183 1.227 . S
N185 Co171 2.140 . S
N185 C188 1.346 . S
N185 C189 1.345 . S
C186 C187 1.387 . S
C186 C190 1.391 . S
C187 C186 1.387 . S
C187 C188 1.369 . S
C187 H196 0.929 . S
C188 N185 1.346 . S
C188 C187 1.369 . S
C188 H191 0.928 . S
C189 N185 1.345 . S
C189 C190 1.371 . S
C189 H192 0.931 . S
C190 C186 1.391 . S
C190 C189 1.371 . S
C190 H197 0.930 . S
H191 C188 0.928 . S
H192 C189 0.931 . S
H193 C169 0.930 . S
H194 C166 0.930 . S
H195 C175 0.930 . S
H196 C187 0.929 . S
H197 C190 0.930 . S
C198 C199 1.351 . S
C198 N201 1.368 . S
C198 H203 0.931 . S
C199 C198 1.351 . S
C199 N200 1.373 . S
C199 H227 0.930 . S
N200 C199 1.373 . S
N200 C202 1.340 . S
N201 C198 1.368 . S
N201 C202 1.321 . S
N201 Co204 2.135 . S
C202 N200 1.340 . S
C202 N201 1.321 . S
C202 H226 0.930 . S
H203 C198 0.931 . S
Co204 N201 2.135 . S
Co204 N207 2.121 . S
Co204 O212 2.055 . S
Co204 O215 2.039 . S
Co204 N218 2.140 . S
C205 O206 1.227 . S
C205 O215 1.265 . S
O206 C205 1.227 . S
N207 Co204 2.121 . S
N207 C209 1.375 . S
N207 C210 1.313 . S
C208 C209 1.338 . S
C208 N211 1.377 . S
C208 H228 0.930 . S
C209 N207 1.375 . S
C209 C208 1.338 . S
C209 H213 0.931 . S
C210 N207 1.313 . S
C210 N211 1.344 . S
C210 H214 0.930 . S
N211 C208 1.377 . S
N211 C210 1.344 . S
O212 Co204 2.055 . S
O212 C216 1.253 . S
H213 C209 0.931 . S
H214 C210 0.930 . S
O215 Co204 2.039 . S
O215 C205 1.265 . S
C216 O212 1.253 . S
C216 O217 1.227 . S
O217 C216 1.227 . S
N218 Co204 2.140 . S
N218 C221 1.346 . S
N218 C222 1.345 . S
C219 C220 1.387 . S
C219 C223 1.391 1_556 S
C220 C219 1.387 . S
C220 C221 1.369 1_556 S
C220 H229 0.929 . S
C221 N218 1.346 . S
C221 C220 1.369 1_554 S
C221 H224 0.928 . S
C222 N218 1.345 . S
C222 C223 1.371 . S
C222 H225 0.931 . S
C223 C219 1.391 1_554 S
C223 C222 1.371 . S
C223 H230 0.930 . S
H224 C221 0.928 . S
H225 C222 0.931 . S
H226 C202 0.930 . S
H227 C199 0.930 . S
H228 C208 0.930 . S
H229 C220 0.929 . S
H230 C223 0.930 . S
C231 C232 1.351 . S
C231 N234 1.368 . S
C231 H236 0.931 . S
C232 C231 1.351 . S
C232 N233 1.373 . S
C232 H260 0.930 . S
N233 C232 1.373 . S
N233 C235 1.340 . S
N234 C231 1.368 . S
N234 C235 1.321 . S
N234 Co237 2.135 . S
C235 N233 1.340 . S
C235 N234 1.321 . S
C235 H259 0.930 . S
H236 C231 0.931 . S
Co237 N234 2.135 . S
Co237 N240 2.121 . S
Co237 O245 2.055 . S
Co237 O248 2.039 . S
Co237 N251 2.140 . S
C238 O239 1.227 . S
C238 O248 1.265 . S
O239 C238 1.227 . S
N240 Co237 2.121 . S
N240 C242 1.375 . S
N240 C243 1.313 . S
C241 C242 1.338 . S
C241 N244 1.377 . S
C241 H261 0.930 . S
C242 N240 1.375 . S
C242 C241 1.338 . S
C242 H246 0.931 . S
C243 N240 1.313 . S
C243 N244 1.344 . S
C243 H247 0.930 . S
N244 C241 1.377 . S
N244 C243 1.344 . S
O245 Co237 2.055 . S
O245 C249 1.253 . S
H246 C242 0.931 . S
H247 C243 0.930 . S
O248 Co237 2.039 . S
O248 C238 1.265 . S
C249 O245 1.253 . S
C249 O250 1.227 . S
O250 C249 1.227 . S
N251 Co237 2.140 . S
N251 C254 1.346 . S
N251 C255 1.345 . S
C252 C253 1.387 . S
C252 C256 1.391 . S
C253 C252 1.387 . S
C253 C254 1.369 . S
C253 H262 0.929 . S
C254 N251 1.346 . S
C254 C253 1.369 . S
C254 H257 0.928 . S
C255 N251 1.345 . S
C255 C256 1.371 . S
C255 H258 0.931 . S
C256 C252 1.391 . S
C256 C255 1.371 . S
C256 H263 0.930 . S
H257 C254 0.928 . S
H258 C255 0.931 . S
H259 C235 0.930 . S
H260 C232 0.930 . S
H261 C241 0.930 . S
H262 C253 0.929 . S
H263 C256 0.930 . S
C264 C265 1.351 . S
C264 N267 1.368 . S
C264 H269 0.931 . S
C265 C264 1.351 . S
C265 N266 1.373 . S
C265 H293 0.930 . S
N266 C265 1.373 . S
N266 C268 1.340 . S
N267 C264 1.368 . S
N267 C268 1.321 . S
N267 Co270 2.135 . S
C268 N266 1.340 . S
C268 N267 1.321 . S
C268 H292 0.930 . S
H269 C264 0.931 . S
Co270 N267 2.135 . S
Co270 N273 2.121 . S
Co270 O278 2.055 . S
Co270 O281 2.039 . S
Co270 N284 2.140 . S
C271 O272 1.227 . S
C271 O281 1.265 . S
O272 C271 1.227 . S
N273 Co270 2.121 . S
N273 C275 1.375 . S
N273 C276 1.313 . S
C274 C275 1.338 . S
C274 N277 1.377 . S
C274 H294 0.930 . S
C275 N273 1.375 . S
C275 C274 1.338 . S
C275 H279 0.931 . S
C276 N273 1.313 . S
C276 N277 1.344 . S
C276 H280 0.930 . S
N277 C274 1.377 . S
N277 C276 1.344 . S
O278 Co270 2.055 . S
O278 C282 1.253 . S
H279 C275 0.931 . S
H280 C276 0.930 . S
O281 Co270 2.039 . S
O281 C271 1.265 . S
C282 O278 1.253 . S
C282 O283 1.227 . S
O283 C282 1.227 . S
N284 Co270 2.140 . S
N284 C287 1.346 . S
N284 C288 1.345 . S
C285 C286 1.387 . S
C285 C289 1.391 1_556 S
C286 C285 1.387 . S
C286 C287 1.369 1_556 S
C286 H295 0.929 . S
C287 N284 1.346 . S
C287 C286 1.369 1_554 S
C287 H290 0.928 . S
C288 N284 1.345 . S
C288 C289 1.371 . S
C288 H291 0.931 . S
C289 C285 1.391 1_554 S
C289 C288 1.371 . S
C289 H296 0.930 . S
H290 C287 0.928 . S
H291 C288 0.931 . S
H292 C268 0.930 . S
H293 C265 0.930 . S
H294 C274 0.930 . S
H295 C286 0.929 . S
H296 C289 0.930 . S
C297 C298 1.351 . S
C297 N300 1.368 . S
C297 H302 0.931 . S
C298 C297 1.351 . S
C298 N299 1.373 . S
C298 H326 0.930 . S
N299 C298 1.373 . S
N299 C301 1.340 . S
N300 C297 1.368 . S
N300 C301 1.321 . S
N300 Co303 2.135 . S
C301 N299 1.340 . S
C301 N300 1.321 . S
C301 H325 0.930 . S
H302 C297 0.931 . S
Co303 N300 2.135 . S
Co303 N306 2.121 . S
Co303 O311 2.055 . S
Co303 O314 2.039 . S
Co303 N317 2.140 . S
C304 O305 1.227 . S
C304 O314 1.265 . S
O305 C304 1.227 . S
N306 Co303 2.121 . S
N306 C308 1.375 . S
N306 C309 1.313 . S
C307 C308 1.338 . S
C307 N310 1.377 . S
C307 H327 0.930 . S
C308 N306 1.375 . S
C308 C307 1.338 . S
C308 H312 0.931 . S
C309 N306 1.313 . S
C309 N310 1.344 . S
C309 H313 0.930 . S
N310 C307 1.377 . S
N310 C309 1.344 . S
O311 Co303 2.055 . S
O311 C315 1.253 . S
H312 C308 0.931 . S
H313 C309 0.930 . S
O314 Co303 2.039 . S
O314 C304 1.265 . S
C315 O311 1.253 . S
C315 O316 1.227 . S
O316 C315 1.227 . S
N317 Co303 2.140 . S
N317 C320 1.346 . S
N317 C321 1.345 . S
C318 C319 1.387 . S
C318 C322 1.391 . S
C319 C318 1.387 . S
C319 C320 1.369 . S
C319 H328 0.929 . S
C320 N317 1.346 . S
C320 C319 1.369 . S
C320 H323 0.928 . S
C321 N317 1.345 . S
C321 C322 1.371 . S
C321 H324 0.931 . S
C322 C318 1.391 . S
C322 C321 1.371 . S
C322 H329 0.930 . S
H323 C320 0.928 . S
H324 C321 0.931 . S
H325 C301 0.930 . S
H326 C298 0.930 . S
H327 C307 0.930 . S
H328 C319 0.929 . S
H329 C322 0.930 . S
C330 C331 1.351 . S
C330 N333 1.368 . S
C330 H335 0.931 . S
C331 C330 1.351 . S
C331 N332 1.373 . S
C331 H359 0.930 . S
N332 C331 1.373 . S
N332 C334 1.340 . S
N333 C330 1.368 . S
N333 C334 1.321 . S
N333 Co336 2.135 . S
C334 N332 1.340 . S
C334 N333 1.321 . S
C334 H358 0.930 . S
H335 C330 0.931 . S
Co336 N333 2.135 . S
Co336 N339 2.121 . S
Co336 O344 2.055 . S
Co336 O347 2.039 . S
Co336 N350 2.140 . S
C337 O338 1.227 . S
C337 O347 1.265 . S
O338 C337 1.227 . S
N339 Co336 2.121 . S
N339 C341 1.375 . S
N339 C342 1.313 . S
C340 C341 1.338 . S
C340 N343 1.377 . S
C340 H360 0.930 . S
C341 N339 1.375 . S
C341 C340 1.338 . S
C341 H345 0.931 . S
C342 N339 1.313 . S
C342 N343 1.344 . S
C342 H346 0.930 . S
N343 C340 1.377 . S
N343 C342 1.344 . S
O344 Co336 2.055 . S
O344 C348 1.253 . S
H345 C341 0.931 . S
H346 C342 0.930 . S
O347 Co336 2.039 . S
O347 C337 1.265 . S
C348 O344 1.253 . S
C348 O349 1.227 . S
O349 C348 1.227 . S
N350 Co336 2.140 . S
N350 C353 1.346 . S
N350 C354 1.345 . S
C351 C352 1.387 . S
C351 C355 1.391 1_554 S
C352 C351 1.387 . S
C352 C353 1.369 1_554 S
C352 H361 0.929 . S
C353 N350 1.346 . S
C353 C352 1.369 1_556 S
C353 H356 0.928 . S
C354 N350 1.345 . S
C354 C355 1.371 . S
C354 H357 0.931 . S
C355 C351 1.391 1_556 S
C355 C354 1.371 . S
C355 H362 0.930 . S
H356 C353 0.928 . S
H357 C354 0.931 . S
H358 C334 0.930 . S
H359 C331 0.930 . S
H360 C340 0.930 . S
H361 C352 0.929 . S
H362 C355 0.930 . S
C363 C364 1.351 . S
C363 N366 1.368 . S
C363 H368 0.931 . S
C364 C363 1.351 . S
C364 N365 1.373 . S
C364 H392 0.930 . S
N365 C364 1.373 . S
N365 C367 1.340 . S
N366 C363 1.368 . S
N366 C367 1.321 . S
N366 Co369 2.135 . S
C367 N365 1.340 . S
C367 N366 1.321 . S
C367 H391 0.930 . S
H368 C363 0.931 . S
Co369 N366 2.135 . S
Co369 N372 2.121 . S
Co369 O377 2.055 . S
Co369 O380 2.039 . S
Co369 N383 2.140 . S
C370 O371 1.227 . S
C370 O380 1.265 . S
O371 C370 1.227 . S
N372 Co369 2.121 . S
N372 C374 1.375 . S
N372 C375 1.313 . S
C373 C374 1.338 . S
C373 N376 1.377 . S
C373 H393 0.930 . S
C374 N372 1.375 . S
C374 C373 1.338 . S
C374 H378 0.931 . S
C375 N372 1.313 . S
C375 N376 1.344 . S
C375 H379 0.930 . S
N376 C373 1.377 . S
N376 C375 1.344 . S
O377 Co369 2.055 . S
O377 C381 1.253 . S
H378 C374 0.931 . S
H379 C375 0.930 . S
O380 Co369 2.039 . S
O380 C370 1.265 . S
C381 O377 1.253 . S
C381 O382 1.227 . S
O382 C381 1.227 . S
N383 Co369 2.140 . S
N383 C386 1.346 . S
N383 C387 1.345 . S
C384 C385 1.387 . S
C384 C388 1.391 . S
C385 C384 1.387 . S
C385 C386 1.369 . S
C385 H394 0.929 . S
C386 N383 1.346 . S
C386 C385 1.369 . S
C386 H389 0.928 . S
C387 N383 1.345 . S
C387 C388 1.371 . S
C387 H390 0.931 . S
C388 C384 1.391 . S
C388 C387 1.371 . S
C388 H395 0.930 . S
H389 C386 0.928 . S
H390 C387 0.931 . S
H391 C367 0.930 . S
H392 C364 0.930 . S
H393 C373 0.930 . S
H394 C385 0.929 . S
H395 C388 0.930 . S
C396 C397 1.351 . S
C396 N399 1.368 . S
C396 H401 0.931 . S
C397 C396 1.351 . S
C397 N398 1.373 . S
C397 H425 0.930 . S
N398 C397 1.373 . S
N398 C400 1.340 . S
N399 C396 1.368 . S
N399 C400 1.321 . S
N399 Co402 2.135 . S
C400 N398 1.340 . S
C400 N399 1.321 . S
C400 H424 0.930 . S
H401 C396 0.931 . S
Co402 N399 2.135 . S
Co402 N405 2.121 . S
Co402 O410 2.055 . S
Co402 O413 2.039 . S
Co402 N416 2.140 . S
C403 O404 1.227 . S
C403 O413 1.265 . S
O404 C403 1.227 . S
N405 Co402 2.121 . S
N405 C407 1.375 . S
N405 C408 1.313 . S
C406 C407 1.338 . S
C406 N409 1.377 . S
C406 H426 0.930 . S
C407 N405 1.375 . S
C407 C406 1.338 . S
C407 H411 0.931 . S
C408 N405 1.313 . S
C408 N409 1.344 . S
C408 H412 0.930 . S
N409 C406 1.377 . S
N409 C408 1.344 . S
O410 Co402 2.055 . S
O410 C414 1.253 . S
H411 C407 0.931 . S
H412 C408 0.930 . S
O413 Co402 2.039 . S
O413 C403 1.265 . S
C414 O410 1.253 . S
C414 O415 1.227 . S
O415 C414 1.227 . S
N416 Co402 2.140 . S
N416 C419 1.346 . S
N416 C420 1.345 . S
C417 C418 1.387 . S
C417 C421 1.391 1_554 S
C418 C417 1.387 . S
C418 C419 1.369 1_554 S
C418 H427 0.929 . S
C419 N416 1.346 . S
C419 C418 1.369 1_556 S
C419 H422 0.928 . S
C420 N416 1.345 . S
C420 C421 1.371 . S
C420 H423 0.931 . S
C421 C417 1.391 1_556 S
C421 C420 1.371 . S
C421 H428 0.930 . S
H422 C419 0.928 . S
H423 C420 0.931 . S
H424 C400 0.930 . S
H425 C397 0.930 . S
H426 C406 0.930 . S
H427 C418 0.929 . S
H428 C421 0.930 . S
C429 C430 1.351 . S
C429 N432 1.368 . S
C429 H434 0.931 . S
C430 C429 1.351 . S
C430 N431 1.373 . S
C430 H458 0.930 . S
N431 C430 1.373 . S
N431 C433 1.340 . S
N432 C429 1.368 . S
N432 C433 1.321 . S
N432 Co435 2.135 . S
C433 N431 1.340 . S
C433 N432 1.321 . S
C433 H457 0.930 . S
H434 C429 0.931 . S
Co435 N432 2.135 . S
Co435 N438 2.121 . S
Co435 O443 2.055 . S
Co435 O446 2.039 . S
Co435 N449 2.140 . S
C436 O437 1.227 . S
C436 O446 1.265 . S
O437 C436 1.227 . S
N438 Co435 2.121 . S
N438 C440 1.375 . S
N438 C441 1.313 . S
C439 C440 1.338 . S
C439 N442 1.377 . S
C439 H459 0.930 . S
C440 N438 1.375 . S
C440 C439 1.338 . S
C440 H444 0.931 . S
C441 N438 1.313 . S
C441 N442 1.344 . S
C441 H445 0.930 . S
N442 C439 1.377 . S
N442 C441 1.344 . S
O443 Co435 2.055 . S
O443 C447 1.253 . S
H444 C440 0.931 . S
H445 C441 0.930 . S
O446 Co435 2.039 . S
O446 C436 1.265 . S
C447 O443 1.253 . S
C447 O448 1.227 . S
O448 C447 1.227 . S
N449 Co435 2.140 . S
N449 C452 1.346 . S
N449 C453 1.345 . S
C450 C451 1.387 . S
C450 C454 1.391 . S
C451 C450 1.387 . S
C451 C452 1.369 . S
C451 H460 0.929 . S
C452 N449 1.346 . S
C452 C451 1.369 . S
C452 H455 0.928 . S
C453 N449 1.345 . S
C453 C454 1.371 . S
C453 H456 0.931 . S
C454 C450 1.391 . S
C454 C453 1.371 . S
C454 H461 0.930 . S
H455 C452 0.928 . S
H456 C453 0.931 . S
H457 C433 0.930 . S
H458 C430 0.930 . S
H459 C439 0.930 . S
H460 C451 0.929 . S
H461 C454 0.930 . S
C462 C463 1.351 . S
C462 N465 1.368 . S
C462 H467 0.931 . S
C463 C462 1.351 . S
C463 N464 1.373 . S
C463 H491 0.930 . S
N464 C463 1.373 . S
N464 C466 1.340 . S
N465 C462 1.368 . S
N465 C466 1.321 . S
N465 Co468 2.135 . S
C466 N464 1.340 . S
C466 N465 1.321 . S
C466 H490 0.930 . S
H467 C462 0.931 . S
Co468 N465 2.135 . S
Co468 N471 2.121 . S
Co468 O476 2.055 . S
Co468 O479 2.039 . S
Co468 N482 2.140 . S
C469 O470 1.227 . S
C469 O479 1.265 . S
O470 C469 1.227 . S
N471 Co468 2.121 . S
N471 C473 1.375 . S
N471 C474 1.313 . S
C472 C473 1.338 . S
C472 N475 1.377 . S
C472 H492 0.930 . S
C473 N471 1.375 . S
C473 C472 1.338 . S
C473 H477 0.931 . S
C474 N471 1.313 . S
C474 N475 1.344 . S
C474 H478 0.930 . S
N475 C472 1.377 . S
N475 C474 1.344 . S
O476 Co468 2.055 . S
O476 C480 1.253 . S
H477 C473 0.931 . S
H478 C474 0.930 . S
O479 Co468 2.039 . S
O479 C469 1.265 . S
C480 O476 1.253 . S
C480 O481 1.227 . S
O481 C480 1.227 . S
N482 Co468 2.140 . S
N482 C485 1.346 . S
N482 C486 1.345 . S
C483 C484 1.387 . S
C483 C487 1.391 1_556 S
C484 C483 1.387 . S
C484 C485 1.369 1_556 S
C484 H493 0.929 . S
C485 N482 1.346 . S
C485 C484 1.369 1_554 S
C485 H488 0.928 . S
C486 N482 1.345 . S
C486 C487 1.371 . S
C486 H489 0.931 . S
C487 C483 1.391 1_554 S
C487 C486 1.371 . S
C487 H494 0.930 . S
H488 C485 0.928 . S
H489 C486 0.931 . S
H490 C466 0.930 . S
H491 C463 0.930 . S
H492 C472 0.930 . S
H493 C484 0.929 . S
H494 C487 0.930 . S
C495 C496 1.351 . S
C495 N498 1.368 . S
C495 H500 0.931 . S
C496 C495 1.351 . S
C496 N497 1.373 . S
C496 H524 0.930 . S
N497 C496 1.373 . S
N497 C499 1.340 . S
N498 C495 1.368 . S
N498 C499 1.321 . S
N498 Co501 2.135 . S
C499 N497 1.340 . S
C499 N498 1.321 . S
C499 H523 0.930 . S
H500 C495 0.931 . S
Co501 N498 2.135 . S
Co501 N504 2.121 . S
Co501 O509 2.055 . S
Co501 O512 2.039 . S
Co501 N515 2.140 . S
C502 O503 1.227 . S
C502 O512 1.265 . S
O503 C502 1.227 . S
N504 Co501 2.121 . S
N504 C506 1.375 . S
N504 C507 1.313 . S
C505 C506 1.338 . S
C505 N508 1.377 . S
C505 H525 0.930 . S
C506 N504 1.375 . S
C506 C505 1.338 . S
C506 H510 0.931 . S
C507 N504 1.313 . S
C507 N508 1.344 . S
C507 H511 0.930 . S
N508 C505 1.377 . S
N508 C507 1.344 . S
O509 Co501 2.055 . S
O509 C513 1.253 . S
H510 C506 0.931 . S
H511 C507 0.930 . S
O512 Co501 2.039 . S
O512 C502 1.265 . S
C513 O509 1.253 . S
C513 O514 1.227 . S
O514 C513 1.227 . S
N515 Co501 2.140 . S
N515 C518 1.346 . S
N515 C519 1.345 . S
C516 C517 1.387 . S
C516 C520 1.391 . S
C517 C516 1.387 . S
C517 C518 1.369 . S
C517 H526 0.929 . S
C518 N515 1.346 . S
C518 C517 1.369 . S
C518 H521 0.928 . S
C519 N515 1.345 . S
C519 C520 1.371 . S
C519 H522 0.931 . S
C520 C516 1.391 . S
C520 C519 1.371 . S
C520 H527 0.930 . S
H521 C518 0.928 . S
H522 C519 0.931 . S
H523 C499 0.930 . S
H524 C496 0.930 . S
H525 C505 0.930 . S
H526 C517 0.929 . S
H527 C520 0.930 . S
H528 C534 0.930 . S
H529 C538 0.930 . S
H530 C543 0.929 . S
H531 C541 0.929 . S
H532 C536 0.929 . S
H533 C542 0.929 . S
C534 H528 0.930 . S
C534 C535 1.367 . S
C534 C542 1.378 . S
C535 C534 1.367 . S
C535 C543 1.433 . S
C536 H532 0.929 . S
C536 C538 1.378 . S
C536 C540 1.350 . S
C537 C540 1.463 . S
C537 C542 1.350 . S
C537 N545 1.427 . S
C538 H529 0.930 . S
C538 C536 1.378 . S
C538 C539 1.367 . S
C539 C538 1.367 . S
C539 C541 1.433 . S
C540 C536 1.350 . S
C540 C537 1.463 . S
C540 N544 1.427 . S
C541 H531 0.929 . S
C541 C539 1.433 . S
C541 N544 1.384 . S
C542 H533 0.929 . S
C542 C534 1.378 . S
C542 C537 1.350 . S
C543 H530 0.929 . S
C543 C535 1.433 . S
C543 N545 1.384 . S
N544 C540 1.427 . S
N544 C541 1.384 . S
N545 C537 1.427 . S
N545 C543 1.384 . S
H546 C552 0.930 . S
H547 C556 0.930 . S
H548 C561 0.929 . S
H549 C559 0.929 . S
H550 C554 0.929 . S
H551 C560 0.929 . S
C552 H546 0.930 . S
C552 C553 1.367 . S
C552 C560 1.378 . S
C553 C552 1.367 . S
C553 C561 1.433 . S
C554 H550 0.929 . S
C554 C556 1.378 . S
C554 C558 1.350 . S
C555 C558 1.463 . S
C555 C560 1.350 . S
C555 N563 1.427 . S
C556 H547 0.930 . S
C556 C554 1.378 . S
C556 C557 1.367 . S
C557 C556 1.367 . S
C557 C559 1.433 . S
C558 C554 1.350 . S
C558 C555 1.463 . S
C558 N562 1.427 . S
C559 H549 0.929 . S
C559 C557 1.433 . S
C559 N562 1.384 . S
C560 H551 0.929 . S
C560 C552 1.378 . S
C560 C555 1.350 . S
C561 H548 0.929 . S
C561 C553 1.433 . S
C561 N563 1.384 . S
N562 C558 1.427 . S
N562 C559 1.384 . S
N563 C555 1.427 . S
N563 C561 1.384 . S
H564 C570 0.930 . S
H565 C574 0.930 . S
H566 C579 0.929 . S
H567 C577 0.929 . S
H568 C572 0.929 . S
H569 C578 0.929 . S
C570 H564 0.930 . S
C570 C571 1.367 . S
C570 C578 1.378 . S
C571 C570 1.367 . S
C571 C579 1.433 . S
C572 H568 0.929 . S
C572 C574 1.378 . S
C572 C576 1.350 . S
C573 C576 1.463 . S
C573 C578 1.350 . S
C573 N581 1.427 . S
C574 H565 0.930 . S
C574 C572 1.378 . S
C574 C575 1.367 . S
C575 C574 1.367 . S
C575 C577 1.433 . S
C576 C572 1.350 . S
C576 C573 1.463 . S
C576 N580 1.427 . S
C577 H567 0.929 . S
C577 C575 1.433 . S
C577 N580 1.384 . S
C578 H569 0.929 . S
C578 C570 1.378 . S
C578 C573 1.350 . S
C579 H566 0.929 . S
C579 C571 1.433 . S
C579 N581 1.384 . S
N580 C576 1.427 . S
N580 C577 1.384 . S
N581 C573 1.427 . S
N581 C579 1.384 . S
H582 C588 0.930 . S
H583 C592 0.930 . S
H584 C597 0.929 . S
H585 C595 0.929 . S
H586 C590 0.929 . S
H587 C596 0.929 . S
C588 H582 0.930 . S
C588 C589 1.367 . S
C588 C596 1.378 . S
C589 C588 1.367 . S
C589 C597 1.433 . S
C590 H586 0.929 . S
C590 C592 1.378 . S
C590 C594 1.350 . S
C591 C594 1.463 . S
C591 C596 1.350 . S
C591 N599 1.427 . S
C592 H583 0.930 . S
C592 C590 1.378 . S
C592 C593 1.367 . S
C593 C592 1.367 . S
C593 C595 1.433 . S
C594 C590 1.350 . S
C594 C591 1.463 . S
C594 N598 1.427 . S
C595 H585 0.929 . S
C595 C593 1.433 . S
C595 N598 1.384 . S
C596 H587 0.929 . S
C596 C588 1.378 . S
C596 C591 1.350 . S
C597 H584 0.929 . S
C597 C589 1.433 . S
C597 N599 1.384 . S
N598 C594 1.427 . S
N598 C595 1.384 . S
N599 C591 1.427 . S
N599 C597 1.384 . S
H600 C606 0.930 . S
H601 C610 0.930 . S
H602 C615 0.929 . S
H603 C613 0.929 . S
H604 C608 0.929 . S
H605 C614 0.929 . S
C606 H600 0.930 . S
C606 C607 1.367 . S
C606 C614 1.378 . S
C607 C606 1.367 . S
C607 C615 1.433 . S
C608 H604 0.929 . S
C608 C610 1.378 . S
C608 C612 1.350 . S
C609 C612 1.463 . S
C609 C614 1.350 . S
C609 N617 1.427 . S
C610 H601 0.930 . S
C610 C608 1.378 . S
C610 C611 1.367 . S
C611 C610 1.367 . S
C611 C613 1.433 . S
C612 C608 1.350 . S
C612 C609 1.463 . S
C612 N616 1.427 . S
C613 H603 0.929 . S
C613 C611 1.433 . S
C613 N616 1.384 . S
C614 H605 0.929 . S
C614 C606 1.378 . S
C614 C609 1.350 . S
C615 H602 0.929 . S
C615 C607 1.433 . S
C615 N617 1.384 . S
N616 C612 1.427 . S
N616 C613 1.384 . S
N617 C609 1.427 . S
N617 C615 1.384 . S
H618 C624 0.930 . S
H619 C628 0.930 . S
H620 C633 0.929 . S
H621 C631 0.929 . S
H622 C626 0.929 . S
H623 C632 0.929 . S
C624 H618 0.930 . S
C624 C625 1.367 . S
C624 C632 1.378 . S
C625 C624 1.367 . S
C625 C633 1.433 . S
C626 H622 0.929 . S
C626 C628 1.378 . S
C626 C630 1.350 . S
C627 C630 1.463 . S
C627 C632 1.350 . S
C627 N635 1.427 . S
C628 H619 0.930 . S
C628 C626 1.378 . S
C628 C629 1.367 . S
C629 C628 1.367 . S
C629 C631 1.433 . S
C630 C626 1.350 . S
C630 C627 1.463 . S
C630 N634 1.427 . S
C631 H621 0.929 . S
C631 C629 1.433 . S
C631 N634 1.384 . S
C632 H623 0.929 . S
C632 C624 1.378 . S
C632 C627 1.350 . S
C633 H620 0.929 . S
C633 C625 1.433 . S
C633 N635 1.384 . S
N634 C630 1.427 . S
N634 C631 1.384 . S
N635 C627 1.427 . S
N635 C633 1.384 . S
H636 C642 0.930 . S
H637 C646 0.930 . S
H638 C651 0.929 . S
H639 C649 0.929 . S
H640 C644 0.929 . S
H641 C650 0.929 . S
C642 H636 0.930 . S
C642 C643 1.367 . S
C642 C650 1.378 . S
C643 C642 1.367 . S
C643 C651 1.433 . S
C644 H640 0.929 . S
C644 C646 1.378 . S
C644 C648 1.350 . S
C645 C648 1.463 . S
C645 C650 1.350 . S
C645 N653 1.427 . S
C646 H637 0.930 . S
C646 C644 1.378 . S
C646 C647 1.367 . S
C647 C646 1.367 . S
C647 C649 1.433 . S
C648 C644 1.350 . S
C648 C645 1.463 . S
C648 N652 1.427 . S
C649 H639 0.929 . S
C649 C647 1.433 . S
C649 N652 1.384 . S
C650 H641 0.929 . S
C650 C642 1.378 . S
C650 C645 1.350 . S
C651 H638 0.929 . S
C651 C643 1.433 . S
C651 N653 1.384 . S
N652 C648 1.427 . S
N652 C649 1.384 . S
N653 C645 1.427 . S
N653 C651 1.384 . S
H654 C660 0.930 . S
H655 C664 0.930 . S
H656 C669 0.929 . S
H657 C667 0.929 . S
H658 C662 0.929 . S
H659 C668 0.929 . S
C660 H654 0.930 . S
C660 C661 1.367 . S
C660 C668 1.378 . S
C661 C660 1.367 . S
C661 C669 1.433 . S
C662 H658 0.929 . S
C662 C664 1.378 . S
C662 C666 1.350 . S
C663 C666 1.463 . S
C663 C668 1.350 . S
C663 N671 1.427 . S
C664 H655 0.930 . S
C664 C662 1.378 . S
C664 C665 1.367 . S
C665 C664 1.367 . S
C665 C667 1.433 . S
C666 C662 1.350 . S
C666 C663 1.463 . S
C666 N670 1.427 . S
C667 H657 0.929 . S
C667 C665 1.433 . S
C667 N670 1.384 . S
C668 H659 0.929 . S
C668 C660 1.378 . S
C668 C663 1.350 . S
C669 H656 0.929 . S
C669 C661 1.433 . S
C669 N671 1.384 . S
N670 C666 1.427 . S
N670 C667 1.384 . S
N671 C663 1.427 . S
N671 C669 1.384 . S
H672 C678 0.930 . S
H673 C682 0.930 . S
H674 C687 0.929 . S
H675 C685 0.929 . S
H676 C680 0.929 . S
H677 C686 0.929 . S
C678 H672 0.930 . S
C678 C679 1.367 . S
C678 C686 1.378 . S
C679 C678 1.367 . S
C679 C687 1.433 . S
C680 H676 0.929 . S
C680 C682 1.378 . S
C680 C684 1.350 . S
C681 C684 1.463 1_655 S
C681 C686 1.350 . S
C681 N689 1.427 . S
C682 H673 0.930 . S
C682 C680 1.378 . S
C682 C683 1.367 . S
C683 C682 1.367 . S
C683 C685 1.433 . S
C684 C680 1.350 . S
C684 C681 1.463 1_455 S
C684 N688 1.427 . S
C685 H675 0.929 . S
C685 C683 1.433 . S
C685 N688 1.384 . S
C686 H677 0.929 . S
C686 C678 1.378 . S
C686 C681 1.350 . S
C687 H674 0.929 . S
C687 C679 1.433 . S
C687 N689 1.384 . S
N688 C684 1.427 . S
N688 C685 1.384 . S
N689 C681 1.427 . S
N689 C687 1.384 . S
H690 C696 0.930 . S
H691 C700 0.930 . S
H692 C705 0.929 . S
H693 C703 0.929 . S
H694 C698 0.929 . S
H695 C704 0.929 . S
C696 H690 0.930 . S
C696 C697 1.367 . S
C696 C704 1.378 . S
C697 C696 1.367 . S
C697 C705 1.433 . S
C698 H694 0.929 . S
C698 C700 1.378 . S
C698 C702 1.350 . S
C699 C702 1.463 . S
C699 C704 1.350 . S
C699 N707 1.427 . S
C700 H691 0.930 . S
C700 C698 1.378 . S
C700 C701 1.367 . S
C701 C700 1.367 . S
C701 C703 1.433 . S
C702 C698 1.350 . S
C702 C699 1.463 . S
C702 N706 1.427 . S
C703 H693 0.929 . S
C703 C701 1.433 . S
C703 N706 1.384 . S
C704 H695 0.929 . S
C704 C696 1.378 . S
C704 C699 1.350 . S
C705 H692 0.929 . S
C705 C697 1.433 . S
C705 N707 1.384 . S
N706 C702 1.427 . S
N706 C703 1.384 . S
N707 C699 1.427 . S
N707 C705 1.384 . S
H708 C714 0.930 . S
H709 C718 0.930 . S
H710 C723 0.929 . S
H711 C721 0.929 . S
H712 C716 0.929 . S
H713 C722 0.929 . S
C714 H708 0.930 . S
C714 C715 1.367 . S
C714 C722 1.378 . S
C715 C714 1.367 . S
C715 C723 1.433 . S
C716 H712 0.929 . S
C716 C718 1.378 . S
C716 C720 1.350 . S
C717 C720 1.463 1_655 S
C717 C722 1.350 . S
C717 N725 1.427 . S
C718 H709 0.930 . S
C718 C716 1.378 . S
C718 C719 1.367 . S
C719 C718 1.367 . S
C719 C721 1.433 . S
C720 C716 1.350 . S
C720 C717 1.463 1_455 S
C720 N724 1.427 . S
C721 H711 0.929 . S
C721 C719 1.433 . S
C721 N724 1.384 . S
C722 H713 0.929 . S
C722 C714 1.378 . S
C722 C717 1.350 . S
C723 H710 0.929 . S
C723 C715 1.433 . S
C723 N725 1.384 . S
N724 C720 1.427 . S
N724 C721 1.384 . S
N725 C717 1.427 . S
N725 C723 1.384 . S
H726 C732 0.930 . S
H727 C736 0.930 . S
H728 C741 0.929 . S
H729 C739 0.929 . S
H730 C734 0.929 . S
H731 C740 0.929 . S
C732 H726 0.930 . S
C732 C733 1.367 . S
C732 C740 1.378 . S
C733 C732 1.367 . S
C733 C741 1.433 . S
C734 H730 0.929 . S
C734 C736 1.378 . S
C734 C738 1.350 . S
C735 C738 1.463 . S
C735 C740 1.350 . S
C735 N743 1.427 . S
C736 H727 0.930 . S
C736 C734 1.378 . S
C736 C737 1.367 . S
C737 C736 1.367 . S
C737 C739 1.433 . S
C738 C734 1.350 . S
C738 C735 1.463 . S
C738 N742 1.427 . S
C739 H729 0.929 . S
C739 C737 1.433 . S
C739 N742 1.384 . S
C740 H731 0.929 . S
C740 C732 1.378 . S
C740 C735 1.350 . S
C741 H728 0.929 . S
C741 C733 1.433 . S
C741 N743 1.384 . S
N742 C738 1.427 . S
N742 C739 1.384 . S
N743 C735 1.427 . S
N743 C741 1.384 . S
H744 C750 0.930 . S
H745 C754 0.930 . S
H746 C759 0.929 . S
H747 C757 0.929 . S
H748 C752 0.929 . S
H749 C758 0.929 . S
C750 H744 0.930 . S
C750 C751 1.367 . S
C750 C758 1.378 . S
C751 C750 1.367 . S
C751 C759 1.433 . S
C752 H748 0.929 . S
C752 C754 1.378 . S
C752 C756 1.350 . S
C753 C756 1.463 . S
C753 C758 1.350 . S
C753 N761 1.427 . S
C754 H745 0.930 . S
C754 C752 1.378 . S
C754 C755 1.367 . S
C755 C754 1.367 . S
C755 C757 1.433 . S
C756 C752 1.350 . S
C756 C753 1.463 . S
C756 N760 1.427 . S
C757 H747 0.929 . S
C757 C755 1.433 . S
C757 N760 1.384 . S
C758 H749 0.929 . S
C758 C750 1.378 . S
C758 C753 1.350 . S
C759 H746 0.929 . S
C759 C751 1.433 . S
C759 N761 1.384 . S
N760 C756 1.427 . S
N760 C757 1.384 . S
N761 C753 1.427 . S
N761 C759 1.384 . S
H762 C768 0.930 . S
H763 C772 0.930 . S
H764 C777 0.929 . S
H765 C775 0.929 . S
H766 C770 0.929 . S
H767 C776 0.929 . S
C768 H762 0.930 . S
C768 C769 1.367 . S
C768 C776 1.378 . S
C769 C768 1.367 . S
C769 C777 1.433 . S
C770 H766 0.929 . S
C770 C772 1.378 . S
C770 C774 1.350 . S
C771 C774 1.463 1_455 S
C771 C776 1.350 . S
C771 N779 1.427 . S
C772 H763 0.930 . S
C772 C770 1.378 . S
C772 C773 1.367 . S
C773 C772 1.367 . S
C773 C775 1.433 . S
C774 C770 1.350 . S
C774 C771 1.463 1_655 S
C774 N778 1.427 . S
C775 H765 0.929 . S
C775 C773 1.433 . S
C775 N778 1.384 . S
C776 H767 0.929 . S
C776 C768 1.378 . S
C776 C771 1.350 . S
C777 H764 0.929 . S
C777 C769 1.433 . S
C777 N779 1.384 . S
N778 C774 1.427 . S
N778 C775 1.384 . S
N779 C771 1.427 . S
N779 C777 1.384 . S
H780 C786 0.930 . S
H781 C790 0.930 . S
H782 C795 0.929 . S
H783 C793 0.929 . S
H784 C788 0.929 . S
H785 C794 0.929 . S
C786 H780 0.930 . S
C786 C787 1.367 . S
C786 C794 1.378 . S
C787 C786 1.367 . S
C787 C795 1.433 . S
C788 H784 0.929 . S
C788 C790 1.378 . S
C788 C792 1.350 . S
C789 C792 1.463 . S
C789 C794 1.350 . S
C789 N797 1.427 . S
C790 H781 0.930 . S
C790 C788 1.378 . S
C790 C791 1.367 . S
C791 C790 1.367 . S
C791 C793 1.433 . S
C792 C788 1.350 . S
C792 C789 1.463 . S
C792 N796 1.427 . S
C793 H783 0.929 . S
C793 C791 1.433 . S
C793 N796 1.384 . S
C794 H785 0.929 . S
C794 C786 1.378 . S
C794 C789 1.350 . S
C795 H782 0.929 . S
C795 C787 1.433 . S
C795 N797 1.384 . S
N796 C792 1.427 . S
N796 C793 1.384 . S
N797 C789 1.427 . S
N797 C795 1.384 . S
H798 C804 0.930 . S
H799 C808 0.930 . S
H800 C813 0.929 . S
H801 C811 0.929 . S
H802 C806 0.929 . S
H803 C812 0.929 . S
C804 H798 0.930 . S
C804 C805 1.367 . S
C804 C812 1.378 . S
C805 C804 1.367 . S
C805 C813 1.433 . S
C806 H802 0.929 . S
C806 C808 1.378 . S
C806 C810 1.350 . S
C807 C810 1.463 1_655 S
C807 C812 1.350 . S
C807 N815 1.427 . S
C808 H799 0.930 . S
C808 C806 1.378 . S
C808 C809 1.367 . S
C809 C808 1.367 . S
C809 C811 1.433 . S
C810 C806 1.350 . S
C810 C807 1.463 1_455 S
C810 N814 1.427 . S
C811 H801 0.929 . S
C811 C809 1.433 . S
C811 N814 1.384 . S
C812 H803 0.929 . S
C812 C804 1.378 . S
C812 C807 1.350 . S
C813 H800 0.929 . S
C813 C805 1.433 . S
C813 N815 1.384 . S
N814 C810 1.427 . S
N814 C811 1.384 . S
N815 C807 1.427 . S
N815 C813 1.384 . S
H816 C822 0.930 . S
H817 C826 0.930 . S
H818 C831 0.929 . S
H819 C829 0.929 . S
H820 C824 0.929 . S
H821 C830 0.929 . S
C822 H816 0.930 . S
C822 C823 1.367 . S
C822 C830 1.378 . S
C823 C822 1.367 . S
C823 C831 1.433 . S
C824 H820 0.929 . S
C824 C826 1.378 . S
C824 C828 1.350 . S
C825 C828 1.463 1_544 S
C825 C830 1.350 . S
C825 N833 1.427 . S
C826 H817 0.930 . S
C826 C824 1.378 . S
C826 C827 1.367 . S
C827 C826 1.367 . S
C827 C829 1.433 . S
C828 C824 1.350 . S
C828 C825 1.463 1_566 S
C828 N832 1.427 . S
C829 H819 0.929 . S
C829 C827 1.433 . S
C829 N832 1.384 . S
C830 H821 0.929 . S
C830 C822 1.378 . S
C830 C825 1.350 . S
C831 H818 0.929 . S
C831 C823 1.433 . S
C831 N833 1.384 . S
N832 C828 1.427 . S
N832 C829 1.384 . S
N833 C825 1.427 . S
N833 C831 1.384 . S
H834 C840 0.930 . S
H835 C844 0.930 . S
H836 C849 0.929 . S
H837 C847 0.929 . S
H838 C842 0.929 . S
H839 C848 0.929 . S
C840 H834 0.930 . S
C840 C841 1.367 . S
C840 C848 1.378 . S
C841 C840 1.367 . S
C841 C849 1.433 . S
C842 H838 0.929 . S
C842 C844 1.378 . S
C842 C846 1.350 . S
C843 C846 1.463 1_565 S
C843 C848 1.350 . S
C843 N851 1.427 . S
C844 H835 0.930 . S
C844 C842 1.378 . S
C844 C845 1.367 . S
C845 C844 1.367 . S
C845 C847 1.433 . S
C846 C842 1.350 . S
C846 C843 1.463 1_545 S
C846 N850 1.427 . S
C847 H837 0.929 . S
C847 C845 1.433 . S
C847 N850 1.384 . S
C848 H839 0.929 . S
C848 C840 1.378 . S
C848 C843 1.350 . S
C849 H836 0.929 . S
C849 C841 1.433 . S
C849 N851 1.384 . S
N850 C846 1.427 . S
N850 C847 1.384 . S
N851 C843 1.427 . S
N851 C849 1.384 . S
H852 C858 0.930 . S
H853 C862 0.930 . S
H854 C867 0.929 . S
H855 C865 0.929 . S
H856 C860 0.929 . S
H857 C866 0.929 . S
C858 H852 0.930 . S
C858 C859 1.367 . S
C858 C866 1.378 . S
C859 C858 1.367 . S
C859 C867 1.433 . S
C860 H856 0.929 . S
C860 C862 1.378 . S
C860 C864 1.350 . S
C861 C864 1.463 1_566 S
C861 C866 1.350 . S
C861 N869 1.427 . S
C862 H853 0.930 . S
C862 C860 1.378 . S
C862 C863 1.367 . S
C863 C862 1.367 . S
C863 C865 1.433 . S
C864 C860 1.350 . S
C864 C861 1.463 1_544 S
C864 N868 1.427 . S
C865 H855 0.929 . S
C865 C863 1.433 . S
C865 N868 1.384 . S
C866 H857 0.929 . S
C866 C858 1.378 . S
C866 C861 1.350 . S
C867 H854 0.929 . S
C867 C859 1.433 . S
C867 N869 1.384 . S
N868 C864 1.427 . S
N868 C865 1.384 . S
N869 C861 1.427 . S
N869 C867 1.384 . S
H870 C876 0.930 . S
H871 C880 0.930 . S
H872 C885 0.929 . S
H873 C883 0.929 . S
H874 C878 0.929 . S
H875 C884 0.929 . S
C876 H870 0.930 . S
C876 C877 1.367 . S
C876 C884 1.378 . S
C877 C876 1.367 . S
C877 C885 1.433 . S
C878 H874 0.929 . S
C878 C880 1.378 . S
C878 C882 1.350 . S
C879 C882 1.463 1_545 S
C879 C884 1.350 . S
C879 N887 1.427 . S
C880 H871 0.930 . S
C880 C878 1.378 . S
C880 C881 1.367 . S
C881 C880 1.367 . S
C881 C883 1.433 . S
C882 C878 1.350 . S
C882 C879 1.463 1_565 S
C882 N886 1.427 . S
C883 H873 0.929 . S
C883 C881 1.433 . S
C883 N886 1.384 . S
C884 H875 0.929 . S
C884 C876 1.378 . S
C884 C879 1.350 . S
C885 H872 0.929 . S
C885 C877 1.433 . S
C885 N887 1.384 . S
N886 C882 1.427 . S
N886 C883 1.384 . S
N887 C879 1.427 . S
N887 C885 1.384 . S
H888 C894 0.930 1_556 S
H889 C898 0.930 1_554 S
H890 C903 0.929 . S
H891 C901 0.929 . S
H892 C896 0.929 . S
H893 C902 0.929 . S
C894 H888 0.930 1_554 S
C894 C895 1.367 . S
C894 C902 1.378 1_554 S
C895 C894 1.367 . S
C895 C903 1.433 . S
C896 H892 0.929 . S
C896 C898 1.378 1_554 S
C896 C900 1.350 1_554 S
C897 C900 1.463 1_554 S
C897 C902 1.350 1_554 S
C897 N905 1.427 . S
C898 H889 0.930 1_556 S
C898 C896 1.378 1_556 S
C898 C899 1.367 . S
C899 C898 1.367 . S
C899 C901 1.433 . S
C900 C896 1.350 1_556 S
C900 C897 1.463 1_556 S
C900 N904 1.427 . S
C901 H891 0.929 . S
C901 C899 1.433 . S
C901 N904 1.384 . S
C902 H893 0.929 . S
C902 C894 1.378 1_556 S
C902 C897 1.350 1_556 S
C903 H890 0.929 . S
C903 C895 1.433 . S
C903 N905 1.384 . S
N904 C900 1.427 . S
N904 C901 1.384 . S
N905 C897 1.427 . S
N905 C903 1.384 . S
H906 C912 0.930 . S
H907 C916 0.930 . S
H908 C921 0.929 . S
H909 C919 0.929 . S
H910 C914 0.929 . S
H911 C920 0.929 . S
C912 H906 0.930 . S
C912 C913 1.367 . S
C912 C920 1.378 . S
C913 C912 1.367 . S
C913 C921 1.433 . S
C914 H910 0.929 . S
C914 C916 1.378 . S
C914 C918 1.350 . S
C915 C918 1.463 . S
C915 C920 1.350 . S
C915 N923 1.427 . S
C916 H907 0.930 . S
C916 C914 1.378 . S
C916 C917 1.367 . S
C917 C916 1.367 . S
C917 C919 1.433 . S
C918 C914 1.350 . S
C918 C915 1.463 . S
C918 N922 1.427 . S
C919 H909 0.929 . S
C919 C917 1.433 . S
C919 N922 1.384 . S
C920 H911 0.929 . S
C920 C912 1.378 . S
C920 C915 1.350 . S
C921 H908 0.929 . S
C921 C913 1.433 . S
C921 N923 1.384 . S
N922 C918 1.427 . S
N922 C919 1.384 . S
N923 C915 1.427 . S
N923 C921 1.384 . S
H924 C930 0.930 1_554 S
H925 C934 0.930 1_556 S
H926 C939 0.929 . S
H927 C937 0.929 . S
H928 C932 0.929 . S
H929 C938 0.929 . S
C930 H924 0.930 1_556 S
C930 C931 1.367 . S
C930 C938 1.378 1_556 S
C931 C930 1.367 . S
C931 C939 1.433 . S
C932 H928 0.929 . S
C932 C934 1.378 1_556 S
C932 C936 1.350 1_556 S
C933 C936 1.463 1_556 S
C933 C938 1.350 1_556 S
C933 N941 1.427 . S
C934 H925 0.930 1_554 S
C934 C932 1.378 1_554 S
C934 C935 1.367 . S
C935 C934 1.367 . S
C935 C937 1.433 . S
C936 C932 1.350 1_554 S
C936 C933 1.463 1_554 S
C936 N940 1.427 . S
C937 H927 0.929 . S
C937 C935 1.433 . S
C937 N940 1.384 . S
C938 H929 0.929 . S
C938 C930 1.378 1_554 S
C938 C933 1.350 1_554 S
C939 H926 0.929 . S
C939 C931 1.433 . S
C939 N941 1.384 . S
N940 C936 1.427 . S
N940 C937 1.384 . S
N941 C933 1.427 . S
N941 C939 1.384 . S
H942 C948 0.930 . S
H943 C952 0.930 . S
H944 C957 0.929 . S
H945 C955 0.929 . S
H946 C950 0.929 . S
H947 C956 0.929 . S
C948 H942 0.930 . S
C948 C949 1.367 . S
C948 C956 1.378 . S
C949 C948 1.367 . S
C949 C957 1.433 . S
C950 H946 0.929 . S
C950 C952 1.378 . S
C950 C954 1.350 . S
C951 C954 1.463 . S
C951 C956 1.350 . S
C951 N959 1.427 . S
C952 H943 0.930 . S
C952 C950 1.378 . S
C952 C953 1.367 . S
C953 C952 1.367 . S
C953 C955 1.433 . S
C954 C950 1.350 . S
C954 C951 1.463 . S
C954 N958 1.427 . S
C955 H945 0.929 . S
C955 C953 1.433 . S
C955 N958 1.384 . S
C956 H947 0.929 . S
C956 C948 1.378 . S
C956 C951 1.350 . S
C957 H944 0.929 . S
C957 C949 1.433 . S
C957 N959 1.384 . S
N958 C954 1.427 . S
N958 C955 1.384 . S
N959 C951 1.427 . S
N959 C957 1.384 . S
H960 C966 0.930 . S
H961 C970 0.930 . S
H962 C975 0.929 . S
H963 C973 0.929 . S
H964 C968 0.929 . S
H965 C974 0.929 . S
C966 H960 0.930 . S
C966 C967 1.367 . S
C966 C974 1.378 . S
C967 C966 1.367 . S
C967 C975 1.433 . S
C968 H964 0.929 . S
C968 C970 1.378 . S
C968 C972 1.350 . S
C969 C972 1.463 . S
C969 C974 1.350 . S
C969 N977 1.427 . S
C970 H961 0.930 . S
C970 C968 1.378 . S
C970 C971 1.367 . S
C971 C970 1.367 . S
C971 C973 1.433 . S
C972 C968 1.350 . S
C972 C969 1.463 . S
C972 N976 1.427 . S
C973 H963 0.929 . S
C973 C971 1.433 . S
C973 N976 1.384 . S
C974 H965 0.929 . S
C974 C966 1.378 . S
C974 C969 1.350 . S
C975 H962 0.929 . S
C975 C967 1.433 . S
C975 N977 1.384 . S
N976 C972 1.427 . S
N976 C973 1.384 . S
N977 C969 1.427 . S
N977 C975 1.384 . S
H978 C984 0.930 . S
H979 C988 0.930 . S
H980 C993 0.929 . S
H981 C991 0.929 . S
H982 C986 0.929 . S
H983 C992 0.929 . S
C984 H978 0.930 . S
C984 C985 1.367 . S
C984 C992 1.378 . S
C985 C984 1.367 . S
C985 C993 1.433 . S
C986 H982 0.929 . S
C986 C988 1.378 . S
C986 C990 1.350 . S
C987 C990 1.463 . S
C987 C992 1.350 . S
C987 N995 1.427 . S
C988 H979 0.930 . S
C988 C986 1.378 . S
C988 C989 1.367 . S
C989 C988 1.367 . S
C989 C991 1.433 . S
C990 C986 1.350 . S
C990 C987 1.463 . S
C990 N994 1.427 . S
C991 H981 0.929 . S
C991 C989 1.433 . S
C991 N994 1.384 . S
C992 H983 0.929 . S
C992 C984 1.378 . S
C992 C987 1.350 . S
C993 H980 0.929 . S
C993 C985 1.433 . S
C993 N995 1.384 . S
N994 C990 1.427 . S
N994 C991 1.384 . S
N995 C987 1.427 . S
N995 C993 1.384 . S
H996 C1002 0.930 . S
H997 C1006 0.930 . S
H998 C1011 0.929 . S
H999 C1009 0.929 . S
H1000 C1004 0.929 . S
H1001 C1010 0.929 . S
C1002 H996 0.930 . S
C1002 C1003 1.367 . S
C1002 C1010 1.378 . S
C1003 C1002 1.367 . S
C1003 C1011 1.433 . S
C1004 H1000 0.929 . S
C1004 C1006 1.378 . S
C1004 C1008 1.350 . S
C1005 C1008 1.463 . S
C1005 C1010 1.350 . S
C1005 N1013 1.427 . S
C1006 H997 0.930 . S
C1006 C1004 1.378 . S
C1006 C1007 1.367 . S
C1007 C1006 1.367 . S
C1007 C1009 1.433 . S
C1008 C1004 1.350 . S
C1008 C1005 1.463 . S
C1008 N1012 1.427 . S
C1009 H999 0.929 . S
C1009 C1007 1.433 . S
C1009 N1012 1.384 . S
C1010 H1001 0.929 . S
C1010 C1002 1.378 . S
C1010 C1005 1.350 . S
C1011 H998 0.929 . S
C1011 C1003 1.433 . S
C1011 N1013 1.384 . S
N1012 C1008 1.427 . S
N1012 C1009 1.384 . S
N1013 C1005 1.427 . S
N1013 C1011 1.384 . S
H1014 C1020 0.930 . S
H1015 C1024 0.930 . S
H1016 C1029 0.929 . S
H1017 C1027 0.929 . S
H1018 C1022 0.929 . S
H1019 C1028 0.929 . S
C1020 H1014 0.930 . S
C1020 C1021 1.367 . S
C1020 C1028 1.378 . S
C1021 C1020 1.367 . S
C1021 C1029 1.433 . S
C1022 H1018 0.929 . S
C1022 C1024 1.378 . S
C1022 C1026 1.350 . S
C1023 C1026 1.463 . S
C1023 C1028 1.350 . S
C1023 N1031 1.427 . S
C1024 H1015 0.930 . S
C1024 C1022 1.378 . S
C1024 C1025 1.367 . S
C1025 C1024 1.367 . S
C1025 C1027 1.433 . S
C1026 C1022 1.350 . S
C1026 C1023 1.463 . S
C1026 N1030 1.427 . S
C1027 H1017 0.929 . S
C1027 C1025 1.433 . S
C1027 N1030 1.384 . S
C1028 H1019 0.929 . S
C1028 C1020 1.378 . S
C1028 C1023 1.350 . S
C1029 H1016 0.929 . S
C1029 C1021 1.433 . S
C1029 N1031 1.384 . S
N1030 C1026 1.427 . S
N1030 C1027 1.384 . S
N1031 C1023 1.427 . S
N1031 C1029 1.384 . S
H1032 C1038 0.930 . S
H1033 C1042 0.930 . S
H1034 C1047 0.929 . S
H1035 C1045 0.929 . S
H1036 C1040 0.929 . S
H1037 C1046 0.929 . S
C1038 H1032 0.930 . S
C1038 C1039 1.367 . S
C1038 C1046 1.378 . S
C1039 C1038 1.367 . S
C1039 C1047 1.433 . S
C1040 H1036 0.929 . S
C1040 C1042 1.378 . S
C1040 C1044 1.350 . S
C1041 C1044 1.463 . S
C1041 C1046 1.350 . S
C1041 N1049 1.427 . S
C1042 H1033 0.930 . S
C1042 C1040 1.378 . S
C1042 C1043 1.367 . S
C1043 C1042 1.367 . S
C1043 C1045 1.433 . S
C1044 C1040 1.350 . S
C1044 C1041 1.463 . S
C1044 N1048 1.427 . S
C1045 H1035 0.929 . S
C1045 C1043 1.433 . S
C1045 N1048 1.384 . S
C1046 H1037 0.929 . S
C1046 C1038 1.378 . S
C1046 C1041 1.350 . S
C1047 H1034 0.929 . S
C1047 C1039 1.433 . S
C1047 N1049 1.384 . S
N1048 C1044 1.427 . S
N1048 C1045 1.384 . S
N1049 C1041 1.427 . S
N1049 C1047 1.384 . S
H1050 C1056 0.930 . S
H1051 C1060 0.930 . S
H1052 C1065 0.929 . S
H1053 C1063 0.929 . S
H1054 C1058 0.929 . S
H1055 C1064 0.929 . S
C1056 H1050 0.930 . S
C1056 C1057 1.367 . S
C1056 C1064 1.378 . S
C1057 C1056 1.367 . S
C1057 C1065 1.433 . S
C1058 H1054 0.929 . S
C1058 C1060 1.378 . S
C1058 C1062 1.350 . S
C1059 C1062 1.463 . S
C1059 C1064 1.350 . S
C1059 N1067 1.427 . S
C1060 H1051 0.930 . S
C1060 C1058 1.378 . S
C1060 C1061 1.367 . S
C1061 C1060 1.367 . S
C1061 C1063 1.433 . S
C1062 C1058 1.350 . S
C1062 C1059 1.463 . S
C1062 N1066 1.427 . S
C1063 H1053 0.929 . S
C1063 C1061 1.433 . S
C1063 N1066 1.384 . S
C1064 H1055 0.929 . S
C1064 C1056 1.378 . S
C1064 C1059 1.350 . S
C1065 H1052 0.929 . S
C1065 C1057 1.433 . S
C1065 N1067 1.384 . S
N1066 C1062 1.427 . S
N1066 C1063 1.384 . S
N1067 C1059 1.427 . S
N1067 C1065 1.384 . S
H1068 C1074 0.930 . S
H1069 C1078 0.930 . S
H1070 C1083 0.929 . S
H1071 C1081 0.929 . S
H1072 C1076 0.929 . S
H1073 C1082 0.929 . S
C1074 H1068 0.930 . S
C1074 C1075 1.367 . S
C1074 C1082 1.378 . S
C1075 C1074 1.367 . S
C1075 C1083 1.433 . S
C1076 H1072 0.929 . S
C1076 C1078 1.378 . S
C1076 C1080 1.350 . S
C1077 C1080 1.463 . S
C1077 C1082 1.350 . S
C1077 N1085 1.427 . S
C1078 H1069 0.930 . S
C1078 C1076 1.378 . S
C1078 C1079 1.367 . S
C1079 C1078 1.367 . S
C1079 C1081 1.433 . S
C1080 C1076 1.350 . S
C1080 C1077 1.463 . S
C1080 N1084 1.427 . S
C1081 H1071 0.929 . S
C1081 C1079 1.433 . S
C1081 N1084 1.384 . S
C1082 H1073 0.929 . S
C1082 C1074 1.378 . S
C1082 C1077 1.350 . S
C1083 H1070 0.929 . S
C1083 C1075 1.433 . S
C1083 N1085 1.384 . S
N1084 C1080 1.427 . S
N1084 C1081 1.384 . S
N1085 C1077 1.427 . S
N1085 C1083 1.384 . S
H1086 C1092 0.930 . S
H1087 C1096 0.930 . S
H1088 C1101 0.929 . S
H1089 C1099 0.929 . S
H1090 C1094 0.929 . S
H1091 C1100 0.929 . S
C1092 H1086 0.930 . S
C1092 C1093 1.367 . S
C1092 C1100 1.378 . S
C1093 C1092 1.367 . S
C1093 C1101 1.433 . S
C1094 H1090 0.929 . S
C1094 C1096 1.378 . S
C1094 C1098 1.350 . S
C1095 C1098 1.463 . S
C1095 C1100 1.350 . S
C1095 N1103 1.427 . S
C1096 H1087 0.930 . S
C1096 C1094 1.378 . S
C1096 C1097 1.367 . S
C1097 C1096 1.367 . S
C1097 C1099 1.433 . S
C1098 C1094 1.350 . S
C1098 C1095 1.463 . S
C1098 N1102 1.427 . S
C1099 H1089 0.929 . S
C1099 C1097 1.433 . S
C1099 N1102 1.384 . S
C1100 H1091 0.929 . S
C1100 C1092 1.378 . S
C1100 C1095 1.350 . S
C1101 H1088 0.929 . S
C1101 C1093 1.433 . S
C1101 N1103 1.384 . S
N1102 C1098 1.427 . S
N1102 C1099 1.384 . S
N1103 C1095 1.427 . S
N1103 C1101 1.384 . S
H1104 C1110 0.930 . S
H1105 C1114 0.930 . S
H1106 C1119 0.929 . S
H1107 C1117 0.929 . S
H1108 C1112 0.929 . S
H1109 C1118 0.929 . S
C1110 H1104 0.930 . S
C1110 C1111 1.367 . S
C1110 C1118 1.378 . S
C1111 C1110 1.367 . S
C1111 C1119 1.433 . S
C1112 H1108 0.929 . S
C1112 C1114 1.378 . S
C1112 C1116 1.350 . S
C1113 C1116 1.463 . S
C1113 C1118 1.350 . S
C1113 N1121 1.427 . S
C1114 H1105 0.930 . S
C1114 C1112 1.378 . S
C1114 C1115 1.367 . S
C1115 C1114 1.367 . S
C1115 C1117 1.433 . S
C1116 C1112 1.350 . S
C1116 C1113 1.463 . S
C1116 N1120 1.427 . S
C1117 H1107 0.929 . S
C1117 C1115 1.433 . S
C1117 N1120 1.384 . S
C1118 H1109 0.929 . S
C1118 C1110 1.378 . S
C1118 C1113 1.350 . S
C1119 H1106 0.929 . S
C1119 C1111 1.433 . S
C1119 N1121 1.384 . S
N1120 C1116 1.427 . S
N1120 C1117 1.384 . S
N1121 C1113 1.427 . S
N1121 C1119 1.384 . S
H1122 C1128 0.930 . S
H1123 C1132 0.930 . S
H1124 C1137 0.929 . S
H1125 C1135 0.929 . S
H1126 C1130 0.929 . S
H1127 C1136 0.929 . S
C1128 H1122 0.930 . S
C1128 C1129 1.367 . S
C1128 C1136 1.378 . S
C1129 C1128 1.367 . S
C1129 C1137 1.433 . S
C1130 H1126 0.929 . S
C1130 C1132 1.378 . S
C1130 C1134 1.350 . S
C1131 C1134 1.463 . S
C1131 C1136 1.350 . S
C1131 N1139 1.427 . S
C1132 H1123 0.930 . S
C1132 C1130 1.378 . S
C1132 C1133 1.367 . S
C1133 C1132 1.367 . S
C1133 C1135 1.433 . S
C1134 C1130 1.350 . S
C1134 C1131 1.463 . S
C1134 N1138 1.427 . S
C1135 H1125 0.929 . S
C1135 C1133 1.433 . S
C1135 N1138 1.384 . S
C1136 H1127 0.929 . S
C1136 C1128 1.378 . S
C1136 C1131 1.350 . S
C1137 H1124 0.929 . S
C1137 C1129 1.433 . S
C1137 N1139 1.384 . S
N1138 C1134 1.427 . S
N1138 C1135 1.384 . S
N1139 C1131 1.427 . S
N1139 C1137 1.384 . S
H1140 C1146 0.930 . S
H1141 C1150 0.930 . S
H1142 C1155 0.929 . S
H1143 C1153 0.929 . S
H1144 C1148 0.929 . S
H1145 C1154 0.929 . S
C1146 H1140 0.930 . S
C1146 C1147 1.367 . S
C1146 C1154 1.378 . S
C1147 C1146 1.367 . S
C1147 C1155 1.433 . S
C1148 H1144 0.929 . S
C1148 C1150 1.378 . S
C1148 C1152 1.350 . S
C1149 C1152 1.463 . S
C1149 C1154 1.350 . S
C1149 N1157 1.427 . S
C1150 H1141 0.930 . S
C1150 C1148 1.378 . S
C1150 C1151 1.367 . S
C1151 C1150 1.367 . S
C1151 C1153 1.433 . S
C1152 C1148 1.350 . S
C1152 C1149 1.463 . S
C1152 N1156 1.427 . S
C1153 H1143 0.929 . S
C1153 C1151 1.433 . S
C1153 N1156 1.384 . S
C1154 H1145 0.929 . S
C1154 C1146 1.378 . S
C1154 C1149 1.350 . S
C1155 H1142 0.929 . S
C1155 C1147 1.433 . S
C1155 N1157 1.384 . S
N1156 C1152 1.427 . S
N1156 C1153 1.384 . S
N1157 C1149 1.427 . S
N1157 C1155 1.384 . S
H1158 C1164 0.930 . S
H1159 C1168 0.930 . S
H1160 C1173 0.929 . S
H1161 C1171 0.929 . S
H1162 C1166 0.929 . S
H1163 C1172 0.929 . S
C1164 H1158 0.930 . S
C1164 C1165 1.367 . S
C1164 C1172 1.378 . S
C1165 C1164 1.367 . S
C1165 C1173 1.433 . S
C1166 H1162 0.929 . S
C1166 C1168 1.378 . S
C1166 C1170 1.350 . S
C1167 C1170 1.463 . S
C1167 C1172 1.350 . S
C1167 N1175 1.427 . S
C1168 H1159 0.930 . S
C1168 C1166 1.378 . S
C1168 C1169 1.367 . S
C1169 C1168 1.367 . S
C1169 C1171 1.433 . S
C1170 C1166 1.350 . S
C1170 C1167 1.463 . S
C1170 N1174 1.427 . S
C1171 H1161 0.929 . S
C1171 C1169 1.433 . S
C1171 N1174 1.384 . S
C1172 H1163 0.929 . S
C1172 C1164 1.378 . S
C1172 C1167 1.350 . S
C1173 H1160 0.929 . S
C1173 C1165 1.433 . S
C1173 N1175 1.384 . S
N1174 C1170 1.427 . S
N1174 C1171 1.384 . S
N1175 C1167 1.427 . S
N1175 C1173 1.384 . S
H1176 C1182 0.930 . S
H1177 C1186 0.930 . S
H1178 C1191 0.929 . S
H1179 C1189 0.929 . S
H1180 C1184 0.929 . S
H1181 C1190 0.929 . S
C1182 H1176 0.930 . S
C1182 C1183 1.367 . S
C1182 C1190 1.378 . S
C1183 C1182 1.367 . S
C1183 C1191 1.433 . S
C1184 H1180 0.929 . S
C1184 C1186 1.378 . S
C1184 C1188 1.350 . S
C1185 C1188 1.463 . S
C1185 C1190 1.350 . S
C1185 N1193 1.427 . S
C1186 H1177 0.930 . S
C1186 C1184 1.378 . S
C1186 C1187 1.367 . S
C1187 C1186 1.367 . S
C1187 C1189 1.433 . S
C1188 C1184 1.350 . S
C1188 C1185 1.463 . S
C1188 N1192 1.427 . S
C1189 H1179 0.929 . S
C1189 C1187 1.433 . S
C1189 N1192 1.384 . S
C1190 H1181 0.929 . S
C1190 C1182 1.378 . S
C1190 C1185 1.350 . S
C1191 H1178 0.929 . S
C1191 C1183 1.433 . S
C1191 N1193 1.384 . S
N1192 C1188 1.427 . S
N1192 C1189 1.384 . S
N1193 C1185 1.427 . S
N1193 C1191 1.384 . S
H1194 C1200 0.930 . S
H1195 C1204 0.930 . S
H1196 C1209 0.929 . S
H1197 C1207 0.929 . S
H1198 C1202 0.929 . S
H1199 C1208 0.929 . S
C1200 H1194 0.930 . S
C1200 C1201 1.367 . S
C1200 C1208 1.378 . S
C1201 C1200 1.367 . S
C1201 C1209 1.433 . S
C1202 H1198 0.929 . S
C1202 C1204 1.378 . S
C1202 C1206 1.350 . S
C1203 C1206 1.463 . S
C1203 C1208 1.350 . S
C1203 N1211 1.427 . S
C1204 H1195 0.930 . S
C1204 C1202 1.378 . S
C1204 C1205 1.367 . S
C1205 C1204 1.367 . S
C1205 C1207 1.433 . S
C1206 C1202 1.350 . S
C1206 C1203 1.463 . S
C1206 N1210 1.427 . S
C1207 H1197 0.929 . S
C1207 C1205 1.433 . S
C1207 N1210 1.384 . S
C1208 H1199 0.929 . S
C1208 C1200 1.378 . S
C1208 C1203 1.350 . S
C1209 H1196 0.929 . S
C1209 C1201 1.433 . S
C1209 N1211 1.384 . S
N1210 C1206 1.427 . S
N1210 C1207 1.384 . S
N1211 C1203 1.427 . S
N1211 C1209 1.384 . S
H1212 C1218 0.930 . S
H1213 C1222 0.930 . S
H1214 C1227 0.929 . S
H1215 C1225 0.929 . S
H1216 C1220 0.929 . S
H1217 C1226 0.929 . S
C1218 H1212 0.930 . S
C1218 C1219 1.367 . S
C1218 C1226 1.378 . S
C1219 C1218 1.367 . S
C1219 C1227 1.433 . S
C1220 H1216 0.929 . S
C1220 C1222 1.378 . S
C1220 C1224 1.350 . S
C1221 C1224 1.463 . S
C1221 C1226 1.350 . S
C1221 N1229 1.427 . S
C1222 H1213 0.930 . S
C1222 C1220 1.378 . S
C1222 C1223 1.367 . S
C1223 C1222 1.367 . S
C1223 C1225 1.433 . S
C1224 C1220 1.350 . S
C1224 C1221 1.463 . S
C1224 N1228 1.427 . S
C1225 H1215 0.929 . S
C1225 C1223 1.433 . S
C1225 N1228 1.384 . S
C1226 H1217 0.929 . S
C1226 C1218 1.378 . S
C1226 C1221 1.350 . S
C1227 H1214 0.929 . S
C1227 C1219 1.433 . S
C1227 N1229 1.384 . S
N1228 C1224 1.427 . S
N1228 C1225 1.384 . S
N1229 C1221 1.427 . S
N1229 C1227 1.384 . S
H1230 C1236 0.930 . S
H1231 C1240 0.930 . S
H1232 C1245 0.929 . S
H1233 C1243 0.929 . S
H1234 C1238 0.929 . S
H1235 C1244 0.929 . S
C1236 H1230 0.930 . S
C1236 C1237 1.367 . S
C1236 C1244 1.378 . S
C1237 C1236 1.367 . S
C1237 C1245 1.433 . S
C1238 H1234 0.929 . S
C1238 C1240 1.378 . S
C1238 C1242 1.350 . S
C1239 C1242 1.463 . S
C1239 C1244 1.350 . S
C1239 N1247 1.427 . S
C1240 H1231 0.930 . S
C1240 C1238 1.378 . S
C1240 C1241 1.367 . S
C1241 C1240 1.367 . S
C1241 C1243 1.433 . S
C1242 C1238 1.350 . S
C1242 C1239 1.463 . S
C1242 N1246 1.427 . S
C1243 H1233 0.929 . S
C1243 C1241 1.433 . S
C1243 N1246 1.384 . S
C1244 H1235 0.929 . S
C1244 C1236 1.378 . S
C1244 C1239 1.350 . S
C1245 H1232 0.929 . S
C1245 C1237 1.433 . S
C1245 N1247 1.384 . S
N1246 C1242 1.427 . S
N1246 C1243 1.384 . S
N1247 C1239 1.427 . S
N1247 C1245 1.384 . S
C535 N13 1.742 . S
C539 N112 1.738 . S
C553 N79 1.745 . S
C557 N46 1.737 . S
C571 N244 1.737 . S
C575 N145 1.744 . S
C589 N178 1.737 . S
C593 N211 1.743 . S
C607 N277 1.739 . S
C611 N376 1.746 . S
C625 N310 1.744 . S
C629 N343 1.737 . S
C643 N508 1.737 . S
C647 N409 1.743 . S
C661 N442 1.746 . S
C665 N475 1.738 . S
C679 N200 1.576 . S
C683 N2 1.571 . S
C697 N233 1.582 . S
C701 N35 1.566 . S
C715 N134 1.581 . S
C719 N68 1.567 . S
C733 N167 1.571 . S
C737 N101 1.577 . S
C751 N464 1.575 . S
C755 N266 1.573 . S
C769 N497 1.571 . S
C773 N299 1.577 . S
C787 N398 1.576 . S
C791 N332 1.571 . S
C805 N365 1.570 . S
C809 N431 1.578 . S
C823 C7 1.551 . S
C827 C73 1.553 . S
C841 C40 1.544 . S
C845 C106 1.545 . S
C859 C139 1.552 . S
C863 C205 1.550 . S
C877 C172 1.545 . S
C881 C238 1.546 . S
C895 C271 1.546 . S
C899 C337 1.544 . S
C913 C304 1.544 . S
C917 C370 1.544 . S
C931 C403 1.545 . S
C935 C469 1.546 . S
C949 C436 1.545 . S
C953 C502 1.547 . S
C967 C513 1.119 . S
C971 C21 1.122 . S
C985 C54 1.125 . S
C989 C480 1.116 . S
C1003 C87 1.124 . S
C1007 C447 1.121 . S
C1021 C414 1.124 . S
C1025 C120 1.127 . S
C1039 C381 1.119 . S
C1043 C153 1.122 . S
C1057 C186 1.125 . S
C1061 C348 1.117 . S
C1075 C219 1.121 . S
C1079 C315 1.114 . S
C1093 C252 1.122 . S
C1097 C282 1.114 . S
C1111 C285 1.122 . S
C1115 C249 1.119 . S
C1129 C216 1.114 . S
C1133 C318 1.120 . S
C1147 C183 1.124 . S
C1151 C351 1.127 . S
C1165 C384 1.122 . S
C1169 C150 1.118 . S
C1183 C417 1.121 . S
C1187 C117 1.114 . S
C1201 C84 1.123 . S
C1205 C450 1.128 . S
C1219 C51 1.123 . S
C1223 C483 1.125 . S
C1237 C18 1.123 . S
C1241 C516 1.126 . S
