# Generated by pormake.
# Topology rkf, (6)-cn, num edge types: 1
# Building blocks:
#     Node 0, Type 0, BuildingBlock: MIFKUJ_clean_sbu_0, # of connection points: 6
#     Node 1, Type 0, BuildingBlock: MIFKUJ_clean_sbu_0, # of connection points: 6
#     Node 2, Type 0, BuildingBlock: MIFKUJ_clean_sbu_0, # of connection points: 6
#     Node 3, Type 0, BuildingBlock: MIFKUJ_clean_sbu_0, # of connection points: 6
#     Node 4, Type 0, BuildingBlock: MIFKUJ_clean_sbu_0, # of connection points: 6
#     Node 5, Type 0, BuildingBlock: MIFKUJ_clean_sbu_0, # of connection points: 6
#     Edge 6, Type (0, 0), BuildingBlock: TEMPAE_clean_linker_10, # of connection points: 2
#     Edge 7, Type (0, 0), BuildingBlock: TEMPAE_clean_linker_10, # of connection points: 2
#     Edge 8, Type (0, 0), BuildingBlock: TEMPAE_clean_linker_10, # of connection points: 2
#     Edge 9, Type (0, 0), BuildingBlock: TEMPAE_clean_linker_10, # of connection points: 2
#     Edge 10, Type (0, 0), BuildingBlock: TEMPAE_clean_linker_10, # of connection points: 2
#     Edge 11, Type (0, 0), BuildingBlock: TEMPAE_clean_linker_10, # of connection points: 2
#     Edge 12, Type (0, 0), BuildingBlock: TEMPAE_clean_linker_10, # of connection points: 2
#     Edge 13, Type (0, 0), BuildingBlock: TEMPAE_clean_linker_10, # of connection points: 2
#     Edge 14, Type (0, 0), BuildingBlock: TEMPAE_clean_linker_10, # of connection points: 2
#     Edge 15, Type (0, 0), BuildingBlock: TEMPAE_clean_linker_10, # of connection points: 2
#     Edge 16, Type (0, 0), BuildingBlock: TEMPAE_clean_linker_10, # of connection points: 2
#     Edge 17, Type (0, 0), BuildingBlock: TEMPAE_clean_linker_10, # of connection points: 2
#     Edge 18, Type (0, 0), BuildingBlock: TEMPAE_clean_linker_10, # of connection points: 2
#     Edge 19, Type (0, 0), BuildingBlock: TEMPAE_clean_linker_10, # of connection points: 2
#     Edge 20, Type (0, 0), BuildingBlock: TEMPAE_clean_linker_10, # of connection points: 2
#     Edge 21, Type (0, 0), BuildingBlock: TEMPAE_clean_linker_10, # of connection points: 2
#     Edge 22, Type (0, 0), BuildingBlock: TEMPAE_clean_linker_10, # of connection points: 2
#     Edge 23, Type (0, 0), BuildingBlock: TEMPAE_clean_linker_10, # of connection points: 2
# Relax obj value: 0.342
# Max RMSD: 0.299
# Mean RMSD: 0.299
data_MOF--net-rkf--node1-MIFKUJ_clean_sbu_0--edge1-TEMPAE_clean_linker_10
_symmetry_space_group_name_H-M    P1
_symmetry_Int_Tables_number       1
_symmetry_cell_setting            triclinic
loop_
_symmetry_equiv_pos_as_xyz
'x, y, z'
_cell_length_a     23.050363
_cell_length_b     23.058154
_cell_length_c     46.223056
_cell_angle_alpha  89.814613
_cell_angle_beta   89.922537
_cell_angle_gamma 120.54513
loop_
_atom_site_label
_atom_site_type_symbol
_atom_site_fract_x
_atom_site_fract_y
_atom_site_fract_z
_atom_type_partial_charge
Zn0 Zn 0.27475 0.12598 0.96037 0.0
Zn1 Zn 0.30794 0.09168 0.04213 0.0
C2 C 0.12874 0.00601 0.96476 0.0
O3 O 0.07489 0.97587 0.98133 0.0
C4 C 0.42709 0.17601 0.07351 0.0
O5 O 0.42262 0.22374 0.05997 0.0
O6 O 0.27427 0.18149 0.92572 0.0
O7 O 0.32645 0.18623 0.99474 0.0
O8 O 0.29603 0.1729 0.04025 0.0
C9 C 0.21887 0.17626 0.91773 0.0
O10 O 0.16346 0.13689 0.93225 0.0
O11 O 0.17947 0.05971 0.9743 0.0
C12 C 0.24149 0.98241 0.0836 0.0
O13 O 0.30085 0.98751 0.08443 0.0
O14 O 0.23205 0.01989 0.06625 0.0
O15 O 0.29536 0.0664 1.00017 0.0
O16 O 0.32161 0.07072 0.955 0.0
O17 O 0.3934 0.11628 0.06389 0.0
C18 C 0.29814 0.19852 0.01545 0.0
C19 C 0.32478 0.05247 0.98073 0.0
Zn20 Zn 0.26669 0.10644 0.38581 0.0
Zn21 Zn 0.36333 0.19255 0.30862 0.0
C22 C 0.13388 0.10734 0.37908 0.0
O23 O 0.08509 0.0966 0.36124 0.0
C24 C 0.5089 0.27921 0.28436 0.0
O25 O 0.56987 0.32772 0.29104 0.0
O26 O 0.23622 0.04622 0.42203 0.0
O27 O 0.2983 0.06859 0.35201 0.0
O28 O 0.35077 0.09956 0.30914 0.0
C29 C 0.2697 0.0527 0.44491 0.0
O30 O 0.33334 0.10042 0.44611 0.0
O31 O 0.18192 0.10055 0.36935 0.0
C32 C 0.30013 0.24095 0.26519 0.0
O33 O 0.3568 0.29919 0.26494 0.0
O34 O 0.29458 0.19384 0.2815 0.0
O35 O 0.33646 0.19421 0.34839 0.0
O36 O 0.3346 0.20625 0.39427 0.0
O37 O 0.46226 0.26315 0.30304 0.0
C38 C 0.32251 0.05597 0.32945 0.0
C39 C 0.35652 0.23301 0.36981 0.0
Zn40 Zn 0.03692 0.18673 0.63738 0.0
Zn41 Zn 0.0836 0.29001 0.71904 0.0
C42 C 0.0891 0.24068 0.58083 0.0
O43 O 0.04842 0.26479 0.58252 0.0
C44 C 0.96832 0.19795 0.75492 0.0
O45 O 0.95511 0.1564 0.73322 0.0
O46 O 0.96434 0.09187 0.62621 0.0
O47 O 0.09365 0.19991 0.67452 0.0
O48 O 0.13443 0.24039 0.71786 0.0
C49 C 0.9811 0.05364 0.61347 0.0
O50 O 0.04439 0.06946 0.61411 0.0
O51 O 0.09764 0.21304 0.6029 0.0
C52 C 0.18213 0.41823 0.74389 0.0
O53 O 0.21783 0.48417 0.74533 0.0
O54 O 0.14661 0.39038 0.72164 0.0
O55 O 0.03624 0.26515 0.68136 0.0
O56 O -0.0106 0.2413 0.63946 0.0
O57 O 0.01927 0.25715 0.75324 0.0
C58 C 0.12945 0.20357 0.69634 0.0
C59 C -0.00108 0.27162 0.66332 0.0
Zn60 Zn 0.81956 0.0491 0.08281 0.0
Zn61 Zn 0.77717 0.98704 0.00961 0.0
C62 C 0.81662 0.92069 0.09087 0.0
O63 O 0.81888 0.86849 0.08106 0.0
C64 C 0.80438 0.01431 0.95277 0.0
O65 O 0.84062 0.98918 0.96251 0.0
O66 O 0.87947 0.08907 0.11819 0.0
O67 O 0.86649 0.11862 0.05089 0.0
O68 O 0.87287 0.05405 0.01728 0.0
C69 C 0.93822 0.09812 0.11397 0.0
O70 O 0.95151 0.08071 0.08888 0.0
O71 O 0.81571 0.96212 0.07289 0.0
C72 C 0.71 0.85828 0.9859 0.0
O73 O 0.66391 0.87555 0.98374 0.0
O74 O 0.76033 0.8933 1.00222 0.0
O75 O 0.72647 -0.00251 0.04163 0.0
O76 O 0.72389 0.02953 0.08581 0.0
O77 O 0.76408 0.01886 0.97026 0.0
C78 C 0.88766 0.11203 0.02636 0.0
C79 C 0.69383 0.00412 0.06208 0.0
Zn80 Zn 0.83578 0.77078 0.29929 0.0
Zn81 Zn 0.78685 0.71667 0.383 0.0
C82 C 0.86884 0.91685 0.30469 0.0
O83 O 0.89265 0.97053 0.32112 0.0
C84 C 0.74876 0.58369 0.40481 0.0
O85 O 0.80328 0.59346 0.39136 0.0
O86 O 0.8832 0.77626 0.26099 0.0
O87 O 0.8499 0.71258 0.32845 0.0
O88 O 0.8796 0.73161 0.37388 0.0
C89 C 0.94351 0.82511 0.25835 0.0
O90 O 0.97095 0.86668 0.28015 0.0
O91 O 0.86671 0.86446 0.31522 0.0
C92 C 0.7662 0.76637 0.43808 0.0
O93 O 0.7118 0.70644 0.43918 0.0
O94 O 0.80284 0.78362 0.41537 0.0
O95 O 0.75888 0.73861 0.34465 0.0
O96 O 0.73332 0.71981 0.29915 0.0
O97 O 0.72725 0.6236 0.39954 0.0
C98 C 0.89507 0.7304 0.34754 0.0
C99 C 0.7147 0.70552 0.32548 0.0
Zn100 Zn 0.87619 0.71464 0.74754 0.0
Zn101 Zn 0.89654 0.70999 0.6554 0.0
C102 C 0.00745 0.78703 0.77334 0.0
O103 O 0.00084 0.72699 0.77364 0.0
C104 C 0.83677 0.66654 0.60359 0.0
O105 O 0.86377 0.73228 0.60347 0.0
O106 O 0.81871 0.6989 0.78319 0.0
O107 O 0.83461 0.72873 0.71108 0.0
O108 O 0.85438 0.76523 0.66658 0.0
C109 C 0.82422 0.75311 0.79293 0.0
O110 O 0.85635 0.80814 0.77715 0.0
O111 O 0.96421 0.7952 0.75979 0.0
C112 C 0.00922 0.75302 0.61485 0.0
O113 O 0.98117 0.6877 0.61124 0.0
O114 O 0.9865 0.77433 0.63479 0.0
O115 O 0.89838 0.67196 0.69434 0.0
O116 O 0.88925 0.63542 0.7385 0.0
O117 O 0.83856 0.63805 0.6268 0.0
C118 C 0.86317 0.77802 0.69351 0.0
C119 C 0.89801 0.6294 0.71171 0.0
C120 C -0.009 0.22516 0.02897 0.0
C121 C 0.94375 0.17133 0.01221 0.0
C122 C 0.05848 0.26087 0.02001 0.0
C123 C 0.07681 0.23973 0.99465 0.0
C124 C 0.02669 0.20102 0.97414 0.0
C125 C 0.95956 0.16626 0.98337 0.0
C126 C 0.11111 0.30903 0.04077 0.0
C127 C 0.04402 0.18342 0.94528 0.0
C128 C 0.25286 0.26463 0.99182 0.0
C129 C 0.24285 0.20963 1.00859 0.0
C130 C 0.19896 0.27507 0.98616 0.0
C131 C 0.13419 0.22833 0.99711 0.0
C132 C 0.12394 0.17029 0.01253 0.0
C133 C 0.17869 0.16266 0.01844 0.0
C134 C 0.21274 0.33702 0.96937 0.0
C135 C 0.05569 0.11603 0.02349 0.0
H136 H 0.97814 0.23237 0.05071 0.0
H137 H 0.9218 0.12813 0.96951 0.0
H138 H 0.15668 0.34726 0.02897 0.0
H139 H 0.09115 0.33483 0.05426 0.0
H140 H 0.12597 0.28055 0.05543 0.0
H141 H 0.00719 0.17867 0.9286 0.0
H142 H 0.09554 0.22166 0.93808 0.0
H143 H 0.04106 0.13394 0.94705 0.0
H144 H 0.30292 0.30028 0.98384 0.0
H145 H 0.17116 0.11899 0.0306 0.0
H146 H 0.23628 0.38111 0.98403 0.0
H147 H 0.16648 0.33305 0.96014 0.0
H148 H 0.24904 0.34695 0.95153 0.0
H149 H 0.03719 0.13689 0.04028 0.0
H150 H 0.05712 0.07274 0.03333 0.0
H151 H 0.019 0.09611 1.00551 0.0
C152 C -0.0085 0.72676 0.32556 0.0
C153 C 0.96585 0.76324 0.33913 0.0
C154 C 0.06061 0.75713 0.31938 0.0
C155 C 0.10365 0.8261 0.32589 0.0
C156 C 0.07651 0.86352 0.33849 0.0
C157 C 0.00812 0.83104 0.3455 0.0
C158 C 0.08646 0.71489 0.30605 0.0
C159 C 0.11944 0.93789 0.34495 0.0
C160 C 0.27915 0.93907 0.3459 0.0
C161 C 0.29604 0.98454 0.32285 0.0
C162 C 0.21999 0.87603 0.34473 0.0
C163 C 0.17728 0.86091 0.32053 0.0
C164 C 0.2031 0.89909 0.29485 0.0
C165 C 0.26379 0.96085 0.29616 0.0
C166 C 0.1969 0.83232 0.37146 0.0
C167 C 0.16071 0.88184 0.26795 0.0
H168 H 0.95791 0.67399 0.32063 0.0
H169 H 0.98732 0.8588 0.35575 0.0
H170 H 0.07893 0.71308 0.2823 0.0
H171 H 0.14076 0.73522 0.31034 0.0
H172 H 0.05763 0.66229 0.31428 0.0
H173 H 0.08876 0.96019 0.35179 0.0
H174 H 0.15523 0.94581 0.36261 0.0
H175 H 0.1491 0.96579 0.32558 0.0
H176 H 0.30591 0.95635 0.36623 0.0
H177 H 0.27848 -0.00496 0.27784 0.0
H178 H 0.16479 0.77839 0.36567 0.0
H179 H 0.16671 0.84671 0.38521 0.0
H180 H 0.24055 0.8391 0.38435 0.0
H181 H 0.19049 0.91182 0.24893 0.0
H182 H 0.11935 0.89225 0.27177 0.0
H183 H 0.13757 0.82753 0.26298 0.0
C184 C 0.92791 0.89469 0.71 0.0
C185 C 0.92724 0.83637 0.70199 0.0
C186 C -0.01119 0.95471 0.71409 0.0
C187 C 0.05072 0.95531 0.71097 0.0
C188 C 0.04953 0.89441 0.70558 0.0
C189 C 0.98772 0.83601 0.70007 0.0
C190 C 0.98589 0.01794 0.71931 0.0
C191 C 0.11262 0.89006 0.7046 0.0
C192 C 0.14762 0.11598 0.67517 0.0
C193 C 0.15211 0.15465 0.69923 0.0
C194 C 0.12847 0.0484 0.67894 0.0
C195 C 0.11366 0.02105 0.70724 0.0
C196 C 0.13903 0.06501 0.7311 0.0
C197 C 0.15739 0.13248 0.72692 0.0
C198 C 0.11177 0.00424 0.65268 0.0
C199 C 0.13419 0.03848 0.76135 0.0
H200 H 0.88063 0.89412 0.71143 0.0
H201 H 0.9873 0.79052 0.69417 0.0
H202 H 0.01222 0.04256 0.73962 0.0
H203 H 0.01065 0.05389 0.70118 0.0
H204 H 0.93342 0.00767 0.72109 0.0
H205 H 0.10687 0.8496 0.71953 0.0
H206 H 0.11927 0.87533 0.68254 0.0
H207 H 0.15857 0.93772 0.71076 0.0
H208 H 0.1489 0.13513 0.65358 0.0
H209 H 0.16525 0.16375 0.74566 0.0
H210 H 0.05627 0.97241 0.65035 0.0
H211 H 0.1327 0.97057 0.65499 0.0
H212 H 0.13273 0.03453 0.63265 0.0
H213 H 0.08522 0.02615 0.77111 0.0
H214 H 0.17478 0.07701 0.77519 0.0
H215 H 0.13748 0.99206 0.76121 0.0
C216 C 0.1612 0.17396 0.87195 0.0
C217 C 0.21495 0.2094 0.89112 0.0
C218 C 0.15569 0.20468 0.84666 0.0
C219 C 0.20324 0.27324 0.84123 0.0
C220 C 0.25764 0.30922 0.86056 0.0
C221 C 0.26348 0.27642 0.8851 0.0
C222 C 0.09948 0.16397 0.82558 0.0
C223 C 0.30896 0.3826 0.85555 0.0
C224 C 0.21975 0.3442 0.7654 0.0
C225 C 0.18347 0.37747 0.76803 0.0
C226 C 0.226 0.30925 0.78897 0.0
C227 C 0.19506 0.30777 0.81567 0.0
C228 C 0.15671 0.33993 0.81808 0.0
C229 C 0.15194 0.37507 0.79422 0.0
C230 C 0.26719 0.27555 0.78552 0.0
C231 C 0.1215 0.33785 0.84596 0.0
H232 H 0.124 0.12185 0.87657 0.0
H233 H 0.30473 0.30374 0.90007 0.0
H234 H 0.06804 0.18732 0.82254 0.0
H235 H 0.12072 0.16346 0.8041 0.0
H236 H 0.0669 0.11116 0.83283 0.0
H237 H 0.34889 0.40304 0.87233 0.0
H238 H 0.33301 0.38942 0.83403 0.0
H239 H 0.28359 0.41259 0.85557 0.0
H240 H 0.24463 0.34699 0.74508 0.0
H241 H 0.12381 0.40094 0.79602 0.0
H242 H 0.23822 0.22249 0.79305 0.0
H243 H 0.31299 0.30165 0.79912 0.0
H244 H 0.28293 0.27635 0.76273 0.0
H245 H 0.08643 0.2848 0.85243 0.0
H246 H 0.09259 0.36424 0.84408 0.0
H247 H 0.15901 0.36159 0.86354 0.0
C248 C 0.25395 0.27324 0.22282 0.0
C249 C 0.24476 0.22737 0.2449 0.0
C250 C 0.20335 0.25796 0.20219 0.0
C251 C 0.14214 0.19538 0.20367 0.0
C252 C 0.13181 0.15002 0.22652 0.0
C253 C 0.18312 0.16645 0.24677 0.0
C254 C 0.21649 0.30768 0.17818 0.0
C255 C 0.06778 0.08255 0.22877 0.0
C256 C 0.98604 0.15945 0.16077 0.0
C257 C -0.00938 0.12493 0.13679 0.0
C258 C 0.03599 0.18446 0.18235 0.0
C259 C 0.09142 0.17413 0.17999 0.0
C260 C 0.09686 0.14049 0.15546 0.0
C261 C 0.04667 0.11668 0.13419 0.0
C262 C 0.02942 0.22179 0.20772 0.0
C263 C 0.15626 0.13064 0.15098 0.0
H264 H 0.3014 0.32038 0.22115 0.0
H265 H 0.1753 0.13067 0.26377 0.0
H266 H 0.2242 0.28796 0.15756 0.0
H267 H 0.17249 0.31443 0.17527 0.0
H268 H 0.26188 0.35758 0.18236 0.0
H269 H 0.06656 0.05371 0.24828 0.0
H270 H 0.02347 0.08922 0.22939 0.0
H271 H 0.06303 0.05255 0.20931 0.0
H272 H 0.94337 0.16686 0.1627 0.0
H273 H 0.05122 0.0908 0.11555 0.0
H274 H 0.07413 0.27331 0.20867 0.0
H275 H 0.02786 0.19596 0.22824 0.0
H276 H 0.98338 0.22566 0.2064 0.0
H277 H 0.19693 0.17556 0.13973 0.0
H278 H 0.14262 0.08612 0.1372 0.0
H279 H 0.17696 0.12468 0.17168 0.0
C280 C 0.88923 0.01457 0.57659 0.0
C281 C 0.93551 0.00375 0.59191 0.0
C282 C 0.85473 0.97499 0.55243 0.0
C283 C 0.86598 0.92274 0.54363 0.0
C284 C 0.90959 0.90925 0.56011 0.0
C285 C 0.94437 0.95023 0.58382 0.0
C286 C 0.80819 0.99067 0.53568 0.0
C287 C 0.91874 0.85086 0.5528 0.0
C288 C 0.75121 0.78668 0.49017 0.0
C289 C 0.78853 0.80956 0.46434 0.0
C290 C 0.77433 0.82382 0.51594 0.0
C291 C 0.83659 0.88542 0.51602 0.0
C292 C 0.87369 0.90948 0.48987 0.0
C293 C 0.84928 0.87148 0.46439 0.0
C294 C 0.73313 0.79534 0.54319 0.0
C295 C 0.9406 0.97434 0.48913 0.0
H296 H 0.88262 0.0563 0.58251 0.0
H297 H 0.97937 0.94104 0.59579 0.0
H298 H 0.82966 0.00994 0.51386 0.0
H299 H 0.75859 0.94417 0.53263 0.0
H300 H 0.80028 0.0289 0.54666 0.0
H301 H 0.95996 0.85118 0.56532 0.0
H302 H 0.87093 0.80397 0.55775 0.0
H303 H 0.92839 0.84985 0.52938 0.0
H304 H 0.70437 0.73874 0.49051 0.0
H305 H 0.87875 0.88961 0.44467 0.0
H306 H 0.73462 0.83563 0.55679 0.0
H307 H 0.75416 0.76962 0.55605 0.0
H308 H 0.67974 0.75781 0.53827 0.0
H309 H 0.93411 0.01641 0.49648 0.0
H310 H 0.96395 0.98626 0.46725 0.0
H311 H 0.97556 0.97084 0.50445 0.0
C312 C 0.77489 0.81465 0.9593 0.0
C313 C 0.71619 0.81824 0.96224 0.0
C314 C 0.78957 0.79322 0.93331 0.0
C315 C 0.74465 0.77519 0.90968 0.0
C316 C 0.68261 0.77299 0.91341 0.0
C317 C 0.66893 0.79407 0.9397 0.0
C318 C 0.85627 0.79646 0.93036 0.0
C319 C 0.63323 0.75409 0.88882 0.0
C320 C 0.81834 0.82012 0.83393 0.0
C321 C 0.80241 0.75722 0.82271 0.0
C322 C 0.8013 0.82658 0.86237 0.0
C323 C 0.76646 0.76856 0.88009 0.0
C324 C 0.751 0.70498 0.86913 0.0
C325 C 0.76922 0.70003 0.84055 0.0
C326 C 0.8199 0.89568 0.87321 0.0
C327 C 0.71542 0.64235 0.88764 0.0
H328 H 0.81172 0.83291 0.97656 0.0
H329 H 0.62309 0.79601 0.94176 0.0
H330 H 0.85145 0.75432 0.91703 0.0
H331 H 0.89261 0.84435 0.91944 0.0
H332 H 0.87742 0.79513 0.95177 0.0
H333 H 0.58384 0.74622 0.89621 0.0
H334 H 0.65423 0.79497 0.87236 0.0
H335 H 0.62495 0.70754 0.87809 0.0
H336 H 0.84478 0.86488 0.82053 0.0
H337 H 0.75757 0.65141 0.8322 0.0
H338 H 0.84251 0.90474 0.89508 0.0
H339 H 0.77384 0.89938 0.87481 0.0
H340 H 0.85635 0.93627 0.85863 0.0
H341 H 0.74435 0.64932 0.90779 0.0
H342 H 0.70889 0.59706 0.87626 0.0
H343 H 0.66508 0.63324 0.89412 0.0
C344 C 0.96184 0.78783 0.20966 0.0
C345 C 0.9822 0.83749 0.23103 0.0
C346 C -0.00057 0.80015 0.18395 0.0
C347 C 0.05792 0.86397 0.17931 0.0
C348 C 0.07848 0.91406 0.20088 0.0
C349 C 0.04056 0.90021 0.22637 0.0
C350 C 0.97652 0.74517 0.16169 0.0
C351 C 0.14018 0.98291 0.19686 0.0
C352 C 0.2034 0.90873 0.12793 0.0
C353 C 0.18939 0.94074 0.10539 0.0
C354 C 0.15791 0.87788 0.15103 0.0
C355 C 0.09757 0.88004 0.15183 0.0
C356 C 0.08085 0.90691 0.12775 0.0
C357 C 0.12698 0.93712 0.10499 0.0
C358 C 0.17616 0.84603 0.17524 0.0
C359 C 0.01681 0.90887 0.12611 0.0
H360 H 0.91686 0.7392 0.21311 0.0
H361 H 0.05654 0.93909 0.24263 0.0
H362 H 0.96131 0.76052 0.14165 0.0
H363 H 0.01867 0.73713 0.15591 0.0
H364 H 0.93326 0.69677 0.16946 0.0
H365 H 0.14849 0.01706 0.21528 0.0
H366 H 0.18569 0.9786 0.19447 0.0
H367 H 0.135 0.00597 0.1767 0.0
H368 H 0.25108 0.91007 0.12819 0.0
H369 H 0.11492 0.96045 0.08741 0.0
H370 H 0.13124 0.79866 0.18273 0.0
H371 H 0.19555 0.88085 0.1939 0.0
H372 H 0.21575 0.83487 0.16849 0.0
H373 H 0.9784 0.8755 0.14206 0.0
H374 H -0.00536 0.89403 0.10415 0.0
H375 H 0.02938 0.96161 0.12942 0.0
C376 C 0.08169 0.86956 0.59368 0.0
C377 C 0.05724 0.80004 0.59256 0.0
C378 C 0.12026 0.91279 0.57083 0.0
C379 C 0.13488 0.88602 0.54609 0.0
C380 C 0.11251 0.81633 0.5454 0.0
C381 C 0.07413 0.7744 0.5685 0.0
C382 C 0.1443 0.98678 0.57369 0.0
C383 C 0.12757 0.78556 0.51979 0.0
C384 C 0.16517 0.97417 0.47288 0.0
C385 C 0.23569 0.00953 0.47067 0.0
C386 C 0.13215 0.93481 0.49741 0.0
C387 C 0.17013 0.9294 0.52024 0.0
C388 C 0.24136 0.96526 0.51821 0.0
C389 C 0.27328 0.00516 0.49357 0.0
C390 C 0.0566 0.90095 0.49945 0.0
C391 C 0.28378 0.96201 0.54226 0.0
H392 H 0.06913 0.89019 0.61205 0.0
H393 H 0.05577 0.72089 0.56728 0.0
H394 H 0.16909 0.01659 0.55398 0.0
H395 H 0.10131 0.99357 0.57936 0.0
H396 H 0.181 0.00774 0.5917 0.0
H397 H 0.11119 0.73173 0.52345 0.0
H398 H 0.10141 0.78928 0.50035 0.0
H399 H 0.18241 0.81367 0.51502 0.0
H400 H 0.13561 0.9784 0.45566 0.0
H401 H 0.32779 0.03268 0.4922 0.0
H402 H 0.04363 0.92128 0.5185 0.0
H403 H 0.03396 0.84596 0.50287 0.0
H404 H 0.03392 0.90937 0.47986 0.0
H405 H 0.27488 0.98247 0.5624 0.0
H406 H 0.33845 0.99098 0.53708 0.0
H407 H 0.26884 0.90883 0.54663 0.0
C408 C 0.4366 0.06119 0.97782 0.0
C409 C 0.37145 0.03031 0.98929 0.0
C410 C 0.48521 0.04968 0.99038 0.0
C411 C 0.4671 0.00522 0.01436 0.0
C412 C 0.40002 0.97054 0.02462 0.0
C413 C 0.3531 0.98428 0.01217 0.0
C414 C 0.55666 0.08794 0.9791 0.0
C415 C 0.37868 0.92163 0.04968 0.0
C416 C 0.5894 0.94835 0.03356 0.0
C417 C 0.62746 -0.00566 0.05528 0.0
C418 C 0.53529 0.9496 0.02069 0.0
C419 C 0.51921 -0.00186 0.02982 0.0
C420 C 0.55476 0.0419 0.05303 0.0
C421 C 0.60859 0.03924 0.06568 0.0
C422 C 0.49797 0.90166 0.99625 0.0
C423 C 0.5387 0.0943 0.06324 0.0
H424 H 0.45059 0.09739 0.96033 0.0
H425 H 0.30235 0.96051 0.02089 0.0
H426 H 0.59017 0.12334 0.99591 0.0
H427 H 0.57494 0.05281 0.97433 0.0
H428 H 0.5614 0.11719 0.95919 0.0
H429 H 0.32311 0.89277 0.05261 0.0
H430 H 0.39646 0.88553 0.04642 0.0
H431 H 0.40193 0.94959 0.0699 0.0
H432 H 0.60421 0.91354 0.02563 0.0
H433 H 0.63873 0.07539 0.08217 0.0
H434 H 0.50851 0.93029 0.97568 0.0
H435 H 0.44282 0.8757 1.00005 0.0
H436 H 0.51289 0.86311 0.99357 0.0
H437 H 0.55225 0.13289 0.04607 0.0
H438 H 0.56632 0.11981 0.08329 0.0
H439 H 0.48394 0.07084 0.06734 0.0
C440 C 0.38255 0.3481 0.35817 0.0
C441 C 0.40526 0.30471 0.36649 0.0
C442 C 0.42821 0.41661 0.35322 0.0
C443 C 0.49803 0.44142 0.35621 0.0
C444 C 0.52091 0.39757 0.36521 0.0
C445 C 0.47392 0.32941 0.37038 0.0
C446 C 0.40184 0.46174 0.34387 0.0
C447 C 0.59504 0.42225 0.36847 0.0
C448 C 0.62403 0.59044 0.31164 0.0
C449 C 0.65347 0.641 0.33262 0.0
C450 C 0.57149 0.52587 0.31887 0.0
C451 C 0.54765 0.51171 0.34772 0.0
C452 C 0.57418 0.56367 0.36858 0.0
C453 C 0.62678 0.62804 0.3607 0.0
C454 C 0.54368 0.47196 0.29592 0.0
C455 C 0.54836 0.55066 0.39932 0.0
H456 H 0.32902 0.32813 0.3552 0.0
H457 H 0.49081 0.29508 0.37673 0.0
H458 H 0.42545 0.50879 0.35671 0.0
H459 H 0.41513 0.47627 0.32085 0.0
H460 H 0.34624 0.43665 0.34621 0.0
H461 H 0.60431 0.38232 0.37663 0.0
H462 H 0.62079 0.44042 0.34726 0.0
H463 H 0.61829 0.46538 0.38361 0.0
H464 H 0.64388 0.60038 0.28976 0.0
H465 H 0.64831 0.66774 0.37671 0.0
H466 H 0.48829 0.44904 0.29429 0.0
H467 H 0.55356 0.4313 0.30208 0.0
H468 H 0.56637 0.4917 0.27429 0.0
H469 H 0.57423 0.59658 0.4129 0.0
H470 H 0.55549 0.5108 0.40919 0.0
H471 H 0.49351 0.53193 0.39956 0.0
C472 C 0.92665 0.31963 0.64983 0.0
C473 C 0.97153 0.31586 0.66914 0.0
C474 C 0.90366 0.36464 0.65471 0.0
C475 C 0.92822 0.40811 0.67885 0.0
C476 C 0.97207 0.40311 0.69874 0.0
C477 C -0.0081 0.35599 0.69393 0.0
C478 C 0.85462 0.36668 0.63371 0.0
C479 C 0.00011 0.44913 0.72461 0.0
C480 C 0.94629 0.57989 0.67923 0.0
C481 C 0.90008 0.57111 0.70086 0.0
C482 C 0.95354 0.52587 0.6705 0.0
C483 C 0.91158 0.46152 0.68301 0.0
C484 C 0.86067 0.45147 0.70298 0.0
C485 C 0.85661 0.50701 0.71226 0.0
C486 C 0.00924 0.53878 0.64956 0.0
C487 C 0.81261 0.38277 0.71547 0.0
H488 H 0.90981 0.28777 0.63085 0.0
H489 H 0.02497 0.35201 0.7093 0.0
H490 H 0.81603 0.37312 0.64526 0.0
H491 H 0.8821 0.41018 0.61882 0.0
H492 H 0.82878 0.32018 0.62048 0.0
H493 H 0.03536 0.43984 0.73743 0.0
H494 H 0.0273 0.50249 0.71734 0.0
H495 H 0.9585 0.44212 0.73901 0.0
H496 H 0.97927 0.62977 0.67034 0.0
H497 H 0.81967 0.50043 0.72848 0.0
H498 H -0.01083 0.50237 0.63148 0.0
H499 H 0.0476 0.5315 0.66083 0.0
H500 H 0.03443 0.59063 0.64044 0.0
H501 H 0.79358 0.34409 0.69821 0.0
H502 H 0.769 0.38138 0.72644 0.0
H503 H 0.83933 0.36891 0.7315 0.0
C504 C 0.46545 0.24713 0.11785 0.0
C505 C 0.44984 0.18674 0.10409 0.0
C506 C 0.47436 0.25433 0.14788 0.0
C507 C 0.46978 0.20065 0.16463 0.0
C508 C 0.45752 0.14075 0.1508 0.0
C509 C 0.44674 0.13412 0.12073 0.0
C510 C 0.48632 0.31873 0.1618 0.0
C511 C 0.45391 0.08303 0.16781 0.0
C512 C 0.55248 0.2623 0.23753 0.0
C513 C 0.49712 0.24759 0.25532 0.0
C514 C 0.54379 0.24226 0.20848 0.0
C515 C 0.47826 0.20836 0.19659 0.0
C516 C 0.42185 0.18945 0.21483 0.0
C517 C 0.43216 0.20803 0.24415 0.0
C518 C 0.60513 0.26099 0.19009 0.0
C519 C 0.35096 0.15416 0.20304 0.0
H520 H 0.4676 0.28802 0.10535 0.0
H521 H 0.43396 0.08696 0.11046 0.0
H522 H 0.44624 0.3072 0.17801 0.0
H523 H 0.5351 0.34334 0.17342 0.0
H524 H 0.48693 0.35505 0.14578 0.0
H525 H 0.49817 0.10144 0.18228 0.0
H526 H 0.40826 0.05992 0.18171 0.0
H527 H 0.4519 0.0434 0.15352 0.0
H528 H 0.60313 0.29142 0.24604 0.0
H529 H 0.38946 0.1942 0.2579 0.0
H530 H 0.61438 0.30263 0.17517 0.0
H531 H 0.59688 0.21766 0.17665 0.0
H532 H 0.65099 0.27763 0.20341 0.0
H533 H 0.34389 0.19009 0.18961 0.0
H534 H 0.31245 0.1348 0.22054 0.0
H535 H 0.34195 0.11159 0.18893 0.0
C536 C 0.07285 0.12404 0.42004 0.0
C537 C 0.13157 0.12755 0.40934 0.0
C538 C 0.07016 0.14527 0.44817 0.0
C539 C 0.1284 0.17256 0.46581 0.0
C540 C 0.18784 0.17664 0.45508 0.0
C541 C 0.18793 0.15284 0.42729 0.0
C542 C 0.00484 0.13893 0.45836 0.0
C543 C 0.25176 0.20569 0.47266 0.0
C544 C 0.11971 0.27232 0.52905 0.0
C545 C 0.10914 0.2288 0.5522 0.0
C546 C 0.13012 0.25647 0.50095 0.0
C547 C 0.12613 0.19397 0.49581 0.0
C548 C 0.11699 0.15057 0.51932 0.0
C549 C 0.1102 0.16936 0.54731 0.0
C550 C 0.14402 0.30609 0.47679 0.0
C551 C 0.11328 0.08374 0.5153 0.0
H552 H 0.02849 0.10437 0.4065 0.0
H553 H 0.23276 0.15517 0.41964 0.0
H554 H -0.0005 0.13595 0.48225 0.0
H555 H 0.00258 0.18341 0.45075 0.0
H556 H 0.96092 0.09373 0.44889 0.0
H557 H 0.29696 0.22871 0.45842 0.0
H558 H 0.25621 0.24439 0.48817 0.0
H559 H 0.25214 0.16456 0.485 0.0
H560 H 0.11929 0.31848 0.53287 0.0
H561 H 0.10206 0.13544 0.56515 0.0
H562 H 0.09713 0.28988 0.4644 0.0
H563 H 0.18258 0.3084 0.46165 0.0
H564 H 0.16165 0.35749 0.48521 0.0
H565 H 0.08113 0.04699 0.53221 0.0
H566 H 0.16458 0.09134 0.51744 0.0
H567 H 0.09352 0.06137 0.49377 0.0
C568 C 0.87802 0.10635 0.78548 0.0
C569 C 0.92857 0.17411 0.78217 0.0
C570 C 0.8462 0.08105 0.81231 0.0
C571 C 0.86552 0.12455 0.83649 0.0
C572 C 0.91256 0.19406 0.8327 0.0
C573 C 0.94381 0.21795 0.80566 0.0
C574 C 0.79637 0.00651 0.8149 0.0
C575 C 0.93319 0.24249 0.8577 0.0
C576 C 0.77457 0.06027 0.90909 0.0
C577 C 0.81714 0.04215 0.92301 0.0
C578 C 0.78895 0.08683 0.8807 0.0
C579 C 0.84741 0.09588 0.8663 0.0
C580 C 0.89016 0.07765 0.88047 0.0
C581 C 0.87455 0.05118 0.90845 0.0
C582 C 0.74159 0.10457 0.86603 0.0
C583 C 0.9536 0.08732 0.86639 0.0
H584 H 0.86526 0.07201 0.76746 0.0
H585 H 0.9821 0.27062 0.80327 0.0
H586 H 0.82449 0.97953 0.8174 0.0
H587 H 0.76186 -0.00614 0.83365 0.0
H588 H 0.76579 0.98741 0.79491 0.0
H589 H 0.96186 0.29581 0.85038 0.0
H590 H 0.88828 0.23426 0.87003 0.0
H591 H 0.96528 0.23352 0.87277 0.0
H592 H 0.73003 0.05327 0.92023 0.0
H593 H 0.90836 0.0382 0.91907 0.0
H594 H 0.72104 0.07402 0.84614 0.0
H595 H 0.76927 0.15826 0.85928 0.0
H596 H 0.69894 0.09566 0.88027 0.0
H597 H 0.94292 0.06575 0.84429 0.0
H598 H 0.9773 0.06371 0.87899 0.0
H599 H -0.00957 0.14201 0.86453 0.0
C600 C 0.76768 0.93181 0.13752 0.0
C601 C 0.82067 0.93256 0.12232 0.0
C602 C 0.76779 0.93324 0.16801 0.0
C603 C 0.8227 0.93665 0.18332 0.0
C604 C 0.87801 0.94159 0.16778 0.0
C605 C 0.87565 0.93833 0.13752 0.0
C606 C 0.70774 0.92742 0.18381 0.0
C607 C 0.93832 0.94629 0.18285 0.0
C608 C 0.8662 0.98303 0.26207 0.0
C609 C 0.84855 0.92036 0.27442 0.0
C610 C 0.85269 0.98857 0.23288 0.0
C611 C 0.82143 0.93025 0.21544 0.0
C612 C 0.79999 0.8666 0.22815 0.0
C613 C 0.8131 0.86257 0.25748 0.0
C614 C 0.87736 0.05734 0.22001 0.0
C615 C 0.76736 0.80303 0.21035 0.0
H616 H 0.72487 0.92687 0.12565 0.0
H617 H 0.91662 0.93967 0.12557 0.0
H618 H 0.67955 0.87734 0.19448 0.0
H619 H 0.72421 0.96595 0.20104 0.0
H620 H 0.67302 0.93311 0.169 0.0
H621 H 0.98517 0.97997 0.17071 0.0
H622 H 0.94487 0.96537 0.20525 0.0
H623 H 0.93207 0.89539 0.18384 0.0
H624 H 0.89299 0.02838 0.27489 0.0
H625 H 0.7968 0.81405 0.26674 0.0
H626 H 0.83656 0.0583 0.20773 0.0
H627 H 0.91839 0.06846 0.20451 0.0
H628 H 0.89674 0.09746 0.23667 0.0
H629 H 0.72822 0.8017 0.19596 0.0
H630 H 0.74402 0.75701 0.22411 0.0
H631 H 0.80614 0.80203 0.19644 0.0
C632 C 0.68557 0.55472 0.45142 0.0
C633 C 0.73072 0.54839 0.43315 0.0
C634 C 0.69015 0.55124 0.48152 0.0
C635 C 0.73937 0.53875 0.49329 0.0
C636 C 0.77465 0.51827 0.47487 0.0
C637 C 0.77044 0.52393 0.44479 0.0
C638 C 0.65 0.57141 0.50047 0.0
C639 C 0.82407 0.4999 0.48684 0.0
C640 C 0.8447 0.66431 0.5505 0.0
C641 C 0.81442 0.62961 0.5761 0.0
C642 C 0.82105 0.63475 0.52357 0.0
C643 C 0.76771 0.5669 0.52214 0.0
C644 C 0.74036 0.52946 0.548 0.0
C645 C 0.76366 0.56166 0.57487 0.0
C646 C 0.85193 0.67744 0.49673 0.0
C647 C 0.68516 0.4565 0.54755 0.0
H648 H 0.65257 0.5708 0.44257 0.0
H649 H 0.80369 0.51622 0.4308 0.0
H650 H 0.62844 0.53667 0.5192 0.0
H651 H 0.68374 0.62279 0.50905 0.0
H652 H 0.60842 0.57162 0.48842 0.0
H653 H 0.83365 0.46915 0.47123 0.0
H654 H 0.87267 0.54659 0.49126 0.0
H655 H 0.80535 0.47161 0.5075 0.0
H656 H 0.88709 0.71521 0.55151 0.0
H657 H 0.74115 0.53423 0.59476 0.0
H658 H 0.81245 0.67956 0.48385 0.0
H659 H 0.87464 0.65487 0.48294 0.0
H660 H 0.89165 0.7299 0.50191 0.0
H661 H 0.63558 0.45348 0.54813 0.0
H662 H 0.68806 0.42926 0.56686 0.0
H663 H 0.68735 0.43047 0.52779 0.0
C664 C 0.09489 0.82647 0.812 0.0
C665 C 0.05003 0.83692 0.79544 0.0
C666 C 0.12146 0.86148 0.83795 0.0
C667 C 0.10236 0.90769 0.84753 0.0
C668 C 0.06242 0.92314 0.82947 0.0
C669 C 0.03713 0.88793 0.80352 0.0
C670 C 0.16398 0.8436 0.85652 0.0
C671 C 0.04113 0.97225 0.83881 0.0
C672 C 0.07008 0.91719 0.92723 0.0
C673 C 0.12688 0.97824 0.93548 0.0
C674 C 0.06355 0.89223 0.89907 0.0
C675 C 0.11365 0.93048 0.87814 0.0
C676 C 0.17206 0.99091 0.88642 0.0
C677 C 0.17871 0.01286 0.91521 0.0
C678 C 0.0016 0.82591 0.89153 0.0
C679 C 0.22609 0.03389 0.86468 0.0
H680 H 0.10567 0.78763 0.80574 0.0
H681 H 0.00305 0.89695 0.79074 0.0
H682 H 0.20705 0.88942 0.86595 0.0
H683 H 0.13293 0.8111 0.87475 0.0
H684 H 0.18364 0.81599 0.84412 0.0
H685 H 0.01936 0.98665 0.82067 0.0
H686 H 0.00248 0.94908 0.85615 0.0
H687 H 0.08465 0.01831 0.8478 0.0
H688 H 0.02994 0.88888 0.9427 0.0
H689 H 0.22375 0.05812 0.92143 0.0
H690 H 0.01452 0.79497 0.87762 0.0
H691 H 0.9659 0.83561 0.87934 0.0
H692 H 0.9758 0.79602 0.91119 0.0
H693 H 0.27178 0.0751 0.87517 0.0
H694 H 0.20616 0.05676 0.84941 0.0
H695 H 0.24066 0.00282 0.85175 0.0
loop_
_geom_bond_atom_site_label_1
_geom_bond_atom_site_label_2
_geom_bond_distance
_geom_bond_site_symmetry_2
_ccdc_geom_bond_type
Zn0 O6 1.969 . S
Zn0 O7 1.965 . S
Zn0 O11 2.024 1_545 S
Zn0 O16 1.969 . S
Zn1 O8 1.969 . S
Zn1 O14 1.969 1_545 S
Zn1 O15 1.965 1_545 S
Zn1 O17 2.024 . S
C2 O3 1.229 . S
C2 O11 1.058 . S
O3 C2 1.229 . S
C4 O5 1.229 . S
C4 O17 1.058 . S
O5 C4 1.229 . S
O6 Zn0 1.969 . S
O6 C9 1.267 . S
O7 Zn0 1.965 . S
O7 C18 1.260 1_556 S
O8 Zn1 1.969 . S
O8 C18 1.258 . S
C9 O6 1.267 . S
C9 O10 1.228 . S
O10 C9 1.228 . S
O11 Zn0 2.024 1_565 S
O11 C2 1.058 . S
C12 O13 1.228 . S
C12 O14 1.267 . S
O13 C12 1.228 . S
O14 Zn1 1.969 1_565 S
O14 C12 1.267 . S
O15 Zn1 1.965 1_565 S
O15 C19 1.260 1_565 S
O16 Zn0 1.969 . S
O16 C19 1.258 1_556 S
O17 Zn1 2.024 . S
O17 C4 1.058 . S
C18 O7 1.260 1_554 S
C18 O8 1.258 . S
C19 O15 1.260 1_545 S
C19 O16 1.258 1_554 S
Zn20 O26 1.969 . S
Zn20 O27 1.965 . S
Zn20 O31 2.024 . S
Zn20 O36 1.969 . S
Zn21 O28 1.969 . S
Zn21 O34 1.969 . S
Zn21 O35 1.965 . S
Zn21 O37 2.024 . S
C22 O23 1.229 . S
C22 O31 1.058 . S
O23 C22 1.229 . S
C24 O25 1.229 . S
C24 O37 1.058 . S
O25 C24 1.229 . S
O26 Zn20 1.969 . S
O26 C29 1.267 . S
O27 Zn20 1.965 . S
O27 C38 1.260 . S
O28 Zn21 1.969 . S
O28 C38 1.258 . S
C29 O26 1.267 . S
C29 O30 1.228 . S
O30 C29 1.228 . S
O31 Zn20 2.024 . S
O31 C22 1.058 . S
C32 O33 1.228 . S
C32 O34 1.267 . S
O33 C32 1.228 . S
O34 Zn21 1.969 . S
O34 C32 1.267 . S
O35 Zn21 1.965 . S
O35 C39 1.260 . S
O36 Zn20 1.969 . S
O36 C39 1.258 . S
O37 Zn21 2.024 . S
O37 C24 1.058 . S
C38 O27 1.260 . S
C38 O28 1.258 . S
C39 O35 1.260 . S
C39 O36 1.258 . S
Zn40 O46 1.969 . S
Zn40 O47 1.965 . S
Zn40 O51 2.024 1_655 S
Zn40 O56 1.969 1_655 S
Zn41 O48 1.969 . S
Zn41 O54 1.969 . S
Zn41 O55 1.965 . S
Zn41 O57 2.024 1_455 S
C42 O43 1.229 . S
C42 O51 1.058 . S
O43 C42 1.229 . S
C44 O45 1.229 . S
C44 O57 1.058 . S
O45 C44 1.229 . S
O46 Zn40 1.969 . S
O46 C49 1.267 . S
O47 Zn40 1.965 . S
O47 C58 1.260 . S
O48 Zn41 1.969 . S
O48 C58 1.258 1_455 S
C49 O46 1.267 . S
C49 O50 1.228 . S
O50 C49 1.228 . S
O51 Zn40 2.024 1_455 S
O51 C42 1.058 . S
C52 O53 1.228 . S
C52 O54 1.267 . S
O53 C52 1.228 . S
O54 Zn41 1.969 . S
O54 C52 1.267 . S
O55 Zn41 1.965 . S
O55 C59 1.260 . S
O56 Zn40 1.969 1_455 S
O56 C59 1.258 . S
O57 Zn41 2.024 1_655 S
O57 C44 1.058 . S
C58 O47 1.260 . S
C58 O48 1.258 1_655 S
C59 O55 1.260 . S
C59 O56 1.258 . S
Zn60 O66 1.969 . S
Zn60 O67 1.965 . S
Zn60 O71 2.024 1_545 S
Zn60 O76 1.969 . S
Zn61 O68 1.969 . S
Zn61 O74 1.969 1_545 S
Zn61 O75 1.964 . S
Zn61 O77 2.024 . S
C62 O63 1.229 . S
C62 O71 1.058 . S
O63 C62 1.229 . S
C64 O65 1.229 . S
C64 O77 1.058 . S
O65 C64 1.229 . S
O66 Zn60 1.969 . S
O66 C69 1.267 . S
O67 Zn60 1.965 . S
O67 C78 1.260 . S
O68 Zn61 1.969 . S
O68 C78 1.258 1_556 S
C69 O66 1.267 . S
C69 O70 1.228 . S
O70 C69 1.228 . S
O71 Zn60 2.024 1_565 S
O71 C62 1.058 . S
C72 O73 1.228 . S
C72 O74 1.267 . S
O73 C72 1.228 . S
O74 Zn61 1.969 1_565 S
O74 C72 1.267 . S
O75 Zn61 1.964 . S
O75 C79 1.265 1_556 S
O76 Zn60 1.969 . S
O76 C79 1.258 . S
O77 Zn61 2.024 . S
O77 C64 1.058 . S
C78 O67 1.260 . S
C78 O68 1.258 1_554 S
C79 O75 1.265 1_554 S
C79 O76 1.258 . S
Zn80 O86 1.969 . S
Zn80 O87 1.965 . S
Zn80 O91 2.024 . S
Zn80 O96 1.969 . S
Zn81 O88 1.969 . S
Zn81 O94 1.969 . S
Zn81 O95 1.965 . S
Zn81 O97 2.024 . S
C82 O83 1.229 . S
C82 O91 1.058 . S
O83 C82 1.229 . S
C84 O85 1.229 . S
C84 O97 1.058 . S
O85 C84 1.229 . S
O86 Zn80 1.969 . S
O86 C89 1.267 . S
O87 Zn80 1.965 . S
O87 C98 1.260 . S
O88 Zn81 1.969 . S
O88 C98 1.258 . S
C89 O86 1.267 . S
C89 O90 1.228 . S
O90 C89 1.228 . S
O91 Zn80 2.024 . S
O91 C82 1.058 . S
C92 O93 1.228 . S
C92 O94 1.267 . S
O93 C92 1.228 . S
O94 Zn81 1.969 . S
O94 C92 1.267 . S
O95 Zn81 1.965 . S
O95 C99 1.260 . S
O96 Zn80 1.969 . S
O96 C99 1.258 . S
O97 Zn81 2.024 . S
O97 C84 1.058 . S
C98 O87 1.260 . S
C98 O88 1.258 . S
C99 O95 1.260 . S
C99 O96 1.258 . S
Zn100 O106 1.969 . S
Zn100 O107 1.965 . S
Zn100 O111 2.024 1_655 S
Zn100 O116 1.969 1_655 S
Zn101 O108 1.969 . S
Zn101 O114 1.969 . S
Zn101 O115 1.965 . S
Zn101 O117 2.024 1_455 S
C102 O103 1.229 . S
C102 O111 1.058 . S
O103 C102 1.229 . S
C104 O105 1.229 . S
C104 O117 1.058 . S
O105 C104 1.229 . S
O106 Zn100 1.969 . S
O106 C109 1.267 . S
O107 Zn100 1.965 . S
O107 C118 1.260 . S
O108 Zn101 1.969 . S
O108 C118 1.258 1_455 S
C109 O106 1.267 . S
C109 O110 1.228 . S
O110 C109 1.228 . S
O111 Zn100 2.024 1_455 S
O111 C102 1.058 . S
C112 O113 1.228 . S
C112 O114 1.267 . S
O113 C112 1.228 . S
O114 Zn101 1.969 . S
O114 C112 1.267 . S
O115 Zn101 1.965 . S
O115 C119 1.260 . S
O116 Zn100 1.969 1_455 S
O116 C119 1.258 . S
O117 Zn101 2.024 1_655 S
O117 C104 1.058 . S
C118 O107 1.260 . S
C118 O108 1.258 1_655 S
C119 O115 1.260 . S
C119 O116 1.258 . S
C120 C121 1.391 . S
C120 C122 1.394 . S
C120 H136 0.931 . S
C121 C120 1.391 . S
C121 C125 1.376 1_554 S
C122 C120 1.394 . S
C122 C123 1.369 1_655 S
C122 C126 1.531 1_645 S
C123 C122 1.369 1_455 S
C123 C124 1.410 1_554 S
C123 C131 1.503 . S
C124 C123 1.410 1_556 S
C124 C125 1.392 1_455 S
C124 C127 1.511 . S
C125 C121 1.376 1_556 S
C125 C124 1.392 1_655 S
C125 H137 0.929 . S
C126 C122 1.531 1_465 S
C126 H138 0.960 . S
C126 H139 0.962 1_565 S
C126 H140 0.960 1_455 S
C127 C124 1.511 . S
C127 H141 0.961 . S
C127 H142 0.961 . S
C127 H143 0.961 . S
C128 C129 1.370 . S
C128 C130 1.363 . S
C128 H144 0.931 . S
C129 C128 1.370 . S
C129 C133 1.408 1_544 S
C130 C128 1.363 . S
C130 C131 1.370 . S
C130 C134 1.524 . S
C131 C123 1.503 . S
C131 C130 1.370 . S
C131 C132 1.403 1_544 S
C132 C131 1.403 1_566 S
C132 C133 1.404 . S
C132 C135 1.539 . S
C133 C129 1.408 1_566 S
C133 C132 1.404 . S
C133 H145 0.930 . S
C134 C130 1.524 . S
C134 H146 0.956 . S
C134 H147 0.961 . S
C134 H148 0.961 . S
C135 C132 1.539 . S
C135 H149 0.958 1_556 S
C135 H150 0.961 . S
C135 H151 0.961 1_455 S
H136 C120 0.931 . S
H137 C125 0.929 . S
H138 C126 0.960 . S
H139 C126 0.962 1_545 S
H140 C126 0.960 1_655 S
H141 C127 0.961 . S
H142 C127 0.961 . S
H143 C127 0.961 . S
H144 C128 0.931 . S
H145 C133 0.930 . S
H146 C134 0.956 . S
H147 C134 0.961 . S
H148 C134 0.961 . S
H149 C135 0.958 1_554 S
H150 C135 0.961 . S
H151 C135 0.961 1_655 S
C152 C153 1.391 . S
C152 C154 1.394 1_655 S
C152 H168 0.931 . S
C153 C152 1.391 . S
C153 C157 1.376 . S
C154 C152 1.394 1_455 S
C154 C155 1.369 . S
C154 C158 1.531 . S
C155 C154 1.369 . S
C155 C156 1.410 1_455 S
C155 C163 1.503 1_565 S
C156 C155 1.410 1_655 S
C156 C157 1.392 . S
C156 C159 1.511 1_565 S
C157 C153 1.376 . S
C157 C156 1.392 . S
C157 H169 0.929 . S
C158 C154 1.531 . S
C158 H170 0.960 . S
C158 H171 0.962 . S
C158 H172 0.960 . S
C159 C156 1.511 1_545 S
C159 H173 0.961 . S
C159 H174 0.961 1_655 S
C159 H175 0.961 . S
C160 C161 1.370 . S
C160 C162 1.363 . S
C160 H176 0.931 . S
C161 C160 1.370 . S
C161 C165 1.408 . S
C162 C160 1.363 . S
C162 C163 1.370 . S
C162 C166 1.524 1_545 S
C163 C155 1.503 1_545 S
C163 C162 1.370 . S
C163 C164 1.403 . S
C164 C163 1.403 . S
C164 C165 1.404 . S
C164 C167 1.539 . S
C165 C161 1.408 . S
C165 C164 1.404 . S
C165 H177 0.930 . S
C166 C162 1.524 1_565 S
C166 H178 0.956 . S
C166 H179 0.961 . S
C166 H180 0.961 1_565 S
C167 C164 1.539 . S
C167 H181 0.958 . S
C167 H182 0.961 . S
C167 H183 0.960 . S
H168 C152 0.931 . S
H169 C157 0.929 . S
H170 C158 0.960 . S
H171 C158 0.962 . S
H172 C158 0.960 . S
H173 C159 0.961 . S
H174 C159 0.961 1_455 S
H175 C159 0.961 . S
H176 C160 0.931 . S
H177 C165 0.930 . S
H178 C166 0.956 . S
H179 C166 0.961 . S
H180 C166 0.961 1_545 S
H181 C167 0.958 . S
H182 C167 0.961 . S
H183 C167 0.960 . S
C184 C185 1.376 1_655 S
C184 C186 1.394 . S
C184 H200 0.931 . S
C185 C184 1.376 1_455 S
C185 C189 1.384 . S
C186 C184 1.394 . S
C186 C187 1.369 1_655 S
C186 C190 1.531 . S
C187 C186 1.369 1_455 S
C187 C188 1.410 . S
C187 C195 1.503 1_565 S
C188 C187 1.410 . S
C188 C189 1.392 . S
C188 C191 1.511 1_565 S
C189 C185 1.384 . S
C189 C188 1.392 . S
C189 H201 0.929 . S
C190 C186 1.531 . S
C190 H202 0.960 . S
C190 H203 0.962 . S
C190 H204 0.960 . S
C191 C188 1.511 1_545 S
C191 H205 0.962 . S
C191 H206 0.961 . S
C191 H207 0.961 . S
C192 C193 1.372 1_655 S
C192 C194 1.363 . S
C192 H208 0.931 . S
C193 C192 1.372 1_455 S
C193 C197 1.415 . S
C194 C192 1.363 . S
C194 C195 1.370 1_655 S
C194 C198 1.524 1_545 S
C195 C187 1.503 1_545 S
C195 C194 1.370 1_455 S
C195 C196 1.403 . S
C196 C195 1.403 . S
C196 C197 1.404 . S
C196 C199 1.539 . S
C197 C193 1.415 . S
C197 C196 1.404 . S
C197 H209 0.930 . S
C198 C194 1.524 1_565 S
C198 H210 0.956 . S
C198 H211 0.961 1_655 S
C198 H212 0.961 1_565 S
C199 C196 1.539 . S
C199 H213 0.969 . S
C199 H214 0.961 . S
C199 H215 0.960 . S
H200 C184 0.931 . S
H201 C189 0.929 . S
H202 C190 0.960 . S
H203 C190 0.962 . S
H204 C190 0.960 . S
H205 C191 0.962 . S
H206 C191 0.961 . S
H207 C191 0.961 . S
H208 C192 0.931 . S
H209 C197 0.930 . S
H210 C198 0.956 . S
H211 C198 0.961 1_455 S
H212 C198 0.961 1_545 S
H213 C199 0.969 . S
H214 C199 0.961 . S
H215 C199 0.960 . S
C216 C217 1.391 . S
C216 C218 1.394 . S
C216 H232 0.931 . S
C217 C216 1.391 . S
C217 C221 1.376 . S
C218 C216 1.394 . S
C218 C219 1.369 . S
C218 C222 1.531 . S
C219 C218 1.369 . S
C219 C220 1.410 . S
C219 C227 1.503 . S
C220 C219 1.410 . S
C220 C221 1.392 . S
C220 C223 1.511 . S
C221 C217 1.376 . S
C221 C220 1.392 . S
C221 H233 0.929 . S
C222 C218 1.531 . S
C222 H234 0.960 . S
C222 H235 0.962 . S
C222 H236 0.960 . S
C223 C220 1.511 . S
C223 H237 0.961 . S
C223 H238 0.961 . S
C223 H239 0.961 . S
C224 C225 1.370 . S
C224 C226 1.363 . S
C224 H240 0.931 . S
C225 C224 1.370 . S
C225 C229 1.408 . S
C226 C224 1.363 . S
C226 C227 1.370 . S
C226 C230 1.524 . S
C227 C219 1.503 . S
C227 C226 1.370 . S
C227 C228 1.403 . S
C228 C227 1.403 . S
C228 C229 1.404 . S
C228 C231 1.539 . S
C229 C225 1.408 . S
C229 C228 1.404 . S
C229 H241 0.930 . S
C230 C226 1.524 . S
C230 H242 0.956 . S
C230 H243 0.961 . S
C230 H244 0.961 . S
C231 C228 1.539 . S
C231 H245 0.958 . S
C231 H246 0.961 . S
C231 H247 0.960 . S
H232 C216 0.931 . S
H233 C221 0.929 . S
H234 C222 0.960 . S
H235 C222 0.962 . S
H236 C222 0.960 . S
H237 C223 0.961 . S
H238 C223 0.961 . S
H239 C223 0.961 . S
H240 C224 0.931 . S
H241 C229 0.930 . S
H242 C230 0.956 . S
H243 C230 0.961 . S
H244 C230 0.961 . S
H245 C231 0.958 . S
H246 C231 0.961 . S
H247 C231 0.960 . S
C248 C249 1.391 . S
C248 C250 1.394 . S
C248 H264 0.931 . S
C249 C248 1.391 . S
C249 C253 1.376 . S
C250 C248 1.394 . S
C250 C251 1.369 . S
C250 C254 1.531 . S
C251 C250 1.369 . S
C251 C252 1.410 . S
C251 C259 1.503 . S
C252 C251 1.410 . S
C252 C253 1.392 . S
C252 C255 1.511 . S
C253 C249 1.376 . S
C253 C252 1.392 . S
C253 H265 0.929 . S
C254 C250 1.531 . S
C254 H266 0.960 . S
C254 H267 0.962 . S
C254 H268 0.960 . S
C255 C252 1.511 . S
C255 H269 0.961 . S
C255 H270 0.961 1_455 S
C255 H271 0.961 . S
C256 C257 1.370 . S
C256 C258 1.363 1_655 S
C256 H272 0.931 . S
C257 C256 1.370 . S
C257 C261 1.408 1_655 S
C258 C256 1.363 1_455 S
C258 C259 1.370 . S
C258 C262 1.524 . S
C259 C251 1.503 . S
C259 C258 1.370 . S
C259 C260 1.403 . S
C260 C259 1.403 . S
C260 C261 1.404 . S
C260 C263 1.539 . S
C261 C257 1.408 1_455 S
C261 C260 1.404 . S
C261 H273 0.930 . S
C262 C258 1.524 . S
C262 H274 0.956 . S
C262 H275 0.961 . S
C262 H276 0.961 1_455 S
C263 C260 1.539 . S
C263 H277 0.958 . S
C263 H278 0.961 . S
C263 H279 0.960 . S
H264 C248 0.931 . S
H265 C253 0.929 . S
H266 C254 0.960 . S
H267 C254 0.962 . S
H268 C254 0.960 . S
H269 C255 0.961 . S
H270 C255 0.961 1_655 S
H271 C255 0.961 . S
H272 C256 0.931 . S
H273 C261 0.930 . S
H274 C262 0.956 . S
H275 C262 0.961 . S
H276 C262 0.961 1_655 S
H277 C263 0.958 . S
H278 C263 0.961 . S
H279 C263 0.960 . S
C280 C281 1.391 . S
C280 C282 1.394 . S
C280 H296 0.931 . S
C281 C280 1.391 . S
C281 C285 1.378 . S
C282 C280 1.394 . S
C282 C283 1.369 1_545 S
C282 C286 1.531 . S
C283 C282 1.369 1_565 S
C283 C284 1.410 . S
C283 C291 1.503 . S
C284 C283 1.410 . S
C284 C285 1.390 1_565 S
C284 C287 1.511 . S
C285 C281 1.378 . S
C285 C284 1.390 1_545 S
C285 H297 0.928 1_545 S
C286 C282 1.531 . S
C286 H298 0.960 . S
C286 H299 0.962 . S
C286 H300 0.960 . S
C287 C284 1.511 . S
C287 H301 0.961 . S
C287 H302 0.961 . S
C287 H303 0.961 . S
C288 C289 1.370 . S
C288 C290 1.363 . S
C288 H304 0.931 . S
C289 C288 1.370 . S
C289 C293 1.408 . S
C290 C288 1.363 . S
C290 C291 1.370 . S
C290 C294 1.524 . S
C291 C283 1.503 . S
C291 C290 1.370 . S
C291 C292 1.403 . S
C292 C291 1.403 . S
C292 C293 1.404 . S
C292 C295 1.539 . S
C293 C289 1.408 . S
C293 C292 1.404 . S
C293 H305 0.930 . S
C294 C290 1.524 . S
C294 H306 0.956 . S
C294 H307 0.961 . S
C294 H308 0.961 . S
C295 C292 1.539 . S
C295 H309 0.958 . S
C295 H310 0.961 . S
C295 H311 0.960 . S
H296 C280 0.931 . S
H297 C285 0.928 1_565 S
H298 C286 0.960 . S
H299 C286 0.962 . S
H300 C286 0.960 . S
H301 C287 0.961 . S
H302 C287 0.961 . S
H303 C287 0.961 . S
H304 C288 0.931 . S
H305 C293 0.930 . S
H306 C294 0.956 . S
H307 C294 0.961 . S
H308 C294 0.961 . S
H309 C295 0.958 . S
H310 C295 0.961 . S
H311 C295 0.960 . S
C312 C313 1.391 . S
C312 C314 1.394 . S
C312 H328 0.931 . S
C313 C312 1.391 . S
C313 C317 1.376 . S
C314 C312 1.394 . S
C314 C315 1.369 . S
C314 C318 1.531 . S
C315 C314 1.369 . S
C315 C316 1.410 . S
C315 C323 1.503 . S
C316 C315 1.410 . S
C316 C317 1.392 . S
C316 C319 1.511 . S
C317 C313 1.376 . S
C317 C316 1.392 . S
C317 H329 0.929 . S
C318 C314 1.531 . S
C318 H330 0.960 . S
C318 H331 0.962 . S
C318 H332 0.960 . S
C319 C316 1.511 . S
C319 H333 0.961 . S
C319 H334 0.961 . S
C319 H335 0.961 . S
C320 C321 1.370 . S
C320 C322 1.363 . S
C320 H336 0.931 . S
C321 C320 1.370 . S
C321 C325 1.408 . S
C322 C320 1.363 . S
C322 C323 1.370 . S
C322 C326 1.524 . S
C323 C315 1.503 . S
C323 C322 1.370 . S
C323 C324 1.403 . S
C324 C323 1.403 . S
C324 C325 1.404 . S
C324 C327 1.539 . S
C325 C321 1.408 . S
C325 C324 1.404 . S
C325 H337 0.930 . S
C326 C322 1.524 . S
C326 H338 0.956 . S
C326 H339 0.961 . S
C326 H340 0.961 . S
C327 C324 1.539 . S
C327 H341 0.958 . S
C327 H342 0.961 . S
C327 H343 0.960 . S
H328 C312 0.931 . S
H329 C317 0.929 . S
H330 C318 0.960 . S
H331 C318 0.962 . S
H332 C318 0.960 . S
H333 C319 0.961 . S
H334 C319 0.961 . S
H335 C319 0.961 . S
H336 C320 0.931 . S
H337 C325 0.930 . S
H338 C326 0.956 . S
H339 C326 0.961 . S
H340 C326 0.961 . S
H341 C327 0.958 . S
H342 C327 0.961 . S
H343 C327 0.960 . S
C344 C345 1.391 . S
C344 C346 1.394 1_655 S
C344 H360 0.931 . S
C345 C344 1.391 . S
C345 C349 1.376 1_655 S
C346 C344 1.394 1_455 S
C346 C347 1.369 . S
C346 C350 1.531 1_455 S
C347 C346 1.369 . S
C347 C348 1.410 . S
C347 C355 1.503 . S
C348 C347 1.410 . S
C348 C349 1.392 . S
C348 C351 1.511 . S
C349 C345 1.376 1_455 S
C349 C348 1.392 . S
C349 H361 0.929 . S
C350 C346 1.531 1_655 S
C350 H362 0.960 1_655 S
C350 H363 0.962 1_655 S
C350 H364 0.960 . S
C351 C348 1.511 . S
C351 H365 0.961 . S
C351 H366 0.961 . S
C351 H367 0.961 . S
C352 C353 1.370 . S
C352 C354 1.363 . S
C352 H368 0.931 . S
C353 C352 1.370 . S
C353 C357 1.408 . S
C354 C352 1.363 . S
C354 C355 1.370 . S
C354 C358 1.524 . S
C355 C347 1.503 . S
C355 C354 1.370 . S
C355 C356 1.403 . S
C356 C355 1.403 . S
C356 C357 1.404 . S
C356 C359 1.539 . S
C357 C353 1.408 . S
C357 C356 1.404 . S
C357 H369 0.930 . S
C358 C354 1.524 . S
C358 H370 0.956 . S
C358 H371 0.961 . S
C358 H372 0.961 . S
C359 C356 1.539 . S
C359 H373 0.958 1_455 S
C359 H374 0.961 . S
C359 H375 0.960 . S
H360 C344 0.931 . S
H361 C349 0.929 . S
H362 C350 0.960 1_455 S
H363 C350 0.962 1_455 S
H364 C350 0.960 . S
H365 C351 0.961 . S
H366 C351 0.961 . S
H367 C351 0.961 . S
H368 C352 0.931 . S
H369 C357 0.930 . S
H370 C358 0.956 . S
H371 C358 0.961 . S
H372 C358 0.961 . S
H373 C359 0.958 1_655 S
H374 C359 0.961 . S
H375 C359 0.960 . S
C376 C377 1.391 . S
C376 C378 1.394 . S
C376 H392 0.931 . S
C377 C376 1.391 . S
C377 C381 1.376 . S
C378 C376 1.394 . S
C378 C379 1.369 . S
C378 C382 1.535 . S
C379 C378 1.369 . S
C379 C380 1.410 . S
C379 C387 1.503 . S
C380 C379 1.410 . S
C380 C381 1.392 . S
C380 C383 1.511 . S
C381 C377 1.376 . S
C381 C380 1.392 . S
C381 H393 0.929 . S
C382 C378 1.535 . S
C382 H394 0.960 1_565 S
C382 H395 0.952 1_565 S
C382 H396 0.966 . S
C383 C380 1.511 . S
C383 H397 0.961 . S
C383 H398 0.961 . S
C383 H399 0.961 . S
C384 C385 1.370 . S
C384 C386 1.363 . S
C384 H400 0.931 . S
C385 C384 1.370 . S
C385 C389 1.408 . S
C386 C384 1.363 . S
C386 C387 1.370 1_545 S
C386 C390 1.524 . S
C387 C379 1.503 . S
C387 C386 1.370 1_565 S
C387 C388 1.403 . S
C388 C387 1.403 . S
C388 C389 1.404 1_565 S
C388 C391 1.539 . S
C389 C385 1.408 . S
C389 C388 1.404 1_545 S
C389 H401 0.930 . S
C390 C386 1.524 . S
C390 H402 0.956 . S
C390 H403 0.961 1_545 S
C390 H404 0.961 . S
C391 C388 1.539 . S
C391 H405 0.958 . S
C391 H406 0.961 . S
C391 H407 0.960 . S
H392 C376 0.931 . S
H393 C381 0.929 . S
H394 C382 0.960 1_545 S
H395 C382 0.952 1_545 S
H396 C382 0.966 . S
H397 C383 0.961 . S
H398 C383 0.961 . S
H399 C383 0.961 . S
H400 C384 0.931 . S
H401 C389 0.930 . S
H402 C390 0.956 . S
H403 C390 0.961 1_565 S
H404 C390 0.961 . S
H405 C391 0.958 . S
H406 C391 0.961 . S
H407 C391 0.960 . S
C408 C409 1.391 1_556 S
C408 C410 1.394 . S
C408 H424 0.931 . S
C409 C408 1.391 1_554 S
C409 C413 1.376 1_545 S
C410 C408 1.394 . S
C410 C411 1.369 1_556 S
C410 C414 1.531 . S
C411 C410 1.369 1_554 S
C411 C412 1.410 1_545 S
C411 C419 1.503 . S
C412 C411 1.410 1_565 S
C412 C413 1.392 . S
C412 C415 1.511 . S
C413 C409 1.376 1_565 S
C413 C412 1.392 . S
C413 H425 0.929 . S
C414 C410 1.531 . S
C414 H426 0.960 . S
C414 H427 0.962 . S
C414 H428 0.960 . S
C415 C412 1.511 . S
C415 H429 0.961 . S
C415 H430 0.961 . S
C415 H431 0.961 . S
C416 C417 1.370 1_566 S
C416 C418 1.363 . S
C416 H432 0.931 . S
C417 C416 1.370 1_544 S
C417 C421 1.408 . S
C418 C416 1.363 . S
C418 C419 1.370 1_566 S
C418 C422 1.524 . S
C419 C411 1.503 . S
C419 C418 1.370 1_544 S
C419 C420 1.403 . S
C420 C419 1.403 . S
C420 C421 1.404 . S
C420 C423 1.539 . S
C421 C417 1.408 . S
C421 C420 1.404 . S
C421 H433 0.930 . S
C422 C418 1.524 . S
C422 H434 0.956 . S
C422 H435 0.961 . S
C422 H436 0.961 . S
C423 C420 1.539 . S
C423 H437 0.958 . S
C423 H438 0.961 . S
C423 H439 0.960 . S
H424 C408 0.931 . S
H425 C413 0.929 . S
H426 C414 0.960 . S
H427 C414 0.962 . S
H428 C414 0.960 . S
H429 C415 0.961 . S
H430 C415 0.961 . S
H431 C415 0.961 . S
H432 C416 0.931 . S
H433 C421 0.930 . S
H434 C422 0.956 . S
H435 C422 0.961 . S
H436 C422 0.961 . S
H437 C423 0.958 . S
H438 C423 0.961 . S
H439 C423 0.960 . S
C440 C441 1.391 . S
C440 C442 1.394 . S
C440 H456 0.931 . S
C441 C440 1.391 . S
C441 C445 1.376 . S
C442 C440 1.394 . S
C442 C443 1.369 . S
C442 C446 1.531 . S
C443 C442 1.369 . S
C443 C444 1.410 . S
C443 C451 1.503 . S
C444 C443 1.410 . S
C444 C445 1.392 . S
C444 C447 1.511 . S
C445 C441 1.376 . S
C445 C444 1.392 . S
C445 H457 0.929 . S
C446 C442 1.531 . S
C446 H458 0.960 . S
C446 H459 0.962 . S
C446 H460 0.960 . S
C447 C444 1.511 . S
C447 H461 0.961 . S
C447 H462 0.961 . S
C447 H463 0.961 . S
C448 C449 1.370 . S
C448 C450 1.363 . S
C448 H464 0.931 . S
C449 C448 1.370 . S
C449 C453 1.408 . S
C450 C448 1.363 . S
C450 C451 1.370 . S
C450 C454 1.524 . S
C451 C443 1.503 . S
C451 C450 1.370 . S
C451 C452 1.403 . S
C452 C451 1.403 . S
C452 C453 1.404 . S
C452 C455 1.539 . S
C453 C449 1.408 . S
C453 C452 1.404 . S
C453 H465 0.930 . S
C454 C450 1.524 . S
C454 H466 0.956 . S
C454 H467 0.961 . S
C454 H468 0.961 . S
C455 C452 1.539 . S
C455 H469 0.958 . S
C455 H470 0.961 . S
C455 H471 0.960 . S
H456 C440 0.931 . S
H457 C445 0.929 . S
H458 C446 0.960 . S
H459 C446 0.962 . S
H460 C446 0.960 . S
H461 C447 0.961 . S
H462 C447 0.961 . S
H463 C447 0.961 . S
H464 C448 0.931 . S
H465 C453 0.930 . S
H466 C454 0.956 . S
H467 C454 0.961 . S
H468 C454 0.961 . S
H469 C455 0.958 . S
H470 C455 0.961 . S
H471 C455 0.960 . S
C472 C473 1.391 1_655 S
C472 C474 1.394 . S
C472 H488 0.931 . S
C473 C472 1.391 1_455 S
C473 C477 1.376 . S
C474 C472 1.394 . S
C474 C475 1.369 1_655 S
C474 C478 1.531 . S
C475 C474 1.369 1_455 S
C475 C476 1.410 . S
C475 C483 1.503 . S
C476 C475 1.410 . S
C476 C477 1.392 . S
C476 C479 1.511 . S
C477 C473 1.376 . S
C477 C476 1.392 . S
C477 H489 0.929 . S
C478 C474 1.531 . S
C478 H490 0.960 . S
C478 H491 0.962 . S
C478 H492 0.960 . S
C479 C476 1.511 . S
C479 H493 0.961 . S
C479 H494 0.961 . S
C479 H495 0.961 . S
C480 C481 1.370 . S
C480 C482 1.363 . S
C480 H496 0.931 . S
C481 C480 1.370 . S
C481 C485 1.408 1_455 S
C482 C480 1.363 . S
C482 C483 1.370 . S
C482 C486 1.524 . S
C483 C475 1.503 . S
C483 C482 1.370 . S
C483 C484 1.403 1_455 S
C484 C483 1.403 1_655 S
C484 C485 1.404 . S
C484 C487 1.539 . S
C485 C481 1.408 1_655 S
C485 C484 1.404 . S
C485 H497 0.930 . S
C486 C482 1.524 . S
C486 H498 0.956 . S
C486 H499 0.961 . S
C486 H500 0.961 . S
C487 C484 1.539 . S
C487 H501 0.958 . S
C487 H502 0.961 . S
C487 H503 0.960 . S
H488 C472 0.931 . S
H489 C477 0.929 . S
H490 C478 0.960 . S
H491 C478 0.962 . S
H492 C478 0.960 . S
H493 C479 0.961 . S
H494 C479 0.961 . S
H495 C479 0.961 . S
H496 C480 0.931 . S
H497 C485 0.930 . S
H498 C486 0.956 . S
H499 C486 0.961 . S
H500 C486 0.961 . S
H501 C487 0.958 . S
H502 C487 0.961 . S
H503 C487 0.960 . S
C504 C505 1.391 . S
C504 C506 1.394 . S
C504 H520 0.931 . S
C505 C504 1.391 . S
C505 C509 1.376 . S
C506 C504 1.394 . S
C506 C507 1.369 . S
C506 C510 1.531 . S
C507 C506 1.369 . S
C507 C508 1.410 . S
C507 C515 1.503 . S
C508 C507 1.410 . S
C508 C509 1.392 . S
C508 C511 1.511 . S
C509 C505 1.376 . S
C509 C508 1.392 . S
C509 H521 0.929 . S
C510 C506 1.531 . S
C510 H522 0.960 . S
C510 H523 0.962 . S
C510 H524 0.960 . S
C511 C508 1.511 . S
C511 H525 0.961 1_545 S
C511 H526 0.961 . S
C511 H527 0.961 . S
C512 C513 1.370 . S
C512 C514 1.363 . S
C512 H528 0.931 . S
C513 C512 1.370 . S
C513 C517 1.408 . S
C514 C512 1.363 . S
C514 C515 1.370 . S
C514 C518 1.524 . S
C515 C507 1.503 . S
C515 C514 1.370 . S
C515 C516 1.403 . S
C516 C515 1.403 . S
C516 C517 1.404 . S
C516 C519 1.539 . S
C517 C513 1.408 . S
C517 C516 1.404 . S
C517 H529 0.930 . S
C518 C514 1.524 . S
C518 H530 0.956 . S
C518 H531 0.961 . S
C518 H532 0.961 . S
C519 C516 1.539 . S
C519 H533 0.958 . S
C519 H534 0.961 . S
C519 H535 0.960 . S
H520 C504 0.931 . S
H521 C509 0.929 . S
H522 C510 0.960 . S
H523 C510 0.962 . S
H524 C510 0.960 . S
H525 C511 0.961 1_565 S
H526 C511 0.961 . S
H527 C511 0.961 . S
H528 C512 0.931 . S
H529 C517 0.930 . S
H530 C518 0.956 . S
H531 C518 0.961 . S
H532 C518 0.961 . S
H533 C519 0.958 . S
H534 C519 0.961 . S
H535 C519 0.960 . S
C536 C537 1.391 . S
C536 C538 1.394 . S
C536 H552 0.931 . S
C537 C536 1.391 . S
C537 C541 1.376 . S
C538 C536 1.394 . S
C538 C539 1.369 . S
C538 C542 1.531 . S
C539 C538 1.369 . S
C539 C540 1.410 . S
C539 C547 1.503 . S
C540 C539 1.410 . S
C540 C541 1.392 . S
C540 C543 1.511 . S
C541 C537 1.376 . S
C541 C540 1.392 . S
C541 H553 0.929 . S
C542 C538 1.531 . S
C542 H554 0.960 . S
C542 H555 0.962 . S
C542 H556 0.960 . S
C543 C540 1.511 . S
C543 H557 0.961 . S
C543 H558 0.961 . S
C543 H559 0.961 . S
C544 C545 1.370 . S
C544 C546 1.363 . S
C544 H560 0.931 . S
C545 C544 1.370 . S
C545 C549 1.408 . S
C546 C544 1.363 . S
C546 C547 1.370 . S
C546 C550 1.524 . S
C547 C539 1.503 . S
C547 C546 1.370 . S
C547 C548 1.403 . S
C548 C547 1.403 . S
C548 C549 1.404 . S
C548 C551 1.539 . S
C549 C545 1.408 . S
C549 C548 1.404 . S
C549 H561 0.930 . S
C550 C546 1.524 . S
C550 H562 0.956 . S
C550 H563 0.961 . S
C550 H564 0.961 . S
C551 C548 1.539 . S
C551 H565 0.958 . S
C551 H566 0.961 . S
C551 H567 0.960 . S
H552 C536 0.931 . S
H553 C541 0.929 . S
H554 C542 0.960 . S
H555 C542 0.962 . S
H556 C542 0.960 . S
H557 C543 0.961 . S
H558 C543 0.961 . S
H559 C543 0.961 . S
H560 C544 0.931 . S
H561 C549 0.930 . S
H562 C550 0.956 . S
H563 C550 0.961 . S
H564 C550 0.961 . S
H565 C551 0.958 . S
H566 C551 0.961 . S
H567 C551 0.960 . S
C568 C569 1.391 . S
C568 C570 1.394 . S
C568 H584 0.931 . S
C569 C568 1.391 . S
C569 C573 1.376 . S
C570 C568 1.394 . S
C570 C571 1.369 . S
C570 C574 1.531 . S
C571 C570 1.369 . S
C571 C572 1.410 . S
C571 C579 1.503 . S
C572 C571 1.410 . S
C572 C573 1.392 . S
C572 C575 1.511 1_655 S
C573 C569 1.376 . S
C573 C572 1.392 . S
C573 H585 0.929 . S
C574 C570 1.531 . S
C574 H586 0.960 . S
C574 H587 0.962 . S
C574 H588 0.960 1_545 S
C575 C572 1.511 1_455 S
C575 H589 0.961 . S
C575 H590 0.968 . S
C575 H591 0.961 . S
C576 C577 1.370 . S
C576 C578 1.363 . S
C576 H592 0.931 . S
C577 C576 1.370 . S
C577 C581 1.408 . S
C578 C576 1.363 . S
C578 C579 1.370 . S
C578 C582 1.524 . S
C579 C571 1.503 . S
C579 C578 1.370 . S
C579 C580 1.403 . S
C580 C579 1.403 . S
C580 C581 1.404 . S
C580 C583 1.539 . S
C581 C577 1.408 . S
C581 C580 1.404 . S
C581 H593 0.930 . S
C582 C578 1.524 . S
C582 H594 0.956 . S
C582 H595 0.961 . S
C582 H596 0.961 . S
C583 C580 1.539 . S
C583 H597 0.958 . S
C583 H598 0.961 1_655 S
C583 H599 0.960 . S
H584 C568 0.931 . S
H585 C573 0.929 . S
H586 C574 0.960 . S
H587 C574 0.962 . S
H588 C574 0.960 1_565 S
H589 C575 0.961 . S
H590 C575 0.968 . S
H591 C575 0.961 . S
H592 C576 0.931 . S
H593 C581 0.930 . S
H594 C582 0.956 . S
H595 C582 0.961 . S
H596 C582 0.961 . S
H597 C583 0.958 . S
H598 C583 0.961 1_455 S
H599 C583 0.960 . S
C600 C601 1.391 . S
C600 C602 1.394 . S
C600 H616 0.931 . S
C601 C600 1.391 . S
C601 C605 1.376 . S
C602 C600 1.394 . S
C602 C603 1.369 . S
C602 C606 1.531 . S
C603 C602 1.369 . S
C603 C604 1.410 . S
C603 C611 1.503 . S
C604 C603 1.410 . S
C604 C605 1.392 . S
C604 C607 1.511 . S
C605 C601 1.376 . S
C605 C604 1.392 . S
C605 H617 0.929 . S
C606 C602 1.531 . S
C606 H618 0.960 . S
C606 H619 0.962 . S
C606 H620 0.960 . S
C607 C604 1.511 . S
C607 H621 0.961 . S
C607 H622 0.961 . S
C607 H623 0.961 . S
C608 C609 1.370 . S
C608 C610 1.363 . S
C608 H624 0.931 . S
C609 C608 1.370 . S
C609 C613 1.408 . S
C610 C608 1.363 . S
C610 C611 1.370 . S
C610 C614 1.524 . S
C611 C603 1.503 . S
C611 C610 1.370 . S
C611 C612 1.403 . S
C612 C611 1.403 . S
C612 C613 1.404 . S
C612 C615 1.539 . S
C613 C609 1.408 . S
C613 C612 1.404 . S
C613 H625 0.930 . S
C614 C610 1.524 . S
C614 H626 0.956 . S
C614 H627 0.961 . S
C614 H628 0.950 1_565 S
C615 C612 1.539 . S
C615 H629 0.958 . S
C615 H630 0.961 . S
C615 H631 0.960 . S
H616 C600 0.931 . S
H617 C605 0.929 . S
H618 C606 0.960 . S
H619 C606 0.962 . S
H620 C606 0.960 . S
H621 C607 0.961 . S
H622 C607 0.961 . S
H623 C607 0.961 . S
H624 C608 0.931 . S
H625 C613 0.930 . S
H626 C614 0.956 . S
H627 C614 0.961 . S
H628 C614 0.950 1_545 S
H629 C615 0.958 . S
H630 C615 0.961 . S
H631 C615 0.960 . S
C632 C633 1.391 . S
C632 C634 1.394 . S
C632 H648 0.931 . S
C633 C632 1.391 . S
C633 C637 1.376 . S
C634 C632 1.394 . S
C634 C635 1.369 . S
C634 C638 1.531 . S
C635 C634 1.369 . S
C635 C636 1.410 . S
C635 C643 1.503 . S
C636 C635 1.410 . S
C636 C637 1.392 . S
C636 C639 1.511 1_655 S
C637 C633 1.376 . S
C637 C636 1.392 . S
C637 H649 0.929 1_655 S
C638 C634 1.531 . S
C638 H650 0.960 . S
C638 H651 0.962 . S
C638 H652 0.960 . S
C639 C636 1.511 1_455 S
C639 H653 0.961 . S
C639 H654 0.961 . S
C639 H655 0.961 . S
C640 C641 1.370 . S
C640 C642 1.363 . S
C640 H656 0.931 . S
C641 C640 1.370 . S
C641 C645 1.408 . S
C642 C640 1.363 . S
C642 C643 1.370 . S
C642 C646 1.524 . S
C643 C635 1.503 . S
C643 C642 1.370 . S
C643 C644 1.403 . S
C644 C643 1.403 . S
C644 C645 1.404 . S
C644 C647 1.539 . S
C645 C641 1.408 . S
C645 C644 1.404 . S
C645 H657 0.930 . S
C646 C642 1.524 . S
C646 H658 0.956 . S
C646 H659 0.961 . S
C646 H660 0.961 . S
C647 C644 1.539 . S
C647 H661 0.958 . S
C647 H662 0.961 . S
C647 H663 0.960 . S
H648 C632 0.931 . S
H649 C637 0.929 1_455 S
H650 C638 0.960 . S
H651 C638 0.962 . S
H652 C638 0.960 . S
H653 C639 0.961 . S
H654 C639 0.961 . S
H655 C639 0.961 . S
H656 C640 0.931 . S
H657 C645 0.930 . S
H658 C646 0.956 . S
H659 C646 0.961 . S
H660 C646 0.961 . S
H661 C647 0.958 . S
H662 C647 0.961 . S
H663 C647 0.960 . S
C664 C665 1.391 . S
C664 C666 1.394 . S
C664 H680 0.931 . S
C665 C664 1.391 . S
C665 C669 1.376 . S
C666 C664 1.394 . S
C666 C667 1.369 . S
C666 C670 1.531 . S
C667 C666 1.369 . S
C667 C668 1.410 . S
C667 C675 1.503 . S
C668 C667 1.410 . S
C668 C669 1.392 . S
C668 C671 1.511 . S
C669 C665 1.376 . S
C669 C668 1.392 . S
C669 H681 0.929 . S
C670 C666 1.531 . S
C670 H682 0.960 . S
C670 H683 0.962 . S
C670 H684 0.960 . S
C671 C668 1.511 . S
C671 H685 0.961 . S
C671 H686 0.961 . S
C671 H687 0.961 . S
C672 C673 1.370 . S
C672 C674 1.363 . S
C672 H688 0.931 . S
C673 C672 1.370 . S
C673 C677 1.408 . S
C674 C672 1.363 . S
C674 C675 1.370 . S
C674 C678 1.524 . S
C675 C667 1.503 . S
C675 C674 1.370 . S
C675 C676 1.403 . S
C676 C675 1.403 . S
C676 C677 1.404 . S
C676 C679 1.539 1_565 S
C677 C673 1.408 . S
C677 C676 1.404 . S
C677 H689 0.930 1_565 S
C678 C674 1.524 . S
C678 H690 0.956 . S
C678 H691 0.961 . S
C678 H692 0.961 . S
C679 C676 1.539 1_545 S
C679 H693 0.958 . S
C679 H694 0.961 . S
C679 H695 0.960 . S
H680 C664 0.931 . S
H681 C669 0.929 . S
H682 C670 0.960 . S
H683 C670 0.962 . S
H684 C670 0.960 . S
H685 C671 0.961 . S
H686 C671 0.961 . S
H687 C671 0.961 . S
H688 C672 0.931 . S
H689 C677 0.930 1_545 S
H690 C678 0.956 . S
H691 C678 0.961 . S
H692 C678 0.961 . S
H693 C679 0.958 . S
H694 C679 0.961 . S
H695 C679 0.960 . S
C121 C78 0.753 . S
C129 C18 0.753 . S
C153 C98 0.797 . S
C161 C38 0.721 . S
C185 C118 0.790 1_455 S
C193 C58 0.730 1_455 S
C217 C9 1.587 . S
C225 C52 1.695 . S
C249 C32 1.670 . S
C257 C69 1.606 . S
C281 C49 1.575 . S
C289 C92 1.691 . S
C313 C72 1.727 . S
C321 C109 1.639 . S
C345 C89 1.593 . S
C353 C12 1.694 . S
C377 C112 1.726 . S
C385 C29 1.635 . S
C409 C19 0.941 . S
C417 C79 0.905 . S
C441 C39 0.892 . S
C449 C99 0.925 . S
C473 C59 0.936 . S
C481 C119 0.908 . S
C505 C4 0.996 . S
C513 C24 0.973 . S
C537 C22 1.052 . S
C545 C42 1.101 . S
C569 C44 0.950 . S
C577 C64 0.989 . S
C601 C62 1.163 . S
C609 C82 1.074 . S
C633 C84 1.076 . S
C641 C104 1.003 . S
C665 C102 1.128 . S
C673 C2 1.074 . S
