# Generated by pormake.
# Topology nfb, (4)-cn, num edge types: 1
# Building blocks:
#     Node 0, Type 0, BuildingBlock: CEKHIL_clean_sbu_0, # of connection points: 4
#     Node 1, Type 0, BuildingBlock: CEKHIL_clean_sbu_0, # of connection points: 4
#     Node 2, Type 0, BuildingBlock: CEKHIL_clean_sbu_0, # of connection points: 4
#     Node 3, Type 0, BuildingBlock: CEKHIL_clean_sbu_0, # of connection points: 4
#     Node 4, Type 0, BuildingBlock: CEKHIL_clean_sbu_0, # of connection points: 4
#     Node 5, Type 0, BuildingBlock: CEKHIL_clean_sbu_0, # of connection points: 4
#     Node 6, Type 0, BuildingBlock: CEKHIL_clean_sbu_0, # of connection points: 4
#     Node 7, Type 0, BuildingBlock: CEKHIL_clean_sbu_0, # of connection points: 4
#     Node 8, Type 0, BuildingBlock: CEKHIL_clean_sbu_0, # of connection points: 4
#     Node 9, Type 0, BuildingBlock: CEKHIL_clean_sbu_0, # of connection points: 4
#     Node 10, Type 0, BuildingBlock: CEKHIL_clean_sbu_0, # of connection points: 4
#     Node 11, Type 0, BuildingBlock: CEKHIL_clean_sbu_0, # of connection points: 4
#     Node 12, Type 0, BuildingBlock: CEKHIL_clean_sbu_0, # of connection points: 4
#     Node 13, Type 0, BuildingBlock: CEKHIL_clean_sbu_0, # of connection points: 4
#     Node 14, Type 0, BuildingBlock: CEKHIL_clean_sbu_0, # of connection points: 4
#     Node 15, Type 0, BuildingBlock: CEKHIL_clean_sbu_0, # of connection points: 4
#     Node 16, Type 0, BuildingBlock: CEKHIL_clean_sbu_0, # of connection points: 4
#     Node 17, Type 0, BuildingBlock: CEKHIL_clean_sbu_0, # of connection points: 4
#     Node 18, Type 0, BuildingBlock: CEKHIL_clean_sbu_0, # of connection points: 4
#     Node 19, Type 0, BuildingBlock: CEKHIL_clean_sbu_0, # of connection points: 4
#     Node 20, Type 0, BuildingBlock: CEKHIL_clean_sbu_0, # of connection points: 4
#     Node 21, Type 0, BuildingBlock: CEKHIL_clean_sbu_0, # of connection points: 4
#     Node 22, Type 0, BuildingBlock: CEKHIL_clean_sbu_0, # of connection points: 4
#     Node 23, Type 0, BuildingBlock: CEKHIL_clean_sbu_0, # of connection points: 4
#     Node 24, Type 0, BuildingBlock: CEKHIL_clean_sbu_0, # of connection points: 4
#     Node 25, Type 0, BuildingBlock: CEKHIL_clean_sbu_0, # of connection points: 4
#     Node 26, Type 0, BuildingBlock: CEKHIL_clean_sbu_0, # of connection points: 4
#     Node 27, Type 0, BuildingBlock: CEKHIL_clean_sbu_0, # of connection points: 4
#     Node 28, Type 0, BuildingBlock: CEKHIL_clean_sbu_0, # of connection points: 4
#     Node 29, Type 0, BuildingBlock: CEKHIL_clean_sbu_0, # of connection points: 4
#     Node 30, Type 0, BuildingBlock: CEKHIL_clean_sbu_0, # of connection points: 4
#     Node 31, Type 0, BuildingBlock: CEKHIL_clean_sbu_0, # of connection points: 4
#     Node 32, Type 0, BuildingBlock: CEKHIL_clean_sbu_0, # of connection points: 4
#     Node 33, Type 0, BuildingBlock: CEKHIL_clean_sbu_0, # of connection points: 4
#     Node 34, Type 0, BuildingBlock: CEKHIL_clean_sbu_0, # of connection points: 4
#     Node 35, Type 0, BuildingBlock: CEKHIL_clean_sbu_0, # of connection points: 4
#     Node 36, Type 0, BuildingBlock: CEKHIL_clean_sbu_0, # of connection points: 4
#     Node 37, Type 0, BuildingBlock: CEKHIL_clean_sbu_0, # of connection points: 4
#     Node 38, Type 0, BuildingBlock: CEKHIL_clean_sbu_0, # of connection points: 4
#     Node 39, Type 0, BuildingBlock: CEKHIL_clean_sbu_0, # of connection points: 4
#     Node 40, Type 0, BuildingBlock: CEKHIL_clean_sbu_0, # of connection points: 4
#     Node 41, Type 0, BuildingBlock: CEKHIL_clean_sbu_0, # of connection points: 4
#     Node 42, Type 0, BuildingBlock: CEKHIL_clean_sbu_0, # of connection points: 4
#     Node 43, Type 0, BuildingBlock: CEKHIL_clean_sbu_0, # of connection points: 4
#     Node 44, Type 0, BuildingBlock: CEKHIL_clean_sbu_0, # of connection points: 4
#     Node 45, Type 0, BuildingBlock: CEKHIL_clean_sbu_0, # of connection points: 4
#     Node 46, Type 0, BuildingBlock: CEKHIL_clean_sbu_0, # of connection points: 4
#     Node 47, Type 0, BuildingBlock: CEKHIL_clean_sbu_0, # of connection points: 4
#     Edge 48, Type (0, 0), BuildingBlock: MIFKUJ_clean_linker_0, # of connection points: 2
#     Edge 49, Type (0, 0), BuildingBlock: MIFKUJ_clean_linker_0, # of connection points: 2
#     Edge 50, Type (0, 0), BuildingBlock: MIFKUJ_clean_linker_0, # of connection points: 2
#     Edge 51, Type (0, 0), BuildingBlock: MIFKUJ_clean_linker_0, # of connection points: 2
#     Edge 52, Type (0, 0), BuildingBlock: MIFKUJ_clean_linker_0, # of connection points: 2
#     Edge 53, Type (0, 0), BuildingBlock: MIFKUJ_clean_linker_0, # of connection points: 2
#     Edge 54, Type (0, 0), BuildingBlock: MIFKUJ_clean_linker_0, # of connection points: 2
#     Edge 55, Type (0, 0), BuildingBlock: MIFKUJ_clean_linker_0, # of connection points: 2
#     Edge 56, Type (0, 0), BuildingBlock: MIFKUJ_clean_linker_0, # of connection points: 2
#     Edge 57, Type (0, 0), BuildingBlock: MIFKUJ_clean_linker_0, # of connection points: 2
#     Edge 58, Type (0, 0), BuildingBlock: MIFKUJ_clean_linker_0, # of connection points: 2
#     Edge 59, Type (0, 0), BuildingBlock: MIFKUJ_clean_linker_0, # of connection points: 2
#     Edge 60, Type (0, 0), BuildingBlock: MIFKUJ_clean_linker_0, # of connection points: 2
#     Edge 61, Type (0, 0), BuildingBlock: MIFKUJ_clean_linker_0, # of connection points: 2
#     Edge 62, Type (0, 0), BuildingBlock: MIFKUJ_clean_linker_0, # of connection points: 2
#     Edge 63, Type (0, 0), BuildingBlock: MIFKUJ_clean_linker_0, # of connection points: 2
#     Edge 64, Type (0, 0), BuildingBlock: MIFKUJ_clean_linker_0, # of connection points: 2
#     Edge 65, Type (0, 0), BuildingBlock: MIFKUJ_clean_linker_0, # of connection points: 2
#     Edge 66, Type (0, 0), BuildingBlock: MIFKUJ_clean_linker_0, # of connection points: 2
#     Edge 67, Type (0, 0), BuildingBlock: MIFKUJ_clean_linker_0, # of connection points: 2
#     Edge 68, Type (0, 0), BuildingBlock: MIFKUJ_clean_linker_0, # of connection points: 2
#     Edge 69, Type (0, 0), BuildingBlock: MIFKUJ_clean_linker_0, # of connection points: 2
#     Edge 70, Type (0, 0), BuildingBlock: MIFKUJ_clean_linker_0, # of connection points: 2
#     Edge 71, Type (0, 0), BuildingBlock: MIFKUJ_clean_linker_0, # of connection points: 2
#     Edge 72, Type (0, 0), BuildingBlock: MIFKUJ_clean_linker_0, # of connection points: 2
#     Edge 73, Type (0, 0), BuildingBlock: MIFKUJ_clean_linker_0, # of connection points: 2
#     Edge 74, Type (0, 0), BuildingBlock: MIFKUJ_clean_linker_0, # of connection points: 2
#     Edge 75, Type (0, 0), BuildingBlock: MIFKUJ_clean_linker_0, # of connection points: 2
#     Edge 76, Type (0, 0), BuildingBlock: MIFKUJ_clean_linker_0, # of connection points: 2
#     Edge 77, Type (0, 0), BuildingBlock: MIFKUJ_clean_linker_0, # of connection points: 2
#     Edge 78, Type (0, 0), BuildingBlock: MIFKUJ_clean_linker_0, # of connection points: 2
#     Edge 79, Type (0, 0), BuildingBlock: MIFKUJ_clean_linker_0, # of connection points: 2
#     Edge 80, Type (0, 0), BuildingBlock: MIFKUJ_clean_linker_0, # of connection points: 2
#     Edge 81, Type (0, 0), BuildingBlock: MIFKUJ_clean_linker_0, # of connection points: 2
#     Edge 82, Type (0, 0), BuildingBlock: MIFKUJ_clean_linker_0, # of connection points: 2
#     Edge 83, Type (0, 0), BuildingBlock: MIFKUJ_clean_linker_0, # of connection points: 2
#     Edge 84, Type (0, 0), BuildingBlock: MIFKUJ_clean_linker_0, # of connection points: 2
#     Edge 85, Type (0, 0), BuildingBlock: MIFKUJ_clean_linker_0, # of connection points: 2
#     Edge 86, Type (0, 0), BuildingBlock: MIFKUJ_clean_linker_0, # of connection points: 2
#     Edge 87, Type (0, 0), BuildingBlock: MIFKUJ_clean_linker_0, # of connection points: 2
#     Edge 88, Type (0, 0), BuildingBlock: MIFKUJ_clean_linker_0, # of connection points: 2
#     Edge 89, Type (0, 0), BuildingBlock: MIFKUJ_clean_linker_0, # of connection points: 2
#     Edge 90, Type (0, 0), BuildingBlock: MIFKUJ_clean_linker_0, # of connection points: 2
#     Edge 91, Type (0, 0), BuildingBlock: MIFKUJ_clean_linker_0, # of connection points: 2
#     Edge 92, Type (0, 0), BuildingBlock: MIFKUJ_clean_linker_0, # of connection points: 2
#     Edge 93, Type (0, 0), BuildingBlock: MIFKUJ_clean_linker_0, # of connection points: 2
#     Edge 94, Type (0, 0), BuildingBlock: MIFKUJ_clean_linker_0, # of connection points: 2
#     Edge 95, Type (0, 0), BuildingBlock: MIFKUJ_clean_linker_0, # of connection points: 2
#     Edge 96, Type (0, 0), BuildingBlock: MIFKUJ_clean_linker_0, # of connection points: 2
#     Edge 97, Type (0, 0), BuildingBlock: MIFKUJ_clean_linker_0, # of connection points: 2
#     Edge 98, Type (0, 0), BuildingBlock: MIFKUJ_clean_linker_0, # of connection points: 2
#     Edge 99, Type (0, 0), BuildingBlock: MIFKUJ_clean_linker_0, # of connection points: 2
#     Edge 100, Type (0, 0), BuildingBlock: MIFKUJ_clean_linker_0, # of connection points: 2
#     Edge 101, Type (0, 0), BuildingBlock: MIFKUJ_clean_linker_0, # of connection points: 2
#     Edge 102, Type (0, 0), BuildingBlock: MIFKUJ_clean_linker_0, # of connection points: 2
#     Edge 103, Type (0, 0), BuildingBlock: MIFKUJ_clean_linker_0, # of connection points: 2
#     Edge 104, Type (0, 0), BuildingBlock: MIFKUJ_clean_linker_0, # of connection points: 2
#     Edge 105, Type (0, 0), BuildingBlock: MIFKUJ_clean_linker_0, # of connection points: 2
#     Edge 106, Type (0, 0), BuildingBlock: MIFKUJ_clean_linker_0, # of connection points: 2
#     Edge 107, Type (0, 0), BuildingBlock: MIFKUJ_clean_linker_0, # of connection points: 2
#     Edge 108, Type (0, 0), BuildingBlock: MIFKUJ_clean_linker_0, # of connection points: 2
#     Edge 109, Type (0, 0), BuildingBlock: MIFKUJ_clean_linker_0, # of connection points: 2
#     Edge 110, Type (0, 0), BuildingBlock: MIFKUJ_clean_linker_0, # of connection points: 2
#     Edge 111, Type (0, 0), BuildingBlock: MIFKUJ_clean_linker_0, # of connection points: 2
#     Edge 112, Type (0, 0), BuildingBlock: MIFKUJ_clean_linker_0, # of connection points: 2
#     Edge 113, Type (0, 0), BuildingBlock: MIFKUJ_clean_linker_0, # of connection points: 2
#     Edge 114, Type (0, 0), BuildingBlock: MIFKUJ_clean_linker_0, # of connection points: 2
#     Edge 115, Type (0, 0), BuildingBlock: MIFKUJ_clean_linker_0, # of connection points: 2
#     Edge 116, Type (0, 0), BuildingBlock: MIFKUJ_clean_linker_0, # of connection points: 2
#     Edge 117, Type (0, 0), BuildingBlock: MIFKUJ_clean_linker_0, # of connection points: 2
#     Edge 118, Type (0, 0), BuildingBlock: MIFKUJ_clean_linker_0, # of connection points: 2
#     Edge 119, Type (0, 0), BuildingBlock: MIFKUJ_clean_linker_0, # of connection points: 2
#     Edge 120, Type (0, 0), BuildingBlock: MIFKUJ_clean_linker_0, # of connection points: 2
#     Edge 121, Type (0, 0), BuildingBlock: MIFKUJ_clean_linker_0, # of connection points: 2
#     Edge 122, Type (0, 0), BuildingBlock: MIFKUJ_clean_linker_0, # of connection points: 2
#     Edge 123, Type (0, 0), BuildingBlock: MIFKUJ_clean_linker_0, # of connection points: 2
#     Edge 124, Type (0, 0), BuildingBlock: MIFKUJ_clean_linker_0, # of connection points: 2
#     Edge 125, Type (0, 0), BuildingBlock: MIFKUJ_clean_linker_0, # of connection points: 2
#     Edge 126, Type (0, 0), BuildingBlock: MIFKUJ_clean_linker_0, # of connection points: 2
#     Edge 127, Type (0, 0), BuildingBlock: MIFKUJ_clean_linker_0, # of connection points: 2
#     Edge 128, Type (0, 0), BuildingBlock: MIFKUJ_clean_linker_0, # of connection points: 2
#     Edge 129, Type (0, 0), BuildingBlock: MIFKUJ_clean_linker_0, # of connection points: 2
#     Edge 130, Type (0, 0), BuildingBlock: MIFKUJ_clean_linker_0, # of connection points: 2
#     Edge 131, Type (0, 0), BuildingBlock: MIFKUJ_clean_linker_0, # of connection points: 2
#     Edge 132, Type (0, 0), BuildingBlock: MIFKUJ_clean_linker_0, # of connection points: 2
#     Edge 133, Type (0, 0), BuildingBlock: MIFKUJ_clean_linker_0, # of connection points: 2
#     Edge 134, Type (0, 0), BuildingBlock: MIFKUJ_clean_linker_0, # of connection points: 2
#     Edge 135, Type (0, 0), BuildingBlock: MIFKUJ_clean_linker_0, # of connection points: 2
#     Edge 136, Type (0, 0), BuildingBlock: MIFKUJ_clean_linker_0, # of connection points: 2
#     Edge 137, Type (0, 0), BuildingBlock: MIFKUJ_clean_linker_0, # of connection points: 2
#     Edge 138, Type (0, 0), BuildingBlock: MIFKUJ_clean_linker_0, # of connection points: 2
#     Edge 139, Type (0, 0), BuildingBlock: MIFKUJ_clean_linker_0, # of connection points: 2
#     Edge 140, Type (0, 0), BuildingBlock: MIFKUJ_clean_linker_0, # of connection points: 2
#     Edge 141, Type (0, 0), BuildingBlock: MIFKUJ_clean_linker_0, # of connection points: 2
#     Edge 142, Type (0, 0), BuildingBlock: MIFKUJ_clean_linker_0, # of connection points: 2
#     Edge 143, Type (0, 0), BuildingBlock: MIFKUJ_clean_linker_0, # of connection points: 2
# Relax obj value: 0.261
# Max RMSD: 0.067
# Mean RMSD: 0.060
data_MOF--net-nfb--node1-CEKHIL_clean_sbu_0--edge1-MIFKUJ_clean_linker_0
_symmetry_space_group_name_H-M    P1
_symmetry_Int_Tables_number       1
_symmetry_cell_setting            triclinic
loop_
_symmetry_equiv_pos_as_xyz
'x, y, z'
_cell_length_a     77.270515
_cell_length_b     77.278172
_cell_length_c     77.290558
_cell_angle_alpha  90.016445
_cell_angle_beta   90.302712
_cell_angle_gamma 90.558719
loop_
_atom_site_label
_atom_site_type_symbol
_atom_site_fract_x
_atom_site_fract_y
_atom_site_fract_z
_atom_type_partial_charge
Co0 Co 0.13129 0.13637 0.3892 0.0
O1 O 0.1546 0.14266 0.39564 0.0
O2 O 0.14823 0.12033 0.37909 0.0
C3 C 0.12406 0.16389 0.38257 0.0
O4 O 0.1077 0.12697 0.37985 0.0
Co5 Co 0.10126 0.15262 0.41039 0.0
O6 O 0.08699 0.14422 0.39086 0.0
C7 C 0.12035 0.12264 0.42443 0.0
C8 C 0.16014 0.12981 0.38665 0.0
C9 C 0.0918 0.13221 0.38074 0.0
O10 O 0.12927 0.12142 0.41047 0.0
O11 O 0.10935 0.13462 0.42714 0.0
O12 O 0.13158 0.15421 0.37117 0.0
O13 O 0.12217 0.15699 0.39762 0.0
Co14 Co 0.38076 0.61946 0.8957 0.0
O15 O 0.3765 0.59501 0.8989 0.0
O16 O 0.3828 0.60669 0.87371 0.0
C17 C 0.3989 0.62188 0.91856 0.0
O18 O 0.386 0.645 0.88854 0.0
Co19 Co 0.3697 0.64426 0.92573 0.0
O20 O 0.38418 0.66104 0.91296 0.0
C21 C 0.34335 0.6301 0.9015 0.0
C22 C 0.3793 0.59275 0.88262 0.0
C23 C 0.38791 0.65946 0.89701 0.0
O24 O 0.35512 0.62314 0.89208 0.0
O25 O 0.34654 0.63796 0.91577 0.0
O26 O 0.40475 0.61664 0.90378 0.0
O27 O 0.38243 0.62405 0.91928 0.0
Co28 Co 0.87283 0.87059 0.39848 0.0
O29 O 0.84989 0.86612 0.40726 0.0
O30 O 0.85561 0.88622 0.388 0.0
C31 C 0.87846 0.84227 0.39382 0.0
O32 O 0.89596 0.87809 0.38672 0.0
Co33 Co 0.90435 0.85456 0.41818 0.0
O34 O 0.91643 0.8597 0.39634 0.0
C35 C 0.88869 0.88733 0.43049 0.0
C36 C 0.84402 0.87815 0.39733 0.0
C37 C 0.91147 0.87171 0.38626 0.0
O38 O 0.87755 0.88737 0.41804 0.0
O39 O 0.89967 0.87525 0.43295 0.0
O40 O 0.87016 0.85118 0.38227 0.0
O41 O 0.88198 0.85037 0.40799 0.0
Co42 Co 0.62431 0.38419 0.90348 0.0
O43 O 0.6276 0.40863 0.90707 0.0
O44 O 0.62419 0.39696 0.88132 0.0
C45 C 0.60403 0.38145 0.92423 0.0
O46 O 0.62044 0.35854 0.89605 0.0
Co47 Co 0.63355 0.36029 0.93478 0.0
O48 O 0.62054 0.34305 0.92088 0.0
C49 C 0.66148 0.37495 0.91319 0.0
C50 C 0.62645 0.41094 0.89059 0.0
C51 C 0.61814 0.34421 0.9046 0.0
O52 O 0.65022 0.38116 0.90256 0.0
O53 O 0.65741 0.36728 0.9273 0.0
O54 O 0.59962 0.38642 0.90882 0.0
O55 O 0.62041 0.37977 0.92683 0.0
Co56 Co 0.12016 0.88268 0.60512 0.0
O57 O 0.09533 0.88034 0.60289 0.0
O58 O 0.10878 0.88443 0.62778 0.0
C59 C 0.12304 0.90164 0.58311 0.0
O60 O 0.1463 0.88573 0.61131 0.0
Co61 Co 0.14231 0.87084 0.57342 0.0
O62 O 0.16098 0.88307 0.58619 0.0
C63 C 0.12691 0.84477 0.59682 0.0
C64 C 0.09419 0.88234 0.61941 0.0
C65 C 0.16045 0.8866 0.60229 0.0
O66 O 0.12212 0.85673 0.60734 0.0
O67 O 0.13382 0.84791 0.58211 0.0
O68 O 0.11881 0.90719 0.59835 0.0
O69 O 0.12378 0.88509 0.58149 0.0
Co70 Co 0.63672 0.63461 0.10898 0.0
O71 O 0.64183 0.65834 0.10325 0.0
O72 O 0.62063 0.65083 0.12047 0.0
C73 C 0.66475 0.62818 0.11434 0.0
O74 O 0.62893 0.6101 0.11739 0.0
Co75 Co 0.65377 0.60697 0.08495 0.0
O76 O 0.64638 0.59115 0.10369 0.0
C77 C 0.62402 0.62729 0.07268 0.0
C78 C 0.62931 0.66329 0.11292 0.0
C79 C 0.63488 0.59458 0.11492 0.0
O80 O 0.62103 0.63276 0.08808 0.0
O81 O 0.63735 0.61852 0.06855 0.0
O82 O 0.65532 0.63486 0.12645 0.0
O83 O 0.6573 0.62686 0.09948 0.0
Co84 Co 0.88599 0.12089 0.60638 0.0
O85 O 0.91039 0.12223 0.60138 0.0
O86 O 0.90014 0.11851 0.6276 0.0
C87 C 0.88016 0.10247 0.58437 0.0
O88 O 0.86073 0.11852 0.61539 0.0
Co89 Co 0.85994 0.13325 0.57781 0.0
O90 O 0.84336 0.1197 0.59179 0.0
C91 C 0.87715 0.15885 0.60089 0.0
C92 C 0.91364 0.11979 0.61759 0.0
C93 C 0.8457 0.11692 0.60786 0.0
O94 O 0.88502 0.14687 0.60933 0.0
O95 O 0.86734 0.15606 0.58776 0.0
O96 O 0.88582 0.0965 0.59902 0.0
O97 O 0.87951 0.11906 0.58323 0.0
Co98 Co 0.37366 0.37175 0.10279 0.0
O99 O 0.37043 0.34825 0.09496 0.0
O100 O 0.39147 0.35626 0.11249 0.0
C101 C 0.34553 0.3751 0.10982 0.0
O102 O 0.37993 0.39593 0.11327 0.0
Co103 Co 0.35325 0.40035 0.08288 0.0
O104 O 0.3594 0.41421 0.10349 0.0
C105 C 0.38548 0.38611 0.06807 0.0
C106 C 0.38363 0.34375 0.10411 0.0
C107 C 0.37228 0.41087 0.11324 0.0
O108 O 0.3882 0.37698 0.08174 0.0
O109 O 0.37189 0.39522 0.06577 0.0
O110 O 0.35618 0.36808 0.12071 0.0
O111 O 0.35189 0.37861 0.09484 0.0
Co112 Co 0.39394 0.12855 0.13314 0.0
O113 O 0.40062 0.15202 0.13854 0.0
O114 O 0.38551 0.14506 0.11544 0.0
C115 C 0.38501 0.12314 0.16051 0.0
O116 O 0.38493 0.10452 0.12438 0.0
Co117 Co 0.41273 0.0991 0.15345 0.0
O118 O 0.39399 0.08452 0.14371 0.0
C119 C 0.42975 0.11608 0.12342 0.0
C120 C 0.3927 0.15725 0.12483 0.0
C121 C 0.38524 0.0888 0.13041 0.0
O122 O 0.41625 0.12517 0.12019 0.0
O123 O 0.43108 0.10602 0.13653 0.0
O124 O 0.37458 0.13024 0.14942 0.0
O125 O 0.40042 0.12048 0.15495 0.0
Co126 Co 0.38233 0.90244 0.62446 0.0
O127 O 0.40661 0.9074 0.62767 0.0
O128 O 0.39653 0.8814 0.62184 0.0
C129 C 0.37782 0.92518 0.60672 0.0
O130 O 0.35708 0.89365 0.62011 0.0
Co131 Co 0.35645 0.93071 0.63724 0.0
O132 O 0.34009 0.9172 0.62279 0.0
C133 C 0.37268 0.90704 0.66244 0.0
C134 C 0.40999 0.89136 0.62476 0.0
C135 C 0.34226 0.90141 0.61869 0.0
O136 O 0.37984 0.8984 0.65018 0.0
O137 O 0.36381 0.92073 0.65995 0.0
O138 O 0.38377 0.91085 0.60047 0.0
O139 O 0.37629 0.92564 0.62329 0.0
Co140 Co 0.61544 0.87855 0.13594 0.0
O141 O 0.60695 0.85535 0.14014 0.0
O142 O 0.62274 0.86229 0.11764 0.0
C143 C 0.62505 0.88211 0.16343 0.0
O144 O 0.62625 0.90221 0.1284 0.0
Co145 Co 0.59913 0.90841 0.15777 0.0
O146 O 0.61938 0.92151 0.14923 0.0
C147 C 0.58003 0.8932 0.12788 0.0
C148 C 0.61466 0.85022 0.12635 0.0
C149 C 0.62756 0.91742 0.13558 0.0
O150 O 0.59325 0.88429 0.12328 0.0
O151 O 0.5796 0.90226 0.14176 0.0
O152 O 0.63472 0.87454 0.1521 0.0
O153 O 0.60983 0.88615 0.15809 0.0
Co154 Co 0.62483 0.10642 0.62331 0.0
O155 O 0.6004 0.10135 0.62375 0.0
O156 O 0.61102 0.12781 0.62256 0.0
C157 C 0.63107 0.08639 0.60312 0.0
O158 O 0.6503 0.11533 0.62268 0.0
Co159 Co 0.64895 0.07598 0.63489 0.0
O160 O 0.66725 0.09181 0.62641 0.0
C161 C 0.6297 0.09576 0.66099 0.0
C162 C 0.59738 0.11773 0.6232 0.0
C163 C 0.66531 0.10787 0.6233 0.0
O164 O 0.62522 0.10687 0.64942 0.0
O165 O 0.63778 0.08182 0.65746 0.0
O166 O 0.62544 0.10142 0.59829 0.0
O167 O 0.63098 0.08362 0.61951 0.0
Co168 Co 0.40739 0.88198 0.87922 0.0
O169 O 0.40975 0.90688 0.87871 0.0
O170 O 0.38487 0.89329 0.88246 0.0
C171 C 0.43027 0.87804 0.89705 0.0
O172 O 0.40123 0.85572 0.88092 0.0
Co173 Co 0.43836 0.86066 0.8646 0.0
O174 O 0.42637 0.84156 0.8768 0.0
C175 C 0.41402 0.87761 0.8406 0.0
C176 C 0.39332 0.90794 0.8813 0.0
C177 C 0.41044 0.84171 0.88098 0.0
O178 O 0.40398 0.88151 0.85326 0.0
O179 O 0.42887 0.87068 0.84271 0.0
O180 O 0.41529 0.88184 0.9035 0.0
O181 O 0.43106 0.8783 0.88043 0.0
Co182 Co 0.62789 0.89085 0.37532 0.0
O183 O 0.65097 0.89956 0.37132 0.0
O184 O 0.64467 0.88171 0.39244 0.0
C185 C 0.62386 0.88412 0.34707 0.0
O186 O 0.60438 0.87935 0.38234 0.0
Co187 Co 0.59741 0.90896 0.35635 0.0
O188 O 0.58506 0.88727 0.36188 0.0
C189 C 0.61174 0.92388 0.38884 0.0
C190 C 0.65653 0.89047 0.38412 0.0
C191 C 0.58926 0.87815 0.37491 0.0
O192 O 0.62275 0.91156 0.3903 0.0
O193 O 0.60113 0.92534 0.37616 0.0
O194 O 0.63131 0.8733 0.35747 0.0
O195 O 0.61988 0.89881 0.35382 0.0
Co196 Co 0.60401 0.12303 0.87873 0.0
O197 O 0.59908 0.09868 0.87649 0.0
O198 O 0.62522 0.10913 0.88127 0.0
C199 C 0.58183 0.1281 0.89688 0.0
O200 O 0.61283 0.14838 0.882 0.0
Co201 Co 0.57538 0.14843 0.86569 0.0
O202 O 0.58918 0.16525 0.87933 0.0
C203 C 0.59796 0.13103 0.84051 0.0
C204 C 0.61528 0.09556 0.87893 0.0
C205 C 0.60507 0.16319 0.8832 0.0
O206 O 0.60718 0.12462 0.85284 0.0
O207 O 0.5843 0.13992 0.843 0.0
O208 O 0.59643 0.12247 0.90295 0.0
O209 O 0.58082 0.12902 0.88027 0.0
Co210 Co 0.37437 0.11034 0.37275 0.0
O211 O 0.35054 0.10364 0.36929 0.0
O212 O 0.35925 0.12096 0.39024 0.0
C213 C 0.3783 0.11664 0.34442 0.0
O214 O 0.39891 0.11958 0.37959 0.0
Co215 Co 0.4024 0.08932 0.35333 0.0
O216 O 0.41801 0.10824 0.36077 0.0
C217 C 0.38668 0.07538 0.38548 0.0
C218 C 0.34645 0.11295 0.38246 0.0
C219 C 0.41441 0.11831 0.37325 0.0
O220 O 0.37788 0.08925 0.38765 0.0
O221 O 0.3963 0.0727 0.37232 0.0
O222 O 0.37221 0.12817 0.3549 0.0
O223 O 0.381 0.10165 0.35117 0.0
Co224 Co 0.13392 0.39702 0.13043 0.0
O225 O 0.13819 0.40603 0.15334 0.0
O226 O 0.11669 0.38829 0.14731 0.0
C227 C 0.16194 0.38991 0.12638 0.0
O228 O 0.12655 0.38535 0.10711 0.0
Co229 Co 0.15333 0.41473 0.09963 0.0
O230 O 0.14718 0.39288 0.08785 0.0
C231 C 0.12091 0.42985 0.11328 0.0
C232 C 0.1252 0.39717 0.15902 0.0
C233 C 0.13389 0.384 0.09205 0.0
O234 O 0.11924 0.41773 0.12461 0.0
O235 O 0.13372 0.43112 0.10289 0.0
O236 O 0.15154 0.37934 0.13434 0.0
O237 O 0.15542 0.4046 0.1222 0.0
Co238 Co 0.12484 0.605 0.8854 0.0
O239 O 0.12859 0.602 0.90985 0.0
O240 O 0.12337 0.62724 0.89795 0.0
C241 C 0.10598 0.5826 0.88314 0.0
O242 O 0.12025 0.6117 0.85968 0.0
Co243 Co 0.13583 0.57391 0.86187 0.0
O244 O 0.12228 0.58676 0.84446 0.0
C245 C 0.16242 0.59765 0.87631 0.0
C246 C 0.12635 0.61836 0.91201 0.0
C247 C 0.11864 0.60279 0.84545 0.0
O248 O 0.15063 0.60788 0.88195 0.0
O249 O 0.15905 0.58296 0.86932 0.0
O250 O 0.10053 0.59764 0.88807 0.0
O251 O 0.12246 0.58141 0.88129 0.0
Co252 Co 0.90276 0.62313 0.38337 0.0
O253 O 0.90709 0.62258 0.40791 0.0
O254 O 0.88093 0.62269 0.39664 0.0
C255 C 0.92223 0.60245 0.37741 0.0
O256 O 0.8945 0.62313 0.35771 0.0
Co257 Co 0.93388 0.63403 0.36003 0.0
O258 O 0.91858 0.62546 0.34126 0.0
C259 C 0.91455 0.66069 0.37894 0.0
C260 C 0.89063 0.62208 0.41051 0.0
C261 C 0.90233 0.6231 0.34286 0.0
O262 O 0.90323 0.64928 0.38361 0.0
O263 O 0.92842 0.65691 0.37082 0.0
O264 O 0.90672 0.59808 0.38217 0.0
O265 O 0.92576 0.61874 0.37793 0.0
Co266 Co 0.87959 0.40181 0.88577 0.0
O267 O 0.87711 0.40402 0.9105 0.0
O268 O 0.8833 0.37948 0.89758 0.0
C269 C 0.89669 0.42548 0.8831 0.0
O270 O 0.88322 0.39599 0.85964 0.0
Co271 Co 0.86512 0.43231 0.86342 0.0
O272 O 0.87913 0.42117 0.84535 0.0
C273 C 0.84106 0.40666 0.87869 0.0
C274 C 0.88053 0.3878 0.91199 0.0
C275 C 0.88385 0.40541 0.84568 0.0
O276 O 0.85381 0.3972 0.88366 0.0
O277 O 0.84302 0.42153 0.87162 0.0
O278 O 0.90345 0.41077 0.88737 0.0
O279 O 0.88006 0.42557 0.88213 0.0
Co280 Co 0.10925 0.37666 0.37481 0.0
O281 O 0.10136 0.37285 0.35142 0.0
O282 O 0.11959 0.3936 0.35844 0.0
C283 C 0.11495 0.34826 0.379 0.0
O284 O 0.11988 0.38334 0.39889 0.0
Co285 Co 0.08875 0.35787 0.40405 0.0
O286 O 0.10964 0.36342 0.41775 0.0
C287 C 0.07536 0.3904 0.3888 0.0
C288 C 0.1109 0.38555 0.34626 0.0
C289 C 0.11969 0.37604 0.41409 0.0
O290 O 0.0888 0.39209 0.37916 0.0
O291 O 0.07272 0.37738 0.39874 0.0
O292 O 0.12643 0.35841 0.37205 0.0
O293 O 0.1003 0.35534 0.38226 0.0
Co294 Co 0.88454 0.60632 0.12169 0.0
O295 O 0.88251 0.60115 0.0974 0.0
O296 O 0.88571 0.62758 0.10746 0.0
C297 C 0.90392 0.58525 0.12666 0.0
O298 O 0.88752 0.6155 0.14691 0.0
Co299 Co 0.87397 0.57725 0.14786 0.0
O300 O 0.88691 0.59199 0.16434 0.0
C301 C 0.84697 0.59847 0.13114 0.0
C302 C 0.8843 0.61741 0.09401 0.0
C303 C 0.88949 0.60809 0.1619 0.0
O304 O 0.85851 0.60796 0.12361 0.0
O305 O 0.85056 0.58526 0.14044 0.0
O306 O 0.90919 0.60014 0.12089 0.0
O307 O 0.88743 0.58326 0.12789 0.0
Co308 Co 0.89207 0.37053 0.63283 0.0
O309 O 0.89868 0.36665 0.65662 0.0
O310 O 0.88008 0.3865 0.64859 0.0
C311 C 0.8882 0.34198 0.6275 0.0
O312 O 0.88211 0.37712 0.60861 0.0
Co313 Co 0.9144 0.35429 0.60364 0.0
O314 O 0.8933 0.35802 0.58973 0.0
C315 C 0.92486 0.38778 0.61949 0.0
C316 C 0.88816 0.37864 0.66116 0.0
C317 C 0.8827 0.36995 0.5934 0.0
O318 O 0.91177 0.38758 0.62972 0.0
O319 O 0.92832 0.37568 0.60878 0.0
O320 O 0.87584 0.35098 0.63424 0.0
O321 O 0.90258 0.35021 0.62513 0.0
Co322 Co 0.10275 0.62709 0.62394 0.0
O323 O 0.09784 0.6298 0.59965 0.0
O324 O 0.12396 0.6251 0.6099 0.0
C325 C 0.08061 0.60846 0.62872 0.0
O326 O 0.11151 0.6235 0.6492 0.0
Co327 Co 0.07389 0.63904 0.64963 0.0
O328 O 0.08786 0.62559 0.66623 0.0
C329 C 0.09653 0.665 0.6328 0.0
C330 C 0.11403 0.62758 0.59642 0.0
C331 C 0.10376 0.62206 0.66404 0.0
O332 O 0.10591 0.65301 0.62618 0.0
O333 O 0.08273 0.66199 0.64143 0.0
O334 O 0.09519 0.60273 0.62285 0.0
O335 O 0.07959 0.62502 0.62997 0.0
Co336 Co 0.87307 0.88272 0.61399 0.0
O337 O 0.84944 0.8816 0.6062 0.0
O338 O 0.85672 0.88159 0.63367 0.0
C339 C 0.88072 0.90405 0.59562 0.0
O340 O 0.89757 0.88409 0.62541 0.0
Co341 Co 0.90029 0.87309 0.58581 0.0
O342 O 0.9167 0.88221 0.60333 0.0
C343 C 0.87954 0.8457 0.60233 0.0
C344 C 0.84438 0.88101 0.62204 0.0
C345 C 0.91323 0.88464 0.61924 0.0
O346 O 0.87407 0.8567 0.61347 0.0
O347 O 0.88886 0.84996 0.58933 0.0
O348 O 0.87342 0.90792 0.61019 0.0
O349 O 0.88141 0.8878 0.59214 0.0
Co350 Co 0.63307 0.38633 0.11861 0.0
O351 O 0.63778 0.41075 0.11623 0.0
O352 O 0.61594 0.40033 0.13122 0.0
C353 C 0.6607 0.37919 0.1244 0.0
O354 O 0.62575 0.36081 0.12381 0.0
Co355 Co 0.65146 0.36185 0.09214 0.0
O356 O 0.64494 0.34418 0.10942 0.0
C357 C 0.61961 0.38021 0.08188 0.0
C358 C 0.62464 0.41388 0.12589 0.0
C359 C 0.6328 0.34597 0.12034 0.0
O360 O 0.618 0.38665 0.09714 0.0
O361 O 0.63244 0.37097 0.07723 0.0
O362 O 0.65085 0.38476 0.13674 0.0
O363 O 0.65409 0.37989 0.1091 0.0
Co364 Co 0.13374 0.12791 0.61511 0.0
O365 O 0.15737 0.13325 0.60929 0.0
O366 O 0.14937 0.12461 0.63517 0.0
C367 C 0.12895 0.11181 0.59116 0.0
O368 O 0.10928 0.12135 0.62456 0.0
Co369 Co 0.10564 0.14139 0.58929 0.0
O370 O 0.09103 0.12457 0.60182 0.0
C371 C 0.12202 0.1654 0.61431 0.0
C372 C 0.16186 0.12959 0.62493 0.0
C373 C 0.09417 0.11949 0.61719 0.0
O374 O 0.13029 0.15291 0.62145 0.0
O375 O 0.11228 0.16363 0.60097 0.0
O376 O 0.13588 0.10485 0.60478 0.0
O377 O 0.12648 0.12824 0.59213 0.0
Co378 Co 0.36619 0.61858 0.11898 0.0
O379 O 0.3616 0.5941 0.11712 0.0
O380 O 0.38546 0.60485 0.12861 0.0
C381 C 0.33963 0.62496 0.12914 0.0
O382 O 0.37393 0.64413 0.12308 0.0
Co383 Co 0.34323 0.64257 0.0958 0.0
O384 O 0.35287 0.66063 0.11126 0.0
C385 C 0.37328 0.62482 0.08062 0.0
C386 C 0.37624 0.59117 0.12456 0.0
C387 C 0.36659 0.65895 0.12028 0.0
O388 O 0.37753 0.61868 0.09551 0.0
O389 O 0.35954 0.63358 0.07795 0.0
O390 O 0.35161 0.61965 0.13965 0.0
O391 O 0.34362 0.62459 0.11298 0.0
Co392 Co 0.88446 0.14 0.3832 0.0
O393 O 0.90877 0.14505 0.38464 0.0
O394 O 0.89829 0.12144 0.3725 0.0
C395 C 0.87666 0.16653 0.37412 0.0
O396 O 0.85895 0.13203 0.37983 0.0
Co397 Co 0.86184 0.16175 0.40871 0.0
O398 O 0.84298 0.15184 0.39423 0.0
C399 C 0.88303 0.13324 0.42195 0.0
C400 C 0.91189 0.13061 0.37698 0.0
C401 C 0.84427 0.13891 0.38408 0.0
O402 O 0.88575 0.12801 0.4064 0.0
O403 O 0.87537 0.14742 0.42549 0.0
O404 O 0.88196 0.15521 0.36296 0.0
O405 O 0.87822 0.16203 0.39008 0.0
Co406 Co 0.38104 0.37063 0.88799 0.0
O407 O 0.38188 0.34627 0.89324 0.0
O408 O 0.38119 0.35661 0.86668 0.0
C409 C 0.40146 0.37839 0.90752 0.0
O410 O 0.38058 0.396 0.87892 0.0
Co411 Co 0.36861 0.3941 0.9185 0.0
O412 O 0.37461 0.41289 0.9021 0.0
C413 C 0.34371 0.37201 0.89994 0.0
C414 C 0.3816 0.34313 0.87686 0.0
C415 C 0.37842 0.41102 0.88617 0.0
O416 O 0.35499 0.36951 0.88806 0.0
O417 O 0.34719 0.37982 0.91417 0.0
O418 O 0.40612 0.37272 0.89243 0.0
O419 O 0.38515 0.37742 0.9106 0.0
Co420 Co 0.11875 0.87358 0.38589 0.0
O421 O 0.09453 0.87051 0.39077 0.0
O422 O 0.10469 0.89205 0.37518 0.0
C423 C 0.12271 0.84577 0.37812 0.0
O424 O 0.14406 0.87957 0.37873 0.0
Co425 Co 0.14419 0.85197 0.4088 0.0
O426 O 0.16074 0.85868 0.39058 0.0
C427 C 0.12892 0.88415 0.42259 0.0
C428 C 0.09126 0.88417 0.38185 0.0
C429 C 0.15876 0.87169 0.38068 0.0
O430 O 0.12167 0.88736 0.40792 0.0
O431 O 0.13739 0.87031 0.4257 0.0
O432 O 0.11696 0.85685 0.36694 0.0
O433 O 0.12436 0.85147 0.39371 0.0
Co434 Co 0.62693 0.6313 0.88923 0.0
O435 O 0.62755 0.65487 0.89719 0.0
O436 O 0.6235 0.64766 0.86991 0.0
C437 C 0.60964 0.62178 0.91077 0.0
O438 O 0.62508 0.60711 0.87757 0.0
Co439 Co 0.64308 0.60423 0.91456 0.0
O440 O 0.63164 0.58771 0.89855 0.0
C441 C 0.66584 0.62705 0.89415 0.0
C442 C 0.62499 0.65991 0.8815 0.0
C443 C 0.62626 0.59137 0.88339 0.0
O444 O 0.65271 0.63223 0.88533 0.0
O445 O 0.66449 0.61707 0.9073 0.0
O446 O 0.60287 0.6289 0.89713 0.0
O447 O 0.6263 0.62223 0.91144 0.0
Co448 Co 0.61776 0.87357 0.88025 0.0
O449 O 0.61146 0.8494 0.88038 0.0
O450 O 0.63838 0.85894 0.88252 0.0
C451 C 0.59682 0.88159 0.89874 0.0
O452 O 0.62797 0.89854 0.88111 0.0
Co453 Co 0.5899 0.89871 0.86541 0.0
O454 O 0.60576 0.91655 0.87505 0.0
C455 C 0.6099 0.87699 0.84173 0.0
C456 C 0.62766 0.84578 0.88186 0.0
C457 C 0.62135 0.91389 0.87974 0.0
O458 O 0.62 0.87281 0.85429 0.0
O459 O 0.59619 0.88592 0.8438 0.0
O460 O 0.61126 0.87547 0.90474 0.0
O461 O 0.59511 0.88102 0.88217 0.0
Co462 Co 0.62194 0.1229 0.37255 0.0
O463 O 0.59738 0.1192 0.36975 0.0
O464 O 0.60888 0.13475 0.39084 0.0
C465 C 0.62687 0.1296 0.34463 0.0
O466 O 0.64758 0.12907 0.37841 0.0
Co467 Co 0.64629 0.0983 0.35185 0.0
O468 O 0.66355 0.11645 0.35753 0.0
C469 C 0.63017 0.08623 0.3844 0.0
C470 C 0.59497 0.12853 0.38335 0.0
C471 C 0.66208 0.12668 0.37034 0.0
O472 O 0.62334 0.10114 0.38692 0.0
O473 O 0.63889 0.08239 0.37092 0.0
O474 O 0.62167 0.14143 0.35528 0.0
O475 O 0.62723 0.11411 0.35077 0.0
Co476 Co 0.39669 0.12972 0.87883 0.0
O477 O 0.40331 0.15363 0.87648 0.0
O478 O 0.37633 0.14512 0.87972 0.0
C479 C 0.41784 0.12386 0.89821 0.0
O480 O 0.3864 0.10488 0.88204 0.0
Co481 Co 0.42453 0.10299 0.86723 0.0
O482 O 0.40911 0.08671 0.87965 0.0
C483 C 0.40326 0.12073 0.84099 0.0
C484 C 0.38732 0.15794 0.87788 0.0
C485 C 0.3933 0.08961 0.88311 0.0
O486 O 0.39414 0.12767 0.85295 0.0
O487 O 0.41664 0.11154 0.84405 0.0
O488 O 0.40336 0.13042 0.9034 0.0
O489 O 0.41941 0.12252 0.88169 0.0
Co490 Co 0.38201 0.88035 0.36787 0.0
O491 O 0.40667 0.88102 0.36427 0.0
O492 O 0.39437 0.86694 0.38575 0.0
C493 C 0.37508 0.875 0.33999 0.0
O494 O 0.35599 0.87711 0.37402 0.0
Co495 Co 0.36118 0.90924 0.34839 0.0
O496 O 0.34133 0.89452 0.35551 0.0
C497 C 0.38194 0.91791 0.37917 0.0
C498 C 0.40857 0.87136 0.37772 0.0
C499 C 0.34174 0.88276 0.36708 0.0
O500 O 0.38362 0.90177 0.38277 0.0
O501 O 0.37522 0.92346 0.36508 0.0
O502 O 0.37955 0.86232 0.35005 0.0
O503 O 0.37689 0.8902 0.34658 0.0
Co504 Co 0.62709 0.12267 0.13603 0.0
O505 O 0.62716 0.09796 0.13932 0.0
O506 O 0.64048 0.11098 0.11778 0.0
C507 C 0.6327 0.12895 0.16401 0.0
O508 O 0.62945 0.14884 0.13014 0.0
Co509 Co 0.59823 0.14242 0.15624 0.0
O510 O 0.61238 0.16278 0.14932 0.0
C511 C 0.58938 0.12251 0.12496 0.0
C512 C 0.63653 0.09654 0.12568 0.0
C513 C 0.62372 0.16285 0.1374 0.0
O514 O 0.60549 0.12074 0.12138 0.0
O515 O 0.58387 0.12908 0.13907 0.0
O516 O 0.64537 0.12546 0.15363 0.0
O517 O 0.61746 0.12686 0.15753 0.0
Co518 Co 0.37669 0.11562 0.62464 0.0
O519 O 0.35319 0.10747 0.62683 0.0
O520 O 0.36025 0.13503 0.6249 0.0
C521 C 0.38419 0.09633 0.60417 0.0
O522 O 0.40075 0.1276 0.62209 0.0
Co523 Co 0.40496 0.08861 0.63518 0.0
O524 O 0.42054 0.10627 0.625 0.0
C525 C 0.38446 0.10589 0.66199 0.0
C526 C 0.34809 0.12331 0.62669 0.0
C527 C 0.41654 0.12189 0.62168 0.0
O528 O 0.37861 0.11653 0.65062 0.0
O529 O 0.39383 0.09289 0.65813 0.0
O530 O 0.37628 0.1104 0.59968 0.0
O531 O 0.38548 0.09379 0.62057 0.0
Co532 Co 0.38088 0.88102 0.13227 0.0
O533 O 0.38509 0.90556 0.13478 0.0
O534 O 0.37103 0.89408 0.11269 0.0
C535 C 0.37158 0.87704 0.15961 0.0
O536 O 0.3746 0.85536 0.12652 0.0
Co537 Co 0.40289 0.85662 0.15603 0.0
O538 O 0.38524 0.83947 0.1487 0.0
C539 C 0.41829 0.8719 0.12442 0.0
C540 C 0.37693 0.90798 0.12041 0.0
C541 C 0.37621 0.84088 0.13495 0.0
O542 O 0.40371 0.87857 0.12 0.0
O543 O 0.42069 0.86386 0.13871 0.0
O544 O 0.36093 0.88241 0.14778 0.0
O545 O 0.3875 0.87594 0.15493 0.0
Co546 Co 0.63311 0.89088 0.62851 0.0
O547 O 0.65784 0.89375 0.6301 0.0
O548 O 0.645 0.86875 0.62463 0.0
C549 C 0.62884 0.9144 0.61181 0.0
O550 O 0.60682 0.88483 0.62584 0.0
Co551 Co 0.613 0.92124 0.64596 0.0
O552 O 0.59336 0.90925 0.6344 0.0
C553 C 0.63062 0.8957 0.66752 0.0
C554 C 0.65938 0.87746 0.6271 0.0
C555 C 0.59296 0.89411 0.62776 0.0
O556 O 0.63237 0.88597 0.65415 0.0
O557 O 0.62488 0.91116 0.66667 0.0
O558 O 0.63331 0.89992 0.60466 0.0
O559 O 0.62913 0.91442 0.62845 0.0
Co560 Co 0.87771 0.61813 0.87295 0.0
O561 O 0.87522 0.61029 0.84952 0.0
O562 O 0.88253 0.63698 0.85617 0.0
C563 C 0.89321 0.59508 0.88172 0.0
O564 O 0.88152 0.6292 0.89723 0.0
Co565 Co 0.85962 0.59375 0.89986 0.0
O566 O 0.87337 0.60822 0.91614 0.0
C567 C 0.83873 0.61616 0.87756 0.0
C568 C 0.87913 0.62557 0.84409 0.0
C569 C 0.88026 0.62292 0.9128 0.0
O570 O 0.85248 0.62449 0.87314 0.0
O571 O 0.83897 0.60232 0.88667 0.0
O572 O 0.90094 0.6081 0.87434 0.0
O573 O 0.87657 0.59586 0.88181 0.0
Co574 Co 0.86682 0.37927 0.12549 0.0
O575 O 0.86158 0.38383 0.10158 0.0
O576 O 0.88466 0.36969 0.1099 0.0
C577 C 0.83974 0.37018 0.13182 0.0
O578 O 0.87489 0.37234 0.15028 0.0
Co579 Co 0.84616 0.40086 0.15278 0.0
O580 O 0.85366 0.38177 0.16792 0.0
C581 C 0.87749 0.41581 0.13637 0.0
C582 C 0.87524 0.37554 0.09714 0.0
C583 C 0.86725 0.37299 0.16524 0.0
O584 O 0.87997 0.40197 0.12746 0.0
O585 O 0.86458 0.41798 0.14643 0.0
O586 O 0.85068 0.35949 0.12511 0.0
O587 O 0.84501 0.386 0.13291 0.0
Co588 Co 0.1203 0.37402 0.622 0.0
O589 O 0.11772 0.36998 0.5975 0.0
O590 O 0.13272 0.39179 0.60827 0.0
C591 C 0.12629 0.34619 0.62825 0.0
O592 O 0.12569 0.38074 0.64764 0.0
Co593 Co 0.09447 0.35432 0.64642 0.0
O594 O 0.11224 0.36032 0.66389 0.0
C595 C 0.08357 0.38643 0.62875 0.0
C596 C 0.12736 0.38335 0.59458 0.0
C597 C 0.12278 0.37298 0.66232 0.0
O598 O 0.09866 0.38856 0.62205 0.0
O599 O 0.07927 0.37333 0.63796 0.0
O600 O 0.13853 0.35654 0.62304 0.0
O601 O 0.11096 0.35257 0.62798 0.0
Co602 Co 0.1238 0.61695 0.13246 0.0
O603 O 0.12581 0.60966 0.15615 0.0
O604 O 0.12332 0.63692 0.1484 0.0
C605 C 0.104 0.5968 0.12492 0.0
O606 O 0.12135 0.62801 0.10801 0.0
Co607 Co 0.13576 0.58967 0.10525 0.0
O608 O 0.12523 0.60616 0.08886 0.0
C609 C 0.16158 0.6082 0.12637 0.0
C610 C 0.12528 0.62566 0.16085 0.0
C611 C 0.12132 0.62175 0.09237 0.0
O612 O 0.14977 0.61866 0.13136 0.0
O613 O 0.1584 0.59481 0.11709 0.0
O614 O 0.09901 0.61099 0.1323 0.0
O615 O 0.12047 0.59465 0.1242 0.0
Co616 Co 0.89462 0.62967 0.63033 0.0
O617 O 0.90002 0.63488 0.65414 0.0
O618 O 0.87375 0.62838 0.64488 0.0
C619 C 0.91688 0.61129 0.62685 0.0
O620 O 0.8854 0.62366 0.60565 0.0
Co621 Co 0.92271 0.64046 0.60331 0.0
O622 O 0.90874 0.62514 0.58814 0.0
C623 C 0.89931 0.66677 0.61763 0.0
C624 C 0.88391 0.63259 0.6578 0.0
C625 C 0.89288 0.62136 0.59079 0.0
O626 O 0.89081 0.655 0.62584 0.0
O627 O 0.91296 0.66375 0.60885 0.0
O628 O 0.90243 0.60579 0.63344 0.0
O629 O 0.91779 0.62772 0.62411 0.0
Co630 Co 0.13634 0.38324 0.88537 0.0
O631 O 0.14035 0.38488 0.90995 0.0
O632 O 0.11702 0.37283 0.89864 0.0
C633 C 0.16332 0.37397 0.87957 0.0
O634 O 0.12933 0.37933 0.85957 0.0
Co635 Co 0.15935 0.40726 0.8621 0.0
O636 O 0.15081 0.39155 0.84374 0.0
C637 C 0.12856 0.42144 0.87948 0.0
C638 C 0.12586 0.37692 0.91253 0.0
C639 C 0.13713 0.38231 0.84496 0.0
O640 O 0.12447 0.40639 0.88539 0.0
O641 O 0.14242 0.42454 0.87096 0.0
O642 O 0.15144 0.36301 0.88435 0.0
O643 O 0.15888 0.38998 0.87998 0.0
Co644 Co 0.11113 0.62685 0.37447 0.0
O645 O 0.10484 0.63038 0.35064 0.0
O646 O 0.13173 0.627 0.35943 0.0
C647 C 0.09033 0.60672 0.37945 0.0
O648 O 0.12113 0.623 0.39916 0.0
Co649 Co 0.08251 0.63736 0.40088 0.0
O650 O 0.09864 0.62646 0.41756 0.0
C651 C 0.10186 0.66397 0.38184 0.0
C652 C 0.12099 0.62976 0.34664 0.0
C653 C 0.11435 0.62259 0.41453 0.0
O654 O 0.11308 0.65263 0.37754 0.0
O655 O 0.08761 0.66022 0.38942 0.0
O656 O 0.10494 0.60219 0.37267 0.0
O657 O 0.0884 0.62314 0.38136 0.0
Co658 Co 0.879 0.36632 0.38693 0.0
O659 O 0.87894 0.36177 0.41139 0.0
O660 O 0.86807 0.38535 0.39991 0.0
C661 C 0.86993 0.33964 0.37904 0.0
O662 O 0.877 0.37363 0.36116 0.0
Co663 Co 0.90526 0.34377 0.36595 0.0
O664 O 0.89204 0.35346 0.34624 0.0
C665 C 0.91785 0.37353 0.38626 0.0
C666 C 0.87124 0.37627 0.41381 0.0
C667 C 0.88201 0.36646 0.34683 0.0
O668 O 0.90222 0.3784 0.38894 0.0
O669 O 0.92167 0.35915 0.37906 0.0
O670 O 0.85867 0.3511 0.38367 0.0
O671 O 0.88585 0.34413 0.38135 0.0
H672 H 0.14363 0.32957 0.37071 0.0
H673 H 0.14588 0.29797 0.3693 0.0
H674 H 0.09377 0.29283 0.38849 0.0
H675 H 0.09141 0.32429 0.38993 0.0
H676 H 0.14248 0.27197 0.39368 0.0
H677 H 0.07365 0.2605 0.36549 0.0
H678 H 0.05229 0.27588 0.34749 0.0
H679 H 0.09317 0.3052 0.32362 0.0
H680 H 0.11478 0.28982 0.34128 0.0
H681 H 0.11282 0.18716 0.40621 0.0
H682 H 0.11188 0.21855 0.4032 0.0
H683 H 0.12694 0.21424 0.34975 0.0
H684 H 0.12821 0.18261 0.35271 0.0
H685 H 0.09955 0.23974 0.3577 0.0
H686 H 0.15724 0.2237 0.37356 0.0
H687 H 0.17914 0.20814 0.39068 0.0
H688 H 0.16246 0.23405 0.43674 0.0
H689 H 0.14024 0.24955 0.41992 0.0
C690 C 0.13275 0.32169 0.37485 0.0
C691 C 0.11731 0.32938 0.38032 0.0
C692 C 0.13405 0.30367 0.37401 0.0
C693 C 0.11988 0.29312 0.37849 0.0
C694 C 0.10474 0.30077 0.38469 0.0
C695 C 0.10346 0.31874 0.3856 0.0
C696 C 0.12069 0.27411 0.37635 0.0
C697 C 0.13315 0.26494 0.38576 0.0
C698 C 0.10869 0.26499 0.36575 0.0
C699 C 0.09581 0.2741 0.35483 0.0
C700 C 0.07808 0.27016 0.35634 0.0
C701 C 0.06593 0.27889 0.34621 0.0
C702 C 0.07137 0.29154 0.33446 0.0
C703 C 0.08897 0.29544 0.33277 0.0
C704 C 0.10117 0.28673 0.34286 0.0
C705 C 0.11568 0.19282 0.39372 0.0
C706 C 0.12076 0.18245 0.37973 0.0
C707 C 0.11517 0.21075 0.39205 0.0
C708 C 0.11955 0.21863 0.37633 0.0
C709 C 0.12357 0.20832 0.36199 0.0
C710 C 0.12429 0.1903 0.36371 0.0
C711 C 0.121 0.23768 0.37542 0.0
C712 C 0.10896 0.24683 0.36548 0.0
C713 C 0.13351 0.24681 0.38536 0.0
C714 C 0.14698 0.23767 0.3955 0.0
C715 C 0.15814 0.22597 0.38736 0.0
C716 C 0.17063 0.21718 0.39701 0.0
C717 C 0.17216 0.22007 0.4148 0.0
C718 C 0.16124 0.23181 0.42296 0.0
C719 C 0.14871 0.24061 0.41337 0.0
H720 H 0.18184 0.21325 0.42225 0.0
H721 H 0.06194 0.2983 0.32664 0.0
H722 H 0.32778 0.60564 0.88075 0.0
H723 H 0.2968 0.60267 0.87428 0.0
H724 H 0.28689 0.64951 0.90287 0.0
H725 H 0.31758 0.6522 0.9098 0.0
H726 H 0.26559 0.62575 0.91278 0.0
H727 H 0.2837 0.64716 0.85765 0.0
H728 H 0.30108 0.64819 0.831 0.0
H729 H 0.28299 0.5973 0.81716 0.0
H730 H 0.26567 0.59587 0.84385 0.0
H731 H 0.1761 0.62774 0.88996 0.0
H732 H 0.20672 0.63602 0.89207 0.0
H733 H 0.22095 0.58797 0.86783 0.0
H734 H 0.19061 0.5797 0.86541 0.0
H735 H 0.23955 0.61471 0.85499 0.0
H736 H 0.22329 0.59299 0.91155 0.0
H737 H 0.2057 0.59246 0.93809 0.0
H738 H 0.22037 0.64511 0.94891 0.0
H739 H 0.23788 0.64602 0.9223 0.0
C740 C 0.31899 0.6154 0.88544 0.0
C741 C 0.32506 0.62905 0.8959 0.0
C742 C 0.30131 0.61374 0.88169 0.0
C743 C 0.2895 0.62592 0.88804 0.0
C744 C 0.2957 0.63989 0.89793 0.0
C745 C 0.31327 0.64141 0.90188 0.0
C746 C 0.27058 0.62356 0.88543 0.0
C747 C 0.25989 0.62365 0.90008 0.0
C748 C 0.26313 0.62052 0.86893 0.0
C749 C 0.2735 0.62135 0.85284 0.0
C750 C 0.28353 0.63613 0.84899 0.0
C751 C 0.29335 0.6368 0.83387 0.0
C752 C 0.29317 0.6228 0.82242 0.0
C753 C 0.28313 0.60813 0.82605 0.0
C754 C 0.27329 0.60739 0.84117 0.0
C755 C 0.18574 0.61895 0.88504 0.0
C756 C 0.18085 0.603 0.87762 0.0
C757 C 0.20323 0.6237 0.88626 0.0
C758 C 0.2161 0.61254 0.88021 0.0
C759 C 0.21123 0.5968 0.87253 0.0
C760 C 0.19383 0.59206 0.87128 0.0
C761 C 0.23471 0.61682 0.88233 0.0
C762 C 0.24531 0.61703 0.86763 0.0
C763 C 0.2421 0.62024 0.89877 0.0
C764 C 0.23174 0.61962 0.91486 0.0
C765 C 0.22267 0.60448 0.91954 0.0
C766 C 0.21273 0.60411 0.9346 0.0
C767 C 0.21188 0.61876 0.94515 0.0
C768 C 0.22102 0.63379 0.94071 0.0
C769 C 0.23096 0.63423 0.92565 0.0
H770 H 0.20417 0.61845 0.9568 0.0
H771 H 0.30078 0.62334 0.81071 0.0
H772 H 0.89828 0.82253 0.41505 0.0
H773 H 0.9046 0.79181 0.4123 0.0
H774 H 0.87484 0.78956 0.36493 0.0
H775 H 0.86878 0.82054 0.36742 0.0
H776 H 0.8838 0.76474 0.41282 0.0
H777 H 0.89167 0.75825 0.33878 0.0
H778 H 0.90097 0.77594 0.31386 0.0
H779 H 0.933 0.80712 0.34734 0.0
H780 H 0.92409 0.78948 0.3724 0.0
H781 H 0.884 0.67553 0.38878 0.0
H782 H 0.87783 0.7064 0.39131 0.0
H783 H 0.93089 0.71867 0.3788 0.0
H784 H 0.93708 0.68796 0.37586 0.0
H785 H 0.91017 0.73846 0.3608 0.0
H786 H 0.91527 0.72183 0.42051 0.0
H787 H 0.90856 0.70457 0.44651 0.0
H788 H 0.85555 0.72055 0.44384 0.0
H789 H 0.8619 0.73774 0.41768 0.0
C790 C 0.8932 0.81555 0.40395 0.0
C791 C 0.88306 0.82394 0.39142 0.0
C792 C 0.89675 0.79796 0.40246 0.0
C793 C 0.89022 0.78837 0.38841 0.0
C794 C 0.88019 0.79674 0.37578 0.0
C795 C 0.87672 0.81443 0.37721 0.0
C796 C 0.89378 0.76957 0.38726 0.0
C797 C 0.88953 0.75899 0.40143 0.0
C798 C 0.90143 0.76209 0.37249 0.0
C799 C 0.90705 0.77266 0.35748 0.0
C800 C 0.90075 0.76885 0.3408 0.0
C801 C 0.90594 0.77887 0.32666 0.0
C802 C 0.91752 0.79268 0.32903 0.0
C803 C 0.92398 0.79646 0.34553 0.0
C804 C 0.91884 0.78647 0.35971 0.0
C805 C 0.8944 0.68479 0.38674 0.0
C806 C 0.91104 0.67924 0.38209 0.0
C807 C 0.89085 0.70244 0.38819 0.0
C808 C 0.90391 0.71486 0.38529 0.0
C809 C 0.92058 0.70933 0.38098 0.0
C810 C 0.92411 0.69174 0.37939 0.0
C811 C 0.90025 0.73364 0.38639 0.0
C812 C 0.90437 0.7442 0.37217 0.0
C813 C 0.89285 0.74117 0.40127 0.0
C814 C 0.88902 0.73093 0.41705 0.0
C815 C 0.90215 0.72156 0.4254 0.0
C816 C 0.89842 0.71181 0.44017 0.0
C817 C 0.88163 0.71142 0.44679 0.0
C818 C 0.86855 0.72084 0.43868 0.0
C819 C 0.8722 0.7306 0.42389 0.0
H820 H 0.87877 0.70386 0.45823 0.0
H821 H 0.92152 0.80043 0.31806 0.0
H822 H 0.812 0.4183 0.86268 0.0
H823 H 0.7821 0.41035 0.86856 0.0
H824 H 0.79903 0.3732 0.90653 0.0
H825 H 0.82934 0.38099 0.90054 0.0
H826 H 0.77116 0.36114 0.88665 0.0
H827 H 0.78553 0.41113 0.92026 0.0
H828 H 0.7973 0.44041 0.92568 0.0
H829 H 0.76041 0.46175 0.89005 0.0
H830 H 0.74859 0.43255 0.88421 0.0
H831 H 0.68855 0.35798 0.92825 0.0
H832 H 0.7193 0.36111 0.92181 0.0
H833 H 0.70749 0.39852 0.88218 0.0
H834 H 0.67661 0.39553 0.88853 0.0
H835 H 0.73331 0.40941 0.90461 0.0
H836 H 0.71912 0.35877 0.87106 0.0
H837 H 0.70748 0.32932 0.86624 0.0
H838 H 0.74396 0.30898 0.90285 0.0
H839 H 0.75564 0.33836 0.90812 0.0
C840 C 0.80946 0.40836 0.87223 0.0
C841 C 0.82307 0.40045 0.88133 0.0
C842 C 0.79232 0.40383 0.87557 0.0
C843 C 0.78835 0.39145 0.88821 0.0
C844 C 0.80186 0.38287 0.89677 0.0
C845 C 0.81914 0.38734 0.89336 0.0
C846 C 0.77003 0.38826 0.89291 0.0
C847 C 0.76292 0.37161 0.89085 0.0
C848 C 0.75926 0.40201 0.89815 0.0
C849 C 0.76627 0.41962 0.9017 0.0
C850 C 0.78001 0.42205 0.91348 0.0
C851 C 0.78668 0.43864 0.91664 0.0
C852 C 0.77963 0.45293 0.90818 0.0
C853 C 0.76587 0.45066 0.89658 0.0
C854 C 0.75917 0.4341 0.89335 0.0
C855 C 0.69244 0.36687 0.91812 0.0
C856 C 0.68009 0.37656 0.90893 0.0
C857 C 0.71003 0.36854 0.9144 0.0
C858 C 0.71564 0.37995 0.90145 0.0
C859 C 0.70339 0.38961 0.8922 0.0
C860 C 0.68575 0.38785 0.89582 0.0
C861 C 0.73434 0.38237 0.89806 0.0
C862 C 0.74154 0.39891 0.90045 0.0
C863 C 0.74515 0.36848 0.89328 0.0
C864 C 0.73814 0.3508 0.89011 0.0
C865 C 0.72456 0.34804 0.87821 0.0
C866 C 0.71797 0.33136 0.87537 0.0
C867 C 0.72496 0.3173 0.88425 0.0
C868 C 0.73855 0.31989 0.89599 0.0
C869 C 0.74517 0.33656 0.8989 0.0
H870 H 0.71988 0.30439 0.882 0.0
H871 H 0.78482 0.46576 0.91065 0.0
H872 H 0.11785 0.67902 0.60806 0.0
H873 H 0.12454 0.70973 0.60353 0.0
H874 H 0.09401 0.72286 0.64817 0.0
H875 H 0.08691 0.69242 0.65246 0.0
H876 H 0.08574 0.7429 0.62268 0.0
H877 H 0.13913 0.72487 0.64843 0.0
H878 H 0.16523 0.70705 0.65182 0.0
H879 H 0.18234 0.72229 0.60125 0.0
H880 H 0.15622 0.74002 0.59746 0.0
H881 H 0.11128 0.83163 0.62593 0.0
H882 H 0.10769 0.80114 0.63384 0.0
H883 H 0.13383 0.78595 0.58714 0.0
H884 H 0.13769 0.81621 0.57923 0.0
H885 H 0.14478 0.76736 0.61494 0.0
H886 H 0.09031 0.78439 0.58921 0.0
H887 H 0.06444 0.80266 0.58656 0.0
H888 H 0.04966 0.78944 0.63841 0.0
H889 H 0.07558 0.77126 0.64145 0.0
C890 C 0.11271 0.68846 0.61698 0.0
C891 C 0.10176 0.68331 0.63054 0.0
C892 C 0.11659 0.70599 0.61443 0.0
C893 C 0.10985 0.7186 0.62558 0.0
C894 C 0.09928 0.71339 0.63935 0.0
C895 C 0.09523 0.69596 0.64178 0.0
C896 C 0.11304 0.7373 0.62252 0.0
C897 C 0.09869 0.74826 0.62127 0.0
C898 C 0.12989 0.74428 0.62036 0.0
C899 C 0.14563 0.73364 0.6226 0.0
C900 C 0.14839 0.72431 0.63798 0.0
C901 C 0.1632 0.71425 0.63998 0.0
C902 C 0.17541 0.7135 0.62674 0.0
C903 C 0.17286 0.72286 0.61148 0.0
C904 C 0.15806 0.73293 0.60941 0.0
C905 C 0.11631 0.82181 0.61737 0.0
C906 C 0.12468 0.82641 0.60189 0.0
C907 C 0.11422 0.8044 0.62189 0.0
C908 C 0.1204 0.79132 0.611 0.0
C909 C 0.12901 0.79586 0.59574 0.0
C910 C 0.13109 0.8132 0.5912 0.0
C911 C 0.1175 0.77282 0.61513 0.0
C912 C 0.13188 0.76194 0.61651 0.0
C913 C 0.10069 0.7659 0.61752 0.0
C914 C 0.08497 0.77661 0.61561 0.0
C915 C 0.0816 0.78547 0.60008 0.0
C916 C 0.06692 0.7958 0.59851 0.0
C917 C 0.05544 0.79725 0.61232 0.0
C918 C 0.05858 0.78832 0.62773 0.0
C919 C 0.07325 0.778 0.62938 0.0
H920 H 0.04409 0.80526 0.61108 0.0
H921 H 0.18687 0.7057 0.62831 0.0
H922 H 0.68855 0.62404 0.08914 0.0
H923 H 0.71946 0.61941 0.09246 0.0
H924 H 0.71368 0.61792 0.14799 0.0
H925 H 0.68263 0.62358 0.14468 0.0
H926 H 0.74074 0.63572 0.14106 0.0
H927 H 0.72076 0.58046 0.12231 0.0
H928 H 0.70506 0.55925 0.10411 0.0
H929 H 0.73592 0.5739 0.06036 0.0
H930 H 0.75165 0.59539 0.07824 0.0
H931 H 0.8217 0.59284 0.15474 0.0
H932 H 0.79086 0.59897 0.1519 0.0
H933 H 0.7995 0.62003 0.10099 0.0
H934 H 0.83066 0.61428 0.10389 0.0
H935 H 0.77154 0.59207 0.10594 0.0
H936 H 0.79163 0.64772 0.12746 0.0
H937 H 0.80749 0.66655 0.14799 0.0
H938 H 0.77616 0.64748 0.18969 0.0
H939 H 0.76028 0.62833 0.16944 0.0
C940 C 0.69382 0.62259 0.10207 0.0
C941 C 0.68319 0.62407 0.11667 0.0
C942 C 0.71152 0.61984 0.10395 0.0
C943 C 0.71892 0.61796 0.12046 0.0
C944 C 0.70828 0.61929 0.1351 0.0
C945 C 0.69055 0.62244 0.13322 0.0
C946 C 0.73785 0.61517 0.12232 0.0
C947 C 0.74738 0.626 0.13354 0.0
C948 C 0.74666 0.60262 0.11239 0.0
C949 C 0.73728 0.58965 0.10159 0.0
C950 C 0.72412 0.57925 0.10878 0.0
C951 C 0.71523 0.56716 0.09852 0.0
C952 C 0.71947 0.56525 0.08108 0.0
C953 C 0.73264 0.5754 0.07387 0.0
C954 C 0.74156 0.58753 0.08406 0.0
C955 C 0.81707 0.59886 0.14296 0.0
C956 C 0.82854 0.60303 0.12948 0.0
C957 C 0.79948 0.60239 0.1414 0.0
C958 C 0.793 0.60992 0.12626 0.0
C959 C 0.80436 0.61421 0.11278 0.0
C960 C 0.82209 0.61099 0.11447 0.0
C961 C 0.77421 0.61272 0.12444 0.0
C962 C 0.76476 0.60181 0.11335 0.0
C963 C 0.76545 0.62485 0.1348 0.0
C964 C 0.77488 0.63647 0.14695 0.0
C965 C 0.78823 0.64743 0.14103 0.0
C966 C 0.7972 0.65818 0.15261 0.0
C967 C 0.79286 0.65818 0.17014 0.0
C968 C 0.77951 0.64746 0.17611 0.0
C969 C 0.77051 0.63667 0.16458 0.0
H970 H 0.79983 0.66651 0.17909 0.0
H971 H 0.71257 0.55589 0.07316 0.0
H972 H 0.85099 0.18099 0.60599 0.0
H973 H 0.85298 0.21185 0.61247 0.0
H974 H 0.90871 0.20849 0.61441 0.0
H975 H 0.90661 0.17717 0.6089 0.0
H976 H 0.89852 0.23073 0.63744 0.0
H977 H 0.88608 0.22248 0.57724 0.0
H978 H 0.87023 0.21091 0.55192 0.0
H979 H 0.82409 0.23645 0.56852 0.0
H980 H 0.83961 0.24799 0.59408 0.0
H981 H 0.91397 0.31982 0.61915 0.0
H982 H 0.91197 0.2884 0.61602 0.0
H983 H 0.85705 0.29025 0.6254 0.0
H984 H 0.85896 0.32179 0.62877 0.0
H985 H 0.86718 0.26914 0.5967 0.0
H986 H 0.88114 0.27791 0.65695 0.0
H987 H 0.89827 0.28986 0.68125 0.0
H988 H 0.94342 0.26382 0.66283 0.0
H989 H 0.92662 0.25191 0.63826 0.0
C990 C 0.86365 0.18683 0.60805 0.0
C991 C 0.87867 0.17688 0.60678 0.0
C992 C 0.86479 0.20446 0.61163 0.0
C993 C 0.88101 0.21262 0.61334 0.0
C994 C 0.89605 0.2025 0.61296 0.0
C995 C 0.89487 0.18467 0.60982 0.0
C996 C 0.88218 0.23176 0.61478 0.0
C997 C 0.89186 0.23911 0.62839 0.0
C998 C 0.8733 0.24276 0.6031 0.0
C999 C 0.86398 0.23598 0.58764 0.0
C1000 C 0.87253 0.22555 0.57554 0.0
C1001 C 0.86361 0.219 0.56114 0.0
C1002 C 0.84616 0.22291 0.55863 0.0
C1003 C 0.83761 0.23342 0.57049 0.0
C1004 C 0.84646 0.23999 0.58492 0.0
C1005 C 0.90143 0.31357 0.62044 0.0
C1006 C 0.88661 0.32323 0.62425 0.0
C1007 C 0.90035 0.29562 0.61874 0.0
C1008 C 0.88442 0.28705 0.62069 0.0
C1009 C 0.86948 0.29669 0.62394 0.0
C1010 C 0.87059 0.31466 0.62585 0.0
C1011 C 0.88341 0.26799 0.61935 0.0
C1012 C 0.87381 0.2607 0.60573 0.0
C1013 C 0.89257 0.2571 0.63084 0.0
C1014 C 0.90266 0.26416 0.64567 0.0
C1015 C 0.89476 0.27485 0.65799 0.0
C1016 C 0.9044 0.28159 0.67183 0.0
C1017 C 0.92193 0.27764 0.67356 0.0
C1018 C 0.92984 0.26689 0.66147 0.0
C1019 C 0.92026 0.26013 0.64759 0.0
H1020 H 0.92937 0.28287 0.68428 0.0
H1021 H 0.83927 0.21782 0.54749 0.0
H1022 H 0.32239 0.39438 0.09171 0.0
H1023 H 0.29123 0.39641 0.09652 0.0
H1024 H 0.29564 0.36297 0.14096 0.0
H1025 H 0.32696 0.36104 0.13635 0.0
H1026 H 0.26931 0.3531 0.11652 0.0
H1027 H 0.28841 0.40286 0.14862 0.0
H1028 H 0.30463 0.43013 0.15315 0.0
H1029 H 0.2764 0.45385 0.1116 0.0
H1030 H 0.2602 0.42662 0.10663 0.0
H1031 H 0.18142 0.36524 0.14233 0.0
H1032 H 0.21284 0.36193 0.14078 0.0
H1033 H 0.2155 0.403 0.103 0.0
H1034 H 0.18425 0.40676 0.10502 0.0
H1035 H 0.23881 0.40837 0.12653 0.0
H1036 H 0.22121 0.35901 0.09267 0.0
H1037 H 0.20551 0.33174 0.08653 0.0
H1038 H 0.23107 0.30734 0.1294 0.0
H1039 H 0.24675 0.33455 0.13593 0.0
C1040 C 0.31676 0.38762 0.10262 0.0
C1041 C 0.32706 0.37756 0.11367 0.0
C1042 C 0.29898 0.3888 0.10535 0.0
C1043 C 0.2912 0.37984 0.11909 0.0
C1044 C 0.30146 0.36996 0.13029 0.0
C1045 C 0.31932 0.36896 0.1277 0.0
C1046 C 0.27223 0.38042 0.1213 0.0
C1047 C 0.26259 0.36511 0.11901 0.0
C1048 C 0.26358 0.39618 0.1241 0.0
C1049 C 0.27319 0.41264 0.12716 0.0
C1050 C 0.28575 0.41384 0.14035 0.0
C1051 C 0.29493 0.42931 0.14302 0.0
C1052 C 0.29157 0.4437 0.13264 0.0
C1053 C 0.279 0.44268 0.11962 0.0
C1054 C 0.2698 0.42724 0.11688 0.0
C1055 C 0.1887 0.37337 0.13352 0.0
C1056 C 0.18044 0.38627 0.12381 0.0
C1057 C 0.20665 0.37146 0.13261 0.0
C1058 C 0.21655 0.38218 0.12172 0.0
C1059 C 0.20816 0.39466 0.11158 0.0
C1060 C 0.19029 0.39674 0.11267 0.0
C1061 C 0.23572 0.38106 0.12142 0.0
C1062 C 0.24544 0.3963 0.12413 0.0
C1063 C 0.24443 0.36524 0.11881 0.0
C1064 C 0.23501 0.34887 0.1149 0.0
C1065 C 0.22337 0.34787 0.10087 0.0
C1066 C 0.2145 0.33242 0.09731 0.0
C1067 C 0.21725 0.31783 0.1076 0.0
C1068 C 0.22892 0.31866 0.12145 0.0
C1069 C 0.23782 0.33409 0.12509 0.0
H1070 H 0.21038 0.30587 0.10482 0.0
H1071 H 0.29869 0.45566 0.13472 0.0
H1072 H 0.35569 0.13319 0.17753 0.0
H1073 H 0.35154 0.13415 0.20902 0.0
H1074 H 0.4011 0.11003 0.21658 0.0
H1075 H 0.4053 0.10894 0.18537 0.0
H1076 H 0.35223 0.10849 0.23575 0.0
H1077 H 0.42226 0.13315 0.24787 0.0
H1078 H 0.4447 0.15009 0.23264 0.0
H1079 H 0.40545 0.17627 0.20342 0.0
H1080 H 0.38277 0.15969 0.21867 0.0
H1081 H 0.38341 0.09222 0.3197 0.0
H1082 H 0.38123 0.09571 0.28839 0.0
H1083 H 0.37235 0.15032 0.29488 0.0
H1084 H 0.37424 0.1469 0.32644 0.0
H1085 H 0.3968 0.14179 0.26862 0.0
H1086 H 0.33895 0.12789 0.28526 0.0
H1087 H 0.31562 0.11157 0.29977 0.0
H1088 H 0.32891 0.06589 0.27134 0.0
H1089 H 0.35245 0.08189 0.25678 0.0
C1090 C 0.36552 0.12779 0.18592 0.0
C1091 C 0.38088 0.12115 0.17902 0.0
C1092 C 0.36315 0.12838 0.20387 0.0
C1093 C 0.37619 0.12247 0.21505 0.0
C1094 C 0.39104 0.11492 0.20813 0.0
C1095 C 0.39337 0.11425 0.19029 0.0
C1096 C 0.37486 0.12481 0.23398 0.0
C1097 C 0.36188 0.11585 0.24295 0.0
C1098 C 0.38728 0.13473 0.24329 0.0
C1099 C 0.40082 0.14508 0.23434 0.0
C1100 C 0.41841 0.1426 0.23828 0.0
C1101 C 0.43118 0.15212 0.22962 0.0
C1102 C 0.42651 0.16422 0.21704 0.0
C1103 C 0.40906 0.16686 0.21313 0.0
C1104 C 0.39624 0.15739 0.22176 0.0
C1105 C 0.38115 0.10502 0.3145 0.0
C1106 C 0.37896 0.1193 0.32552 0.0
C1107 C 0.37979 0.10695 0.29661 0.0
C1108 C 0.37638 0.12321 0.28939 0.0
C1109 C 0.37486 0.13765 0.30028 0.0
C1110 C 0.37599 0.13568 0.31825 0.0
C1111 C 0.37454 0.12493 0.27042 0.0
C1112 C 0.38698 0.13463 0.26143 0.0
C1113 C 0.36154 0.11581 0.26111 0.0
C1114 C 0.34755 0.10606 0.27002 0.0
C1115 C 0.33701 0.11432 0.28223 0.0
C1116 C 0.32372 0.10513 0.29044 0.0
C1117 C 0.32081 0.08769 0.28651 0.0
C1118 C 0.33119 0.0794 0.27437 0.0
C1119 C 0.34448 0.08853 0.26612 0.0
H1120 H 0.31049 0.0806 0.29281 0.0
H1121 H 0.43641 0.17156 0.21034 0.0
H1122 H 0.39991 0.88963 0.6767 0.0
H1123 H 0.40441 0.88284 0.70732 0.0
H1124 H 0.35435 0.90396 0.7193 0.0
H1125 H 0.35017 0.91142 0.68891 0.0
H1126 H 0.37629 0.91618 0.74082 0.0
H1127 H 0.36341 0.85905 0.72072 0.0
H1128 H 0.36591 0.83321 0.7022 0.0
H1129 H 0.41886 0.82732 0.71806 0.0
H1130 H 0.41675 0.85326 0.7365 0.0
H1131 H 0.38202 0.8883 0.82927 0.0
H1132 H 0.37229 0.89162 0.79924 0.0
H1133 H 0.42285 0.87698 0.78129 0.0
H1134 H 0.4326 0.87342 0.811 0.0
H1135 H 0.39759 0.86027 0.76359 0.0
H1136 H 0.4102 0.91929 0.78192 0.0
H1137 H 0.40676 0.94471 0.80086 0.0
H1138 H 0.35253 0.94616 0.78855 0.0
H1139 H 0.35562 0.9206 0.7697 0.0
C1140 C 0.3898 0.8926 0.68587 0.0
C1141 C 0.37476 0.90115 0.68048 0.0
C1142 C 0.39233 0.88865 0.70335 0.0
C1143 C 0.37965 0.89277 0.71565 0.0
C1144 C 0.36436 0.90074 0.71011 0.0
C1145 C 0.36198 0.90498 0.69274 0.0
C1146 C 0.38276 0.88984 0.7344 0.0
C1147 C 0.38063 0.90383 0.7458 0.0
C1148 C 0.38864 0.87383 0.74095 0.0
C1149 C 0.38995 0.85819 0.72989 0.0
C1150 C 0.37562 0.85232 0.72016 0.0
C1151 C 0.37697 0.83764 0.70969 0.0
C1152 C 0.39255 0.82865 0.70892 0.0
C1153 C 0.40681 0.8343 0.71866 0.0
C1154 C 0.40554 0.84898 0.72914 0.0
C1155 C 0.39108 0.88586 0.81893 0.0
C1156 C 0.40809 0.88058 0.82259 0.0
C1157 C 0.3855 0.88777 0.80179 0.0
C1158 C 0.39688 0.88457 0.78805 0.0
C1159 C 0.41384 0.87941 0.79169 0.0
C1160 C 0.4194 0.87746 0.80874 0.0
C1161 C 0.39135 0.88664 0.7698 0.0
C1162 C 0.39303 0.87251 0.75854 0.0
C1163 C 0.38489 0.90245 0.76339 0.0
C1164 C 0.3831 0.91794 0.77455 0.0
C1165 C 0.39752 0.92496 0.78334 0.0
C1166 C 0.39564 0.93941 0.79405 0.0
C1167 C 0.37943 0.94701 0.79595 0.0
C1168 C 0.36507 0.94024 0.78709 0.0
C1169 C 0.36689 0.92578 0.77639 0.0
H1170 H 0.37799 0.95818 0.80425 0.0
H1171 H 0.39356 0.81729 0.70081 0.0
H1172 H 0.6113 0.90412 0.1868 0.0
H1173 H 0.6153 0.90376 0.21812 0.0
H1174 H 0.6529 0.86318 0.21317 0.0
H1175 H 0.64905 0.86361 0.18158 0.0
H1176 H 0.62585 0.8555 0.2363 0.0
H1177 H 0.6669 0.90071 0.22668 0.0
H1178 H 0.67808 0.92803 0.21441 0.0
H1179 H 0.6381 0.95618 0.24018 0.0
H1180 H 0.62651 0.92899 0.2524 0.0
H1181 H 0.63939 0.8586 0.32844 0.0
H1182 H 0.64242 0.8572 0.29698 0.0
H1183 H 0.61022 0.90222 0.29164 0.0
H1184 H 0.60747 0.90391 0.32306 0.0
H1185 H 0.63907 0.90614 0.27369 0.0
H1186 H 0.59602 0.86108 0.28035 0.0
H1187 H 0.58387 0.83391 0.29205 0.0
H1188 H 0.62671 0.8057 0.27147 0.0
H1189 H 0.63924 0.83276 0.25984 0.0
C1190 C 0.6207 0.89538 0.19233 0.0
C1191 C 0.62985 0.88387 0.18181 0.0
C1192 C 0.623 0.89521 0.21022 0.0
C1193 C 0.63439 0.88345 0.21793 0.0
C1194 C 0.64406 0.87236 0.20742 0.0
C1195 C 0.64195 0.8727 0.18942 0.0
C1196 C 0.63492 0.88193 0.237 0.0
C1197 C 0.62912 0.86643 0.24455 0.0
C1198 C 0.6388 0.89634 0.24763 0.0
C1199 C 0.64576 0.91277 0.24037 0.0
C1200 C 0.6604 0.9127 0.22963 0.0
C1201 C 0.66683 0.92817 0.2227 0.0
C1202 C 0.65879 0.94383 0.22649 0.0
C1203 C 0.64432 0.94404 0.23725 0.0
C1204 C 0.63783 0.92861 0.2442 0.0
C1205 C 0.63269 0.868 0.32053 0.0
C1206 C 0.62325 0.88142 0.32819 0.0
C1207 C 0.63445 0.86719 0.30256 0.0
C1208 C 0.62659 0.87964 0.29196 0.0
C1209 C 0.61651 0.89257 0.29958 0.0
C1210 C 0.61487 0.89346 0.31753 0.0
C1211 C 0.62953 0.87985 0.27301 0.0
C1212 C 0.63602 0.89512 0.2655 0.0
C1213 C 0.62619 0.86524 0.26241 0.0
C1214 C 0.61867 0.84897 0.26941 0.0
C1215 C 0.60293 0.84911 0.27846 0.0
C1216 C 0.59595 0.83372 0.28504 0.0
C1217 C 0.60454 0.81809 0.28255 0.0
C1218 C 0.62009 0.81781 0.27342 0.0
C1219 C 0.62713 0.83317 0.26682 0.0
H1220 H 0.59912 0.80619 0.28766 0.0
H1221 H 0.66378 0.95579 0.22112 0.0
H1222 H 0.61496 0.10314 0.82725 0.0
H1223 H 0.621 0.09725 0.79675 0.0
H1224 H 0.5991 0.14651 0.78267 0.0
H1225 H 0.59233 0.15203 0.81294 0.0
H1226 H 0.58711 0.12358 0.76206 0.0
H1227 H 0.6444 0.13777 0.78247 0.0
H1228 H 0.67007 0.13539 0.8014 0.0
H1229 H 0.67606 0.08231 0.78631 0.0
H1230 H 0.6503 0.08432 0.76744 0.0
H1231 H 0.61691 0.12559 0.67509 0.0
H1232 H 0.6122 0.13184 0.7057 0.0
H1233 H 0.62922 0.08054 0.71913 0.0
H1234 H 0.63426 0.07425 0.68868 0.0
H1235 H 0.6439 0.10446 0.73984 0.0
H1236 H 0.58622 0.09097 0.71918 0.0
H1237 H 0.56106 0.09426 0.69973 0.0
H1238 H 0.5564 0.14743 0.71502 0.0
H1239 H 0.58169 0.14452 0.7344 0.0
C1240 C 0.61161 0.11275 0.81763 0.0
C1241 C 0.60313 0.128 0.82242 0.0
C1242 C 0.61512 0.10942 0.80021 0.0
C1243 C 0.61064 0.12151 0.78738 0.0
C1244 C 0.60259 0.13694 0.79229 0.0
C1245 C 0.59877 0.1401 0.8096 0.0
C1246 C 0.61359 0.11787 0.76876 0.0
C1247 C 0.59961 0.11964 0.7572 0.0
C1248 C 0.62978 0.11235 0.76241 0.0
C1249 C 0.64533 0.11115 0.77367 0.0
C1250 C 0.65113 0.12556 0.78328 0.0
C1251 C 0.66571 0.12428 0.79398 0.0
C1252 C 0.67466 0.1087 0.79509 0.0
C1253 C 0.66909 0.09437 0.78545 0.0
C1254 C 0.65452 0.09558 0.77474 0.0
C1255 C 0.61957 0.11559 0.68453 0.0
C1256 C 0.62597 0.09942 0.6794 0.0
C1257 C 0.61684 0.11918 0.70202 0.0
C1258 C 0.62026 0.1066 0.71467 0.0
C1259 C 0.62655 0.09044 0.70958 0.0
C1260 C 0.62936 0.08687 0.69214 0.0
C1261 C 0.61747 0.11028 0.73325 0.0
C1262 C 0.63143 0.10845 0.74477 0.0
C1263 C 0.60132 0.1159 0.73955 0.0
C1264 C 0.58594 0.11756 0.72813 0.0
C1265 C 0.57989 0.10339 0.71832 0.0
C1266 C 0.5656 0.10518 0.70732 0.0
C1267 C 0.55716 0.12105 0.70611 0.0
C1268 C 0.56296 0.13515 0.71595 0.0
C1269 C 0.57725 0.13343 0.72697 0.0
H1270 H 0.54612 0.12242 0.69756 0.0
H1271 H 0.68594 0.10773 0.80338 0.0
H1272 H 0.88647 0.81881 0.58058 0.0
H1273 H 0.8821 0.78809 0.58593 0.0
H1274 H 0.8592 0.79948 0.63538 0.0
H1275 H 0.86369 0.83045 0.63023 0.0
H1276 H 0.8836 0.77536 0.63841 0.0
H1277 H 0.83405 0.78253 0.60372 0.0
H1278 H 0.81619 0.79262 0.57928 0.0
H1279 H 0.8467 0.76289 0.54402 0.0
H1280 H 0.86493 0.75283 0.5682 0.0
H1281 H 0.87807 0.68174 0.64155 0.0
H1282 H 0.86756 0.71164 0.64163 0.0
H1283 H 0.89484 0.72166 0.59408 0.0
H1284 H 0.90549 0.69206 0.59396 0.0
H1285 H 0.86005 0.7342 0.59476 0.0
H1286 H 0.91307 0.73363 0.63004 0.0
H1287 H 0.93047 0.72367 0.6549 0.0
H1288 H 0.89126 0.74108 0.68983 0.0
H1289 H 0.87353 0.75094 0.66512 0.0
C1290 C 0.88033 0.81487 0.59254 0.0
C1291 C 0.87554 0.82713 0.60502 0.0
C1292 C 0.87771 0.79727 0.59551 0.0
C1293 C 0.87014 0.79151 0.61097 0.0
C1294 C 0.86498 0.80368 0.62333 0.0
C1295 C 0.86756 0.82136 0.62035 0.0
C1296 C 0.86913 0.77273 0.6146 0.0
C1297 C 0.878 0.76636 0.62912 0.0
C1298 C 0.86183 0.76098 0.60248 0.0
C1299 C 0.85092 0.76697 0.58781 0.0
C1300 C 0.83704 0.77823 0.59074 0.0
C1301 C 0.82683 0.78393 0.57693 0.0
C1302 C 0.83032 0.77841 0.56011 0.0
C1303 C 0.84401 0.76715 0.55706 0.0
C1304 C 0.85427 0.76142 0.57083 0.0
C1305 C 0.88175 0.69033 0.63109 0.0
C1306 C 0.89272 0.68463 0.61782 0.0
C1307 C 0.87574 0.70734 0.63116 0.0
C1308 C 0.88043 0.71876 0.61784 0.0
C1309 C 0.89104 0.71297 0.60442 0.0
C1310 C 0.89723 0.69612 0.60446 0.0
C1311 C 0.87516 0.73705 0.61807 0.0
C1312 C 0.86511 0.74326 0.6043 0.0
C1313 C 0.8812 0.74864 0.63095 0.0
C1314 C 0.89189 0.7428 0.64575 0.0
C1315 C 0.9081 0.73519 0.64302 0.0
C1316 C 0.91803 0.72959 0.65708 0.0
C1317 C 0.91195 0.73168 0.67394 0.0
C1318 C 0.89594 0.73943 0.67677 0.0
C1319 C 0.88595 0.74503 0.66275 0.0
H1320 H 0.91965 0.72734 0.6848 0.0
H1321 H 0.8224 0.78284 0.54943 0.0
H1322 H 0.8226 0.33982 0.12463 0.0
H1323 H 0.79138 0.33448 0.1276 0.0
H1324 H 0.786 0.3837 0.1532 0.0
H1325 H 0.81694 0.38918 0.1502 0.0
H1326 H 0.76299 0.33798 0.156 0.0
H1327 H 0.75988 0.40516 0.12595 0.0
H1328 H 0.77825 0.42502 0.10885 0.0
H1329 H 0.80261 0.38165 0.08461 0.0
H1330 H 0.78418 0.36158 0.10135 0.0
H1331 H 0.67846 0.37712 0.15509 0.0
H1332 H 0.70867 0.3684 0.1591 0.0
H1333 H 0.71217 0.35675 0.10465 0.0
H1334 H 0.68224 0.36553 0.10052 0.0
H1335 H 0.73641 0.37977 0.1152 0.0
H1336 H 0.7143 0.32485 0.13308 0.0
H1337 H 0.69618 0.30475 0.15006 0.0
H1338 H 0.72143 0.32156 0.19683 0.0
H1339 H 0.73951 0.34201 0.18017 0.0
C1340 C 0.81482 0.34923 0.13137 0.0
C1341 C 0.82206 0.36508 0.13684 0.0
C1342 C 0.79706 0.3461 0.13318 0.0
C1343 C 0.78649 0.35877 0.1405 0.0
C1344 C 0.79402 0.37379 0.14752 0.0
C1345 C 0.81167 0.37696 0.14564 0.0
C1346 C 0.76764 0.35831 0.13752 0.0
C1347 C 0.75708 0.34702 0.14708 0.0
C1348 C 0.76011 0.36994 0.12564 0.0
C1349 C 0.77077 0.3819 0.11501 0.0
C1350 C 0.76908 0.39989 0.11688 0.0
C1351 C 0.77951 0.41117 0.10727 0.0
C1352 C 0.79163 0.4046 0.09569 0.0
C1353 C 0.79326 0.38673 0.09362 0.0
C1354 C 0.78284 0.3754 0.10317 0.0
C1355 C 0.68562 0.37245 0.14405 0.0
C1356 C 0.67812 0.37223 0.12746 0.0
C1357 C 0.7028 0.36735 0.14638 0.0
C1358 C 0.71259 0.36193 0.13216 0.0
C1359 C 0.7048 0.36091 0.11577 0.0
C1360 C 0.68772 0.36599 0.11344 0.0
C1361 C 0.73146 0.35954 0.1338 0.0
C1362 C 0.74215 0.3705 0.12402 0.0
C1363 C 0.73895 0.34744 0.1453 0.0
C1364 C 0.72816 0.3351 0.15538 0.0
C1365 C 0.71589 0.32439 0.14701 0.0
C1366 C 0.70564 0.3129 0.15657 0.0
C1367 C 0.70763 0.3119 0.17452 0.0
C1368 C 0.7199 0.32236 0.18293 0.0
C1369 C 0.73016 0.33389 0.17343 0.0
H1370 H 0.69969 0.303 0.18191 0.0
H1371 H 0.79972 0.41336 0.08829 0.0
H1372 H 0.15183 0.18148 0.62468 0.0
H1373 H 0.15547 0.21217 0.63204 0.0
H1374 H 0.10014 0.21891 0.62813 0.0
H1375 H 0.0967 0.18861 0.61974 0.0
H1376 H 0.11473 0.24161 0.60981 0.0
H1377 H 0.12484 0.22114 0.66781 0.0
H1378 H 0.13906 0.20383 0.6905 0.0
H1379 H 0.18792 0.22785 0.67864 0.0
H1380 H 0.17403 0.24515 0.65572 0.0
H1381 H 0.10283 0.32365 0.64165 0.0
H1382 H 0.10587 0.29247 0.64484 0.0
H1383 H 0.15919 0.29626 0.62903 0.0
H1384 H 0.15628 0.32772 0.62576 0.0
H1385 H 0.14866 0.26892 0.65738 0.0
H1386 H 0.13713 0.28872 0.59849 0.0
H1387 H 0.12148 0.30666 0.57729 0.0
H1388 H 0.0733 0.28339 0.59278 0.0
H1389 H 0.08866 0.26553 0.61429 0.0
C1390 C 0.14048 0.18953 0.62572 0.0
C1391 C 0.12402 0.18288 0.62152 0.0
C1392 C 0.14254 0.20702 0.63001 0.0
C1393 C 0.12807 0.21789 0.63067 0.0
C1394 C 0.11151 0.21084 0.62754 0.0
C1395 C 0.10953 0.19356 0.62279 0.0
C1396 C 0.13012 0.2369 0.6327 0.0
C1397 C 0.122 0.24746 0.62038 0.0
C1398 C 0.14007 0.24467 0.64613 0.0
C1399 C 0.14842 0.23431 0.65993 0.0
C1400 C 0.13864 0.22263 0.66995 0.0
C1401 C 0.14664 0.21284 0.68287 0.0
C1402 C 0.16439 0.2147 0.68598 0.0
C1403 C 0.17418 0.2264 0.6762 0.0
C1404 C 0.16624 0.23622 0.66326 0.0
C1405 C 0.11534 0.31795 0.63923 0.0
C1406 C 0.12925 0.32804 0.63315 0.0
C1407 C 0.11707 0.30016 0.64118 0.0
C1408 C 0.1327 0.29215 0.63706 0.0
C1409 C 0.14706 0.3023 0.63235 0.0
C1410 C 0.14534 0.32021 0.63037 0.0
C1411 C 0.13288 0.27322 0.6348 0.0
C1412 C 0.14148 0.26283 0.64689 0.0
C1413 C 0.12321 0.26546 0.62129 0.0
C1414 C 0.11402 0.27591 0.60809 0.0
C1415 C 0.12318 0.28753 0.59746 0.0
C1416 C 0.11437 0.29767 0.58537 0.0
C1417 C 0.0964 0.29619 0.58371 0.0
C1418 C 0.08721 0.28453 0.59409 0.0
C1419 C 0.09597 0.27439 0.60622 0.0
H1420 H 0.08959 0.30406 0.57436 0.0
H1421 H 0.17056 0.20711 0.69598 0.0
H1422 H 0.19082 0.59212 0.11514 0.0
H1423 H 0.22068 0.5985 0.12333 0.0
H1424 H 0.20343 0.6387 0.15775 0.0
H1425 H 0.17343 0.63262 0.14939 0.0
H1426 H 0.22946 0.64997 0.13934 0.0
H1427 H 0.21937 0.60096 0.17424 0.0
H1428 H 0.20935 0.5715 0.18158 0.0
H1429 H 0.24585 0.55005 0.146 0.0
H1430 H 0.25592 0.5794 0.13824 0.0
H1431 H 0.32565 0.62043 0.16125 0.0
H1432 H 0.29511 0.62311 0.16908 0.0
H1433 H 0.28357 0.64194 0.11778 0.0
H1434 H 0.31394 0.63941 0.10997 0.0
H1435 H 0.27111 0.60395 0.15462 0.0
H1436 H 0.24711 0.66544 0.11704 0.0
H1437 H 0.25486 0.69622 0.1135 0.0
H1438 H 0.28583 0.69443 0.15973 0.0
H1439 H 0.27804 0.66368 0.16375 0.0
C1440 C 0.19332 0.60226 0.12453 0.0
C1441 C 0.17971 0.61188 0.13157 0.0
C1442 C 0.21041 0.60582 0.1293 0.0
C1443 C 0.21426 0.61889 0.14137 0.0
C1444 C 0.20073 0.6285 0.14847 0.0
C1445 C 0.1836 0.62502 0.14364 0.0
C1446 C 0.23253 0.62307 0.14569 0.0
C1447 C 0.2386 0.63997 0.14281 0.0
C1448 C 0.24428 0.61015 0.15093 0.0
C1449 C 0.23836 0.59242 0.15561 0.0
C1450 C 0.22519 0.58997 0.1679 0.0
C1451 C 0.21951 0.57329 0.17215 0.0
C1452 C 0.22695 0.55891 0.16425 0.0
C1453 C 0.24011 0.5612 0.15211 0.0
C1454 C 0.24583 0.57786 0.14781 0.0
C1455 C 0.31665 0.62556 0.15181 0.0
C1456 C 0.32209 0.62946 0.13492 0.0
C1457 C 0.29923 0.6271 0.1563 0.0
C1458 C 0.28705 0.63274 0.14403 0.0
C1459 C 0.29273 0.63779 0.12755 0.0
C1460 C 0.31009 0.63618 0.12304 0.0
C1461 C 0.26825 0.63068 0.14723 0.0
C1462 C 0.26201 0.6141 0.15151 0.0
C1463 C 0.25634 0.644 0.1436 0.0
C1464 C 0.26199 0.6622 0.14068 0.0
C1465 C 0.25556 0.67159 0.12648 0.0
C1466 C 0.25993 0.68905 0.1244 0.0
C1467 C 0.27071 0.6973 0.13646 0.0
C1468 C 0.27741 0.68802 0.15044 0.0
C1469 C 0.27307 0.67055 0.15259 0.0
H1470 H 0.27388 0.71087 0.13492 0.0
H1471 H 0.22253 0.546 0.16756 0.0
H1472 H 0.86597 0.17727 0.34195 0.0
H1473 H 0.85508 0.20602 0.33415 0.0
H1474 H 0.86042 0.22214 0.38745 0.0
H1475 H 0.87042 0.19354 0.39529 0.0
H1476 H 0.83321 0.23621 0.37499 0.0
H1477 H 0.89319 0.22843 0.35417 0.0
H1478 H 0.91505 0.2147 0.3356 0.0
H1479 H 0.88549 0.22794 0.29037 0.0
H1480 H 0.86339 0.24161 0.30873 0.0
H1481 H 0.89149 0.31328 0.37205 0.0
H1482 H 0.88401 0.28448 0.36193 0.0
H1483 H 0.83035 0.29908 0.35754 0.0
H1484 H 0.83781 0.3281 0.36846 0.0
H1485 H 0.87102 0.2694 0.33508 0.0
H1486 H 0.80595 0.26344 0.36731 0.0
H1487 H 0.78809 0.27738 0.38966 0.0
H1488 H 0.83399 0.29199 0.41786 0.0
H1489 H 0.85207 0.27801 0.39574 0.0
C1490 C 0.86459 0.18696 0.35197 0.0
C1491 C 0.86922 0.18329 0.36918 0.0
C1492 C 0.85837 0.20334 0.34751 0.0
C1493 C 0.85707 0.21634 0.36017 0.0
C1494 C 0.86113 0.21235 0.37743 0.0
C1495 C 0.86702 0.196 0.3819 0.0
C1496 C 0.8532 0.23458 0.35571 0.0
C1497 C 0.84123 0.24344 0.36598 0.0
C1498 C 0.86338 0.24405 0.34376 0.0
C1499 C 0.87656 0.23578 0.33279 0.0
C1500 C 0.89133 0.2283 0.34027 0.0
C1501 C 0.90375 0.22055 0.32979 0.0
C1502 C 0.90162 0.22039 0.31182 0.0
C1503 C 0.88709 0.22802 0.30429 0.0
C1504 C 0.87461 0.23576 0.31472 0.0
C1505 C 0.8781 0.31046 0.36881 0.0
C1506 C 0.86518 0.32281 0.37134 0.0
C1507 C 0.87384 0.294 0.36283 0.0
C1508 C 0.85658 0.28951 0.35908 0.0
C1509 C 0.84372 0.30217 0.36058 0.0
C1510 C 0.84798 0.31869 0.36685 0.0
C1511 C 0.85235 0.27106 0.35562 0.0
C1512 C 0.86246 0.26214 0.34354 0.0
C1513 C 0.841 0.26155 0.36642 0.0
C1514 C 0.83031 0.26992 0.37979 0.0
C1515 C 0.81219 0.26964 0.37829 0.0
C1516 C 0.80204 0.27754 0.39091 0.0
C1517 C 0.8099 0.28563 0.40514 0.0
C1518 C 0.82792 0.28578 0.40681 0.0
C1519 C 0.83812 0.27788 0.39424 0.0
H1520 H 0.80203 0.29175 0.41488 0.0
H1521 H 0.91126 0.21439 0.30373 0.0
H1522 H 0.17837 0.34261 0.88556 0.0
H1523 H 0.20952 0.3367 0.88591 0.0
H1524 H 0.21986 0.38803 0.86643 0.0
H1525 H 0.18894 0.39407 0.86618 0.0
H1526 H 0.2396 0.33983 0.86257 0.0
H1527 H 0.24705 0.4062 0.89553 0.0
H1528 H 0.22934 0.42669 0.91217 0.0
H1529 H 0.19812 0.38458 0.93111 0.0
H1530 H 0.21582 0.36385 0.91483 0.0
H1531 H 0.32762 0.36801 0.86865 0.0
H1532 H 0.29684 0.36274 0.86333 0.0
H1533 H 0.28835 0.358 0.91831 0.0
H1534 H 0.31897 0.36408 0.92371 0.0
H1535 H 0.2667 0.37917 0.90591 0.0
H1536 H 0.28544 0.32308 0.88863 0.0
H1537 H 0.3031 0.30228 0.87244 0.0
H1538 H 0.28209 0.3209 0.82452 0.0
H1539 H 0.26463 0.34218 0.84035 0.0
C1540 C 0.18728 0.35244 0.88089 0.0
C1541 C 0.18132 0.36892 0.87619 0.0
C1542 C 0.20502 0.34901 0.88102 0.0
C1543 C 0.21691 0.36203 0.87643 0.0
C1544 C 0.21084 0.37788 0.87015 0.0
C1545 C 0.19319 0.38134 0.87009 0.0
C1546 C 0.23542 0.36033 0.88087 0.0
C1547 C 0.24563 0.34834 0.87206 0.0
C1548 C 0.24305 0.37119 0.89356 0.0
C1549 C 0.23267 0.38351 0.90384 0.0
C1550 C 0.23647 0.40132 0.90333 0.0
C1551 C 0.22643 0.41298 0.91269 0.0
C1552 C 0.21258 0.40695 0.92265 0.0
C1553 C 0.20881 0.38924 0.92335 0.0
C1554 C 0.21884 0.37754 0.91406 0.0
C1555 C 0.31922 0.36559 0.87958 0.0
C1556 C 0.32563 0.36663 0.89661 0.0
C1557 C 0.30164 0.36245 0.87652 0.0
C1558 C 0.29026 0.35986 0.89041 0.0
C1559 C 0.29685 0.36005 0.90738 0.0
C1560 C 0.31434 0.36353 0.91046 0.0
C1561 C 0.27129 0.35879 0.88745 0.0
C1562 C 0.26086 0.37041 0.89654 0.0
C1563 C 0.26355 0.34736 0.87524 0.0
C1564 C 0.27379 0.33433 0.8657 0.0
C1565 C 0.28465 0.32283 0.87463 0.0
C1566 C 0.29463 0.31094 0.86552 0.0
C1567 C 0.29371 0.31025 0.84748 0.0
C1568 C 0.28279 0.32145 0.8385 0.0
C1569 C 0.27285 0.33344 0.84754 0.0
H1570 H 0.30145 0.30102 0.84047 0.0
H1571 H 0.2048 0.41599 0.92985 0.0
H1572 H 0.14175 0.82215 0.39586 0.0
H1573 H 0.14146 0.79071 0.39167 0.0
H1574 H 0.10779 0.79644 0.34744 0.0
H1575 H 0.1084 0.82794 0.35122 0.0
H1576 H 0.09691 0.77548 0.38119 0.0
H1577 H 0.13983 0.78226 0.33567 0.0
H1578 H 0.16786 0.79317 0.32489 0.0
H1579 H 0.19452 0.76413 0.36398 0.0
H1580 H 0.1666 0.75321 0.37514 0.0
H1581 H 0.08044 0.68768 0.36762 0.0
H1582 H 0.08663 0.7183 0.36232 0.0
H1583 H 0.13795 0.71209 0.38376 0.0
H1584 H 0.13216 0.68112 0.38771 0.0
H1585 H 0.1406 0.73401 0.36 0.0
H1586 H 0.10196 0.72884 0.40757 0.0
H1587 H 0.07596 0.71957 0.42359 0.0
H1588 H 0.04373 0.74692 0.38761 0.0
H1589 H 0.06955 0.75617 0.37123 0.0
C1590 C 0.13465 0.81673 0.38499 0.0
C1591 C 0.12499 0.82739 0.37393 0.0
C1592 C 0.13456 0.79883 0.38258 0.0
C1593 C 0.12463 0.79141 0.36925 0.0
C1594 C 0.11562 0.80206 0.3577 0.0
C1595 C 0.116 0.81999 0.35988 0.0
C1596 C 0.12165 0.77257 0.36899 0.0
C1597 C 0.10626 0.76634 0.37624 0.0
C1598 C 0.13432 0.76088 0.36334 0.0
C1599 C 0.15111 0.76704 0.35632 0.0
C1600 C 0.15166 0.77829 0.34204 0.0
C1601 C 0.16753 0.78445 0.33584 0.0
C1602 C 0.18296 0.77938 0.34377 0.0
C1603 C 0.18255 0.76805 0.35785 0.0
C1604 C 0.16671 0.76184 0.3641 0.0
C1605 C 0.09306 0.6929 0.37106 0.0
C1606 C 0.10577 0.68224 0.37825 0.0
C1607 C 0.09659 0.71039 0.36812 0.0
C1608 C 0.1126 0.71768 0.37311 0.0
C1609 C 0.12549 0.70684 0.37984 0.0
C1610 C 0.12216 0.6892 0.3822 0.0
C1611 C 0.11559 0.73668 0.37204 0.0
C1612 C 0.13106 0.74302 0.36474 0.0
C1613 C 0.10324 0.74859 0.37828 0.0
C1614 C 0.08767 0.74303 0.38807 0.0
C1615 C 0.08932 0.73277 0.403 0.0
C1616 C 0.07462 0.72753 0.41216 0.0
C1617 C 0.0582 0.73261 0.40659 0.0
C1618 C 0.05646 0.74297 0.39188 0.0
C1619 C 0.07112 0.74822 0.38267 0.0
H1620 H 0.04684 0.72855 0.4137 0.0
H1621 H 0.19523 0.78421 0.33899 0.0
H1622 H 0.80893 0.59816 0.87165 0.0
H1623 H 0.78013 0.60981 0.86649 0.0
H1624 H 0.80112 0.66173 0.86766 0.0
H1625 H 0.83022 0.65007 0.87246 0.0
H1626 H 0.77409 0.65604 0.89094 0.0
H1627 H 0.78332 0.65139 0.83189 0.0
H1628 H 0.79343 0.63918 0.80433 0.0
H1629 H 0.75756 0.59673 0.80943 0.0
H1630 H 0.74743 0.60849 0.83719 0.0
H1631 H 0.67507 0.64772 0.86657 0.0
H1632 H 0.70448 0.65565 0.85741 0.0
H1633 H 0.72553 0.62627 0.89989 0.0
H1634 H 0.69656 0.61844 0.90918 0.0
H1635 H 0.73157 0.63434 0.84752 0.0
H1636 H 0.75803 0.64632 0.91754 0.0
H1637 H 0.74762 0.65949 0.94455 0.0
H1638 H 0.71244 0.6911 0.91558 0.0
H1639 H 0.7228 0.67832 0.88836 0.0
C1640 C 0.80747 0.61204 0.87051 0.0
C1641 C 0.82175 0.62321 0.87259 0.0
C1642 C 0.79105 0.61868 0.86741 0.0
C1643 C 0.78855 0.63662 0.86657 0.0
C1644 C 0.80285 0.64785 0.86812 0.0
C1645 C 0.81941 0.64117 0.87087 0.0
C1646 C 0.77067 0.64325 0.86639 0.0
C1647 C 0.76479 0.65168 0.88127 0.0
C1648 C 0.75868 0.63811 0.85344 0.0
C1649 C 0.76462 0.63085 0.8367 0.0
C1650 C 0.77765 0.63939 0.82722 0.0
C1651 C 0.78338 0.63255 0.81154 0.0
C1652 C 0.77614 0.61719 0.80514 0.0
C1653 C 0.76314 0.60864 0.8144 0.0
C1654 C 0.75737 0.61542 0.83011 0.0
C1655 C 0.68598 0.64304 0.87402 0.0
C1656 C 0.68342 0.63245 0.88865 0.0
C1657 C 0.70274 0.64757 0.86873 0.0
C1658 C 0.71713 0.64174 0.87811 0.0
C1659 C 0.71457 0.6312 0.89266 0.0
C1660 C 0.69795 0.62666 0.89791 0.0
C1661 C 0.73504 0.64582 0.8727 0.0
C1662 C 0.74089 0.63937 0.85682 0.0
C1663 C 0.74705 0.65314 0.88455 0.0
C1664 C 0.74124 0.66136 0.90088 0.0
C1665 C 0.74823 0.65623 0.9169 0.0
C1666 C 0.74229 0.66359 0.93226 0.0
C1667 C 0.72939 0.67613 0.93179 0.0
C1668 C 0.72243 0.68138 0.91594 0.0
C1669 C 0.72832 0.67407 0.90053 0.0
H1670 H 0.72478 0.68177 0.9437 0.0
H1671 H 0.78059 0.61191 0.79299 0.0
H1672 H 0.5917 0.88274 0.81193 0.0
H1673 H 0.60059 0.87685 0.78244 0.0
H1674 H 0.64775 0.85388 0.80126 0.0
H1675 H 0.63904 0.85996 0.83105 0.0
H1676 H 0.65453 0.87653 0.77649 0.0
H1677 H 0.61753 0.82831 0.78136 0.0
H1678 H 0.59142 0.81159 0.78929 0.0
H1679 H 0.5609 0.84202 0.75434 0.0
H1680 H 0.58674 0.85912 0.7464 0.0
H1681 H 0.63469 0.86164 0.6766 0.0
H1682 H 0.63795 0.84989 0.70588 0.0
H1683 H 0.63843 0.90171 0.72666 0.0
H1684 H 0.63522 0.9135 0.69766 0.0
H1685 H 0.61479 0.85332 0.73131 0.0
H1686 H 0.66251 0.90448 0.7621 0.0
H1687 H 0.68957 0.91955 0.75413 0.0
H1688 H 0.70097 0.87944 0.71759 0.0
H1689 H 0.67413 0.86397 0.72552 0.0
C1690 C 0.60388 0.87625 0.8099 0.0
C1691 C 0.6147 0.87195 0.8239 0.0
C1692 C 0.60889 0.87275 0.79298 0.0
C1693 C 0.62474 0.86472 0.78964 0.0
C1694 C 0.63542 0.86001 0.80356 0.0
C1695 C 0.63041 0.86351 0.82057 0.0
C1696 C 0.63058 0.86287 0.77151 0.0
C1697 C 0.64599 0.87122 0.7666 0.0
C1698 C 0.61977 0.85533 0.75868 0.0
C1699 C 0.60412 0.84502 0.76329 0.0
C1700 C 0.60524 0.8315 0.77543 0.0
C1701 C 0.59048 0.82195 0.77992 0.0
C1702 C 0.57451 0.82574 0.77232 0.0
C1703 C 0.57328 0.83908 0.7602 0.0
C1704 C 0.588 0.84869 0.75566 0.0
C1705 C 0.63579 0.87053 0.68739 0.0
C1706 C 0.6345 0.88851 0.68483 0.0
C1707 C 0.63766 0.86378 0.70409 0.0
C1708 C 0.63858 0.87492 0.71841 0.0
C1709 C 0.63804 0.89287 0.71578 0.0
C1710 C 0.63602 0.8996 0.69918 0.0
C1711 C 0.63804 0.86812 0.73631 0.0
C1712 C 0.62362 0.85813 0.74119 0.0
C1713 C 0.64994 0.87387 0.74909 0.0
C1714 C 0.66623 0.88307 0.7444 0.0
C1715 C 0.67084 0.89879 0.75246 0.0
C1716 C 0.68613 0.90743 0.74792 0.0
C1717 C 0.69697 0.90047 0.73535 0.0
C1718 C 0.69254 0.88484 0.7273 0.0
C1719 C 0.67727 0.87615 0.7318 0.0
H1720 H 0.7088 0.90718 0.73185 0.0
H1721 H 0.5631 0.81834 0.77583 0.0
H1722 H 0.66243 0.14091 0.17974 0.0
H1723 H 0.66634 0.14806 0.2105 0.0
H1724 H 0.61267 0.13509 0.21972 0.0
H1725 H 0.60858 0.12891 0.18917 0.0
H1726 H 0.62024 0.16083 0.23851 0.0
H1727 H 0.64846 0.10591 0.22621 0.0
H1728 H 0.66991 0.08738 0.21188 0.0
H1729 H 0.7112 0.11904 0.23228 0.0
H1730 H 0.68995 0.13786 0.24658 0.0
H1731 H 0.6339 0.10647 0.31931 0.0
H1732 H 0.6402 0.11243 0.28908 0.0
H1733 H 0.63899 0.16733 0.29935 0.0
H1734 H 0.63198 0.16136 0.3297 0.0
H1735 H 0.66412 0.1274 0.2711 0.0
H1736 H 0.62172 0.18753 0.26409 0.0
H1737 H 0.59705 0.2016 0.27839 0.0
H1738 H 0.5788 0.1522 0.29651 0.0
H1739 H 0.60324 0.13785 0.28214 0.0
C1740 C 0.65148 0.1398 0.18838 0.0
C1741 C 0.63524 0.13423 0.18216 0.0
C1742 C 0.65372 0.14384 0.20592 0.0
C1743 C 0.63986 0.14189 0.21751 0.0
C1744 C 0.62356 0.13681 0.21109 0.0
C1745 C 0.62125 0.13316 0.1936 0.0
C1746 C 0.64219 0.14394 0.23649 0.0
C1747 C 0.63001 0.15371 0.24562 0.0
C1748 C 0.6549 0.13467 0.24585 0.0
C1749 C 0.66764 0.1234 0.23724 0.0
C1750 C 0.66211 0.10897 0.22752 0.0
C1751 C 0.67423 0.09841 0.21943 0.0
C1752 C 0.69191 0.10207 0.22111 0.0
C1753 C 0.69751 0.11626 0.23094 0.0
C1754 C 0.68544 0.12687 0.23904 0.0
C1755 C 0.63509 0.11982 0.31518 0.0
C1756 C 0.63219 0.13346 0.32677 0.0
C1757 C 0.63883 0.12322 0.2979 0.0
C1758 C 0.6399 0.14033 0.29188 0.0
C1759 C 0.63795 0.15403 0.30365 0.0
C1760 C 0.63395 0.15061 0.32096 0.0
C1761 C 0.64158 0.14348 0.27303 0.0
C1762 C 0.65466 0.13491 0.26398 0.0
C1763 C 0.62924 0.15322 0.26371 0.0
C1764 C 0.61443 0.16169 0.27227 0.0
C1765 C 0.61242 0.1797 0.27111 0.0
C1766 C 0.59848 0.18771 0.27922 0.0
C1767 C 0.58641 0.17781 0.28841 0.0
C1768 C 0.5882 0.15986 0.28945 0.0
C1769 C 0.60209 0.15179 0.28134 0.0
H1770 H 0.57564 0.18403 0.2947 0.0
H1771 H 0.70127 0.09387 0.21484 0.0
H1772 H 0.36596 0.13252 0.67627 0.0
H1773 H 0.36156 0.13841 0.70708 0.0
H1774 H 0.39025 0.09258 0.72016 0.0
H1775 H 0.39447 0.08644 0.68967 0.0
H1776 H 0.36233 0.09576 0.74042 0.0
H1777 H 0.40933 0.13321 0.71933 0.0
H1778 H 0.4212 0.15633 0.70071 0.0
H1779 H 0.38382 0.19189 0.72054 0.0
H1780 H 0.3716 0.16889 0.73913 0.0
H1781 H 0.4133 0.10139 0.81344 0.0
H1782 H 0.40255 0.10271 0.78384 0.0
H1783 H 0.36941 0.14513 0.79736 0.0
H1784 H 0.37999 0.14383 0.82739 0.0
H1785 H 0.39017 0.14857 0.76488 0.0
H1786 H 0.3488 0.11171 0.79176 0.0
H1787 H 0.33877 0.08821 0.81091 0.0
H1788 H 0.36638 0.05117 0.78051 0.0
H1789 H 0.37682 0.07448 0.76133 0.0
C1790 C 0.37121 0.12362 0.68572 0.0
C1791 C 0.38074 0.1091 0.68048 0.0
C1792 C 0.36868 0.12703 0.7033 0.0
C1793 C 0.3757 0.11601 0.71589 0.0
C1794 C 0.38467 0.10123 0.71066 0.0
C1795 C 0.38717 0.0978 0.69318 0.0
C1796 C 0.3748 0.12009 0.73457 0.0
C1797 C 0.36828 0.10737 0.74578 0.0
C1798 C 0.38203 0.13551 0.74153 0.0
C1799 C 0.38942 0.14931 0.73043 0.0
C1800 C 0.40357 0.14593 0.71962 0.0
C1801 C 0.41037 0.15901 0.70909 0.0
C1802 C 0.40323 0.17555 0.7094 0.0
C1803 C 0.38931 0.17906 0.72028 0.0
C1804 C 0.38244 0.16602 0.73081 0.0
C1805 C 0.40382 0.11111 0.81019 0.0
C1806 C 0.39747 0.12248 0.82281 0.0
C1807 C 0.39763 0.11178 0.79328 0.0
C1808 C 0.38508 0.12388 0.78855 0.0
C1809 C 0.37904 0.13565 0.80088 0.0
C1810 C 0.38508 0.13485 0.81797 0.0
C1811 C 0.37849 0.12384 0.7706 0.0
C1812 C 0.38359 0.13729 0.75954 0.0
C1813 C 0.37004 0.10904 0.76375 0.0
C1814 C 0.36365 0.09488 0.77513 0.0
C1815 C 0.35283 0.09857 0.78921 0.0
C1816 C 0.34706 0.08528 0.80007 0.0
C1817 C 0.35195 0.06821 0.79694 0.0
C1818 C 0.36259 0.0644 0.78292 0.0
C1819 C 0.36842 0.07765 0.77203 0.0
H1820 H 0.34747 0.05794 0.80537 0.0
H1821 H 0.40852 0.18566 0.70124 0.0
H1822 H 0.34334 0.88915 0.17657 0.0
H1823 H 0.33693 0.88587 0.20749 0.0
H1824 H 0.38092 0.85244 0.21337 0.0
H1825 H 0.3877 0.85607 0.18272 0.0
H1826 H 0.34761 0.84331 0.23342 0.0
H1827 H 0.39047 0.88943 0.22112 0.0
H1828 H 0.39953 0.91601 0.20585 0.0
H1829 H 0.35515 0.94253 0.22544 0.0
H1830 H 0.34571 0.91597 0.24062 0.0
H1831 H 0.38126 0.84784 0.31849 0.0
H1832 H 0.37379 0.8457 0.28778 0.0
H1833 H 0.34617 0.89391 0.29111 0.0
H1834 H 0.35454 0.89655 0.32144 0.0
H1835 H 0.36574 0.89598 0.26575 0.0
H1836 H 0.32569 0.85284 0.28325 0.0
H1837 H 0.31486 0.82681 0.29826 0.0
H1838 H 0.34988 0.79526 0.26939 0.0
H1839 H 0.36113 0.82114 0.25438 0.0
C1840 C 0.3514 0.88082 0.18441 0.0
C1841 C 0.36611 0.87301 0.17737 0.0
C1842 C 0.3477 0.87892 0.20199 0.0
C1843 C 0.35846 0.86889 0.21259 0.0
C1844 C 0.37242 0.86011 0.20531 0.0
C1845 C 0.37635 0.86232 0.18786 0.0
C1846 C 0.35685 0.86958 0.23157 0.0
C1847 C 0.35154 0.85476 0.24061 0.0
C1848 C 0.3615 0.88472 0.24075 0.0
C1849 C 0.36728 0.90069 0.2318 0.0
C1850 C 0.38257 0.90089 0.22203 0.0
C1851 C 0.38779 0.91595 0.21342 0.0
C1852 C 0.37789 0.93093 0.21463 0.0
C1853 C 0.36278 0.9309 0.22449 0.0
C1854 C 0.35749 0.91585 0.2331 0.0
C1855 C 0.37337 0.85781 0.31268 0.0
C1856 C 0.3686 0.87242 0.32224 0.0
C1857 C 0.36897 0.85653 0.29516 0.0
C1858 C 0.35927 0.86959 0.28708 0.0
C1859 C 0.35372 0.88371 0.29697 0.0
C1860 C 0.3585 0.88521 0.31433 0.0
C1861 C 0.35663 0.86955 0.26803 0.0
C1862 C 0.36133 0.88454 0.25882 0.0
C1863 C 0.35106 0.85463 0.2588 0.0
C1864 C 0.34434 0.83898 0.26776 0.0
C1865 C 0.33118 0.84037 0.28018 0.0
C1866 C 0.32495 0.82563 0.28868 0.0
C1867 C 0.3317 0.80939 0.2848 0.0
C1868 C 0.34467 0.80785 0.27239 0.0
C1869 C 0.35096 0.82255 0.26386 0.0
H1870 H 0.32686 0.79799 0.2914 0.0
H1871 H 0.38195 0.94259 0.20795 0.0
H1872 H 0.14203 0.08025 0.58203 0.0
H1873 H 0.1438 0.06858 0.55249 0.0
H1874 H 0.11314 0.111 0.5337 0.0
H1875 H 0.11128 0.12265 0.56291 0.0
H1876 H 0.11424 0.06468 0.52065 0.0
H1877 H 0.14536 0.13104 0.50999 0.0
H1878 H 0.16265 0.15245 0.5265 0.0
H1879 H 0.18574 0.11156 0.55598 0.0
H1880 H 0.16896 0.08991 0.53935 0.0
H1881 H 0.09689 0.11174 0.44805 0.0
H1882 H 0.10247 0.09546 0.47434 0.0
H1883 H 0.15567 0.08886 0.45916 0.0
H1884 H 0.15007 0.10528 0.43254 0.0
H1885 H 0.15316 0.10521 0.48925 0.0
H1886 H 0.13149 0.05269 0.46802 0.0
H1887 H 0.1124 0.03254 0.45198 0.0
H1888 H 0.07006 0.04541 0.48519 0.0
H1889 H 0.08878 0.06584 0.50128 0.0
C1890 C 0.13521 0.08674 0.57166 0.0
C1891 C 0.12675 0.1025 0.57466 0.0
C1892 C 0.1362 0.08004 0.55486 0.0
C1893 C 0.12872 0.08906 0.54103 0.0
C1894 C 0.119 0.10391 0.54428 0.0
C1895 C 0.11803 0.11059 0.56096 0.0
C1896 C 0.13315 0.08513 0.52294 0.0
C1897 C 0.12299 0.07319 0.51367 0.0
C1898 C 0.14497 0.09597 0.51409 0.0
C1899 C 0.15585 0.10886 0.52349 0.0
C1900 C 0.15429 0.12661 0.51986 0.0
C1901 C 0.16398 0.1388 0.52926 0.0
C1902 C 0.17529 0.13338 0.5423 0.0
C1903 C 0.177 0.11576 0.54588 0.0
C1904 C 0.16741 0.10352 0.53647 0.0
C1905 C 0.10968 0.10645 0.45008 0.0
C1906 C 0.12313 0.11002 0.43844 0.0
C1907 C 0.1128 0.09691 0.46501 0.0
C1908 C 0.12947 0.09081 0.46868 0.0
C1909 C 0.14268 0.09332 0.45648 0.0
C1910 C 0.13949 0.10273 0.44134 0.0
C1911 C 0.13349 0.08538 0.48662 0.0
C1912 C 0.1451 0.09586 0.49601 0.0
C1913 C 0.12306 0.07312 0.49547 0.0
C1914 C 0.11161 0.06082 0.4859 0.0
C1915 C 0.11809 0.05131 0.47186 0.0
C1916 C 0.10732 0.03982 0.46276 0.0
C1917 C 0.09003 0.03768 0.46757 0.0
C1918 C 0.08347 0.04704 0.48151 0.0
C1919 C 0.09418 0.05855 0.49066 0.0
H1920 H 0.08172 0.02878 0.46051 0.0
H1921 H 0.1827 0.14284 0.54963 0.0
H1922 H 0.39578 0.64552 0.94395 0.0
H1923 H 0.40788 0.64386 0.97295 0.0
H1924 H 0.43746 0.59916 0.95821 0.0
H1925 H 0.42543 0.60105 0.92873 0.0
H1926 H 0.41552 0.59243 0.98472 0.0
H1927 H 0.45985 0.63267 0.97602 0.0
H1928 H 0.47482 0.65853 0.96464 0.0
H1929 H 0.44024 0.69129 0.99267 0.0
H1930 H 0.42487 0.66567 0.00402 0.0
H1931 H 0.3993 0.60097 0.07679 0.0
H1932 H 0.4186 0.59773 0.05177 0.0
H1933 H 0.39369 0.64082 0.02678 0.0
H1934 H 0.37452 0.64404 0.0513 0.0
H1935 H 0.43021 0.64151 0.02362 0.0
H1936 H 0.3801 0.60039 0.01795 0.0
H1937 H 0.36358 0.5749 0.02815 0.0
H1938 H 0.40964 0.54428 0.02658 0.0
H1939 H 0.42643 0.56968 0.01651 0.0
C1940 C 0.40536 0.63575 0.94669 0.0
C1941 C 0.40964 0.62338 0.93422 0.0
C1942 C 0.41241 0.63487 0.96325 0.0
C1943 C 0.42369 0.62144 0.96775 0.0
C1944 C 0.42893 0.60972 0.95495 0.0
C1945 C 0.42209 0.61083 0.93815 0.0
C1946 C 0.42678 0.61804 0.98637 0.0
C1947 C 0.41948 0.60287 0.99332 0.0
C1948 C 0.43204 0.63156 0.99761 0.0
C1949 C 0.44124 0.64716 0.99096 0.0
C1950 C 0.45539 0.64538 0.97972 0.0
C1951 C 0.46395 0.66001 0.97327 0.0
C1952 C 0.45851 0.67654 0.97795 0.0
C1953 C 0.44449 0.67847 0.9891 0.0
C1954 C 0.43588 0.66388 0.9956 0.0
C1955 C 0.39805 0.60978 0.06597 0.0
C1956 C 0.38524 0.62262 0.06593 0.0
C1957 C 0.40912 0.60797 0.05177 0.0
C1958 C 0.40764 0.61914 0.03753 0.0
C1959 C 0.39518 0.6322 0.03774 0.0
C1960 C 0.38406 0.63387 0.0517 0.0
C1961 C 0.41761 0.61665 0.02146 0.0
C1962 C 0.42735 0.63068 0.01512 0.0
C1963 C 0.41461 0.60212 0.01074 0.0
C1964 C 0.40452 0.58692 0.01671 0.0
C1965 C 0.38669 0.58823 0.01989 0.0
C1966 C 0.37729 0.57381 0.02563 0.0
C1967 C 0.38556 0.55799 0.02807 0.0
C1968 C 0.40325 0.55655 0.02473 0.0
C1969 C 0.41272 0.57095 0.01901 0.0
H1970 H 0.37826 0.54684 0.03251 0.0
H1971 H 0.46514 0.68785 0.97293 0.0
H1972 H 0.86104 0.90331 0.44547 0.0
H1973 H 0.86213 0.92 0.47253 0.0
H1974 H 0.9179 0.91957 0.47119 0.0
H1975 H 0.91689 0.9028 0.44447 0.0
H1976 H 0.90173 0.89932 0.49717 0.0
H1977 H 0.90044 0.9567 0.47389 0.0
H1978 H 0.88891 0.98059 0.45629 0.0
H1979 H 0.84176 0.97938 0.48543 0.0
H1980 H 0.8529 0.95528 0.50305 0.0
H1981 H 0.9118 0.91283 0.58215 0.0
H1982 H 0.91604 0.92386 0.5528 0.0
H1983 H 0.86111 0.93229 0.54797 0.0
H1984 H 0.85705 0.92219 0.57769 0.0
H1985 H 0.87897 0.95246 0.52459 0.0
H1986 H 0.87487 0.89234 0.54069 0.0
H1987 H 0.88221 0.866 0.55704 0.0
H1988 H 0.93493 0.87016 0.54008 0.0
H1989 H 0.92784 0.89655 0.52356 0.0
C1990 C 0.87349 0.90746 0.45059 0.0
C1991 C 0.88889 0.9015 0.44321 0.0
C1992 C 0.8741 0.91707 0.46597 0.0
C1993 C 0.89011 0.9209 0.47386 0.0
C1994 C 0.90545 0.91676 0.46527 0.0
C1995 C 0.90484 0.90706 0.45011 0.0
C1996 C 0.89095 0.92453 0.49262 0.0
C1997 C 0.89721 0.91118 0.5031 0.0
C1998 C 0.88423 0.93962 0.50032 0.0
C1999 C 0.87746 0.95406 0.4897 0.0
C2000 C 0.88754 0.96139 0.47644 0.0
C2001 C 0.88109 0.97501 0.46648 0.0
C2002 C 0.8646 0.98148 0.46972 0.0
C2003 C 0.85453 0.97435 0.48293 0.0
C2004 C 0.86092 0.96073 0.49292 0.0
C2005 C 0.90084 0.91806 0.57517 0.0
C2006 C 0.88413 0.91671 0.58199 0.0
C2007 C 0.90322 0.92429 0.5584 0.0
C2008 C 0.8888 0.92839 0.54806 0.0
C2009 C 0.87239 0.92916 0.55569 0.0
C2010 C 0.87008 0.92338 0.57267 0.0
C2011 C 0.89015 0.92739 0.52897 0.0
C2012 C 0.884 0.94091 0.51852 0.0
C2013 C 0.89649 0.91221 0.52107 0.0
C2014 C 0.90089 0.89649 0.5311 0.0
C2015 C 0.88805 0.88768 0.54055 0.0
C2016 C 0.89215 0.87272 0.54979 0.0
C2017 C 0.90905 0.86644 0.54966 0.0
C2018 C 0.92186 0.87507 0.5402 0.0
C2019 C 0.9178 0.89 0.53086 0.0
H2020 H 0.9122 0.85487 0.55686 0.0
H2021 H 0.85963 0.99203 0.462 0.0
H2022 H 0.57686 0.40282 0.93011 0.0
H2023 H 0.56229 0.40688 0.95799 0.0
H2024 H 0.5896 0.36307 0.9788 0.0
H2025 H 0.60451 0.35938 0.95131 0.0
H2026 H 0.55397 0.36858 0.99262 0.0
H2027 H 0.6111 0.3992 0.98081 0.0
H2028 H 0.62753 0.41992 0.96278 0.0
H2029 H 0.58827 0.45812 0.97039 0.0
H2030 H 0.57155 0.43749 0.98831 0.0
H2031 H 0.60921 0.35752 0.05744 0.0
H2032 H 0.58972 0.36247 0.03338 0.0
H2033 H 0.57918 0.41378 0.05252 0.0
H2034 H 0.59906 0.40876 0.07703 0.0
H2035 H 0.58979 0.41479 0.01996 0.0
H2036 H 0.54443 0.38563 0.04636 0.0
H2037 H 0.52913 0.36423 0.06445 0.0
H2038 H 0.54413 0.32353 0.03 0.0
H2039 H 0.55977 0.34458 0.01183 0.0
C2040 C 0.57918 0.39367 0.94046 0.0
C2041 C 0.59186 0.38088 0.93874 0.0
C2042 C 0.57085 0.39599 0.95632 0.0
C2043 C 0.57489 0.38527 0.9704 0.0
C2044 C 0.58619 0.37137 0.96803 0.0
C2045 C 0.59479 0.36933 0.95239 0.0
C2046 C 0.57087 0.39038 0.98834 0.0
C2047 C 0.56139 0.37889 0.99873 0.0
C2048 C 0.57989 0.40436 0.99613 0.0
C2049 C 0.59008 0.41684 0.98575 0.0
C2050 C 0.606 0.41202 0.97859 0.0
C2051 C 0.61534 0.42372 0.96839 0.0
C2052 C 0.60894 0.44032 0.96542 0.0
C2053 C 0.5932 0.44525 0.97269 0.0
C2054 C 0.58378 0.43357 0.98285 0.0
C2055 C 0.60252 0.36976 0.05675 0.0
C2056 C 0.60582 0.38286 0.06892 0.0
C2057 C 0.59111 0.3725 0.0431 0.0
C2058 C 0.58271 0.38841 0.04123 0.0
C2059 C 0.58535 0.40132 0.05384 0.0
C2060 C 0.59671 0.39847 0.06776 0.0
C2061 C 0.57401 0.39206 0.02449 0.0
C2062 C 0.58122 0.40518 0.01417 0.0
C2063 C 0.56268 0.37969 0.01686 0.0
C2064 C 0.55322 0.36679 0.02763 0.0
C2065 C 0.54453 0.37212 0.04264 0.0
C2066 C 0.53579 0.36003 0.05293 0.0
C2067 C 0.53562 0.34254 0.04836 0.0
C2068 C 0.54421 0.3371 0.03348 0.0
C2069 C 0.55297 0.34913 0.02315 0.0
H2070 H 0.52886 0.3332 0.05635 0.0
H2071 H 0.61618 0.44937 0.95751 0.0
H2072 H 0.10555 0.93117 0.57497 0.0
H2073 H 0.10515 0.94542 0.54647 0.0
H2074 H 0.14566 0.91155 0.52923 0.0
H2075 H 0.14581 0.89726 0.55722 0.0
H2076 H 0.1477 0.94523 0.51437 0.0
H2077 H 0.10358 0.89762 0.52613 0.0
H2078 H 0.07794 0.88747 0.54233 0.0
H2079 H 0.05097 0.93386 0.52863 0.0
H2080 H 0.07653 0.9443 0.51246 0.0
H2081 H 0.15035 0.88731 0.45031 0.0
H2082 H 0.14773 0.90659 0.47483 0.0
H2083 H 0.10263 0.9298 0.45166 0.0
H2084 H 0.10515 0.91017 0.42674 0.0
H2085 H 0.09658 0.91977 0.48435 0.0
H2086 H 0.1378 0.95606 0.45929 0.0
H2087 H 0.16362 0.96469 0.44269 0.0
H2088 H 0.19641 0.94125 0.48088 0.0
H2089 H 0.17083 0.93221 0.49759 0.0
C2090 C 0.11475 0.92726 0.56523 0.0
C2091 C 0.12559 0.91304 0.56812 0.0
C2092 C 0.11451 0.93538 0.54901 0.0
C2093 C 0.12533 0.92948 0.53574 0.0
C2094 C 0.13729 0.9164 0.5393 0.0
C2095 C 0.13728 0.90813 0.55527 0.0
C2096 C 0.12234 0.93402 0.51739 0.0
C2097 C 0.13641 0.9401 0.50767 0.0
C2098 C 0.10725 0.9281 0.50871 0.0
C2099 C 0.09191 0.92176 0.51823 0.0
C2100 C 0.09217 0.90563 0.52662 0.0
C2101 C 0.07768 0.89985 0.5358 0.0
C2102 C 0.06284 0.91002 0.53651 0.0
C2103 C 0.06247 0.92601 0.52807 0.0
C2104 C 0.07694 0.93187 0.51891 0.0
C2105 C 0.13995 0.89661 0.45025 0.0
C2106 C 0.12784 0.89707 0.43665 0.0
C2107 C 0.13862 0.90785 0.46421 0.0
C2108 C 0.12517 0.91991 0.46496 0.0
C2109 C 0.11324 0.92076 0.45122 0.0
C2110 C 0.11467 0.90952 0.43704 0.0
C2111 C 0.12263 0.92954 0.48133 0.0
C2112 C 0.10749 0.92608 0.4907 0.0
C2113 C 0.13672 0.93803 0.48962 0.0
C2114 C 0.15232 0.94353 0.47977 0.0
C2115 C 0.15051 0.95269 0.46414 0.0
C2116 C 0.16511 0.95765 0.4547 0.0
C2117 C 0.18164 0.95355 0.46074 0.0
C2118 C 0.1836 0.94448 0.47625 0.0
C2119 C 0.16903 0.93948 0.48574 0.0
H2120 H 0.19293 0.95739 0.4534 0.0
H2121 H 0.05161 0.9055 0.54354 0.0
H2122 H 0.57564 0.62875 0.91782 0.0
H2123 H 0.56189 0.62659 0.9463 0.0
H2124 H 0.60734 0.60125 0.96633 0.0
H2125 H 0.62074 0.60294 0.93808 0.0
H2126 H 0.58012 0.59103 0.98421 0.0
H2127 H 0.60449 0.64763 0.96349 0.0
H2128 H 0.60391 0.67235 0.94324 0.0
H2129 H 0.55051 0.68104 0.9554 0.0
H2130 H 0.5508 0.65625 0.97559 0.0
H2131 H 0.63049 0.64297 0.04239 0.0
H2132 H 0.61235 0.64215 0.01652 0.0
H2133 H 0.57156 0.61704 0.04539 0.0
H2134 H 0.58983 0.61818 0.07161 0.0
H2135 H 0.57981 0.65178 0.00498 0.0
H2136 H 0.55894 0.58325 0.01815 0.0
H2137 H 0.56528 0.55878 0.03769 0.0
H2138 H 0.61868 0.57456 0.0402 0.0
H2139 H 0.61266 0.59896 0.02053 0.0
C2140 C 0.58237 0.62214 0.92817 0.0
C2141 C 0.59943 0.61643 0.92593 0.0
C2142 C 0.57452 0.62094 0.94444 0.0
C2143 C 0.58375 0.61416 0.95857 0.0
C2144 C 0.59994 0.60662 0.9557 0.0
C2145 C 0.6077 0.60774 0.93953 0.0
C2146 C 0.57876 0.61783 0.97671 0.0
C2147 C 0.57935 0.60428 0.98878 0.0
C2148 C 0.57773 0.6351 0.98277 0.0
C2149 C 0.57762 0.65007 0.97086 0.0
C2150 C 0.59264 0.65483 0.9618 0.0
C2151 C 0.59236 0.66882 0.95033 0.0
C2152 C 0.57717 0.67824 0.94801 0.0
C2153 C 0.56225 0.67371 0.95719 0.0
C2154 C 0.56246 0.65969 0.96863 0.0
C2155 C 0.61741 0.63789 0.04334 0.0
C2156 C 0.61147 0.63065 0.05883 0.0
C2157 C 0.60701 0.63748 0.0286 0.0
C2158 C 0.59063 0.62947 0.02902 0.0
C2159 C 0.58413 0.62334 0.04485 0.0
C2160 C 0.59451 0.62402 0.05976 0.0
C2161 C 0.5823 0.62505 0.01229 0.0
C2162 C 0.57918 0.63846 1.00052 0.0
C2163 C 0.5815 0.60769 0.00648 0.0
C2164 C 0.58529 0.59299 0.01811 0.0
C2165 C 0.57202 0.58145 0.02288 0.0
C2166 C 0.57556 0.56761 0.03396 0.0
C2167 C 0.59236 0.56516 0.04024 0.0
C2168 C 0.60567 0.5765 0.03538 0.0
C2169 C 0.6022 0.59032 0.02427 0.0
H2170 H 0.59507 0.55446 0.04884 0.0
H2171 H 0.57697 0.68906 0.93913 0.0
H2172 H 0.88642 0.09789 0.42231 0.0
H2173 H 0.89004 0.07943 0.44796 0.0
H2174 H 0.89403 0.12497 0.48009 0.0
H2175 H 0.89041 0.1433 0.45479 0.0
H2176 H 0.91612 0.09959 0.49095 0.0
H2177 H 0.85506 0.10619 0.47302 0.0
H2178 H 0.83107 0.10218 0.45213 0.0
H2179 H 0.83987 0.04739 0.45162 0.0
H2180 H 0.86404 0.05115 0.47238 0.0
H2181 H 0.85676 0.10767 0.55897 0.0
H2182 H 0.8592 0.09751 0.52936 0.0
H2183 H 0.90055 0.06352 0.54463 0.0
H2184 H 0.89808 0.0738 0.57457 0.0
H2185 H 0.86133 0.06992 0.50723 0.0
H2186 H 0.93298 0.07294 0.51785 0.0
H2187 H 0.95445 0.08145 0.54018 0.0
H2188 H 0.92149 0.12267 0.55669 0.0
H2189 H 0.89999 0.11452 0.5343 0.0
C2190 C 0.88848 0.10391 0.43482 0.0
C2191 C 0.88792 0.12203 0.43662 0.0
C2192 C 0.89052 0.09336 0.44942 0.0
C2193 C 0.89223 0.10084 0.46591 0.0
C2194 C 0.89282 0.11892 0.46749 0.0
C2195 C 0.8906 0.1294 0.45302 0.0
C2196 C 0.89127 0.09037 0.48193 0.0
C2197 C 0.90441 0.09252 0.49434 0.0
C2198 C 0.87598 0.08122 0.48639 0.0
C2199 C 0.86145 0.07896 0.47403 0.0
C2200 C 0.85192 0.09331 0.46835 0.0
C2201 C 0.8383 0.09108 0.45656 0.0
C2202 C 0.83399 0.07454 0.45051 0.0
C2203 C 0.84326 0.06019 0.45628 0.0
C2204 C 0.85692 0.06236 0.46805 0.0
C2205 C 0.86584 0.09746 0.55618 0.0
C2206 C 0.87745 0.09175 0.56889 0.0
C2207 C 0.86716 0.09154 0.53924 0.0
C2208 C 0.88031 0.08003 0.53471 0.0
C2209 C 0.89039 0.07251 0.54786 0.0
C2210 C 0.88895 0.07836 0.56495 0.0
C2211 C 0.88587 0.0798 0.51639 0.0
C2212 C 0.87358 0.07577 0.50354 0.0
C2213 C 0.90178 0.08763 0.51157 0.0
C2214 C 0.91489 0.09303 0.52456 0.0
C2215 C 0.9304 0.08387 0.5262 0.0
C2216 C 0.94255 0.08862 0.53886 0.0
C2217 C 0.93931 0.10256 0.54988 0.0
C2218 C 0.92398 0.11187 0.54816 0.0
C2219 C 0.91184 0.10722 0.53548 0.0
H2220 H 0.94869 0.10617 0.55972 0.0
H2221 H 0.82344 0.07284 0.44138 0.0
H2222 H 0.39842 0.40414 0.93075 0.0
H2223 H 0.41311 0.40609 0.95862 0.0
H2224 H 0.44581 0.36344 0.94449 0.0
H2225 H 0.43122 0.36176 0.91618 0.0
H2226 H 0.4255 0.35655 0.97245 0.0
H2227 H 0.46596 0.39966 0.95863 0.0
H2228 H 0.47768 0.42613 0.94508 0.0
H2229 H 0.44263 0.45707 0.97455 0.0
H2230 H 0.43049 0.43082 0.98809 0.0
H2231 H 0.41277 0.3639 0.06313 0.0
H2232 H 0.43185 0.36269 0.03784 0.0
H2233 H 0.40629 0.40719 0.0162 0.0
H2234 H 0.3877 0.40873 0.04126 0.0
H2235 H 0.4399 0.40807 0.00817 0.0
H2236 H 0.39211 0.36428 0.00772 0.0
H2237 H 0.37754 0.33848 0.01991 0.0
H2238 H 0.42474 0.30988 0.01603 0.0
H2239 H 0.43959 0.3356 0.00396 0.0
C2240 C 0.40927 0.39571 0.93329 0.0
C2241 C 0.4137 0.38279 0.92146 0.0
C2242 C 0.41776 0.39688 0.94919 0.0
C2243 C 0.43062 0.38493 0.95365 0.0
C2244 C 0.43605 0.37288 0.94124 0.0
C2245 C 0.42775 0.37196 0.92509 0.0
C2246 C 0.43507 0.38285 0.9722 0.0
C2247 C 0.42939 0.36759 0.9803 0.0
C2248 C 0.44008 0.39722 0.98244 0.0
C2249 C 0.44735 0.4132 0.97444 0.0
C2250 C 0.46069 0.41209 0.96218 0.0
C2251 C 0.46741 0.42707 0.9545 0.0
C2252 C 0.46092 0.44327 0.95897 0.0
C2253 C 0.44769 0.44452 0.97114 0.0
C2254 C 0.44091 0.42958 0.97887 0.0
C2255 C 0.41148 0.3736 0.05311 0.0
C2256 C 0.39845 0.38617 0.05403 0.0
C2257 C 0.4224 0.37291 0.0387 0.0
C2258 C 0.42039 0.38475 0.02504 0.0
C2259 C 0.40817 0.39794 0.02657 0.0
C2260 C 0.39734 0.39865 0.04086 0.0
C2261 C 0.42889 0.38237 0.00805 0.0
C2262 C 0.43705 0.39673 1.00034 0.0
C2263 C 0.4259 0.36728 0.99806 0.0
C2264 C 0.41698 0.35185 0.00517 0.0
C2265 C 0.39936 0.35249 0.00955 0.0
C2266 C 0.39107 0.3379 0.01643 0.0
C2267 C 0.40022 0.32257 0.0188 0.0
C2268 C 0.41768 0.32178 0.01424 0.0
C2269 C 0.42605 0.33635 0.00738 0.0
H2270 H 0.39378 0.31129 0.02413 0.0
H2271 H 0.46613 0.45485 0.953 0.0
H2272 H 0.58582 0.13719 0.09332 0.0
H2273 H 0.55936 0.13656 0.07549 0.0
H2274 H 0.53721 0.09822 0.10959 0.0
H2275 H 0.56326 0.0993 0.12763 0.0
H2276 H 0.52625 0.09601 0.07224 0.0
H2277 H 0.53251 0.13748 0.12303 0.0
H2278 H 0.54894 0.16159 0.13647 0.0
H2279 H 0.54474 0.19091 0.08945 0.0
H2280 H 0.52844 0.16684 0.07572 0.0
H2281 H 0.45529 0.09254 0.12037 0.0
H2282 H 0.48152 0.09482 0.10366 0.0
H2283 H 0.46448 0.14341 0.08225 0.0
H2284 H 0.43789 0.14132 0.0995 0.0
H2285 H 0.49538 0.14697 0.09539 0.0
H2286 H 0.47355 0.10892 0.05419 0.0
H2287 H 0.4571 0.08443 0.04169 0.0
H2288 H 0.49025 0.04861 0.06793 0.0
H2289 H 0.50674 0.07282 0.08084 0.0
C2290 C 0.57555 0.12811 0.09649 0.0
C2291 C 0.57638 0.11829 0.11175 0.0
C2292 C 0.56051 0.12773 0.08631 0.0
C2293 C 0.5464 0.11732 0.09124 0.0
C2294 C 0.54805 0.10617 0.10547 0.0
C2295 C 0.56286 0.10685 0.11582 0.0
C2296 C 0.52878 0.12074 0.08472 0.0
C2297 C 0.51939 0.10726 0.07685 0.0
C2298 C 0.52007 0.13583 0.09001 0.0
C2299 C 0.52939 0.15042 0.09837 0.0
C2300 C 0.53512 0.14909 0.11559 0.0
C2301 C 0.54442 0.16271 0.12324 0.0
C2302 C 0.5479 0.17777 0.11381 0.0
C2303 C 0.54205 0.17924 0.09673 0.0
C2304 C 0.53279 0.16562 0.08901 0.0
C2305 C 0.45692 0.10364 0.11196 0.0
C2306 C 0.44462 0.11689 0.11149 0.0
C2307 C 0.47186 0.10478 0.10211 0.0
C2308 C 0.4749 0.11913 0.09139 0.0
C2309 C 0.46231 0.13211 0.09027 0.0
C2310 C 0.44718 0.13093 0.10017 0.0
C2311 C 0.49248 0.12155 0.08409 0.0
C2312 C 0.50199 0.13615 0.0895 0.0
C2313 C 0.50122 0.10758 0.07622 0.0
C2314 C 0.49148 0.09278 0.06843 0.0
C2315 C 0.47732 0.09583 0.05736 0.0
C2316 C 0.46797 0.08198 0.0502 0.0
C2317 C 0.47265 0.06498 0.05399 0.0
C2318 C 0.48669 0.06179 0.06495 0.0
C2319 C 0.49609 0.07559 0.07215 0.0
H2320 H 0.46538 0.05427 0.04844 0.0
H2321 H 0.55511 0.1883 0.11974 0.0
H2322 H 0.35289 0.94903 0.6108 0.0
H2323 H 0.35321 0.97848 0.59954 0.0
H2324 H 0.39836 0.96682 0.56919 0.0
H2325 H 0.39754 0.93694 0.57994 0.0
H2326 H 0.37962 0.99731 0.60929 0.0
H2327 H 0.4035 1.00076 0.5383 0.0
H2328 H 0.39978 0.9849 0.51081 0.0
H2329 H 0.35024 0.96589 0.52758 0.0
H2330 H 0.35352 0.98186 0.55504 0.0
H2331 H 0.41294 0.07665 0.60392 0.0
H2332 H 0.41424 0.04726 0.59248 0.0
H2333 H 0.36491 0.05427 0.56722 0.0
H2334 H 0.36397 0.08403 0.57803 0.0
H2335 H 0.38591 0.02639 0.55239 0.0
H2336 H 0.36194 0.04615 0.60747 0.0
H2337 H 0.3637 0.06266 0.63477 0.0
H2338 H 0.40903 0.03448 0.64966 0.0
H2339 H 0.40764 0.01797 0.62231 0.0
C2340 C 0.36245 0.95256 0.6012 0.0
C2341 C 0.37528 0.94087 0.59633 0.0
C2342 C 0.36264 0.96938 0.59477 0.0
C2343 C 0.37595 0.97493 0.58372 0.0
C2344 C 0.38789 0.9628 0.5776 0.0
C2345 C 0.38744 0.94576 0.58376 0.0
C2346 C 0.37913 0.99376 0.58159 0.0
C2347 C 0.3809 0.00356 0.59678 0.0
C2348 C 0.38103 1.00198 0.56532 0.0
C2349 C 0.37887 0.99236 0.54883 0.0
C2350 C 0.39179 0.99324 0.53611 0.0
C2351 C 0.38976 0.98423 0.52053 0.0
C2352 C 0.37481 0.97434 0.51748 0.0
C2353 C 0.36185 0.97349 0.52999 0.0
C2354 C 0.36381 0.98249 0.54558 0.0
C2355 C 0.40288 0.07225 0.59509 0.0
C2356 C 0.38822 0.08236 0.59205 0.0
C2357 C 0.40366 0.05548 0.58851 0.0
C2358 C 0.38944 0.04849 0.57942 0.0
C2359 C 0.37598 0.05943 0.57424 0.0
C2360 C 0.37542 0.07642 0.58048 0.0
C2361 C 0.38628 0.0296 0.58005 0.0
C2362 C 0.38462 0.01991 0.56476 0.0
C2363 C 0.38414 0.02131 0.59623 0.0
C2364 C 0.38477 0.03095 0.61282 0.0
C2365 C 0.37232 0.04354 0.61654 0.0
C2366 C 0.37324 0.05289 0.63202 0.0
C2367 C 0.38648 0.04963 0.64393 0.0
C2368 C 0.39879 0.03699 0.64041 0.0
C2369 C 0.39794 0.02763 0.62494 0.0
H2370 H 0.38716 0.05685 0.65592 0.0
H2371 H 0.37327 0.96738 0.50541 0.0
H2372 H 0.44907 0.85543 0.12706 0.0
H2373 H 0.47507 0.86069 0.11063 0.0
H2374 H 0.44782 0.89679 0.07799 0.0
H2375 H 0.42147 0.89197 0.09501 0.0
H2376 H 0.48755 0.85885 0.07898 0.0
H2377 H 0.4754 0.92819 0.06902 0.0
H2378 H 0.45546 0.95152 0.07745 0.0
H2379 H 0.45249 0.93064 0.12886 0.0
H2380 H 0.47249 0.90728 0.1207 0.0
H2381 H 0.57632 0.88374 0.09353 0.0
H2382 H 0.54948 0.88386 0.07626 0.0
H2383 H 0.52151 0.90211 0.12082 0.0
H2384 H 0.54788 0.9026 0.13763 0.0
H2385 H 0.50946 0.91761 0.09342 0.0
H2386 H 0.52526 0.85537 0.1081 0.0
H2387 H 0.54519 0.83086 0.10408 0.0
H2388 H 0.54079 0.83618 0.04892 0.0
H2389 H 0.52091 0.86073 0.05267 0.0
C2390 C 0.44843 0.8644 0.11631 0.0
C2391 C 0.43328 0.87363 0.11267 0.0
C2392 C 0.46333 0.8672 0.1067 0.0
C2393 C 0.4635 0.87925 0.09313 0.0
C2394 C 0.44804 0.88755 0.08852 0.0
C2395 C 0.43302 0.88482 0.09829 0.0
C2396 C 0.48059 0.88477 0.08629 0.0
C2397 C 0.49232 0.87186 0.08153 0.0
C2398 C 0.48684 0.90181 0.0891 0.0
C2399 C 0.47528 0.91602 0.09423 0.0
C2400 C 0.47052 0.92866 0.08212 0.0
C2401 C 0.45921 0.94185 0.08684 0.0
C2402 C 0.45268 0.94253 0.10367 0.0
C2403 C 0.45754 0.93009 0.11583 0.0
C2404 C 0.46887 0.9169 0.11118 0.0
C2405 C 0.56441 0.88788 0.09952 0.0
C2406 C 0.56423 0.89309 0.11698 0.0
C2407 C 0.54912 0.88801 0.08963 0.0
C2408 C 0.53343 0.89305 0.09719 0.0
C2409 C 0.53343 0.89846 0.11452 0.0
C2410 C 0.54859 0.89857 0.12423 0.0
C2411 C 0.51643 0.89116 0.0883 0.0
C2412 C 0.50472 0.90489 0.08964 0.0
C2413 C 0.51021 0.87478 0.08283 0.0
C2414 C 0.52179 0.85987 0.08064 0.0
C2415 C 0.52857 0.85126 0.09514 0.0
C2416 C 0.53985 0.8374 0.09291 0.0
C2417 C 0.54429 0.83203 0.07626 0.0
C2418 C 0.53737 0.8404 0.0618 0.0
C2419 C 0.52611 0.85426 0.06396 0.0
H2420 H 0.55309 0.82141 0.07453 0.0
H2421 H 0.44388 0.95271 0.10727 0.0
H2422 H 0.60868 0.07244 0.57985 0.0
H2423 H 0.60931 0.04215 0.57053 0.0
H2424 H 0.66116 0.03762 0.59083 0.0
H2425 H 0.66021 0.06756 0.60084 0.0
H2426 H 0.62879 0.01456 0.55463 0.0
H2427 H 0.65933 0.00824 0.62174 0.0
H2428 H 0.6632 0.0247 0.64889 0.0
H2429 H 0.61613 0.0521 0.63881 0.0
H2430 H 0.6119 0.03565 0.61171 0.0
H2431 H 0.64493 0.92581 0.58256 0.0
H2432 H 0.64418 0.95544 0.57111 0.0
H2433 H 0.60386 0.96793 0.60735 0.0
H2434 H 0.6053 0.93883 0.61934 0.0
H2435 H 0.63083 0.98712 0.61263 0.0
H2436 H 0.59819 0.96947 0.56255 0.0
H2437 H 0.59181 0.9527 0.5361 0.0
H2438 H 0.63831 0.97223 0.51267 0.0
H2439 H 0.64513 0.98891 0.53909 0.0
C2440 C 0.62054 0.06522 0.58143 0.0
C2441 C 0.63434 0.07211 0.59118 0.0
C2442 C 0.6209 0.04793 0.57608 0.0
C2443 C 0.63513 0.03759 0.58036 0.0
C2444 C 0.65 0.04537 0.58758 0.0
C2445 C 0.64946 0.06247 0.5933 0.0
C2446 C 0.63269 0.01864 0.58193 0.0
C2447 C 0.62932 0.00843 0.56724 0.0
C2448 C 0.63297 0.01079 0.59846 0.0
C2449 C 0.63542 0.02086 0.61465 0.0
C2450 C 0.64982 0.01777 0.62535 0.0
C2451 C 0.65206 0.02709 0.64071 0.0
C2452 C 0.63992 0.03944 0.64556 0.0
C2453 C 0.62553 0.04254 0.63503 0.0
C2454 C 0.62322 0.03325 0.61965 0.0
C2455 C 0.63557 0.93479 0.58767 0.0
C2456 C 0.62536 0.93025 0.60198 0.0
C2457 C 0.63508 0.95167 0.58106 0.0
C2458 C 0.62407 0.96395 0.58848 0.0
C2459 C 0.61257 0.95872 0.60154 0.0
C2460 C 0.61341 0.94211 0.60841 0.0
C2461 C 0.62671 0.98272 0.58535 0.0
C2462 C 0.6303 0.99301 0.59989 0.0
C2463 C 0.62628 0.99046 0.56873 0.0
C2464 C 0.62227 0.9803 0.5529 0.0
C2465 C 0.60716 0.97005 0.55184 0.0
C2466 C 0.60344 0.96058 0.53683 0.0
C2467 C 0.61467 0.96136 0.52273 0.0
C2468 C 0.62964 0.97162 0.5236 0.0
C2469 C 0.63343 0.98109 0.53859 0.0
H2470 H 0.61175 0.95404 0.51112 0.0
H2471 H 0.64165 0.04656 0.65751 0.0
H2472 H 0.43644 0.88727 0.93088 0.0
H2473 H 0.46463 0.88695 0.94584 0.0
H2474 H 0.48719 0.86192 0.90152 0.0
H2475 H 0.4594 0.86205 0.88685 0.0
H2476 H 0.50222 0.85067 0.93025 0.0
H2477 H 0.4851 0.90678 0.90489 0.0
H2478 H 0.46602 0.93216 0.90349 0.0
H2479 H 0.47632 0.94298 0.9571 0.0
H2480 H 0.49528 0.91747 0.95883 0.0
H2481 H 0.56963 0.90162 0.8901 0.0
H2482 H 0.54182 0.90251 0.90461 0.0
H2483 H 0.56254 0.8724 0.9468 0.0
H2484 H 0.59059 0.87136 0.93209 0.0
H2485 H 0.52567 0.91055 0.93414 0.0
H2486 H 0.53269 0.84053 0.95421 0.0
H2487 H 0.55138 0.81529 0.94911 0.0
H2488 H 0.56126 0.8329 0.89737 0.0
H2489 H 0.54247 0.85809 0.90213 0.0
C2490 C 0.44735 0.88126 0.92462 0.0
C2491 C 0.44585 0.87492 0.90762 0.0
C2492 C 0.46342 0.88111 0.93314 0.0
C2493 C 0.47807 0.87458 0.92472 0.0
C2494 C 0.47611 0.86698 0.90833 0.0
C2495 C 0.4602 0.8672 0.89986 0.0
C2496 C 0.49589 0.87774 0.93126 0.0
C2497 C 0.50731 0.86373 0.93174 0.0
C2498 C 0.50259 0.89476 0.93312 0.0
C2499 C 0.49138 0.91015 0.93205 0.0
C2500 C 0.48321 0.91454 0.91638 0.0
C2501 C 0.47243 0.92894 0.91553 0.0
C2502 C 0.46992 0.93916 0.93021 0.0
C2503 C 0.47824 0.93503 0.94575 0.0
C2504 C 0.48898 0.92059 0.94669 0.0
C2505 C 0.56843 0.89564 0.90272 0.0
C2506 C 0.58208 0.8861 0.90981 0.0
C2507 C 0.55255 0.89627 0.9111 0.0
C2508 C 0.55001 0.88726 0.92666 0.0
C2509 C 0.5642 0.87932 0.93473 0.0
C2510 C 0.58021 0.87874 0.92633 0.0
C2511 C 0.53198 0.88354 0.93208 0.0
C2512 C 0.52055 0.89742 0.9339 0.0
C2513 C 0.52526 0.86642 0.93166 0.0
C2514 C 0.53641 0.85126 0.92862 0.0
C2515 C 0.53885 0.83897 0.94176 0.0
C2516 C 0.54944 0.82468 0.93892 0.0
C2517 C 0.55755 0.82252 0.92294 0.0
C2518 C 0.55502 0.8346 0.90974 0.0
C2519 C 0.5444 0.84887 0.9125 0.0
H2520 H 0.56577 0.81147 0.92078 0.0
H2521 H 0.46156 0.9503 0.92954 0.0
H2522 H 0.63939 0.94138 0.40234 0.0
H2523 H 0.63841 0.96935 0.41695 0.0
H2524 H 0.58268 0.96538 0.4196 0.0
H2525 H 0.58368 0.93789 0.40404 0.0
H2526 H 0.58982 0.99203 0.40334 0.0
H2527 H 0.6091 0.97298 0.4573 0.0
H2528 H 0.62582 0.95702 0.47924 0.0
H2529 H 0.67231 0.98336 0.46351 0.0
H2530 H 0.65595 0.99933 0.44131 0.0
H2531 H 0.60249 0.08142 0.40599 0.0
H2532 H 0.59568 0.05502 0.42238 0.0
H2533 H 0.64496 0.03368 0.40807 0.0
H2534 H 0.65178 0.0598 0.39178 0.0
H2535 H 0.63302 0.02167 0.44094 0.0
H2536 H 0.61241 0.02917 0.38006 0.0
H2537 H 0.59544 0.04522 0.3583 0.0
H2538 H 0.54996 0.03989 0.38965 0.0
H2539 H 0.56677 0.02396 0.41166 0.0
C2540 C 0.62701 0.94623 0.40662 0.0
C2541 C 0.6116 0.93774 0.40186 0.0
C2542 C 0.62643 0.96218 0.41513 0.0
C2543 C 0.61043 0.96962 0.41937 0.0
C2544 C 0.59516 0.96004 0.41635 0.0
C2545 C 0.59573 0.94436 0.40745 0.0
C2546 C 0.60949 0.98849 0.42299 0.0
C2547 C 0.5988 0.9984 0.41216 0.0
C2548 C 0.62119 0.99703 0.43437 0.0
C2549 C 0.63126 0.98736 0.44758 0.0
C2550 C 0.62291 0.97529 0.45842 0.0
C2551 C 0.63233 0.96626 0.47093 0.0
C2552 C 0.65011 0.96917 0.47276 0.0
C2553 C 0.65852 0.98113 0.46209 0.0
C2554 C 0.64917 0.99022 0.44956 0.0
C2555 C 0.61208 0.07131 0.40685 0.0
C2556 C 0.62747 0.07242 0.39729 0.0
C2557 C 0.60821 0.0563 0.41627 0.0
C2558 C 0.61976 0.04236 0.41628 0.0
C2559 C 0.6359 0.0443 0.40828 0.0
C2560 C 0.63967 0.05914 0.39876 0.0
C2561 C 0.61394 0.02467 0.42083 0.0
C2562 C 0.62342 0.01508 0.43298 0.0
C2563 C 0.60097 0.01631 0.41086 0.0
C2564 C 0.59084 0.02557 0.39753 0.0
C2565 C 0.5988 0.03149 0.3823 0.0
C2566 C 0.58923 0.04056 0.36994 0.0
C2567 C 0.57164 0.04362 0.37261 0.0
C2568 C 0.56359 0.03755 0.38762 0.0
C2569 C 0.57313 0.0285 0.40004 0.0
H2570 H 0.56425 0.05065 0.36304 0.0
H2571 H 0.65737 0.96217 0.48247 0.0
H2572 H 0.44585 0.10421 0.89176 0.0
H2573 H 0.47323 0.1047 0.90731 0.0
H2574 H 0.45128 0.13789 0.94623 0.0
H2575 H 0.4236 0.13748 0.93046 0.0
H2576 H 0.47919 0.15226 0.93308 0.0
H2577 H 0.46869 0.09891 0.95895 0.0
H2578 H 0.45816 0.06887 0.96207 0.0
H2579 H 0.49447 0.05204 0.92389 0.0
H2580 H 0.50504 0.08198 0.92031 0.0
H2581 H 0.57653 0.11878 0.93071 0.0
H2582 H 0.54908 0.12023 0.94655 0.0
H2583 H 0.52566 0.14612 0.90296 0.0
H2584 H 0.55278 0.14496 0.88743 0.0
H2585 H 0.52077 0.10394 0.93717 0.0
H2586 H 0.49431 0.17039 0.91173 0.0
H2587 H 0.50524 0.20028 0.90877 0.0
H2588 H 0.54282 0.19128 0.94878 0.0
H2589 H 0.53199 0.16137 0.95218 0.0
C2590 C 0.44667 0.11119 0.9039 0.0
C2591 C 0.4327 0.12095 0.90982 0.0
C2592 C 0.46232 0.11134 0.91291 0.0
C2593 C 0.46433 0.12125 0.92804 0.0
C2594 C 0.44999 0.13008 0.93464 0.0
C2595 C 0.4342 0.1298 0.92566 0.0
C2596 C 0.48207 0.12461 0.93473 0.0
C2597 C 0.48828 0.14174 0.93442 0.0
C2598 C 0.49386 0.11094 0.93728 0.0
C2599 C 0.48772 0.09276 0.93942 0.0
C2600 C 0.4744 0.08883 0.95117 0.0
C2601 C 0.46842 0.0718 0.95302 0.0
C2602 C 0.47566 0.05855 0.94321 0.0
C2603 C 0.48891 0.06231 0.93153 0.0
C2604 C 0.49495 0.07931 0.92962 0.0
C2605 C 0.56562 0.12523 0.92479 0.0
C2606 C 0.5667 0.13163 0.9078 0.0
C2607 C 0.54997 0.12603 0.93383 0.0
C2608 C 0.53534 0.13345 0.92605 0.0
C2609 C 0.53682 0.14071 0.90947 0.0
C2610 C 0.55233 0.13987 0.90048 0.0
C2611 C 0.51784 0.13141 0.93363 0.0
C2612 C 0.51169 0.11454 0.9367 0.0
C2613 C 0.50611 0.14535 0.93387 0.0
C2614 C 0.51226 0.16359 0.93227 0.0
C2615 C 0.50475 0.17481 0.92007 0.0
C2616 C 0.51099 0.19176 0.91826 0.0
C2617 C 0.5247 0.19768 0.92859 0.0
C2618 C 0.5322 0.18667 0.94078 0.0
C2619 C 0.52602 0.16971 0.94264 0.0
H2620 H 0.52952 0.21079 0.92714 0.0
H2621 H 0.47099 0.04538 0.94464 0.0
H2622 H 0.37254 0.91814 0.41311 0.0
H2623 H 0.37194 0.94394 0.43176 0.0
H2624 H 0.40008 0.97274 0.39311 0.0
H2625 H 0.40029 0.94733 0.37438 0.0
H2626 H 0.40221 0.97877 0.43855 0.0
H2627 H 0.36376 0.99086 0.37854 0.0
H2628 H 0.34575 0.97424 0.35782 0.0
H2629 H 0.32551 0.94338 0.39939 0.0
H2630 H 0.34332 0.95996 0.42037 0.0
H2631 H 0.41149 0.0523 0.39375 0.0
H2632 H 0.40812 0.02595 0.41046 0.0
H2633 H 0.35584 0.0402 0.4233 0.0
H2634 H 0.35921 0.06687 0.40631 0.0
H2635 H 0.3562 0.01052 0.40717 0.0
H2636 H 0.38434 0.02978 0.45683 0.0
H2637 H 0.40528 0.04555 0.47526 0.0
H2638 H 0.44667 0.01509 0.45497 0.0
H2639 H 0.42607 0.9993 0.4362 0.0
C2640 C 0.37926 0.92979 0.40901 0.0
C2641 C 0.38633 0.93094 0.39232 0.0
C2642 C 0.37895 0.94445 0.41968 0.0
C2643 C 0.38593 0.96016 0.41373 0.0
C2644 C 0.39475 0.96066 0.39793 0.0
C2645 C 0.39477 0.9462 0.3872 0.0
C2646 C 0.38055 0.97684 0.42111 0.0
C2647 C 0.39188 0.98578 0.43222 0.0
C2648 C 0.36666 0.98567 0.41325 0.0
C2649 C 0.35481 0.97665 0.40099 0.0
C2650 C 0.35527 0.98069 0.38327 0.0
C2651 C 0.34518 0.97123 0.37148 0.0
C2652 C 0.33454 0.95773 0.37728 0.0
C2653 C 0.33379 0.95381 0.39492 0.0
C2654 C 0.34387 0.96325 0.40676 0.0
C2655 C 0.39941 0.05006 0.40049 0.0
C2656 C 0.3855 0.06143 0.39846 0.0
C2657 C 0.39757 0.03509 0.41032 0.0
C2658 C 0.38175 0.03109 0.41831 0.0
C2659 C 0.36821 0.04309 0.41738 0.0
C2660 C 0.37013 0.05827 0.40763 0.0
C2661 C 0.37858 0.01297 0.42385 0.0
C2662 C 0.36576 0.00366 0.41479 0.0
C2663 C 0.39094 0.00388 0.43387 0.0
C2664 C 0.40357 0.01327 0.44512 0.0
C2665 C 0.39791 0.02647 0.45622 0.0
C2666 C 0.40974 0.03543 0.46675 0.0
C2667 C 0.42729 0.03131 0.46631 0.0
C2668 C 0.43305 0.01823 0.45534 0.0
C2669 C 0.42129 0.00922 0.44479 0.0
H2670 H 0.43642 0.03827 0.47445 0.0
H2671 H 0.32693 0.95028 0.36809 0.0
H2672 H 0.1031 0.44508 0.1397 0.0
H2673 H 0.08747 0.47253 0.1379 0.0
H2674 H 0.09363 0.47262 0.08246 0.0
H2675 H 0.10945 0.44553 0.08422 0.0
H2676 H 0.11067 0.49885 0.09859 0.0
H2677 H 0.0538 0.47425 0.09895 0.0
H2678 H 0.02979 0.4559 0.10943 0.0
H2679 H 0.02986 0.48349 0.15765 0.0
H2680 H 0.05404 0.50187 0.14757 0.0
H2681 H 0.09577 0.58438 0.09317 0.0
H2682 H 0.08535 0.55495 0.08723 0.0
H2683 H 0.07757 0.54672 0.14187 0.0
H2684 H 0.08709 0.57647 0.14766 0.0
H2685 H 0.05722 0.52428 0.12267 0.0
H2686 H 0.11751 0.54172 0.12657 0.0
H2687 H 0.14301 0.55957 0.11903 0.0
H2688 H 0.1379 0.54415 0.06584 0.0
H2689 H 0.1123 0.52625 0.07311 0.0
C2690 C 0.10055 0.45069 0.12711 0.0
C2691 C 0.1078 0.44351 0.11215 0.0
C2692 C 0.09153 0.46629 0.12607 0.0
C2693 C 0.08951 0.47465 0.11004 0.0
C2694 C 0.0951 0.46641 0.09494 0.0
C2695 C 0.10424 0.45101 0.09598 0.0
C2696 C 0.08555 0.49333 0.10941 0.0
C2697 C 0.09872 0.50432 0.10337 0.0
C2698 C 0.07031 0.50049 0.11635 0.0
C2699 C 0.05584 0.48937 0.12254 0.0
C2700 C 0.04882 0.47631 0.11186 0.0
C2701 C 0.03514 0.46592 0.11771 0.0
C2702 C 0.02832 0.4685 0.1342 0.0
C2703 C 0.03515 0.4815 0.14488 0.0
C2704 C 0.04883 0.49193 0.13909 0.0
C2705 C 0.0909 0.57656 0.10375 0.0
C2706 C 0.09222 0.58246 0.12083 0.0
C2707 C 0.08498 0.55977 0.10038 0.0
C2708 C 0.08116 0.54852 0.11417 0.0
C2709 C 0.08048 0.55516 0.13105 0.0
C2710 C 0.08596 0.57212 0.13436 0.0
C2711 C 0.08225 0.52957 0.11162 0.0
C2712 C 0.06883 0.51863 0.11734 0.0
C2713 C 0.09746 0.52224 0.10474 0.0
C2714 C 0.11292 0.53283 0.10034 0.0
C2715 C 0.1218 0.54221 0.11326 0.0
C2716 C 0.13627 0.55231 0.10904 0.0
C2717 C 0.14203 0.55305 0.09195 0.0
C2718 C 0.13339 0.5436 0.07906 0.0
C2719 C 0.11892 0.53345 0.08323 0.0
H2720 H 0.15322 0.56092 0.0887 0.0
H2721 H 0.01772 0.46046 0.1387 0.0
H2722 H 0.10825 0.55698 0.85965 0.0
H2723 H 0.0952 0.52832 0.86156 0.0
H2724 H 0.06641 0.5441 0.9065 0.0
H2725 H 0.07932 0.57325 0.90429 0.0
H2726 H 0.08796 0.51692 0.91291 0.0
H2727 H 0.04299 0.52676 0.87396 0.0
H2728 H 0.02778 0.53857 0.84853 0.0
H2729 H 0.06074 0.50974 0.81479 0.0
H2730 H 0.07635 0.49796 0.83995 0.0
H2731 H 0.10288 0.42497 0.90383 0.0
H2732 H 0.08359 0.44988 0.90755 0.0
H2733 H 0.10735 0.47487 0.86365 0.0
H2734 H 0.12648 0.45046 0.85996 0.0
H2735 H 0.07104 0.47843 0.86422 0.0
H2736 H 0.12236 0.48341 0.90385 0.0
H2737 H 0.13935 0.47285 0.92878 0.0
H2738 H 0.09406 0.47449 0.9607 0.0
H2739 H 0.0768 0.48492 0.93587 0.0
C2740 C 0.09862 0.55455 0.86951 0.0
C2741 C 0.09478 0.56721 0.88183 0.0
C2742 C 0.09105 0.53819 0.87055 0.0
C2743 C 0.07971 0.53408 0.88412 0.0
C2744 C 0.07496 0.54707 0.89583 0.0
C2745 C 0.0823 0.56368 0.89453 0.0
C2746 C 0.07606 0.51557 0.88763 0.0
C2747 C 0.08351 0.50843 0.90259 0.0
C2748 C 0.07016 0.50447 0.87426 0.0
C2749 C 0.0608 0.51138 0.85893 0.0
C2750 C 0.04705 0.52297 0.86112 0.0
C2751 C 0.03835 0.52967 0.84674 0.0
C2752 C 0.04327 0.52488 0.83006 0.0
C2753 C 0.05691 0.51339 0.82772 0.0
C2754 C 0.06565 0.50664 0.84206 0.0
C2755 C 0.10383 0.43575 0.89492 0.0
C2756 C 0.11636 0.43587 0.88175 0.0
C2757 C 0.09278 0.44988 0.89701 0.0
C2758 C 0.09398 0.46413 0.88579 0.0
C2759 C 0.10607 0.46392 0.87233 0.0
C2760 C 0.11717 0.45003 0.87039 0.0
C2761 C 0.08431 0.48028 0.8887 0.0
C2762 C 0.07437 0.48685 0.87499 0.0
C2763 C 0.08793 0.4909 0.90317 0.0
C2764 C 0.09829 0.48471 0.91802 0.0
C2765 C 0.11604 0.48141 0.91618 0.0
C2766 C 0.12571 0.47547 0.93027 0.0
C2767 C 0.11778 0.47294 0.9463 0.0
C2768 C 0.10017 0.4764 0.94827 0.0
C2769 C 0.09045 0.48232 0.9342 0.0
H2770 H 0.12528 0.46834 0.9572 0.0
H2771 H 0.03653 0.53009 0.81894 0.0
H2772 H 0.0647 0.60777 0.40322 0.0
H2773 H 0.03656 0.59304 0.40122 0.0
H2774 H 0.05369 0.56539 0.3561 0.0
H2775 H 0.08219 0.57953 0.35851 0.0
H2776 H 0.02411 0.59449 0.35572 0.0
H2777 H 0.04138 0.53951 0.37753 0.0
H2778 H 0.05498 0.51907 0.39783 0.0
H2779 H 0.02127 0.53599 0.43831 0.0
H2780 H 0.0076 0.5567 0.41831 0.0
H2781 H 0.93531 0.58789 0.34828 0.0
H2782 H 0.96401 0.57471 0.34595 0.0
H2783 H 0.9702 0.57823 0.40142 0.0
H2784 H 0.94129 0.59043 0.4037 0.0
H2785 H 0.98936 0.55299 0.39042 0.0
H2786 H 0.98043 0.613 0.37413 0.0
H2787 H 0.9671 0.63644 0.35715 0.0
H2788 H 0.98582 0.61379 0.31018 0.0
H2789 H 0.99918 0.59012 0.32692 0.0
C2790 C 0.06269 0.59799 0.39335 0.0
C2791 C 0.0755 0.59478 0.38099 0.0
C2792 C 0.04668 0.58954 0.39226 0.0
C2793 C 0.04315 0.57808 0.37858 0.0
C2794 C 0.05631 0.57398 0.3669 0.0
C2795 C 0.07254 0.58207 0.36829 0.0
C2796 C 0.02492 0.57393 0.37445 0.0
C2797 C 0.01654 0.58499 0.36283 0.0
C2798 C 0.01514 0.56194 0.38422 0.0
C2799 C 0.02354 0.54976 0.39642 0.0
C2800 C 0.03699 0.53903 0.39081 0.0
C2801 C 0.04468 0.52734 0.40225 0.0
C2802 C 0.03901 0.52625 0.41935 0.0
C2803 C 0.02565 0.53685 0.42505 0.0
C2804 C 0.0179 0.54854 0.41366 0.0
C2805 C 0.94253 0.58499 0.35996 0.0
C2806 C 0.93628 0.59002 0.37616 0.0
C2807 C 0.95894 0.5776 0.35866 0.0
C2808 C 0.96946 0.57591 0.37348 0.0
C2809 C 0.96239 0.57939 0.3898 0.0
C2810 C 0.94589 0.5864 0.39111 0.0
C2811 C 0.98849 0.57391 0.372 0.0
C2812 C 0.99699 0.56193 0.3827 0.0
C2813 C 0.99848 0.58549 0.36182 0.0
C2814 C 0.9906 0.59971 0.35173 0.0
C2815 C 0.98163 0.61299 0.36017 0.0
C2816 C 0.97407 0.62631 0.3506 0.0
C2817 C 0.97557 0.62657 0.3326 0.0
C2818 C 0.98465 0.61354 0.32413 0.0
C2819 C 0.99222 0.60018 0.33364 0.0
H2820 H 0.96974 0.63692 0.32522 0.0
H2821 H 0.04494 0.51716 0.42818 0.0
H2822 H 0.92773 0.58791 0.8786 0.0
H2823 H 0.94141 0.55972 0.88304 0.0
H2824 H 0.89289 0.5389 0.90156 0.0
H2825 H 0.8794 0.5669 0.89759 0.0
H2826 H 0.91893 0.52355 0.91773 0.0
H2827 H 0.9038 0.539 0.85722 0.0
H2828 H 0.90721 0.55714 0.83115 0.0
H2829 H 0.96173 0.54687 0.83076 0.0
H2830 H 0.95863 0.5288 0.85694 0.0
H2831 H 0.88833 0.45327 0.86371 0.0
H2832 H 0.90128 0.48204 0.86524 0.0
H2833 H 0.94049 0.4632 0.90025 0.0
H2834 H 0.92753 0.43404 0.89858 0.0
H2835 H 0.93278 0.49856 0.86036 0.0
H2836 H 0.94177 0.49455 0.93265 0.0
H2837 H 0.93364 0.47617 0.95753 0.0
H2838 H 0.88543 0.46311 0.93263 0.0
H2839 H 0.89322 0.48156 0.90775 0.0
C2840 C 0.92015 0.57741 0.88406 0.0
C2841 C 0.90242 0.57945 0.88742 0.0
C2842 C 0.92797 0.56133 0.88658 0.0
C2843 C 0.9181 0.54713 0.89235 0.0
C2844 C 0.90079 0.54965 0.8971 0.0
C2845 C 0.89303 0.56565 0.89468 0.0
C2846 C 0.92448 0.52915 0.891 0.0
C2847 C 0.92252 0.51814 0.90531 0.0
C2848 C 0.9292 0.52203 0.87483 0.0
C2849 C 0.93103 0.53276 0.85909 0.0
C2850 C 0.91651 0.54069 0.85159 0.0
C2851 C 0.91839 0.55095 0.83681 0.0
C2852 C 0.93469 0.5532 0.82933 0.0
C2853 C 0.94913 0.54515 0.83659 0.0
C2854 C 0.94732 0.53491 0.8514 0.0
C2855 C 0.9 0.45512 0.87135 0.0
C2856 C 0.90683 0.44155 0.88118 0.0
C2857 C 0.90748 0.47154 0.87212 0.0
C2858 C 0.92177 0.47477 0.88295 0.0
C2859 C 0.92946 0.46094 0.89182 0.0
C2860 C 0.92207 0.44434 0.89084 0.0
C2861 C 0.92633 0.49299 0.88685 0.0
C2862 C 0.93035 0.50404 0.87303 0.0
C2863 C 0.92309 0.50013 0.90336 0.0
C2864 C 0.91818 0.48921 0.91831 0.0
C2865 C 0.92944 0.48775 0.93254 0.0
C2866 C 0.92488 0.47734 0.94662 0.0
C2867 C 0.90906 0.46842 0.94663 0.0
C2868 C 0.89771 0.46997 0.93259 0.0
C2869 C 0.90218 0.48039 0.9185 0.0
H2870 H 0.90557 0.46035 0.95753 0.0
H2871 H 0.93612 0.56115 0.81789 0.0
H2872 H 0.06673 0.41187 0.3618 0.0
H2873 H 0.03971 0.42804 0.35885 0.0
H2874 H 0.02616 0.41408 0.41121 0.0
H2875 H 0.05296 0.39854 0.41425 0.0
H2876 H 0.01189 0.41163 0.35757 0.0
H2877 H 0.99666 0.43441 0.42949 0.0
H2878 H 0.00939 0.45476 0.45062 0.0
H2879 H 0.03713 0.48063 0.41002 0.0
H2880 H 0.02443 0.46058 0.38855 0.0
H2881 H 0.95093 0.36552 0.39441 0.0
H2882 H 0.97607 0.3847 0.39294 0.0
H2883 H 0.94288 0.42826 0.38347 0.0
H2884 H 0.91738 0.409 0.38512 0.0
H2885 H 0.97631 0.43387 0.40582 0.0
H2886 H 0.9569 0.41853 0.35001 0.0
H2887 H 0.94345 0.39947 0.32806 0.0
H2888 H 0.98493 0.36335 0.33397 0.0
H2889 H 0.99846 0.38201 0.3562 0.0
C2890 C 0.05825 0.41288 0.37286 0.0
C2891 C 0.06167 0.40357 0.38809 0.0
C2892 C 0.04283 0.42217 0.37118 0.0
C2893 C 0.03075 0.42232 0.38476 0.0
C2894 C 0.03522 0.41455 0.40058 0.0
C2895 C 0.05049 0.40531 0.40222 0.0
C2896 C 0.0122 0.42611 0.38146 0.0
C2897 C 0.00413 0.41708 0.36783 0.0
C2898 C 1.00181 0.43392 0.3943 0.0
C2899 C 0.00949 0.44596 0.40733 0.0
C2900 C 0.00533 0.44453 0.42498 0.0
C2901 C 0.0126 0.45599 0.43706 0.0
C2902 C 0.02405 0.46899 0.43167 0.0
C2903 C 0.02829 0.47053 0.41419 0.0
C2904 C 0.02108 0.45908 0.40206 0.0
C2905 C 0.94891 0.37924 0.39249 0.0
C2906 C 0.93225 0.38574 0.38966 0.0
C2907 C 0.96326 0.39019 0.39167 0.0
C2908 C 0.96126 0.40779 0.38782 0.0
C2909 C 0.9446 0.41469 0.38644 0.0
C2910 C 0.9301 0.40368 0.38741 0.0
C2911 C 0.97685 0.41787 0.3831 0.0
C2912 C 0.98413 0.4294 0.39515 0.0
C2913 C 0.9865 0.41289 0.36848 0.0
C2914 C 0.97872 0.40173 0.35476 0.0
C2915 C 0.96313 0.4065 0.34667 0.0
C2916 C 0.95548 0.39575 0.33418 0.0
C2917 C 0.96334 0.38022 0.32961 0.0
C2918 C 0.97888 0.37541 0.33749 0.0
C2919 C 0.98656 0.38609 0.35002 0.0
H2920 H 0.95739 0.3719 0.31995 0.0
H2921 H 0.02964 0.47786 0.44103 0.0
H2922 H 0.89365 0.42959 0.10787 0.0
H2923 H 0.90946 0.4574 0.1069 0.0
H2924 H 0.90574 0.46151 0.16243 0.0
H2925 H 0.88974 0.43421 0.16338 0.0
H2926 H 0.88892 0.48694 0.14508 0.0
H2927 H 0.94457 0.45986 0.14402 0.0
H2928 H 0.96708 0.44039 0.13302 0.0
H2929 H 0.96695 0.46723 0.08438 0.0
H2930 H 0.94426 0.48672 0.09501 0.0
H2931 H 0.91345 0.56972 0.1565 0.0
H2932 H 0.92072 0.53911 0.159 0.0
H2933 H 0.92447 0.53555 0.10345 0.0
H2934 H 0.91783 0.56638 0.10103 0.0
H2935 H 0.94395 0.50952 0.12069 0.0
H2936 H 0.88569 0.53195 0.11883 0.0
H2937 H 0.86178 0.55085 0.12772 0.0
H2938 H 0.8657 0.53173 0.17974 0.0
H2939 H 0.88969 0.51273 0.17113 0.0
C2940 C 0.89672 0.43623 0.11986 0.0
C2941 C 0.89023 0.43006 0.13565 0.0
C2942 C 0.90581 0.45203 0.11932 0.0
C2943 C 0.90866 0.46153 0.13461 0.0
C2944 C 0.90362 0.45441 0.1505 0.0
C2945 C 0.89439 0.43889 0.15101 0.0
C2946 C 0.91345 0.48011 0.13396 0.0
C2947 C 0.90115 0.49178 0.14009 0.0
C2948 C 0.92905 0.48646 0.12674 0.0
C2949 C 0.94257 0.47465 0.12026 0.0
C2950 C 0.9492 0.4615 0.13091 0.0
C2951 C 0.96203 0.45049 0.12476 0.0
C2952 C 0.96841 0.45254 0.108 0.0
C2953 C 0.96199 0.46564 0.09736 0.0
C2954 C 0.94915 0.47669 0.10345 0.0
C2955 C 0.91687 0.56263 0.14495 0.0
C2956 C 0.91513 0.57025 0.1286 0.0
C2957 C 0.92096 0.54514 0.14635 0.0
C2958 C 0.92271 0.53501 0.13137 0.0
C2959 C 0.92317 0.54314 0.11515 0.0
C2960 C 0.9194 0.56075 0.11378 0.0
C2961 C 0.91963 0.5161 0.13236 0.0
C2962 C 0.93196 0.50449 0.126 0.0
C2963 C 0.90389 0.5096 0.13913 0.0
C2964 C 0.88957 0.52108 0.14438 0.0
C2965 C 0.88152 0.53186 0.13218 0.0
C2966 C 0.86792 0.54254 0.13715 0.0
C2967 C 0.86224 0.54251 0.1543 0.0
C2968 C 0.87012 0.53175 0.16648 0.0
C2969 C 0.88369 0.521 0.16155 0.0
H2970 H 0.85173 0.55081 0.15813 0.0
H2971 H 0.97836 0.44402 0.10327 0.0
H2972 H 0.93254 0.41012 0.59369 0.0
H2973 H 0.95915 0.42743 0.59147 0.0
H2974 H 0.9725 0.41362 0.64395 0.0
H2975 H 0.94543 0.39715 0.64643 0.0
H2976 H 0.98834 0.44397 0.63472 0.0
H2977 H 0.98028 0.38505 0.60912 0.0
H2978 H 0.96501 0.36546 0.58879 0.0
H2979 H 0.97731 0.39952 0.54662 0.0
H2980 H 0.99252 0.41938 0.56678 0.0
H2981 H 0.05923 0.39631 0.65146 0.0
H2982 H 0.03362 0.41323 0.64559 0.0
H2983 H 0.05155 0.42313 0.59367 0.0
H2984 H 0.07753 0.40589 0.59962 0.0
H2985 H 0.02105 0.40796 0.59326 0.0
H2986 H 0.04159 0.45797 0.62033 0.0
H2987 H 0.05695 0.47635 0.64159 0.0
H2988 H 0.02213 0.45945 0.68139 0.0
H2989 H 0.00671 0.44074 0.66049 0.0
C2990 C 0.94078 0.41157 0.605 0.0
C2991 C 0.93718 0.40229 0.62018 0.0
C2992 C 0.95598 0.42141 0.60372 0.0
C2993 C 0.96805 0.42137 0.61735 0.0
C2994 C 0.96341 0.41378 0.63323 0.0
C2995 C 0.94798 0.40432 0.63466 0.0
C2996 C 0.98657 0.42532 0.61412 0.0
C2997 C 0.99558 0.43632 0.62555 0.0
C2998 C 0.99594 0.41592 0.60159 0.0
C2999 C 0.98737 0.40372 0.58942 0.0
C3000 C 0.97973 0.38831 0.5955 0.0
C3001 C 0.97107 0.3772 0.58403 0.0
C3002 C 0.97015 0.38127 0.56643 0.0
C3003 C 0.978 0.39641 0.56025 0.0
C3004 C 0.98665 0.40759 0.57169 0.0
C3005 C 0.05796 0.40246 0.63893 0.0
C3006 C 0.07017 0.39958 0.62589 0.0
C3007 C 0.0434 0.41238 0.63564 0.0
C3008 C 0.04067 0.41964 0.61922 0.0
C3009 C 0.05347 0.41779 0.60648 0.0
C3010 C 0.06826 0.40794 0.60987 0.0
C3011 C 0.02303 0.42566 0.61478 0.0
C3012 C 0.01403 0.41646 0.60187 0.0
C3013 C 0.01378 0.43669 0.62599 0.0
C3014 C 0.02293 0.44795 0.63876 0.0
C3015 C 0.03724 0.45809 0.63363 0.0
C3016 C 0.04596 0.46858 0.64563 0.0
C3017 C 0.0405 0.46908 0.66283 0.0
C3018 C 0.02631 0.45909 0.66806 0.0
C3019 C 0.01753 0.44857 0.65611 0.0
H3020 H 0.04728 0.47721 0.6721 0.0
H3021 H 0.96338 0.37268 0.55757 0.0
H3022 H 0.05275 0.61664 0.64789 0.0
H3023 H 0.02537 0.60126 0.6492 0.0
H3024 H 0.04656 0.55955 0.61903 0.0
H3025 H 0.07431 0.5753 0.61746 0.0
H3026 H 0.01833 0.57067 0.6045 0.0
H3027 H 0.02963 0.55061 0.66005 0.0
H3028 H 0.04122 0.55098 0.68982 0.0
H3029 H 0.00622 0.59156 0.70329 0.0
H3030 H 0.99454 0.59162 0.67357 0.0
H3031 H 0.92182 0.57855 0.63939 0.0
H3032 H 0.94892 0.5622 0.63911 0.0
H3033 H 0.97292 0.60273 0.60892 0.0
H3034 H 0.94611 0.61887 0.60907 0.0
H3035 H 0.97785 0.5728 0.65401 0.0
H3036 H 0.00345 0.59005 0.58442 0.0
H3037 H 0.9922 0.5895 0.55455 0.0
H3038 H 0.95368 0.55189 0.56904 0.0
H3039 H 0.96485 0.55196 0.59897 0.0
C3040 C 0.05178 0.60399 0.6419 0.0
C3041 C 0.06557 0.59725 0.63241 0.0
C3042 C 0.03612 0.59506 0.64284 0.0
C3043 C 0.0339 0.5791 0.63438 0.0
C3044 C 0.04803 0.57177 0.62576 0.0
C3045 C 0.06385 0.58075 0.6249 0.0
C3046 C 0.01607 0.57211 0.63222 0.0
C3047 C 0.00947 0.57069 0.61532 0.0
C3048 C 0.00456 0.57125 0.64639 0.0
C3049 C 0.01113 0.57103 0.66453 0.0
C3050 C 0.02439 0.55962 0.66935 0.0
C3051 C 0.03099 0.55977 0.68622 0.0
C3052 C 0.02443 0.57126 0.69844 0.0
C3053 C 0.01123 0.58261 0.69382 0.0
C3054 C 0.00456 0.5825 0.67697 0.0
C3055 C 0.93278 0.58369 0.63231 0.0
C3056 C 0.93195 0.60003 0.62436 0.0
C3057 C 0.94823 0.57435 0.63218 0.0
C3058 C 0.96291 0.58112 0.62384 0.0
C3059 C 0.9617 0.59701 0.61511 0.0
C3060 C 0.94638 0.60635 0.61534 0.0
C3061 C 0.98022 0.57335 0.62625 0.0
C3062 C 0.98668 0.5719 0.6432 0.0
C3063 C 0.99159 0.57129 0.61213 0.0
C3064 C 0.98505 0.57097 0.59399 0.0
C3065 C 0.99271 0.58149 0.58123 0.0
C3066 C 0.9863 0.58131 0.56428 0.0
C3067 C 0.97224 0.57066 0.5599 0.0
C3068 C 0.96456 0.56015 0.57246 0.0
C3069 C 0.97092 0.56026 0.58942 0.0
H3070 H 0.96729 0.57056 0.54677 0.0
H3071 H 0.02959 0.57138 0.71149 0.0
H3072 H 0.92636 0.10803 0.35284 0.0
H3073 H 0.95756 0.10327 0.34788 0.0
H3074 H 0.96987 0.13693 0.39083 0.0
H3075 H 0.93936 0.14186 0.39552 0.0
H3076 H 0.98868 0.14613 0.36511 0.0
H3077 H 0.97398 0.09174 0.39226 0.0
H3078 H 0.9584 0.06388 0.39506 0.0
H3079 H 0.97821 0.04748 0.34597 0.0
H3080 H 0.99375 0.07536 0.34279 0.0
H3081 H 0.07303 0.10551 0.39333 0.0
H3082 H 0.04249 0.10012 0.38672 0.0
H3083 H 0.04622 0.13405 0.34259 0.0
H3084 H 0.07663 0.1401 0.3498 0.0
H3085 H 0.01909 0.08994 0.36405 0.0
H3086 H 0.01203 0.16031 0.34108 0.0
H3087 H 0.02784 0.18819 0.34267 0.0
H3088 H 0.05126 0.17279 0.3907 0.0
H3089 H 0.0354 0.14494 0.38949 0.0
C3090 C 0.93578 0.1142 0.36129 0.0
C3091 C 0.9303 0.12547 0.37446 0.0
C3092 C 0.95363 0.11151 0.35846 0.0
C3093 C 0.96625 0.11988 0.36888 0.0
C3094 C 0.96059 0.13051 0.38239 0.0
C3095 C 0.943 0.13328 0.38509 0.0
C3096 C 0.98538 0.11842 0.36576 0.0
C3097 C 0.99523 0.13378 0.36466 0.0
C3098 C 0.99418 0.10241 0.36531 0.0
C3099 C 0.98483 0.0857 0.36719 0.0
C3100 C 0.97489 0.08225 0.382 0.0
C3101 C 0.96609 0.06645 0.38367 0.0
C3102 C 0.96726 0.05395 0.37067 0.0
C3103 C 0.97728 0.0572 0.35601 0.0
C3104 C 0.98608 0.07299 0.35426 0.0
C3105 C 0.06758 0.1111 0.38167 0.0
C3106 C 0.07735 0.12301 0.37192 0.0
C3107 C 0.04999 0.10812 0.37797 0.0
C3108 C 0.04175 0.11702 0.36441 0.0
C3109 C 0.05207 0.12728 0.35337 0.0
C3110 C 0.0696 0.13051 0.35728 0.0
C3111 C 0.02231 0.11767 0.36365 0.0
C3112 C 0.01245 0.10224 0.36406 0.0
C3113 C 0.01341 0.13365 0.36402 0.0
C3114 C 0.0227 0.15049 0.36507 0.0
C3115 C 0.02051 0.16292 0.352 0.0
C3116 C 0.02947 0.17871 0.35283 0.0
C3117 C 0.04059 0.18223 0.36674 0.0
C3118 C 0.04268 0.17003 0.37991 0.0
C3119 C 0.0337 0.15425 0.37916 0.0
H3120 H 0.04756 0.19444 0.36734 0.0
H3121 H 0.96045 0.04172 0.372 0.0
H3122 H 0.35211 0.43299 0.88141 0.0
H3123 H 0.35393 0.4635 0.87382 0.0
H3124 H 0.40816 0.4579 0.86231 0.0
H3125 H 0.40634 0.4271 0.87054 0.0
H3126 H 0.40495 0.48488 0.88146 0.0
H3127 H 0.37593 0.46827 0.83011 0.0
H3128 H 0.35433 0.45366 0.81146 0.0
H3129 H 0.31359 0.48183 0.83598 0.0
H3130 H 0.33491 0.49645 0.85496 0.0
H3131 H 0.40308 0.57672 0.86165 0.0
H3132 H 0.40472 0.54545 0.85534 0.0
H3133 H 0.35635 0.53713 0.88172 0.0
H3134 H 0.35501 0.56804 0.88848 0.0
H3135 H 0.3601 0.51758 0.84944 0.0
H3136 H 0.39048 0.53035 0.90346 0.0
H3137 H 0.41289 0.54528 0.9209 0.0
H3138 H 0.4525 0.5243 0.8885 0.0
H3139 H 0.43026 0.50945 0.8707 0.0
C3140 C 0.36428 0.43808 0.87658 0.0
C3141 C 0.37896 0.42747 0.87615 0.0
C3142 C 0.36535 0.45565 0.87225 0.0
C3143 C 0.38115 0.46326 0.86722 0.0
C3144 C 0.39576 0.45248 0.86604 0.0
C3145 C 0.39468 0.43476 0.87046 0.0
C3146 C 0.38248 0.48262 0.86491 0.0
C3147 C 0.39536 0.49191 0.87405 0.0
C3148 C 0.36997 0.49214 0.85542 0.0
C3149 C 0.35704 0.48339 0.84404 0.0
C3150 C 0.36235 0.47127 0.83162 0.0
C3151 C 0.35016 0.46299 0.82097 0.0
C3152 C 0.3326 0.46679 0.82255 0.0
C3153 C 0.3272 0.4789 0.83477 0.0
C3154 C 0.33934 0.48721 0.84546 0.0
C3155 C 0.3926 0.56825 0.86567 0.0
C3156 C 0.37882 0.57487 0.8754 0.0
C3157 C 0.3936 0.55036 0.8622 0.0
C3158 C 0.38066 0.53884 0.86809 0.0
C3159 C 0.36646 0.54566 0.87696 0.0
C3160 C 0.36569 0.56337 0.88079 0.0
C3161 C 0.38228 0.51959 0.86624 0.0
C3162 C 0.36989 0.5104 0.85644 0.0
C3163 C 0.39537 0.51017 0.87487 0.0
C3164 C 0.40871 0.51899 0.88562 0.0
C3165 C 0.40396 0.52906 0.89996 0.0
C3166 C 0.41663 0.53747 0.90993 0.0
C3167 C 0.43411 0.53579 0.90577 0.0
C3168 C 0.43895 0.52563 0.89167 0.0
C3169 C 0.42633 0.51721 0.88164 0.0
H3170 H 0.4439 0.54231 0.91351 0.0
H3171 H 0.32317 0.46037 0.8143 0.0
H3172 H 0.06522 0.87888 0.40437 0.0
H3173 H 0.03424 0.88158 0.39948 0.0
H3174 H 0.04384 0.90312 0.34896 0.0
H3175 H 0.07535 0.9006 0.35397 0.0
H3176 H 0.01453 0.91818 0.36555 0.0
H3177 H 0.03424 0.86194 0.35089 0.0
H3178 H 0.05027 0.83482 0.35506 0.0
H3179 H 0.02014 0.82328 0.4002 0.0
H3180 H 0.0041 0.85049 0.39646 0.0
H3181 H 0.92911 0.85838 0.35909 0.0
H3182 H 0.9591 0.8655 0.35175 0.0
H3183 H 0.95783 0.90888 0.38685 0.0
H3184 H 0.92759 0.90221 0.39341 0.0
H3185 H 0.98382 0.86189 0.37183 0.0
H3186 H 0.99195 0.93627 0.38228 0.0
H3187 H 0.97635 0.96312 0.37544 0.0
H3188 H 0.95056 0.93774 0.333 0.0
H3189 H 0.96617 0.9108 0.33942 0.0
C3190 C 0.06084 0.88453 0.39231 0.0
C3191 C 0.07283 0.88942 0.37952 0.0
C3192 C 0.04303 0.88602 0.38951 0.0
C3193 C 0.03655 0.89222 0.37371 0.0
C3194 C 0.04846 0.89822 0.36125 0.0
C3195 C 0.06649 0.89684 0.36413 0.0
C3196 C 0.01746 0.89091 0.37009 0.0
C3197 C 0.00778 0.90588 0.36682 0.0
C3198 C 0.00858 0.87482 0.37124 0.0
C3199 C 0.01804 0.85832 0.37345 0.0
C3200 C 0.0311 0.85367 0.36177 0.0
C3201 C 0.04019 0.83828 0.36405 0.0
C3202 C 0.03624 0.82735 0.3779 0.0
C3203 C 0.02318 0.83177 0.38948 0.0
C3204 C 0.01408 0.84717 0.38728 0.0
C3205 C 0.93491 0.87007 0.36438 0.0
C3206 C 0.92575 0.88003 0.37643 0.0
C3207 C 0.95224 0.87397 0.36045 0.0
C3208 C 0.96106 0.88772 0.36877 0.0
C3209 C 0.95149 0.89842 0.37989 0.0
C3210 C 0.93403 0.89469 0.38356 0.0
C3211 C 0.98053 0.88927 0.36773 0.0
C3212 C 0.99038 0.87425 0.37026 0.0
C3213 C 0.98949 0.90527 0.36549 0.0
C3214 C 0.98014 0.92146 0.36144 0.0
C3215 C 0.98301 0.93643 0.37144 0.0
C3216 C 0.97416 0.95167 0.36765 0.0
C3217 C 0.96244 0.95212 0.35383 0.0
C3218 C 0.95959 0.93735 0.34374 0.0
C3219 C 0.96842 0.92208 0.34747 0.0
H3220 H 0.95559 0.96393 0.35092 0.0
H3221 H 0.0433 0.81543 0.37965 0.0
H3222 H 0.611 0.42472 0.86111 0.0
H3223 H 0.6089 0.45567 0.85359 0.0
H3224 H 0.64157 0.46862 0.89722 0.0
H3225 H 0.64331 0.43818 0.90487 0.0
H3226 H 0.61511 0.48813 0.89826 0.0
H3227 H 0.65487 0.47173 0.85347 0.0
H3228 H 0.66464 0.45516 0.82811 0.0
H3229 H 0.62142 0.47366 0.79853 0.0
H3230 H 0.61128 0.49018 0.8238 0.0
H3231 H 0.64854 0.57321 0.86368 0.0
H3232 H 0.64613 0.54207 0.85819 0.0
H3233 H 0.59317 0.54265 0.87539 0.0
H3234 H 0.59576 0.57374 0.88123 0.0
H3235 H 0.62745 0.51629 0.84195 0.0
H3236 H 0.58776 0.51031 0.90453 0.0
H3237 H 0.58136 0.52751 0.93061 0.0
H3238 H 0.63031 0.55386 0.92612 0.0
H3239 H 0.63711 0.53662 0.90021 0.0
C3240 C 0.618 0.43419 0.86883 0.0
C3241 C 0.62727 0.42895 0.88363 0.0
C3242 C 0.61676 0.45192 0.86457 0.0
C3243 C 0.62497 0.46469 0.8749 0.0
C3244 C 0.63489 0.45923 0.88912 0.0
C3245 C 0.63596 0.44171 0.89344 0.0
C3246 C 0.6227 0.48376 0.87183 0.0
C3247 C 0.61769 0.49416 0.88585 0.0
C3248 C 0.62614 0.49193 0.85575 0.0
C3249 C 0.63221 0.48202 0.84058 0.0
C3250 C 0.64737 0.47214 0.8416 0.0
C3251 C 0.65299 0.46279 0.82724 0.0
C3252 C 0.64362 0.46332 0.81174 0.0
C3253 C 0.62864 0.47324 0.81055 0.0
C3254 C 0.62296 0.48261 0.82489 0.0
C3255 C 0.63608 0.56689 0.86531 0.0
C3256 C 0.62222 0.57604 0.87254 0.0
C3257 C 0.63475 0.54898 0.86233 0.0
C3258 C 0.61958 0.53982 0.86668 0.0
C3259 C 0.6051 0.54931 0.87208 0.0
C3260 C 0.60647 0.5672 0.87516 0.0
C3261 C 0.6199 0.52046 0.86838 0.0
C3262 C 0.62457 0.5101 0.85421 0.0
C3263 C 0.61656 0.51226 0.88445 0.0
C3264 C 0.61283 0.52233 0.90032 0.0
C3265 C 0.59718 0.51972 0.90917 0.0
C3266 C 0.59349 0.52948 0.92392 0.0
C3267 C 0.60539 0.54182 0.92998 0.0
C3268 C 0.62108 0.54434 0.92138 0.0
C3269 C 0.62486 0.53458 0.90668 0.0
H3270 H 0.60248 0.5494 0.94136 0.0
H3271 H 0.648 0.45607 0.80063 0.0
H3272 H 0.9315 0.85891 0.63399 0.0
H3273 H 0.96246 0.85994 0.6403 0.0
H3274 H 0.96244 0.91537 0.63373 0.0
H3275 H 0.93148 0.91409 0.6266 0.0
H3276 H 0.98666 0.90403 0.61553 0.0
H3277 H 0.97245 0.89274 0.67434 0.0
H3278 H 0.95837 0.87811 0.69894 0.0
H3279 H 0.9834 0.83059 0.68569 0.0
H3280 H 0.99747 0.84487 0.66086 0.0
H3281 H 0.07747 0.90994 0.6335 0.0
H3282 H 0.04636 0.9118 0.63991 0.0
H3283 H 0.04024 0.85742 0.62884 0.0
H3284 H 0.07117 0.8557 0.62191 0.0
H3285 H 0.01988 0.8703 0.65876 0.0
H3286 H 0.03151 0.88178 0.59843 0.0
H3287 H 0.04638 0.89694 0.57466 0.0
H3288 H 0.02613 0.9454 0.59219 0.0
H3289 H 0.01145 0.93053 0.61636 0.0
C3290 C 0.9379 0.87143 0.63485 0.0
C3291 C 0.92883 0.88649 0.63041 0.0
C3292 C 0.95577 0.87202 0.63832 0.0
C3293 C 0.96511 0.88777 0.63764 0.0
C3294 C 0.95575 0.90301 0.63437 0.0
C3295 C 0.9379 0.90236 0.63067 0.0
C3296 C 0.98466 0.88803 0.63833 0.0
C3297 C 0.9938 0.89696 0.62531 0.0
C3298 C 0.99435 0.87852 0.65073 0.0
C3299 C 0.98591 0.86986 0.66564 0.0
C3300 C 0.97486 0.87914 0.67659 0.0
C3301 C 0.96689 0.87091 0.69059 0.0
C3302 C 0.96996 0.85342 0.69386 0.0
C3303 C 0.98103 0.84413 0.68314 0.0
C3304 C 0.98902 0.85229 0.66911 0.0
C3305 C 0.06958 0.89828 0.63302 0.0
C3306 C 0.07682 0.88259 0.62757 0.0
C3307 C 0.05176 0.89937 0.63655 0.0
C3308 C 0.04086 0.88474 0.63488 0.0
C3309 C 0.04832 0.86885 0.63038 0.0
C3310 C 0.06603 0.86786 0.62649 0.0
C3311 C 0.02156 0.88629 0.63608 0.0
C3312 C 0.01257 0.87761 0.64929 0.0
C3313 C 0.01198 0.89614 0.62398 0.0
C3314 C 0.02057 0.90507 0.60933 0.0
C3315 C 0.03036 0.89569 0.59732 0.0
C3316 C 0.03874 0.90423 0.58375 0.0
C3317 C 0.03723 0.92214 0.58192 0.0
C3318 C 0.02731 0.93153 0.59364 0.0
C3319 C 0.01897 0.92305 0.60729 0.0
H3320 H 0.04372 0.92872 0.57139 0.0
H3321 H 0.96378 0.84708 0.70471 0.0
H3322 H 0.59325 0.4311 0.12631 0.0
H3323 H 0.58914 0.46265 0.12929 0.0
H3324 H 0.64384 0.46937 0.13864 0.0
H3325 H 0.64796 0.43828 0.13532 0.0
H3326 H 0.62386 0.49017 0.16037 0.0
H3327 H 0.6281 0.47557 0.0993 0.0
H3328 H 0.61856 0.46041 0.07278 0.0
H3329 H 0.56868 0.48413 0.0764 0.0
H3330 H 0.57787 0.49923 0.10312 0.0
H3331 H 0.65343 0.57241 0.13432 0.0
H3332 H 0.6459 0.54251 0.14115 0.0
H3333 H 0.59413 0.55063 0.12188 0.0
H3334 H 0.60192 0.58078 0.11472 0.0
H3335 H 0.60613 0.5225 0.10788 0.0
H3336 H 0.60306 0.54098 0.16607 0.0
H3337 H 0.61183 0.55589 0.19296 0.0
H3338 H 0.65766 0.52504 0.19588 0.0
H3339 H 0.64931 0.5101 0.16886 0.0
C3340 C 0.60428 0.43931 0.1294 0.0
C3341 C 0.62092 0.43217 0.13068 0.0
C3342 C 0.60197 0.45736 0.13097 0.0
C3343 C 0.61621 0.46853 0.13412 0.0
C3344 C 0.63262 0.46118 0.13626 0.0
C3345 C 0.63496 0.44334 0.13435 0.0
C3346 C 0.6146 0.4879 0.13418 0.0
C3347 C 0.61998 0.49725 0.1489 0.0
C3348 C 0.60904 0.49727 0.11944 0.0
C3349 C 0.60359 0.48834 0.10332 0.0
C3350 C 0.61505 0.47743 0.09452 0.0
C3351 C 0.60972 0.46887 0.07944 0.0
C3352 C 0.593 0.47126 0.07295 0.0
C3353 C 0.58161 0.48226 0.08148 0.0
C3354 C 0.58687 0.49082 0.09659 0.0
C3355 C 0.6402 0.56807 0.13227 0.0
C3356 C 0.62816 0.57917 0.12441 0.0
C3357 C 0.63588 0.55084 0.1361 0.0
C3358 C 0.61934 0.54407 0.1322 0.0
C3359 C 0.60697 0.55541 0.12512 0.0
C3360 C 0.61131 0.57278 0.12131 0.0
C3361 C 0.61582 0.52492 0.134 0.0
C3362 C 0.6096 0.51555 0.11957 0.0
C3363 C 0.62046 0.51553 0.14909 0.0
C3364 C 0.6256 0.52449 0.16536 0.0
C3365 C 0.61508 0.53746 0.17237 0.0
C3366 C 0.61997 0.5459 0.18765 0.0
C3367 C 0.63531 0.54144 0.19611 0.0
C3368 C 0.64578 0.52849 0.18931 0.0
C3369 C 0.64096 0.52001 0.17403 0.0
H3370 H 0.63907 0.54799 0.20795 0.0
H3371 H 0.58889 0.46461 0.06127 0.0
H3372 H 0.94047 0.10886 0.59825 0.0
H3373 H 0.9709 0.10635 0.6062 0.0
H3374 H 0.95955 0.12401 0.65775 0.0
H3375 H 0.92855 0.12612 0.64992 0.0
H3376 H 0.99007 0.14136 0.6374 0.0
H3377 H 0.96911 0.08643 0.65792 0.0
H3378 H 0.95251 0.0591 0.65576 0.0
H3379 H 0.98241 0.04415 0.61163 0.0
H3380 H 0.99902 0.07152 0.61337 0.0
H3381 H 0.08065 0.13108 0.648 0.0
H3382 H 0.05004 0.12858 0.65632 0.0
H3383 H 0.04103 0.09314 0.614 0.0
H3384 H 0.07146 0.09509 0.60629 0.0
H3385 H 0.01975 0.08474 0.63713 0.0
H3386 H 0.0358 0.13998 0.61188 0.0
H3387 H 0.05192 0.16767 0.6106 0.0
H3388 H 0.03097 0.18249 0.65971 0.0
H3389 H 0.01489 0.15477 0.66137 0.0
C3390 C 0.94433 0.11215 0.61135 0.0
C3391 C 0.93198 0.11771 0.62344 0.0
C3392 C 0.96181 0.11067 0.61587 0.0
C3393 C 0.96762 0.11499 0.63256 0.0
C3394 C 0.9554 0.1206 0.64477 0.0
C3395 C 0.93768 0.12172 0.64033 0.0
C3396 C 0.98654 0.11374 0.6367 0.0
C3397 C 0.99654 0.12898 0.63784 0.0
C3398 C 0.99511 0.09763 0.63673 0.0
C3399 C 0.98524 0.08109 0.63572 0.0
C3400 C 0.97206 0.07738 0.64767 0.0
C3401 C 0.96266 0.06187 0.64654 0.0
C3402 C 0.96638 0.04991 0.63355 0.0
C3403 C 0.97954 0.05343 0.62169 0.0
C3404 C 0.98897 0.06893 0.62276 0.0
C3405 C 0.07231 0.12206 0.64109 0.0
C3406 C 0.07857 0.11314 0.62658 0.0
C3407 C 0.05465 0.12092 0.64559 0.0
C3408 C 0.04287 0.11109 0.63547 0.0
C3409 C 0.04959 0.10092 0.62205 0.0
C3410 C 0.06713 0.10194 0.61769 0.0
C3411 C 0.0235 0.11241 0.63748 0.0
C3412 C 0.01336 0.09717 0.63726 0.0
C3413 C 0.01482 0.12855 0.6379 0.0
C3414 C 0.02434 0.14524 0.63685 0.0
C3415 C 0.03471 0.14912 0.62244 0.0
C3416 C 0.04384 0.16481 0.62165 0.0
C3417 C 0.04252 0.17681 0.6351 0.0
C3418 C 0.03201 0.17316 0.64933 0.0
C3419 C 0.0229 0.15747 0.65021 0.0
H3420 H 0.0496 0.18894 0.63446 0.0
H3421 H 0.95909 0.03791 0.63269 0.0
H3422 H 0.35457 0.56516 0.13348 0.0
H3423 H 0.36059 0.53442 0.13649 0.0
H3424 H 0.4146 0.54432 0.12642 0.0
H3425 H 0.40858 0.5756 0.12369 0.0
H3426 H 0.39909 0.51644 0.10598 0.0
H3427 H 0.40495 0.53221 0.16535 0.0
H3428 H 0.39676 0.54644 0.19261 0.0
H3429 H 0.34959 0.51665 0.19395 0.0
H3430 H 0.35737 0.50241 0.16655 0.0
H3431 H 0.40517 0.4249 0.11284 0.0
H3432 H 0.41261 0.45518 0.11969 0.0
H3433 H 0.36139 0.46249 0.14019 0.0
H3434 H 0.3542 0.43239 0.13374 0.0
H3435 H 0.38242 0.48216 0.15763 0.0
H3436 H 0.37298 0.47136 0.09658 0.0
H3437 H 0.379 0.4576 0.06847 0.0
H3438 H 0.43069 0.47852 0.06948 0.0
H3439 H 0.42503 0.49221 0.09773 0.0
C3440 C 0.36782 0.5609 0.13217 0.0
C3441 C 0.38111 0.57291 0.12844 0.0
C3442 C 0.37125 0.54325 0.13391 0.0
C3443 C 0.38806 0.53691 0.13175 0.0
C3444 C 0.40151 0.54885 0.12821 0.0
C3445 C 0.39811 0.56674 0.12679 0.0
C3446 C 0.39099 0.51774 0.13252 0.0
C3447 C 0.39592 0.50897 0.11743 0.0
C3448 C 0.38642 0.50784 0.14728 0.0
C3449 C 0.38171 0.5163 0.16383 0.0
C3450 C 0.39277 0.52877 0.17139 0.0
C3451 C 0.38821 0.53683 0.18688 0.0
C3452 C 0.37266 0.53247 0.195 0.0
C3453 C 0.36164 0.52002 0.18765 0.0
C3454 C 0.36613 0.51192 0.17215 0.0
C3455 C 0.39583 0.43274 0.1196 0.0
C3456 C 0.37915 0.42613 0.12295 0.0
C3457 C 0.39996 0.45021 0.12321 0.0
C3458 C 0.38743 0.46144 0.13009 0.0
C3459 C 0.37134 0.45432 0.13484 0.0
C3460 C 0.36725 0.43698 0.13126 0.0
C3461 C 0.39016 0.48077 0.13095 0.0
C3462 C 0.38611 0.4896 0.14631 0.0
C3463 C 0.39529 0.49072 0.11636 0.0
C3464 C 0.39867 0.4826 0.09935 0.0
C3465 C 0.38567 0.47292 0.09086 0.0
C3466 C 0.38901 0.46515 0.0749 0.0
C3467 C 0.40524 0.46714 0.06722 0.0
C3468 C 0.41814 0.47695 0.07546 0.0
C3469 C 0.41488 0.48471 0.09145 0.0
H3470 H 0.4078 0.46111 0.05487 0.0
H3471 H 0.36915 0.53873 0.20699 0.0
H3472 H 0.35322 0.07312 0.13256 0.0
H3473 H 0.34683 0.04288 0.1249 0.0
H3474 H 0.39718 0.03894 0.1014 0.0
H3475 H 0.40285 0.06933 0.10789 0.0
H3476 H 0.37916 0.01768 0.08567 0.0
H3477 H 0.38611 0.02746 0.14675 0.0
H3478 H 0.37956 0.0402 0.17521 0.0
H3479 H 0.3282 0.01856 0.17293 0.0
H3480 H 0.33439 0.00587 0.14434 0.0
H3481 H 0.40209 0.93159 0.11353 0.0
H3482 H 0.39887 0.96286 0.10933 0.0
H3483 H 0.3434 0.95689 0.11095 0.0
H3484 H 0.34662 0.92536 0.11456 0.0
H3485 H 0.35986 0.98239 0.13568 0.0
H3486 H 0.35756 0.96851 0.07492 0.0
H3487 H 0.36809 0.95473 0.04824 0.0
H3488 H 0.41594 0.98319 0.05246 0.0
H3489 H 0.40578 0.99698 0.07929 0.0
C3490 C 0.36247 0.06603 0.1249 0.0
C3491 C 0.37835 0.07379 0.12043 0.0
C3492 C 0.35903 0.04853 0.1209 0.0
C3493 C 0.37175 0.03814 0.11308 0.0
C3494 C 0.38707 0.04636 0.10747 0.0
C3495 C 0.39027 0.06391 0.11105 0.0
C3496 C 0.36995 0.01865 0.11195 0.0
C3497 C 0.37498 0.01008 0.0967 0.0
C3498 C 0.36439 0.00833 0.12616 0.0
C3499 C 0.36064 0.01591 0.14333 0.0
C3500 C 0.37339 0.02552 0.15228 0.0
C3501 C 0.36974 0.03272 0.16843 0.0
C3502 C 0.35345 0.03024 0.17585 0.0
C3503 C 0.34079 0.02051 0.16715 0.0
C3504 C 0.34436 0.01331 0.15097 0.0
C3505 C 0.38919 0.93687 0.11237 0.0
C3506 C 0.3746 0.92596 0.11398 0.0
C3507 C 0.38736 0.95478 0.11009 0.0
C3508 C 0.37089 0.96233 0.10982 0.0
C3509 C 0.35624 0.95141 0.11103 0.0
C3510 C 0.35808 0.93337 0.11289 0.0
C3511 C 0.36922 0.98166 0.10956 0.0
C3512 C 0.3637 0.99013 0.1246 0.0
C3513 C 0.37488 0.99183 0.0954 0.0
C3514 C 0.38094 0.98369 0.07918 0.0
C3515 C 0.37038 0.97173 0.07023 0.0
C3516 C 0.37627 0.96394 0.05506 0.0
C3517 C 0.39269 0.96806 0.04868 0.0
C3518 C 0.40322 0.98001 0.05742 0.0
C3519 C 0.39739 0.98784 0.07259 0.0
H3520 H 0.39723 0.962 0.03694 0.0
H3521 H 0.35065 0.03583 0.18836 0.0
H3522 H 0.43825 0.91044 0.6337 0.0
H3523 H 0.46865 0.90351 0.63077 0.0
H3524 H 0.45505 0.85269 0.61192 0.0
H3525 H 0.42399 0.85966 0.61473 0.0
H3526 H 0.48606 0.85632 0.63831 0.0
H3527 H 0.46617 0.87649 0.58253 0.0
H3528 H 0.44997 0.8963 0.56354 0.0
H3529 H 0.48054 0.93922 0.58204 0.0
H3530 H 0.49676 0.91971 0.60132 0.0
H3531 H 0.57926 0.86035 0.62396 0.0
H3532 H 0.54848 0.85246 0.61935 0.0
H3533 H 0.53576 0.90667 0.61666 0.0
H3534 H 0.56576 0.91431 0.61985 0.0
H3535 H 0.51686 0.8929 0.59548 0.0
H3536 H 0.53125 0.87602 0.65538 0.0
H3537 H 0.54672 0.85837 0.67702 0.0
H3538 H 0.52682 0.81192 0.65339 0.0
H3539 H 0.51135 0.82931 0.63154 0.0
C3540 C 0.44154 0.89767 0.62904 0.0
C3541 C 0.42849 0.88567 0.62432 0.0
C3542 C 0.45906 0.89372 0.62742 0.0
C3543 C 0.46426 0.87762 0.62104 0.0
C3544 C 0.45139 0.86521 0.61693 0.0
C3545 C 0.43363 0.86921 0.6185 0.0
C3546 C 0.48314 0.87477 0.6177 0.0
C3547 C 0.49281 0.86402 0.6287 0.0
C3548 C 0.49207 0.88494 0.60534 0.0
C3549 C 0.48265 0.89663 0.59339 0.0
C3550 C 0.46939 0.89016 0.58259 0.0
C3551 C 0.46021 0.90134 0.57178 0.0
C3552 C 0.46422 0.91901 0.57159 0.0
C3553 C 0.47746 0.92553 0.58218 0.0
C3554 C 0.48668 0.91441 0.59303 0.0
C3555 C 0.56989 0.87049 0.62196 0.0
C3556 C 0.57516 0.88799 0.6225 0.0
C3557 C 0.55218 0.866 0.61958 0.0
C3558 C 0.5394 0.87894 0.61796 0.0
C3559 C 0.54499 0.89626 0.6178 0.0
C3560 C 0.56241 0.90066 0.61981 0.0
C3561 C 0.52016 0.87526 0.61684 0.0
C3562 C 0.51028 0.88482 0.60489 0.0
C3563 C 0.51114 0.8643 0.62859 0.0
C3564 C 0.52034 0.85393 0.64175 0.0
C3565 C 0.53025 0.86204 0.65478 0.0
C3566 C 0.539 0.85209 0.66708 0.0
C3567 C 0.53779 0.83403 0.66655 0.0
C3568 C 0.52778 0.8259 0.65376 0.0
C3569 C 0.51901 0.83579 0.64143 0.0
H3570 H 0.54459 0.82635 0.67607 0.0
H3571 H 0.45707 0.92764 0.56323 0.0
H3572 H 0.65378 0.07341 0.14515 0.0
H3573 H 0.65706 0.04244 0.13992 0.0
H3574 H 0.63329 0.04812 0.08968 0.0
H3575 H 0.63025 0.07947 0.09489 0.0
H3576 H 0.61796 0.02188 0.10914 0.0
H3577 H 0.6752 0.03692 0.09212 0.0
H3578 H 0.70381 0.05115 0.09437 0.0
H3579 H 0.71424 0.02353 0.14141 0.0
H3580 H 0.68558 0.00931 0.1396 0.0
H3581 H 0.62281 0.93055 0.10291 0.0
H3582 H 0.62905 0.96057 0.09421 0.0
H3583 H 0.65726 0.96875 0.14185 0.0
H3584 H 0.65124 0.93889 0.15034 0.0
H3585 H 0.67157 0.98801 0.1175 0.0
H3586 H 0.61322 0.97759 0.13754 0.0
H3587 H 0.58439 0.96362 0.13678 0.0
H3588 H 0.5759 0.98305 0.08541 0.0
H3589 H 0.60482 0.99693 0.08579 0.0
C3590 C 0.64982 0.06818 0.13272 0.0
C3591 C 0.64214 0.07898 0.12028 0.0
C3592 C 0.65163 0.0504 0.12976 0.0
C3593 C 0.64552 0.04278 0.11435 0.0
C3594 C 0.63822 0.05362 0.10164 0.0
C3595 C 0.63668 0.07159 0.10451 0.0
C3596 C 0.64562 0.02341 0.1124 0.0
C3597 C 0.62977 0.0145 0.1105 0.0
C3598 C 0.6609 0.01361 0.11461 0.0
C3599 C 0.67817 0.02212 0.11577 0.0
C3600 C 0.68353 0.03397 0.10302 0.0
C3601 C 0.69977 0.04203 0.1042 0.0
C3602 C 0.71082 0.03827 0.11804 0.0
C3603 C 0.70567 0.02643 0.1307 0.0
C3604 C 0.68943 0.01835 0.12959 0.0
C3605 C 0.6311 0.93849 0.11108 0.0
C3606 C 0.63674 0.93221 0.12722 0.0
C3607 C 0.63439 0.95581 0.10627 0.0
C3608 C 0.6433 0.96722 0.11754 0.0
C3609 C 0.65031 0.96041 0.13288 0.0
C3610 C 0.64699 0.9432 0.13768 0.0
C3611 C 0.64388 0.98648 0.11452 0.0
C3612 C 0.65982 0.99538 0.11567 0.0
C3613 C 0.62867 0.9963 0.11179 0.0
C3614 C 0.61125 0.9881 0.1116 0.0
C3615 C 0.60525 0.97878 0.12604 0.0
C3616 C 0.58889 0.97089 0.12568 0.0
C3617 C 0.57834 0.9724 0.11103 0.0
C3618 C 0.58411 0.98185 0.09673 0.0
C3619 C 0.60048 0.98973 0.097 0.0
H3620 H 0.56568 0.96628 0.11078 0.0
H3621 H 0.72339 0.04452 0.11893 0.0
H3622 H 0.583 0.14793 0.60992 0.0
H3623 H 0.55194 0.15482 0.60787 0.0
H3624 H 0.53954 0.10788 0.63555 0.0
H3625 H 0.57006 0.10083 0.63709 0.0
H3626 H 0.51946 0.10907 0.60977 0.0
H3627 H 0.53633 0.15061 0.65327 0.0
H3628 H 0.55302 0.1752 0.66533 0.0
H3629 H 0.53422 0.20809 0.62474 0.0
H3630 H 0.51757 0.18362 0.61232 0.0
H3631 H 0.43462 0.14052 0.64545 0.0
H3632 H 0.46575 0.1465 0.64373 0.0
H3633 H 0.46487 0.13292 0.58964 0.0
H3634 H 0.43383 0.1265 0.59153 0.0
H3635 H 0.49156 0.16402 0.62671 0.0
H3636 H 0.49675 0.10446 0.58218 0.0
H3637 H 0.47921 0.07887 0.57384 0.0
H3638 H 0.45368 0.07988 0.62304 0.0
H3639 H 0.47128 0.10524 0.63177 0.0
C3640 C 0.57361 0.13925 0.61575 0.0
C3641 C 0.57906 0.12377 0.62357 0.0
C3642 C 0.55581 0.14318 0.61458 0.0
C3643 C 0.54316 0.13184 0.62147 0.0
C3644 C 0.54881 0.11679 0.62987 0.0
C3645 C 0.5664 0.11279 0.63081 0.0
C3646 C 0.52401 0.13488 0.6195 0.0
C3647 C 0.5135 0.12119 0.61337 0.0
C3648 C 0.51588 0.15056 0.62431 0.0
C3649 C 0.52587 0.16525 0.63176 0.0
C3650 C 0.53587 0.16306 0.64684 0.0
C3651 C 0.5453 0.17698 0.65376 0.0
C3652 C 0.54473 0.19319 0.64578 0.0
C3653 C 0.53468 0.19552 0.63089 0.0
C3654 C 0.52523 0.18164 0.62391 0.0
C3655 C 0.44087 0.13982 0.63295 0.0
C3656 C 0.43165 0.13337 0.61854 0.0
C3657 C 0.45877 0.14307 0.63201 0.0
C3658 C 0.46786 0.13982 0.61664 0.0
C3659 C 0.45828 0.13533 0.60172 0.0
C3660 C 0.44042 0.13194 0.60272 0.0
C3661 C 0.48724 0.13822 0.61699 0.0
C3662 C 0.49769 0.15207 0.62284 0.0
C3663 C 0.49537 0.12251 0.61241 0.0
C3664 C 0.48519 0.10686 0.60753 0.0
C3665 C 0.48746 0.09914 0.59125 0.0
C3666 C 0.47751 0.08469 0.58645 0.0
C3667 C 0.46529 0.0778 0.59788 0.0
C3668 C 0.46311 0.08525 0.61418 0.0
C3669 C 0.47308 0.09965 0.61906 0.0
H3670 H 0.45754 0.06666 0.59412 0.0
H3671 H 0.55204 0.20395 0.65115 0.0
H3672 H 0.3712 0.072 0.86171 0.0
H3673 H 0.3653 0.04079 0.86319 0.0
H3674 H 0.38872 0.03916 0.91392 0.0
H3675 H 0.39488 0.07022 0.91221 0.0
H3676 H 0.40386 0.01694 0.89384 0.0
H3677 H 0.34437 0.02928 0.90585 0.0
H3678 H 0.31593 0.04264 0.9009 0.0
H3679 H 0.31174 0.01722 0.85163 0.0
H3680 H 0.34027 0.00387 0.85618 0.0
H3681 H 0.39622 0.92826 0.90962 0.0
H3682 H 0.39027 0.95925 0.91176 0.0
H3683 H 0.369 0.95858 0.86007 0.0
H3684 H 0.37466 0.92731 0.85813 0.0
H3685 H 0.35153 0.98177 0.88021 0.0
H3686 H 0.41078 0.97071 0.86713 0.0
H3687 H 0.43963 0.95783 0.87082 0.0
H3688 H 0.44465 0.98161 0.92083 0.0
H3689 H 0.41569 0.99444 0.91755 0.0
C3690 C 0.37417 0.06516 0.87357 0.0
C3691 C 0.38306 0.07374 0.88706 0.0
C3692 C 0.37098 0.04718 0.87435 0.0
C3693 C 0.3766 0.03738 0.88866 0.0
C3694 C 0.38426 0.04626 0.90269 0.0
C3695 C 0.38751 0.06415 0.90186 0.0
C3696 C 0.37656 0.01788 0.88822 0.0
C3697 C 0.39228 0.00932 0.89121 0.0
C3698 C 0.3617 0.00771 0.88405 0.0
C3699 C 0.34454 0.01571 0.88129 0.0
C3700 C 0.33745 0.02665 0.89389 0.0
C3701 C 0.3213 0.0342 0.89117 0.0
C3702 C 0.31205 0.03082 0.87594 0.0
C3703 C 0.31892 0.01985 0.86341 0.0
C3704 C 0.33508 0.01227 0.86606 0.0
C3705 C 0.3897 0.9346 0.89896 0.0
C3706 C 0.38556 0.92528 0.88387 0.0
C3707 C 0.38648 0.9524 0.90009 0.0
C3708 C 0.37943 0.96149 0.88598 0.0
C3709 C 0.37442 0.95198 0.87118 0.0
C3710 C 0.37755 0.93406 0.8701 0.0
C3711 C 0.37874 0.98096 0.88624 0.0
C3712 C 0.36301 0.98947 0.88304 0.0
C3713 C 0.39362 0.99119 0.89008 0.0
C3714 C 0.41099 0.9834 0.89216 0.0
C3715 C 0.41797 0.97307 0.87898 0.0
C3716 C 0.43435 0.9658 0.88099 0.0
C3717 C 0.44395 0.96889 0.89606 0.0
C3718 C 0.43718 0.97923 0.90917 0.0
C3719 C 0.42079 0.98651 0.90724 0.0
H3720 H 0.45668 0.96334 0.89754 0.0
H3721 H 0.29954 0.03668 0.87386 0.0
H3722 H 0.57071 0.85204 0.3603 0.0
H3723 H 0.54012 0.84601 0.36581 0.0
H3724 H 0.54232 0.87869 0.41096 0.0
H3725 H 0.57315 0.88449 0.40558 0.0
H3726 H 0.51706 0.85114 0.41402 0.0
H3727 H 0.53238 0.89672 0.37437 0.0
H3728 H 0.54777 0.90905 0.34929 0.0
H3729 H 0.52243 0.87238 0.31569 0.0
H3730 H 0.50711 0.85963 0.34063 0.0
H3731 H 0.42672 0.877 0.40812 0.0
H3732 H 0.45815 0.8739 0.41233 0.0
H3733 H 0.46193 0.85048 0.36181 0.0
H3734 H 0.4309 0.8543 0.35744 0.0
H3735 H 0.48469 0.87396 0.36349 0.0
H3736 H 0.46884 0.82834 0.40297 0.0
H3737 H 0.45406 0.81542 0.42812 0.0
H3738 H 0.47995 0.85149 0.46193 0.0
H3739 H 0.49473 0.86478 0.43695 0.0
C3740 C 0.56496 0.8571 0.37199 0.0
C3741 C 0.57451 0.86848 0.38267 0.0
C3742 C 0.54734 0.85386 0.37501 0.0
C3743 C 0.5387 0.86217 0.38861 0.0
C3744 C 0.5486 0.8721 0.40038 0.0
C3745 C 0.56635 0.87525 0.39741 0.0
C3746 C 0.51925 0.86265 0.38878 0.0
C3747 C 0.50995 0.85625 0.40304 0.0
C3748 C 0.50984 0.86922 0.37446 0.0
C3749 C 0.51871 0.87713 0.35939 0.0
C3750 C 0.53016 0.89123 0.36164 0.0
C3751 C 0.53887 0.89829 0.34746 0.0
C3752 C 0.5361 0.89148 0.33091 0.0
C3753 C 0.52457 0.87763 0.32852 0.0
C3754 C 0.51587 0.87049 0.34267 0.0
C3755 C 0.43423 0.87068 0.39821 0.0
C3756 C 0.42629 0.86563 0.38256 0.0
C3757 C 0.45227 0.86895 0.40056 0.0
C3758 C 0.46269 0.86191 0.3874 0.0
C3759 C 0.45443 0.85606 0.37218 0.0
C3760 C 0.43659 0.85807 0.36974 0.0
C3761 C 0.4822 0.86191 0.38853 0.0
C3762 C 0.49163 0.86867 0.37449 0.0
C3763 C 0.49161 0.85563 0.40305 0.0
C3764 C 0.48274 0.84767 0.41807 0.0
C3765 C 0.47127 0.83361 0.41575 0.0
C3766 C 0.46292 0.8262 0.42998 0.0
C3767 C 0.46603 0.83266 0.44661 0.0
C3768 C 0.47754 0.84652 0.44904 0.0
C3769 C 0.48592 0.85398 0.43486 0.0
H3770 H 0.45955 0.8269 0.4576 0.0
H3771 H 0.54287 0.89696 0.31994 0.0
H3772 H 0.6456 0.08152 0.89252 0.0
H3773 H 0.65269 0.05053 0.89496 0.0
H3774 H 0.60535 0.03733 0.868 0.0
H3775 H 0.5982 0.06775 0.86588 0.0
H3776 H 0.6075 0.01788 0.89481 0.0
H3777 H 0.64689 0.03455 0.84937 0.0
H3778 H 0.67092 0.05126 0.83646 0.0
H3779 H 0.70556 0.03257 0.8757 0.0
H3780 H 0.68166 0.01591 0.88897 0.0
H3781 H 0.63743 0.93363 0.85569 0.0
H3782 H 0.64286 0.96481 0.8581 0.0
H3783 H 0.63185 0.96238 0.91267 0.0
H3784 H 0.62606 0.93121 0.91011 0.0
H3785 H 0.6613 0.98983 0.8749 0.0
H3786 H 0.60473 0.99509 0.92267 0.0
H3787 H 0.57943 0.97793 0.93227 0.0
H3788 H 0.57685 0.95273 0.88278 0.0
H3789 H 0.60193 0.96995 0.87281 0.0
C3790 C 0.63685 0.07198 0.88696 0.0
C3791 C 0.62126 0.0772 0.87911 0.0
C3792 C 0.6409 0.05423 0.88836 0.0
C3793 C 0.62951 0.04139 0.88176 0.0
C3794 C 0.6143 0.04678 0.87344 0.0
C3795 C 0.61024 0.06431 0.87217 0.0
C3796 C 0.63273 0.02232 0.88381 0.0
C3797 C 0.61939 0.01186 0.8906 0.0
C3798 C 0.64811 0.01417 0.87824 0.0
C3799 C 0.66246 0.02416 0.87027 0.0
C3800 C 0.6596 0.03412 0.85532 0.0
C3801 C 0.6732 0.04356 0.84792 0.0
C3802 C 0.68975 0.04302 0.85528 0.0
C3803 C 0.69273 0.033 0.87003 0.0
C3804 C 0.67917 0.02355 0.87749 0.0
C3805 C 0.63709 0.93959 0.86837 0.0
C3806 C 0.6317 0.92986 0.88279 0.0
C3807 C 0.64005 0.95751 0.86973 0.0
C3808 C 0.63747 0.96615 0.88551 0.0
C3809 C 0.63376 0.95614 0.90029 0.0
C3810 C 0.63071 0.93822 0.8989 0.0
C3811 C 0.63604 0.98554 0.88583 0.0
C3812 C 0.64961 0.99598 0.87944 0.0
C3813 C 0.62069 0.99373 0.89139 0.0
C3814 C 0.60532 0.98365 0.89709 0.0
C3815 C 0.5987 0.98594 0.91383 0.0
C3816 C 0.58441 0.9762 0.91933 0.0
C3817 C 0.57658 0.9642 0.90817 0.0
C3818 C 0.58295 0.96199 0.89143 0.0
C3819 C 0.5972 0.97174 0.88585 0.0
H3820 H 0.56556 0.95664 0.91247 0.0
H3821 H 0.70026 0.05033 0.84954 0.0
H3822 H 0.43528 0.10073 0.39441 0.0
H3823 H 0.46537 0.10728 0.40103 0.0
H3824 H 0.45973 0.15797 0.37834 0.0
H3825 H 0.42961 0.15067 0.37051 0.0
H3826 H 0.48722 0.1468 0.36698 0.0
H3827 H 0.46864 0.14865 0.42519 0.0
H3828 H 0.45346 0.13948 0.45168 0.0
H3829 H 0.4832 0.09286 0.45327 0.0
H3830 H 0.49841 0.10162 0.42666 0.0
H3831 H 0.57787 0.15923 0.38827 0.0
H3832 H 0.54636 0.16277 0.39178 0.0
H3833 H 0.54 0.10738 0.39473 0.0
H3834 H 0.57119 0.10385 0.39074 0.0
H3835 H 0.51891 0.1268 0.4191 0.0
H3836 H 0.534 0.12521 0.35773 0.0
H3837 H 0.54959 0.13625 0.33218 0.0
H3838 H 0.52629 0.18602 0.33881 0.0
H3839 H 0.51076 0.17532 0.36457 0.0
C3840 C 0.44023 0.11357 0.39151 0.0
C3841 C 0.42985 0.12538 0.38245 0.0
C3842 C 0.45759 0.11737 0.39531 0.0
C3843 C 0.46512 0.13333 0.39058 0.0
C3844 C 0.45443 0.14557 0.38227 0.0
C3845 C 0.43705 0.14156 0.37808 0.0
C3846 C 0.48439 0.1363 0.39271 0.0
C3847 C 0.49397 0.14282 0.37863 0.0
C3848 C 0.49364 0.13107 0.40776 0.0
C3849 C 0.48461 0.12577 0.42386 0.0
C3850 C 0.47189 0.1364 0.43113 0.0
C3851 C 0.46328 0.13128 0.44618 0.0
C3852 C 0.46735 0.11559 0.45414 0.0
C3853 C 0.48007 0.10501 0.44709 0.0
C3854 C 0.48871 0.11006 0.43204 0.0
C3855 C 0.56977 0.14788 0.3902 0.0
C3856 C 0.57701 0.13127 0.3895 0.0
C3857 C 0.55175 0.14989 0.39204 0.0
C3858 C 0.54072 0.13533 0.39348 0.0
C3859 C 0.54816 0.11882 0.39374 0.0
C3860 C 0.56601 0.11681 0.39152 0.0
C3861 C 0.5214 0.13693 0.39336 0.0
C3862 C 0.51192 0.13116 0.40773 0.0
C3863 C 0.51223 0.14321 0.37878 0.0
C3864 C 0.52139 0.14953 0.36318 0.0
C3865 C 0.53232 0.13854 0.35382 0.0
C3866 C 0.54112 0.14473 0.33929 0.0
C3867 C 0.53898 0.16184 0.33391 0.0
C3868 C 0.52797 0.17278 0.34301 0.0
C3869 C 0.51916 0.16666 0.35757 0.0
H3870 H 0.54582 0.16661 0.32266 0.0
H3871 H 0.46066 0.11165 0.46578 0.0
H3872 H 0.14709 0.36516 0.93751 0.0
H3873 H 0.14141 0.36158 0.96832 0.0
H3874 H 0.08828 0.37609 0.96011 0.0
H3875 H 0.09393 0.37938 0.92878 0.0
H3876 H 0.10594 0.39456 0.98806 0.0
H3877 H 0.09493 0.33618 0.97099 0.0
H3878 H 0.1006 0.30871 0.95591 0.0
H3879 H 0.14798 0.30301 0.98453 0.0
H3880 H 0.14273 0.33058 0.99961 0.0
H3881 H 0.10077 0.38648 0.07924 0.0
H3882 H 0.09219 0.3804 0.04916 0.0
H3883 H 0.14137 0.35607 0.04044 0.0
H3884 H 0.14965 0.36171 0.07039 0.0
H3885 H 0.11879 0.34087 0.02065 0.0
H3886 H 0.13336 0.40074 0.03286 0.0
H3887 H 0.1297 0.42866 0.04783 0.0
H3888 H 0.07784 0.43216 0.02801 0.0
H3889 H 0.08111 0.40411 0.01313 0.0
C3890 C 0.13407 0.36726 0.94216 0.0
C3891 C 0.12092 0.37238 0.93063 0.0
C3892 C 0.13084 0.36522 0.95984 0.0
C3893 C 0.1144 0.3685 0.96668 0.0
C3894 C 0.10107 0.37342 0.95519 0.0
C3895 C 0.10425 0.37513 0.93726 0.0
C3896 C 0.11179 0.36749 0.98591 0.0
C3897 C 0.10827 0.3827 0.99517 0.0
C3898 C 0.11528 0.35217 0.99533 0.0
C3899 C 0.11847 0.33552 0.98637 0.0
C3900 C 0.10662 0.32914 0.97398 0.0
C3901 C 0.10975 0.31353 0.96545 0.0
C3902 C 0.12465 0.30414 0.96925 0.0
C3903 C 0.13644 0.31031 0.98161 0.0
C3904 C 0.13338 0.32591 0.99017 0.0
C3905 C 0.10933 0.379 0.07116 0.0
C3906 C 0.12582 0.3744 0.07733 0.0
C3907 C 0.10458 0.37584 0.05379 0.0
C3908 C 0.11631 0.36819 0.04218 0.0
C3909 C 0.13205 0.36207 0.0489 0.0
C3910 C 0.13674 0.36517 0.06617 0.0
C3911 C 0.11328 0.36803 0.02289 0.0
C3912 C 0.11594 0.35263 0.01359 0.0
C3913 C 0.10926 0.38325 0.01342 0.0
C3914 C 0.1074 0.40025 0.02207 0.0
C3915 C 0.12114 0.40743 0.03177 0.0
C3916 C 0.11914 0.42327 0.04024 0.0
C3917 C 0.10353 0.43215 0.03892 0.0
C3918 C 0.08991 0.42525 0.02906 0.0
C3919 C 0.09182 0.40938 0.02061 0.0
H3920 H 0.10199 0.4444 0.04552 0.0
H3921 H 0.12705 0.29206 0.96262 0.0
H3922 H 0.14395 0.60571 0.93943 0.0
H3923 H 0.14094 0.61305 0.96988 0.0
H3924 H 0.10588 0.65401 0.95645 0.0
H3925 H 0.10908 0.64675 0.92549 0.0
H3926 H 0.12771 0.66261 0.98533 0.0
H3927 H 0.08896 0.61688 0.96866 0.0
H3928 H 0.08086 0.5892 0.95479 0.0
H3929 H 0.11582 0.5622 0.98839 0.0
H3930 H 0.12434 0.58976 1.00229 0.0
H3931 H 0.09157 0.62256 0.07374 0.0
H3932 H 0.08953 0.62912 0.04282 0.0
H3933 H 0.142 0.64863 0.04379 0.0
H3934 H 0.1438 0.64242 0.07481 0.0
H3935 H 0.10681 0.61276 0.02013 0.0
H3936 H 0.1509 0.67298 0.00777 0.0
H3937 H 0.15735 0.70133 0.02111 0.0
H3938 H 0.10762 0.70084 0.04565 0.0
H3939 H 0.10078 0.67262 0.03227 0.0
C3940 C 0.13581 0.61651 0.94284 0.0
C3941 C 0.12665 0.62555 0.92996 0.0
C3942 C 0.13408 0.62068 0.96034 0.0
C3943 C 0.12291 0.63387 0.96562 0.0
C3944 C 0.11453 0.64373 0.95277 0.0
C3945 C 0.1164 0.63961 0.93505 0.0
C3946 C 0.11912 0.63606 0.98454 0.0
C3947 C 0.12307 0.65176 0.99295 0.0
C3948 C 0.11268 0.62206 0.99456 0.0
C3949 C 0.10736 0.60541 0.98644 0.0
C3950 C 0.09499 0.60505 0.97303 0.0
C3951 C 0.09032 0.58938 0.96517 0.0
C3952 C 0.09784 0.57396 0.97069 0.0
C3953 C 0.11001 0.57416 0.98413 0.0
C3954 C 0.11475 0.5898 0.99201 0.0
C3955 C 0.10228 0.62923 0.06757 0.0
C3956 C 0.11764 0.63248 0.07689 0.0
C3957 C 0.10124 0.63269 0.04976 0.0
C3958 C 0.11562 0.63934 0.04071 0.0
C3959 C 0.13057 0.6438 0.05031 0.0
C3960 C 0.13155 0.64041 0.06818 0.0
C3961 C 0.11581 0.63923 0.02122 0.0
C3962 C 0.11126 0.62378 0.01262 0.0
C3963 C 0.12144 0.65355 0.01111 0.0
C3964 C 0.1254 0.67059 0.01912 0.0
C3965 C 0.14131 0.67895 0.01595 0.0
C3966 C 0.14504 0.695 0.02354 0.0
C3967 C 0.13292 0.70286 0.03426 0.0
C3968 C 0.11703 0.69471 0.03739 0.0
C3969 C 0.11323 0.67867 0.02984 0.0
H3970 H 0.13584 0.71528 0.04012 0.0
H3971 H 0.09421 0.56184 0.96457 0.0
H3972 H 0.90684 0.60579 0.43672 0.0
H3973 H 0.8988 0.60395 0.46706 0.0
H3974 H 0.85223 0.63236 0.45641 0.0
H3975 H 0.86019 0.63399 0.42545 0.0
H3976 H 0.87294 0.64481 0.4862 0.0
H3977 H 0.84669 0.59236 0.46613 0.0
H3978 H 0.84517 0.56483 0.45004 0.0
H3979 H 0.88737 0.54504 0.48024 0.0
H3980 H 0.88932 0.57255 0.49634 0.0
H3981 H 0.86292 0.63504 0.57723 0.0
H3982 H 0.85393 0.63338 0.54667 0.0
H3983 H 0.89366 0.59572 0.53731 0.0
H3984 H 0.90217 0.59703 0.56765 0.0
H3985 H 0.86839 0.58857 0.51685 0.0
H3986 H 0.89912 0.64169 0.53173 0.0
H3987 H 0.90314 0.66924 0.54744 0.0
H3988 H 0.8551 0.68777 0.52669 0.0
H3989 H 0.8507 0.66021 0.51104 0.0
C3990 C 0.89475 0.61153 0.4407 0.0
C3991 C 0.88414 0.62002 0.42858 0.0
C3992 C 0.89016 0.61042 0.45813 0.0
C3993 C 0.87488 0.61795 0.46414 0.0
C3994 C 0.86408 0.6264 0.45211 0.0
C3995 C 0.86856 0.62724 0.43441 0.0
C3996 C 0.8709 0.6172 0.48311 0.0
C3997 C 0.87145 0.63254 0.49287 0.0
C3998 C 0.86939 0.60121 0.49197 0.0
C3999 C 0.86819 0.58457 0.4824 0.0
C4000 C 0.85572 0.58218 0.46927 0.0
C4001 C 0.85477 0.56657 0.46016 0.0
C4002 C 0.86617 0.5532 0.4641 0.0
C4003 C 0.87853 0.55541 0.4772 0.0
C4004 C 0.87955 0.571 0.48635 0.0
C4005 C 0.86912 0.6258 0.56882 0.0
C4006 C 0.88315 0.61604 0.57495 0.0
C4007 C 0.86422 0.62509 0.55121 0.0
C4008 C 0.8734 0.61476 0.53938 0.0
C4009 C 0.88634 0.60388 0.54595 0.0
C4010 C 0.89116 0.60455 0.56342 0.0
C4011 C 0.87092 0.61616 0.52008 0.0
C4012 C 0.86934 0.60091 0.51022 0.0
C4013 C 0.87177 0.63223 0.51115 0.0
C4014 C 0.87448 0.64883 0.52041 0.0
C4015 C 0.88937 0.65161 0.53061 0.0
C4016 C 0.89172 0.66722 0.5395 0.0
C4017 C 0.87935 0.68023 0.53812 0.0
C4018 C 0.86464 0.67767 0.52779 0.0
C4019 C 0.86221 0.66205 0.51891 0.0
H4020 H 0.88119 0.69231 0.54501 0.0
H4021 H 0.86542 0.54112 0.45703 0.0
H4022 H 0.90817 0.37352 0.92924 0.0
H4023 H 0.91036 0.36841 0.9606 0.0
H4024 H 0.85626 0.38054 0.96597 0.0
H4025 H 0.8544 0.38633 0.93495 0.0
H4026 H 0.87286 0.39816 0.98822 0.0
H4027 H 0.87556 0.33775 0.97201 0.0
H4028 H 0.88753 0.31247 0.95688 0.0
H4029 H 0.9366 0.32084 0.982 0.0
H4030 H 0.92497 0.3463 0.99712 0.0
H4031 H 0.85137 0.37488 0.07159 0.0
H4032 H 0.85547 0.37358 0.04053 0.0
H4033 H 0.91054 0.3689 0.04803 0.0
H4034 H 0.90639 0.36982 0.07977 0.0
H4035 H 0.89802 0.3485 0.01987 0.0
H4036 H 0.89439 0.40768 0.03756 0.0
H4037 H 0.88198 0.43248 0.05311 0.0
H4038 H 0.83433 0.42621 0.02486 0.0
H4039 H 0.84636 0.40122 0.00932 0.0
C4040 C 0.89665 0.37448 0.93708 0.0
C4041 C 0.88102 0.37999 0.92958 0.0
C4042 C 0.8979 0.37163 0.95508 0.0
C4043 C 0.88347 0.37403 0.96593 0.0
C4044 C 0.86767 0.37867 0.95813 0.0
C4045 C 0.86652 0.38178 0.94029 0.0
C4046 C 0.88485 0.37327 0.9854 0.0
C4047 C 0.8782 0.38714 0.99502 0.0
C4048 C 0.89249 0.35934 0.99461 0.0
C4049 C 0.89945 0.34403 0.98555 0.0
C4050 C 0.88894 0.33427 0.9742 0.0
C4051 C 0.89565 0.3199 0.96565 0.0
C4052 C 0.91283 0.31508 0.96844 0.0
C4053 C 0.92331 0.3246 0.97983 0.0
C4054 C 0.91666 0.33899 0.9884 0.0
C4055 C 0.86442 0.37344 0.06677 0.0
C4056 C 0.87858 0.3727 0.07829 0.0
C4057 C 0.86674 0.37271 0.04888 0.0
C4058 C 0.88334 0.37155 0.04174 0.0
C4059 C 0.89757 0.36992 0.05315 0.0
C4060 C 0.89521 0.37045 0.0713 0.0
C4061 C 0.88542 0.37307 0.02245 0.0
C4062 C 0.89279 0.3595 0.01295 0.0
C4063 C 0.87843 0.38727 0.01323 0.0
C4064 C 0.87126 0.40251 0.02234 0.0
C4065 C 0.88124 0.41154 0.03472 0.0
C4066 C 0.87427 0.42564 0.04353 0.0
C4067 C 0.85737 0.43091 0.03998 0.0
C4068 C 0.84742 0.42212 0.02759 0.0
C4069 C 0.85432 0.408 0.01876 0.0
H4070 H 0.852 0.44181 0.04683 0.0
H4071 H 0.918 0.30395 0.9618 0.0
H4072 H 0.12841 0.41514 0.57774 0.0
H4073 H 0.132 0.41998 0.54632 0.0
H4074 H 0.14049 0.36543 0.53903 0.0
H4075 H 0.13652 0.36057 0.56997 0.0
H4076 H 0.16335 0.38636 0.51936 0.0
H4077 H 0.10179 0.38097 0.53182 0.0
H4078 H 0.07488 0.38991 0.54616 0.0
H4079 H 0.07942 0.44034 0.52322 0.0
H4080 H 0.10653 0.43176 0.50894 0.0
H4081 H 0.14013 0.35819 0.43599 0.0
H4082 H 0.14637 0.36543 0.46601 0.0
H4083 H 0.12577 0.4165 0.45801 0.0
H4084 H 0.11901 0.40891 0.42776 0.0
H4085 H 0.11177 0.40399 0.48551 0.0
H4086 H 0.17042 0.4085 0.46904 0.0
H4087 H 0.19776 0.40058 0.45492 0.0
H4088 H 0.20005 0.35413 0.48528 0.0
H4089 H 0.17259 0.36163 0.49942 0.0
C4090 C 0.13141 0.40429 0.56944 0.0
C4091 C 0.13227 0.38748 0.57637 0.0
C4092 C 0.13333 0.40703 0.55146 0.0
C4093 C 0.13648 0.39305 0.54018 0.0
C4094 C 0.13814 0.37646 0.54733 0.0
C4095 C 0.13586 0.37369 0.56508 0.0
C4096 C 0.1371 0.39515 0.52085 0.0
C4097 C 0.15208 0.39023 0.51194 0.0
C4098 C 0.12263 0.40072 0.51105 0.0
C4099 C 0.10629 0.40581 0.51951 0.0
C4100 C 0.09713 0.39401 0.52996 0.0
C4101 C 0.08183 0.39901 0.53805 0.0
C4102 C 0.07547 0.41571 0.53565 0.0
C4103 C 0.08438 0.42743 0.5251 0.0
C4104 C 0.09971 0.42251 0.51701 0.0
C4105 C 0.13768 0.37126 0.44037 0.0
C4106 C 0.12943 0.38308 0.42927 0.0
C4107 C 0.14118 0.37541 0.4577 0.0
C4108 C 0.13669 0.39162 0.46456 0.0
C4109 C 0.12944 0.4039 0.45319 0.0
C4110 C 0.12588 0.39969 0.43574 0.0
C4111 C 0.13797 0.39478 0.48382 0.0
C4112 C 0.12327 0.40056 0.49278 0.0
C4113 C 0.15282 0.39021 0.49367 0.0
C4114 C 0.16937 0.3856 0.48523 0.0
C4115 C 0.17669 0.39654 0.47263 0.0
C4116 C 0.19222 0.39213 0.46463 0.0
C4117 C 0.20062 0.37685 0.46918 0.0
C4118 C 0.19352 0.36596 0.48177 0.0
C4119 C 0.17799 0.37031 0.4898 0.0
H4120 H 0.21265 0.37346 0.46298 0.0
H4121 H 0.06362 0.41955 0.54193 0.0
H4122 H 0.90677 0.61398 0.93356 0.0
H4123 H 0.90875 0.62015 0.96453 0.0
H4124 H 0.86819 0.65765 0.95948 0.0
H4125 H 0.866 0.65126 0.92834 0.0
H4126 H 0.90202 0.66158 0.98837 0.0
H4127 H 0.8497 0.62893 0.9697 0.0
H4128 H 0.83605 0.60659 0.95118 0.0
H4129 H 0.87108 0.56859 0.97116 0.0
H4130 H 0.88512 0.59082 0.98958 0.0
H4131 H 0.8786 0.64993 0.07931 0.0
H4132 H 0.87888 0.65727 0.04821 0.0
H4133 H 0.89363 0.60493 0.03621 0.0
H4134 H 0.89274 0.59756 0.06665 0.0
H4135 H 0.87009 0.61262 0.01529 0.0
H4136 H 0.92191 0.64258 0.03429 0.0
H4137 H 0.93891 0.66362 0.05152 0.0
H4138 H 0.90859 0.70519 0.03098 0.0
H4139 H 0.89126 0.68434 0.01377 0.0
C4140 C 0.89898 0.62429 0.93883 0.0
C4141 C 0.8865 0.63241 0.92837 0.0
C4142 C 0.90002 0.62771 0.95661 0.0
C4143 C 0.88862 0.63935 0.96442 0.0
C4144 C 0.87727 0.64877 0.95376 0.0
C4145 C 0.87615 0.64524 0.93588 0.0
C4146 C 0.88639 0.63887 0.98364 0.0
C4147 C 0.89476 0.65111 0.99432 0.0
C4148 C 0.87731 0.625 0.99147 0.0
C4149 C 0.86852 0.61153 0.98088 0.0
C4150 C 0.85454 0.61583 0.97005 0.0
C4151 C 0.84674 0.60319 0.95958 0.0
C4152 C 0.85272 0.58619 0.95996 0.0
C4153 C 0.86647 0.58177 0.97087 0.0
C4154 C 0.87434 0.59438 0.98133 0.0
C4155 C 0.88198 0.64008 0.06999 0.0
C4156 C 0.88549 0.62311 0.07554 0.0
C4157 C 0.88221 0.64428 0.05217 0.0
C4158 C 0.88626 0.63167 0.03961 0.0
C4159 C 0.89022 0.61493 0.04538 0.0
C4160 C 0.88975 0.61072 0.06295 0.0
C4161 C 0.88592 0.63524 0.02043 0.0
C4162 C 0.8771 0.6234 0.00958 0.0
C4163 C 0.89479 0.64938 0.01258 0.0
C4164 C 0.90516 0.66189 0.02292 0.0
C4165 C 0.91878 0.65619 0.03356 0.0
C4166 C 0.92849 0.66808 0.0433 0.0
C4167 C 0.92479 0.68572 0.04239 0.0
C4168 C 0.91141 0.69151 0.0317 0.0
C4169 C 0.90164 0.67967 0.02195 0.0
H4170 H 0.93233 0.69491 0.04994 0.0
H4171 H 0.84668 0.57643 0.95183 0.0
H4172 H 0.85891 0.35502 0.4385 0.0
H4173 H 0.85586 0.36055 0.46936 0.0
H4174 H 0.87103 0.41379 0.46153 0.0
H4175 H 0.87395 0.40823 0.43016 0.0
H4176 H 0.88948 0.39766 0.48866 0.0
H4177 H 0.83031 0.40523 0.47337 0.0
H4178 H 0.80251 0.3982 0.45909 0.0
H4179 H 0.79933 0.3505 0.48741 0.0
H4180 H 0.82723 0.3571 0.50168 0.0
H4181 H 0.88266 0.40294 0.58028 0.0
H4182 H 0.87566 0.41069 0.55019 0.0
H4183 H 0.85565 0.35912 0.54146 0.0
H4184 H 0.86246 0.35152 0.57137 0.0
H4185 H 0.83755 0.38125 0.52263 0.0
H4186 H 0.89842 0.37065 0.53308 0.0
H4187 H 0.92662 0.37616 0.54728 0.0
H4188 H 0.92695 0.4282 0.52782 0.0
H4189 H 0.89862 0.42306 0.5137 0.0
C4190 C 0.86122 0.36804 0.44324 0.0
C4191 C 0.86649 0.38123 0.43181 0.0
C4192 C 0.85947 0.3712 0.46096 0.0
C4193 C 0.86311 0.38762 0.46793 0.0
C4194 C 0.86806 0.40101 0.45652 0.0
C4195 C 0.86955 0.3979 0.43857 0.0
C4196 C 0.86262 0.3901 0.4872 0.0
C4197 C 0.87798 0.39454 0.49606 0.0
C4198 C 0.84778 0.38565 0.49703 0.0
C4199 C 0.83093 0.38164 0.48854 0.0
C4200 C 0.82374 0.39318 0.47647 0.0
C4201 C 0.80795 0.38928 0.46839 0.0
C4202 C 0.79917 0.3739 0.47232 0.0
C4203 C 0.80614 0.36241 0.48438 0.0
C4204 C 0.82194 0.36624 0.49249 0.0
C4205 C 0.87597 0.39356 0.57217 0.0
C4206 C 0.87286 0.37669 0.57831 0.0
C4207 C 0.87226 0.39789 0.55483 0.0
C4208 C 0.86544 0.38539 0.54329 0.0
C4209 C 0.86093 0.36904 0.54993 0.0
C4210 C 0.8647 0.36472 0.56714 0.0
C4211 C 0.86449 0.38846 0.5241 0.0
C4212 C 0.84892 0.38487 0.51524 0.0
C4213 C 0.87918 0.39352 0.51428 0.0
C4214 C 0.89632 0.39654 0.52252 0.0
C4215 C 0.90447 0.3833 0.53192 0.0
C4216 C 0.92047 0.38635 0.53994 0.0
C4217 C 0.92854 0.40254 0.5385 0.0
C4218 C 0.92066 0.41568 0.52896 0.0
C4219 C 0.90463 0.41271 0.52095 0.0
H4220 H 0.94091 0.40489 0.54475 0.0
H4221 H 0.78695 0.3709 0.46605 0.0
H4222 H 0.14187 0.61075 0.58129 0.0
H4223 H 0.14774 0.60807 0.55005 0.0
H4224 H 0.10521 0.64215 0.53898 0.0
H4225 H 0.09914 0.64442 0.5697 0.0
H4226 H 0.10187 0.61591 0.51943 0.0
H4227 H 0.14969 0.65365 0.53396 0.0
H4228 H 0.17636 0.66245 0.54942 0.0
H4229 H 0.20249 0.61787 0.52967 0.0
H4230 H 0.17589 0.60869 0.51426 0.0
H4231 H 0.1357 0.64478 0.43188 0.0
H4232 H 0.14175 0.64355 0.46304 0.0
H4233 H 0.12065 0.59174 0.46479 0.0
H4234 H 0.11415 0.59323 0.43378 0.0
H4235 H 0.15753 0.62516 0.48897 0.0
H4236 H 0.09279 0.58871 0.49797 0.0
H4237 H 0.06556 0.58326 0.48193 0.0
H4238 H 0.07212 0.63122 0.45458 0.0
H4239 H 0.09921 0.63707 0.47065 0.0
C4240 C 0.13401 0.61789 0.57216 0.0
C4241 C 0.11997 0.62772 0.57804 0.0
C4242 C 0.13735 0.61635 0.55426 0.0
C4243 C 0.12686 0.62481 0.54193 0.0
C4244 C 0.1134 0.63525 0.54801 0.0
C4245 C 0.10998 0.63661 0.5657 0.0
C4246 C 0.12891 0.62229 0.52271 0.0
C4247 C 0.11413 0.61784 0.5129 0.0
C4248 C 0.14478 0.6249 0.51387 0.0
C4249 C 0.16075 0.63038 0.52313 0.0
C4250 C 0.16108 0.64565 0.53304 0.0
C4251 C 0.17619 0.65072 0.54176 0.0
C4252 C 0.19109 0.6407 0.54057 0.0
C4253 C 0.19093 0.62561 0.53061 0.0
C4254 C 0.17584 0.62047 0.52187 0.0
C4255 C 0.13323 0.63279 0.43874 0.0
C4256 C 0.12478 0.61896 0.43027 0.0
C4257 C 0.13654 0.63214 0.45666 0.0
C4258 C 0.13136 0.61768 0.46648 0.0
C4259 C 0.12459 0.60316 0.45765 0.0
C4260 C 0.12111 0.60389 0.43981 0.0
C4261 C 0.1305 0.61879 0.48589 0.0
C4262 C 0.14539 0.62299 0.49565 0.0
C4263 C 0.11463 0.61637 0.49476 0.0
C4264 C 0.09811 0.61321 0.48537 0.0
C4265 C 0.08836 0.59812 0.4886 0.0
C4266 C 0.07296 0.59496 0.47949 0.0
C4267 C 0.06715 0.60685 0.4672 0.0
C4268 C 0.07666 0.62199 0.46406 0.0
C4269 C 0.09203 0.62523 0.47317 0.0
H4270 H 0.05525 0.60436 0.46013 0.0
H4271 H 0.20278 0.64465 0.54733 0.0
H4272 H 0.32287 0.08695 0.38207 0.0
H4273 H 0.29151 0.08881 0.38471 0.0
H4274 H 0.29619 0.14346 0.3953 0.0
H4275 H 0.32795 0.14141 0.39336 0.0
H4276 H 0.27018 0.13009 0.41357 0.0
H4277 H 0.28645 0.12656 0.35363 0.0
H4278 H 0.30109 0.11358 0.32859 0.0
H4279 H 0.27141 0.06677 0.33505 0.0
H4280 H 0.25679 0.07938 0.36033 0.0
H4281 H 0.18551 0.1537 0.39144 0.0
H4282 H 0.21667 0.14983 0.39188 0.0
H4283 H 0.20965 0.09563 0.38019 0.0
H4284 H 0.17802 0.09966 0.37911 0.0
H4285 H 0.23669 0.10771 0.36321 0.0
H4286 H 0.21968 0.11128 0.42249 0.0
H4287 H 0.20517 0.12389 0.44781 0.0
H4288 H 0.23601 0.17014 0.4429 0.0
H4289 H 0.25055 0.15789 0.4174 0.0
C4290 C 0.31726 0.09932 0.38532 0.0
C4291 C 0.32792 0.11404 0.38748 0.0
C4292 C 0.29925 0.10041 0.38665 0.0
C4293 C 0.29126 0.11639 0.38963 0.0
C4294 C 0.30194 0.13098 0.39281 0.0
C4295 C 0.32012 0.12981 0.39181 0.0
C4296 C 0.27188 0.11785 0.38865 0.0
C4297 C 0.26291 0.12539 0.40245 0.0
C4298 C 0.26214 0.11131 0.37438 0.0
C4299 C 0.27063 0.10387 0.35895 0.0
C4300 C 0.2831 0.11347 0.34975 0.0
C4301 C 0.29139 0.10618 0.33552 0.0
C4302 C 0.2872 0.08935 0.33025 0.0
C4303 C 0.27465 0.0798 0.33916 0.0
C4304 C 0.26635 0.08702 0.35343 0.0
C4305 C 0.19052 0.14091 0.38889 0.0
C4306 C 0.17918 0.12694 0.38539 0.0
C4307 C 0.20845 0.13869 0.38928 0.0
C4308 C 0.2157 0.12232 0.38662 0.0
C4309 C 0.20446 0.10839 0.38249 0.0
C4310 C 0.18636 0.11068 0.38184 0.0
C4311 C 0.23496 0.12002 0.38811 0.0
C4312 C 0.24393 0.11235 0.37438 0.0
C4313 C 0.24468 0.1264 0.40247 0.0
C4314 C 0.23612 0.13371 0.41795 0.0
C4315 C 0.22331 0.12417 0.42676 0.0
C4316 C 0.21508 0.13125 0.44115 0.0
C4317 C 0.21965 0.14782 0.44694 0.0
C4318 C 0.23249 0.15731 0.43839 0.0
C4319 C 0.24074 0.1503 0.42398 0.0
H4320 H 0.21325 0.15328 0.45808 0.0
H4321 H 0.29365 0.0837 0.31926 0.0
H4322 H 0.37023 0.67686 0.87173 0.0
H4323 H 0.37171 0.70829 0.86694 0.0
H4324 H 0.41671 0.71153 0.90005 0.0
H4325 H 0.41503 0.68033 0.90499 0.0
H4326 H 0.39259 0.73284 0.91114 0.0
H4327 H 0.41782 0.72048 0.85548 0.0
H4328 H 0.41884 0.70716 0.82651 0.0
H4329 H 0.37174 0.7327 0.81234 0.0
H4330 H 0.37033 0.74601 0.84132 0.0
H4331 H 0.42416 0.81776 0.90217 0.0
H4332 H 0.41767 0.78691 0.90299 0.0
H4333 H 0.3742 0.79458 0.8687 0.0
H4334 H 0.38103 0.82583 0.86762 0.0
H4335 H 0.39306 0.76799 0.8575 0.0
H4336 H 0.36866 0.78205 0.91191 0.0
H4337 H 0.36703 0.79544 0.94081 0.0
H4338 H 0.41122 0.76649 0.95749 0.0
H4339 H 0.41327 0.75309 0.92862 0.0
C4340 C 0.38096 0.68417 0.87722 0.0
C4341 C 0.39276 0.67601 0.88843 0.0
C4342 C 0.38169 0.70223 0.87467 0.0
C4343 C 0.39426 0.71249 0.88325 0.0
C4344 C 0.40681 0.70407 0.89335 0.0
C4345 C 0.40603 0.68613 0.89594 0.0
C4346 C 0.39347 0.73194 0.88331 0.0
C4347 C 0.3929 0.74049 0.89937 0.0
C4348 C 0.39302 0.74208 0.86803 0.0
C4349 C 0.39386 0.73407 0.85063 0.0
C4350 C 0.4076 0.72313 0.84624 0.0
C4351 C 0.40826 0.71561 0.82981 0.0
C4352 C 0.39533 0.71904 0.81761 0.0
C4353 C 0.38173 0.73003 0.82181 0.0
C4354 C 0.381 0.73758 0.83823 0.0
C4355 C 0.41284 0.81301 0.89526 0.0
C4356 C 0.40293 0.82436 0.88509 0.0
C4357 C 0.40915 0.79526 0.89568 0.0
C4358 C 0.39534 0.7882 0.886 0.0
C4359 C 0.38491 0.79961 0.87633 0.0
C4360 C 0.38862 0.81754 0.87595 0.0
C4361 C 0.39275 0.76888 0.88536 0.0
C4362 C 0.3926 0.76034 0.86925 0.0
C4363 C 0.39239 0.75867 0.90061 0.0
C4364 C 0.39118 0.76664 0.91804 0.0
C4365 C 0.3781 0.77862 0.9217 0.0
C4366 C 0.37709 0.7862 0.93809 0.0
C4367 C 0.38903 0.78184 0.95097 0.0
C4368 C 0.40198 0.76985 0.9475 0.0
C4369 C 0.40306 0.76224 0.93113 0.0
H4370 H 0.38823 0.78773 0.96364 0.0
H4371 H 0.39588 0.71321 0.80489 0.0
H4372 H 0.67487 0.87146 0.40879 0.0
H4373 H 0.70661 0.87003 0.41227 0.0
H4374 H 0.71296 0.90654 0.37058 0.0
H4375 H 0.68179 0.90806 0.36712 0.0
H4376 H 0.7344 0.88012 0.3662 0.0
H4377 H 0.7195 0.91835 0.4128 0.0
H4378 H 0.70441 0.92698 0.43943 0.0
H4379 H 0.72733 0.88456 0.46682 0.0
H4380 H 0.74238 0.87554 0.44027 0.0
H4381 H 0.82516 0.89882 0.3747 0.0
H4382 H 0.79348 0.90199 0.3734 0.0
H4383 H 0.78814 0.86777 0.41715 0.0
H4384 H 0.81941 0.86483 0.41865 0.0
H4385 H 0.76608 0.89281 0.42075 0.0
H4386 H 0.78067 0.85424 0.37446 0.0
H4387 H 0.79561 0.8451 0.34792 0.0
H4388 H 0.77308 0.8874 0.32002 0.0
H4389 H 0.75817 0.89692 0.34648 0.0
C4390 C 0.68305 0.87928 0.4005 0.0
C4391 C 0.67563 0.88986 0.38768 0.0
C4392 C 0.70123 0.87847 0.40248 0.0
C4393 C 0.71235 0.88818 0.39165 0.0
C4394 C 0.70485 0.89882 0.37904 0.0
C4395 C 0.68687 0.89971 0.37715 0.0
C4396 C 0.73176 0.88725 0.39299 0.0
C4397 C 0.7413 0.88308 0.37811 0.0
C4398 C 0.74094 0.89077 0.40854 0.0
C4399 C 0.7319 0.89615 0.4245 0.0
C4400 C 0.7212 0.91077 0.42446 0.0
C4401 C 0.71268 0.91575 0.43955 0.0
C4402 C 0.71486 0.90629 0.45479 0.0
C4403 C 0.72562 0.89186 0.45499 0.0
C4404 C 0.73415 0.88681 0.43993 0.0
C4405 C 0.81722 0.89212 0.38412 0.0
C4406 C 0.82495 0.88152 0.39672 0.0
C4407 C 0.79906 0.89383 0.38332 0.0
C4408 C 0.7882 0.88494 0.39506 0.0
C4409 C 0.79603 0.87479 0.40791 0.0
C4410 C 0.81404 0.87307 0.4087 0.0
C4411 C 0.76875 0.88573 0.39392 0.0
C4412 C 0.75919 0.88985 0.40883 0.0
C4413 C 0.75953 0.88209 0.37841 0.0
C4414 C 0.76847 0.8764 0.36249 0.0
C4415 C 0.77901 0.86167 0.3627 0.0
C4416 C 0.78746 0.85641 0.34767 0.0
C4417 C 0.78534 0.8657 0.3323 0.0
C4418 C 0.77474 0.88024 0.33194 0.0
C4419 C 0.76628 0.88557 0.34695 0.0
H4420 H 0.79188 0.8616 0.32068 0.0
H4421 H 0.70826 0.91017 0.46646 0.0
H4422 H 0.59949 0.1836 0.91089 0.0
H4423 H 0.60456 0.21486 0.91196 0.0
H4424 H 0.63447 0.21193 0.86518 0.0
H4425 H 0.6295 0.18044 0.8642 0.0
H4426 H 0.64611 0.23906 0.88956 0.0
H4427 H 0.59391 0.21916 0.86062 0.0
H4428 H 0.56704 0.20174 0.85892 0.0
H4429 H 0.54715 0.22811 0.90338 0.0
H4430 H 0.57405 0.24547 0.90554 0.0
H4431 H 0.63423 0.32957 0.87645 0.0
H4432 H 0.63419 0.29851 0.86933 0.0
H4433 H 0.5949 0.28946 0.90783 0.0
H4434 H 0.59459 0.32023 0.91445 0.0
H4435 H 0.58931 0.26797 0.88358 0.0
H4436 H 0.64043 0.28499 0.91558 0.0
H4437 H 0.66732 0.30174 0.92063 0.0
H4438 H 0.68906 0.28091 0.87414 0.0
H4439 H 0.66218 0.26417 0.86871 0.0
C4440 C 0.60796 0.18946 0.90137 0.0
C4441 C 0.61439 0.17946 0.88766 0.0
C4442 C 0.61065 0.20741 0.90184 0.0
C4443 C 0.61963 0.21588 0.88847 0.0
C4444 C 0.62751 0.20574 0.87565 0.0
C4445 C 0.62485 0.18768 0.87521 0.0
C4446 C 0.61863 0.23517 0.88677 0.0
C4447 C 0.63374 0.24539 0.88795 0.0
C4448 C 0.60247 0.24355 0.88496 0.0
C4449 C 0.58605 0.23354 0.8833 0.0
C4450 C 0.58384 0.2212 0.87008 0.0
C4451 C 0.56861 0.21132 0.86904 0.0
C4452 C 0.55541 0.21379 0.88106 0.0
C4453 C 0.55739 0.2262 0.8941 0.0
C4454 C 0.57262 0.23607 0.89522 0.0
C4455 C 0.62505 0.32103 0.88279 0.0
C4456 C 0.61429 0.32741 0.89591 0.0
C4457 C 0.62527 0.30318 0.87898 0.0
C4458 C 0.61487 0.29137 0.88836 0.0
C4459 C 0.60315 0.29807 0.90041 0.0
C4460 C 0.60289 0.31578 0.90413 0.0
C4461 C 0.61677 0.27207 0.88675 0.0
C4462 C 0.60177 0.26175 0.88493 0.0
C4463 C 0.63299 0.26366 0.88831 0.0
C4464 C 0.64923 0.2735 0.89163 0.0
C4465 C 0.65091 0.28406 0.90638 0.0
C4466 C 0.66614 0.29354 0.90932 0.0
C4467 C 0.67986 0.29243 0.89768 0.0
C4468 C 0.6784 0.28178 0.88312 0.0
C4469 C 0.66317 0.27228 0.88011 0.0
H4470 H 0.69164 0.29979 0.89998 0.0
H4471 H 0.54364 0.20611 0.88027 0.0
H4472 H 0.32053 0.90949 0.59257 0.0
H4473 H 0.2895 0.90346 0.59171 0.0
H4474 H 0.29511 0.8679 0.63433 0.0
H4475 H 0.32634 0.87433 0.6354 0.0
H4476 H 0.26697 0.8788 0.58756 0.0
H4477 H 0.25975 0.87145 0.66113 0.0
H4478 H 0.27576 0.87859 0.68797 0.0
H4479 H 0.29997 0.92192 0.66272 0.0
H4480 H 0.28393 0.91517 0.63583 0.0
H4481 H 0.17669 0.8693 0.6288 0.0
H4482 H 0.20823 0.86849 0.6336 0.0
H4483 H 0.215 0.91002 0.59699 0.0
H4484 H 0.18375 0.91073 0.59213 0.0
H4485 H 0.23645 0.8918 0.64233 0.0
H4486 H 0.24609 0.8985 0.56862 0.0
H4487 H 0.22981 0.89289 0.54161 0.0
H4488 H 0.20057 0.85276 0.56684 0.0
H4489 H 0.21687 0.85793 0.5939 0.0
C4490 C 0.31529 0.89977 0.60124 0.0
C4491 C 0.32599 0.89217 0.61385 0.0
C4492 C 0.29743 0.89645 0.60088 0.0
C4493 C 0.28969 0.88554 0.61323 0.0
C4494 C 0.3006 0.87667 0.62486 0.0
C4495 C 0.31856 0.88003 0.62523 0.0
C4496 C 0.27026 0.88479 0.61459 0.0
C4497 C 0.26038 0.88169 0.59956 0.0
C4498 C 0.26138 0.88826 0.63026 0.0
C4499 C 0.27081 0.89266 0.64644 0.0
C4500 C 0.26845 0.88253 0.66135 0.0
C4501 C 0.27752 0.88651 0.67656 0.0
C4502 C 0.28892 0.90066 0.67703 0.0
C4503 C 0.29118 0.91093 0.66232 0.0
C4504 C 0.28211 0.90703 0.6471 0.0
C4505 C 0.18485 0.8788 0.62245 0.0
C4506 C 0.17767 0.89025 0.61026 0.0
C4507 C 0.20293 0.87819 0.62503 0.0
C4508 C 0.21411 0.88894 0.61538 0.0
C4509 C 0.20676 0.9014 0.60441 0.0
C4510 C 0.18883 0.90196 0.60181 0.0
C4511 C 0.23332 0.88618 0.61523 0.0
C4512 C 0.24309 0.88864 0.63043 0.0
C4513 C 0.24215 0.88227 0.59968 0.0
C4514 C 0.23262 0.87871 0.58332 0.0
C4515 C 0.23627 0.8884 0.56837 0.0
C4516 C 0.22702 0.88531 0.55306 0.0
C4517 C 0.21414 0.87251 0.55252 0.0
C4518 C 0.21052 0.86271 0.56728 0.0
C4519 C 0.21975 0.86572 0.58261 0.0
H4520 H 0.20697 0.87016 0.54067 0.0
H4521 H 0.29597 0.90369 0.6888 0.0
H4522 H 0.64796 0.68953 0.09878 0.0
H4523 H 0.64404 0.72049 0.10115 0.0
H4524 H 0.59956 0.71217 0.13362 0.0
H4525 H 0.6034 0.68052 0.13118 0.0
H4526 H 0.59394 0.73804 0.10916 0.0
H4527 H 0.6375 0.72616 0.15128 0.0
H4528 H 0.66453 0.71375 0.16266 0.0
H4529 H 0.69394 0.74302 0.12565 0.0
H4530 H 0.66705 0.75542 0.11387 0.0
H4531 H 0.59172 0.82581 0.13728 0.0
H4532 H 0.59303 0.79449 0.13424 0.0
H4533 H 0.63897 0.79978 0.10322 0.0
H4534 H 0.63773 0.83152 0.10633 0.0
H4535 H 0.64325 0.77526 0.12795 0.0
H4536 H 0.6 0.78557 0.08468 0.0
H4537 H 0.57313 0.79732 0.07232 0.0
H4538 H 0.54338 0.77123 0.11138 0.0
H4539 H 0.57015 0.75922 0.12392 0.0
C4540 C 0.63728 0.6941 0.1065 0.0
C4541 C 0.62604 0.68232 0.11486 0.0
C4542 C 0.63512 0.71198 0.1079 0.0
C4543 C 0.62168 0.71888 0.11778 0.0
C4544 C 0.61013 0.70724 0.12597 0.0
C4545 C 0.61235 0.68913 0.12462 0.0
C4546 C 0.61994 0.73821 0.11923 0.0
C4547 C 0.60462 0.74613 0.1136 0.0
C4548 C 0.63401 0.749 0.12451 0.0
C4549 C 0.65023 0.74162 0.13159 0.0
C4550 C 0.64971 0.72985 0.14547 0.0
C4551 C 0.66502 0.72284 0.15202 0.0
C4552 C 0.68094 0.72756 0.14486 0.0
C4553 C 0.6816 0.73935 0.13117 0.0
C4554 C 0.66633 0.7464 0.12457 0.0
C4555 C 0.60201 0.8204 0.12956 0.0
C4556 C 0.61461 0.83131 0.12201 0.0
C4557 C 0.60269 0.80237 0.12778 0.0
C4558 C 0.61602 0.79455 0.1184 0.0
C4559 C 0.6285 0.8054 0.11051 0.0
C4560 C 0.62772 0.82359 0.11217 0.0
C4561 C 0.61729 0.77511 0.11773 0.0
C4562 C 0.63254 0.76718 0.12356 0.0
C4563 C 0.60317 0.76432 0.11264 0.0
C4564 C 0.58708 0.77165 0.10533 0.0
C4565 C 0.58774 0.78246 0.09071 0.0
C4566 C 0.57252 0.78912 0.08365 0.0
C4567 C 0.55654 0.78512 0.09113 0.0
C4568 C 0.55576 0.77435 0.10563 0.0
C4569 C 0.57095 0.76755 0.11267 0.0
H4570 H 0.54476 0.7903 0.08565 0.0
H4571 H 0.69277 0.72212 0.14994 0.0
H4572 H 0.83118 0.13944 0.63047 0.0
H4573 H 0.80014 0.14102 0.63705 0.0
H4574 H 0.79176 0.09181 0.61196 0.0
H4575 H 0.82263 0.09039 0.60519 0.0
H4576 H 0.77468 0.14248 0.61162 0.0
H4577 H 0.75575 0.07228 0.62959 0.0
H4578 H 0.768 0.04729 0.64508 0.0
H4579 H 0.79968 0.08149 0.67584 0.0
H4580 H 0.78745 0.10669 0.6607 0.0
H4581 H 0.68566 0.11427 0.5952 0.0
H4582 H 0.71712 0.11939 0.5963 0.0
H4583 H 0.71446 0.12558 0.65163 0.0
H4584 H 0.68306 0.12096 0.65044 0.0
H4585 H 0.73715 0.09874 0.64018 0.0
H4586 H 0.72632 0.15892 0.6304 0.0
H4587 H 0.71401 0.18402 0.61517 0.0
H4588 H 0.74179 0.17048 0.56922 0.0
H4589 H 0.75408 0.14514 0.58411 0.0
C4590 C 0.82285 0.12856 0.62717 0.0
C4591 C 0.82946 0.11453 0.61776 0.0
C4592 C 0.80503 0.12962 0.63063 0.0
C4593 C 0.79349 0.11657 0.62496 0.0
C4594 C 0.80031 0.10199 0.61664 0.0
C4595 C 0.81804 0.10106 0.61297 0.0
C4596 C 0.77428 0.11879 0.62631 0.0
C4597 C 0.76651 0.13294 0.61797 0.0
C4598 C 0.76348 0.10641 0.63456 0.0
C4599 C 0.77078 0.09136 0.6439 0.0
C4600 C 0.76527 0.07447 0.63972 0.0
C4601 C 0.77222 0.06027 0.64842 0.0
C4602 C 0.78465 0.0628 0.66141 0.0
C4603 C 0.79011 0.07954 0.66574 0.0
C4604 C 0.78319 0.09379 0.65708 0.0
C4605 C 0.69166 0.11775 0.60743 0.0
C4606 C 0.68177 0.11781 0.62266 0.0
C4607 C 0.7097 0.1204 0.60811 0.0
C4608 C 0.71824 0.12275 0.62408 0.0
C4609 C 0.70823 0.12381 0.63915 0.0
C4610 C 0.69021 0.12148 0.63843 0.0
C4611 C 0.73759 0.12227 0.62529 0.0
C4612 C 0.74535 0.10834 0.63397 0.0
C4613 C 0.74836 0.13482 0.61732 0.0
C4614 C 0.74099 0.15003 0.60833 0.0
C4615 C 0.72968 0.16119 0.617 0.0
C4616 C 0.72273 0.17549 0.60844 0.0
C4617 C 0.72708 0.17882 0.59123 0.0
C4618 C 0.73842 0.16788 0.58255 0.0
C4619 C 0.74539 0.15355 0.59105 0.0
H4620 H 0.7217 0.1899 0.58462 0.0
H4621 H 0.79002 0.05178 0.66812 0.0
H4622 H 0.38018 0.17461 0.09568 0.0
H4623 H 0.37966 0.20621 0.09094 0.0
H4624 H 0.40303 0.21433 0.14109 0.0
H4625 H 0.40355 0.18331 0.14585 0.0
H4626 H 0.37736 0.23635 0.13686 0.0
H4627 H 0.42636 0.21842 0.10352 0.0
H4628 H 0.44154 0.2018 0.0811 0.0
H4629 H 0.40894 0.22385 0.04188 0.0
H4630 H 0.39339 0.24043 0.06413 0.0
H4631 H 0.40048 0.32596 0.13037 0.0
H4632 H 0.40341 0.29433 0.13304 0.0
H4633 H 0.3795 0.28765 0.08293 0.0
H4634 H 0.37659 0.31892 0.08024 0.0
H4635 H 0.40525 0.26491 0.08664 0.0
H4636 H 0.35618 0.28262 0.11988 0.0
H4637 H 0.34086 0.29923 0.14222 0.0
H4638 H 0.37345 0.27743 0.18158 0.0
H4639 H 0.38914 0.26086 0.15942 0.0
C4640 C 0.38519 0.18316 0.10566 0.0
C4641 C 0.39194 0.17628 0.12112 0.0
C4642 C 0.38496 0.20125 0.10293 0.0
C4643 C 0.39139 0.21282 0.11564 0.0
C4644 C 0.39794 0.20587 0.13107 0.0
C4645 C 0.39829 0.18797 0.13372 0.0
C4646 C 0.39137 0.23215 0.11323 0.0
C4647 C 0.38364 0.24254 0.12595 0.0
C4648 C 0.39927 0.24045 0.0989 0.0
C4649 C 0.40858 0.2305 0.08551 0.0
C4650 C 0.42232 0.2196 0.09013 0.0
C4651 C 0.43101 0.21021 0.07745 0.0
C4652 C 0.42617 0.21172 0.06008 0.0
C4653 C 0.41265 0.22267 0.05535 0.0
C4654 C 0.4039 0.23207 0.06799 0.0
C4655 C 0.39619 0.31775 0.1198 0.0
C4656 C 0.38826 0.32503 0.10512 0.0
C4657 C 0.39771 0.29963 0.12138 0.0
C4658 C 0.39146 0.28843 0.10827 0.0
C4659 C 0.3844 0.29583 0.09326 0.0
C4660 C 0.38272 0.31381 0.09177 0.0
C4661 C 0.39137 0.26907 0.11035 0.0
C4662 C 0.39901 0.25869 0.09757 0.0
C4663 C 0.38338 0.26075 0.12462 0.0
C4664 C 0.37396 0.27066 0.13797 0.0
C4665 C 0.36017 0.28148 0.13328 0.0
C4666 C 0.35141 0.29086 0.14591 0.0
C4667 C 0.35621 0.28942 0.1633 0.0
C4668 C 0.36977 0.27856 0.1681 0.0
C4669 C 0.3786 0.26916 0.15551 0.0
H4670 H 0.34941 0.29669 0.17306 0.0
H4671 H 0.43292 0.20445 0.05028 0.0
H4672 H 0.14142 0.41627 0.18387 0.0
H4673 H 0.13804 0.41522 0.21506 0.0
H4674 H 0.09767 0.37674 0.20945 0.0
H4675 H 0.10103 0.37771 0.17769 0.0
H4676 H 0.0899 0.40163 0.23464 0.0
H4677 H 0.1376 0.36472 0.22198 0.0
H4678 H 0.16548 0.35691 0.20888 0.0
H4679 H 0.19092 0.39787 0.23701 0.0
H4680 H 0.16312 0.40609 0.25009 0.0
H4681 H 0.0901 0.37238 0.32106 0.0
H4682 H 0.09191 0.3759 0.28996 0.0
H4683 H 0.13521 0.41095 0.2964 0.0
H4684 H 0.13366 0.40714 0.32809 0.0
H4685 H 0.14146 0.38847 0.27069 0.0
H4686 H 0.09412 0.42522 0.28382 0.0
H4687 H 0.06632 0.43338 0.29686 0.0
H4688 H 0.04025 0.39341 0.26791 0.0
H4689 H 0.06794 0.38483 0.25487 0.0
C4690 C 0.13171 0.40756 0.18911 0.0
C4691 C 0.12156 0.39698 0.17808 0.0
C4692 C 0.12986 0.40696 0.2071 0.0
C4693 C 0.11781 0.3957 0.21481 0.0
C4694 C 0.10715 0.38549 0.20389 0.0
C4695 C 0.10907 0.38604 0.18571 0.0
C4696 C 0.11675 0.39463 0.23423 0.0
C4697 C 0.10111 0.39848 0.2425 0.0
C4698 C 0.13149 0.39109 0.24466 0.0
C4699 C 0.14824 0.38612 0.23689 0.0
C4700 C 0.14911 0.37215 0.22527 0.0
C4701 C 0.1649 0.36763 0.21786 0.0
C4702 C 0.17995 0.37691 0.22207 0.0
C4703 C 0.17924 0.3907 0.23374 0.0
C4704 C 0.16348 0.39529 0.24117 0.0
C4705 C 0.09999 0.38101 0.31602 0.0
C4706 C 0.11172 0.38952 0.32727 0.0
C4707 C 0.10093 0.38308 0.29806 0.0
C4708 C 0.11352 0.3939 0.29059 0.0
C4709 C 0.12527 0.40257 0.30175 0.0
C4710 C 0.12433 0.40049 0.3199 0.0
C4711 C 0.11457 0.39545 0.27118 0.0
C4712 C 0.13023 0.39167 0.26288 0.0
C4713 C 0.09986 0.39911 0.26073 0.0
C4714 C 0.08315 0.40429 0.26847 0.0
C4715 C 0.08248 0.41808 0.28033 0.0
C4716 C 0.06674 0.4228 0.28771 0.0
C4717 C 0.05153 0.4139 0.28325 0.0
C4718 C 0.05204 0.40029 0.27136 0.0
C4719 C 0.06776 0.3955 0.26396 0.0
H4720 H 0.03936 0.41757 0.28898 0.0
H4721 H 0.19217 0.3734 0.21633 0.0
H4722 H 0.09937 0.5938 0.68418 0.0
H4723 H 0.10417 0.59285 0.71546 0.0
H4724 H 0.13165 0.64158 0.71299 0.0
H4725 H 0.12708 0.64235 0.6815 0.0
H4726 H 0.14441 0.61957 0.73965 0.0
H4727 H 0.08946 0.64174 0.72005 0.0
H4728 H 0.06242 0.64014 0.70301 0.0
H4729 H 0.04726 0.59405 0.73025 0.0
H4730 H 0.07437 0.59519 0.74723 0.0
H4731 H 0.13207 0.63228 0.83015 0.0
H4732 H 0.13114 0.63887 0.79898 0.0
H4733 H 0.09547 0.59626 0.79106 0.0
H4734 H 0.09592 0.59021 0.82193 0.0
H4735 H 0.08755 0.61899 0.7692 0.0
H4736 H 0.14207 0.59389 0.78618 0.0
H4737 H 0.16963 0.59256 0.80236 0.0
H4738 H 0.1858 0.64092 0.78002 0.0
H4739 H 0.15821 0.64263 0.76388 0.0
C4740 C 0.10729 0.60382 0.69015 0.0
C4741 C 0.11317 0.61796 0.68027 0.0
C4742 C 0.10978 0.60343 0.70813 0.0
C4743 C 0.11792 0.61735 0.71674 0.0
C4744 C 0.12529 0.6307 0.70672 0.0
C4745 C 0.12288 0.63103 0.68864 0.0
C4746 C 0.11679 0.61888 0.73606 0.0
C4747 C 0.13198 0.6197 0.74611 0.0
C4748 C 0.1006 0.61884 0.74463 0.0
C4749 C 0.08401 0.61849 0.73484 0.0
C4750 C 0.08039 0.63123 0.72236 0.0
C4751 C 0.06505 0.63039 0.7127 0.0
C4752 C 0.05314 0.61698 0.71551 0.0
C4753 C 0.05651 0.60442 0.72806 0.0
C4754 C 0.07185 0.60516 0.73772 0.0
C4755 C 0.12344 0.62487 0.82183 0.0
C4756 C 0.11395 0.61081 0.82857 0.0
C4757 C 0.12319 0.62838 0.80391 0.0
C4758 C 0.11362 0.61775 0.79238 0.0
C4759 C 0.10307 0.60466 0.79943 0.0
C4760 C 0.10324 0.60126 0.81721 0.0
C4761 C 0.1152 0.61923 0.773 0.0
C4762 C 0.10003 0.61904 0.76284 0.0
C4763 C 0.13142 0.61954 0.76439 0.0
C4764 C 0.14801 0.61849 0.774 0.0
C4765 C 0.15146 0.60429 0.78482 0.0
C4766 C 0.16709 0.60346 0.79397 0.0
C4767 C 0.17944 0.61668 0.79226 0.0
C4768 C 0.17621 0.63072 0.78136 0.0
C4769 C 0.16058 0.63162 0.77221 0.0
H4770 H 0.19153 0.61601 0.79936 0.0
H4771 H 0.04129 0.61632 0.708 0.0
H4772 H 0.91699 0.60562 0.18352 0.0
H4773 H 0.91675 0.61171 0.21458 0.0
H4774 H 0.86746 0.63681 0.20888 0.0
H4775 H 0.86779 0.63073 0.17768 0.0
H4776 H 0.91427 0.6383 0.23747 0.0
H4777 H 0.84152 0.62227 0.24241 0.0
H4778 H 0.81876 0.60719 0.2255 0.0
H4779 H 0.85697 0.57435 0.20275 0.0
H4780 H 0.87989 0.58905 0.21973 0.0
H4781 H 0.89037 0.65016 0.32445 0.0
H4782 H 0.88556 0.65062 0.29308 0.0
H4783 H 0.8901 0.59512 0.29147 0.0
H4784 H 0.89531 0.59472 0.32289 0.0
H4785 H 0.86471 0.60949 0.2667 0.0
H4786 H 0.92436 0.61479 0.2842 0.0
H4787 H 0.94849 0.62729 0.30118 0.0
H4788 H 0.93895 0.67722 0.27888 0.0
H4789 H 0.91456 0.66501 0.26192 0.0
C4790 C 0.90656 0.61326 0.18874 0.0
C4791 C 0.89262 0.61806 0.17803 0.0
C4792 C 0.90632 0.61657 0.20658 0.0
C4793 C 0.89195 0.62446 0.21425 0.0
C4794 C 0.87864 0.63055 0.20337 0.0
C4795 C 0.87898 0.62737 0.18544 0.0
C4796 C 0.89019 0.62454 0.2336 0.0
C4797 C 0.9033 0.63219 0.24379 0.0
C4798 C 0.87615 0.61616 0.24207 0.0
C4799 C 0.86242 0.6069 0.2322 0.0
C4800 C 0.84504 0.61177 0.23387 0.0
C4801 C 0.83212 0.6033 0.22426 0.0
C4802 C 0.83642 0.58987 0.21301 0.0
C4803 C 0.85365 0.5848 0.21143 0.0
C4804 C 0.86661 0.5932 0.22103 0.0
C4805 C 0.88944 0.63797 0.31754 0.0
C4806 C 0.89269 0.62235 0.32624 0.0
C4807 C 0.88692 0.63827 0.29955 0.0
C4808 C 0.88755 0.62292 0.28981 0.0
C4809 C 0.88941 0.60712 0.29866 0.0
C4810 C 0.89219 0.60687 0.31667 0.0
C4811 C 0.88856 0.62361 0.27046 0.0
C4812 C 0.87544 0.61594 0.26033 0.0
C4813 C 0.90274 0.63169 0.26201 0.0
C4814 C 0.91753 0.63904 0.27195 0.0
C4815 C 0.92732 0.62846 0.28302 0.0
C4816 C 0.94106 0.63549 0.29263 0.0
C4817 C 0.94522 0.65306 0.29116 0.0
C4818 C 0.93569 0.66362 0.28003 0.0
C4819 C 0.92192 0.65665 0.2704 0.0
H4820 H 0.95586 0.65848 0.29862 0.0
H4821 H 0.82641 0.58336 0.20555 0.0
H4822 H 0.8749 0.37396 0.83047 0.0
H4823 H 0.87591 0.36745 0.7992 0.0
H4824 H 0.90326 0.41546 0.7903 0.0
H4825 H 0.90264 0.42175 0.82119 0.0
H4826 H 0.87225 0.41169 0.77044 0.0
H4827 H 0.92407 0.3798 0.78468 0.0
H4828 H 0.94059 0.35729 0.79997 0.0
H4829 H 0.90703 0.31799 0.77876 0.0
H4830 H 0.89015 0.34031 0.76352 0.0
H4831 H 0.8902 0.4092 0.6797 0.0
H4832 H 0.89004 0.41232 0.71134 0.0
H4833 H 0.8789 0.3577 0.7165 0.0
H4834 H 0.88028 0.35453 0.68513 0.0
H4835 H 0.90051 0.36386 0.73902 0.0
H4836 H 0.84835 0.39357 0.72498 0.0
H4837 H 0.82972 0.41486 0.71038 0.0
H4838 H 0.86023 0.45644 0.73184 0.0
H4839 H 0.87918 0.43538 0.7464 0.0
C4840 C 0.88175 0.38273 0.82193 0.0
C4841 C 0.88875 0.39835 0.8284 0.0
C4842 C 0.88214 0.37913 0.804 0.0
C4843 C 0.88943 0.39112 0.79228 0.0
C4844 C 0.89738 0.40609 0.79895 0.0
C4845 C 0.89716 0.40958 0.8167 0.0
C4846 C 0.88787 0.38895 0.77303 0.0
C4847 C 0.87853 0.4013 0.76353 0.0
C4848 C 0.89558 0.37513 0.76399 0.0
C4849 C 0.90573 0.36174 0.77313 0.0
C4850 C 0.9201 0.36638 0.78341 0.0
C4851 C 0.92956 0.35365 0.79204 0.0
C4852 C 0.92483 0.33623 0.79038 0.0
C4853 C 0.91066 0.33149 0.78005 0.0
C4854 C 0.90115 0.34417 0.77141 0.0
C4855 C 0.88738 0.39798 0.68763 0.0
C4856 C 0.88503 0.38167 0.67991 0.0
C4857 C 0.88726 0.39973 0.7058 0.0
C4858 C 0.88426 0.38528 0.71666 0.0
C4859 C 0.88137 0.36911 0.70872 0.0
C4860 C 0.88197 0.36732 0.69069 0.0
C4861 C 0.88482 0.38667 0.73617 0.0
C4862 C 0.89402 0.37421 0.74579 0.0
C4863 C 0.87663 0.40019 0.74539 0.0
C4864 C 0.86528 0.41289 0.73664 0.0
C4865 C 0.85116 0.40725 0.72648 0.0
C4866 C 0.84053 0.41927 0.71823 0.0
C4867 C 0.84382 0.43699 0.72014 0.0
C4868 C 0.85772 0.44271 0.73035 0.0
C4869 C 0.86839 0.43074 0.73862 0.0
H4870 H 0.83558 0.44628 0.71374 0.0
H4871 H 0.93216 0.32639 0.79707 0.0
H4872 H 0.68155 0.87482 0.60009 0.0
H4873 H 0.71299 0.87149 0.60192 0.0
H4874 H 0.70902 0.86226 0.6568 0.0
H4875 H 0.67752 0.86591 0.6549 0.0
H4876 H 0.73322 0.88542 0.65157 0.0
H4877 H 0.72193 0.82984 0.62734 0.0
H4878 H 0.70949 0.80841 0.60704 0.0
H4879 H 0.7364 0.83267 0.56492 0.0
H4880 H 0.74882 0.85439 0.58493 0.0
H4881 H 0.82718 0.8739 0.65309 0.0
H4882 H 0.79572 0.86935 0.65694 0.0
H4883 H 0.78747 0.87972 0.60272 0.0
H4884 H 0.81827 0.88407 0.59884 0.0
H4885 H 0.76973 0.85188 0.61138 0.0
H4886 H 0.77799 0.90939 0.63553 0.0
H4887 H 0.79031 0.93074 0.65601 0.0
H4888 H 0.76914 0.90209 0.69868 0.0
H4889 H 0.75687 0.88045 0.67844 0.0
C4890 C 0.68732 0.87129 0.61238 0.0
C4891 C 0.67698 0.86996 0.62722 0.0
C4892 C 0.70538 0.86953 0.61349 0.0
C4893 C 0.7136 0.86645 0.62951 0.0
C4894 C 0.70315 0.86454 0.64427 0.0
C4895 C 0.68508 0.86633 0.64314 0.0
C4896 C 0.73305 0.8666 0.63098 0.0
C4897 C 0.74117 0.87779 0.64299 0.0
C4898 C 0.74365 0.85687 0.61973 0.0
C4899 C 0.73621 0.84383 0.60764 0.0
C4900 C 0.72509 0.83069 0.61373 0.0
C4901 C 0.71806 0.81847 0.60228 0.0
C4902 C 0.72212 0.8192 0.5847 0.0
C4903 C 0.73326 0.83213 0.57854 0.0
C4904 C 0.74032 0.84438 0.58994 0.0
C4905 C 0.8186 0.87533 0.64207 0.0
C4906 C 0.82539 0.87931 0.62565 0.0
C4907 C 0.80059 0.87272 0.64426 0.0
C4908 C 0.78905 0.87411 0.63008 0.0
C4909 C 0.79592 0.87836 0.61386 0.0
C4910 C 0.81369 0.88093 0.61169 0.0
C4911 C 0.76985 0.87106 0.6316 0.0
C4912 C 0.76177 0.8593 0.62014 0.0
C4913 C 0.75932 0.88023 0.64336 0.0
C4914 C 0.76672 0.8932 0.6555 0.0
C4915 C 0.7761 0.90757 0.64929 0.0
C4916 C 0.78304 0.91973 0.66085 0.0
C4917 C 0.78056 0.91774 0.67864 0.0
C4918 C 0.77109 0.9036 0.6849 0.0
C4919 C 0.76413 0.89138 0.67339 0.0
H4920 H 0.78594 0.92717 0.68757 0.0
H4921 H 0.71667 0.80973 0.57585 0.0
H4922 H 0.61134 0.18178 0.11049 0.0
H4923 H 0.61251 0.21338 0.10806 0.0
H4924 H 0.64833 0.21566 0.15101 0.0
H4925 H 0.64671 0.18408 0.15367 0.0
H4926 H 0.62401 0.23741 0.15681 0.0
H4927 H 0.65958 0.22707 0.10764 0.0
H4928 H 0.66784 0.21422 0.07971 0.0
H4929 H 0.62332 0.23672 0.0554 0.0
H4930 H 0.61466 0.24953 0.08325 0.0
H4931 H 0.64682 0.32766 0.14679 0.0
H4932 H 0.64462 0.2962 0.15028 0.0
H4933 H 0.60433 0.29437 0.11151 0.0
H4934 H 0.6065 0.32589 0.10815 0.0
H4935 H 0.63063 0.2726 0.10361 0.0
H4936 H 0.59577 0.28345 0.15347 0.0
H4937 H 0.58853 0.29658 0.18156 0.0
H4938 H 0.63329 0.27339 0.20472 0.0
H4939 H 0.64094 0.2603 0.1767 0.0
C4940 C 0.62011 0.18898 0.11884 0.0
C4941 C 0.62943 0.18036 0.13186 0.0
C4942 C 0.62066 0.20714 0.11759 0.0
C4943 C 0.63057 0.21715 0.12931 0.0
C4944 C 0.64056 0.20841 0.14178 0.0
C4945 C 0.63991 0.19028 0.14309 0.0
C4946 C 0.62947 0.23661 0.1295 0.0
C4947 C 0.62575 0.24507 0.14518 0.0
C4948 C 0.63124 0.24681 0.11434 0.0
C4949 C 0.63638 0.23911 0.09758 0.0
C4950 C 0.65147 0.22916 0.09637 0.0
C4951 C 0.65624 0.22191 0.08055 0.0
C4952 C 0.64609 0.22461 0.0658 0.0
C4953 C 0.63116 0.23461 0.06684 0.0
C4954 C 0.62633 0.24189 0.08264 0.0
C4955 C 0.6368 0.32067 0.13976 0.0
C4956 C 0.62638 0.32939 0.12766 0.0
C4957 C 0.63571 0.30259 0.14156 0.0
C4958 C 0.62433 0.29274 0.13112 0.0
C4959 C 0.61321 0.30157 0.11975 0.0
C4960 C 0.6142 0.31967 0.11808 0.0
C4961 C 0.6252 0.27332 0.13089 0.0
C4962 C 0.62889 0.26489 0.11521 0.0
C4963 C 0.62357 0.26317 0.14607 0.0
C4964 C 0.61902 0.27104 0.16294 0.0
C4965 C 0.60416 0.28127 0.16451 0.0
C4966 C 0.59996 0.28868 0.18043 0.0
C4967 C 0.61047 0.28586 0.19491 0.0
C4968 C 0.62518 0.27558 0.1935 0.0
C4969 C 0.62944 0.26815 0.1776 0.0
H4970 H 0.60719 0.2916 0.20722 0.0
H4971 H 0.6498 0.21899 0.05356 0.0
H4972 H 0.18386 0.15476 0.61463 0.0
H4973 H 0.21522 0.15614 0.61785 0.0
H4974 H 0.21386 0.10965 0.6487 0.0
H4975 H 0.18202 0.10864 0.64597 0.0
H4976 H 0.23898 0.13026 0.66044 0.0
H4977 H 0.22443 0.10878 0.60438 0.0
H4978 H 0.21019 0.10795 0.57581 0.0
H4979 H 0.2339 0.15665 0.56259 0.0
H4980 H 0.24829 0.15776 0.59117 0.0
H4981 H 0.32409 0.10218 0.64119 0.0
H4982 H 0.29302 0.1062 0.64374 0.0
H4983 H 0.29778 0.15647 0.62 0.0
H4984 H 0.32937 0.15254 0.61754 0.0
H4985 H 0.27131 0.13538 0.60534 0.0
H4986 H 0.28863 0.1539 0.66204 0.0
H4987 H 0.30396 0.15148 0.68998 0.0
H4988 H 0.27553 0.10492 0.70153 0.0
H4989 H 0.26021 0.10691 0.67353 0.0
C4990 C 0.19018 0.14497 0.62239 0.0
C4991 C 0.18042 0.13155 0.63 0.0
C4992 C 0.20821 0.14569 0.62409 0.0
C4993 C 0.21716 0.13271 0.63306 0.0
C4994 C 0.20737 0.11977 0.64157 0.0
C4995 C 0.18914 0.11922 0.64009 0.0
C4996 C 0.23664 0.13241 0.63276 0.0
C4997 C 0.246 0.1312 0.64836 0.0
C4998 C 0.24605 0.1339 0.61707 0.0
C4999 C 0.23729 0.13343 0.59996 0.0
C5000 C 0.2265 0.11937 0.59543 0.0
C5001 C 0.21842 0.11885 0.57922 0.0
C5002 C 0.22107 0.13228 0.5674 0.0
C5003 C 0.23184 0.14626 0.57177 0.0
C5004 C 0.23999 0.14683 0.58796 0.0
C5005 C 0.31864 0.11421 0.63661 0.0
C5006 C 0.32931 0.12704 0.62911 0.0
C5007 C 0.30079 0.11651 0.63818 0.0
C5008 C 0.29293 0.13168 0.6322 0.0
C5009 C 0.30351 0.14466 0.6248 0.0
C5010 C 0.32158 0.14245 0.62345 0.0
C5011 C 0.27362 0.13333 0.63298 0.0
C5012 C 0.26428 0.13467 0.61743 0.0
C5013 C 0.2643 0.13162 0.64868 0.0
C5014 C 0.27336 0.13049 0.66561 0.0
C5015 C 0.28573 0.14307 0.67048 0.0
C5016 C 0.29441 0.14179 0.68634 0.0
C5017 C 0.29075 0.12804 0.69751 0.0
C5018 C 0.27836 0.11557 0.69286 0.0
C5019 C 0.26966 0.11678 0.677 0.0
H5020 H 0.29748 0.12707 0.70978 0.0
H5021 H 0.21485 0.13183 0.55483 0.0
H5022 H 0.35323 0.81907 0.15004 0.0
H5023 H 0.35227 0.78765 0.14616 0.0
H5024 H 0.38583 0.79246 0.10201 0.0
H5025 H 0.38673 0.82401 0.10592 0.0
H5026 H 0.34427 0.76309 0.12179 0.0
H5027 H 0.41656 0.76014 0.10524 0.0
H5028 H 0.44293 0.77825 0.10792 0.0
H5029 H 0.42212 0.80288 0.15296 0.0
H5030 H 0.39577 0.78473 0.1507 0.0
H5031 H 0.39157 0.67801 0.10441 0.0
H5032 H 0.39418 0.70964 0.10605 0.0
H5033 H 0.35963 0.70981 0.14964 0.0
H5034 H 0.35674 0.67828 0.14771 0.0
H5035 H 0.40225 0.73662 0.12823 0.0
H5036 H 0.32953 0.73917 0.1439 0.0
H5037 H 0.30382 0.72025 0.14092 0.0
H5038 H 0.32597 0.69625 0.09617 0.0
H5039 H 0.35176 0.71514 0.09884 0.0
C5040 C 0.35964 0.81351 0.13895 0.0
C5041 C 0.36972 0.8241 0.12805 0.0
C5042 C 0.35928 0.79547 0.13686 0.0
C5043 C 0.36927 0.78753 0.12402 0.0
C5044 C 0.37817 0.79819 0.11217 0.0
C5045 C 0.37841 0.8163 0.11418 0.0
C5046 C 0.3716 0.76825 0.12422 0.0
C5047 C 0.35695 0.75737 0.12331 0.0
C5048 C 0.38816 0.76056 0.1259 0.0
C5049 C 0.40413 0.77122 0.12767 0.0
C5050 C 0.41766 0.76937 0.11576 0.0
C5051 C 0.4326 0.77964 0.1172 0.0
C5052 C 0.43417 0.79175 0.13056 0.0
C5053 C 0.42086 0.79354 0.14258 0.0
C5054 C 0.40592 0.78326 0.14122 0.0
C5055 C 0.38531 0.68472 0.11494 0.0
C5056 C 0.37429 0.67557 0.12621 0.0
C5057 C 0.38663 0.70288 0.11573 0.0
C5058 C 0.3768 0.71226 0.12772 0.0
C5059 C 0.36715 0.70297 0.14008 0.0
C5060 C 0.36575 0.68487 0.13921 0.0
C5061 C 0.3749 0.73153 0.12602 0.0
C5062 C 0.3896 0.74237 0.12661 0.0
C5063 C 0.35842 0.73922 0.12389 0.0
C5064 C 0.34258 0.72849 0.12165 0.0
C5065 C 0.32882 0.72996 0.13334 0.0
C5066 C 0.31426 0.7192 0.13172 0.0
C5067 C 0.31326 0.70703 0.11835 0.0
C5068 C 0.32677 0.70566 0.10652 0.0
C5069 C 0.34136 0.71638 0.1081 0.0
H5070 H 0.30204 0.69864 0.11713 0.0
H5071 H 0.44572 0.79972 0.13163 0.0
H5072 H 0.68202 0.15112 0.35487 0.0
H5073 H 0.71352 0.15354 0.35768 0.0
H5074 H 0.71219 0.11832 0.40093 0.0
H5075 H 0.68057 0.11642 0.39844 0.0
H5076 H 0.7386 0.1405 0.405 0.0
H5077 H 0.71807 0.10405 0.35886 0.0
H5078 H 0.70119 0.09716 0.33255 0.0
H5079 H 0.7292 0.13618 0.3044 0.0
H5080 H 0.74608 0.1435 0.33064 0.0
H5081 H 0.82495 0.1133 0.39857 0.0
H5082 H 0.79335 0.11069 0.39635 0.0
H5083 H 0.79331 0.14845 0.35529 0.0
H5084 H 0.82489 0.15093 0.35748 0.0
H5085 H 0.76764 0.12424 0.35028 0.0
H5086 H 0.78783 0.16079 0.39686 0.0
H5087 H 0.80473 0.16731 0.42327 0.0
H5088 H 0.77737 0.12725 0.45061 0.0
H5089 H 0.76048 0.12033 0.42427 0.0
C5090 C 0.68836 0.14468 0.36559 0.0
C5091 C 0.67875 0.1339 0.37669 0.0
C5092 C 0.70645 0.14576 0.36697 0.0
C5093 C 0.71541 0.13568 0.37918 0.0
C5094 C 0.70569 0.12616 0.39132 0.0
C5095 C 0.68754 0.12526 0.39006 0.0
C5096 C 0.73471 0.13377 0.37822 0.0
C5097 C 0.74488 0.13674 0.39307 0.0
C5098 C 0.74313 0.12902 0.36264 0.0
C5099 C 0.73323 0.12443 0.34676 0.0
C5100 C 0.72057 0.11123 0.34709 0.0
C5101 C 0.711 0.10725 0.33218 0.0
C5102 C 0.71409 0.11626 0.31682 0.0
C5103 C 0.72681 0.12923 0.31632 0.0
C5104 C 0.73638 0.1333 0.3312 0.0
C5105 C 0.81827 0.12031 0.38843 0.0
C5106 C 0.82747 0.13194 0.37785 0.0
C5107 C 0.80015 0.11908 0.38739 0.0
C5108 C 0.79081 0.12964 0.37589 0.0
C5109 C 0.80012 0.14017 0.36429 0.0
C5110 C 0.81824 0.14141 0.36537 0.0
C5111 C 0.77149 0.13102 0.37703 0.0
C5112 C 0.76133 0.12795 0.36221 0.0
C5113 C 0.76308 0.1356 0.39264 0.0
C5114 C 0.77301 0.13993 0.40856 0.0
C5115 C 0.78549 0.15331 0.40848 0.0
C5116 C 0.79506 0.15708 0.42343 0.0
C5117 C 0.79215 0.14767 0.43859 0.0
C5118 C 0.77962 0.13451 0.43885 0.0
C5119 C 0.77004 0.13066 0.42391 0.0
H5120 H 0.79958 0.1506 0.45016 0.0
H5121 H 0.70666 0.11317 0.3053 0.0
H5122 H 0.35641 0.32542 0.8586 0.0
H5123 H 0.35386 0.29371 0.85537 0.0
H5124 H 0.40369 0.28786 0.87994 0.0
H5125 H 0.40601 0.31927 0.88346 0.0
H5126 H 0.39937 0.26587 0.85166 0.0
H5127 H 0.36734 0.28389 0.90218 0.0
H5128 H 0.34433 0.29942 0.91755 0.0
H5129 H 0.30565 0.27193 0.88807 0.0
H5130 H 0.32845 0.25663 0.87212 0.0
H5131 H 0.40825 0.18455 0.88693 0.0
H5132 H 0.40383 0.21539 0.88334 0.0
H5133 H 0.3523 0.20554 0.86385 0.0
H5134 H 0.35663 0.17408 0.86779 0.0
H5135 H 0.3535 0.23497 0.88446 0.0
H5136 H 0.38452 0.21507 0.8357 0.0
H5137 H 0.40701 0.19914 0.81997 0.0
H5138 H 0.44656 0.22967 0.84497 0.0
H5139 H 0.42432 0.24562 0.86106 0.0
C5140 C 0.36703 0.31734 0.86278 0.0
C5141 C 0.38161 0.32483 0.87091 0.0
C5142 C 0.36547 0.29921 0.86115 0.0
C5143 C 0.37855 0.28827 0.86751 0.0
C5144 C 0.39344 0.2959 0.87487 0.0
C5145 C 0.39483 0.3139 0.87677 0.0
C5146 C 0.3767 0.26891 0.86734 0.0
C5147 C 0.38933 0.25915 0.85885 0.0
C5148 C 0.3633 0.25997 0.87625 0.0
C5149 C 0.34962 0.26932 0.88574 0.0
C5150 C 0.35394 0.28134 0.89878 0.0
C5151 C 0.34093 0.29009 0.90762 0.0
C5152 C 0.32354 0.28673 0.90372 0.0
C5153 C 0.31913 0.27458 0.89102 0.0
C5154 C 0.33209 0.26591 0.88203 0.0
C5155 C 0.39586 0.18883 0.88199 0.0
C5156 C 0.38286 0.17673 0.87749 0.0
C5157 C 0.39338 0.20658 0.87987 0.0
C5158 C 0.37791 0.21295 0.87287 0.0
C5159 C 0.36445 0.20101 0.86912 0.0
C5160 C 0.3669 0.18303 0.87142 0.0
C5161 C 0.37646 0.23199 0.86915 0.0
C5162 C 0.3633 0.24167 0.87694 0.0
C5163 C 0.38927 0.24092 0.85944 0.0
C5164 C 0.40273 0.23149 0.84966 0.0
C5165 C 0.39801 0.21833 0.83792 0.0
C5166 C 0.41072 0.20929 0.82893 0.0
C5167 C 0.4282 0.21338 0.83149 0.0
C5168 C 0.43301 0.22653 0.84301 0.0
C5169 C 0.42035 0.23559 0.85205 0.0
H5170 H 0.43802 0.20636 0.82452 0.0
H5171 H 0.31348 0.29351 0.91059 0.0
H5172 H 0.17658 0.86054 0.35254 0.0
H5173 H 0.20804 0.86288 0.34915 0.0
H5174 H 0.2105 0.89814 0.39239 0.0
H5175 H 0.17901 0.89652 0.39504 0.0
H5176 H 0.23549 0.90612 0.37253 0.0
H5177 H 0.21576 0.85171 0.39566 0.0
H5178 H 0.19875 0.82453 0.39553 0.0
H5179 H 0.22449 0.80829 0.34927 0.0
H5180 H 0.2415 0.83549 0.349 0.0
H5181 H 0.32294 0.8919 0.39536 0.0
H5182 H 0.29126 0.89012 0.39761 0.0
H5183 H 0.28921 0.85947 0.351 0.0
H5184 H 0.32079 0.86111 0.34894 0.0
H5185 H 0.2642 0.84898 0.37267 0.0
H5186 H 0.28442 0.90418 0.3507 0.0
H5187 H 0.30065 0.93182 0.35161 0.0
H5188 H 0.27362 0.94648 0.39766 0.0
H5189 H 0.2574 0.91882 0.39716 0.0
C5190 C 0.18375 0.86957 0.36063 0.0
C5191 C 0.17522 0.87871 0.37375 0.0
C5192 C 0.20185 0.87056 0.35902 0.0
C5193 C 0.21193 0.88019 0.37094 0.0
C5194 C 0.20323 0.8905 0.38307 0.0
C5195 C 0.18511 0.88977 0.38443 0.0
C5196 C 0.23134 0.87854 0.37172 0.0
C5197 C 0.24169 0.89358 0.37276 0.0
C5198 C 0.23972 0.86224 0.37188 0.0
C5199 C 0.22979 0.84571 0.37222 0.0
C5200 C 0.21775 0.84237 0.38542 0.0
C5201 C 0.2081 0.82697 0.38542 0.0
C5202 C 0.21051 0.81471 0.37238 0.0
C5203 C 0.22263 0.8178 0.35935 0.0
C5204 C 0.23228 0.83321 0.35928 0.0
C5205 C 0.31577 0.88404 0.38613 0.0
C5206 C 0.32443 0.87619 0.37227 0.0
C5207 C 0.2976 0.88332 0.38719 0.0
C5208 C 0.28766 0.87496 0.37425 0.0
C5209 C 0.29643 0.86603 0.36114 0.0
C5210 C 0.31456 0.86678 0.36009 0.0
C5211 C 0.26828 0.87655 0.37354 0.0
C5212 C 0.25796 0.86149 0.37249 0.0
C5213 C 0.25991 0.89283 0.3736 0.0
C5214 C 0.26981 0.90937 0.37397 0.0
C5215 C 0.28205 0.91323 0.3611 0.0
C5216 C 0.29122 0.92892 0.36153 0.0
C5217 C 0.28816 0.94089 0.37469 0.0
C5218 C 0.27597 0.93719 0.38748 0.0
C5219 C 0.26678 0.92152 0.38712 0.0
H5220 H 0.29516 0.95308 0.37495 0.0
H5221 H 0.20301 0.8028 0.37238 0.0
H5222 H 0.63625 0.67832 0.85274 0.0
H5223 H 0.63835 0.71013 0.84999 0.0
H5224 H 0.61425 0.71576 0.89984 0.0
H5225 H 0.61233 0.68441 0.90265 0.0
H5226 H 0.6014 0.73893 0.87671 0.0
H5227 H 0.65741 0.71902 0.89597 0.0
H5228 H 0.68405 0.70188 0.8935 0.0
H5229 H 0.6962 0.72732 0.84563 0.0
H5230 H 0.66949 0.74445 0.84771 0.0
H5231 H 0.6181 0.82218 0.90574 0.0
H5232 H 0.61978 0.7907 0.90352 0.0
H5233 H 0.64838 0.79582 0.85599 0.0
H5234 H 0.64732 0.82758 0.8587 0.0
H5235 H 0.65914 0.76741 0.87357 0.0
H5236 H 0.60398 0.78916 0.85572 0.0
H5237 H 0.57752 0.80645 0.85887 0.0
H5238 H 0.56356 0.77734 0.90409 0.0
H5239 H 0.59006 0.76001 0.90134 0.0
C5240 C 0.63111 0.6864 0.8629 0.0
C5241 C 0.62407 0.67883 0.87788 0.0
C5242 C 0.63246 0.70458 0.86142 0.0
C5243 C 0.62659 0.71545 0.8748 0.0
C5244 C 0.61889 0.70779 0.88934 0.0
C5245 C 0.6178 0.68979 0.89092 0.0
C5246 C 0.62877 0.73476 0.87425 0.0
C5247 C 0.61405 0.74512 0.87606 0.0
C5248 C 0.64521 0.743 0.87306 0.0
C5249 C 0.66135 0.73286 0.87189 0.0
C5250 C 0.6657 0.72086 0.88485 0.0
C5251 C 0.68082 0.71116 0.88353 0.0
C5252 C 0.69178 0.71347 0.86939 0.0
C5253 C 0.68768 0.72552 0.85657 0.0
C5254 C 0.67255 0.73524 0.85781 0.0
C5255 C 0.6253 0.8166 0.89516 0.0
C5256 C 0.63282 0.82734 0.88256 0.0
C5257 C 0.62605 0.79856 0.89374 0.0
C5258 C 0.63378 0.79072 0.87932 0.0
C5259 C 0.64226 0.80145 0.86721 0.0
C5260 C 0.64177 0.81962 0.86882 0.0
C5261 C 0.63177 0.77156 0.87641 0.0
C5262 C 0.64648 0.76125 0.87395 0.0
C5263 C 0.61528 0.76329 0.87697 0.0
C5264 C 0.59906 0.77334 0.87837 0.0
C5265 C 0.59529 0.78647 0.86636 0.0
C5266 C 0.58029 0.79628 0.86808 0.0
C5267 C 0.56888 0.793 0.88168 0.0
C5268 C 0.57241 0.77985 0.89355 0.0
C5269 C 0.5874 0.77001 0.8919 0.0
H5270 H 0.55729 0.80063 0.88301 0.0
H5271 H 0.70348 0.70594 0.86839 0.0
H5272 H 0.88578 0.65618 0.82575 0.0
H5273 H 0.88517 0.65997 0.794 0.0
H5274 H 0.87139 0.60611 0.78782 0.0
H5275 H 0.87229 0.60222 0.81882 0.0
H5276 H 0.89476 0.61335 0.76548 0.0
H5277 H 0.84163 0.63991 0.78282 0.0
H5278 H 0.82345 0.66053 0.7987 0.0
H5279 H 0.84994 0.7031 0.77444 0.0
H5280 H 0.86844 0.68271 0.75856 0.0
H5281 H 0.8653 0.60992 0.67812 0.0
H5282 H 0.8627 0.611 0.70988 0.0
H5283 H 0.88809 0.6609 0.71045 0.0
H5284 H 0.89113 0.65961 0.67893 0.0
H5285 H 0.85952 0.6574 0.73521 0.0
H5286 H 0.91225 0.62947 0.71754 0.0
H5287 H 0.92916 0.60798 0.70139 0.0
H5288 H 0.90158 0.56671 0.72666 0.0
H5289 H 0.8843 0.58798 0.74275 0.0
C5290 C 0.88267 0.64519 0.81757 0.0
C5291 C 0.87913 0.6289 0.82499 0.0
C5292 C 0.88223 0.64736 0.7994 0.0
C5293 C 0.87816 0.63332 0.78833 0.0
C5294 C 0.87467 0.61717 0.79585 0.0
C5295 C 0.87515 0.615 0.81378 0.0
C5296 C 0.87764 0.63493 0.76893 0.0
C5297 C 0.88688 0.62292 0.75897 0.0
C5298 C 0.86762 0.64752 0.76015 0.0
C5299 C 0.85655 0.6598 0.76967 0.0
C5300 C 0.84368 0.65367 0.78098 0.0
C5301 C 0.83329 0.66532 0.78996 0.0
C5302 C 0.83558 0.68312 0.78762 0.0
C5303 C 0.84821 0.68931 0.77626 0.0
C5304 C 0.85864 0.67772 0.76726 0.0
C5305 C 0.86979 0.62134 0.68499 0.0
C5306 C 0.87825 0.63476 0.67603 0.0
C5307 C 0.86844 0.62191 0.70316 0.0
C5308 C 0.87526 0.63603 0.71263 0.0
C5309 C 0.88266 0.64992 0.70351 0.0
C5310 C 0.88436 0.64917 0.68547 0.0
C5311 C 0.87633 0.6356 0.732 0.0
C5312 C 0.86733 0.64786 0.74185 0.0
C5313 C 0.88639 0.62311 0.74076 0.0
C5314 C 0.89684 0.61031 0.73119 0.0
C5315 C 0.90968 0.61581 0.71953 0.0
C5316 C 0.91935 0.60367 0.71041 0.0
C5317 C 0.91641 0.58599 0.71296 0.0
C5318 C 0.90382 0.58041 0.72467 0.0
C5319 C 0.89409 0.5925 0.7338 0.0
H5320 H 0.92392 0.57661 0.70589 0.0
H5321 H 0.82753 0.69212 0.79458 0.0
H5322 H 0.85465 0.35569 0.32742 0.0
H5323 H 0.85313 0.35681 0.29575 0.0
H5324 H 0.89783 0.39062 0.29507 0.0
H5325 H 0.89916 0.38965 0.32677 0.0
H5326 H 0.8758 0.39837 0.26843 0.0
H5327 H 0.90231 0.34727 0.29146 0.0
H5328 H 0.90347 0.32126 0.30989 0.0
H5329 H 0.85938 0.29976 0.2832 0.0
H5330 H 0.85777 0.32579 0.26479 0.0
H5331 H 0.89697 0.38317 0.18159 0.0
H5332 H 0.90143 0.3817 0.21302 0.0
H5333 H 0.85745 0.34724 0.21734 0.0
H5334 H 0.85318 0.34857 0.18602 0.0
H5335 H 0.88056 0.33995 0.24227 0.0
H5336 H 0.85305 0.3912 0.22033 0.0
H5337 H 0.85123 0.41722 0.20198 0.0
H5338 H 0.89662 0.4384 0.22667 0.0
H5339 H 0.89888 0.41234 0.24498 0.0
C5340 C 0.86354 0.36413 0.32055 0.0
C5341 C 0.8767 0.373 0.32963 0.0
C5342 C 0.8629 0.36449 0.30239 0.0
C5343 C 0.87561 0.37349 0.29288 0.0
C5344 C 0.88788 0.38355 0.302 0.0
C5345 C 0.88849 0.38319 0.32018 0.0
C5346 C 0.87714 0.37107 0.27368 0.0
C5347 C 0.87706 0.38561 0.26276 0.0
C5348 C 0.87862 0.35441 0.26609 0.0
C5349 C 0.87982 0.33855 0.27685 0.0
C5350 C 0.8928 0.33703 0.28957 0.0
C5351 C 0.89354 0.32229 0.30002 0.0
C5352 C 0.88148 0.30888 0.29775 0.0
C5353 C 0.8687 0.31016 0.28497 0.0
C5354 C 0.86787 0.32491 0.27451 0.0
C5355 C 0.88893 0.37446 0.18912 0.0
C5356 C 0.87492 0.36572 0.18124 0.0
C5357 C 0.89124 0.37391 0.20718 0.0
C5358 C 0.87948 0.36473 0.21773 0.0
C5359 C 0.86667 0.3545 0.20963 0.0
C5360 C 0.86436 0.35508 0.19163 0.0
C5361 C 0.87915 0.36725 0.237 0.0
C5362 C 0.87942 0.35272 0.24794 0.0
C5363 C 0.87779 0.38392 0.24461 0.0
C5364 C 0.87624 0.39975 0.23389 0.0
C5365 C 0.8627 0.40137 0.22178 0.0
C5366 C 0.86159 0.41612 0.21139 0.0
C5367 C 0.87383 0.42944 0.21312 0.0
C5368 C 0.88717 0.42806 0.22532 0.0
C5369 C 0.88837 0.4133 0.23571 0.0
H5370 H 0.87297 0.44084 0.20505 0.0
H5371 H 0.88205 0.29749 0.30587 0.0
H5372 H 0.14805 0.35586 0.82479 0.0
H5373 H 0.14528 0.35456 0.79323 0.0
H5374 H 0.10963 0.3971 0.7945 0.0
H5375 H 0.11201 0.39797 0.82614 0.0
H5376 H 0.1014 0.37673 0.76803 0.0
H5377 H 0.15396 0.40321 0.78848 0.0
H5378 H 0.18118 0.40482 0.80523 0.0
H5379 H 0.20085 0.36133 0.77718 0.0
H5380 H 0.17362 0.35928 0.76044 0.0
H5381 H 0.11345 0.40136 0.68088 0.0
H5382 H 0.11584 0.40397 0.71247 0.0
H5383 H 0.14882 0.35931 0.71378 0.0
H5384 H 0.14648 0.35681 0.68228 0.0
H5385 H 0.15831 0.38202 0.73893 0.0
H5386 H 0.10507 0.35544 0.71898 0.0
H5387 H 0.07786 0.35438 0.70218 0.0
H5388 H 0.05957 0.39908 0.72927 0.0
H5389 H 0.08681 0.40057 0.74605 0.0
C5390 C 0.13888 0.36428 0.81841 0.0
C5391 C 0.12987 0.37669 0.82805 0.0
C5392 C 0.13759 0.36381 0.80028 0.0
C5393 C 0.12764 0.37608 0.79127 0.0
C5394 C 0.11748 0.38753 0.80099 0.0
C5395 C 0.11863 0.38786 0.81917 0.0
C5396 C 0.12899 0.37797 0.77193 0.0
C5397 C 0.11385 0.37809 0.76175 0.0
C5398 C 0.14521 0.37965 0.76346 0.0
C5399 C 0.16169 0.381 0.77332 0.0
C5400 C 0.16405 0.39393 0.78595 0.0
C5401 C 0.17948 0.39492 0.79544 0.0
C5402 C 0.19272 0.38316 0.7923 0.0
C5403 C 0.19057 0.37041 0.77962 0.0
C5404 C 0.17515 0.36934 0.77012 0.0
C5405 C 0.12199 0.39271 0.68781 0.0
C5406 C 0.13016 0.37916 0.67899 0.0
C5407 C 0.12306 0.39397 0.70596 0.0
C5408 C 0.13221 0.3816 0.71569 0.0
C5409 C 0.14164 0.36901 0.70671 0.0
C5410 C 0.1405 0.36772 0.68862 0.0
C5411 C 0.13074 0.38067 0.73506 0.0
C5412 C 0.14586 0.38072 0.74525 0.0
C5413 C 0.11452 0.37925 0.74352 0.0
C5414 C 0.09804 0.37822 0.73364 0.0
C5415 C 0.09529 0.36511 0.72128 0.0
C5416 C 0.07986 0.36442 0.71176 0.0
C5417 C 0.06701 0.37668 0.71462 0.0
C5418 C 0.06955 0.38962 0.72705 0.0
C5419 C 0.08497 0.39038 0.73657 0.0
H5420 H 0.05508 0.37614 0.70724 0.0
H5421 H 0.20465 0.38394 0.79967 0.0
H5422 H 0.14527 0.61281 0.32665 0.0
H5423 H 0.14862 0.61504 0.29505 0.0
H5424 H 0.11113 0.65608 0.29387 0.0
H5425 H 0.1073 0.65328 0.325 0.0
H5426 H 0.10274 0.6355 0.27023 0.0
H5427 H 0.15709 0.66156 0.28573 0.0
H5428 H 0.1856 0.66382 0.30007 0.0
H5429 H 0.20251 0.61841 0.27324 0.0
H5430 H 0.174 0.61574 0.2589 0.0
H5431 H 0.11308 0.65379 0.17951 0.0
H5432 H 0.11492 0.658 0.21116 0.0
H5433 H 0.14471 0.61133 0.2158 0.0
H5434 H 0.14279 0.60705 0.18463 0.0
H5435 H 0.15757 0.63677 0.23724 0.0
H5436 H 0.1021 0.61034 0.22346 0.0
H5437 H 0.07363 0.60881 0.20894 0.0
H5438 H 0.05913 0.6567 0.23276 0.0
H5439 H 0.08763 0.65863 0.24725 0.0
C5440 C 0.13808 0.62254 0.31964 0.0
C5441 C 0.12605 0.63288 0.32832 0.0
C5442 C 0.13997 0.62384 0.30152 0.0
C5443 C 0.13013 0.63578 0.29182 0.0
C5444 C 0.11878 0.64663 0.30079 0.0
C5445 C 0.11668 0.64511 0.31869 0.0
C5446 C 0.1306 0.63636 0.27234 0.0
C5447 C 0.1148 0.63613 0.26313 0.0
C5448 C 0.14621 0.63682 0.26275 0.0
C5449 C 0.16335 0.63836 0.27138 0.0
C5450 C 0.16684 0.65198 0.28299 0.0
C5451 C 0.18301 0.65335 0.2911 0.0
C5452 C 0.19584 0.64124 0.28761 0.0
C5453 C 0.19254 0.62776 0.27596 0.0
C5454 C 0.17639 0.62632 0.26782 0.0
C5455 C 0.12021 0.64461 0.18729 0.0
C5456 C 0.12766 0.63002 0.17954 0.0
C5457 C 0.1212 0.64696 0.20539 0.0
C5458 C 0.12987 0.63489 0.21598 0.0
C5459 C 0.13797 0.62084 0.20804 0.0
C5460 C 0.13676 0.61837 0.19015 0.0
C5461 C 0.12977 0.63607 0.23536 0.0
C5462 C 0.14558 0.63645 0.24448 0.0
C5463 C 0.11419 0.63592 0.24491 0.0
C5464 C 0.09705 0.63473 0.23626 0.0
C5465 C 0.09289 0.62062 0.22549 0.0
C5466 C 0.07674 0.61966 0.21728 0.0
C5467 C 0.0646 0.63267 0.21988 0.0
C5468 C 0.06856 0.64665 0.23073 0.0
C5469 C 0.0847 0.64767 0.23894 0.0
H5470 H 0.0521 0.63191 0.21352 0.0
H5471 H 0.20836 0.64233 0.2939 0.0
loop_
_geom_bond_atom_site_label_1
_geom_bond_atom_site_label_2
_geom_bond_distance
_geom_bond_site_symmetry_2
_ccdc_geom_bond_type
Co0 O1 2.216 . S
Co0 O2 2.091 . S
Co0 O4 2.004 . S
Co0 O10 2.021 . S
Co0 O12 2.137 . S
Co0 O13 2.244 . S
O1 Co0 2.216 . S
O1 C8 1.247 . S
O2 Co0 2.091 . S
O2 C8 1.261 . S
C3 O12 1.247 . S
C3 O13 1.272 . S
O4 Co0 2.004 . S
O4 C9 1.259 . S
Co5 O6 2.061 . S
Co5 O11 2.052 . S
Co5 O13 2.135 . S
O6 Co5 2.061 . S
O6 C9 1.235 . S
C7 O10 1.238 . S
C7 O11 1.241 . S
C8 O1 1.247 . S
C8 O2 1.261 . S
C9 O4 1.259 . S
C9 O6 1.235 . S
O10 Co0 2.021 . S
O10 C7 1.238 . S
O11 Co5 2.052 . S
O11 C7 1.241 . S
O12 Co0 2.137 . S
O12 C3 1.247 . S
O13 Co0 2.244 . S
O13 C3 1.272 . S
O13 Co5 2.135 . S
Co14 O15 2.216 . S
Co14 O16 2.091 . S
Co14 O18 2.004 . S
Co14 O24 2.021 . S
Co14 O26 2.137 . S
Co14 O27 2.244 . S
O15 Co14 2.216 . S
O15 C22 1.247 . S
O16 Co14 2.091 . S
O16 C22 1.261 . S
C17 O26 1.247 . S
C17 O27 1.272 . S
O18 Co14 2.004 . S
O18 C23 1.259 . S
Co19 O20 2.061 . S
Co19 O25 2.052 . S
Co19 O27 2.135 . S
O20 Co19 2.061 . S
O20 C23 1.235 . S
C21 O24 1.238 . S
C21 O25 1.241 . S
C22 O15 1.247 . S
C22 O16 1.261 . S
C23 O18 1.259 . S
C23 O20 1.235 . S
O24 Co14 2.021 . S
O24 C21 1.238 . S
O25 Co19 2.052 . S
O25 C21 1.241 . S
O26 Co14 2.137 . S
O26 C17 1.247 . S
O27 Co14 2.244 . S
O27 C17 1.272 . S
O27 Co19 2.135 . S
Co28 O29 2.216 . S
Co28 O30 2.091 . S
Co28 O32 2.004 . S
Co28 O38 2.021 . S
Co28 O40 2.137 . S
Co28 O41 2.244 . S
O29 Co28 2.216 . S
O29 C36 1.247 . S
O30 Co28 2.091 . S
O30 C36 1.261 . S
C31 O40 1.247 . S
C31 O41 1.272 . S
O32 Co28 2.004 . S
O32 C37 1.259 . S
Co33 O34 2.061 . S
Co33 O39 2.052 . S
Co33 O41 2.135 . S
O34 Co33 2.061 . S
O34 C37 1.235 . S
C35 O38 1.238 . S
C35 O39 1.241 . S
C36 O29 1.247 . S
C36 O30 1.261 . S
C37 O32 1.259 . S
C37 O34 1.235 . S
O38 Co28 2.021 . S
O38 C35 1.238 . S
O39 Co33 2.052 . S
O39 C35 1.241 . S
O40 Co28 2.137 . S
O40 C31 1.247 . S
O41 Co28 2.244 . S
O41 C31 1.272 . S
O41 Co33 2.135 . S
Co42 O43 2.216 . S
Co42 O44 2.091 . S
Co42 O46 2.004 . S
Co42 O52 2.021 . S
Co42 O54 2.137 . S
Co42 O55 2.244 . S
O43 Co42 2.216 . S
O43 C50 1.247 . S
O44 Co42 2.091 . S
O44 C50 1.261 . S
C45 O54 1.247 . S
C45 O55 1.272 . S
O46 Co42 2.004 . S
O46 C51 1.259 . S
Co47 O48 2.061 . S
Co47 O53 2.052 . S
Co47 O55 2.135 . S
O48 Co47 2.061 . S
O48 C51 1.235 . S
C49 O52 1.238 . S
C49 O53 1.241 . S
C50 O43 1.247 . S
C50 O44 1.261 . S
C51 O46 1.259 . S
C51 O48 1.235 . S
O52 Co42 2.021 . S
O52 C49 1.238 . S
O53 Co47 2.052 . S
O53 C49 1.241 . S
O54 Co42 2.137 . S
O54 C45 1.247 . S
O55 Co42 2.244 . S
O55 C45 1.272 . S
O55 Co47 2.135 . S
Co56 O57 2.216 . S
Co56 O58 2.091 . S
Co56 O60 2.004 . S
Co56 O66 2.021 . S
Co56 O68 2.137 . S
Co56 O69 2.244 . S
O57 Co56 2.216 . S
O57 C64 1.247 . S
O58 Co56 2.091 . S
O58 C64 1.261 . S
C59 O68 1.247 . S
C59 O69 1.272 . S
O60 Co56 2.004 . S
O60 C65 1.259 . S
Co61 O62 2.061 . S
Co61 O67 2.052 . S
Co61 O69 2.135 . S
O62 Co61 2.061 . S
O62 C65 1.235 . S
C63 O66 1.238 . S
C63 O67 1.241 . S
C64 O57 1.247 . S
C64 O58 1.261 . S
C65 O60 1.259 . S
C65 O62 1.235 . S
O66 Co56 2.021 . S
O66 C63 1.238 . S
O67 Co61 2.052 . S
O67 C63 1.241 . S
O68 Co56 2.137 . S
O68 C59 1.247 . S
O69 Co56 2.244 . S
O69 C59 1.272 . S
O69 Co61 2.135 . S
Co70 O71 2.216 . S
Co70 O72 2.091 . S
Co70 O74 2.004 . S
Co70 O80 2.021 . S
Co70 O82 2.137 . S
Co70 O83 2.244 . S
O71 Co70 2.216 . S
O71 C78 1.247 . S
O72 Co70 2.091 . S
O72 C78 1.261 . S
C73 O82 1.247 . S
C73 O83 1.272 . S
O74 Co70 2.004 . S
O74 C79 1.259 . S
Co75 O76 2.061 . S
Co75 O81 2.052 . S
Co75 O83 2.135 . S
O76 Co75 2.061 . S
O76 C79 1.235 . S
C77 O80 1.238 . S
C77 O81 1.241 . S
C78 O71 1.247 . S
C78 O72 1.261 . S
C79 O74 1.259 . S
C79 O76 1.235 . S
O80 Co70 2.021 . S
O80 C77 1.238 . S
O81 Co75 2.052 . S
O81 C77 1.241 . S
O82 Co70 2.137 . S
O82 C73 1.247 . S
O83 Co70 2.244 . S
O83 C73 1.272 . S
O83 Co75 2.135 . S
Co84 O85 2.216 . S
Co84 O86 2.091 . S
Co84 O88 2.004 . S
Co84 O94 2.021 . S
Co84 O96 2.137 . S
Co84 O97 2.244 . S
O85 Co84 2.216 . S
O85 C92 1.247 . S
O86 Co84 2.091 . S
O86 C92 1.261 . S
C87 O96 1.247 . S
C87 O97 1.272 . S
O88 Co84 2.004 . S
O88 C93 1.259 . S
Co89 O90 2.061 . S
Co89 O95 2.052 . S
Co89 O97 2.135 . S
O90 Co89 2.061 . S
O90 C93 1.235 . S
C91 O94 1.238 . S
C91 O95 1.241 . S
C92 O85 1.247 . S
C92 O86 1.261 . S
C93 O88 1.259 . S
C93 O90 1.235 . S
O94 Co84 2.021 . S
O94 C91 1.238 . S
O95 Co89 2.052 . S
O95 C91 1.241 . S
O96 Co84 2.137 . S
O96 C87 1.247 . S
O97 Co84 2.244 . S
O97 C87 1.272 . S
O97 Co89 2.135 . S
Co98 O99 2.216 . S
Co98 O100 2.091 . S
Co98 O102 2.004 . S
Co98 O108 2.021 . S
Co98 O110 2.137 . S
Co98 O111 2.244 . S
O99 Co98 2.216 . S
O99 C106 1.247 . S
O100 Co98 2.091 . S
O100 C106 1.261 . S
C101 O110 1.247 . S
C101 O111 1.272 . S
O102 Co98 2.004 . S
O102 C107 1.259 . S
Co103 O104 2.061 . S
Co103 O109 2.052 . S
Co103 O111 2.135 . S
O104 Co103 2.061 . S
O104 C107 1.235 . S
C105 O108 1.238 . S
C105 O109 1.241 . S
C106 O99 1.247 . S
C106 O100 1.261 . S
C107 O102 1.259 . S
C107 O104 1.235 . S
O108 Co98 2.021 . S
O108 C105 1.238 . S
O109 Co103 2.052 . S
O109 C105 1.241 . S
O110 Co98 2.137 . S
O110 C101 1.247 . S
O111 Co98 2.244 . S
O111 C101 1.272 . S
O111 Co103 2.135 . S
Co112 O113 2.216 . S
Co112 O114 2.091 . S
Co112 O116 2.004 . S
Co112 O122 2.021 . S
Co112 O124 2.137 . S
Co112 O125 2.244 . S
O113 Co112 2.216 . S
O113 C120 1.247 . S
O114 Co112 2.091 . S
O114 C120 1.261 . S
C115 O124 1.247 . S
C115 O125 1.272 . S
O116 Co112 2.004 . S
O116 C121 1.259 . S
Co117 O118 2.061 . S
Co117 O123 2.052 . S
Co117 O125 2.135 . S
O118 Co117 2.061 . S
O118 C121 1.235 . S
C119 O122 1.238 . S
C119 O123 1.241 . S
C120 O113 1.247 . S
C120 O114 1.261 . S
C121 O116 1.259 . S
C121 O118 1.235 . S
O122 Co112 2.021 . S
O122 C119 1.238 . S
O123 Co117 2.052 . S
O123 C119 1.241 . S
O124 Co112 2.137 . S
O124 C115 1.247 . S
O125 Co112 2.244 . S
O125 C115 1.272 . S
O125 Co117 2.135 . S
Co126 O127 2.216 . S
Co126 O128 2.091 . S
Co126 O130 2.004 . S
Co126 O136 2.021 . S
Co126 O138 2.137 . S
Co126 O139 2.244 . S
O127 Co126 2.216 . S
O127 C134 1.247 . S
O128 Co126 2.091 . S
O128 C134 1.261 . S
C129 O138 1.247 . S
C129 O139 1.272 . S
O130 Co126 2.004 . S
O130 C135 1.259 . S
Co131 O132 2.061 . S
Co131 O137 2.052 . S
Co131 O139 2.135 . S
O132 Co131 2.061 . S
O132 C135 1.235 . S
C133 O136 1.238 . S
C133 O137 1.241 . S
C134 O127 1.247 . S
C134 O128 1.261 . S
C135 O130 1.259 . S
C135 O132 1.235 . S
O136 Co126 2.021 . S
O136 C133 1.238 . S
O137 Co131 2.052 . S
O137 C133 1.241 . S
O138 Co126 2.137 . S
O138 C129 1.247 . S
O139 Co126 2.244 . S
O139 C129 1.272 . S
O139 Co131 2.135 . S
Co140 O141 2.216 . S
Co140 O142 2.091 . S
Co140 O144 2.004 . S
Co140 O150 2.021 . S
Co140 O152 2.137 . S
Co140 O153 2.244 . S
O141 Co140 2.216 . S
O141 C148 1.247 . S
O142 Co140 2.091 . S
O142 C148 1.261 . S
C143 O152 1.247 . S
C143 O153 1.272 . S
O144 Co140 2.004 . S
O144 C149 1.259 . S
Co145 O146 2.061 . S
Co145 O151 2.052 . S
Co145 O153 2.135 . S
O146 Co145 2.061 . S
O146 C149 1.235 . S
C147 O150 1.238 . S
C147 O151 1.241 . S
C148 O141 1.247 . S
C148 O142 1.261 . S
C149 O144 1.259 . S
C149 O146 1.235 . S
O150 Co140 2.021 . S
O150 C147 1.238 . S
O151 Co145 2.052 . S
O151 C147 1.241 . S
O152 Co140 2.137 . S
O152 C143 1.247 . S
O153 Co140 2.244 . S
O153 C143 1.272 . S
O153 Co145 2.135 . S
Co154 O155 2.216 . S
Co154 O156 2.091 . S
Co154 O158 2.004 . S
Co154 O164 2.021 . S
Co154 O166 2.137 . S
Co154 O167 2.244 . S
O155 Co154 2.216 . S
O155 C162 1.247 . S
O156 Co154 2.091 . S
O156 C162 1.261 . S
C157 O166 1.247 . S
C157 O167 1.272 . S
O158 Co154 2.004 . S
O158 C163 1.259 . S
Co159 O160 2.061 . S
Co159 O165 2.052 . S
Co159 O167 2.135 . S
O160 Co159 2.061 . S
O160 C163 1.235 . S
C161 O164 1.238 . S
C161 O165 1.241 . S
C162 O155 1.247 . S
C162 O156 1.261 . S
C163 O158 1.259 . S
C163 O160 1.235 . S
O164 Co154 2.021 . S
O164 C161 1.238 . S
O165 Co159 2.052 . S
O165 C161 1.241 . S
O166 Co154 2.137 . S
O166 C157 1.247 . S
O167 Co154 2.244 . S
O167 C157 1.272 . S
O167 Co159 2.135 . S
Co168 O169 2.216 . S
Co168 O170 2.091 . S
Co168 O172 2.004 . S
Co168 O178 2.021 . S
Co168 O180 2.137 . S
Co168 O181 2.244 . S
O169 Co168 2.216 . S
O169 C176 1.247 . S
O170 Co168 2.091 . S
O170 C176 1.261 . S
C171 O180 1.247 . S
C171 O181 1.272 . S
O172 Co168 2.004 . S
O172 C177 1.259 . S
Co173 O174 2.061 . S
Co173 O179 2.052 . S
Co173 O181 2.135 . S
O174 Co173 2.061 . S
O174 C177 1.235 . S
C175 O178 1.238 . S
C175 O179 1.241 . S
C176 O169 1.247 . S
C176 O170 1.261 . S
C177 O172 1.259 . S
C177 O174 1.235 . S
O178 Co168 2.021 . S
O178 C175 1.238 . S
O179 Co173 2.052 . S
O179 C175 1.241 . S
O180 Co168 2.137 . S
O180 C171 1.247 . S
O181 Co168 2.244 . S
O181 C171 1.272 . S
O181 Co173 2.135 . S
Co182 O183 2.216 . S
Co182 O184 2.091 . S
Co182 O186 2.004 . S
Co182 O192 2.021 . S
Co182 O194 2.137 . S
Co182 O195 2.244 . S
O183 Co182 2.216 . S
O183 C190 1.247 . S
O184 Co182 2.091 . S
O184 C190 1.261 . S
C185 O194 1.247 . S
C185 O195 1.272 . S
O186 Co182 2.004 . S
O186 C191 1.259 . S
Co187 O188 2.061 . S
Co187 O193 2.052 . S
Co187 O195 2.135 . S
O188 Co187 2.061 . S
O188 C191 1.235 . S
C189 O192 1.238 . S
C189 O193 1.241 . S
C190 O183 1.247 . S
C190 O184 1.261 . S
C191 O186 1.259 . S
C191 O188 1.235 . S
O192 Co182 2.021 . S
O192 C189 1.238 . S
O193 Co187 2.052 . S
O193 C189 1.241 . S
O194 Co182 2.137 . S
O194 C185 1.247 . S
O195 Co182 2.244 . S
O195 C185 1.272 . S
O195 Co187 2.135 . S
Co196 O197 2.216 . S
Co196 O198 2.091 . S
Co196 O200 2.004 . S
Co196 O206 2.021 . S
Co196 O208 2.137 . S
Co196 O209 2.244 . S
O197 Co196 2.216 . S
O197 C204 1.247 . S
O198 Co196 2.091 . S
O198 C204 1.261 . S
C199 O208 1.247 . S
C199 O209 1.272 . S
O200 Co196 2.004 . S
O200 C205 1.259 . S
Co201 O202 2.061 . S
Co201 O207 2.052 . S
Co201 O209 2.135 . S
O202 Co201 2.061 . S
O202 C205 1.235 . S
C203 O206 1.238 . S
C203 O207 1.241 . S
C204 O197 1.247 . S
C204 O198 1.261 . S
C205 O200 1.259 . S
C205 O202 1.235 . S
O206 Co196 2.021 . S
O206 C203 1.238 . S
O207 Co201 2.052 . S
O207 C203 1.241 . S
O208 Co196 2.137 . S
O208 C199 1.247 . S
O209 Co196 2.244 . S
O209 C199 1.272 . S
O209 Co201 2.135 . S
Co210 O211 2.216 . S
Co210 O212 2.091 . S
Co210 O214 2.004 . S
Co210 O220 2.021 . S
Co210 O222 2.137 . S
Co210 O223 2.244 . S
O211 Co210 2.216 . S
O211 C218 1.247 . S
O212 Co210 2.091 . S
O212 C218 1.261 . S
C213 O222 1.247 . S
C213 O223 1.272 . S
O214 Co210 2.004 . S
O214 C219 1.259 . S
Co215 O216 2.061 . S
Co215 O221 2.052 . S
Co215 O223 2.135 . S
O216 Co215 2.061 . S
O216 C219 1.235 . S
C217 O220 1.238 . S
C217 O221 1.241 . S
C218 O211 1.247 . S
C218 O212 1.261 . S
C219 O214 1.259 . S
C219 O216 1.235 . S
O220 Co210 2.021 . S
O220 C217 1.238 . S
O221 Co215 2.052 . S
O221 C217 1.241 . S
O222 Co210 2.137 . S
O222 C213 1.247 . S
O223 Co210 2.244 . S
O223 C213 1.272 . S
O223 Co215 2.135 . S
Co224 O225 2.216 . S
Co224 O226 2.091 . S
Co224 O228 2.004 . S
Co224 O234 2.021 . S
Co224 O236 2.137 . S
Co224 O237 2.244 . S
O225 Co224 2.216 . S
O225 C232 1.247 . S
O226 Co224 2.091 . S
O226 C232 1.261 . S
C227 O236 1.247 . S
C227 O237 1.272 . S
O228 Co224 2.004 . S
O228 C233 1.259 . S
Co229 O230 2.061 . S
Co229 O235 2.052 . S
Co229 O237 2.135 . S
O230 Co229 2.061 . S
O230 C233 1.235 . S
C231 O234 1.238 . S
C231 O235 1.241 . S
C232 O225 1.247 . S
C232 O226 1.261 . S
C233 O228 1.259 . S
C233 O230 1.235 . S
O234 Co224 2.021 . S
O234 C231 1.238 . S
O235 Co229 2.052 . S
O235 C231 1.241 . S
O236 Co224 2.137 . S
O236 C227 1.247 . S
O237 Co224 2.244 . S
O237 C227 1.272 . S
O237 Co229 2.135 . S
Co238 O239 2.216 . S
Co238 O240 2.091 . S
Co238 O242 2.004 . S
Co238 O248 2.021 . S
Co238 O250 2.137 . S
Co238 O251 2.244 . S
O239 Co238 2.216 . S
O239 C246 1.247 . S
O240 Co238 2.091 . S
O240 C246 1.261 . S
C241 O250 1.247 . S
C241 O251 1.272 . S
O242 Co238 2.004 . S
O242 C247 1.259 . S
Co243 O244 2.061 . S
Co243 O249 2.052 . S
Co243 O251 2.135 . S
O244 Co243 2.061 . S
O244 C247 1.235 . S
C245 O248 1.238 . S
C245 O249 1.241 . S
C246 O239 1.247 . S
C246 O240 1.261 . S
C247 O242 1.259 . S
C247 O244 1.235 . S
O248 Co238 2.021 . S
O248 C245 1.238 . S
O249 Co243 2.052 . S
O249 C245 1.241 . S
O250 Co238 2.137 . S
O250 C241 1.247 . S
O251 Co238 2.244 . S
O251 C241 1.272 . S
O251 Co243 2.135 . S
Co252 O253 2.216 . S
Co252 O254 2.091 . S
Co252 O256 2.004 . S
Co252 O262 2.021 . S
Co252 O264 2.137 . S
Co252 O265 2.244 . S
O253 Co252 2.216 . S
O253 C260 1.247 . S
O254 Co252 2.091 . S
O254 C260 1.261 . S
C255 O264 1.247 . S
C255 O265 1.272 . S
O256 Co252 2.004 . S
O256 C261 1.259 . S
Co257 O258 2.061 . S
Co257 O263 2.052 . S
Co257 O265 2.135 . S
O258 Co257 2.061 . S
O258 C261 1.235 . S
C259 O262 1.238 . S
C259 O263 1.241 . S
C260 O253 1.247 . S
C260 O254 1.261 . S
C261 O256 1.259 . S
C261 O258 1.235 . S
O262 Co252 2.021 . S
O262 C259 1.238 . S
O263 Co257 2.052 . S
O263 C259 1.241 . S
O264 Co252 2.137 . S
O264 C255 1.247 . S
O265 Co252 2.244 . S
O265 C255 1.272 . S
O265 Co257 2.135 . S
Co266 O267 2.216 . S
Co266 O268 2.091 . S
Co266 O270 2.004 . S
Co266 O276 2.021 . S
Co266 O278 2.137 . S
Co266 O279 2.244 . S
O267 Co266 2.216 . S
O267 C274 1.247 . S
O268 Co266 2.091 . S
O268 C274 1.261 . S
C269 O278 1.247 . S
C269 O279 1.272 . S
O270 Co266 2.004 . S
O270 C275 1.259 . S
Co271 O272 2.061 . S
Co271 O277 2.052 . S
Co271 O279 2.135 . S
O272 Co271 2.061 . S
O272 C275 1.235 . S
C273 O276 1.238 . S
C273 O277 1.241 . S
C274 O267 1.247 . S
C274 O268 1.261 . S
C275 O270 1.259 . S
C275 O272 1.235 . S
O276 Co266 2.021 . S
O276 C273 1.238 . S
O277 Co271 2.052 . S
O277 C273 1.241 . S
O278 Co266 2.137 . S
O278 C269 1.247 . S
O279 Co266 2.244 . S
O279 C269 1.272 . S
O279 Co271 2.135 . S
Co280 O281 2.216 . S
Co280 O282 2.091 . S
Co280 O284 2.004 . S
Co280 O290 2.021 . S
Co280 O292 2.137 . S
Co280 O293 2.244 . S
O281 Co280 2.216 . S
O281 C288 1.247 . S
O282 Co280 2.091 . S
O282 C288 1.261 . S
C283 O292 1.247 . S
C283 O293 1.272 . S
O284 Co280 2.004 . S
O284 C289 1.259 . S
Co285 O286 2.061 . S
Co285 O291 2.052 . S
Co285 O293 2.135 . S
O286 Co285 2.061 . S
O286 C289 1.235 . S
C287 O290 1.238 . S
C287 O291 1.241 . S
C288 O281 1.247 . S
C288 O282 1.261 . S
C289 O284 1.259 . S
C289 O286 1.235 . S
O290 Co280 2.021 . S
O290 C287 1.238 . S
O291 Co285 2.052 . S
O291 C287 1.241 . S
O292 Co280 2.137 . S
O292 C283 1.247 . S
O293 Co280 2.244 . S
O293 C283 1.272 . S
O293 Co285 2.135 . S
Co294 O295 2.216 . S
Co294 O296 2.091 . S
Co294 O298 2.004 . S
Co294 O304 2.021 . S
Co294 O306 2.137 . S
Co294 O307 2.244 . S
O295 Co294 2.216 . S
O295 C302 1.247 . S
O296 Co294 2.091 . S
O296 C302 1.261 . S
C297 O306 1.247 . S
C297 O307 1.272 . S
O298 Co294 2.004 . S
O298 C303 1.259 . S
Co299 O300 2.061 . S
Co299 O305 2.052 . S
Co299 O307 2.135 . S
O300 Co299 2.061 . S
O300 C303 1.235 . S
C301 O304 1.238 . S
C301 O305 1.241 . S
C302 O295 1.247 . S
C302 O296 1.261 . S
C303 O298 1.259 . S
C303 O300 1.235 . S
O304 Co294 2.021 . S
O304 C301 1.238 . S
O305 Co299 2.052 . S
O305 C301 1.241 . S
O306 Co294 2.137 . S
O306 C297 1.247 . S
O307 Co294 2.244 . S
O307 C297 1.272 . S
O307 Co299 2.135 . S
Co308 O309 2.216 . S
Co308 O310 2.091 . S
Co308 O312 2.004 . S
Co308 O318 2.021 . S
Co308 O320 2.137 . S
Co308 O321 2.244 . S
O309 Co308 2.216 . S
O309 C316 1.247 . S
O310 Co308 2.091 . S
O310 C316 1.261 . S
C311 O320 1.247 . S
C311 O321 1.272 . S
O312 Co308 2.004 . S
O312 C317 1.259 . S
Co313 O314 2.061 . S
Co313 O319 2.052 . S
Co313 O321 2.135 . S
O314 Co313 2.061 . S
O314 C317 1.235 . S
C315 O318 1.238 . S
C315 O319 1.241 . S
C316 O309 1.247 . S
C316 O310 1.261 . S
C317 O312 1.259 . S
C317 O314 1.235 . S
O318 Co308 2.021 . S
O318 C315 1.238 . S
O319 Co313 2.052 . S
O319 C315 1.241 . S
O320 Co308 2.137 . S
O320 C311 1.247 . S
O321 Co308 2.244 . S
O321 C311 1.272 . S
O321 Co313 2.135 . S
Co322 O323 2.216 . S
Co322 O324 2.091 . S
Co322 O326 2.004 . S
Co322 O332 2.021 . S
Co322 O334 2.137 . S
Co322 O335 2.244 . S
O323 Co322 2.216 . S
O323 C330 1.247 . S
O324 Co322 2.091 . S
O324 C330 1.261 . S
C325 O334 1.247 . S
C325 O335 1.272 . S
O326 Co322 2.004 . S
O326 C331 1.259 . S
Co327 O328 2.061 . S
Co327 O333 2.052 . S
Co327 O335 2.135 . S
O328 Co327 2.061 . S
O328 C331 1.235 . S
C329 O332 1.238 . S
C329 O333 1.241 . S
C330 O323 1.247 . S
C330 O324 1.261 . S
C331 O326 1.259 . S
C331 O328 1.235 . S
O332 Co322 2.021 . S
O332 C329 1.238 . S
O333 Co327 2.052 . S
O333 C329 1.241 . S
O334 Co322 2.137 . S
O334 C325 1.247 . S
O335 Co322 2.244 . S
O335 C325 1.272 . S
O335 Co327 2.135 . S
Co336 O337 2.216 . S
Co336 O338 2.091 . S
Co336 O340 2.004 . S
Co336 O346 2.021 . S
Co336 O348 2.137 . S
Co336 O349 2.244 . S
O337 Co336 2.216 . S
O337 C344 1.247 . S
O338 Co336 2.091 . S
O338 C344 1.261 . S
C339 O348 1.247 . S
C339 O349 1.272 . S
O340 Co336 2.004 . S
O340 C345 1.259 . S
Co341 O342 2.061 . S
Co341 O347 2.052 . S
Co341 O349 2.135 . S
O342 Co341 2.061 . S
O342 C345 1.235 . S
C343 O346 1.238 . S
C343 O347 1.241 . S
C344 O337 1.247 . S
C344 O338 1.261 . S
C345 O340 1.259 . S
C345 O342 1.235 . S
O346 Co336 2.021 . S
O346 C343 1.238 . S
O347 Co341 2.052 . S
O347 C343 1.241 . S
O348 Co336 2.137 . S
O348 C339 1.247 . S
O349 Co336 2.244 . S
O349 C339 1.272 . S
O349 Co341 2.135 . S
Co350 O351 2.216 . S
Co350 O352 2.091 . S
Co350 O354 2.004 . S
Co350 O360 2.021 . S
Co350 O362 2.137 . S
Co350 O363 2.244 . S
O351 Co350 2.216 . S
O351 C358 1.247 . S
O352 Co350 2.091 . S
O352 C358 1.261 . S
C353 O362 1.247 . S
C353 O363 1.272 . S
O354 Co350 2.004 . S
O354 C359 1.259 . S
Co355 O356 2.061 . S
Co355 O361 2.052 . S
Co355 O363 2.135 . S
O356 Co355 2.061 . S
O356 C359 1.235 . S
C357 O360 1.238 . S
C357 O361 1.241 . S
C358 O351 1.247 . S
C358 O352 1.261 . S
C359 O354 1.259 . S
C359 O356 1.235 . S
O360 Co350 2.021 . S
O360 C357 1.238 . S
O361 Co355 2.052 . S
O361 C357 1.241 . S
O362 Co350 2.137 . S
O362 C353 1.247 . S
O363 Co350 2.244 . S
O363 C353 1.272 . S
O363 Co355 2.135 . S
Co364 O365 2.216 . S
Co364 O366 2.091 . S
Co364 O368 2.004 . S
Co364 O374 2.021 . S
Co364 O376 2.137 . S
Co364 O377 2.244 . S
O365 Co364 2.216 . S
O365 C372 1.247 . S
O366 Co364 2.091 . S
O366 C372 1.261 . S
C367 O376 1.247 . S
C367 O377 1.272 . S
O368 Co364 2.004 . S
O368 C373 1.259 . S
Co369 O370 2.061 . S
Co369 O375 2.052 . S
Co369 O377 2.135 . S
O370 Co369 2.061 . S
O370 C373 1.235 . S
C371 O374 1.238 . S
C371 O375 1.241 . S
C372 O365 1.247 . S
C372 O366 1.261 . S
C373 O368 1.259 . S
C373 O370 1.235 . S
O374 Co364 2.021 . S
O374 C371 1.238 . S
O375 Co369 2.052 . S
O375 C371 1.241 . S
O376 Co364 2.137 . S
O376 C367 1.247 . S
O377 Co364 2.244 . S
O377 C367 1.272 . S
O377 Co369 2.135 . S
Co378 O379 2.216 . S
Co378 O380 2.091 . S
Co378 O382 2.004 . S
Co378 O388 2.021 . S
Co378 O390 2.137 . S
Co378 O391 2.244 . S
O379 Co378 2.216 . S
O379 C386 1.247 . S
O380 Co378 2.091 . S
O380 C386 1.261 . S
C381 O390 1.247 . S
C381 O391 1.272 . S
O382 Co378 2.004 . S
O382 C387 1.259 . S
Co383 O384 2.061 . S
Co383 O389 2.052 . S
Co383 O391 2.135 . S
O384 Co383 2.061 . S
O384 C387 1.235 . S
C385 O388 1.238 . S
C385 O389 1.241 . S
C386 O379 1.247 . S
C386 O380 1.261 . S
C387 O382 1.259 . S
C387 O384 1.235 . S
O388 Co378 2.021 . S
O388 C385 1.238 . S
O389 Co383 2.052 . S
O389 C385 1.241 . S
O390 Co378 2.137 . S
O390 C381 1.247 . S
O391 Co378 2.244 . S
O391 C381 1.272 . S
O391 Co383 2.135 . S
Co392 O393 2.216 . S
Co392 O394 2.091 . S
Co392 O396 2.004 . S
Co392 O402 2.021 . S
Co392 O404 2.137 . S
Co392 O405 2.244 . S
O393 Co392 2.216 . S
O393 C400 1.247 . S
O394 Co392 2.091 . S
O394 C400 1.261 . S
C395 O404 1.247 . S
C395 O405 1.272 . S
O396 Co392 2.004 . S
O396 C401 1.259 . S
Co397 O398 2.061 . S
Co397 O403 2.052 . S
Co397 O405 2.135 . S
O398 Co397 2.061 . S
O398 C401 1.235 . S
C399 O402 1.238 . S
C399 O403 1.241 . S
C400 O393 1.247 . S
C400 O394 1.261 . S
C401 O396 1.259 . S
C401 O398 1.235 . S
O402 Co392 2.021 . S
O402 C399 1.238 . S
O403 Co397 2.052 . S
O403 C399 1.241 . S
O404 Co392 2.137 . S
O404 C395 1.247 . S
O405 Co392 2.244 . S
O405 C395 1.272 . S
O405 Co397 2.135 . S
Co406 O407 2.216 . S
Co406 O408 2.091 . S
Co406 O410 2.004 . S
Co406 O416 2.021 . S
Co406 O418 2.137 . S
Co406 O419 2.244 . S
O407 Co406 2.216 . S
O407 C414 1.247 . S
O408 Co406 2.091 . S
O408 C414 1.261 . S
C409 O418 1.247 . S
C409 O419 1.272 . S
O410 Co406 2.004 . S
O410 C415 1.259 . S
Co411 O412 2.061 . S
Co411 O417 2.052 . S
Co411 O419 2.135 . S
O412 Co411 2.061 . S
O412 C415 1.235 . S
C413 O416 1.238 . S
C413 O417 1.241 . S
C414 O407 1.247 . S
C414 O408 1.261 . S
C415 O410 1.259 . S
C415 O412 1.235 . S
O416 Co406 2.021 . S
O416 C413 1.238 . S
O417 Co411 2.052 . S
O417 C413 1.241 . S
O418 Co406 2.137 . S
O418 C409 1.247 . S
O419 Co406 2.244 . S
O419 C409 1.272 . S
O419 Co411 2.135 . S
Co420 O421 2.216 . S
Co420 O422 2.091 . S
Co420 O424 2.004 . S
Co420 O430 2.021 . S
Co420 O432 2.137 . S
Co420 O433 2.244 . S
O421 Co420 2.216 . S
O421 C428 1.247 . S
O422 Co420 2.091 . S
O422 C428 1.261 . S
C423 O432 1.247 . S
C423 O433 1.272 . S
O424 Co420 2.004 . S
O424 C429 1.259 . S
Co425 O426 2.061 . S
Co425 O431 2.052 . S
Co425 O433 2.135 . S
O426 Co425 2.061 . S
O426 C429 1.235 . S
C427 O430 1.238 . S
C427 O431 1.241 . S
C428 O421 1.247 . S
C428 O422 1.261 . S
C429 O424 1.259 . S
C429 O426 1.235 . S
O430 Co420 2.021 . S
O430 C427 1.238 . S
O431 Co425 2.052 . S
O431 C427 1.241 . S
O432 Co420 2.137 . S
O432 C423 1.247 . S
O433 Co420 2.244 . S
O433 C423 1.272 . S
O433 Co425 2.135 . S
Co434 O435 2.216 . S
Co434 O436 2.091 . S
Co434 O438 2.004 . S
Co434 O444 2.021 . S
Co434 O446 2.137 . S
Co434 O447 2.244 . S
O435 Co434 2.216 . S
O435 C442 1.247 . S
O436 Co434 2.091 . S
O436 C442 1.261 . S
C437 O446 1.247 . S
C437 O447 1.272 . S
O438 Co434 2.004 . S
O438 C443 1.259 . S
Co439 O440 2.061 . S
Co439 O445 2.052 . S
Co439 O447 2.135 . S
O440 Co439 2.061 . S
O440 C443 1.235 . S
C441 O444 1.238 . S
C441 O445 1.241 . S
C442 O435 1.247 . S
C442 O436 1.261 . S
C443 O438 1.259 . S
C443 O440 1.235 . S
O444 Co434 2.021 . S
O444 C441 1.238 . S
O445 Co439 2.052 . S
O445 C441 1.241 . S
O446 Co434 2.137 . S
O446 C437 1.247 . S
O447 Co434 2.244 . S
O447 C437 1.272 . S
O447 Co439 2.135 . S
Co448 O449 2.216 . S
Co448 O450 2.091 . S
Co448 O452 2.004 . S
Co448 O458 2.021 . S
Co448 O460 2.137 . S
Co448 O461 2.244 . S
O449 Co448 2.216 . S
O449 C456 1.247 . S
O450 Co448 2.091 . S
O450 C456 1.261 . S
C451 O460 1.247 . S
C451 O461 1.272 . S
O452 Co448 2.004 . S
O452 C457 1.259 . S
Co453 O454 2.061 . S
Co453 O459 2.052 . S
Co453 O461 2.135 . S
O454 Co453 2.061 . S
O454 C457 1.235 . S
C455 O458 1.238 . S
C455 O459 1.241 . S
C456 O449 1.247 . S
C456 O450 1.261 . S
C457 O452 1.259 . S
C457 O454 1.235 . S
O458 Co448 2.021 . S
O458 C455 1.238 . S
O459 Co453 2.052 . S
O459 C455 1.241 . S
O460 Co448 2.137 . S
O460 C451 1.247 . S
O461 Co448 2.244 . S
O461 C451 1.272 . S
O461 Co453 2.135 . S
Co462 O463 2.216 . S
Co462 O464 2.091 . S
Co462 O466 2.004 . S
Co462 O472 2.021 . S
Co462 O474 2.137 . S
Co462 O475 2.244 . S
O463 Co462 2.216 . S
O463 C470 1.247 . S
O464 Co462 2.091 . S
O464 C470 1.261 . S
C465 O474 1.247 . S
C465 O475 1.272 . S
O466 Co462 2.004 . S
O466 C471 1.259 . S
Co467 O468 2.061 . S
Co467 O473 2.052 . S
Co467 O475 2.135 . S
O468 Co467 2.061 . S
O468 C471 1.235 . S
C469 O472 1.238 . S
C469 O473 1.241 . S
C470 O463 1.247 . S
C470 O464 1.261 . S
C471 O466 1.259 . S
C471 O468 1.235 . S
O472 Co462 2.021 . S
O472 C469 1.238 . S
O473 Co467 2.052 . S
O473 C469 1.241 . S
O474 Co462 2.137 . S
O474 C465 1.247 . S
O475 Co462 2.244 . S
O475 C465 1.272 . S
O475 Co467 2.135 . S
Co476 O477 2.216 . S
Co476 O478 2.091 . S
Co476 O480 2.004 . S
Co476 O486 2.021 . S
Co476 O488 2.137 . S
Co476 O489 2.244 . S
O477 Co476 2.216 . S
O477 C484 1.247 . S
O478 Co476 2.091 . S
O478 C484 1.261 . S
C479 O488 1.247 . S
C479 O489 1.272 . S
O480 Co476 2.004 . S
O480 C485 1.259 . S
Co481 O482 2.061 . S
Co481 O487 2.052 . S
Co481 O489 2.135 . S
O482 Co481 2.061 . S
O482 C485 1.235 . S
C483 O486 1.238 . S
C483 O487 1.241 . S
C484 O477 1.247 . S
C484 O478 1.261 . S
C485 O480 1.259 . S
C485 O482 1.235 . S
O486 Co476 2.021 . S
O486 C483 1.238 . S
O487 Co481 2.052 . S
O487 C483 1.241 . S
O488 Co476 2.137 . S
O488 C479 1.247 . S
O489 Co476 2.244 . S
O489 C479 1.272 . S
O489 Co481 2.135 . S
Co490 O491 2.216 . S
Co490 O492 2.091 . S
Co490 O494 2.004 . S
Co490 O500 2.021 . S
Co490 O502 2.137 . S
Co490 O503 2.244 . S
O491 Co490 2.216 . S
O491 C498 1.247 . S
O492 Co490 2.091 . S
O492 C498 1.261 . S
C493 O502 1.247 . S
C493 O503 1.272 . S
O494 Co490 2.004 . S
O494 C499 1.259 . S
Co495 O496 2.061 . S
Co495 O501 2.052 . S
Co495 O503 2.135 . S
O496 Co495 2.061 . S
O496 C499 1.235 . S
C497 O500 1.238 . S
C497 O501 1.241 . S
C498 O491 1.247 . S
C498 O492 1.261 . S
C499 O494 1.259 . S
C499 O496 1.235 . S
O500 Co490 2.021 . S
O500 C497 1.238 . S
O501 Co495 2.052 . S
O501 C497 1.241 . S
O502 Co490 2.137 . S
O502 C493 1.247 . S
O503 Co490 2.244 . S
O503 C493 1.272 . S
O503 Co495 2.135 . S
Co504 O505 2.216 . S
Co504 O506 2.091 . S
Co504 O508 2.004 . S
Co504 O514 2.021 . S
Co504 O516 2.137 . S
Co504 O517 2.244 . S
O505 Co504 2.216 . S
O505 C512 1.247 . S
O506 Co504 2.091 . S
O506 C512 1.261 . S
C507 O516 1.247 . S
C507 O517 1.272 . S
O508 Co504 2.004 . S
O508 C513 1.259 . S
Co509 O510 2.061 . S
Co509 O515 2.052 . S
Co509 O517 2.135 . S
O510 Co509 2.061 . S
O510 C513 1.235 . S
C511 O514 1.238 . S
C511 O515 1.241 . S
C512 O505 1.247 . S
C512 O506 1.261 . S
C513 O508 1.259 . S
C513 O510 1.235 . S
O514 Co504 2.021 . S
O514 C511 1.238 . S
O515 Co509 2.052 . S
O515 C511 1.241 . S
O516 Co504 2.137 . S
O516 C507 1.247 . S
O517 Co504 2.244 . S
O517 C507 1.272 . S
O517 Co509 2.135 . S
Co518 O519 2.216 . S
Co518 O520 2.091 . S
Co518 O522 2.004 . S
Co518 O528 2.021 . S
Co518 O530 2.137 . S
Co518 O531 2.244 . S
O519 Co518 2.216 . S
O519 C526 1.247 . S
O520 Co518 2.091 . S
O520 C526 1.261 . S
C521 O530 1.247 . S
C521 O531 1.272 . S
O522 Co518 2.004 . S
O522 C527 1.259 . S
Co523 O524 2.061 . S
Co523 O529 2.052 . S
Co523 O531 2.135 . S
O524 Co523 2.061 . S
O524 C527 1.235 . S
C525 O528 1.238 . S
C525 O529 1.241 . S
C526 O519 1.247 . S
C526 O520 1.261 . S
C527 O522 1.259 . S
C527 O524 1.235 . S
O528 Co518 2.021 . S
O528 C525 1.238 . S
O529 Co523 2.052 . S
O529 C525 1.241 . S
O530 Co518 2.137 . S
O530 C521 1.247 . S
O531 Co518 2.244 . S
O531 C521 1.272 . S
O531 Co523 2.135 . S
Co532 O533 2.216 . S
Co532 O534 2.091 . S
Co532 O536 2.004 . S
Co532 O542 2.021 . S
Co532 O544 2.137 . S
Co532 O545 2.244 . S
O533 Co532 2.216 . S
O533 C540 1.247 . S
O534 Co532 2.091 . S
O534 C540 1.261 . S
C535 O544 1.247 . S
C535 O545 1.272 . S
O536 Co532 2.004 . S
O536 C541 1.259 . S
Co537 O538 2.061 . S
Co537 O543 2.052 . S
Co537 O545 2.135 . S
O538 Co537 2.061 . S
O538 C541 1.235 . S
C539 O542 1.238 . S
C539 O543 1.241 . S
C540 O533 1.247 . S
C540 O534 1.261 . S
C541 O536 1.259 . S
C541 O538 1.235 . S
O542 Co532 2.021 . S
O542 C539 1.238 . S
O543 Co537 2.052 . S
O543 C539 1.241 . S
O544 Co532 2.137 . S
O544 C535 1.247 . S
O545 Co532 2.244 . S
O545 C535 1.272 . S
O545 Co537 2.135 . S
Co546 O547 2.216 . S
Co546 O548 2.091 . S
Co546 O550 2.004 . S
Co546 O556 2.021 . S
Co546 O558 2.137 . S
Co546 O559 2.244 . S
O547 Co546 2.216 . S
O547 C554 1.247 . S
O548 Co546 2.091 . S
O548 C554 1.261 . S
C549 O558 1.247 . S
C549 O559 1.272 . S
O550 Co546 2.004 . S
O550 C555 1.259 . S
Co551 O552 2.061 . S
Co551 O557 2.052 . S
Co551 O559 2.135 . S
O552 Co551 2.061 . S
O552 C555 1.235 . S
C553 O556 1.238 . S
C553 O557 1.241 . S
C554 O547 1.247 . S
C554 O548 1.261 . S
C555 O550 1.259 . S
C555 O552 1.235 . S
O556 Co546 2.021 . S
O556 C553 1.238 . S
O557 Co551 2.052 . S
O557 C553 1.241 . S
O558 Co546 2.137 . S
O558 C549 1.247 . S
O559 Co546 2.244 . S
O559 C549 1.272 . S
O559 Co551 2.135 . S
Co560 O561 2.216 . S
Co560 O562 2.091 . S
Co560 O564 2.004 . S
Co560 O570 2.021 . S
Co560 O572 2.137 . S
Co560 O573 2.244 . S
O561 Co560 2.216 . S
O561 C568 1.247 . S
O562 Co560 2.091 . S
O562 C568 1.261 . S
C563 O572 1.247 . S
C563 O573 1.272 . S
O564 Co560 2.004 . S
O564 C569 1.259 . S
Co565 O566 2.061 . S
Co565 O571 2.052 . S
Co565 O573 2.135 . S
O566 Co565 2.061 . S
O566 C569 1.235 . S
C567 O570 1.238 . S
C567 O571 1.241 . S
C568 O561 1.247 . S
C568 O562 1.261 . S
C569 O564 1.259 . S
C569 O566 1.235 . S
O570 Co560 2.021 . S
O570 C567 1.238 . S
O571 Co565 2.052 . S
O571 C567 1.241 . S
O572 Co560 2.137 . S
O572 C563 1.247 . S
O573 Co560 2.244 . S
O573 C563 1.272 . S
O573 Co565 2.135 . S
Co574 O575 2.216 . S
Co574 O576 2.091 . S
Co574 O578 2.004 . S
Co574 O584 2.021 . S
Co574 O586 2.137 . S
Co574 O587 2.244 . S
O575 Co574 2.216 . S
O575 C582 1.247 . S
O576 Co574 2.091 . S
O576 C582 1.261 . S
C577 O586 1.247 . S
C577 O587 1.272 . S
O578 Co574 2.004 . S
O578 C583 1.259 . S
Co579 O580 2.061 . S
Co579 O585 2.052 . S
Co579 O587 2.135 . S
O580 Co579 2.061 . S
O580 C583 1.235 . S
C581 O584 1.238 . S
C581 O585 1.241 . S
C582 O575 1.247 . S
C582 O576 1.261 . S
C583 O578 1.259 . S
C583 O580 1.235 . S
O584 Co574 2.021 . S
O584 C581 1.238 . S
O585 Co579 2.052 . S
O585 C581 1.241 . S
O586 Co574 2.137 . S
O586 C577 1.247 . S
O587 Co574 2.244 . S
O587 C577 1.272 . S
O587 Co579 2.135 . S
Co588 O589 2.216 . S
Co588 O590 2.091 . S
Co588 O592 2.004 . S
Co588 O598 2.021 . S
Co588 O600 2.137 . S
Co588 O601 2.244 . S
O589 Co588 2.216 . S
O589 C596 1.247 . S
O590 Co588 2.091 . S
O590 C596 1.261 . S
C591 O600 1.247 . S
C591 O601 1.272 . S
O592 Co588 2.004 . S
O592 C597 1.259 . S
Co593 O594 2.061 . S
Co593 O599 2.052 . S
Co593 O601 2.135 . S
O594 Co593 2.061 . S
O594 C597 1.235 . S
C595 O598 1.238 . S
C595 O599 1.241 . S
C596 O589 1.247 . S
C596 O590 1.261 . S
C597 O592 1.259 . S
C597 O594 1.235 . S
O598 Co588 2.021 . S
O598 C595 1.238 . S
O599 Co593 2.052 . S
O599 C595 1.241 . S
O600 Co588 2.137 . S
O600 C591 1.247 . S
O601 Co588 2.244 . S
O601 C591 1.272 . S
O601 Co593 2.135 . S
Co602 O603 2.216 . S
Co602 O604 2.091 . S
Co602 O606 2.004 . S
Co602 O612 2.021 . S
Co602 O614 2.137 . S
Co602 O615 2.244 . S
O603 Co602 2.216 . S
O603 C610 1.247 . S
O604 Co602 2.091 . S
O604 C610 1.261 . S
C605 O614 1.247 . S
C605 O615 1.272 . S
O606 Co602 2.004 . S
O606 C611 1.259 . S
Co607 O608 2.061 . S
Co607 O613 2.052 . S
Co607 O615 2.135 . S
O608 Co607 2.061 . S
O608 C611 1.235 . S
C609 O612 1.238 . S
C609 O613 1.241 . S
C610 O603 1.247 . S
C610 O604 1.261 . S
C611 O606 1.259 . S
C611 O608 1.235 . S
O612 Co602 2.021 . S
O612 C609 1.238 . S
O613 Co607 2.052 . S
O613 C609 1.241 . S
O614 Co602 2.137 . S
O614 C605 1.247 . S
O615 Co602 2.244 . S
O615 C605 1.272 . S
O615 Co607 2.135 . S
Co616 O617 2.216 . S
Co616 O618 2.091 . S
Co616 O620 2.004 . S
Co616 O626 2.021 . S
Co616 O628 2.137 . S
Co616 O629 2.244 . S
O617 Co616 2.216 . S
O617 C624 1.247 . S
O618 Co616 2.091 . S
O618 C624 1.261 . S
C619 O628 1.247 . S
C619 O629 1.272 . S
O620 Co616 2.004 . S
O620 C625 1.259 . S
Co621 O622 2.061 . S
Co621 O627 2.052 . S
Co621 O629 2.135 . S
O622 Co621 2.061 . S
O622 C625 1.235 . S
C623 O626 1.238 . S
C623 O627 1.241 . S
C624 O617 1.247 . S
C624 O618 1.261 . S
C625 O620 1.259 . S
C625 O622 1.235 . S
O626 Co616 2.021 . S
O626 C623 1.238 . S
O627 Co621 2.052 . S
O627 C623 1.241 . S
O628 Co616 2.137 . S
O628 C619 1.247 . S
O629 Co616 2.244 . S
O629 C619 1.272 . S
O629 Co621 2.135 . S
Co630 O631 2.216 . S
Co630 O632 2.091 . S
Co630 O634 2.004 . S
Co630 O640 2.021 . S
Co630 O642 2.137 . S
Co630 O643 2.244 . S
O631 Co630 2.216 . S
O631 C638 1.247 . S
O632 Co630 2.091 . S
O632 C638 1.261 . S
C633 O642 1.247 . S
C633 O643 1.272 . S
O634 Co630 2.004 . S
O634 C639 1.259 . S
Co635 O636 2.061 . S
Co635 O641 2.052 . S
Co635 O643 2.135 . S
O636 Co635 2.061 . S
O636 C639 1.235 . S
C637 O640 1.238 . S
C637 O641 1.241 . S
C638 O631 1.247 . S
C638 O632 1.261 . S
C639 O634 1.259 . S
C639 O636 1.235 . S
O640 Co630 2.021 . S
O640 C637 1.238 . S
O641 Co635 2.052 . S
O641 C637 1.241 . S
O642 Co630 2.137 . S
O642 C633 1.247 . S
O643 Co630 2.244 . S
O643 C633 1.272 . S
O643 Co635 2.135 . S
Co644 O645 2.216 . S
Co644 O646 2.091 . S
Co644 O648 2.004 . S
Co644 O654 2.021 . S
Co644 O656 2.137 . S
Co644 O657 2.244 . S
O645 Co644 2.216 . S
O645 C652 1.247 . S
O646 Co644 2.091 . S
O646 C652 1.261 . S
C647 O656 1.247 . S
C647 O657 1.272 . S
O648 Co644 2.004 . S
O648 C653 1.259 . S
Co649 O650 2.061 . S
Co649 O655 2.052 . S
Co649 O657 2.135 . S
O650 Co649 2.061 . S
O650 C653 1.235 . S
C651 O654 1.238 . S
C651 O655 1.241 . S
C652 O645 1.247 . S
C652 O646 1.261 . S
C653 O648 1.259 . S
C653 O650 1.235 . S
O654 Co644 2.021 . S
O654 C651 1.238 . S
O655 Co649 2.052 . S
O655 C651 1.241 . S
O656 Co644 2.137 . S
O656 C647 1.247 . S
O657 Co644 2.244 . S
O657 C647 1.272 . S
O657 Co649 2.135 . S
Co658 O659 2.216 . S
Co658 O660 2.091 . S
Co658 O662 2.004 . S
Co658 O668 2.021 . S
Co658 O670 2.137 . S
Co658 O671 2.244 . S
O659 Co658 2.216 . S
O659 C666 1.247 . S
O660 Co658 2.091 . S
O660 C666 1.261 . S
C661 O670 1.247 . S
C661 O671 1.272 . S
O662 Co658 2.004 . S
O662 C667 1.259 . S
Co663 O664 2.061 . S
Co663 O669 2.052 . S
Co663 O671 2.135 . S
O664 Co663 2.061 . S
O664 C667 1.235 . S
C665 O668 1.238 . S
C665 O669 1.241 . S
C666 O659 1.247 . S
C666 O660 1.261 . S
C667 O662 1.259 . S
C667 O664 1.235 . S
O668 Co658 2.021 . S
O668 C665 1.238 . S
O669 Co663 2.052 . S
O669 C665 1.241 . S
O670 Co658 2.137 . S
O670 C661 1.247 . S
O671 Co658 2.244 . S
O671 C661 1.272 . S
O671 Co663 2.135 . S
H672 C690 0.951 . S
H673 C692 0.951 . S
H674 C694 0.950 . S
H675 C695 0.950 . S
H676 C697 0.950 . S
H677 C700 0.950 . S
H678 C701 0.950 . S
H679 C703 0.950 . S
H680 C704 0.950 . S
H681 C705 0.951 . S
H682 C707 0.951 . S
H683 C709 0.950 . S
H684 C710 0.950 . S
H685 C712 0.950 . S
H686 C715 0.950 . S
H687 C716 0.950 . S
H688 C718 0.950 . S
H689 C719 0.950 . S
C690 H672 0.951 . S
C690 C691 1.366 . S
C690 C692 1.388 . S
C691 C690 1.366 . S
C691 C695 1.385 . S
C692 H673 0.951 . S
C692 C690 1.388 . S
C692 C693 1.366 . S
C693 C692 1.366 . S
C693 C694 1.414 . S
C693 C696 1.499 . S
C694 H674 0.950 . S
C694 C693 1.414 . S
C694 C695 1.374 . S
C695 H675 0.950 . S
C695 C691 1.385 . S
C695 C694 1.374 . S
C696 C693 1.499 . S
C696 C697 1.373 . S
C696 C698 1.389 . S
C697 H676 0.950 . S
C697 C696 1.373 . S
C697 C713 1.377 . S
C698 C696 1.389 . S
C698 C699 1.524 . S
C698 C712 1.377 . S
C699 C698 1.524 . S
C699 C700 1.397 . S
C699 C704 1.363 . S
C700 H677 0.950 . S
C700 C699 1.397 . S
C700 C701 1.334 . S
C701 H678 0.950 . S
C701 C700 1.334 . S
C701 C702 1.287 . S
C702 C701 1.287 . S
C702 C703 1.524 . S
C702 H721 0.913 . S
C703 H679 0.950 . S
C703 C702 1.524 . S
C703 C704 1.415 . S
C704 H680 0.950 . S
C704 C699 1.363 . S
C704 C703 1.415 . S
C705 H681 0.951 . S
C705 C706 1.366 . S
C705 C707 1.388 . S
C706 C705 1.366 . S
C706 C710 1.385 . S
C707 H682 0.951 . S
C707 C705 1.388 . S
C707 C708 1.366 . S
C708 C707 1.366 . S
C708 C709 1.414 . S
C708 C711 1.499 . S
C709 H683 0.950 . S
C709 C708 1.414 . S
C709 C710 1.374 . S
C710 H684 0.950 . S
C710 C706 1.385 . S
C710 C709 1.374 . S
C711 C708 1.499 . S
C711 C712 1.373 . S
C711 C713 1.389 . S
C712 H685 0.950 . S
C712 C698 1.377 . S
C712 C711 1.373 . S
C713 C697 1.377 . S
C713 C711 1.389 . S
C713 C714 1.524 . S
C714 C713 1.524 . S
C714 C715 1.397 . S
C714 C719 1.363 . S
C715 H686 0.950 . S
C715 C714 1.397 . S
C715 C716 1.334 . S
C716 H687 0.950 . S
C716 C715 1.334 . S
C716 C717 1.287 . S
C717 C716 1.287 . S
C717 C718 1.524 . S
C717 H720 0.999 . S
C718 H688 0.950 . S
C718 C717 1.524 . S
C718 C719 1.415 . S
C719 H689 0.950 . S
C719 C714 1.363 . S
C719 C718 1.415 . S
H720 C717 0.999 . S
H721 C702 0.913 . S
H722 C740 0.951 . S
H723 C742 0.951 . S
H724 C744 0.950 . S
H725 C745 0.950 . S
H726 C747 0.950 . S
H727 C750 0.950 . S
H728 C751 0.950 . S
H729 C753 0.950 . S
H730 C754 0.950 . S
H731 C755 0.951 . S
H732 C757 0.951 . S
H733 C759 0.950 . S
H734 C760 0.950 . S
H735 C762 0.950 . S
H736 C765 0.950 . S
H737 C766 0.950 . S
H738 C768 0.950 . S
H739 C769 0.950 . S
C740 H722 0.951 . S
C740 C741 1.366 . S
C740 C742 1.388 . S
C741 C740 1.366 . S
C741 C745 1.385 . S
C742 H723 0.951 . S
C742 C740 1.388 . S
C742 C743 1.366 . S
C743 C742 1.366 . S
C743 C744 1.414 . S
C743 C746 1.499 . S
C744 H724 0.950 . S
C744 C743 1.414 . S
C744 C745 1.374 . S
C745 H725 0.950 . S
C745 C741 1.385 . S
C745 C744 1.374 . S
C746 C743 1.499 . S
C746 C747 1.373 . S
C746 C748 1.389 . S
C747 H726 0.950 . S
C747 C746 1.373 . S
C747 C763 1.377 . S
C748 C746 1.389 . S
C748 C749 1.524 . S
C748 C762 1.377 . S
C749 C748 1.524 . S
C749 C750 1.397 . S
C749 C754 1.363 . S
C750 H727 0.950 . S
C750 C749 1.397 . S
C750 C751 1.334 . S
C751 H728 0.950 . S
C751 C750 1.334 . S
C751 C752 1.287 . S
C752 C751 1.287 . S
C752 C753 1.524 . S
C752 H771 0.913 . S
C753 H729 0.950 . S
C753 C752 1.524 . S
C753 C754 1.415 . S
C754 H730 0.950 . S
C754 C749 1.363 . S
C754 C753 1.415 . S
C755 H731 0.951 . S
C755 C756 1.366 . S
C755 C757 1.388 . S
C756 C755 1.366 . S
C756 C760 1.385 . S
C757 H732 0.951 . S
C757 C755 1.388 . S
C757 C758 1.366 . S
C758 C757 1.366 . S
C758 C759 1.414 . S
C758 C761 1.499 . S
C759 H733 0.950 . S
C759 C758 1.414 . S
C759 C760 1.374 . S
C760 H734 0.950 . S
C760 C756 1.385 . S
C760 C759 1.374 . S
C761 C758 1.499 . S
C761 C762 1.373 . S
C761 C763 1.389 . S
C762 H735 0.950 . S
C762 C748 1.377 . S
C762 C761 1.373 . S
C763 C747 1.377 . S
C763 C761 1.389 . S
C763 C764 1.524 . S
C764 C763 1.524 . S
C764 C765 1.397 . S
C764 C769 1.363 . S
C765 H736 0.950 . S
C765 C764 1.397 . S
C765 C766 1.334 . S
C766 H737 0.950 . S
C766 C765 1.334 . S
C766 C767 1.287 . S
C767 C766 1.287 . S
C767 C768 1.524 . S
C767 H770 0.999 . S
C768 H738 0.950 . S
C768 C767 1.524 . S
C768 C769 1.415 . S
C769 H739 0.950 . S
C769 C764 1.363 . S
C769 C768 1.415 . S
H770 C767 0.999 . S
H771 C752 0.913 . S
H772 C790 0.951 . S
H773 C792 0.951 . S
H774 C794 0.950 . S
H775 C795 0.950 . S
H776 C797 0.950 . S
H777 C800 0.950 . S
H778 C801 0.950 . S
H779 C803 0.950 . S
H780 C804 0.950 . S
H781 C805 0.951 . S
H782 C807 0.951 . S
H783 C809 0.950 . S
H784 C810 0.950 . S
H785 C812 0.950 . S
H786 C815 0.950 . S
H787 C816 0.950 . S
H788 C818 0.950 . S
H789 C819 0.950 . S
C790 H772 0.951 . S
C790 C791 1.366 . S
C790 C792 1.388 . S
C791 C790 1.366 . S
C791 C795 1.385 . S
C792 H773 0.951 . S
C792 C790 1.388 . S
C792 C793 1.366 . S
C793 C792 1.366 . S
C793 C794 1.414 . S
C793 C796 1.499 . S
C794 H774 0.950 . S
C794 C793 1.414 . S
C794 C795 1.374 . S
C795 H775 0.950 . S
C795 C791 1.385 . S
C795 C794 1.374 . S
C796 C793 1.499 . S
C796 C797 1.373 . S
C796 C798 1.389 . S
C797 H776 0.950 . S
C797 C796 1.373 . S
C797 C813 1.377 . S
C798 C796 1.389 . S
C798 C799 1.524 . S
C798 C812 1.377 . S
C799 C798 1.524 . S
C799 C800 1.397 . S
C799 C804 1.363 . S
C800 H777 0.950 . S
C800 C799 1.397 . S
C800 C801 1.334 . S
C801 H778 0.950 . S
C801 C800 1.334 . S
C801 C802 1.287 . S
C802 C801 1.287 . S
C802 C803 1.524 . S
C802 H821 0.913 . S
C803 H779 0.950 . S
C803 C802 1.524 . S
C803 C804 1.415 . S
C804 H780 0.950 . S
C804 C799 1.363 . S
C804 C803 1.415 . S
C805 H781 0.951 . S
C805 C806 1.366 . S
C805 C807 1.388 . S
C806 C805 1.366 . S
C806 C810 1.385 . S
C807 H782 0.951 . S
C807 C805 1.388 . S
C807 C808 1.366 . S
C808 C807 1.366 . S
C808 C809 1.414 . S
C808 C811 1.499 . S
C809 H783 0.950 . S
C809 C808 1.414 . S
C809 C810 1.374 . S
C810 H784 0.950 . S
C810 C806 1.385 . S
C810 C809 1.374 . S
C811 C808 1.499 . S
C811 C812 1.373 . S
C811 C813 1.389 . S
C812 H785 0.950 . S
C812 C798 1.377 . S
C812 C811 1.373 . S
C813 C797 1.377 . S
C813 C811 1.389 . S
C813 C814 1.524 . S
C814 C813 1.524 . S
C814 C815 1.397 . S
C814 C819 1.363 . S
C815 H786 0.950 . S
C815 C814 1.397 . S
C815 C816 1.334 . S
C816 H787 0.950 . S
C816 C815 1.334 . S
C816 C817 1.287 . S
C817 C816 1.287 . S
C817 C818 1.524 . S
C817 H820 0.999 . S
C818 H788 0.950 . S
C818 C817 1.524 . S
C818 C819 1.415 . S
C819 H789 0.950 . S
C819 C814 1.363 . S
C819 C818 1.415 . S
H820 C817 0.999 . S
H821 C802 0.913 . S
H822 C840 0.951 . S
H823 C842 0.951 . S
H824 C844 0.950 . S
H825 C845 0.950 . S
H826 C847 0.950 . S
H827 C850 0.950 . S
H828 C851 0.950 . S
H829 C853 0.950 . S
H830 C854 0.950 . S
H831 C855 0.951 . S
H832 C857 0.951 . S
H833 C859 0.950 . S
H834 C860 0.950 . S
H835 C862 0.950 . S
H836 C865 0.950 . S
H837 C866 0.950 . S
H838 C868 0.950 . S
H839 C869 0.950 . S
C840 H822 0.951 . S
C840 C841 1.366 . S
C840 C842 1.388 . S
C841 C840 1.366 . S
C841 C845 1.385 . S
C842 H823 0.951 . S
C842 C840 1.388 . S
C842 C843 1.366 . S
C843 C842 1.366 . S
C843 C844 1.414 . S
C843 C846 1.499 . S
C844 H824 0.950 . S
C844 C843 1.414 . S
C844 C845 1.374 . S
C845 H825 0.950 . S
C845 C841 1.385 . S
C845 C844 1.374 . S
C846 C843 1.499 . S
C846 C847 1.373 . S
C846 C848 1.389 . S
C847 H826 0.950 . S
C847 C846 1.373 . S
C847 C863 1.377 . S
C848 C846 1.389 . S
C848 C849 1.524 . S
C848 C862 1.377 . S
C849 C848 1.524 . S
C849 C850 1.397 . S
C849 C854 1.363 . S
C850 H827 0.950 . S
C850 C849 1.397 . S
C850 C851 1.334 . S
C851 H828 0.950 . S
C851 C850 1.334 . S
C851 C852 1.287 . S
C852 C851 1.287 . S
C852 C853 1.524 . S
C852 H871 0.913 . S
C853 H829 0.950 . S
C853 C852 1.524 . S
C853 C854 1.415 . S
C854 H830 0.950 . S
C854 C849 1.363 . S
C854 C853 1.415 . S
C855 H831 0.951 . S
C855 C856 1.366 . S
C855 C857 1.388 . S
C856 C855 1.366 . S
C856 C860 1.385 . S
C857 H832 0.951 . S
C857 C855 1.388 . S
C857 C858 1.366 . S
C858 C857 1.366 . S
C858 C859 1.414 . S
C858 C861 1.499 . S
C859 H833 0.950 . S
C859 C858 1.414 . S
C859 C860 1.374 . S
C860 H834 0.950 . S
C860 C856 1.385 . S
C860 C859 1.374 . S
C861 C858 1.499 . S
C861 C862 1.373 . S
C861 C863 1.389 . S
C862 H835 0.950 . S
C862 C848 1.377 . S
C862 C861 1.373 . S
C863 C847 1.377 . S
C863 C861 1.389 . S
C863 C864 1.524 . S
C864 C863 1.524 . S
C864 C865 1.397 . S
C864 C869 1.363 . S
C865 H836 0.950 . S
C865 C864 1.397 . S
C865 C866 1.334 . S
C866 H837 0.950 . S
C866 C865 1.334 . S
C866 C867 1.287 . S
C867 C866 1.287 . S
C867 C868 1.524 . S
C867 H870 0.999 . S
C868 H838 0.950 . S
C868 C867 1.524 . S
C868 C869 1.415 . S
C869 H839 0.950 . S
C869 C864 1.363 . S
C869 C868 1.415 . S
H870 C867 0.999 . S
H871 C852 0.913 . S
H872 C890 0.951 . S
H873 C892 0.951 . S
H874 C894 0.950 . S
H875 C895 0.950 . S
H876 C897 0.950 . S
H877 C900 0.950 . S
H878 C901 0.950 . S
H879 C903 0.950 . S
H880 C904 0.950 . S
H881 C905 0.951 . S
H882 C907 0.951 . S
H883 C909 0.950 . S
H884 C910 0.950 . S
H885 C912 0.950 . S
H886 C915 0.950 . S
H887 C916 0.950 . S
H888 C918 0.950 . S
H889 C919 0.950 . S
C890 H872 0.951 . S
C890 C891 1.366 . S
C890 C892 1.388 . S
C891 C890 1.366 . S
C891 C895 1.385 . S
C892 H873 0.951 . S
C892 C890 1.388 . S
C892 C893 1.366 . S
C893 C892 1.366 . S
C893 C894 1.414 . S
C893 C896 1.499 . S
C894 H874 0.950 . S
C894 C893 1.414 . S
C894 C895 1.374 . S
C895 H875 0.950 . S
C895 C891 1.385 . S
C895 C894 1.374 . S
C896 C893 1.499 . S
C896 C897 1.373 . S
C896 C898 1.389 . S
C897 H876 0.950 . S
C897 C896 1.373 . S
C897 C913 1.377 . S
C898 C896 1.389 . S
C898 C899 1.524 . S
C898 C912 1.377 . S
C899 C898 1.524 . S
C899 C900 1.397 . S
C899 C904 1.363 . S
C900 H877 0.950 . S
C900 C899 1.397 . S
C900 C901 1.334 . S
C901 H878 0.950 . S
C901 C900 1.334 . S
C901 C902 1.287 . S
C902 C901 1.287 . S
C902 C903 1.524 . S
C902 H921 0.913 . S
C903 H879 0.950 . S
C903 C902 1.524 . S
C903 C904 1.415 . S
C904 H880 0.950 . S
C904 C899 1.363 . S
C904 C903 1.415 . S
C905 H881 0.951 . S
C905 C906 1.366 . S
C905 C907 1.388 . S
C906 C905 1.366 . S
C906 C910 1.385 . S
C907 H882 0.951 . S
C907 C905 1.388 . S
C907 C908 1.366 . S
C908 C907 1.366 . S
C908 C909 1.414 . S
C908 C911 1.499 . S
C909 H883 0.950 . S
C909 C908 1.414 . S
C909 C910 1.374 . S
C910 H884 0.950 . S
C910 C906 1.385 . S
C910 C909 1.374 . S
C911 C908 1.499 . S
C911 C912 1.373 . S
C911 C913 1.389 . S
C912 H885 0.950 . S
C912 C898 1.377 . S
C912 C911 1.373 . S
C913 C897 1.377 . S
C913 C911 1.389 . S
C913 C914 1.524 . S
C914 C913 1.524 . S
C914 C915 1.397 . S
C914 C919 1.363 . S
C915 H886 0.950 . S
C915 C914 1.397 . S
C915 C916 1.334 . S
C916 H887 0.950 . S
C916 C915 1.334 . S
C916 C917 1.287 . S
C917 C916 1.287 . S
C917 C918 1.524 . S
C917 H920 0.999 . S
C918 H888 0.950 . S
C918 C917 1.524 . S
C918 C919 1.415 . S
C919 H889 0.950 . S
C919 C914 1.363 . S
C919 C918 1.415 . S
H920 C917 0.999 . S
H921 C902 0.913 . S
H922 C940 0.951 . S
H923 C942 0.951 . S
H924 C944 0.950 . S
H925 C945 0.950 . S
H926 C947 0.950 . S
H927 C950 0.950 . S
H928 C951 0.950 . S
H929 C953 0.950 . S
H930 C954 0.950 . S
H931 C955 0.951 . S
H932 C957 0.951 . S
H933 C959 0.950 . S
H934 C960 0.950 . S
H935 C962 0.950 . S
H936 C965 0.950 . S
H937 C966 0.950 . S
H938 C968 0.950 . S
H939 C969 0.950 . S
C940 H922 0.951 . S
C940 C941 1.366 . S
C940 C942 1.388 . S
C941 C940 1.366 . S
C941 C945 1.385 . S
C942 H923 0.951 . S
C942 C940 1.388 . S
C942 C943 1.366 . S
C943 C942 1.366 . S
C943 C944 1.414 . S
C943 C946 1.499 . S
C944 H924 0.950 . S
C944 C943 1.414 . S
C944 C945 1.374 . S
C945 H925 0.950 . S
C945 C941 1.385 . S
C945 C944 1.374 . S
C946 C943 1.499 . S
C946 C947 1.373 . S
C946 C948 1.389 . S
C947 H926 0.950 . S
C947 C946 1.373 . S
C947 C963 1.377 . S
C948 C946 1.389 . S
C948 C949 1.524 . S
C948 C962 1.377 . S
C949 C948 1.524 . S
C949 C950 1.397 . S
C949 C954 1.363 . S
C950 H927 0.950 . S
C950 C949 1.397 . S
C950 C951 1.334 . S
C951 H928 0.950 . S
C951 C950 1.334 . S
C951 C952 1.287 . S
C952 C951 1.287 . S
C952 C953 1.524 . S
C952 H971 0.913 . S
C953 H929 0.950 . S
C953 C952 1.524 . S
C953 C954 1.415 . S
C954 H930 0.950 . S
C954 C949 1.363 . S
C954 C953 1.415 . S
C955 H931 0.951 . S
C955 C956 1.366 . S
C955 C957 1.388 . S
C956 C955 1.366 . S
C956 C960 1.385 . S
C957 H932 0.951 . S
C957 C955 1.388 . S
C957 C958 1.366 . S
C958 C957 1.366 . S
C958 C959 1.414 . S
C958 C961 1.499 . S
C959 H933 0.950 . S
C959 C958 1.414 . S
C959 C960 1.374 . S
C960 H934 0.950 . S
C960 C956 1.385 . S
C960 C959 1.374 . S
C961 C958 1.499 . S
C961 C962 1.373 . S
C961 C963 1.389 . S
C962 H935 0.950 . S
C962 C948 1.377 . S
C962 C961 1.373 . S
C963 C947 1.377 . S
C963 C961 1.389 . S
C963 C964 1.524 . S
C964 C963 1.524 . S
C964 C965 1.397 . S
C964 C969 1.363 . S
C965 H936 0.950 . S
C965 C964 1.397 . S
C965 C966 1.334 . S
C966 H937 0.950 . S
C966 C965 1.334 . S
C966 C967 1.287 . S
C967 C966 1.287 . S
C967 C968 1.524 . S
C967 H970 0.999 . S
C968 H938 0.950 . S
C968 C967 1.524 . S
C968 C969 1.415 . S
C969 H939 0.950 . S
C969 C964 1.363 . S
C969 C968 1.415 . S
H970 C967 0.999 . S
H971 C952 0.913 . S
H972 C990 0.951 . S
H973 C992 0.951 . S
H974 C994 0.950 . S
H975 C995 0.950 . S
H976 C997 0.950 . S
H977 C1000 0.950 . S
H978 C1001 0.950 . S
H979 C1003 0.950 . S
H980 C1004 0.950 . S
H981 C1005 0.951 . S
H982 C1007 0.951 . S
H983 C1009 0.950 . S
H984 C1010 0.950 . S
H985 C1012 0.950 . S
H986 C1015 0.950 . S
H987 C1016 0.950 . S
H988 C1018 0.950 . S
H989 C1019 0.950 . S
C990 H972 0.951 . S
C990 C991 1.366 . S
C990 C992 1.388 . S
C991 C990 1.366 . S
C991 C995 1.385 . S
C992 H973 0.951 . S
C992 C990 1.388 . S
C992 C993 1.366 . S
C993 C992 1.366 . S
C993 C994 1.414 . S
C993 C996 1.499 . S
C994 H974 0.950 . S
C994 C993 1.414 . S
C994 C995 1.374 . S
C995 H975 0.950 . S
C995 C991 1.385 . S
C995 C994 1.374 . S
C996 C993 1.499 . S
C996 C997 1.373 . S
C996 C998 1.389 . S
C997 H976 0.950 . S
C997 C996 1.373 . S
C997 C1013 1.377 . S
C998 C996 1.389 . S
C998 C999 1.524 . S
C998 C1012 1.377 . S
C999 C998 1.524 . S
C999 C1000 1.397 . S
C999 C1004 1.363 . S
C1000 H977 0.950 . S
C1000 C999 1.397 . S
C1000 C1001 1.334 . S
C1001 H978 0.950 . S
C1001 C1000 1.334 . S
C1001 C1002 1.287 . S
C1002 C1001 1.287 . S
C1002 C1003 1.524 . S
C1002 H1021 0.913 . S
C1003 H979 0.950 . S
C1003 C1002 1.524 . S
C1003 C1004 1.415 . S
C1004 H980 0.950 . S
C1004 C999 1.363 . S
C1004 C1003 1.415 . S
C1005 H981 0.951 . S
C1005 C1006 1.366 . S
C1005 C1007 1.388 . S
C1006 C1005 1.366 . S
C1006 C1010 1.385 . S
C1007 H982 0.951 . S
C1007 C1005 1.388 . S
C1007 C1008 1.366 . S
C1008 C1007 1.366 . S
C1008 C1009 1.414 . S
C1008 C1011 1.499 . S
C1009 H983 0.950 . S
C1009 C1008 1.414 . S
C1009 C1010 1.374 . S
C1010 H984 0.950 . S
C1010 C1006 1.385 . S
C1010 C1009 1.374 . S
C1011 C1008 1.499 . S
C1011 C1012 1.373 . S
C1011 C1013 1.389 . S
C1012 H985 0.950 . S
C1012 C998 1.377 . S
C1012 C1011 1.373 . S
C1013 C997 1.377 . S
C1013 C1011 1.389 . S
C1013 C1014 1.524 . S
C1014 C1013 1.524 . S
C1014 C1015 1.397 . S
C1014 C1019 1.363 . S
C1015 H986 0.950 . S
C1015 C1014 1.397 . S
C1015 C1016 1.334 . S
C1016 H987 0.950 . S
C1016 C1015 1.334 . S
C1016 C1017 1.287 . S
C1017 C1016 1.287 . S
C1017 C1018 1.524 . S
C1017 H1020 0.999 . S
C1018 H988 0.950 . S
C1018 C1017 1.524 . S
C1018 C1019 1.415 . S
C1019 H989 0.950 . S
C1019 C1014 1.363 . S
C1019 C1018 1.415 . S
H1020 C1017 0.999 . S
H1021 C1002 0.913 . S
H1022 C1040 0.951 . S
H1023 C1042 0.951 . S
H1024 C1044 0.950 . S
H1025 C1045 0.950 . S
H1026 C1047 0.950 . S
H1027 C1050 0.950 . S
H1028 C1051 0.950 . S
H1029 C1053 0.950 . S
H1030 C1054 0.950 . S
H1031 C1055 0.951 . S
H1032 C1057 0.951 . S
H1033 C1059 0.950 . S
H1034 C1060 0.950 . S
H1035 C1062 0.950 . S
H1036 C1065 0.950 . S
H1037 C1066 0.950 . S
H1038 C1068 0.950 . S
H1039 C1069 0.950 . S
C1040 H1022 0.951 . S
C1040 C1041 1.366 . S
C1040 C1042 1.388 . S
C1041 C1040 1.366 . S
C1041 C1045 1.385 . S
C1042 H1023 0.951 . S
C1042 C1040 1.388 . S
C1042 C1043 1.366 . S
C1043 C1042 1.366 . S
C1043 C1044 1.414 . S
C1043 C1046 1.499 . S
C1044 H1024 0.950 . S
C1044 C1043 1.414 . S
C1044 C1045 1.374 . S
C1045 H1025 0.950 . S
C1045 C1041 1.385 . S
C1045 C1044 1.374 . S
C1046 C1043 1.499 . S
C1046 C1047 1.373 . S
C1046 C1048 1.389 . S
C1047 H1026 0.950 . S
C1047 C1046 1.373 . S
C1047 C1063 1.377 . S
C1048 C1046 1.389 . S
C1048 C1049 1.524 . S
C1048 C1062 1.377 . S
C1049 C1048 1.524 . S
C1049 C1050 1.397 . S
C1049 C1054 1.363 . S
C1050 H1027 0.950 . S
C1050 C1049 1.397 . S
C1050 C1051 1.334 . S
C1051 H1028 0.950 . S
C1051 C1050 1.334 . S
C1051 C1052 1.287 . S
C1052 C1051 1.287 . S
C1052 C1053 1.524 . S
C1052 H1071 0.913 . S
C1053 H1029 0.950 . S
C1053 C1052 1.524 . S
C1053 C1054 1.415 . S
C1054 H1030 0.950 . S
C1054 C1049 1.363 . S
C1054 C1053 1.415 . S
C1055 H1031 0.951 . S
C1055 C1056 1.366 . S
C1055 C1057 1.388 . S
C1056 C1055 1.366 . S
C1056 C1060 1.385 . S
C1057 H1032 0.951 . S
C1057 C1055 1.388 . S
C1057 C1058 1.366 . S
C1058 C1057 1.366 . S
C1058 C1059 1.414 . S
C1058 C1061 1.499 . S
C1059 H1033 0.950 . S
C1059 C1058 1.414 . S
C1059 C1060 1.374 . S
C1060 H1034 0.950 . S
C1060 C1056 1.385 . S
C1060 C1059 1.374 . S
C1061 C1058 1.499 . S
C1061 C1062 1.373 . S
C1061 C1063 1.389 . S
C1062 H1035 0.950 . S
C1062 C1048 1.377 . S
C1062 C1061 1.373 . S
C1063 C1047 1.377 . S
C1063 C1061 1.389 . S
C1063 C1064 1.524 . S
C1064 C1063 1.524 . S
C1064 C1065 1.397 . S
C1064 C1069 1.363 . S
C1065 H1036 0.950 . S
C1065 C1064 1.397 . S
C1065 C1066 1.334 . S
C1066 H1037 0.950 . S
C1066 C1065 1.334 . S
C1066 C1067 1.287 . S
C1067 C1066 1.287 . S
C1067 C1068 1.524 . S
C1067 H1070 0.999 . S
C1068 H1038 0.950 . S
C1068 C1067 1.524 . S
C1068 C1069 1.415 . S
C1069 H1039 0.950 . S
C1069 C1064 1.363 . S
C1069 C1068 1.415 . S
H1070 C1067 0.999 . S
H1071 C1052 0.913 . S
H1072 C1090 0.951 . S
H1073 C1092 0.951 . S
H1074 C1094 0.950 . S
H1075 C1095 0.950 . S
H1076 C1097 0.950 . S
H1077 C1100 0.950 . S
H1078 C1101 0.950 . S
H1079 C1103 0.950 . S
H1080 C1104 0.950 . S
H1081 C1105 0.951 . S
H1082 C1107 0.951 . S
H1083 C1109 0.950 . S
H1084 C1110 0.950 . S
H1085 C1112 0.950 . S
H1086 C1115 0.950 . S
H1087 C1116 0.950 . S
H1088 C1118 0.950 . S
H1089 C1119 0.950 . S
C1090 H1072 0.951 . S
C1090 C1091 1.366 . S
C1090 C1092 1.388 . S
C1091 C1090 1.366 . S
C1091 C1095 1.385 . S
C1092 H1073 0.951 . S
C1092 C1090 1.388 . S
C1092 C1093 1.366 . S
C1093 C1092 1.366 . S
C1093 C1094 1.414 . S
C1093 C1096 1.499 . S
C1094 H1074 0.950 . S
C1094 C1093 1.414 . S
C1094 C1095 1.374 . S
C1095 H1075 0.950 . S
C1095 C1091 1.385 . S
C1095 C1094 1.374 . S
C1096 C1093 1.499 . S
C1096 C1097 1.373 . S
C1096 C1098 1.389 . S
C1097 H1076 0.950 . S
C1097 C1096 1.373 . S
C1097 C1113 1.377 . S
C1098 C1096 1.389 . S
C1098 C1099 1.524 . S
C1098 C1112 1.377 . S
C1099 C1098 1.524 . S
C1099 C1100 1.397 . S
C1099 C1104 1.363 . S
C1100 H1077 0.950 . S
C1100 C1099 1.397 . S
C1100 C1101 1.334 . S
C1101 H1078 0.950 . S
C1101 C1100 1.334 . S
C1101 C1102 1.287 . S
C1102 C1101 1.287 . S
C1102 C1103 1.524 . S
C1102 H1121 0.913 . S
C1103 H1079 0.950 . S
C1103 C1102 1.524 . S
C1103 C1104 1.415 . S
C1104 H1080 0.950 . S
C1104 C1099 1.363 . S
C1104 C1103 1.415 . S
C1105 H1081 0.951 . S
C1105 C1106 1.366 . S
C1105 C1107 1.388 . S
C1106 C1105 1.366 . S
C1106 C1110 1.385 . S
C1107 H1082 0.951 . S
C1107 C1105 1.388 . S
C1107 C1108 1.366 . S
C1108 C1107 1.366 . S
C1108 C1109 1.414 . S
C1108 C1111 1.499 . S
C1109 H1083 0.950 . S
C1109 C1108 1.414 . S
C1109 C1110 1.374 . S
C1110 H1084 0.950 . S
C1110 C1106 1.385 . S
C1110 C1109 1.374 . S
C1111 C1108 1.499 . S
C1111 C1112 1.373 . S
C1111 C1113 1.389 . S
C1112 H1085 0.950 . S
C1112 C1098 1.377 . S
C1112 C1111 1.373 . S
C1113 C1097 1.377 . S
C1113 C1111 1.389 . S
C1113 C1114 1.524 . S
C1114 C1113 1.524 . S
C1114 C1115 1.397 . S
C1114 C1119 1.363 . S
C1115 H1086 0.950 . S
C1115 C1114 1.397 . S
C1115 C1116 1.334 . S
C1116 H1087 0.950 . S
C1116 C1115 1.334 . S
C1116 C1117 1.287 . S
C1117 C1116 1.287 . S
C1117 C1118 1.524 . S
C1117 H1120 0.999 . S
C1118 H1088 0.950 . S
C1118 C1117 1.524 . S
C1118 C1119 1.415 . S
C1119 H1089 0.950 . S
C1119 C1114 1.363 . S
C1119 C1118 1.415 . S
H1120 C1117 0.999 . S
H1121 C1102 0.913 . S
H1122 C1140 0.951 . S
H1123 C1142 0.951 . S
H1124 C1144 0.950 . S
H1125 C1145 0.950 . S
H1126 C1147 0.950 . S
H1127 C1150 0.950 . S
H1128 C1151 0.950 . S
H1129 C1153 0.950 . S
H1130 C1154 0.950 . S
H1131 C1155 0.951 . S
H1132 C1157 0.951 . S
H1133 C1159 0.950 . S
H1134 C1160 0.950 . S
H1135 C1162 0.950 . S
H1136 C1165 0.950 . S
H1137 C1166 0.950 . S
H1138 C1168 0.950 . S
H1139 C1169 0.950 . S
C1140 H1122 0.951 . S
C1140 C1141 1.366 . S
C1140 C1142 1.388 . S
C1141 C1140 1.366 . S
C1141 C1145 1.385 . S
C1142 H1123 0.951 . S
C1142 C1140 1.388 . S
C1142 C1143 1.366 . S
C1143 C1142 1.366 . S
C1143 C1144 1.414 . S
C1143 C1146 1.499 . S
C1144 H1124 0.950 . S
C1144 C1143 1.414 . S
C1144 C1145 1.374 . S
C1145 H1125 0.950 . S
C1145 C1141 1.385 . S
C1145 C1144 1.374 . S
C1146 C1143 1.499 . S
C1146 C1147 1.373 . S
C1146 C1148 1.389 . S
C1147 H1126 0.950 . S
C1147 C1146 1.373 . S
C1147 C1163 1.377 . S
C1148 C1146 1.389 . S
C1148 C1149 1.524 . S
C1148 C1162 1.377 . S
C1149 C1148 1.524 . S
C1149 C1150 1.397 . S
C1149 C1154 1.363 . S
C1150 H1127 0.950 . S
C1150 C1149 1.397 . S
C1150 C1151 1.334 . S
C1151 H1128 0.950 . S
C1151 C1150 1.334 . S
C1151 C1152 1.287 . S
C1152 C1151 1.287 . S
C1152 C1153 1.524 . S
C1152 H1171 0.913 . S
C1153 H1129 0.950 . S
C1153 C1152 1.524 . S
C1153 C1154 1.415 . S
C1154 H1130 0.950 . S
C1154 C1149 1.363 . S
C1154 C1153 1.415 . S
C1155 H1131 0.951 . S
C1155 C1156 1.366 . S
C1155 C1157 1.388 . S
C1156 C1155 1.366 . S
C1156 C1160 1.385 . S
C1157 H1132 0.951 . S
C1157 C1155 1.388 . S
C1157 C1158 1.366 . S
C1158 C1157 1.366 . S
C1158 C1159 1.414 . S
C1158 C1161 1.499 . S
C1159 H1133 0.950 . S
C1159 C1158 1.414 . S
C1159 C1160 1.374 . S
C1160 H1134 0.950 . S
C1160 C1156 1.385 . S
C1160 C1159 1.374 . S
C1161 C1158 1.499 . S
C1161 C1162 1.373 . S
C1161 C1163 1.389 . S
C1162 H1135 0.950 . S
C1162 C1148 1.377 . S
C1162 C1161 1.373 . S
C1163 C1147 1.377 . S
C1163 C1161 1.389 . S
C1163 C1164 1.524 . S
C1164 C1163 1.524 . S
C1164 C1165 1.397 . S
C1164 C1169 1.363 . S
C1165 H1136 0.950 . S
C1165 C1164 1.397 . S
C1165 C1166 1.334 . S
C1166 H1137 0.950 . S
C1166 C1165 1.334 . S
C1166 C1167 1.287 . S
C1167 C1166 1.287 . S
C1167 C1168 1.524 . S
C1167 H1170 0.999 . S
C1168 H1138 0.950 . S
C1168 C1167 1.524 . S
C1168 C1169 1.415 . S
C1169 H1139 0.950 . S
C1169 C1164 1.363 . S
C1169 C1168 1.415 . S
H1170 C1167 0.999 . S
H1171 C1152 0.913 . S
H1172 C1190 0.951 . S
H1173 C1192 0.951 . S
H1174 C1194 0.950 . S
H1175 C1195 0.950 . S
H1176 C1197 0.950 . S
H1177 C1200 0.950 . S
H1178 C1201 0.950 . S
H1179 C1203 0.950 . S
H1180 C1204 0.950 . S
H1181 C1205 0.951 . S
H1182 C1207 0.951 . S
H1183 C1209 0.950 . S
H1184 C1210 0.950 . S
H1185 C1212 0.950 . S
H1186 C1215 0.950 . S
H1187 C1216 0.950 . S
H1188 C1218 0.950 . S
H1189 C1219 0.950 . S
C1190 H1172 0.951 . S
C1190 C1191 1.366 . S
C1190 C1192 1.388 . S
C1191 C1190 1.366 . S
C1191 C1195 1.385 . S
C1192 H1173 0.951 . S
C1192 C1190 1.388 . S
C1192 C1193 1.366 . S
C1193 C1192 1.366 . S
C1193 C1194 1.414 . S
C1193 C1196 1.499 . S
C1194 H1174 0.950 . S
C1194 C1193 1.414 . S
C1194 C1195 1.374 . S
C1195 H1175 0.950 . S
C1195 C1191 1.385 . S
C1195 C1194 1.374 . S
C1196 C1193 1.499 . S
C1196 C1197 1.373 . S
C1196 C1198 1.389 . S
C1197 H1176 0.950 . S
C1197 C1196 1.373 . S
C1197 C1213 1.377 . S
C1198 C1196 1.389 . S
C1198 C1199 1.524 . S
C1198 C1212 1.377 . S
C1199 C1198 1.524 . S
C1199 C1200 1.397 . S
C1199 C1204 1.363 . S
C1200 H1177 0.950 . S
C1200 C1199 1.397 . S
C1200 C1201 1.334 . S
C1201 H1178 0.950 . S
C1201 C1200 1.334 . S
C1201 C1202 1.287 . S
C1202 C1201 1.287 . S
C1202 C1203 1.524 . S
C1202 H1221 0.913 . S
C1203 H1179 0.950 . S
C1203 C1202 1.524 . S
C1203 C1204 1.415 . S
C1204 H1180 0.950 . S
C1204 C1199 1.363 . S
C1204 C1203 1.415 . S
C1205 H1181 0.951 . S
C1205 C1206 1.366 . S
C1205 C1207 1.388 . S
C1206 C1205 1.366 . S
C1206 C1210 1.385 . S
C1207 H1182 0.951 . S
C1207 C1205 1.388 . S
C1207 C1208 1.366 . S
C1208 C1207 1.366 . S
C1208 C1209 1.414 . S
C1208 C1211 1.499 . S
C1209 H1183 0.950 . S
C1209 C1208 1.414 . S
C1209 C1210 1.374 . S
C1210 H1184 0.950 . S
C1210 C1206 1.385 . S
C1210 C1209 1.374 . S
C1211 C1208 1.499 . S
C1211 C1212 1.373 . S
C1211 C1213 1.389 . S
C1212 H1185 0.950 . S
C1212 C1198 1.377 . S
C1212 C1211 1.373 . S
C1213 C1197 1.377 . S
C1213 C1211 1.389 . S
C1213 C1214 1.524 . S
C1214 C1213 1.524 . S
C1214 C1215 1.397 . S
C1214 C1219 1.363 . S
C1215 H1186 0.950 . S
C1215 C1214 1.397 . S
C1215 C1216 1.334 . S
C1216 H1187 0.950 . S
C1216 C1215 1.334 . S
C1216 C1217 1.287 . S
C1217 C1216 1.287 . S
C1217 C1218 1.524 . S
C1217 H1220 0.999 . S
C1218 H1188 0.950 . S
C1218 C1217 1.524 . S
C1218 C1219 1.415 . S
C1219 H1189 0.950 . S
C1219 C1214 1.363 . S
C1219 C1218 1.415 . S
H1220 C1217 0.999 . S
H1221 C1202 0.913 . S
H1222 C1240 0.951 . S
H1223 C1242 0.951 . S
H1224 C1244 0.950 . S
H1225 C1245 0.950 . S
H1226 C1247 0.950 . S
H1227 C1250 0.950 . S
H1228 C1251 0.950 . S
H1229 C1253 0.950 . S
H1230 C1254 0.950 . S
H1231 C1255 0.951 . S
H1232 C1257 0.951 . S
H1233 C1259 0.950 . S
H1234 C1260 0.950 . S
H1235 C1262 0.950 . S
H1236 C1265 0.950 . S
H1237 C1266 0.950 . S
H1238 C1268 0.950 . S
H1239 C1269 0.950 . S
C1240 H1222 0.951 . S
C1240 C1241 1.366 . S
C1240 C1242 1.388 . S
C1241 C1240 1.366 . S
C1241 C1245 1.385 . S
C1242 H1223 0.951 . S
C1242 C1240 1.388 . S
C1242 C1243 1.366 . S
C1243 C1242 1.366 . S
C1243 C1244 1.414 . S
C1243 C1246 1.499 . S
C1244 H1224 0.950 . S
C1244 C1243 1.414 . S
C1244 C1245 1.374 . S
C1245 H1225 0.950 . S
C1245 C1241 1.385 . S
C1245 C1244 1.374 . S
C1246 C1243 1.499 . S
C1246 C1247 1.373 . S
C1246 C1248 1.389 . S
C1247 H1226 0.950 . S
C1247 C1246 1.373 . S
C1247 C1263 1.377 . S
C1248 C1246 1.389 . S
C1248 C1249 1.524 . S
C1248 C1262 1.377 . S
C1249 C1248 1.524 . S
C1249 C1250 1.397 . S
C1249 C1254 1.363 . S
C1250 H1227 0.950 . S
C1250 C1249 1.397 . S
C1250 C1251 1.334 . S
C1251 H1228 0.950 . S
C1251 C1250 1.334 . S
C1251 C1252 1.287 . S
C1252 C1251 1.287 . S
C1252 C1253 1.524 . S
C1252 H1271 0.913 . S
C1253 H1229 0.950 . S
C1253 C1252 1.524 . S
C1253 C1254 1.415 . S
C1254 H1230 0.950 . S
C1254 C1249 1.363 . S
C1254 C1253 1.415 . S
C1255 H1231 0.951 . S
C1255 C1256 1.366 . S
C1255 C1257 1.388 . S
C1256 C1255 1.366 . S
C1256 C1260 1.385 . S
C1257 H1232 0.951 . S
C1257 C1255 1.388 . S
C1257 C1258 1.366 . S
C1258 C1257 1.366 . S
C1258 C1259 1.414 . S
C1258 C1261 1.499 . S
C1259 H1233 0.950 . S
C1259 C1258 1.414 . S
C1259 C1260 1.374 . S
C1260 H1234 0.950 . S
C1260 C1256 1.385 . S
C1260 C1259 1.374 . S
C1261 C1258 1.499 . S
C1261 C1262 1.373 . S
C1261 C1263 1.389 . S
C1262 H1235 0.950 . S
C1262 C1248 1.377 . S
C1262 C1261 1.373 . S
C1263 C1247 1.377 . S
C1263 C1261 1.389 . S
C1263 C1264 1.524 . S
C1264 C1263 1.524 . S
C1264 C1265 1.397 . S
C1264 C1269 1.363 . S
C1265 H1236 0.950 . S
C1265 C1264 1.397 . S
C1265 C1266 1.334 . S
C1266 H1237 0.950 . S
C1266 C1265 1.334 . S
C1266 C1267 1.287 . S
C1267 C1266 1.287 . S
C1267 C1268 1.524 . S
C1267 H1270 0.999 . S
C1268 H1238 0.950 . S
C1268 C1267 1.524 . S
C1268 C1269 1.415 . S
C1269 H1239 0.950 . S
C1269 C1264 1.363 . S
C1269 C1268 1.415 . S
H1270 C1267 0.999 . S
H1271 C1252 0.913 . S
H1272 C1290 0.951 . S
H1273 C1292 0.951 . S
H1274 C1294 0.950 . S
H1275 C1295 0.950 . S
H1276 C1297 0.950 . S
H1277 C1300 0.950 . S
H1278 C1301 0.950 . S
H1279 C1303 0.950 . S
H1280 C1304 0.950 . S
H1281 C1305 0.951 . S
H1282 C1307 0.951 . S
H1283 C1309 0.950 . S
H1284 C1310 0.950 . S
H1285 C1312 0.950 . S
H1286 C1315 0.950 . S
H1287 C1316 0.950 . S
H1288 C1318 0.950 . S
H1289 C1319 0.950 . S
C1290 H1272 0.951 . S
C1290 C1291 1.366 . S
C1290 C1292 1.388 . S
C1291 C1290 1.366 . S
C1291 C1295 1.385 . S
C1292 H1273 0.951 . S
C1292 C1290 1.388 . S
C1292 C1293 1.366 . S
C1293 C1292 1.366 . S
C1293 C1294 1.414 . S
C1293 C1296 1.499 . S
C1294 H1274 0.950 . S
C1294 C1293 1.414 . S
C1294 C1295 1.374 . S
C1295 H1275 0.950 . S
C1295 C1291 1.385 . S
C1295 C1294 1.374 . S
C1296 C1293 1.499 . S
C1296 C1297 1.373 . S
C1296 C1298 1.389 . S
C1297 H1276 0.950 . S
C1297 C1296 1.373 . S
C1297 C1313 1.377 . S
C1298 C1296 1.389 . S
C1298 C1299 1.524 . S
C1298 C1312 1.377 . S
C1299 C1298 1.524 . S
C1299 C1300 1.397 . S
C1299 C1304 1.363 . S
C1300 H1277 0.950 . S
C1300 C1299 1.397 . S
C1300 C1301 1.334 . S
C1301 H1278 0.950 . S
C1301 C1300 1.334 . S
C1301 C1302 1.287 . S
C1302 C1301 1.287 . S
C1302 C1303 1.524 . S
C1302 H1321 0.913 . S
C1303 H1279 0.950 . S
C1303 C1302 1.524 . S
C1303 C1304 1.415 . S
C1304 H1280 0.950 . S
C1304 C1299 1.363 . S
C1304 C1303 1.415 . S
C1305 H1281 0.951 . S
C1305 C1306 1.366 . S
C1305 C1307 1.388 . S
C1306 C1305 1.366 . S
C1306 C1310 1.385 . S
C1307 H1282 0.951 . S
C1307 C1305 1.388 . S
C1307 C1308 1.366 . S
C1308 C1307 1.366 . S
C1308 C1309 1.414 . S
C1308 C1311 1.499 . S
C1309 H1283 0.950 . S
C1309 C1308 1.414 . S
C1309 C1310 1.374 . S
C1310 H1284 0.950 . S
C1310 C1306 1.385 . S
C1310 C1309 1.374 . S
C1311 C1308 1.499 . S
C1311 C1312 1.373 . S
C1311 C1313 1.389 . S
C1312 H1285 0.950 . S
C1312 C1298 1.377 . S
C1312 C1311 1.373 . S
C1313 C1297 1.377 . S
C1313 C1311 1.389 . S
C1313 C1314 1.524 . S
C1314 C1313 1.524 . S
C1314 C1315 1.397 . S
C1314 C1319 1.363 . S
C1315 H1286 0.950 . S
C1315 C1314 1.397 . S
C1315 C1316 1.334 . S
C1316 H1287 0.950 . S
C1316 C1315 1.334 . S
C1316 C1317 1.287 . S
C1317 C1316 1.287 . S
C1317 C1318 1.524 . S
C1317 H1320 0.999 . S
C1318 H1288 0.950 . S
C1318 C1317 1.524 . S
C1318 C1319 1.415 . S
C1319 H1289 0.950 . S
C1319 C1314 1.363 . S
C1319 C1318 1.415 . S
H1320 C1317 0.999 . S
H1321 C1302 0.913 . S
H1322 C1340 0.951 . S
H1323 C1342 0.951 . S
H1324 C1344 0.950 . S
H1325 C1345 0.950 . S
H1326 C1347 0.950 . S
H1327 C1350 0.950 . S
H1328 C1351 0.950 . S
H1329 C1353 0.950 . S
H1330 C1354 0.950 . S
H1331 C1355 0.951 . S
H1332 C1357 0.951 . S
H1333 C1359 0.950 . S
H1334 C1360 0.950 . S
H1335 C1362 0.950 . S
H1336 C1365 0.950 . S
H1337 C1366 0.950 . S
H1338 C1368 0.950 . S
H1339 C1369 0.950 . S
C1340 H1322 0.951 . S
C1340 C1341 1.366 . S
C1340 C1342 1.388 . S
C1341 C1340 1.366 . S
C1341 C1345 1.385 . S
C1342 H1323 0.951 . S
C1342 C1340 1.388 . S
C1342 C1343 1.366 . S
C1343 C1342 1.366 . S
C1343 C1344 1.414 . S
C1343 C1346 1.499 . S
C1344 H1324 0.950 . S
C1344 C1343 1.414 . S
C1344 C1345 1.374 . S
C1345 H1325 0.950 . S
C1345 C1341 1.385 . S
C1345 C1344 1.374 . S
C1346 C1343 1.499 . S
C1346 C1347 1.373 . S
C1346 C1348 1.389 . S
C1347 H1326 0.950 . S
C1347 C1346 1.373 . S
C1347 C1363 1.377 . S
C1348 C1346 1.389 . S
C1348 C1349 1.524 . S
C1348 C1362 1.377 . S
C1349 C1348 1.524 . S
C1349 C1350 1.397 . S
C1349 C1354 1.363 . S
C1350 H1327 0.950 . S
C1350 C1349 1.397 . S
C1350 C1351 1.334 . S
C1351 H1328 0.950 . S
C1351 C1350 1.334 . S
C1351 C1352 1.287 . S
C1352 C1351 1.287 . S
C1352 C1353 1.524 . S
C1352 H1371 0.913 . S
C1353 H1329 0.950 . S
C1353 C1352 1.524 . S
C1353 C1354 1.415 . S
C1354 H1330 0.950 . S
C1354 C1349 1.363 . S
C1354 C1353 1.415 . S
C1355 H1331 0.951 . S
C1355 C1356 1.366 . S
C1355 C1357 1.388 . S
C1356 C1355 1.366 . S
C1356 C1360 1.385 . S
C1357 H1332 0.951 . S
C1357 C1355 1.388 . S
C1357 C1358 1.366 . S
C1358 C1357 1.366 . S
C1358 C1359 1.414 . S
C1358 C1361 1.499 . S
C1359 H1333 0.950 . S
C1359 C1358 1.414 . S
C1359 C1360 1.374 . S
C1360 H1334 0.950 . S
C1360 C1356 1.385 . S
C1360 C1359 1.374 . S
C1361 C1358 1.499 . S
C1361 C1362 1.373 . S
C1361 C1363 1.389 . S
C1362 H1335 0.950 . S
C1362 C1348 1.377 . S
C1362 C1361 1.373 . S
C1363 C1347 1.377 . S
C1363 C1361 1.389 . S
C1363 C1364 1.524 . S
C1364 C1363 1.524 . S
C1364 C1365 1.397 . S
C1364 C1369 1.363 . S
C1365 H1336 0.950 . S
C1365 C1364 1.397 . S
C1365 C1366 1.334 . S
C1366 H1337 0.950 . S
C1366 C1365 1.334 . S
C1366 C1367 1.287 . S
C1367 C1366 1.287 . S
C1367 C1368 1.524 . S
C1367 H1370 0.999 . S
C1368 H1338 0.950 . S
C1368 C1367 1.524 . S
C1368 C1369 1.415 . S
C1369 H1339 0.950 . S
C1369 C1364 1.363 . S
C1369 C1368 1.415 . S
H1370 C1367 0.999 . S
H1371 C1352 0.913 . S
H1372 C1390 0.951 . S
H1373 C1392 0.951 . S
H1374 C1394 0.950 . S
H1375 C1395 0.950 . S
H1376 C1397 0.950 . S
H1377 C1400 0.950 . S
H1378 C1401 0.950 . S
H1379 C1403 0.950 . S
H1380 C1404 0.950 . S
H1381 C1405 0.951 . S
H1382 C1407 0.951 . S
H1383 C1409 0.950 . S
H1384 C1410 0.950 . S
H1385 C1412 0.950 . S
H1386 C1415 0.950 . S
H1387 C1416 0.950 . S
H1388 C1418 0.950 . S
H1389 C1419 0.950 . S
C1390 H1372 0.951 . S
C1390 C1391 1.366 . S
C1390 C1392 1.388 . S
C1391 C1390 1.366 . S
C1391 C1395 1.385 . S
C1392 H1373 0.951 . S
C1392 C1390 1.388 . S
C1392 C1393 1.366 . S
C1393 C1392 1.366 . S
C1393 C1394 1.414 . S
C1393 C1396 1.499 . S
C1394 H1374 0.950 . S
C1394 C1393 1.414 . S
C1394 C1395 1.374 . S
C1395 H1375 0.950 . S
C1395 C1391 1.385 . S
C1395 C1394 1.374 . S
C1396 C1393 1.499 . S
C1396 C1397 1.373 . S
C1396 C1398 1.389 . S
C1397 H1376 0.950 . S
C1397 C1396 1.373 . S
C1397 C1413 1.377 . S
C1398 C1396 1.389 . S
C1398 C1399 1.524 . S
C1398 C1412 1.377 . S
C1399 C1398 1.524 . S
C1399 C1400 1.397 . S
C1399 C1404 1.363 . S
C1400 H1377 0.950 . S
C1400 C1399 1.397 . S
C1400 C1401 1.334 . S
C1401 H1378 0.950 . S
C1401 C1400 1.334 . S
C1401 C1402 1.287 . S
C1402 C1401 1.287 . S
C1402 C1403 1.524 . S
C1402 H1421 0.913 . S
C1403 H1379 0.950 . S
C1403 C1402 1.524 . S
C1403 C1404 1.415 . S
C1404 H1380 0.950 . S
C1404 C1399 1.363 . S
C1404 C1403 1.415 . S
C1405 H1381 0.951 . S
C1405 C1406 1.366 . S
C1405 C1407 1.388 . S
C1406 C1405 1.366 . S
C1406 C1410 1.385 . S
C1407 H1382 0.951 . S
C1407 C1405 1.388 . S
C1407 C1408 1.366 . S
C1408 C1407 1.366 . S
C1408 C1409 1.414 . S
C1408 C1411 1.499 . S
C1409 H1383 0.950 . S
C1409 C1408 1.414 . S
C1409 C1410 1.374 . S
C1410 H1384 0.950 . S
C1410 C1406 1.385 . S
C1410 C1409 1.374 . S
C1411 C1408 1.499 . S
C1411 C1412 1.373 . S
C1411 C1413 1.389 . S
C1412 H1385 0.950 . S
C1412 C1398 1.377 . S
C1412 C1411 1.373 . S
C1413 C1397 1.377 . S
C1413 C1411 1.389 . S
C1413 C1414 1.524 . S
C1414 C1413 1.524 . S
C1414 C1415 1.397 . S
C1414 C1419 1.363 . S
C1415 H1386 0.950 . S
C1415 C1414 1.397 . S
C1415 C1416 1.334 . S
C1416 H1387 0.950 . S
C1416 C1415 1.334 . S
C1416 C1417 1.287 . S
C1417 C1416 1.287 . S
C1417 C1418 1.524 . S
C1417 H1420 0.999 . S
C1418 H1388 0.950 . S
C1418 C1417 1.524 . S
C1418 C1419 1.415 . S
C1419 H1389 0.950 . S
C1419 C1414 1.363 . S
C1419 C1418 1.415 . S
H1420 C1417 0.999 . S
H1421 C1402 0.913 . S
H1422 C1440 0.951 . S
H1423 C1442 0.951 . S
H1424 C1444 0.950 . S
H1425 C1445 0.950 . S
H1426 C1447 0.950 . S
H1427 C1450 0.950 . S
H1428 C1451 0.950 . S
H1429 C1453 0.950 . S
H1430 C1454 0.950 . S
H1431 C1455 0.951 . S
H1432 C1457 0.951 . S
H1433 C1459 0.950 . S
H1434 C1460 0.950 . S
H1435 C1462 0.950 . S
H1436 C1465 0.950 . S
H1437 C1466 0.950 . S
H1438 C1468 0.950 . S
H1439 C1469 0.950 . S
C1440 H1422 0.951 . S
C1440 C1441 1.366 . S
C1440 C1442 1.388 . S
C1441 C1440 1.366 . S
C1441 C1445 1.385 . S
C1442 H1423 0.951 . S
C1442 C1440 1.388 . S
C1442 C1443 1.366 . S
C1443 C1442 1.366 . S
C1443 C1444 1.414 . S
C1443 C1446 1.499 . S
C1444 H1424 0.950 . S
C1444 C1443 1.414 . S
C1444 C1445 1.374 . S
C1445 H1425 0.950 . S
C1445 C1441 1.385 . S
C1445 C1444 1.374 . S
C1446 C1443 1.499 . S
C1446 C1447 1.373 . S
C1446 C1448 1.389 . S
C1447 H1426 0.950 . S
C1447 C1446 1.373 . S
C1447 C1463 1.377 . S
C1448 C1446 1.389 . S
C1448 C1449 1.524 . S
C1448 C1462 1.377 . S
C1449 C1448 1.524 . S
C1449 C1450 1.397 . S
C1449 C1454 1.363 . S
C1450 H1427 0.950 . S
C1450 C1449 1.397 . S
C1450 C1451 1.334 . S
C1451 H1428 0.950 . S
C1451 C1450 1.334 . S
C1451 C1452 1.287 . S
C1452 C1451 1.287 . S
C1452 C1453 1.524 . S
C1452 H1471 0.913 . S
C1453 H1429 0.950 . S
C1453 C1452 1.524 . S
C1453 C1454 1.415 . S
C1454 H1430 0.950 . S
C1454 C1449 1.363 . S
C1454 C1453 1.415 . S
C1455 H1431 0.951 . S
C1455 C1456 1.366 . S
C1455 C1457 1.388 . S
C1456 C1455 1.366 . S
C1456 C1460 1.385 . S
C1457 H1432 0.951 . S
C1457 C1455 1.388 . S
C1457 C1458 1.366 . S
C1458 C1457 1.366 . S
C1458 C1459 1.414 . S
C1458 C1461 1.499 . S
C1459 H1433 0.950 . S
C1459 C1458 1.414 . S
C1459 C1460 1.374 . S
C1460 H1434 0.950 . S
C1460 C1456 1.385 . S
C1460 C1459 1.374 . S
C1461 C1458 1.499 . S
C1461 C1462 1.373 . S
C1461 C1463 1.389 . S
C1462 H1435 0.950 . S
C1462 C1448 1.377 . S
C1462 C1461 1.373 . S
C1463 C1447 1.377 . S
C1463 C1461 1.389 . S
C1463 C1464 1.524 . S
C1464 C1463 1.524 . S
C1464 C1465 1.397 . S
C1464 C1469 1.363 . S
C1465 H1436 0.950 . S
C1465 C1464 1.397 . S
C1465 C1466 1.334 . S
C1466 H1437 0.950 . S
C1466 C1465 1.334 . S
C1466 C1467 1.287 . S
C1467 C1466 1.287 . S
C1467 C1468 1.524 . S
C1467 H1470 0.999 . S
C1468 H1438 0.950 . S
C1468 C1467 1.524 . S
C1468 C1469 1.415 . S
C1469 H1439 0.950 . S
C1469 C1464 1.363 . S
C1469 C1468 1.415 . S
H1470 C1467 0.999 . S
H1471 C1452 0.913 . S
H1472 C1490 0.951 . S
H1473 C1492 0.951 . S
H1474 C1494 0.950 . S
H1475 C1495 0.950 . S
H1476 C1497 0.950 . S
H1477 C1500 0.950 . S
H1478 C1501 0.950 . S
H1479 C1503 0.950 . S
H1480 C1504 0.950 . S
H1481 C1505 0.951 . S
H1482 C1507 0.951 . S
H1483 C1509 0.950 . S
H1484 C1510 0.950 . S
H1485 C1512 0.950 . S
H1486 C1515 0.950 . S
H1487 C1516 0.950 . S
H1488 C1518 0.950 . S
H1489 C1519 0.950 . S
C1490 H1472 0.951 . S
C1490 C1491 1.366 . S
C1490 C1492 1.388 . S
C1491 C1490 1.366 . S
C1491 C1495 1.385 . S
C1492 H1473 0.951 . S
C1492 C1490 1.388 . S
C1492 C1493 1.366 . S
C1493 C1492 1.366 . S
C1493 C1494 1.414 . S
C1493 C1496 1.499 . S
C1494 H1474 0.950 . S
C1494 C1493 1.414 . S
C1494 C1495 1.374 . S
C1495 H1475 0.950 . S
C1495 C1491 1.385 . S
C1495 C1494 1.374 . S
C1496 C1493 1.499 . S
C1496 C1497 1.373 . S
C1496 C1498 1.389 . S
C1497 H1476 0.950 . S
C1497 C1496 1.373 . S
C1497 C1513 1.377 . S
C1498 C1496 1.389 . S
C1498 C1499 1.524 . S
C1498 C1512 1.377 . S
C1499 C1498 1.524 . S
C1499 C1500 1.397 . S
C1499 C1504 1.363 . S
C1500 H1477 0.950 . S
C1500 C1499 1.397 . S
C1500 C1501 1.334 . S
C1501 H1478 0.950 . S
C1501 C1500 1.334 . S
C1501 C1502 1.287 . S
C1502 C1501 1.287 . S
C1502 C1503 1.524 . S
C1502 H1521 0.913 . S
C1503 H1479 0.950 . S
C1503 C1502 1.524 . S
C1503 C1504 1.415 . S
C1504 H1480 0.950 . S
C1504 C1499 1.363 . S
C1504 C1503 1.415 . S
C1505 H1481 0.951 . S
C1505 C1506 1.366 . S
C1505 C1507 1.388 . S
C1506 C1505 1.366 . S
C1506 C1510 1.385 . S
C1507 H1482 0.951 . S
C1507 C1505 1.388 . S
C1507 C1508 1.366 . S
C1508 C1507 1.366 . S
C1508 C1509 1.414 . S
C1508 C1511 1.499 . S
C1509 H1483 0.950 . S
C1509 C1508 1.414 . S
C1509 C1510 1.374 . S
C1510 H1484 0.950 . S
C1510 C1506 1.385 . S
C1510 C1509 1.374 . S
C1511 C1508 1.499 . S
C1511 C1512 1.373 . S
C1511 C1513 1.389 . S
C1512 H1485 0.950 . S
C1512 C1498 1.377 . S
C1512 C1511 1.373 . S
C1513 C1497 1.377 . S
C1513 C1511 1.389 . S
C1513 C1514 1.524 . S
C1514 C1513 1.524 . S
C1514 C1515 1.397 . S
C1514 C1519 1.363 . S
C1515 H1486 0.950 . S
C1515 C1514 1.397 . S
C1515 C1516 1.334 . S
C1516 H1487 0.950 . S
C1516 C1515 1.334 . S
C1516 C1517 1.287 . S
C1517 C1516 1.287 . S
C1517 C1518 1.524 . S
C1517 H1520 0.999 . S
C1518 H1488 0.950 . S
C1518 C1517 1.524 . S
C1518 C1519 1.415 . S
C1519 H1489 0.950 . S
C1519 C1514 1.363 . S
C1519 C1518 1.415 . S
H1520 C1517 0.999 . S
H1521 C1502 0.913 . S
H1522 C1540 0.951 . S
H1523 C1542 0.951 . S
H1524 C1544 0.950 . S
H1525 C1545 0.950 . S
H1526 C1547 0.950 . S
H1527 C1550 0.950 . S
H1528 C1551 0.950 . S
H1529 C1553 0.950 . S
H1530 C1554 0.950 . S
H1531 C1555 0.951 . S
H1532 C1557 0.951 . S
H1533 C1559 0.950 . S
H1534 C1560 0.950 . S
H1535 C1562 0.950 . S
H1536 C1565 0.950 . S
H1537 C1566 0.950 . S
H1538 C1568 0.950 . S
H1539 C1569 0.950 . S
C1540 H1522 0.951 . S
C1540 C1541 1.366 . S
C1540 C1542 1.388 . S
C1541 C1540 1.366 . S
C1541 C1545 1.385 . S
C1542 H1523 0.951 . S
C1542 C1540 1.388 . S
C1542 C1543 1.366 . S
C1543 C1542 1.366 . S
C1543 C1544 1.414 . S
C1543 C1546 1.499 . S
C1544 H1524 0.950 . S
C1544 C1543 1.414 . S
C1544 C1545 1.374 . S
C1545 H1525 0.950 . S
C1545 C1541 1.385 . S
C1545 C1544 1.374 . S
C1546 C1543 1.499 . S
C1546 C1547 1.373 . S
C1546 C1548 1.389 . S
C1547 H1526 0.950 . S
C1547 C1546 1.373 . S
C1547 C1563 1.377 . S
C1548 C1546 1.389 . S
C1548 C1549 1.524 . S
C1548 C1562 1.377 . S
C1549 C1548 1.524 . S
C1549 C1550 1.397 . S
C1549 C1554 1.363 . S
C1550 H1527 0.950 . S
C1550 C1549 1.397 . S
C1550 C1551 1.334 . S
C1551 H1528 0.950 . S
C1551 C1550 1.334 . S
C1551 C1552 1.287 . S
C1552 C1551 1.287 . S
C1552 C1553 1.524 . S
C1552 H1571 0.913 . S
C1553 H1529 0.950 . S
C1553 C1552 1.524 . S
C1553 C1554 1.415 . S
C1554 H1530 0.950 . S
C1554 C1549 1.363 . S
C1554 C1553 1.415 . S
C1555 H1531 0.951 . S
C1555 C1556 1.366 . S
C1555 C1557 1.388 . S
C1556 C1555 1.366 . S
C1556 C1560 1.385 . S
C1557 H1532 0.951 . S
C1557 C1555 1.388 . S
C1557 C1558 1.366 . S
C1558 C1557 1.366 . S
C1558 C1559 1.414 . S
C1558 C1561 1.499 . S
C1559 H1533 0.950 . S
C1559 C1558 1.414 . S
C1559 C1560 1.374 . S
C1560 H1534 0.950 . S
C1560 C1556 1.385 . S
C1560 C1559 1.374 . S
C1561 C1558 1.499 . S
C1561 C1562 1.373 . S
C1561 C1563 1.389 . S
C1562 H1535 0.950 . S
C1562 C1548 1.377 . S
C1562 C1561 1.373 . S
C1563 C1547 1.377 . S
C1563 C1561 1.389 . S
C1563 C1564 1.524 . S
C1564 C1563 1.524 . S
C1564 C1565 1.397 . S
C1564 C1569 1.363 . S
C1565 H1536 0.950 . S
C1565 C1564 1.397 . S
C1565 C1566 1.334 . S
C1566 H1537 0.950 . S
C1566 C1565 1.334 . S
C1566 C1567 1.287 . S
C1567 C1566 1.287 . S
C1567 C1568 1.524 . S
C1567 H1570 0.999 . S
C1568 H1538 0.950 . S
C1568 C1567 1.524 . S
C1568 C1569 1.415 . S
C1569 H1539 0.950 . S
C1569 C1564 1.363 . S
C1569 C1568 1.415 . S
H1570 C1567 0.999 . S
H1571 C1552 0.913 . S
H1572 C1590 0.951 . S
H1573 C1592 0.951 . S
H1574 C1594 0.950 . S
H1575 C1595 0.950 . S
H1576 C1597 0.950 . S
H1577 C1600 0.950 . S
H1578 C1601 0.950 . S
H1579 C1603 0.950 . S
H1580 C1604 0.950 . S
H1581 C1605 0.951 . S
H1582 C1607 0.951 . S
H1583 C1609 0.950 . S
H1584 C1610 0.950 . S
H1585 C1612 0.950 . S
H1586 C1615 0.950 . S
H1587 C1616 0.950 . S
H1588 C1618 0.950 . S
H1589 C1619 0.950 . S
C1590 H1572 0.951 . S
C1590 C1591 1.366 . S
C1590 C1592 1.388 . S
C1591 C1590 1.366 . S
C1591 C1595 1.385 . S
C1592 H1573 0.951 . S
C1592 C1590 1.388 . S
C1592 C1593 1.366 . S
C1593 C1592 1.366 . S
C1593 C1594 1.414 . S
C1593 C1596 1.499 . S
C1594 H1574 0.950 . S
C1594 C1593 1.414 . S
C1594 C1595 1.374 . S
C1595 H1575 0.950 . S
C1595 C1591 1.385 . S
C1595 C1594 1.374 . S
C1596 C1593 1.499 . S
C1596 C1597 1.373 . S
C1596 C1598 1.389 . S
C1597 H1576 0.950 . S
C1597 C1596 1.373 . S
C1597 C1613 1.377 . S
C1598 C1596 1.389 . S
C1598 C1599 1.524 . S
C1598 C1612 1.377 . S
C1599 C1598 1.524 . S
C1599 C1600 1.397 . S
C1599 C1604 1.363 . S
C1600 H1577 0.950 . S
C1600 C1599 1.397 . S
C1600 C1601 1.334 . S
C1601 H1578 0.950 . S
C1601 C1600 1.334 . S
C1601 C1602 1.287 . S
C1602 C1601 1.287 . S
C1602 C1603 1.524 . S
C1602 H1621 0.913 . S
C1603 H1579 0.950 . S
C1603 C1602 1.524 . S
C1603 C1604 1.415 . S
C1604 H1580 0.950 . S
C1604 C1599 1.363 . S
C1604 C1603 1.415 . S
C1605 H1581 0.951 . S
C1605 C1606 1.366 . S
C1605 C1607 1.388 . S
C1606 C1605 1.366 . S
C1606 C1610 1.385 . S
C1607 H1582 0.951 . S
C1607 C1605 1.388 . S
C1607 C1608 1.366 . S
C1608 C1607 1.366 . S
C1608 C1609 1.414 . S
C1608 C1611 1.499 . S
C1609 H1583 0.950 . S
C1609 C1608 1.414 . S
C1609 C1610 1.374 . S
C1610 H1584 0.950 . S
C1610 C1606 1.385 . S
C1610 C1609 1.374 . S
C1611 C1608 1.499 . S
C1611 C1612 1.373 . S
C1611 C1613 1.389 . S
C1612 H1585 0.950 . S
C1612 C1598 1.377 . S
C1612 C1611 1.373 . S
C1613 C1597 1.377 . S
C1613 C1611 1.389 . S
C1613 C1614 1.524 . S
C1614 C1613 1.524 . S
C1614 C1615 1.397 . S
C1614 C1619 1.363 . S
C1615 H1586 0.950 . S
C1615 C1614 1.397 . S
C1615 C1616 1.334 . S
C1616 H1587 0.950 . S
C1616 C1615 1.334 . S
C1616 C1617 1.287 . S
C1617 C1616 1.287 . S
C1617 C1618 1.524 . S
C1617 H1620 0.999 . S
C1618 H1588 0.950 . S
C1618 C1617 1.524 . S
C1618 C1619 1.415 . S
C1619 H1589 0.950 . S
C1619 C1614 1.363 . S
C1619 C1618 1.415 . S
H1620 C1617 0.999 . S
H1621 C1602 0.913 . S
H1622 C1640 0.951 . S
H1623 C1642 0.951 . S
H1624 C1644 0.950 . S
H1625 C1645 0.950 . S
H1626 C1647 0.950 . S
H1627 C1650 0.950 . S
H1628 C1651 0.950 . S
H1629 C1653 0.950 . S
H1630 C1654 0.950 . S
H1631 C1655 0.951 . S
H1632 C1657 0.951 . S
H1633 C1659 0.950 . S
H1634 C1660 0.950 . S
H1635 C1662 0.950 . S
H1636 C1665 0.950 . S
H1637 C1666 0.950 . S
H1638 C1668 0.950 . S
H1639 C1669 0.950 . S
C1640 H1622 0.951 . S
C1640 C1641 1.366 . S
C1640 C1642 1.388 . S
C1641 C1640 1.366 . S
C1641 C1645 1.385 . S
C1642 H1623 0.951 . S
C1642 C1640 1.388 . S
C1642 C1643 1.366 . S
C1643 C1642 1.366 . S
C1643 C1644 1.414 . S
C1643 C1646 1.499 . S
C1644 H1624 0.950 . S
C1644 C1643 1.414 . S
C1644 C1645 1.374 . S
C1645 H1625 0.950 . S
C1645 C1641 1.385 . S
C1645 C1644 1.374 . S
C1646 C1643 1.499 . S
C1646 C1647 1.373 . S
C1646 C1648 1.389 . S
C1647 H1626 0.950 . S
C1647 C1646 1.373 . S
C1647 C1663 1.377 . S
C1648 C1646 1.389 . S
C1648 C1649 1.524 . S
C1648 C1662 1.377 . S
C1649 C1648 1.524 . S
C1649 C1650 1.397 . S
C1649 C1654 1.363 . S
C1650 H1627 0.950 . S
C1650 C1649 1.397 . S
C1650 C1651 1.334 . S
C1651 H1628 0.950 . S
C1651 C1650 1.334 . S
C1651 C1652 1.287 . S
C1652 C1651 1.287 . S
C1652 C1653 1.524 . S
C1652 H1671 0.913 . S
C1653 H1629 0.950 . S
C1653 C1652 1.524 . S
C1653 C1654 1.415 . S
C1654 H1630 0.950 . S
C1654 C1649 1.363 . S
C1654 C1653 1.415 . S
C1655 H1631 0.951 . S
C1655 C1656 1.366 . S
C1655 C1657 1.388 . S
C1656 C1655 1.366 . S
C1656 C1660 1.385 . S
C1657 H1632 0.951 . S
C1657 C1655 1.388 . S
C1657 C1658 1.366 . S
C1658 C1657 1.366 . S
C1658 C1659 1.414 . S
C1658 C1661 1.499 . S
C1659 H1633 0.950 . S
C1659 C1658 1.414 . S
C1659 C1660 1.374 . S
C1660 H1634 0.950 . S
C1660 C1656 1.385 . S
C1660 C1659 1.374 . S
C1661 C1658 1.499 . S
C1661 C1662 1.373 . S
C1661 C1663 1.389 . S
C1662 H1635 0.950 . S
C1662 C1648 1.377 . S
C1662 C1661 1.373 . S
C1663 C1647 1.377 . S
C1663 C1661 1.389 . S
C1663 C1664 1.524 . S
C1664 C1663 1.524 . S
C1664 C1665 1.397 . S
C1664 C1669 1.363 . S
C1665 H1636 0.950 . S
C1665 C1664 1.397 . S
C1665 C1666 1.334 . S
C1666 H1637 0.950 . S
C1666 C1665 1.334 . S
C1666 C1667 1.287 . S
C1667 C1666 1.287 . S
C1667 C1668 1.524 . S
C1667 H1670 0.999 . S
C1668 H1638 0.950 . S
C1668 C1667 1.524 . S
C1668 C1669 1.415 . S
C1669 H1639 0.950 . S
C1669 C1664 1.363 . S
C1669 C1668 1.415 . S
H1670 C1667 0.999 . S
H1671 C1652 0.913 . S
H1672 C1690 0.951 . S
H1673 C1692 0.951 . S
H1674 C1694 0.950 . S
H1675 C1695 0.950 . S
H1676 C1697 0.950 . S
H1677 C1700 0.950 . S
H1678 C1701 0.950 . S
H1679 C1703 0.950 . S
H1680 C1704 0.950 . S
H1681 C1705 0.951 . S
H1682 C1707 0.951 . S
H1683 C1709 0.950 . S
H1684 C1710 0.950 . S
H1685 C1712 0.950 . S
H1686 C1715 0.950 . S
H1687 C1716 0.950 . S
H1688 C1718 0.950 . S
H1689 C1719 0.950 . S
C1690 H1672 0.951 . S
C1690 C1691 1.366 . S
C1690 C1692 1.388 . S
C1691 C1690 1.366 . S
C1691 C1695 1.385 . S
C1692 H1673 0.951 . S
C1692 C1690 1.388 . S
C1692 C1693 1.366 . S
C1693 C1692 1.366 . S
C1693 C1694 1.414 . S
C1693 C1696 1.499 . S
C1694 H1674 0.950 . S
C1694 C1693 1.414 . S
C1694 C1695 1.374 . S
C1695 H1675 0.950 . S
C1695 C1691 1.385 . S
C1695 C1694 1.374 . S
C1696 C1693 1.499 . S
C1696 C1697 1.373 . S
C1696 C1698 1.389 . S
C1697 H1676 0.950 . S
C1697 C1696 1.373 . S
C1697 C1713 1.377 . S
C1698 C1696 1.389 . S
C1698 C1699 1.524 . S
C1698 C1712 1.377 . S
C1699 C1698 1.524 . S
C1699 C1700 1.397 . S
C1699 C1704 1.363 . S
C1700 H1677 0.950 . S
C1700 C1699 1.397 . S
C1700 C1701 1.334 . S
C1701 H1678 0.950 . S
C1701 C1700 1.334 . S
C1701 C1702 1.287 . S
C1702 C1701 1.287 . S
C1702 C1703 1.524 . S
C1702 H1721 0.913 . S
C1703 H1679 0.950 . S
C1703 C1702 1.524 . S
C1703 C1704 1.415 . S
C1704 H1680 0.950 . S
C1704 C1699 1.363 . S
C1704 C1703 1.415 . S
C1705 H1681 0.951 . S
C1705 C1706 1.366 . S
C1705 C1707 1.388 . S
C1706 C1705 1.366 . S
C1706 C1710 1.385 . S
C1707 H1682 0.951 . S
C1707 C1705 1.388 . S
C1707 C1708 1.366 . S
C1708 C1707 1.366 . S
C1708 C1709 1.414 . S
C1708 C1711 1.499 . S
C1709 H1683 0.950 . S
C1709 C1708 1.414 . S
C1709 C1710 1.374 . S
C1710 H1684 0.950 . S
C1710 C1706 1.385 . S
C1710 C1709 1.374 . S
C1711 C1708 1.499 . S
C1711 C1712 1.373 . S
C1711 C1713 1.389 . S
C1712 H1685 0.950 . S
C1712 C1698 1.377 . S
C1712 C1711 1.373 . S
C1713 C1697 1.377 . S
C1713 C1711 1.389 . S
C1713 C1714 1.524 . S
C1714 C1713 1.524 . S
C1714 C1715 1.397 . S
C1714 C1719 1.363 . S
C1715 H1686 0.950 . S
C1715 C1714 1.397 . S
C1715 C1716 1.334 . S
C1716 H1687 0.950 . S
C1716 C1715 1.334 . S
C1716 C1717 1.287 . S
C1717 C1716 1.287 . S
C1717 C1718 1.524 . S
C1717 H1720 0.999 . S
C1718 H1688 0.950 . S
C1718 C1717 1.524 . S
C1718 C1719 1.415 . S
C1719 H1689 0.950 . S
C1719 C1714 1.363 . S
C1719 C1718 1.415 . S
H1720 C1717 0.999 . S
H1721 C1702 0.913 . S
H1722 C1740 0.951 . S
H1723 C1742 0.951 . S
H1724 C1744 0.950 . S
H1725 C1745 0.950 . S
H1726 C1747 0.950 . S
H1727 C1750 0.950 . S
H1728 C1751 0.950 . S
H1729 C1753 0.950 . S
H1730 C1754 0.950 . S
H1731 C1755 0.951 . S
H1732 C1757 0.951 . S
H1733 C1759 0.950 . S
H1734 C1760 0.950 . S
H1735 C1762 0.950 . S
H1736 C1765 0.950 . S
H1737 C1766 0.950 . S
H1738 C1768 0.950 . S
H1739 C1769 0.950 . S
C1740 H1722 0.951 . S
C1740 C1741 1.366 . S
C1740 C1742 1.388 . S
C1741 C1740 1.366 . S
C1741 C1745 1.385 . S
C1742 H1723 0.951 . S
C1742 C1740 1.388 . S
C1742 C1743 1.366 . S
C1743 C1742 1.366 . S
C1743 C1744 1.414 . S
C1743 C1746 1.499 . S
C1744 H1724 0.950 . S
C1744 C1743 1.414 . S
C1744 C1745 1.374 . S
C1745 H1725 0.950 . S
C1745 C1741 1.385 . S
C1745 C1744 1.374 . S
C1746 C1743 1.499 . S
C1746 C1747 1.373 . S
C1746 C1748 1.389 . S
C1747 H1726 0.950 . S
C1747 C1746 1.373 . S
C1747 C1763 1.377 . S
C1748 C1746 1.389 . S
C1748 C1749 1.524 . S
C1748 C1762 1.377 . S
C1749 C1748 1.524 . S
C1749 C1750 1.397 . S
C1749 C1754 1.363 . S
C1750 H1727 0.950 . S
C1750 C1749 1.397 . S
C1750 C1751 1.334 . S
C1751 H1728 0.950 . S
C1751 C1750 1.334 . S
C1751 C1752 1.287 . S
C1752 C1751 1.287 . S
C1752 C1753 1.524 . S
C1752 H1771 0.913 . S
C1753 H1729 0.950 . S
C1753 C1752 1.524 . S
C1753 C1754 1.415 . S
C1754 H1730 0.950 . S
C1754 C1749 1.363 . S
C1754 C1753 1.415 . S
C1755 H1731 0.951 . S
C1755 C1756 1.366 . S
C1755 C1757 1.388 . S
C1756 C1755 1.366 . S
C1756 C1760 1.385 . S
C1757 H1732 0.951 . S
C1757 C1755 1.388 . S
C1757 C1758 1.366 . S
C1758 C1757 1.366 . S
C1758 C1759 1.414 . S
C1758 C1761 1.499 . S
C1759 H1733 0.950 . S
C1759 C1758 1.414 . S
C1759 C1760 1.374 . S
C1760 H1734 0.950 . S
C1760 C1756 1.385 . S
C1760 C1759 1.374 . S
C1761 C1758 1.499 . S
C1761 C1762 1.373 . S
C1761 C1763 1.389 . S
C1762 H1735 0.950 . S
C1762 C1748 1.377 . S
C1762 C1761 1.373 . S
C1763 C1747 1.377 . S
C1763 C1761 1.389 . S
C1763 C1764 1.524 . S
C1764 C1763 1.524 . S
C1764 C1765 1.397 . S
C1764 C1769 1.363 . S
C1765 H1736 0.950 . S
C1765 C1764 1.397 . S
C1765 C1766 1.334 . S
C1766 H1737 0.950 . S
C1766 C1765 1.334 . S
C1766 C1767 1.287 . S
C1767 C1766 1.287 . S
C1767 C1768 1.524 . S
C1767 H1770 0.999 . S
C1768 H1738 0.950 . S
C1768 C1767 1.524 . S
C1768 C1769 1.415 . S
C1769 H1739 0.950 . S
C1769 C1764 1.363 . S
C1769 C1768 1.415 . S
H1770 C1767 0.999 . S
H1771 C1752 0.913 . S
H1772 C1790 0.951 . S
H1773 C1792 0.951 . S
H1774 C1794 0.950 . S
H1775 C1795 0.950 . S
H1776 C1797 0.950 . S
H1777 C1800 0.950 . S
H1778 C1801 0.950 . S
H1779 C1803 0.950 . S
H1780 C1804 0.950 . S
H1781 C1805 0.951 . S
H1782 C1807 0.951 . S
H1783 C1809 0.950 . S
H1784 C1810 0.950 . S
H1785 C1812 0.950 . S
H1786 C1815 0.950 . S
H1787 C1816 0.950 . S
H1788 C1818 0.950 . S
H1789 C1819 0.950 . S
C1790 H1772 0.951 . S
C1790 C1791 1.366 . S
C1790 C1792 1.388 . S
C1791 C1790 1.366 . S
C1791 C1795 1.385 . S
C1792 H1773 0.951 . S
C1792 C1790 1.388 . S
C1792 C1793 1.366 . S
C1793 C1792 1.366 . S
C1793 C1794 1.414 . S
C1793 C1796 1.499 . S
C1794 H1774 0.950 . S
C1794 C1793 1.414 . S
C1794 C1795 1.374 . S
C1795 H1775 0.950 . S
C1795 C1791 1.385 . S
C1795 C1794 1.374 . S
C1796 C1793 1.499 . S
C1796 C1797 1.373 . S
C1796 C1798 1.389 . S
C1797 H1776 0.950 . S
C1797 C1796 1.373 . S
C1797 C1813 1.377 . S
C1798 C1796 1.389 . S
C1798 C1799 1.524 . S
C1798 C1812 1.377 . S
C1799 C1798 1.524 . S
C1799 C1800 1.397 . S
C1799 C1804 1.363 . S
C1800 H1777 0.950 . S
C1800 C1799 1.397 . S
C1800 C1801 1.334 . S
C1801 H1778 0.950 . S
C1801 C1800 1.334 . S
C1801 C1802 1.287 . S
C1802 C1801 1.287 . S
C1802 C1803 1.524 . S
C1802 H1821 0.913 . S
C1803 H1779 0.950 . S
C1803 C1802 1.524 . S
C1803 C1804 1.415 . S
C1804 H1780 0.950 . S
C1804 C1799 1.363 . S
C1804 C1803 1.415 . S
C1805 H1781 0.951 . S
C1805 C1806 1.366 . S
C1805 C1807 1.388 . S
C1806 C1805 1.366 . S
C1806 C1810 1.385 . S
C1807 H1782 0.951 . S
C1807 C1805 1.388 . S
C1807 C1808 1.366 . S
C1808 C1807 1.366 . S
C1808 C1809 1.414 . S
C1808 C1811 1.499 . S
C1809 H1783 0.950 . S
C1809 C1808 1.414 . S
C1809 C1810 1.374 . S
C1810 H1784 0.950 . S
C1810 C1806 1.385 . S
C1810 C1809 1.374 . S
C1811 C1808 1.499 . S
C1811 C1812 1.373 . S
C1811 C1813 1.389 . S
C1812 H1785 0.950 . S
C1812 C1798 1.377 . S
C1812 C1811 1.373 . S
C1813 C1797 1.377 . S
C1813 C1811 1.389 . S
C1813 C1814 1.524 . S
C1814 C1813 1.524 . S
C1814 C1815 1.397 . S
C1814 C1819 1.363 . S
C1815 H1786 0.950 . S
C1815 C1814 1.397 . S
C1815 C1816 1.334 . S
C1816 H1787 0.950 . S
C1816 C1815 1.334 . S
C1816 C1817 1.287 . S
C1817 C1816 1.287 . S
C1817 C1818 1.524 . S
C1817 H1820 0.999 . S
C1818 H1788 0.950 . S
C1818 C1817 1.524 . S
C1818 C1819 1.415 . S
C1819 H1789 0.950 . S
C1819 C1814 1.363 . S
C1819 C1818 1.415 . S
H1820 C1817 0.999 . S
H1821 C1802 0.913 . S
H1822 C1840 0.951 . S
H1823 C1842 0.951 . S
H1824 C1844 0.950 . S
H1825 C1845 0.950 . S
H1826 C1847 0.950 . S
H1827 C1850 0.950 . S
H1828 C1851 0.950 . S
H1829 C1853 0.950 . S
H1830 C1854 0.950 . S
H1831 C1855 0.951 . S
H1832 C1857 0.951 . S
H1833 C1859 0.950 . S
H1834 C1860 0.950 . S
H1835 C1862 0.950 . S
H1836 C1865 0.950 . S
H1837 C1866 0.950 . S
H1838 C1868 0.950 . S
H1839 C1869 0.950 . S
C1840 H1822 0.951 . S
C1840 C1841 1.366 . S
C1840 C1842 1.388 . S
C1841 C1840 1.366 . S
C1841 C1845 1.385 . S
C1842 H1823 0.951 . S
C1842 C1840 1.388 . S
C1842 C1843 1.366 . S
C1843 C1842 1.366 . S
C1843 C1844 1.414 . S
C1843 C1846 1.499 . S
C1844 H1824 0.950 . S
C1844 C1843 1.414 . S
C1844 C1845 1.374 . S
C1845 H1825 0.950 . S
C1845 C1841 1.385 . S
C1845 C1844 1.374 . S
C1846 C1843 1.499 . S
C1846 C1847 1.373 . S
C1846 C1848 1.389 . S
C1847 H1826 0.950 . S
C1847 C1846 1.373 . S
C1847 C1863 1.377 . S
C1848 C1846 1.389 . S
C1848 C1849 1.524 . S
C1848 C1862 1.377 . S
C1849 C1848 1.524 . S
C1849 C1850 1.397 . S
C1849 C1854 1.363 . S
C1850 H1827 0.950 . S
C1850 C1849 1.397 . S
C1850 C1851 1.334 . S
C1851 H1828 0.950 . S
C1851 C1850 1.334 . S
C1851 C1852 1.287 . S
C1852 C1851 1.287 . S
C1852 C1853 1.524 . S
C1852 H1871 0.913 . S
C1853 H1829 0.950 . S
C1853 C1852 1.524 . S
C1853 C1854 1.415 . S
C1854 H1830 0.950 . S
C1854 C1849 1.363 . S
C1854 C1853 1.415 . S
C1855 H1831 0.951 . S
C1855 C1856 1.366 . S
C1855 C1857 1.388 . S
C1856 C1855 1.366 . S
C1856 C1860 1.385 . S
C1857 H1832 0.951 . S
C1857 C1855 1.388 . S
C1857 C1858 1.366 . S
C1858 C1857 1.366 . S
C1858 C1859 1.414 . S
C1858 C1861 1.499 . S
C1859 H1833 0.950 . S
C1859 C1858 1.414 . S
C1859 C1860 1.374 . S
C1860 H1834 0.950 . S
C1860 C1856 1.385 . S
C1860 C1859 1.374 . S
C1861 C1858 1.499 . S
C1861 C1862 1.373 . S
C1861 C1863 1.389 . S
C1862 H1835 0.950 . S
C1862 C1848 1.377 . S
C1862 C1861 1.373 . S
C1863 C1847 1.377 . S
C1863 C1861 1.389 . S
C1863 C1864 1.524 . S
C1864 C1863 1.524 . S
C1864 C1865 1.397 . S
C1864 C1869 1.363 . S
C1865 H1836 0.950 . S
C1865 C1864 1.397 . S
C1865 C1866 1.334 . S
C1866 H1837 0.950 . S
C1866 C1865 1.334 . S
C1866 C1867 1.287 . S
C1867 C1866 1.287 . S
C1867 C1868 1.524 . S
C1867 H1870 0.999 . S
C1868 H1838 0.950 . S
C1868 C1867 1.524 . S
C1868 C1869 1.415 . S
C1869 H1839 0.950 . S
C1869 C1864 1.363 . S
C1869 C1868 1.415 . S
H1870 C1867 0.999 . S
H1871 C1852 0.913 . S
H1872 C1890 0.951 . S
H1873 C1892 0.951 . S
H1874 C1894 0.950 . S
H1875 C1895 0.950 . S
H1876 C1897 0.950 . S
H1877 C1900 0.950 . S
H1878 C1901 0.950 . S
H1879 C1903 0.950 . S
H1880 C1904 0.950 . S
H1881 C1905 0.951 . S
H1882 C1907 0.951 . S
H1883 C1909 0.950 . S
H1884 C1910 0.950 . S
H1885 C1912 0.950 . S
H1886 C1915 0.950 . S
H1887 C1916 0.950 . S
H1888 C1918 0.950 . S
H1889 C1919 0.950 . S
C1890 H1872 0.951 . S
C1890 C1891 1.366 . S
C1890 C1892 1.388 . S
C1891 C1890 1.366 . S
C1891 C1895 1.385 . S
C1892 H1873 0.951 . S
C1892 C1890 1.388 . S
C1892 C1893 1.366 . S
C1893 C1892 1.366 . S
C1893 C1894 1.414 . S
C1893 C1896 1.499 . S
C1894 H1874 0.950 . S
C1894 C1893 1.414 . S
C1894 C1895 1.374 . S
C1895 H1875 0.950 . S
C1895 C1891 1.385 . S
C1895 C1894 1.374 . S
C1896 C1893 1.499 . S
C1896 C1897 1.373 . S
C1896 C1898 1.389 . S
C1897 H1876 0.950 . S
C1897 C1896 1.373 . S
C1897 C1913 1.377 . S
C1898 C1896 1.389 . S
C1898 C1899 1.524 . S
C1898 C1912 1.377 . S
C1899 C1898 1.524 . S
C1899 C1900 1.397 . S
C1899 C1904 1.363 . S
C1900 H1877 0.950 . S
C1900 C1899 1.397 . S
C1900 C1901 1.334 . S
C1901 H1878 0.950 . S
C1901 C1900 1.334 . S
C1901 C1902 1.287 . S
C1902 C1901 1.287 . S
C1902 C1903 1.524 . S
C1902 H1921 0.913 . S
C1903 H1879 0.950 . S
C1903 C1902 1.524 . S
C1903 C1904 1.415 . S
C1904 H1880 0.950 . S
C1904 C1899 1.363 . S
C1904 C1903 1.415 . S
C1905 H1881 0.951 . S
C1905 C1906 1.366 . S
C1905 C1907 1.388 . S
C1906 C1905 1.366 . S
C1906 C1910 1.385 . S
C1907 H1882 0.951 . S
C1907 C1905 1.388 . S
C1907 C1908 1.366 . S
C1908 C1907 1.366 . S
C1908 C1909 1.414 . S
C1908 C1911 1.499 . S
C1909 H1883 0.950 . S
C1909 C1908 1.414 . S
C1909 C1910 1.374 . S
C1910 H1884 0.950 . S
C1910 C1906 1.385 . S
C1910 C1909 1.374 . S
C1911 C1908 1.499 . S
C1911 C1912 1.373 . S
C1911 C1913 1.389 . S
C1912 H1885 0.950 . S
C1912 C1898 1.377 . S
C1912 C1911 1.373 . S
C1913 C1897 1.377 . S
C1913 C1911 1.389 . S
C1913 C1914 1.524 . S
C1914 C1913 1.524 . S
C1914 C1915 1.397 . S
C1914 C1919 1.363 . S
C1915 H1886 0.950 . S
C1915 C1914 1.397 . S
C1915 C1916 1.334 . S
C1916 H1887 0.950 . S
C1916 C1915 1.334 . S
C1916 C1917 1.287 . S
C1917 C1916 1.287 . S
C1917 C1918 1.524 . S
C1917 H1920 0.999 . S
C1918 H1888 0.950 . S
C1918 C1917 1.524 . S
C1918 C1919 1.415 . S
C1919 H1889 0.950 . S
C1919 C1914 1.363 . S
C1919 C1918 1.415 . S
H1920 C1917 0.999 . S
H1921 C1902 0.913 . S
H1922 C1940 0.951 . S
H1923 C1942 0.951 . S
H1924 C1944 0.950 . S
H1925 C1945 0.950 . S
H1926 C1947 0.950 . S
H1927 C1950 0.950 . S
H1928 C1951 0.950 . S
H1929 C1953 0.950 . S
H1930 C1954 0.950 . S
H1931 C1955 0.951 . S
H1932 C1957 0.951 . S
H1933 C1959 0.950 . S
H1934 C1960 0.950 . S
H1935 C1962 0.950 . S
H1936 C1965 0.950 . S
H1937 C1966 0.950 . S
H1938 C1968 0.950 . S
H1939 C1969 0.950 . S
C1940 H1922 0.951 . S
C1940 C1941 1.366 . S
C1940 C1942 1.388 . S
C1941 C1940 1.366 . S
C1941 C1945 1.385 . S
C1942 H1923 0.951 . S
C1942 C1940 1.388 . S
C1942 C1943 1.366 . S
C1943 C1942 1.366 . S
C1943 C1944 1.414 . S
C1943 C1946 1.499 . S
C1944 H1924 0.950 . S
C1944 C1943 1.414 . S
C1944 C1945 1.374 . S
C1945 H1925 0.950 . S
C1945 C1941 1.385 . S
C1945 C1944 1.374 . S
C1946 C1943 1.499 . S
C1946 C1947 1.373 . S
C1946 C1948 1.389 . S
C1947 H1926 0.950 . S
C1947 C1946 1.373 . S
C1947 C1963 1.377 1_556 S
C1948 C1946 1.389 . S
C1948 C1949 1.524 . S
C1948 C1962 1.377 1_556 S
C1949 C1948 1.524 . S
C1949 C1950 1.397 . S
C1949 C1954 1.363 . S
C1950 H1927 0.950 . S
C1950 C1949 1.397 . S
C1950 C1951 1.334 . S
C1951 H1928 0.950 . S
C1951 C1950 1.334 . S
C1951 C1952 1.287 . S
C1952 C1951 1.287 . S
C1952 C1953 1.524 . S
C1952 H1971 0.913 . S
C1953 H1929 0.950 . S
C1953 C1952 1.524 . S
C1953 C1954 1.415 . S
C1954 H1930 0.950 . S
C1954 C1949 1.363 . S
C1954 C1953 1.415 . S
C1955 H1931 0.951 . S
C1955 C1956 1.366 . S
C1955 C1957 1.388 . S
C1956 C1955 1.366 . S
C1956 C1960 1.385 . S
C1957 H1932 0.951 . S
C1957 C1955 1.388 . S
C1957 C1958 1.366 . S
C1958 C1957 1.366 . S
C1958 C1959 1.414 . S
C1958 C1961 1.499 . S
C1959 H1933 0.950 . S
C1959 C1958 1.414 . S
C1959 C1960 1.374 . S
C1960 H1934 0.950 . S
C1960 C1956 1.385 . S
C1960 C1959 1.374 . S
C1961 C1958 1.499 . S
C1961 C1962 1.373 . S
C1961 C1963 1.389 . S
C1962 H1935 0.950 . S
C1962 C1948 1.377 1_554 S
C1962 C1961 1.373 . S
C1963 C1947 1.377 1_554 S
C1963 C1961 1.389 . S
C1963 C1964 1.524 . S
C1964 C1963 1.524 . S
C1964 C1965 1.397 . S
C1964 C1969 1.363 . S
C1965 H1936 0.950 . S
C1965 C1964 1.397 . S
C1965 C1966 1.334 . S
C1966 H1937 0.950 . S
C1966 C1965 1.334 . S
C1966 C1967 1.287 . S
C1967 C1966 1.287 . S
C1967 C1968 1.524 . S
C1967 H1970 0.999 . S
C1968 H1938 0.950 . S
C1968 C1967 1.524 . S
C1968 C1969 1.415 . S
C1969 H1939 0.950 . S
C1969 C1964 1.363 . S
C1969 C1968 1.415 . S
H1970 C1967 0.999 . S
H1971 C1952 0.913 . S
H1972 C1990 0.951 . S
H1973 C1992 0.951 . S
H1974 C1994 0.950 . S
H1975 C1995 0.950 . S
H1976 C1997 0.950 . S
H1977 C2000 0.950 . S
H1978 C2001 0.950 . S
H1979 C2003 0.950 . S
H1980 C2004 0.950 . S
H1981 C2005 0.951 . S
H1982 C2007 0.951 . S
H1983 C2009 0.950 . S
H1984 C2010 0.950 . S
H1985 C2012 0.950 . S
H1986 C2015 0.950 . S
H1987 C2016 0.950 . S
H1988 C2018 0.950 . S
H1989 C2019 0.950 . S
C1990 H1972 0.951 . S
C1990 C1991 1.366 . S
C1990 C1992 1.388 . S
C1991 C1990 1.366 . S
C1991 C1995 1.385 . S
C1992 H1973 0.951 . S
C1992 C1990 1.388 . S
C1992 C1993 1.366 . S
C1993 C1992 1.366 . S
C1993 C1994 1.414 . S
C1993 C1996 1.499 . S
C1994 H1974 0.950 . S
C1994 C1993 1.414 . S
C1994 C1995 1.374 . S
C1995 H1975 0.950 . S
C1995 C1991 1.385 . S
C1995 C1994 1.374 . S
C1996 C1993 1.499 . S
C1996 C1997 1.373 . S
C1996 C1998 1.389 . S
C1997 H1976 0.950 . S
C1997 C1996 1.373 . S
C1997 C2013 1.377 . S
C1998 C1996 1.389 . S
C1998 C1999 1.524 . S
C1998 C2012 1.377 . S
C1999 C1998 1.524 . S
C1999 C2000 1.397 . S
C1999 C2004 1.363 . S
C2000 H1977 0.950 . S
C2000 C1999 1.397 . S
C2000 C2001 1.334 . S
C2001 H1978 0.950 . S
C2001 C2000 1.334 . S
C2001 C2002 1.287 . S
C2002 C2001 1.287 . S
C2002 C2003 1.524 . S
C2002 H2021 0.913 . S
C2003 H1979 0.950 . S
C2003 C2002 1.524 . S
C2003 C2004 1.415 . S
C2004 H1980 0.950 . S
C2004 C1999 1.363 . S
C2004 C2003 1.415 . S
C2005 H1981 0.951 . S
C2005 C2006 1.366 . S
C2005 C2007 1.388 . S
C2006 C2005 1.366 . S
C2006 C2010 1.385 . S
C2007 H1982 0.951 . S
C2007 C2005 1.388 . S
C2007 C2008 1.366 . S
C2008 C2007 1.366 . S
C2008 C2009 1.414 . S
C2008 C2011 1.499 . S
C2009 H1983 0.950 . S
C2009 C2008 1.414 . S
C2009 C2010 1.374 . S
C2010 H1984 0.950 . S
C2010 C2006 1.385 . S
C2010 C2009 1.374 . S
C2011 C2008 1.499 . S
C2011 C2012 1.373 . S
C2011 C2013 1.389 . S
C2012 H1985 0.950 . S
C2012 C1998 1.377 . S
C2012 C2011 1.373 . S
C2013 C1997 1.377 . S
C2013 C2011 1.389 . S
C2013 C2014 1.524 . S
C2014 C2013 1.524 . S
C2014 C2015 1.397 . S
C2014 C2019 1.363 . S
C2015 H1986 0.950 . S
C2015 C2014 1.397 . S
C2015 C2016 1.334 . S
C2016 H1987 0.950 . S
C2016 C2015 1.334 . S
C2016 C2017 1.287 . S
C2017 C2016 1.287 . S
C2017 C2018 1.524 . S
C2017 H2020 0.999 . S
C2018 H1988 0.950 . S
C2018 C2017 1.524 . S
C2018 C2019 1.415 . S
C2019 H1989 0.950 . S
C2019 C2014 1.363 . S
C2019 C2018 1.415 . S
H2020 C2017 0.999 . S
H2021 C2002 0.913 . S
H2022 C2040 0.951 . S
H2023 C2042 0.951 . S
H2024 C2044 0.950 . S
H2025 C2045 0.950 . S
H2026 C2047 0.950 . S
H2027 C2050 0.950 . S
H2028 C2051 0.950 . S
H2029 C2053 0.950 . S
H2030 C2054 0.948 . S
H2031 C2055 0.951 . S
H2032 C2057 0.951 . S
H2033 C2059 0.950 . S
H2034 C2060 0.950 . S
H2035 C2062 0.950 . S
H2036 C2065 0.950 . S
H2037 C2066 0.950 . S
H2038 C2068 0.950 . S
H2039 C2069 0.950 . S
C2040 H2022 0.951 . S
C2040 C2041 1.366 . S
C2040 C2042 1.388 . S
C2041 C2040 1.366 . S
C2041 C2045 1.385 . S
C2042 H2023 0.951 . S
C2042 C2040 1.388 . S
C2042 C2043 1.366 . S
C2043 C2042 1.366 . S
C2043 C2044 1.414 . S
C2043 C2046 1.499 . S
C2044 H2024 0.950 . S
C2044 C2043 1.414 . S
C2044 C2045 1.374 . S
C2045 H2025 0.950 . S
C2045 C2041 1.385 . S
C2045 C2044 1.374 . S
C2046 C2043 1.499 . S
C2046 C2047 1.373 . S
C2046 C2048 1.389 . S
C2047 H2026 0.950 . S
C2047 C2046 1.373 . S
C2047 C2063 1.377 1_556 S
C2048 C2046 1.389 . S
C2048 C2049 1.524 . S
C2048 C2062 1.377 1_556 S
C2049 C2048 1.524 . S
C2049 C2050 1.397 . S
C2049 C2054 1.363 . S
C2050 H2027 0.950 . S
C2050 C2049 1.397 . S
C2050 C2051 1.334 . S
C2051 H2028 0.950 . S
C2051 C2050 1.334 . S
C2051 C2052 1.287 . S
C2052 C2051 1.287 . S
C2052 C2053 1.524 . S
C2052 H2071 0.913 . S
C2053 H2029 0.950 . S
C2053 C2052 1.524 . S
C2053 C2054 1.415 . S
C2054 H2030 0.948 . S
C2054 C2049 1.363 . S
C2054 C2053 1.415 . S
C2055 H2031 0.951 . S
C2055 C2056 1.366 . S
C2055 C2057 1.388 . S
C2056 C2055 1.366 . S
C2056 C2060 1.385 . S
C2057 H2032 0.951 . S
C2057 C2055 1.388 . S
C2057 C2058 1.366 . S
C2058 C2057 1.366 . S
C2058 C2059 1.414 . S
C2058 C2061 1.499 . S
C2059 H2033 0.950 . S
C2059 C2058 1.414 . S
C2059 C2060 1.374 . S
C2060 H2034 0.950 . S
C2060 C2056 1.385 . S
C2060 C2059 1.374 . S
C2061 C2058 1.499 . S
C2061 C2062 1.373 . S
C2061 C2063 1.389 . S
C2062 H2035 0.950 . S
C2062 C2048 1.377 1_554 S
C2062 C2061 1.373 . S
C2063 C2047 1.377 1_554 S
C2063 C2061 1.389 . S
C2063 C2064 1.524 . S
C2064 C2063 1.524 . S
C2064 C2065 1.397 . S
C2064 C2069 1.363 . S
C2065 H2036 0.950 . S
C2065 C2064 1.397 . S
C2065 C2066 1.334 . S
C2066 H2037 0.950 . S
C2066 C2065 1.334 . S
C2066 C2067 1.287 . S
C2067 C2066 1.287 . S
C2067 C2068 1.524 . S
C2067 H2070 0.999 . S
C2068 H2038 0.950 . S
C2068 C2067 1.524 . S
C2068 C2069 1.415 . S
C2069 H2039 0.950 . S
C2069 C2064 1.363 . S
C2069 C2068 1.415 . S
H2070 C2067 0.999 . S
H2071 C2052 0.913 . S
H2072 C2090 0.951 . S
H2073 C2092 0.951 . S
H2074 C2094 0.950 . S
H2075 C2095 0.950 . S
H2076 C2097 0.950 . S
H2077 C2100 0.950 . S
H2078 C2101 0.950 . S
H2079 C2103 0.950 . S
H2080 C2104 0.950 . S
H2081 C2105 0.951 . S
H2082 C2107 0.951 . S
H2083 C2109 0.950 . S
H2084 C2110 0.950 . S
H2085 C2112 0.950 . S
H2086 C2115 0.950 . S
H2087 C2116 0.950 . S
H2088 C2118 0.950 . S
H2089 C2119 0.950 . S
C2090 H2072 0.951 . S
C2090 C2091 1.366 . S
C2090 C2092 1.388 . S
C2091 C2090 1.366 . S
C2091 C2095 1.385 . S
C2092 H2073 0.951 . S
C2092 C2090 1.388 . S
C2092 C2093 1.366 . S
C2093 C2092 1.366 . S
C2093 C2094 1.414 . S
C2093 C2096 1.499 . S
C2094 H2074 0.950 . S
C2094 C2093 1.414 . S
C2094 C2095 1.374 . S
C2095 H2075 0.950 . S
C2095 C2091 1.385 . S
C2095 C2094 1.374 . S
C2096 C2093 1.499 . S
C2096 C2097 1.373 . S
C2096 C2098 1.389 . S
C2097 H2076 0.950 . S
C2097 C2096 1.373 . S
C2097 C2113 1.377 . S
C2098 C2096 1.389 . S
C2098 C2099 1.524 . S
C2098 C2112 1.377 . S
C2099 C2098 1.524 . S
C2099 C2100 1.397 . S
C2099 C2104 1.363 . S
C2100 H2077 0.950 . S
C2100 C2099 1.397 . S
C2100 C2101 1.334 . S
C2101 H2078 0.950 . S
C2101 C2100 1.334 . S
C2101 C2102 1.287 . S
C2102 C2101 1.287 . S
C2102 C2103 1.524 . S
C2102 H2121 0.913 . S
C2103 H2079 0.950 . S
C2103 C2102 1.524 . S
C2103 C2104 1.415 . S
C2104 H2080 0.950 . S
C2104 C2099 1.363 . S
C2104 C2103 1.415 . S
C2105 H2081 0.951 . S
C2105 C2106 1.366 . S
C2105 C2107 1.388 . S
C2106 C2105 1.366 . S
C2106 C2110 1.385 . S
C2107 H2082 0.951 . S
C2107 C2105 1.388 . S
C2107 C2108 1.366 . S
C2108 C2107 1.366 . S
C2108 C2109 1.414 . S
C2108 C2111 1.499 . S
C2109 H2083 0.950 . S
C2109 C2108 1.414 . S
C2109 C2110 1.374 . S
C2110 H2084 0.950 . S
C2110 C2106 1.385 . S
C2110 C2109 1.374 . S
C2111 C2108 1.499 . S
C2111 C2112 1.373 . S
C2111 C2113 1.389 . S
C2112 H2085 0.950 . S
C2112 C2098 1.377 . S
C2112 C2111 1.373 . S
C2113 C2097 1.377 . S
C2113 C2111 1.389 . S
C2113 C2114 1.524 . S
C2114 C2113 1.524 . S
C2114 C2115 1.397 . S
C2114 C2119 1.363 . S
C2115 H2086 0.950 . S
C2115 C2114 1.397 . S
C2115 C2116 1.334 . S
C2116 H2087 0.950 . S
C2116 C2115 1.334 . S
C2116 C2117 1.287 . S
C2117 C2116 1.287 . S
C2117 C2118 1.524 . S
C2117 H2120 0.999 . S
C2118 H2088 0.950 . S
C2118 C2117 1.524 . S
C2118 C2119 1.415 . S
C2119 H2089 0.950 . S
C2119 C2114 1.363 . S
C2119 C2118 1.415 . S
H2120 C2117 0.999 . S
H2121 C2102 0.913 . S
H2122 C2140 0.951 . S
H2123 C2142 0.951 . S
H2124 C2144 0.950 . S
H2125 C2145 0.950 . S
H2126 C2147 0.950 . S
H2127 C2150 0.950 . S
H2128 C2151 0.950 . S
H2129 C2153 0.950 . S
H2130 C2154 0.950 . S
H2131 C2155 0.951 . S
H2132 C2157 0.951 . S
H2133 C2159 0.950 . S
H2134 C2160 0.950 . S
H2135 C2162 0.950 . S
H2136 C2165 0.950 . S
H2137 C2166 0.950 . S
H2138 C2168 0.950 . S
H2139 C2169 0.950 . S
C2140 H2122 0.951 . S
C2140 C2141 1.366 . S
C2140 C2142 1.388 . S
C2141 C2140 1.366 . S
C2141 C2145 1.385 . S
C2142 H2123 0.951 . S
C2142 C2140 1.388 . S
C2142 C2143 1.366 . S
C2143 C2142 1.366 . S
C2143 C2144 1.414 . S
C2143 C2146 1.499 . S
C2144 H2124 0.950 . S
C2144 C2143 1.414 . S
C2144 C2145 1.374 . S
C2145 H2125 0.950 . S
C2145 C2141 1.385 . S
C2145 C2144 1.374 . S
C2146 C2143 1.499 . S
C2146 C2147 1.373 . S
C2146 C2148 1.389 . S
C2147 H2126 0.950 . S
C2147 C2146 1.373 . S
C2147 C2163 1.377 1_556 S
C2148 C2146 1.389 . S
C2148 C2149 1.524 . S
C2148 C2162 1.377 1_556 S
C2149 C2148 1.524 . S
C2149 C2150 1.397 . S
C2149 C2154 1.363 . S
C2150 H2127 0.950 . S
C2150 C2149 1.397 . S
C2150 C2151 1.334 . S
C2151 H2128 0.950 . S
C2151 C2150 1.334 . S
C2151 C2152 1.287 . S
C2152 C2151 1.287 . S
C2152 C2153 1.524 . S
C2152 H2171 0.913 . S
C2153 H2129 0.950 . S
C2153 C2152 1.524 . S
C2153 C2154 1.415 . S
C2154 H2130 0.950 . S
C2154 C2149 1.363 . S
C2154 C2153 1.415 . S
C2155 H2131 0.951 . S
C2155 C2156 1.366 . S
C2155 C2157 1.388 . S
C2156 C2155 1.366 . S
C2156 C2160 1.385 . S
C2157 H2132 0.951 . S
C2157 C2155 1.388 . S
C2157 C2158 1.366 . S
C2158 C2157 1.366 . S
C2158 C2159 1.414 . S
C2158 C2161 1.499 . S
C2159 H2133 0.950 . S
C2159 C2158 1.414 . S
C2159 C2160 1.374 . S
C2160 H2134 0.950 . S
C2160 C2156 1.385 . S
C2160 C2159 1.374 . S
C2161 C2158 1.499 . S
C2161 C2162 1.373 . S
C2161 C2163 1.389 . S
C2162 H2135 0.950 . S
C2162 C2148 1.377 1_554 S
C2162 C2161 1.373 . S
C2163 C2147 1.377 1_554 S
C2163 C2161 1.389 . S
C2163 C2164 1.524 . S
C2164 C2163 1.524 . S
C2164 C2165 1.397 . S
C2164 C2169 1.363 . S
C2165 H2136 0.950 . S
C2165 C2164 1.397 . S
C2165 C2166 1.334 . S
C2166 H2137 0.950 . S
C2166 C2165 1.334 . S
C2166 C2167 1.287 . S
C2167 C2166 1.287 . S
C2167 C2168 1.524 . S
C2167 H2170 0.999 . S
C2168 H2138 0.950 . S
C2168 C2167 1.524 . S
C2168 C2169 1.415 . S
C2169 H2139 0.950 . S
C2169 C2164 1.363 . S
C2169 C2168 1.415 . S
H2170 C2167 0.999 . S
H2171 C2152 0.913 . S
H2172 C2190 0.951 . S
H2173 C2192 0.951 . S
H2174 C2194 0.950 . S
H2175 C2195 0.950 . S
H2176 C2197 0.950 . S
H2177 C2200 0.950 . S
H2178 C2201 0.950 . S
H2179 C2203 0.950 . S
H2180 C2204 0.950 . S
H2181 C2205 0.951 . S
H2182 C2207 0.951 . S
H2183 C2209 0.950 . S
H2184 C2210 0.950 . S
H2185 C2212 0.950 . S
H2186 C2215 0.950 . S
H2187 C2216 0.950 . S
H2188 C2218 0.950 . S
H2189 C2219 0.950 . S
C2190 H2172 0.951 . S
C2190 C2191 1.366 . S
C2190 C2192 1.388 . S
C2191 C2190 1.366 . S
C2191 C2195 1.385 . S
C2192 H2173 0.951 . S
C2192 C2190 1.388 . S
C2192 C2193 1.366 . S
C2193 C2192 1.366 . S
C2193 C2194 1.414 . S
C2193 C2196 1.499 . S
C2194 H2174 0.950 . S
C2194 C2193 1.414 . S
C2194 C2195 1.374 . S
C2195 H2175 0.950 . S
C2195 C2191 1.385 . S
C2195 C2194 1.374 . S
C2196 C2193 1.499 . S
C2196 C2197 1.373 . S
C2196 C2198 1.389 . S
C2197 H2176 0.950 . S
C2197 C2196 1.373 . S
C2197 C2213 1.377 . S
C2198 C2196 1.389 . S
C2198 C2199 1.524 . S
C2198 C2212 1.377 . S
C2199 C2198 1.524 . S
C2199 C2200 1.397 . S
C2199 C2204 1.363 . S
C2200 H2177 0.950 . S
C2200 C2199 1.397 . S
C2200 C2201 1.334 . S
C2201 H2178 0.950 . S
C2201 C2200 1.334 . S
C2201 C2202 1.287 . S
C2202 C2201 1.287 . S
C2202 C2203 1.524 . S
C2202 H2221 0.913 . S
C2203 H2179 0.950 . S
C2203 C2202 1.524 . S
C2203 C2204 1.415 . S
C2204 H2180 0.950 . S
C2204 C2199 1.363 . S
C2204 C2203 1.415 . S
C2205 H2181 0.951 . S
C2205 C2206 1.366 . S
C2205 C2207 1.388 . S
C2206 C2205 1.366 . S
C2206 C2210 1.385 . S
C2207 H2182 0.951 . S
C2207 C2205 1.388 . S
C2207 C2208 1.366 . S
C2208 C2207 1.366 . S
C2208 C2209 1.414 . S
C2208 C2211 1.499 . S
C2209 H2183 0.950 . S
C2209 C2208 1.414 . S
C2209 C2210 1.374 . S
C2210 H2184 0.950 . S
C2210 C2206 1.385 . S
C2210 C2209 1.374 . S
C2211 C2208 1.499 . S
C2211 C2212 1.373 . S
C2211 C2213 1.389 . S
C2212 H2185 0.950 . S
C2212 C2198 1.377 . S
C2212 C2211 1.373 . S
C2213 C2197 1.377 . S
C2213 C2211 1.389 . S
C2213 C2214 1.524 . S
C2214 C2213 1.524 . S
C2214 C2215 1.397 . S
C2214 C2219 1.363 . S
C2215 H2186 0.950 . S
C2215 C2214 1.397 . S
C2215 C2216 1.334 . S
C2216 H2187 0.950 . S
C2216 C2215 1.334 . S
C2216 C2217 1.287 . S
C2217 C2216 1.287 . S
C2217 C2218 1.524 . S
C2217 H2220 0.999 . S
C2218 H2188 0.950 . S
C2218 C2217 1.524 . S
C2218 C2219 1.415 . S
C2219 H2189 0.950 . S
C2219 C2214 1.363 . S
C2219 C2218 1.415 . S
H2220 C2217 0.999 . S
H2221 C2202 0.913 . S
H2222 C2240 0.951 . S
H2223 C2242 0.951 . S
H2224 C2244 0.950 . S
H2225 C2245 0.950 . S
H2226 C2247 0.950 . S
H2227 C2250 0.950 . S
H2228 C2251 0.950 . S
H2229 C2253 0.950 . S
H2230 C2254 0.950 . S
H2231 C2255 0.951 . S
H2232 C2257 0.951 . S
H2233 C2259 0.950 . S
H2234 C2260 0.950 . S
H2235 C2262 0.950 . S
H2236 C2265 0.950 . S
H2237 C2266 0.950 . S
H2238 C2268 0.950 . S
H2239 C2269 0.929 1_556 S
C2240 H2222 0.951 . S
C2240 C2241 1.366 . S
C2240 C2242 1.388 . S
C2241 C2240 1.366 . S
C2241 C2245 1.385 . S
C2242 H2223 0.951 . S
C2242 C2240 1.388 . S
C2242 C2243 1.366 . S
C2243 C2242 1.366 . S
C2243 C2244 1.414 . S
C2243 C2246 1.499 . S
C2244 H2224 0.950 . S
C2244 C2243 1.414 . S
C2244 C2245 1.374 . S
C2245 H2225 0.950 . S
C2245 C2241 1.385 . S
C2245 C2244 1.374 . S
C2246 C2243 1.499 . S
C2246 C2247 1.373 . S
C2246 C2248 1.389 . S
C2247 H2226 0.950 . S
C2247 C2246 1.373 . S
C2247 C2263 1.377 1_556 S
C2248 C2246 1.389 . S
C2248 C2249 1.524 . S
C2248 C2262 1.377 1_556 S
C2249 C2248 1.524 . S
C2249 C2250 1.397 . S
C2249 C2254 1.363 . S
C2250 H2227 0.950 . S
C2250 C2249 1.397 . S
C2250 C2251 1.334 . S
C2251 H2228 0.950 . S
C2251 C2250 1.334 . S
C2251 C2252 1.287 . S
C2252 C2251 1.287 . S
C2252 C2253 1.524 . S
C2252 H2271 0.913 . S
C2253 H2229 0.950 . S
C2253 C2252 1.524 . S
C2253 C2254 1.415 . S
C2254 H2230 0.950 . S
C2254 C2249 1.363 . S
C2254 C2253 1.415 . S
C2255 H2231 0.951 . S
C2255 C2256 1.366 . S
C2255 C2257 1.388 . S
C2256 C2255 1.366 . S
C2256 C2260 1.385 . S
C2257 H2232 0.951 . S
C2257 C2255 1.388 . S
C2257 C2258 1.366 . S
C2258 C2257 1.366 . S
C2258 C2259 1.414 . S
C2258 C2261 1.499 . S
C2259 H2233 0.950 . S
C2259 C2258 1.414 . S
C2259 C2260 1.374 . S
C2260 H2234 0.950 . S
C2260 C2256 1.385 . S
C2260 C2259 1.374 . S
C2261 C2258 1.499 . S
C2261 C2262 1.373 . S
C2261 C2263 1.389 . S
C2262 H2235 0.950 . S
C2262 C2248 1.377 1_554 S
C2262 C2261 1.373 . S
C2263 C2247 1.377 1_554 S
C2263 C2261 1.389 . S
C2263 C2264 1.524 . S
C2264 C2263 1.524 . S
C2264 C2265 1.397 . S
C2264 C2269 1.363 . S
C2265 H2236 0.950 . S
C2265 C2264 1.397 . S
C2265 C2266 1.334 . S
C2266 H2237 0.950 . S
C2266 C2265 1.334 . S
C2266 C2267 1.287 . S
C2267 C2266 1.287 . S
C2267 C2268 1.524 . S
C2267 H2270 0.999 . S
C2268 H2238 0.950 . S
C2268 C2267 1.524 . S
C2268 C2269 1.415 . S
C2269 H2239 0.929 1_554 S
C2269 C2264 1.363 . S
C2269 C2268 1.415 . S
H2270 C2267 0.999 . S
H2271 C2252 0.913 . S
H2272 C2290 0.951 . S
H2273 C2292 0.951 . S
H2274 C2294 0.950 . S
H2275 C2295 0.950 . S
H2276 C2297 0.950 . S
H2277 C2300 0.950 . S
H2278 C2301 0.950 . S
H2279 C2303 0.950 . S
H2280 C2304 0.950 . S
H2281 C2305 0.951 . S
H2282 C2307 0.951 . S
H2283 C2309 0.950 . S
H2284 C2310 0.950 . S
H2285 C2312 0.950 . S
H2286 C2315 0.950 . S
H2287 C2316 0.950 . S
H2288 C2318 0.950 . S
H2289 C2319 0.950 . S
C2290 H2272 0.951 . S
C2290 C2291 1.366 . S
C2290 C2292 1.388 . S
C2291 C2290 1.366 . S
C2291 C2295 1.385 . S
C2292 H2273 0.951 . S
C2292 C2290 1.388 . S
C2292 C2293 1.366 . S
C2293 C2292 1.366 . S
C2293 C2294 1.414 . S
C2293 C2296 1.499 . S
C2294 H2274 0.950 . S
C2294 C2293 1.414 . S
C2294 C2295 1.374 . S
C2295 H2275 0.950 . S
C2295 C2291 1.385 . S
C2295 C2294 1.374 . S
C2296 C2293 1.499 . S
C2296 C2297 1.373 . S
C2296 C2298 1.389 . S
C2297 H2276 0.950 . S
C2297 C2296 1.373 . S
C2297 C2313 1.377 . S
C2298 C2296 1.389 . S
C2298 C2299 1.524 . S
C2298 C2312 1.377 . S
C2299 C2298 1.524 . S
C2299 C2300 1.397 . S
C2299 C2304 1.363 . S
C2300 H2277 0.950 . S
C2300 C2299 1.397 . S
C2300 C2301 1.334 . S
C2301 H2278 0.950 . S
C2301 C2300 1.334 . S
C2301 C2302 1.287 . S
C2302 C2301 1.287 . S
C2302 C2303 1.524 . S
C2302 H2321 0.913 . S
C2303 H2279 0.950 . S
C2303 C2302 1.524 . S
C2303 C2304 1.415 . S
C2304 H2280 0.950 . S
C2304 C2299 1.363 . S
C2304 C2303 1.415 . S
C2305 H2281 0.951 . S
C2305 C2306 1.366 . S
C2305 C2307 1.388 . S
C2306 C2305 1.366 . S
C2306 C2310 1.385 . S
C2307 H2282 0.951 . S
C2307 C2305 1.388 . S
C2307 C2308 1.366 . S
C2308 C2307 1.366 . S
C2308 C2309 1.414 . S
C2308 C2311 1.499 . S
C2309 H2283 0.950 . S
C2309 C2308 1.414 . S
C2309 C2310 1.374 . S
C2310 H2284 0.950 . S
C2310 C2306 1.385 . S
C2310 C2309 1.374 . S
C2311 C2308 1.499 . S
C2311 C2312 1.373 . S
C2311 C2313 1.389 . S
C2312 H2285 0.950 . S
C2312 C2298 1.377 . S
C2312 C2311 1.373 . S
C2313 C2297 1.377 . S
C2313 C2311 1.389 . S
C2313 C2314 1.524 . S
C2314 C2313 1.524 . S
C2314 C2315 1.397 . S
C2314 C2319 1.363 . S
C2315 H2286 0.950 . S
C2315 C2314 1.397 . S
C2315 C2316 1.334 . S
C2316 H2287 0.950 . S
C2316 C2315 1.334 . S
C2316 C2317 1.287 . S
C2317 C2316 1.287 . S
C2317 C2318 1.524 . S
C2317 H2320 0.999 . S
C2318 H2288 0.950 . S
C2318 C2317 1.524 . S
C2318 C2319 1.415 . S
C2319 H2289 0.950 . S
C2319 C2314 1.363 . S
C2319 C2318 1.415 . S
H2320 C2317 0.999 . S
H2321 C2302 0.913 . S
H2322 C2340 0.951 . S
H2323 C2342 0.951 . S
H2324 C2344 0.950 . S
H2325 C2345 0.950 . S
H2326 C2347 0.950 . S
H2327 C2350 0.950 . S
H2328 C2351 0.950 . S
H2329 C2353 0.950 . S
H2330 C2354 0.950 . S
H2331 C2355 0.951 . S
H2332 C2357 0.951 . S
H2333 C2359 0.950 . S
H2334 C2360 0.950 . S
H2335 C2362 0.950 . S
H2336 C2365 0.950 . S
H2337 C2366 0.950 . S
H2338 C2368 0.950 . S
H2339 C2369 0.950 . S
C2340 H2322 0.951 . S
C2340 C2341 1.366 . S
C2340 C2342 1.388 . S
C2341 C2340 1.366 . S
C2341 C2345 1.385 . S
C2342 H2323 0.951 . S
C2342 C2340 1.388 . S
C2342 C2343 1.366 . S
C2343 C2342 1.366 . S
C2343 C2344 1.414 . S
C2343 C2346 1.499 . S
C2344 H2324 0.950 . S
C2344 C2343 1.414 . S
C2344 C2345 1.374 . S
C2345 H2325 0.950 . S
C2345 C2341 1.385 . S
C2345 C2344 1.374 . S
C2346 C2343 1.499 . S
C2346 C2347 1.373 . S
C2346 C2348 1.389 . S
C2347 H2326 0.950 . S
C2347 C2346 1.373 . S
C2347 C2363 1.377 1_565 S
C2348 C2346 1.389 . S
C2348 C2349 1.524 . S
C2348 C2362 1.377 1_565 S
C2349 C2348 1.524 . S
C2349 C2350 1.397 . S
C2349 C2354 1.363 . S
C2350 H2327 0.950 . S
C2350 C2349 1.397 . S
C2350 C2351 1.334 . S
C2351 H2328 0.950 . S
C2351 C2350 1.334 . S
C2351 C2352 1.287 . S
C2352 C2351 1.287 . S
C2352 C2353 1.524 . S
C2352 H2371 0.913 . S
C2353 H2329 0.950 . S
C2353 C2352 1.524 . S
C2353 C2354 1.415 . S
C2354 H2330 0.950 . S
C2354 C2349 1.363 . S
C2354 C2353 1.415 . S
C2355 H2331 0.951 . S
C2355 C2356 1.366 . S
C2355 C2357 1.388 . S
C2356 C2355 1.366 . S
C2356 C2360 1.385 . S
C2357 H2332 0.951 . S
C2357 C2355 1.388 . S
C2357 C2358 1.366 . S
C2358 C2357 1.366 . S
C2358 C2359 1.414 . S
C2358 C2361 1.499 . S
C2359 H2333 0.950 . S
C2359 C2358 1.414 . S
C2359 C2360 1.374 . S
C2360 H2334 0.950 . S
C2360 C2356 1.385 . S
C2360 C2359 1.374 . S
C2361 C2358 1.499 . S
C2361 C2362 1.373 . S
C2361 C2363 1.389 . S
C2362 H2335 0.950 . S
C2362 C2348 1.377 1_545 S
C2362 C2361 1.373 . S
C2363 C2347 1.377 1_545 S
C2363 C2361 1.389 . S
C2363 C2364 1.524 . S
C2364 C2363 1.524 . S
C2364 C2365 1.397 . S
C2364 C2369 1.363 . S
C2365 H2336 0.950 . S
C2365 C2364 1.397 . S
C2365 C2366 1.334 . S
C2366 H2337 0.950 . S
C2366 C2365 1.334 . S
C2366 C2367 1.287 . S
C2367 C2366 1.287 . S
C2367 C2368 1.524 . S
C2367 H2370 0.999 . S
C2368 H2338 0.950 . S
C2368 C2367 1.524 . S
C2368 C2369 1.415 . S
C2369 H2339 0.950 . S
C2369 C2364 1.363 . S
C2369 C2368 1.415 . S
H2370 C2367 0.999 . S
H2371 C2352 0.913 . S
H2372 C2390 0.951 . S
H2373 C2392 0.951 . S
H2374 C2394 0.950 . S
H2375 C2395 0.950 . S
H2376 C2397 0.950 . S
H2377 C2400 0.950 . S
H2378 C2401 0.950 . S
H2379 C2403 0.950 . S
H2380 C2404 0.950 . S
H2381 C2405 0.951 . S
H2382 C2407 0.951 . S
H2383 C2409 0.950 . S
H2384 C2410 0.950 . S
H2385 C2412 0.950 . S
H2386 C2415 0.950 . S
H2387 C2416 0.950 . S
H2388 C2418 0.950 . S
H2389 C2419 0.950 . S
C2390 H2372 0.951 . S
C2390 C2391 1.366 . S
C2390 C2392 1.388 . S
C2391 C2390 1.366 . S
C2391 C2395 1.385 . S
C2392 H2373 0.951 . S
C2392 C2390 1.388 . S
C2392 C2393 1.366 . S
C2393 C2392 1.366 . S
C2393 C2394 1.414 . S
C2393 C2396 1.499 . S
C2394 H2374 0.950 . S
C2394 C2393 1.414 . S
C2394 C2395 1.374 . S
C2395 H2375 0.950 . S
C2395 C2391 1.385 . S
C2395 C2394 1.374 . S
C2396 C2393 1.499 . S
C2396 C2397 1.373 . S
C2396 C2398 1.389 . S
C2397 H2376 0.950 . S
C2397 C2396 1.373 . S
C2397 C2413 1.377 . S
C2398 C2396 1.389 . S
C2398 C2399 1.524 . S
C2398 C2412 1.377 . S
C2399 C2398 1.524 . S
C2399 C2400 1.397 . S
C2399 C2404 1.363 . S
C2400 H2377 0.950 . S
C2400 C2399 1.397 . S
C2400 C2401 1.334 . S
C2401 H2378 0.950 . S
C2401 C2400 1.334 . S
C2401 C2402 1.287 . S
C2402 C2401 1.287 . S
C2402 C2403 1.524 . S
C2402 H2421 0.913 . S
C2403 H2379 0.950 . S
C2403 C2402 1.524 . S
C2403 C2404 1.415 . S
C2404 H2380 0.950 . S
C2404 C2399 1.363 . S
C2404 C2403 1.415 . S
C2405 H2381 0.951 . S
C2405 C2406 1.366 . S
C2405 C2407 1.388 . S
C2406 C2405 1.366 . S
C2406 C2410 1.385 . S
C2407 H2382 0.951 . S
C2407 C2405 1.388 . S
C2407 C2408 1.366 . S
C2408 C2407 1.366 . S
C2408 C2409 1.414 . S
C2408 C2411 1.499 . S
C2409 H2383 0.950 . S
C2409 C2408 1.414 . S
C2409 C2410 1.374 . S
C2410 H2384 0.950 . S
C2410 C2406 1.385 . S
C2410 C2409 1.374 . S
C2411 C2408 1.499 . S
C2411 C2412 1.373 . S
C2411 C2413 1.389 . S
C2412 H2385 0.950 . S
C2412 C2398 1.377 . S
C2412 C2411 1.373 . S
C2413 C2397 1.377 . S
C2413 C2411 1.389 . S
C2413 C2414 1.524 . S
C2414 C2413 1.524 . S
C2414 C2415 1.397 . S
C2414 C2419 1.363 . S
C2415 H2386 0.950 . S
C2415 C2414 1.397 . S
C2415 C2416 1.334 . S
C2416 H2387 0.950 . S
C2416 C2415 1.334 . S
C2416 C2417 1.287 . S
C2417 C2416 1.287 . S
C2417 C2418 1.524 . S
C2417 H2420 0.999 . S
C2418 H2388 0.950 . S
C2418 C2417 1.524 . S
C2418 C2419 1.415 . S
C2419 H2389 0.950 . S
C2419 C2414 1.363 . S
C2419 C2418 1.415 . S
H2420 C2417 0.999 . S
H2421 C2402 0.913 . S
H2422 C2440 0.951 . S
H2423 C2442 0.951 . S
H2424 C2444 0.950 . S
H2425 C2445 0.950 . S
H2426 C2447 0.950 . S
H2427 C2450 0.950 . S
H2428 C2451 0.950 . S
H2429 C2453 0.950 . S
H2430 C2454 0.950 . S
H2431 C2455 0.951 . S
H2432 C2457 0.951 . S
H2433 C2459 0.950 . S
H2434 C2460 0.950 . S
H2435 C2462 0.950 . S
H2436 C2465 0.950 . S
H2437 C2466 0.950 . S
H2438 C2468 0.950 . S
H2439 C2469 0.950 . S
C2440 H2422 0.951 . S
C2440 C2441 1.366 . S
C2440 C2442 1.388 . S
C2441 C2440 1.366 . S
C2441 C2445 1.385 . S
C2442 H2423 0.951 . S
C2442 C2440 1.388 . S
C2442 C2443 1.366 . S
C2443 C2442 1.366 . S
C2443 C2444 1.414 . S
C2443 C2446 1.499 . S
C2444 H2424 0.950 . S
C2444 C2443 1.414 . S
C2444 C2445 1.374 . S
C2445 H2425 0.950 . S
C2445 C2441 1.385 . S
C2445 C2444 1.374 . S
C2446 C2443 1.499 . S
C2446 C2447 1.373 . S
C2446 C2448 1.389 . S
C2447 H2426 0.950 . S
C2447 C2446 1.373 . S
C2447 C2463 1.377 1_545 S
C2448 C2446 1.389 . S
C2448 C2449 1.524 . S
C2448 C2462 1.377 1_545 S
C2449 C2448 1.524 . S
C2449 C2450 1.397 . S
C2449 C2454 1.363 . S
C2450 H2427 0.950 . S
C2450 C2449 1.397 . S
C2450 C2451 1.334 . S
C2451 H2428 0.950 . S
C2451 C2450 1.334 . S
C2451 C2452 1.287 . S
C2452 C2451 1.287 . S
C2452 C2453 1.524 . S
C2452 H2471 0.913 . S
C2453 H2429 0.950 . S
C2453 C2452 1.524 . S
C2453 C2454 1.415 . S
C2454 H2430 0.950 . S
C2454 C2449 1.363 . S
C2454 C2453 1.415 . S
C2455 H2431 0.951 . S
C2455 C2456 1.366 . S
C2455 C2457 1.388 . S
C2456 C2455 1.366 . S
C2456 C2460 1.385 . S
C2457 H2432 0.951 . S
C2457 C2455 1.388 . S
C2457 C2458 1.366 . S
C2458 C2457 1.366 . S
C2458 C2459 1.414 . S
C2458 C2461 1.499 . S
C2459 H2433 0.950 . S
C2459 C2458 1.414 . S
C2459 C2460 1.374 . S
C2460 H2434 0.950 . S
C2460 C2456 1.385 . S
C2460 C2459 1.374 . S
C2461 C2458 1.499 . S
C2461 C2462 1.373 . S
C2461 C2463 1.389 . S
C2462 H2435 0.950 . S
C2462 C2448 1.377 1_565 S
C2462 C2461 1.373 . S
C2463 C2447 1.377 1_565 S
C2463 C2461 1.389 . S
C2463 C2464 1.524 . S
C2464 C2463 1.524 . S
C2464 C2465 1.397 . S
C2464 C2469 1.363 . S
C2465 H2436 0.950 . S
C2465 C2464 1.397 . S
C2465 C2466 1.334 . S
C2466 H2437 0.950 . S
C2466 C2465 1.334 . S
C2466 C2467 1.287 . S
C2467 C2466 1.287 . S
C2467 C2468 1.524 . S
C2467 H2470 0.999 . S
C2468 H2438 0.950 . S
C2468 C2467 1.524 . S
C2468 C2469 1.415 . S
C2469 H2439 0.950 . S
C2469 C2464 1.363 . S
C2469 C2468 1.415 . S
H2470 C2467 0.999 . S
H2471 C2452 0.913 . S
H2472 C2490 0.951 . S
H2473 C2492 0.951 . S
H2474 C2494 0.950 . S
H2475 C2495 0.950 . S
H2476 C2497 0.950 . S
H2477 C2500 0.950 . S
H2478 C2501 0.950 . S
H2479 C2503 0.950 . S
H2480 C2504 0.950 . S
H2481 C2505 0.951 . S
H2482 C2507 0.951 . S
H2483 C2509 0.950 . S
H2484 C2510 0.950 . S
H2485 C2512 0.950 . S
H2486 C2515 0.950 . S
H2487 C2516 0.950 . S
H2488 C2518 0.950 . S
H2489 C2519 0.950 . S
C2490 H2472 0.951 . S
C2490 C2491 1.366 . S
C2490 C2492 1.388 . S
C2491 C2490 1.366 . S
C2491 C2495 1.385 . S
C2492 H2473 0.951 . S
C2492 C2490 1.388 . S
C2492 C2493 1.366 . S
C2493 C2492 1.366 . S
C2493 C2494 1.414 . S
C2493 C2496 1.499 . S
C2494 H2474 0.950 . S
C2494 C2493 1.414 . S
C2494 C2495 1.374 . S
C2495 H2475 0.950 . S
C2495 C2491 1.385 . S
C2495 C2494 1.374 . S
C2496 C2493 1.499 . S
C2496 C2497 1.373 . S
C2496 C2498 1.389 . S
C2497 H2476 0.950 . S
C2497 C2496 1.373 . S
C2497 C2513 1.377 . S
C2498 C2496 1.389 . S
C2498 C2499 1.524 . S
C2498 C2512 1.377 . S
C2499 C2498 1.524 . S
C2499 C2500 1.397 . S
C2499 C2504 1.363 . S
C2500 H2477 0.950 . S
C2500 C2499 1.397 . S
C2500 C2501 1.334 . S
C2501 H2478 0.950 . S
C2501 C2500 1.334 . S
C2501 C2502 1.287 . S
C2502 C2501 1.287 . S
C2502 C2503 1.524 . S
C2502 H2521 0.913 . S
C2503 H2479 0.950 . S
C2503 C2502 1.524 . S
C2503 C2504 1.415 . S
C2504 H2480 0.950 . S
C2504 C2499 1.363 . S
C2504 C2503 1.415 . S
C2505 H2481 0.951 . S
C2505 C2506 1.366 . S
C2505 C2507 1.388 . S
C2506 C2505 1.366 . S
C2506 C2510 1.385 . S
C2507 H2482 0.951 . S
C2507 C2505 1.388 . S
C2507 C2508 1.366 . S
C2508 C2507 1.366 . S
C2508 C2509 1.414 . S
C2508 C2511 1.499 . S
C2509 H2483 0.950 . S
C2509 C2508 1.414 . S
C2509 C2510 1.374 . S
C2510 H2484 0.950 . S
C2510 C2506 1.385 . S
C2510 C2509 1.374 . S
C2511 C2508 1.499 . S
C2511 C2512 1.373 . S
C2511 C2513 1.389 . S
C2512 H2485 0.950 . S
C2512 C2498 1.377 . S
C2512 C2511 1.373 . S
C2513 C2497 1.377 . S
C2513 C2511 1.389 . S
C2513 C2514 1.524 . S
C2514 C2513 1.524 . S
C2514 C2515 1.397 . S
C2514 C2519 1.363 . S
C2515 H2486 0.950 . S
C2515 C2514 1.397 . S
C2515 C2516 1.334 . S
C2516 H2487 0.950 . S
C2516 C2515 1.334 . S
C2516 C2517 1.287 . S
C2517 C2516 1.287 . S
C2517 C2518 1.524 . S
C2517 H2520 0.999 . S
C2518 H2488 0.950 . S
C2518 C2517 1.524 . S
C2518 C2519 1.415 . S
C2519 H2489 0.950 . S
C2519 C2514 1.363 . S
C2519 C2518 1.415 . S
H2520 C2517 0.999 . S
H2521 C2502 0.913 . S
H2522 C2540 0.951 . S
H2523 C2542 0.951 . S
H2524 C2544 0.950 . S
H2525 C2545 0.950 . S
H2526 C2547 0.950 . S
H2527 C2550 0.950 . S
H2528 C2551 0.950 . S
H2529 C2553 0.950 . S
H2530 C2554 0.949 . S
H2531 C2555 0.951 . S
H2532 C2557 0.951 . S
H2533 C2559 0.950 . S
H2534 C2560 0.950 . S
H2535 C2562 0.950 . S
H2536 C2565 0.950 . S
H2537 C2566 0.950 . S
H2538 C2568 0.950 . S
H2539 C2569 0.950 . S
C2540 H2522 0.951 . S
C2540 C2541 1.366 . S
C2540 C2542 1.388 . S
C2541 C2540 1.366 . S
C2541 C2545 1.385 . S
C2542 H2523 0.951 . S
C2542 C2540 1.388 . S
C2542 C2543 1.366 . S
C2543 C2542 1.366 . S
C2543 C2544 1.414 . S
C2543 C2546 1.499 . S
C2544 H2524 0.950 . S
C2544 C2543 1.414 . S
C2544 C2545 1.374 . S
C2545 H2525 0.950 . S
C2545 C2541 1.385 . S
C2545 C2544 1.374 . S
C2546 C2543 1.499 . S
C2546 C2547 1.373 . S
C2546 C2548 1.389 . S
C2547 H2526 0.950 . S
C2547 C2546 1.373 . S
C2547 C2563 1.377 1_565 S
C2548 C2546 1.389 . S
C2548 C2549 1.524 . S
C2548 C2562 1.377 1_565 S
C2549 C2548 1.524 . S
C2549 C2550 1.397 . S
C2549 C2554 1.363 . S
C2550 H2527 0.950 . S
C2550 C2549 1.397 . S
C2550 C2551 1.334 . S
C2551 H2528 0.950 . S
C2551 C2550 1.334 . S
C2551 C2552 1.287 . S
C2552 C2551 1.287 . S
C2552 C2553 1.524 . S
C2552 H2571 0.913 . S
C2553 H2529 0.950 . S
C2553 C2552 1.524 . S
C2553 C2554 1.415 . S
C2554 H2530 0.949 . S
C2554 C2549 1.363 . S
C2554 C2553 1.415 . S
C2555 H2531 0.951 . S
C2555 C2556 1.366 . S
C2555 C2557 1.388 . S
C2556 C2555 1.366 . S
C2556 C2560 1.385 . S
C2557 H2532 0.951 . S
C2557 C2555 1.388 . S
C2557 C2558 1.366 . S
C2558 C2557 1.366 . S
C2558 C2559 1.414 . S
C2558 C2561 1.499 . S
C2559 H2533 0.950 . S
C2559 C2558 1.414 . S
C2559 C2560 1.374 . S
C2560 H2534 0.950 . S
C2560 C2556 1.385 . S
C2560 C2559 1.374 . S
C2561 C2558 1.499 . S
C2561 C2562 1.373 . S
C2561 C2563 1.389 . S
C2562 H2535 0.950 . S
C2562 C2548 1.377 1_545 S
C2562 C2561 1.373 . S
C2563 C2547 1.377 1_545 S
C2563 C2561 1.389 . S
C2563 C2564 1.524 . S
C2564 C2563 1.524 . S
C2564 C2565 1.397 . S
C2564 C2569 1.363 . S
C2565 H2536 0.950 . S
C2565 C2564 1.397 . S
C2565 C2566 1.334 . S
C2566 H2537 0.950 . S
C2566 C2565 1.334 . S
C2566 C2567 1.287 . S
C2567 C2566 1.287 . S
C2567 C2568 1.524 . S
C2567 H2570 0.999 . S
C2568 H2538 0.950 . S
C2568 C2567 1.524 . S
C2568 C2569 1.415 . S
C2569 H2539 0.950 . S
C2569 C2564 1.363 . S
C2569 C2568 1.415 . S
H2570 C2567 0.999 . S
H2571 C2552 0.913 . S
H2572 C2590 0.951 . S
H2573 C2592 0.951 . S
H2574 C2594 0.950 . S
H2575 C2595 0.950 . S
H2576 C2597 0.950 . S
H2577 C2600 0.950 . S
H2578 C2601 0.950 . S
H2579 C2603 0.950 . S
H2580 C2604 0.950 . S
H2581 C2605 0.951 . S
H2582 C2607 0.951 . S
H2583 C2609 0.950 . S
H2584 C2610 0.950 . S
H2585 C2612 0.950 . S
H2586 C2615 0.950 . S
H2587 C2616 0.950 . S
H2588 C2618 0.950 . S
H2589 C2619 0.950 . S
C2590 H2572 0.951 . S
C2590 C2591 1.366 . S
C2590 C2592 1.388 . S
C2591 C2590 1.366 . S
C2591 C2595 1.385 . S
C2592 H2573 0.951 . S
C2592 C2590 1.388 . S
C2592 C2593 1.366 . S
C2593 C2592 1.366 . S
C2593 C2594 1.414 . S
C2593 C2596 1.499 . S
C2594 H2574 0.950 . S
C2594 C2593 1.414 . S
C2594 C2595 1.374 . S
C2595 H2575 0.950 . S
C2595 C2591 1.385 . S
C2595 C2594 1.374 . S
C2596 C2593 1.499 . S
C2596 C2597 1.373 . S
C2596 C2598 1.389 . S
C2597 H2576 0.950 . S
C2597 C2596 1.373 . S
C2597 C2613 1.377 . S
C2598 C2596 1.389 . S
C2598 C2599 1.524 . S
C2598 C2612 1.377 . S
C2599 C2598 1.524 . S
C2599 C2600 1.397 . S
C2599 C2604 1.363 . S
C2600 H2577 0.950 . S
C2600 C2599 1.397 . S
C2600 C2601 1.334 . S
C2601 H2578 0.950 . S
C2601 C2600 1.334 . S
C2601 C2602 1.287 . S
C2602 C2601 1.287 . S
C2602 C2603 1.524 . S
C2602 H2621 0.913 . S
C2603 H2579 0.950 . S
C2603 C2602 1.524 . S
C2603 C2604 1.415 . S
C2604 H2580 0.950 . S
C2604 C2599 1.363 . S
C2604 C2603 1.415 . S
C2605 H2581 0.951 . S
C2605 C2606 1.366 . S
C2605 C2607 1.388 . S
C2606 C2605 1.366 . S
C2606 C2610 1.385 . S
C2607 H2582 0.951 . S
C2607 C2605 1.388 . S
C2607 C2608 1.366 . S
C2608 C2607 1.366 . S
C2608 C2609 1.414 . S
C2608 C2611 1.499 . S
C2609 H2583 0.950 . S
C2609 C2608 1.414 . S
C2609 C2610 1.374 . S
C2610 H2584 0.950 . S
C2610 C2606 1.385 . S
C2610 C2609 1.374 . S
C2611 C2608 1.499 . S
C2611 C2612 1.373 . S
C2611 C2613 1.389 . S
C2612 H2585 0.950 . S
C2612 C2598 1.377 . S
C2612 C2611 1.373 . S
C2613 C2597 1.377 . S
C2613 C2611 1.389 . S
C2613 C2614 1.524 . S
C2614 C2613 1.524 . S
C2614 C2615 1.397 . S
C2614 C2619 1.363 . S
C2615 H2586 0.950 . S
C2615 C2614 1.397 . S
C2615 C2616 1.334 . S
C2616 H2587 0.950 . S
C2616 C2615 1.334 . S
C2616 C2617 1.287 . S
C2617 C2616 1.287 . S
C2617 C2618 1.524 . S
C2617 H2620 0.999 . S
C2618 H2588 0.950 . S
C2618 C2617 1.524 . S
C2618 C2619 1.415 . S
C2619 H2589 0.950 . S
C2619 C2614 1.363 . S
C2619 C2618 1.415 . S
H2620 C2617 0.999 . S
H2621 C2602 0.913 . S
H2622 C2640 0.951 . S
H2623 C2642 0.951 . S
H2624 C2644 0.950 . S
H2625 C2645 0.950 . S
H2626 C2647 0.950 . S
H2627 C2650 0.950 . S
H2628 C2651 0.950 . S
H2629 C2653 0.950 . S
H2630 C2654 0.950 . S
H2631 C2655 0.951 . S
H2632 C2657 0.951 . S
H2633 C2659 0.950 . S
H2634 C2660 0.950 . S
H2635 C2662 0.950 . S
H2636 C2665 0.950 . S
H2637 C2666 0.950 . S
H2638 C2668 0.950 . S
H2639 C2669 0.950 . S
C2640 H2622 0.951 . S
C2640 C2641 1.366 . S
C2640 C2642 1.388 . S
C2641 C2640 1.366 . S
C2641 C2645 1.385 . S
C2642 H2623 0.951 . S
C2642 C2640 1.388 . S
C2642 C2643 1.366 . S
C2643 C2642 1.366 . S
C2643 C2644 1.414 . S
C2643 C2646 1.499 . S
C2644 H2624 0.950 . S
C2644 C2643 1.414 . S
C2644 C2645 1.374 . S
C2645 H2625 0.950 . S
C2645 C2641 1.385 . S
C2645 C2644 1.374 . S
C2646 C2643 1.499 . S
C2646 C2647 1.373 . S
C2646 C2648 1.389 . S
C2647 H2626 0.950 . S
C2647 C2646 1.373 . S
C2647 C2663 1.377 1_565 S
C2648 C2646 1.389 . S
C2648 C2649 1.524 . S
C2648 C2662 1.377 1_565 S
C2649 C2648 1.524 . S
C2649 C2650 1.397 . S
C2649 C2654 1.363 . S
C2650 H2627 0.950 . S
C2650 C2649 1.397 . S
C2650 C2651 1.334 . S
C2651 H2628 0.950 . S
C2651 C2650 1.334 . S
C2651 C2652 1.287 . S
C2652 C2651 1.287 . S
C2652 C2653 1.524 . S
C2652 H2671 0.913 . S
C2653 H2629 0.950 . S
C2653 C2652 1.524 . S
C2653 C2654 1.415 . S
C2654 H2630 0.950 . S
C2654 C2649 1.363 . S
C2654 C2653 1.415 . S
C2655 H2631 0.951 . S
C2655 C2656 1.366 . S
C2655 C2657 1.388 . S
C2656 C2655 1.366 . S
C2656 C2660 1.385 . S
C2657 H2632 0.951 . S
C2657 C2655 1.388 . S
C2657 C2658 1.366 . S
C2658 C2657 1.366 . S
C2658 C2659 1.414 . S
C2658 C2661 1.499 . S
C2659 H2633 0.950 . S
C2659 C2658 1.414 . S
C2659 C2660 1.374 . S
C2660 H2634 0.950 . S
C2660 C2656 1.385 . S
C2660 C2659 1.374 . S
C2661 C2658 1.499 . S
C2661 C2662 1.373 . S
C2661 C2663 1.389 . S
C2662 H2635 0.950 . S
C2662 C2648 1.377 1_545 S
C2662 C2661 1.373 . S
C2663 C2647 1.377 1_545 S
C2663 C2661 1.389 . S
C2663 C2664 1.524 . S
C2664 C2663 1.524 . S
C2664 C2665 1.397 . S
C2664 C2669 1.363 . S
C2665 H2636 0.950 . S
C2665 C2664 1.397 . S
C2665 C2666 1.334 . S
C2666 H2637 0.950 . S
C2666 C2665 1.334 . S
C2666 C2667 1.287 . S
C2667 C2666 1.287 . S
C2667 C2668 1.524 . S
C2667 H2670 0.999 . S
C2668 H2638 0.950 . S
C2668 C2667 1.524 . S
C2668 C2669 1.415 . S
C2669 H2639 0.950 . S
C2669 C2664 1.363 . S
C2669 C2668 1.415 . S
H2670 C2667 0.999 . S
H2671 C2652 0.913 . S
H2672 C2690 0.951 . S
H2673 C2692 0.951 . S
H2674 C2694 0.950 . S
H2675 C2695 0.950 . S
H2676 C2697 0.950 . S
H2677 C2700 0.950 . S
H2678 C2701 0.950 . S
H2679 C2703 0.950 . S
H2680 C2704 0.950 . S
H2681 C2705 0.951 . S
H2682 C2707 0.951 . S
H2683 C2709 0.950 . S
H2684 C2710 0.950 . S
H2685 C2712 0.950 . S
H2686 C2715 0.950 . S
H2687 C2716 0.950 . S
H2688 C2718 0.950 . S
H2689 C2719 0.950 . S
C2690 H2672 0.951 . S
C2690 C2691 1.366 . S
C2690 C2692 1.388 . S
C2691 C2690 1.366 . S
C2691 C2695 1.385 . S
C2692 H2673 0.951 . S
C2692 C2690 1.388 . S
C2692 C2693 1.366 . S
C2693 C2692 1.366 . S
C2693 C2694 1.414 . S
C2693 C2696 1.499 . S
C2694 H2674 0.950 . S
C2694 C2693 1.414 . S
C2694 C2695 1.374 . S
C2695 H2675 0.950 . S
C2695 C2691 1.385 . S
C2695 C2694 1.374 . S
C2696 C2693 1.499 . S
C2696 C2697 1.373 . S
C2696 C2698 1.389 . S
C2697 H2676 0.950 . S
C2697 C2696 1.373 . S
C2697 C2713 1.377 . S
C2698 C2696 1.389 . S
C2698 C2699 1.524 . S
C2698 C2712 1.377 . S
C2699 C2698 1.524 . S
C2699 C2700 1.397 . S
C2699 C2704 1.363 . S
C2700 H2677 0.950 . S
C2700 C2699 1.397 . S
C2700 C2701 1.334 . S
C2701 H2678 0.950 . S
C2701 C2700 1.334 . S
C2701 C2702 1.287 . S
C2702 C2701 1.287 . S
C2702 C2703 1.524 . S
C2702 H2721 0.913 . S
C2703 H2679 0.950 . S
C2703 C2702 1.524 . S
C2703 C2704 1.415 . S
C2704 H2680 0.950 . S
C2704 C2699 1.363 . S
C2704 C2703 1.415 . S
C2705 H2681 0.951 . S
C2705 C2706 1.366 . S
C2705 C2707 1.388 . S
C2706 C2705 1.366 . S
C2706 C2710 1.385 . S
C2707 H2682 0.951 . S
C2707 C2705 1.388 . S
C2707 C2708 1.366 . S
C2708 C2707 1.366 . S
C2708 C2709 1.414 . S
C2708 C2711 1.499 . S
C2709 H2683 0.950 . S
C2709 C2708 1.414 . S
C2709 C2710 1.374 . S
C2710 H2684 0.950 . S
C2710 C2706 1.385 . S
C2710 C2709 1.374 . S
C2711 C2708 1.499 . S
C2711 C2712 1.373 . S
C2711 C2713 1.389 . S
C2712 H2685 0.950 . S
C2712 C2698 1.377 . S
C2712 C2711 1.373 . S
C2713 C2697 1.377 . S
C2713 C2711 1.389 . S
C2713 C2714 1.524 . S
C2714 C2713 1.524 . S
C2714 C2715 1.397 . S
C2714 C2719 1.363 . S
C2715 H2686 0.950 . S
C2715 C2714 1.397 . S
C2715 C2716 1.334 . S
C2716 H2687 0.950 . S
C2716 C2715 1.334 . S
C2716 C2717 1.287 . S
C2717 C2716 1.287 . S
C2717 C2718 1.524 . S
C2717 H2720 0.999 . S
C2718 H2688 0.950 . S
C2718 C2717 1.524 . S
C2718 C2719 1.415 . S
C2719 H2689 0.950 . S
C2719 C2714 1.363 . S
C2719 C2718 1.415 . S
H2720 C2717 0.999 . S
H2721 C2702 0.913 . S
H2722 C2740 0.951 . S
H2723 C2742 0.951 . S
H2724 C2744 0.950 . S
H2725 C2745 0.950 . S
H2726 C2747 0.950 . S
H2727 C2750 0.950 . S
H2728 C2751 0.950 . S
H2729 C2753 0.950 . S
H2730 C2754 0.950 . S
H2731 C2755 0.951 . S
H2732 C2757 0.951 . S
H2733 C2759 0.950 . S
H2734 C2760 0.950 . S
H2735 C2762 0.950 . S
H2736 C2765 0.950 . S
H2737 C2766 0.950 . S
H2738 C2768 0.950 . S
H2739 C2769 0.950 . S
C2740 H2722 0.951 . S
C2740 C2741 1.366 . S
C2740 C2742 1.388 . S
C2741 C2740 1.366 . S
C2741 C2745 1.385 . S
C2742 H2723 0.951 . S
C2742 C2740 1.388 . S
C2742 C2743 1.366 . S
C2743 C2742 1.366 . S
C2743 C2744 1.414 . S
C2743 C2746 1.499 . S
C2744 H2724 0.950 . S
C2744 C2743 1.414 . S
C2744 C2745 1.374 . S
C2745 H2725 0.950 . S
C2745 C2741 1.385 . S
C2745 C2744 1.374 . S
C2746 C2743 1.499 . S
C2746 C2747 1.373 . S
C2746 C2748 1.389 . S
C2747 H2726 0.950 . S
C2747 C2746 1.373 . S
C2747 C2763 1.377 . S
C2748 C2746 1.389 . S
C2748 C2749 1.524 . S
C2748 C2762 1.377 . S
C2749 C2748 1.524 . S
C2749 C2750 1.397 . S
C2749 C2754 1.363 . S
C2750 H2727 0.950 . S
C2750 C2749 1.397 . S
C2750 C2751 1.334 . S
C2751 H2728 0.950 . S
C2751 C2750 1.334 . S
C2751 C2752 1.287 . S
C2752 C2751 1.287 . S
C2752 C2753 1.524 . S
C2752 H2771 0.913 . S
C2753 H2729 0.950 . S
C2753 C2752 1.524 . S
C2753 C2754 1.415 . S
C2754 H2730 0.950 . S
C2754 C2749 1.363 . S
C2754 C2753 1.415 . S
C2755 H2731 0.951 . S
C2755 C2756 1.366 . S
C2755 C2757 1.388 . S
C2756 C2755 1.366 . S
C2756 C2760 1.385 . S
C2757 H2732 0.951 . S
C2757 C2755 1.388 . S
C2757 C2758 1.366 . S
C2758 C2757 1.366 . S
C2758 C2759 1.414 . S
C2758 C2761 1.499 . S
C2759 H2733 0.950 . S
C2759 C2758 1.414 . S
C2759 C2760 1.374 . S
C2760 H2734 0.950 . S
C2760 C2756 1.385 . S
C2760 C2759 1.374 . S
C2761 C2758 1.499 . S
C2761 C2762 1.373 . S
C2761 C2763 1.389 . S
C2762 H2735 0.950 . S
C2762 C2748 1.377 . S
C2762 C2761 1.373 . S
C2763 C2747 1.377 . S
C2763 C2761 1.389 . S
C2763 C2764 1.524 . S
C2764 C2763 1.524 . S
C2764 C2765 1.397 . S
C2764 C2769 1.363 . S
C2765 H2736 0.950 . S
C2765 C2764 1.397 . S
C2765 C2766 1.334 . S
C2766 H2737 0.950 . S
C2766 C2765 1.334 . S
C2766 C2767 1.287 . S
C2767 C2766 1.287 . S
C2767 C2768 1.524 . S
C2767 H2770 0.999 . S
C2768 H2738 0.950 . S
C2768 C2767 1.524 . S
C2768 C2769 1.415 . S
C2769 H2739 0.950 . S
C2769 C2764 1.363 . S
C2769 C2768 1.415 . S
H2770 C2767 0.999 . S
H2771 C2752 0.913 . S
H2772 C2790 0.951 . S
H2773 C2792 0.951 . S
H2774 C2794 0.950 . S
H2775 C2795 0.950 . S
H2776 C2797 0.950 . S
H2777 C2800 0.950 . S
H2778 C2801 0.950 . S
H2779 C2803 0.950 . S
H2780 C2804 0.950 . S
H2781 C2805 0.951 . S
H2782 C2807 0.951 . S
H2783 C2809 0.950 . S
H2784 C2810 0.950 . S
H2785 C2812 0.950 . S
H2786 C2815 0.950 . S
H2787 C2816 0.950 . S
H2788 C2818 0.950 . S
H2789 C2819 0.950 . S
C2790 H2772 0.951 . S
C2790 C2791 1.366 . S
C2790 C2792 1.388 . S
C2791 C2790 1.366 . S
C2791 C2795 1.385 . S
C2792 H2773 0.951 . S
C2792 C2790 1.388 . S
C2792 C2793 1.366 . S
C2793 C2792 1.366 . S
C2793 C2794 1.414 . S
C2793 C2796 1.499 . S
C2794 H2774 0.950 . S
C2794 C2793 1.414 . S
C2794 C2795 1.374 . S
C2795 H2775 0.950 . S
C2795 C2791 1.385 . S
C2795 C2794 1.374 . S
C2796 C2793 1.499 . S
C2796 C2797 1.373 . S
C2796 C2798 1.389 . S
C2797 H2776 0.950 . S
C2797 C2796 1.373 . S
C2797 C2813 1.377 1_455 S
C2798 C2796 1.389 . S
C2798 C2799 1.524 . S
C2798 C2812 1.377 1_455 S
C2799 C2798 1.524 . S
C2799 C2800 1.397 . S
C2799 C2804 1.363 . S
C2800 H2777 0.950 . S
C2800 C2799 1.397 . S
C2800 C2801 1.334 . S
C2801 H2778 0.950 . S
C2801 C2800 1.334 . S
C2801 C2802 1.287 . S
C2802 C2801 1.287 . S
C2802 C2803 1.524 . S
C2802 H2821 0.913 . S
C2803 H2779 0.950 . S
C2803 C2802 1.524 . S
C2803 C2804 1.415 . S
C2804 H2780 0.950 . S
C2804 C2799 1.363 . S
C2804 C2803 1.415 . S
C2805 H2781 0.951 . S
C2805 C2806 1.366 . S
C2805 C2807 1.388 . S
C2806 C2805 1.366 . S
C2806 C2810 1.385 . S
C2807 H2782 0.951 . S
C2807 C2805 1.388 . S
C2807 C2808 1.366 . S
C2808 C2807 1.366 . S
C2808 C2809 1.414 . S
C2808 C2811 1.499 . S
C2809 H2783 0.950 . S
C2809 C2808 1.414 . S
C2809 C2810 1.374 . S
C2810 H2784 0.950 . S
C2810 C2806 1.385 . S
C2810 C2809 1.374 . S
C2811 C2808 1.499 . S
C2811 C2812 1.373 . S
C2811 C2813 1.389 . S
C2812 H2785 0.950 . S
C2812 C2798 1.377 1_655 S
C2812 C2811 1.373 . S
C2813 C2797 1.377 1_655 S
C2813 C2811 1.389 . S
C2813 C2814 1.524 . S
C2814 C2813 1.524 . S
C2814 C2815 1.397 . S
C2814 C2819 1.363 . S
C2815 H2786 0.950 . S
C2815 C2814 1.397 . S
C2815 C2816 1.334 . S
C2816 H2787 0.950 . S
C2816 C2815 1.334 . S
C2816 C2817 1.287 . S
C2817 C2816 1.287 . S
C2817 C2818 1.524 . S
C2817 H2820 0.999 . S
C2818 H2788 0.950 . S
C2818 C2817 1.524 . S
C2818 C2819 1.415 . S
C2819 H2789 0.950 . S
C2819 C2814 1.363 . S
C2819 C2818 1.415 . S
H2820 C2817 0.999 . S
H2821 C2802 0.913 . S
H2822 C2840 0.951 . S
H2823 C2842 0.951 . S
H2824 C2844 0.950 . S
H2825 C2845 0.950 . S
H2826 C2847 0.950 . S
H2827 C2850 0.950 . S
H2828 C2851 0.950 . S
H2829 C2853 0.950 . S
H2830 C2854 0.950 . S
H2831 C2855 0.951 . S
H2832 C2857 0.951 . S
H2833 C2859 0.950 . S
H2834 C2860 0.950 . S
H2835 C2862 0.950 . S
H2836 C2865 0.950 . S
H2837 C2866 0.950 . S
H2838 C2868 0.950 . S
H2839 C2869 0.950 . S
C2840 H2822 0.951 . S
C2840 C2841 1.366 . S
C2840 C2842 1.388 . S
C2841 C2840 1.366 . S
C2841 C2845 1.385 . S
C2842 H2823 0.951 . S
C2842 C2840 1.388 . S
C2842 C2843 1.366 . S
C2843 C2842 1.366 . S
C2843 C2844 1.414 . S
C2843 C2846 1.499 . S
C2844 H2824 0.950 . S
C2844 C2843 1.414 . S
C2844 C2845 1.374 . S
C2845 H2825 0.950 . S
C2845 C2841 1.385 . S
C2845 C2844 1.374 . S
C2846 C2843 1.499 . S
C2846 C2847 1.373 . S
C2846 C2848 1.389 . S
C2847 H2826 0.950 . S
C2847 C2846 1.373 . S
C2847 C2863 1.377 . S
C2848 C2846 1.389 . S
C2848 C2849 1.524 . S
C2848 C2862 1.377 . S
C2849 C2848 1.524 . S
C2849 C2850 1.397 . S
C2849 C2854 1.363 . S
C2850 H2827 0.950 . S
C2850 C2849 1.397 . S
C2850 C2851 1.334 . S
C2851 H2828 0.950 . S
C2851 C2850 1.334 . S
C2851 C2852 1.287 . S
C2852 C2851 1.287 . S
C2852 C2853 1.524 . S
C2852 H2871 0.913 . S
C2853 H2829 0.950 . S
C2853 C2852 1.524 . S
C2853 C2854 1.415 . S
C2854 H2830 0.950 . S
C2854 C2849 1.363 . S
C2854 C2853 1.415 . S
C2855 H2831 0.951 . S
C2855 C2856 1.366 . S
C2855 C2857 1.388 . S
C2856 C2855 1.366 . S
C2856 C2860 1.385 . S
C2857 H2832 0.951 . S
C2857 C2855 1.388 . S
C2857 C2858 1.366 . S
C2858 C2857 1.366 . S
C2858 C2859 1.414 . S
C2858 C2861 1.499 . S
C2859 H2833 0.950 . S
C2859 C2858 1.414 . S
C2859 C2860 1.374 . S
C2860 H2834 0.950 . S
C2860 C2856 1.385 . S
C2860 C2859 1.374 . S
C2861 C2858 1.499 . S
C2861 C2862 1.373 . S
C2861 C2863 1.389 . S
C2862 H2835 0.950 . S
C2862 C2848 1.377 . S
C2862 C2861 1.373 . S
C2863 C2847 1.377 . S
C2863 C2861 1.389 . S
C2863 C2864 1.524 . S
C2864 C2863 1.524 . S
C2864 C2865 1.397 . S
C2864 C2869 1.363 . S
C2865 H2836 0.950 . S
C2865 C2864 1.397 . S
C2865 C2866 1.334 . S
C2866 H2837 0.950 . S
C2866 C2865 1.334 . S
C2866 C2867 1.287 . S
C2867 C2866 1.287 . S
C2867 C2868 1.524 . S
C2867 H2870 0.999 . S
C2868 H2838 0.950 . S
C2868 C2867 1.524 . S
C2868 C2869 1.415 . S
C2869 H2839 0.950 . S
C2869 C2864 1.363 . S
C2869 C2868 1.415 . S
H2870 C2867 0.999 . S
H2871 C2852 0.913 . S
H2872 C2890 0.951 . S
H2873 C2892 0.951 . S
H2874 C2894 0.950 . S
H2875 C2895 0.950 . S
H2876 C2897 0.950 . S
H2877 C2900 0.950 . S
H2878 C2901 0.950 . S
H2879 C2903 0.950 . S
H2880 C2904 0.950 1_655 S
H2881 C2905 0.951 . S
H2882 C2907 0.951 . S
H2883 C2909 0.950 . S
H2884 C2910 0.950 . S
H2885 C2912 0.950 . S
H2886 C2915 0.950 . S
H2887 C2916 0.950 . S
H2888 C2918 0.950 . S
H2889 C2919 0.950 . S
C2890 H2872 0.951 . S
C2890 C2891 1.366 . S
C2890 C2892 1.388 . S
C2891 C2890 1.366 . S
C2891 C2895 1.385 . S
C2892 H2873 0.951 . S
C2892 C2890 1.388 . S
C2892 C2893 1.366 . S
C2893 C2892 1.366 . S
C2893 C2894 1.414 . S
C2893 C2896 1.499 . S
C2894 H2874 0.950 . S
C2894 C2893 1.414 . S
C2894 C2895 1.374 . S
C2895 H2875 0.950 . S
C2895 C2891 1.385 . S
C2895 C2894 1.374 . S
C2896 C2893 1.499 . S
C2896 C2897 1.373 . S
C2896 C2898 1.389 . S
C2897 H2876 0.950 . S
C2897 C2896 1.373 . S
C2897 C2913 1.377 1_455 S
C2898 C2896 1.389 . S
C2898 C2899 1.524 . S
C2898 C2912 1.377 1_455 S
C2899 C2898 1.524 . S
C2899 C2900 1.397 . S
C2899 C2904 1.363 . S
C2900 H2877 0.950 . S
C2900 C2899 1.397 . S
C2900 C2901 1.334 . S
C2901 H2878 0.950 . S
C2901 C2900 1.334 . S
C2901 C2902 1.287 . S
C2902 C2901 1.287 . S
C2902 C2903 1.524 . S
C2902 H2921 0.913 . S
C2903 H2879 0.950 . S
C2903 C2902 1.524 . S
C2903 C2904 1.415 . S
C2904 H2880 0.950 1_455 S
C2904 C2899 1.363 . S
C2904 C2903 1.415 . S
C2905 H2881 0.951 . S
C2905 C2906 1.366 . S
C2905 C2907 1.388 . S
C2906 C2905 1.366 . S
C2906 C2910 1.385 . S
C2907 H2882 0.951 . S
C2907 C2905 1.388 . S
C2907 C2908 1.366 . S
C2908 C2907 1.366 . S
C2908 C2909 1.414 . S
C2908 C2911 1.499 . S
C2909 H2883 0.950 . S
C2909 C2908 1.414 . S
C2909 C2910 1.374 . S
C2910 H2884 0.950 . S
C2910 C2906 1.385 . S
C2910 C2909 1.374 . S
C2911 C2908 1.499 . S
C2911 C2912 1.373 . S
C2911 C2913 1.389 . S
C2912 H2885 0.950 . S
C2912 C2898 1.377 1_655 S
C2912 C2911 1.373 . S
C2913 C2897 1.377 1_655 S
C2913 C2911 1.389 . S
C2913 C2914 1.524 . S
C2914 C2913 1.524 . S
C2914 C2915 1.397 . S
C2914 C2919 1.363 . S
C2915 H2886 0.950 . S
C2915 C2914 1.397 . S
C2915 C2916 1.334 . S
C2916 H2887 0.950 . S
C2916 C2915 1.334 . S
C2916 C2917 1.287 . S
C2917 C2916 1.287 . S
C2917 C2918 1.524 . S
C2917 H2920 0.999 . S
C2918 H2888 0.950 . S
C2918 C2917 1.524 . S
C2918 C2919 1.415 . S
C2919 H2889 0.950 . S
C2919 C2914 1.363 . S
C2919 C2918 1.415 . S
H2920 C2917 0.999 . S
H2921 C2902 0.913 . S
H2922 C2940 0.951 . S
H2923 C2942 0.951 . S
H2924 C2944 0.950 . S
H2925 C2945 0.950 . S
H2926 C2947 0.950 . S
H2927 C2950 0.950 . S
H2928 C2951 0.950 . S
H2929 C2953 0.950 . S
H2930 C2954 0.950 . S
H2931 C2955 0.951 . S
H2932 C2957 0.951 . S
H2933 C2959 0.950 . S
H2934 C2960 0.950 . S
H2935 C2962 0.950 . S
H2936 C2965 0.950 . S
H2937 C2966 0.950 . S
H2938 C2968 0.950 . S
H2939 C2969 0.950 . S
C2940 H2922 0.951 . S
C2940 C2941 1.366 . S
C2940 C2942 1.388 . S
C2941 C2940 1.366 . S
C2941 C2945 1.385 . S
C2942 H2923 0.951 . S
C2942 C2940 1.388 . S
C2942 C2943 1.366 . S
C2943 C2942 1.366 . S
C2943 C2944 1.414 . S
C2943 C2946 1.499 . S
C2944 H2924 0.950 . S
C2944 C2943 1.414 . S
C2944 C2945 1.374 . S
C2945 H2925 0.950 . S
C2945 C2941 1.385 . S
C2945 C2944 1.374 . S
C2946 C2943 1.499 . S
C2946 C2947 1.373 . S
C2946 C2948 1.389 . S
C2947 H2926 0.950 . S
C2947 C2946 1.373 . S
C2947 C2963 1.377 . S
C2948 C2946 1.389 . S
C2948 C2949 1.524 . S
C2948 C2962 1.377 . S
C2949 C2948 1.524 . S
C2949 C2950 1.397 . S
C2949 C2954 1.363 . S
C2950 H2927 0.950 . S
C2950 C2949 1.397 . S
C2950 C2951 1.334 . S
C2951 H2928 0.950 . S
C2951 C2950 1.334 . S
C2951 C2952 1.287 . S
C2952 C2951 1.287 . S
C2952 C2953 1.524 . S
C2952 H2971 0.913 . S
C2953 H2929 0.950 . S
C2953 C2952 1.524 . S
C2953 C2954 1.415 . S
C2954 H2930 0.950 . S
C2954 C2949 1.363 . S
C2954 C2953 1.415 . S
C2955 H2931 0.951 . S
C2955 C2956 1.366 . S
C2955 C2957 1.388 . S
C2956 C2955 1.366 . S
C2956 C2960 1.385 . S
C2957 H2932 0.951 . S
C2957 C2955 1.388 . S
C2957 C2958 1.366 . S
C2958 C2957 1.366 . S
C2958 C2959 1.414 . S
C2958 C2961 1.499 . S
C2959 H2933 0.950 . S
C2959 C2958 1.414 . S
C2959 C2960 1.374 . S
C2960 H2934 0.950 . S
C2960 C2956 1.385 . S
C2960 C2959 1.374 . S
C2961 C2958 1.499 . S
C2961 C2962 1.373 . S
C2961 C2963 1.389 . S
C2962 H2935 0.950 . S
C2962 C2948 1.377 . S
C2962 C2961 1.373 . S
C2963 C2947 1.377 . S
C2963 C2961 1.389 . S
C2963 C2964 1.524 . S
C2964 C2963 1.524 . S
C2964 C2965 1.397 . S
C2964 C2969 1.363 . S
C2965 H2936 0.950 . S
C2965 C2964 1.397 . S
C2965 C2966 1.334 . S
C2966 H2937 0.950 . S
C2966 C2965 1.334 . S
C2966 C2967 1.287 . S
C2967 C2966 1.287 . S
C2967 C2968 1.524 . S
C2967 H2970 0.999 . S
C2968 H2938 0.950 . S
C2968 C2967 1.524 . S
C2968 C2969 1.415 . S
C2969 H2939 0.950 . S
C2969 C2964 1.363 . S
C2969 C2968 1.415 . S
H2970 C2967 0.999 . S
H2971 C2952 0.913 . S
H2972 C2990 0.951 . S
H2973 C2992 0.951 . S
H2974 C2994 0.950 . S
H2975 C2995 0.950 . S
H2976 C2997 0.950 . S
H2977 C3000 0.950 . S
H2978 C3001 0.950 . S
H2979 C3003 0.950 . S
H2980 C3004 0.950 . S
H2981 C3005 0.951 . S
H2982 C3007 0.951 . S
H2983 C3009 0.950 . S
H2984 C3010 0.950 . S
H2985 C3012 0.950 . S
H2986 C3015 0.950 . S
H2987 C3016 0.950 . S
H2988 C3018 0.950 . S
H2989 C3019 0.950 . S
C2990 H2972 0.951 . S
C2990 C2991 1.366 . S
C2990 C2992 1.388 . S
C2991 C2990 1.366 . S
C2991 C2995 1.385 . S
C2992 H2973 0.951 . S
C2992 C2990 1.388 . S
C2992 C2993 1.366 . S
C2993 C2992 1.366 . S
C2993 C2994 1.414 . S
C2993 C2996 1.499 . S
C2994 H2974 0.950 . S
C2994 C2993 1.414 . S
C2994 C2995 1.374 . S
C2995 H2975 0.950 . S
C2995 C2991 1.385 . S
C2995 C2994 1.374 . S
C2996 C2993 1.499 . S
C2996 C2997 1.373 . S
C2996 C2998 1.389 . S
C2997 H2976 0.950 . S
C2997 C2996 1.373 . S
C2997 C3013 1.377 1_655 S
C2998 C2996 1.389 . S
C2998 C2999 1.524 . S
C2998 C3012 1.377 1_655 S
C2999 C2998 1.524 . S
C2999 C3000 1.397 . S
C2999 C3004 1.363 . S
C3000 H2977 0.950 . S
C3000 C2999 1.397 . S
C3000 C3001 1.334 . S
C3001 H2978 0.950 . S
C3001 C3000 1.334 . S
C3001 C3002 1.287 . S
C3002 C3001 1.287 . S
C3002 C3003 1.524 . S
C3002 H3021 0.913 . S
C3003 H2979 0.950 . S
C3003 C3002 1.524 . S
C3003 C3004 1.415 . S
C3004 H2980 0.950 . S
C3004 C2999 1.363 . S
C3004 C3003 1.415 . S
C3005 H2981 0.951 . S
C3005 C3006 1.366 . S
C3005 C3007 1.388 . S
C3006 C3005 1.366 . S
C3006 C3010 1.385 . S
C3007 H2982 0.951 . S
C3007 C3005 1.388 . S
C3007 C3008 1.366 . S
C3008 C3007 1.366 . S
C3008 C3009 1.414 . S
C3008 C3011 1.499 . S
C3009 H2983 0.950 . S
C3009 C3008 1.414 . S
C3009 C3010 1.374 . S
C3010 H2984 0.950 . S
C3010 C3006 1.385 . S
C3010 C3009 1.374 . S
C3011 C3008 1.499 . S
C3011 C3012 1.373 . S
C3011 C3013 1.389 . S
C3012 H2985 0.950 . S
C3012 C2998 1.377 1_455 S
C3012 C3011 1.373 . S
C3013 C2997 1.377 1_455 S
C3013 C3011 1.389 . S
C3013 C3014 1.524 . S
C3014 C3013 1.524 . S
C3014 C3015 1.397 . S
C3014 C3019 1.363 . S
C3015 H2986 0.950 . S
C3015 C3014 1.397 . S
C3015 C3016 1.334 . S
C3016 H2987 0.950 . S
C3016 C3015 1.334 . S
C3016 C3017 1.287 . S
C3017 C3016 1.287 . S
C3017 C3018 1.524 . S
C3017 H3020 0.999 . S
C3018 H2988 0.950 . S
C3018 C3017 1.524 . S
C3018 C3019 1.415 . S
C3019 H2989 0.950 . S
C3019 C3014 1.363 . S
C3019 C3018 1.415 . S
H3020 C3017 0.999 . S
H3021 C3002 0.913 . S
H3022 C3040 0.951 . S
H3023 C3042 0.951 . S
H3024 C3044 0.950 . S
H3025 C3045 0.950 . S
H3026 C3047 0.950 . S
H3027 C3050 0.950 . S
H3028 C3051 0.950 . S
H3029 C3053 0.950 . S
H3030 C3054 0.950 . S
H3031 C3055 0.951 . S
H3032 C3057 0.951 . S
H3033 C3059 0.950 . S
H3034 C3060 0.950 . S
H3035 C3062 0.950 . S
H3036 C3065 0.950 . S
H3037 C3066 0.950 . S
H3038 C3068 0.950 . S
H3039 C3069 0.950 . S
C3040 H3022 0.951 . S
C3040 C3041 1.366 . S
C3040 C3042 1.388 . S
C3041 C3040 1.366 . S
C3041 C3045 1.385 . S
C3042 H3023 0.951 . S
C3042 C3040 1.388 . S
C3042 C3043 1.366 . S
C3043 C3042 1.366 . S
C3043 C3044 1.414 . S
C3043 C3046 1.499 . S
C3044 H3024 0.950 . S
C3044 C3043 1.414 . S
C3044 C3045 1.374 . S
C3045 H3025 0.950 . S
C3045 C3041 1.385 . S
C3045 C3044 1.374 . S
C3046 C3043 1.499 . S
C3046 C3047 1.373 . S
C3046 C3048 1.389 . S
C3047 H3026 0.950 . S
C3047 C3046 1.373 . S
C3047 C3063 1.377 1_455 S
C3048 C3046 1.389 . S
C3048 C3049 1.524 . S
C3048 C3062 1.377 1_455 S
C3049 C3048 1.524 . S
C3049 C3050 1.397 . S
C3049 C3054 1.363 . S
C3050 H3027 0.950 . S
C3050 C3049 1.397 . S
C3050 C3051 1.334 . S
C3051 H3028 0.950 . S
C3051 C3050 1.334 . S
C3051 C3052 1.287 . S
C3052 C3051 1.287 . S
C3052 C3053 1.524 . S
C3052 H3071 0.913 . S
C3053 H3029 0.950 . S
C3053 C3052 1.524 . S
C3053 C3054 1.415 . S
C3054 H3030 0.950 . S
C3054 C3049 1.363 . S
C3054 C3053 1.415 . S
C3055 H3031 0.951 . S
C3055 C3056 1.366 . S
C3055 C3057 1.388 . S
C3056 C3055 1.366 . S
C3056 C3060 1.385 . S
C3057 H3032 0.951 . S
C3057 C3055 1.388 . S
C3057 C3058 1.366 . S
C3058 C3057 1.366 . S
C3058 C3059 1.414 . S
C3058 C3061 1.499 . S
C3059 H3033 0.950 . S
C3059 C3058 1.414 . S
C3059 C3060 1.374 . S
C3060 H3034 0.950 . S
C3060 C3056 1.385 . S
C3060 C3059 1.374 . S
C3061 C3058 1.499 . S
C3061 C3062 1.373 . S
C3061 C3063 1.389 . S
C3062 H3035 0.950 . S
C3062 C3048 1.377 1_655 S
C3062 C3061 1.373 . S
C3063 C3047 1.377 1_655 S
C3063 C3061 1.389 . S
C3063 C3064 1.524 . S
C3064 C3063 1.524 . S
C3064 C3065 1.397 . S
C3064 C3069 1.363 . S
C3065 H3036 0.950 . S
C3065 C3064 1.397 . S
C3065 C3066 1.334 . S
C3066 H3037 0.950 . S
C3066 C3065 1.334 . S
C3066 C3067 1.287 . S
C3067 C3066 1.287 . S
C3067 C3068 1.524 . S
C3067 H3070 0.999 . S
C3068 H3038 0.950 . S
C3068 C3067 1.524 . S
C3068 C3069 1.415 . S
C3069 H3039 0.950 . S
C3069 C3064 1.363 . S
C3069 C3068 1.415 . S
H3070 C3067 0.999 . S
H3071 C3052 0.913 . S
H3072 C3090 0.951 . S
H3073 C3092 0.951 . S
H3074 C3094 0.950 . S
H3075 C3095 0.950 . S
H3076 C3097 0.950 . S
H3077 C3100 0.950 . S
H3078 C3101 0.950 . S
H3079 C3103 0.950 . S
H3080 C3104 0.950 . S
H3081 C3105 0.951 . S
H3082 C3107 0.951 . S
H3083 C3109 0.950 . S
H3084 C3110 0.950 . S
H3085 C3112 0.950 . S
H3086 C3115 0.950 . S
H3087 C3116 0.950 . S
H3088 C3118 0.950 . S
H3089 C3119 0.996 . S
C3090 H3072 0.951 . S
C3090 C3091 1.366 . S
C3090 C3092 1.388 . S
C3091 C3090 1.366 . S
C3091 C3095 1.385 . S
C3092 H3073 0.951 . S
C3092 C3090 1.388 . S
C3092 C3093 1.366 . S
C3093 C3092 1.366 . S
C3093 C3094 1.414 . S
C3093 C3096 1.499 . S
C3094 H3074 0.950 . S
C3094 C3093 1.414 . S
C3094 C3095 1.374 . S
C3095 H3075 0.950 . S
C3095 C3091 1.385 . S
C3095 C3094 1.374 . S
C3096 C3093 1.499 . S
C3096 C3097 1.373 . S
C3096 C3098 1.389 . S
C3097 H3076 0.950 . S
C3097 C3096 1.373 . S
C3097 C3113 1.377 1_655 S
C3098 C3096 1.389 . S
C3098 C3099 1.524 . S
C3098 C3112 1.377 1_655 S
C3099 C3098 1.524 . S
C3099 C3100 1.397 . S
C3099 C3104 1.363 . S
C3100 H3077 0.950 . S
C3100 C3099 1.397 . S
C3100 C3101 1.334 . S
C3101 H3078 0.950 . S
C3101 C3100 1.334 . S
C3101 C3102 1.287 . S
C3102 C3101 1.287 . S
C3102 C3103 1.524 . S
C3102 H3121 0.913 . S
C3103 H3079 0.950 . S
C3103 C3102 1.524 . S
C3103 C3104 1.415 . S
C3104 H3080 0.950 . S
C3104 C3099 1.363 . S
C3104 C3103 1.415 . S
C3105 H3081 0.951 . S
C3105 C3106 1.366 . S
C3105 C3107 1.388 . S
C3106 C3105 1.366 . S
C3106 C3110 1.385 . S
C3107 H3082 0.951 . S
C3107 C3105 1.388 . S
C3107 C3108 1.366 . S
C3108 C3107 1.366 . S
C3108 C3109 1.414 . S
C3108 C3111 1.499 . S
C3109 H3083 0.950 . S
C3109 C3108 1.414 . S
C3109 C3110 1.374 . S
C3110 H3084 0.950 . S
C3110 C3106 1.385 . S
C3110 C3109 1.374 . S
C3111 C3108 1.499 . S
C3111 C3112 1.373 . S
C3111 C3113 1.389 . S
C3112 H3085 0.950 . S
C3112 C3098 1.377 1_455 S
C3112 C3111 1.373 . S
C3113 C3097 1.377 1_455 S
C3113 C3111 1.389 . S
C3113 C3114 1.524 . S
C3114 C3113 1.524 . S
C3114 C3115 1.397 . S
C3114 C3119 1.363 . S
C3115 H3086 0.950 . S
C3115 C3114 1.397 . S
C3115 C3116 1.334 . S
C3116 H3087 0.950 . S
C3116 C3115 1.334 . S
C3116 C3117 1.287 . S
C3117 C3116 1.287 . S
C3117 C3118 1.524 . S
C3117 H3120 0.999 . S
C3118 H3088 0.950 . S
C3118 C3117 1.524 . S
C3118 C3119 1.415 . S
C3119 H3089 0.996 . S
C3119 C3114 1.363 . S
C3119 C3118 1.415 . S
H3120 C3117 0.999 . S
H3121 C3102 0.913 . S
H3122 C3140 0.951 . S
H3123 C3142 0.951 . S
H3124 C3144 0.950 . S
H3125 C3145 0.950 . S
H3126 C3147 0.950 . S
H3127 C3150 0.950 . S
H3128 C3151 0.950 . S
H3129 C3153 0.950 . S
H3130 C3154 0.950 . S
H3131 C3155 0.951 . S
H3132 C3157 0.951 . S
H3133 C3159 0.950 . S
H3134 C3160 0.950 . S
H3135 C3162 0.950 . S
H3136 C3165 0.950 . S
H3137 C3166 0.950 . S
H3138 C3168 0.950 . S
H3139 C3169 0.950 . S
C3140 H3122 0.951 . S
C3140 C3141 1.366 . S
C3140 C3142 1.388 . S
C3141 C3140 1.366 . S
C3141 C3145 1.385 . S
C3142 H3123 0.951 . S
C3142 C3140 1.388 . S
C3142 C3143 1.366 . S
C3143 C3142 1.366 . S
C3143 C3144 1.414 . S
C3143 C3146 1.499 . S
C3144 H3124 0.950 . S
C3144 C3143 1.414 . S
C3144 C3145 1.374 . S
C3145 H3125 0.950 . S
C3145 C3141 1.385 . S
C3145 C3144 1.374 . S
C3146 C3143 1.499 . S
C3146 C3147 1.373 . S
C3146 C3148 1.389 . S
C3147 H3126 0.950 . S
C3147 C3146 1.373 . S
C3147 C3163 1.377 . S
C3148 C3146 1.389 . S
C3148 C3149 1.524 . S
C3148 C3162 1.377 . S
C3149 C3148 1.524 . S
C3149 C3150 1.397 . S
C3149 C3154 1.363 . S
C3150 H3127 0.950 . S
C3150 C3149 1.397 . S
C3150 C3151 1.334 . S
C3151 H3128 0.950 . S
C3151 C3150 1.334 . S
C3151 C3152 1.287 . S
C3152 C3151 1.287 . S
C3152 C3153 1.524 . S
C3152 H3171 0.913 . S
C3153 H3129 0.950 . S
C3153 C3152 1.524 . S
C3153 C3154 1.415 . S
C3154 H3130 0.950 . S
C3154 C3149 1.363 . S
C3154 C3153 1.415 . S
C3155 H3131 0.951 . S
C3155 C3156 1.366 . S
C3155 C3157 1.388 . S
C3156 C3155 1.366 . S
C3156 C3160 1.385 . S
C3157 H3132 0.951 . S
C3157 C3155 1.388 . S
C3157 C3158 1.366 . S
C3158 C3157 1.366 . S
C3158 C3159 1.414 . S
C3158 C3161 1.499 . S
C3159 H3133 0.950 . S
C3159 C3158 1.414 . S
C3159 C3160 1.374 . S
C3160 H3134 0.950 . S
C3160 C3156 1.385 . S
C3160 C3159 1.374 . S
C3161 C3158 1.499 . S
C3161 C3162 1.373 . S
C3161 C3163 1.389 . S
C3162 H3135 0.950 . S
C3162 C3148 1.377 . S
C3162 C3161 1.373 . S
C3163 C3147 1.377 . S
C3163 C3161 1.389 . S
C3163 C3164 1.524 . S
C3164 C3163 1.524 . S
C3164 C3165 1.397 . S
C3164 C3169 1.363 . S
C3165 H3136 0.950 . S
C3165 C3164 1.397 . S
C3165 C3166 1.334 . S
C3166 H3137 0.950 . S
C3166 C3165 1.334 . S
C3166 C3167 1.287 . S
C3167 C3166 1.287 . S
C3167 C3168 1.524 . S
C3167 H3170 0.999 . S
C3168 H3138 0.950 . S
C3168 C3167 1.524 . S
C3168 C3169 1.415 . S
C3169 H3139 0.950 . S
C3169 C3164 1.363 . S
C3169 C3168 1.415 . S
H3170 C3167 0.999 . S
H3171 C3152 0.913 . S
H3172 C3190 0.951 . S
H3173 C3192 0.951 . S
H3174 C3194 0.950 . S
H3175 C3195 0.950 . S
H3176 C3197 0.950 . S
H3177 C3200 0.950 . S
H3178 C3201 0.950 . S
H3179 C3203 0.950 . S
H3180 C3204 0.950 . S
H3181 C3205 0.951 . S
H3182 C3207 0.951 . S
H3183 C3209 0.950 . S
H3184 C3210 0.950 . S
H3185 C3212 0.950 . S
H3186 C3215 0.950 . S
H3187 C3216 0.950 . S
H3188 C3218 0.950 . S
H3189 C3219 0.950 . S
C3190 H3172 0.951 . S
C3190 C3191 1.366 . S
C3190 C3192 1.388 . S
C3191 C3190 1.366 . S
C3191 C3195 1.385 . S
C3192 H3173 0.951 . S
C3192 C3190 1.388 . S
C3192 C3193 1.366 . S
C3193 C3192 1.366 . S
C3193 C3194 1.414 . S
C3193 C3196 1.499 . S
C3194 H3174 0.950 . S
C3194 C3193 1.414 . S
C3194 C3195 1.374 . S
C3195 H3175 0.950 . S
C3195 C3191 1.385 . S
C3195 C3194 1.374 . S
C3196 C3193 1.499 . S
C3196 C3197 1.373 . S
C3196 C3198 1.389 . S
C3197 H3176 0.950 . S
C3197 C3196 1.373 . S
C3197 C3213 1.377 1_455 S
C3198 C3196 1.389 . S
C3198 C3199 1.524 . S
C3198 C3212 1.377 1_455 S
C3199 C3198 1.524 . S
C3199 C3200 1.397 . S
C3199 C3204 1.363 . S
C3200 H3177 0.950 . S
C3200 C3199 1.397 . S
C3200 C3201 1.334 . S
C3201 H3178 0.950 . S
C3201 C3200 1.334 . S
C3201 C3202 1.287 . S
C3202 C3201 1.287 . S
C3202 C3203 1.524 . S
C3202 H3221 0.913 . S
C3203 H3179 0.950 . S
C3203 C3202 1.524 . S
C3203 C3204 1.415 . S
C3204 H3180 0.950 . S
C3204 C3199 1.363 . S
C3204 C3203 1.415 . S
C3205 H3181 0.951 . S
C3205 C3206 1.366 . S
C3205 C3207 1.388 . S
C3206 C3205 1.366 . S
C3206 C3210 1.385 . S
C3207 H3182 0.951 . S
C3207 C3205 1.388 . S
C3207 C3208 1.366 . S
C3208 C3207 1.366 . S
C3208 C3209 1.414 . S
C3208 C3211 1.499 . S
C3209 H3183 0.950 . S
C3209 C3208 1.414 . S
C3209 C3210 1.374 . S
C3210 H3184 0.950 . S
C3210 C3206 1.385 . S
C3210 C3209 1.374 . S
C3211 C3208 1.499 . S
C3211 C3212 1.373 . S
C3211 C3213 1.389 . S
C3212 H3185 0.950 . S
C3212 C3198 1.377 1_655 S
C3212 C3211 1.373 . S
C3213 C3197 1.377 1_655 S
C3213 C3211 1.389 . S
C3213 C3214 1.524 . S
C3214 C3213 1.524 . S
C3214 C3215 1.397 . S
C3214 C3219 1.363 . S
C3215 H3186 0.950 . S
C3215 C3214 1.397 . S
C3215 C3216 1.334 . S
C3216 H3187 0.950 . S
C3216 C3215 1.334 . S
C3216 C3217 1.287 . S
C3217 C3216 1.287 . S
C3217 C3218 1.524 . S
C3217 H3220 0.999 . S
C3218 H3188 0.950 . S
C3218 C3217 1.524 . S
C3218 C3219 1.415 . S
C3219 H3189 0.950 . S
C3219 C3214 1.363 . S
C3219 C3218 1.415 . S
H3220 C3217 0.999 . S
H3221 C3202 0.913 . S
H3222 C3240 0.951 . S
H3223 C3242 0.951 . S
H3224 C3244 0.950 . S
H3225 C3245 0.950 . S
H3226 C3247 0.950 . S
H3227 C3250 0.950 . S
H3228 C3251 0.950 . S
H3229 C3253 0.950 . S
H3230 C3254 0.950 . S
H3231 C3255 0.951 . S
H3232 C3257 0.951 . S
H3233 C3259 0.950 . S
H3234 C3260 0.950 . S
H3235 C3262 0.950 . S
H3236 C3265 0.950 . S
H3237 C3266 0.950 . S
H3238 C3268 0.950 . S
H3239 C3269 0.950 . S
C3240 H3222 0.951 . S
C3240 C3241 1.366 . S
C3240 C3242 1.388 . S
C3241 C3240 1.366 . S
C3241 C3245 1.385 . S
C3242 H3223 0.951 . S
C3242 C3240 1.388 . S
C3242 C3243 1.366 . S
C3243 C3242 1.366 . S
C3243 C3244 1.414 . S
C3243 C3246 1.499 . S
C3244 H3224 0.950 . S
C3244 C3243 1.414 . S
C3244 C3245 1.374 . S
C3245 H3225 0.950 . S
C3245 C3241 1.385 . S
C3245 C3244 1.374 . S
C3246 C3243 1.499 . S
C3246 C3247 1.373 . S
C3246 C3248 1.389 . S
C3247 H3226 0.950 . S
C3247 C3246 1.373 . S
C3247 C3263 1.377 . S
C3248 C3246 1.389 . S
C3248 C3249 1.524 . S
C3248 C3262 1.377 . S
C3249 C3248 1.524 . S
C3249 C3250 1.397 . S
C3249 C3254 1.363 . S
C3250 H3227 0.950 . S
C3250 C3249 1.397 . S
C3250 C3251 1.334 . S
C3251 H3228 0.950 . S
C3251 C3250 1.334 . S
C3251 C3252 1.287 . S
C3252 C3251 1.287 . S
C3252 C3253 1.524 . S
C3252 H3271 0.913 . S
C3253 H3229 0.950 . S
C3253 C3252 1.524 . S
C3253 C3254 1.415 . S
C3254 H3230 0.950 . S
C3254 C3249 1.363 . S
C3254 C3253 1.415 . S
C3255 H3231 0.951 . S
C3255 C3256 1.366 . S
C3255 C3257 1.388 . S
C3256 C3255 1.366 . S
C3256 C3260 1.385 . S
C3257 H3232 0.951 . S
C3257 C3255 1.388 . S
C3257 C3258 1.366 . S
C3258 C3257 1.366 . S
C3258 C3259 1.414 . S
C3258 C3261 1.499 . S
C3259 H3233 0.950 . S
C3259 C3258 1.414 . S
C3259 C3260 1.374 . S
C3260 H3234 0.950 . S
C3260 C3256 1.385 . S
C3260 C3259 1.374 . S
C3261 C3258 1.499 . S
C3261 C3262 1.373 . S
C3261 C3263 1.389 . S
C3262 H3235 0.950 . S
C3262 C3248 1.377 . S
C3262 C3261 1.373 . S
C3263 C3247 1.377 . S
C3263 C3261 1.389 . S
C3263 C3264 1.524 . S
C3264 C3263 1.524 . S
C3264 C3265 1.397 . S
C3264 C3269 1.363 . S
C3265 H3236 0.950 . S
C3265 C3264 1.397 . S
C3265 C3266 1.334 . S
C3266 H3237 0.950 . S
C3266 C3265 1.334 . S
C3266 C3267 1.287 . S
C3267 C3266 1.287 . S
C3267 C3268 1.524 . S
C3267 H3270 0.999 . S
C3268 H3238 0.950 . S
C3268 C3267 1.524 . S
C3268 C3269 1.415 . S
C3269 H3239 0.950 . S
C3269 C3264 1.363 . S
C3269 C3268 1.415 . S
H3270 C3267 0.999 . S
H3271 C3252 0.913 . S
H3272 C3290 0.951 . S
H3273 C3292 0.951 . S
H3274 C3294 0.950 . S
H3275 C3295 0.950 . S
H3276 C3297 0.950 . S
H3277 C3300 0.950 . S
H3278 C3301 0.950 . S
H3279 C3303 0.950 . S
H3280 C3304 0.950 . S
H3281 C3305 0.951 . S
H3282 C3307 0.951 . S
H3283 C3309 0.950 . S
H3284 C3310 0.950 . S
H3285 C3312 0.950 . S
H3286 C3315 0.950 . S
H3287 C3316 0.950 . S
H3288 C3318 0.950 . S
H3289 C3319 0.950 . S
C3290 H3272 0.951 . S
C3290 C3291 1.366 . S
C3290 C3292 1.388 . S
C3291 C3290 1.366 . S
C3291 C3295 1.385 . S
C3292 H3273 0.951 . S
C3292 C3290 1.388 . S
C3292 C3293 1.366 . S
C3293 C3292 1.366 . S
C3293 C3294 1.414 . S
C3293 C3296 1.499 . S
C3294 H3274 0.950 . S
C3294 C3293 1.414 . S
C3294 C3295 1.374 . S
C3295 H3275 0.950 . S
C3295 C3291 1.385 . S
C3295 C3294 1.374 . S
C3296 C3293 1.499 . S
C3296 C3297 1.373 . S
C3296 C3298 1.389 . S
C3297 H3276 0.950 . S
C3297 C3296 1.373 . S
C3297 C3313 1.377 1_655 S
C3298 C3296 1.389 . S
C3298 C3299 1.524 . S
C3298 C3312 1.377 1_655 S
C3299 C3298 1.524 . S
C3299 C3300 1.397 . S
C3299 C3304 1.363 . S
C3300 H3277 0.950 . S
C3300 C3299 1.397 . S
C3300 C3301 1.334 . S
C3301 H3278 0.950 . S
C3301 C3300 1.334 . S
C3301 C3302 1.287 . S
C3302 C3301 1.287 . S
C3302 C3303 1.524 . S
C3302 H3321 0.913 . S
C3303 H3279 0.950 . S
C3303 C3302 1.524 . S
C3303 C3304 1.415 . S
C3304 H3280 0.950 . S
C3304 C3299 1.363 . S
C3304 C3303 1.415 . S
C3305 H3281 0.951 . S
C3305 C3306 1.366 . S
C3305 C3307 1.388 . S
C3306 C3305 1.366 . S
C3306 C3310 1.385 . S
C3307 H3282 0.951 . S
C3307 C3305 1.388 . S
C3307 C3308 1.366 . S
C3308 C3307 1.366 . S
C3308 C3309 1.414 . S
C3308 C3311 1.499 . S
C3309 H3283 0.950 . S
C3309 C3308 1.414 . S
C3309 C3310 1.374 . S
C3310 H3284 0.950 . S
C3310 C3306 1.385 . S
C3310 C3309 1.374 . S
C3311 C3308 1.499 . S
C3311 C3312 1.373 . S
C3311 C3313 1.389 . S
C3312 H3285 0.950 . S
C3312 C3298 1.377 1_455 S
C3312 C3311 1.373 . S
C3313 C3297 1.377 1_455 S
C3313 C3311 1.389 . S
C3313 C3314 1.524 . S
C3314 C3313 1.524 . S
C3314 C3315 1.397 . S
C3314 C3319 1.363 . S
C3315 H3286 0.950 . S
C3315 C3314 1.397 . S
C3315 C3316 1.334 . S
C3316 H3287 0.950 . S
C3316 C3315 1.334 . S
C3316 C3317 1.287 . S
C3317 C3316 1.287 . S
C3317 C3318 1.524 . S
C3317 H3320 0.999 . S
C3318 H3288 0.950 . S
C3318 C3317 1.524 . S
C3318 C3319 1.415 . S
C3319 H3289 0.950 . S
C3319 C3314 1.363 . S
C3319 C3318 1.415 . S
H3320 C3317 0.999 . S
H3321 C3302 0.913 . S
H3322 C3340 0.951 . S
H3323 C3342 0.951 . S
H3324 C3344 0.950 . S
H3325 C3345 0.950 . S
H3326 C3347 0.950 . S
H3327 C3350 0.950 . S
H3328 C3351 0.950 . S
H3329 C3353 0.950 . S
H3330 C3354 0.950 . S
H3331 C3355 0.951 . S
H3332 C3357 0.951 . S
H3333 C3359 0.950 . S
H3334 C3360 0.950 . S
H3335 C3362 0.950 . S
H3336 C3365 0.950 . S
H3337 C3366 0.950 . S
H3338 C3368 0.950 . S
H3339 C3369 0.950 . S
C3340 H3322 0.951 . S
C3340 C3341 1.366 . S
C3340 C3342 1.388 . S
C3341 C3340 1.366 . S
C3341 C3345 1.385 . S
C3342 H3323 0.951 . S
C3342 C3340 1.388 . S
C3342 C3343 1.366 . S
C3343 C3342 1.366 . S
C3343 C3344 1.414 . S
C3343 C3346 1.499 . S
C3344 H3324 0.950 . S
C3344 C3343 1.414 . S
C3344 C3345 1.374 . S
C3345 H3325 0.950 . S
C3345 C3341 1.385 . S
C3345 C3344 1.374 . S
C3346 C3343 1.499 . S
C3346 C3347 1.373 . S
C3346 C3348 1.389 . S
C3347 H3326 0.950 . S
C3347 C3346 1.373 . S
C3347 C3363 1.377 . S
C3348 C3346 1.389 . S
C3348 C3349 1.524 . S
C3348 C3362 1.377 . S
C3349 C3348 1.524 . S
C3349 C3350 1.397 . S
C3349 C3354 1.363 . S
C3350 H3327 0.950 . S
C3350 C3349 1.397 . S
C3350 C3351 1.334 . S
C3351 H3328 0.950 . S
C3351 C3350 1.334 . S
C3351 C3352 1.287 . S
C3352 C3351 1.287 . S
C3352 C3353 1.524 . S
C3352 H3371 0.913 . S
C3353 H3329 0.950 . S
C3353 C3352 1.524 . S
C3353 C3354 1.415 . S
C3354 H3330 0.950 . S
C3354 C3349 1.363 . S
C3354 C3353 1.415 . S
C3355 H3331 0.951 . S
C3355 C3356 1.366 . S
C3355 C3357 1.388 . S
C3356 C3355 1.366 . S
C3356 C3360 1.385 . S
C3357 H3332 0.951 . S
C3357 C3355 1.388 . S
C3357 C3358 1.366 . S
C3358 C3357 1.366 . S
C3358 C3359 1.414 . S
C3358 C3361 1.499 . S
C3359 H3333 0.950 . S
C3359 C3358 1.414 . S
C3359 C3360 1.374 . S
C3360 H3334 0.950 . S
C3360 C3356 1.385 . S
C3360 C3359 1.374 . S
C3361 C3358 1.499 . S
C3361 C3362 1.373 . S
C3361 C3363 1.389 . S
C3362 H3335 0.950 . S
C3362 C3348 1.377 . S
C3362 C3361 1.373 . S
C3363 C3347 1.377 . S
C3363 C3361 1.389 . S
C3363 C3364 1.524 . S
C3364 C3363 1.524 . S
C3364 C3365 1.397 . S
C3364 C3369 1.363 . S
C3365 H3336 0.950 . S
C3365 C3364 1.397 . S
C3365 C3366 1.334 . S
C3366 H3337 0.950 . S
C3366 C3365 1.334 . S
C3366 C3367 1.287 . S
C3367 C3366 1.287 . S
C3367 C3368 1.524 . S
C3367 H3370 0.999 . S
C3368 H3338 0.950 . S
C3368 C3367 1.524 . S
C3368 C3369 1.415 . S
C3369 H3339 0.950 . S
C3369 C3364 1.363 . S
C3369 C3368 1.415 . S
H3370 C3367 0.999 . S
H3371 C3352 0.913 . S
H3372 C3390 0.951 . S
H3373 C3392 0.951 . S
H3374 C3394 0.950 . S
H3375 C3395 0.950 . S
H3376 C3397 0.950 . S
H3377 C3400 0.950 . S
H3378 C3401 0.950 . S
H3379 C3403 0.950 . S
H3380 C3404 0.950 . S
H3381 C3405 0.951 . S
H3382 C3407 0.951 . S
H3383 C3409 0.950 . S
H3384 C3410 0.950 . S
H3385 C3412 0.950 . S
H3386 C3415 0.950 . S
H3387 C3416 0.950 . S
H3388 C3418 0.950 . S
H3389 C3419 0.950 . S
C3390 H3372 0.951 . S
C3390 C3391 1.366 . S
C3390 C3392 1.388 . S
C3391 C3390 1.366 . S
C3391 C3395 1.385 . S
C3392 H3373 0.951 . S
C3392 C3390 1.388 . S
C3392 C3393 1.366 . S
C3393 C3392 1.366 . S
C3393 C3394 1.414 . S
C3393 C3396 1.499 . S
C3394 H3374 0.950 . S
C3394 C3393 1.414 . S
C3394 C3395 1.374 . S
C3395 H3375 0.950 . S
C3395 C3391 1.385 . S
C3395 C3394 1.374 . S
C3396 C3393 1.499 . S
C3396 C3397 1.373 . S
C3396 C3398 1.389 . S
C3397 H3376 0.950 . S
C3397 C3396 1.373 . S
C3397 C3413 1.377 1_655 S
C3398 C3396 1.389 . S
C3398 C3399 1.524 . S
C3398 C3412 1.377 1_655 S
C3399 C3398 1.524 . S
C3399 C3400 1.397 . S
C3399 C3404 1.363 . S
C3400 H3377 0.950 . S
C3400 C3399 1.397 . S
C3400 C3401 1.334 . S
C3401 H3378 0.950 . S
C3401 C3400 1.334 . S
C3401 C3402 1.287 . S
C3402 C3401 1.287 . S
C3402 C3403 1.524 . S
C3402 H3421 0.913 . S
C3403 H3379 0.950 . S
C3403 C3402 1.524 . S
C3403 C3404 1.415 . S
C3404 H3380 0.950 . S
C3404 C3399 1.363 . S
C3404 C3403 1.415 . S
C3405 H3381 0.951 . S
C3405 C3406 1.366 . S
C3405 C3407 1.388 . S
C3406 C3405 1.366 . S
C3406 C3410 1.385 . S
C3407 H3382 0.951 . S
C3407 C3405 1.388 . S
C3407 C3408 1.366 . S
C3408 C3407 1.366 . S
C3408 C3409 1.414 . S
C3408 C3411 1.499 . S
C3409 H3383 0.950 . S
C3409 C3408 1.414 . S
C3409 C3410 1.374 . S
C3410 H3384 0.950 . S
C3410 C3406 1.385 . S
C3410 C3409 1.374 . S
C3411 C3408 1.499 . S
C3411 C3412 1.373 . S
C3411 C3413 1.389 . S
C3412 H3385 0.950 . S
C3412 C3398 1.377 1_455 S
C3412 C3411 1.373 . S
C3413 C3397 1.377 1_455 S
C3413 C3411 1.389 . S
C3413 C3414 1.524 . S
C3414 C3413 1.524 . S
C3414 C3415 1.397 . S
C3414 C3419 1.363 . S
C3415 H3386 0.950 . S
C3415 C3414 1.397 . S
C3415 C3416 1.334 . S
C3416 H3387 0.950 . S
C3416 C3415 1.334 . S
C3416 C3417 1.287 . S
C3417 C3416 1.287 . S
C3417 C3418 1.524 . S
C3417 H3420 0.999 . S
C3418 H3388 0.950 . S
C3418 C3417 1.524 . S
C3418 C3419 1.415 . S
C3419 H3389 0.950 . S
C3419 C3414 1.363 . S
C3419 C3418 1.415 . S
H3420 C3417 0.999 . S
H3421 C3402 0.913 . S
H3422 C3440 0.951 . S
H3423 C3442 0.951 . S
H3424 C3444 0.950 . S
H3425 C3445 0.950 . S
H3426 C3447 0.950 . S
H3427 C3450 0.950 . S
H3428 C3451 0.950 . S
H3429 C3453 0.950 . S
H3430 C3454 0.950 . S
H3431 C3455 0.951 . S
H3432 C3457 0.951 . S
H3433 C3459 0.950 . S
H3434 C3460 0.950 . S
H3435 C3462 0.950 . S
H3436 C3465 0.950 . S
H3437 C3466 0.950 . S
H3438 C3468 0.950 . S
H3439 C3469 0.950 . S
C3440 H3422 0.951 . S
C3440 C3441 1.366 . S
C3440 C3442 1.388 . S
C3441 C3440 1.366 . S
C3441 C3445 1.385 . S
C3442 H3423 0.951 . S
C3442 C3440 1.388 . S
C3442 C3443 1.366 . S
C3443 C3442 1.366 . S
C3443 C3444 1.414 . S
C3443 C3446 1.499 . S
C3444 H3424 0.950 . S
C3444 C3443 1.414 . S
C3444 C3445 1.374 . S
C3445 H3425 0.950 . S
C3445 C3441 1.385 . S
C3445 C3444 1.374 . S
C3446 C3443 1.499 . S
C3446 C3447 1.373 . S
C3446 C3448 1.389 . S
C3447 H3426 0.950 . S
C3447 C3446 1.373 . S
C3447 C3463 1.377 . S
C3448 C3446 1.389 . S
C3448 C3449 1.524 . S
C3448 C3462 1.377 . S
C3449 C3448 1.524 . S
C3449 C3450 1.397 . S
C3449 C3454 1.363 . S
C3450 H3427 0.950 . S
C3450 C3449 1.397 . S
C3450 C3451 1.334 . S
C3451 H3428 0.950 . S
C3451 C3450 1.334 . S
C3451 C3452 1.287 . S
C3452 C3451 1.287 . S
C3452 C3453 1.524 . S
C3452 H3471 0.913 . S
C3453 H3429 0.950 . S
C3453 C3452 1.524 . S
C3453 C3454 1.415 . S
C3454 H3430 0.950 . S
C3454 C3449 1.363 . S
C3454 C3453 1.415 . S
C3455 H3431 0.951 . S
C3455 C3456 1.366 . S
C3455 C3457 1.388 . S
C3456 C3455 1.366 . S
C3456 C3460 1.385 . S
C3457 H3432 0.951 . S
C3457 C3455 1.388 . S
C3457 C3458 1.366 . S
C3458 C3457 1.366 . S
C3458 C3459 1.414 . S
C3458 C3461 1.499 . S
C3459 H3433 0.950 . S
C3459 C3458 1.414 . S
C3459 C3460 1.374 . S
C3460 H3434 0.950 . S
C3460 C3456 1.385 . S
C3460 C3459 1.374 . S
C3461 C3458 1.499 . S
C3461 C3462 1.373 . S
C3461 C3463 1.389 . S
C3462 H3435 0.950 . S
C3462 C3448 1.377 . S
C3462 C3461 1.373 . S
C3463 C3447 1.377 . S
C3463 C3461 1.389 . S
C3463 C3464 1.524 . S
C3464 C3463 1.524 . S
C3464 C3465 1.397 . S
C3464 C3469 1.363 . S
C3465 H3436 0.950 . S
C3465 C3464 1.397 . S
C3465 C3466 1.334 . S
C3466 H3437 0.950 . S
C3466 C3465 1.334 . S
C3466 C3467 1.287 . S
C3467 C3466 1.287 . S
C3467 C3468 1.524 . S
C3467 H3470 0.999 . S
C3468 H3438 0.950 . S
C3468 C3467 1.524 . S
C3468 C3469 1.415 . S
C3469 H3439 0.950 . S
C3469 C3464 1.363 . S
C3469 C3468 1.415 . S
H3470 C3467 0.999 . S
H3471 C3452 0.913 . S
H3472 C3490 0.951 . S
H3473 C3492 0.951 . S
H3474 C3494 0.950 . S
H3475 C3495 0.950 . S
H3476 C3497 0.950 . S
H3477 C3500 0.950 . S
H3478 C3501 0.950 . S
H3479 C3503 0.950 . S
H3480 C3504 0.950 . S
H3481 C3505 0.951 . S
H3482 C3507 0.951 . S
H3483 C3509 0.950 . S
H3484 C3510 0.950 . S
H3485 C3512 0.950 . S
H3486 C3515 0.950 . S
H3487 C3516 0.950 . S
H3488 C3518 0.950 . S
H3489 C3519 0.950 . S
C3490 H3472 0.951 . S
C3490 C3491 1.366 . S
C3490 C3492 1.388 . S
C3491 C3490 1.366 . S
C3491 C3495 1.385 . S
C3492 H3473 0.951 . S
C3492 C3490 1.388 . S
C3492 C3493 1.366 . S
C3493 C3492 1.366 . S
C3493 C3494 1.414 . S
C3493 C3496 1.499 . S
C3494 H3474 0.950 . S
C3494 C3493 1.414 . S
C3494 C3495 1.374 . S
C3495 H3475 0.950 . S
C3495 C3491 1.385 . S
C3495 C3494 1.374 . S
C3496 C3493 1.499 . S
C3496 C3497 1.373 . S
C3496 C3498 1.389 . S
C3497 H3476 0.950 . S
C3497 C3496 1.373 . S
C3497 C3513 1.377 1_545 S
C3498 C3496 1.389 . S
C3498 C3499 1.524 . S
C3498 C3512 1.377 1_545 S
C3499 C3498 1.524 . S
C3499 C3500 1.397 . S
C3499 C3504 1.363 . S
C3500 H3477 0.950 . S
C3500 C3499 1.397 . S
C3500 C3501 1.334 . S
C3501 H3478 0.950 . S
C3501 C3500 1.334 . S
C3501 C3502 1.287 . S
C3502 C3501 1.287 . S
C3502 C3503 1.524 . S
C3502 H3521 0.913 . S
C3503 H3479 0.950 . S
C3503 C3502 1.524 . S
C3503 C3504 1.415 . S
C3504 H3480 0.950 . S
C3504 C3499 1.363 . S
C3504 C3503 1.415 . S
C3505 H3481 0.951 . S
C3505 C3506 1.366 . S
C3505 C3507 1.388 . S
C3506 C3505 1.366 . S
C3506 C3510 1.385 . S
C3507 H3482 0.951 . S
C3507 C3505 1.388 . S
C3507 C3508 1.366 . S
C3508 C3507 1.366 . S
C3508 C3509 1.414 . S
C3508 C3511 1.499 . S
C3509 H3483 0.950 . S
C3509 C3508 1.414 . S
C3509 C3510 1.374 . S
C3510 H3484 0.950 . S
C3510 C3506 1.385 . S
C3510 C3509 1.374 . S
C3511 C3508 1.499 . S
C3511 C3512 1.373 . S
C3511 C3513 1.389 . S
C3512 H3485 0.950 . S
C3512 C3498 1.377 1_565 S
C3512 C3511 1.373 . S
C3513 C3497 1.377 1_565 S
C3513 C3511 1.389 . S
C3513 C3514 1.524 . S
C3514 C3513 1.524 . S
C3514 C3515 1.397 . S
C3514 C3519 1.363 . S
C3515 H3486 0.950 . S
C3515 C3514 1.397 . S
C3515 C3516 1.334 . S
C3516 H3487 0.950 . S
C3516 C3515 1.334 . S
C3516 C3517 1.287 . S
C3517 C3516 1.287 . S
C3517 C3518 1.524 . S
C3517 H3520 0.999 . S
C3518 H3488 0.950 . S
C3518 C3517 1.524 . S
C3518 C3519 1.415 . S
C3519 H3489 0.950 . S
C3519 C3514 1.363 . S
C3519 C3518 1.415 . S
H3520 C3517 0.999 . S
H3521 C3502 0.913 . S
H3522 C3540 0.951 . S
H3523 C3542 0.951 . S
H3524 C3544 0.950 . S
H3525 C3545 0.950 . S
H3526 C3547 0.950 . S
H3527 C3550 0.950 . S
H3528 C3551 0.950 . S
H3529 C3553 0.950 . S
H3530 C3554 0.950 . S
H3531 C3555 0.951 . S
H3532 C3557 0.951 . S
H3533 C3559 0.950 . S
H3534 C3560 0.950 . S
H3535 C3562 0.950 . S
H3536 C3565 0.950 . S
H3537 C3566 0.950 . S
H3538 C3568 0.950 . S
H3539 C3569 0.950 . S
C3540 H3522 0.951 . S
C3540 C3541 1.366 . S
C3540 C3542 1.388 . S
C3541 C3540 1.366 . S
C3541 C3545 1.385 . S
C3542 H3523 0.951 . S
C3542 C3540 1.388 . S
C3542 C3543 1.366 . S
C3543 C3542 1.366 . S
C3543 C3544 1.414 . S
C3543 C3546 1.499 . S
C3544 H3524 0.950 . S
C3544 C3543 1.414 . S
C3544 C3545 1.374 . S
C3545 H3525 0.950 . S
C3545 C3541 1.385 . S
C3545 C3544 1.374 . S
C3546 C3543 1.499 . S
C3546 C3547 1.373 . S
C3546 C3548 1.389 . S
C3547 H3526 0.950 . S
C3547 C3546 1.373 . S
C3547 C3563 1.377 . S
C3548 C3546 1.389 . S
C3548 C3549 1.524 . S
C3548 C3562 1.377 . S
C3549 C3548 1.524 . S
C3549 C3550 1.397 . S
C3549 C3554 1.363 . S
C3550 H3527 0.950 . S
C3550 C3549 1.397 . S
C3550 C3551 1.334 . S
C3551 H3528 0.950 . S
C3551 C3550 1.334 . S
C3551 C3552 1.287 . S
C3552 C3551 1.287 . S
C3552 C3553 1.524 . S
C3552 H3571 0.913 . S
C3553 H3529 0.950 . S
C3553 C3552 1.524 . S
C3553 C3554 1.415 . S
C3554 H3530 0.950 . S
C3554 C3549 1.363 . S
C3554 C3553 1.415 . S
C3555 H3531 0.951 . S
C3555 C3556 1.366 . S
C3555 C3557 1.388 . S
C3556 C3555 1.366 . S
C3556 C3560 1.385 . S
C3557 H3532 0.951 . S
C3557 C3555 1.388 . S
C3557 C3558 1.366 . S
C3558 C3557 1.366 . S
C3558 C3559 1.414 . S
C3558 C3561 1.499 . S
C3559 H3533 0.950 . S
C3559 C3558 1.414 . S
C3559 C3560 1.374 . S
C3560 H3534 0.950 . S
C3560 C3556 1.385 . S
C3560 C3559 1.374 . S
C3561 C3558 1.499 . S
C3561 C3562 1.373 . S
C3561 C3563 1.389 . S
C3562 H3535 0.950 . S
C3562 C3548 1.377 . S
C3562 C3561 1.373 . S
C3563 C3547 1.377 . S
C3563 C3561 1.389 . S
C3563 C3564 1.524 . S
C3564 C3563 1.524 . S
C3564 C3565 1.397 . S
C3564 C3569 1.363 . S
C3565 H3536 0.950 . S
C3565 C3564 1.397 . S
C3565 C3566 1.334 . S
C3566 H3537 0.950 . S
C3566 C3565 1.334 . S
C3566 C3567 1.287 . S
C3567 C3566 1.287 . S
C3567 C3568 1.524 . S
C3567 H3570 0.999 . S
C3568 H3538 0.950 . S
C3568 C3567 1.524 . S
C3568 C3569 1.415 . S
C3569 H3539 0.950 . S
C3569 C3564 1.363 . S
C3569 C3568 1.415 . S
H3570 C3567 0.999 . S
H3571 C3552 0.913 . S
H3572 C3590 0.951 . S
H3573 C3592 0.951 . S
H3574 C3594 0.950 . S
H3575 C3595 0.950 . S
H3576 C3597 0.950 . S
H3577 C3600 0.950 . S
H3578 C3601 0.950 . S
H3579 C3603 0.950 . S
H3580 C3604 0.950 . S
H3581 C3605 0.951 . S
H3582 C3607 0.951 . S
H3583 C3609 0.950 . S
H3584 C3610 0.950 . S
H3585 C3612 0.950 . S
H3586 C3615 0.950 . S
H3587 C3616 0.950 . S
H3588 C3618 0.950 . S
H3589 C3619 0.950 . S
C3590 H3572 0.951 . S
C3590 C3591 1.366 . S
C3590 C3592 1.388 . S
C3591 C3590 1.366 . S
C3591 C3595 1.385 . S
C3592 H3573 0.951 . S
C3592 C3590 1.388 . S
C3592 C3593 1.366 . S
C3593 C3592 1.366 . S
C3593 C3594 1.414 . S
C3593 C3596 1.499 . S
C3594 H3574 0.950 . S
C3594 C3593 1.414 . S
C3594 C3595 1.374 . S
C3595 H3575 0.950 . S
C3595 C3591 1.385 . S
C3595 C3594 1.374 . S
C3596 C3593 1.499 . S
C3596 C3597 1.373 . S
C3596 C3598 1.389 . S
C3597 H3576 0.950 . S
C3597 C3596 1.373 . S
C3597 C3613 1.377 1_545 S
C3598 C3596 1.389 . S
C3598 C3599 1.524 . S
C3598 C3612 1.377 1_545 S
C3599 C3598 1.524 . S
C3599 C3600 1.397 . S
C3599 C3604 1.363 . S
C3600 H3577 0.950 . S
C3600 C3599 1.397 . S
C3600 C3601 1.334 . S
C3601 H3578 0.950 . S
C3601 C3600 1.334 . S
C3601 C3602 1.287 . S
C3602 C3601 1.287 . S
C3602 C3603 1.524 . S
C3602 H3621 0.913 . S
C3603 H3579 0.950 . S
C3603 C3602 1.524 . S
C3603 C3604 1.415 . S
C3604 H3580 0.950 . S
C3604 C3599 1.363 . S
C3604 C3603 1.415 . S
C3605 H3581 0.951 . S
C3605 C3606 1.366 . S
C3605 C3607 1.388 . S
C3606 C3605 1.366 . S
C3606 C3610 1.385 . S
C3607 H3582 0.951 . S
C3607 C3605 1.388 . S
C3607 C3608 1.366 . S
C3608 C3607 1.366 . S
C3608 C3609 1.414 . S
C3608 C3611 1.499 . S
C3609 H3583 0.950 . S
C3609 C3608 1.414 . S
C3609 C3610 1.374 . S
C3610 H3584 0.950 . S
C3610 C3606 1.385 . S
C3610 C3609 1.374 . S
C3611 C3608 1.499 . S
C3611 C3612 1.373 . S
C3611 C3613 1.389 . S
C3612 H3585 0.950 . S
C3612 C3598 1.377 1_565 S
C3612 C3611 1.373 . S
C3613 C3597 1.377 1_565 S
C3613 C3611 1.389 . S
C3613 C3614 1.524 . S
C3614 C3613 1.524 . S
C3614 C3615 1.397 . S
C3614 C3619 1.363 . S
C3615 H3586 0.950 . S
C3615 C3614 1.397 . S
C3615 C3616 1.334 . S
C3616 H3587 0.950 . S
C3616 C3615 1.334 . S
C3616 C3617 1.287 . S
C3617 C3616 1.287 . S
C3617 C3618 1.524 . S
C3617 H3620 0.999 . S
C3618 H3588 0.950 . S
C3618 C3617 1.524 . S
C3618 C3619 1.415 . S
C3619 H3589 0.950 . S
C3619 C3614 1.363 . S
C3619 C3618 1.415 . S
H3620 C3617 0.999 . S
H3621 C3602 0.913 . S
H3622 C3640 0.951 . S
H3623 C3642 0.951 . S
H3624 C3644 0.950 . S
H3625 C3645 0.950 . S
H3626 C3647 0.950 . S
H3627 C3650 0.950 . S
H3628 C3651 0.950 . S
H3629 C3653 0.950 . S
H3630 C3654 0.950 . S
H3631 C3655 0.951 . S
H3632 C3657 0.951 . S
H3633 C3659 0.950 . S
H3634 C3660 0.950 . S
H3635 C3662 0.950 . S
H3636 C3665 0.950 . S
H3637 C3666 0.950 . S
H3638 C3668 0.950 . S
H3639 C3669 0.950 . S
C3640 H3622 0.951 . S
C3640 C3641 1.366 . S
C3640 C3642 1.388 . S
C3641 C3640 1.366 . S
C3641 C3645 1.385 . S
C3642 H3623 0.951 . S
C3642 C3640 1.388 . S
C3642 C3643 1.366 . S
C3643 C3642 1.366 . S
C3643 C3644 1.414 . S
C3643 C3646 1.499 . S
C3644 H3624 0.950 . S
C3644 C3643 1.414 . S
C3644 C3645 1.374 . S
C3645 H3625 0.950 . S
C3645 C3641 1.385 . S
C3645 C3644 1.374 . S
C3646 C3643 1.499 . S
C3646 C3647 1.373 . S
C3646 C3648 1.389 . S
C3647 H3626 0.950 . S
C3647 C3646 1.373 . S
C3647 C3663 1.377 . S
C3648 C3646 1.389 . S
C3648 C3649 1.524 . S
C3648 C3662 1.377 . S
C3649 C3648 1.524 . S
C3649 C3650 1.397 . S
C3649 C3654 1.363 . S
C3650 H3627 0.950 . S
C3650 C3649 1.397 . S
C3650 C3651 1.334 . S
C3651 H3628 0.950 . S
C3651 C3650 1.334 . S
C3651 C3652 1.287 . S
C3652 C3651 1.287 . S
C3652 C3653 1.524 . S
C3652 H3671 0.913 . S
C3653 H3629 0.950 . S
C3653 C3652 1.524 . S
C3653 C3654 1.415 . S
C3654 H3630 0.950 . S
C3654 C3649 1.363 . S
C3654 C3653 1.415 . S
C3655 H3631 0.951 . S
C3655 C3656 1.366 . S
C3655 C3657 1.388 . S
C3656 C3655 1.366 . S
C3656 C3660 1.385 . S
C3657 H3632 0.951 . S
C3657 C3655 1.388 . S
C3657 C3658 1.366 . S
C3658 C3657 1.366 . S
C3658 C3659 1.414 . S
C3658 C3661 1.499 . S
C3659 H3633 0.950 . S
C3659 C3658 1.414 . S
C3659 C3660 1.374 . S
C3660 H3634 0.950 . S
C3660 C3656 1.385 . S
C3660 C3659 1.374 . S
C3661 C3658 1.499 . S
C3661 C3662 1.373 . S
C3661 C3663 1.389 . S
C3662 H3635 0.950 . S
C3662 C3648 1.377 . S
C3662 C3661 1.373 . S
C3663 C3647 1.377 . S
C3663 C3661 1.389 . S
C3663 C3664 1.524 . S
C3664 C3663 1.524 . S
C3664 C3665 1.397 . S
C3664 C3669 1.363 . S
C3665 H3636 0.950 . S
C3665 C3664 1.397 . S
C3665 C3666 1.334 . S
C3666 H3637 0.950 . S
C3666 C3665 1.334 . S
C3666 C3667 1.287 . S
C3667 C3666 1.287 . S
C3667 C3668 1.524 . S
C3667 H3670 0.999 . S
C3668 H3638 0.950 . S
C3668 C3667 1.524 . S
C3668 C3669 1.415 . S
C3669 H3639 0.950 . S
C3669 C3664 1.363 . S
C3669 C3668 1.415 . S
H3670 C3667 0.999 . S
H3671 C3652 0.913 . S
H3672 C3690 0.951 . S
H3673 C3692 0.951 . S
H3674 C3694 0.950 . S
H3675 C3695 0.950 . S
H3676 C3697 0.950 . S
H3677 C3700 0.950 . S
H3678 C3701 0.950 . S
H3679 C3703 0.950 . S
H3680 C3704 0.950 . S
H3681 C3705 0.951 . S
H3682 C3707 0.951 . S
H3683 C3709 0.950 . S
H3684 C3710 0.950 . S
H3685 C3712 0.950 . S
H3686 C3715 0.950 . S
H3687 C3716 0.950 . S
H3688 C3718 0.950 . S
H3689 C3719 0.950 . S
C3690 H3672 0.951 . S
C3690 C3691 1.366 . S
C3690 C3692 1.388 . S
C3691 C3690 1.366 . S
C3691 C3695 1.385 . S
C3692 H3673 0.951 . S
C3692 C3690 1.388 . S
C3692 C3693 1.366 . S
C3693 C3692 1.366 . S
C3693 C3694 1.414 . S
C3693 C3696 1.499 . S
C3694 H3674 0.950 . S
C3694 C3693 1.414 . S
C3694 C3695 1.374 . S
C3695 H3675 0.950 . S
C3695 C3691 1.385 . S
C3695 C3694 1.374 . S
C3696 C3693 1.499 . S
C3696 C3697 1.373 . S
C3696 C3698 1.389 . S
C3697 H3676 0.950 . S
C3697 C3696 1.373 . S
C3697 C3713 1.377 1_545 S
C3698 C3696 1.389 . S
C3698 C3699 1.524 . S
C3698 C3712 1.377 1_545 S
C3699 C3698 1.524 . S
C3699 C3700 1.397 . S
C3699 C3704 1.363 . S
C3700 H3677 0.950 . S
C3700 C3699 1.397 . S
C3700 C3701 1.334 . S
C3701 H3678 0.950 . S
C3701 C3700 1.334 . S
C3701 C3702 1.287 . S
C3702 C3701 1.287 . S
C3702 C3703 1.524 . S
C3702 H3721 0.913 . S
C3703 H3679 0.950 . S
C3703 C3702 1.524 . S
C3703 C3704 1.415 . S
C3704 H3680 0.950 . S
C3704 C3699 1.363 . S
C3704 C3703 1.415 . S
C3705 H3681 0.951 . S
C3705 C3706 1.366 . S
C3705 C3707 1.388 . S
C3706 C3705 1.366 . S
C3706 C3710 1.385 . S
C3707 H3682 0.951 . S
C3707 C3705 1.388 . S
C3707 C3708 1.366 . S
C3708 C3707 1.366 . S
C3708 C3709 1.414 . S
C3708 C3711 1.499 . S
C3709 H3683 0.950 . S
C3709 C3708 1.414 . S
C3709 C3710 1.374 . S
C3710 H3684 0.950 . S
C3710 C3706 1.385 . S
C3710 C3709 1.374 . S
C3711 C3708 1.499 . S
C3711 C3712 1.373 . S
C3711 C3713 1.389 . S
C3712 H3685 0.950 . S
C3712 C3698 1.377 1_565 S
C3712 C3711 1.373 . S
C3713 C3697 1.377 1_565 S
C3713 C3711 1.389 . S
C3713 C3714 1.524 . S
C3714 C3713 1.524 . S
C3714 C3715 1.397 . S
C3714 C3719 1.363 . S
C3715 H3686 0.950 . S
C3715 C3714 1.397 . S
C3715 C3716 1.334 . S
C3716 H3687 0.950 . S
C3716 C3715 1.334 . S
C3716 C3717 1.287 . S
C3717 C3716 1.287 . S
C3717 C3718 1.524 . S
C3717 H3720 0.999 . S
C3718 H3688 0.950 . S
C3718 C3717 1.524 . S
C3718 C3719 1.415 . S
C3719 H3689 0.950 . S
C3719 C3714 1.363 . S
C3719 C3718 1.415 . S
H3720 C3717 0.999 . S
H3721 C3702 0.913 . S
H3722 C3740 0.951 . S
H3723 C3742 0.951 . S
H3724 C3744 0.950 . S
H3725 C3745 0.950 . S
H3726 C3747 0.950 . S
H3727 C3750 0.950 . S
H3728 C3751 0.950 . S
H3729 C3753 0.950 . S
H3730 C3754 0.950 . S
H3731 C3755 0.951 . S
H3732 C3757 0.951 . S
H3733 C3759 0.950 . S
H3734 C3760 0.950 . S
H3735 C3762 0.950 . S
H3736 C3765 0.950 . S
H3737 C3766 0.950 . S
H3738 C3768 0.950 . S
H3739 C3769 0.950 . S
C3740 H3722 0.951 . S
C3740 C3741 1.366 . S
C3740 C3742 1.388 . S
C3741 C3740 1.366 . S
C3741 C3745 1.385 . S
C3742 H3723 0.951 . S
C3742 C3740 1.388 . S
C3742 C3743 1.366 . S
C3743 C3742 1.366 . S
C3743 C3744 1.414 . S
C3743 C3746 1.499 . S
C3744 H3724 0.950 . S
C3744 C3743 1.414 . S
C3744 C3745 1.374 . S
C3745 H3725 0.950 . S
C3745 C3741 1.385 . S
C3745 C3744 1.374 . S
C3746 C3743 1.499 . S
C3746 C3747 1.373 . S
C3746 C3748 1.389 . S
C3747 H3726 0.950 . S
C3747 C3746 1.373 . S
C3747 C3763 1.377 . S
C3748 C3746 1.389 . S
C3748 C3749 1.524 . S
C3748 C3762 1.377 . S
C3749 C3748 1.524 . S
C3749 C3750 1.397 . S
C3749 C3754 1.363 . S
C3750 H3727 0.950 . S
C3750 C3749 1.397 . S
C3750 C3751 1.334 . S
C3751 H3728 0.950 . S
C3751 C3750 1.334 . S
C3751 C3752 1.287 . S
C3752 C3751 1.287 . S
C3752 C3753 1.524 . S
C3752 H3771 0.913 . S
C3753 H3729 0.950 . S
C3753 C3752 1.524 . S
C3753 C3754 1.415 . S
C3754 H3730 0.950 . S
C3754 C3749 1.363 . S
C3754 C3753 1.415 . S
C3755 H3731 0.951 . S
C3755 C3756 1.366 . S
C3755 C3757 1.388 . S
C3756 C3755 1.366 . S
C3756 C3760 1.385 . S
C3757 H3732 0.951 . S
C3757 C3755 1.388 . S
C3757 C3758 1.366 . S
C3758 C3757 1.366 . S
C3758 C3759 1.414 . S
C3758 C3761 1.499 . S
C3759 H3733 0.950 . S
C3759 C3758 1.414 . S
C3759 C3760 1.374 . S
C3760 H3734 0.950 . S
C3760 C3756 1.385 . S
C3760 C3759 1.374 . S
C3761 C3758 1.499 . S
C3761 C3762 1.373 . S
C3761 C3763 1.389 . S
C3762 H3735 0.950 . S
C3762 C3748 1.377 . S
C3762 C3761 1.373 . S
C3763 C3747 1.377 . S
C3763 C3761 1.389 . S
C3763 C3764 1.524 . S
C3764 C3763 1.524 . S
C3764 C3765 1.397 . S
C3764 C3769 1.363 . S
C3765 H3736 0.950 . S
C3765 C3764 1.397 . S
C3765 C3766 1.334 . S
C3766 H3737 0.950 . S
C3766 C3765 1.334 . S
C3766 C3767 1.287 . S
C3767 C3766 1.287 . S
C3767 C3768 1.524 . S
C3767 H3770 0.999 . S
C3768 H3738 0.950 . S
C3768 C3767 1.524 . S
C3768 C3769 1.415 . S
C3769 H3739 0.950 . S
C3769 C3764 1.363 . S
C3769 C3768 1.415 . S
H3770 C3767 0.999 . S
H3771 C3752 0.913 . S
H3772 C3790 0.951 . S
H3773 C3792 0.951 . S
H3774 C3794 0.950 . S
H3775 C3795 0.950 . S
H3776 C3797 0.950 . S
H3777 C3800 0.950 . S
H3778 C3801 0.950 . S
H3779 C3803 0.950 . S
H3780 C3804 0.950 . S
H3781 C3805 0.951 . S
H3782 C3807 0.951 . S
H3783 C3809 0.950 . S
H3784 C3810 0.950 . S
H3785 C3812 0.950 . S
H3786 C3815 0.950 . S
H3787 C3816 0.950 . S
H3788 C3818 0.950 . S
H3789 C3819 0.950 . S
C3790 H3772 0.951 . S
C3790 C3791 1.366 . S
C3790 C3792 1.388 . S
C3791 C3790 1.366 . S
C3791 C3795 1.385 . S
C3792 H3773 0.951 . S
C3792 C3790 1.388 . S
C3792 C3793 1.366 . S
C3793 C3792 1.366 . S
C3793 C3794 1.414 . S
C3793 C3796 1.499 . S
C3794 H3774 0.950 . S
C3794 C3793 1.414 . S
C3794 C3795 1.374 . S
C3795 H3775 0.950 . S
C3795 C3791 1.385 . S
C3795 C3794 1.374 . S
C3796 C3793 1.499 . S
C3796 C3797 1.373 . S
C3796 C3798 1.389 . S
C3797 H3776 0.950 . S
C3797 C3796 1.373 . S
C3797 C3813 1.377 1_545 S
C3798 C3796 1.389 . S
C3798 C3799 1.524 . S
C3798 C3812 1.377 1_545 S
C3799 C3798 1.524 . S
C3799 C3800 1.397 . S
C3799 C3804 1.363 . S
C3800 H3777 0.950 . S
C3800 C3799 1.397 . S
C3800 C3801 1.334 . S
C3801 H3778 0.950 . S
C3801 C3800 1.334 . S
C3801 C3802 1.287 . S
C3802 C3801 1.287 . S
C3802 C3803 1.524 . S
C3802 H3821 0.913 . S
C3803 H3779 0.950 . S
C3803 C3802 1.524 . S
C3803 C3804 1.415 . S
C3804 H3780 0.950 . S
C3804 C3799 1.363 . S
C3804 C3803 1.415 . S
C3805 H3781 0.951 . S
C3805 C3806 1.366 . S
C3805 C3807 1.388 . S
C3806 C3805 1.366 . S
C3806 C3810 1.385 . S
C3807 H3782 0.951 . S
C3807 C3805 1.388 . S
C3807 C3808 1.366 . S
C3808 C3807 1.366 . S
C3808 C3809 1.414 . S
C3808 C3811 1.499 . S
C3809 H3783 0.950 . S
C3809 C3808 1.414 . S
C3809 C3810 1.374 . S
C3810 H3784 0.950 . S
C3810 C3806 1.385 . S
C3810 C3809 1.374 . S
C3811 C3808 1.499 . S
C3811 C3812 1.373 . S
C3811 C3813 1.389 . S
C3812 H3785 0.950 . S
C3812 C3798 1.377 1_565 S
C3812 C3811 1.373 . S
C3813 C3797 1.377 1_565 S
C3813 C3811 1.389 . S
C3813 C3814 1.524 . S
C3814 C3813 1.524 . S
C3814 C3815 1.397 . S
C3814 C3819 1.363 . S
C3815 H3786 0.950 . S
C3815 C3814 1.397 . S
C3815 C3816 1.334 . S
C3816 H3787 0.950 . S
C3816 C3815 1.334 . S
C3816 C3817 1.287 . S
C3817 C3816 1.287 . S
C3817 C3818 1.524 . S
C3817 H3820 0.999 . S
C3818 H3788 0.950 . S
C3818 C3817 1.524 . S
C3818 C3819 1.415 . S
C3819 H3789 0.950 . S
C3819 C3814 1.363 . S
C3819 C3818 1.415 . S
H3820 C3817 0.999 . S
H3821 C3802 0.913 . S
H3822 C3840 0.951 . S
H3823 C3842 0.951 . S
H3824 C3844 0.950 . S
H3825 C3845 0.950 . S
H3826 C3847 0.950 . S
H3827 C3850 0.950 . S
H3828 C3851 0.950 . S
H3829 C3853 0.950 . S
H3830 C3854 0.950 . S
H3831 C3855 0.951 . S
H3832 C3857 0.951 . S
H3833 C3859 0.950 . S
H3834 C3860 0.950 . S
H3835 C3862 0.950 . S
H3836 C3865 0.950 . S
H3837 C3866 0.950 . S
H3838 C3868 0.950 . S
H3839 C3869 0.950 . S
C3840 H3822 0.951 . S
C3840 C3841 1.366 . S
C3840 C3842 1.388 . S
C3841 C3840 1.366 . S
C3841 C3845 1.385 . S
C3842 H3823 0.951 . S
C3842 C3840 1.388 . S
C3842 C3843 1.366 . S
C3843 C3842 1.366 . S
C3843 C3844 1.414 . S
C3843 C3846 1.499 . S
C3844 H3824 0.950 . S
C3844 C3843 1.414 . S
C3844 C3845 1.374 . S
C3845 H3825 0.950 . S
C3845 C3841 1.385 . S
C3845 C3844 1.374 . S
C3846 C3843 1.499 . S
C3846 C3847 1.373 . S
C3846 C3848 1.389 . S
C3847 H3826 0.950 . S
C3847 C3846 1.373 . S
C3847 C3863 1.377 . S
C3848 C3846 1.389 . S
C3848 C3849 1.524 . S
C3848 C3862 1.377 . S
C3849 C3848 1.524 . S
C3849 C3850 1.397 . S
C3849 C3854 1.363 . S
C3850 H3827 0.950 . S
C3850 C3849 1.397 . S
C3850 C3851 1.334 . S
C3851 H3828 0.950 . S
C3851 C3850 1.334 . S
C3851 C3852 1.287 . S
C3852 C3851 1.287 . S
C3852 C3853 1.524 . S
C3852 H3871 0.913 . S
C3853 H3829 0.950 . S
C3853 C3852 1.524 . S
C3853 C3854 1.415 . S
C3854 H3830 0.950 . S
C3854 C3849 1.363 . S
C3854 C3853 1.415 . S
C3855 H3831 0.951 . S
C3855 C3856 1.366 . S
C3855 C3857 1.388 . S
C3856 C3855 1.366 . S
C3856 C3860 1.385 . S
C3857 H3832 0.951 . S
C3857 C3855 1.388 . S
C3857 C3858 1.366 . S
C3858 C3857 1.366 . S
C3858 C3859 1.414 . S
C3858 C3861 1.499 . S
C3859 H3833 0.950 . S
C3859 C3858 1.414 . S
C3859 C3860 1.374 . S
C3860 H3834 0.950 . S
C3860 C3856 1.385 . S
C3860 C3859 1.374 . S
C3861 C3858 1.499 . S
C3861 C3862 1.373 . S
C3861 C3863 1.389 . S
C3862 H3835 0.950 . S
C3862 C3848 1.377 . S
C3862 C3861 1.373 . S
C3863 C3847 1.377 . S
C3863 C3861 1.389 . S
C3863 C3864 1.524 . S
C3864 C3863 1.524 . S
C3864 C3865 1.397 . S
C3864 C3869 1.363 . S
C3865 H3836 0.950 . S
C3865 C3864 1.397 . S
C3865 C3866 1.334 . S
C3866 H3837 0.950 . S
C3866 C3865 1.334 . S
C3866 C3867 1.287 . S
C3867 C3866 1.287 . S
C3867 C3868 1.524 . S
C3867 H3870 0.999 . S
C3868 H3838 0.950 . S
C3868 C3867 1.524 . S
C3868 C3869 1.415 . S
C3869 H3839 0.950 . S
C3869 C3864 1.363 . S
C3869 C3868 1.415 . S
H3870 C3867 0.999 . S
H3871 C3852 0.913 . S
H3872 C3890 0.951 . S
H3873 C3892 0.951 . S
H3874 C3894 0.950 . S
H3875 C3895 0.950 . S
H3876 C3897 0.950 . S
H3877 C3900 0.950 . S
H3878 C3901 0.950 . S
H3879 C3903 0.950 . S
H3880 C3904 0.950 . S
H3881 C3905 0.951 . S
H3882 C3907 0.951 . S
H3883 C3909 0.950 . S
H3884 C3910 0.950 . S
H3885 C3912 0.950 . S
H3886 C3915 0.950 . S
H3887 C3916 0.950 . S
H3888 C3918 0.950 . S
H3889 C3919 0.965 . S
C3890 H3872 0.951 . S
C3890 C3891 1.366 . S
C3890 C3892 1.388 . S
C3891 C3890 1.366 . S
C3891 C3895 1.385 . S
C3892 H3873 0.951 . S
C3892 C3890 1.388 . S
C3892 C3893 1.366 . S
C3893 C3892 1.366 . S
C3893 C3894 1.414 . S
C3893 C3896 1.499 . S
C3894 H3874 0.950 . S
C3894 C3893 1.414 . S
C3894 C3895 1.374 . S
C3895 H3875 0.950 . S
C3895 C3891 1.385 . S
C3895 C3894 1.374 . S
C3896 C3893 1.499 . S
C3896 C3897 1.373 . S
C3896 C3898 1.389 . S
C3897 H3876 0.950 . S
C3897 C3896 1.373 . S
C3897 C3913 1.377 1_556 S
C3898 C3896 1.389 . S
C3898 C3899 1.524 . S
C3898 C3912 1.377 1_556 S
C3899 C3898 1.524 . S
C3899 C3900 1.397 . S
C3899 C3904 1.363 . S
C3900 H3877 0.950 . S
C3900 C3899 1.397 . S
C3900 C3901 1.334 . S
C3901 H3878 0.950 . S
C3901 C3900 1.334 . S
C3901 C3902 1.287 . S
C3902 C3901 1.287 . S
C3902 C3903 1.524 . S
C3902 H3921 0.913 . S
C3903 H3879 0.950 . S
C3903 C3902 1.524 . S
C3903 C3904 1.415 . S
C3904 H3880 0.950 . S
C3904 C3899 1.363 . S
C3904 C3903 1.415 . S
C3905 H3881 0.951 . S
C3905 C3906 1.366 . S
C3905 C3907 1.388 . S
C3906 C3905 1.366 . S
C3906 C3910 1.385 . S
C3907 H3882 0.951 . S
C3907 C3905 1.388 . S
C3907 C3908 1.366 . S
C3908 C3907 1.366 . S
C3908 C3909 1.414 . S
C3908 C3911 1.499 . S
C3909 H3883 0.950 . S
C3909 C3908 1.414 . S
C3909 C3910 1.374 . S
C3910 H3884 0.950 . S
C3910 C3906 1.385 . S
C3910 C3909 1.374 . S
C3911 C3908 1.499 . S
C3911 C3912 1.373 . S
C3911 C3913 1.389 . S
C3912 H3885 0.950 . S
C3912 C3898 1.377 1_554 S
C3912 C3911 1.373 . S
C3913 C3897 1.377 1_554 S
C3913 C3911 1.389 . S
C3913 C3914 1.524 . S
C3914 C3913 1.524 . S
C3914 C3915 1.397 . S
C3914 C3919 1.363 . S
C3915 H3886 0.950 . S
C3915 C3914 1.397 . S
C3915 C3916 1.334 . S
C3916 H3887 0.950 . S
C3916 C3915 1.334 . S
C3916 C3917 1.287 . S
C3917 C3916 1.287 . S
C3917 C3918 1.524 . S
C3917 H3920 0.999 . S
C3918 H3888 0.950 . S
C3918 C3917 1.524 . S
C3918 C3919 1.415 . S
C3919 H3889 0.965 . S
C3919 C3914 1.363 . S
C3919 C3918 1.415 . S
H3920 C3917 0.999 . S
H3921 C3902 0.913 . S
H3922 C3940 0.951 . S
H3923 C3942 0.951 . S
H3924 C3944 0.950 . S
H3925 C3945 0.950 . S
H3926 C3947 0.950 . S
H3927 C3950 0.950 . S
H3928 C3951 0.950 . S
H3929 C3953 0.950 . S
H3930 C3954 0.950 . S
H3931 C3955 0.951 . S
H3932 C3957 0.951 . S
H3933 C3959 0.950 . S
H3934 C3960 0.950 . S
H3935 C3962 0.950 . S
H3936 C3965 0.950 . S
H3937 C3966 0.950 . S
H3938 C3968 0.950 . S
H3939 C3969 0.950 . S
C3940 H3922 0.951 . S
C3940 C3941 1.366 . S
C3940 C3942 1.388 . S
C3941 C3940 1.366 . S
C3941 C3945 1.385 . S
C3942 H3923 0.951 . S
C3942 C3940 1.388 . S
C3942 C3943 1.366 . S
C3943 C3942 1.366 . S
C3943 C3944 1.414 . S
C3943 C3946 1.499 . S
C3944 H3924 0.950 . S
C3944 C3943 1.414 . S
C3944 C3945 1.374 . S
C3945 H3925 0.950 . S
C3945 C3941 1.385 . S
C3945 C3944 1.374 . S
C3946 C3943 1.499 . S
C3946 C3947 1.373 . S
C3946 C3948 1.389 . S
C3947 H3926 0.950 . S
C3947 C3946 1.373 . S
C3947 C3963 1.377 1_556 S
C3948 C3946 1.389 . S
C3948 C3949 1.524 . S
C3948 C3962 1.377 1_556 S
C3949 C3948 1.524 . S
C3949 C3950 1.397 . S
C3949 C3954 1.363 . S
C3950 H3927 0.950 . S
C3950 C3949 1.397 . S
C3950 C3951 1.334 . S
C3951 H3928 0.950 . S
C3951 C3950 1.334 . S
C3951 C3952 1.287 . S
C3952 C3951 1.287 . S
C3952 C3953 1.524 . S
C3952 H3971 0.913 . S
C3953 H3929 0.950 . S
C3953 C3952 1.524 . S
C3953 C3954 1.415 . S
C3954 H3930 0.950 . S
C3954 C3949 1.363 . S
C3954 C3953 1.415 . S
C3955 H3931 0.951 . S
C3955 C3956 1.366 . S
C3955 C3957 1.388 . S
C3956 C3955 1.366 . S
C3956 C3960 1.385 . S
C3957 H3932 0.951 . S
C3957 C3955 1.388 . S
C3957 C3958 1.366 . S
C3958 C3957 1.366 . S
C3958 C3959 1.414 . S
C3958 C3961 1.499 . S
C3959 H3933 0.950 . S
C3959 C3958 1.414 . S
C3959 C3960 1.374 . S
C3960 H3934 0.950 . S
C3960 C3956 1.385 . S
C3960 C3959 1.374 . S
C3961 C3958 1.499 . S
C3961 C3962 1.373 . S
C3961 C3963 1.389 . S
C3962 H3935 0.950 . S
C3962 C3948 1.377 1_554 S
C3962 C3961 1.373 . S
C3963 C3947 1.377 1_554 S
C3963 C3961 1.389 . S
C3963 C3964 1.524 . S
C3964 C3963 1.524 . S
C3964 C3965 1.397 . S
C3964 C3969 1.363 . S
C3965 H3936 0.950 . S
C3965 C3964 1.397 . S
C3965 C3966 1.334 . S
C3966 H3937 0.950 . S
C3966 C3965 1.334 . S
C3966 C3967 1.287 . S
C3967 C3966 1.287 . S
C3967 C3968 1.524 . S
C3967 H3970 0.999 . S
C3968 H3938 0.950 . S
C3968 C3967 1.524 . S
C3968 C3969 1.415 . S
C3969 H3939 0.950 . S
C3969 C3964 1.363 . S
C3969 C3968 1.415 . S
H3970 C3967 0.999 . S
H3971 C3952 0.913 . S
H3972 C3990 0.951 . S
H3973 C3992 0.951 . S
H3974 C3994 0.950 . S
H3975 C3995 0.950 . S
H3976 C3997 0.950 . S
H3977 C4000 0.950 . S
H3978 C4001 0.950 . S
H3979 C4003 0.950 . S
H3980 C4004 0.950 . S
H3981 C4005 0.951 . S
H3982 C4007 0.951 . S
H3983 C4009 0.950 . S
H3984 C4010 0.950 . S
H3985 C4012 0.950 . S
H3986 C4015 0.950 . S
H3987 C4016 0.950 . S
H3988 C4018 0.950 . S
H3989 C4019 0.950 . S
C3990 H3972 0.951 . S
C3990 C3991 1.366 . S
C3990 C3992 1.388 . S
C3991 C3990 1.366 . S
C3991 C3995 1.385 . S
C3992 H3973 0.951 . S
C3992 C3990 1.388 . S
C3992 C3993 1.366 . S
C3993 C3992 1.366 . S
C3993 C3994 1.414 . S
C3993 C3996 1.499 . S
C3994 H3974 0.950 . S
C3994 C3993 1.414 . S
C3994 C3995 1.374 . S
C3995 H3975 0.950 . S
C3995 C3991 1.385 . S
C3995 C3994 1.374 . S
C3996 C3993 1.499 . S
C3996 C3997 1.373 . S
C3996 C3998 1.389 . S
C3997 H3976 0.950 . S
C3997 C3996 1.373 . S
C3997 C4013 1.377 . S
C3998 C3996 1.389 . S
C3998 C3999 1.524 . S
C3998 C4012 1.377 . S
C3999 C3998 1.524 . S
C3999 C4000 1.397 . S
C3999 C4004 1.363 . S
C4000 H3977 0.950 . S
C4000 C3999 1.397 . S
C4000 C4001 1.334 . S
C4001 H3978 0.950 . S
C4001 C4000 1.334 . S
C4001 C4002 1.287 . S
C4002 C4001 1.287 . S
C4002 C4003 1.524 . S
C4002 H4021 0.913 . S
C4003 H3979 0.950 . S
C4003 C4002 1.524 . S
C4003 C4004 1.415 . S
C4004 H3980 0.950 . S
C4004 C3999 1.363 . S
C4004 C4003 1.415 . S
C4005 H3981 0.951 . S
C4005 C4006 1.366 . S
C4005 C4007 1.388 . S
C4006 C4005 1.366 . S
C4006 C4010 1.385 . S
C4007 H3982 0.951 . S
C4007 C4005 1.388 . S
C4007 C4008 1.366 . S
C4008 C4007 1.366 . S
C4008 C4009 1.414 . S
C4008 C4011 1.499 . S
C4009 H3983 0.950 . S
C4009 C4008 1.414 . S
C4009 C4010 1.374 . S
C4010 H3984 0.950 . S
C4010 C4006 1.385 . S
C4010 C4009 1.374 . S
C4011 C4008 1.499 . S
C4011 C4012 1.373 . S
C4011 C4013 1.389 . S
C4012 H3985 0.950 . S
C4012 C3998 1.377 . S
C4012 C4011 1.373 . S
C4013 C3997 1.377 . S
C4013 C4011 1.389 . S
C4013 C4014 1.524 . S
C4014 C4013 1.524 . S
C4014 C4015 1.397 . S
C4014 C4019 1.363 . S
C4015 H3986 0.950 . S
C4015 C4014 1.397 . S
C4015 C4016 1.334 . S
C4016 H3987 0.950 . S
C4016 C4015 1.334 . S
C4016 C4017 1.287 . S
C4017 C4016 1.287 . S
C4017 C4018 1.524 . S
C4017 H4020 0.999 . S
C4018 H3988 0.950 . S
C4018 C4017 1.524 . S
C4018 C4019 1.415 . S
C4019 H3989 0.950 . S
C4019 C4014 1.363 . S
C4019 C4018 1.415 . S
H4020 C4017 0.999 . S
H4021 C4002 0.913 . S
H4022 C4040 0.951 . S
H4023 C4042 0.951 . S
H4024 C4044 0.950 . S
H4025 C4045 0.950 . S
H4026 C4047 0.950 . S
H4027 C4050 0.950 . S
H4028 C4051 0.950 . S
H4029 C4053 0.950 . S
H4030 C4054 0.925 1_554 S
H4031 C4055 0.951 . S
H4032 C4057 0.951 . S
H4033 C4059 0.950 . S
H4034 C4060 0.950 . S
H4035 C4062 0.950 . S
H4036 C4065 0.950 . S
H4037 C4066 0.950 . S
H4038 C4068 0.950 . S
H4039 C4069 0.950 . S
C4040 H4022 0.951 . S
C4040 C4041 1.366 . S
C4040 C4042 1.388 . S
C4041 C4040 1.366 . S
C4041 C4045 1.385 . S
C4042 H4023 0.951 . S
C4042 C4040 1.388 . S
C4042 C4043 1.366 . S
C4043 C4042 1.366 . S
C4043 C4044 1.414 . S
C4043 C4046 1.499 . S
C4044 H4024 0.950 . S
C4044 C4043 1.414 . S
C4044 C4045 1.374 . S
C4045 H4025 0.950 . S
C4045 C4041 1.385 . S
C4045 C4044 1.374 . S
C4046 C4043 1.499 . S
C4046 C4047 1.373 . S
C4046 C4048 1.389 . S
C4047 H4026 0.950 . S
C4047 C4046 1.373 . S
C4047 C4063 1.377 1_556 S
C4048 C4046 1.389 . S
C4048 C4049 1.524 . S
C4048 C4062 1.377 1_556 S
C4049 C4048 1.524 . S
C4049 C4050 1.397 . S
C4049 C4054 1.363 . S
C4050 H4027 0.950 . S
C4050 C4049 1.397 . S
C4050 C4051 1.334 . S
C4051 H4028 0.950 . S
C4051 C4050 1.334 . S
C4051 C4052 1.287 . S
C4052 C4051 1.287 . S
C4052 C4053 1.524 . S
C4052 H4071 0.913 . S
C4053 H4029 0.950 . S
C4053 C4052 1.524 . S
C4053 C4054 1.415 . S
C4054 H4030 0.925 1_556 S
C4054 C4049 1.363 . S
C4054 C4053 1.415 . S
C4055 H4031 0.951 . S
C4055 C4056 1.366 . S
C4055 C4057 1.388 . S
C4056 C4055 1.366 . S
C4056 C4060 1.385 . S
C4057 H4032 0.951 . S
C4057 C4055 1.388 . S
C4057 C4058 1.366 . S
C4058 C4057 1.366 . S
C4058 C4059 1.414 . S
C4058 C4061 1.499 . S
C4059 H4033 0.950 . S
C4059 C4058 1.414 . S
C4059 C4060 1.374 . S
C4060 H4034 0.950 . S
C4060 C4056 1.385 . S
C4060 C4059 1.374 . S
C4061 C4058 1.499 . S
C4061 C4062 1.373 . S
C4061 C4063 1.389 . S
C4062 H4035 0.950 . S
C4062 C4048 1.377 1_554 S
C4062 C4061 1.373 . S
C4063 C4047 1.377 1_554 S
C4063 C4061 1.389 . S
C4063 C4064 1.524 . S
C4064 C4063 1.524 . S
C4064 C4065 1.397 . S
C4064 C4069 1.363 . S
C4065 H4036 0.950 . S
C4065 C4064 1.397 . S
C4065 C4066 1.334 . S
C4066 H4037 0.950 . S
C4066 C4065 1.334 . S
C4066 C4067 1.287 . S
C4067 C4066 1.287 . S
C4067 C4068 1.524 . S
C4067 H4070 0.999 . S
C4068 H4038 0.950 . S
C4068 C4067 1.524 . S
C4068 C4069 1.415 . S
C4069 H4039 0.950 . S
C4069 C4064 1.363 . S
C4069 C4068 1.415 . S
H4070 C4067 0.999 . S
H4071 C4052 0.913 . S
H4072 C4090 0.951 . S
H4073 C4092 0.951 . S
H4074 C4094 0.950 . S
H4075 C4095 0.950 . S
H4076 C4097 0.950 . S
H4077 C4100 0.950 . S
H4078 C4101 0.950 . S
H4079 C4103 0.950 . S
H4080 C4104 0.950 . S
H4081 C4105 0.951 . S
H4082 C4107 0.951 . S
H4083 C4109 0.950 . S
H4084 C4110 0.950 . S
H4085 C4112 0.950 . S
H4086 C4115 0.950 . S
H4087 C4116 0.950 . S
H4088 C4118 0.950 . S
H4089 C4119 0.950 . S
C4090 H4072 0.951 . S
C4090 C4091 1.366 . S
C4090 C4092 1.388 . S
C4091 C4090 1.366 . S
C4091 C4095 1.385 . S
C4092 H4073 0.951 . S
C4092 C4090 1.388 . S
C4092 C4093 1.366 . S
C4093 C4092 1.366 . S
C4093 C4094 1.414 . S
C4093 C4096 1.499 . S
C4094 H4074 0.950 . S
C4094 C4093 1.414 . S
C4094 C4095 1.374 . S
C4095 H4075 0.950 . S
C4095 C4091 1.385 . S
C4095 C4094 1.374 . S
C4096 C4093 1.499 . S
C4096 C4097 1.373 . S
C4096 C4098 1.389 . S
C4097 H4076 0.950 . S
C4097 C4096 1.373 . S
C4097 C4113 1.377 . S
C4098 C4096 1.389 . S
C4098 C4099 1.524 . S
C4098 C4112 1.377 . S
C4099 C4098 1.524 . S
C4099 C4100 1.397 . S
C4099 C4104 1.363 . S
C4100 H4077 0.950 . S
C4100 C4099 1.397 . S
C4100 C4101 1.334 . S
C4101 H4078 0.950 . S
C4101 C4100 1.334 . S
C4101 C4102 1.287 . S
C4102 C4101 1.287 . S
C4102 C4103 1.524 . S
C4102 H4121 0.913 . S
C4103 H4079 0.950 . S
C4103 C4102 1.524 . S
C4103 C4104 1.415 . S
C4104 H4080 0.950 . S
C4104 C4099 1.363 . S
C4104 C4103 1.415 . S
C4105 H4081 0.951 . S
C4105 C4106 1.366 . S
C4105 C4107 1.388 . S
C4106 C4105 1.366 . S
C4106 C4110 1.385 . S
C4107 H4082 0.951 . S
C4107 C4105 1.388 . S
C4107 C4108 1.366 . S
C4108 C4107 1.366 . S
C4108 C4109 1.414 . S
C4108 C4111 1.499 . S
C4109 H4083 0.950 . S
C4109 C4108 1.414 . S
C4109 C4110 1.374 . S
C4110 H4084 0.950 . S
C4110 C4106 1.385 . S
C4110 C4109 1.374 . S
C4111 C4108 1.499 . S
C4111 C4112 1.373 . S
C4111 C4113 1.389 . S
C4112 H4085 0.950 . S
C4112 C4098 1.377 . S
C4112 C4111 1.373 . S
C4113 C4097 1.377 . S
C4113 C4111 1.389 . S
C4113 C4114 1.524 . S
C4114 C4113 1.524 . S
C4114 C4115 1.397 . S
C4114 C4119 1.363 . S
C4115 H4086 0.950 . S
C4115 C4114 1.397 . S
C4115 C4116 1.334 . S
C4116 H4087 0.950 . S
C4116 C4115 1.334 . S
C4116 C4117 1.287 . S
C4117 C4116 1.287 . S
C4117 C4118 1.524 . S
C4117 H4120 0.999 . S
C4118 H4088 0.950 . S
C4118 C4117 1.524 . S
C4118 C4119 1.415 . S
C4119 H4089 0.950 . S
C4119 C4114 1.363 . S
C4119 C4118 1.415 . S
H4120 C4117 0.999 . S
H4121 C4102 0.913 . S
H4122 C4140 0.951 . S
H4123 C4142 0.951 . S
H4124 C4144 0.950 . S
H4125 C4145 0.950 . S
H4126 C4147 0.950 . S
H4127 C4150 0.950 . S
H4128 C4151 0.950 . S
H4129 C4153 0.950 . S
H4130 C4154 0.950 . S
H4131 C4155 0.951 . S
H4132 C4157 0.951 . S
H4133 C4159 0.950 . S
H4134 C4160 0.950 . S
H4135 C4162 0.950 . S
H4136 C4165 0.950 . S
H4137 C4166 0.950 . S
H4138 C4168 0.950 . S
H4139 C4169 0.950 . S
C4140 H4122 0.951 . S
C4140 C4141 1.366 . S
C4140 C4142 1.388 . S
C4141 C4140 1.366 . S
C4141 C4145 1.385 . S
C4142 H4123 0.951 . S
C4142 C4140 1.388 . S
C4142 C4143 1.366 . S
C4143 C4142 1.366 . S
C4143 C4144 1.414 . S
C4143 C4146 1.499 . S
C4144 H4124 0.950 . S
C4144 C4143 1.414 . S
C4144 C4145 1.374 . S
C4145 H4125 0.950 . S
C4145 C4141 1.385 . S
C4145 C4144 1.374 . S
C4146 C4143 1.499 . S
C4146 C4147 1.373 . S
C4146 C4148 1.389 . S
C4147 H4126 0.950 . S
C4147 C4146 1.373 . S
C4147 C4163 1.377 1_556 S
C4148 C4146 1.389 . S
C4148 C4149 1.524 . S
C4148 C4162 1.377 1_556 S
C4149 C4148 1.524 . S
C4149 C4150 1.397 . S
C4149 C4154 1.363 . S
C4150 H4127 0.950 . S
C4150 C4149 1.397 . S
C4150 C4151 1.334 . S
C4151 H4128 0.950 . S
C4151 C4150 1.334 . S
C4151 C4152 1.287 . S
C4152 C4151 1.287 . S
C4152 C4153 1.524 . S
C4152 H4171 0.913 . S
C4153 H4129 0.950 . S
C4153 C4152 1.524 . S
C4153 C4154 1.415 . S
C4154 H4130 0.950 . S
C4154 C4149 1.363 . S
C4154 C4153 1.415 . S
C4155 H4131 0.951 . S
C4155 C4156 1.366 . S
C4155 C4157 1.388 . S
C4156 C4155 1.366 . S
C4156 C4160 1.385 . S
C4157 H4132 0.951 . S
C4157 C4155 1.388 . S
C4157 C4158 1.366 . S
C4158 C4157 1.366 . S
C4158 C4159 1.414 . S
C4158 C4161 1.499 . S
C4159 H4133 0.950 . S
C4159 C4158 1.414 . S
C4159 C4160 1.374 . S
C4160 H4134 0.950 . S
C4160 C4156 1.385 . S
C4160 C4159 1.374 . S
C4161 C4158 1.499 . S
C4161 C4162 1.373 . S
C4161 C4163 1.389 . S
C4162 H4135 0.950 . S
C4162 C4148 1.377 1_554 S
C4162 C4161 1.373 . S
C4163 C4147 1.377 1_554 S
C4163 C4161 1.389 . S
C4163 C4164 1.524 . S
C4164 C4163 1.524 . S
C4164 C4165 1.397 . S
C4164 C4169 1.363 . S
C4165 H4136 0.950 . S
C4165 C4164 1.397 . S
C4165 C4166 1.334 . S
C4166 H4137 0.950 . S
C4166 C4165 1.334 . S
C4166 C4167 1.287 . S
C4167 C4166 1.287 . S
C4167 C4168 1.524 . S
C4167 H4170 0.999 . S
C4168 H4138 0.950 . S
C4168 C4167 1.524 . S
C4168 C4169 1.415 . S
C4169 H4139 0.950 . S
C4169 C4164 1.363 . S
C4169 C4168 1.415 . S
H4170 C4167 0.999 . S
H4171 C4152 0.913 . S
H4172 C4190 0.951 . S
H4173 C4192 0.951 . S
H4174 C4194 0.950 . S
H4175 C4195 0.950 . S
H4176 C4197 0.950 . S
H4177 C4200 0.950 . S
H4178 C4201 0.950 . S
H4179 C4203 0.950 . S
H4180 C4204 0.950 . S
H4181 C4205 0.951 . S
H4182 C4207 0.951 . S
H4183 C4209 0.950 . S
H4184 C4210 0.950 . S
H4185 C4212 0.950 . S
H4186 C4215 0.950 . S
H4187 C4216 0.950 . S
H4188 C4218 0.950 . S
H4189 C4219 0.950 . S
C4190 H4172 0.951 . S
C4190 C4191 1.366 . S
C4190 C4192 1.388 . S
C4191 C4190 1.366 . S
C4191 C4195 1.385 . S
C4192 H4173 0.951 . S
C4192 C4190 1.388 . S
C4192 C4193 1.366 . S
C4193 C4192 1.366 . S
C4193 C4194 1.414 . S
C4193 C4196 1.499 . S
C4194 H4174 0.950 . S
C4194 C4193 1.414 . S
C4194 C4195 1.374 . S
C4195 H4175 0.950 . S
C4195 C4191 1.385 . S
C4195 C4194 1.374 . S
C4196 C4193 1.499 . S
C4196 C4197 1.373 . S
C4196 C4198 1.389 . S
C4197 H4176 0.950 . S
C4197 C4196 1.373 . S
C4197 C4213 1.377 . S
C4198 C4196 1.389 . S
C4198 C4199 1.524 . S
C4198 C4212 1.377 . S
C4199 C4198 1.524 . S
C4199 C4200 1.397 . S
C4199 C4204 1.363 . S
C4200 H4177 0.950 . S
C4200 C4199 1.397 . S
C4200 C4201 1.334 . S
C4201 H4178 0.950 . S
C4201 C4200 1.334 . S
C4201 C4202 1.287 . S
C4202 C4201 1.287 . S
C4202 C4203 1.524 . S
C4202 H4221 0.913 . S
C4203 H4179 0.950 . S
C4203 C4202 1.524 . S
C4203 C4204 1.415 . S
C4204 H4180 0.950 . S
C4204 C4199 1.363 . S
C4204 C4203 1.415 . S
C4205 H4181 0.951 . S
C4205 C4206 1.366 . S
C4205 C4207 1.388 . S
C4206 C4205 1.366 . S
C4206 C4210 1.385 . S
C4207 H4182 0.951 . S
C4207 C4205 1.388 . S
C4207 C4208 1.366 . S
C4208 C4207 1.366 . S
C4208 C4209 1.414 . S
C4208 C4211 1.499 . S
C4209 H4183 0.950 . S
C4209 C4208 1.414 . S
C4209 C4210 1.374 . S
C4210 H4184 0.950 . S
C4210 C4206 1.385 . S
C4210 C4209 1.374 . S
C4211 C4208 1.499 . S
C4211 C4212 1.373 . S
C4211 C4213 1.389 . S
C4212 H4185 0.950 . S
C4212 C4198 1.377 . S
C4212 C4211 1.373 . S
C4213 C4197 1.377 . S
C4213 C4211 1.389 . S
C4213 C4214 1.524 . S
C4214 C4213 1.524 . S
C4214 C4215 1.397 . S
C4214 C4219 1.363 . S
C4215 H4186 0.950 . S
C4215 C4214 1.397 . S
C4215 C4216 1.334 . S
C4216 H4187 0.950 . S
C4216 C4215 1.334 . S
C4216 C4217 1.287 . S
C4217 C4216 1.287 . S
C4217 C4218 1.524 . S
C4217 H4220 0.999 . S
C4218 H4188 0.950 . S
C4218 C4217 1.524 . S
C4218 C4219 1.415 . S
C4219 H4189 0.950 . S
C4219 C4214 1.363 . S
C4219 C4218 1.415 . S
H4220 C4217 0.999 . S
H4221 C4202 0.913 . S
H4222 C4240 0.951 . S
H4223 C4242 0.951 . S
H4224 C4244 0.950 . S
H4225 C4245 0.950 . S
H4226 C4247 0.950 . S
H4227 C4250 0.950 . S
H4228 C4251 0.950 . S
H4229 C4253 0.950 . S
H4230 C4254 0.950 . S
H4231 C4255 0.951 . S
H4232 C4257 0.951 . S
H4233 C4259 0.950 . S
H4234 C4260 0.950 . S
H4235 C4262 0.950 . S
H4236 C4265 0.950 . S
H4237 C4266 0.950 . S
H4238 C4268 0.950 . S
H4239 C4269 0.950 . S
C4240 H4222 0.951 . S
C4240 C4241 1.366 . S
C4240 C4242 1.388 . S
C4241 C4240 1.366 . S
C4241 C4245 1.385 . S
C4242 H4223 0.951 . S
C4242 C4240 1.388 . S
C4242 C4243 1.366 . S
C4243 C4242 1.366 . S
C4243 C4244 1.414 . S
C4243 C4246 1.499 . S
C4244 H4224 0.950 . S
C4244 C4243 1.414 . S
C4244 C4245 1.374 . S
C4245 H4225 0.950 . S
C4245 C4241 1.385 . S
C4245 C4244 1.374 . S
C4246 C4243 1.499 . S
C4246 C4247 1.373 . S
C4246 C4248 1.389 . S
C4247 H4226 0.950 . S
C4247 C4246 1.373 . S
C4247 C4263 1.377 . S
C4248 C4246 1.389 . S
C4248 C4249 1.524 . S
C4248 C4262 1.377 . S
C4249 C4248 1.524 . S
C4249 C4250 1.397 . S
C4249 C4254 1.363 . S
C4250 H4227 0.950 . S
C4250 C4249 1.397 . S
C4250 C4251 1.334 . S
C4251 H4228 0.950 . S
C4251 C4250 1.334 . S
C4251 C4252 1.287 . S
C4252 C4251 1.287 . S
C4252 C4253 1.524 . S
C4252 H4271 0.913 . S
C4253 H4229 0.950 . S
C4253 C4252 1.524 . S
C4253 C4254 1.415 . S
C4254 H4230 0.950 . S
C4254 C4249 1.363 . S
C4254 C4253 1.415 . S
C4255 H4231 0.951 . S
C4255 C4256 1.366 . S
C4255 C4257 1.388 . S
C4256 C4255 1.366 . S
C4256 C4260 1.385 . S
C4257 H4232 0.951 . S
C4257 C4255 1.388 . S
C4257 C4258 1.366 . S
C4258 C4257 1.366 . S
C4258 C4259 1.414 . S
C4258 C4261 1.499 . S
C4259 H4233 0.950 . S
C4259 C4258 1.414 . S
C4259 C4260 1.374 . S
C4260 H4234 0.950 . S
C4260 C4256 1.385 . S
C4260 C4259 1.374 . S
C4261 C4258 1.499 . S
C4261 C4262 1.373 . S
C4261 C4263 1.389 . S
C4262 H4235 0.950 . S
C4262 C4248 1.377 . S
C4262 C4261 1.373 . S
C4263 C4247 1.377 . S
C4263 C4261 1.389 . S
C4263 C4264 1.524 . S
C4264 C4263 1.524 . S
C4264 C4265 1.397 . S
C4264 C4269 1.363 . S
C4265 H4236 0.950 . S
C4265 C4264 1.397 . S
C4265 C4266 1.334 . S
C4266 H4237 0.950 . S
C4266 C4265 1.334 . S
C4266 C4267 1.287 . S
C4267 C4266 1.287 . S
C4267 C4268 1.524 . S
C4267 H4270 0.999 . S
C4268 H4238 0.950 . S
C4268 C4267 1.524 . S
C4268 C4269 1.415 . S
C4269 H4239 0.950 . S
C4269 C4264 1.363 . S
C4269 C4268 1.415 . S
H4270 C4267 0.999 . S
H4271 C4252 0.913 . S
H4272 C4290 0.951 . S
H4273 C4292 0.951 . S
H4274 C4294 0.950 . S
H4275 C4295 0.950 . S
H4276 C4297 0.950 . S
H4277 C4300 0.950 . S
H4278 C4301 0.950 . S
H4279 C4303 0.950 . S
H4280 C4304 0.950 . S
H4281 C4305 0.951 . S
H4282 C4307 0.951 . S
H4283 C4309 0.950 . S
H4284 C4310 0.950 . S
H4285 C4312 0.950 . S
H4286 C4315 0.950 . S
H4287 C4316 0.950 . S
H4288 C4318 0.950 . S
H4289 C4319 0.950 . S
C4290 H4272 0.951 . S
C4290 C4291 1.366 . S
C4290 C4292 1.388 . S
C4291 C4290 1.366 . S
C4291 C4295 1.385 . S
C4292 H4273 0.951 . S
C4292 C4290 1.388 . S
C4292 C4293 1.366 . S
C4293 C4292 1.366 . S
C4293 C4294 1.414 . S
C4293 C4296 1.499 . S
C4294 H4274 0.950 . S
C4294 C4293 1.414 . S
C4294 C4295 1.374 . S
C4295 H4275 0.950 . S
C4295 C4291 1.385 . S
C4295 C4294 1.374 . S
C4296 C4293 1.499 . S
C4296 C4297 1.373 . S
C4296 C4298 1.389 . S
C4297 H4276 0.950 . S
C4297 C4296 1.373 . S
C4297 C4313 1.377 . S
C4298 C4296 1.389 . S
C4298 C4299 1.524 . S
C4298 C4312 1.377 . S
C4299 C4298 1.524 . S
C4299 C4300 1.397 . S
C4299 C4304 1.363 . S
C4300 H4277 0.950 . S
C4300 C4299 1.397 . S
C4300 C4301 1.334 . S
C4301 H4278 0.950 . S
C4301 C4300 1.334 . S
C4301 C4302 1.287 . S
C4302 C4301 1.287 . S
C4302 C4303 1.524 . S
C4302 H4321 0.913 . S
C4303 H4279 0.950 . S
C4303 C4302 1.524 . S
C4303 C4304 1.415 . S
C4304 H4280 0.950 . S
C4304 C4299 1.363 . S
C4304 C4303 1.415 . S
C4305 H4281 0.951 . S
C4305 C4306 1.366 . S
C4305 C4307 1.388 . S
C4306 C4305 1.366 . S
C4306 C4310 1.385 . S
C4307 H4282 0.951 . S
C4307 C4305 1.388 . S
C4307 C4308 1.366 . S
C4308 C4307 1.366 . S
C4308 C4309 1.414 . S
C4308 C4311 1.499 . S
C4309 H4283 0.950 . S
C4309 C4308 1.414 . S
C4309 C4310 1.374 . S
C4310 H4284 0.950 . S
C4310 C4306 1.385 . S
C4310 C4309 1.374 . S
C4311 C4308 1.499 . S
C4311 C4312 1.373 . S
C4311 C4313 1.389 . S
C4312 H4285 0.950 . S
C4312 C4298 1.377 . S
C4312 C4311 1.373 . S
C4313 C4297 1.377 . S
C4313 C4311 1.389 . S
C4313 C4314 1.524 . S
C4314 C4313 1.524 . S
C4314 C4315 1.397 . S
C4314 C4319 1.363 . S
C4315 H4286 0.950 . S
C4315 C4314 1.397 . S
C4315 C4316 1.334 . S
C4316 H4287 0.950 . S
C4316 C4315 1.334 . S
C4316 C4317 1.287 . S
C4317 C4316 1.287 . S
C4317 C4318 1.524 . S
C4317 H4320 0.999 . S
C4318 H4288 0.950 . S
C4318 C4317 1.524 . S
C4318 C4319 1.415 . S
C4319 H4289 0.950 . S
C4319 C4314 1.363 . S
C4319 C4318 1.415 . S
H4320 C4317 0.999 . S
H4321 C4302 0.913 . S
H4322 C4340 0.951 . S
H4323 C4342 0.951 . S
H4324 C4344 0.950 . S
H4325 C4345 0.950 . S
H4326 C4347 0.950 . S
H4327 C4350 0.950 . S
H4328 C4351 0.950 . S
H4329 C4353 0.950 . S
H4330 C4354 0.950 . S
H4331 C4355 0.951 . S
H4332 C4357 0.951 . S
H4333 C4359 0.950 . S
H4334 C4360 0.950 . S
H4335 C4362 0.950 . S
H4336 C4365 0.950 . S
H4337 C4366 0.950 . S
H4338 C4368 0.950 . S
H4339 C4369 0.950 . S
C4340 H4322 0.951 . S
C4340 C4341 1.366 . S
C4340 C4342 1.388 . S
C4341 C4340 1.366 . S
C4341 C4345 1.385 . S
C4342 H4323 0.951 . S
C4342 C4340 1.388 . S
C4342 C4343 1.366 . S
C4343 C4342 1.366 . S
C4343 C4344 1.414 . S
C4343 C4346 1.499 . S
C4344 H4324 0.950 . S
C4344 C4343 1.414 . S
C4344 C4345 1.374 . S
C4345 H4325 0.950 . S
C4345 C4341 1.385 . S
C4345 C4344 1.374 . S
C4346 C4343 1.499 . S
C4346 C4347 1.373 . S
C4346 C4348 1.389 . S
C4347 H4326 0.950 . S
C4347 C4346 1.373 . S
C4347 C4363 1.377 . S
C4348 C4346 1.389 . S
C4348 C4349 1.524 . S
C4348 C4362 1.377 . S
C4349 C4348 1.524 . S
C4349 C4350 1.397 . S
C4349 C4354 1.363 . S
C4350 H4327 0.950 . S
C4350 C4349 1.397 . S
C4350 C4351 1.334 . S
C4351 H4328 0.950 . S
C4351 C4350 1.334 . S
C4351 C4352 1.287 . S
C4352 C4351 1.287 . S
C4352 C4353 1.524 . S
C4352 H4371 0.913 . S
C4353 H4329 0.950 . S
C4353 C4352 1.524 . S
C4353 C4354 1.415 . S
C4354 H4330 0.950 . S
C4354 C4349 1.363 . S
C4354 C4353 1.415 . S
C4355 H4331 0.951 . S
C4355 C4356 1.366 . S
C4355 C4357 1.388 . S
C4356 C4355 1.366 . S
C4356 C4360 1.385 . S
C4357 H4332 0.951 . S
C4357 C4355 1.388 . S
C4357 C4358 1.366 . S
C4358 C4357 1.366 . S
C4358 C4359 1.414 . S
C4358 C4361 1.499 . S
C4359 H4333 0.950 . S
C4359 C4358 1.414 . S
C4359 C4360 1.374 . S
C4360 H4334 0.950 . S
C4360 C4356 1.385 . S
C4360 C4359 1.374 . S
C4361 C4358 1.499 . S
C4361 C4362 1.373 . S
C4361 C4363 1.389 . S
C4362 H4335 0.950 . S
C4362 C4348 1.377 . S
C4362 C4361 1.373 . S
C4363 C4347 1.377 . S
C4363 C4361 1.389 . S
C4363 C4364 1.524 . S
C4364 C4363 1.524 . S
C4364 C4365 1.397 . S
C4364 C4369 1.363 . S
C4365 H4336 0.950 . S
C4365 C4364 1.397 . S
C4365 C4366 1.334 . S
C4366 H4337 0.950 . S
C4366 C4365 1.334 . S
C4366 C4367 1.287 . S
C4367 C4366 1.287 . S
C4367 C4368 1.524 . S
C4367 H4370 0.999 . S
C4368 H4338 0.950 . S
C4368 C4367 1.524 . S
C4368 C4369 1.415 . S
C4369 H4339 0.950 . S
C4369 C4364 1.363 . S
C4369 C4368 1.415 . S
H4370 C4367 0.999 . S
H4371 C4352 0.913 . S
H4372 C4390 0.951 . S
H4373 C4392 0.951 . S
H4374 C4394 0.950 . S
H4375 C4395 0.950 . S
H4376 C4397 0.950 . S
H4377 C4400 0.950 . S
H4378 C4401 0.950 . S
H4379 C4403 0.950 . S
H4380 C4404 0.950 . S
H4381 C4405 0.951 . S
H4382 C4407 0.951 . S
H4383 C4409 0.950 . S
H4384 C4410 0.950 . S
H4385 C4412 0.950 . S
H4386 C4415 0.950 . S
H4387 C4416 0.950 . S
H4388 C4418 0.950 . S
H4389 C4419 0.950 . S
C4390 H4372 0.951 . S
C4390 C4391 1.366 . S
C4390 C4392 1.388 . S
C4391 C4390 1.366 . S
C4391 C4395 1.385 . S
C4392 H4373 0.951 . S
C4392 C4390 1.388 . S
C4392 C4393 1.366 . S
C4393 C4392 1.366 . S
C4393 C4394 1.414 . S
C4393 C4396 1.499 . S
C4394 H4374 0.950 . S
C4394 C4393 1.414 . S
C4394 C4395 1.374 . S
C4395 H4375 0.950 . S
C4395 C4391 1.385 . S
C4395 C4394 1.374 . S
C4396 C4393 1.499 . S
C4396 C4397 1.373 . S
C4396 C4398 1.389 . S
C4397 H4376 0.950 . S
C4397 C4396 1.373 . S
C4397 C4413 1.377 . S
C4398 C4396 1.389 . S
C4398 C4399 1.524 . S
C4398 C4412 1.377 . S
C4399 C4398 1.524 . S
C4399 C4400 1.397 . S
C4399 C4404 1.363 . S
C4400 H4377 0.950 . S
C4400 C4399 1.397 . S
C4400 C4401 1.334 . S
C4401 H4378 0.950 . S
C4401 C4400 1.334 . S
C4401 C4402 1.287 . S
C4402 C4401 1.287 . S
C4402 C4403 1.524 . S
C4402 H4421 0.913 . S
C4403 H4379 0.950 . S
C4403 C4402 1.524 . S
C4403 C4404 1.415 . S
C4404 H4380 0.950 . S
C4404 C4399 1.363 . S
C4404 C4403 1.415 . S
C4405 H4381 0.951 . S
C4405 C4406 1.366 . S
C4405 C4407 1.388 . S
C4406 C4405 1.366 . S
C4406 C4410 1.385 . S
C4407 H4382 0.951 . S
C4407 C4405 1.388 . S
C4407 C4408 1.366 . S
C4408 C4407 1.366 . S
C4408 C4409 1.414 . S
C4408 C4411 1.499 . S
C4409 H4383 0.950 . S
C4409 C4408 1.414 . S
C4409 C4410 1.374 . S
C4410 H4384 0.950 . S
C4410 C4406 1.385 . S
C4410 C4409 1.374 . S
C4411 C4408 1.499 . S
C4411 C4412 1.373 . S
C4411 C4413 1.389 . S
C4412 H4385 0.950 . S
C4412 C4398 1.377 . S
C4412 C4411 1.373 . S
C4413 C4397 1.377 . S
C4413 C4411 1.389 . S
C4413 C4414 1.524 . S
C4414 C4413 1.524 . S
C4414 C4415 1.397 . S
C4414 C4419 1.363 . S
C4415 H4386 0.950 . S
C4415 C4414 1.397 . S
C4415 C4416 1.334 . S
C4416 H4387 0.950 . S
C4416 C4415 1.334 . S
C4416 C4417 1.287 . S
C4417 C4416 1.287 . S
C4417 C4418 1.524 . S
C4417 H4420 0.999 . S
C4418 H4388 0.950 . S
C4418 C4417 1.524 . S
C4418 C4419 1.415 . S
C4419 H4389 0.950 . S
C4419 C4414 1.363 . S
C4419 C4418 1.415 . S
H4420 C4417 0.999 . S
H4421 C4402 0.913 . S
H4422 C4440 0.951 . S
H4423 C4442 0.951 . S
H4424 C4444 0.950 . S
H4425 C4445 0.950 . S
H4426 C4447 0.950 . S
H4427 C4450 0.950 . S
H4428 C4451 0.950 . S
H4429 C4453 0.950 . S
H4430 C4454 0.950 . S
H4431 C4455 0.951 . S
H4432 C4457 0.951 . S
H4433 C4459 0.950 . S
H4434 C4460 0.950 . S
H4435 C4462 0.950 . S
H4436 C4465 0.950 . S
H4437 C4466 0.950 . S
H4438 C4468 0.950 . S
H4439 C4469 0.950 . S
C4440 H4422 0.951 . S
C4440 C4441 1.366 . S
C4440 C4442 1.388 . S
C4441 C4440 1.366 . S
C4441 C4445 1.385 . S
C4442 H4423 0.951 . S
C4442 C4440 1.388 . S
C4442 C4443 1.366 . S
C4443 C4442 1.366 . S
C4443 C4444 1.414 . S
C4443 C4446 1.499 . S
C4444 H4424 0.950 . S
C4444 C4443 1.414 . S
C4444 C4445 1.374 . S
C4445 H4425 0.950 . S
C4445 C4441 1.385 . S
C4445 C4444 1.374 . S
C4446 C4443 1.499 . S
C4446 C4447 1.373 . S
C4446 C4448 1.389 . S
C4447 H4426 0.950 . S
C4447 C4446 1.373 . S
C4447 C4463 1.377 . S
C4448 C4446 1.389 . S
C4448 C4449 1.524 . S
C4448 C4462 1.377 . S
C4449 C4448 1.524 . S
C4449 C4450 1.397 . S
C4449 C4454 1.363 . S
C4450 H4427 0.950 . S
C4450 C4449 1.397 . S
C4450 C4451 1.334 . S
C4451 H4428 0.950 . S
C4451 C4450 1.334 . S
C4451 C4452 1.287 . S
C4452 C4451 1.287 . S
C4452 C4453 1.524 . S
C4452 H4471 0.913 . S
C4453 H4429 0.950 . S
C4453 C4452 1.524 . S
C4453 C4454 1.415 . S
C4454 H4430 0.950 . S
C4454 C4449 1.363 . S
C4454 C4453 1.415 . S
C4455 H4431 0.951 . S
C4455 C4456 1.366 . S
C4455 C4457 1.388 . S
C4456 C4455 1.366 . S
C4456 C4460 1.385 . S
C4457 H4432 0.951 . S
C4457 C4455 1.388 . S
C4457 C4458 1.366 . S
C4458 C4457 1.366 . S
C4458 C4459 1.414 . S
C4458 C4461 1.499 . S
C4459 H4433 0.950 . S
C4459 C4458 1.414 . S
C4459 C4460 1.374 . S
C4460 H4434 0.950 . S
C4460 C4456 1.385 . S
C4460 C4459 1.374 . S
C4461 C4458 1.499 . S
C4461 C4462 1.373 . S
C4461 C4463 1.389 . S
C4462 H4435 0.950 . S
C4462 C4448 1.377 . S
C4462 C4461 1.373 . S
C4463 C4447 1.377 . S
C4463 C4461 1.389 . S
C4463 C4464 1.524 . S
C4464 C4463 1.524 . S
C4464 C4465 1.397 . S
C4464 C4469 1.363 . S
C4465 H4436 0.950 . S
C4465 C4464 1.397 . S
C4465 C4466 1.334 . S
C4466 H4437 0.950 . S
C4466 C4465 1.334 . S
C4466 C4467 1.287 . S
C4467 C4466 1.287 . S
C4467 C4468 1.524 . S
C4467 H4470 0.999 . S
C4468 H4438 0.950 . S
C4468 C4467 1.524 . S
C4468 C4469 1.415 . S
C4469 H4439 0.950 . S
C4469 C4464 1.363 . S
C4469 C4468 1.415 . S
H4470 C4467 0.999 . S
H4471 C4452 0.913 . S
H4472 C4490 0.951 . S
H4473 C4492 0.951 . S
H4474 C4494 0.950 . S
H4475 C4495 0.950 . S
H4476 C4497 0.950 . S
H4477 C4500 0.950 . S
H4478 C4501 0.950 . S
H4479 C4503 0.950 . S
H4480 C4504 0.950 . S
H4481 C4505 0.951 . S
H4482 C4507 0.951 . S
H4483 C4509 0.950 . S
H4484 C4510 0.950 . S
H4485 C4512 0.950 . S
H4486 C4515 0.950 . S
H4487 C4516 0.950 . S
H4488 C4518 0.950 . S
H4489 C4519 0.950 . S
C4490 H4472 0.951 . S
C4490 C4491 1.366 . S
C4490 C4492 1.388 . S
C4491 C4490 1.366 . S
C4491 C4495 1.385 . S
C4492 H4473 0.951 . S
C4492 C4490 1.388 . S
C4492 C4493 1.366 . S
C4493 C4492 1.366 . S
C4493 C4494 1.414 . S
C4493 C4496 1.499 . S
C4494 H4474 0.950 . S
C4494 C4493 1.414 . S
C4494 C4495 1.374 . S
C4495 H4475 0.950 . S
C4495 C4491 1.385 . S
C4495 C4494 1.374 . S
C4496 C4493 1.499 . S
C4496 C4497 1.373 . S
C4496 C4498 1.389 . S
C4497 H4476 0.950 . S
C4497 C4496 1.373 . S
C4497 C4513 1.377 . S
C4498 C4496 1.389 . S
C4498 C4499 1.524 . S
C4498 C4512 1.377 . S
C4499 C4498 1.524 . S
C4499 C4500 1.397 . S
C4499 C4504 1.363 . S
C4500 H4477 0.950 . S
C4500 C4499 1.397 . S
C4500 C4501 1.334 . S
C4501 H4478 0.950 . S
C4501 C4500 1.334 . S
C4501 C4502 1.287 . S
C4502 C4501 1.287 . S
C4502 C4503 1.524 . S
C4502 H4521 0.913 . S
C4503 H4479 0.950 . S
C4503 C4502 1.524 . S
C4503 C4504 1.415 . S
C4504 H4480 0.950 . S
C4504 C4499 1.363 . S
C4504 C4503 1.415 . S
C4505 H4481 0.951 . S
C4505 C4506 1.366 . S
C4505 C4507 1.388 . S
C4506 C4505 1.366 . S
C4506 C4510 1.385 . S
C4507 H4482 0.951 . S
C4507 C4505 1.388 . S
C4507 C4508 1.366 . S
C4508 C4507 1.366 . S
C4508 C4509 1.414 . S
C4508 C4511 1.499 . S
C4509 H4483 0.950 . S
C4509 C4508 1.414 . S
C4509 C4510 1.374 . S
C4510 H4484 0.950 . S
C4510 C4506 1.385 . S
C4510 C4509 1.374 . S
C4511 C4508 1.499 . S
C4511 C4512 1.373 . S
C4511 C4513 1.389 . S
C4512 H4485 0.950 . S
C4512 C4498 1.377 . S
C4512 C4511 1.373 . S
C4513 C4497 1.377 . S
C4513 C4511 1.389 . S
C4513 C4514 1.524 . S
C4514 C4513 1.524 . S
C4514 C4515 1.397 . S
C4514 C4519 1.363 . S
C4515 H4486 0.950 . S
C4515 C4514 1.397 . S
C4515 C4516 1.334 . S
C4516 H4487 0.950 . S
C4516 C4515 1.334 . S
C4516 C4517 1.287 . S
C4517 C4516 1.287 . S
C4517 C4518 1.524 . S
C4517 H4520 0.999 . S
C4518 H4488 0.950 . S
C4518 C4517 1.524 . S
C4518 C4519 1.415 . S
C4519 H4489 0.950 . S
C4519 C4514 1.363 . S
C4519 C4518 1.415 . S
H4520 C4517 0.999 . S
H4521 C4502 0.913 . S
H4522 C4540 0.951 . S
H4523 C4542 0.951 . S
H4524 C4544 0.950 . S
H4525 C4545 0.950 . S
H4526 C4547 0.950 . S
H4527 C4550 0.950 . S
H4528 C4551 0.950 . S
H4529 C4553 0.950 . S
H4530 C4554 0.950 . S
H4531 C4555 0.951 . S
H4532 C4557 0.951 . S
H4533 C4559 0.950 . S
H4534 C4560 0.950 . S
H4535 C4562 0.950 . S
H4536 C4565 0.950 . S
H4537 C4566 0.950 . S
H4538 C4568 0.950 . S
H4539 C4569 0.950 . S
C4540 H4522 0.951 . S
C4540 C4541 1.366 . S
C4540 C4542 1.388 . S
C4541 C4540 1.366 . S
C4541 C4545 1.385 . S
C4542 H4523 0.951 . S
C4542 C4540 1.388 . S
C4542 C4543 1.366 . S
C4543 C4542 1.366 . S
C4543 C4544 1.414 . S
C4543 C4546 1.499 . S
C4544 H4524 0.950 . S
C4544 C4543 1.414 . S
C4544 C4545 1.374 . S
C4545 H4525 0.950 . S
C4545 C4541 1.385 . S
C4545 C4544 1.374 . S
C4546 C4543 1.499 . S
C4546 C4547 1.373 . S
C4546 C4548 1.389 . S
C4547 H4526 0.950 . S
C4547 C4546 1.373 . S
C4547 C4563 1.377 . S
C4548 C4546 1.389 . S
C4548 C4549 1.524 . S
C4548 C4562 1.377 . S
C4549 C4548 1.524 . S
C4549 C4550 1.397 . S
C4549 C4554 1.363 . S
C4550 H4527 0.950 . S
C4550 C4549 1.397 . S
C4550 C4551 1.334 . S
C4551 H4528 0.950 . S
C4551 C4550 1.334 . S
C4551 C4552 1.287 . S
C4552 C4551 1.287 . S
C4552 C4553 1.524 . S
C4552 H4571 0.913 . S
C4553 H4529 0.950 . S
C4553 C4552 1.524 . S
C4553 C4554 1.415 . S
C4554 H4530 0.950 . S
C4554 C4549 1.363 . S
C4554 C4553 1.415 . S
C4555 H4531 0.951 . S
C4555 C4556 1.366 . S
C4555 C4557 1.388 . S
C4556 C4555 1.366 . S
C4556 C4560 1.385 . S
C4557 H4532 0.951 . S
C4557 C4555 1.388 . S
C4557 C4558 1.366 . S
C4558 C4557 1.366 . S
C4558 C4559 1.414 . S
C4558 C4561 1.499 . S
C4559 H4533 0.950 . S
C4559 C4558 1.414 . S
C4559 C4560 1.374 . S
C4560 H4534 0.950 . S
C4560 C4556 1.385 . S
C4560 C4559 1.374 . S
C4561 C4558 1.499 . S
C4561 C4562 1.373 . S
C4561 C4563 1.389 . S
C4562 H4535 0.950 . S
C4562 C4548 1.377 . S
C4562 C4561 1.373 . S
C4563 C4547 1.377 . S
C4563 C4561 1.389 . S
C4563 C4564 1.524 . S
C4564 C4563 1.524 . S
C4564 C4565 1.397 . S
C4564 C4569 1.363 . S
C4565 H4536 0.950 . S
C4565 C4564 1.397 . S
C4565 C4566 1.334 . S
C4566 H4537 0.950 . S
C4566 C4565 1.334 . S
C4566 C4567 1.287 . S
C4567 C4566 1.287 . S
C4567 C4568 1.524 . S
C4567 H4570 0.999 . S
C4568 H4538 0.950 . S
C4568 C4567 1.524 . S
C4568 C4569 1.415 . S
C4569 H4539 0.950 . S
C4569 C4564 1.363 . S
C4569 C4568 1.415 . S
H4570 C4567 0.999 . S
H4571 C4552 0.913 . S
H4572 C4590 0.951 . S
H4573 C4592 0.951 . S
H4574 C4594 0.950 . S
H4575 C4595 0.950 . S
H4576 C4597 0.950 . S
H4577 C4600 0.950 . S
H4578 C4601 0.950 . S
H4579 C4603 0.950 . S
H4580 C4604 0.950 . S
H4581 C4605 0.951 . S
H4582 C4607 0.951 . S
H4583 C4609 0.950 . S
H4584 C4610 0.950 . S
H4585 C4612 0.950 . S
H4586 C4615 0.950 . S
H4587 C4616 0.950 . S
H4588 C4618 0.950 . S
H4589 C4619 0.950 . S
C4590 H4572 0.951 . S
C4590 C4591 1.366 . S
C4590 C4592 1.388 . S
C4591 C4590 1.366 . S
C4591 C4595 1.385 . S
C4592 H4573 0.951 . S
C4592 C4590 1.388 . S
C4592 C4593 1.366 . S
C4593 C4592 1.366 . S
C4593 C4594 1.414 . S
C4593 C4596 1.499 . S
C4594 H4574 0.950 . S
C4594 C4593 1.414 . S
C4594 C4595 1.374 . S
C4595 H4575 0.950 . S
C4595 C4591 1.385 . S
C4595 C4594 1.374 . S
C4596 C4593 1.499 . S
C4596 C4597 1.373 . S
C4596 C4598 1.389 . S
C4597 H4576 0.950 . S
C4597 C4596 1.373 . S
C4597 C4613 1.377 . S
C4598 C4596 1.389 . S
C4598 C4599 1.524 . S
C4598 C4612 1.377 . S
C4599 C4598 1.524 . S
C4599 C4600 1.397 . S
C4599 C4604 1.363 . S
C4600 H4577 0.950 . S
C4600 C4599 1.397 . S
C4600 C4601 1.334 . S
C4601 H4578 0.950 . S
C4601 C4600 1.334 . S
C4601 C4602 1.287 . S
C4602 C4601 1.287 . S
C4602 C4603 1.524 . S
C4602 H4621 0.913 . S
C4603 H4579 0.950 . S
C4603 C4602 1.524 . S
C4603 C4604 1.415 . S
C4604 H4580 0.950 . S
C4604 C4599 1.363 . S
C4604 C4603 1.415 . S
C4605 H4581 0.951 . S
C4605 C4606 1.366 . S
C4605 C4607 1.388 . S
C4606 C4605 1.366 . S
C4606 C4610 1.385 . S
C4607 H4582 0.951 . S
C4607 C4605 1.388 . S
C4607 C4608 1.366 . S
C4608 C4607 1.366 . S
C4608 C4609 1.414 . S
C4608 C4611 1.499 . S
C4609 H4583 0.950 . S
C4609 C4608 1.414 . S
C4609 C4610 1.374 . S
C4610 H4584 0.950 . S
C4610 C4606 1.385 . S
C4610 C4609 1.374 . S
C4611 C4608 1.499 . S
C4611 C4612 1.373 . S
C4611 C4613 1.389 . S
C4612 H4585 0.950 . S
C4612 C4598 1.377 . S
C4612 C4611 1.373 . S
C4613 C4597 1.377 . S
C4613 C4611 1.389 . S
C4613 C4614 1.524 . S
C4614 C4613 1.524 . S
C4614 C4615 1.397 . S
C4614 C4619 1.363 . S
C4615 H4586 0.950 . S
C4615 C4614 1.397 . S
C4615 C4616 1.334 . S
C4616 H4587 0.950 . S
C4616 C4615 1.334 . S
C4616 C4617 1.287 . S
C4617 C4616 1.287 . S
C4617 C4618 1.524 . S
C4617 H4620 0.999 . S
C4618 H4588 0.950 . S
C4618 C4617 1.524 . S
C4618 C4619 1.415 . S
C4619 H4589 0.950 . S
C4619 C4614 1.363 . S
C4619 C4618 1.415 . S
H4620 C4617 0.999 . S
H4621 C4602 0.913 . S
H4622 C4640 0.951 . S
H4623 C4642 0.951 . S
H4624 C4644 0.950 . S
H4625 C4645 0.950 . S
H4626 C4647 0.950 . S
H4627 C4650 0.950 . S
H4628 C4651 0.950 . S
H4629 C4653 0.950 . S
H4630 C4654 0.950 . S
H4631 C4655 0.951 . S
H4632 C4657 0.951 . S
H4633 C4659 0.950 . S
H4634 C4660 0.950 . S
H4635 C4662 0.950 . S
H4636 C4665 0.950 . S
H4637 C4666 0.950 . S
H4638 C4668 0.950 . S
H4639 C4669 0.950 . S
C4640 H4622 0.951 . S
C4640 C4641 1.366 . S
C4640 C4642 1.388 . S
C4641 C4640 1.366 . S
C4641 C4645 1.385 . S
C4642 H4623 0.951 . S
C4642 C4640 1.388 . S
C4642 C4643 1.366 . S
C4643 C4642 1.366 . S
C4643 C4644 1.414 . S
C4643 C4646 1.499 . S
C4644 H4624 0.950 . S
C4644 C4643 1.414 . S
C4644 C4645 1.374 . S
C4645 H4625 0.950 . S
C4645 C4641 1.385 . S
C4645 C4644 1.374 . S
C4646 C4643 1.499 . S
C4646 C4647 1.373 . S
C4646 C4648 1.389 . S
C4647 H4626 0.950 . S
C4647 C4646 1.373 . S
C4647 C4663 1.377 . S
C4648 C4646 1.389 . S
C4648 C4649 1.524 . S
C4648 C4662 1.377 . S
C4649 C4648 1.524 . S
C4649 C4650 1.397 . S
C4649 C4654 1.363 . S
C4650 H4627 0.950 . S
C4650 C4649 1.397 . S
C4650 C4651 1.334 . S
C4651 H4628 0.950 . S
C4651 C4650 1.334 . S
C4651 C4652 1.287 . S
C4652 C4651 1.287 . S
C4652 C4653 1.524 . S
C4652 H4671 0.913 . S
C4653 H4629 0.950 . S
C4653 C4652 1.524 . S
C4653 C4654 1.415 . S
C4654 H4630 0.950 . S
C4654 C4649 1.363 . S
C4654 C4653 1.415 . S
C4655 H4631 0.951 . S
C4655 C4656 1.366 . S
C4655 C4657 1.388 . S
C4656 C4655 1.366 . S
C4656 C4660 1.385 . S
C4657 H4632 0.951 . S
C4657 C4655 1.388 . S
C4657 C4658 1.366 . S
C4658 C4657 1.366 . S
C4658 C4659 1.414 . S
C4658 C4661 1.499 . S
C4659 H4633 0.950 . S
C4659 C4658 1.414 . S
C4659 C4660 1.374 . S
C4660 H4634 0.950 . S
C4660 C4656 1.385 . S
C4660 C4659 1.374 . S
C4661 C4658 1.499 . S
C4661 C4662 1.373 . S
C4661 C4663 1.389 . S
C4662 H4635 0.950 . S
C4662 C4648 1.377 . S
C4662 C4661 1.373 . S
C4663 C4647 1.377 . S
C4663 C4661 1.389 . S
C4663 C4664 1.524 . S
C4664 C4663 1.524 . S
C4664 C4665 1.397 . S
C4664 C4669 1.363 . S
C4665 H4636 0.950 . S
C4665 C4664 1.397 . S
C4665 C4666 1.334 . S
C4666 H4637 0.950 . S
C4666 C4665 1.334 . S
C4666 C4667 1.287 . S
C4667 C4666 1.287 . S
C4667 C4668 1.524 . S
C4667 H4670 0.999 . S
C4668 H4638 0.950 . S
C4668 C4667 1.524 . S
C4668 C4669 1.415 . S
C4669 H4639 0.950 . S
C4669 C4664 1.363 . S
C4669 C4668 1.415 . S
H4670 C4667 0.999 . S
H4671 C4652 0.913 . S
H4672 C4690 0.951 . S
H4673 C4692 0.951 . S
H4674 C4694 0.950 . S
H4675 C4695 0.950 . S
H4676 C4697 0.950 . S
H4677 C4700 0.950 . S
H4678 C4701 0.950 . S
H4679 C4703 0.950 . S
H4680 C4704 0.950 . S
H4681 C4705 0.951 . S
H4682 C4707 0.951 . S
H4683 C4709 0.950 . S
H4684 C4710 0.950 . S
H4685 C4712 0.950 . S
H4686 C4715 0.950 . S
H4687 C4716 0.950 . S
H4688 C4718 0.950 . S
H4689 C4719 0.950 . S
C4690 H4672 0.951 . S
C4690 C4691 1.366 . S
C4690 C4692 1.388 . S
C4691 C4690 1.366 . S
C4691 C4695 1.385 . S
C4692 H4673 0.951 . S
C4692 C4690 1.388 . S
C4692 C4693 1.366 . S
C4693 C4692 1.366 . S
C4693 C4694 1.414 . S
C4693 C4696 1.499 . S
C4694 H4674 0.950 . S
C4694 C4693 1.414 . S
C4694 C4695 1.374 . S
C4695 H4675 0.950 . S
C4695 C4691 1.385 . S
C4695 C4694 1.374 . S
C4696 C4693 1.499 . S
C4696 C4697 1.373 . S
C4696 C4698 1.389 . S
C4697 H4676 0.950 . S
C4697 C4696 1.373 . S
C4697 C4713 1.377 . S
C4698 C4696 1.389 . S
C4698 C4699 1.524 . S
C4698 C4712 1.377 . S
C4699 C4698 1.524 . S
C4699 C4700 1.397 . S
C4699 C4704 1.363 . S
C4700 H4677 0.950 . S
C4700 C4699 1.397 . S
C4700 C4701 1.334 . S
C4701 H4678 0.950 . S
C4701 C4700 1.334 . S
C4701 C4702 1.287 . S
C4702 C4701 1.287 . S
C4702 C4703 1.524 . S
C4702 H4721 0.913 . S
C4703 H4679 0.950 . S
C4703 C4702 1.524 . S
C4703 C4704 1.415 . S
C4704 H4680 0.950 . S
C4704 C4699 1.363 . S
C4704 C4703 1.415 . S
C4705 H4681 0.951 . S
C4705 C4706 1.366 . S
C4705 C4707 1.388 . S
C4706 C4705 1.366 . S
C4706 C4710 1.385 . S
C4707 H4682 0.951 . S
C4707 C4705 1.388 . S
C4707 C4708 1.366 . S
C4708 C4707 1.366 . S
C4708 C4709 1.414 . S
C4708 C4711 1.499 . S
C4709 H4683 0.950 . S
C4709 C4708 1.414 . S
C4709 C4710 1.374 . S
C4710 H4684 0.950 . S
C4710 C4706 1.385 . S
C4710 C4709 1.374 . S
C4711 C4708 1.499 . S
C4711 C4712 1.373 . S
C4711 C4713 1.389 . S
C4712 H4685 0.950 . S
C4712 C4698 1.377 . S
C4712 C4711 1.373 . S
C4713 C4697 1.377 . S
C4713 C4711 1.389 . S
C4713 C4714 1.524 . S
C4714 C4713 1.524 . S
C4714 C4715 1.397 . S
C4714 C4719 1.363 . S
C4715 H4686 0.950 . S
C4715 C4714 1.397 . S
C4715 C4716 1.334 . S
C4716 H4687 0.950 . S
C4716 C4715 1.334 . S
C4716 C4717 1.287 . S
C4717 C4716 1.287 . S
C4717 C4718 1.524 . S
C4717 H4720 0.999 . S
C4718 H4688 0.950 . S
C4718 C4717 1.524 . S
C4718 C4719 1.415 . S
C4719 H4689 0.950 . S
C4719 C4714 1.363 . S
C4719 C4718 1.415 . S
H4720 C4717 0.999 . S
H4721 C4702 0.913 . S
H4722 C4740 0.951 . S
H4723 C4742 0.951 . S
H4724 C4744 0.950 . S
H4725 C4745 0.950 . S
H4726 C4747 0.950 . S
H4727 C4750 0.950 . S
H4728 C4751 0.950 . S
H4729 C4753 0.950 . S
H4730 C4754 0.950 . S
H4731 C4755 0.951 . S
H4732 C4757 0.951 . S
H4733 C4759 0.950 . S
H4734 C4760 0.950 . S
H4735 C4762 0.950 . S
H4736 C4765 0.950 . S
H4737 C4766 0.950 . S
H4738 C4768 0.950 . S
H4739 C4769 0.950 . S
C4740 H4722 0.951 . S
C4740 C4741 1.366 . S
C4740 C4742 1.388 . S
C4741 C4740 1.366 . S
C4741 C4745 1.385 . S
C4742 H4723 0.951 . S
C4742 C4740 1.388 . S
C4742 C4743 1.366 . S
C4743 C4742 1.366 . S
C4743 C4744 1.414 . S
C4743 C4746 1.499 . S
C4744 H4724 0.950 . S
C4744 C4743 1.414 . S
C4744 C4745 1.374 . S
C4745 H4725 0.950 . S
C4745 C4741 1.385 . S
C4745 C4744 1.374 . S
C4746 C4743 1.499 . S
C4746 C4747 1.373 . S
C4746 C4748 1.389 . S
C4747 H4726 0.950 . S
C4747 C4746 1.373 . S
C4747 C4763 1.377 . S
C4748 C4746 1.389 . S
C4748 C4749 1.524 . S
C4748 C4762 1.377 . S
C4749 C4748 1.524 . S
C4749 C4750 1.397 . S
C4749 C4754 1.363 . S
C4750 H4727 0.950 . S
C4750 C4749 1.397 . S
C4750 C4751 1.334 . S
C4751 H4728 0.950 . S
C4751 C4750 1.334 . S
C4751 C4752 1.287 . S
C4752 C4751 1.287 . S
C4752 C4753 1.524 . S
C4752 H4771 0.913 . S
C4753 H4729 0.950 . S
C4753 C4752 1.524 . S
C4753 C4754 1.415 . S
C4754 H4730 0.950 . S
C4754 C4749 1.363 . S
C4754 C4753 1.415 . S
C4755 H4731 0.951 . S
C4755 C4756 1.366 . S
C4755 C4757 1.388 . S
C4756 C4755 1.366 . S
C4756 C4760 1.385 . S
C4757 H4732 0.951 . S
C4757 C4755 1.388 . S
C4757 C4758 1.366 . S
C4758 C4757 1.366 . S
C4758 C4759 1.414 . S
C4758 C4761 1.499 . S
C4759 H4733 0.950 . S
C4759 C4758 1.414 . S
C4759 C4760 1.374 . S
C4760 H4734 0.950 . S
C4760 C4756 1.385 . S
C4760 C4759 1.374 . S
C4761 C4758 1.499 . S
C4761 C4762 1.373 . S
C4761 C4763 1.389 . S
C4762 H4735 0.950 . S
C4762 C4748 1.377 . S
C4762 C4761 1.373 . S
C4763 C4747 1.377 . S
C4763 C4761 1.389 . S
C4763 C4764 1.524 . S
C4764 C4763 1.524 . S
C4764 C4765 1.397 . S
C4764 C4769 1.363 . S
C4765 H4736 0.950 . S
C4765 C4764 1.397 . S
C4765 C4766 1.334 . S
C4766 H4737 0.950 . S
C4766 C4765 1.334 . S
C4766 C4767 1.287 . S
C4767 C4766 1.287 . S
C4767 C4768 1.524 . S
C4767 H4770 0.999 . S
C4768 H4738 0.950 . S
C4768 C4767 1.524 . S
C4768 C4769 1.415 . S
C4769 H4739 0.950 . S
C4769 C4764 1.363 . S
C4769 C4768 1.415 . S
H4770 C4767 0.999 . S
H4771 C4752 0.913 . S
H4772 C4790 0.951 . S
H4773 C4792 0.951 . S
H4774 C4794 0.950 . S
H4775 C4795 0.950 . S
H4776 C4797 0.950 . S
H4777 C4800 0.950 . S
H4778 C4801 0.950 . S
H4779 C4803 0.950 . S
H4780 C4804 0.950 . S
H4781 C4805 0.951 . S
H4782 C4807 0.951 . S
H4783 C4809 0.950 . S
H4784 C4810 0.950 . S
H4785 C4812 0.950 . S
H4786 C4815 0.950 . S
H4787 C4816 0.950 . S
H4788 C4818 0.950 . S
H4789 C4819 0.950 . S
C4790 H4772 0.951 . S
C4790 C4791 1.366 . S
C4790 C4792 1.388 . S
C4791 C4790 1.366 . S
C4791 C4795 1.385 . S
C4792 H4773 0.951 . S
C4792 C4790 1.388 . S
C4792 C4793 1.366 . S
C4793 C4792 1.366 . S
C4793 C4794 1.414 . S
C4793 C4796 1.499 . S
C4794 H4774 0.950 . S
C4794 C4793 1.414 . S
C4794 C4795 1.374 . S
C4795 H4775 0.950 . S
C4795 C4791 1.385 . S
C4795 C4794 1.374 . S
C4796 C4793 1.499 . S
C4796 C4797 1.373 . S
C4796 C4798 1.389 . S
C4797 H4776 0.950 . S
C4797 C4796 1.373 . S
C4797 C4813 1.377 . S
C4798 C4796 1.389 . S
C4798 C4799 1.524 . S
C4798 C4812 1.377 . S
C4799 C4798 1.524 . S
C4799 C4800 1.397 . S
C4799 C4804 1.363 . S
C4800 H4777 0.950 . S
C4800 C4799 1.397 . S
C4800 C4801 1.334 . S
C4801 H4778 0.950 . S
C4801 C4800 1.334 . S
C4801 C4802 1.287 . S
C4802 C4801 1.287 . S
C4802 C4803 1.524 . S
C4802 H4821 0.913 . S
C4803 H4779 0.950 . S
C4803 C4802 1.524 . S
C4803 C4804 1.415 . S
C4804 H4780 0.950 . S
C4804 C4799 1.363 . S
C4804 C4803 1.415 . S
C4805 H4781 0.951 . S
C4805 C4806 1.366 . S
C4805 C4807 1.388 . S
C4806 C4805 1.366 . S
C4806 C4810 1.385 . S
C4807 H4782 0.951 . S
C4807 C4805 1.388 . S
C4807 C4808 1.366 . S
C4808 C4807 1.366 . S
C4808 C4809 1.414 . S
C4808 C4811 1.499 . S
C4809 H4783 0.950 . S
C4809 C4808 1.414 . S
C4809 C4810 1.374 . S
C4810 H4784 0.950 . S
C4810 C4806 1.385 . S
C4810 C4809 1.374 . S
C4811 C4808 1.499 . S
C4811 C4812 1.373 . S
C4811 C4813 1.389 . S
C4812 H4785 0.950 . S
C4812 C4798 1.377 . S
C4812 C4811 1.373 . S
C4813 C4797 1.377 . S
C4813 C4811 1.389 . S
C4813 C4814 1.524 . S
C4814 C4813 1.524 . S
C4814 C4815 1.397 . S
C4814 C4819 1.363 . S
C4815 H4786 0.950 . S
C4815 C4814 1.397 . S
C4815 C4816 1.334 . S
C4816 H4787 0.950 . S
C4816 C4815 1.334 . S
C4816 C4817 1.287 . S
C4817 C4816 1.287 . S
C4817 C4818 1.524 . S
C4817 H4820 0.999 . S
C4818 H4788 0.950 . S
C4818 C4817 1.524 . S
C4818 C4819 1.415 . S
C4819 H4789 0.950 . S
C4819 C4814 1.363 . S
C4819 C4818 1.415 . S
H4820 C4817 0.999 . S
H4821 C4802 0.913 . S
H4822 C4840 0.951 . S
H4823 C4842 0.951 . S
H4824 C4844 0.950 . S
H4825 C4845 0.950 . S
H4826 C4847 0.950 . S
H4827 C4850 0.950 . S
H4828 C4851 0.950 . S
H4829 C4853 0.950 . S
H4830 C4854 0.950 . S
H4831 C4855 0.951 . S
H4832 C4857 0.951 . S
H4833 C4859 0.950 . S
H4834 C4860 0.950 . S
H4835 C4862 0.950 . S
H4836 C4865 0.950 . S
H4837 C4866 0.950 . S
H4838 C4868 0.950 . S
H4839 C4869 0.950 . S
C4840 H4822 0.951 . S
C4840 C4841 1.366 . S
C4840 C4842 1.388 . S
C4841 C4840 1.366 . S
C4841 C4845 1.385 . S
C4842 H4823 0.951 . S
C4842 C4840 1.388 . S
C4842 C4843 1.366 . S
C4843 C4842 1.366 . S
C4843 C4844 1.414 . S
C4843 C4846 1.499 . S
C4844 H4824 0.950 . S
C4844 C4843 1.414 . S
C4844 C4845 1.374 . S
C4845 H4825 0.950 . S
C4845 C4841 1.385 . S
C4845 C4844 1.374 . S
C4846 C4843 1.499 . S
C4846 C4847 1.373 . S
C4846 C4848 1.389 . S
C4847 H4826 0.950 . S
C4847 C4846 1.373 . S
C4847 C4863 1.377 . S
C4848 C4846 1.389 . S
C4848 C4849 1.524 . S
C4848 C4862 1.377 . S
C4849 C4848 1.524 . S
C4849 C4850 1.397 . S
C4849 C4854 1.363 . S
C4850 H4827 0.950 . S
C4850 C4849 1.397 . S
C4850 C4851 1.334 . S
C4851 H4828 0.950 . S
C4851 C4850 1.334 . S
C4851 C4852 1.287 . S
C4852 C4851 1.287 . S
C4852 C4853 1.524 . S
C4852 H4871 0.913 . S
C4853 H4829 0.950 . S
C4853 C4852 1.524 . S
C4853 C4854 1.415 . S
C4854 H4830 0.950 . S
C4854 C4849 1.363 . S
C4854 C4853 1.415 . S
C4855 H4831 0.951 . S
C4855 C4856 1.366 . S
C4855 C4857 1.388 . S
C4856 C4855 1.366 . S
C4856 C4860 1.385 . S
C4857 H4832 0.951 . S
C4857 C4855 1.388 . S
C4857 C4858 1.366 . S
C4858 C4857 1.366 . S
C4858 C4859 1.414 . S
C4858 C4861 1.499 . S
C4859 H4833 0.950 . S
C4859 C4858 1.414 . S
C4859 C4860 1.374 . S
C4860 H4834 0.950 . S
C4860 C4856 1.385 . S
C4860 C4859 1.374 . S
C4861 C4858 1.499 . S
C4861 C4862 1.373 . S
C4861 C4863 1.389 . S
C4862 H4835 0.950 . S
C4862 C4848 1.377 . S
C4862 C4861 1.373 . S
C4863 C4847 1.377 . S
C4863 C4861 1.389 . S
C4863 C4864 1.524 . S
C4864 C4863 1.524 . S
C4864 C4865 1.397 . S
C4864 C4869 1.363 . S
C4865 H4836 0.950 . S
C4865 C4864 1.397 . S
C4865 C4866 1.334 . S
C4866 H4837 0.950 . S
C4866 C4865 1.334 . S
C4866 C4867 1.287 . S
C4867 C4866 1.287 . S
C4867 C4868 1.524 . S
C4867 H4870 0.999 . S
C4868 H4838 0.950 . S
C4868 C4867 1.524 . S
C4868 C4869 1.415 . S
C4869 H4839 0.950 . S
C4869 C4864 1.363 . S
C4869 C4868 1.415 . S
H4870 C4867 0.999 . S
H4871 C4852 0.913 . S
H4872 C4890 0.951 . S
H4873 C4892 0.951 . S
H4874 C4894 0.950 . S
H4875 C4895 0.950 . S
H4876 C4897 0.950 . S
H4877 C4900 0.950 . S
H4878 C4901 0.950 . S
H4879 C4903 0.950 . S
H4880 C4904 0.950 . S
H4881 C4905 0.951 . S
H4882 C4907 0.951 . S
H4883 C4909 0.950 . S
H4884 C4910 0.950 . S
H4885 C4912 0.950 . S
H4886 C4915 0.950 . S
H4887 C4916 0.950 . S
H4888 C4918 0.950 . S
H4889 C4919 0.950 . S
C4890 H4872 0.951 . S
C4890 C4891 1.366 . S
C4890 C4892 1.388 . S
C4891 C4890 1.366 . S
C4891 C4895 1.385 . S
C4892 H4873 0.951 . S
C4892 C4890 1.388 . S
C4892 C4893 1.366 . S
C4893 C4892 1.366 . S
C4893 C4894 1.414 . S
C4893 C4896 1.499 . S
C4894 H4874 0.950 . S
C4894 C4893 1.414 . S
C4894 C4895 1.374 . S
C4895 H4875 0.950 . S
C4895 C4891 1.385 . S
C4895 C4894 1.374 . S
C4896 C4893 1.499 . S
C4896 C4897 1.373 . S
C4896 C4898 1.389 . S
C4897 H4876 0.950 . S
C4897 C4896 1.373 . S
C4897 C4913 1.377 . S
C4898 C4896 1.389 . S
C4898 C4899 1.524 . S
C4898 C4912 1.377 . S
C4899 C4898 1.524 . S
C4899 C4900 1.397 . S
C4899 C4904 1.363 . S
C4900 H4877 0.950 . S
C4900 C4899 1.397 . S
C4900 C4901 1.334 . S
C4901 H4878 0.950 . S
C4901 C4900 1.334 . S
C4901 C4902 1.287 . S
C4902 C4901 1.287 . S
C4902 C4903 1.524 . S
C4902 H4921 0.913 . S
C4903 H4879 0.950 . S
C4903 C4902 1.524 . S
C4903 C4904 1.415 . S
C4904 H4880 0.950 . S
C4904 C4899 1.363 . S
C4904 C4903 1.415 . S
C4905 H4881 0.951 . S
C4905 C4906 1.366 . S
C4905 C4907 1.388 . S
C4906 C4905 1.366 . S
C4906 C4910 1.385 . S
C4907 H4882 0.951 . S
C4907 C4905 1.388 . S
C4907 C4908 1.366 . S
C4908 C4907 1.366 . S
C4908 C4909 1.414 . S
C4908 C4911 1.499 . S
C4909 H4883 0.950 . S
C4909 C4908 1.414 . S
C4909 C4910 1.374 . S
C4910 H4884 0.950 . S
C4910 C4906 1.385 . S
C4910 C4909 1.374 . S
C4911 C4908 1.499 . S
C4911 C4912 1.373 . S
C4911 C4913 1.389 . S
C4912 H4885 0.950 . S
C4912 C4898 1.377 . S
C4912 C4911 1.373 . S
C4913 C4897 1.377 . S
C4913 C4911 1.389 . S
C4913 C4914 1.524 . S
C4914 C4913 1.524 . S
C4914 C4915 1.397 . S
C4914 C4919 1.363 . S
C4915 H4886 0.950 . S
C4915 C4914 1.397 . S
C4915 C4916 1.334 . S
C4916 H4887 0.950 . S
C4916 C4915 1.334 . S
C4916 C4917 1.287 . S
C4917 C4916 1.287 . S
C4917 C4918 1.524 . S
C4917 H4920 0.999 . S
C4918 H4888 0.950 . S
C4918 C4917 1.524 . S
C4918 C4919 1.415 . S
C4919 H4889 0.950 . S
C4919 C4914 1.363 . S
C4919 C4918 1.415 . S
H4920 C4917 0.999 . S
H4921 C4902 0.913 . S
H4922 C4940 0.951 . S
H4923 C4942 0.951 . S
H4924 C4944 0.950 . S
H4925 C4945 0.950 . S
H4926 C4947 0.950 . S
H4927 C4950 0.950 . S
H4928 C4951 0.950 . S
H4929 C4953 0.950 . S
H4930 C4954 0.950 . S
H4931 C4955 0.951 . S
H4932 C4957 0.951 . S
H4933 C4959 0.950 . S
H4934 C4960 0.950 . S
H4935 C4962 0.950 . S
H4936 C4965 0.950 . S
H4937 C4966 0.950 . S
H4938 C4968 0.950 . S
H4939 C4969 0.950 . S
C4940 H4922 0.951 . S
C4940 C4941 1.366 . S
C4940 C4942 1.388 . S
C4941 C4940 1.366 . S
C4941 C4945 1.385 . S
C4942 H4923 0.951 . S
C4942 C4940 1.388 . S
C4942 C4943 1.366 . S
C4943 C4942 1.366 . S
C4943 C4944 1.414 . S
C4943 C4946 1.499 . S
C4944 H4924 0.950 . S
C4944 C4943 1.414 . S
C4944 C4945 1.374 . S
C4945 H4925 0.950 . S
C4945 C4941 1.385 . S
C4945 C4944 1.374 . S
C4946 C4943 1.499 . S
C4946 C4947 1.373 . S
C4946 C4948 1.389 . S
C4947 H4926 0.950 . S
C4947 C4946 1.373 . S
C4947 C4963 1.377 . S
C4948 C4946 1.389 . S
C4948 C4949 1.524 . S
C4948 C4962 1.377 . S
C4949 C4948 1.524 . S
C4949 C4950 1.397 . S
C4949 C4954 1.363 . S
C4950 H4927 0.950 . S
C4950 C4949 1.397 . S
C4950 C4951 1.334 . S
C4951 H4928 0.950 . S
C4951 C4950 1.334 . S
C4951 C4952 1.287 . S
C4952 C4951 1.287 . S
C4952 C4953 1.524 . S
C4952 H4971 0.913 . S
C4953 H4929 0.950 . S
C4953 C4952 1.524 . S
C4953 C4954 1.415 . S
C4954 H4930 0.950 . S
C4954 C4949 1.363 . S
C4954 C4953 1.415 . S
C4955 H4931 0.951 . S
C4955 C4956 1.366 . S
C4955 C4957 1.388 . S
C4956 C4955 1.366 . S
C4956 C4960 1.385 . S
C4957 H4932 0.951 . S
C4957 C4955 1.388 . S
C4957 C4958 1.366 . S
C4958 C4957 1.366 . S
C4958 C4959 1.414 . S
C4958 C4961 1.499 . S
C4959 H4933 0.950 . S
C4959 C4958 1.414 . S
C4959 C4960 1.374 . S
C4960 H4934 0.950 . S
C4960 C4956 1.385 . S
C4960 C4959 1.374 . S
C4961 C4958 1.499 . S
C4961 C4962 1.373 . S
C4961 C4963 1.389 . S
C4962 H4935 0.950 . S
C4962 C4948 1.377 . S
C4962 C4961 1.373 . S
C4963 C4947 1.377 . S
C4963 C4961 1.389 . S
C4963 C4964 1.524 . S
C4964 C4963 1.524 . S
C4964 C4965 1.397 . S
C4964 C4969 1.363 . S
C4965 H4936 0.950 . S
C4965 C4964 1.397 . S
C4965 C4966 1.334 . S
C4966 H4937 0.950 . S
C4966 C4965 1.334 . S
C4966 C4967 1.287 . S
C4967 C4966 1.287 . S
C4967 C4968 1.524 . S
C4967 H4970 0.999 . S
C4968 H4938 0.950 . S
C4968 C4967 1.524 . S
C4968 C4969 1.415 . S
C4969 H4939 0.950 . S
C4969 C4964 1.363 . S
C4969 C4968 1.415 . S
H4970 C4967 0.999 . S
H4971 C4952 0.913 . S
H4972 C4990 0.951 . S
H4973 C4992 0.951 . S
H4974 C4994 0.950 . S
H4975 C4995 0.950 . S
H4976 C4997 0.950 . S
H4977 C5000 0.950 . S
H4978 C5001 0.950 . S
H4979 C5003 0.950 . S
H4980 C5004 0.950 . S
H4981 C5005 0.951 . S
H4982 C5007 0.951 . S
H4983 C5009 0.950 . S
H4984 C5010 0.950 . S
H4985 C5012 0.950 . S
H4986 C5015 0.950 . S
H4987 C5016 0.950 . S
H4988 C5018 0.950 . S
H4989 C5019 0.950 . S
C4990 H4972 0.951 . S
C4990 C4991 1.366 . S
C4990 C4992 1.388 . S
C4991 C4990 1.366 . S
C4991 C4995 1.385 . S
C4992 H4973 0.951 . S
C4992 C4990 1.388 . S
C4992 C4993 1.366 . S
C4993 C4992 1.366 . S
C4993 C4994 1.414 . S
C4993 C4996 1.499 . S
C4994 H4974 0.950 . S
C4994 C4993 1.414 . S
C4994 C4995 1.374 . S
C4995 H4975 0.950 . S
C4995 C4991 1.385 . S
C4995 C4994 1.374 . S
C4996 C4993 1.499 . S
C4996 C4997 1.373 . S
C4996 C4998 1.389 . S
C4997 H4976 0.950 . S
C4997 C4996 1.373 . S
C4997 C5013 1.377 . S
C4998 C4996 1.389 . S
C4998 C4999 1.524 . S
C4998 C5012 1.377 . S
C4999 C4998 1.524 . S
C4999 C5000 1.397 . S
C4999 C5004 1.363 . S
C5000 H4977 0.950 . S
C5000 C4999 1.397 . S
C5000 C5001 1.334 . S
C5001 H4978 0.950 . S
C5001 C5000 1.334 . S
C5001 C5002 1.287 . S
C5002 C5001 1.287 . S
C5002 C5003 1.524 . S
C5002 H5021 0.913 . S
C5003 H4979 0.950 . S
C5003 C5002 1.524 . S
C5003 C5004 1.415 . S
C5004 H4980 0.950 . S
C5004 C4999 1.363 . S
C5004 C5003 1.415 . S
C5005 H4981 0.951 . S
C5005 C5006 1.366 . S
C5005 C5007 1.388 . S
C5006 C5005 1.366 . S
C5006 C5010 1.385 . S
C5007 H4982 0.951 . S
C5007 C5005 1.388 . S
C5007 C5008 1.366 . S
C5008 C5007 1.366 . S
C5008 C5009 1.414 . S
C5008 C5011 1.499 . S
C5009 H4983 0.950 . S
C5009 C5008 1.414 . S
C5009 C5010 1.374 . S
C5010 H4984 0.950 . S
C5010 C5006 1.385 . S
C5010 C5009 1.374 . S
C5011 C5008 1.499 . S
C5011 C5012 1.373 . S
C5011 C5013 1.389 . S
C5012 H4985 0.950 . S
C5012 C4998 1.377 . S
C5012 C5011 1.373 . S
C5013 C4997 1.377 . S
C5013 C5011 1.389 . S
C5013 C5014 1.524 . S
C5014 C5013 1.524 . S
C5014 C5015 1.397 . S
C5014 C5019 1.363 . S
C5015 H4986 0.950 . S
C5015 C5014 1.397 . S
C5015 C5016 1.334 . S
C5016 H4987 0.950 . S
C5016 C5015 1.334 . S
C5016 C5017 1.287 . S
C5017 C5016 1.287 . S
C5017 C5018 1.524 . S
C5017 H5020 0.999 . S
C5018 H4988 0.950 . S
C5018 C5017 1.524 . S
C5018 C5019 1.415 . S
C5019 H4989 0.950 . S
C5019 C5014 1.363 . S
C5019 C5018 1.415 . S
H5020 C5017 0.999 . S
H5021 C5002 0.913 . S
H5022 C5040 0.951 . S
H5023 C5042 0.951 . S
H5024 C5044 0.950 . S
H5025 C5045 0.950 . S
H5026 C5047 0.950 . S
H5027 C5050 0.950 . S
H5028 C5051 0.950 . S
H5029 C5053 0.950 . S
H5030 C5054 0.950 . S
H5031 C5055 0.951 . S
H5032 C5057 0.951 . S
H5033 C5059 0.950 . S
H5034 C5060 0.950 . S
H5035 C5062 0.950 . S
H5036 C5065 0.950 . S
H5037 C5066 0.950 . S
H5038 C5068 0.950 . S
H5039 C5069 0.950 . S
C5040 H5022 0.951 . S
C5040 C5041 1.366 . S
C5040 C5042 1.388 . S
C5041 C5040 1.366 . S
C5041 C5045 1.385 . S
C5042 H5023 0.951 . S
C5042 C5040 1.388 . S
C5042 C5043 1.366 . S
C5043 C5042 1.366 . S
C5043 C5044 1.414 . S
C5043 C5046 1.499 . S
C5044 H5024 0.950 . S
C5044 C5043 1.414 . S
C5044 C5045 1.374 . S
C5045 H5025 0.950 . S
C5045 C5041 1.385 . S
C5045 C5044 1.374 . S
C5046 C5043 1.499 . S
C5046 C5047 1.373 . S
C5046 C5048 1.389 . S
C5047 H5026 0.950 . S
C5047 C5046 1.373 . S
C5047 C5063 1.377 . S
C5048 C5046 1.389 . S
C5048 C5049 1.524 . S
C5048 C5062 1.377 . S
C5049 C5048 1.524 . S
C5049 C5050 1.397 . S
C5049 C5054 1.363 . S
C5050 H5027 0.950 . S
C5050 C5049 1.397 . S
C5050 C5051 1.334 . S
C5051 H5028 0.950 . S
C5051 C5050 1.334 . S
C5051 C5052 1.287 . S
C5052 C5051 1.287 . S
C5052 C5053 1.524 . S
C5052 H5071 0.913 . S
C5053 H5029 0.950 . S
C5053 C5052 1.524 . S
C5053 C5054 1.415 . S
C5054 H5030 0.950 . S
C5054 C5049 1.363 . S
C5054 C5053 1.415 . S
C5055 H5031 0.951 . S
C5055 C5056 1.366 . S
C5055 C5057 1.388 . S
C5056 C5055 1.366 . S
C5056 C5060 1.385 . S
C5057 H5032 0.951 . S
C5057 C5055 1.388 . S
C5057 C5058 1.366 . S
C5058 C5057 1.366 . S
C5058 C5059 1.414 . S
C5058 C5061 1.499 . S
C5059 H5033 0.950 . S
C5059 C5058 1.414 . S
C5059 C5060 1.374 . S
C5060 H5034 0.950 . S
C5060 C5056 1.385 . S
C5060 C5059 1.374 . S
C5061 C5058 1.499 . S
C5061 C5062 1.373 . S
C5061 C5063 1.389 . S
C5062 H5035 0.950 . S
C5062 C5048 1.377 . S
C5062 C5061 1.373 . S
C5063 C5047 1.377 . S
C5063 C5061 1.389 . S
C5063 C5064 1.524 . S
C5064 C5063 1.524 . S
C5064 C5065 1.397 . S
C5064 C5069 1.363 . S
C5065 H5036 0.950 . S
C5065 C5064 1.397 . S
C5065 C5066 1.334 . S
C5066 H5037 0.950 . S
C5066 C5065 1.334 . S
C5066 C5067 1.287 . S
C5067 C5066 1.287 . S
C5067 C5068 1.524 . S
C5067 H5070 0.999 . S
C5068 H5038 0.950 . S
C5068 C5067 1.524 . S
C5068 C5069 1.415 . S
C5069 H5039 0.950 . S
C5069 C5064 1.363 . S
C5069 C5068 1.415 . S
H5070 C5067 0.999 . S
H5071 C5052 0.913 . S
H5072 C5090 0.951 . S
H5073 C5092 0.951 . S
H5074 C5094 0.950 . S
H5075 C5095 0.950 . S
H5076 C5097 0.950 . S
H5077 C5100 0.950 . S
H5078 C5101 0.950 . S
H5079 C5103 0.950 . S
H5080 C5104 0.950 . S
H5081 C5105 0.951 . S
H5082 C5107 0.951 . S
H5083 C5109 0.950 . S
H5084 C5110 0.950 . S
H5085 C5112 0.950 . S
H5086 C5115 0.950 . S
H5087 C5116 0.950 . S
H5088 C5118 0.950 . S
H5089 C5119 0.950 . S
C5090 H5072 0.951 . S
C5090 C5091 1.366 . S
C5090 C5092 1.388 . S
C5091 C5090 1.366 . S
C5091 C5095 1.385 . S
C5092 H5073 0.951 . S
C5092 C5090 1.388 . S
C5092 C5093 1.366 . S
C5093 C5092 1.366 . S
C5093 C5094 1.414 . S
C5093 C5096 1.499 . S
C5094 H5074 0.950 . S
C5094 C5093 1.414 . S
C5094 C5095 1.374 . S
C5095 H5075 0.950 . S
C5095 C5091 1.385 . S
C5095 C5094 1.374 . S
C5096 C5093 1.499 . S
C5096 C5097 1.373 . S
C5096 C5098 1.389 . S
C5097 H5076 0.950 . S
C5097 C5096 1.373 . S
C5097 C5113 1.377 . S
C5098 C5096 1.389 . S
C5098 C5099 1.524 . S
C5098 C5112 1.377 . S
C5099 C5098 1.524 . S
C5099 C5100 1.397 . S
C5099 C5104 1.363 . S
C5100 H5077 0.950 . S
C5100 C5099 1.397 . S
C5100 C5101 1.334 . S
C5101 H5078 0.950 . S
C5101 C5100 1.334 . S
C5101 C5102 1.287 . S
C5102 C5101 1.287 . S
C5102 C5103 1.524 . S
C5102 H5121 0.913 . S
C5103 H5079 0.950 . S
C5103 C5102 1.524 . S
C5103 C5104 1.415 . S
C5104 H5080 0.950 . S
C5104 C5099 1.363 . S
C5104 C5103 1.415 . S
C5105 H5081 0.951 . S
C5105 C5106 1.366 . S
C5105 C5107 1.388 . S
C5106 C5105 1.366 . S
C5106 C5110 1.385 . S
C5107 H5082 0.951 . S
C5107 C5105 1.388 . S
C5107 C5108 1.366 . S
C5108 C5107 1.366 . S
C5108 C5109 1.414 . S
C5108 C5111 1.499 . S
C5109 H5083 0.950 . S
C5109 C5108 1.414 . S
C5109 C5110 1.374 . S
C5110 H5084 0.950 . S
C5110 C5106 1.385 . S
C5110 C5109 1.374 . S
C5111 C5108 1.499 . S
C5111 C5112 1.373 . S
C5111 C5113 1.389 . S
C5112 H5085 0.950 . S
C5112 C5098 1.377 . S
C5112 C5111 1.373 . S
C5113 C5097 1.377 . S
C5113 C5111 1.389 . S
C5113 C5114 1.524 . S
C5114 C5113 1.524 . S
C5114 C5115 1.397 . S
C5114 C5119 1.363 . S
C5115 H5086 0.950 . S
C5115 C5114 1.397 . S
C5115 C5116 1.334 . S
C5116 H5087 0.950 . S
C5116 C5115 1.334 . S
C5116 C5117 1.287 . S
C5117 C5116 1.287 . S
C5117 C5118 1.524 . S
C5117 H5120 0.999 . S
C5118 H5088 0.950 . S
C5118 C5117 1.524 . S
C5118 C5119 1.415 . S
C5119 H5089 0.950 . S
C5119 C5114 1.363 . S
C5119 C5118 1.415 . S
H5120 C5117 0.999 . S
H5121 C5102 0.913 . S
H5122 C5140 0.951 . S
H5123 C5142 0.951 . S
H5124 C5144 0.950 . S
H5125 C5145 0.950 . S
H5126 C5147 0.950 . S
H5127 C5150 0.950 . S
H5128 C5151 0.950 . S
H5129 C5153 0.950 . S
H5130 C5154 0.950 . S
H5131 C5155 0.951 . S
H5132 C5157 0.951 . S
H5133 C5159 0.950 . S
H5134 C5160 0.950 . S
H5135 C5162 0.950 . S
H5136 C5165 0.950 . S
H5137 C5166 0.950 . S
H5138 C5168 0.950 . S
H5139 C5169 0.950 . S
C5140 H5122 0.951 . S
C5140 C5141 1.366 . S
C5140 C5142 1.388 . S
C5141 C5140 1.366 . S
C5141 C5145 1.385 . S
C5142 H5123 0.951 . S
C5142 C5140 1.388 . S
C5142 C5143 1.366 . S
C5143 C5142 1.366 . S
C5143 C5144 1.414 . S
C5143 C5146 1.499 . S
C5144 H5124 0.950 . S
C5144 C5143 1.414 . S
C5144 C5145 1.374 . S
C5145 H5125 0.950 . S
C5145 C5141 1.385 . S
C5145 C5144 1.374 . S
C5146 C5143 1.499 . S
C5146 C5147 1.373 . S
C5146 C5148 1.389 . S
C5147 H5126 0.950 . S
C5147 C5146 1.373 . S
C5147 C5163 1.377 . S
C5148 C5146 1.389 . S
C5148 C5149 1.524 . S
C5148 C5162 1.377 . S
C5149 C5148 1.524 . S
C5149 C5150 1.397 . S
C5149 C5154 1.363 . S
C5150 H5127 0.950 . S
C5150 C5149 1.397 . S
C5150 C5151 1.334 . S
C5151 H5128 0.950 . S
C5151 C5150 1.334 . S
C5151 C5152 1.287 . S
C5152 C5151 1.287 . S
C5152 C5153 1.524 . S
C5152 H5171 0.913 . S
C5153 H5129 0.950 . S
C5153 C5152 1.524 . S
C5153 C5154 1.415 . S
C5154 H5130 0.950 . S
C5154 C5149 1.363 . S
C5154 C5153 1.415 . S
C5155 H5131 0.951 . S
C5155 C5156 1.366 . S
C5155 C5157 1.388 . S
C5156 C5155 1.366 . S
C5156 C5160 1.385 . S
C5157 H5132 0.951 . S
C5157 C5155 1.388 . S
C5157 C5158 1.366 . S
C5158 C5157 1.366 . S
C5158 C5159 1.414 . S
C5158 C5161 1.499 . S
C5159 H5133 0.950 . S
C5159 C5158 1.414 . S
C5159 C5160 1.374 . S
C5160 H5134 0.950 . S
C5160 C5156 1.385 . S
C5160 C5159 1.374 . S
C5161 C5158 1.499 . S
C5161 C5162 1.373 . S
C5161 C5163 1.389 . S
C5162 H5135 0.950 . S
C5162 C5148 1.377 . S
C5162 C5161 1.373 . S
C5163 C5147 1.377 . S
C5163 C5161 1.389 . S
C5163 C5164 1.524 . S
C5164 C5163 1.524 . S
C5164 C5165 1.397 . S
C5164 C5169 1.363 . S
C5165 H5136 0.950 . S
C5165 C5164 1.397 . S
C5165 C5166 1.334 . S
C5166 H5137 0.950 . S
C5166 C5165 1.334 . S
C5166 C5167 1.287 . S
C5167 C5166 1.287 . S
C5167 C5168 1.524 . S
C5167 H5170 0.999 . S
C5168 H5138 0.950 . S
C5168 C5167 1.524 . S
C5168 C5169 1.415 . S
C5169 H5139 0.950 . S
C5169 C5164 1.363 . S
C5169 C5168 1.415 . S
H5170 C5167 0.999 . S
H5171 C5152 0.913 . S
H5172 C5190 0.951 . S
H5173 C5192 0.951 . S
H5174 C5194 0.950 . S
H5175 C5195 0.950 . S
H5176 C5197 0.950 . S
H5177 C5200 0.950 . S
H5178 C5201 0.950 . S
H5179 C5203 0.950 . S
H5180 C5204 0.950 . S
H5181 C5205 0.951 . S
H5182 C5207 0.951 . S
H5183 C5209 0.950 . S
H5184 C5210 0.950 . S
H5185 C5212 0.950 . S
H5186 C5215 0.950 . S
H5187 C5216 0.950 . S
H5188 C5218 0.950 . S
H5189 C5219 0.950 . S
C5190 H5172 0.951 . S
C5190 C5191 1.366 . S
C5190 C5192 1.388 . S
C5191 C5190 1.366 . S
C5191 C5195 1.385 . S
C5192 H5173 0.951 . S
C5192 C5190 1.388 . S
C5192 C5193 1.366 . S
C5193 C5192 1.366 . S
C5193 C5194 1.414 . S
C5193 C5196 1.499 . S
C5194 H5174 0.950 . S
C5194 C5193 1.414 . S
C5194 C5195 1.374 . S
C5195 H5175 0.950 . S
C5195 C5191 1.385 . S
C5195 C5194 1.374 . S
C5196 C5193 1.499 . S
C5196 C5197 1.373 . S
C5196 C5198 1.389 . S
C5197 H5176 0.950 . S
C5197 C5196 1.373 . S
C5197 C5213 1.377 . S
C5198 C5196 1.389 . S
C5198 C5199 1.524 . S
C5198 C5212 1.377 . S
C5199 C5198 1.524 . S
C5199 C5200 1.397 . S
C5199 C5204 1.363 . S
C5200 H5177 0.950 . S
C5200 C5199 1.397 . S
C5200 C5201 1.334 . S
C5201 H5178 0.950 . S
C5201 C5200 1.334 . S
C5201 C5202 1.287 . S
C5202 C5201 1.287 . S
C5202 C5203 1.524 . S
C5202 H5221 0.913 . S
C5203 H5179 0.950 . S
C5203 C5202 1.524 . S
C5203 C5204 1.415 . S
C5204 H5180 0.950 . S
C5204 C5199 1.363 . S
C5204 C5203 1.415 . S
C5205 H5181 0.951 . S
C5205 C5206 1.366 . S
C5205 C5207 1.388 . S
C5206 C5205 1.366 . S
C5206 C5210 1.385 . S
C5207 H5182 0.951 . S
C5207 C5205 1.388 . S
C5207 C5208 1.366 . S
C5208 C5207 1.366 . S
C5208 C5209 1.414 . S
C5208 C5211 1.499 . S
C5209 H5183 0.950 . S
C5209 C5208 1.414 . S
C5209 C5210 1.374 . S
C5210 H5184 0.950 . S
C5210 C5206 1.385 . S
C5210 C5209 1.374 . S
C5211 C5208 1.499 . S
C5211 C5212 1.373 . S
C5211 C5213 1.389 . S
C5212 H5185 0.950 . S
C5212 C5198 1.377 . S
C5212 C5211 1.373 . S
C5213 C5197 1.377 . S
C5213 C5211 1.389 . S
C5213 C5214 1.524 . S
C5214 C5213 1.524 . S
C5214 C5215 1.397 . S
C5214 C5219 1.363 . S
C5215 H5186 0.950 . S
C5215 C5214 1.397 . S
C5215 C5216 1.334 . S
C5216 H5187 0.950 . S
C5216 C5215 1.334 . S
C5216 C5217 1.287 . S
C5217 C5216 1.287 . S
C5217 C5218 1.524 . S
C5217 H5220 0.999 . S
C5218 H5188 0.950 . S
C5218 C5217 1.524 . S
C5218 C5219 1.415 . S
C5219 H5189 0.950 . S
C5219 C5214 1.363 . S
C5219 C5218 1.415 . S
H5220 C5217 0.999 . S
H5221 C5202 0.913 . S
H5222 C5240 0.951 . S
H5223 C5242 0.951 . S
H5224 C5244 0.950 . S
H5225 C5245 0.950 . S
H5226 C5247 0.950 . S
H5227 C5250 0.950 . S
H5228 C5251 0.950 . S
H5229 C5253 0.950 . S
H5230 C5254 0.950 . S
H5231 C5255 0.951 . S
H5232 C5257 0.951 . S
H5233 C5259 0.950 . S
H5234 C5260 0.950 . S
H5235 C5262 0.950 . S
H5236 C5265 0.950 . S
H5237 C5266 0.950 . S
H5238 C5268 0.950 . S
H5239 C5269 0.950 . S
C5240 H5222 0.951 . S
C5240 C5241 1.366 . S
C5240 C5242 1.388 . S
C5241 C5240 1.366 . S
C5241 C5245 1.385 . S
C5242 H5223 0.951 . S
C5242 C5240 1.388 . S
C5242 C5243 1.366 . S
C5243 C5242 1.366 . S
C5243 C5244 1.414 . S
C5243 C5246 1.499 . S
C5244 H5224 0.950 . S
C5244 C5243 1.414 . S
C5244 C5245 1.374 . S
C5245 H5225 0.950 . S
C5245 C5241 1.385 . S
C5245 C5244 1.374 . S
C5246 C5243 1.499 . S
C5246 C5247 1.373 . S
C5246 C5248 1.389 . S
C5247 H5226 0.950 . S
C5247 C5246 1.373 . S
C5247 C5263 1.377 . S
C5248 C5246 1.389 . S
C5248 C5249 1.524 . S
C5248 C5262 1.377 . S
C5249 C5248 1.524 . S
C5249 C5250 1.397 . S
C5249 C5254 1.363 . S
C5250 H5227 0.950 . S
C5250 C5249 1.397 . S
C5250 C5251 1.334 . S
C5251 H5228 0.950 . S
C5251 C5250 1.334 . S
C5251 C5252 1.287 . S
C5252 C5251 1.287 . S
C5252 C5253 1.524 . S
C5252 H5271 0.913 . S
C5253 H5229 0.950 . S
C5253 C5252 1.524 . S
C5253 C5254 1.415 . S
C5254 H5230 0.950 . S
C5254 C5249 1.363 . S
C5254 C5253 1.415 . S
C5255 H5231 0.951 . S
C5255 C5256 1.366 . S
C5255 C5257 1.388 . S
C5256 C5255 1.366 . S
C5256 C5260 1.385 . S
C5257 H5232 0.951 . S
C5257 C5255 1.388 . S
C5257 C5258 1.366 . S
C5258 C5257 1.366 . S
C5258 C5259 1.414 . S
C5258 C5261 1.499 . S
C5259 H5233 0.950 . S
C5259 C5258 1.414 . S
C5259 C5260 1.374 . S
C5260 H5234 0.950 . S
C5260 C5256 1.385 . S
C5260 C5259 1.374 . S
C5261 C5258 1.499 . S
C5261 C5262 1.373 . S
C5261 C5263 1.389 . S
C5262 H5235 0.950 . S
C5262 C5248 1.377 . S
C5262 C5261 1.373 . S
C5263 C5247 1.377 . S
C5263 C5261 1.389 . S
C5263 C5264 1.524 . S
C5264 C5263 1.524 . S
C5264 C5265 1.397 . S
C5264 C5269 1.363 . S
C5265 H5236 0.950 . S
C5265 C5264 1.397 . S
C5265 C5266 1.334 . S
C5266 H5237 0.950 . S
C5266 C5265 1.334 . S
C5266 C5267 1.287 . S
C5267 C5266 1.287 . S
C5267 C5268 1.524 . S
C5267 H5270 0.999 . S
C5268 H5238 0.950 . S
C5268 C5267 1.524 . S
C5268 C5269 1.415 . S
C5269 H5239 0.950 . S
C5269 C5264 1.363 . S
C5269 C5268 1.415 . S
H5270 C5267 0.999 . S
H5271 C5252 0.913 . S
H5272 C5290 0.951 . S
H5273 C5292 0.951 . S
H5274 C5294 0.950 . S
H5275 C5295 0.950 . S
H5276 C5297 0.950 . S
H5277 C5300 0.950 . S
H5278 C5301 0.950 . S
H5279 C5303 0.950 . S
H5280 C5304 0.950 . S
H5281 C5305 0.951 . S
H5282 C5307 0.951 . S
H5283 C5309 0.950 . S
H5284 C5310 0.950 . S
H5285 C5312 0.950 . S
H5286 C5315 0.950 . S
H5287 C5316 0.950 . S
H5288 C5318 0.950 . S
H5289 C5319 0.950 . S
C5290 H5272 0.951 . S
C5290 C5291 1.366 . S
C5290 C5292 1.388 . S
C5291 C5290 1.366 . S
C5291 C5295 1.385 . S
C5292 H5273 0.951 . S
C5292 C5290 1.388 . S
C5292 C5293 1.366 . S
C5293 C5292 1.366 . S
C5293 C5294 1.414 . S
C5293 C5296 1.499 . S
C5294 H5274 0.950 . S
C5294 C5293 1.414 . S
C5294 C5295 1.374 . S
C5295 H5275 0.950 . S
C5295 C5291 1.385 . S
C5295 C5294 1.374 . S
C5296 C5293 1.499 . S
C5296 C5297 1.373 . S
C5296 C5298 1.389 . S
C5297 H5276 0.950 . S
C5297 C5296 1.373 . S
C5297 C5313 1.377 . S
C5298 C5296 1.389 . S
C5298 C5299 1.524 . S
C5298 C5312 1.377 . S
C5299 C5298 1.524 . S
C5299 C5300 1.397 . S
C5299 C5304 1.363 . S
C5300 H5277 0.950 . S
C5300 C5299 1.397 . S
C5300 C5301 1.334 . S
C5301 H5278 0.950 . S
C5301 C5300 1.334 . S
C5301 C5302 1.287 . S
C5302 C5301 1.287 . S
C5302 C5303 1.524 . S
C5302 H5321 0.913 . S
C5303 H5279 0.950 . S
C5303 C5302 1.524 . S
C5303 C5304 1.415 . S
C5304 H5280 0.950 . S
C5304 C5299 1.363 . S
C5304 C5303 1.415 . S
C5305 H5281 0.951 . S
C5305 C5306 1.366 . S
C5305 C5307 1.388 . S
C5306 C5305 1.366 . S
C5306 C5310 1.385 . S
C5307 H5282 0.951 . S
C5307 C5305 1.388 . S
C5307 C5308 1.366 . S
C5308 C5307 1.366 . S
C5308 C5309 1.414 . S
C5308 C5311 1.499 . S
C5309 H5283 0.950 . S
C5309 C5308 1.414 . S
C5309 C5310 1.374 . S
C5310 H5284 0.950 . S
C5310 C5306 1.385 . S
C5310 C5309 1.374 . S
C5311 C5308 1.499 . S
C5311 C5312 1.373 . S
C5311 C5313 1.389 . S
C5312 H5285 0.950 . S
C5312 C5298 1.377 . S
C5312 C5311 1.373 . S
C5313 C5297 1.377 . S
C5313 C5311 1.389 . S
C5313 C5314 1.524 . S
C5314 C5313 1.524 . S
C5314 C5315 1.397 . S
C5314 C5319 1.363 . S
C5315 H5286 0.950 . S
C5315 C5314 1.397 . S
C5315 C5316 1.334 . S
C5316 H5287 0.950 . S
C5316 C5315 1.334 . S
C5316 C5317 1.287 . S
C5317 C5316 1.287 . S
C5317 C5318 1.524 . S
C5317 H5320 0.999 . S
C5318 H5288 0.950 . S
C5318 C5317 1.524 . S
C5318 C5319 1.415 . S
C5319 H5289 0.950 . S
C5319 C5314 1.363 . S
C5319 C5318 1.415 . S
H5320 C5317 0.999 . S
H5321 C5302 0.913 . S
H5322 C5340 0.951 . S
H5323 C5342 0.951 . S
H5324 C5344 0.950 . S
H5325 C5345 0.950 . S
H5326 C5347 0.950 . S
H5327 C5350 0.950 . S
H5328 C5351 0.950 . S
H5329 C5353 0.950 . S
H5330 C5354 0.950 . S
H5331 C5355 0.951 . S
H5332 C5357 0.951 . S
H5333 C5359 0.950 . S
H5334 C5360 0.950 . S
H5335 C5362 0.950 . S
H5336 C5365 0.950 . S
H5337 C5366 0.950 . S
H5338 C5368 0.950 . S
H5339 C5369 0.950 . S
C5340 H5322 0.951 . S
C5340 C5341 1.366 . S
C5340 C5342 1.388 . S
C5341 C5340 1.366 . S
C5341 C5345 1.385 . S
C5342 H5323 0.951 . S
C5342 C5340 1.388 . S
C5342 C5343 1.366 . S
C5343 C5342 1.366 . S
C5343 C5344 1.414 . S
C5343 C5346 1.499 . S
C5344 H5324 0.950 . S
C5344 C5343 1.414 . S
C5344 C5345 1.374 . S
C5345 H5325 0.950 . S
C5345 C5341 1.385 . S
C5345 C5344 1.374 . S
C5346 C5343 1.499 . S
C5346 C5347 1.373 . S
C5346 C5348 1.389 . S
C5347 H5326 0.950 . S
C5347 C5346 1.373 . S
C5347 C5363 1.377 . S
C5348 C5346 1.389 . S
C5348 C5349 1.524 . S
C5348 C5362 1.377 . S
C5349 C5348 1.524 . S
C5349 C5350 1.397 . S
C5349 C5354 1.363 . S
C5350 H5327 0.950 . S
C5350 C5349 1.397 . S
C5350 C5351 1.334 . S
C5351 H5328 0.950 . S
C5351 C5350 1.334 . S
C5351 C5352 1.287 . S
C5352 C5351 1.287 . S
C5352 C5353 1.524 . S
C5352 H5371 0.913 . S
C5353 H5329 0.950 . S
C5353 C5352 1.524 . S
C5353 C5354 1.415 . S
C5354 H5330 0.950 . S
C5354 C5349 1.363 . S
C5354 C5353 1.415 . S
C5355 H5331 0.951 . S
C5355 C5356 1.366 . S
C5355 C5357 1.388 . S
C5356 C5355 1.366 . S
C5356 C5360 1.385 . S
C5357 H5332 0.951 . S
C5357 C5355 1.388 . S
C5357 C5358 1.366 . S
C5358 C5357 1.366 . S
C5358 C5359 1.414 . S
C5358 C5361 1.499 . S
C5359 H5333 0.950 . S
C5359 C5358 1.414 . S
C5359 C5360 1.374 . S
C5360 H5334 0.950 . S
C5360 C5356 1.385 . S
C5360 C5359 1.374 . S
C5361 C5358 1.499 . S
C5361 C5362 1.373 . S
C5361 C5363 1.389 . S
C5362 H5335 0.950 . S
C5362 C5348 1.377 . S
C5362 C5361 1.373 . S
C5363 C5347 1.377 . S
C5363 C5361 1.389 . S
C5363 C5364 1.524 . S
C5364 C5363 1.524 . S
C5364 C5365 1.397 . S
C5364 C5369 1.363 . S
C5365 H5336 0.950 . S
C5365 C5364 1.397 . S
C5365 C5366 1.334 . S
C5366 H5337 0.950 . S
C5366 C5365 1.334 . S
C5366 C5367 1.287 . S
C5367 C5366 1.287 . S
C5367 C5368 1.524 . S
C5367 H5370 0.999 . S
C5368 H5338 0.950 . S
C5368 C5367 1.524 . S
C5368 C5369 1.415 . S
C5369 H5339 0.950 . S
C5369 C5364 1.363 . S
C5369 C5368 1.415 . S
H5370 C5367 0.999 . S
H5371 C5352 0.913 . S
H5372 C5390 0.951 . S
H5373 C5392 0.951 . S
H5374 C5394 0.950 . S
H5375 C5395 0.950 . S
H5376 C5397 0.950 . S
H5377 C5400 0.950 . S
H5378 C5401 0.950 . S
H5379 C5403 0.950 . S
H5380 C5404 0.950 . S
H5381 C5405 0.951 . S
H5382 C5407 0.951 . S
H5383 C5409 0.950 . S
H5384 C5410 0.950 . S
H5385 C5412 0.950 . S
H5386 C5415 0.950 . S
H5387 C5416 0.950 . S
H5388 C5418 0.950 . S
H5389 C5419 0.950 . S
C5390 H5372 0.951 . S
C5390 C5391 1.366 . S
C5390 C5392 1.388 . S
C5391 C5390 1.366 . S
C5391 C5395 1.385 . S
C5392 H5373 0.951 . S
C5392 C5390 1.388 . S
C5392 C5393 1.366 . S
C5393 C5392 1.366 . S
C5393 C5394 1.414 . S
C5393 C5396 1.499 . S
C5394 H5374 0.950 . S
C5394 C5393 1.414 . S
C5394 C5395 1.374 . S
C5395 H5375 0.950 . S
C5395 C5391 1.385 . S
C5395 C5394 1.374 . S
C5396 C5393 1.499 . S
C5396 C5397 1.373 . S
C5396 C5398 1.389 . S
C5397 H5376 0.950 . S
C5397 C5396 1.373 . S
C5397 C5413 1.377 . S
C5398 C5396 1.389 . S
C5398 C5399 1.524 . S
C5398 C5412 1.377 . S
C5399 C5398 1.524 . S
C5399 C5400 1.397 . S
C5399 C5404 1.363 . S
C5400 H5377 0.950 . S
C5400 C5399 1.397 . S
C5400 C5401 1.334 . S
C5401 H5378 0.950 . S
C5401 C5400 1.334 . S
C5401 C5402 1.287 . S
C5402 C5401 1.287 . S
C5402 C5403 1.524 . S
C5402 H5421 0.913 . S
C5403 H5379 0.950 . S
C5403 C5402 1.524 . S
C5403 C5404 1.415 . S
C5404 H5380 0.950 . S
C5404 C5399 1.363 . S
C5404 C5403 1.415 . S
C5405 H5381 0.951 . S
C5405 C5406 1.366 . S
C5405 C5407 1.388 . S
C5406 C5405 1.366 . S
C5406 C5410 1.385 . S
C5407 H5382 0.951 . S
C5407 C5405 1.388 . S
C5407 C5408 1.366 . S
C5408 C5407 1.366 . S
C5408 C5409 1.414 . S
C5408 C5411 1.499 . S
C5409 H5383 0.950 . S
C5409 C5408 1.414 . S
C5409 C5410 1.374 . S
C5410 H5384 0.950 . S
C5410 C5406 1.385 . S
C5410 C5409 1.374 . S
C5411 C5408 1.499 . S
C5411 C5412 1.373 . S
C5411 C5413 1.389 . S
C5412 H5385 0.950 . S
C5412 C5398 1.377 . S
C5412 C5411 1.373 . S
C5413 C5397 1.377 . S
C5413 C5411 1.389 . S
C5413 C5414 1.524 . S
C5414 C5413 1.524 . S
C5414 C5415 1.397 . S
C5414 C5419 1.363 . S
C5415 H5386 0.950 . S
C5415 C5414 1.397 . S
C5415 C5416 1.334 . S
C5416 H5387 0.950 . S
C5416 C5415 1.334 . S
C5416 C5417 1.287 . S
C5417 C5416 1.287 . S
C5417 C5418 1.524 . S
C5417 H5420 0.999 . S
C5418 H5388 0.950 . S
C5418 C5417 1.524 . S
C5418 C5419 1.415 . S
C5419 H5389 0.950 . S
C5419 C5414 1.363 . S
C5419 C5418 1.415 . S
H5420 C5417 0.999 . S
H5421 C5402 0.913 . S
H5422 C5440 0.951 . S
H5423 C5442 0.951 . S
H5424 C5444 0.950 . S
H5425 C5445 0.950 . S
H5426 C5447 0.950 . S
H5427 C5450 0.950 . S
H5428 C5451 0.950 . S
H5429 C5453 0.950 . S
H5430 C5454 0.950 . S
H5431 C5455 0.951 . S
H5432 C5457 0.951 . S
H5433 C5459 0.950 . S
H5434 C5460 0.950 . S
H5435 C5462 0.950 . S
H5436 C5465 0.950 . S
H5437 C5466 0.950 . S
H5438 C5468 0.950 . S
H5439 C5469 0.950 . S
C5440 H5422 0.951 . S
C5440 C5441 1.366 . S
C5440 C5442 1.388 . S
C5441 C5440 1.366 . S
C5441 C5445 1.385 . S
C5442 H5423 0.951 . S
C5442 C5440 1.388 . S
C5442 C5443 1.366 . S
C5443 C5442 1.366 . S
C5443 C5444 1.414 . S
C5443 C5446 1.499 . S
C5444 H5424 0.950 . S
C5444 C5443 1.414 . S
C5444 C5445 1.374 . S
C5445 H5425 0.950 . S
C5445 C5441 1.385 . S
C5445 C5444 1.374 . S
C5446 C5443 1.499 . S
C5446 C5447 1.373 . S
C5446 C5448 1.389 . S
C5447 H5426 0.950 . S
C5447 C5446 1.373 . S
C5447 C5463 1.377 . S
C5448 C5446 1.389 . S
C5448 C5449 1.524 . S
C5448 C5462 1.377 . S
C5449 C5448 1.524 . S
C5449 C5450 1.397 . S
C5449 C5454 1.363 . S
C5450 H5427 0.950 . S
C5450 C5449 1.397 . S
C5450 C5451 1.334 . S
C5451 H5428 0.950 . S
C5451 C5450 1.334 . S
C5451 C5452 1.287 . S
C5452 C5451 1.287 . S
C5452 C5453 1.524 . S
C5452 H5471 0.913 . S
C5453 H5429 0.950 . S
C5453 C5452 1.524 . S
C5453 C5454 1.415 . S
C5454 H5430 0.950 . S
C5454 C5449 1.363 . S
C5454 C5453 1.415 . S
C5455 H5431 0.951 . S
C5455 C5456 1.366 . S
C5455 C5457 1.388 . S
C5456 C5455 1.366 . S
C5456 C5460 1.385 . S
C5457 H5432 0.951 . S
C5457 C5455 1.388 . S
C5457 C5458 1.366 . S
C5458 C5457 1.366 . S
C5458 C5459 1.414 . S
C5458 C5461 1.499 . S
C5459 H5433 0.950 . S
C5459 C5458 1.414 . S
C5459 C5460 1.374 . S
C5460 H5434 0.950 . S
C5460 C5456 1.385 . S
C5460 C5459 1.374 . S
C5461 C5458 1.499 . S
C5461 C5462 1.373 . S
C5461 C5463 1.389 . S
C5462 H5435 0.950 . S
C5462 C5448 1.377 . S
C5462 C5461 1.373 . S
C5463 C5447 1.377 . S
C5463 C5461 1.389 . S
C5463 C5464 1.524 . S
C5464 C5463 1.524 . S
C5464 C5465 1.397 . S
C5464 C5469 1.363 . S
C5465 H5436 0.950 . S
C5465 C5464 1.397 . S
C5465 C5466 1.334 . S
C5466 H5437 0.950 . S
C5466 C5465 1.334 . S
C5466 C5467 1.287 . S
C5467 C5466 1.287 . S
C5467 C5468 1.524 . S
C5467 H5470 0.999 . S
C5468 H5438 0.950 . S
C5468 C5467 1.524 . S
C5468 C5469 1.415 . S
C5469 H5439 0.950 . S
C5469 C5464 1.363 . S
C5469 C5468 1.415 . S
H5470 C5467 0.999 . S
H5471 C5452 0.913 . S
C691 C283 1.463 . S
C706 C3 1.463 . S
C741 C21 1.363 . S
C756 C245 1.364 . S
C791 C31 1.462 . S
C806 C259 1.393 . S
C841 C273 1.377 . S
C856 C49 1.377 . S
C891 C329 1.367 . S
C906 C63 1.368 . S
C941 C73 1.460 . S
C956 C301 1.393 . S
C991 C91 1.377 . S
C1006 C311 1.443 . S
C1041 C101 1.468 . S
C1056 C227 1.468 . S
C1091 C115 1.457 . S
C1106 C213 1.456 . S
C1141 C133 1.371 . S
C1156 C175 1.372 . S
C1191 C143 1.441 . S
C1206 C185 1.441 . S
C1241 C203 1.381 . S
C1256 C161 1.381 . S
C1291 C343 1.337 . S
C1306 C623 1.339 . S
C1341 C577 1.373 . S
C1356 C353 1.373 . S
C1391 C371 1.337 . S
C1406 C591 1.406 . S
C1441 C609 1.312 . S
C1456 C381 1.377 . S
C1491 C395 1.372 . S
C1506 C661 1.372 . S
C1541 C633 1.399 . S
C1556 C413 1.330 . S
C1591 C423 1.368 . S
C1606 C651 1.305 . S
C1641 C567 1.341 . S
C1656 C441 1.342 . S
C1691 C455 1.324 . S
C1706 C553 1.323 . S
C1741 C507 1.385 . S
C1756 C465 1.385 . S
C1791 C525 1.311 . S
C1806 C483 1.312 . S
C1841 C535 1.399 . S
C1856 C493 1.398 . S
C1891 C367 0.971 . S
C1906 C7 0.938 . S
C1941 C17 0.965 . S
C1956 C385 0.940 . S
C1991 C35 0.936 . S
C2006 C339 0.970 . S
C2041 C45 0.990 . S
C2056 C357 0.959 . S
C2091 C59 0.965 . S
C2106 C427 0.938 . S
C2141 C437 0.978 . S
C2156 C77 0.946 . S
C2191 C399 0.936 . S
C2206 C87 0.964 . S
C2241 C409 0.971 . S
C2256 C105 0.940 . S
C2291 C511 0.945 . S
C2306 C119 0.940 . S
C2341 C129 0.965 . S
C2356 C521 0.967 . S
C2391 C539 0.942 . S
C2406 C147 0.937 . S
C2441 C157 0.968 . S
C2456 C549 0.969 . S
C2491 C171 0.968 . S
C2506 C451 0.969 . S
C2541 C189 0.937 . S
C2556 C469 0.943 . S
C2591 C479 0.970 . S
C2606 C199 0.969 . S
C2641 C497 0.945 . S
C2656 C217 0.940 . S
C2691 C231 0.935 . S
C2706 C605 0.968 . S
C2741 C241 0.965 . S
C2756 C637 0.940 . S
C2791 C647 0.965 . S
C2806 C255 0.965 . S
C2841 C563 0.966 . S
C2856 C269 0.966 . S
C2891 C287 0.940 . S
C2906 C665 0.945 . S
C2941 C581 0.951 . S
C2956 C297 0.981 . S
C2991 C315 0.948 . S
C3006 C595 0.951 . S
C3041 C325 0.963 . S
C3056 C619 0.964 . S
C3091 C400 1.730 . S
C3106 C9 1.671 . S
C3141 C415 1.669 . S
C3156 C22 1.740 . S
C3191 C428 1.734 . S
C3206 C37 1.676 . S
C3241 C50 1.735 . S
C3256 C443 1.664 . S
C3291 C345 1.667 . S
C3306 C64 1.739 . S
C3341 C358 1.737 . S
C3356 C79 1.678 . S
C3391 C92 1.737 . S
C3406 C373 1.667 . S
C3441 C386 1.730 . S
C3456 C107 1.673 . S
C3491 C121 1.676 . S
C3506 C540 1.735 . S
C3541 C134 1.740 . S
C3556 C555 1.668 . S
C3591 C512 1.732 . S
C3606 C149 1.674 . S
C3641 C162 1.739 . S
C3656 C527 1.666 . S
C3691 C485 1.667 . S
C3706 C176 1.741 . S
C3741 C191 1.674 . S
C3756 C498 1.734 . S
C3791 C204 1.739 . S
C3806 C457 1.667 . S
C3841 C219 1.674 . S
C3856 C470 1.732 . S
C3891 C638 1.730 . S
C3906 C233 1.671 . S
C3941 C246 1.745 . S
C3956 C611 1.671 . S
C3991 C260 1.730 . S
C4006 C625 1.659 . S
C4041 C274 1.721 . S
C4056 C582 1.717 . S
C4091 C596 1.730 . S
C4106 C289 1.671 . S
C4141 C569 1.679 . S
C4156 C302 1.752 . S
C4191 C666 1.756 . S
C4206 C317 1.696 . S
C4241 C330 1.743 . S
C4256 C653 1.672 . S
C4291 C218 1.388 . S
C4306 C8 1.387 . S
C4341 C23 1.302 . S
C4356 C177 1.301 . S
C4391 C190 1.382 . S
C4406 C36 1.383 . S
C4441 C205 1.301 . S
C4456 C51 1.302 . S
C4491 C135 1.298 . S
C4506 C65 1.300 . S
C4541 C78 1.386 . S
C4556 C148 1.385 . S
C4591 C93 1.299 . S
C4606 C163 1.299 . S
C4641 C120 1.385 . S
C4656 C106 1.385 . S
C4691 C232 1.394 . S
C4706 C288 1.394 . S
C4741 C331 1.307 . S
C4756 C247 1.310 . S
C4791 C303 1.304 . S
C4806 C261 1.302 . S
C4841 C275 1.320 . S
C4856 C316 1.397 . S
C4891 C554 1.317 . S
C4906 C344 1.316 . S
C4941 C513 1.235 . S
C4956 C359 1.235 . S
C4991 C372 1.318 . S
C5006 C526 1.319 . S
C5041 C541 1.239 . S
C5056 C387 1.239 . S
C5091 C471 1.235 . S
C5106 C401 1.237 . S
C5141 C414 1.316 . S
C5156 C484 1.318 . S
C5191 C429 1.239 . S
C5206 C499 1.239 . S
C5241 C442 1.318 . S
C5256 C456 1.319 . S
C5291 C568 1.311 . S
C5306 C624 1.312 . S
C5341 C667 1.240 . S
C5356 C583 1.243 . S
C5391 C639 1.237 . S
C5406 C597 1.235 . S
C5441 C652 1.315 . S
C5456 C610 1.313 . S
