# Generated by pormake.
# Topology wse, (4)-cn, num edge types: 1
# Building blocks:
#     Node 0, Type 0, BuildingBlock: KUFVIS_clean_sbu_0, # of connection points: 4
#     Node 1, Type 0, BuildingBlock: KUFVIS_clean_sbu_0, # of connection points: 4
#     Node 2, Type 0, BuildingBlock: KUFVIS_clean_sbu_0, # of connection points: 4
#     Node 3, Type 0, BuildingBlock: KUFVIS_clean_sbu_0, # of connection points: 4
#     Node 4, Type 0, BuildingBlock: KUFVIS_clean_sbu_0, # of connection points: 4
#     Node 5, Type 0, BuildingBlock: KUFVIS_clean_sbu_0, # of connection points: 4
#     Node 6, Type 0, BuildingBlock: KUFVIS_clean_sbu_0, # of connection points: 4
#     Node 7, Type 0, BuildingBlock: KUFVIS_clean_sbu_0, # of connection points: 4
#     Node 8, Type 0, BuildingBlock: KUFVIS_clean_sbu_0, # of connection points: 4
#     Node 9, Type 0, BuildingBlock: KUFVIS_clean_sbu_0, # of connection points: 4
#     Node 10, Type 0, BuildingBlock: KUFVIS_clean_sbu_0, # of connection points: 4
#     Node 11, Type 0, BuildingBlock: KUFVIS_clean_sbu_0, # of connection points: 4
#     Node 12, Type 0, BuildingBlock: KUFVIS_clean_sbu_0, # of connection points: 4
#     Node 13, Type 0, BuildingBlock: KUFVIS_clean_sbu_0, # of connection points: 4
#     Node 14, Type 0, BuildingBlock: KUFVIS_clean_sbu_0, # of connection points: 4
#     Node 15, Type 0, BuildingBlock: KUFVIS_clean_sbu_0, # of connection points: 4
#     Node 16, Type 0, BuildingBlock: KUFVIS_clean_sbu_0, # of connection points: 4
#     Node 17, Type 0, BuildingBlock: KUFVIS_clean_sbu_0, # of connection points: 4
#     Node 18, Type 0, BuildingBlock: KUFVIS_clean_sbu_0, # of connection points: 4
#     Node 19, Type 0, BuildingBlock: KUFVIS_clean_sbu_0, # of connection points: 4
#     Node 20, Type 0, BuildingBlock: KUFVIS_clean_sbu_0, # of connection points: 4
#     Node 21, Type 0, BuildingBlock: KUFVIS_clean_sbu_0, # of connection points: 4
#     Node 22, Type 0, BuildingBlock: KUFVIS_clean_sbu_0, # of connection points: 4
#     Node 23, Type 0, BuildingBlock: KUFVIS_clean_sbu_0, # of connection points: 4
#     Node 24, Type 0, BuildingBlock: KUFVIS_clean_sbu_0, # of connection points: 4
#     Node 25, Type 0, BuildingBlock: KUFVIS_clean_sbu_0, # of connection points: 4
#     Node 26, Type 0, BuildingBlock: KUFVIS_clean_sbu_0, # of connection points: 4
#     Node 27, Type 0, BuildingBlock: KUFVIS_clean_sbu_0, # of connection points: 4
#     Node 28, Type 0, BuildingBlock: KUFVIS_clean_sbu_0, # of connection points: 4
#     Node 29, Type 0, BuildingBlock: KUFVIS_clean_sbu_0, # of connection points: 4
#     Node 30, Type 0, BuildingBlock: KUFVIS_clean_sbu_0, # of connection points: 4
#     Node 31, Type 0, BuildingBlock: KUFVIS_clean_sbu_0, # of connection points: 4
#     Node 32, Type 0, BuildingBlock: KUFVIS_clean_sbu_0, # of connection points: 4
#     Node 33, Type 0, BuildingBlock: KUFVIS_clean_sbu_0, # of connection points: 4
#     Node 34, Type 0, BuildingBlock: KUFVIS_clean_sbu_0, # of connection points: 4
#     Node 35, Type 0, BuildingBlock: KUFVIS_clean_sbu_0, # of connection points: 4
#     Node 36, Type 0, BuildingBlock: KUFVIS_clean_sbu_0, # of connection points: 4
#     Node 37, Type 0, BuildingBlock: KUFVIS_clean_sbu_0, # of connection points: 4
#     Node 38, Type 0, BuildingBlock: KUFVIS_clean_sbu_0, # of connection points: 4
#     Node 39, Type 0, BuildingBlock: KUFVIS_clean_sbu_0, # of connection points: 4
#     Node 40, Type 0, BuildingBlock: KUFVIS_clean_sbu_0, # of connection points: 4
#     Node 41, Type 0, BuildingBlock: KUFVIS_clean_sbu_0, # of connection points: 4
#     Node 42, Type 0, BuildingBlock: KUFVIS_clean_sbu_0, # of connection points: 4
#     Node 43, Type 0, BuildingBlock: KUFVIS_clean_sbu_0, # of connection points: 4
#     Node 44, Type 0, BuildingBlock: KUFVIS_clean_sbu_0, # of connection points: 4
#     Node 45, Type 0, BuildingBlock: KUFVIS_clean_sbu_0, # of connection points: 4
#     Node 46, Type 0, BuildingBlock: KUFVIS_clean_sbu_0, # of connection points: 4
#     Node 47, Type 0, BuildingBlock: KUFVIS_clean_sbu_0, # of connection points: 4
#     Node 48, Type 0, BuildingBlock: KUFVIS_clean_sbu_0, # of connection points: 4
#     Node 49, Type 0, BuildingBlock: KUFVIS_clean_sbu_0, # of connection points: 4
#     Node 50, Type 0, BuildingBlock: KUFVIS_clean_sbu_0, # of connection points: 4
#     Node 51, Type 0, BuildingBlock: KUFVIS_clean_sbu_0, # of connection points: 4
#     Node 52, Type 0, BuildingBlock: KUFVIS_clean_sbu_0, # of connection points: 4
#     Node 53, Type 0, BuildingBlock: KUFVIS_clean_sbu_0, # of connection points: 4
#     Node 54, Type 0, BuildingBlock: KUFVIS_clean_sbu_0, # of connection points: 4
#     Node 55, Type 0, BuildingBlock: KUFVIS_clean_sbu_0, # of connection points: 4
#     Node 56, Type 0, BuildingBlock: KUFVIS_clean_sbu_0, # of connection points: 4
#     Node 57, Type 0, BuildingBlock: KUFVIS_clean_sbu_0, # of connection points: 4
#     Node 58, Type 0, BuildingBlock: KUFVIS_clean_sbu_0, # of connection points: 4
#     Node 59, Type 0, BuildingBlock: KUFVIS_clean_sbu_0, # of connection points: 4
#     Node 60, Type 0, BuildingBlock: KUFVIS_clean_sbu_0, # of connection points: 4
#     Node 61, Type 0, BuildingBlock: KUFVIS_clean_sbu_0, # of connection points: 4
#     Node 62, Type 0, BuildingBlock: KUFVIS_clean_sbu_0, # of connection points: 4
#     Node 63, Type 0, BuildingBlock: KUFVIS_clean_sbu_0, # of connection points: 4
#     Node 64, Type 0, BuildingBlock: KUFVIS_clean_sbu_0, # of connection points: 4
#     Node 65, Type 0, BuildingBlock: KUFVIS_clean_sbu_0, # of connection points: 4
#     Node 66, Type 0, BuildingBlock: KUFVIS_clean_sbu_0, # of connection points: 4
#     Node 67, Type 0, BuildingBlock: KUFVIS_clean_sbu_0, # of connection points: 4
#     Node 68, Type 0, BuildingBlock: KUFVIS_clean_sbu_0, # of connection points: 4
#     Node 69, Type 0, BuildingBlock: KUFVIS_clean_sbu_0, # of connection points: 4
#     Node 70, Type 0, BuildingBlock: KUFVIS_clean_sbu_0, # of connection points: 4
#     Node 71, Type 0, BuildingBlock: KUFVIS_clean_sbu_0, # of connection points: 4
#     Node 72, Type 0, BuildingBlock: KUFVIS_clean_sbu_0, # of connection points: 4
#     Node 73, Type 0, BuildingBlock: KUFVIS_clean_sbu_0, # of connection points: 4
#     Node 74, Type 0, BuildingBlock: KUFVIS_clean_sbu_0, # of connection points: 4
#     Node 75, Type 0, BuildingBlock: KUFVIS_clean_sbu_0, # of connection points: 4
#     Node 76, Type 0, BuildingBlock: KUFVIS_clean_sbu_0, # of connection points: 4
#     Node 77, Type 0, BuildingBlock: KUFVIS_clean_sbu_0, # of connection points: 4
#     Node 78, Type 0, BuildingBlock: KUFVIS_clean_sbu_0, # of connection points: 4
#     Node 79, Type 0, BuildingBlock: KUFVIS_clean_sbu_0, # of connection points: 4
#     Node 80, Type 0, BuildingBlock: KUFVIS_clean_sbu_0, # of connection points: 4
#     Node 81, Type 0, BuildingBlock: KUFVIS_clean_sbu_0, # of connection points: 4
#     Node 82, Type 0, BuildingBlock: KUFVIS_clean_sbu_0, # of connection points: 4
#     Node 83, Type 0, BuildingBlock: KUFVIS_clean_sbu_0, # of connection points: 4
#     Node 84, Type 0, BuildingBlock: KUFVIS_clean_sbu_0, # of connection points: 4
#     Node 85, Type 0, BuildingBlock: KUFVIS_clean_sbu_0, # of connection points: 4
#     Node 86, Type 0, BuildingBlock: KUFVIS_clean_sbu_0, # of connection points: 4
#     Node 87, Type 0, BuildingBlock: KUFVIS_clean_sbu_0, # of connection points: 4
#     Node 88, Type 0, BuildingBlock: KUFVIS_clean_sbu_0, # of connection points: 4
#     Node 89, Type 0, BuildingBlock: KUFVIS_clean_sbu_0, # of connection points: 4
#     Node 90, Type 0, BuildingBlock: KUFVIS_clean_sbu_0, # of connection points: 4
#     Node 91, Type 0, BuildingBlock: KUFVIS_clean_sbu_0, # of connection points: 4
#     Node 92, Type 0, BuildingBlock: KUFVIS_clean_sbu_0, # of connection points: 4
#     Node 93, Type 0, BuildingBlock: KUFVIS_clean_sbu_0, # of connection points: 4
#     Node 94, Type 0, BuildingBlock: KUFVIS_clean_sbu_0, # of connection points: 4
#     Node 95, Type 0, BuildingBlock: KUFVIS_clean_sbu_0, # of connection points: 4
#     Edge 96, Type (0, 0), BuildingBlock: EZIPEK_clean_linker_0, # of connection points: 2
#     Edge 97, Type (0, 0), BuildingBlock: EZIPEK_clean_linker_0, # of connection points: 2
#     Edge 98, Type (0, 0), BuildingBlock: EZIPEK_clean_linker_0, # of connection points: 2
#     Edge 99, Type (0, 0), BuildingBlock: EZIPEK_clean_linker_0, # of connection points: 2
#     Edge 100, Type (0, 0), BuildingBlock: EZIPEK_clean_linker_0, # of connection points: 2
#     Edge 101, Type (0, 0), BuildingBlock: EZIPEK_clean_linker_0, # of connection points: 2
#     Edge 102, Type (0, 0), BuildingBlock: EZIPEK_clean_linker_0, # of connection points: 2
#     Edge 103, Type (0, 0), BuildingBlock: EZIPEK_clean_linker_0, # of connection points: 2
#     Edge 104, Type (0, 0), BuildingBlock: EZIPEK_clean_linker_0, # of connection points: 2
#     Edge 105, Type (0, 0), BuildingBlock: EZIPEK_clean_linker_0, # of connection points: 2
#     Edge 106, Type (0, 0), BuildingBlock: EZIPEK_clean_linker_0, # of connection points: 2
#     Edge 107, Type (0, 0), BuildingBlock: EZIPEK_clean_linker_0, # of connection points: 2
#     Edge 108, Type (0, 0), BuildingBlock: EZIPEK_clean_linker_0, # of connection points: 2
#     Edge 109, Type (0, 0), BuildingBlock: EZIPEK_clean_linker_0, # of connection points: 2
#     Edge 110, Type (0, 0), BuildingBlock: EZIPEK_clean_linker_0, # of connection points: 2
#     Edge 111, Type (0, 0), BuildingBlock: EZIPEK_clean_linker_0, # of connection points: 2
#     Edge 112, Type (0, 0), BuildingBlock: EZIPEK_clean_linker_0, # of connection points: 2
#     Edge 113, Type (0, 0), BuildingBlock: EZIPEK_clean_linker_0, # of connection points: 2
#     Edge 114, Type (0, 0), BuildingBlock: EZIPEK_clean_linker_0, # of connection points: 2
#     Edge 115, Type (0, 0), BuildingBlock: EZIPEK_clean_linker_0, # of connection points: 2
#     Edge 116, Type (0, 0), BuildingBlock: EZIPEK_clean_linker_0, # of connection points: 2
#     Edge 117, Type (0, 0), BuildingBlock: EZIPEK_clean_linker_0, # of connection points: 2
#     Edge 118, Type (0, 0), BuildingBlock: EZIPEK_clean_linker_0, # of connection points: 2
#     Edge 119, Type (0, 0), BuildingBlock: EZIPEK_clean_linker_0, # of connection points: 2
#     Edge 120, Type (0, 0), BuildingBlock: EZIPEK_clean_linker_0, # of connection points: 2
#     Edge 121, Type (0, 0), BuildingBlock: EZIPEK_clean_linker_0, # of connection points: 2
#     Edge 122, Type (0, 0), BuildingBlock: EZIPEK_clean_linker_0, # of connection points: 2
#     Edge 123, Type (0, 0), BuildingBlock: EZIPEK_clean_linker_0, # of connection points: 2
#     Edge 124, Type (0, 0), BuildingBlock: EZIPEK_clean_linker_0, # of connection points: 2
#     Edge 125, Type (0, 0), BuildingBlock: EZIPEK_clean_linker_0, # of connection points: 2
#     Edge 126, Type (0, 0), BuildingBlock: EZIPEK_clean_linker_0, # of connection points: 2
#     Edge 127, Type (0, 0), BuildingBlock: EZIPEK_clean_linker_0, # of connection points: 2
#     Edge 128, Type (0, 0), BuildingBlock: EZIPEK_clean_linker_0, # of connection points: 2
#     Edge 129, Type (0, 0), BuildingBlock: EZIPEK_clean_linker_0, # of connection points: 2
#     Edge 130, Type (0, 0), BuildingBlock: EZIPEK_clean_linker_0, # of connection points: 2
#     Edge 131, Type (0, 0), BuildingBlock: EZIPEK_clean_linker_0, # of connection points: 2
#     Edge 132, Type (0, 0), BuildingBlock: EZIPEK_clean_linker_0, # of connection points: 2
#     Edge 133, Type (0, 0), BuildingBlock: EZIPEK_clean_linker_0, # of connection points: 2
#     Edge 134, Type (0, 0), BuildingBlock: EZIPEK_clean_linker_0, # of connection points: 2
#     Edge 135, Type (0, 0), BuildingBlock: EZIPEK_clean_linker_0, # of connection points: 2
#     Edge 136, Type (0, 0), BuildingBlock: EZIPEK_clean_linker_0, # of connection points: 2
#     Edge 137, Type (0, 0), BuildingBlock: EZIPEK_clean_linker_0, # of connection points: 2
#     Edge 138, Type (0, 0), BuildingBlock: EZIPEK_clean_linker_0, # of connection points: 2
#     Edge 139, Type (0, 0), BuildingBlock: EZIPEK_clean_linker_0, # of connection points: 2
#     Edge 140, Type (0, 0), BuildingBlock: EZIPEK_clean_linker_0, # of connection points: 2
#     Edge 141, Type (0, 0), BuildingBlock: EZIPEK_clean_linker_0, # of connection points: 2
#     Edge 142, Type (0, 0), BuildingBlock: EZIPEK_clean_linker_0, # of connection points: 2
#     Edge 143, Type (0, 0), BuildingBlock: EZIPEK_clean_linker_0, # of connection points: 2
#     Edge 144, Type (0, 0), BuildingBlock: EZIPEK_clean_linker_0, # of connection points: 2
#     Edge 145, Type (0, 0), BuildingBlock: EZIPEK_clean_linker_0, # of connection points: 2
#     Edge 146, Type (0, 0), BuildingBlock: EZIPEK_clean_linker_0, # of connection points: 2
#     Edge 147, Type (0, 0), BuildingBlock: EZIPEK_clean_linker_0, # of connection points: 2
#     Edge 148, Type (0, 0), BuildingBlock: EZIPEK_clean_linker_0, # of connection points: 2
#     Edge 149, Type (0, 0), BuildingBlock: EZIPEK_clean_linker_0, # of connection points: 2
#     Edge 150, Type (0, 0), BuildingBlock: EZIPEK_clean_linker_0, # of connection points: 2
#     Edge 151, Type (0, 0), BuildingBlock: EZIPEK_clean_linker_0, # of connection points: 2
#     Edge 152, Type (0, 0), BuildingBlock: EZIPEK_clean_linker_0, # of connection points: 2
#     Edge 153, Type (0, 0), BuildingBlock: EZIPEK_clean_linker_0, # of connection points: 2
#     Edge 154, Type (0, 0), BuildingBlock: EZIPEK_clean_linker_0, # of connection points: 2
#     Edge 155, Type (0, 0), BuildingBlock: EZIPEK_clean_linker_0, # of connection points: 2
#     Edge 156, Type (0, 0), BuildingBlock: EZIPEK_clean_linker_0, # of connection points: 2
#     Edge 157, Type (0, 0), BuildingBlock: EZIPEK_clean_linker_0, # of connection points: 2
#     Edge 158, Type (0, 0), BuildingBlock: EZIPEK_clean_linker_0, # of connection points: 2
#     Edge 159, Type (0, 0), BuildingBlock: EZIPEK_clean_linker_0, # of connection points: 2
#     Edge 160, Type (0, 0), BuildingBlock: EZIPEK_clean_linker_0, # of connection points: 2
#     Edge 161, Type (0, 0), BuildingBlock: EZIPEK_clean_linker_0, # of connection points: 2
#     Edge 162, Type (0, 0), BuildingBlock: EZIPEK_clean_linker_0, # of connection points: 2
#     Edge 163, Type (0, 0), BuildingBlock: EZIPEK_clean_linker_0, # of connection points: 2
#     Edge 164, Type (0, 0), BuildingBlock: EZIPEK_clean_linker_0, # of connection points: 2
#     Edge 165, Type (0, 0), BuildingBlock: EZIPEK_clean_linker_0, # of connection points: 2
#     Edge 166, Type (0, 0), BuildingBlock: EZIPEK_clean_linker_0, # of connection points: 2
#     Edge 167, Type (0, 0), BuildingBlock: EZIPEK_clean_linker_0, # of connection points: 2
#     Edge 168, Type (0, 0), BuildingBlock: EZIPEK_clean_linker_0, # of connection points: 2
#     Edge 169, Type (0, 0), BuildingBlock: EZIPEK_clean_linker_0, # of connection points: 2
#     Edge 170, Type (0, 0), BuildingBlock: EZIPEK_clean_linker_0, # of connection points: 2
#     Edge 171, Type (0, 0), BuildingBlock: EZIPEK_clean_linker_0, # of connection points: 2
#     Edge 172, Type (0, 0), BuildingBlock: EZIPEK_clean_linker_0, # of connection points: 2
#     Edge 173, Type (0, 0), BuildingBlock: EZIPEK_clean_linker_0, # of connection points: 2
#     Edge 174, Type (0, 0), BuildingBlock: EZIPEK_clean_linker_0, # of connection points: 2
#     Edge 175, Type (0, 0), BuildingBlock: EZIPEK_clean_linker_0, # of connection points: 2
#     Edge 176, Type (0, 0), BuildingBlock: EZIPEK_clean_linker_0, # of connection points: 2
#     Edge 177, Type (0, 0), BuildingBlock: EZIPEK_clean_linker_0, # of connection points: 2
#     Edge 178, Type (0, 0), BuildingBlock: EZIPEK_clean_linker_0, # of connection points: 2
#     Edge 179, Type (0, 0), BuildingBlock: EZIPEK_clean_linker_0, # of connection points: 2
#     Edge 180, Type (0, 0), BuildingBlock: EZIPEK_clean_linker_0, # of connection points: 2
#     Edge 181, Type (0, 0), BuildingBlock: EZIPEK_clean_linker_0, # of connection points: 2
#     Edge 182, Type (0, 0), BuildingBlock: EZIPEK_clean_linker_0, # of connection points: 2
#     Edge 183, Type (0, 0), BuildingBlock: EZIPEK_clean_linker_0, # of connection points: 2
#     Edge 184, Type (0, 0), BuildingBlock: EZIPEK_clean_linker_0, # of connection points: 2
#     Edge 185, Type (0, 0), BuildingBlock: EZIPEK_clean_linker_0, # of connection points: 2
#     Edge 186, Type (0, 0), BuildingBlock: EZIPEK_clean_linker_0, # of connection points: 2
#     Edge 187, Type (0, 0), BuildingBlock: EZIPEK_clean_linker_0, # of connection points: 2
#     Edge 188, Type (0, 0), BuildingBlock: EZIPEK_clean_linker_0, # of connection points: 2
#     Edge 189, Type (0, 0), BuildingBlock: EZIPEK_clean_linker_0, # of connection points: 2
#     Edge 190, Type (0, 0), BuildingBlock: EZIPEK_clean_linker_0, # of connection points: 2
#     Edge 191, Type (0, 0), BuildingBlock: EZIPEK_clean_linker_0, # of connection points: 2
#     Edge 192, Type (0, 0), BuildingBlock: EZIPEK_clean_linker_0, # of connection points: 2
#     Edge 193, Type (0, 0), BuildingBlock: EZIPEK_clean_linker_0, # of connection points: 2
#     Edge 194, Type (0, 0), BuildingBlock: EZIPEK_clean_linker_0, # of connection points: 2
#     Edge 195, Type (0, 0), BuildingBlock: EZIPEK_clean_linker_0, # of connection points: 2
#     Edge 196, Type (0, 0), BuildingBlock: EZIPEK_clean_linker_0, # of connection points: 2
#     Edge 197, Type (0, 0), BuildingBlock: EZIPEK_clean_linker_0, # of connection points: 2
#     Edge 198, Type (0, 0), BuildingBlock: EZIPEK_clean_linker_0, # of connection points: 2
#     Edge 199, Type (0, 0), BuildingBlock: EZIPEK_clean_linker_0, # of connection points: 2
#     Edge 200, Type (0, 0), BuildingBlock: EZIPEK_clean_linker_0, # of connection points: 2
#     Edge 201, Type (0, 0), BuildingBlock: EZIPEK_clean_linker_0, # of connection points: 2
#     Edge 202, Type (0, 0), BuildingBlock: EZIPEK_clean_linker_0, # of connection points: 2
#     Edge 203, Type (0, 0), BuildingBlock: EZIPEK_clean_linker_0, # of connection points: 2
#     Edge 204, Type (0, 0), BuildingBlock: EZIPEK_clean_linker_0, # of connection points: 2
#     Edge 205, Type (0, 0), BuildingBlock: EZIPEK_clean_linker_0, # of connection points: 2
#     Edge 206, Type (0, 0), BuildingBlock: EZIPEK_clean_linker_0, # of connection points: 2
#     Edge 207, Type (0, 0), BuildingBlock: EZIPEK_clean_linker_0, # of connection points: 2
#     Edge 208, Type (0, 0), BuildingBlock: EZIPEK_clean_linker_0, # of connection points: 2
#     Edge 209, Type (0, 0), BuildingBlock: EZIPEK_clean_linker_0, # of connection points: 2
#     Edge 210, Type (0, 0), BuildingBlock: EZIPEK_clean_linker_0, # of connection points: 2
#     Edge 211, Type (0, 0), BuildingBlock: EZIPEK_clean_linker_0, # of connection points: 2
#     Edge 212, Type (0, 0), BuildingBlock: EZIPEK_clean_linker_0, # of connection points: 2
#     Edge 213, Type (0, 0), BuildingBlock: EZIPEK_clean_linker_0, # of connection points: 2
#     Edge 214, Type (0, 0), BuildingBlock: EZIPEK_clean_linker_0, # of connection points: 2
#     Edge 215, Type (0, 0), BuildingBlock: EZIPEK_clean_linker_0, # of connection points: 2
#     Edge 216, Type (0, 0), BuildingBlock: EZIPEK_clean_linker_0, # of connection points: 2
#     Edge 217, Type (0, 0), BuildingBlock: EZIPEK_clean_linker_0, # of connection points: 2
#     Edge 218, Type (0, 0), BuildingBlock: EZIPEK_clean_linker_0, # of connection points: 2
#     Edge 219, Type (0, 0), BuildingBlock: EZIPEK_clean_linker_0, # of connection points: 2
#     Edge 220, Type (0, 0), BuildingBlock: EZIPEK_clean_linker_0, # of connection points: 2
#     Edge 221, Type (0, 0), BuildingBlock: EZIPEK_clean_linker_0, # of connection points: 2
#     Edge 222, Type (0, 0), BuildingBlock: EZIPEK_clean_linker_0, # of connection points: 2
#     Edge 223, Type (0, 0), BuildingBlock: EZIPEK_clean_linker_0, # of connection points: 2
#     Edge 224, Type (0, 0), BuildingBlock: EZIPEK_clean_linker_0, # of connection points: 2
#     Edge 225, Type (0, 0), BuildingBlock: EZIPEK_clean_linker_0, # of connection points: 2
#     Edge 226, Type (0, 0), BuildingBlock: EZIPEK_clean_linker_0, # of connection points: 2
#     Edge 227, Type (0, 0), BuildingBlock: EZIPEK_clean_linker_0, # of connection points: 2
#     Edge 228, Type (0, 0), BuildingBlock: EZIPEK_clean_linker_0, # of connection points: 2
#     Edge 229, Type (0, 0), BuildingBlock: EZIPEK_clean_linker_0, # of connection points: 2
#     Edge 230, Type (0, 0), BuildingBlock: EZIPEK_clean_linker_0, # of connection points: 2
#     Edge 231, Type (0, 0), BuildingBlock: EZIPEK_clean_linker_0, # of connection points: 2
#     Edge 232, Type (0, 0), BuildingBlock: EZIPEK_clean_linker_0, # of connection points: 2
#     Edge 233, Type (0, 0), BuildingBlock: EZIPEK_clean_linker_0, # of connection points: 2
#     Edge 234, Type (0, 0), BuildingBlock: EZIPEK_clean_linker_0, # of connection points: 2
#     Edge 235, Type (0, 0), BuildingBlock: EZIPEK_clean_linker_0, # of connection points: 2
#     Edge 236, Type (0, 0), BuildingBlock: EZIPEK_clean_linker_0, # of connection points: 2
#     Edge 237, Type (0, 0), BuildingBlock: EZIPEK_clean_linker_0, # of connection points: 2
#     Edge 238, Type (0, 0), BuildingBlock: EZIPEK_clean_linker_0, # of connection points: 2
#     Edge 239, Type (0, 0), BuildingBlock: EZIPEK_clean_linker_0, # of connection points: 2
#     Edge 240, Type (0, 0), BuildingBlock: EZIPEK_clean_linker_0, # of connection points: 2
#     Edge 241, Type (0, 0), BuildingBlock: EZIPEK_clean_linker_0, # of connection points: 2
#     Edge 242, Type (0, 0), BuildingBlock: EZIPEK_clean_linker_0, # of connection points: 2
#     Edge 243, Type (0, 0), BuildingBlock: EZIPEK_clean_linker_0, # of connection points: 2
#     Edge 244, Type (0, 0), BuildingBlock: EZIPEK_clean_linker_0, # of connection points: 2
#     Edge 245, Type (0, 0), BuildingBlock: EZIPEK_clean_linker_0, # of connection points: 2
#     Edge 246, Type (0, 0), BuildingBlock: EZIPEK_clean_linker_0, # of connection points: 2
#     Edge 247, Type (0, 0), BuildingBlock: EZIPEK_clean_linker_0, # of connection points: 2
#     Edge 248, Type (0, 0), BuildingBlock: EZIPEK_clean_linker_0, # of connection points: 2
#     Edge 249, Type (0, 0), BuildingBlock: EZIPEK_clean_linker_0, # of connection points: 2
#     Edge 250, Type (0, 0), BuildingBlock: EZIPEK_clean_linker_0, # of connection points: 2
#     Edge 251, Type (0, 0), BuildingBlock: EZIPEK_clean_linker_0, # of connection points: 2
#     Edge 252, Type (0, 0), BuildingBlock: EZIPEK_clean_linker_0, # of connection points: 2
#     Edge 253, Type (0, 0), BuildingBlock: EZIPEK_clean_linker_0, # of connection points: 2
#     Edge 254, Type (0, 0), BuildingBlock: EZIPEK_clean_linker_0, # of connection points: 2
#     Edge 255, Type (0, 0), BuildingBlock: EZIPEK_clean_linker_0, # of connection points: 2
#     Edge 256, Type (0, 0), BuildingBlock: EZIPEK_clean_linker_0, # of connection points: 2
#     Edge 257, Type (0, 0), BuildingBlock: EZIPEK_clean_linker_0, # of connection points: 2
#     Edge 258, Type (0, 0), BuildingBlock: EZIPEK_clean_linker_0, # of connection points: 2
#     Edge 259, Type (0, 0), BuildingBlock: EZIPEK_clean_linker_0, # of connection points: 2
#     Edge 260, Type (0, 0), BuildingBlock: EZIPEK_clean_linker_0, # of connection points: 2
#     Edge 261, Type (0, 0), BuildingBlock: EZIPEK_clean_linker_0, # of connection points: 2
#     Edge 262, Type (0, 0), BuildingBlock: EZIPEK_clean_linker_0, # of connection points: 2
#     Edge 263, Type (0, 0), BuildingBlock: EZIPEK_clean_linker_0, # of connection points: 2
#     Edge 264, Type (0, 0), BuildingBlock: EZIPEK_clean_linker_0, # of connection points: 2
#     Edge 265, Type (0, 0), BuildingBlock: EZIPEK_clean_linker_0, # of connection points: 2
#     Edge 266, Type (0, 0), BuildingBlock: EZIPEK_clean_linker_0, # of connection points: 2
#     Edge 267, Type (0, 0), BuildingBlock: EZIPEK_clean_linker_0, # of connection points: 2
#     Edge 268, Type (0, 0), BuildingBlock: EZIPEK_clean_linker_0, # of connection points: 2
#     Edge 269, Type (0, 0), BuildingBlock: EZIPEK_clean_linker_0, # of connection points: 2
#     Edge 270, Type (0, 0), BuildingBlock: EZIPEK_clean_linker_0, # of connection points: 2
#     Edge 271, Type (0, 0), BuildingBlock: EZIPEK_clean_linker_0, # of connection points: 2
#     Edge 272, Type (0, 0), BuildingBlock: EZIPEK_clean_linker_0, # of connection points: 2
#     Edge 273, Type (0, 0), BuildingBlock: EZIPEK_clean_linker_0, # of connection points: 2
#     Edge 274, Type (0, 0), BuildingBlock: EZIPEK_clean_linker_0, # of connection points: 2
#     Edge 275, Type (0, 0), BuildingBlock: EZIPEK_clean_linker_0, # of connection points: 2
#     Edge 276, Type (0, 0), BuildingBlock: EZIPEK_clean_linker_0, # of connection points: 2
#     Edge 277, Type (0, 0), BuildingBlock: EZIPEK_clean_linker_0, # of connection points: 2
#     Edge 278, Type (0, 0), BuildingBlock: EZIPEK_clean_linker_0, # of connection points: 2
#     Edge 279, Type (0, 0), BuildingBlock: EZIPEK_clean_linker_0, # of connection points: 2
#     Edge 280, Type (0, 0), BuildingBlock: EZIPEK_clean_linker_0, # of connection points: 2
#     Edge 281, Type (0, 0), BuildingBlock: EZIPEK_clean_linker_0, # of connection points: 2
#     Edge 282, Type (0, 0), BuildingBlock: EZIPEK_clean_linker_0, # of connection points: 2
#     Edge 283, Type (0, 0), BuildingBlock: EZIPEK_clean_linker_0, # of connection points: 2
#     Edge 284, Type (0, 0), BuildingBlock: EZIPEK_clean_linker_0, # of connection points: 2
#     Edge 285, Type (0, 0), BuildingBlock: EZIPEK_clean_linker_0, # of connection points: 2
#     Edge 286, Type (0, 0), BuildingBlock: EZIPEK_clean_linker_0, # of connection points: 2
#     Edge 287, Type (0, 0), BuildingBlock: EZIPEK_clean_linker_0, # of connection points: 2
# Relax obj value: 0.282
# Max RMSD: 0.133
# Mean RMSD: 0.131
data_MOF--net-wse--node1-KUFVIS_clean_sbu_0--edge1-EZIPEK_clean_linker_0
_symmetry_space_group_name_H-M    P1
_symmetry_Int_Tables_number       1
_symmetry_cell_setting            triclinic
loop_
_symmetry_equiv_pos_as_xyz
'x, y, z'
_cell_length_a     73.81391
_cell_length_b     73.797111
_cell_length_c     73.802392
_cell_angle_alpha  90.004894
_cell_angle_beta   90.032134
_cell_angle_gamma 90.033974
loop_
_atom_site_label
_atom_site_type_symbol
_atom_site_fract_x
_atom_site_fract_y
_atom_site_fract_z
_atom_type_partial_charge
Mn0 Mn 0.07149 0.17372 0.42892 0.0
Mn1 Mn 0.04512 0.1953 0.45633 0.0
C2 C 0.08193 0.17782 0.46025 0.0
C3 C 0.08549 0.14737 0.41687 0.0
C4 C 0.06687 0.21589 0.42803 0.0
O5 O 0.04425 0.17081 0.41691 0.0
O6 O 0.02885 0.18679 0.43742 0.0
C7 C 0.02264 0.16407 0.46841 0.0
N8 N 0.03382 0.17816 0.47235 0.0
C9 C 0.02059 0.17748 0.50499 0.0
C10 C 0.0104 0.1625 0.49946 0.0
C11 C 0.01162 0.15592 0.48167 0.0
C12 C 0.03579 0.18402 0.48905 0.0
H13 H 0.02233 0.15875 0.45494 0.0
C14 C 0.02895 0.17716 0.42333 0.0
O15 O 0.08561 0.16274 0.4084 0.0
O16 O 0.07491 0.1469 0.43088 0.0
N17 N 0.05905 0.20468 0.475 0.0
C18 C 0.0731 0.21638 0.47398 0.0
C19 C 0.07919 0.22582 0.48906 0.0
C20 C 0.07106 0.22378 0.50588 0.0
C21 C 0.05586 0.21165 0.5086 0.0
C22 C 0.05199 0.19942 0.49034 0.0
H23 H 0.08038 0.21791 0.46146 0.0
O24 O 0.09314 0.17588 0.44694 0.0
O25 O 0.06505 0.17786 0.45422 0.0
O26 O 0.07442 0.20147 0.42197 0.0
O27 O 0.05487 0.21466 0.44028 0.0
C28 C 0.03202 0.20282 0.53425 0.0
C29 C 0.01888 0.18558 0.52669 0.0
H30 H 0.00182 0.1554 0.50894 0.0
H31 H 0.00342 0.14437 0.47786 0.0
H32 H 0.09064 0.2349 0.48766 0.0
H33 H 0.07743 0.23186 0.51617 0.0
H34 H 0.03045 0.20715 0.54831 0.0
H35 H 0.01175 0.17789 0.53693 0.0
Mn36 Mn 0.82624 0.07091 0.41945 0.0
Mn37 Mn 0.79501 0.05367 0.44287 0.0
C38 C 0.81963 0.08548 0.44857 0.0
C39 C 0.85488 0.08165 0.41139 0.0
C40 C 0.78555 0.07675 0.41333 0.0
O41 O 0.82818 0.04255 0.41193 0.0
O42 O 0.80032 0.03786 0.4211 0.0
C43 C 0.82142 0.02642 0.45426 0.0
N44 N 0.80589 0.03565 0.45727 0.0
C45 C 0.80185 0.01791 0.48725 0.0
C46 C 0.81874 0.01048 0.48266 0.0
C47 C 0.82754 0.01337 0.46627 0.0
C48 C 0.79747 0.03509 0.47298 0.0
H49 H 0.83062 0.03086 0.444 0.0
C50 C 0.81498 0.03124 0.41468 0.0
O51 O 0.84168 0.08105 0.39983 0.0
O52 O 0.85224 0.07248 0.42615 0.0
N53 N 0.78631 0.06593 0.46339 0.0
C54 C 0.7764 0.08149 0.4641 0.0
C55 C 0.76603 0.08594 0.47919 0.0
C56 C 0.76629 0.07559 0.49502 0.0
C57 C 0.777 0.05912 0.49648 0.0
C58 C 0.78664 0.05421 0.47682 0.0
H59 H 0.77597 0.0908 0.45283 0.0
O60 O 0.82365 0.09482 0.43428 0.0
O61 O 0.81744 0.06817 0.4446 0.0
O62 O 0.80091 0.07409 0.40591 0.0
O63 O 0.78304 0.07187 0.42923 0.0
C64 C 0.78221 0.03207 0.51934 0.0
C65 C 0.79456 0.01574 0.50918 0.0
H66 H 0.82816 0.00922 0.49355 0.0
H67 H 0.84106 0.00799 0.46443 0.0
H68 H 0.75817 0.09833 0.47892 0.0
H69 H 0.75885 0.08186 0.50586 0.0
H70 H 0.78156 0.03138 0.53395 0.0
H71 H 0.80054 0.00672 0.51871 0.0
Mn72 Mn 0.92928 0.82687 0.43021 0.0
Mn73 Mn 0.95961 0.80957 0.45765 0.0
C74 C 0.92313 0.82725 0.46264 0.0
C75 C 0.91409 0.85025 0.41477 0.0
C76 C 0.93595 0.78552 0.43334 0.0
O77 O 0.95386 0.8276 0.41472 0.0
O78 O 0.97283 0.81659 0.43587 0.0
C79 C 0.98541 0.83961 0.46523 0.0
N80 N 0.97317 0.82737 0.47146 0.0
C81 C 0.99305 0.82515 0.5007 0.0
C82 C 0.00382 0.8387 0.49325 0.0
C83 C 0.9998 0.846 0.4761 0.0
C84 C 0.97388 0.82158 0.48848 0.0
H85 H 0.98418 0.84455 0.45166 0.0
C86 C 0.96996 0.82302 0.4202 0.0
O87 O 0.91336 0.83354 0.40955 0.0
O88 O 0.92535 0.85358 0.42791 0.0
N89 N 0.94772 0.80246 0.47853 0.0
C90 C 0.93314 0.79147 0.47954 0.0
C91 C 0.92794 0.78364 0.49574 0.0
C92 C 0.9382 0.7859 0.51127 0.0
C93 C 0.95521 0.79569 0.51108 0.0
C94 C 0.95672 0.80814 0.49281 0.0
H95 H 0.92455 0.78984 0.46788 0.0
O96 O 0.91026 0.82738 0.45068 0.0
O97 O 0.93923 0.82644 0.45487 0.0
O98 O 0.92678 0.79875 0.42711 0.0
O99 O 0.94874 0.78834 0.44456 0.0
C100 C 0.9849 0.79972 0.53122 0.0
C101 C 0.99896 0.81524 0.52085 0.0
H102 H 0.01559 0.84335 0.50056 0.0
H103 H 0.00869 0.85625 0.47055 0.0
H104 H 0.91562 0.77567 0.49624 0.0
H105 H 0.93222 0.77937 0.52267 0.0
H106 H 0.98817 0.79538 0.54499 0.0
H107 H 0.01136 0.8193 0.52756 0.0
Mn108 Mn 0.1719 0.92506 0.4203 0.0
Mn109 Mn 0.20495 0.94501 0.44044 0.0
C110 C 0.17596 0.92093 0.45295 0.0
C111 C 0.14312 0.91559 0.41065 0.0
C112 C 0.21292 0.9164 0.41442 0.0
O113 O 0.17307 0.95068 0.40675 0.0
O114 O 0.19891 0.96069 0.41925 0.0
C115 C 0.19344 0.98096 0.44954 0.0
N116 N 0.19873 0.96438 0.45527 0.0
C117 C 0.22397 0.98004 0.47376 0.0
C118 C 0.21782 0.99617 0.46597 0.0
C119 C 0.20304 0.99654 0.45417 0.0
C120 C 0.21203 0.96206 0.46699 0.0
H121 H 0.18176 0.98214 0.441 0.0
C122 C 0.18465 0.96363 0.40979 0.0
O123 O 0.15765 0.91214 0.40171 0.0
O124 O 0.14494 0.9269 0.42405 0.0
N125 N 0.2109 0.93 0.46053 0.0
C126 C 0.21555 0.91216 0.46131 0.0
C127 C 0.22213 0.90442 0.47736 0.0
C128 C 0.22635 0.91488 0.49262 0.0
C129 C 0.22577 0.93436 0.4915 0.0
C130 C 0.213 0.94104 0.4741 0.0
H131 H 0.21321 0.90348 0.44981 0.0
O132 O 0.17083 0.90759 0.44263 0.0
O133 O 0.18071 0.93488 0.44322 0.0
O134 O 0.19652 0.91445 0.40951 0.0
O135 O 0.21689 0.92759 0.42618 0.0
C136 C 0.24466 0.96219 0.50319 0.0
C137 C 0.2397 0.98051 0.49034 0.0
H138 H 0.22361 0.0089 0.46958 0.0
H139 H 0.19888 0.00923 0.44828 0.0
H140 H 0.2243 0.88992 0.47785 0.0
H141 H 0.23162 0.90744 0.50409 0.0
H142 H 0.25606 0.96328 0.51261 0.0
H143 H 0.25053 0.98966 0.48953 0.0
Mn144 Mn 0.07732 0.82343 0.56429 0.0
Mn145 Mn 0.06271 0.79695 0.55251 0.0
C146 C 0.07858 0.82405 0.53093 0.0
C147 C 0.09434 0.84985 0.57222 0.0
C148 C 0.07841 0.77915 0.5753 0.0
O149 O 0.05542 0.82712 0.58277 0.0
O150 O 0.04246 0.80552 0.568 0.0
C151 C 0.02671 0.78369 0.5428 0.0
N152 N 0.04461 0.7846 0.53875 0.0
C153 C 0.03728 0.76244 0.51221 0.0
C154 C 0.01983 0.76481 0.51681 0.0
C155 C 0.01487 0.77382 0.5323 0.0
C156 C 0.05154 0.77461 0.52535 0.0
H157 H 0.02085 0.78981 0.55462 0.0
C158 C 0.04104 0.81802 0.57948 0.0
O159 O 0.09632 0.83459 0.58036 0.0
O160 O 0.08028 0.85081 0.56177 0.0
N161 N 0.08094 0.78747 0.53552 0.0
C162 C 0.09935 0.78865 0.53544 0.0
C163 C 0.1096 0.78524 0.51969 0.0
C164 C 0.10196 0.78021 0.50295 0.0
C165 C 0.08321 0.77524 0.50179 0.0
C166 C 0.07247 0.78032 0.52135 0.0
H167 H 0.10635 0.79403 0.54705 0.0
O168 O 0.09246 0.82365 0.54156 0.0
O169 O 0.06349 0.81958 0.53915 0.0
O170 O 0.08521 0.79551 0.57405 0.0
O171 O 0.06419 0.77593 0.56669 0.0
C172 C 0.06096 0.75601 0.48106 0.0
C173 C 0.04095 0.75345 0.49155 0.0
H174 H 0.01017 0.76048 0.50737 0.0
H175 H 0.0017 0.77158 0.53758 0.0
H176 H 0.12408 0.78756 0.52029 0.0
H177 H 0.11137 0.77936 0.49179 0.0
H178 H 0.06257 0.7495 0.46782 0.0
H179 H 0.02997 0.74718 0.48419 0.0
Mn180 Mn 0.17346 0.07507 0.57658 0.0
Mn181 Mn 0.20647 0.05438 0.55816 0.0
C182 C 0.17694 0.07877 0.54376 0.0
C183 C 0.14504 0.08548 0.58618 0.0
C184 C 0.21477 0.08254 0.58478 0.0
O185 O 0.17402 0.04971 0.5907 0.0
O186 O 0.19926 0.038 0.57837 0.0
C187 C 0.19953 0.0179 0.54716 0.0
N188 N 0.20206 0.03534 0.54206 0.0
C189 C 0.22333 0.02294 0.51705 0.0
C190 C 0.21924 0.00585 0.52369 0.0
C191 C 0.20853 0.00368 0.53896 0.0
C192 C 0.21262 0.03957 0.5283 0.0
H193 H 0.19162 0.01465 0.55866 0.0
C194 C 0.18484 0.0361 0.58778 0.0
O195 O 0.15966 0.08856 0.59507 0.0
O196 O 0.14639 0.07375 0.5731 0.0
N197 N 0.21256 0.07064 0.5392 0.0
C198 C 0.21597 0.08876 0.53969 0.0
C199 C 0.22009 0.09854 0.52398 0.0
C200 C 0.2222 0.09018 0.50712 0.0
C201 C 0.22189 0.07073 0.5058 0.0
C202 C 0.21232 0.06144 0.52411 0.0
H203 H 0.21431 0.09614 0.55207 0.0
O204 O 0.17232 0.09217 0.55424 0.0
O205 O 0.18184 0.06459 0.55355 0.0
O206 O 0.19813 0.08645 0.58717 0.0
O207 O 0.21884 0.07025 0.57422 0.0
C208 C 0.23872 0.04502 0.48754 0.0
C209 C 0.23547 0.02501 0.49787 0.0
H210 H 0.22442 0.99392 0.51746 0.0
H211 H 0.20792 0.99076 0.54555 0.0
H212 H 0.22167 0.1131 0.52493 0.0
H213 H 0.22555 0.09916 0.49605 0.0
H214 H 0.24782 0.0455 0.47603 0.0
H215 H 0.24157 0.01418 0.49166 0.0
Mn216 Mn 0.92969 0.17887 0.5759 0.0
Mn217 Mn 0.94846 0.21512 0.5589 0.0
C218 C 0.91956 0.18716 0.54562 0.0
C219 C 0.92093 0.14848 0.58158 0.0
C220 C 0.92227 0.21829 0.58886 0.0
O221 O 0.95678 0.17877 0.58761 0.0
O222 O 0.96673 0.2051 0.57627 0.0
C223 C 0.97535 0.19509 0.54032 0.0
N224 N 0.96521 0.2102 0.5409 0.0
C225 C 0.9765 0.21798 0.50864 0.0
C226 C 0.98644 0.20213 0.51008 0.0
C227 C 0.98337 0.19006 0.52435 0.0
C228 C 0.96219 0.22027 0.52635 0.0
H229 H 0.97397 0.18493 0.55065 0.0
C230 C 0.96985 0.19044 0.58495 0.0
O231 O 0.91857 0.16128 0.59321 0.0
O232 O 0.93132 0.15277 0.56808 0.0
N233 N 0.93239 0.22601 0.54196 0.0
C234 C 0.91485 0.23122 0.54377 0.0
C235 C 0.90475 0.238 0.52914 0.0
C236 C 0.9114 0.2387 0.51139 0.0
C237 C 0.92978 0.23367 0.50747 0.0
C238 C 0.94084 0.22727 0.5264 0.0
H239 H 0.90809 0.22953 0.55644 0.0
O240 O 0.9088 0.18037 0.55772 0.0
O241 O 0.93574 0.19115 0.55266 0.0
O242 O 0.91927 0.20139 0.59009 0.0
O243 O 0.93343 0.22435 0.57778 0.0
C244 C 0.95267 0.23157 0.4797 0.0
C245 C 0.97289 0.22356 0.48691 0.0
H246 H 0.99149 0.19622 0.4977 0.0
H247 H 0.98583 0.17583 0.52257 0.0
H248 H 0.89082 0.24191 0.53154 0.0
H249 H 0.90172 0.24313 0.50134 0.0
H250 H 0.95087 0.23388 0.46514 0.0
H251 H 0.9827 0.21951 0.47683 0.0
Mn252 Mn 0.82811 0.92586 0.57705 0.0
Mn253 Mn 0.79645 0.94579 0.55509 0.0
C254 C 0.81998 0.91398 0.54681 0.0
C255 C 0.85722 0.91576 0.58561 0.0
C256 C 0.78722 0.92134 0.58479 0.0
O257 O 0.82972 0.95408 0.5864 0.0
O258 O 0.80364 0.96285 0.57439 0.0
C259 C 0.82349 0.97127 0.54112 0.0
N260 N 0.80815 0.96136 0.53892 0.0
C261 C 0.80398 0.97564 0.50754 0.0
C262 C 0.82155 0.98238 0.5104 0.0
C263 C 0.83051 0.98146 0.52697 0.0
C264 C 0.80008 0.9598 0.52324 0.0
H265 H 0.83187 0.96947 0.55281 0.0
C266 C 0.81788 0.96685 0.58311 0.0
O267 O 0.84349 0.91508 0.59641 0.0
O268 O 0.85457 0.92492 0.57081 0.0
N269 N 0.78652 0.93146 0.53649 0.0
C270 C 0.77538 0.91676 0.53755 0.0
C271 C 0.76705 0.90949 0.52218 0.0
C272 C 0.76876 0.91731 0.50507 0.0
C273 C 0.77777 0.93447 0.50276 0.0
C274 C 0.78865 0.94061 0.52151 0.0
H275 H 0.77316 0.90981 0.5502 0.0
O276 O 0.8256 0.90346 0.55973 0.0
O277 O 0.81821 0.93064 0.55281 0.0
O278 O 0.80345 0.91969 0.59039 0.0
O279 O 0.78366 0.9308 0.57127 0.0
C280 C 0.78168 0.96031 0.47818 0.0
C281 C 0.79502 0.97673 0.48631 0.0
H282 H 0.83039 0.9831 0.49885 0.0
H283 H 0.84412 0.98681 0.52813 0.0
H284 H 0.75916 0.89719 0.5236 0.0
H285 H 0.76218 0.90981 0.49438 0.0
H286 H 0.77904 0.96075 0.46376 0.0
H287 H 0.8002 0.9851 0.47577 0.0
Mn288 Mn 0.42267 0.07768 0.17215 0.0
Mn289 Mn 0.44094 0.05976 0.20655 0.0
C290 C 0.45363 0.08539 0.17924 0.0
C291 C 0.41615 0.09058 0.14346 0.0
C292 C 0.41488 0.08593 0.21116 0.0
O293 O 0.41209 0.05168 0.16885 0.0
O294 O 0.41769 0.04734 0.19794 0.0
C295 C 0.44947 0.02286 0.19223 0.0
N296 N 0.45247 0.03668 0.20389 0.0
C297 C 0.47489 0.01514 0.22025 0.0
C298 C 0.46579 0.00132 0.21156 0.0
C299 C 0.45522 0.0052 0.19634 0.0
C300 C 0.46594 0.03556 0.21566 0.0
H301 H 0.44349 0.02558 0.1793 0.0
C302 C 0.41254 0.04088 0.18252 0.0
O303 O 0.40489 0.09113 0.15683 0.0
O304 O 0.4301 0.08018 0.14604 0.0
N305 N 0.46233 0.06938 0.21725 0.0
C306 C 0.46497 0.08611 0.22475 0.0
C307 C 0.48026 0.09014 0.23494 0.0
C308 C 0.49442 0.07789 0.23712 0.0
C309 C 0.49279 0.05916 0.23171 0.0
C310 C 0.47338 0.05572 0.22096 0.0
H311 H 0.45556 0.0971 0.22294 0.0
O312 O 0.44149 0.09778 0.17605 0.0
O313 O 0.44682 0.06921 0.18221 0.0
O314 O 0.40707 0.08078 0.19683 0.0
O315 O 0.43125 0.08367 0.21082 0.0
C316 C 0.50813 0.02785 0.23882 0.0
C317 C 0.49472 0.01068 0.2309 0.0
H318 H 0.46911 0.98768 0.21467 0.0
H319 H 0.45251 0.99445 0.18692 0.0
H320 H 0.48183 0.10378 0.24015 0.0
H321 H 0.50616 0.08396 0.24324 0.0
H322 H 0.5193 0.02425 0.24656 0.0
H323 H 0.49886 0.99684 0.23257 0.0
Mn324 Mn 0.92883 0.42772 0.17919 0.0
Mn325 Mn 0.95566 0.44956 0.20314 0.0
C326 C 0.92116 0.46001 0.18199 0.0
C327 C 0.91465 0.41654 0.15319 0.0
C328 C 0.93323 0.42191 0.21893 0.0
O329 O 0.95554 0.41336 0.17878 0.0
O330 O 0.9728 0.43598 0.18913 0.0
C331 C 0.97541 0.47207 0.17854 0.0
N332 N 0.96791 0.46963 0.19504 0.0
C333 C 0.98021 0.50074 0.20503 0.0
C334 C 0.9865 0.50208 0.18723 0.0
C335 C 0.9825 0.48885 0.17398 0.0
C336 C 0.96685 0.48232 0.20741 0.0
H337 H 0.97361 0.46198 0.16806 0.0
C338 C 0.9716 0.42063 0.18192 0.0
O339 O 0.91341 0.40822 0.16855 0.0
O340 O 0.92749 0.4285 0.15204 0.0
N341 N 0.9394 0.46421 0.2174 0.0
C342 C 0.92226 0.46184 0.22394 0.0
C343 C 0.91301 0.47534 0.23357 0.0
C344 C 0.91942 0.49302 0.23536 0.0
C345 C 0.93669 0.49801 0.22805 0.0
C346 C 0.94697 0.48037 0.21786 0.0
H347 H 0.91462 0.44987 0.22129 0.0
O348 O 0.90914 0.44752 0.17941 0.0
O349 O 0.93771 0.45289 0.18298 0.0
O350 O 0.92144 0.42232 0.20655 0.0
O351 O 0.94848 0.42646 0.21382 0.0
C352 C 0.95868 0.5267 0.22583 0.0
C353 C 0.97746 0.52133 0.21426 0.0
H354 H 0.99088 0.51527 0.18252 0.0
H355 H 0.98394 0.49177 0.15979 0.0
H356 H 0.89969 0.47221 0.23887 0.0
H357 H 0.91036 0.50218 0.2423 0.0
H358 H 0.95634 0.54112 0.22833 0.0
H359 H 0.98641 0.53227 0.21033 0.0
Mn360 Mn 0.57658 0.92569 0.17226 0.0
Mn361 Mn 0.56465 0.9455 0.20631 0.0
C362 C 0.54448 0.92569 0.1763 0.0
C363 C 0.5834 0.91387 0.14317 0.0
C364 C 0.58822 0.91851 0.2083 0.0
O365 O 0.59274 0.95097 0.17294 0.0
O366 O 0.57968 0.96413 0.19718 0.0
C367 C 0.55246 0.98138 0.21426 0.0
N368 N 0.54878 0.96328 0.21457 0.0
C369 C 0.52691 0.96969 0.24085 0.0
C370 C 0.53364 0.98713 0.24057 0.0
C371 C 0.54542 0.99308 0.22708 0.0
C372 C 0.53784 0.95592 0.22668 0.0
H373 H 0.56088 0.98734 0.20396 0.0
C374 C 0.58956 0.96518 0.18332 0.0
O375 O 0.59269 0.90989 0.15729 0.0
O376 O 0.57292 0.92781 0.14501 0.0
N377 N 0.54738 0.92643 0.21423 0.0
C378 C 0.54597 0.9081 0.21171 0.0
C379 C 0.53002 0.89831 0.21528 0.0
C380 C 0.51385 0.90623 0.22109 0.0
C381 C 0.51353 0.92484 0.22644 0.0
C382 C 0.53304 0.93532 0.22054 0.0
H383 H 0.55641 0.90031 0.20568 0.0
O384 O 0.55363 0.91182 0.17073 0.0
O385 O 0.55448 0.93958 0.1816 0.0
O386 O 0.58362 0.90807 0.196 0.0
O387 O 0.58571 0.93287 0.20116 0.0
C388 C 0.49529 0.94636 0.24842 0.0
C389 C 0.50714 0.96593 0.25144 0.0
H390 H 0.52766 0.99675 0.24896 0.0
H391 H 0.54861 0.00727 0.22563 0.0
H392 H 0.53 0.88389 0.2125 0.0
H393 H 0.5025 0.89706 0.22225 0.0
H394 H 0.48379 0.94379 0.2573 0.0
H395 H 0.50289 0.9757 0.2611 0.0
Mn396 Mn 0.06991 0.57738 0.1709 0.0
Mn397 Mn 0.04448 0.55058 0.19422 0.0
C398 C 0.08096 0.54636 0.17738 0.0
C399 C 0.08281 0.58775 0.14375 0.0
C400 C 0.06698 0.58017 0.21225 0.0
O401 O 0.04244 0.58932 0.16836 0.0
O402 O 0.02792 0.56914 0.18533 0.0
C403 C 0.02535 0.53855 0.16106 0.0
N404 N 0.03405 0.53455 0.1768 0.0
C405 C 0.02181 0.50206 0.17389 0.0
C406 C 0.01518 0.50714 0.15683 0.0
C407 C 0.01688 0.52503 0.15066 0.0
C408 C 0.03637 0.51773 0.18201 0.0
H409 H 0.02563 0.55214 0.15589 0.0
C410 C 0.0274 0.58304 0.17548 0.0
O411 O 0.08319 0.59737 0.15843 0.0
O412 O 0.07226 0.5737 0.14429 0.0
N413 N 0.05764 0.53172 0.20497 0.0
C414 C 0.06824 0.5328 0.22003 0.0
C415 C 0.07371 0.51742 0.22935 0.0
C416 C 0.06721 0.5003 0.22499 0.0
C417 C 0.05347 0.49775 0.21126 0.0
C418 C 0.0512 0.5162 0.19873 0.0
H419 H 0.07341 0.54556 0.2248 0.0
O420 O 0.09194 0.55952 0.17371 0.0
O421 O 0.06419 0.5523 0.1771 0.0
O422 O 0.07381 0.58621 0.19761 0.0
O423 O 0.05513 0.56753 0.2119 0.0
C424 C 0.0297 0.47271 0.20044 0.0
C425 C 0.01827 0.48057 0.18213 0.0
H426 H 0.0094 0.49714 0.14786 0.0
H427 H 0.01123 0.5286 0.1376 0.0
H428 H 0.08315 0.51887 0.2405 0.0
H429 H 0.07307 0.48973 0.23311 0.0
H430 H 0.02692 0.4589 0.20511 0.0
H431 H 0.01101 0.47065 0.1742 0.0
Mn432 Mn 0.42274 0.92654 0.82881 0.0
Mn433 Mn 0.43755 0.94834 0.79356 0.0
C434 C 0.45417 0.92368 0.82187 0.0
C435 C 0.41682 0.91616 0.85831 0.0
C436 C 0.41196 0.91835 0.78892 0.0
O437 O 0.40753 0.95109 0.82888 0.0
O438 O 0.41778 0.96341 0.80287 0.0
C439 C 0.44808 0.98584 0.79865 0.0
N440 N 0.45329 0.96843 0.79568 0.0
C441 C 0.47874 0.98195 0.77553 0.0
C442 C 0.47267 0.99863 0.78056 0.0
C443 C 0.45717 1.00056 0.79109 0.0
C444 C 0.46697 0.96476 0.7847 0.0
H445 H 0.43631 0.98885 0.80638 0.0
C446 C 0.40947 0.96479 0.81794 0.0
O447 O 0.40653 0.9124 0.84476 0.0
O448 O 0.42887 0.92868 0.85536 0.0
N449 N 0.45646 0.93311 0.78525 0.0
C450 C 0.45659 0.91493 0.78241 0.0
C451 C 0.47205 0.90584 0.77635 0.0
C452 C 0.48822 0.91481 0.77248 0.0
C453 C 0.4893 0.93428 0.77345 0.0
C454 C 0.47102 0.94296 0.78352 0.0
H455 H 0.44517 0.90695 0.78629 0.0
O456 O 0.4448 0.91017 0.82817 0.0
O457 O 0.44409 0.93787 0.81776 0.0
O458 O 0.41158 0.91386 0.80551 0.0
O459 O 0.4209 0.93158 0.78399 0.0
C460 C 0.508 0.96079 0.7592 0.0
C461 C 0.49818 0.98079 0.76385 0.0
H462 H 0.48076 0.01002 0.77674 0.0
H463 H 0.4517 0.0138 0.79331 0.0
H464 H 0.47156 0.89124 0.77502 0.0
H465 H 0.49914 0.90608 0.76814 0.0
H466 H 0.5174 0.96061 0.74898 0.0
H467 H 0.50507 0.99309 0.76051 0.0
Mn468 Mn 0.07816 0.42993 0.82551 0.0
Mn469 Mn 0.04814 0.45698 0.80853 0.0
C470 C 0.0861 0.46204 0.82068 0.0
C471 C 0.09486 0.41865 0.85078 0.0
C472 C 0.06775 0.4295 0.78535 0.0
O473 O 0.05203 0.41567 0.82919 0.0
O474 O 0.03394 0.43778 0.81927 0.0
C475 C 0.03343 0.46794 0.84394 0.0
N476 N 0.03995 0.47219 0.82728 0.0
C477 C 0.02277 0.5022 0.82886 0.0
C478 C 0.02037 0.49818 0.84732 0.0
C479 C 0.02506 0.48123 0.85459 0.0
C480 C 0.03906 0.48864 0.82073 0.0
H481 H 0.03551 0.45456 0.84944 0.0
C482 C 0.0358 0.42226 0.82601 0.0
O483 O 0.09469 0.41036 0.83527 0.0
O484 O 0.08321 0.43168 0.85208 0.0
N485 N 0.05951 0.47638 0.79656 0.0
C486 C 0.06876 0.47588 0.78062 0.0
C487 C 0.07265 0.49163 0.77103 0.0
C488 C 0.06516 0.50824 0.77581 0.0
C489 C 0.05179 0.50949 0.79003 0.0
C490 C 0.05266 0.49147 0.80328 0.0
H491 H 0.07426 0.46343 0.77547 0.0
O492 O 0.0984 0.44965 0.8219 0.0
O493 O 0.07 0.45479 0.82242 0.0
O494 O 0.07858 0.42407 0.7977 0.0
O495 O 0.0555 0.44098 0.78898 0.0
C496 C 0.02496 0.53106 0.8007 0.0
C497 C 0.01536 0.52225 0.81975 0.0
H498 H 0.01608 0.50871 0.85656 0.0
H499 H 0.02196 0.47831 0.86862 0.0
H500 H 0.08145 0.49085 0.75932 0.0
H501 H 0.06957 0.5193 0.76745 0.0
H502 H 0.02043 0.5444 0.79616 0.0
H503 H 0.00652 0.53109 0.82722 0.0
Mn504 Mn 0.58048 0.07134 0.83105 0.0
Mn505 Mn 0.56207 0.05918 0.79763 0.0
C506 C 0.54683 0.07492 0.82822 0.0
C507 C 0.58952 0.08688 0.85734 0.0
C508 C 0.5883 0.08144 0.79363 0.0
O509 O 0.59142 0.0464 0.83428 0.0
O510 O 0.58325 0.04227 0.8053 0.0
C511 C 0.55641 0.0201 0.79104 0.0
N512 N 0.54981 0.03733 0.79129 0.0
C513 C 0.52868 0.02717 0.76494 0.0
C514 C 0.5381 0.01098 0.76514 0.0
C515 C 0.55097 0.00723 0.77833 0.0
C516 C 0.5367 0.04232 0.78006 0.0
H517 H 0.56645 0.01585 0.80023 0.0
C518 C 0.58903 0.03583 0.82069 0.0
O519 O 0.59964 0.08575 0.84328 0.0
O520 O 0.5756 0.07609 0.85768 0.0
N521 N 0.54135 0.07361 0.79148 0.0
C522 C 0.5388 0.09204 0.79184 0.0
C523 C 0.52231 0.10001 0.78729 0.0
C524 C 0.5078 0.09004 0.78072 0.0
C525 C 0.51022 0.07136 0.77578 0.0
C526 C 0.52902 0.06271 0.7849 0.0
H527 H 0.54897 0.10126 0.79682 0.0
O528 O 0.55782 0.08859 0.82975 0.0
O529 O 0.55555 0.06066 0.82306 0.0
O530 O 0.59612 0.0725 0.80556 0.0
O531 O 0.57304 0.08286 0.79931 0.0
C532 C 0.49687 0.04805 0.7522 0.0
C533 C 0.51021 0.0292 0.75154 0.0
H534 H 0.53505 0.00066 0.75576 0.0
H535 H 0.55732 0.99401 0.77855 0.0
H536 H 0.52071 0.11447 0.78917 0.0
H537 H 0.49568 0.09786 0.77827 0.0
H538 H 0.48628 0.04927 0.74207 0.0
H539 H 0.50789 0.01909 0.74133 0.0
Mn540 Mn 0.92612 0.57452 0.82589 0.0
Mn541 Mn 0.95423 0.54832 0.80487 0.0
C542 C 0.91775 0.54247 0.8213 0.0
C543 C 0.90954 0.58625 0.84999 0.0
C544 C 0.93153 0.57515 0.78429 0.0
O545 O 0.95244 0.58823 0.82923 0.0
O546 O 0.96906 0.5687 0.81324 0.0
C547 C 0.97117 0.53908 0.84004 0.0
N548 N 0.96508 0.53423 0.82342 0.0
C549 C 0.98152 0.5039 0.82652 0.0
C550 C 0.98451 0.50903 0.84464 0.0
C551 C 0.97971 0.52628 0.85124 0.0
C552 C 0.96508 0.51723 0.81841 0.0
H553 H 0.968 0.55227 0.84524 0.0
C554 C 0.96809 0.58291 0.82272 0.0
O555 O 0.9112 0.5951 0.83497 0.0
O556 O 0.92068 0.57281 0.85243 0.0
N557 N 0.94239 0.5279 0.79556 0.0
C558 C 0.93093 0.52712 0.78116 0.0
C559 C 0.92536 0.51059 0.77414 0.0
C560 C 0.93317 0.49444 0.77982 0.0
C561 C 0.94879 0.49422 0.7916 0.0
C562 C 0.94987 0.5133 0.80284 0.0
H563 H 0.9251 0.53916 0.77545 0.0
O564 O 0.90561 0.555 0.82293 0.0
O565 O 0.93402 0.5497 0.82175 0.0
O566 O 0.92414 0.58125 0.79862 0.0
O567 O 0.94379 0.56308 0.78491 0.0
C568 C 0.97601 0.47247 0.80155 0.0
C569 C 0.98775 0.48286 0.81876 0.0
H570 H 0.98807 0.49873 0.8544 0.0
H571 H 0.98248 0.52968 0.86523 0.0
H572 H 0.91474 0.51032 0.76401 0.0
H573 H 0.92649 0.4827 0.7746 0.0
H574 H 0.98006 0.4589 0.79718 0.0
H575 H 0.9977 0.47497 0.826 0.0
Mn576 Mn 0.16829 0.42964 0.07365 0.0
Mn577 Mn 0.2051 0.44584 0.0648 0.0
C578 C 0.17325 0.46167 0.08158 0.0
C579 C 0.13935 0.42135 0.08435 0.0
C580 C 0.20449 0.41942 0.08819 0.0
O581 O 0.16756 0.4202 0.04724 0.0
O582 O 0.19718 0.42394 0.04845 0.0
C583 C 0.21517 0.44764 0.02689 0.0
N584 N 0.21157 0.4568 0.04249 0.0
C585 C 0.22907 0.48333 0.02768 0.0
C586 C 0.22722 0.47401 0.01184 0.0
C587 C 0.22145 0.45614 0.01155 0.0
C588 C 0.21937 0.47275 0.04539 0.0
H589 H 0.21487 0.4332 0.02604 0.0
C590 C 0.18269 0.42099 0.03875 0.0
O591 O 0.15294 0.41056 0.08451 0.0
O592 O 0.14164 0.43604 0.07487 0.0
N593 N 0.2126 0.46689 0.07814 0.0
C594 C 0.21333 0.46968 0.09645 0.0
C595 C 0.22052 0.48542 0.10398 0.0
C596 C 0.22718 0.49965 0.09355 0.0
C597 C 0.2265 0.49924 0.07395 0.0
C598 C 0.21809 0.47939 0.06663 0.0
H599 H 0.20836 0.45986 0.10602 0.0
O600 O 0.16902 0.44954 0.0937 0.0
O601 O 0.17953 0.45432 0.06662 0.0
O602 O 0.19203 0.4126 0.07887 0.0
O603 O 0.202 0.43564 0.08866 0.0
C604 C 0.24141 0.51643 0.0464 0.0
C605 C 0.23882 0.50405 0.02724 0.0
H606 H 0.23196 0.48018 0.99981 0.0
H607 H 0.22271 0.44819 0.99929 0.0
H608 H 0.22081 0.48668 0.1186 0.0
H609 H 0.23176 0.51099 0.10159 0.0
H610 H 0.25002 0.5281 0.04635 0.0
H611 H 0.24287 0.50973 0.01453 0.0
Mn612 Mn 0.16969 0.57987 0.92497 0.0
Mn613 Mn 0.1819 0.55303 0.95667 0.0
C614 C 0.17012 0.54748 0.91821 0.0
C615 C 0.14816 0.5962 0.9083 0.0
C616 C 0.20802 0.57836 0.93745 0.0
O617 O 0.16926 0.59518 0.95036 0.0
O618 O 0.16843 0.57135 0.96892 0.0
C619 C 0.1503 0.53947 0.97697 0.0
N620 N 0.16488 0.53594 0.96619 0.0
C621 C 0.17131 0.50813 0.98702 0.0
C622 C 0.15538 0.51253 0.99616 0.0
C623 C 0.14506 0.52767 0.99103 0.0
C624 C 0.17451 0.52103 0.96824 0.0
H625 H 0.14267 0.55184 0.97511 0.0
C626 C 0.16796 0.58815 0.96656 0.0
O627 O 0.16503 0.6009 0.90884 0.0
O628 O 0.14348 0.58344 0.91954 0.0
N629 N 0.19487 0.5348 0.94487 0.0
C630 C 0.2084 0.53623 0.93242 0.0
C631 C 0.21893 0.52148 0.92761 0.0
C632 C 0.21741 0.50512 0.93662 0.0
C633 C 0.20559 0.50328 0.95217 0.0
C634 C 0.19027 0.51938 0.95245 0.0
H635 H 0.21019 0.54821 0.92453 0.0
O636 O 0.17005 0.55957 0.90549 0.0
O637 O 0.16861 0.55511 0.93422 0.0
O638 O 0.1976 0.58087 0.92406 0.0
O639 O 0.20175 0.57047 0.95134 0.0
C640 C 0.20209 0.48256 0.98111 0.0
C641 C 0.18384 0.48981 0.99363 0.0
H642 H 0.15091 0.50428 0.00743 0.0
H643 H 0.13308 0.53093 0.99883 0.0
H644 H 0.22864 0.52285 0.9167 0.0
H645 H 0.22653 0.49492 0.93159 0.0
H646 H 0.20776 0.46949 0.98416 0.0
H647 H 0.1792 0.48162 0.00486 0.0
Mn648 Mn 0.44064 0.17524 0.928 0.0
Mn649 Mn 0.45241 0.20183 0.94022 0.0
C650 C 0.47398 0.17304 0.92749 0.0
C651 C 0.42942 0.14961 0.91127 0.0
C652 C 0.43003 0.2182 0.92239 0.0
O653 O 0.42186 0.1744 0.94973 0.0
O654 O 0.43843 0.19522 0.96179 0.0
C655 C 0.45849 0.22504 0.9719 0.0
N656 N 0.46476 0.21891 0.95559 0.0
C657 C 0.48641 0.24668 0.95621 0.0
C658 C 0.47762 0.2521 0.97146 0.0
C659 C 0.46421 0.24141 0.97932 0.0
C660 C 0.4766 0.22883 0.9461 0.0
H661 H 0.44805 0.2181 0.97934 0.0
C662 C 0.42602 0.18383 0.96362 0.0
O663 O 0.42238 0.16534 0.91036 0.0
O664 O 0.44084 0.14759 0.9244 0.0
N665 N 0.469 0.2091 0.92038 0.0
C666 C 0.46963 0.20501 0.90235 0.0
C667 C 0.48561 0.20698 0.89208 0.0
C668 C 0.5018 0.2143 0.89897 0.0
C669 C 0.5019 0.22308 0.91627 0.0
C670 C 0.48249 0.21847 0.92761 0.0
H671 H 0.4583 0.19848 0.89586 0.0
O672 O 0.46351 0.17198 0.91351 0.0
O673 O 0.466 0.17948 0.94189 0.0
O674 O 0.43226 0.20186 0.91626 0.0
O675 O 0.43735 0.2219 0.93701 0.0
C676 C 0.51861 0.25015 0.93284 0.0
C677 C 0.50603 0.25698 0.95082 0.0
H678 H 0.48208 0.26427 0.97742 0.0
H679 H 0.45795 0.24565 0.99167 0.0
H680 H 0.48554 0.2021 0.87824 0.0
H681 H 0.51307 0.21443 0.88966 0.0
H682 H 0.53057 0.25827 0.92948 0.0
H683 H 0.50957 0.26911 0.95791 0.0
Mn684 Mn 0.83574 0.42632 0.93616 0.0
Mn685 Mn 0.81815 0.4527 0.96604 0.0
C686 C 0.83498 0.45838 0.92907 0.0
C687 C 0.85981 0.41192 0.92142 0.0
C688 C 0.79629 0.42611 0.94407 0.0
O689 O 0.83385 0.41135 0.96148 0.0
O690 O 0.83147 0.43525 0.98012 0.0
C691 C 0.84431 0.46999 0.99102 0.0
N692 N 0.8312 0.47161 0.97817 0.0
C693 C 0.81935 0.49983 0.99632 0.0
C694 C 0.83391 0.4971 0.00794 0.0
C695 C 0.84651 0.48308 0.00478 0.0
C696 C 0.81988 0.48553 0.97831 0.0
H697 H 0.85335 0.45846 0.9908 0.0
C698 C 0.83281 0.41837 0.97771 0.0
O699 O 0.84342 0.40569 0.92047 0.0
O700 O 0.86253 0.42408 0.93385 0.0
N701 N 0.80553 0.46993 0.95204 0.0
C702 C 0.79542 0.46774 0.93679 0.0
C703 C 0.78584 0.48198 0.92917 0.0
C704 C 0.78487 0.49875 0.93752 0.0
C705 C 0.79291 0.50183 0.9551 0.0
C706 C 0.80771 0.48586 0.95976 0.0
H707 H 0.7959 0.45555 0.92906 0.0
O708 O 0.83703 0.44611 0.91672 0.0
O709 O 0.83473 0.4513 0.94547 0.0
O710 O 0.80804 0.42416 0.93173 0.0
O711 O 0.80113 0.43328 0.95877 0.0
C712 C 0.79049 0.52473 0.98259 0.0
C713 C 0.80574 0.51842 0.9991 0.0
H714 H 0.83603 0.50657 0.01881 0.0
H715 H 0.85819 0.48195 0.01353 0.0
H716 H 0.77897 0.47992 0.91637 0.0
H717 H 0.77731 0.50846 0.92983 0.0
H718 H 0.78254 0.53691 0.98478 0.0
H719 H 0.80742 0.52689 0.01093 0.0
Mn720 Mn 0.57725 0.83148 0.92591 0.0
Mn721 Mn 0.5618 0.79629 0.94717 0.0
C722 C 0.54568 0.82473 0.92271 0.0
C723 C 0.58335 0.86088 0.91549 0.0
C724 C 0.58749 0.79154 0.91739 0.0
O725 O 0.59232 0.83116 0.95069 0.0
O726 O 0.58169 0.80501 0.96233 0.0
C727 C 0.55098 0.80338 0.98424 0.0
N728 N 0.5461 0.79914 0.96704 0.0
C729 C 0.52138 0.7786 0.98122 0.0
C730 C 0.52759 0.78419 0.99782 0.0
C731 C 0.54235 0.79589 0.99925 0.0
C732 C 0.53279 0.78765 0.96376 0.0
H733 H 0.562 0.81231 0.98672 0.0
C734 C 0.59053 0.81974 0.96404 0.0
O735 O 0.59372 0.84733 0.912 0.0
O736 O 0.57124 0.85805 0.92797 0.0
N737 N 0.54282 0.78821 0.93196 0.0
C738 C 0.54257 0.78518 0.91381 0.0
C739 C 0.52706 0.77888 0.90495 0.0
C740 C 0.51106 0.77484 0.91416 0.0
C741 C 0.51026 0.77587 0.93365 0.0
C742 C 0.52849 0.7862 0.94202 0.0
H743 H 0.55396 0.78897 0.90572 0.0
O744 O 0.55516 0.83105 0.90929 0.0
O745 O 0.55572 0.82053 0.93685 0.0
O746 O 0.5884 0.8082 0.91325 0.0
O747 O 0.57818 0.78655 0.93033 0.0
C748 C 0.49195 0.76173 0.96047 0.0
C749 C 0.50204 0.76666 0.98036 0.0
H750 H 0.52026 0.77997 0.00963 0.0
H751 H 0.5476 0.79923 0.01231 0.0
H752 H 0.52737 0.77743 0.89035 0.0
H753 H 0.50009 0.77028 0.90559 0.0
H754 H 0.48216 0.75187 0.9604 0.0
H755 H 0.49541 0.76331 0.99273 0.0
Mn756 Mn 0.82361 0.5663 0.06965 0.0
Mn757 Mn 0.79841 0.55343 0.05664 0.0
C758 C 0.8262 0.53287 0.07332 0.0
C759 C 0.84938 0.57892 0.08473 0.0
C760 C 0.78085 0.57657 0.07254 0.0
O761 O 0.82385 0.58473 0.04737 0.0
O762 O 0.80668 0.56523 0.03442 0.0
C763 C 0.77589 0.547 0.02456 0.0
N764 N 0.78254 0.54038 0.04062 0.0
C765 C 0.75795 0.51577 0.03773 0.0
C766 C 0.75269 0.52356 0.02179 0.0
C767 C 0.76103 0.53928 0.01568 0.0
C768 C 0.77344 0.52755 0.04937 0.0
H769 H 0.78099 0.55932 0.01866 0.0
C770 C 0.81626 0.57905 0.03293 0.0
O771 O 0.83334 0.58516 0.0865 0.0
O772 O 0.85113 0.56697 0.07201 0.0
N773 N 0.78953 0.53826 0.07692 0.0
C774 C 0.79249 0.53879 0.0952 0.0
C775 C 0.78906 0.52387 0.10659 0.0
C776 C 0.78206 0.50729 0.10048 0.0
C777 C 0.77545 0.50562 0.08234 0.0
C778 C 0.78122 0.524 0.06981 0.0
H779 H 0.79898 0.55031 0.10137 0.0
O780 O 0.82674 0.54477 0.0861 0.0
O781 O 0.82058 0.53943 0.05778 0.0
O782 O 0.79658 0.57434 0.07993 0.0
O783 O 0.77838 0.56916 0.05764 0.0
C784 C 0.75195 0.48613 0.06359 0.0
C785 C 0.74806 0.49638 0.04346 0.0
H786 H 0.7414 0.51761 0.01486 0.0
H787 H 0.75583 0.54593 0.00383 0.0
H788 H 0.79264 0.52506 0.12077 0.0
H789 H 0.78081 0.49688 0.11068 0.0
H790 H 0.74429 0.47387 0.06677 0.0
H791 H 0.7393 0.4912 0.03385 0.0
Mn792 Mn 0.42311 0.83374 0.07157 0.0
Mn793 Mn 0.43801 0.797 0.06049 0.0
C794 C 0.45531 0.82701 0.07628 0.0
C795 C 0.41812 0.86324 0.08311 0.0
C796 C 0.41243 0.79733 0.0839 0.0
O797 O 0.41195 0.8363 0.04668 0.0
O798 O 0.4168 0.80654 0.04448 0.0
C799 C 0.44062 0.7881 0.02166 0.0
N800 N 0.44878 0.78922 0.03822 0.0
C801 C 0.4715 0.76527 0.02584 0.0
C802 C 0.4619 0.76617 0.00978 0.0
C803 C 0.4471 0.77738 0.00765 0.0
C804 C 0.46295 0.77876 0.04216 0.0
H805 H 0.42786 0.7939 0.01904 0.0
C806 C 0.41325 0.82209 0.03686 0.0
O807 O 0.40657 0.85028 0.08496 0.0
O808 O 0.4316 0.85967 0.07242 0.0
N809 N 0.4587 0.78901 0.0741 0.0
C810 C 0.46164 0.78868 0.09244 0.0
C811 C 0.47816 0.78344 0.09994 0.0
C812 C 0.4925 0.77719 0.08953 0.0
C813 C 0.48999 0.77331 0.07061 0.0
C814 C 0.4707 0.78238 0.06278 0.0
H815 H 0.45172 0.79339 0.10204 0.0
O816 O 0.44445 0.83112 0.08957 0.0
O817 O 0.44669 0.82191 0.06177 0.0
O818 O 0.40515 0.81008 0.0755 0.0
O819 O 0.42832 0.80102 0.0843 0.0
C820 C 0.50405 0.75234 0.0454 0.0
C821 C 0.4905 0.75259 0.0267 0.0
H822 H 0.46596 0.75881 0.99835 0.0
H823 H 0.43985 0.77726 0.99488 0.0
H824 H 0.48 0.78463 0.11446 0.0
H825 H 0.50468 0.77442 0.09713 0.0
H826 H 0.5148 0.7424 0.04598 0.0
H827 H 0.49273 0.74294 0.01606 0.0
Mn828 Mn 0.57977 0.16776 0.07558 0.0
Mn829 Mn 0.5556 0.19226 0.04745 0.0
C830 C 0.5476 0.17188 0.08121 0.0
C831 C 0.58979 0.1425 0.09167 0.0
C832 C 0.58083 0.20941 0.07435 0.0
O833 O 0.59525 0.1672 0.05046 0.0
O834 O 0.57676 0.18524 0.0345 0.0
C835 C 0.54771 0.16593 0.01841 0.0
N836 N 0.54152 0.1773 0.0315 0.0
C837 C 0.51459 0.18484 0.01005 0.0
C838 C 0.52225 0.17274 0.99786 0.0
C839 C 0.53807 0.16309 0.00222 0.0
C840 C 0.52544 0.18505 0.0303 0.0
H841 H 0.56053 0.1592 0.02013 0.0
C842 C 0.59087 0.17585 0.03562 0.0
O843 O 0.59906 0.15735 0.0914 0.0
O844 O 0.57762 0.14081 0.07898 0.0
N845 N 0.53498 0.20041 0.05907 0.0
C846 C 0.53449 0.21185 0.07345 0.0
C847 C 0.51874 0.22052 0.07847 0.0
C848 C 0.5035 0.21966 0.06767 0.0
C849 C 0.50392 0.21117 0.04998 0.0
C850 C 0.52097 0.19705 0.04858 0.0
H851 H 0.54592 0.21326 0.08215 0.0
O852 O 0.55893 0.16887 0.09424 0.0
O853 O 0.55579 0.17287 0.06545 0.0
O854 O 0.58633 0.19459 0.08111 0.0
O855 O 0.5698 0.20985 0.0613 0.0
C856 C 0.48622 0.21231 0.01883 0.0
C857 C 0.49595 0.19727 0.00399 0.0
H858 H 0.51621 0.17123 0.98472 0.0
H859 H 0.54373 0.15387 0.99237 0.0
H860 H 0.51842 0.22819 0.09098 0.0
H861 H 0.49224 0.22651 0.07356 0.0
H862 H 0.4747 0.21989 0.01403 0.0
H863 H 0.48989 0.19532 0.99079 0.0
Mn864 Mn 0.91807 0.82586 0.57956 0.0
Mn865 Mn 0.93807 0.80575 0.56853 0.0
C866 C 0.91621 0.82695 0.54518 0.0
C867 C 0.896 0.84796 0.58801 0.0
C868 C 0.96218 0.81643 0.5886 0.0
O869 O 0.9097 0.80544 0.59884 0.0
O870 O 0.92647 0.78783 0.58338 0.0
C871 C 0.93619 0.76803 0.55537 0.0
N872 N 0.94367 0.78504 0.55459 0.0
C873 C 0.96599 0.77246 0.5312 0.0
C874 C 0.95742 0.75572 0.53358 0.0
C875 C 0.94262 0.75377 0.54491 0.0
C876 C 0.95641 0.78934 0.54292 0.0
H877 H 0.92428 0.76512 0.56327 0.0
C878 C 0.91498 0.7893 0.59538 0.0
O879 O 0.91182 0.84729 0.59525 0.0
O880 O 0.89185 0.8342 0.57802 0.0
N881 N 0.9514 0.8217 0.55228 0.0
C882 C 0.95514 0.83987 0.55249 0.0
C883 C 0.96241 0.8489 0.53745 0.0
C884 C 0.96738 0.84005 0.52148 0.0
C885 C 0.96738 0.82064 0.52069 0.0
C886 C 0.95677 0.81152 0.53881 0.0
H887 H 0.9509 0.84826 0.56366 0.0
O888 O 0.91985 0.8404 0.55574 0.0
O889 O 0.91666 0.81166 0.55427 0.0
O890 O 0.94822 0.82749 0.58776 0.0
O891 O 0.95951 0.80118 0.58188 0.0
C892 C 0.98334 0.79409 0.50265 0.0
C893 C 0.97888 0.77415 0.51277 0.0
H894 H 0.96056 0.74438 0.52489 0.0
H895 H 0.93557 0.74094 0.54516 0.0
H896 H 0.96378 0.8635 0.53808 0.0
H897 H 0.97229 0.84877 0.51082 0.0
H898 H 0.99217 0.794 0.49075 0.0
H899 H 0.98305 0.7618 0.5067 0.0
Mn900 Mn 0.18147 0.91762 0.56715 0.0
Mn901 Mn 0.21683 0.94155 0.55313 0.0
C902 C 0.18169 0.9263 0.53579 0.0
C903 C 0.16103 0.89316 0.57181 0.0
C904 C 0.18828 0.95852 0.57787 0.0
O905 O 0.20314 0.90786 0.58353 0.0
O906 O 0.22504 0.92709 0.57443 0.0
C907 C 0.24985 0.92025 0.54506 0.0
N908 N 0.23533 0.92955 0.53856 0.0
C909 C 0.25403 0.93162 0.50816 0.0
C910 C 0.26652 0.92036 0.51611 0.0
C911 C 0.26457 0.91503 0.53416 0.0
C912 C 0.23643 0.93703 0.52218 0.0
H913 H 0.25108 0.91781 0.55923 0.0
C914 C 0.21994 0.91304 0.58324 0.0
O915 O 0.16132 0.90725 0.58211 0.0
O916 O 0.17421 0.89198 0.56019 0.0
N917 N 0.20912 0.95462 0.53273 0.0
C918 C 0.19374 0.96459 0.53124 0.0
C919 C 0.18921 0.97359 0.51537 0.0
C920 C 0.19949 0.97207 0.49974 0.0
C921 C 0.21568 0.96098 0.49903 0.0
C922 C 0.21926 0.95064 0.51853 0.0
H923 H 0.18477 0.96608 0.54255 0.0
O924 O 0.16697 0.92556 0.54537 0.0
O925 O 0.19665 0.92404 0.54568 0.0
O926 O 0.17905 0.94391 0.57906 0.0
O927 O 0.20263 0.95857 0.56855 0.0
C928 C 0.24224 0.9527 0.47565 0.0
C929 C 0.25725 0.93834 0.48615 0.0
H930 H 0.27809 0.91633 0.50838 0.0
H931 H 0.27525 0.9072 0.54028 0.0
H932 H 0.17716 0.98198 0.51519 0.0
H933 H 0.19404 0.97993 0.48871 0.0
H934 H 0.24479 0.95684 0.46165 0.0
H935 H 0.26901 0.93364 0.47876 0.0
Mn936 Mn 0.09482 0.17929 0.57729 0.0
Mn937 Mn 0.07907 0.19962 0.56536 0.0
C938 C 0.10031 0.17837 0.5419 0.0
C939 C 0.11444 0.156 0.58795 0.0
C940 C 0.05176 0.19002 0.58452 0.0
O941 O 0.09949 0.19823 0.59936 0.0
O942 O 0.09206 0.21708 0.57913 0.0
C943 C 0.07921 0.23804 0.55336 0.0
N944 N 0.07395 0.22042 0.55128 0.0
C945 C 0.04705 0.23209 0.53221 0.0
C946 C 0.05356 0.24947 0.53591 0.0
C947 C 0.06966 0.25218 0.54543 0.0
C948 C 0.06098 0.21583 0.54023 0.0
H949 H 0.0911 0.24175 0.56102 0.0
C950 C 0.09838 0.21475 0.59429 0.0
O951 O 0.0979 0.15733 0.5929 0.0
O952 O 0.12064 0.1698 0.57916 0.0
N953 N 0.06588 0.18389 0.54906 0.0
C954 C 0.0617 0.1657 0.54948 0.0
C955 C 0.05583 0.15645 0.53414 0.0
C956 C 0.05117 0.1655 0.51838 0.0
C957 C 0.04946 0.18487 0.51879 0.0
C958 C 0.06209 0.19406 0.53494 0.0
H959 H 0.06547 0.15722 0.56076 0.0
O960 O 0.09599 0.16511 0.55242 0.0
O961 O 0.1001 0.19328 0.55147 0.0
O962 O 0.06451 0.17784 0.58367 0.0
O963 O 0.05681 0.20509 0.57862 0.0
C964 C 0.02665 0.20953 0.50639 0.0
C965 C 0.03033 0.22948 0.51673 0.0
H966 H 0.04701 0.26113 0.53059 0.0
H967 H 0.07496 0.2656 0.54713 0.0
H968 H 0.05494 0.14181 0.5345 0.0
H969 H 0.04658 0.15697 0.5074 0.0
H970 H 0.01676 0.20952 0.49549 0.0
H971 H 0.02091 0.23985 0.51359 0.0
Mn972 Mn 0.82837 0.09116 0.56415 0.0
Mn973 Mn 0.80263 0.07518 0.55267 0.0
C974 C 0.82624 0.09719 0.53016 0.0
C975 C 0.85353 0.10938 0.57402 0.0
C976 C 0.8143 0.0479 0.57067 0.0
O977 O 0.81204 0.09712 0.58761 0.0
O978 O 0.78995 0.08736 0.5716 0.0
C979 C 0.76294 0.08262 0.54798 0.0
N980 N 0.77851 0.07462 0.54212 0.0
C981 C 0.75784 0.05365 0.52225 0.0
C982 C 0.7431 0.06256 0.52997 0.0
C983 C 0.74586 0.07708 0.54194 0.0
C984 C 0.77799 0.06281 0.52881 0.0
H985 H 0.76321 0.09373 0.55744 0.0
C986 C 0.79499 0.09487 0.58564 0.0
O987 O 0.85168 0.09265 0.5784 0.0
O988 O 0.83998 0.11632 0.56534 0.0
N989 N 0.81184 0.06244 0.53271 0.0
C990 C 0.8289 0.05594 0.53048 0.0
C991 C 0.83408 0.04774 0.51455 0.0
C992 C 0.82165 0.04431 0.5009 0.0
C993 C 0.80247 0.04612 0.50346 0.0
C994 C 0.79844 0.05916 0.52104 0.0
H995 H 0.83929 0.05845 0.54033 0.0
O996 O 0.8401 0.09064 0.53863 0.0
O997 O 0.81159 0.09722 0.54066 0.0
O998 O 0.82658 0.06078 0.56947 0.0
O999 O 0.79867 0.05225 0.56493 0.0
C1000 C 0.77187 0.03057 0.49214 0.0
C1001 C 0.75423 0.03836 0.50514 0.0
H1002 H 0.7295 0.05925 0.52574 0.0
H1003 H 0.73456 0.08445 0.54719 0.0
H1004 H 0.84827 0.04474 0.51234 0.0
H1005 H 0.82779 0.0408 0.48831 0.0
H1006 H 0.76903 0.02041 0.48171 0.0
H1007 H 0.74058 0.03417 0.50185 0.0
Mn1008 Mn 0.90797 0.17309 0.4302 0.0
Mn1009 Mn 0.9263 0.20786 0.4495 0.0
C1010 C 0.90868 0.174 0.46372 0.0
C1011 C 0.88635 0.15241 0.41922 0.0
C1012 C 0.94981 0.18113 0.42758 0.0
O1013 O 0.90295 0.19506 0.41141 0.0
O1014 O 0.91662 0.21735 0.42703 0.0
C1015 C 0.89981 0.23716 0.4547 0.0
N1016 N 0.91062 0.22436 0.46222 0.0
C1017 C 0.92631 0.25057 0.4798 0.0
C1018 C 0.91457 0.26225 0.47114 0.0
C1019 C 0.90077 0.25552 0.45993 0.0
C1020 C 0.92059 0.22845 0.47651 0.0
H1021 H 0.88995 0.233 0.4449 0.0
C1022 C 0.9072 0.21207 0.41373 0.0
O1023 O 0.90256 0.15322 0.41296 0.0
O1024 O 0.88163 0.1653 0.43029 0.0
N1025 N 0.93478 0.19879 0.47122 0.0
C1026 C 0.94622 0.18437 0.47327 0.0
C1027 C 0.95288 0.18019 0.49027 0.0
C1028 C 0.95048 0.1927 0.50407 0.0
C1029 C 0.94621 0.2108 0.49951 0.0
C1030 C 0.93028 0.21016 0.48453 0.0
H1031 H 0.94852 0.17495 0.46242 0.0
O1032 O 0.91012 0.15905 0.45457 0.0
O1033 O 0.90863 0.18795 0.45249 0.0
O1034 O 0.93629 0.17078 0.42465 0.0
O1035 O 0.9471 0.19557 0.43653 0.0
C1036 C 0.95696 0.24452 0.50544 0.0
C1037 C 0.9433 0.25894 0.49323 0.0
H1038 H 0.91557 0.27647 0.47379 0.0
H1039 H 0.89122 0.26503 0.45433 0.0
H1040 H 0.95887 0.16708 0.49294 0.0
H1041 H 0.95141 0.18821 0.51772 0.0
H1042 H 0.96766 0.25008 0.51375 0.0
H1043 H 0.94542 0.27342 0.49418 0.0
Mn1044 Mn 0.82231 0.90546 0.43011 0.0
Mn1045 Mn 0.79808 0.92134 0.44312 0.0
C1046 C 0.82156 0.89981 0.46437 0.0
C1047 C 0.84698 0.88829 0.41849 0.0
C1048 C 0.80837 0.94917 0.42551 0.0
O1049 O 0.80484 0.89844 0.40811 0.0
O1050 O 0.78391 0.91065 0.42409 0.0
C1051 C 0.75954 0.91142 0.45121 0.0
N1052 N 0.77529 0.91997 0.45571 0.0
C1053 C 0.75674 0.93901 0.47841 0.0
C1054 C 0.74142 0.92971 0.47243 0.0
C1055 C 0.74323 0.91535 0.46005 0.0
C1056 C 0.77618 0.92953 0.47054 0.0
H1057 H 0.75919 0.90115 0.44085 0.0
C1058 C 0.78809 0.90181 0.41048 0.0
O1059 O 0.84432 0.90493 0.41427 0.0
O1060 O 0.83451 0.8808 0.42826 0.0
N1061 N 0.80909 0.93284 0.46301 0.0
C1062 C 0.82605 0.9402 0.46414 0.0
C1063 C 0.83314 0.94544 0.48074 0.0
C1064 C 0.82201 0.94676 0.49582 0.0
C1065 C 0.80277 0.94657 0.49341 0.0
C1066 C 0.79737 0.93306 0.47673 0.0
H1067 H 0.83521 0.93982 0.45282 0.0
O1068 O 0.83497 0.90635 0.45508 0.0
O1069 O 0.80694 0.899 0.45399 0.0
O1070 O 0.82011 0.93581 0.42498 0.0
O1071 O 0.79335 0.945 0.43272 0.0
C1072 C 0.77327 0.96335 0.50587 0.0
C1073 C 0.75467 0.95517 0.49476 0.0
H1074 H 0.72826 0.9328 0.47807 0.0
H1075 H 0.73169 0.90737 0.45631 0.0
H1076 H 0.84747 0.9483 0.48199 0.0
H1077 H 0.82868 0.94957 0.50846 0.0
H1078 H 0.77132 0.97393 0.51608 0.0
H1079 H 0.74137 0.95971 0.49887 0.0
Mn1080 Mn 0.08558 0.82578 0.41813 0.0
Mn1081 Mn 0.06946 0.79034 0.4399 0.0
C1082 C 0.07942 0.8276 0.44995 0.0
C1083 C 0.10688 0.84754 0.40995 0.0
C1084 C 0.04522 0.81436 0.4162 0.0
O1085 O 0.0939 0.80354 0.40142 0.0
O1086 O 0.07935 0.78182 0.41697 0.0
C1087 C 0.10556 0.77306 0.44558 0.0
N1088 N 0.08944 0.77864 0.45225 0.0
C1089 C 0.09339 0.75501 0.47798 0.0
C1090 C 0.10932 0.74981 0.46938 0.0
C1091 C 0.11584 0.75953 0.45435 0.0
C1092 C 0.08464 0.77421 0.46891 0.0
H1093 H 0.11085 0.77966 0.43381 0.0
C1094 C 0.08943 0.78671 0.40398 0.0
O1095 O 0.09198 0.84546 0.40096 0.0
O1096 O 0.11099 0.83485 0.42144 0.0
N1097 N 0.05951 0.79629 0.46255 0.0
C1098 C 0.04355 0.805 0.46504 0.0
C1099 C 0.03509 0.8051 0.4817 0.0
C1100 C 0.04117 0.7948 0.49614 0.0
C1101 C 0.05573 0.78192 0.4939 0.0
C1102 C 0.06755 0.78664 0.47562 0.0
H1103 H 0.03729 0.81265 0.4543 0.0
O1104 O 0.07871 0.84186 0.43977 0.0
O1105 O 0.08296 0.81285 0.44089 0.0
O1106 O 0.05846 0.82394 0.41068 0.0
O1107 O 0.04771 0.80108 0.4271 0.0
C1108 C 0.06779 0.75143 0.50905 0.0
C1109 C 0.08594 0.74367 0.49675 0.0
H1110 H 0.11762 0.73936 0.4752 0.0
H1111 H 0.12911 0.75628 0.44914 0.0
H1112 H 0.02283 0.81263 0.48304 0.0
H1113 H 0.03307 0.79647 0.50809 0.0
H1114 H 0.06341 0.74371 0.5209 0.0
H1115 H 0.09283 0.73156 0.50115 0.0
Mn1116 Mn 0.17402 0.08352 0.42649 0.0
Mn1117 Mn 0.21008 0.06448 0.44358 0.0
C1118 C 0.17459 0.07787 0.45936 0.0
C1119 C 0.15289 0.1066 0.41888 0.0
C1120 C 0.18485 0.04273 0.41933 0.0
O1121 O 0.19576 0.09195 0.40853 0.0
O1122 O 0.2186 0.07729 0.42221 0.0
C1123 C 0.23647 0.09352 0.45216 0.0
N1124 N 0.22508 0.08023 0.458 0.0
C1125 C 0.24709 0.07634 0.48541 0.0
C1126 C 0.25752 0.08976 0.47776 0.0
C1127 C 0.25214 0.0985 0.46182 0.0
C1128 C 0.2277 0.07217 0.47374 0.0
H1129 H 0.23376 0.10035 0.43973 0.0
C1130 C 0.21294 0.08806 0.41017 0.0
O1131 O 0.15361 0.09136 0.41037 0.0
O1132 O 0.1658 0.10949 0.43052 0.0
N1133 N 0.20204 0.05209 0.46404 0.0
C1134 C 0.18889 0.03921 0.46499 0.0
C1135 C 0.1853 0.02997 0.48094 0.0
C1136 C 0.19535 0.03293 0.49652 0.0
C1137 C 0.21077 0.04512 0.49654 0.0
C1138 C 0.2113 0.0577 0.4782 0.0
H1139 H 0.18044 0.03618 0.45353 0.0
O1140 O 0.15975 0.07737 0.44994 0.0
O1141 O 0.18878 0.0802 0.44864 0.0
O1142 O 0.17367 0.05587 0.41748 0.0
O1143 O 0.19905 0.04517 0.42851 0.0
C1144 C 0.24075 0.0508 0.51605 0.0
C1145 C 0.25374 0.06693 0.50543 0.0
H1146 H 0.26959 0.09367 0.48461 0.0
H1147 H 0.26068 0.10914 0.45643 0.0
H1148 H 0.17439 0.02014 0.48118 0.0
H1149 H 0.19111 0.02458 0.50775 0.0
H1150 H 0.24484 0.04611 0.52938 0.0
H1151 H 0.2658 0.072 0.512 0.0
Mn1152 Mn 0.56848 0.918 0.8244 0.0
Mn1153 Mn 0.55216 0.93767 0.78739 0.0
C1154 C 0.53659 0.92466 0.82292 0.0
C1155 C 0.57563 0.89644 0.84675 0.0
C1156 C 0.57658 0.95786 0.81381 0.0
O1157 O 0.58663 0.90927 0.80383 0.0
O1158 O 0.57352 0.92323 0.77992 0.0
C1159 C 0.543 0.91136 0.75862 0.0
N1160 N 0.53706 0.92361 0.77105 0.0
C1161 C 0.51014 0.93009 0.74838 0.0
C1162 C 0.51821 0.91766 0.73689 0.0
C1163 C 0.53384 0.90819 0.74221 0.0
C1164 C 0.52156 0.93258 0.76835 0.0
H1165 H 0.55557 0.90434 0.76073 0.0
C1166 C 0.58533 0.91248 0.78657 0.0
O1167 O 0.58437 0.9114 0.84499 0.0
O1168 O 0.5642 0.89252 0.83386 0.0
N1169 N 0.5316 0.95095 0.79496 0.0
C1170 C 0.53106 0.96424 0.80776 0.0
C1171 C 0.51509 0.97324 0.81209 0.0
C1172 C 0.49904 0.97011 0.8028 0.0
C1173 C 0.49871 0.95869 0.78691 0.0
C1174 C 0.51707 0.94588 0.78564 0.0
H1175 H 0.54278 0.96763 0.81566 0.0
O1176 O 0.54555 0.92487 0.83807 0.0
O1177 O 0.54702 0.92182 0.80871 0.0
O1178 O 0.57787 0.94467 0.82473 0.0
O1179 O 0.56781 0.95607 0.79924 0.0
C1180 C 0.47953 0.95575 0.756 0.0
C1181 C 0.49031 0.94049 0.74195 0.0
H1182 H 0.51221 0.91513 0.72384 0.0
H1183 H 0.53969 0.89845 0.73303 0.0
H1184 H 0.5152 0.98298 0.82307 0.0
H1185 H 0.48775 0.97804 0.80768 0.0
H1186 H 0.46725 0.9625 0.75118 0.0
H1187 H 0.48452 0.93758 0.7288 0.0
Mn1188 Mn 0.09092 0.57916 0.81764 0.0
Mn1189 Mn 0.07019 0.56876 0.79776 0.0
C1190 C 0.0948 0.54472 0.81669 0.0
C1191 C 0.11137 0.59104 0.84002 0.0
C1192 C 0.04617 0.5886 0.81175 0.0
O1193 O 0.09805 0.59855 0.7979 0.0
O1194 O 0.08109 0.58388 0.77918 0.0
C1195 C 0.06408 0.55616 0.7597 0.0
N1196 N 0.06145 0.55431 0.77788 0.0
C1197 C 0.03678 0.53015 0.77001 0.0
C1198 C 0.04059 0.53354 0.75191 0.0
C1199 C 0.05481 0.54523 0.74717 0.0
C1200 C 0.05083 0.54149 0.78425 0.0
H1201 H 0.07396 0.56554 0.75443 0.0
C1202 C 0.09304 0.59564 0.78165 0.0
O1203 O 0.0951 0.59647 0.83816 0.0
O1204 O 0.11691 0.57996 0.82765 0.0
N1205 N 0.05938 0.55239 0.81491 0.0
C1206 C 0.05799 0.55293 0.83348 0.0
C1207 C 0.05594 0.53725 0.84367 0.0
C1208 C 0.05233 0.52075 0.83556 0.0
C1209 C 0.04697 0.5202 0.81688 0.0
C1210 C 0.05529 0.53765 0.80569 0.0
H1211 H 0.06233 0.56447 0.84119 0.0
O1212 O 0.09213 0.55458 0.8309 0.0
O1213 O 0.09252 0.5545 0.80188 0.0
O1214 O 0.06111 0.58747 0.82129 0.0
O1215 O 0.04764 0.58232 0.79602 0.0
C1216 C 0.02388 0.50237 0.79589 0.0
C1217 C 0.02359 0.51194 0.77493 0.0
H1218 H 0.034 0.52559 0.74151 0.0
H1219 H 0.05911 0.54561 0.73337 0.0
H1220 H 0.05792 0.53782 0.8582 0.0
H1221 H 0.05223 0.50931 0.84457 0.0
H1222 H 0.01536 0.49053 0.79814 0.0
H1223 H 0.01567 0.50565 0.76433 0.0
Mn1224 Mn 0.43274 0.08107 0.82483 0.0
Mn1225 Mn 0.45005 0.06087 0.78862 0.0
C1226 C 0.46449 0.07287 0.825 0.0
C1227 C 0.42677 0.10397 0.84625 0.0
C1228 C 0.42564 0.04057 0.8151 0.0
O1229 O 0.41516 0.09019 0.80372 0.0
O1230 O 0.42724 0.07316 0.78169 0.0
C1231 C 0.45678 0.09294 0.76498 0.0
N1232 N 0.46296 0.07743 0.77275 0.0
C1233 C 0.4908 0.08003 0.75065 0.0
C1234 C 0.48232 0.09524 0.74345 0.0
C1235 C 0.46591 0.10156 0.75062 0.0
C1236 C 0.4786 0.07011 0.76755 0.0
H1237 H 0.44463 0.09904 0.76992 0.0
C1238 C 0.41568 0.08475 0.78703 0.0
O1239 O 0.41686 0.0896 0.84506 0.0
O1240 O 0.43855 0.10636 0.83337 0.0
N1241 N 0.47201 0.04852 0.79329 0.0
C1242 C 0.4754 0.03584 0.80613 0.0
C1243 C 0.49184 0.02648 0.80676 0.0
C1244 C 0.5057 0.02927 0.79418 0.0
C1245 C 0.50424 0.04287 0.78012 0.0
C1246 C 0.48426 0.05328 0.78106 0.0
H1247 H 0.46518 0.03257 0.81606 0.0
O1248 O 0.45472 0.07312 0.8396 0.0
O1249 O 0.45496 0.07625 0.81026 0.0
O1250 O 0.42211 0.05464 0.82445 0.0
O1251 O 0.43653 0.04149 0.80183 0.0
C1252 C 0.52436 0.05767 0.75405 0.0
C1253 C 0.51246 0.07486 0.7441 0.0
H1254 H 0.48877 0.10296 0.73285 0.0
H1255 H 0.46011 0.11379 0.745 0.0
H1256 H 0.49368 0.01627 0.81714 0.0
H1257 H 0.51722 0.02052 0.7962 0.0
H1258 H 0.53819 0.05528 0.74953 0.0
H1259 H 0.51943 0.08306 0.73433 0.0
Mn1260 Mn 0.91211 0.42485 0.82692 0.0
Mn1261 Mn 0.93142 0.43583 0.80586 0.0
C1262 C 0.90768 0.45946 0.82495 0.0
C1263 C 0.89131 0.41451 0.84971 0.0
C1264 C 0.95682 0.41736 0.81845 0.0
O1265 O 0.90588 0.40358 0.80819 0.0
O1266 O 0.92104 0.41925 0.78898 0.0
C1267 C 0.9303 0.44716 0.76735 0.0
N1268 N 0.93669 0.44907 0.78452 0.0
C1269 C 0.9606 0.4714 0.77212 0.0
C1270 C 0.95218 0.46905 0.75527 0.0
C1271 C 0.937 0.45781 0.75331 0.0
C1272 C 0.94831 0.46177 0.78866 0.0
H1273 H 0.919 0.43838 0.76432 0.0
C1274 C 0.91082 0.40631 0.79183 0.0
O1275 O 0.90784 0.40931 0.84893 0.0
O1276 O 0.88598 0.42421 0.83612 0.0
N1277 N 0.9428 0.45374 0.82073 0.0
C1278 C 0.94629 0.45441 0.83895 0.0
C1279 C 0.94962 0.47084 0.84755 0.0
C1280 C 0.95248 0.48661 0.83769 0.0
C1281 C 0.95601 0.48558 0.81863 0.0
C1282 C 0.94613 0.46759 0.80994 0.0
H1283 H 0.94348 0.44307 0.84768 0.0
O1284 O 0.91159 0.45019 0.83933 0.0
O1285 O 0.90894 0.44891 0.81061 0.0
O1286 O 0.94251 0.41806 0.82904 0.0
O1287 O 0.95424 0.42369 0.80293 0.0
C1288 C 0.97744 0.50047 0.79391 0.0
C1289 C 0.9752 0.48887 0.77405 0.0
H1290 H 0.9559 0.47763 0.7441 0.0
H1291 H 0.92971 0.45755 0.74091 0.0
H1292 H 0.9493 0.47147 0.86221 0.0
H1293 H 0.95314 0.49886 0.84548 0.0
H1294 H 0.98706 0.51171 0.7945 0.0
H1295 H 0.98247 0.49335 0.76216 0.0
Mn1296 Mn 0.56612 0.08251 0.18223 0.0
Mn1297 Mn 0.5513 0.06278 0.20905 0.0
C1298 C 0.53395 0.08404 0.18142 0.0
C1299 C 0.57739 0.10113 0.15842 0.0
C1300 C 0.57192 0.03905 0.19618 0.0
O1301 O 0.58542 0.09163 0.20108 0.0
O1302 O 0.57241 0.07433 0.22105 0.0
C1303 C 0.54465 0.07787 0.2461 0.0
N1304 N 0.53995 0.06562 0.23303 0.0
C1305 C 0.51456 0.05496 0.25592 0.0
C1306 C 0.52255 0.06645 0.26857 0.0
C1307 C 0.5366 0.07813 0.26337 0.0
C1308 C 0.52509 0.05554 0.23525 0.0
H1309 H 0.55492 0.08788 0.24355 0.0
C1310 C 0.58414 0.08617 0.21739 0.0
O1311 O 0.58344 0.08503 0.16138 0.0
O1312 O 0.56591 0.10725 0.17026 0.0
N1313 N 0.5298 0.05001 0.20171 0.0
C1314 C 0.52712 0.04161 0.18564 0.0
C1315 C 0.51192 0.03071 0.18255 0.0
C1316 C 0.49799 0.02839 0.19531 0.0
C1317 C 0.49836 0.03709 0.21291 0.0
C1318 C 0.51825 0.04766 0.21565 0.0
H1319 H 0.53703 0.04305 0.17505 0.0
O1320 O 0.54352 0.07795 0.168 0.0
O1321 O 0.54235 0.08497 0.19731 0.0
O1322 O 0.57241 0.05361 0.18612 0.0
O1323 O 0.56338 0.03979 0.21138 0.0
C1324 C 0.48074 0.03582 0.24469 0.0
C1325 C 0.49386 0.0459 0.26101 0.0
H1326 H 0.51666 0.06786 0.28191 0.0
H1327 H 0.54142 0.0881 0.27289 0.0
H1328 H 0.51068 0.02406 0.16953 0.0
H1329 H 0.48715 0.02014 0.19029 0.0
H1330 H 0.46803 0.02945 0.24886 0.0
H1331 H 0.48868 0.04692 0.27469 0.0
Mn1332 Mn 0.90518 0.57561 0.17615 0.0
Mn1333 Mn 0.92654 0.55813 0.20942 0.0
C1334 C 0.90719 0.54242 0.17624 0.0
C1335 C 0.88207 0.58368 0.15566 0.0
C1336 C 0.94744 0.58174 0.1825 0.0
O1337 O 0.89902 0.59313 0.19904 0.0
O1338 O 0.91507 0.57895 0.22088 0.0
C1339 C 0.90582 0.54801 0.24189 0.0
N1340 N 0.91478 0.54266 0.22682 0.0
C1341 C 0.93543 0.52357 0.24828 0.0
C1342 C 0.9255 0.53057 0.26241 0.0
C1343 C 0.91001 0.54108 0.25918 0.0
C1344 C 0.9263 0.52901 0.22785 0.0
H1345 H 0.89485 0.55721 0.24041 0.0
C1346 C 0.90364 0.59087 0.21605 0.0
O1347 O 0.89743 0.59195 0.15609 0.0
O1348 O 0.87873 0.57318 0.16938 0.0
N1349 N 0.93615 0.53832 0.19773 0.0
C1350 C 0.94503 0.53812 0.18144 0.0
C1351 C 0.95042 0.5218 0.17411 0.0
C1352 C 0.94988 0.50669 0.18519 0.0
C1353 C 0.94913 0.5093 0.20412 0.0
C1354 C 0.93326 0.52361 0.20771 0.0
H1355 H 0.94539 0.54971 0.17286 0.0
O1356 O 0.90837 0.55202 0.16158 0.0
O1357 O 0.90738 0.55324 0.19071 0.0
O1358 O 0.93338 0.58299 0.1724 0.0
O1359 O 0.94553 0.57366 0.19747 0.0
C1360 C 0.96519 0.49973 0.23469 0.0
C1361 C 0.95365 0.50971 0.25242 0.0
H1362 H 0.92932 0.52705 0.2758 0.0
H1363 H 0.9015 0.54471 0.27052 0.0
H1364 H 0.95392 0.52068 0.15991 0.0
H1365 H 0.95043 0.49372 0.17916 0.0
H1366 H 0.97657 0.49068 0.23726 0.0
H1367 H 0.95778 0.50702 0.26623 0.0
Mn1368 Mn 0.43173 0.92337 0.17296 0.0
Mn1369 Mn 0.45177 0.93786 0.21095 0.0
C1370 C 0.46349 0.92918 0.1734 0.0
C1371 C 0.42372 0.90287 0.15001 0.0
C1372 C 0.42799 0.96285 0.18721 0.0
O1373 O 0.41376 0.91427 0.19307 0.0
O1374 O 0.42817 0.92689 0.21694 0.0
C1375 C 0.45665 0.90341 0.23176 0.0
N1376 N 0.46416 0.91854 0.22441 0.0
C1377 C 0.49085 0.91411 0.24785 0.0
C1378 C 0.48173 0.89873 0.2536 0.0
C1379 C 0.46529 0.89342 0.24559 0.0
C1380 C 0.48064 0.92407 0.22976 0.0
H1381 H 0.44376 0.89877 0.22697 0.0
C1382 C 0.41523 0.9176 0.2102 0.0
O1383 O 0.41529 0.91805 0.15224 0.0
O1384 O 0.43526 0.89837 0.16255 0.0
N1385 N 0.4747 0.94836 0.20667 0.0
C1386 C 0.47824 0.96235 0.19543 0.0
C1387 C 0.49465 0.97154 0.19614 0.0
C1388 C 0.50769 0.96777 0.20922 0.0
C1389 C 0.506 0.9529 0.22193 0.0
C1390 C 0.48712 0.94154 0.21789 0.0
H1391 H 0.4681 0.96685 0.18595 0.0
O1392 O 0.454 0.93091 0.15872 0.0
O1393 O 0.45388 0.92503 0.18771 0.0
O1394 O 0.42349 0.95015 0.17643 0.0
O1395 O 0.43918 0.95986 0.20016 0.0
C1396 C 0.52327 0.9385 0.25042 0.0
C1397 C 0.51087 0.92024 0.25807 0.0
H1398 H 0.48785 0.89028 0.26372 0.0
H1399 H 0.45877 0.88124 0.25051 0.0
H1400 H 0.49678 0.98281 0.18697 0.0
H1401 H 0.51847 0.97737 0.2088 0.0
H1402 H 0.53577 0.94199 0.25731 0.0
H1403 H 0.51593 0.91255 0.26939 0.0
Mn1404 Mn 0.09412 0.42918 0.18034 0.0
Mn1405 Mn 0.07647 0.44047 0.20037 0.0
C1406 C 0.09873 0.46455 0.18033 0.0
C1407 C 0.11383 0.41844 0.15703 0.0
C1408 C 0.05081 0.42034 0.18886 0.0
O1409 O 0.09858 0.40722 0.1991 0.0
O1410 O 0.08862 0.42638 0.21815 0.0
C1411 C 0.07305 0.45145 0.239 0.0
N1412 N 0.06962 0.45424 0.22104 0.0
C1413 C 0.04246 0.47422 0.23073 0.0
C1414 C 0.04785 0.47062 0.24844 0.0
C1415 C 0.06299 0.46005 0.25239 0.0
C1416 C 0.05745 0.46589 0.21561 0.0
H1417 H 0.08386 0.44278 0.24361 0.0
C1418 C 0.09592 0.41164 0.2156 0.0
O1419 O 0.09742 0.41326 0.15864 0.0
O1420 O 0.11995 0.42767 0.17058 0.0
N1421 N 0.06411 0.45672 0.18421 0.0
C1422 C 0.06086 0.45624 0.16585 0.0
C1423 C 0.05686 0.4719 0.15619 0.0
C1424 C 0.05276 0.48797 0.16496 0.0
C1425 C 0.04913 0.4876 0.18407 0.0
C1426 C 0.06036 0.47112 0.19413 0.0
H1427 H 0.0645 0.44475 0.15764 0.0
O1428 O 0.09521 0.45419 0.16667 0.0
O1429 O 0.09787 0.45474 0.19516 0.0
O1430 O 0.06438 0.42169 0.1777 0.0
O1431 O 0.05418 0.42678 0.20419 0.0
C1432 C 0.02462 0.50072 0.20658 0.0
C1433 C 0.02642 0.49027 0.22693 0.0
H1434 H 0.04081 0.47643 0.25951 0.0
H1435 H 0.06681 0.45798 0.26628 0.0
H1436 H 0.05715 0.47159 0.14152 0.0
H1437 H 0.04999 0.49934 0.15621 0.0
H1438 H 0.01465 0.51149 0.20538 0.0
H1439 H 0.01688 0.49415 0.23707 0.0
Mn1440 Mn 0.82088 0.57242 0.9133 0.0
Mn1441 Mn 0.79896 0.55957 0.93305 0.0
C1442 C 0.82483 0.53863 0.9142 0.0
C1443 C 0.84287 0.58291 0.89231 0.0
C1444 C 0.80809 0.58263 0.95555 0.0
O1445 O 0.8004 0.59064 0.90476 0.0
O1446 O 0.78131 0.57301 0.91824 0.0
C1447 C 0.76266 0.5419 0.92922 0.0
N1448 N 0.77884 0.54343 0.93819 0.0
C1449 C 0.76619 0.51922 0.96098 0.0
C1450 C 0.75038 0.51915 0.95056 0.0
C1451 C 0.74887 0.52997 0.93497 0.0
C1452 C 0.78276 0.53265 0.95204 0.0
H1453 H 0.76004 0.54967 0.91713 0.0
C1454 C 0.784 0.58626 0.90794 0.0
O1455 O 0.84064 0.59033 0.90791 0.0
O1456 O 0.83089 0.5709 0.88779 0.0
N1457 N 0.81446 0.54534 0.94866 0.0
C1458 C 0.83222 0.54774 0.95341 0.0
C1459 C 0.84194 0.53475 0.96298 0.0
C1460 C 0.83407 0.51894 0.9694 0.0
C1461 C 0.81476 0.51623 0.96849 0.0
C1462 C 0.80491 0.53171 0.95528 0.0
H1463 H 0.83996 0.55912 0.94863 0.0
O1464 O 0.83711 0.55061 0.91753 0.0
O1465 O 0.8086 0.54594 0.91292 0.0
O1466 O 0.81956 0.58169 0.94214 0.0
O1467 O 0.79337 0.57425 0.95338 0.0
C1468 C 0.78948 0.49561 0.98364 0.0
C1469 C 0.76867 0.5021 0.97613 0.0
H1470 H 0.73946 0.50992 0.95388 0.0
H1471 H 0.73649 0.52923 0.92713 0.0
H1472 H 0.85632 0.53687 0.96508 0.0
H1473 H 0.84355 0.50982 0.97573 0.0
H1474 H 0.79016 0.48427 0.99314 0.0
H1475 H 0.75708 0.49404 0.97979 0.0
Mn1476 Mn 0.82362 0.42191 0.09271 0.0
Mn1477 Mn 0.78824 0.4425 0.07368 0.0
C1478 C 0.82544 0.45303 0.0834 0.0
C1479 C 0.8448 0.41552 0.11565 0.0
C1480 C 0.81402 0.4172 0.05229 0.0
O1481 O 0.80165 0.40545 0.10172 0.0
O1482 O 0.78022 0.42017 0.08599 0.0
C1483 C 0.76914 0.45073 0.10834 0.0
N1484 N 0.7754 0.45654 0.09205 0.0
C1485 C 0.75395 0.48452 0.09602 0.0
C1486 C 0.74813 0.47654 0.11204 0.0
C1487 C 0.75611 0.46048 0.11833 0.0
C1488 C 0.77127 0.47307 0.08607 0.0
H1489 H 0.7744 0.43846 0.11393 0.0
C1490 C 0.78493 0.40763 0.09682 0.0
O1491 O 0.84337 0.40553 0.10133 0.0
O1492 O 0.83199 0.42737 0.11811 0.0
N1493 N 0.79313 0.46451 0.06122 0.0
C1494 C 0.80145 0.46576 0.04492 0.0
C1495 C 0.79957 0.48087 0.03398 0.0
C1496 C 0.78874 0.49566 0.0384 0.0
C1497 C 0.77812 0.49587 0.05474 0.0
C1498 C 0.78259 0.47782 0.06755 0.0
H1499 H 0.80954 0.45481 0.03969 0.0
O1500 O 0.83963 0.44278 0.08417 0.0
O1501 O 0.81049 0.44468 0.08764 0.0
O1502 O 0.8226 0.412 0.06633 0.0
O1503 O 0.80083 0.42837 0.05368 0.0
C1504 C 0.75085 0.51472 0.06943 0.0
C1505 C 0.744 0.50409 0.08885 0.0
H1506 H 0.7378 0.48309 0.1201 0.0
H1507 H 0.75178 0.45516 0.13128 0.0
H1508 H 0.80588 0.48023 0.02098 0.0
H1509 H 0.78817 0.50591 0.02807 0.0
H1510 H 0.74385 0.52712 0.0653 0.0
H1511 H 0.73318 0.50998 0.09668 0.0
Mn1512 Mn 0.56883 0.82466 0.08033 0.0
Mn1513 Mn 0.55021 0.78864 0.06013 0.0
C1514 C 0.53695 0.82479 0.07323 0.0
C1515 C 0.57621 0.84642 0.10275 0.0
C1516 C 0.57455 0.81531 0.03963 0.0
O1517 O 0.58643 0.80349 0.08882 0.0
O1518 O 0.57326 0.7816 0.07227 0.0
C1519 C 0.544 0.76356 0.09115 0.0
N1520 N 0.53749 0.77207 0.07618 0.0
C1521 C 0.51062 0.74857 0.07711 0.0
C1522 C 0.51915 0.74114 0.09205 0.0
C1523 C 0.53524 0.74851 0.09896 0.0
C1524 C 0.52198 0.76671 0.06851 0.0
H1525 H 0.55603 0.7685 0.0975 0.0
C1526 C 0.58531 0.7868 0.0835 0.0
O1527 O 0.58517 0.84488 0.08786 0.0
O1528 O 0.56438 0.83372 0.10593 0.0
N1529 N 0.52774 0.79371 0.04843 0.0
C1530 C 0.52387 0.80711 0.0365 0.0
C1531 C 0.5071 0.80806 0.02763 0.0
C1532 C 0.49344 0.79511 0.02997 0.0
C1533 C 0.49548 0.78023 0.04255 0.0
C1534 C 0.51561 0.78115 0.05283 0.0
H1535 H 0.53389 0.81736 0.03359 0.0
O1536 O 0.54676 0.83938 0.0731 0.0
O1537 O 0.54638 0.80998 0.07619 0.0
O1538 O 0.57863 0.82437 0.0537 0.0
O1539 O 0.56339 0.80225 0.04066 0.0
C1540 C 0.47662 0.75216 0.05535 0.0
C1541 C 0.48934 0.74119 0.07146 0.0
H1542 H 0.51232 0.73075 0.09946 0.0
H1543 H 0.54099 0.74256 0.11106 0.0
H1544 H 0.50486 0.81902 0.01814 0.0
H1545 H 0.48161 0.79746 0.02168 0.0
H1546 H 0.46303 0.74713 0.05244 0.0
H1547 H 0.4835 0.72975 0.07843 0.0
Mn1548 Mn 0.17139 0.57749 0.08336 0.0
Mn1549 Mn 0.20653 0.55893 0.06296 0.0
C1550 C 0.16968 0.54482 0.07844 0.0
C1551 C 0.15182 0.58595 0.10706 0.0
C1552 C 0.1795 0.58181 0.04185 0.0
O1553 O 0.19313 0.59555 0.08982 0.0
O1554 O 0.21419 0.58228 0.07259 0.0
C1555 C 0.23408 0.5554 0.09236 0.0
N1556 N 0.22377 0.54747 0.07931 0.0
C1557 C 0.24936 0.52269 0.07726 0.0
C1558 C 0.25873 0.53284 0.08987 0.0
C1559 C 0.25106 0.54839 0.09765 0.0
C1560 C 0.2288 0.53179 0.07211 0.0
H1561 H 0.22929 0.56741 0.09886 0.0
C1562 C 0.20947 0.59458 0.08354 0.0
O1563 O 0.15196 0.59427 0.09168 0.0
O1564 O 0.16477 0.57431 0.10963 0.0
N1565 N 0.20108 0.53656 0.05294 0.0
C1566 C 0.1886 0.53339 0.03993 0.0
C1567 C 0.18808 0.51705 0.03095 0.0
C1568 C 0.20013 0.50303 0.03453 0.0
C1569 C 0.21449 0.50485 0.04761 0.0
C1570 C 0.21313 0.52435 0.05832 0.0
H1571 H 0.17853 0.54341 0.03651 0.0
O1572 O 0.15557 0.55523 0.07841 0.0
O1573 O 0.18507 0.55441 0.07967 0.0
O1574 O 0.1704 0.58585 0.05599 0.0
O1575 O 0.19293 0.57115 0.04306 0.0
C1576 C 0.24608 0.48893 0.05484 0.0
C1577 C 0.25814 0.50247 0.06967 0.0
H1578 H 0.27164 0.52815 0.09427 0.0
H1579 H 0.25867 0.55543 0.10801 0.0
H1580 H 0.17729 0.51484 0.0217 0.0
H1581 H 0.19733 0.49079 0.02718 0.0
H1582 H 0.25186 0.47599 0.05063 0.0
H1583 H 0.27128 0.49805 0.07437 0.0
Mn1584 Mn 0.4319 0.18125 0.08441 0.0
Mn1585 Mn 0.44525 0.20256 0.06414 0.0
C1586 C 0.46574 0.1787 0.08576 0.0
C1587 C 0.42162 0.15916 0.10576 0.0
C1588 C 0.42377 0.19145 0.04094 0.0
O1589 O 0.4125 0.20159 0.0913 0.0
O1590 O 0.42966 0.22009 0.07661 0.0
C1591 C 0.46034 0.23981 0.06899 0.0
N1592 N 0.46042 0.22356 0.05992 0.0
C1593 C 0.48691 0.23711 0.04053 0.0
C1594 C 0.48484 0.25304 0.0505 0.0
C1595 C 0.47198 0.25422 0.06438 0.0
C1596 C 0.4728 0.22004 0.04738 0.0
H1597 H 0.4514 0.24211 0.08028 0.0
C1598 C 0.41634 0.21788 0.08681 0.0
O1599 O 0.41495 0.16057 0.08974 0.0
O1600 O 0.4325 0.17209 0.11048 0.0
N1601 N 0.4616 0.18763 0.05034 0.0
C1602 C 0.46066 0.16971 0.0458 0.0
C1603 C 0.47517 0.16061 0.03777 0.0
C1604 C 0.49139 0.16917 0.03321 0.0
C1605 C 0.49319 0.18854 0.03455 0.0
C1606 C 0.4752 0.19784 0.04476 0.0
H1607 H 0.44911 0.16163 0.0495 0.0
O1608 O 0.45456 0.16587 0.08176 0.0
O1609 O 0.45773 0.19464 0.08584 0.0
O1610 O 0.42405 0.18076 0.05504 0.0
O1611 O 0.43212 0.20621 0.04252 0.0
C1612 C 0.51499 0.21475 0.02296 0.0
C1613 C 0.50645 0.23523 0.02874 0.0
H1614 H 0.49392 0.26434 0.04824 0.0
H1615 H 0.47109 0.26668 0.07199 0.0
H1616 H 0.47396 0.14615 0.03551 0.0
H1617 H 0.50163 0.16021 0.02785 0.0
H1618 H 0.52778 0.2146 0.01546 0.0
H1619 H 0.51442 0.24722 0.02596 0.0
Mn1620 Mn 0.18453 0.43155 0.91308 0.0
Mn1621 Mn 0.20435 0.44408 0.93405 0.0
C1622 C 0.1812 0.46575 0.91147 0.0
C1623 C 0.16397 0.42136 0.88969 0.0
C1624 C 0.19352 0.42219 0.95753 0.0
O1625 O 0.2059 0.41358 0.90598 0.0
O1626 O 0.22385 0.43118 0.92102 0.0
C1627 C 0.24143 0.45987 0.939 0.0
N1628 N 0.22318 0.46043 0.94237 0.0
C1629 C 0.23051 0.48686 0.96496 0.0
C1630 C 0.24846 0.48568 0.95915 0.0
C1631 C 0.25369 0.47237 0.94666 0.0
C1632 C 0.21627 0.47262 0.95361 0.0
H1633 H 0.24713 0.44996 0.92994 0.0
C1634 C 0.22208 0.41835 0.90993 0.0
O1635 O 0.16443 0.4143 0.90561 0.0
O1636 O 0.17697 0.43262 0.88641 0.0
N1637 N 0.1861 0.45822 0.94682 0.0
C1638 C 0.16777 0.45577 0.94883 0.0
C1639 C 0.15614 0.46952 0.95446 0.0
C1640 C 0.16227 0.48646 0.95973 0.0
C1641 C 0.18131 0.48979 0.96176 0.0
C1642 C 0.19383 0.47339 0.9521 0.0
H1643 H 0.16104 0.44395 0.94365 0.0
O1644 O 0.16848 0.4541 0.9141 0.0
O1645 O 0.19727 0.45803 0.91268 0.0
O1646 O 0.18303 0.42261 0.94307 0.0
O1647 O 0.20859 0.42989 0.95556 0.0
C1648 C 0.20305 0.51169 0.98028 0.0
C1649 C 0.22485 0.50507 0.97774 0.0
H1650 H 0.25852 0.495 0.96438 0.0
H1651 H 0.26784 0.47152 0.9429 0.0
H1652 H 0.14168 0.46703 0.95418 0.0
H1653 H 0.15168 0.49591 0.96325 0.0
H1654 H 0.20045 0.52348 0.98891 0.0
H1655 H 0.23524 0.51352 0.98337 0.0
Mn1656 Mn 0.58565 0.17585 0.91983 0.0
Mn1657 Mn 0.56348 0.21238 0.93357 0.0
C1658 C 0.55399 0.17429 0.92652 0.0
C1659 C 0.59382 0.15374 0.89898 0.0
C1660 C 0.58682 0.18878 0.95964 0.0
O1661 O 0.60311 0.19712 0.91113 0.0
O1662 O 0.58715 0.21946 0.92396 0.0
C1663 C 0.55971 0.22777 0.89622 0.0
N1664 N 0.55183 0.22328 0.91224 0.0
C1665 C 0.52402 0.24294 0.90166 0.0
C1666 C 0.53389 0.24664 0.88605 0.0
C1667 C 0.55104 0.23888 0.8833 0.0
C1668 C 0.53461 0.22787 0.91551 0.0
H1669 H 0.5729 0.2226 0.8931 0.0
C1670 C 0.60077 0.21404 0.91506 0.0
O1671 O 0.60285 0.15592 0.91387 0.0
O1672 O 0.58205 0.16616 0.89489 0.0
N1673 N 0.54009 0.20891 0.94346 0.0
C1674 C 0.53707 0.20261 0.96034 0.0
C1675 C 0.52179 0.20753 0.96988 0.0
C1676 C 0.50767 0.21765 0.9627 0.0
C1677 C 0.50873 0.22534 0.94481 0.0
C1678 C 0.52799 0.21941 0.93483 0.0
H1679 H 0.5472 0.19493 0.96748 0.0
O1680 O 0.56422 0.16009 0.92739 0.0
O1681 O 0.56267 0.18894 0.92189 0.0
O1682 O 0.59302 0.1791 0.94676 0.0
O1683 O 0.57558 0.20179 0.95642 0.0
C1684 C 0.49077 0.24894 0.92407 0.0
C1685 C 0.50338 0.25309 0.90491 0.0
H1686 H 0.52821 0.2553 0.87568 0.0
H1687 H 0.55811 0.24186 0.87081 0.0
H1688 H 0.52211 0.20517 0.98402 0.0
H1689 H 0.49706 0.22025 0.97233 0.0
H1690 H 0.47782 0.25594 0.92577 0.0
H1691 H 0.49815 0.26228 0.8948 0.0
Mn1692 Mn 0.43112 0.82651 0.91788 0.0
Mn1693 Mn 0.44745 0.78944 0.93722 0.0
C1694 C 0.46314 0.82502 0.92412 0.0
C1695 C 0.42389 0.84856 0.89608 0.0
C1696 C 0.42338 0.81583 0.95783 0.0
O1697 O 0.41264 0.80601 0.90944 0.0
O1698 O 0.42613 0.78196 0.92266 0.0
C1699 C 0.45657 0.76045 0.91122 0.0
N1700 N 0.46256 0.77307 0.92326 0.0
C1701 C 0.48959 0.75057 0.92991 0.0
C1702 C 0.48144 0.73887 0.91772 0.0
C1703 C 0.46573 0.744 0.90829 0.0
C1704 C 0.47805 0.77049 0.93228 0.0
H1705 H 0.44395 0.76239 0.90423 0.0
C1706 C 0.41406 0.7887 0.91229 0.0
O1707 O 0.41534 0.84717 0.9112 0.0
O1708 O 0.43515 0.83553 0.89224 0.0
N1709 N 0.46797 0.79711 0.95051 0.0
C1710 C 0.46853 0.81 0.96372 0.0
C1711 C 0.48452 0.81457 0.97255 0.0
C1712 C 0.50063 0.80547 0.96932 0.0
C1713 C 0.501 0.78949 0.95803 0.0
C1714 C 0.48252 0.78792 0.94539 0.0
H1715 H 0.45681 0.8178 0.96714 0.0
O1716 O 0.4542 0.84016 0.92435 0.0
O1717 O 0.45263 0.81079 0.92141 0.0
O1718 O 0.42227 0.82703 0.94483 0.0
O1719 O 0.43178 0.80111 0.95567 0.0
C1720 C 0.5204 0.75874 0.95521 0.0
C1721 C 0.50957 0.74443 0.94021 0.0
H1722 H 0.48742 0.72578 0.91538 0.0
H1723 H 0.45978 0.73465 0.89877 0.0
H1724 H 0.48439 0.82562 0.98222 0.0
H1725 H 0.51194 0.81057 0.97707 0.0
H1726 H 0.53278 0.7541 0.96191 0.0
H1727 H 0.51541 0.73129 0.93741 0.0
Mn1728 Mn 0.57222 0.68099 0.92039 0.0
Mn1729 Mn 0.54651 0.70731 0.94407 0.0
C1730 C 0.58154 0.68838 0.95156 0.0
C1731 C 0.58519 0.65354 0.91106 0.0
C1732 C 0.57166 0.7229 0.91618 0.0
O1733 O 0.54567 0.67794 0.90753 0.0
O1734 O 0.53148 0.69927 0.92335 0.0
C1735 C 0.52825 0.67307 0.95364 0.0
N1736 N 0.53372 0.69005 0.95825 0.0
C1737 C 0.51823 0.68604 0.98893 0.0
C1738 C 0.51583 0.66783 0.9839 0.0
C1739 C 0.52064 0.66144 0.96661 0.0
C1740 C 0.53411 0.69482 0.97534 0.0
H1741 H 0.53159 0.66764 0.94059 0.0
C1742 C 0.53099 0.68702 0.91133 0.0
O1743 O 0.58601 0.668 0.90119 0.0
O1744 O 0.57436 0.65445 0.92489 0.0
N1745 N 0.55776 0.71703 0.96503 0.0
C1746 C 0.56863 0.73188 0.96604 0.0
C1747 C 0.57334 0.73956 0.98268 0.0
C1748 C 0.56579 0.73378 0.99902 0.0
C1749 C 0.55145 0.72051 0.99938 0.0
C1750 C 0.54975 0.71007 0.97955 0.0
H1751 H 0.57445 0.73779 0.95402 0.0
O1752 O 0.59322 0.68406 0.93924 0.0
O1753 O 0.56518 0.68868 0.9446 0.0
O1754 O 0.57655 0.70721 0.91079 0.0
O1755 O 0.55998 0.72494 0.92874 0.0
C1756 C 0.52481 0.70905 0.02123 0.0
C1757 C 0.51281 0.69263 0.01037 0.0
H1758 H 0.51371 0.65797 0.99441 0.0
H1759 H 0.51871 0.64727 0.96336 0.0
H1760 H 0.58309 0.75054 0.98287 0.0
H1761 H 0.57107 0.74063 0.01075 0.0
H1762 H 0.52098 0.71264 0.03508 0.0
H1763 H 0.50315 0.68495 0.01822 0.0
Mn1764 Mn 0.32385 0.57521 0.92099 0.0
Mn1765 Mn 0.31146 0.54418 0.94946 0.0
C1766 C 0.32441 0.58255 0.95316 0.0
C1767 C 0.34438 0.59299 0.90523 0.0
C1768 C 0.28471 0.56345 0.92481 0.0
O1769 O 0.32496 0.54978 0.90624 0.0
O1770 O 0.32161 0.5308 0.92981 0.0
C1771 C 0.34297 0.52219 0.96008 0.0
N1772 N 0.3297 0.53406 0.96498 0.0
C1773 C 0.32533 0.51436 0.99401 0.0
C1774 C 0.33982 0.50399 0.988 0.0
C1775 C 0.34864 0.50808 0.97163 0.0
C1776 C 0.32197 0.53317 0.98113 0.0
H1777 H 0.34907 0.52315 0.9468 0.0
C1778 C 0.32437 0.53353 0.91322 0.0
O1779 O 0.32796 0.59093 0.89946 0.0
O1780 O 0.34986 0.58165 0.91756 0.0
N1781 N 0.30106 0.55677 0.96861 0.0
C1782 C 0.28738 0.56913 0.96786 0.0
C1783 C 0.27859 0.5749 0.98335 0.0
C1784 C 0.28191 0.56675 0.99986 0.0
C1785 C 0.29308 0.55069 0.001 0.0
C1786 C 0.30704 0.54961 0.9838 0.0
H1787 H 0.28418 0.57613 0.9556 0.0
O1788 O 0.32353 0.59498 0.94082 0.0
O1789 O 0.32544 0.56626 0.94589 0.0
O1790 O 0.29573 0.57572 0.92 0.0
O1791 O 0.29044 0.55041 0.93429 0.0
C1792 C 0.29694 0.52182 0.02187 0.0
C1793 C 0.31399 0.50839 0.01332 0.0
H1794 H 0.34413 0.49249 0.99588 0.0
H1795 H 0.35956 0.49938 0.96718 0.0
H1796 H 0.26895 0.58593 0.98248 0.0
H1797 H 0.27446 0.57277 0.0108 0.0
H1798 H 0.29204 0.51887 0.03552 0.0
H1799 H 0.31812 0.49644 0.02073 0.0
Mn1800 Mn 0.43563 0.33153 0.92372 0.0
Mn1801 Mn 0.46099 0.30507 0.94759 0.0
C1802 C 0.42516 0.32538 0.95518 0.0
C1803 C 0.42358 0.35895 0.91249 0.0
C1804 C 0.43769 0.28991 0.91829 0.0
O1805 O 0.46257 0.33361 0.911 0.0
O1806 O 0.47719 0.31509 0.9296 0.0
C1807 C 0.47867 0.33754 0.96191 0.0
N1808 N 0.47279 0.32027 0.96431 0.0
C1809 C 0.4851 0.32123 0.99702 0.0
C1810 C 0.48778 0.33984 0.99365 0.0
C1811 C 0.48535 0.34763 0.97649 0.0
C1812 C 0.47227 0.31258 0.98026 0.0
H1813 H 0.47664 0.34418 0.94909 0.0
C1814 C 0.47752 0.32588 0.91649 0.0
O1815 O 0.42269 0.34394 0.90355 0.0
O1816 O 0.43359 0.35842 0.92698 0.0
N1817 N 0.44824 0.29295 0.9658 0.0
C1818 C 0.43573 0.27954 0.96436 0.0
C1819 C 0.42931 0.2704 0.97955 0.0
C1820 C 0.43624 0.27351 0.99684 0.0
C1821 C 0.45176 0.28509 0.99971 0.0
C1822 C 0.45662 0.29659 0.98106 0.0
H1823 H 0.4298 0.27616 0.95154 0.0
O1824 O 0.4142 0.32947 0.9421 0.0
O1825 O 0.44193 0.32431 0.94875 0.0
O1826 O 0.43069 0.30521 0.91452 0.0
O1827 O 0.45019 0.28844 0.92989 0.0
C1828 C 0.47336 0.29649 0.02668 0.0
C1829 C 0.48674 0.31369 0.01887 0.0
H1830 H 0.48959 0.34896 0.005 0.0
H1831 H 0.48798 0.36195 0.97467 0.0
H1832 H 0.41837 0.26075 0.97788 0.0
H1833 H 0.4289 0.26655 0.00729 0.0
H1834 H 0.47438 0.29272 0.04099 0.0
H1835 H 0.49454 0.32125 0.02866 0.0
Mn1836 Mn 0.6813 0.43069 0.9307 0.0
Mn1837 Mn 0.70363 0.4593 0.95304 0.0
C1838 C 0.68469 0.4229 0.9627 0.0
C1839 C 0.65618 0.41527 0.91776 0.0
C1840 C 0.72048 0.43764 0.92512 0.0
O1841 O 0.67966 0.45737 0.91633 0.0
O1842 O 0.68843 0.47539 0.93904 0.0
C1843 C 0.67748 0.47688 0.97522 0.0
N1844 N 0.69471 0.47105 0.97314 0.0
C1845 C 0.70214 0.48303 0.00513 0.0
C1846 C 0.684 0.48819 0.0057 0.0
C1847 C 0.67175 0.48332 0.99186 0.0
C1848 C 0.70686 0.47091 0.98626 0.0
H1849 H 0.66749 0.47417 0.96485 0.0
C1850 C 0.68185 0.47368 0.92341 0.0
O1851 O 0.67207 0.41528 0.91046 0.0
O1852 O 0.65429 0.42677 0.93098 0.0
N1853 N 0.71924 0.44451 0.96798 0.0
C1854 C 0.72681 0.42782 0.96569 0.0
C1855 C 0.73733 0.41937 0.97912 0.0
C1856 C 0.73891 0.42593 0.99678 0.0
C1857 C 0.72993 0.44232 0.00199 0.0
C1858 C 0.7195 0.45228 0.98411 0.0
H1859 H 0.72447 0.42001 0.95374 0.0
O1860 O 0.68255 0.41088 0.95011 0.0
O1861 O 0.68471 0.43967 0.95594 0.0
O1862 O 0.70888 0.42513 0.92554 0.0
O1863 O 0.71478 0.45261 0.93004 0.0
C1864 C 0.72385 0.46249 0.03134 0.0
C1865 C 0.71028 0.48007 0.0261 0.0
H1866 H 0.67839 0.4927 0.01848 0.0
H1867 H 0.65735 0.48344 0.99443 0.0
H1868 H 0.7436 0.40649 0.97592 0.0
H1869 H 0.74662 0.41744 0.00589 0.0
H1870 H 0.72761 0.46075 0.04552 0.0
H1871 H 0.70507 0.48826 0.0371 0.0
Mn1872 Mn 0.56995 0.3235 0.07607 0.0
Mn1873 Mn 0.54641 0.29873 0.04903 0.0
C1874 C 0.58249 0.31631 0.04595 0.0
C1875 C 0.58362 0.35028 0.08689 0.0
C1876 C 0.56729 0.28166 0.07881 0.0
O1877 O 0.54173 0.3269 0.08589 0.0
O1878 O 0.52927 0.30644 0.0677 0.0
C1879 C 0.53057 0.33396 0.03905 0.0
N1880 N 0.53664 0.3172 0.03432 0.0
C1881 C 0.52433 0.32225 0.00268 0.0
C1882 C 0.52169 0.34037 0.00794 0.0
C1883 C 0.52429 0.34603 0.02586 0.0
C1884 C 0.53887 0.31293 0.0173 0.0
H1885 H 0.53202 0.33881 0.05269 0.0
C1886 C 0.52741 0.31806 0.08007 0.0
O1887 O 0.58248 0.33579 0.09671 0.0
O1888 O 0.57381 0.35003 0.07228 0.0
N1889 N 0.55974 0.28893 0.02954 0.0
C1890 C 0.56966 0.27339 0.02955 0.0
C1891 C 0.57488 0.26501 0.01345 0.0
C1892 C 0.56835 0.27057 0.99661 0.0
C1893 C 0.55501 0.28477 0.99517 0.0
C1894 C 0.55342 0.29625 0.01444 0.0
H1895 H 0.57428 0.2674 0.04202 0.0
O1896 O 0.59292 0.32007 0.05951 0.0
O1897 O 0.56557 0.31645 0.0512 0.0
O1898 O 0.57235 0.29691 0.08524 0.0
O1899 O 0.55688 0.28039 0.06516 0.0
C1900 C 0.53058 0.29732 0.97171 0.0
C1901 C 0.51961 0.31517 0.98111 0.0
H1902 H 0.51914 0.35062 0.99778 0.0
H1903 H 0.52153 0.35996 0.02952 0.0
H1904 H 0.58391 0.25346 0.01411 0.0
H1905 H 0.57354 0.26282 0.98539 0.0
H1906 H 0.5275 0.29387 0.95764 0.0
H1907 H 0.51183 0.32345 0.97202 0.0
Mn1908 Mn 0.6674 0.57089 0.07113 0.0
Mn1909 Mn 0.69207 0.54483 0.0458 0.0
C1910 C 0.67493 0.58154 0.0404 0.0
C1911 C 0.64059 0.58516 0.08062 0.0
C1912 C 0.70868 0.56688 0.07578 0.0
O1913 O 0.66427 0.54387 0.08343 0.0
O1914 O 0.68197 0.52867 0.06424 0.0
C1915 C 0.65942 0.52597 0.03193 0.0
N1916 N 0.67558 0.53432 0.02893 0.0
C1917 C 0.67443 0.5225 0.9962 0.0
C1918 C 0.65662 0.51691 1.00003 0.0
C1919 C 0.64944 0.51836 0.01759 0.0
C1920 C 0.68174 0.53671 0.01242 0.0
H1921 H 0.6536 0.52599 0.04528 0.0
C1922 C 0.67158 0.5287 0.07782 0.0
O1923 O 0.65496 0.58481 0.0907 0.0
O1924 O 0.64092 0.57427 0.06681 0.0
N1925 N 0.70351 0.55823 0.02742 0.0
C1926 C 0.71822 0.56924 0.02903 0.0
C1927 C 0.72692 0.57631 0.01392 0.0
C1928 C 0.72236 0.57098 0.99645 0.0
C1929 C 0.70969 0.55644 0.99324 0.0
C1930 C 0.69746 0.55248 0.01156 0.0
H1931 H 0.72319 0.57346 0.04202 0.0
O1932 O 0.67111 0.59263 0.0534 0.0
O1933 O 0.6745 0.56469 0.04638 0.0
O1934 O 0.6937 0.57397 0.08051 0.0
O1935 O 0.70957 0.55486 0.06348 0.0
C1936 C 0.70055 0.53285 0.96726 0.0
C1937 C 0.68316 0.51966 0.97492 0.0
H1938 H 0.64819 0.5115 0.9893 0.0
H1939 H 0.636 0.51313 0.02024 0.0
H1940 H 0.73759 0.58621 0.01585 0.0
H1941 H 0.72948 0.57833 0.98613 0.0
H1942 H 0.70557 0.53075 0.95347 0.0
H1943 H 0.67629 0.51111 0.96524 0.0
Mn1944 Mn 0.42157 0.68044 0.06721 0.0
Mn1945 Mn 0.44965 0.69854 0.03928 0.0
C1946 C 0.41251 0.68282 0.03502 0.0
C1947 C 0.40609 0.65652 0.08179 0.0
C1948 C 0.42824 0.72227 0.06547 0.0
O1949 O 0.4483 0.67728 0.08049 0.0
O1950 O 0.46514 0.69069 0.05932 0.0
C1951 C 0.46771 0.66353 0.03063 0.0
N1952 N 0.45967 0.67914 0.0253 0.0
C1953 C 0.47599 0.67609 0.99463 0.0
C1954 C 0.48112 0.65875 1.00051 0.0
C1955 C 0.47728 0.65272 0.01818 0.0
C1956 C 0.4593 0.68382 0.00817 0.0
H1957 H 0.46573 0.65882 0.0442 0.0
C1958 C 0.46415 0.68232 0.0742 0.0
O1959 O 0.40681 0.6727 0.08844 0.0
O1960 O 0.41642 0.65374 0.06781 0.0
N1961 N 0.43706 0.70694 0.01929 0.0
C1962 C 0.42437 0.72009 0.01886 0.0
C1963 C 0.42001 0.72886 0.00287 0.0
C1964 C 0.42909 0.725 0.98689 0.0
C1965 C 0.44404 0.71228 0.98624 0.0
C1966 C 0.44449 0.70003 0.00468 0.0
H1967 H 0.41647 0.72286 0.03076 0.0
O1968 O 0.40063 0.68222 0.04791 0.0
O1969 O 0.42894 0.68252 0.04202 0.0
O1970 O 0.42005 0.70849 0.07205 0.0
O1971 O 0.44046 0.72002 0.05345 0.0
C1972 C 0.47102 0.7025 0.96425 0.0
C1973 C 0.48206 0.68453 0.97366 0.0
H1974 H 0.48677 0.64918 0.99099 0.0
H1975 H 0.48195 0.63947 0.02237 0.0
H1976 H 0.40915 0.73873 0.00285 0.0
H1977 H 0.42361 0.73217 0.97556 0.0
H1978 H 0.47516 0.70721 0.95081 0.0
H1979 H 0.49018 0.67692 0.96437 0.0
Mn1980 Mn 0.32411 0.43413 0.06614 0.0
Mn1981 Mn 0.30006 0.4457 0.05152 0.0
C1982 C 0.33019 0.43147 0.03237 0.0
C1983 C 0.3498 0.42104 0.08028 0.0
C1984 C 0.27924 0.42954 0.07182 0.0
O1985 O 0.32356 0.45656 0.0842 0.0
O1986 O 0.3051 0.46819 0.06523 0.0
C1987 C 0.28484 0.4792 0.03684 0.0
N1988 N 0.28741 0.46102 0.03529 0.0
C1989 C 0.26527 0.46266 0.00803 0.0
C1990 C 0.26604 0.48103 0.00984 0.0
C1991 C 0.27438 0.48866 0.02459 0.0
C1992 C 0.27869 0.45145 0.02281 0.0
H1993 H 0.29059 0.48725 0.04751 0.0
C1994 C 0.31506 0.47049 0.07872 0.0
O1995 O 0.33356 0.41772 0.08539 0.0
O1996 O 0.3514 0.43382 0.06841 0.0
N1997 N 0.29456 0.42467 0.03597 0.0
C1998 C 0.29766 0.40643 0.03769 0.0
C1999 C 0.29621 0.39446 0.02287 0.0
C2000 C 0.29079 0.39983 0.00542 0.0
C2001 C 0.28401 0.41775 0.00239 0.0
C2002 C 0.2873 0.43096 0.02092 0.0
H2003 H 0.30248 0.40087 0.05034 0.0
O2004 O 0.33007 0.41832 0.04394 0.0
O2005 O 0.32353 0.44632 0.03952 0.0
O2006 O 0.29588 0.42352 0.07284 0.0
O2007 O 0.27718 0.44383 0.06322 0.0
C2008 C 0.26259 0.43535 0.97973 0.0
C2009 C 0.25717 0.45541 0.98818 0.0
H2010 H 0.26031 0.48964 0.99952 0.0
H2011 H 0.2715 0.50232 0.02739 0.0
H2012 H 0.29992 0.38042 0.02496 0.0
H2013 H 0.29082 0.38926 0.99529 0.0
H2014 H 0.25595 0.43154 0.967 0.0
H2015 H 0.24693 0.46255 0.98151 0.0
Mn2016 Mn 0.93041 0.57417 0.67413 0.0
Mn2017 Mn 0.94658 0.56857 0.71095 0.0
C2018 C 0.96307 0.57963 0.67865 0.0
C2019 C 0.92381 0.5873 0.64586 0.0
C2020 C 0.91953 0.5891 0.70832 0.0
O2021 O 0.92067 0.54843 0.67434 0.0
O2022 O 0.92689 0.54899 0.70425 0.0
C2023 C 0.95143 0.53279 0.7282 0.0
N2024 N 0.95856 0.54926 0.72354 0.0
C2025 C 0.98096 0.54449 0.7503 0.0
C2026 C 0.97115 0.52934 0.75467 0.0
C2027 C 0.95732 0.52311 0.74343 0.0
C2028 C 0.97186 0.55666 0.7334 0.0
H2029 H 0.94049 0.52682 0.7208 0.0
C2030 C 0.92225 0.54002 0.68958 0.0
O2031 O 0.91193 0.58628 0.65848 0.0
O2032 O 0.9376 0.57646 0.64766 0.0
N2033 N 0.9667 0.58473 0.71579 0.0
C2034 C 0.96939 0.60257 0.71145 0.0
C2035 C 0.98613 0.61118 0.71395 0.0
C2036 C 0.00116 0.60255 0.7215 0.0
C2037 C 0.99922 0.58513 0.72986 0.0
C2038 C 0.97926 0.57554 0.72438 0.0
H2039 H 0.95907 0.61045 0.70479 0.0
O2040 O 0.95195 0.59243 0.67416 0.0
O2041 O 0.95481 0.56596 0.68593 0.0
O2042 O 0.91281 0.57812 0.69755 0.0
O2043 O 0.93506 0.59064 0.70333 0.0
C2044 C 0.01457 0.5657 0.75568 0.0
C2045 C 0.00072 0.54796 0.76106 0.0
H2046 H 0.97482 0.52216 0.76659 0.0
H2047 H 0.95076 0.51043 0.74665 0.0
H2048 H 0.98764 0.625 0.70923 0.0
H2049 H 0.0134 0.61056 0.72169 0.0
H2050 H 0.02658 0.56787 0.76407 0.0
H2051 H 0.00331 0.53967 0.77257 0.0
Mn2052 Mn 0.4255 0.92143 0.6778 0.0
Mn2053 Mn 0.45189 0.94536 0.70369 0.0
C2054 C 0.41655 0.95257 0.68547 0.0
C2055 C 0.412 0.91142 0.65027 0.0
C2056 C 0.42692 0.91749 0.71979 0.0
O2057 O 0.4521 0.90844 0.67453 0.0
O2058 O 0.46658 0.9245 0.69555 0.0
C2059 C 0.46956 0.95454 0.66906 0.0
N2060 N 0.46432 0.95941 0.68605 0.0
C2061 C 0.4802 0.98983 0.68152 0.0
C2062 C 0.48225 0.9846 0.66334 0.0
C2063 C 0.47719 0.96729 0.65722 0.0
C2064 C 0.46428 0.97656 0.69071 0.0
H2065 H 0.4661 0.94142 0.66384 0.0
C2066 C 0.4669 0.91226 0.68352 0.0
O2067 O 0.41134 0.90214 0.66509 0.0
O2068 O 0.42243 0.9256 0.65101 0.0
N2069 N 0.4412 0.96654 0.71363 0.0
C2070 C 0.43106 0.96765 0.72897 0.0
C2071 C 0.42705 0.98431 0.73698 0.0
C2072 C 0.4349 1.00052 0.73121 0.0
C2073 C 0.44874 0.00069 0.71742 0.0
C2074 C 0.4494 0.98097 0.7066 0.0
H2075 H 0.42523 0.95569 0.735 0.0
O2076 O 0.40468 0.94035 0.68126 0.0
O2077 O 0.43285 0.94559 0.68543 0.0
O2078 O 0.42177 0.912 0.7042 0.0
O2079 O 0.43861 0.93012 0.72162 0.0
C2080 C 0.47543 0.022 0.70518 0.0
C2081 C 0.48646 0.01106 0.68813 0.0
H2082 H 0.48449 0.99497 0.65333 0.0
H2083 H 0.47897 0.96384 0.64308 0.0
H2084 H 0.41775 0.98459 0.74833 0.0
H2085 H 0.43028 0.01224 0.73851 0.0
H2086 H 0.47995 0.0355 0.70897 0.0
H2087 H 0.49607 0.01874 0.68025 0.0
Mn2088 Mn 0.07795 0.42833 0.66863 0.0
Mn2089 Mn 0.05282 0.46004 0.68369 0.0
C2090 C 0.04544 0.42274 0.66849 0.0
C2091 C 0.09281 0.41253 0.64523 0.0
C2092 C 0.07751 0.43805 0.70754 0.0
O2093 O 0.09413 0.45317 0.67069 0.0
O2094 O 0.07059 0.47184 0.66907 0.0
C2095 C 0.03749 0.48516 0.65676 0.0
N2096 N 0.03473 0.47262 0.67002 0.0
C2097 C 0.00797 0.49313 0.68143 0.0
C2098 C 0.01133 0.50373 0.66622 0.0
C2099 C 0.02562 0.49987 0.65428 0.0
C2100 C 0.02106 0.47424 0.68155 0.0
H2101 H 0.04898 0.48396 0.64778 0.0
C2102 C 0.08735 0.46953 0.67017 0.0
O2103 O 0.09802 0.4115 0.66197 0.0
O2104 O 0.08096 0.42512 0.6419 0.0
N2105 N 0.03497 0.44765 0.69692 0.0
C2106 C 0.03616 0.43246 0.70728 0.0
C2107 C 0.02155 0.42613 0.71713 0.0
C2108 C 0.00548 0.43567 0.71791 0.0
C2109 C 0.00356 0.45323 0.7095 0.0
C2110 C 0.01962 0.45628 0.69446 0.0
H2111 H 0.04774 0.42386 0.7069 0.0
O2112 O 0.05715 0.40976 0.66723 0.0
O2113 O 0.05338 0.43869 0.66834 0.0
O2114 O 0.07895 0.42487 0.69661 0.0
O2115 O 0.07177 0.4529 0.70145 0.0
C2116 C 0.98245 0.48216 0.71106 0.0
C2117 C 0.98956 0.49758 0.69505 0.0
H2118 H 0.00166 0.51374 0.66231 0.0
H2119 H 0.02772 0.5087 0.64276 0.0
H2120 H 0.02271 0.41336 0.72428 0.0
H2121 H 0.9953 0.42869 0.72544 0.0
H2122 H 0.97066 0.48553 0.71925 0.0
H2123 H 0.98176 0.50981 0.69306 0.0
Mn2124 Mn 0.57824 0.06674 0.67578 0.0
Mn2125 Mn 0.5495 0.03892 0.69313 0.0
C2126 C 0.58689 0.03449 0.67829 0.0
C2127 C 0.59441 0.08005 0.6517 0.0
C2128 C 0.57054 0.06503 0.71743 0.0
O2129 O 0.55185 0.08035 0.67215 0.0
O2130 O 0.53452 0.05879 0.68427 0.0
C2131 C 0.53089 0.02966 0.65858 0.0
N2132 N 0.53967 0.02459 0.67393 0.0
C2133 C 0.52243 0.99426 0.67257 0.0
C2134 C 0.51731 0.99948 0.65502 0.0
C2135 C 0.52109 0.01692 0.64835 0.0
C2136 C 0.53964 0.00764 0.67942 0.0
H2137 H 0.53213 0.04333 0.65362 0.0
C2138 C 0.53583 0.07364 0.67588 0.0
O2139 O 0.5938 0.08745 0.66761 0.0
O2140 O 0.58321 0.06674 0.64926 0.0
N2141 N 0.56204 0.01912 0.70219 0.0
C2142 C 0.57469 0.01895 0.71545 0.0
C2143 C 0.57923 0.00307 0.72436 0.0
C2144 C 0.57015 0.98701 0.72078 0.0
C2145 C 0.55496 0.98631 0.70836 0.0
C2146 C 0.55468 0.00435 0.6955 0.0
H2147 H 0.58235 0.031 0.71837 0.0
O2148 O 0.59891 0.04725 0.67793 0.0
O2149 O 0.57054 0.04161 0.67767 0.0
O2150 O 0.5794 0.07149 0.70398 0.0
O2151 O 0.55806 0.0534 0.71464 0.0
C2152 C 0.52718 0.96475 0.7 0.0
C2153 C 0.51592 0.97383 0.68194 0.0
H2154 H 0.51164 0.9896 0.64583 0.0
H2155 H 0.51605 0.02074 0.63511 0.0
H2156 H 0.59014 0.00322 0.73417 0.0
H2157 H 0.57561 0.97574 0.72809 0.0
H2158 H 0.52272 0.95165 0.70535 0.0
H2159 H 0.50697 0.9647 0.67508 0.0
Mn2160 Mn 0.91746 0.42273 0.33439 0.0
Mn2161 Mn 0.94165 0.45647 0.32318 0.0
C2162 C 0.95012 0.41647 0.33556 0.0
C2163 C 0.90243 0.40403 0.35457 0.0
C2164 C 0.91832 0.4349 0.2966 0.0
O2165 O 0.90076 0.44771 0.33333 0.0
O2166 O 0.92363 0.46526 0.33991 0.0
C2167 C 0.95644 0.48073 0.35181 0.0
N2168 N 0.95935 0.46992 0.33712 0.0
C2169 C 0.98641 0.49182 0.32868 0.0
C2170 C 0.98235 0.50095 0.34481 0.0
C2171 C 0.96781 0.49555 0.35588 0.0
C2172 C 0.97273 0.47358 0.32555 0.0
H2173 H 0.94506 0.4782 0.36065 0.0
C2174 C 0.90714 0.46391 0.33659 0.0
O2175 O 0.89685 0.40574 0.33806 0.0
O2176 O 0.91357 0.41638 0.36045 0.0
N2177 N 0.95962 0.44747 0.30827 0.0
C2178 C 0.959 0.43291 0.29711 0.0
C2179 C 0.97242 0.42963 0.28474 0.0
C2180 C 0.98814 0.43983 0.28456 0.0
C2181 C 0.99108 0.45525 0.2964 0.0
C2182 C 0.97423 0.45739 0.31056 0.0
H2183 H 0.94877 0.42277 0.29827 0.0
O2184 O 0.93803 0.40391 0.33486 0.0
O2185 O 0.94261 0.43284 0.33639 0.0
O2186 O 0.91736 0.42103 0.30653 0.0
O2187 O 0.92333 0.44957 0.30405 0.0
C2188 C 0.01375 0.48274 0.29973 0.0
C2189 C 0.0061 0.49673 0.31701 0.0
H2190 H 0.99106 0.51179 0.3495 0.0
H2191 H 0.96515 0.50324 0.36808 0.0
H2192 H 0.97134 0.41783 0.27605 0.0
H2193 H 0.99785 0.43402 0.2756 0.0
H2194 H 0.02702 0.48513 0.29401 0.0
H2195 H 0.0149 0.50733 0.32198 0.0
Mn2196 Mn 0.57588 0.92595 0.32529 0.0
Mn2197 Mn 0.54739 0.95555 0.31065 0.0
C2198 C 0.58517 0.95831 0.32511 0.0
C2199 C 0.59127 0.90979 0.34812 0.0
C2200 C 0.56695 0.92978 0.28456 0.0
O2201 O 0.5494 0.91221 0.32686 0.0
O2202 O 0.53199 0.93547 0.31841 0.0
C2203 C 0.53064 0.96371 0.34647 0.0
N2204 N 0.53862 0.96923 0.33088 0.0
C2205 C 0.52211 0.99971 0.33418 0.0
C2206 C 0.51766 0.99394 0.35174 0.0
C2207 C 0.5216 0.97622 0.35767 0.0
C2208 C 0.53893 0.98648 0.32637 0.0
H2209 H 0.53219 0.9499 0.35083 0.0
C2210 C 0.5334 0.91927 0.32372 0.0
O2211 O 0.59069 0.90425 0.33151 0.0
O2212 O 0.58086 0.9235 0.35181 0.0
N2213 N 0.56025 0.97552 0.30249 0.0
C2214 C 0.57257 0.97598 0.28898 0.0
C2215 C 0.57744 0.99219 0.28092 0.0
C2216 C 0.56891 0.00824 0.28566 0.0
C2217 C 0.5536 0.00861 0.29788 0.0
C2218 C 0.55349 0.99018 0.31007 0.0
H2219 H 0.57986 0.96388 0.28542 0.0
O2220 O 0.59692 0.94529 0.32471 0.0
O2221 O 0.56872 0.95135 0.3253 0.0
O2222 O 0.57666 0.92305 0.29716 0.0
O2223 O 0.55496 0.94172 0.28828 0.0
C2224 C 0.52616 0.0301 0.3076 0.0
C2225 C 0.51527 0.02036 0.32565 0.0
H2226 H 0.51273 0.00364 0.3615 0.0
H2227 H 0.51727 0.97202 0.37104 0.0
H2228 H 0.58838 0.99237 0.27115 0.0
H2229 H 0.57524 0.01979 0.2798 0.0
H2230 H 0.52172 0.04339 0.30286 0.0
H2231 H 0.50591 0.02884 0.33285 0.0
Mn2232 Mn 0.06885 0.57529 0.32732 0.0
Mn2233 Mn 0.0525 0.56303 0.29227 0.0
C2234 C 0.03603 0.58005 0.32193 0.0
C2235 C 0.07486 0.58889 0.35568 0.0
C2236 C 0.07795 0.58664 0.28965 0.0
O2237 O 0.07932 0.54971 0.33088 0.0
O2238 O 0.07438 0.54765 0.3015 0.0
C2239 C 0.05106 0.52454 0.28416 0.0
N2240 N 0.04173 0.54025 0.2868 0.0
C2241 C 0.0159 0.52484 0.26888 0.0
C2242 C 0.02614 0.5094 0.2694 0.0
C2243 C 0.04359 0.50943 0.27624 0.0
C2244 C 0.02615 0.5429 0.27819 0.0
H2245 H 0.06528 0.52365 0.28595 0.0
C2246 C 0.07759 0.53963 0.31687 0.0
O2247 O 0.08619 0.58952 0.34244 0.0
O2248 O 0.06151 0.57766 0.35357 0.0
N2249 N 0.03134 0.57595 0.28425 0.0
C2250 C 0.02819 0.5942 0.28269 0.0
C2251 C 0.01159 0.60116 0.27677 0.0
C2252 C 0.9971 0.59022 0.27165 0.0
C2253 C 0.9993 0.57094 0.2703 0.0
C2254 C 0.01921 0.56412 0.27889 0.0
H2255 H 0.03821 0.60415 0.28639 0.0
O2256 O 0.0472 0.59338 0.32488 0.0
O2257 O 0.04447 0.56533 0.31727 0.0
O2258 O 0.08578 0.57845 0.30232 0.0
O2259 O 0.06227 0.58721 0.29445 0.0
C2260 C 0.98265 0.54262 0.25616 0.0
C2261 C 0.99562 0.52392 0.25873 0.0
H2262 H 0.02061 0.49719 0.26439 0.0
H2263 H 0.05198 0.49749 0.27553 0.0
H2264 H 0.00983 0.61572 0.27645 0.0
H2265 H 0.98502 0.59755 0.26784 0.0
H2266 H 0.96887 0.54098 0.25262 0.0
H2267 H 0.99119 0.51124 0.25364 0.0
Mn2268 Mn 0.42468 0.07509 0.32505 0.0
Mn2269 Mn 0.45261 0.04725 0.30608 0.0
C2270 C 0.41552 0.04335 0.32027 0.0
C2271 C 0.40833 0.0876 0.34932 0.0
C2272 C 0.43169 0.07428 0.28345 0.0
O2273 O 0.45149 0.08805 0.32886 0.0
O2274 O 0.46779 0.06725 0.31433 0.0
C2275 C 0.46809 0.03889 0.34225 0.0
N2276 N 0.46167 0.03348 0.32586 0.0
C2277 C 0.47922 0.00407 0.32942 0.0
C2278 C 0.48148 0.00901 0.34764 0.0
C2279 C 0.47631 0.02627 0.35391 0.0
C2280 C 0.46209 0.01637 0.32103 0.0
H2281 H 0.46583 0.05256 0.34685 0.0
C2282 C 0.46716 0.08183 0.32319 0.0
O2283 O 0.40996 0.09606 0.33403 0.0
O2284 O 0.41899 0.07379 0.35165 0.0
N2285 N 0.44085 0.02681 0.29672 0.0
C2286 C 0.43016 0.02615 0.28184 0.0
C2287 C 0.42766 0.01015 0.27222 0.0
C2288 C 0.4376 0.99464 0.27619 0.0
C2289 C 0.45113 0.99455 0.2904 0.0
C2290 C 0.44877 0.01236 0.30363 0.0
H2291 H 0.42221 0.03777 0.27821 0.0
O2292 O 0.40358 0.0561 0.32172 0.0
O2293 O 0.43182 0.05016 0.32138 0.0
O2294 O 0.42383 0.08101 0.29735 0.0
O2295 O 0.44347 0.06179 0.28524 0.0
C2296 C 0.47946 0.97501 0.30123 0.0
C2297 C 0.48813 0.9845 0.32053 0.0
H2298 H 0.48496 0.9988 0.35745 0.0
H2299 H 0.479 0.02999 0.36784 0.0
H2300 H 0.41806 0.00992 0.26113 0.0
H2301 H 0.43443 0.9834 0.26749 0.0
H2302 H 0.48549 0.96246 0.29612 0.0
H2303 H 0.49742 0.97625 0.32811 0.0
Mn2304 Mn 0.67474 0.92048 0.5769 0.0
Mn2305 Mn 0.69414 0.94885 0.55041 0.0
C2306 C 0.67839 0.95211 0.5886 0.0
C2307 C 0.64906 0.90729 0.59003 0.0
C2308 C 0.71613 0.92151 0.57193 0.0
O2309 O 0.673 0.90767 0.54977 0.0
O2310 O 0.68606 0.92977 0.53436 0.0
C2311 C 0.65948 0.95934 0.53288 0.0
N2312 N 0.6759 0.96364 0.53988 0.0
C2313 C 0.67506 0.99384 0.52206 0.0
C2314 C 0.6567 0.98948 0.51909 0.0
C2315 C 0.64929 0.97252 0.52375 0.0
C2316 C 0.68302 0.97984 0.53809 0.0
H2317 H 0.65372 0.94614 0.53539 0.0
C2318 C 0.67833 0.91468 0.53438 0.0
O2319 O 0.66467 0.89927 0.59032 0.0
O2320 O 0.64801 0.92136 0.57957 0.0
N2321 N 0.70375 0.9684 0.56236 0.0
C2322 C 0.71707 0.96808 0.57481 0.0
C2323 C 0.72991 0.98169 0.57534 0.0
C2324 C 0.72844 0.99695 0.56435 0.0
C2325 C 0.71335 1.00001 0.55185 0.0
C2326 C 0.69996 0.98241 0.55202 0.0
H2327 H 0.71799 0.95694 0.5842 0.0
O2328 O 0.67625 0.93833 0.59917 0.0
O2329 O 0.67825 0.94636 0.57155 0.0
O2330 O 0.70231 0.91475 0.57981 0.0
O2331 O 0.71428 0.93373 0.55992 0.0
C2332 C 0.70326 0.02301 0.52604 0.0
C2333 C 0.68422 0.01444 0.51555 0.0
H2334 H 0.64731 1.00025 0.51604 0.0
H2335 H 0.63526 0.96972 0.52053 0.0
H2336 H 0.74045 0.98114 0.58555 0.0
H2337 H 0.73753 0.00698 0.56914 0.0
H2338 H 0.70876 0.03595 0.52145 0.0
H2339 H 0.67706 0.02339 0.50653 0.0
Mn2340 Mn 0.67482 0.07222 0.42974 0.0
Mn2341 Mn 0.6954 0.04328 0.45439 0.0
C2342 C 0.67713 0.04052 0.41867 0.0
C2343 C 0.64904 0.08594 0.41741 0.0
C2344 C 0.71665 0.0701 0.43202 0.0
O2345 O 0.67464 0.08447 0.45723 0.0
O2346 O 0.68941 0.06244 0.4714 0.0
C2347 C 0.66051 0.03518 0.47261 0.0
N2348 N 0.67613 0.02971 0.4646 0.0
C2349 C 0.67311 0.99936 0.48047 0.0
C2350 C 0.65521 0.0046 0.48425 0.0
C2351 C 0.64914 0.02238 0.48092 0.0
C2352 C 0.68033 0.01251 0.46352 0.0
H2353 H 0.6562 0.04908 0.47154 0.0
C2354 C 0.68133 0.07739 0.47211 0.0
O2355 O 0.66479 0.09368 0.41673 0.0
O2356 O 0.64796 0.072 0.42806 0.0
N2357 N 0.7028 0.02359 0.44073 0.0
C2358 C 0.71612 0.02325 0.4282 0.0
C2359 C 0.72484 0.00727 0.4238 0.0
C2360 C 0.72124 0.99138 0.4332 0.0
C2361 C 0.70912 0.99095 0.4486 0.0
C2362 C 0.6963 0.00898 0.44854 0.0
H2363 H 0.71877 0.03511 0.42023 0.0
O2364 O 0.67471 0.05389 0.4076 0.0
O2365 O 0.67821 0.04687 0.43525 0.0
O2366 O 0.70228 0.07718 0.42551 0.0
O2367 O 0.71572 0.05769 0.44399 0.0
C2368 C 0.70048 0.9698 0.47655 0.0
C2369 C 0.68229 0.97905 0.48744 0.0
H2370 H 0.64532 0.99447 0.48794 0.0
H2371 H 0.6356 0.02627 0.48496 0.0
H2372 H 0.73449 0.00718 0.41275 0.0
H2373 H 0.72803 0.97998 0.42751 0.0
H2374 H 0.70565 0.95672 0.48119 0.0
H2375 H 0.67527 0.9702 0.49664 0.0
Mn2376 Mn 0.92842 0.66887 0.42357 0.0
Mn2377 Mn 0.95192 0.69455 0.44892 0.0
C2378 C 0.96099 0.66652 0.42149 0.0
C2379 C 0.91392 0.64297 0.41256 0.0
C2380 C 0.92516 0.70906 0.42552 0.0
O2381 O 0.9143 0.67222 0.44928 0.0
O2382 O 0.93806 0.68108 0.46688 0.0
C2383 C 0.9441 0.71829 0.47984 0.0
N2384 N 0.95336 0.71543 0.46421 0.0
C2385 C 0.97354 0.74281 0.47263 0.0
C2386 C 0.96054 0.74635 0.48584 0.0
C2387 C 0.94663 0.73413 0.48985 0.0
C2388 C 0.96559 0.7273 0.45809 0.0
H2389 H 0.9338 0.70892 0.48414 0.0
C2390 C 0.9219 0.67496 0.4652 0.0
O2391 O 0.90824 0.65909 0.40887 0.0
O2392 O 0.92625 0.64191 0.42511 0.0
N2393 N 0.96489 0.7079 0.43039 0.0
C2394 C 0.96645 0.70543 0.41218 0.0
C2395 C 0.97901 0.71516 0.40185 0.0
C2396 C 0.99178 0.72691 0.40959 0.0
C2397 C 0.99203 0.73057 0.42892 0.0
C2398 C 0.97333 0.72158 0.43818 0.0
H2399 H 0.95783 0.69618 0.40504 0.0
O2400 O 0.95108 0.66317 0.40734 0.0
O2401 O 0.95126 0.6727 0.43453 0.0
O2402 O 0.92603 0.69605 0.41435 0.0
O2403 O 0.929 0.70552 0.44166 0.0
C2404 C 0.00646 0.75392 0.45193 0.0
C2405 C 0.99296 0.75531 0.47074 0.0
H2406 H 0.95926 0.75957 0.49138 0.0
H2407 H 0.93727 0.73724 0.5007 0.0
H2408 H 0.97947 0.71278 0.38737 0.0
H2409 H 0.00136 0.73194 0.39986 0.0
H2410 H 0.01792 0.7633 0.45097 0.0
H2411 H 0.99637 0.76543 0.48052 0.0
Mn2412 Mn 0.32686 0.9287 0.41892 0.0
Mn2413 Mn 0.30238 0.95333 0.44498 0.0
C2414 C 0.32412 0.96117 0.41228 0.0
C2415 C 0.35303 0.91732 0.40513 0.0
C2416 C 0.28409 0.92752 0.41938 0.0
O2417 O 0.32909 0.91529 0.44511 0.0
O2418 O 0.30796 0.93148 0.45949 0.0
C2419 C 0.33156 0.96025 0.47162 0.0
N2420 N 0.31856 0.96625 0.46017 0.0
C2421 C 0.31242 0.99226 0.48205 0.0
C2422 C 0.32692 0.98581 0.49228 0.0
C2423 C 0.33661 0.97038 0.48692 0.0
C2424 C 0.31194 0.9826 0.46152 0.0
H2425 H 0.33891 0.9483 0.46817 0.0
C2426 C 0.32012 0.9193 0.45981 0.0
O2427 O 0.33766 0.90898 0.40411 0.0
O2428 O 0.35371 0.93063 0.41661 0.0
N2429 N 0.29609 0.97474 0.4329 0.0
C2430 C 0.28607 0.97658 0.41769 0.0
C2431 C 0.27798 0.99302 0.41316 0.0
C2432 C 0.27881 0.00792 0.42472 0.0
C2433 C 0.28763 0.00652 0.44216 0.0
C2434 C 0.30075 0.98851 0.44315 0.0
H2435 H 0.28635 0.96583 0.4079 0.0
O2436 O 0.3261 0.94942 0.39936 0.0
O2437 O 0.32225 0.95284 0.42785 0.0
O2438 O 0.29942 0.92112 0.41438 0.0
O2439 O 0.28349 0.94033 0.43078 0.0
C2440 C 0.28657 0.02223 0.47435 0.0
C2441 C 0.30085 0.01076 0.48886 0.0
H2442 H 0.33267 0.99434 0.50253 0.0
H2443 H 0.34823 0.9662 0.49478 0.0
H2444 H 0.27091 0.9942 0.40035 0.0
H2445 H 0.27175 0.01975 0.41983 0.0
H2446 H 0.27948 0.03439 0.47856 0.0
H2447 H 0.30454 0.01627 0.50173 0.0
Mn2448 Mn 0.0698 0.32742 0.42628 0.0
Mn2449 Mn 0.05575 0.28984 0.43949 0.0
C2450 C 0.03875 0.31921 0.41902 0.0
C2451 C 0.07489 0.35675 0.41435 0.0
C2452 C 0.0806 0.29045 0.41386 0.0
O2453 O 0.0794 0.33077 0.45254 0.0
O2454 O 0.07751 0.30117 0.45326 0.0
C2455 C 0.05729 0.28266 0.47816 0.0
N2456 N 0.04668 0.28513 0.46324 0.0
C2457 C 0.02142 0.26969 0.48197 0.0
C2458 C 0.03298 0.27065 0.49633 0.0
C2459 C 0.05064 0.27654 0.49459 0.0
C2460 C 0.03085 0.27672 0.46244 0.0
H2461 H 0.0717 0.28304 0.47718 0.0
C2462 C 0.07869 0.31634 0.46215 0.0
O2463 O 0.08692 0.34416 0.41377 0.0
O2464 O 0.06095 0.35329 0.42454 0.0
N2465 N 0.03458 0.27931 0.42867 0.0
C2466 C 0.03086 0.27572 0.41089 0.0
C2467 C 0.01488 0.26717 0.40544 0.0
C2468 C 0.00136 0.26191 0.41756 0.0
C2469 C 0.00315 0.26512 0.43681 0.0
C2470 C 0.02317 0.27462 0.44164 0.0
H2471 H 0.04014 0.27924 0.4002 0.0
O2472 O 0.05041 0.32372 0.40657 0.0
O2473 O 0.04626 0.31474 0.43462 0.0
O2474 O 0.08753 0.304 0.42164 0.0
O2475 O 0.06421 0.29148 0.41476 0.0
C2476 C 0.9875 0.25501 0.46729 0.0
C2477 C 0.00102 0.25994 0.48507 0.0
H2478 H 0.0287 0.26511 0.50859 0.0
H2479 H 0.05986 0.27524 0.5059 0.0
H2480 H 0.01282 0.26468 0.39112 0.0
H2481 H 0.98967 0.25595 0.41107 0.0
H2482 H 0.97383 0.25231 0.47005 0.0
H2483 H 0.99642 0.25672 0.49851 0.0
Mn2484 Mn 0.32684 0.0737 0.57863 0.0
Mn2485 Mn 0.29089 0.0555 0.56704 0.0
C2486 C 0.32245 0.04141 0.58558 0.0
C2487 C 0.35613 0.08116 0.58869 0.0
C2488 C 0.28894 0.08294 0.59093 0.0
O2489 O 0.32728 0.08504 0.55307 0.0
O2490 O 0.2979 0.07803 0.55052 0.0
C2491 C 0.29352 0.04806 0.52869 0.0
N2492 N 0.28788 0.04302 0.54525 0.0
C2493 C 0.2672 0.0197 0.52953 0.0
C2494 C 0.27263 0.02765 0.51365 0.0
C2495 C 0.2853 0.04178 0.51323 0.0
C2496 C 0.27605 0.0297 0.54778 0.0
H2497 H 0.30523 0.05605 0.52714 0.0
C2498 C 0.31295 0.08421 0.54321 0.0
O2499 O 0.34255 0.09194 0.59054 0.0
O2500 O 0.35327 0.06716 0.57843 0.0
N2501 N 0.28371 0.03412 0.58029 0.0
C2502 C 0.28333 0.03073 0.59847 0.0
C2503 C 0.27562 0.0149 0.60554 0.0
C2504 C 0.26851 0.00104 0.59467 0.0
C2505 C 0.26901 0.00211 0.57509 0.0
C2506 C 0.27693 0.02242 0.56864 0.0
H2507 H 0.28894 0.04025 0.60806 0.0
O2508 O 0.32621 0.0532 0.59818 0.0
O2509 O 0.31657 0.04921 0.57075 0.0
O2510 O 0.30272 0.09 0.58385 0.0
O2511 O 0.28973 0.06648 0.59063 0.0
C2512 C 0.25492 0.98559 0.54647 0.0
C2513 C 0.25745 0.99921 0.52821 0.0
H2514 H 0.26839 0.02117 0.50162 0.0
H2515 H 0.29024 0.0475 0.50076 0.0
H2516 H 0.2755 0.01314 0.62011 0.0
H2517 H 0.2638 0.98951 0.6023 0.0
H2518 H 0.248 0.97259 0.54468 0.0
H2519 H 0.25505 0.99398 0.51561 0.0
Mn2520 Mn 0.91925 0.3285 0.57977 0.0
Mn2521 Mn 0.93951 0.29964 0.55341 0.0
C2522 C 0.95043 0.32055 0.58659 0.0
C2523 C 0.91043 0.35629 0.59327 0.0
C2524 C 0.91285 0.28681 0.58076 0.0
O2525 O 0.90585 0.3318 0.55373 0.0
O2526 O 0.91854 0.30807 0.53998 0.0
C2527 C 0.95024 0.3282 0.52711 0.0
N2528 N 0.95421 0.31336 0.53716 0.0
C2529 C 0.98369 0.31003 0.51846 0.0
C2530 C 0.97821 0.32563 0.50929 0.0
C2531 C 0.96205 0.33456 0.51363 0.0
C2532 C 0.9703 0.30596 0.53654 0.0
H2533 H 0.93864 0.33615 0.53046 0.0
C2534 C 0.90817 0.32164 0.53946 0.0
O2535 O 0.90088 0.34171 0.59432 0.0
O2536 O 0.9242 0.35527 0.58231 0.0
N2537 N 0.95988 0.28959 0.56464 0.0
C2538 C 0.96046 0.27748 0.57852 0.0
C2539 C 0.97666 0.26969 0.5841 0.0
C2540 C 0.99283 0.27274 0.57495 0.0
C2541 C 0.99314 0.2823 0.55785 0.0
C2542 C 0.97412 0.29349 0.55463 0.0
H2543 H 0.94855 0.27422 0.58621 0.0
O2544 O 0.93911 0.32506 0.59925 0.0
O2545 O 0.9425 0.31993 0.57063 0.0
O2546 O 0.90867 0.3028 0.58571 0.0
O2547 O 0.92432 0.28404 0.56843 0.0
C2548 C 0.01479 0.28703 0.5296 0.0
C2549 C 0.00466 0.30135 0.5145 0.0
H2550 H 0.98793 0.33296 0.50134 0.0
H2551 H 0.95899 0.34723 0.50695 0.0
H2552 H 0.9767 0.26115 0.59604 0.0
H2553 H 0.00434 0.26654 0.58138 0.0
H2554 H 0.02924 0.28481 0.52803 0.0
H2555 H 0.01299 0.30724 0.50411 0.0
Mn2556 Mn 0.07928 0.66486 0.5717 0.0
Mn2557 Mn 0.05773 0.69521 0.54948 0.0
C2558 C 0.04633 0.66698 0.57543 0.0
C2559 C 0.08933 0.63693 0.58287 0.0
C2560 C 0.08401 0.70689 0.57681 0.0
O2561 O 0.09355 0.66608 0.54622 0.0
O2562 O 0.07864 0.68974 0.53405 0.0
C2563 C 0.04897 0.68131 0.51469 0.0
N2564 N 0.04279 0.68594 0.53126 0.0
C2565 C 0.02478 0.71123 0.51506 0.0
C2566 C 0.03609 0.7083 0.50048 0.0
C2567 C 0.04714 0.693 0.49993 0.0
C2568 C 0.03043 0.69864 0.53317 0.0
H2569 H 0.05668 0.66911 0.51341 0.0
C2570 C 0.09009 0.67696 0.5327 0.0
O2571 O 0.09795 0.65183 0.58584 0.0
O2572 O 0.07663 0.63782 0.57068 0.0
N2573 N 0.03807 0.70055 0.56473 0.0
C2574 C 0.03807 0.70616 0.58232 0.0
C2575 C 0.02223 0.71239 0.59049 0.0
C2576 C 0.00668 0.71566 0.58027 0.0
C2577 C 0.00759 0.71458 0.56076 0.0
C2578 C 0.02379 0.70067 0.55428 0.0
H2579 H 0.05005 0.70474 0.59047 0.0
O2580 O 0.05686 0.6632 0.58904 0.0
O2581 O 0.0561 0.67165 0.56136 0.0
O2582 O 0.08821 0.69073 0.58129 0.0
O2583 O 0.07235 0.70963 0.56507 0.0
C2584 C 0.99705 0.73403 0.53276 0.0
C2585 C 0.00868 0.72732 0.51389 0.0
H2586 H 0.03579 0.71734 0.48908 0.0
H2587 H 0.05421 0.68994 0.48767 0.0
H2588 H 0.02217 0.71518 0.60489 0.0
H2589 H 0.99529 0.72099 0.58775 0.0
H2590 H 0.98861 0.74547 0.53165 0.0
H2591 H 0.00556 0.73315 0.50091 0.0
Mn2592 Mn 0.40514 0.3328 0.0713 0.0
Mn2593 Mn 0.41938 0.30118 0.04871 0.0
C2594 C 0.40303 0.33422 0.03681 0.0
C2595 C 0.38315 0.35166 0.08352 0.0
C2596 C 0.44529 0.32015 0.07431 0.0
O2597 O 0.40278 0.30814 0.0879 0.0
O2598 O 0.40331 0.28841 0.06477 0.0
C2599 C 0.42665 0.26269 0.04758 0.0
N2600 N 0.43227 0.27979 0.04432 0.0
C2601 C 0.45872 0.26687 0.02554 0.0
C2602 C 0.45058 0.25 0.02849 0.0
C2603 C 0.43456 0.24826 0.03856 0.0
C2604 C 0.4444 0.28326 0.03169 0.0
H2605 H 0.41468 0.26006 0.05551 0.0
C2606 C 0.40122 0.29156 0.0815 0.0
O2607 O 0.39952 0.35153 0.08976 0.0
O2608 O 0.37873 0.33839 0.07287 0.0
N2609 N 0.43479 0.31517 0.03456 0.0
C2610 C 0.44009 0.33302 0.03545 0.0
C2611 C 0.44748 0.34151 0.0205 0.0
C2612 C 0.45216 0.33119 0.00572 0.0
C2613 C 0.45637 0.31256 0.00885 0.0
C2614 C 0.44284 0.30401 0.024 0.0
H2615 H 0.43573 0.34193 0.04587 0.0
O2616 O 0.40466 0.34873 0.04664 0.0
O2617 O 0.40406 0.32096 0.04829 0.0
O2618 O 0.43416 0.33349 0.07506 0.0
O2619 O 0.43877 0.30525 0.06823 0.0
C2620 C 0.48095 0.28848 0.99977 0.0
C2621 C 0.47673 0.26871 0.01125 0.0
H2622 H 0.45516 0.23836 0.02135 0.0
H2623 H 0.42752 0.23575 0.03905 0.0
H2624 H 0.44799 0.35616 0.01982 0.0
H2625 H 0.4546 0.33837 0.99331 0.0
H2626 H 0.49234 0.28909 0.99044 0.0
H2627 H 0.48487 0.25696 0.0083 0.0
Mn2628 Mn 0.67515 0.40694 0.07741 0.0
Mn2629 Mn 0.70874 0.42851 0.06072 0.0
C2630 C 0.67703 0.40733 0.04423 0.0
C2631 C 0.65468 0.38399 0.08686 0.0
C2632 C 0.68055 0.44949 0.08196 0.0
O2633 O 0.69692 0.40244 0.09642 0.0
O2634 O 0.71937 0.41787 0.0824 0.0
C2635 C 0.7438 0.41224 0.05351 0.0
N2636 N 0.72822 0.41876 0.04632 0.0
C2637 C 0.74877 0.4419 0.02863 0.0
C2638 C 0.76346 0.43374 0.03682 0.0
C2639 C 0.76093 0.41874 0.04832 0.0
C2640 C 0.72904 0.43042 0.03258 0.0
H2641 H 0.74308 0.40211 0.06383 0.0
C2642 C 0.71391 0.40716 0.09474 0.0
O2643 O 0.65464 0.40001 0.09367 0.0
O2644 O 0.66843 0.38019 0.07654 0.0
N2645 N 0.69756 0.43716 0.04026 0.0
C2646 C 0.68065 0.44486 0.03946 0.0
C2647 C 0.67365 0.45011 0.023 0.0
C2648 C 0.68542 0.45082 0.00854 0.0
C2649 C 0.7042 0.45163 0.01223 0.0
C2650 C 0.7086 0.43558 0.02611 0.0
H2651 H 0.67143 0.44408 0.05048 0.0
O2652 O 0.66188 0.4086 0.05306 0.0
O2653 O 0.69103 0.40832 0.05563 0.0
O2654 O 0.67056 0.43534 0.08309 0.0
O2655 O 0.696 0.44756 0.07505 0.0
C2656 C 0.73324 0.4713 0.00521 0.0
C2657 C 0.75163 0.46121 0.01579 0.0
H2658 H 0.77683 0.43882 0.03395 0.0
H2659 H 0.77245 0.41235 0.05441 0.0
H2660 H 0.65928 0.45244 0.02126 0.0
H2661 H 0.67997 0.45104 0.99528 0.0
H2662 H 0.73509 0.48379 0.99756 0.0
H2663 H 0.76494 0.46719 0.01441 0.0
Mn2664 Mn 0.58842 0.6803 0.06796 0.0
Mn2665 Mn 0.56814 0.70198 0.05777 0.0
C2666 C 0.59287 0.68404 0.03395 0.0
C2667 C 0.60902 0.65699 0.07759 0.0
C2668 C 0.54306 0.68743 0.07537 0.0
O2669 O 0.59555 0.69867 0.08915 0.0
O2670 O 0.57765 0.71765 0.07637 0.0
C2671 C 0.56833 0.74158 0.05034 0.0
N2672 N 0.56338 0.72438 0.04589 0.0
C2673 C 0.53988 0.73819 0.02416 0.0
C2674 C 0.5452 0.75494 0.03087 0.0
C2675 C 0.56021 0.75651 0.04213 0.0
C2676 C 0.55284 0.72129 0.03198 0.0
H2677 H 0.57906 0.74421 0.05985 0.0
C2678 C 0.5895 0.71483 0.08793 0.0
O2679 O 0.59255 0.65786 0.0829 0.0
O2680 O 0.61448 0.67078 0.06825 0.0
N2681 N 0.55769 0.68879 0.03812 0.0
C2682 C 0.55459 0.67065 0.03605 0.0
C2683 C 0.5516 0.66322 0.01897 0.0
C2684 C 0.5485 0.67419 0.00399 0.0
C2685 C 0.54453 0.69298 0.00654 0.0
C2686 C 0.55486 0.70048 0.0248 0.0
H2687 H 0.55767 0.66131 0.04676 0.0
O2688 O 0.5891 0.66909 0.04238 0.0
O2689 O 0.59119 0.69793 0.04511 0.0
O2690 O 0.55788 0.67748 0.07439 0.0
O2691 O 0.54482 0.70334 0.06954 0.0
C2692 C 0.52268 0.71848 0.9938 0.0
C2693 C 0.5254 0.73749 0.00657 0.0
H2694 H 0.53937 0.76709 0.02593 0.0
H2695 H 0.56594 0.76962 0.04412 0.0
H2696 H 0.55233 0.64867 0.01722 0.0
H2697 H 0.54802 0.66746 0.99112 0.0
H2698 H 0.5128 0.71871 0.98274 0.0
H2699 H 0.51896 0.74955 0.0029 0.0
Mn2700 Mn 0.31874 0.59216 0.0694 0.0
Mn2701 Mn 0.29864 0.57042 0.0588 0.0
C2702 C 0.32004 0.59245 0.03513 0.0
C2703 C 0.34035 0.61411 0.07966 0.0
C2704 C 0.31078 0.54859 0.08116 0.0
O2705 O 0.29809 0.60024 0.08784 0.0
O2706 O 0.28005 0.58315 0.07254 0.0
C2707 C 0.26074 0.56715 0.04478 0.0
N2708 N 0.27862 0.56207 0.04412 0.0
C2709 C 0.26883 0.53899 0.01912 0.0
C2710 C 0.25152 0.54661 0.02015 0.0
C2711 C 0.24764 0.56017 0.03283 0.0
C2712 C 0.28436 0.54986 0.0323 0.0
H2713 H 0.25606 0.57742 0.05402 0.0
C2714 C 0.28194 0.5951 0.08437 0.0
O2715 O 0.33883 0.59834 0.08671 0.0
O2716 O 0.32797 0.61829 0.06796 0.0
N2717 N 0.31579 0.55708 0.04387 0.0
C2718 C 0.33422 0.55512 0.04492 0.0
C2719 C 0.34462 0.54816 0.03072 0.0
C2720 C 0.33712 0.54173 0.01468 0.0
C2721 C 0.31785 0.54019 0.0128 0.0
C2722 C 0.30681 0.55062 0.02993 0.0
H2723 H 0.34178 0.56085 0.05597 0.0
O2724 O 0.33353 0.59025 0.04602 0.0
O2725 O 0.30453 0.59153 0.04387 0.0
O2726 O 0.32101 0.56297 0.0792 0.0
O2727 O 0.29541 0.54957 0.07396 0.0
C2728 C 0.29382 0.52238 0.99286 0.0
C2729 C 0.27279 0.52583 0.00087 0.0
H2730 H 0.24093 0.54221 0.011 0.0
H2731 H 0.23395 0.5654 0.03353 0.0
H2732 H 0.35923 0.54824 0.0321 0.0
H2733 H 0.34685 0.53721 0.00474 0.0
H2734 H 0.29515 0.51362 0.98095 0.0
H2735 H 0.26172 0.52103 0.99279 0.0
Mn2736 Mn 0.40618 0.68249 0.91686 0.0
Mn2737 Mn 0.42596 0.70206 0.92788 0.0
C2738 C 0.40186 0.68291 0.9517 0.0
C2739 C 0.38522 0.66049 0.90564 0.0
C2740 C 0.45106 0.68961 0.90859 0.0
O2741 O 0.39934 0.7026 0.897 0.0
O2742 O 0.41607 0.7203 0.91257 0.0
C2743 C 0.42762 0.74036 0.94042 0.0
N2744 N 0.43252 0.72257 0.94189 0.0
C2745 C 0.45707 0.73249 0.96466 0.0
C2746 C 0.45062 0.75021 0.96198 0.0
C2747 C 0.43587 0.75376 0.95087 0.0
C2748 C 0.44399 0.71708 0.95416 0.0
H2749 H 0.41655 0.74456 0.93189 0.0
C2750 C 0.40502 0.7186 0.90019 0.0
O2751 O 0.40143 0.66187 0.89974 0.0
O2752 O 0.3801 0.6734 0.9163 0.0
N2753 N 0.43697 0.68558 0.94464 0.0
C2754 C 0.43934 0.66716 0.94443 0.0
C2755 C 0.44315 0.65752 0.96018 0.0
C2756 C 0.44714 0.6662 0.97638 0.0
C2757 C 0.45051 0.68537 0.97654 0.0
C2758 C 0.44092 0.69543 0.9589 0.0
H2759 H 0.43522 0.65913 0.93297 0.0
O2760 O 0.40494 0.66885 0.94167 0.0
O2761 O 0.40366 0.69768 0.94177 0.0
O2762 O 0.43654 0.67928 0.90917 0.0
O2763 O 0.44871 0.70493 0.91532 0.0
C2764 C 0.47253 0.70859 0.99269 0.0
C2765 C 0.47132 0.72877 0.98235 0.0
H2766 H 0.45574 0.76134 0.96995 0.0
H2767 H 0.43024 0.76718 0.95101 0.0
H2768 H 0.44251 0.64286 0.9599 0.0
H2769 H 0.44914 0.65737 0.9878 0.0
H2770 H 0.48195 0.70739 0.00396 0.0
H2771 H 0.48058 0.73861 0.98713 0.0
Mn2772 Mn 0.3331 0.41783 0.91804 0.0
Mn2773 Mn 0.2969 0.43056 0.94015 0.0
C2774 C 0.33506 0.42396 0.95049 0.0
C2775 C 0.35535 0.39673 0.90964 0.0
C2776 C 0.31817 0.45711 0.91606 0.0
O2777 O 0.31105 0.40961 0.90041 0.0
O2778 O 0.28886 0.42035 0.91795 0.0
C2779 C 0.28143 0.39361 0.94516 0.0
N2780 N 0.28764 0.40927 0.95267 0.0
C2781 C 0.26547 0.40309 0.97937 0.0
C2782 C 0.26016 0.3875 0.97026 0.0
C2783 C 0.26859 0.38252 0.95395 0.0
C2784 C 0.28379 0.41342 0.9697 0.0
H2785 H 0.28624 0.38957 0.93204 0.0
C2786 C 0.29397 0.41251 0.9038 0.0
O2787 O 0.35331 0.41189 0.90101 0.0
O2788 O 0.34263 0.39251 0.92102 0.0
N2789 N 0.3026 0.44118 0.962 0.0
C2790 C 0.30995 0.45795 0.96366 0.0
C2791 C 0.30909 0.46724 0.97972 0.0
C2792 C 0.29882 0.46101 0.99396 0.0
C2793 C 0.28739 0.44511 0.99225 0.0
C2794 C 0.29396 0.43257 0.97529 0.0
H2795 H 0.31747 0.46417 0.95284 0.0
O2796 O 0.3491 0.42513 0.94008 0.0
O2797 O 0.32058 0.41956 0.94121 0.0
O2798 O 0.32954 0.44502 0.91115 0.0
O2799 O 0.30499 0.45312 0.92669 0.0
C2800 C 0.25837 0.43057 0.00822 0.0
C2801 C 0.25315 0.41056 0.99756 0.0
H2802 H 0.24935 0.37918 0.9756 0.0
H2803 H 0.26426 0.37018 0.94731 0.0
H2804 H 0.31589 0.48003 0.98079 0.0
H2805 H 0.2996 0.46992 0.00536 0.0
H2806 H 0.25037 0.43475 0.01992 0.0
H2807 H 0.24205 0.4026 0.00268 0.0
Mn2808 Mn 0.59963 0.32087 0.93052 0.0
Mn2809 Mn 0.57817 0.29949 0.93848 0.0
C2810 C 0.60044 0.31771 0.96486 0.0
C2811 C 0.62005 0.34521 0.9218 0.0
C2812 C 0.55569 0.31427 0.91789 0.0
O2813 O 0.60884 0.30205 0.91067 0.0
O2814 O 0.59018 0.28282 0.92232 0.0
C2815 C 0.57185 0.2601 0.94564 0.0
N2816 N 0.56955 0.27785 0.95021 0.0
C2817 C 0.5429 0.26699 0.97075 0.0
C2818 C 0.54677 0.24963 0.96506 0.0
C2819 C 0.56153 0.24636 0.9537 0.0
C2820 C 0.55794 0.28247 0.96286 0.0
H2821 H 0.58216 0.25597 0.93615 0.0
C2822 C 0.60306 0.28575 0.91185 0.0
O2823 O 0.60436 0.34292 0.91496 0.0
O2824 O 0.62518 0.33231 0.93247 0.0
N2825 N 0.56577 0.31425 0.95575 0.0
C2826 C 0.56306 0.33262 0.95657 0.0
C2827 C 0.55966 0.34118 0.97301 0.0
C2828 C 0.55554 0.33128 0.98843 0.0
C2829 C 0.55082 0.31252 0.98672 0.0
C2830 C 0.56135 0.30342 0.96934 0.0
H2831 H 0.56689 0.34144 0.94564 0.0
O2832 O 0.59779 0.33248 0.95579 0.0
O2833 O 0.59963 0.3035 0.954 0.0
O2834 O 0.5704 0.32395 0.92045 0.0
O2835 O 0.55671 0.29835 0.92375 0.0
C2836 C 0.52632 0.28946 0.99941 0.0
C2837 C 0.52767 0.26966 0.98775 0.0
H2838 H 0.53963 0.23847 0.97109 0.0
H2839 H 0.56548 0.23274 0.95142 0.0
H2840 H 0.56076 0.35579 0.97389 0.0
H2841 H 0.5543 0.33897 0.00073 0.0
H2842 H 0.51639 0.29042 0.01033 0.0
H2843 H 0.51924 0.25838 0.99183 0.0
Mn2844 Mn 0.67664 0.5972 0.92412 0.0
Mn2845 Mn 0.69726 0.57985 0.93605 0.0
C2846 C 0.67662 0.60189 0.95933 0.0
C2847 C 0.65463 0.61828 0.91333 0.0
C2848 C 0.68632 0.55339 0.91716 0.0
O2849 O 0.69535 0.60147 0.90212 0.0
O2850 O 0.71466 0.59188 0.92126 0.0
C2851 C 0.73556 0.58033 0.94818 0.0
N2852 N 0.71808 0.57471 0.95009 0.0
C2853 C 0.72984 0.54805 0.96927 0.0
C2854 C 0.74705 0.55558 0.96687 0.0
C2855 C 0.74961 0.57159 0.95712 0.0
C2856 C 0.71363 0.56191 0.96144 0.0
H2857 H 0.73904 0.59217 0.94031 0.0
C2858 C 0.7119 0.59903 0.90646 0.0
O2859 O 0.65483 0.60162 0.90847 0.0
O2860 O 0.66848 0.62351 0.92268 0.0
N2861 N 0.68175 0.56734 0.95284 0.0
C2862 C 0.66348 0.56366 0.95267 0.0
C2863 C 0.6544 0.55856 0.96833 0.0
C2864 C 0.66381 0.55382 0.98384 0.0
C2865 C 0.68296 0.55062 0.98273 0.0
C2866 C 0.69211 0.56311 0.96677 0.0
H2867 H 0.65495 0.56741 0.94144 0.0
O2868 O 0.66294 0.5982 0.94906 0.0
O2869 O 0.69137 0.60134 0.94948 0.0
O2870 O 0.67482 0.56686 0.91791 0.0
O2871 O 0.70169 0.55736 0.9232 0.0
C2872 C 0.70717 0.52723 0.99503 0.0
C2873 C 0.72739 0.53111 0.98449 0.0
H2874 H 0.75839 0.55034 0.97418 0.0
H2875 H 0.76272 0.57766 0.95654 0.0
H2876 H 0.63973 0.55855 0.96849 0.0
H2877 H 0.65557 0.55078 0.99548 0.0
H2878 H 0.70662 0.51677 0.0053 0.0
H2879 H 0.73889 0.52276 0.98731 0.0
Mn2880 Mn 0.06434 0.4148 0.32424 0.0
Mn2881 Mn 0.04972 0.43392 0.3029 0.0
C2882 C 0.03093 0.4102 0.32773 0.0
C2883 C 0.07623 0.3927 0.34493 0.0
C2884 C 0.07087 0.45871 0.31287 0.0
O2885 O 0.08342 0.4095 0.3035 0.0
O2886 O 0.06436 0.42121 0.28449 0.0
C2887 C 0.03299 0.43353 0.26575 0.0
N2888 N 0.03339 0.44007 0.28308 0.0
C2889 C 0.0103 0.46504 0.27214 0.0
C2890 C 0.01154 0.45715 0.25493 0.0
C2891 C 0.02203 0.4414 0.25211 0.0
C2892 C 0.02245 0.4535 0.28809 0.0
H2893 H 0.04118 0.42201 0.26201 0.0
C2894 C 0.07871 0.41239 0.28711 0.0
O2895 O 0.08194 0.40919 0.34444 0.0
O2896 O 0.06534 0.38853 0.33189 0.0
N2897 N 0.03408 0.4468 0.31939 0.0
C2898 C 0.03612 0.44988 0.33752 0.0
C2899 C 0.02295 0.45831 0.34786 0.0
C2900 C 0.00734 0.46549 0.34036 0.0
C2901 C 0.00394 0.46519 0.32101 0.0
C2902 C 0.02013 0.45354 0.31029 0.0
H2903 H 0.04768 0.44496 0.34485 0.0
O2904 O 0.04191 0.41439 0.34066 0.0
O2905 O 0.03821 0.41181 0.31144 0.0
O2906 O 0.07111 0.44502 0.3243 0.0
O2907 O 0.06253 0.45595 0.29826 0.0
C2908 C 0.98474 0.48396 0.29705 0.0
C2909 C 0.99268 0.47957 0.27576 0.0
H2910 H 0.00328 0.46228 0.24394 0.0
H2911 H 0.02215 0.43542 0.23871 0.0
H2912 H 0.02497 0.45931 0.36237 0.0
H2913 H 0.99818 0.47073 0.35044 0.0
H2914 H 0.97359 0.49362 0.29848 0.0
H2915 H 0.985 0.4844 0.26451 0.0
Mn2916 Mn 0.59192 0.07704 0.32635 0.0
Mn2917 Mn 0.57224 0.0664 0.30739 0.0
C2918 C 0.59576 0.04185 0.32602 0.0
C2919 C 0.61443 0.08697 0.34755 0.0
C2920 C 0.54723 0.08605 0.31951 0.0
O2921 O 0.59832 0.09741 0.30633 0.0
O2922 O 0.58234 0.08108 0.28877 0.0
C2923 C 0.57096 0.05297 0.26981 0.0
N2924 N 0.5651 0.0524 0.28732 0.0
C2925 C 0.54025 0.02984 0.27752 0.0
C2926 C 0.54829 0.03121 0.26032 0.0
C2927 C 0.56319 0.04214 0.25665 0.0
C2928 C 0.55299 0.04072 0.29291 0.0
H2929 H 0.58258 0.06083 0.26574 0.0
C2930 C 0.59288 0.09387 0.29028 0.0
O2931 O 0.59817 0.09297 0.34759 0.0
O2932 O 0.61854 0.07695 0.33382 0.0
N2933 N 0.56077 0.05024 0.32427 0.0
C2934 C 0.5585 0.0506 0.3427 0.0
C2935 C 0.55457 0.03492 0.35242 0.0
C2936 C 0.55059 0.01865 0.34383 0.0
C2937 C 0.54697 0.01836 0.32471 0.0
C2938 C 0.55617 0.03612 0.31453 0.0
H2939 H 0.56279 0.06205 0.35067 0.0
O2940 O 0.59286 0.05201 0.33998 0.0
O2941 O 0.59407 0.05183 0.31133 0.0
O2942 O 0.56162 0.08531 0.33003 0.0
O2943 O 0.54988 0.07936 0.3043 0.0
C2944 C 0.52526 0.00165 0.30153 0.0
C2945 C 0.52625 0.01206 0.28125 0.0
H2946 H 0.54585 0.02117 0.25043 0.0
H2947 H 0.56954 0.04156 0.24353 0.0
H2948 H 0.55536 0.03526 0.36707 0.0
H2949 H 0.54898 0.00724 0.35273 0.0
H2950 H 0.51637 0.99 0.30265 0.0
H2951 H 0.51682 0.00752 0.27133 0.0
Mn2952 Mn 0.92152 0.58153 0.3247 0.0
Mn2953 Mn 0.93875 0.56099 0.28895 0.0
C2954 C 0.95376 0.57633 0.32389 0.0
C2955 C 0.91398 0.60454 0.34527 0.0
C2956 C 0.91677 0.53985 0.31775 0.0
O2957 O 0.90308 0.58905 0.30373 0.0
O2958 O 0.91554 0.57259 0.28144 0.0
C2959 C 0.94329 0.58837 0.25977 0.0
N2960 N 0.95093 0.57617 0.27123 0.0
C2961 C 0.97646 0.57311 0.24669 0.0
C2962 C 0.9666 0.58493 0.23617 0.0
C2963 C 0.95077 0.59285 0.2428 0.0
C2964 C 0.96684 0.56888 0.2672 0.0
H2965 H 0.93107 0.59469 0.26352 0.0
C2966 C 0.90396 0.58423 0.28686 0.0
O2967 O 0.90561 0.58923 0.34495 0.0
O2968 O 0.92518 0.60765 0.33202 0.0
N2969 N 0.96136 0.55038 0.29506 0.0
C2970 C 0.96523 0.53892 0.30881 0.0
C2971 C 0.98286 0.53273 0.31155 0.0
C2972 C 0.99688 0.53505 0.29919 0.0
C2973 C 0.99397 0.54499 0.283 0.0
C2974 C 0.9741 0.55584 0.28366 0.0
H2975 H 0.95512 0.53582 0.3189 0.0
O2976 O 0.94454 0.57625 0.33885 0.0
O2977 O 0.94342 0.57809 0.30938 0.0
O2978 O 0.91324 0.55407 0.32684 0.0
O2979 O 0.92612 0.54179 0.30349 0.0
C2980 C 0.01001 0.55149 0.25121 0.0
C2981 C 0.99662 0.56548 0.23865 0.0
H2982 H 0.97157 0.58835 0.22298 0.0
H2983 H 0.94379 0.60248 0.23428 0.0
H2984 H 0.98605 0.52687 0.32421 0.0
H2985 H 0.00972 0.52937 0.30294 0.0
H2986 H 0.02279 0.5469 0.24528 0.0
H2987 H 0.00113 0.56956 0.22531 0.0
Mn2988 Mn 0.41177 0.92613 0.31576 0.0
Mn2989 Mn 0.43398 0.93587 0.29697 0.0
C2990 C 0.4097 0.96058 0.31577 0.0
C2991 C 0.38808 0.91703 0.33567 0.0
C2992 C 0.45604 0.91447 0.31134 0.0
O2993 O 0.40533 0.90676 0.29578 0.0
O2994 O 0.42286 0.92175 0.27793 0.0
C2995 C 0.44313 0.94741 0.25914 0.0
N2996 N 0.44439 0.94985 0.27746 0.0
C2997 C 0.46796 0.9753 0.27044 0.0
C2998 C 0.46482 0.97185 0.25229 0.0
C2999 C 0.45242 0.9586 0.24685 0.0
C3000 C 0.45461 0.96279 0.28433 0.0
H3001 H 0.43452 0.9371 0.2534 0.0
C3002 C 0.41102 0.90985 0.27982 0.0
O3003 O 0.40398 0.91011 0.33621 0.0
O3004 O 0.38498 0.92753 0.32201 0.0
N3005 N 0.44517 0.95137 0.31468 0.0
C3006 C 0.44598 0.95063 0.33325 0.0
C3007 C 0.44807 0.96616 0.3437 0.0
C3008 C 0.45143 0.9829 0.33595 0.0
C3009 C 0.45659 0.98413 0.31726 0.0
C3010 C 0.44963 0.96616 0.30578 0.0
H3011 H 0.44134 0.93907 0.34073 0.0
O3012 O 0.4116 0.9502 0.32973 0.0
O3013 O 0.41233 0.9513 0.30063 0.0
O3014 O 0.44095 0.91636 0.32052 0.0
O3015 O 0.45547 0.92099 0.29569 0.0
C3016 C 0.47843 0.00372 0.29654 0.0
C3017 C 0.47954 0.99445 0.27564 0.0
H3018 H 0.47172 0.97986 0.24235 0.0
H3019 H 0.44997 0.95692 0.23263 0.0
H3020 H 0.44601 0.96531 0.35821 0.0
H3021 H 0.45122 0.9941 0.34524 0.0
H3022 H 0.48651 0.01589 0.29908 0.0
H3023 H 0.48655 0.0018 0.2652 0.0
Mn3024 Mn 0.07625 0.58339 0.67602 0.0
Mn3025 Mn 0.0585 0.56813 0.71454 0.0
C3026 C 0.0444 0.57737 0.67783 0.0
C3027 C 0.08393 0.6031 0.65234 0.0
C3028 C 0.08015 0.54351 0.68894 0.0
O3029 O 0.09504 0.59286 0.69534 0.0
O3030 O 0.08259 0.57832 0.71899 0.0
C3031 C 0.05542 0.60456 0.73194 0.0
N3032 N 0.04792 0.5882 0.72812 0.0
C3033 C 0.02182 0.59709 0.75073 0.0
C3034 C 0.0315 0.61297 0.75386 0.0
C3035 C 0.04756 0.6167 0.7444 0.0
C3036 C 0.03172 0.58377 0.73478 0.0
H3037 H 0.06739 0.6087 0.72491 0.0
C3038 C 0.0948 0.58841 0.71225 0.0
O3039 O 0.09223 0.58797 0.65493 0.0
O3040 O 0.07255 0.60812 0.66486 0.0
N3041 N 0.03512 0.55775 0.71293 0.0
C3042 C 0.03102 0.54191 0.70478 0.0
C3043 C 0.01479 0.53318 0.70811 0.0
C3044 C 0.00159 0.53955 0.72 0.0
C3045 C 0.00414 0.55611 0.73004 0.0
C3046 C 0.02407 0.56539 0.72503 0.0
H3047 H 0.04043 0.53551 0.69563 0.0
O3048 O 0.05334 0.57564 0.6628 0.0
O3049 O 0.05458 0.58155 0.69173 0.0
O3050 O 0.08472 0.55677 0.67898 0.0
O3051 O 0.06957 0.54599 0.70244 0.0
C3052 C 0.98732 0.57614 0.75503 0.0
C3053 C 0.00101 0.59419 0.76059 0.0
H3054 H 0.02595 0.62336 0.76245 0.0
H3055 H 0.05407 0.62965 0.74659 0.0
H3056 H 0.01289 0.52064 0.70144 0.0
H3057 H 0.98996 0.53078 0.72109 0.0
H3058 H 0.97415 0.57481 0.76167 0.0
H3059 H 0.99604 0.6042 0.76987 0.0
Mn3060 Mn 0.41171 0.06937 0.68033 0.0
Mn3061 Mn 0.43093 0.05899 0.70105 0.0
C3062 C 0.40673 0.03507 0.68299 0.0
C3063 C 0.39104 0.07934 0.65761 0.0
C3064 C 0.4566 0.07631 0.68682 0.0
O3065 O 0.40525 0.091 0.69871 0.0
O3066 O 0.42085 0.07606 0.7178 0.0
C3067 C 0.43314 0.05071 0.74035 0.0
N3068 N 0.43716 0.0466 0.72279 0.0
C3069 C 0.46175 0.02498 0.73493 0.0
C3070 C 0.45749 0.03179 0.75191 0.0
C3071 C 0.44263 0.04294 0.7546 0.0
C3072 C 0.44817 0.03327 0.71876 0.0
H3073 H 0.42232 0.05983 0.74389 0.0
C3074 C 0.41029 0.0887 0.71508 0.0
O3075 O 0.40758 0.08446 0.65819 0.0
O3076 O 0.38557 0.07017 0.67149 0.0
N3077 N 0.442 0.04015 0.68671 0.0
C3078 C 0.44519 0.03859 0.66845 0.0
C3079 C 0.44768 0.02166 0.66048 0.0
C3080 C 0.45033 0.00622 0.67093 0.0
C3081 C 0.45468 0.00807 0.68972 0.0
C3082 C 0.44513 0.0265 0.69795 0.0
H3083 H 0.44281 0.04965 0.65923 0.0
O3084 O 0.41062 0.04401 0.66841 0.0
O3085 O 0.40843 0.0457 0.69721 0.0
O3086 O 0.44217 0.07529 0.67651 0.0
O3087 O 0.45343 0.0718 0.70279 0.0
C3088 C 0.47722 0.99438 0.71412 0.0
C3089 C 0.47573 0.007 0.7334 0.0
H3090 H 0.46451 0.02755 0.76354 0.0
H3091 H 0.43817 0.04542 0.76814 0.0
H3092 H 0.44695 0.02041 0.64588 0.0
H3093 H 0.45046 0.99358 0.66376 0.0
H3094 H 0.48687 0.98314 0.71377 0.0
H3095 H 0.48278 0.00305 0.74505 0.0
Mn3096 Mn 0.93036 0.41663 0.68245 0.0
Mn3097 Mn 0.94465 0.43477 0.70446 0.0
C3098 C 0.96422 0.41458 0.67847 0.0
C3099 C 0.91798 0.39737 0.65949 0.0
C3100 C 0.923 0.45938 0.69648 0.0
O3101 O 0.91208 0.40861 0.70312 0.0
O3102 O 0.93076 0.42073 0.72227 0.0
C3103 C 0.96324 0.42995 0.74025 0.0
N3104 N 0.96156 0.43901 0.72414 0.0
C3105 C 0.98687 0.46109 0.73609 0.0
C3106 C 0.98689 0.45078 0.75199 0.0
C3107 C 0.97562 0.43547 0.75381 0.0
C3108 C 0.97274 0.45244 0.7199 0.0
H3109 H 0.95505 0.41816 0.74303 0.0
C3110 C 0.91697 0.41116 0.71953 0.0
O3111 O 0.91193 0.41337 0.66258 0.0
O3112 O 0.92975 0.39143 0.67105 0.0
N3113 N 0.95935 0.44935 0.68851 0.0
C3114 C 0.95684 0.4542 0.67078 0.0
C3115 C 0.97044 0.46221 0.66054 0.0
C3116 C 0.98697 0.46715 0.66794 0.0
C3117 C 0.98984 0.46666 0.68725 0.0
C3118 C 0.97366 0.45489 0.69766 0.0
H3119 H 0.94496 0.45024 0.66336 0.0
O3120 O 0.95257 0.4192 0.66633 0.0
O3121 O 0.95681 0.41375 0.69464 0.0
O3122 O 0.92271 0.44623 0.6846 0.0
O3123 O 0.93172 0.45614 0.71069 0.0
C3124 C 0.01158 0.48147 0.71178 0.0
C3125 C 0.00482 0.47516 0.73295 0.0
H3126 H 0.99637 0.45396 0.76274 0.0
H3127 H 0.97635 0.4277 0.76622 0.0
H3128 H 0.96822 0.46417 0.64616 0.0
H3129 H 0.9965 0.47226 0.65813 0.0
H3130 H 0.02342 0.49031 0.71062 0.0
H3131 H 0.01306 0.47902 0.74443 0.0
Mn3132 Mn 0.59201 0.91632 0.68043 0.0
Mn3133 Mn 0.57203 0.92752 0.69968 0.0
C3134 C 0.59603 0.95115 0.68021 0.0
C3135 C 0.61466 0.90611 0.65977 0.0
C3136 C 0.547 0.90804 0.68726 0.0
O3137 O 0.59839 0.8964 0.70053 0.0
O3138 O 0.58212 0.91253 0.71815 0.0
C3139 C 0.57055 0.94074 0.73774 0.0
N3140 N 0.56546 0.9419 0.71996 0.0
C3141 C 0.54192 0.96579 0.72961 0.0
C3142 C 0.54864 0.96348 0.74728 0.0
C3143 C 0.56286 0.95178 0.75101 0.0
C3144 C 0.55427 0.95438 0.71427 0.0
H3145 H 0.58132 0.93193 0.7421 0.0
C3146 C 0.59293 0.89992 0.71652 0.0
O3147 O 0.59836 0.9001 0.65952 0.0
O3148 O 0.61864 0.91629 0.67342 0.0
N3149 N 0.56089 0.94388 0.68288 0.0
C3150 C 0.55855 0.94329 0.66445 0.0
C3151 C 0.55462 0.95877 0.65448 0.0
C3152 C 0.55076 0.97517 0.66278 0.0
C3153 C 0.54757 0.97586 0.68196 0.0
C3154 C 0.55694 0.95835 0.69241 0.0
H3155 H 0.56276 0.93175 0.65662 0.0
O3156 O 0.593 0.94082 0.6664 0.0
O3157 O 0.59418 0.94156 0.69519 0.0
O3158 O 0.56161 0.90847 0.677 0.0
O3159 O 0.54935 0.91482 0.70258 0.0
C3160 C 0.52658 0.99342 0.70508 0.0
C3161 C 0.52806 0.98373 0.72566 0.0
H3162 H 0.54379 0.97179 0.75826 0.0
H3163 H 0.56843 0.95173 0.76448 0.0
H3164 H 0.55522 0.95815 0.63983 0.0
H3165 H 0.54892 0.98638 0.65365 0.0
H3166 H 0.51748 0.00494 0.70367 0.0
H3167 H 0.5196 0.98926 0.73583 0.0
Mn3168 Mn 0.32131 0.07861 0.41674 0.0
Mn3169 Mn 0.29884 0.06678 0.43587 0.0
C3170 C 0.32213 0.04461 0.41352 0.0
C3171 C 0.34408 0.08851 0.39577 0.0
C3172 C 0.30965 0.08587 0.46139 0.0
O3173 O 0.30171 0.09793 0.40744 0.0
O3174 O 0.28278 0.08392 0.42423 0.0
C3175 C 0.25977 0.05677 0.43153 0.0
N3176 N 0.27677 0.05305 0.43813 0.0
C3177 C 0.26226 0.02444 0.45236 0.0
C3178 C 0.24605 0.02957 0.44437 0.0
C3179 C 0.24509 0.0451 0.43394 0.0
C3180 C 0.28003 0.03788 0.44683 0.0
H3181 H 0.25688 0.06852 0.42348 0.0
C3182 C 0.28532 0.09543 0.41229 0.0
O3183 O 0.34278 0.09503 0.41189 0.0
O3184 O 0.33103 0.07787 0.39099 0.0
N3185 N 0.31247 0.04869 0.44844 0.0
C3186 C 0.33019 0.04838 0.4537 0.0
C3187 C 0.33872 0.03251 0.4594 0.0
C3188 C 0.32962 0.01606 0.46091 0.0
C3189 C 0.3103 0.01515 0.45871 0.0
C3190 C 0.30207 0.03425 0.44969 0.0
H3191 H 0.33881 0.05986 0.45146 0.0
O3192 O 0.33545 0.05481 0.4186 0.0
O3193 O 0.30669 0.05383 0.41368 0.0
O3194 O 0.32085 0.08565 0.44738 0.0
O3195 O 0.29431 0.07894 0.45844 0.0
C3196 C 0.28264 0.99403 0.46835 0.0
C3197 C 0.26297 0.00398 0.46218 0.0
H3198 H 0.23434 0.02094 0.44485 0.0
H3199 H 0.23261 0.04793 0.42701 0.0
H3200 H 0.35314 0.03288 0.4621 0.0
H3201 H 0.3381 0.00479 0.46467 0.0
H3202 H 0.28193 0.98067 0.47478 0.0
H3203 H 0.25148 0.99553 0.46078 0.0
Mn3204 Mn 0.3281 0.92563 0.58046 0.0
Mn3205 Mn 0.2912 0.94361 0.56248 0.0
C3206 C 0.32798 0.95864 0.57795 0.0
C3207 C 0.34925 0.91605 0.60278 0.0
C3208 C 0.31851 0.92284 0.53873 0.0
O3209 O 0.307 0.9065 0.58708 0.0
O3210 O 0.28448 0.92008 0.57208 0.0
C3211 C 0.26454 0.94656 0.59297 0.0
N3212 N 0.2738 0.95435 0.57917 0.0
C3213 C 0.24697 0.97781 0.57701 0.0
C3214 C 0.23847 0.96754 0.59018 0.0
C3215 C 0.24743 0.95303 0.59861 0.0
C3216 C 0.26775 0.96957 0.57176 0.0
H3217 H 0.27054 0.93543 0.59998 0.0
C3218 C 0.29012 0.90747 0.58215 0.0
O3219 O 0.34853 0.90892 0.58685 0.0
O3220 O 0.33641 0.92743 0.60668 0.0
N3221 N 0.29576 0.96622 0.55302 0.0
C3222 C 0.30902 0.97042 0.54124 0.0
C3223 C 0.31 0.9875 0.53402 0.0
C3224 C 0.2969 0.00065 0.53714 0.0
C3225 C 0.28158 0.99763 0.54885 0.0
C3226 C 0.28322 0.97786 0.55858 0.0
H3227 H 0.31974 0.96092 0.53828 0.0
O3228 O 0.34253 0.94898 0.57638 0.0
O3229 O 0.31308 0.94828 0.57893 0.0
O3230 O 0.32871 0.91903 0.55225 0.0
O3231 O 0.30432 0.93223 0.54137 0.0
C3232 C 0.24941 0.01255 0.5561 0.0
C3233 C 0.23761 0.998 0.57018 0.0
H3234 H 0.22557 0.97181 0.59506 0.0
H3235 H 0.24076 0.94654 0.60988 0.0
H3236 H 0.32231 0.99129 0.52759 0.0
H3237 H 0.30025 0.0133 0.53105 0.0
H3238 H 0.24311 0.02528 0.55207 0.0
H3239 H 0.22444 0.00194 0.57522 0.0
Mn3240 Mn 0.06695 0.32224 0.58822 0.0
Mn3241 Mn 0.0531 0.29894 0.57095 0.0
C3242 C 0.03306 0.32153 0.59426 0.0
C3243 C 0.08011 0.34585 0.60638 0.0
C3244 C 0.07047 0.31021 0.5438 0.0
O3245 O 0.08813 0.30367 0.59441 0.0
O3246 O 0.07161 0.28325 0.5817 0.0
C3247 C 0.04278 0.26016 0.57747 0.0
N3248 N 0.03945 0.27674 0.56986 0.0
C3249 C 0.01582 0.26066 0.54939 0.0
C3250 C 0.02026 0.24463 0.55825 0.0
C3251 C 0.03305 0.24458 0.5723 0.0
C3252 C 0.0255 0.27908 0.55909 0.0
H3253 H 0.05304 0.25849 0.58774 0.0
C3254 C 0.08521 0.28696 0.59107 0.0
O3255 O 0.08369 0.3437 0.58953 0.0
O3256 O 0.06983 0.3335 0.61345 0.0
N3257 N 0.03348 0.31198 0.55976 0.0
C3258 C 0.03246 0.32964 0.55436 0.0
C3259 C 0.01625 0.33735 0.54839 0.0
C3260 C 0.00076 0.32706 0.54523 0.0
C3261 C 0.00167 0.30766 0.54574 0.0
C3262 C 0.01971 0.30068 0.55755 0.0
H3263 H 0.04364 0.33869 0.55653 0.0
O3264 O 0.0424 0.33531 0.58865 0.0
O3265 O 0.04298 0.30671 0.59388 0.0
O3266 O 0.07121 0.32152 0.55756 0.0
O3267 O 0.06331 0.29505 0.54721 0.0
C3268 C 0.98672 0.27925 0.52931 0.0
C3269 C 0.99801 0.26011 0.53514 0.0
H3270 H 0.01312 0.23227 0.55493 0.0
H3271 H 0.03598 0.23197 0.57896 0.0
H3272 H 0.0157 0.35186 0.54626 0.0
H3273 H 0.98898 0.33466 0.5412 0.0
H3274 H 0.97555 0.27818 0.51966 0.0
H3275 H 0.99302 0.24712 0.53064 0.0
Mn3276 Mn 0.68578 0.06929 0.59678 0.0
Mn3277 Mn 0.70523 0.05663 0.57628 0.0
C3278 C 0.68334 0.03478 0.60188 0.0
C3279 C 0.66595 0.08093 0.61979 0.0
C3280 C 0.6916 0.07764 0.55213 0.0
O3281 O 0.70666 0.08932 0.60061 0.0
O3282 O 0.72456 0.07054 0.58757 0.0
C3283 C 0.74332 0.04339 0.56992 0.0
N3284 N 0.72513 0.04228 0.56654 0.0
C3285 C 0.73352 0.02157 0.53867 0.0
C3286 C 0.75124 0.02286 0.54462 0.0
C3287 C 0.75606 0.03358 0.55968 0.0
C3288 C 0.71893 0.03196 0.55321 0.0
H3289 H 0.74848 0.05127 0.5811 0.0
C3290 C 0.72285 0.08477 0.59644 0.0
O3291 O 0.66574 0.08661 0.60339 0.0
O3292 O 0.67943 0.07047 0.62369 0.0
N3293 N 0.6883 0.04115 0.56463 0.0
C3294 C 0.66984 0.0421 0.56389 0.0
C3295 C 0.65952 0.02769 0.55823 0.0
C3296 C 0.66737 0.01234 0.55114 0.0
C3297 C 0.6865 0.0112 0.54704 0.0
C3298 C 0.69748 0.02792 0.55675 0.0
H3299 H 0.66235 0.05319 0.5696 0.0
O3300 O 0.67016 0.04585 0.59897 0.0
O3301 O 0.69924 0.0428 0.59863 0.0
O3302 O 0.68153 0.07686 0.56677 0.0
O3303 O 0.707 0.07073 0.55417 0.0
C3304 C 0.7079 0.99437 0.52355 0.0
C3305 C 0.72894 0.0041 0.52416 0.0
H3306 H 0.76072 0.01298 0.53946 0.0
H3307 H 0.76997 0.03351 0.56413 0.0
H3308 H 0.64493 0.02831 0.55974 0.0
H3309 H 0.65752 0.00209 0.54858 0.0
H3310 H 0.70572 0.98312 0.51424 0.0
H3311 H 0.73979 0.99803 0.51642 0.0
Mn3312 Mn 0.93193 0.67625 0.5807 0.0
Mn3313 Mn 0.94635 0.71093 0.55663 0.0
C3314 C 0.96333 0.67532 0.5711 0.0
C3315 C 0.92645 0.65522 0.60431 0.0
C3316 C 0.92049 0.6836 0.54075 0.0
O3317 O 0.91554 0.69873 0.59 0.0
O3318 O 0.92705 0.72061 0.57216 0.0
C3319 C 0.95958 0.73981 0.58158 0.0
N3320 N 0.96307 0.72736 0.56835 0.0
C3321 C 0.99381 0.74436 0.5636 0.0
C3322 C 0.98812 0.7566 0.5767 0.0
C3323 C 0.97151 0.75418 0.58554 0.0
C3324 C 0.9782 0.72813 0.55871 0.0
H3325 H 0.9471 0.73936 0.58897 0.0
C3326 C 0.91674 0.71567 0.58502 0.0
O3327 O 0.91602 0.65661 0.59043 0.0
O3328 O 0.93856 0.66792 0.60613 0.0
N3329 N 0.96471 0.70193 0.54136 0.0
C3330 C 0.96386 0.6885 0.52872 0.0
C3331 C 0.97913 0.68241 0.51948 0.0
C3332 C 0.99628 0.68955 0.52253 0.0
C3333 C 0.99884 0.70487 0.53438 0.0
C3334 C 0.97988 0.71042 0.54513 0.0
H3335 H 0.95146 0.68166 0.52572 0.0
O3336 O 0.95334 0.66096 0.57255 0.0
O3337 O 0.95388 0.69048 0.57372 0.0
O3338 O 0.92034 0.67377 0.55485 0.0
O3339 O 0.92871 0.69854 0.54094 0.0
C3340 C 0.02434 0.72958 0.54186 0.0
C3341 C 0.01571 0.7452 0.55655 0.0
H3342 H 0.99693 0.76759 0.58077 0.0
H3343 H 0.96764 0.76375 0.59595 0.0
H3344 H 0.97763 0.67139 0.5099 0.0
H3345 H 0.00688 0.68309 0.51479 0.0
H3346 H 0.03852 0.73087 0.53778 0.0
H3347 H 0.02481 0.75489 0.56267 0.0
Mn3348 Mn 0.67974 0.92252 0.41029 0.0
Mn3349 Mn 0.69997 0.93297 0.42994 0.0
C3350 C 0.67972 0.95752 0.40721 0.0
C3351 C 0.65749 0.91158 0.38919 0.0
C3352 C 0.68729 0.91248 0.45447 0.0
O3353 O 0.69932 0.90228 0.40334 0.0
O3354 O 0.71837 0.91841 0.41821 0.0
C3355 C 0.73814 0.94655 0.43241 0.0
N3356 N 0.72039 0.94711 0.43765 0.0
C3357 C 0.73015 0.97056 0.46218 0.0
C3358 C 0.74738 0.9694 0.45496 0.0
C3359 C 0.75119 0.95786 0.44038 0.0
C3360 C 0.71478 0.95895 0.44967 0.0
H3361 H 0.74257 0.93803 0.42139 0.0
C3362 C 0.71575 0.90553 0.40768 0.0
O3363 O 0.65882 0.90575 0.40543 0.0
O3364 O 0.67027 0.92243 0.38415 0.0
N3365 N 0.68337 0.94874 0.4422 0.0
C3366 C 0.66496 0.94817 0.44481 0.0
C3367 C 0.6551 0.96375 0.44855 0.0
C3368 C 0.66358 0.9801 0.45215 0.0
C3369 C 0.68266 0.9806 0.45579 0.0
C3370 C 0.69303 0.96297 0.44678 0.0
H3371 H 0.6569 0.93672 0.44075 0.0
O3372 O 0.66595 0.94714 0.41027 0.0
O3373 O 0.69479 0.94789 0.40839 0.0
O3374 O 0.67686 0.91367 0.44014 0.0
O3375 O 0.70268 0.91914 0.45203 0.0
C3376 C 0.7058 0.9984 0.47689 0.0
C3377 C 0.72646 0.98868 0.47563 0.0
H3378 H 0.75731 0.97934 0.4591 0.0
H3379 H 0.76447 0.95826 0.43461 0.0
H3380 H 0.64045 0.96327 0.44783 0.0
H3381 H 0.65463 0.99148 0.45337 0.0
H3382 H 0.70438 0.01019 0.4857 0.0
H3383 H 0.73778 0.99527 0.48224 0.0
Mn3384 Mn 0.07134 0.67846 0.41678 0.0
Mn3385 Mn 0.05216 0.71388 0.43814 0.0
C3386 C 0.04118 0.67456 0.42602 0.0
C3387 C 0.07712 0.65806 0.39261 0.0
C3388 C 0.07837 0.68772 0.45734 0.0
O3389 O 0.08575 0.70038 0.40595 0.0
O3390 O 0.07529 0.72132 0.42533 0.0
C3391 C 0.04388 0.73602 0.40536 0.0
N3392 N 0.03896 0.73037 0.42207 0.0
C3393 C 0.01273 0.75462 0.42005 0.0
C3394 C 0.02063 0.7601 0.40394 0.0
C3395 C 0.03536 0.75066 0.39655 0.0
C3396 C 0.02412 0.73725 0.43002 0.0
H3397 H 0.05401 0.72854 0.39839 0.0
C3398 C 0.08509 0.71682 0.41165 0.0
O3399 O 0.0878 0.65948 0.40648 0.0
O3400 O 0.06422 0.66993 0.39201 0.0
N3401 N 0.02962 0.71076 0.45083 0.0
C3402 C 0.02497 0.6975 0.46258 0.0
C3403 C 0.00917 0.69877 0.47312 0.0
C3404 C 0.99655 0.71293 0.47152 0.0
C3405 C 0.99817 0.72642 0.45751 0.0
C3406 C 0.01814 0.72445 0.44704 0.0
H3407 H 0.03382 0.68598 0.46433 0.0
O3408 O 0.05282 0.66149 0.4264 0.0
O3409 O 0.04819 0.69096 0.42287 0.0
O3410 O 0.0833 0.68018 0.44255 0.0
O3411 O 0.0658 0.69974 0.45739 0.0
C3412 C 0.97888 0.75291 0.44231 0.0
C3413 C 0.99145 0.76251 0.42519 0.0
H3414 H 0.01349 0.76962 0.39566 0.0
H3415 H 0.03973 0.75422 0.38306 0.0
H3416 H 0.00654 0.68814 0.48286 0.0
H3417 H 0.98539 0.71213 0.48095 0.0
H3418 H 0.96519 0.7579 0.44467 0.0
H3419 H 0.98545 0.77313 0.4171 0.0
Mn3420 Mn 0.92465 0.32102 0.42121 0.0
Mn3421 Mn 0.94306 0.28677 0.44455 0.0
C3422 C 0.957 0.32207 0.42505 0.0
C3423 C 0.91227 0.33961 0.39768 0.0
C3424 C 0.92002 0.31572 0.46318 0.0
O3425 O 0.90784 0.29919 0.41418 0.0
O3426 O 0.91926 0.2788 0.43356 0.0
C3427 C 0.94577 0.25203 0.42447 0.0
N3428 N 0.95465 0.2661 0.4325 0.0
C3429 C 0.98014 0.24166 0.43871 0.0
C3430 C 0.97 0.22968 0.42888 0.0
C3431 C 0.95357 0.23494 0.42139 0.0
C3432 C 0.97076 0.26275 0.44016 0.0
H3433 H 0.93177 0.25287 0.42189 0.0
C3434 C 0.90903 0.28283 0.42004 0.0
O3435 O 0.9065 0.33942 0.414 0.0
O3436 O 0.92575 0.32863 0.3946 0.0
N3437 N 0.9659 0.29308 0.45458 0.0
C3438 C 0.9699 0.30803 0.46441 0.0
C3439 C 0.98731 0.31088 0.47109 0.0
C3440 C 0.0013 0.29813 0.47004 0.0
C3441 C 0.99866 0.28125 0.46104 0.0
C3442 C 0.97838 0.28057 0.4509 0.0
H3443 H 0.96 0.31869 0.46598 0.0
O3444 O 0.9469 0.3365 0.42534 0.0
O3445 O 0.94762 0.30653 0.42507 0.0
O3446 O 0.91575 0.32335 0.44835 0.0
O3447 O 0.93114 0.3027 0.46297 0.0
C3448 C 0.01454 0.24878 0.45824 0.0
C3449 C 0.00062 0.23453 0.44657 0.0
H3450 H 0.97488 0.21614 0.42733 0.0
H3451 H 0.946 0.22495 0.41392 0.0
H3452 H 0.99069 0.32431 0.4754 0.0
H3453 H 0.0142 0.3025 0.47532 0.0
H3454 H 0.02731 0.24335 0.46337 0.0
H3455 H 0.00489 0.2207 0.44424 0.0
C3456 C 0.11341 0.13516 0.39994 0.0
C3457 C 0.10063 0.13362 0.41438 0.0
C3458 C 0.12293 0.11627 0.43198 0.0
C3459 C 0.13593 0.11786 0.41786 0.0
N3460 N 0.14265 0.12638 0.38715 0.0
N3461 N 0.09101 0.11426 0.43886 0.0
C3462 C 0.13085 0.12656 0.40141 0.0
C3463 C 0.1047 0.12163 0.42883 0.0
N3464 N 0.10867 0.1444 0.38464 0.0
N3465 N 0.12783 0.10968 0.44856 0.0
H3466 H 0.07744 0.11572 0.43523 0.0
H3467 H 0.09317 0.10444 0.44878 0.0
H3468 H 0.14104 0.10601 0.45177 0.0
H3469 H 0.11915 0.10983 0.4597 0.0
H3470 H 0.11779 0.14836 0.37467 0.0
H3471 H 0.09525 0.14778 0.38179 0.0
H3472 H 0.13942 0.13078 0.37415 0.0
H3473 H 0.15575 0.12115 0.38819 0.0
C3474 C 0.87426 0.10389 0.42833 0.0
C3475 C 0.86742 0.09781 0.41147 0.0
C3476 C 0.87281 0.12847 0.39906 0.0
C3477 C 0.87624 0.13503 0.41689 0.0
N3478 N 0.87709 0.12891 0.44912 0.0
N3479 N 0.86415 0.10322 0.37953 0.0
C3480 C 0.87586 0.12274 0.43171 0.0
C3481 C 0.86793 0.10984 0.39639 0.0
N3482 N 0.88033 0.09161 0.44076 0.0
N3483 N 0.87442 0.14012 0.38475 0.0
H3484 H 0.86339 0.08933 0.37699 0.0
H3485 H 0.86215 0.11121 0.3681 0.0
H3486 H 0.87671 0.15397 0.38649 0.0
H3487 H 0.87378 0.13624 0.37122 0.0
H3488 H 0.88666 0.09534 0.45283 0.0
H3489 H 0.88151 0.07785 0.4377 0.0
H3490 H 0.87524 0.12052 0.46033 0.0
H3491 H 0.87781 0.14259 0.45244 0.0
C3492 C 0.88073 0.88751 0.423 0.0
C3493 C 0.86493 0.87975 0.41501 0.0
C3494 C 0.88403 0.85723 0.39965 0.0
C3495 C 0.89918 0.86327 0.4099 0.0
N3496 N 0.91357 0.88929 0.42299 0.0
N3497 N 0.85134 0.85749 0.39538 0.0
C3498 C 0.89804 0.88005 0.41903 0.0
C3499 C 0.86654 0.86475 0.40309 0.0
N3500 N 0.87918 0.90126 0.43532 0.0
N3501 N 0.88671 0.84533 0.38574 0.0
H3502 H 0.8385 0.86314 0.39703 0.0
H3503 H 0.85126 0.84534 0.38822 0.0
H3504 H 0.89968 0.84154 0.38161 0.0
H3505 H 0.87658 0.84116 0.37687 0.0
H3506 H 0.88998 0.9059 0.44315 0.0
H3507 H 0.86686 0.90705 0.43898 0.0
H3508 H 0.91374 0.90236 0.42831 0.0
H3509 H 0.92623 0.88479 0.41859 0.0
C3510 C 0.12087 0.87375 0.3931 0.0
C3511 C 0.11587 0.86574 0.40992 0.0
C3512 C 0.11999 0.89535 0.42489 0.0
C3513 C 0.12789 0.90229 0.40898 0.0
N3514 N 0.13003 0.901 0.37669 0.0
N3515 N 0.11268 0.86895 0.44262 0.0
C3516 C 0.1264 0.89232 0.39262 0.0
C3517 C 0.11595 0.87653 0.42604 0.0
N3518 N 0.12134 0.86325 0.37783 0.0
N3519 N 0.11546 0.90693 0.43858 0.0
H3520 H 0.10985 0.85535 0.44469 0.0
H3521 H 0.11464 0.87589 0.45476 0.0
H3522 H 0.11651 0.92095 0.43715 0.0
H3523 H 0.10822 0.90299 0.45003 0.0
H3524 H 0.12594 0.86767 0.36528 0.0
H3525 H 0.11821 0.84946 0.37794 0.0
H3526 H 0.12846 0.89528 0.36391 0.0
H3527 H 0.13328 0.91478 0.37637 0.0
C3528 C 0.13408 0.87943 0.55518 0.0
C3529 C 0.14441 0.88127 0.5714 0.0
C3530 C 0.11922 0.86705 0.5883 0.0
C3531 C 0.10992 0.86316 0.57186 0.0
N3532 N 0.11055 0.8637 0.53891 0.0
N3533 N 0.14775 0.87428 0.60307 0.0
C3534 C 0.11784 0.86888 0.55512 0.0
C3535 C 0.13718 0.87439 0.58787 0.0
N3536 N 0.1391 0.88851 0.53983 0.0
N3537 N 0.11061 0.86421 0.60443 0.0
H3538 H 0.16105 0.87907 0.60314 0.0
H3539 H 0.14404 0.86783 0.61506 0.0
H3540 H 0.09731 0.85946 0.6052 0.0
H3541 H 0.11585 0.86834 0.61687 0.0
H3542 H 0.13071 0.8898 0.52854 0.0
H3543 H 0.1509 0.89607 0.53869 0.0
H3544 H 0.11752 0.86476 0.52668 0.0
H3545 H 0.09806 0.85747 0.53742 0.0
C3546 C 0.12644 0.12873 0.57129 0.0
C3547 C 0.12312 0.13769 0.58809 0.0
C3548 C 0.12792 0.10861 0.60389 0.0
C3549 C 0.13094 0.09993 0.58698 0.0
N3550 N 0.12456 0.10028 0.55507 0.0
N3551 N 0.11847 0.13553 0.62037 0.0
C3552 C 0.12736 0.10951 0.57084 0.0
C3553 C 0.12303 0.12735 0.6044 0.0
N3554 N 0.12918 0.13833 0.55571 0.0
N3555 N 0.13041 0.09889 0.61944 0.0
H3556 H 0.11654 0.14949 0.62151 0.0
H3557 H 0.11608 0.1285 0.63236 0.0
H3558 H 0.13269 0.08492 0.61916 0.0
H3559 H 0.13067 0.10456 0.63235 0.0
H3560 H 0.13321 0.13224 0.54362 0.0
H3561 H 0.1297 0.15237 0.55514 0.0
H3562 H 0.12061 0.10658 0.54306 0.0
H3563 H 0.12356 0.08619 0.5547 0.0
C3564 C 0.90116 0.1271 0.56351 0.0
C3565 C 0.90714 0.13331 0.58066 0.0
C3566 C 0.87884 0.12127 0.59414 0.0
C3567 C 0.8715 0.11873 0.57646 0.0
N3568 N 0.87573 0.12055 0.54398 0.0
N3569 N 0.90361 0.13254 0.61298 0.0
C3570 C 0.88267 0.12208 0.56107 0.0
C3571 C 0.89655 0.12908 0.59622 0.0
N3572 N 0.91337 0.1249 0.54979 0.0
N3573 N 0.8688 0.1163 0.60889 0.0
H3574 H 0.91722 0.13595 0.61477 0.0
H3575 H 0.8963 0.13194 0.625 0.0
H3576 H 0.85546 0.11173 0.60788 0.0
H3577 H 0.87365 0.11617 0.62212 0.0
H3578 H 0.91006 0.11926 0.53728 0.0
H3579 H 0.92729 0.126 0.55191 0.0
H3580 H 0.88265 0.12487 0.53246 0.0
H3581 H 0.86252 0.11648 0.54137 0.0
C3582 C 0.88179 0.87452 0.60452 0.0
C3583 C 0.88568 0.86553 0.58787 0.0
C3584 C 0.87945 0.89404 0.57165 0.0
C3585 C 0.87197 0.90173 0.5875 0.0
N3586 N 0.86959 0.90111 0.61994 0.0
N3587 N 0.8852 0.86669 0.55492 0.0
C3588 C 0.87436 0.89249 0.60427 0.0
C3589 C 0.88357 0.87524 0.57125 0.0
N3590 N 0.88507 0.86577 0.62051 0.0
N3591 N 0.88355 0.90487 0.55722 0.0
H3592 H 0.88748 0.8529 0.55346 0.0
H3593 H 0.8821 0.873 0.54266 0.0
H3594 H 0.88286 0.91896 0.55799 0.0
H3595 H 0.8903 0.90018 0.54574 0.0
H3596 H 0.88433 0.87187 0.63319 0.0
H3597 H 0.88897 0.8522 0.62112 0.0
H3598 H 0.86877 0.89487 0.63254 0.0
H3599 H 0.86654 0.91492 0.6202 0.0
C3600 C 0.40032 0.11677 0.12741 0.0
C3601 C 0.41585 0.10544 0.12929 0.0
C3602 C 0.43499 0.12979 0.11722 0.0
C3603 C 0.41975 0.14159 0.11592 0.0
N3604 N 0.38744 0.14563 0.11761 0.0
N3605 N 0.44508 0.09859 0.11668 0.0
C3606 C 0.40222 0.13479 0.12029 0.0
C3607 C 0.43234 0.11114 0.12137 0.0
N3608 N 0.38374 0.11001 0.13209 0.0
N3609 N 0.45214 0.13623 0.11463 0.0
H3610 H 0.44249 0.08471 0.11728 0.0
H3611 H 0.45686 0.1018 0.1096 0.0
H3612 H 0.45508 0.14977 0.1122 0.0
H3613 H 0.46369 0.12844 0.11686 0.0
H3614 H 0.37201 0.11771 0.13322 0.0
H3615 H 0.38172 0.09622 0.1345 0.0
H3616 H 0.37409 0.14135 0.11891 0.0
H3617 H 0.38853 0.15917 0.11368 0.0
C3618 C 0.88941 0.39982 0.13725 0.0
C3619 C 0.89843 0.41651 0.14071 0.0
C3620 C 0.87237 0.43265 0.12711 0.0
C3621 C 0.86246 0.41612 0.12584 0.0
N3622 N 0.86092 0.38413 0.13201 0.0
N3623 N 0.89668 0.44952 0.14051 0.0
C3624 C 0.87088 0.39973 0.13149 0.0
C3625 C 0.88951 0.43306 0.13595 0.0
N3626 N 0.8988 0.38398 0.13908 0.0
N3627 N 0.86607 0.44812 0.11907 0.0
H3628 H 0.90997 0.45173 0.14432 0.0
H3629 H 0.88899 0.46136 0.14095 0.0
H3630 H 0.85328 0.44957 0.1135 0.0
H3631 H 0.87417 0.45948 0.11682 0.0
H3632 H 0.8937 0.37141 0.13519 0.0
H3633 H 0.91246 0.38367 0.14274 0.0
H3634 H 0.86562 0.37209 0.13767 0.0
H3635 H 0.84726 0.38368 0.1284 0.0
C3636 C 0.59655 0.88923 0.12391 0.0
C3637 C 0.58096 0.89927 0.12905 0.0
C3638 C 0.5619 0.87493 0.11591 0.0
C3639 C 0.57748 0.8638 0.11339 0.0
N3640 N 0.60963 0.8598 0.11722 0.0
N3641 N 0.54809 0.90062 0.13062 0.0
C3642 C 0.59482 0.87088 0.11792 0.0
C3643 C 0.56346 0.89193 0.12509 0.0
N3644 N 0.61313 0.89745 0.12457 0.0
N3645 N 0.5456 0.86988 0.10868 0.0
H3646 H 0.54762 0.91404 0.13475 0.0
H3647 H 0.53552 0.89421 0.1314 0.0
H3648 H 0.54336 0.85761 0.10218 0.0
H3649 H 0.53452 0.87858 0.1078 0.0
H3650 H 0.62491 0.89159 0.11949 0.0
H3651 H 0.61468 0.91097 0.12845 0.0
H3652 H 0.62236 0.86355 0.12204 0.0
H3653 H 0.60881 0.84619 0.11351 0.0
C3654 C 0.10897 0.60502 0.12934 0.0
C3655 C 0.09833 0.58896 0.13052 0.0
C3656 C 0.12454 0.57104 0.12104 0.0
C3657 C 0.13512 0.58695 0.11862 0.0
N3658 N 0.13696 0.61952 0.11944 0.0
N3659 N 0.09442 0.55885 0.11827 0.0
C3660 C 0.12712 0.60412 0.12242 0.0
C3661 C 0.10558 0.57263 0.12353 0.0
N3662 N 0.10157 0.62112 0.13461 0.0
N3663 N 0.13231 0.55427 0.12122 0.0
H3664 H 0.08043 0.56047 0.11718 0.0
H3665 H 0.09922 0.54705 0.11214 0.0
H3666 H 0.14617 0.55204 0.12038 0.0
H3667 H 0.12501 0.54264 0.1246 0.0
H3668 H 0.10896 0.633 0.13638 0.0
H3669 H 0.08775 0.62248 0.13729 0.0
H3670 H 0.13154 0.63253 0.11987 0.0
H3671 H 0.15069 0.61921 0.11608 0.0
C3672 C 0.40271 0.89108 0.8761 0.0
C3673 C 0.41808 0.90221 0.8731 0.0
C3674 C 0.43777 0.87786 0.88464 0.0
C3675 C 0.42249 0.86604 0.88586 0.0
N3676 N 0.39062 0.8609 0.88117 0.0
N3677 N 0.4487 0.90885 0.88193 0.0
C3678 C 0.40497 0.87263 0.88135 0.0
C3679 C 0.43524 0.89638 0.87948 0.0
N3680 N 0.38588 0.89859 0.87445 0.0
N3681 N 0.45476 0.87144 0.88826 0.0
H3682 H 0.44642 0.92272 0.88068 0.0
H3683 H 0.46121 0.90593 0.88773 0.0
H3684 H 0.45737 0.85836 0.89276 0.0
H3685 H 0.46656 0.87863 0.88546 0.0
H3686 H 0.37391 0.89195 0.87785 0.0
H3687 H 0.38413 0.91231 0.87145 0.0
H3688 H 0.3778 0.86426 0.87638 0.0
H3689 H 0.39194 0.84717 0.88428 0.0
C3690 C 0.11657 0.43277 0.87341 0.0
C3691 C 0.11089 0.41712 0.86374 0.0
C3692 C 0.14033 0.40302 0.8721 0.0
C3693 C 0.14695 0.42007 0.87832 0.0
N3694 N 0.1417 0.45245 0.88 0.0
N3695 N 0.11719 0.38612 0.85562 0.0
C3696 C 0.13524 0.43533 0.87732 0.0
C3697 C 0.12279 0.40186 0.86355 0.0
N3698 N 0.10417 0.44478 0.88005 0.0
N3699 N 0.15076 0.38792 0.87448 0.0
H3700 H 0.10374 0.38392 0.85188 0.0
H3701 H 0.1258 0.37533 0.85275 0.0
H3702 H 0.16393 0.38854 0.87959 0.0
H3703 H 0.14615 0.37479 0.87217 0.0
H3704 H 0.10782 0.45585 0.88805 0.0
H3705 H 0.09035 0.44196 0.88042 0.0
H3706 H 0.13372 0.46394 0.87798 0.0
H3707 H 0.15533 0.45537 0.88189 0.0
C3708 C 0.59111 0.10296 0.88771 0.0
C3709 C 0.59063 0.10369 0.86857 0.0
C3710 C 0.59573 0.13667 0.86974 0.0
C3711 C 0.59428 0.13628 0.88881 0.0
N3712 N 0.58646 0.11917 0.91579 0.0
N3713 N 0.58732 0.12238 0.84166 0.0
C3714 C 0.59095 0.11945 0.89783 0.0
C3715 C 0.59154 0.12085 0.85964 0.0
N3716 N 0.59206 0.08658 0.89626 0.0
N3717 N 0.60141 0.15209 0.86121 0.0
H3718 H 0.58311 0.11155 0.83367 0.0
H3719 H 0.58592 0.13482 0.83512 0.0
H3720 H 0.6049 0.16388 0.86821 0.0
H3721 H 0.60449 0.15256 0.84743 0.0
H3722 H 0.59445 0.08524 0.91011 0.0
H3723 H 0.59198 0.0743 0.88925 0.0
H3724 H 0.58193 0.10756 0.92241 0.0
H3725 H 0.58549 0.13075 0.92378 0.0
C3726 C 0.85912 0.58945 0.863 0.0
C3727 C 0.85995 0.58571 0.88176 0.0
C3728 C 0.89333 0.58687 0.88016 0.0
C3729 C 0.8925 0.58778 0.861 0.0
N3730 N 0.87349 0.5854 0.83405 0.0
N3731 N 0.87836 0.57711 0.90758 0.0
C3732 C 0.87511 0.58802 0.85233 0.0
C3733 C 0.8772 0.58354 0.89025 0.0
N3734 N 0.84307 0.59454 0.85531 0.0
N3735 N 0.90952 0.58937 0.88878 0.0
H3736 H 0.86714 0.57346 0.91531 0.0
H3737 H 0.8906 0.5735 0.91363 0.0
H3738 H 0.92151 0.59211 0.88181 0.0
H3739 H 0.91065 0.5906 0.9028 0.0
H3740 H 0.84209 0.59928 0.84204 0.0
H3741 H 0.83112 0.59586 0.86274 0.0
H3742 H 0.86103 0.58351 0.82767 0.0
H3743 H 0.88429 0.58293 0.8254 0.0
C3744 C 0.12468 0.4029 0.1089 0.0
C3745 C 0.12661 0.41996 0.10013 0.0
C3746 C 0.12394 0.43527 0.1293 0.0
C3747 C 0.12194 0.41842 0.13844 0.0
N3748 N 0.11824 0.38604 0.13655 0.0
N3749 N 0.11798 0.45124 0.10129 0.0
C3750 C 0.12154 0.40215 0.12804 0.0
C3751 C 0.12301 0.43582 0.1101 0.0
N3752 N 0.12615 0.38749 0.09878 0.0
N3753 N 0.12713 0.45084 0.13873 0.0
H3754 H 0.11588 0.45149 0.08731 0.0
H3755 H 0.11351 0.46276 0.10814 0.0
H3756 H 0.12949 0.4512 0.1526 0.0
H3757 H 0.12958 0.46319 0.1324 0.0
H3758 H 0.12701 0.3745 0.10418 0.0
H3759 H 0.12673 0.38795 0.08464 0.0
H3760 H 0.11582 0.37391 0.12979 0.0
H3761 H 0.1175 0.38492 0.15063 0.0
C3762 C 0.11187 0.58809 0.87389 0.0
C3763 C 0.1207 0.59401 0.85773 0.0
C3764 C 0.14417 0.60867 0.87635 0.0
C3765 C 0.13649 0.60073 0.89216 0.0
N3766 N 0.10884 0.59149 0.90643 0.0
N3767 N 0.14532 0.60979 0.84336 0.0
C3768 C 0.119 0.59307 0.89106 0.0
C3769 C 0.13686 0.60435 0.8589 0.0
N3770 N 0.09725 0.57674 0.87293 0.0
N3771 N 0.1574 0.62148 0.87819 0.0
H3772 H 0.13997 0.60733 0.83051 0.0
H3773 H 0.15813 0.61567 0.84309 0.0
H3774 H 0.16101 0.62672 0.89081 0.0
H3775 H 0.16295 0.62868 0.86742 0.0
H3776 H 0.09165 0.57037 0.88421 0.0
H3777 H 0.09175 0.57217 0.86077 0.0
H3778 H 0.0953 0.5875 0.90643 0.0
H3779 H 0.11331 0.59656 0.91886 0.0
C3780 C 0.42726 0.10738 0.88066 0.0
C3781 C 0.4266 0.11548 0.86304 0.0
C3782 C 0.43077 0.1452 0.87722 0.0
C3783 C 0.42871 0.13747 0.8949 0.0
N3784 N 0.42196 0.11116 0.91293 0.0
N3785 N 0.42361 0.14271 0.84531 0.0
C3786 C 0.42603 0.11853 0.89647 0.0
C3787 C 0.42707 0.13457 0.86158 0.0
N3788 N 0.43028 0.0892 0.88247 0.0
N3789 N 0.43747 0.16234 0.87513 0.0
H3790 H 0.42038 0.13542 0.83363 0.0
H3791 H 0.42201 0.15667 0.84395 0.0
H3792 H 0.442 0.17029 0.88586 0.0
H3793 H 0.44076 0.1678 0.86253 0.0
H3794 H 0.4326 0.08302 0.89495 0.0
H3795 H 0.43259 0.08058 0.87155 0.0
H3796 H 0.41798 0.0977 0.91454 0.0
H3797 H 0.42095 0.1189 0.92472 0.0
C3798 C 0.8711 0.39494 0.89355 0.0
C3799 C 0.87174 0.41059 0.90485 0.0
C3800 C 0.88057 0.42881 0.87853 0.0
C3801 C 0.88138 0.41318 0.86739 0.0
N3802 N 0.87977 0.38069 0.86504 0.0
N3803 N 0.88572 0.44004 0.90872 0.0
C3804 C 0.87742 0.39598 0.87518 0.0
C3805 C 0.87914 0.4268 0.89759 0.0
N3806 N 0.86454 0.37908 0.90045 0.0
N3807 N 0.8811 0.44572 0.8711 0.0
H3808 H 0.8877 0.43805 0.92254 0.0
H3809 H 0.89211 0.45165 0.90381 0.0
H3810 H 0.88118 0.44797 0.85719 0.0
H3811 H 0.87905 0.45744 0.87873 0.0
H3812 H 0.8616 0.36777 0.89255 0.0
H3813 H 0.86169 0.37749 0.91421 0.0
H3814 H 0.87906 0.36764 0.87036 0.0
H3815 H 0.88324 0.38114 0.85134 0.0
C3816 C 0.56191 0.88573 0.87641 0.0
C3817 C 0.57709 0.8866 0.86445 0.0
C3818 C 0.59711 0.87794 0.88974 0.0
C3819 C 0.58185 0.87521 0.90106 0.0
N3820 N 0.5512 0.88396 0.90756 0.0
N3821 N 0.60892 0.88178 0.85929 0.0
C3822 C 0.5646 0.88122 0.8951 0.0
C3823 C 0.59467 0.8824 0.8711 0.0
N3824 N 0.54486 0.88907 0.86999 0.0
N3825 N 0.61401 0.87676 0.89719 0.0
H3826 H 0.60747 0.88427 0.84545 0.0
H3827 H 0.62178 0.87716 0.86276 0.0
H3828 H 0.61588 0.87432 0.91101 0.0
H3829 H 0.62589 0.88005 0.89035 0.0
H3830 H 0.53312 0.8865 0.87735 0.0
H3831 H 0.54215 0.89307 0.85676 0.0
H3832 H 0.53861 0.8895 0.90452 0.0
H3833 H 0.5536 0.8832 0.92145 0.0
C3834 C 0.86814 0.59896 0.12833 0.0
C3835 C 0.87212 0.58266 0.13789 0.0
C3836 C 0.86912 0.56576 0.10919 0.0
C3837 C 0.86225 0.58136 0.10037 0.0
N3838 N 0.85634 0.61336 0.10107 0.0
N3839 N 0.87247 0.54972 0.13743 0.0
C3840 C 0.86224 0.59816 0.10984 0.0
C3841 C 0.87135 0.56583 0.12836 0.0
N3842 N 0.86996 0.61522 0.13701 0.0
N3843 N 0.87416 0.55098 0.09927 0.0
H3844 H 0.87343 0.54861 0.15141 0.0
H3845 H 0.87016 0.53726 0.13119 0.0
H3846 H 0.87458 0.55107 0.08517 0.0
H3847 H 0.88059 0.53975 0.1049 0.0
H3848 H 0.86949 0.62771 0.13048 0.0
H3849 H 0.87254 0.61621 0.15088 0.0
H3850 H 0.85367 0.62563 0.10748 0.0
H3851 H 0.85374 0.61345 0.08716 0.0
C3852 C 0.40285 0.8811 0.10786 0.0
C3853 C 0.4184 0.87828 0.0969 0.0
C3854 C 0.43742 0.89225 0.12039 0.0
C3855 C 0.42219 0.89312 0.13228 0.0
N3856 N 0.39052 0.88745 0.13771 0.0
N3857 N 0.44795 0.8896 0.08934 0.0
C3858 C 0.40486 0.88754 0.12599 0.0
C3859 C 0.43502 0.88629 0.10215 0.0
N3860 N 0.38611 0.87852 0.10041 0.0
N3861 N 0.45431 0.89689 0.12644 0.0
H3862 H 0.44547 0.8878 0.07555 0.0
H3863 H 0.45988 0.89669 0.09189 0.0
H3864 H 0.45688 0.90208 0.13927 0.0
H3865 H 0.46611 0.89425 0.11918 0.0
H3866 H 0.37401 0.88164 0.10693 0.0
H3867 H 0.38446 0.87522 0.08674 0.0
H3868 H 0.37795 0.88184 0.13466 0.0
H3869 H 0.39161 0.89162 0.15117 0.0
C3870 C 0.58633 0.11245 0.10818 0.0
C3871 C 0.58863 0.13153 0.10891 0.0
C3872 C 0.58729 0.1297 0.14239 0.0
C3873 C 0.58213 0.11129 0.14142 0.0
N3874 N 0.5733 0.08596 0.12249 0.0
N3875 N 0.58623 0.15871 0.1277 0.0
C3876 C 0.58083 0.10281 0.12407 0.0
C3877 C 0.58788 0.14031 0.12627 0.0
N3878 N 0.58964 0.10343 0.09237 0.0
N3879 N 0.59194 0.13715 0.15869 0.0
H3880 H 0.58504 0.1675 0.1168 0.0
H3881 H 0.58371 0.1652 0.13999 0.0
H3882 H 0.59202 0.12977 0.17075 0.0
H3883 H 0.59762 0.15004 0.15987 0.0
H3884 H 0.58991 0.08934 0.09148 0.0
H3885 H 0.59399 0.11 0.08063 0.0
H3886 H 0.57039 0.07998 0.11003 0.0
H3887 H 0.56808 0.07875 0.13345 0.0
C3888 C 0.6289 0.63132 0.89482 0.0
C3889 C 0.63731 0.62871 0.91199 0.0
C3890 C 0.60795 0.63374 0.92663 0.0
C3891 C 0.60044 0.64004 0.91015 0.0
N3892 N 0.60302 0.64271 0.87778 0.0
N3893 N 0.63503 0.63173 0.94462 0.0
C3894 C 0.61074 0.63813 0.89396 0.0
C3895 C 0.62695 0.63135 0.92799 0.0
N3896 N 0.6383 0.62725 0.87941 0.0
N3897 N 0.59699 0.62909 0.94077 0.0
H3898 H 0.64896 0.63088 0.94649 0.0
H3899 H 0.628 0.63517 0.95639 0.0
H3900 H 0.58297 0.62805 0.93939 0.0
H3901 H 0.60192 0.62342 0.95274 0.0
H3902 H 0.6325 0.6269 0.86655 0.0
H3903 H 0.65194 0.62354 0.8796 0.0
H3904 H 0.6102 0.64391 0.86571 0.0
H3905 H 0.5892 0.6455 0.87661 0.0
C3906 C 0.35581 0.64373 0.90037 0.0
C3907 C 0.37474 0.64328 0.90324 0.0
C3908 C 0.37365 0.60998 0.90132 0.0
C3909 C 0.3545 0.61034 0.90203 0.0
N3910 N 0.32761 0.62895 0.90716 0.0
N3911 N 0.40086 0.62491 0.91137 0.0
C3912 C 0.34553 0.62757 0.90268 0.0
C3913 C 0.38355 0.62612 0.90489 0.0
N3914 N 0.34753 0.65953 0.89548 0.0
N3915 N 0.38247 0.5942 0.89741 0.0
H3916 H 0.40816 0.63593 0.91628 0.0
H3917 H 0.40708 0.61254 0.91419 0.0
H3918 H 0.3756 0.58224 0.89429 0.0
H3919 H 0.39643 0.5936 0.89529 0.0
H3920 H 0.33395 0.66014 0.89164 0.0
H3921 H 0.35469 0.67154 0.89333 0.0
H3922 H 0.32129 0.64138 0.90938 0.0
H3923 H 0.3195 0.61812 0.91102 0.0
C3924 C 0.399 0.3734 0.89309 0.0
C3925 C 0.40944 0.37338 0.90933 0.0
C3926 C 0.38439 0.38774 0.92553 0.0
C3927 C 0.3734 0.38733 0.90958 0.0
N3928 N 0.37127 0.38228 0.8774 0.0
N3929 N 0.41502 0.38964 0.937 0.0
C3930 C 0.38111 0.38105 0.89305 0.0
C3931 C 0.40308 0.38341 0.92431 0.0
N3932 N 0.40637 0.36622 0.87772 0.0
N3933 N 0.37718 0.39198 0.94203 0.0
H3934 H 0.429 0.38866 0.93523 0.0
H3935 H 0.41125 0.39818 0.94759 0.0
H3936 H 0.3636 0.39483 0.94419 0.0
H3937 H 0.38443 0.39064 0.95408 0.0
H3938 H 0.39915 0.36361 0.8659 0.0
H3939 H 0.42012 0.36301 0.87687 0.0
H3940 H 0.37644 0.37961 0.86457 0.0
H3941 H 0.3578 0.38654 0.87716 0.0
C3942 C 0.62087 0.37878 0.92915 0.0
C3943 C 0.62903 0.3635 0.92044 0.0
C3944 C 0.64915 0.3844 0.90397 0.0
C3945 C 0.64356 0.39913 0.91514 0.0
N3946 N 0.62034 0.41145 0.9343 0.0
N3947 N 0.65154 0.3518 0.90004 0.0
C3948 C 0.62822 0.39662 0.92653 0.0
C3949 C 0.64336 0.36636 0.90801 0.0
N3950 N 0.60584 0.37622 0.9397 0.0
N3951 N 0.65885 0.38787 0.88861 0.0
H3952 H 0.6474 0.33849 0.90241 0.0
H3953 H 0.6633 0.35286 0.89231 0.0
H3954 H 0.66113 0.40105 0.88402 0.0
H3955 H 0.66224 0.37797 0.87915 0.0
H3956 H 0.59826 0.38653 0.94554 0.0
H3957 H 0.60045 0.3635 0.94245 0.0
H3958 H 0.61085 0.41099 0.94469 0.0
H3959 H 0.62281 0.42454 0.92959 0.0
C3960 C 0.60733 0.37069 0.07292 0.0
C3961 C 0.59998 0.36263 0.08874 0.0
C3962 C 0.62928 0.36862 0.10414 0.0
C3963 C 0.63732 0.3733 0.08723 0.0
N3964 N 0.63401 0.37497 0.05463 0.0
N3965 N 0.60329 0.35664 0.12063 0.0
C3966 C 0.62638 0.37301 0.07136 0.0
C3967 C 0.61082 0.3624 0.10475 0.0
N3968 N 0.5961 0.37732 0.0598 0.0
N3969 N 0.6393 0.37035 0.11962 0.0
H3970 H 0.58934 0.35493 0.12212 0.0
H3971 H 0.6107 0.35371 0.13227 0.0
H3972 H 0.65307 0.37359 0.11942 0.0
H3973 H 0.634 0.36915 0.13262 0.0
H3974 H 0.6008 0.3844 0.04853 0.0
H3975 H 0.58214 0.37841 0.0617 0.0
H3976 H 0.62665 0.37334 0.04267 0.0
H3977 H 0.6479 0.37596 0.05255 0.0
C3978 C 0.62696 0.61223 0.09721 0.0
C3979 C 0.62847 0.60169 0.0811 0.0
C3980 C 0.62139 0.62875 0.06309 0.0
C3981 C 0.61895 0.63927 0.07902 0.0
N3982 N 0.61742 0.64042 0.11157 0.0
N3983 N 0.61803 0.59893 0.05017 0.0
C3984 C 0.62109 0.63076 0.09621 0.0
C3985 C 0.62294 0.60961 0.06446 0.0
N3986 N 0.63093 0.60439 0.11349 0.0
N3987 N 0.62227 0.63685 0.0465 0.0
H3988 H 0.61609 0.58501 0.05146 0.0
H3989 H 0.61291 0.60416 0.03809 0.0
H3990 H 0.62191 0.65082 0.04472 0.0
H3991 H 0.62561 0.62975 0.03475 0.0
H3992 H 0.63249 0.6116 0.12552 0.0
H3993 H 0.63282 0.59044 0.11484 0.0
H3994 H 0.61665 0.63471 0.12444 0.0
H3995 H 0.61451 0.65425 0.11132 0.0
C3996 C 0.35787 0.6412 0.09156 0.0
C3997 C 0.35762 0.62453 0.08201 0.0
C3998 C 0.39096 0.62595 0.07908 0.0
C3999 C 0.39087 0.64362 0.08648 0.0
N4000 N 0.37596 0.66317 0.10801 0.0
N4001 N 0.37404 0.60115 0.06588 0.0
C4002 C 0.3748 0.64994 0.09513 0.0
C4003 C 0.37425 0.6168 0.0758 0.0
N4004 N 0.34192 0.64881 0.09703 0.0
N4005 N 0.40718 0.61746 0.07638 0.0
H4006 H 0.36236 0.59369 0.06338 0.0
H4007 H 0.38525 0.59619 0.05892 0.0
H4008 H 0.41944 0.62335 0.08027 0.0
H4009 H 0.40845 0.60394 0.07257 0.0
H4010 H 0.34094 0.66193 0.10213 0.0
H4011 H 0.32941 0.64246 0.09524 0.0
H4012 H 0.36498 0.66759 0.11567 0.0
H4013 H 0.38834 0.66766 0.11312 0.0
C4014 C 0.3701 0.37857 0.10007 0.0
C4015 C 0.37311 0.3692 0.0835 0.0
C4016 C 0.37012 0.39793 0.06716 0.0
C4017 C 0.36352 0.40648 0.08292 0.0
N4018 N 0.35773 0.4053 0.11492 0.0
N4019 N 0.37053 0.36997 0.0506 0.0
C4020 C 0.36383 0.3969 0.09962 0.0
C4021 C 0.37144 0.37882 0.06683 0.0
N4022 N 0.37305 0.36992 0.11615 0.0
N4023 N 0.37521 0.40793 0.05246 0.0
H4024 H 0.36959 0.35599 0.04934 0.0
H4025 H 0.36805 0.37668 0.03841 0.0
H4026 H 0.3761 0.42201 0.05285 0.0
H4027 H 0.38114 0.40218 0.041 0.0
H4028 H 0.37302 0.37649 0.12864 0.0
H4029 H 0.37623 0.35616 0.11689 0.0
H4030 H 0.3555 0.39862 0.12714 0.0
H4031 H 0.35438 0.41905 0.11504 0.0
C4032 C 0.92948 0.62096 0.60631 0.0
C4033 C 0.92655 0.63796 0.61517 0.0
C4034 C 0.92403 0.62187 0.64419 0.0
C4035 C 0.925 0.60466 0.63509 0.0
N4036 N 0.92638 0.58813 0.60709 0.0
N4037 N 0.91814 0.65419 0.64207 0.0
C4038 C 0.92717 0.60433 0.61604 0.0
C4039 C 0.92309 0.63827 0.63397 0.0
N4040 N 0.93516 0.62064 0.5887 0.0
N4041 N 0.92484 0.62282 0.66268 0.0
H4042 H 0.91755 0.66649 0.63513 0.0
H4043 H 0.91308 0.65493 0.65523 0.0
H4044 H 0.92531 0.61165 0.6712 0.0
H4045 H 0.92673 0.63492 0.6697 0.0
H4046 H 0.93958 0.60895 0.58216 0.0
H4047 H 0.93704 0.63228 0.58098 0.0
H4048 H 0.92567 0.58703 0.59304 0.0
H4049 H 0.92489 0.57576 0.61377 0.0
C4050 C 0.36584 0.90204 0.62939 0.0
C4051 C 0.36596 0.91379 0.61422 0.0
C4052 C 0.39865 0.91963 0.61935 0.0
C4053 C 0.39813 0.90873 0.63523 0.0
N4054 N 0.38378 0.8826 0.64874 0.0
N4055 N 0.38326 0.93123 0.59259 0.0
C4056 C 0.38247 0.89786 0.63837 0.0
C4057 C 0.38265 0.9218 0.60854 0.0
N4058 N 0.34986 0.89479 0.63525 0.0
N4059 N 0.41464 0.92752 0.61437 0.0
H4060 H 0.37189 0.93368 0.58465 0.0
H4061 H 0.39508 0.93601 0.58661 0.0
H4062 H 0.42705 0.92324 0.61959 0.0
H4063 H 0.41579 0.93788 0.60488 0.0
H4064 H 0.34866 0.8877 0.64741 0.0
H4065 H 0.33755 0.89712 0.62871 0.0
H4066 H 0.37312 0.87351 0.65052 0.0
H4067 H 0.39621 0.87746 0.65302 0.0
C4068 C 0.10294 0.38008 0.63859 0.0
C4069 C 0.0951 0.39661 0.63245 0.0
C4070 C 0.07928 0.37995 0.60835 0.0
C4071 C 0.08527 0.36315 0.61576 0.0
N4072 N 0.10288 0.34704 0.63798 0.0
N4073 N 0.08392 0.41244 0.60635 0.0
C4074 C 0.09722 0.36317 0.63087 0.0
C4075 C 0.08573 0.39659 0.61572 0.0
N4076 N 0.11692 0.38074 0.6507 0.0
N4077 N 0.06645 0.38011 0.59496 0.0
H4078 H 0.09013 0.42439 0.61066 0.0
H4079 H 0.07859 0.41319 0.5933 0.0
H4080 H 0.06074 0.36838 0.58955 0.0
H4081 H 0.06011 0.3919 0.5905 0.0
H4082 H 0.12415 0.36945 0.65505 0.0
H4083 H 0.12291 0.39297 0.65452 0.0
H4084 H 0.10989 0.34589 0.65016 0.0
H4085 H 0.09961 0.33457 0.63219 0.0
C4086 C 0.61907 0.06656 0.63253 0.0
C4087 C 0.61108 0.08231 0.64006 0.0
C4088 C 0.64007 0.09828 0.63446 0.0
C4089 C 0.64863 0.08147 0.63048 0.0
N4090 N 0.64626 0.04877 0.63159 0.0
N4091 N 0.614 0.11403 0.6472 0.0
C4092 C 0.63816 0.06536 0.63147 0.0
C4093 C 0.62165 0.09847 0.64077 0.0
N4094 N 0.60863 0.05298 0.62554 0.0
N4095 N 0.64951 0.11402 0.63208 0.0
H4096 H 0.60014 0.11507 0.64976 0.0
H4097 H 0.62138 0.12568 0.65019 0.0
H4098 H 0.66322 0.11415 0.62863 0.0
H4099 H 0.64363 0.12682 0.63281 0.0
H4100 H 0.61417 0.04166 0.61914 0.0
H4101 H 0.59478 0.05446 0.62326 0.0
H4102 H 0.639 0.03677 0.63338 0.0
H4103 H 0.66019 0.04722 0.63265 0.0
C4104 C 0.91083 0.35382 0.36617 0.0
C4105 C 0.90514 0.35357 0.38444 0.0
C4106 C 0.8933 0.38467 0.38128 0.0
C4107 C 0.90119 0.38598 0.36388 0.0
N4108 N 0.91652 0.37093 0.33885 0.0
N4109 N 0.88117 0.3645 0.40397 0.0
C4110 C 0.90937 0.3702 0.35591 0.0
C4111 C 0.89348 0.36775 0.39054 0.0
N4112 N 0.91594 0.33793 0.35813 0.0
N4113 N 0.88568 0.39961 0.38911 0.0
H4114 H 0.87839 0.35149 0.40868 0.0
H4115 H 0.87158 0.37398 0.40812 0.0
H4116 H 0.88429 0.41194 0.38233 0.0
H4117 H 0.88178 0.4 0.40267 0.0
H4118 H 0.91882 0.33655 0.34441 0.0
H4119 H 0.91488 0.32547 0.36469 0.0
H4120 H 0.92556 0.36138 0.33379 0.0
H4121 H 0.914 0.38128 0.32968 0.0
C4122 C 0.63954 0.89932 0.36251 0.0
C4123 C 0.64011 0.9091 0.37905 0.0
C4124 C 0.60681 0.9118 0.3784 0.0
C4125 C 0.60654 0.90455 0.36069 0.0
N4126 N 0.62096 0.8834 0.34046 0.0
N4127 N 0.62417 0.92619 0.40212 0.0
C4128 C 0.62245 0.89596 0.35396 0.0
C4129 C 0.62367 0.91551 0.38698 0.0
N4130 N 0.65534 0.89349 0.35484 0.0
N4131 N 0.59082 0.91415 0.38741 0.0
H4132 H 0.63608 0.92964 0.40883 0.0
H4133 H 0.61291 0.93305 0.40713 0.0
H4134 H 0.57846 0.91003 0.38187 0.0
H4135 H 0.58998 0.91781 0.40101 0.0
H4136 H 0.65616 0.88815 0.34181 0.0
H4137 H 0.66791 0.89509 0.3611 0.0
H4138 H 0.63176 0.87577 0.3356 0.0
H4139 H 0.60843 0.87864 0.33599 0.0
C4140 C 0.06091 0.63439 0.37339 0.0
C4141 C 0.07731 0.64119 0.38091 0.0
C4142 C 0.09153 0.61139 0.37506 0.0
C4143 C 0.07468 0.60442 0.36889 0.0
N4144 N 0.04209 0.60805 0.36872 0.0
N4145 N 0.1096 0.63768 0.38352 0.0
C4146 C 0.05898 0.61548 0.37015 0.0
C4147 C 0.09303 0.63 0.38042 0.0
N4148 N 0.04761 0.64598 0.36783 0.0
N4149 N 0.10595 0.59985 0.37631 0.0
H4150 H 0.11123 0.65162 0.38528 0.0
H4151 H 0.12186 0.63087 0.38231 0.0
H4152 H 0.10483 0.58611 0.37309 0.0
H4153 H 0.11838 0.60327 0.38201 0.0
H4154 H 0.03594 0.64165 0.36114 0.0
H4155 H 0.04954 0.65991 0.36686 0.0
H4156 H 0.03028 0.61547 0.3709 0.0
H4157 H 0.0398 0.59416 0.36819 0.0
C4158 C 0.37429 0.09188 0.35394 0.0
C4159 C 0.39213 0.09054 0.36143 0.0
C4160 C 0.37844 0.08762 0.39172 0.0
C4161 C 0.36083 0.09084 0.38437 0.0
N4162 N 0.34308 0.10082 0.35889 0.0
N4163 N 0.41091 0.09142 0.38809 0.0
C4164 C 0.35915 0.09456 0.36562 0.0
C4165 C 0.39409 0.08983 0.38054 0.0
N4166 N 0.37134 0.08908 0.33586 0.0
N4167 N 0.38034 0.08116 0.40898 0.0
H4168 H 0.42257 0.09338 0.38034 0.0
H4169 H 0.413 0.09273 0.402 0.0
H4170 H 0.36945 0.07818 0.41743 0.0
H4171 H 0.39271 0.07683 0.41422 0.0
H4172 H 0.3584 0.08809 0.33029 0.0
H4173 H 0.38141 0.08553 0.32669 0.0
H4174 H 0.34162 0.10544 0.34562 0.0
H4175 H 0.33182 0.10324 0.36707 0.0
C4176 C 0.6267 0.92176 0.63235 0.0
C4177 C 0.6255 0.90561 0.6427 0.0
C4178 C 0.63634 0.88856 0.61604 0.0
C4179 C 0.63622 0.90481 0.60564 0.0
N4180 N 0.62177 0.93405 0.60258 0.0
N4181 N 0.62698 0.87303 0.64365 0.0
C4182 C 0.6284 0.92054 0.61333 0.0
C4183 C 0.62959 0.88876 0.63426 0.0
N4184 N 0.62639 0.93838 0.64042 0.0
N4185 N 0.6427 0.87298 0.6084 0.0
H4186 H 0.62326 0.87289 0.65729 0.0
H4187 H 0.62781 0.86022 0.6378 0.0
H4188 H 0.64558 0.87205 0.59458 0.0
H4189 H 0.64528 0.86118 0.61569 0.0
H4190 H 0.62857 0.95032 0.63317 0.0
H4191 H 0.62647 0.94019 0.65439 0.0
H4192 H 0.6151 0.94534 0.60784 0.0
H4193 H 0.62021 0.93249 0.58863 0.0
C4194 C 0.62798 0.0727 0.39432 0.0
C4195 C 0.63607 0.0884 0.40184 0.0
C4196 C 0.62949 0.1043 0.37309 0.0
C4197 C 0.62512 0.08744 0.36477 0.0
N4198 N 0.6252 0.05471 0.36735 0.0
N4199 N 0.64293 0.12013 0.39878 0.0
C4200 C 0.62602 0.07137 0.3753 0.0
C4201 C 0.63632 0.10456 0.39129 0.0
N4202 N 0.62136 0.05933 0.40524 0.0
N4203 N 0.62705 0.12 0.36359 0.0
H4204 H 0.64591 0.12112 0.41257 0.0
H4205 H 0.64563 0.13183 0.39138 0.0
H4206 H 0.62327 0.12009 0.34996 0.0
H4207 H 0.62808 0.13284 0.36934 0.0
H4208 H 0.61448 0.04807 0.40018 0.0
H4209 H 0.62003 0.06099 0.41921 0.0
H4210 H 0.62714 0.04275 0.37463 0.0
H4211 H 0.6251 0.05284 0.35339 0.0
C4212 C 0.92875 0.61442 0.37421 0.0
C4213 C 0.91357 0.61535 0.36235 0.0
C4214 C 0.89585 0.62952 0.38688 0.0
C4215 C 0.91119 0.62852 0.39851 0.0
N4216 N 0.93832 0.6118 0.40543 0.0
N4217 N 0.88173 0.62122 0.35821 0.0
C4218 C 0.92644 0.61839 0.39289 0.0
C4219 C 0.89676 0.62204 0.36901 0.0
N4220 N 0.94549 0.60986 0.36781 0.0
N4221 N 0.88049 0.63779 0.39303 0.0
H4222 H 0.88227 0.61709 0.3447 0.0
H4223 H 0.86867 0.62401 0.36271 0.0
H4224 H 0.87898 0.64154 0.40659 0.0
H4225 H 0.86949 0.6411 0.38486 0.0
H4226 H 0.95717 0.61065 0.37572 0.0
H4227 H 0.94817 0.60734 0.35422 0.0
H4228 H 0.94907 0.60328 0.40211 0.0
H4229 H 0.93573 0.61244 0.4193 0.0
C4230 C 0.37473 0.93282 0.36254 0.0
C4231 C 0.37676 0.91656 0.35246 0.0
C4232 C 0.36681 0.89935 0.37939 0.0
C4233 C 0.36603 0.91572 0.38955 0.0
N4234 N 0.378 0.94609 0.39218 0.0
N4235 N 0.37632 0.88394 0.3518 0.0
C4236 C 0.3727 0.93187 0.38161 0.0
C4237 C 0.37331 0.89966 0.3611 0.0
N4238 N 0.37458 0.9493 0.35415 0.0
N4239 N 0.36143 0.88353 0.38733 0.0
H4240 H 0.37959 0.88379 0.33804 0.0
H4241 H 0.37612 0.87115 0.35773 0.0
H4242 H 0.35871 0.88266 0.40119 0.0
H4243 H 0.35943 0.87148 0.38029 0.0
H4244 H 0.37162 0.96127 0.36105 0.0
H4245 H 0.37509 0.95093 0.34018 0.0
H4246 H 0.38398 0.95774 0.38687 0.0
H4247 H 0.3793 0.94503 0.4062 0.0
C4248 C 0.09253 0.38436 0.37438 0.0
C4249 C 0.07779 0.38166 0.36214 0.0
C4250 C 0.05956 0.3704 0.38744 0.0
C4251 C 0.0747 0.37036 0.39916 0.0
N4252 N 0.1061 0.37763 0.4038 0.0
N4253 N 0.05077 0.36375 0.35686 0.0
C4254 C 0.09136 0.37756 0.3926 0.0
C4255 C 0.06233 0.37219 0.36855 0.0
N4256 N 0.10782 0.39292 0.36845 0.0
N4257 N 0.04242 0.369 0.39412 0.0
H4258 H 0.05359 0.36211 0.34314 0.0
H4259 H 0.03986 0.35598 0.36139 0.0
H4260 H 0.03957 0.36937 0.40794 0.0
H4261 H 0.03108 0.37035 0.38581 0.0
H4262 H 0.1181 0.39739 0.377 0.0
H4263 H 0.11012 0.39564 0.35477 0.0
H4264 H 0.1192 0.38062 0.39953 0.0
H4265 H 0.1051 0.37422 0.41749 0.0
C4266 C 0.37355 0.09809 0.61263 0.0
C4267 C 0.37059 0.08168 0.60296 0.0
C4268 C 0.37834 0.06423 0.62996 0.0
C4269 C 0.38115 0.08045 0.63999 0.0
N4270 N 0.3838 0.11299 0.64025 0.0
N4271 N 0.37956 0.05051 0.6002 0.0
C4272 C 0.37959 0.09747 0.63105 0.0
C4273 C 0.37598 0.06515 0.6109 0.0
N4274 N 0.37038 0.11418 0.60406 0.0
N4275 N 0.37766 0.04786 0.63849 0.0
H4276 H 0.37986 0.05145 0.58611 0.0
H4277 H 0.38483 0.03841 0.60522 0.0
H4278 H 0.37811 0.04636 0.65248 0.0
H4279 H 0.37461 0.03584 0.63178 0.0
H4280 H 0.37012 0.1267 0.61053 0.0
H4281 H 0.36786 0.11481 0.59015 0.0
H4282 H 0.38483 0.1257 0.63424 0.0
H4283 H 0.38676 0.11307 0.65408 0.0
C4284 C 0.89666 0.36779 0.62256 0.0
C4285 C 0.90857 0.37084 0.60767 0.0
C4286 C 0.92322 0.39495 0.62561 0.0
C4287 C 0.91449 0.38838 0.6416 0.0
N4288 N 0.89274 0.36823 0.65517 0.0
N4289 N 0.93041 0.39065 0.59374 0.0
C4290 C 0.90116 0.37469 0.64003 0.0
C4291 C 0.92101 0.38549 0.60881 0.0
N4292 N 0.88041 0.35942 0.61974 0.0
N4293 N 0.9331 0.41061 0.62632 0.0
H4294 H 0.92644 0.38682 0.58074 0.0
H4295 H 0.94183 0.39892 0.59406 0.0
H4296 H 0.93474 0.41814 0.6381 0.0
H4297 H 0.93845 0.41708 0.615 0.0
H4298 H 0.87066 0.35792 0.62983 0.0
H4299 H 0.87563 0.35653 0.60675 0.0
H4300 H 0.88425 0.35694 0.65498 0.0
H4301 H 0.89532 0.37333 0.66811 0.0
C4302 C 0.07057 0.61088 0.62188 0.0
C4303 C 0.08542 0.61192 0.63419 0.0
C4304 C 0.105 0.62234 0.60922 0.0
C4305 C 0.08977 0.6228 0.59751 0.0
N4306 N 0.06108 0.60916 0.59044 0.0
N4307 N 0.11676 0.61893 0.63988 0.0
C4308 C 0.0734 0.61458 0.60314 0.0
C4309 C 0.10274 0.61747 0.62784 0.0
N4310 N 0.05363 0.6066 0.62801 0.0
N4311 N 0.1217 0.62603 0.60214 0.0
H4312 H 0.11532 0.61603 0.65364 0.0
H4313 H 0.12944 0.62417 0.6367 0.0
H4314 H 0.12347 0.62857 0.58832 0.0
H4315 H 0.1338 0.62502 0.60927 0.0
H4316 H 0.04203 0.6077 0.62006 0.0
H4317 H 0.05078 0.60356 0.64146 0.0
H4318 H 0.04942 0.60182 0.5935 0.0
H4319 H 0.06392 0.60952 0.57662 0.0
C4320 C 0.07814 0.24813 0.4362 0.0
C4321 C 0.07361 0.23502 0.4226 0.0
C4322 C 0.08186 0.25903 0.40037 0.0
C4323 C 0.0873 0.27102 0.4146 0.0
N4324 N 0.09948 0.27164 0.44457 0.0
N4325 N 0.07403 0.22837 0.39054 0.0
C4326 C 0.08905 0.26335 0.43184 0.0
C4327 C 0.07681 0.24043 0.40426 0.0
N4328 N 0.06994 0.24804 0.45259 0.0
N4329 N 0.0804 0.26587 0.38328 0.0
H4330 H 0.06867 0.21548 0.39266 0.0
H4331 H 0.07775 0.23097 0.37717 0.0
H4332 H 0.0846 0.27905 0.38024 0.0
H4333 H 0.07449 0.25886 0.37254 0.0
H4334 H 0.07435 0.25613 0.4632 0.0
H4335 H 0.05752 0.2418 0.45476 0.0
H4336 H 0.10147 0.2661 0.45744 0.0
H4337 H 0.10739 0.28292 0.44133 0.0
C4338 C 0.75782 0.09468 0.40952 0.0
C4339 C 0.76799 0.07936 0.40377 0.0
C4340 C 0.74634 0.05983 0.41765 0.0
C4341 C 0.73488 0.0743 0.42326 0.0
N4342 N 0.72966 0.10671 0.42204 0.0
N4343 N 0.76492 0.04898 0.39313 0.0
C4344 C 0.74032 0.09219 0.41797 0.0
C4345 C 0.75855 0.06291 0.40328 0.0
N4346 N 0.76587 0.11126 0.4086 0.0
N4347 N 0.74909 0.04502 0.4283 0.0
H4348 H 0.77544 0.05097 0.38386 0.0
H4349 H 0.75873 0.03625 0.39343 0.0
H4350 H 0.75849 0.03501 0.42486 0.0
H4351 H 0.74402 0.04407 0.44143 0.0
H4352 H 0.76041 0.12294 0.41432 0.0
H4353 H 0.77859 0.11279 0.40255 0.0
H4354 H 0.7322 0.11969 0.41713 0.0
H4355 H 0.71804 0.10563 0.42999 0.0
C4356 C 0.92163 0.75487 0.44099 0.0
C4357 C 0.93092 0.76598 0.42834 0.0
C4358 C 0.93161 0.73897 0.40811 0.0
C4359 C 0.92155 0.72885 0.42117 0.0
N4360 N 0.89959 0.73116 0.44497 0.0
N4361 N 0.94227 0.76875 0.39787 0.0
C4362 C 0.91338 0.73866 0.43529 0.0
C4363 C 0.9349 0.75814 0.41108 0.0
N4364 N 0.9241 0.75728 0.45896 0.0
N4365 N 0.93814 0.73034 0.39318 0.0
H4366 H 0.94522 0.78241 0.40002 0.0
H4367 H 0.94441 0.76436 0.38465 0.0
H4368 H 0.93457 0.71702 0.39014 0.0
H4369 H 0.94718 0.73623 0.3841 0.0
H4370 H 0.91742 0.74959 0.46876 0.0
H4371 H 0.93632 0.76282 0.46314 0.0
H4372 H 0.89322 0.73808 0.45554 0.0
H4373 H 0.89367 0.71891 0.44103 0.0
C4374 C 0.24067 0.89771 0.41702 0.0
C4375 C 0.2294 0.90841 0.40561 0.0
C4376 C 0.2546 0.92873 0.4002 0.0
C4377 C 0.26608 0.91934 0.41274 0.0
N4378 N 0.27073 0.89177 0.42968 0.0
N4379 N 0.22902 0.92724 0.37948 0.0
C4380 C 0.25946 0.90255 0.41976 0.0
C4381 C 0.23817 0.92069 0.39409 0.0
N4382 N 0.23275 0.88387 0.42632 0.0
N4383 N 0.25717 0.94659 0.39699 0.0
H4384 H 0.21619 0.92227 0.37611 0.0
H4385 H 0.23491 0.9361 0.37017 0.0
H4386 H 0.26138 0.95433 0.40784 0.0
H4387 H 0.24984 0.95398 0.38744 0.0
H4388 H 0.23917 0.87647 0.43646 0.0
H4389 H 0.2192 0.88043 0.42402 0.0
H4390 H 0.26718 0.8789 0.43422 0.0
H4391 H 0.28414 0.89531 0.43239 0.0
C4392 C 0.10319 0.73495 0.57431 0.0
C4393 C 0.09136 0.72413 0.58501 0.0
C4394 C 0.07728 0.7522 0.59657 0.0
C4395 C 0.08745 0.76279 0.58407 0.0
N4396 N 0.11577 0.76493 0.56848 0.0
N4397 N 0.07254 0.7229 0.61129 0.0
C4398 C 0.10234 0.75436 0.57538 0.0
C4399 C 0.08037 0.73303 0.59799 0.0
N4400 N 0.11445 0.7266 0.56229 0.0
N4401 N 0.06411 0.76048 0.6065 0.0
H4402 H 0.07496 0.70898 0.61226 0.0
H4403 H 0.06508 0.72837 0.62193 0.0
H4404 H 0.06273 0.77455 0.60656 0.0
H4405 H 0.0546 0.75353 0.61427 0.0
H4406 H 0.12187 0.73358 0.55251 0.0
H4407 H 0.11566 0.71251 0.56183 0.0
H4408 H 0.12751 0.75975 0.56264 0.0
H4409 H 0.11602 0.77883 0.57104 0.0
C4410 C 0.24037 0.08161 0.60722 0.0
C4411 C 0.23111 0.09146 0.59356 0.0
C4412 C 0.26091 0.10275 0.58246 0.0
C4413 C 0.27021 0.0911 0.59474 0.0
N4414 N 0.26853 0.07552 0.62331 0.0
N4415 N 0.23225 0.11697 0.57372 0.0
C4416 C 0.25974 0.08273 0.60871 0.0
C4417 C 0.24138 0.10394 0.58307 0.0
N4418 N 0.23065 0.0701 0.61794 0.0
N4419 N 0.27049 0.11204 0.56971 0.0
H4420 H 0.21817 0.1181 0.57469 0.0
H4421 H 0.23857 0.12742 0.56664 0.0
H4422 H 0.28458 0.1126 0.56977 0.0
H4423 H 0.26445 0.11889 0.55895 0.0
H4424 H 0.23653 0.06063 0.62659 0.0
H4425 H 0.21651 0.0697 0.61751 0.0
H4426 H 0.26189 0.07034 0.63462 0.0
H4427 H 0.28258 0.07646 0.62477 0.0
C4428 C 0.89488 0.25764 0.58304 0.0
C4429 C 0.90687 0.2703 0.59113 0.0
C4430 C 0.92097 0.24554 0.6084 0.0
C4431 C 0.91126 0.23276 0.59786 0.0
N4432 N 0.88356 0.22652 0.58232 0.0
N4433 N 0.92562 0.27715 0.61681 0.0
C4434 C 0.89597 0.23892 0.58808 0.0
C4435 C 0.91775 0.26449 0.60589 0.0
N4436 N 0.8834 0.26336 0.56974 0.0
N4437 N 0.93452 0.23943 0.61937 0.0
H4438 H 0.92329 0.29097 0.61498 0.0
H4439 H 0.933 0.27393 0.62839 0.0
H4440 H 0.93665 0.22556 0.62132 0.0
H4441 H 0.94378 0.24786 0.62587 0.0
H4442 H 0.87559 0.25459 0.5619 0.0
H4443 H 0.88222 0.27704 0.56633 0.0
H4444 H 0.8716 0.22999 0.57569 0.0
H4445 H 0.88491 0.21281 0.58559 0.0
C4446 C 0.76153 0.89962 0.58847 0.0
C4447 C 0.7705 0.9156 0.59471 0.0
C4448 C 0.74598 0.93311 0.58409 0.0
C4449 C 0.73506 0.91808 0.57935 0.0
N4450 N 0.73297 0.88536 0.57923 0.0
N4451 N 0.7654 0.94503 0.60724 0.0
C4452 C 0.74276 0.90061 0.58269 0.0
C4453 C 0.75926 0.93066 0.59751 0.0
N4454 N 0.7714 0.88419 0.58651 0.0
N4455 N 0.7487 0.94676 0.57202 0.0
H4456 H 0.77702 0.944 0.61527 0.0
H4457 H 0.75828 0.95726 0.60749 0.0
H4458 H 0.74319 0.94662 0.55901 0.0
H4459 H 0.75857 0.95668 0.57423 0.0
H4460 H 0.7664 0.87254 0.58029 0.0
H4461 H 0.78494 0.88368 0.59065 0.0
H4462 H 0.73762 0.87243 0.58247 0.0
H4463 H 0.71991 0.88588 0.57384 0.0
C4464 C 0.41922 0.09715 0.25953 0.0
C4465 C 0.42497 0.07925 0.26444 0.0
C4466 C 0.40848 0.06831 0.23793 0.0
C4467 C 0.40747 0.0855 0.23007 0.0
N4468 N 0.4109 0.11741 0.23458 0.0
N4469 N 0.43268 0.05074 0.24976 0.0
C4470 C 0.41207 0.10035 0.24154 0.0
C4471 C 0.42161 0.06535 0.25147 0.0
N4472 N 0.42163 0.11118 0.27131 0.0
N4473 N 0.39892 0.05438 0.2308 0.0
H4474 H 0.445 0.04983 0.25651 0.0
H4475 H 0.43067 0.04101 0.23967 0.0
H4476 H 0.38937 0.05676 0.22062 0.0
H4477 H 0.39955 0.04141 0.23643 0.0
H4478 H 0.41608 0.12398 0.2692 0.0
H4479 H 0.42894 0.1099 0.28332 0.0
H4480 H 0.4159 0.12888 0.24112 0.0
H4481 H 0.40542 0.11968 0.22171 0.0
C4482 C 0.91332 0.41522 0.24752 0.0
C4483 C 0.92915 0.4228 0.23935 0.0
C4484 C 0.93217 0.44265 0.2658 0.0
C4485 C 0.91889 0.43297 0.27584 0.0
N4486 N 0.89588 0.40978 0.27515 0.0
N4487 N 0.95767 0.4381 0.24633 0.0
C4488 C 0.90921 0.41907 0.26635 0.0
C4489 C 0.93995 0.43452 0.25034 0.0
N4490 N 0.90241 0.40415 0.23752 0.0
N4491 N 0.93741 0.45968 0.27058 0.0
H4492 H 0.96562 0.42936 0.23863 0.0
H4493 H 0.96536 0.44766 0.25334 0.0
H4494 H 0.93038 0.4672 0.28007 0.0
H4495 H 0.94647 0.46734 0.2629 0.0
H4496 H 0.88966 0.39989 0.24179 0.0
H4497 H 0.90603 0.39954 0.22467 0.0
H4498 H 0.88981 0.39813 0.27 0.0
H4499 H 0.89109 0.41369 0.28786 0.0
C4500 C 0.57267 0.90681 0.25811 0.0
C4501 C 0.57134 0.92511 0.26472 0.0
C4502 C 0.58809 0.93464 0.23787 0.0
C4503 C 0.58567 0.9178 0.22893 0.0
N4504 N 0.57725 0.8865 0.23206 0.0
N4505 N 0.57071 0.95622 0.25412 0.0
C4506 C 0.57845 0.90333 0.23953 0.0
C4507 C 0.57704 0.939 0.25275 0.0
N4508 N 0.56804 0.89289 0.26934 0.0
N4509 N 0.60048 0.94696 0.23178 0.0
H4510 H 0.55955 0.95943 0.26204 0.0
H4511 H 0.57452 0.96644 0.24512 0.0
H4512 H 0.60971 0.94389 0.22151 0.0
H4513 H 0.60277 0.95922 0.23846 0.0
H4514 H 0.57011 0.87931 0.26617 0.0
H4515 H 0.56263 0.89508 0.28221 0.0
H4516 H 0.57051 0.87572 0.23816 0.0
H4517 H 0.58267 0.88364 0.21934 0.0
C4518 C 0.08995 0.59181 0.23781 0.0
C4519 C 0.07221 0.58702 0.23111 0.0
C4520 C 0.0658 0.57516 0.26022 0.0
C4521 C 0.08058 0.58323 0.26922 0.0
N4522 N 0.10732 0.60144 0.26471 0.0
N4523 N 0.04138 0.58422 0.24071 0.0
C4524 C 0.09301 0.59241 0.25745 0.0
C4525 C 0.05935 0.58336 0.24444 0.0
N4526 N 0.10364 0.5954 0.22602 0.0
N4527 N 0.06377 0.55704 0.26144 0.0
H4528 H 0.03646 0.59047 0.229 0.0
H4529 H 0.03177 0.57973 0.2498 0.0
H4530 H 0.0731 0.54933 0.26871 0.0
H4531 H 0.05473 0.55006 0.25307 0.0
H4532 H 0.11694 0.5975 0.23028 0.0
H4533 H 0.10166 0.59555 0.21204 0.0
H4534 H 0.11603 0.60939 0.25694 0.0
H4535 H 0.10972 0.6014 0.27866 0.0
C4536 C 0.39492 0.91692 0.76046 0.0
C4537 C 0.40562 0.90726 0.77314 0.0
C4538 C 0.4259 0.89785 0.74843 0.0
C4539 C 0.41746 0.91051 0.73663 0.0
N4540 N 0.38968 0.92589 0.72914 0.0
N4541 N 0.42421 0.88118 0.77706 0.0
C4542 C 0.40042 0.91788 0.74186 0.0
C4543 C 0.41846 0.8949 0.76616 0.0
N4544 N 0.3807 0.9268 0.76689 0.0
N4545 N 0.44122 0.88913 0.74293 0.0
H4546 H 0.419 0.87968 0.79015 0.0
H4547 H 0.43295 0.87097 0.77279 0.0
H4548 H 0.44645 0.89071 0.7299 0.0
H4549 H 0.44889 0.88083 0.75137 0.0
H4550 H 0.37337 0.93606 0.75918 0.0
H4551 H 0.37681 0.92591 0.78048 0.0
H4552 H 0.37663 0.93054 0.73174 0.0
H4553 H 0.39328 0.9264 0.71549 0.0
C4554 C 0.05687 0.43353 0.75379 0.0
C4555 C 0.07021 0.42577 0.76515 0.0
C4556 C 0.08919 0.42333 0.73739 0.0
C4557 C 0.07719 0.43533 0.72801 0.0
N4558 N 0.05427 0.45865 0.73378 0.0
N4559 N 0.09979 0.41169 0.76652 0.0
C4560 C 0.06249 0.44265 0.73811 0.0
C4561 C 0.08667 0.42008 0.75661 0.0
N4562 N 0.03902 0.43331 0.75855 0.0
N4563 N 0.10317 0.41549 0.72822 0.0
H4564 H 0.09756 0.40684 0.77956 0.0
H4565 H 0.11287 0.40952 0.7617 0.0
H4566 H 0.10638 0.41895 0.71491 0.0
H4567 H 0.11116 0.4052 0.73366 0.0
H4568 H 0.02902 0.43954 0.75074 0.0
H4569 H 0.03431 0.42546 0.76934 0.0
H4570 H 0.04384 0.46397 0.74169 0.0
H4571 H 0.05959 0.46801 0.7247 0.0
C4572 C 0.57828 0.08858 0.74268 0.0
C4573 C 0.57588 0.07017 0.73711 0.0
C4574 C 0.59094 0.06115 0.76579 0.0
C4575 C 0.58984 0.07876 0.77309 0.0
N4576 N 0.58164 0.10987 0.76784 0.0
N4577 N 0.57293 0.03981 0.74956 0.0
C4578 C 0.58343 0.0927 0.7612 0.0
C4579 C 0.58035 0.05662 0.75029 0.0
N4580 N 0.5749 0.10222 0.73067 0.0
N4581 N 0.60188 0.04857 0.7736 0.0
H4582 H 0.56166 0.037 0.74161 0.0
H4583 H 0.57595 0.0298 0.75904 0.0
H4584 H 0.61077 0.05201 0.78404 0.0
H4585 H 0.60358 0.03564 0.76812 0.0
H4586 H 0.57832 0.11569 0.73315 0.0
H4587 H 0.56926 0.09996 0.71792 0.0
H4588 H 0.57495 0.12021 0.76094 0.0
H4589 H 0.58624 0.11348 0.78072 0.0
C4590 C 0.90628 0.57628 0.73845 0.0
C4591 C 0.91696 0.58907 0.7288 0.0
C4592 C 0.93442 0.59545 0.75666 0.0
C4593 C 0.92505 0.58155 0.76595 0.0
N4594 N 0.89811 0.56335 0.7678 0.0
N4595 N 0.93391 0.61679 0.73174 0.0
C4596 C 0.90969 0.57337 0.75746 0.0
C4597 C 0.92866 0.6006 0.73898 0.0
N4598 N 0.89269 0.56735 0.72969 0.0
N4599 N 0.94911 0.60352 0.76451 0.0
H4600 H 0.92913 0.62127 0.7192 0.0
H4601 H 0.94129 0.62645 0.73894 0.0
H4602 H 0.95335 0.6005 0.77765 0.0
H4603 H 0.95776 0.6122 0.75748 0.0
H4604 H 0.88552 0.55656 0.73523 0.0
H4605 H 0.88834 0.57105 0.71678 0.0
H4606 H 0.88609 0.55769 0.76309 0.0
H4607 H 0.89984 0.56211 0.78175 0.0
C4608 C 0.23212 0.40525 0.07309 0.0
C4609 C 0.22442 0.4138 0.08823 0.0
C4610 C 0.25558 0.42423 0.09657 0.0
C4611 C 0.262 0.4201 0.07887 0.0
N4612 N 0.25362 0.40855 0.04919 0.0
N4613 N 0.22963 0.42898 0.11656 0.0
C4614 C 0.24963 0.41078 0.06697 0.0
C4615 C 0.23656 0.42224 0.1008 0.0
N4616 N 0.22274 0.39197 0.06436 0.0
N4617 N 0.26759 0.43052 0.10916 0.0
H4618 H 0.21626 0.42654 0.12046 0.0
H4619 H 0.23681 0.4373 0.12541 0.0
H4620 H 0.28134 0.43218 0.10627 0.0
H4621 H 0.26435 0.43266 0.12271 0.0
H4622 H 0.22845 0.38417 0.05406 0.0
H4623 H 0.21031 0.38724 0.06914 0.0
H4624 H 0.24441 0.40352 0.03971 0.0
H4625 H 0.26511 0.41395 0.04363 0.0
C4626 C 0.23732 0.58628 0.91961 0.0
C4627 C 0.22858 0.57859 0.93511 0.0
C4628 C 0.25378 0.55763 0.9383 0.0
C4629 C 0.26424 0.56659 0.92481 0.0
N4630 N 0.26475 0.58926 0.90127 0.0
N4631 N 0.23507 0.56412 0.96395 0.0
C4632 C 0.25566 0.581 0.91508 0.0
C4633 C 0.23896 0.56672 0.94607 0.0
N4634 N 0.22831 0.59886 0.9095 0.0
N4635 N 0.25729 0.5402 0.94339 0.0
H4636 H 0.22613 0.5725 0.97099 0.0
H4637 H 0.24286 0.55563 0.97216 0.0
H4638 H 0.26568 0.53169 0.93585 0.0
H4639 H 0.24948 0.5335 0.9531 0.0
H4640 H 0.23263 0.60334 0.89685 0.0
H4641 H 0.21642 0.60499 0.91402 0.0
H4642 H 0.26053 0.60124 0.89516 0.0
H4643 H 0.27656 0.58386 0.89573 0.0
C4644 C 0.43552 0.24195 0.8991 0.0
C4645 C 0.42354 0.2344 0.91194 0.0
C4646 C 0.41379 0.26545 0.91967 0.0
C4647 C 0.42973 0.27242 0.91138 0.0
N4648 N 0.45504 0.26733 0.8915 0.0
N4649 N 0.39882 0.2389 0.93239 0.0
C4650 C 0.44023 0.2607 0.90031 0.0
C4651 C 0.41146 0.24624 0.92108 0.0
N4652 N 0.44214 0.23116 0.88573 0.0
N4653 N 0.40141 0.27712 0.92689 0.0
H4654 H 0.39673 0.2249 0.93301 0.0
H4655 H 0.39104 0.24642 0.94143 0.0
H4656 H 0.40296 0.29114 0.92621 0.0
H4657 H 0.38899 0.273 0.93215 0.0
H4658 H 0.45033 0.2359 0.87526 0.0
H4659 H 0.43742 0.2179 0.88421 0.0
H4660 H 0.46433 0.25909 0.8848 0.0
H4661 H 0.45824 0.28111 0.89158 0.0
C4662 C 0.76532 0.44012 0.94719 0.0
C4663 C 0.7761 0.42593 0.93993 0.0
C4664 C 0.74962 0.41822 0.92054 0.0
C4665 C 0.74089 0.43462 0.92591 0.0
N4666 N 0.74714 0.46501 0.93722 0.0
N4667 N 0.77784 0.40095 0.91892 0.0
C4668 C 0.75109 0.44696 0.93661 0.0
C4669 C 0.76809 0.41484 0.92619 0.0
N4670 N 0.76801 0.44696 0.96418 0.0
N4671 N 0.74053 0.40613 0.90994 0.0
H4672 H 0.79038 0.39701 0.92413 0.0
H4673 H 0.77364 0.39363 0.9076 0.0
H4674 H 0.72805 0.40918 0.90406 0.0
H4675 H 0.74526 0.39312 0.90724 0.0
H4676 H 0.75992 0.45729 0.96946 0.0
H4677 H 0.7756 0.44026 0.97401 0.0
H4678 H 0.75385 0.47395 0.94586 0.0
H4679 H 0.73932 0.47133 0.92728 0.0
C4680 C 0.5811 0.76908 0.89374 0.0
C4681 C 0.5939 0.77586 0.90627 0.0
C4682 C 0.59846 0.74455 0.91706 0.0
C4683 C 0.58149 0.73953 0.90932 0.0
N4684 N 0.55812 0.74613 0.88759 0.0
N4685 N 0.61856 0.76933 0.92602 0.0
C4686 C 0.57341 0.75143 0.89652 0.0
C4687 C 0.60432 0.76305 0.91604 0.0
N4688 N 0.57557 0.78015 0.88006 0.0
N4689 N 0.6087 0.73175 0.92559 0.0
H4690 H 0.62264 0.78287 0.92512 0.0
H4691 H 0.62577 0.76157 0.93532 0.0
H4692 H 0.60481 0.71819 0.92618 0.0
H4693 H 0.62163 0.73417 0.93067 0.0
H4694 H 0.56686 0.77606 0.86974 0.0
H4695 H 0.58093 0.7932 0.87871 0.0
H4696 H 0.55068 0.75465 0.87917 0.0
H4697 H 0.55266 0.73316 0.88909 0.0
C4698 C 0.73818 0.56495 0.09361 0.0
C4699 C 0.7263 0.57485 0.0822 0.0
C4700 C 0.75188 0.59381 0.07248 0.0
C4701 C 0.76394 0.58245 0.08214 0.0
N4702 N 0.76684 0.56587 0.10979 0.0
N4703 N 0.72085 0.60354 0.0676 0.0
C4704 C 0.75655 0.57071 0.09531 0.0
C4705 C 0.73281 0.59104 0.07404 0.0
N4706 N 0.73209 0.55001 0.10254 0.0
N4707 N 0.75882 0.60641 0.06088 0.0
H4708 H 0.7069 0.60204 0.06911 0.0
H4709 H 0.7248 0.61611 0.06254 0.0
H4710 H 0.77272 0.60903 0.06031 0.0
H4711 H 0.75099 0.61359 0.05159 0.0
H4712 H 0.74068 0.54141 0.10974 0.0
H4713 H 0.71855 0.54599 0.10203 0.0
H4714 H 0.7796 0.57166 0.11179 0.0
H4715 H 0.7619 0.5581 0.1205 0.0
C4716 C 0.41631 0.75464 0.05842 0.0
C4717 C 0.42255 0.74159 0.07135 0.0
C4718 C 0.41595 0.76493 0.09484 0.0
C4719 C 0.40876 0.77708 0.08154 0.0
N4720 N 0.39414 0.77816 0.05262 0.0
N4721 N 0.42597 0.7345 0.10309 0.0
C4722 C 0.40605 0.77 0.06406 0.0
C4723 C 0.42129 0.74669 0.08999 0.0
N4724 N 0.42197 0.75396 0.04098 0.0
N4725 N 0.41852 0.77124 0.11204 0.0
H4726 H 0.43178 0.72197 0.10016 0.0
H4727 H 0.42346 0.73657 0.11682 0.0
H4728 H 0.41382 0.78396 0.1161 0.0
H4729 H 0.42581 0.76429 0.12192 0.0
H4730 H 0.4169 0.7625 0.03096 0.0
H4731 H 0.43393 0.74735 0.03759 0.0
H4732 H 0.39099 0.7728 0.03992 0.0
H4733 H 0.38612 0.789 0.05689 0.0
C4734 C 0.57212 0.23349 0.09635 0.0
C4735 C 0.58458 0.22726 0.08315 0.0
C4736 C 0.59227 0.25888 0.07674 0.0
C4737 C 0.57594 0.26449 0.08515 0.0
N4738 N 0.55086 0.25724 0.10458 0.0
N4739 N 0.60843 0.23414 0.06225 0.0
C4740 C 0.56617 0.25187 0.09577 0.0
C4741 C 0.59553 0.24005 0.07406 0.0
N4742 N 0.56571 0.22166 0.10899 0.0
N4743 N 0.60453 0.27155 0.07131 0.0
H4744 H 0.61163 0.22042 0.06111 0.0
H4745 H 0.61538 0.24271 0.05344 0.0
H4746 H 0.60254 0.28534 0.07375 0.0
H4747 H 0.61727 0.26827 0.06621 0.0
H4748 H 0.55729 0.22553 0.11963 0.0
H4749 H 0.57026 0.20827 0.10948 0.0
H4750 H 0.54205 0.24822 0.11094 0.0
H4751 H 0.54672 0.27077 0.10481 0.0
C4752 C 0.89456 0.76255 0.58932 0.0
C4753 C 0.90712 0.77099 0.60133 0.0
C4754 C 0.91742 0.7398 0.60985 0.0
C4755 C 0.90811 0.73197 0.59483 0.0
N4756 N 0.88648 0.73611 0.571 0.0
N4757 N 0.93002 0.76708 0.62393 0.0
C4758 C 0.89592 0.74342 0.58512 0.0
C4759 C 0.918 0.7593 0.61222 0.0
N4760 N 0.88186 0.77324 0.58119 0.0
N4761 N 0.92651 0.72854 0.62134 0.0
H4762 H 0.93015 0.78105 0.6262 0.0
H4763 H 0.94009 0.75995 0.63074 0.0
H4764 H 0.92639 0.7145 0.6196 0.0
H4765 H 0.9327 0.73286 0.63325 0.0
H4766 H 0.87143 0.76828 0.5731 0.0
H4767 H 0.881 0.78709 0.58399 0.0
H4768 H 0.87899 0.74369 0.56177 0.0
H4769 H 0.88672 0.72222 0.56828 0.0
C4770 C 0.24388 0.88909 0.57666 0.0
C4771 C 0.2357 0.90092 0.58955 0.0
C4772 C 0.26548 0.9021 0.60528 0.0
C4773 C 0.27436 0.89604 0.5893 0.0
N4774 N 0.27195 0.87806 0.56261 0.0
N4775 N 0.23746 0.91333 0.61935 0.0
C4776 C 0.26338 0.8871 0.57624 0.0
C4777 C 0.24612 0.90542 0.6051 0.0
N4778 N 0.23305 0.88107 0.564 0.0
N4779 N 0.27595 0.90605 0.61997 0.0
H4780 H 0.22345 0.91531 0.61919 0.0
H4781 H 0.24392 0.9179 0.63101 0.0
H4782 H 0.28994 0.9039 0.6197 0.0
H4783 H 0.27091 0.9105 0.63234 0.0
H4784 H 0.23765 0.87217 0.55411 0.0
H4785 H 0.219 0.88271 0.56419 0.0
H4786 H 0.26545 0.87214 0.55161 0.0
H4787 H 0.28605 0.87672 0.56256 0.0
C4788 C 0.08801 0.24071 0.61378 0.0
C4789 C 0.10237 0.23246 0.60399 0.0
C4790 C 0.11042 0.26293 0.59167 0.0
C4791 C 0.0948 0.27073 0.59974 0.0
N4792 N 0.07196 0.26828 0.62273 0.0
N4793 N 0.1306 0.23678 0.58879 0.0
C4794 C 0.08486 0.25998 0.61241 0.0
C4795 C 0.11488 0.24417 0.59505 0.0
N4796 N 0.07651 0.22974 0.62319 0.0
N4797 N 0.12027 0.2731 0.5798 0.0
H4798 H 0.13359 0.2231 0.59092 0.0
H4799 H 0.14105 0.24429 0.58303 0.0
H4800 H 0.11751 0.28681 0.57763 0.0
H4801 H 0.13061 0.26792 0.57174 0.0
H4802 H 0.06446 0.23409 0.62905 0.0
H4803 H 0.07905 0.21588 0.6246 0.0
H4804 H 0.06481 0.26185 0.63304 0.0
H4805 H 0.06952 0.28219 0.62185 0.0
C4806 C 0.76662 0.11257 0.59104 0.0
C4807 C 0.77928 0.09978 0.59805 0.0
C4808 C 0.75322 0.08399 0.61245 0.0
C4809 C 0.7406 0.0941 0.60183 0.0
N4810 N 0.7355 0.11899 0.58164 0.0
N4811 N 0.78458 0.07435 0.61732 0.0
C4812 C 0.74737 0.10904 0.59172 0.0
C4813 C 0.77249 0.08614 0.60982 0.0
N4814 N 0.77332 0.12766 0.58273 0.0
N4815 N 0.74657 0.07186 0.62473 0.0
H4816 H 0.79854 0.07618 0.61588 0.0
H4817 H 0.78092 0.06269 0.62436 0.0
H4818 H 0.75459 0.0647 0.63384 0.0
H4819 H 0.73266 0.0702 0.62675 0.0
H4820 H 0.76529 0.13829 0.57814 0.0
H4821 H 0.78726 0.13 0.58193 0.0
H4822 H 0.73944 0.1287 0.5722 0.0
H4823 H 0.72152 0.11694 0.58236 0.0
C4824 C 0.91243 0.23902 0.39337 0.0
C4825 C 0.89984 0.22823 0.40313 0.0
C4826 C 0.88613 0.25665 0.41498 0.0
C4827 C 0.90144 0.2667 0.40908 0.0
N4828 N 0.92406 0.26921 0.38584 0.0
N4829 N 0.87008 0.22746 0.41563 0.0
C4830 C 0.91247 0.25851 0.39547 0.0
C4831 C 0.88485 0.23748 0.41091 0.0
N4832 N 0.92539 0.23032 0.38352 0.0
N4833 N 0.8732 0.26538 0.42482 0.0
H4834 H 0.86961 0.21355 0.41301 0.0
H4835 H 0.85826 0.23288 0.42104 0.0
H4836 H 0.87396 0.27932 0.4272 0.0
H4837 H 0.86215 0.25897 0.43077 0.0
H4838 H 0.93636 0.23676 0.37744 0.0
H4839 H 0.92516 0.21624 0.38201 0.0
H4840 H 0.9321 0.26449 0.37528 0.0
H4841 H 0.92446 0.28323 0.38767 0.0
C4842 C 0.74333 0.90852 0.38783 0.0
C4843 C 0.7328 0.89734 0.39955 0.0
C4844 C 0.76107 0.88151 0.4081 0.0
C4845 C 0.77187 0.89518 0.39976 0.0
N4846 N 0.77317 0.92055 0.37972 0.0
N4847 N 0.73183 0.87116 0.41878 0.0
C4848 C 0.76287 0.90796 0.3885 0.0
C4849 C 0.74173 0.88298 0.40864 0.0
N4850 N 0.73443 0.9202 0.3766 0.0
N4851 N 0.76913 0.8677 0.41724 0.0
H4852 H 0.71771 0.87185 0.41936 0.0
H4853 H 0.73778 0.86068 0.42619 0.0
H4854 H 0.78317 0.86591 0.41762 0.0
H4855 H 0.78317 0.86591 0.41762 0.0
H4856 H 0.74078 0.92824 0.36693 0.0
H4857 H 0.72029 0.92069 0.37613 0.0
H4858 H 0.76794 0.93167 0.37281 0.0
H4859 H 0.78731 0.91987 0.37983 0.0
C4860 C 0.11143 0.76088 0.40288 0.0
C4861 C 0.09719 0.77042 0.3941 0.0
C4862 C 0.0847 0.74041 0.386 0.0
C4863 C 0.09377 0.7325 0.40109 0.0
N4864 N 0.12073 0.7333 0.41898 0.0
N4865 N 0.07359 0.76843 0.37213 0.0
C4866 C 0.10887 0.74216 0.40797 0.0
C4867 C 0.08513 0.75978 0.38363 0.0
N4868 N 0.12704 0.77001 0.4065 0.0
N4869 N 0.07597 0.72943 0.37399 0.0
H4870 H 0.07411 0.78249 0.37049 0.0
H4871 H 0.06374 0.76183 0.36448 0.0
H4872 H 0.07591 0.71537 0.3756 0.0
H4873 H 0.07003 0.73411 0.36208 0.0
H4874 H 0.13848 0.76406 0.4122 0.0
H4875 H 0.12846 0.78362 0.40282 0.0
H4876 H 0.13246 0.73911 0.42417 0.0
H4877 H 0.1189 0.71968 0.42237 0.0
C4878 C 0.24066 0.08515 0.39018 0.0
C4879 C 0.22885 0.09681 0.40003 0.0
C4880 C 0.25611 0.11413 0.41006 0.0
C4881 C 0.26795 0.10103 0.40229 0.0
N4882 N 0.27135 0.07762 0.3801 0.0
N4883 N 0.22529 0.12605 0.41345 0.0
C4884 C 0.26005 0.08799 0.39041 0.0
C4885 C 0.23667 0.11279 0.40752 0.0
N4886 N 0.23325 0.07045 0.38177 0.0
N4887 N 0.26343 0.12712 0.42097 0.0
H4888 H 0.22969 0.13856 0.41825 0.0
H4889 H 0.21126 0.12482 0.41203 0.0
H4890 H 0.27744 0.12848 0.42248 0.0
H4891 H 0.25578 0.13595 0.42886 0.0
H4892 H 0.24076 0.05993 0.37616 0.0
H4893 H 0.21922 0.06873 0.38097 0.0
H4894 H 0.2669 0.06847 0.37034 0.0
H4895 H 0.28538 0.07946 0.38038 0.0
C4896 C 0.61237 0.90594 0.74322 0.0
C4897 C 0.60048 0.89355 0.73446 0.0
C4898 C 0.5877 0.88631 0.7647 0.0
C4899 C 0.59584 0.90211 0.7722 0.0
N4900 N 0.61759 0.92597 0.76906 0.0
N4901 N 0.57824 0.87023 0.73732 0.0
C4902 C 0.6091 0.91129 0.7617 0.0
C4903 C 0.58905 0.88276 0.74555 0.0
N4904 N 0.62593 0.91351 0.73324 0.0
N4905 N 0.57784 0.87532 0.77581 0.0
H4906 H 0.57948 0.8674 0.7235 0.0
H4907 H 0.56789 0.86324 0.74386 0.0
H4908 H 0.5766 0.87797 0.78965 0.0
H4909 H 0.57228 0.86301 0.77172 0.0
H4910 H 0.63583 0.922 0.73863 0.0
H4911 H 0.62795 0.9099 0.7197 0.0
H4912 H 0.62589 0.93473 0.76176 0.0
H4913 H 0.61574 0.9296 0.78262 0.0
C4914 C 0.11554 0.584 0.73829 0.0
C4915 C 0.10681 0.5965 0.72665 0.0
C4916 C 0.0988 0.61481 0.7536 0.0
C4917 C 0.10403 0.60026 0.76504 0.0
N4918 N 0.12222 0.57306 0.76787 0.0
N4919 N 0.09765 0.6273 0.72282 0.0
C4920 C 0.11445 0.58601 0.75731 0.0
C4921 C 0.10139 0.61332 0.73428 0.0
N4922 N 0.12367 0.56897 0.73145 0.0
N4923 N 0.09045 0.62942 0.76118 0.0
H4924 H 0.0993 0.62588 0.70883 0.0
H4925 H 0.09416 0.64027 0.72711 0.0
H4926 H 0.08886 0.63053 0.77521 0.0
H4927 H 0.08507 0.64014 0.75378 0.0
H4928 H 0.12466 0.56649 0.71755 0.0
H4929 H 0.12466 0.56649 0.71755 0.0
H4930 H 0.12197 0.57343 0.78201 0.0
H4931 H 0.12197 0.57343 0.78201 0.0
C4932 C 0.39069 0.08344 0.74212 0.0
C4933 C 0.40181 0.09591 0.73245 0.0
C4934 C 0.41115 0.10839 0.76235 0.0
C4935 C 0.40454 0.0927 0.77142 0.0
N4936 N 0.38537 0.0666 0.77015 0.0
N4937 N 0.42124 0.12179 0.73375 0.0
C4938 C 0.39305 0.08093 0.76136 0.0
C4939 C 0.4112 0.10919 0.74278 0.0
N4940 N 0.3787 0.07318 0.73248 0.0
N4941 N 0.41815 0.12212 0.77254 0.0
H4942 H 0.42097 0.12265 0.71963 0.0
H4943 H 0.43003 0.13081 0.74011 0.0
H4944 H 0.41834 0.12143 0.78667 0.0
H4945 H 0.42231 0.13448 0.76715 0.0
H4946 H 0.36938 0.06438 0.73836 0.0
H4947 H 0.37725 0.07477 0.71848 0.0
H4948 H 0.37859 0.05607 0.76365 0.0
H4949 H 0.38633 0.0652 0.7842 0.0
C4950 C 0.89408 0.411 0.7455 0.0
C4951 C 0.90852 0.40237 0.73615 0.0
C4952 C 0.91713 0.38702 0.76484 0.0
C4953 C 0.90426 0.39745 0.7746 0.0
N4954 N 0.87683 0.41453 0.7736 0.0
N4955 N 0.93027 0.37826 0.73574 0.0
C4956 C 0.89126 0.40747 0.76451 0.0
C4957 C 0.91869 0.38888 0.74548 0.0
N4958 N 0.88392 0.42355 0.7365 0.0
N4959 N 0.92893 0.37657 0.77449 0.0
H4960 H 0.93745 0.36741 0.74116 0.0
H4961 H 0.93151 0.37953 0.7217 0.0
H4962 H 0.92751 0.37489 0.78848 0.0
H4963 H 0.94016 0.3701 0.76895 0.0
H4964 H 0.87447 0.43195 0.74273 0.0
H4965 H 0.88547 0.42587 0.72263 0.0
H4966 H 0.86611 0.42123 0.76736 0.0
H4967 H 0.87508 0.41222 0.78747 0.0
C4968 C 0.58537 0.10975 0.24261 0.0
C4969 C 0.59371 0.09476 0.2337 0.0
C4970 C 0.61086 0.08912 0.26217 0.0
C4971 C 0.59932 0.10098 0.27207 0.0
N4972 N 0.57633 0.12371 0.27127 0.0
N4973 N 0.61539 0.07064 0.23507 0.0
C4974 C 0.58722 0.11205 0.26196 0.0
C4975 C 0.60708 0.08487 0.24345 0.0
N4976 N 0.575 0.12133 0.23261 0.0
N4977 N 0.62481 0.08107 0.27122 0.0
H4978 H 0.61334 0.06779 0.22136 0.0
H4979 H 0.62367 0.06138 0.24174 0.0
H4980 H 0.63459 0.07305 0.265 0.0
H4981 H 0.62728 0.08388 0.28488 0.0
H4982 H 0.56942 0.13322 0.23773 0.0
H4983 H 0.57332 0.11973 0.21865 0.0
H4984 H 0.5655 0.13067 0.26551 0.0
H4985 H 0.57796 0.12581 0.28518 0.0
C4986 C 0.88051 0.58792 0.24094 0.0
C4987 C 0.89386 0.59897 0.2325 0.0
C4988 C 0.90171 0.60975 0.26351 0.0
C4989 C 0.89386 0.59392 0.27132 0.0
N4990 N 0.87198 0.57032 0.26779 0.0
N4991 N 0.91436 0.62373 0.23614 0.0
C4992 C 0.88161 0.58411 0.26017 0.0
C4993 C 0.90316 0.61133 0.24399 0.0
N4994 N 0.86789 0.5798 0.23019 0.0
N4995 N 0.90928 0.62228 0.27477 0.0
H4996 H 0.91513 0.62499 0.22206 0.0
H4997 H 0.92311 0.6321 0.24338 0.0
H4998 H 0.9087 0.6208 0.28884 0.0
H4999 H 0.91468 0.63452 0.27031 0.0
H5000 H 0.85718 0.57209 0.23517 0.0
H5001 H 0.86759 0.58214 0.21623 0.0
H5002 H 0.86412 0.56122 0.26041 0.0
H5003 H 0.87248 0.56783 0.28172 0.0
C5004 C 0.39282 0.92159 0.23521 0.0
C5005 C 0.40307 0.90949 0.2244 0.0
C5006 C 0.40922 0.8909 0.25148 0.0
C5007 C 0.40156 0.90454 0.26259 0.0
N5008 N 0.38038 0.92899 0.26494 0.0
N5009 N 0.41411 0.87923 0.22088 0.0
C5010 C 0.39104 0.91832 0.25426 0.0
C5011 C 0.40851 0.89275 0.23213 0.0
N5012 N 0.38621 0.93697 0.22739 0.0
N5013 N 0.41834 0.877 0.25951 0.0
H5014 H 0.41391 0.88084 0.20682 0.0
H5015 H 0.41751 0.86628 0.22534 0.0
H5016 H 0.41855 0.87547 0.27358 0.0
H5017 H 0.42594 0.86748 0.2524 0.0
H5018 H 0.38037 0.9476 0.23459 0.0
H5019 H 0.38714 0.93912 0.21343 0.0
H5020 H 0.37936 0.92676 0.27888 0.0
H5021 H 0.37162 0.93884 0.25993 0.0
C5022 C 0.0785 0.39302 0.25848 0.0
C5023 C 0.08827 0.40476 0.27043 0.0
C5024 C 0.11043 0.40971 0.24586 0.0
C5025 C 0.09888 0.40121 0.23295 0.0
N5026 N 0.0739 0.38147 0.2276 0.0
N5027 N 0.1158 0.42208 0.27522 0.0
C5028 C 0.0838 0.39136 0.23969 0.0
C5029 C 0.10501 0.41197 0.26422 0.0
N5030 N 0.06393 0.38378 0.26518 0.0
N5031 N 0.12624 0.41746 0.24046 0.0
H5032 H 0.11286 0.42465 0.28882 0.0
H5033 H 0.11286 0.42465 0.28882 0.0
H5034 H 0.131 0.41661 0.22715 0.0
H5035 H 0.131 0.41661 0.22715 0.0
H5036 H 0.05604 0.37481 0.25773 0.0
H5037 H 0.06024 0.38448 0.27882 0.0
H5038 H 0.06201 0.37457 0.23066 0.0
H5039 H 0.07801 0.38018 0.21411 0.0
C5040 C 0.73692 0.58771 0.88673 0.0
C5041 C 0.72913 0.60264 0.89601 0.0
C5042 C 0.75991 0.61126 0.90677 0.0
C5043 C 0.76726 0.59499 0.89953 0.0
N5044 N 0.76398 0.57053 0.87837 0.0
N5045 N 0.73387 0.63162 0.90954 0.0
C5046 C 0.75611 0.58429 0.88791 0.0
C5047 C 0.74107 0.61557 0.90388 0.0
N5048 N 0.72554 0.576 0.87806 0.0
N5049 N 0.77061 0.62189 0.91747 0.0
H5050 H 0.72012 0.63448 0.90772 0.0
H5051 H 0.74152 0.64237 0.91451 0.0
H5052 H 0.78438 0.61925 0.91931 0.0
H5053 H 0.76584 0.63287 0.92492 0.0
H5054 H 0.72952 0.56367 0.87251 0.0
H5055 H 0.7117 0.57874 0.87685 0.0
H5056 H 0.75721 0.56264 0.86885 0.0
H5057 H 0.77788 0.56798 0.87906 0.0
C5058 C 0.75897 0.40546 0.11901 0.0
C5059 C 0.76874 0.39733 0.10454 0.0
C5060 C 0.73938 0.38476 0.09402 0.0
C5061 C 0.72974 0.39796 0.10425 0.0
N5062 N 0.73037 0.41889 0.12895 0.0
N5063 N 0.76813 0.37638 0.07985 0.0
C5064 C 0.73955 0.40738 0.11784 0.0
C5065 C 0.75888 0.38557 0.09293 0.0
N5066 N 0.76843 0.41172 0.13356 0.0
N5067 N 0.72969 0.37247 0.0842 0.0
H5068 H 0.78227 0.37666 0.07926 0.0
H5069 H 0.76189 0.36915 0.06946 0.0
H5070 H 0.71554 0.37225 0.08462 0.0
H5071 H 0.73557 0.36185 0.07703 0.0
H5072 H 0.76231 0.41687 0.14518 0.0
H5073 H 0.78252 0.41041 0.1342 0.0
H5074 H 0.73665 0.42732 0.13836 0.0
H5075 H 0.71627 0.42003 0.12832 0.0
C5076 C 0.60956 0.74155 0.0823 0.0
C5077 C 0.59828 0.73217 0.09483 0.0
C5078 C 0.58948 0.76223 0.10721 0.0
C5079 C 0.59622 0.77107 0.09146 0.0
N5080 N 0.61554 0.76952 0.06554 0.0
N5081 N 0.57906 0.73386 0.12082 0.0
C5082 C 0.60759 0.76084 0.07978 0.0
C5083 C 0.58914 0.74268 0.10811 0.0
N5084 N 0.62129 0.73166 0.07202 0.0
N5085 N 0.58258 0.7726 0.12083 0.0
H5086 H 0.57911 0.71974 0.12177 0.0
H5087 H 0.57042 0.74037 0.12986 0.0
H5088 H 0.58258 0.78673 0.12004 0.0
H5089 H 0.5783 0.76738 0.13321 0.0
H5090 H 0.63065 0.73733 0.06313 0.0
H5091 H 0.62251 0.71765 0.07366 0.0
H5092 H 0.62231 0.76295 0.05507 0.0
H5093 H 0.61491 0.7836 0.06424 0.0
C5094 C 0.25448 0.59904 0.10532 0.0
C5095 C 0.26453 0.60472 0.0899 0.0
C5096 C 0.23573 0.61465 0.07563 0.0
C5097 C 0.22556 0.60606 0.08955 0.0
N5098 N 0.22505 0.59685 0.12057 0.0
N5099 N 0.26525 0.62333 0.06333 0.0
C5100 C 0.23499 0.60098 0.10557 0.0
C5101 C 0.25523 0.61462 0.0762 0.0
N5102 N 0.26352 0.59078 0.11915 0.0
N5103 N 0.22651 0.62158 0.06118 0.0
H5104 H 0.27939 0.62334 0.06368 0.0
H5105 H 0.25978 0.63155 0.05327 0.0
H5106 H 0.21236 0.62216 0.06112 0.0
H5107 H 0.23258 0.62636 0.0494 0.0
H5108 H 0.25718 0.58463 0.13013 0.0
H5109 H 0.27764 0.58976 0.11919 0.0
H5110 H 0.23069 0.59374 0.13312 0.0
H5111 H 0.21095 0.59796 0.12054 0.0
C5112 C 0.39116 0.24174 0.0844 0.0
C5113 C 0.40699 0.23531 0.09326 0.0
C5114 C 0.41329 0.26719 0.1032 0.0
C5115 C 0.39898 0.2738 0.09214 0.0
N5116 N 0.37072 0.26697 0.07781 0.0
N5117 N 0.43105 0.24133 0.11425 0.0
C5118 C 0.38664 0.26078 0.08486 0.0
C5119 C 0.41718 0.24793 0.10392 0.0
N5120 N 0.38117 0.22983 0.07436 0.0
N5121 N 0.42332 0.27949 0.11267 0.0
H5122 H 0.43363 0.22745 0.11526 0.0
H5123 H 0.43961 0.24919 0.1222 0.0
H5124 H 0.42004 0.29323 0.11272 0.0
H5125 H 0.43434 0.2763 0.12082 0.0
H5126 H 0.37077 0.23367 0.06565 0.0
H5127 H 0.38385 0.21595 0.07433 0.0
H5128 H 0.36742 0.28074 0.07806 0.0
H5129 H 0.36031 0.25859 0.07329 0.0
C5130 C 0.24815 0.39551 0.90433 0.0
C5131 C 0.23924 0.41205 0.89998 0.0
C5132 C 0.26783 0.42253 0.88533 0.0
C5133 C 0.27745 0.40754 0.89263 0.0
N5134 N 0.2753 0.37658 0.90144 0.0
N5135 N 0.23926 0.43898 0.88169 0.0
C5136 C 0.2669 0.39286 0.89928 0.0
C5137 C 0.24867 0.42469 0.88873 0.0
N5138 N 0.23901 0.3828 0.91414 0.0
N5139 N 0.27766 0.43546 0.87651 0.0
H5140 H 0.24472 0.44854 0.87291 0.0
H5141 H 0.22536 0.44058 0.8838 0.0
H5142 H 0.29149 0.43365 0.87405 0.0
H5143 H 0.27249 0.44771 0.87186 0.0
H5144 H 0.24496 0.37108 0.91923 0.0
H5145 H 0.22539 0.38436 0.91758 0.0
H5146 H 0.26865 0.36474 0.90522 0.0
H5147 H 0.28898 0.37502 0.89813 0.0
C5148 C 0.62297 0.2596 0.91978 0.0
C5149 C 0.61289 0.26865 0.90606 0.0
C5150 C 0.60726 0.23854 0.89222 0.0
C5151 C 0.61245 0.2297 0.90851 0.0
N5152 N 0.62763 0.23177 0.93708 0.0
N5153 N 0.5966 0.26649 0.87809 0.0
C5154 C 0.62158 0.24024 0.92181 0.0
C5155 C 0.60582 0.258 0.89166 0.0
N5156 N 0.633 0.26978 0.93151 0.0
N5157 N 0.60312 0.22816 0.87753 0.0
H5158 H 0.59591 0.28061 0.87734 0.0
H5159 H 0.58929 0.25961 0.86817 0.0
H5160 H 0.604 0.21404 0.87807 0.0
H5161 H 0.60025 0.23351 0.86479 0.0
H5162 H 0.64156 0.2643 0.94128 0.0
H5163 H 0.63382 0.28386 0.93022 0.0
H5164 H 0.63245 0.23857 0.94847 0.0
H5165 H 0.62717 0.21768 0.93839 0.0
C5166 C 0.3897 0.76432 0.91091 0.0
C5167 C 0.40338 0.77442 0.90192 0.0
C5168 C 0.40926 0.74734 0.8827 0.0
C5169 C 0.39766 0.73659 0.89371 0.0
N5170 N 0.37341 0.73677 0.91567 0.0
N5171 N 0.42198 0.77714 0.87549 0.0
C5172 C 0.38635 0.74589 0.90627 0.0
C5173 C 0.41148 0.76646 0.88631 0.0
N5174 N 0.38017 0.77167 0.92484 0.0
N5175 N 0.41945 0.73872 0.86992 0.0
H5176 H 0.42376 0.79093 0.87815 0.0
H5177 H 0.4277 0.77283 0.86335 0.0
H5178 H 0.41759 0.72496 0.86713 0.0
H5179 H 0.4298 0.74486 0.86258 0.0
H5180 H 0.38187 0.78506 0.92912 0.0
H5181 H 0.38187 0.78506 0.92912 0.0
H5182 H 0.37041 0.72313 0.91331 0.0
H5183 H 0.37041 0.72313 0.91331 0.0
C5184 C 0.99897 0.15927 0.4248 0.0
C5185 C 0.0093 0.17343 0.41653 0.0
C5186 C 0.97927 0.18758 0.40895 0.0
C5187 C 0.96964 0.17631 0.42143 0.0
N5188 N 0.97137 0.14996 0.44057 0.0
N5189 N 0.00797 0.20182 0.40071 0.0
C5190 C 0.97979 0.16156 0.42892 0.0
C5191 C 0.99895 0.18764 0.40839 0.0
N5192 N 0.00758 0.14338 0.42853 0.0
N5193 N 0.96956 0.19829 0.39745 0.0
H5194 H 0.02206 0.20189 0.3994 0.0
H5195 H 0.00153 0.21368 0.39657 0.0
H5196 H 0.95542 0.19817 0.39733 0.0
H5197 H 0.97551 0.20585 0.38712 0.0
H5198 H 0.0009 0.13181 0.43311 0.0
H5199 H 0.02128 0.14154 0.42547 0.0
H5200 H 0.97832 0.14036 0.44824 0.0
H5201 H 0.95752 0.1506 0.44322 0.0
C5202 C 0.80012 0.9997 0.40756 0.0
C5203 C 0.81592 0.00965 0.41297 0.0
C5204 C 0.82921 0.97896 0.42153 0.0
C5205 C 0.81214 0.9696 0.41922 0.0
N5206 N 0.78214 0.9719 0.40661 0.0
N5207 N 0.8467 0.00715 0.42355 0.0
C5208 C 0.7979 0.98037 0.41134 0.0
C5209 C 0.83082 0.9987 0.41925 0.0
N5210 N 0.78759 0.00864 0.39728 0.0
N5211 N 0.84435 0.96901 0.42525 0.0
H5212 H 0.84942 0.02054 0.42015 0.0
H5213 H 0.85694 0.00122 0.43122 0.0
H5214 H 0.8443 0.95506 0.4268 0.0
H5215 H 0.85744 0.9742 0.42498 0.0
H5216 H 0.77627 0.00264 0.39141 0.0
H5217 H 0.78975 0.02185 0.39278 0.0
H5218 H 0.77006 0.97868 0.40402 0.0
H5219 H 0.78106 0.95786 0.4055 0.0
C5220 C 0.9992 0.83975 0.41655 0.0
C5221 C 0.98741 0.82616 0.40979 0.0
C5222 C 0.01492 0.8099 0.39937 0.0
C5223 C 0.02588 0.82014 0.41142 0.0
N5224 N 0.02869 0.84862 0.42741 0.0
N5225 N 0.98448 0.79967 0.39132 0.0
C5226 C 0.01813 0.83629 0.41862 0.0
C5227 C 0.99547 0.81177 0.39987 0.0
N5228 N 0.99249 0.85617 0.42146 0.0
N5229 N 0.02317 0.79963 0.38647 0.0
H5230 H 0.97045 0.80142 0.39105 0.0
H5231 H 0.98927 0.78803 0.38494 0.0
H5232 H 0.03724 0.79831 0.38583 0.0
H5233 H 0.01612 0.79387 0.37566 0.0
H5234 H 0.97882 0.85956 0.42002 0.0
H5235 H 0.97882 0.85956 0.42002 0.0
H5236 H 0.02335 0.86031 0.43332 0.0
H5237 H 0.04269 0.84729 0.42839 0.0
C5238 C 0.19661 0.995 0.39993 0.0
C5239 C 0.18147 0.98399 0.40504 0.0
C5240 C 0.16642 0.01246 0.41609 0.0
C5241 C 0.18187 0.0233 0.41166 0.0
N5242 N 0.20964 0.02501 0.39476 0.0
N5243 N 0.14967 0.98413 0.41245 0.0
C5244 C 0.19628 0.01451 0.40213 0.0
C5245 C 0.1656 0.99341 0.41109 0.0
N5246 N 0.21168 0.9866 0.39324 0.0
N5247 N 0.15294 0.01992 0.42631 0.0
H5248 H 0.14839 0.97062 0.40865 0.0
H5249 H 0.13732 0.99034 0.41525 0.0
H5250 H 0.15286 0.0335 0.43016 0.0
H5251 H 0.14254 0.01237 0.43214 0.0
H5252 H 0.22419 0.99294 0.39176 0.0
H5253 H 0.2117 0.97291 0.38967 0.0
H5254 H 0.21976 0.02005 0.3863 0.0
H5255 H 0.20957 0.03911 0.39567 0.0
C5256 C 0.99154 0.83663 0.586 0.0
C5257 C 0.98244 0.82095 0.59275 0.0
C5258 C 0.01303 0.80674 0.597 0.0
C5259 C 0.0219 0.8212 0.58764 0.0
N5260 N 0.01872 0.84986 0.57245 0.0
N5261 N 0.98565 0.79416 0.61079 0.0
C5262 C 0.01089 0.83627 0.58224 0.0
C5263 C 0.99365 0.80696 0.60007 0.0
N5264 N 0.98192 0.85227 0.58416 0.0
N5265 N 0.02321 0.79224 0.60236 0.0
H5266 H 0.97187 0.7946 0.61397 0.0
H5267 H 0.99265 0.78423 0.61791 0.0
H5268 H 0.0373 0.79231 0.60162 0.0
H5269 H 0.01785 0.78003 0.60692 0.0
H5270 H 0.98769 0.86462 0.58055 0.0
H5271 H 0.9686 0.8533 0.5887 0.0
H5272 H 0.01136 0.85997 0.56593 0.0
H5273 H 0.03262 0.85039 0.56998 0.0
C5274 C 0.19195 0.00482 0.60196 0.0
C5275 C 0.17987 0.01609 0.59191 0.0
C5276 C 0.1686 0.98787 0.57664 0.0
C5277 C 0.18182 0.977 0.58568 0.0
N5278 N 0.19866 0.97448 0.61327 0.0
N5279 N 0.15268 0.01685 0.57392 0.0
C5280 C 0.19119 0.98531 0.60033 0.0
C5281 C 0.16664 0.007 0.58096 0.0
N5282 N 0.20472 0.01275 0.6127 0.0
N5283 N 0.1583 0.98007 0.56342 0.0
H5284 H 0.15108 0.03062 0.57661 0.0
H5285 H 0.14186 0.01116 0.56689 0.0
H5286 H 0.15847 0.96614 0.56098 0.0
H5287 H 0.15016 0.98735 0.5545 0.0
H5288 H 0.21525 0.00549 0.6187 0.0
H5289 H 0.2051 0.02674 0.61484 0.0
H5290 H 0.20429 0.97953 0.6252 0.0
H5291 H 0.1979 0.96037 0.61244 0.0
C5292 C 0.02046 0.17177 0.58286 0.0
C5293 C 0.03091 0.18703 0.58895 0.0
C5294 C 0.00103 0.20134 0.59778 0.0
C5295 C 0.99049 0.18716 0.58955 0.0
N5296 N 0.99155 0.15935 0.57248 0.0
N5297 N 0.03021 0.21305 0.60837 0.0
C5298 C 0.00067 0.17242 0.58188 0.0
C5299 C 0.02079 0.20089 0.59806 0.0
N5300 N 0.02928 0.15601 0.57903 0.0
N5301 N 0.99202 0.2158 0.605 0.0
H5302 H 0.04426 0.21252 0.60973 0.0
H5303 H 0.02422 0.22249 0.61695 0.0
H5304 H 0.97801 0.21585 0.6069 0.0
H5305 H 0.99823 0.228 0.60844 0.0
H5306 H 0.0227 0.14391 0.57597 0.0
H5307 H 0.043 0.1543 0.58161 0.0
H5308 H 0.99792 0.14994 0.56413 0.0
H5309 H 0.97747 0.15868 0.57195 0.0
C5310 C 0.80424 0.01843 0.58791 0.0
C5311 C 0.81787 0.02775 0.57762 0.0
C5312 C 0.83528 0.99798 0.57857 0.0
C5313 C 0.82018 0.98805 0.58572 0.0
N5314 N 0.79006 0.99025 0.59794 0.0
N5315 N 0.84731 0.02495 0.56363 0.0
C5316 C 0.80472 0.99885 0.59062 0.0
C5317 C 0.83373 0.01712 0.57336 0.0
N5318 N 0.7911 0.0285 0.5962 0.0
N5319 N 0.85148 0.98922 0.57698 0.0
H5320 H 0.84804 0.03877 0.56129 0.0
H5321 H 0.85756 0.01762 0.5573 0.0
H5322 H 0.85318 0.97575 0.58078 0.0
H5323 H 0.86358 0.99569 0.57375 0.0
H5324 H 0.78176 0.0232 0.60533 0.0
H5325 H 0.79079 0.04261 0.59561 0.0
H5326 H 0.7773 0.99617 0.59903 0.0
H5327 H 0.79058 0.97682 0.60233 0.0
C5328 C 0.40533 0.00984 0.19692 0.0
C5329 C 0.40951 0.01998 0.18104 0.0
C5330 C 0.42144 0.99136 0.16751 0.0
C5331 C 0.41989 0.98198 0.18449 0.0
N5332 N 0.40924 0.98273 0.21535 0.0
N5333 N 0.41328 0.01735 0.14875 0.0
C5334 C 0.41137 0.99136 0.19912 0.0
C5335 C 0.41487 0.00975 0.16552 0.0
N5336 N 0.39391 0.01752 0.20919 0.0
N5337 N 0.43084 0.98344 0.15367 0.0
H5338 H 0.40718 0.02989 0.14669 0.0
H5339 H 0.41549 0.01026 0.13676 0.0
H5340 H 0.43654 0.97056 0.15455 0.0
H5341 H 0.43458 0.99027 0.14191 0.0
H5342 H 0.38885 0.01089 0.22056 0.0
H5343 H 0.38755 0.0298 0.20632 0.0
H5344 H 0.40566 0.98937 0.22727 0.0
H5345 H 0.41175 0.96894 0.2171 0.0
C5346 C 0.01939 0.40657 0.19776 0.0
C5347 C 0.03072 0.41459 0.18411 0.0
C5348 C 0.00229 0.41845 0.16552 0.0
C5349 C 0.99081 0.4123 0.17989 0.0
N5350 N 0.98915 0.40048 0.21003 0.0
N5351 N 0.03239 0.4211 0.1521 0.0
C5352 C 0.99975 0.40597 0.1959 0.0
C5353 C 0.02199 0.41837 0.16712 0.0
N5354 N 0.02758 0.39848 0.21226 0.0
N5355 N 0.99417 0.42557 0.1505 0.0
H5356 H 0.04635 0.41942 0.15212 0.0
H5357 H 0.02712 0.42253 0.1391 0.0
H5358 H 0.98018 0.42488 0.14851 0.0
H5359 H 0.00106 0.43292 0.14062 0.0
H5360 H 0.02075 0.39101 0.22206 0.0
H5361 H 0.04162 0.39751 0.21346 0.0
H5362 H 0.9939 0.39835 0.22314 0.0
H5363 H 0.97517 0.39878 0.20867 0.0
C5364 C 0.58173 0.99479 0.16825 0.0
C5365 C 0.5937 0.98508 0.1798 0.0
C5366 C 0.594 0.01201 0.20042 0.0
C5367 C 0.58094 0.02127 0.18952 0.0
N5368 N 0.56757 0.02316 0.15951 0.0
N5369 N 0.6153 0.98677 0.20379 0.0
C5370 C 0.57659 0.01327 0.17227 0.0
C5371 C 0.60135 0.99477 0.19468 0.0
N5372 N 0.57403 0.98574 0.15406 0.0
N5373 N 0.59929 0.01959 0.21647 0.0
H5374 H 0.62039 0.97418 0.19979 0.0
H5375 H 0.62267 0.99304 0.21404 0.0
H5376 H 0.5955 0.03262 0.2204 0.0
H5377 H 0.60693 0.0128 0.22618 0.0
H5378 H 0.56306 0.99065 0.14668 0.0
H5379 H 0.57825 0.97278 0.1503 0.0
H5380 H 0.56571 0.01876 0.14623 0.0
H5381 H 0.56351 0.03647 0.1614 0.0
C5382 C 0.99785 0.59841 0.18729 0.0
C5383 C 0.00743 0.58989 0.17272 0.0
C5384 C 0.97672 0.57949 0.16144 0.0
C5385 C 0.96734 0.58732 0.17661 0.0
N5386 N 0.96942 0.61097 0.19874 0.0
N5387 N 0.00438 0.57731 0.14303 0.0
C5388 C 0.97812 0.59883 0.18789 0.0
C5389 C 0.99625 0.58203 0.15892 0.0
N5390 N 0.00765 0.60566 0.20118 0.0
N5391 N 0.96713 0.56917 0.14949 0.0
H5392 H 0.01817 0.57964 0.14084 0.0
H5393 H 0.99736 0.57288 0.13162 0.0
H5394 H 0.95304 0.56849 0.14967 0.0
H5395 H 0.97315 0.56093 0.13976 0.0
H5396 H 0.00178 0.61001 0.21326 0.0
H5397 H 0.02177 0.60644 0.2008 0.0
H5398 H 0.97619 0.62099 0.20605 0.0
H5399 H 0.9553 0.61178 0.19922 0.0
C5400 C 0.41616 0.99324 0.83673 0.0
C5401 C 0.40563 0.98459 0.82294 0.0
C5402 C 0.40486 0.01396 0.80628 0.0
C5403 C 0.41664 0.02222 0.81922 0.0
N5404 N 0.43008 0.02075 0.84891 0.0
N5405 N 0.38534 0.98848 0.79802 0.0
C5406 C 0.42096 0.01223 0.83524 0.0
C5407 C 0.39832 0.99575 0.80901 0.0
N5408 N 0.42287 0.98292 0.85053 0.0
N5409 N 0.40042 0.02331 0.79093 0.0
H5410 H 0.38062 0.97526 0.79993 0.0
H5411 H 0.37818 0.99583 0.78835 0.0
H5412 H 0.40413 0.03678 0.78886 0.0
H5413 H 0.39384 0.01754 0.77987 0.0
H5414 H 0.43285 0.98725 0.85949 0.0
H5415 H 0.4186 0.96966 0.8528 0.0
H5416 H 0.43213 0.0151 0.86166 0.0
H5417 H 0.43462 0.03409 0.84794 0.0
C5418 C 0.00846 0.40592 0.81197 0.0
C5419 C 0.01698 0.41286 0.82794 0.0
C5420 C 0.98539 0.41709 0.84069 0.0
C5421 C 0.97699 0.41243 0.82376 0.0
N5422 N 0.9812 0.39582 0.79606 0.0
N5423 N 0.01292 0.42475 0.8578 0.0
C5424 C 0.98884 0.4049 0.81029 0.0
C5425 C 0.00512 0.41802 0.84244 0.0
N5426 N 0.01931 0.40133 0.79772 0.0
N5427 N 0.97462 0.41989 0.85542 0.0
H5428 H 0.02691 0.42426 0.85985 0.0
H5429 H 0.00583 0.43132 0.86805 0.0
H5430 H 0.96072 0.41772 0.8551 0.0
H5431 H 0.97949 0.42218 0.86845 0.0
H5432 H 0.01455 0.3988 0.78469 0.0
H5433 H 0.03341 0.40089 0.79886 0.0
H5434 H 0.98857 0.38857 0.78649 0.0
H5435 H 0.96725 0.39377 0.79498 0.0
C5436 C 0.60031 0.00485 0.81006 0.0
C5437 C 0.59046 0.01524 0.82295 0.0
C5438 C 0.576 0.98656 0.83351 0.0
C5439 C 0.58355 0.9768 0.81863 0.0
N5440 N 0.60303 0.97701 0.79248 0.0
N5441 N 0.56727 0.01561 0.84612 0.0
C5442 C 0.59584 0.98608 0.80692 0.0
C5443 C 0.57822 0.0059 0.83476 0.0
N5444 N 0.61414 0.01302 0.80092 0.0
N5445 N 0.56621 0.97752 0.84637 0.0
H5446 H 0.56838 0.02951 0.84808 0.0
H5447 H 0.55611 0.01009 0.85274 0.0
H5448 H 0.56299 0.96382 0.84555 0.0
H5449 H 0.56242 0.98332 0.85867 0.0
H5450 H 0.62294 0.00621 0.79227 0.0
H5451 H 0.61789 0.02641 0.80352 0.0
H5452 H 0.61015 0.98333 0.78207 0.0
H5453 H 0.60117 0.96313 0.79048 0.0
C5454 C 0.01413 0.60401 0.80877 0.0
C5455 C 0.02653 0.59321 0.81912 0.0
C5456 C 0.9997 0.58433 0.83818 0.0
C5457 C 0.98709 0.59187 0.82555 0.0
N5458 N 0.98273 0.6135 0.80206 0.0
N5459 N 0.03081 0.58215 0.84938 0.0
C5460 C 0.99457 0.60327 0.81191 0.0
C5461 C 0.01922 0.58589 0.83553 0.0
N5462 N 0.02133 0.61605 0.79681 0.0
N5463 N 0.99286 0.57606 0.85318 0.0
H5464 H 0.04418 0.58661 0.84909 0.0
H5465 H 0.02682 0.57733 0.86201 0.0
H5466 H 0.97926 0.57756 0.85674 0.0
H5467 H 1.00044 0.56791 0.86184 0.0
H5468 H 0.01383 0.62601 0.79029 0.0
H5469 H 0.0353 0.61719 0.79485 0.0
H5470 H 0.98636 0.62262 0.79198 0.0
H5471 H 0.96884 0.61335 0.80478 0.0
C5472 C 0.17178 0.42789 0.0055 0.0
C5473 C 0.18358 0.41816 0.01751 0.0
C5474 C 0.19928 0.4068 0.98918 0.0
C5475 C 0.1877 0.41715 0.97752 0.0
N5476 N 0.15702 0.42768 0.97614 0.0
N5477 N 0.20629 0.39502 0.01965 0.0
C5478 C 0.17224 0.42489 0.98611 0.0
C5479 C 0.1966 0.40651 0.00889 0.0
N5480 N 0.16046 0.44082 0.01229 0.0
N5481 N 0.21207 0.39619 0.9811 0.0
H5482 H 0.20358 0.39372 0.03344 0.0
H5483 H 0.21617 0.3861 0.01512 0.0
H5484 H 0.21375 0.39578 0.96706 0.0
H5485 H 0.22021 0.38695 0.98785 0.0
H5486 H 0.15297 0.44941 0.00393 0.0
H5487 H 0.15996 0.44423 0.02598 0.0
H5488 H 0.14491 0.43228 0.98176 0.0
H5489 H 0.15582 0.42232 0.96313 0.0
C5490 C 0.18595 0.60033 0.99283 0.0
C5491 C 0.16861 0.59759 0.98487 0.0
C5492 C 0.15718 0.58801 0.01521 0.0
C5493 C 0.17484 0.58964 0.02301 0.0
N5494 N 0.20465 0.60263 0.02 0.0
N5495 N 0.13683 0.59457 0.98986 0.0
C5496 C 0.18874 0.59754 0.01202 0.0
C5497 C 0.15395 0.59372 0.99676 0.0
N5498 N 0.20013 0.60434 0.98168 0.0
N5499 N 0.14374 0.57965 0.02481 0.0
H5500 H 0.13455 0.59826 0.97638 0.0
H5501 H 0.12517 0.59336 0.9977 0.0
H5502 H 0.14551 0.57484 0.03795 0.0
H5503 H 0.13125 0.57617 0.01926 0.0
H5504 H 0.21363 0.6041 0.98574 0.0
H5505 H 0.19817 0.60727 0.96797 0.0
H5506 H 0.21477 0.60984 0.01332 0.0
H5507 H 0.20701 0.60115 0.03385 0.0
C5508 C 0.41013 0.19997 0.01015 0.0
C5509 C 0.41725 0.18618 0.02175 0.0
C5510 C 0.42341 0.16756 0.99429 0.0
C5511 C 0.41816 0.18208 0.98269 0.0
N5512 N 0.40264 0.21039 0.97952 0.0
N5513 N 0.42264 0.15408 0.0244 0.0
C5514 C 0.41014 0.19768 0.99072 0.0
C5515 C 0.42135 0.16907 0.0137 0.0
N5516 N 0.40331 0.21533 0.01791 0.0
N5517 N 0.4314 0.15264 0.98686 0.0
H5518 H 0.41954 0.15433 0.03815 0.0
H5519 H 0.42431 0.14102 0.01931 0.0
H5520 H 0.4324 0.15076 0.97289 0.0
H5521 H 0.43782 0.14266 0.9945 0.0
H5522 H 0.39973 0.22696 0.01083 0.0
H5523 H 0.40111 0.21632 0.03185 0.0
H5524 H 0.39591 0.22195 0.98388 0.0
H5525 H 0.40221 0.20866 0.96548 0.0
C5526 C 0.81289 0.40374 0.00145 0.0
C5527 C 0.83065 0.40829 0.99547 0.0
C5528 C 0.83885 0.41498 0.02745 0.0
C5529 C 0.82068 0.41147 0.03334 0.0
N5530 N 0.79322 0.3954 0.02658 0.0
N5531 N 0.86165 0.41253 0.00355 0.0
C5532 C 0.80854 0.4037 0.02048 0.0
C5533 C 0.84398 0.41173 0.0089 0.0
N5534 N 0.79985 0.40032 0.9888 0.0
N5535 N 0.85104 0.42251 0.03916 0.0
H5536 H 0.86535 0.41043 0.99004 0.0
H5537 H 0.87252 0.41343 0.0125 0.0
H5538 H 0.84835 0.42482 0.05278 0.0
H5539 H 0.86357 0.42759 0.03513 0.0
H5540 H 0.78611 0.39937 0.9919 0.0
H5541 H 0.80294 0.39913 0.97505 0.0
H5542 H 0.78423 0.38849 0.01817 0.0
H5543 H 0.79098 0.3934 0.04038 0.0
C5544 C 0.57949 0.83553 0.01133 0.0
C5545 C 0.58354 0.81941 0.02128 0.0
C5546 C 0.60115 0.80851 0.99461 0.0
C5547 C 0.59526 0.82356 0.98395 0.0
N5548 N 0.58441 0.85416 0.98431 0.0
N5549 N 0.60148 0.79234 0.02354 0.0
C5550 C 0.58645 0.83807 0.99316 0.0
C5551 C 0.59552 0.80654 0.01325 0.0
N5552 N 0.56791 0.8479 0.01876 0.0
N5553 N 0.61139 0.79556 0.98625 0.0
H5554 H 0.59754 0.79052 0.03698 0.0
H5555 H 0.611 0.78286 0.01933 0.0
H5556 H 0.61631 0.7974 0.9731 0.0
H5557 H 0.61485 0.78314 0.99192 0.0
H5558 H 0.56256 0.85886 0.0117 0.0
H5559 H 0.56269 0.84658 0.03183 0.0
H5560 H 0.57927 0.86582 0.99032 0.0
H5561 H 0.58979 0.85631 0.97143 0.0
C5562 C 0.83203 0.58393 0.00235 0.0
C5563 C 0.81708 0.58746 0.01403 0.0
C5564 C 0.79866 0.59483 0.98667 0.0
C5565 C 0.81286 0.58888 0.97498 0.0
N5566 N 0.84536 0.58666 0.97232 0.0
N5567 N 0.78645 0.59783 0.01729 0.0
C5568 C 0.83029 0.58615 0.98298 0.0
C5569 C 0.80061 0.59375 0.00608 0.0
N5570 N 0.84768 0.57737 0.00969 0.0
N5571 N 0.78356 0.60232 0.97901 0.0
H5572 H 0.78792 0.5983 0.03135 0.0
H5573 H 0.77327 0.6002 0.01293 0.0
H5574 H 0.78252 0.60449 0.96507 0.0
H5575 H 0.77289 0.60794 0.98627 0.0
H5576 H 0.85822 0.57204 0.00198 0.0
H5577 H 0.84964 0.57638 0.02366 0.0
H5578 H 0.8585 0.58602 0.97741 0.0
H5579 H 0.84487 0.59029 0.95871 0.0
C5580 C 0.42617 0.83446 0.9871 0.0
C5581 C 0.41723 0.82054 0.97711 0.0
C5582 C 0.40107 0.81209 0.00559 0.0
C5583 C 0.41238 0.82374 0.01606 0.0
N5584 N 0.43744 0.84488 0.01612 0.0
N5585 N 0.39629 0.79552 0.97739 0.0
C5586 C 0.42514 0.83485 0.00657 0.0
C5587 C 0.40464 0.80927 0.98655 0.0
N5588 N 0.43602 0.84731 0.97811 0.0
N5589 N 0.38682 0.80377 0.0139 0.0
H5590 H 0.39761 0.79378 0.96342 0.0
H5591 H 0.3888 0.78538 0.98372 0.0
H5592 H 0.38376 0.80606 0.02751 0.0
H5593 H 0.37711 0.79618 0.00703 0.0
H5594 H 0.44099 0.85897 0.98434 0.0
H5595 H 0.43797 0.84725 0.96416 0.0
H5596 H 0.44877 0.8509 0.01024 0.0
H5597 H 0.43727 0.84613 0.03013 0.0
C5598 C 0.60123 0.19695 0.99066 0.0
C5599 C 0.59256 0.18397 0.97924 0.0
C5600 C 0.59495 0.16178 0.00491 0.0
C5601 C 0.60009 0.17565 0.01713 0.0
N5602 N 0.61067 0.20596 0.02116 0.0
N5603 N 0.58165 0.1532 0.97598 0.0
C5604 C 0.60446 0.19295 0.00958 0.0
C5605 C 0.58996 0.16603 0.98643 0.0
N5606 N 0.60672 0.21304 0.98331 0.0
N5607 N 0.59435 0.14447 0.01137 0.0
H5608 H 0.57799 0.15534 0.96256 0.0
H5609 H 0.57728 0.14072 0.98089 0.0
H5610 H 0.59774 0.14153 0.0248 0.0
H5611 H 0.5922 0.1331 0.0033 0.0
H5612 H 0.61438 0.22265 0.99021 0.0
H5613 H 0.6047 0.21628 0.9697 0.0
H5614 H 0.61206 0.21959 0.01786 0.0
H5615 H 0.61403 0.2028 0.03454 0.0
C5616 C 0.50072 0.66834 0.91023 0.0
C5617 C 0.51137 0.68333 0.90391 0.0
C5618 C 0.48195 0.69692 0.89323 0.0
C5619 C 0.47118 0.68431 0.90323 0.0
N5620 N 0.47106 0.65504 0.91728 0.0
N5621 N 0.51109 0.71187 0.88834 0.0
C5622 C 0.48086 0.66908 0.91048 0.0
C5623 C 0.50158 0.69743 0.8949 0.0
N5624 N 0.50969 0.65308 0.91552 0.0
N5625 N 0.47331 0.7081 0.88133 0.0
H5626 H 0.52522 0.71218 0.88826 0.0
H5627 H 0.50499 0.72376 0.88379 0.0
H5628 H 0.45931 0.7075 0.87938 0.0
H5629 H 0.48007 0.71654 0.87226 0.0
H5630 H 0.50341 0.64114 0.91957 0.0
H5631 H 0.52373 0.65195 0.91436 0.0
H5632 H 0.47639 0.64474 0.92528 0.0
H5633 H 0.45742 0.65353 0.91408 0.0
C5634 C 0.3079 0.50664 0.90061 0.0
C5635 C 0.32482 0.51553 0.90337 0.0
C5636 C 0.33805 0.48584 0.91208 0.0
C5637 C 0.32092 0.47691 0.91001 0.0
N5638 N 0.29079 0.47852 0.89752 0.0
N5639 N 0.35683 0.51248 0.90609 0.0
C5640 C 0.30627 0.48725 0.9027 0.0
C5641 C 0.34016 0.50454 0.90685 0.0
N5642 N 0.29301 0.51708 0.89729 0.0
N5643 N 0.35201 0.4771 0.92053 0.0
H5644 H 0.35829 0.52617 0.90275 0.0
H5645 H 0.36893 0.50529 0.90696 0.0
H5646 H 0.35109 0.46391 0.9254 0.0
H5647 H 0.36401 0.48349 0.92429 0.0
H5648 H 0.27978 0.5122 0.89761 0.0
H5649 H 0.29409 0.531 0.89497 0.0
H5650 H 0.28022 0.48484 0.89064 0.0
H5651 H 0.28922 0.46452 0.89864 0.0
C5652 C 0.50928 0.34107 0.91696 0.0
C5653 C 0.49713 0.32818 0.90906 0.0
C5654 C 0.52456 0.30938 0.9017 0.0
C5655 C 0.53653 0.32129 0.9114 0.0
N5656 N 0.54022 0.35226 0.92104 0.0
N5657 N 0.49424 0.30266 0.88953 0.0
C5658 C 0.52886 0.33831 0.91683 0.0
C5659 C 0.50526 0.31321 0.9 0.0
N5660 N 0.50196 0.35598 0.92502 0.0
N5661 N 0.53177 0.29427 0.89388 0.0
H5662 H 0.48047 0.30559 0.88804 0.0
H5663 H 0.49868 0.2923 0.88111 0.0
H5664 H 0.5457 0.29211 0.89291 0.0
H5665 H 0.5241 0.28399 0.88816 0.0
H5666 H 0.50924 0.36476 0.93334 0.0
H5667 H 0.48823 0.3591 0.9237 0.0
H5668 H 0.53581 0.36532 0.924 0.0
H5669 H 0.55414 0.35143 0.9191 0.0
C5670 C 0.69592 0.52125 0.90569 0.0
C5671 C 0.68206 0.53276 0.91306 0.0
C5672 C 0.66475 0.50409 0.92005 0.0
C5673 C 0.67933 0.4926 0.91434 0.0
N5674 N 0.7093 0.49109 0.90205 0.0
N5675 N 0.65027 0.53385 0.92045 0.0
C5676 C 0.69485 0.50156 0.90691 0.0
C5677 C 0.66558 0.52378 0.91819 0.0
N5678 N 0.70984 0.52923 0.89646 0.0
N5679 N 0.65029 0.49614 0.92838 0.0
H5680 H 0.64976 0.54759 0.91743 0.0
H5681 H 0.63754 0.52828 0.92282 0.0
H5682 H 0.64876 0.48208 0.929 0.0
H5683 H 0.64044 0.50333 0.93547 0.0
H5684 H 0.71967 0.52213 0.88931 0.0
H5685 H 0.71044 0.54317 0.89425 0.0
H5686 H 0.72215 0.49619 0.89927 0.0
H5687 H 0.70852 0.47698 0.90158 0.0
C5688 C 0.49539 0.30591 0.08895 0.0
C5689 C 0.50673 0.32119 0.08474 0.0
C5690 C 0.47773 0.33712 0.07539 0.0
C5691 C 0.46633 0.32167 0.07956 0.0
N5692 N 0.46553 0.29362 0.0961 0.0
N5693 N 0.50703 0.35285 0.07783 0.0
C5694 C 0.47564 0.30678 0.08796 0.0
C5695 C 0.49728 0.3372 0.07923 0.0
N5696 N 0.50361 0.29003 0.09369 0.0
N5697 N 0.47025 0.35171 0.06689 0.0
H5698 H 0.52087 0.35333 0.08067 0.0
H5699 H 0.50124 0.36554 0.07579 0.0
H5700 H 0.45643 0.35341 0.06513 0.0
H5701 H 0.47786 0.36185 0.06071 0.0
H5702 H 0.49686 0.27765 0.09424 0.0
H5703 H 0.51749 0.28916 0.09626 0.0
H5704 H 0.47102 0.2834 0.10413 0.0
H5705 H 0.45146 0.29411 0.09653 0.0
C5706 C 0.68316 0.50099 0.09596 0.0
C5707 C 0.66893 0.50925 0.08577 0.0
C5708 C 0.65881 0.47771 0.0773 0.0
C5709 C 0.67416 0.46947 0.08604 0.0
N5710 N 0.69807 0.47364 0.10765 0.0
N5711 N 0.64028 0.50477 0.0715 0.0
C5712 C 0.68539 0.48134 0.0966 0.0
C5713 C 0.65589 0.49728 0.07795 0.0
N5714 N 0.69479 0.51224 0.10494 0.0
N5715 N 0.64724 0.46697 0.06767 0.0
H5716 H 0.6378 0.51866 0.07252 0.0
H5717 H 0.62924 0.49733 0.06684 0.0
H5718 H 0.64763 0.45289 0.06826 0.0
H5719 H 0.63754 0.47192 0.05872 0.0
H5720 H 0.70611 0.508 0.11212 0.0
H5721 H 0.69272 0.52622 0.10536 0.0
H5722 H 0.70586 0.48077 0.11695 0.0
H5723 H 0.69973 0.45963 0.10867 0.0
C5724 C 0.49429 0.66432 0.07413 0.0
C5725 C 0.48339 0.67814 0.08218 0.0
C5726 C 0.51278 0.69123 0.09346 0.0
C5727 C 0.52336 0.68092 0.08091 0.0
N5728 N 0.52366 0.65358 0.06332 0.0
N5729 N 0.48314 0.70317 0.10274 0.0
C5730 C 0.51391 0.6662 0.07248 0.0
C5731 C 0.493 0.69102 0.09294 0.0
N5732 N 0.48588 0.6486 0.06933 0.0
N5733 N 0.52178 0.70004 0.10696 0.0
H5734 H 0.469 0.70276 0.10296 0.0
H5735 H 0.48887 0.71364 0.11025 0.0
H5736 H 0.53591 0.70013 0.1077 0.0
H5737 H 0.51525 0.70561 0.11817 0.0
H5738 H 0.49262 0.63715 0.06461 0.0
H5739 H 0.47209 0.64663 0.0719 0.0
H5740 H 0.53748 0.65212 0.06554 0.0
H5741 H 0.51796 0.64428 0.05435 0.0
C5742 C 0.30633 0.4991 0.09698 0.0
C5743 C 0.31846 0.49011 0.0849 0.0
C5744 C 0.33191 0.52045 0.07819 0.0
C5745 C 0.31738 0.52946 0.08701 0.0
N5746 N 0.29819 0.52705 0.11284 0.0
N5747 N 0.34313 0.49307 0.0637 0.0
C5748 C 0.30672 0.51862 0.09881 0.0
C5749 C 0.3315 0.50106 0.07564 0.0
N5750 N 0.29368 0.48909 0.106 0.0
N5751 N 0.34711 0.53007 0.07421 0.0
H5752 H 0.34385 0.47905 0.06199 0.0
H5753 H 0.35128 0.50046 0.05485 0.0
H5754 H 0.34876 0.54326 0.079 0.0
H5755 H 0.35883 0.52425 0.06892 0.0
H5756 H 0.28302 0.49484 0.11323 0.0
H5757 H 0.29343 0.47495 0.1054 0.0
H5758 H 0.29169 0.52011 0.12328 0.0
H5759 H 0.29883 0.5411 0.11449 0.0
C5760 C 0.91066 0.51035 0.7052 0.0
C5761 C 0.91937 0.51912 0.69026 0.0
C5762 C 0.9224 0.48836 0.67636 0.0
C5763 C 0.91769 0.47944 0.69281 0.0
N5764 N 0.90582 0.48294 0.72301 0.0
N5765 N 0.93744 0.51432 0.66323 0.0
C5766 C 0.91144 0.49082 0.70726 0.0
C5767 C 0.92618 0.50752 0.67623 0.0
N5768 N 0.90092 0.52059 0.71709 0.0
N5769 N 0.92267 0.47888 0.66054 0.0
H5770 H 0.94206 0.52765 0.66314 0.0
H5771 H 0.94404 0.50605 0.65386 0.0
H5772 H 0.91788 0.46564 0.65966 0.0
H5773 H 0.92496 0.48501 0.64802 0.0
H5774 H 0.89303 0.51517 0.72745 0.0
H5775 H 0.89915 0.53446 0.71531 0.0
H5776 H 0.90376 0.49013 0.73497 0.0
H5777 H 0.90363 0.46901 0.72412 0.0
C5778 C 0.51558 0.89364 0.69457 0.0
C5779 C 0.52676 0.90302 0.68182 0.0
C5780 C 0.4975 0.91033 0.6653 0.0
C5781 C 0.4865 0.90445 0.68023 0.0
N5782 N 0.48614 0.8896 0.70914 0.0
N5783 N 0.52757 0.91577 0.652 0.0
C5784 C 0.49596 0.89565 0.6947 0.0
C5785 C 0.5174 0.90998 0.66623 0.0
N5786 N 0.52382 0.88196 0.70628 0.0
N5787 N 0.4888 0.91592 0.64998 0.0
H5788 H 0.54112 0.91211 0.65085 0.0
H5789 H 0.52262 0.92317 0.64109 0.0
H5790 H 0.47474 0.91509 0.64873 0.0
H5791 H 0.49522 0.92014 0.6382 0.0
H5792 H 0.51679 0.87332 0.71492 0.0
H5793 H 0.53778 0.87968 0.70592 0.0
H5794 H 0.49196 0.88535 0.72128 0.0
H5795 H 0.47201 0.88963 0.70915 0.0
C5796 C 0.09407 0.51215 0.69699 0.0
C5797 C 0.08677 0.52437 0.68382 0.0
C5798 C 0.09351 0.50093 0.6605 0.0
C5799 C 0.0966 0.48752 0.67389 0.0
N5800 N 0.10147 0.4809 0.70523 0.0
N5801 N 0.07729 0.52833 0.65264 0.0
C5802 C 0.09773 0.49347 0.69222 0.0
C5803 C 0.08625 0.51833 0.66538 0.0
N5804 N 0.09794 0.51844 0.71396 0.0
N5805 N 0.09629 0.49634 0.64283 0.0
H5806 H 0.07026 0.54019 0.65563 0.0
H5807 H 0.07496 0.52377 0.63948 0.0
H5808 H 0.101 0.48347 0.63926 0.0
H5809 H 0.09569 0.50566 0.63223 0.0
H5810 H 0.10458 0.51077 0.72377 0.0
H5811 H 0.096 0.53192 0.71773 0.0
H5812 H 0.10012 0.48328 0.71907 0.0
H5813 H 0.10541 0.46775 0.70181 0.0
C5814 C 0.4844 0.07895 0.66266 0.0
C5815 C 0.47714 0.07972 0.68089 0.0
C5816 C 0.50867 0.08835 0.68967 0.0
C5817 C 0.51694 0.0828 0.67356 0.0
N5818 N 0.51091 0.07208 0.64347 0.0
N5819 N 0.49062 0.07131 0.70955 0.0
C5820 C 0.50419 0.07794 0.65959 0.0
C5821 C 0.49116 0.08145 0.69428 0.0
N5822 N 0.47285 0.0787 0.64828 0.0
N5823 N 0.5185 0.09767 0.70209 0.0
H5824 H 0.47942 0.06503 0.7151 0.0
H5825 H 0.50273 0.06569 0.71406 0.0
H5826 H 0.53183 0.10171 0.69953 0.0
H5827 H 0.51238 0.10296 0.71363 0.0
H5828 H 0.4773 0.07937 0.63491 0.0
H5829 H 0.45886 0.07951 0.64974 0.0
H5830 H 0.50285 0.06639 0.63336 0.0
H5831 H 0.5248 0.07236 0.64079 0.0
C5832 C 0.90349 0.48855 0.31363 0.0
C5833 C 0.89918 0.48241 0.3312 0.0
C5834 C 0.90057 0.51548 0.33973 0.0
C5835 C 0.91014 0.52021 0.32327 0.0
N5836 N 0.92784 0.50485 0.30014 0.0
N5837 N 0.8945 0.49158 0.362 0.0
C5838 C 0.91335 0.50508 0.31147 0.0
C5839 C 0.8978 0.49646 0.3445 0.0
N5840 N 0.89966 0.47798 0.29908 0.0
N5841 N 0.89409 0.52858 0.35101 0.0
H5842 H 0.89171 0.47816 0.36554 0.0
H5843 H 0.89547 0.50062 0.37281 0.0
H5844 H 0.8951 0.54236 0.3485 0.0
H5845 H 0.88592 0.52559 0.36214 0.0
H5846 H 0.90229 0.48234 0.28587 0.0
H5847 H 0.89232 0.46596 0.30051 0.0
H5848 H 0.93045 0.49404 0.29151 0.0
H5849 H 0.9388 0.51352 0.30179 0.0
C5850 C 0.48241 0.91536 0.33583 0.0
C5851 C 0.47519 0.90898 0.31902 0.0
C5852 C 0.507 0.89989 0.31076 0.0
C5853 C 0.51453 0.90992 0.32546 0.0
N5854 N 0.50886 0.92332 0.35437 0.0
N5855 N 0.48028 0.8863 0.29658 0.0
C5856 C 0.50193 0.91636 0.33874 0.0
C5857 C 0.48748 0.89866 0.30821 0.0
N5858 N 0.47066 0.91886 0.34961 0.0
N5859 N 0.51859 0.89199 0.29876 0.0
H5860 H 0.46631 0.88504 0.29468 0.0
H5861 H 0.4879 0.87594 0.29077 0.0
H5862 H 0.5326 0.89224 0.30069 0.0
H5863 H 0.51438 0.8856 0.2869 0.0
H5864 H 0.47448 0.92322 0.36245 0.0
H5865 H 0.45713 0.91495 0.34884 0.0
H5866 H 0.50135 0.93046 0.36392 0.0
H5867 H 0.52254 0.92176 0.35761 0.0
C5868 C 0.06927 0.50821 0.33124 0.0
C5869 C 0.07929 0.5185 0.31813 0.0
C5870 C 0.08685 0.48878 0.30339 0.0
C5871 C 0.07719 0.47857 0.31682 0.0
N5872 N 0.06619 0.47971 0.34747 0.0
N5873 N 0.10177 0.51706 0.29462 0.0
C5874 C 0.0706 0.48864 0.33195 0.0
C5875 C 0.08945 0.50822 0.30521 0.0
N5876 N 0.05748 0.51687 0.34255 0.0
N5877 N 0.09361 0.47988 0.28866 0.0
H5878 H 0.10415 0.53095 0.2958 0.0
H5879 H 0.11077 0.51044 0.28601 0.0
H5880 H 0.09375 0.46577 0.2877 0.0
H5881 H 0.09842 0.48651 0.27716 0.0
H5882 H 0.04836 0.50992 0.3508 0.0
H5883 H 0.05546 0.53082 0.3424 0.0
H5884 H 0.06238 0.48634 0.35934 0.0
H5885 H 0.06918 0.46605 0.34924 0.0
C5886 C 0.51574 0.09883 0.31025 0.0
C5887 C 0.52687 0.09119 0.32423 0.0
C5888 C 0.49746 0.08576 0.34119 0.0
C5889 C 0.48653 0.09025 0.32574 0.0
N5890 N 0.48652 0.10044 0.29485 0.0
N5891 N 0.52736 0.08031 0.35486 0.0
C5892 C 0.49614 0.09682 0.31023 0.0
C5893 C 0.51737 0.08568 0.34031 0.0
N5894 N 0.52398 0.10886 0.29708 0.0
N5895 N 0.48863 0.08166 0.35689 0.0
H5896 H 0.54118 0.08296 0.35567 0.0
H5897 H 0.5221 0.07376 0.36616 0.0
H5898 H 0.47452 0.08226 0.35781 0.0
H5899 H 0.49498 0.07901 0.36918 0.0
H5900 H 0.51691 0.11623 0.28734 0.0
H5901 H 0.53789 0.11143 0.29721 0.0
H5902 H 0.49255 0.10259 0.28226 0.0
H5903 H 0.47237 0.10029 0.29455 0.0
C5904 C 0.69505 0.89942 0.4865 0.0
C5905 C 0.68175 0.90714 0.47461 0.0
C5906 C 0.66269 0.91177 0.50279 0.0
C5907 C 0.67715 0.9066 0.51475 0.0
N5908 N 0.70786 0.89618 0.51687 0.0
N5909 N 0.65003 0.91411 0.4721 0.0
C5910 C 0.69338 0.90037 0.50614 0.0
C5911 C 0.6647 0.9114 0.483 0.0
N5912 N 0.70888 0.88982 0.4789 0.0
N5913 N 0.64705 0.91785 0.51053 0.0
H5914 H 0.65052 0.9119 0.45821 0.0
H5915 H 0.63694 0.91626 0.47683 0.0
H5916 H 0.64478 0.91681 0.52445 0.0
H5917 H 0.63673 0.92435 0.50348 0.0
H5918 H 0.71833 0.88247 0.48635 0.0
H5919 H 0.70941 0.8873 0.46499 0.0
H5920 H 0.72091 0.89424 0.51189 0.0
H5921 H 0.70689 0.89562 0.53098 0.0
C5922 C 0.66875 0.07821 0.52364 0.0
C5923 C 0.68557 0.08329 0.53216 0.0
C5924 C 0.69691 0.09075 0.50074 0.0
C5925 C 0.68061 0.08481 0.49204 0.0
N5926 N 0.64957 0.07669 0.49633 0.0
N5927 N 0.71155 0.10231 0.52801 0.0
C5928 C 0.66613 0.07975 0.50396 0.0
C5929 C 0.69839 0.09185 0.52037 0.0
N5930 N 0.65511 0.07186 0.5343 0.0
N5931 N 0.71151 0.09487 0.49019 0.0
H5932 H 0.71188 0.10479 0.54194 0.0
H5933 H 0.72054 0.1102 0.5205 0.0
H5934 H 0.71076 0.09526 0.47607 0.0
H5935 H 0.72446 0.0969 0.49546 0.0
H5936 H 0.64373 0.06514 0.52939 0.0
H5937 H 0.65515 0.07367 0.54825 0.0
H5938 H 0.63781 0.07411 0.50363 0.0
H5939 H 0.6474 0.07837 0.48245 0.0
C5940 C 0.90381 0.68732 0.49166 0.0
C5941 C 0.9126 0.67235 0.48337 0.0
C5942 C 0.92104 0.66104 0.51392 0.0
C5943 C 0.9138 0.67702 0.52221 0.0
N5944 N 0.89374 0.70246 0.51931 0.0
N5945 N 0.92417 0.64236 0.48672 0.0
C5946 C 0.90358 0.68912 0.51111 0.0
C5947 C 0.91919 0.65829 0.49468 0.0
N5948 N 0.89669 0.70043 0.48076 0.0
N5949 N 0.93109 0.6492 0.52399 0.0
H5950 H 0.923 0.64039 0.47275 0.0
H5951 H 0.92766 0.63074 0.49393 0.0
H5952 H 0.93257 0.65016 0.53796 0.0
H5953 H 0.93886 0.63885 0.51839 0.0
H5954 H 0.89213 0.71295 0.48538 0.0
H5955 H 0.89595 0.69875 0.46674 0.0
H5956 H 0.89319 0.70379 0.53339 0.0
H5957 H 0.88496 0.71109 0.51245 0.0
C5958 C 0.33935 0.91935 0.48938 0.0
C5959 C 0.32427 0.91239 0.47937 0.0
C5960 C 0.31107 0.9044 0.5096 0.0
C5961 C 0.32285 0.91654 0.51895 0.0
N5962 N 0.35028 0.93402 0.51708 0.0
N5963 N 0.2961 0.89624 0.4812 0.0
C5964 C 0.33778 0.92333 0.50865 0.0
C5965 C 0.31033 0.90415 0.48995 0.0
N5966 N 0.3553 0.92194 0.48046 0.0
N5967 N 0.30105 0.8925 0.51954 0.0
H5968 H 0.29569 0.89511 0.4671 0.0
H5969 H 0.28463 0.89143 0.48787 0.0
H5970 H 0.30217 0.89186 0.53363 0.0
H5971 H 0.29318 0.8823 0.51374 0.0
H5972 H 0.36731 0.92555 0.48694 0.0
H5973 H 0.35662 0.91892 0.4667 0.0
H5974 H 0.36076 0.94054 0.51024 0.0
H5975 H 0.34962 0.93699 0.53088 0.0
C5976 C 0.06733 0.32867 0.51334 0.0
C5977 C 0.07598 0.3147 0.52361 0.0
C5978 C 0.09102 0.30588 0.49415 0.0
C5979 C 0.07925 0.31713 0.48354 0.0
N5980 N 0.05365 0.33749 0.48468 0.0
N5981 N 0.09677 0.28962 0.52247 0.0
C5982 C 0.06679 0.32809 0.49366 0.0
C5983 C 0.08802 0.30322 0.51353 0.0
N5984 N 0.06037 0.34325 0.5222 0.0
N5985 N 0.10526 0.2977 0.4857 0.0
H5986 H 0.09641 0.28834 0.53654 0.0
H5987 H 0.10372 0.27926 0.51587 0.0
H5988 H 0.10789 0.29961 0.47195 0.0
H5989 H 0.1153 0.29054 0.49256 0.0
H5990 H 0.05479 0.35438 0.51553 0.0
H5991 H 0.06314 0.3455 0.53582 0.0
H5992 H 0.04305 0.344 0.49136 0.0
H5993 H 0.05227 0.33731 0.47063 0.0
C5994 C 0.32797 0.07915 0.51101 0.0
C5995 C 0.31447 0.0881 0.52206 0.0
C5996 C 0.30293 0.10142 0.49269 0.0
C5997 C 0.31452 0.09039 0.48181 0.0
N5998 N 0.34431 0.07777 0.48229 0.0
N5999 N 0.28875 0.10809 0.52189 0.0
C6000 C 0.32885 0.08181 0.49147 0.0
C6001 C 0.30198 0.09942 0.51237 0.0
N6002 N 0.33928 0.06676 0.51883 0.0
N6003 N 0.29402 0.11521 0.4842 0.0
H6004 H 0.28832 0.10796 0.53599 0.0
H6005 H 0.27781 0.11456 0.51577 0.0
H6006 H 0.29497 0.11717 0.47022 0.0
H6007 H 0.28691 0.12527 0.49106 0.0
H6008 H 0.34761 0.0582 0.51132 0.0
H6009 H 0.339 0.06347 0.53253 0.0
H6010 H 0.356 0.07286 0.48849 0.0
H6011 H 0.34633 0.08236 0.46909 0.0
C6012 C 0.91654 0.33709 0.49129 0.0
C6013 C 0.91135 0.32119 0.48153 0.0
C6014 C 0.89534 0.3107 0.50933 0.0
C6015 C 0.90218 0.32553 0.51977 0.0
N6016 N 0.91282 0.35613 0.51831 0.0
N6017 N 0.88888 0.29779 0.4796 0.0
C6018 C 0.91042 0.33992 0.50981 0.0
C6019 C 0.89855 0.30955 0.49007 0.0
N6020 N 0.92787 0.34919 0.48313 0.0
N6021 N 0.88647 0.29708 0.51814 0.0
H6022 H 0.89047 0.29727 0.46555 0.0
H6023 H 0.87825 0.28992 0.48453 0.0
H6024 H 0.88307 0.29805 0.53185 0.0
H6025 H 0.88325 0.28473 0.5121 0.0
H6026 H 0.93351 0.3603 0.48974 0.0
H6027 H 0.93224 0.34761 0.46978 0.0
H6028 H 0.9176 0.36772 0.51185 0.0
H6029 H 0.90845 0.35818 0.53161 0.0
C6030 C 0.08159 0.66496 0.48409 0.0
C6031 C 0.08687 0.6815 0.47548 0.0
C6032 C 0.10368 0.68949 0.50361 0.0
C6033 C 0.0963 0.67435 0.51302 0.0
N6034 N 0.08464 0.64426 0.50991 0.0
N6035 N 0.10978 0.70444 0.47482 0.0
C6036 C 0.08777 0.66079 0.50228 0.0
C6037 C 0.10005 0.69222 0.48458 0.0
N6038 N 0.06967 0.65378 0.47542 0.0
N6039 N 0.11366 0.70173 0.51323 0.0
H6040 H 0.10721 0.70696 0.46113 0.0
H6041 H 0.12175 0.71006 0.47975 0.0
H6042 H 0.11689 0.69959 0.52684 0.0
H6043 H 0.11839 0.7139 0.50787 0.0
H6044 H 0.06356 0.64264 0.48154 0.0
H6045 H 0.06508 0.65629 0.46229 0.0
H6046 H 0.07953 0.63321 0.50278 0.0
H6047 H 0.08887 0.64129 0.52307 0.0
C6048 C 0.09182 0.16123 0.51101 0.0
C6049 C 0.09893 0.17704 0.52018 0.0
C6050 C 0.10117 0.18996 0.48843 0.0
C6051 C 0.08861 0.17711 0.48083 0.0
N6052 N 0.07438 0.14829 0.4858 0.0
N6053 N 0.11426 0.20553 0.51393 0.0
C6054 C 0.08461 0.16218 0.49251 0.0
C6055 C 0.10454 0.19109 0.50788 0.0
N6056 N 0.09322 0.14474 0.51925 0.0
N6057 N 0.11028 0.2014 0.47712 0.0
H6058 H 0.11842 0.20724 0.52731 0.0
H6059 H 0.11842 0.20724 0.52731 0.0
H6060 H 0.10877 0.20103 0.46309 0.0
H6061 H 0.11966 0.21088 0.48184 0.0
H6062 H 0.08972 0.1326 0.51295 0.0
H6063 H 0.1004 0.14278 0.53121 0.0
H6064 H 0.06953 0.13771 0.49378 0.0
H6065 H 0.06978 0.14795 0.47244 0.0
C6066 C 0.82907 0.1102 0.47581 0.0
C6067 C 0.82213 0.09288 0.46859 0.0
C6068 C 0.81577 0.08642 0.49912 0.0
C6069 C 0.82643 0.09826 0.50866 0.0
N6070 N 0.84184 0.1267 0.50278 0.0
N6071 N 0.83881 0.07074 0.48275 0.0
C6072 C 0.83283 0.11217 0.49599 0.0
C6073 C 0.82306 0.08026 0.48233 0.0
N6074 N 0.83204 0.12419 0.46421 0.0
N6075 N 0.79817 0.09111 0.49928 0.0
H6076 H 0.84706 0.06886 0.47138 0.0
H6077 H 0.84706 0.06886 0.47138 0.0
H6078 H 0.79236 0.09949 0.50915 0.0
H6079 H 0.79236 0.09949 0.50915 0.0
H6080 H 0.83612 0.13699 0.4685 0.0
H6081 H 0.82954 0.12299 0.45037 0.0
H6082 H 0.84775 0.13661 0.49466 0.0
H6083 H 0.84381 0.12813 0.51672 0.0
C6084 C 0.90502 0.81687 0.51245 0.0
C6085 C 0.91524 0.82891 0.52377 0.0
C6086 C 0.92793 0.84205 0.49479 0.0
C6087 C 0.91907 0.82893 0.48365 0.0
N6088 N 0.89433 0.80723 0.48292 0.0
N6089 N 0.92644 0.85982 0.52239 0.0
C6090 C 0.90581 0.81789 0.4928 0.0
C6091 C 0.92387 0.84352 0.51404 0.0
N6092 N 0.89354 0.80451 0.51986 0.0
N6093 N 0.93977 0.8539 0.48696 0.0
H6094 H 0.92136 0.8629 0.53513 0.0
H6095 H 0.93113 0.87129 0.51564 0.0
H6096 H 0.94194 0.85451 0.47302 0.0
H6097 H 0.94799 0.86263 0.49441 0.0
H6098 H 0.89113 0.80321 0.53372 0.0
H6099 H 0.89113 0.80321 0.53372 0.0
H6100 H 0.88458 0.79893 0.48893 0.0
H6101 H 0.89449 0.80658 0.46885 0.0
C6102 C 0.18137 0.90617 0.48562 0.0
C6103 C 0.17539 0.92105 0.4745 0.0
C6104 C 0.16929 0.9371 0.50406 0.0
C6105 C 0.17996 0.92462 0.5145 0.0
N6106 N 0.19452 0.89544 0.51416 0.0
N6107 N 0.16229 0.95103 0.47504 0.0
C6108 C 0.18545 0.90864 0.50489 0.0
C6109 C 0.16911 0.93659 0.48436 0.0
N6110 N 0.18311 0.88942 0.47797 0.0
N6111 N 0.15818 0.94901 0.51283 0.0
H6112 H 0.15921 0.95062 0.46128 0.0
H6113 H 0.16018 0.96364 0.48104 0.0
H6114 H 0.15787 0.95048 0.52685 0.0
H6115 H 0.14837 0.95668 0.50618 0.0
H6116 H 0.18521 0.87766 0.48547 0.0
H6117 H 0.18109 0.88695 0.46426 0.0
H6118 H 0.20084 0.88451 0.50789 0.0
H6119 H 0.19684 0.89601 0.52807 0.0
C6120 C 0.09547 0.82311 0.48065 0.0
C6121 C 0.07997 0.82898 0.47081 0.0
C6122 C 0.06584 0.83684 0.50072 0.0
C6123 C 0.08016 0.82807 0.51033 0.0
N6124 N 0.11291 0.82279 0.50734 0.0
N6125 N 0.05161 0.84504 0.47193 0.0
C6126 C 0.09611 0.82416 0.49988 0.0
C6127 C 0.0657 0.83728 0.48104 0.0
N6128 N 0.1108 0.81743 0.47209 0.0
N6129 N 0.05332 0.84637 0.51047 0.0
H6130 H 0.05115 0.84579 0.4579 0.0
H6131 H 0.03995 0.84994 0.47803 0.0
H6132 H 0.0537 0.84733 0.52455 0.0
H6133 H 0.04403 0.85529 0.50481 0.0
H6134 H 0.11241 0.81689 0.45806 0.0
H6135 H 0.11241 0.81689 0.45806 0.0
H6136 H 0.11611 0.82538 0.52082 0.0
H6137 H 0.11611 0.82538 0.52082 0.0
C6138 C 0.16495 0.0654 0.49207 0.0
C6139 C 0.17434 0.07854 0.4811 0.0
C6140 C 0.17983 0.09476 0.511 0.0
C6141 C 0.175 0.07928 0.52201 0.0
N6142 N 0.16136 0.04957 0.52094 0.0
N6143 N 0.19009 0.10706 0.4819 0.0
C6144 C 0.16721 0.06456 0.51182 0.0
C6145 C 0.18159 0.09351 0.49119 0.0
N6146 N 0.15314 0.05379 0.4838 0.0
N6147 N 0.18236 0.11115 0.51919 0.0
H6148 H 0.19068 0.1075 0.4678 0.0
H6149 H 0.19751 0.11728 0.4882 0.0
H6150 H 0.1823 0.11299 0.53313 0.0
H6151 H 0.18338 0.12326 0.51201 0.0
H6152 H 0.14413 0.0456 0.49093 0.0
H6153 H 0.15152 0.0531 0.46981 0.0
H6154 H 0.15792 0.0375 0.51446 0.0
H6155 H 0.16064 0.04887 0.535 0.0
C6156 C 0.90101 0.19155 0.51493 0.0
C6157 C 0.91521 0.18268 0.52487 0.0
C6158 C 0.91731 0.16218 0.49724 0.0
C6159 C 0.90809 0.17492 0.48559 0.0
N6160 N 0.88717 0.19992 0.48595 0.0
N6161 N 0.93527 0.15697 0.52462 0.0
C6162 C 0.89866 0.18895 0.49535 0.0
C6163 C 0.9224 0.16694 0.51587 0.0
N6164 N 0.88867 0.20149 0.52442 0.0
N6165 N 0.92124 0.14528 0.49086 0.0
H6166 H 0.94016 0.16048 0.53735 0.0
H6167 H 0.94274 0.14672 0.51846 0.0
H6168 H 0.91731 0.14067 0.47817 0.0
H6169 H 0.92618 0.13491 0.49904 0.0
H6170 H 0.87689 0.20674 0.51871 0.0
H6171 H 0.8894 0.20303 0.53845 0.0
H6172 H 0.88186 0.21187 0.49126 0.0
H6173 H 0.88351 0.19734 0.47255 0.0
C6174 C 0.80785 0.89339 0.49782 0.0
C6175 C 0.82216 0.89978 0.48621 0.0
C6176 C 0.83612 0.91302 0.51479 0.0
C6177 C 0.82104 0.9082 0.52599 0.0
N6178 N 0.79848 0.8849 0.52859 0.0
N6179 N 0.85432 0.90598 0.48817 0.0
C6180 C 0.80867 0.8957 0.5176 0.0
C6181 C 0.83763 0.90666 0.49607 0.0
N6182 N 0.79364 0.88437 0.49022 0.0
N6183 N 0.84943 0.92366 0.52197 0.0
H6184 H 0.85672 0.899 0.47615 0.0
H6185 H 0.8662 0.90954 0.4949 0.0
H6186 H 0.84932 0.92801 0.5354 0.0
H6187 H 0.85968 0.92944 0.51416 0.0
H6188 H 0.78204 0.88081 0.49743 0.0
H6189 H 0.79335 0.88064 0.47663 0.0
H6190 H 0.79071 0.87413 0.5238 0.0
H6191 H 0.79901 0.8859 0.54269 0.0
C6192 C 0.48559 0.07791 0.18859 0.0
C6193 C 0.47433 0.08896 0.17839 0.0
C6194 C 0.50445 0.09591 0.16347 0.0
C6195 C 0.51377 0.08806 0.17891 0.0
N6196 N 0.50331 0.09772 0.20686 0.0
N6197 N 0.4754 0.10806 0.15163 0.0
C6198 C 0.50247 0.08529 0.19344 0.0
C6199 C 0.48443 0.0981 0.16422 0.0
N6200 N 0.4857 0.0603 0.1838 0.0
N6201 N 0.51418 0.1013 0.14879 0.0
H6202 H 0.46134 0.10923 0.15176 0.0
H6203 H 0.48197 0.11578 0.14182 0.0
H6204 H 0.5283 0.10074 0.14863 0.0
H6205 H 0.50822 0.10578 0.13681 0.0
H6206 H 0.47605 0.05422 0.1754 0.0
H6207 H 0.47605 0.05422 0.1754 0.0
H6208 H 0.51442 0.1063 0.2088 0.0
H6209 H 0.51442 0.1063 0.2088 0.0
C6210 C 0.92025 0.49101 0.1635 0.0
C6211 C 0.91565 0.48082 0.17943 0.0
C6212 C 0.90006 0.50951 0.19035 0.0
C6213 C 0.90723 0.52048 0.17592 0.0
N6214 N 0.91476 0.51717 0.14402 0.0
N6215 N 0.89119 0.47945 0.20098 0.0
C6216 C 0.91427 0.50983 0.16098 0.0
C6217 C 0.90261 0.48981 0.19081 0.0
N6218 N 0.93122 0.48308 0.1509 0.0
N6219 N 0.89026 0.51775 0.20364 0.0
H6220 H 0.89182 0.46536 0.20119 0.0
H6221 H 0.88005 0.48472 0.20786 0.0
H6222 H 0.88612 0.53122 0.20278 0.0
H6223 H 0.88678 0.51131 0.21572 0.0
H6224 H 0.93721 0.49022 0.14031 0.0
H6225 H 0.93576 0.46976 0.15209 0.0
H6226 H 0.91833 0.50978 0.13255 0.0
H6227 H 0.90894 0.52954 0.14078 0.0
C6228 C 0.49525 0.94171 0.16479 0.0
C6229 C 0.48422 0.92781 0.17256 0.0
C6230 C 0.51257 0.9103 0.17722 0.0
C6231 C 0.52366 0.92606 0.17408 0.0
N6232 N 0.52363 0.95595 0.15982 0.0
N6233 N 0.48337 0.89786 0.18567 0.0
C6234 C 0.51449 0.94145 0.16665 0.0
C6235 C 0.49322 0.91192 0.17872 0.0
N6236 N 0.4879 0.95604 0.15576 0.0
N6237 N 0.51995 0.8933 0.17746 0.0
H6238 H 0.46931 0.89703 0.18495 0.0
H6239 H 0.48927 0.88717 0.19278 0.0
H6240 H 0.53365 0.89035 0.17722 0.0
H6241 H 0.51211 0.88158 0.17671 0.0
H6242 H 0.47405 0.95787 0.15368 0.0
H6243 H 0.47405 0.95787 0.15368 0.0
H6244 H 0.5377 0.95697 0.1591 0.0
H6245 H 0.5377 0.95697 0.1591 0.0
C6246 C 0.0856 0.51419 0.16246 0.0
C6247 C 0.08743 0.52577 0.17786 0.0
C6248 C 0.10094 0.49849 0.19398 0.0
C6249 C 0.09764 0.48638 0.17901 0.0
N6250 N 0.09583 0.48739 0.14621 0.0
N6251 N 0.10542 0.5297 0.20469 0.0
C6252 C 0.09275 0.49568 0.16243 0.0
C6253 C 0.09776 0.51811 0.19249 0.0
N6254 N 0.07719 0.5209 0.14741 0.0
N6255 N 0.10775 0.49154 0.20968 0.0
H6256 H 0.10343 0.54368 0.20407 0.0
H6257 H 0.11471 0.52562 0.2145 0.0
H6258 H 0.11252 0.47833 0.21077 0.0
H6259 H 0.10844 0.49888 0.22171 0.0
H6260 H 0.07355 0.5129 0.13636 0.0
H6261 H 0.07257 0.53422 0.14652 0.0
H6262 H 0.09422 0.49383 0.13376 0.0
H6263 H 0.10252 0.47511 0.1451 0.0
C6264 C 0.486 0.90842 0.81673 0.0
C6265 C 0.4754 0.92364 0.82265 0.0
C6266 C 0.5049 0.93733 0.83278 0.0
C6267 C 0.51542 0.92431 0.82291 0.0
N6268 N 0.51464 0.89667 0.80545 0.0
N6269 N 0.47615 0.95269 0.83773 0.0
C6270 C 0.50551 0.90974 0.81483 0.0
C6271 C 0.48532 0.9381 0.83099 0.0
N6272 N 0.47771 0.8922 0.81341 0.0
N6273 N 0.51346 0.94895 0.8444 0.0
H6274 H 0.46213 0.95312 0.8391 0.0
H6275 H 0.4825 0.96476 0.84139 0.0
H6276 H 0.52748 0.95022 0.84524 0.0
H6277 H 0.50661 0.95682 0.85389 0.0
H6278 H 0.48485 0.88013 0.81178 0.0
H6279 H 0.46376 0.89039 0.81316 0.0
H6280 H 0.50816 0.88722 0.79718 0.0
H6281 H 0.5287 0.89571 0.80509 0.0
C6282 C 0.09279 0.51364 0.83494 0.0
C6283 C 0.09601 0.5231 0.81807 0.0
C6284 C 0.09952 0.49165 0.80502 0.0
C6285 C 0.09072 0.48299 0.82009 0.0
N6286 N 0.08037 0.48718 0.85065 0.0
N6287 N 0.10741 0.5178 0.78755 0.0
C6288 C 0.08767 0.49452 0.83532 0.0
C6289 C 0.10063 0.5112 0.80335 0.0
N6290 N 0.09621 0.52226 0.85094 0.0
N6291 N 0.10713 0.48159 0.79159 0.0
H6292 H 0.10983 0.5315 0.78511 0.0
H6293 H 0.10983 0.5315 0.78511 0.0
H6294 H 0.10722 0.46745 0.79152 0.0
H6295 H 0.10722 0.46745 0.79152 0.0
H6296 H 0.09528 0.51588 0.8635 0.0
H6297 H 0.10297 0.5346 0.85168 0.0
H6298 H 0.07615 0.49496 0.86164 0.0
H6299 H 0.07745 0.47341 0.85191 0.0
C6300 C 0.49574 0.05942 0.8349 0.0
C6301 C 0.48559 0.07365 0.82654 0.0
C6302 C 0.5147 0.09134 0.82703 0.0
C6303 C 0.52549 0.07539 0.82998 0.0
N6304 N 0.52439 0.04396 0.83935 0.0
N6305 N 0.48641 0.10452 0.816 0.0
C6306 C 0.51538 0.05936 0.83451 0.0
C6307 C 0.49545 0.08995 0.82295 0.0
N6308 N 0.48671 0.0462 0.8442 0.0
N6309 N 0.52241 0.10805 0.82889 0.0
H6310 H 0.47248 0.10459 0.81374 0.0
H6311 H 0.49293 0.11611 0.81126 0.0
H6312 H 0.53573 0.11003 0.83297 0.0
H6313 H 0.51499 0.12004 0.8286 0.0
H6314 H 0.4932 0.03669 0.85237 0.0
H6315 H 0.47263 0.0455 0.84488 0.0
H6316 H 0.51819 0.03128 0.83976 0.0
H6317 H 0.53799 0.04383 0.84303 0.0
C6318 C 0.90097 0.49205 0.80988 0.0
C6319 C 0.90702 0.48125 0.82494 0.0
C6320 C 0.9172 0.51122 0.83883 0.0
C6321 C 0.91296 0.52147 0.82295 0.0
N6322 N 0.89312 0.52065 0.79672 0.0
N6323 N 0.91076 0.4847 0.85743 0.0
C6324 C 0.90245 0.51166 0.80978 0.0
C6325 C 0.91211 0.49207 0.84053 0.0
N6326 N 0.89232 0.48437 0.79555 0.0
N6327 N 0.92568 0.51985 0.85284 0.0
H6328 H 0.9049 0.47216 0.85985 0.0
H6329 H 0.91278 0.49205 0.8693 0.0
H6330 H 0.92863 0.53367 0.85266 0.0
H6331 H 0.93083 0.51311 0.86412 0.0
H6332 H 0.88939 0.47059 0.79453 0.0
H6333 H 0.88939 0.47059 0.79453 0.0
H6334 H 0.89271 0.53473 0.79581 0.0
H6335 H 0.89271 0.53473 0.79581 0.0
C6336 C 0.17844 0.49438 0.07132 0.0
C6337 C 0.1704 0.48285 0.08378 0.0
C6338 C 0.15315 0.51276 0.08915 0.0
C6339 C 0.16743 0.5234 0.08016 0.0
N6340 N 0.19475 0.51389 0.09117 0.0
N6341 N 0.1455 0.48403 0.1052 0.0
C6342 C 0.18222 0.51221 0.07798 0.0
C6343 C 0.15602 0.49286 0.09303 0.0
N6344 N 0.17177 0.49292 0.05427 0.0
N6345 N 0.13729 0.52089 0.09374 0.0
H6346 H 0.14781 0.47045 0.10819 0.0
H6347 H 0.13587 0.49057 0.11318 0.0
H6348 H 0.13466 0.53439 0.09072 0.0
H6349 H 0.12634 0.51376 0.09907 0.0
H6350 H 0.16484 0.48155 0.0494 0.0
H6351 H 0.16484 0.48155 0.0494 0.0
H6352 H 0.19589 0.52524 0.0996 0.0
H6353 H 0.19589 0.52524 0.0996 0.0
C6354 C 0.16041 0.49468 0.91688 0.0
C6355 C 0.1771 0.48684 0.91029 0.0
C6356 C 0.18573 0.51905 0.90272 0.0
C6357 C 0.17183 0.52655 0.9142 0.0
N6358 N 0.14503 0.51999 0.9315 0.0
N6359 N 0.20471 0.49329 0.89414 0.0
C6360 C 0.15911 0.51383 0.92122 0.0
C6361 C 0.1894 0.49959 0.90236 0.0
N6362 N 0.14497 0.48449 0.91744 0.0
N6363 N 0.19579 0.53043 0.89216 0.0
H6364 H 0.20677 0.47966 0.89117 0.0
H6365 H 0.21558 0.50156 0.89061 0.0
H6366 H 0.19491 0.54447 0.89284 0.0
H6367 H 0.20436 0.52592 0.88192 0.0
H6368 H 0.13232 0.48986 0.92064 0.0
H6369 H 0.14387 0.4716 0.91201 0.0
H6370 H 0.13646 0.51141 0.93872 0.0
H6371 H 0.14245 0.53372 0.93357 0.0
C6372 C 0.50436 0.1716 0.90992 0.0
C6373 C 0.49447 0.16956 0.92639 0.0
C6374 C 0.52402 0.16458 0.94166 0.0
C6375 C 0.53339 0.17248 0.92664 0.0
N6376 N 0.53202 0.1814 0.89516 0.0
N6377 N 0.49522 0.15658 0.95615 0.0
C6378 C 0.52336 0.17556 0.91045 0.0
C6379 C 0.50447 0.16384 0.94183 0.0
N6380 N 0.4963 0.16765 0.89373 0.0
N6381 N 0.53385 0.15737 0.95552 0.0
H6382 H 0.48134 0.15402 0.95571 0.0
H6383 H 0.50112 0.15189 0.96801 0.0
H6384 H 0.54774 0.15933 0.95683 0.0
H6385 H 0.52851 0.14848 0.96504 0.0
H6386 H 0.50327 0.16745 0.88146 0.0
H6387 H 0.48355 0.16175 0.89269 0.0
H6388 H 0.52518 0.18531 0.88346 0.0
H6389 H 0.54599 0.18315 0.89429 0.0
C6390 C 0.81802 0.50435 0.90702 0.0
C6391 C 0.829 0.51778 0.91561 0.0
C6392 C 0.84461 0.49231 0.93202 0.0
C6393 C 0.8333 0.4789 0.92395 0.0
N6394 N 0.8135 0.47287 0.89834 0.0
N6395 N 0.85953 0.52115 0.92757 0.0
C6396 C 0.82159 0.48515 0.9096 0.0
C6397 C 0.84427 0.51086 0.92563 0.0
N6398 N 0.80416 0.50972 0.89601 0.0
N6399 N 0.85661 0.48733 0.94518 0.0
H6400 H 0.86174 0.53314 0.92055 0.0
H6401 H 0.87135 0.51634 0.93359 0.0
H6402 H 0.85865 0.47394 0.94912 0.0
H6403 H 0.86389 0.49671 0.95285 0.0
H6404 H 0.79393 0.50101 0.89166 0.0
H6405 H 0.80261 0.52299 0.8915 0.0
H6406 H 0.80711 0.47653 0.8863 0.0
H6407 H 0.81368 0.45896 0.90043 0.0
C6408 C 0.49488 0.83513 0.93659 0.0
C6409 C 0.48435 0.8251 0.92367 0.0
C6410 C 0.51375 0.81936 0.90755 0.0
C6411 C 0.52442 0.82542 0.92267 0.0
N6412 N 0.52371 0.84042 0.95175 0.0
N6413 N 0.48512 0.80765 0.89603 0.0
C6414 C 0.5145 0.8336 0.93722 0.0
C6415 C 0.49425 0.81717 0.90902 0.0
N6416 N 0.48631 0.84669 0.94824 0.0
N6417 N 0.52196 0.81617 0.89128 0.0
H6418 H 0.47106 0.80696 0.89531 0.0
H6419 H 0.49162 0.79954 0.88647 0.0
H6420 H 0.5359 0.81627 0.88939 0.0
H6421 H 0.51476 0.81434 0.87927 0.0
H6422 H 0.49315 0.85628 0.95602 0.0
H6423 H 0.47231 0.84735 0.94965 0.0
H6424 H 0.5174 0.84397 0.96387 0.0
H6425 H 0.53771 0.84198 0.95209 0.0
C6426 C 0.83576 0.4814 0.06582 0.0
C6427 C 0.82723 0.47358 0.08132 0.0
C6428 C 0.82587 0.50445 0.09442 0.0
C6429 C 0.82925 0.51249 0.0771 0.0
N6430 N 0.84756 0.50845 0.05076 0.0
N6431 N 0.81545 0.47831 0.11144 0.0
C6432 C 0.83698 0.50086 0.06387 0.0
C6433 C 0.82252 0.48533 0.09585 0.0
N6434 N 0.84211 0.47021 0.05259 0.0
N6435 N 0.82823 0.51435 0.10988 0.0
H6436 H 0.81414 0.46446 0.11385 0.0
H6437 H 0.81005 0.48635 0.12171 0.0
H6438 H 0.83376 0.52728 0.11007 0.0
H6439 H 0.8275 0.50875 0.12282 0.0
H6440 H 0.84724 0.47473 0.04039 0.0
H6441 H 0.84122 0.45616 0.05329 0.0
H6442 H 0.85633 0.50105 0.04259 0.0
H6443 H 0.84931 0.52242 0.04956 0.0
C6444 C 0.4872 0.82401 0.09228 0.0
C6445 C 0.47641 0.8287 0.07682 0.0
C6446 C 0.50571 0.83572 0.06113 0.0
C6447 C 0.51602 0.82623 0.07451 0.0
N6448 N 0.51577 0.81247 0.10415 0.0
N6449 N 0.47675 0.84178 0.04684 0.0
C6450 C 0.50647 0.82066 0.0904 0.0
C6451 C 0.48614 0.83522 0.06135 0.0
N6452 N 0.47947 0.8235 0.10907 0.0
N6453 N 0.5145 0.84586 0.04837 0.0
H6454 H 0.46317 0.84543 0.0476 0.0
H6455 H 0.48253 0.84364 0.03409 0.0
H6456 H 0.52854 0.84627 0.04709 0.0
H6457 H 0.50792 0.85487 0.03973 0.0
H6458 H 0.48697 0.82236 0.12097 0.0
H6459 H 0.46582 0.82583 0.11144 0.0
H6460 H 0.50942 0.80616 0.11506 0.0
H6461 H 0.5298 0.81107 0.10428 0.0
C6462 C 0.51476 0.16061 0.07433 0.0
C6463 C 0.52657 0.17219 0.08432 0.0
C6464 C 0.49855 0.18633 0.09777 0.0
C6465 C 0.48677 0.17524 0.08709 0.0
N6466 N 0.48608 0.1448 0.07436 0.0
N6467 N 0.52854 0.19146 0.11075 0.0
C6468 C 0.49549 0.16032 0.07798 0.0
C6469 C 0.51807 0.18337 0.09783 0.0
N6470 N 0.52188 0.149 0.06181 0.0
N6471 N 0.49121 0.19964 0.1083 0.0
H6472 H 0.54258 0.19057 0.11094 0.0
H6473 H 0.52324 0.198 0.12207 0.0
H6474 H 0.47736 0.20079 0.11067 0.0
H6475 H 0.49886 0.20986 0.11432 0.0
H6476 H 0.51388 0.14169 0.05275 0.0
H6477 H 0.53574 0.14725 0.05989 0.0
H6478 H 0.49214 0.13319 0.0691 0.0
H6479 H 0.47316 0.14215 0.07922 0.0
C6480 C 0.5958 0.70121 0.98214 0.0
C6481 C 0.58634 0.6872 0.97248 0.0
C6482 C 0.58998 0.66912 0.00119 0.0
C6483 C 0.59355 0.68488 0.01225 0.0
N6484 N 0.60367 0.71593 0.01082 0.0
N6485 N 0.5764 0.65623 0.97385 0.0
C6486 C 0.59749 0.70095 0.00195 0.0
C6487 C 0.5841 0.67073 0.98238 0.0
N6488 N 0.60433 0.71429 0.9723 0.0
N6489 N 0.59338 0.6523 0.00806 0.0
H6490 H 0.57235 0.65658 0.96034 0.0
H6491 H 0.57249 0.64449 0.98065 0.0
H6492 H 0.60002 0.65031 0.02029 0.0
H6493 H 0.59243 0.64047 1.00041 0.0
H6494 H 0.61316 0.72377 0.97791 0.0
H6495 H 0.60357 0.71469 0.95822 0.0
H6496 H 0.60498 0.72857 0.00467 0.0
H6497 H 0.60742 0.71579 0.02441 0.0
C6498 C 0.33836 0.5854 0.00499 0.0
C6499 C 0.32257 0.59281 0.01381 0.0
C6500 C 0.31157 0.59947 0.98214 0.0
C6501 C 0.32449 0.58727 0.97402 0.0
N6502 N 0.35125 0.56937 0.97916 0.0
N6503 N 0.29508 0.60968 0.009 0.0
C6504 C 0.33801 0.58032 0.98598 0.0
C6505 C 0.30955 0.60071 0.00179 0.0
N6506 N 0.35452 0.58483 0.01398 0.0
N6507 N 0.30078 0.60979 0.97121 0.0
H6508 H 0.29427 0.61323 0.02262 0.0
H6509 H 0.28365 0.61324 0.00153 0.0
H6510 H 0.30019 0.60834 0.95722 0.0
H6511 H 0.29298 0.62052 0.97597 0.0
H6512 H 0.3666 0.58088 0.00787 0.0
H6513 H 0.35673 0.59108 0.02639 0.0
H6514 H 0.36024 0.5622 0.98735 0.0
H6515 H 0.3527 0.56671 0.96537 0.0
C6516 C 0.40372 0.31602 0.00471 0.0
C6517 C 0.40585 0.3327 0.01486 0.0
C6518 C 0.41935 0.34501 0.98523 0.0
C6519 C 0.41869 0.32783 0.97592 0.0
N6520 N 0.4016 0.29984 0.97662 0.0
N6521 N 0.40852 0.36491 0.00959 0.0
C6522 C 0.40846 0.31436 0.9856 0.0
C6523 C 0.41139 0.34772 0.00346 0.0
N6524 N 0.39579 0.30127 0.01236 0.0
N6525 N 0.42815 0.35896 0.97689 0.0
H6526 H 0.40164 0.36764 0.02158 0.0
H6527 H 0.41063 0.37641 0.00171 0.0
H6528 H 0.43373 0.35773 0.96397 0.0
H6529 H 0.43136 0.37108 0.98336 0.0
H6530 H 0.39058 0.30098 0.02547 0.0
H6531 H 0.39058 0.30098 0.02547 0.0
H6532 H 0.40287 0.29801 0.96265 0.0
H6533 H 0.40287 0.29801 0.96265 0.0
C6534 C 0.66256 0.41319 0.01126 0.0
C6535 C 0.67765 0.40736 0.02238 0.0
C6536 C 0.69426 0.40488 0.99245 0.0
C6537 C 0.68198 0.4169 0.98323 0.0
N6538 N 0.6519 0.42933 0.98424 0.0
N6539 N 0.7069 0.39305 0.02071 0.0
C6540 C 0.66526 0.41975 0.99271 0.0
C6541 C 0.69314 0.40176 0.01201 0.0
N6542 N 0.64535 0.41171 0.01782 0.0
N6543 N 0.70605 0.39491 0.98232 0.0
H6544 H 0.70578 0.38851 0.03403 0.0
H6545 H 0.71955 0.3909 0.01482 0.0
H6546 H 0.70664 0.39586 0.96825 0.0
H6547 H 0.71393 0.38448 0.98764 0.0
H6548 H 0.63387 0.41448 0.0101 0.0
H6549 H 0.64225 0.4049 0.02973 0.0
H6550 H 0.64049 0.43421 0.99095 0.0
H6551 H 0.65296 0.43367 0.97084 0.0
C6552 C 0.59913 0.30233 0.01715 0.0
C6553 C 0.5894 0.31691 0.02559 0.0
C6554 C 0.59582 0.33386 0.9967 0.0
C6555 C 0.59957 0.31759 0.9865 0.0
N6556 N 0.60862 0.28636 0.98969 0.0
N6557 N 0.58073 0.34813 0.02253 0.0
C6558 C 0.60226 0.30181 0.99756 0.0
C6559 C 0.58846 0.3331 0.01504 0.0
N6560 N 0.60649 0.28939 0.02803 0.0
N6561 N 0.6005 0.35027 0.98957 0.0
H6562 H 0.57586 0.34841 0.03577 0.0
H6563 H 0.57783 0.35979 0.01511 0.0
H6564 H 0.60842 0.35152 0.97797 0.0
H6565 H 0.59926 0.36242 0.99665 0.0
H6566 H 0.61531 0.27938 0.02346 0.0
H6567 H 0.60487 0.28981 0.04201 0.0
H6568 H 0.60905 0.27391 0.99633 0.0
H6569 H 0.61346 0.28593 0.97647 0.0
C6570 C 0.69073 0.60306 0.99296 0.0
C6571 C 0.67561 0.60012 0.98103 0.0
C6572 C 0.65956 0.58692 0.00853 0.0
C6573 C 0.67522 0.58821 0.01987 0.0
N6574 N 0.7017 0.60666 0.02406 0.0
N6575 N 0.6429 0.59838 0.98238 0.0
C6576 C 0.68959 0.59905 0.01239 0.0
C6577 C 0.6592 0.59481 0.99032 0.0
N6578 N 0.7062 0.61043 0.98607 0.0
N6579 N 0.6446 0.57829 0.01516 0.0
H6580 H 0.64171 0.60601 0.97061 0.0
H6581 H 0.63052 0.59629 0.9888 0.0
H6582 H 0.64402 0.57301 0.02825 0.0
H6583 H 0.63341 0.57503 0.00721 0.0
H6584 H 0.71835 0.61098 0.99324 0.0
H6585 H 0.70696 0.6159 0.9731 0.0
H6586 H 0.71126 0.6163 0.02022 0.0
H6587 H 0.70109 0.60435 0.03794 0.0
C6588 C 0.39587 0.69501 0.00496 0.0
C6589 C 0.4072 0.68185 0.01392 0.0
C6590 C 0.40658 0.66585 0.9836 0.0
C6591 C 0.40117 0.68182 0.97357 0.0
N6592 N 0.38729 0.71113 0.97718 0.0
N6593 N 0.42111 0.65268 0.01047 0.0
C6594 C 0.39484 0.69623 0.98507 0.0
C6595 C 0.41201 0.66678 0.00271 0.0
N6596 N 0.38578 0.70643 0.01541 0.0
N6597 N 0.40516 0.64928 0.97552 0.0
H6598 H 0.42435 0.65231 0.02421 0.0
H6599 H 0.42624 0.64179 0.0031 0.0
H6600 H 0.39886 0.64737 0.96307 0.0
H6601 H 0.40753 0.63714 0.98231 0.0
H6602 H 0.37589 0.71501 0.01015 0.0
H6603 H 0.38639 0.70633 0.02951 0.0
H6604 H 0.38437 0.72297 0.98427 0.0
H6605 H 0.38434 0.71182 0.96341 0.0
C6606 C 0.33146 0.41034 0.98299 0.0
C6607 C 0.33646 0.42523 0.97173 0.0
C6608 C 0.34223 0.44279 0.00061 0.0
C6609 C 0.33466 0.42869 0.01157 0.0
N6610 N 0.33505 0.39584 0.0122 0.0
N6611 N 0.35058 0.45462 0.97064 0.0
C6612 C 0.33296 0.41148 0.00255 0.0
C6613 C 0.34351 0.44094 0.98089 0.0
N6614 N 0.32576 0.39462 0.97507 0.0
N6615 N 0.34996 0.4572 0.00926 0.0
H6616 H 0.35179 0.45379 0.95662 0.0
H6617 H 0.35451 0.46715 0.97568 0.0
H6618 H 0.34983 0.45865 0.02331 0.0
H6619 H 0.35847 0.46649 0.00301 0.0
H6620 H 0.32017 0.38391 0.98236 0.0
H6621 H 0.32583 0.39256 0.9611 0.0
H6622 H 0.33563 0.38308 0.00619 0.0
H6623 H 0.33903 0.39551 0.02569 0.0
C6624 C 0.99367 0.56356 0.67354 0.0
C6625 C 0.98401 0.58008 0.67602 0.0
C6626 C 0.01419 0.5952 0.67942 0.0
C6627 C 0.02358 0.57839 0.67762 0.0
N6628 N 0.02141 0.54872 0.66452 0.0
N6629 N 0.98703 0.61262 0.67263 0.0
C6630 C 0.01308 0.56324 0.67226 0.0
C6631 C 0.99482 0.59625 0.67623 0.0
N6632 N 0.98445 0.54772 0.67194 0.0
N6633 N 0.02374 0.61041 0.68387 0.0
H6634 H 0.97341 0.61424 0.66952 0.0
H6635 H 0.9945 0.62446 0.67083 0.0
H6636 H 0.03777 0.61047 0.68547 0.0
H6637 H 0.01759 0.62265 0.68726 0.0
H6638 H 0.99048 0.53566 0.67577 0.0
H6639 H 0.97109 0.54677 0.66751 0.0
H6640 H 0.01416 0.53959 0.65663 0.0
H6641 H 0.03543 0.54705 0.66406 0.0
C6642 C 0.40146 0.00268 0.69889 0.0
C6643 C 0.40581 0.01341 0.68319 0.0
C6644 C 0.41463 0.98364 0.66837 0.0
C6645 C 0.41197 0.97344 0.68458 0.0
N6646 N 0.39517 0.97403 0.71278 0.0
N6647 N 0.40666 0.01008 0.65047 0.0
C6648 C 0.40305 0.98313 0.69887 0.0
C6649 C 0.40941 0.00268 0.66718 0.0
N6650 N 0.39436 0.01034 0.71405 0.0
N6651 N 0.42213 0.97517 0.65373 0.0
H6652 H 0.40073 0.02265 0.64857 0.0
H6653 H 0.40752 0.00271 0.63847 0.0
H6654 H 0.42549 0.96146 0.6537 0.0
H6655 H 0.42648 0.98209 0.64221 0.0
H6656 H 0.39135 0.02407 0.71534 0.0
H6657 H 0.39135 0.02407 0.71534 0.0
H6658 H 0.39505 0.95993 0.71371 0.0
H6659 H 0.39505 0.95993 0.71371 0.0
C6660 C 0.01701 0.40555 0.6818 0.0
C6661 C 0.02462 0.41894 0.66977 0.0
C6662 C 0.99284 0.4235 0.65891 0.0
C6663 C 0.9851 0.41421 0.67427 0.0
N6664 N 0.99228 0.39226 0.69778 0.0
N6665 N 0.01811 0.44035 0.646 0.0
C6666 C 0.99783 0.40425 0.68492 0.0
C6667 C 0.01196 0.428 0.65831 0.0
N6668 N 0.0276 0.39395 0.69149 0.0
N6669 N 0.98267 0.42624 0.64369 0.0
H6670 H 0.03182 0.44272 0.64362 0.0
H6671 H 0.00951 0.44885 0.63873 0.0
H6672 H 0.97011 0.42028 0.64158 0.0
H6673 H 0.9879 0.43171 0.63178 0.0
H6674 H 0.04169 0.39367 0.69108 0.0
H6675 H 0.04169 0.39367 0.69108 0.0
H6676 H 0.97877 0.38922 0.70051 0.0
H6677 H 0.97877 0.38922 0.70051 0.0
C6678 C 0.60425 0.98479 0.69221 0.0
C6679 C 0.59696 0.97295 0.67851 0.0
C6680 C 0.58645 0.00195 0.66292 0.0
C6681 C 0.59198 0.0134 0.67753 0.0
N6682 N 0.61306 0.01488 0.70255 0.0
N6683 N 0.59189 0.97418 0.646 0.0
C6684 C 0.60331 0.00454 0.69073 0.0
C6685 C 0.59125 0.98268 0.66241 0.0
N6686 N 0.61318 0.97783 0.70674 0.0
N6687 N 0.5772 0.00958 0.64884 0.0
H6688 H 0.59743 0.96141 0.64413 0.0
H6689 H 0.5895 0.98079 0.63377 0.0
H6690 H 0.57454 0.02344 0.64805 0.0
H6691 H 0.57146 0.00209 0.63834 0.0
H6692 H 0.61544 0.96404 0.70876 0.0
H6693 H 0.61544 0.96404 0.70876 0.0
H6694 H 0.62148 0.00924 0.71242 0.0
H6695 H 0.61291 0.02899 0.70223 0.0
C6696 C 0.99849 0.4172 0.32022 0.0
C6697 C 0.01034 0.40824 0.33141 0.0
C6698 C 0.98033 0.39676 0.34416 0.0
C6699 C 0.97072 0.41147 0.33502 0.0
N6700 N 0.98579 0.43743 0.3416 0.0
N6701 N 0.01025 0.38606 0.35564 0.0
C6702 C 0.98301 0.42418 0.32933 0.0
C6703 C 0.00064 0.39659 0.34404 0.0
N6704 N 0.99638 0.40956 0.30367 0.0
N6705 N 0.97076 0.38385 0.35316 0.0
H6706 H 0.02435 0.38643 0.35562 0.0
H6707 H 0.00423 0.37821 0.3657 0.0
H6708 H 0.95668 0.38432 0.35411 0.0
H6709 H 0.97683 0.37249 0.3589 0.0
H6710 H 0.00596 0.40099 0.29772 0.0
H6711 H 0.00596 0.40099 0.29772 0.0
H6712 H 0.97675 0.44052 0.35208 0.0
H6713 H 0.97675 0.44052 0.35208 0.0
C6714 C 0.5905 0.00969 0.34285 0.0
C6715 C 0.59632 0.01992 0.32709 0.0
C6716 C 0.60205 0.9887 0.31375 0.0
C6717 C 0.59071 0.97935 0.32667 0.0
N6718 N 0.57627 0.9824 0.3556 0.0
N6719 N 0.61262 0.01554 0.2988 0.0
C6720 C 0.58548 0.99042 0.34172 0.0
C6721 C 0.60339 0.00839 0.31304 0.0
N6722 N 0.59122 0.0177 0.35949 0.0
N6723 N 0.61161 0.97926 0.30115 0.0
H6724 H 0.61522 0.02934 0.29723 0.0
H6725 H 0.61522 0.02934 0.29723 0.0
H6726 H 0.61165 0.96515 0.3003 0.0
H6727 H 0.61165 0.96515 0.3003 0.0
H6728 H 0.58881 0.01075 0.37153 0.0
H6729 H 0.59672 0.03045 0.36167 0.0
H6730 H 0.57078 0.98955 0.36646 0.0
H6731 H 0.57341 0.96856 0.35587 0.0
C6732 C 0.98605 0.56628 0.33509 0.0
C6733 C 0.97491 0.57818 0.32447 0.0
C6734 C 0.00372 0.59546 0.31846 0.0
C6735 C 0.01492 0.58077 0.32454 0.0
N6736 N 0.01453 0.55366 0.34335 0.0
N6737 N 0.97446 0.60585 0.30705 0.0
C6738 C 0.00545 0.56669 0.33396 0.0
C6739 C 0.98421 0.5932 0.31639 0.0
N6740 N 0.97875 0.55375 0.3465 0.0
N6741 N 0.01132 0.6121 0.31581 0.0
H6742 H 0.96037 0.60583 0.30643 0.0
H6743 H 0.98046 0.61592 0.29919 0.0
H6744 H 0.02506 0.61466 0.31749 0.0
H6745 H 0.00372 0.62377 0.31355 0.0
H6746 H 0.9649 0.55167 0.34834 0.0
H6747 H 0.9649 0.55167 0.34834 0.0
H6748 H 0.02859 0.55315 0.34469 0.0
H6749 H 0.02859 0.55315 0.34469 0.0
C6750 C 0.41168 0.99152 0.33465 0.0
C6751 C 0.40766 0.9821 0.31788 0.0
C6752 C 0.40085 0.01349 0.306 0.0
C6753 C 0.41066 0.02241 0.32029 0.0
N6754 N 0.42381 0.01847 0.34977 0.0
N6755 N 0.39296 0.98715 0.28877 0.0
C6756 C 0.4157 0.01089 0.33496 0.0
C6757 C 0.4008 0.99393 0.30399 0.0
N6758 N 0.41019 0.98261 0.35079 0.0
N6759 N 0.39161 0.02331 0.29344 0.0
H6760 H 0.39128 0.97335 0.28624 0.0
H6761 H 0.39128 0.97335 0.28624 0.0
H6762 H 0.39079 0.03742 0.29368 0.0
H6763 H 0.39079 0.03742 0.29368 0.0
H6764 H 0.41147 0.98904 0.36329 0.0
H6765 H 0.40489 0.96967 0.35208 0.0
H6766 H 0.42931 0.01089 0.36033 0.0
H6767 H 0.4258 0.03239 0.35114 0.0
C6768 C 0.67528 0.98694 0.58407 0.0
C6769 C 0.67898 0.97272 0.59584 0.0
C6770 C 0.67811 1.00057 0.61769 0.0
C6771 C 0.67937 0.01341 0.60254 0.0
N6772 N 0.70269 0.0028 0.58714 0.0
N6773 N 0.68158 0.96856 0.62855 0.0
C6774 C 0.6846 0.00362 0.58778 0.0
C6775 C 0.67945 0.98019 0.61442 0.0
N6776 N 0.65841 0.98735 0.57688 0.0
N6777 N 0.67649 0.00744 0.63468 0.0
H6778 H 0.68282 0.95464 0.6266 0.0
H6779 H 0.68312 0.97281 0.6419 0.0
H6780 H 0.67676 0.02139 0.6369 0.0
H6781 H 0.67434 0.99948 0.64611 0.0
H6782 H 0.64985 0.97606 0.57661 0.0
H6783 H 0.64985 0.97606 0.57661 0.0
H6784 H 0.71164 0.01155 0.59386 0.0
H6785 H 0.71164 0.01155 0.59386 0.0
C6786 C 0.66161 0.98877 0.41229 0.0
C6787 C 0.67785 0.97935 0.40655 0.0
C6788 C 0.6896 0.01126 0.40087 0.0
C6789 C 0.6765 0.01961 0.4127 0.0
N6790 N 0.64777 0.01511 0.42716 0.0
N6791 N 0.70627 0.98408 0.3913 0.0
C6792 C 0.66195 0.00787 0.41776 0.0
C6793 C 0.69151 0.99141 0.39963 0.0
N6794 N 0.64531 0.98012 0.41111 0.0
N6795 N 0.70029 0.02229 0.39059 0.0
H6796 H 0.70734 0.97031 0.38846 0.0
H6797 H 0.71762 0.99159 0.38759 0.0
H6798 H 0.6995 0.03638 0.39136 0.0
H6799 H 0.70887 0.01754 0.38046 0.0
H6800 H 0.633 0.98646 0.41379 0.0
H6801 H 0.64368 0.9677 0.40467 0.0
H6802 H 0.63723 0.00737 0.43247 0.0
H6803 H 0.647 0.02884 0.43042 0.0
C6804 C 0.00852 0.6826 0.42864 0.0
C6805 C 0.02095 0.66965 0.42385 0.0
C6806 C 0.99328 0.65317 0.41231 0.0
C6807 C 0.98181 0.66526 0.42242 0.0
N6808 N 0.98572 0.68039 0.45105 0.0
N6809 N 0.02393 0.64096 0.40768 0.0
C6810 C 0.99121 0.67706 0.43392 0.0
C6811 C 0.01307 0.65416 0.41466 0.0
N6812 N 0.00964 0.69833 0.41981 0.0
N6813 N 0.98562 0.64076 0.40097 0.0
H6814 H 0.03796 0.6419 0.40732 0.0
H6815 H 0.01893 0.62875 0.40267 0.0
H6816 H 0.97166 0.6388 0.40026 0.0
H6817 H 0.99306 0.63292 0.39192 0.0
H6818 H 0.01968 0.70147 0.41033 0.0
H6819 H 0.01968 0.70147 0.41033 0.0
H6820 H 0.9748 0.67391 0.45723 0.0
H6821 H 0.9748 0.67391 0.45723 0.0
C6822 C 0.33899 0.01285 0.41891 0.0
C6823 C 0.32463 0.02321 0.41047 0.0
C6824 C 0.3159 0.99296 0.39654 0.0
C6825 C 0.32594 0.98262 0.40974 0.0
N6826 N 0.34911 0.98446 0.43257 0.0
N6827 N 0.30115 0.0215 0.3879 0.0
C6828 C 0.33789 0.99319 0.42075 0.0
C6829 C 0.31368 0.0127 0.39826 0.0
N6830 N 0.3548 0.02121 0.42365 0.0
N6831 N 0.30813 0.98399 0.38236 0.0
H6832 H 0.30029 0.03557 0.38727 0.0
H6833 H 0.2912 0.01485 0.38042 0.0
H6834 H 0.3088 0.96998 0.38094 0.0
H6835 H 0.30225 0.99053 0.37133 0.0
H6836 H 0.3661 0.0142 0.42836 0.0
H6837 H 0.35792 0.03451 0.42034 0.0
H6838 H 0.35678 0.99121 0.44232 0.0
H6839 H 0.35031 0.9704 0.43308 0.0
C6840 C 0.98719 0.3347 0.40759 0.0
C6841 C 0.97791 0.32393 0.42142 0.0
C6842 C 0.00726 0.31654 0.43176 0.0
C6843 C 0.01778 0.3213 0.41698 0.0
N6844 N 0.01479 0.33754 0.38842 0.0
N6845 N 0.98821 0.29516 0.41768 0.0
C6846 C 0.00698 0.33159 0.40397 0.0
C6847 C 0.9895 0.3106 0.42734 0.0
N6848 N 0.9776 0.34694 0.39773 0.0
N6849 N 0.00965 0.32676 0.44684 0.0
H6850 H 0.97688 0.29159 0.40993 0.0
H6851 H 0.97688 0.29159 0.40993 0.0
H6852 H 0.021 0.33493 0.44914 0.0
H6853 H 0.021 0.33493 0.44914 0.0
H6854 H 0.9837 0.35589 0.38868 0.0
H6855 H 0.96368 0.34859 0.39938 0.0
H6856 H 0.0075 0.3438 0.37808 0.0
H6857 H 0.02828 0.33478 0.38539 0.0
C6858 C 0.33935 0.00983 0.59688 0.0
C6859 C 0.32579 0.0202 0.58679 0.0
C6860 C 0.3148 0.99104 0.57835 0.0
C6861 C 0.32951 0.97995 0.5813 0.0
N6862 N 0.35709 0.98116 0.59952 0.0
N6863 N 0.32594 0.01217 0.55647 0.0
C6864 C 0.3425 0.99003 0.5926 0.0
C6865 C 0.3188 0.00929 0.57314 0.0
N6866 N 0.34887 0.01827 0.61017 0.0
N6867 N 0.30151 0.9886 0.59058 0.0
H6868 H 0.3329 0.02394 0.55275 0.0
H6869 H 0.3329 0.02394 0.55275 0.0
H6870 H 0.30001 0.97689 0.59845 0.0
H6871 H 0.30001 0.97689 0.59845 0.0
H6872 H 0.35763 0.01141 0.61883 0.0
H6873 H 0.34687 0.03192 0.61315 0.0
H6874 H 0.3675 0.98773 0.60642 0.0
H6875 H 0.35907 0.96733 0.59758 0.0
C6876 C 0.98067 0.30889 0.60184 0.0
C6877 C 0.9715 0.3212 0.58993 0.0
C6878 C 0.00138 0.33742 0.58823 0.0
C6879 C 0.0115 0.32222 0.59523 0.0
N6880 N 0.00778 0.29449 0.6127 0.0
N6881 N 0.9745 0.3486 0.57252 0.0
C6882 C 1.00033 0.30824 0.60297 0.0
C6883 C 0.98237 0.33574 0.58323 0.0
N6884 N 0.97068 0.29771 0.61262 0.0
N6885 N 0.00923 0.35418 0.5879 0.0
H6886 H 0.96073 0.34865 0.56939 0.0
H6887 H 0.98195 0.35845 0.56566 0.0
H6888 H 0.02141 0.35704 0.59437 0.0
H6889 H 0.0023 0.36587 0.58412 0.0
H6890 H 0.97657 0.28865 0.62175 0.0
H6891 H 0.95657 0.29787 0.61264 0.0
H6892 H 0.02158 0.29324 0.6154 0.0
H6893 H 0.02158 0.29324 0.6154 0.0
C6894 C 0.9946 0.6624 0.55936 0.0
C6895 C 0.98465 0.67281 0.57247 0.0
C6896 C 0.01371 0.67217 0.59089 0.0
C6897 C 0.02459 0.66633 0.57573 0.0
N6898 N 0.02337 0.65324 0.54586 0.0
N6899 N 0.98559 0.68564 0.6024 0.0
C6900 C 0.01432 0.66068 0.56015 0.0
C6901 C 0.99451 0.67692 0.58873 0.0
N6902 N 0.98513 0.65302 0.54652 0.0
N6903 N 0.02151 0.67317 0.60763 0.0
H6904 H 0.97179 0.68852 0.60194 0.0
H6905 H 0.99208 0.69131 0.61357 0.0
H6906 H 0.03506 0.67035 0.61006 0.0
H6907 H 0.01418 0.67518 0.61951 0.0
H6908 H 0.99098 0.64337 0.53806 0.0
H6909 H 0.97112 0.65387 0.54512 0.0
H6910 H 0.01758 0.65154 0.53309 0.0
H6911 H 0.03691 0.64932 0.54661 0.0
loop_
_geom_bond_atom_site_label_1
_geom_bond_atom_site_label_2
_geom_bond_distance
_geom_bond_site_symmetry_2
_ccdc_geom_bond_type
Mn0 O5 2.095 . S
Mn0 O15 2.162 . S
Mn0 O16 2.297 . S
Mn0 O24 2.385 . S
Mn0 O25 2.209 . S
Mn0 O26 2.094 . S
Mn1 O6 2.121 . S
Mn1 N8 2.257 . S
Mn1 N17 2.282 . S
Mn1 O25 2.215 . S
Mn1 O27 2.117 . S
C2 O24 1.234 . S
C2 O25 1.283 . S
C3 O15 1.281 . S
C3 O16 1.236 . S
C4 O26 1.240 . S
C4 O27 1.264 . S
O5 Mn0 2.095 . S
O5 C14 1.250 . S
O6 Mn1 2.121 . S
O6 C14 1.258 . S
C7 N8 1.326 . S
C7 C11 1.460 . S
C7 H13 0.929 . S
N8 Mn1 2.257 . S
N8 C7 1.326 . S
N8 C12 1.362 . S
C9 C10 1.258 . S
C9 C12 1.431 . S
C9 C29 1.449 . S
C10 C9 1.258 . S
C10 C11 1.477 . S
C10 H30 0.931 . S
C11 C7 1.460 . S
C11 C10 1.477 . S
C11 H31 0.930 1_455 S
C12 N8 1.362 . S
C12 C9 1.431 . S
C12 C22 1.476 . S
H13 C7 0.929 . S
C14 O5 1.250 . S
C14 O6 1.258 . S
O15 Mn0 2.162 . S
O15 C3 1.281 . S
O16 Mn0 2.297 . S
O16 C3 1.236 . S
N17 Mn1 2.282 . S
N17 C18 1.328 . S
N17 C22 1.318 . S
C18 N17 1.328 . S
C18 C19 1.457 . S
C18 H23 0.929 . S
C19 C18 1.457 . S
C19 C20 1.291 . S
C19 H32 0.931 . S
C20 C19 1.291 . S
C20 C21 1.373 . S
C20 H33 0.929 . S
C21 C20 1.373 . S
C21 C22 1.396 . S
C21 C28 1.403 . S
C22 C12 1.476 . S
C22 N17 1.318 . S
C22 C21 1.396 . S
H23 C18 0.929 . S
O24 Mn0 2.385 . S
O24 C2 1.234 . S
O25 Mn0 2.209 . S
O25 Mn1 2.215 . S
O25 C2 1.283 . S
O26 Mn0 2.094 . S
O26 C4 1.240 . S
O27 Mn1 2.117 . S
O27 C4 1.264 . S
C28 C21 1.403 . S
C28 C29 1.399 . S
C28 H34 0.929 . S
C29 C9 1.449 . S
C29 C28 1.399 . S
C29 H35 0.930 . S
H30 C10 0.931 . S
H31 C11 0.930 1_655 S
H32 C19 0.931 . S
H33 C20 0.929 . S
H34 C28 0.929 . S
H35 C29 0.930 . S
Mn36 O41 2.095 . S
Mn36 O51 2.162 . S
Mn36 O52 2.297 . S
Mn36 O60 2.385 . S
Mn36 O61 2.209 . S
Mn36 O62 2.094 . S
Mn37 O42 2.121 . S
Mn37 N44 2.257 . S
Mn37 N53 2.282 . S
Mn37 O61 2.215 . S
Mn37 O63 2.117 . S
C38 O60 1.234 . S
C38 O61 1.283 . S
C39 O51 1.281 . S
C39 O52 1.236 . S
C40 O62 1.240 . S
C40 O63 1.264 . S
O41 Mn36 2.095 . S
O41 C50 1.250 . S
O42 Mn37 2.121 . S
O42 C50 1.258 . S
C43 N44 1.326 . S
C43 C47 1.460 . S
C43 H49 0.929 . S
N44 Mn37 2.257 . S
N44 C43 1.326 . S
N44 C48 1.362 . S
C45 C46 1.258 . S
C45 C48 1.431 . S
C45 C65 1.449 . S
C46 C45 1.258 . S
C46 C47 1.477 . S
C46 H66 0.931 . S
C47 C43 1.460 . S
C47 C46 1.477 . S
C47 H67 0.930 1_545 S
C48 N44 1.362 . S
C48 C45 1.431 . S
C48 C58 1.476 . S
H49 C43 0.929 . S
C50 O41 1.250 . S
C50 O42 1.258 . S
O51 Mn36 2.162 . S
O51 C39 1.281 . S
O52 Mn36 2.297 . S
O52 C39 1.236 . S
N53 Mn37 2.282 . S
N53 C54 1.328 . S
N53 C58 1.318 . S
C54 N53 1.328 . S
C54 C55 1.457 . S
C54 H59 0.929 . S
C55 C54 1.457 . S
C55 C56 1.291 . S
C55 H68 0.931 . S
C56 C55 1.291 . S
C56 C57 1.373 . S
C56 H69 0.929 . S
C57 C56 1.373 . S
C57 C58 1.396 . S
C57 C64 1.403 . S
C58 C48 1.476 . S
C58 N53 1.318 . S
C58 C57 1.396 . S
H59 C54 0.929 . S
O60 Mn36 2.385 . S
O60 C38 1.234 . S
O61 Mn36 2.209 . S
O61 Mn37 2.215 . S
O61 C38 1.283 . S
O62 Mn36 2.094 . S
O62 C40 1.240 . S
O63 Mn37 2.117 . S
O63 C40 1.264 . S
C64 C57 1.403 . S
C64 C65 1.399 . S
C64 H70 0.929 . S
C65 C45 1.449 . S
C65 C64 1.399 . S
C65 H71 0.930 . S
H66 C46 0.931 . S
H67 C47 0.930 1_565 S
H68 C55 0.931 . S
H69 C56 0.929 . S
H70 C64 0.929 . S
H71 C65 0.930 . S
Mn72 O77 2.095 . S
Mn72 O87 2.162 . S
Mn72 O88 2.297 . S
Mn72 O96 2.385 . S
Mn72 O97 2.209 . S
Mn72 O98 2.094 . S
Mn73 O78 2.121 . S
Mn73 N80 2.257 . S
Mn73 N89 2.282 . S
Mn73 O97 2.215 . S
Mn73 O99 2.117 . S
C74 O96 1.234 . S
C74 O97 1.283 . S
C75 O87 1.281 . S
C75 O88 1.236 . S
C76 O98 1.240 . S
C76 O99 1.264 . S
O77 Mn72 2.095 . S
O77 C86 1.250 . S
O78 Mn73 2.121 . S
O78 C86 1.258 . S
C79 N80 1.326 . S
C79 C83 1.460 . S
C79 H85 0.929 . S
N80 Mn73 2.257 . S
N80 C79 1.326 . S
N80 C84 1.362 . S
C81 C82 1.258 . S
C81 C84 1.431 . S
C81 C101 1.449 . S
C82 C81 1.258 . S
C82 C83 1.477 . S
C82 H102 0.931 . S
C83 C79 1.460 . S
C83 C82 1.477 . S
C83 H103 0.930 1_655 S
C84 N80 1.362 . S
C84 C81 1.431 . S
C84 C94 1.476 . S
H85 C79 0.929 . S
C86 O77 1.250 . S
C86 O78 1.258 . S
O87 Mn72 2.162 . S
O87 C75 1.281 . S
O88 Mn72 2.297 . S
O88 C75 1.236 . S
N89 Mn73 2.282 . S
N89 C90 1.328 . S
N89 C94 1.318 . S
C90 N89 1.328 . S
C90 C91 1.457 . S
C90 H95 0.929 . S
C91 C90 1.457 . S
C91 C92 1.291 . S
C91 H104 0.931 . S
C92 C91 1.291 . S
C92 C93 1.373 . S
C92 H105 0.929 . S
C93 C92 1.373 . S
C93 C94 1.396 . S
C93 C100 1.403 . S
C94 C84 1.476 . S
C94 N89 1.318 . S
C94 C93 1.396 . S
H95 C90 0.929 . S
O96 Mn72 2.385 . S
O96 C74 1.234 . S
O97 Mn72 2.209 . S
O97 Mn73 2.215 . S
O97 C74 1.283 . S
O98 Mn72 2.094 . S
O98 C76 1.240 . S
O99 Mn73 2.117 . S
O99 C76 1.264 . S
C100 C93 1.403 . S
C100 C101 1.399 . S
C100 H106 0.929 . S
C101 C81 1.449 . S
C101 C100 1.399 . S
C101 H107 0.930 . S
H102 C82 0.931 . S
H103 C83 0.930 1_455 S
H104 C91 0.931 . S
H105 C92 0.929 . S
H106 C100 0.929 . S
H107 C101 0.930 . S
Mn108 O113 2.095 . S
Mn108 O123 2.162 . S
Mn108 O124 2.297 . S
Mn108 O132 2.385 . S
Mn108 O133 2.209 . S
Mn108 O134 2.094 . S
Mn109 O114 2.121 . S
Mn109 N116 2.257 . S
Mn109 N125 2.282 . S
Mn109 O133 2.215 . S
Mn109 O135 2.117 . S
C110 O132 1.234 . S
C110 O133 1.283 . S
C111 O123 1.281 . S
C111 O124 1.236 . S
C112 O134 1.240 . S
C112 O135 1.264 . S
O113 Mn108 2.095 . S
O113 C122 1.250 . S
O114 Mn109 2.121 . S
O114 C122 1.258 . S
C115 N116 1.326 . S
C115 C119 1.460 . S
C115 H121 0.929 . S
N116 Mn109 2.257 . S
N116 C115 1.326 . S
N116 C120 1.362 . S
C117 C118 1.258 . S
C117 C120 1.431 . S
C117 C137 1.449 . S
C118 C117 1.258 . S
C118 C119 1.477 . S
C118 H138 0.931 . S
C119 C115 1.460 . S
C119 C118 1.477 . S
C119 H139 0.930 1_565 S
C120 N116 1.362 . S
C120 C117 1.431 . S
C120 C130 1.476 . S
H121 C115 0.929 . S
C122 O113 1.250 . S
C122 O114 1.258 . S
O123 Mn108 2.162 . S
O123 C111 1.281 . S
O124 Mn108 2.297 . S
O124 C111 1.236 . S
N125 Mn109 2.282 . S
N125 C126 1.328 . S
N125 C130 1.318 . S
C126 N125 1.328 . S
C126 C127 1.457 . S
C126 H131 0.929 . S
C127 C126 1.457 . S
C127 C128 1.291 . S
C127 H140 0.931 . S
C128 C127 1.291 . S
C128 C129 1.373 . S
C128 H141 0.929 . S
C129 C128 1.373 . S
C129 C130 1.396 . S
C129 C136 1.403 . S
C130 C120 1.476 . S
C130 N125 1.318 . S
C130 C129 1.396 . S
H131 C126 0.929 . S
O132 Mn108 2.385 . S
O132 C110 1.234 . S
O133 Mn108 2.209 . S
O133 Mn109 2.215 . S
O133 C110 1.283 . S
O134 Mn108 2.094 . S
O134 C112 1.240 . S
O135 Mn109 2.117 . S
O135 C112 1.264 . S
C136 C129 1.403 . S
C136 C137 1.399 . S
C136 H142 0.929 . S
C137 C117 1.449 . S
C137 C136 1.399 . S
C137 H143 0.930 . S
H138 C118 0.931 . S
H139 C119 0.930 1_545 S
H140 C127 0.931 . S
H141 C128 0.929 . S
H142 C136 0.929 . S
H143 C137 0.930 . S
Mn144 O149 2.095 . S
Mn144 O159 2.162 . S
Mn144 O160 2.297 . S
Mn144 O168 2.385 . S
Mn144 O169 2.209 . S
Mn144 O170 2.094 . S
Mn145 O150 2.121 . S
Mn145 N152 2.257 . S
Mn145 N161 2.282 . S
Mn145 O169 2.215 . S
Mn145 O171 2.117 . S
C146 O168 1.234 . S
C146 O169 1.283 . S
C147 O159 1.281 . S
C147 O160 1.236 . S
C148 O170 1.240 . S
C148 O171 1.264 . S
O149 Mn144 2.095 . S
O149 C158 1.250 . S
O150 Mn145 2.121 . S
O150 C158 1.258 . S
C151 N152 1.326 . S
C151 C155 1.460 . S
C151 H157 0.929 . S
N152 Mn145 2.257 . S
N152 C151 1.326 . S
N152 C156 1.362 . S
C153 C154 1.258 . S
C153 C156 1.431 . S
C153 C173 1.449 . S
C154 C153 1.258 . S
C154 C155 1.477 . S
C154 H174 0.931 . S
C155 C151 1.460 . S
C155 C154 1.477 . S
C155 H175 0.930 1_455 S
C156 N152 1.362 . S
C156 C153 1.431 . S
C156 C166 1.476 . S
H157 C151 0.929 . S
C158 O149 1.250 . S
C158 O150 1.258 . S
O159 Mn144 2.162 . S
O159 C147 1.281 . S
O160 Mn144 2.297 . S
O160 C147 1.236 . S
N161 Mn145 2.282 . S
N161 C162 1.328 . S
N161 C166 1.318 . S
C162 N161 1.328 . S
C162 C163 1.457 . S
C162 H167 0.929 . S
C163 C162 1.457 . S
C163 C164 1.291 . S
C163 H176 0.931 . S
C164 C163 1.291 . S
C164 C165 1.373 . S
C164 H177 0.929 . S
C165 C164 1.373 . S
C165 C166 1.396 . S
C165 C172 1.403 . S
C166 C156 1.476 . S
C166 N161 1.318 . S
C166 C165 1.396 . S
H167 C162 0.929 . S
O168 Mn144 2.385 . S
O168 C146 1.234 . S
O169 Mn144 2.209 . S
O169 Mn145 2.215 . S
O169 C146 1.283 . S
O170 Mn144 2.094 . S
O170 C148 1.240 . S
O171 Mn145 2.117 . S
O171 C148 1.264 . S
C172 C165 1.403 . S
C172 C173 1.399 . S
C172 H178 0.929 . S
C173 C153 1.449 . S
C173 C172 1.399 . S
C173 H179 0.930 . S
H174 C154 0.931 . S
H175 C155 0.930 1_655 S
H176 C163 0.931 . S
H177 C164 0.929 . S
H178 C172 0.929 . S
H179 C173 0.930 . S
Mn180 O185 2.095 . S
Mn180 O195 2.162 . S
Mn180 O196 2.297 . S
Mn180 O204 2.385 . S
Mn180 O205 2.209 . S
Mn180 O206 2.094 . S
Mn181 O186 2.121 . S
Mn181 N188 2.257 . S
Mn181 N197 2.282 . S
Mn181 O205 2.215 . S
Mn181 O207 2.117 . S
C182 O204 1.234 . S
C182 O205 1.283 . S
C183 O195 1.281 . S
C183 O196 1.236 . S
C184 O206 1.240 . S
C184 O207 1.264 . S
O185 Mn180 2.095 . S
O185 C194 1.250 . S
O186 Mn181 2.121 . S
O186 C194 1.258 . S
C187 N188 1.326 . S
C187 C191 1.460 . S
C187 H193 0.929 . S
N188 Mn181 2.257 . S
N188 C187 1.326 . S
N188 C192 1.362 . S
C189 C190 1.258 . S
C189 C192 1.431 . S
C189 C209 1.449 . S
C190 C189 1.258 . S
C190 C191 1.477 . S
C190 H210 0.931 . S
C191 C187 1.460 . S
C191 C190 1.477 . S
C191 H211 0.930 1_545 S
C192 N188 1.362 . S
C192 C189 1.431 . S
C192 C202 1.476 . S
H193 C187 0.929 . S
C194 O185 1.250 . S
C194 O186 1.258 . S
O195 Mn180 2.162 . S
O195 C183 1.281 . S
O196 Mn180 2.297 . S
O196 C183 1.236 . S
N197 Mn181 2.282 . S
N197 C198 1.328 . S
N197 C202 1.318 . S
C198 N197 1.328 . S
C198 C199 1.457 . S
C198 H203 0.929 . S
C199 C198 1.457 . S
C199 C200 1.291 . S
C199 H212 0.931 . S
C200 C199 1.291 . S
C200 C201 1.373 . S
C200 H213 0.929 . S
C201 C200 1.373 . S
C201 C202 1.396 . S
C201 C208 1.403 . S
C202 C192 1.476 . S
C202 N197 1.318 . S
C202 C201 1.396 . S
H203 C198 0.929 . S
O204 Mn180 2.385 . S
O204 C182 1.234 . S
O205 Mn180 2.209 . S
O205 Mn181 2.215 . S
O205 C182 1.283 . S
O206 Mn180 2.094 . S
O206 C184 1.240 . S
O207 Mn181 2.117 . S
O207 C184 1.264 . S
C208 C201 1.403 . S
C208 C209 1.399 . S
C208 H214 0.929 . S
C209 C189 1.449 . S
C209 C208 1.399 . S
C209 H215 0.930 . S
H210 C190 0.931 . S
H211 C191 0.930 1_565 S
H212 C199 0.931 . S
H213 C200 0.929 . S
H214 C208 0.929 . S
H215 C209 0.930 . S
Mn216 O221 2.095 . S
Mn216 O231 2.162 . S
Mn216 O232 2.297 . S
Mn216 O240 2.385 . S
Mn216 O241 2.209 . S
Mn216 O242 2.094 . S
Mn217 O222 2.121 . S
Mn217 N224 2.257 . S
Mn217 N233 2.282 . S
Mn217 O241 2.215 . S
Mn217 O243 2.117 . S
C218 O240 1.234 . S
C218 O241 1.283 . S
C219 O231 1.281 . S
C219 O232 1.236 . S
C220 O242 1.240 . S
C220 O243 1.264 . S
O221 Mn216 2.095 . S
O221 C230 1.250 . S
O222 Mn217 2.121 . S
O222 C230 1.258 . S
C223 N224 1.326 . S
C223 C227 1.460 . S
C223 H229 0.929 . S
N224 Mn217 2.257 . S
N224 C223 1.326 . S
N224 C228 1.362 . S
C225 C226 1.258 . S
C225 C228 1.431 . S
C225 C245 1.449 . S
C226 C225 1.258 . S
C226 C227 1.477 . S
C226 H246 0.931 . S
C227 C223 1.460 . S
C227 C226 1.477 . S
C227 H247 0.930 1_655 S
C228 N224 1.362 . S
C228 C225 1.431 . S
C228 C238 1.476 . S
H229 C223 0.929 . S
C230 O221 1.250 . S
C230 O222 1.258 . S
O231 Mn216 2.162 . S
O231 C219 1.281 . S
O232 Mn216 2.297 . S
O232 C219 1.236 . S
N233 Mn217 2.282 . S
N233 C234 1.328 . S
N233 C238 1.318 . S
C234 N233 1.328 . S
C234 C235 1.457 . S
C234 H239 0.929 . S
C235 C234 1.457 . S
C235 C236 1.291 . S
C235 H248 0.931 . S
C236 C235 1.291 . S
C236 C237 1.373 . S
C236 H249 0.929 . S
C237 C236 1.373 . S
C237 C238 1.396 . S
C237 C244 1.403 . S
C238 C228 1.476 . S
C238 N233 1.318 . S
C238 C237 1.396 . S
H239 C234 0.929 . S
O240 Mn216 2.385 . S
O240 C218 1.234 . S
O241 Mn216 2.209 . S
O241 Mn217 2.215 . S
O241 C218 1.283 . S
O242 Mn216 2.094 . S
O242 C220 1.240 . S
O243 Mn217 2.117 . S
O243 C220 1.264 . S
C244 C237 1.403 . S
C244 C245 1.399 . S
C244 H250 0.929 . S
C245 C225 1.449 . S
C245 C244 1.399 . S
C245 H251 0.930 . S
H246 C226 0.931 . S
H247 C227 0.930 1_455 S
H248 C235 0.931 . S
H249 C236 0.929 . S
H250 C244 0.929 . S
H251 C245 0.930 . S
Mn252 O257 2.095 . S
Mn252 O267 2.162 . S
Mn252 O268 2.297 . S
Mn252 O276 2.385 . S
Mn252 O277 2.209 . S
Mn252 O278 2.094 . S
Mn253 O258 2.121 . S
Mn253 N260 2.257 . S
Mn253 N269 2.282 . S
Mn253 O277 2.215 . S
Mn253 O279 2.117 . S
C254 O276 1.234 . S
C254 O277 1.283 . S
C255 O267 1.281 . S
C255 O268 1.236 . S
C256 O278 1.240 . S
C256 O279 1.264 . S
O257 Mn252 2.095 . S
O257 C266 1.250 . S
O258 Mn253 2.121 . S
O258 C266 1.258 . S
C259 N260 1.326 . S
C259 C263 1.460 . S
C259 H265 0.929 . S
N260 Mn253 2.257 . S
N260 C259 1.326 . S
N260 C264 1.362 . S
C261 C262 1.258 . S
C261 C264 1.431 . S
C261 C281 1.449 . S
C262 C261 1.258 . S
C262 C263 1.477 . S
C262 H282 0.931 . S
C263 C259 1.460 . S
C263 C262 1.477 . S
C263 H283 0.930 1_565 S
C264 N260 1.362 . S
C264 C261 1.431 . S
C264 C274 1.476 . S
H265 C259 0.929 . S
C266 O257 1.250 . S
C266 O258 1.258 . S
O267 Mn252 2.162 . S
O267 C255 1.281 . S
O268 Mn252 2.297 . S
O268 C255 1.236 . S
N269 Mn253 2.282 . S
N269 C270 1.328 . S
N269 C274 1.318 . S
C270 N269 1.328 . S
C270 C271 1.457 . S
C270 H275 0.929 . S
C271 C270 1.457 . S
C271 C272 1.291 . S
C271 H284 0.931 . S
C272 C271 1.291 . S
C272 C273 1.373 . S
C272 H285 0.929 . S
C273 C272 1.373 . S
C273 C274 1.396 . S
C273 C280 1.403 . S
C274 C264 1.476 . S
C274 N269 1.318 . S
C274 C273 1.396 . S
H275 C270 0.929 . S
O276 Mn252 2.385 . S
O276 C254 1.234 . S
O277 Mn252 2.209 . S
O277 Mn253 2.215 . S
O277 C254 1.283 . S
O278 Mn252 2.094 . S
O278 C256 1.240 . S
O279 Mn253 2.117 . S
O279 C256 1.264 . S
C280 C273 1.403 . S
C280 C281 1.399 . S
C280 H286 0.929 . S
C281 C261 1.449 . S
C281 C280 1.399 . S
C281 H287 0.930 . S
H282 C262 0.931 . S
H283 C263 0.930 1_545 S
H284 C271 0.931 . S
H285 C272 0.929 . S
H286 C280 0.929 . S
H287 C281 0.930 . S
Mn288 O293 2.095 . S
Mn288 O303 2.162 . S
Mn288 O304 2.297 . S
Mn288 O312 2.385 . S
Mn288 O313 2.209 . S
Mn288 O314 2.094 . S
Mn289 O294 2.121 . S
Mn289 N296 2.257 . S
Mn289 N305 2.282 . S
Mn289 O313 2.215 . S
Mn289 O315 2.117 . S
C290 O312 1.234 . S
C290 O313 1.283 . S
C291 O303 1.281 . S
C291 O304 1.236 . S
C292 O314 1.240 . S
C292 O315 1.264 . S
O293 Mn288 2.095 . S
O293 C302 1.250 . S
O294 Mn289 2.121 . S
O294 C302 1.258 . S
C295 N296 1.326 . S
C295 C299 1.460 . S
C295 H301 0.929 . S
N296 Mn289 2.257 . S
N296 C295 1.326 . S
N296 C300 1.362 . S
C297 C298 1.258 . S
C297 C300 1.431 . S
C297 C317 1.449 . S
C298 C297 1.258 . S
C298 C299 1.477 . S
C298 H318 0.931 . S
C299 C295 1.460 . S
C299 C298 1.477 . S
C299 H319 0.930 1_545 S
C300 N296 1.362 . S
C300 C297 1.431 . S
C300 C310 1.476 . S
H301 C295 0.929 . S
C302 O293 1.250 . S
C302 O294 1.258 . S
O303 Mn288 2.162 . S
O303 C291 1.281 . S
O304 Mn288 2.297 . S
O304 C291 1.236 . S
N305 Mn289 2.282 . S
N305 C306 1.328 . S
N305 C310 1.318 . S
C306 N305 1.328 . S
C306 C307 1.457 . S
C306 H311 0.929 . S
C307 C306 1.457 . S
C307 C308 1.291 . S
C307 H320 0.931 . S
C308 C307 1.291 . S
C308 C309 1.373 . S
C308 H321 0.929 . S
C309 C308 1.373 . S
C309 C310 1.396 . S
C309 C316 1.403 . S
C310 C300 1.476 . S
C310 N305 1.318 . S
C310 C309 1.396 . S
H311 C306 0.929 . S
O312 Mn288 2.385 . S
O312 C290 1.234 . S
O313 Mn288 2.209 . S
O313 Mn289 2.215 . S
O313 C290 1.283 . S
O314 Mn288 2.094 . S
O314 C292 1.240 . S
O315 Mn289 2.117 . S
O315 C292 1.264 . S
C316 C309 1.403 . S
C316 C317 1.399 . S
C316 H322 0.929 . S
C317 C297 1.449 . S
C317 C316 1.399 . S
C317 H323 0.930 . S
H318 C298 0.931 . S
H319 C299 0.930 1_565 S
H320 C307 0.931 . S
H321 C308 0.929 . S
H322 C316 0.929 . S
H323 C317 0.930 . S
Mn324 O329 2.095 . S
Mn324 O339 2.162 . S
Mn324 O340 2.297 . S
Mn324 O348 2.385 . S
Mn324 O349 2.209 . S
Mn324 O350 2.094 . S
Mn325 O330 2.121 . S
Mn325 N332 2.257 . S
Mn325 N341 2.282 . S
Mn325 O349 2.215 . S
Mn325 O351 2.117 . S
C326 O348 1.234 . S
C326 O349 1.283 . S
C327 O339 1.281 . S
C327 O340 1.236 . S
C328 O350 1.240 . S
C328 O351 1.264 . S
O329 Mn324 2.095 . S
O329 C338 1.250 . S
O330 Mn325 2.121 . S
O330 C338 1.258 . S
C331 N332 1.326 . S
C331 C335 1.460 . S
C331 H337 0.929 . S
N332 Mn325 2.257 . S
N332 C331 1.326 . S
N332 C336 1.362 . S
C333 C334 1.258 . S
C333 C336 1.431 . S
C333 C353 1.449 . S
C334 C333 1.258 . S
C334 C335 1.477 . S
C334 H354 0.931 . S
C335 C331 1.460 . S
C335 C334 1.477 . S
C335 H355 0.930 1_655 S
C336 N332 1.362 . S
C336 C333 1.431 . S
C336 C346 1.476 . S
H337 C331 0.929 . S
C338 O329 1.250 . S
C338 O330 1.258 . S
O339 Mn324 2.162 . S
O339 C327 1.281 . S
O340 Mn324 2.297 . S
O340 C327 1.236 . S
N341 Mn325 2.282 . S
N341 C342 1.328 . S
N341 C346 1.318 . S
C342 N341 1.328 . S
C342 C343 1.457 . S
C342 H347 0.929 . S
C343 C342 1.457 . S
C343 C344 1.291 . S
C343 H356 0.931 . S
C344 C343 1.291 . S
C344 C345 1.373 . S
C344 H357 0.929 . S
C345 C344 1.373 . S
C345 C346 1.396 . S
C345 C352 1.403 . S
C346 C336 1.476 . S
C346 N341 1.318 . S
C346 C345 1.396 . S
H347 C342 0.929 . S
O348 Mn324 2.385 . S
O348 C326 1.234 . S
O349 Mn324 2.209 . S
O349 Mn325 2.215 . S
O349 C326 1.283 . S
O350 Mn324 2.094 . S
O350 C328 1.240 . S
O351 Mn325 2.117 . S
O351 C328 1.264 . S
C352 C345 1.403 . S
C352 C353 1.399 . S
C352 H358 0.929 . S
C353 C333 1.449 . S
C353 C352 1.399 . S
C353 H359 0.930 . S
H354 C334 0.931 . S
H355 C335 0.930 1_455 S
H356 C343 0.931 . S
H357 C344 0.929 . S
H358 C352 0.929 . S
H359 C353 0.930 . S
Mn360 O365 2.095 . S
Mn360 O375 2.162 . S
Mn360 O376 2.297 . S
Mn360 O384 2.385 . S
Mn360 O385 2.209 . S
Mn360 O386 2.094 . S
Mn361 O366 2.121 . S
Mn361 N368 2.257 . S
Mn361 N377 2.282 . S
Mn361 O385 2.215 . S
Mn361 O387 2.117 . S
C362 O384 1.234 . S
C362 O385 1.283 . S
C363 O375 1.281 . S
C363 O376 1.236 . S
C364 O386 1.240 . S
C364 O387 1.264 . S
O365 Mn360 2.095 . S
O365 C374 1.250 . S
O366 Mn361 2.121 . S
O366 C374 1.258 . S
C367 N368 1.326 . S
C367 C371 1.460 . S
C367 H373 0.929 . S
N368 Mn361 2.257 . S
N368 C367 1.326 . S
N368 C372 1.362 . S
C369 C370 1.258 . S
C369 C372 1.431 . S
C369 C389 1.449 . S
C370 C369 1.258 . S
C370 C371 1.477 . S
C370 H390 0.931 . S
C371 C367 1.460 . S
C371 C370 1.477 . S
C371 H391 0.930 1_565 S
C372 N368 1.362 . S
C372 C369 1.431 . S
C372 C382 1.476 . S
H373 C367 0.929 . S
C374 O365 1.250 . S
C374 O366 1.258 . S
O375 Mn360 2.162 . S
O375 C363 1.281 . S
O376 Mn360 2.297 . S
O376 C363 1.236 . S
N377 Mn361 2.282 . S
N377 C378 1.328 . S
N377 C382 1.318 . S
C378 N377 1.328 . S
C378 C379 1.457 . S
C378 H383 0.929 . S
C379 C378 1.457 . S
C379 C380 1.291 . S
C379 H392 0.931 . S
C380 C379 1.291 . S
C380 C381 1.373 . S
C380 H393 0.929 . S
C381 C380 1.373 . S
C381 C382 1.396 . S
C381 C388 1.403 . S
C382 C372 1.476 . S
C382 N377 1.318 . S
C382 C381 1.396 . S
H383 C378 0.929 . S
O384 Mn360 2.385 . S
O384 C362 1.234 . S
O385 Mn360 2.209 . S
O385 Mn361 2.215 . S
O385 C362 1.283 . S
O386 Mn360 2.094 . S
O386 C364 1.240 . S
O387 Mn361 2.117 . S
O387 C364 1.264 . S
C388 C381 1.403 . S
C388 C389 1.399 . S
C388 H394 0.929 . S
C389 C369 1.449 . S
C389 C388 1.399 . S
C389 H395 0.930 . S
H390 C370 0.931 . S
H391 C371 0.930 1_545 S
H392 C379 0.931 . S
H393 C380 0.929 . S
H394 C388 0.929 . S
H395 C389 0.930 . S
Mn396 O401 2.095 . S
Mn396 O411 2.162 . S
Mn396 O412 2.297 . S
Mn396 O420 2.385 . S
Mn396 O421 2.209 . S
Mn396 O422 2.094 . S
Mn397 O402 2.121 . S
Mn397 N404 2.257 . S
Mn397 N413 2.282 . S
Mn397 O421 2.215 . S
Mn397 O423 2.117 . S
C398 O420 1.234 . S
C398 O421 1.283 . S
C399 O411 1.281 . S
C399 O412 1.236 . S
C400 O422 1.240 . S
C400 O423 1.264 . S
O401 Mn396 2.095 . S
O401 C410 1.250 . S
O402 Mn397 2.121 . S
O402 C410 1.258 . S
C403 N404 1.326 . S
C403 C407 1.460 . S
C403 H409 0.929 . S
N404 Mn397 2.257 . S
N404 C403 1.326 . S
N404 C408 1.362 . S
C405 C406 1.258 . S
C405 C408 1.431 . S
C405 C425 1.449 . S
C406 C405 1.258 . S
C406 C407 1.477 . S
C406 H426 0.931 . S
C407 C403 1.460 . S
C407 C406 1.477 . S
C407 H427 0.930 1_455 S
C408 N404 1.362 . S
C408 C405 1.431 . S
C408 C418 1.476 . S
H409 C403 0.929 . S
C410 O401 1.250 . S
C410 O402 1.258 . S
O411 Mn396 2.162 . S
O411 C399 1.281 . S
O412 Mn396 2.297 . S
O412 C399 1.236 . S
N413 Mn397 2.282 . S
N413 C414 1.328 . S
N413 C418 1.318 . S
C414 N413 1.328 . S
C414 C415 1.457 . S
C414 H419 0.929 . S
C415 C414 1.457 . S
C415 C416 1.291 . S
C415 H428 0.931 . S
C416 C415 1.291 . S
C416 C417 1.373 . S
C416 H429 0.929 . S
C417 C416 1.373 . S
C417 C418 1.396 . S
C417 C424 1.403 . S
C418 C408 1.476 . S
C418 N413 1.318 . S
C418 C417 1.396 . S
H419 C414 0.929 . S
O420 Mn396 2.385 . S
O420 C398 1.234 . S
O421 Mn396 2.209 . S
O421 Mn397 2.215 . S
O421 C398 1.283 . S
O422 Mn396 2.094 . S
O422 C400 1.240 . S
O423 Mn397 2.117 . S
O423 C400 1.264 . S
C424 C417 1.403 . S
C424 C425 1.399 . S
C424 H430 0.929 . S
C425 C405 1.449 . S
C425 C424 1.399 . S
C425 H431 0.930 . S
H426 C406 0.931 . S
H427 C407 0.930 1_655 S
H428 C415 0.931 . S
H429 C416 0.929 . S
H430 C424 0.929 . S
H431 C425 0.930 . S
Mn432 O437 2.095 . S
Mn432 O447 2.162 . S
Mn432 O448 2.297 . S
Mn432 O456 2.385 . S
Mn432 O457 2.209 . S
Mn432 O458 2.094 . S
Mn433 O438 2.121 . S
Mn433 N440 2.257 . S
Mn433 N449 2.282 . S
Mn433 O457 2.215 . S
Mn433 O459 2.117 . S
C434 O456 1.234 . S
C434 O457 1.283 . S
C435 O447 1.281 . S
C435 O448 1.236 . S
C436 O458 1.240 . S
C436 O459 1.264 . S
O437 Mn432 2.095 . S
O437 C446 1.250 . S
O438 Mn433 2.121 . S
O438 C446 1.258 . S
C439 N440 1.326 . S
C439 C443 1.460 . S
C439 H445 0.929 . S
N440 Mn433 2.257 . S
N440 C439 1.326 . S
N440 C444 1.362 . S
C441 C442 1.258 . S
C441 C444 1.431 . S
C441 C461 1.449 . S
C442 C441 1.258 . S
C442 C443 1.477 . S
C442 H462 0.931 . S
C443 C439 1.460 . S
C443 C442 1.477 . S
C443 H463 0.930 1_565 S
C444 N440 1.362 . S
C444 C441 1.431 . S
C444 C454 1.476 . S
H445 C439 0.929 . S
C446 O437 1.250 . S
C446 O438 1.258 . S
O447 Mn432 2.162 . S
O447 C435 1.281 . S
O448 Mn432 2.297 . S
O448 C435 1.236 . S
N449 Mn433 2.282 . S
N449 C450 1.328 . S
N449 C454 1.318 . S
C450 N449 1.328 . S
C450 C451 1.457 . S
C450 H455 0.929 . S
C451 C450 1.457 . S
C451 C452 1.291 . S
C451 H464 0.931 . S
C452 C451 1.291 . S
C452 C453 1.373 . S
C452 H465 0.929 . S
C453 C452 1.373 . S
C453 C454 1.396 . S
C453 C460 1.403 . S
C454 C444 1.476 . S
C454 N449 1.318 . S
C454 C453 1.396 . S
H455 C450 0.929 . S
O456 Mn432 2.385 . S
O456 C434 1.234 . S
O457 Mn432 2.209 . S
O457 Mn433 2.215 . S
O457 C434 1.283 . S
O458 Mn432 2.094 . S
O458 C436 1.240 . S
O459 Mn433 2.117 . S
O459 C436 1.264 . S
C460 C453 1.403 . S
C460 C461 1.399 . S
C460 H466 0.929 . S
C461 C441 1.449 . S
C461 C460 1.399 . S
C461 H467 0.930 . S
H462 C442 0.931 . S
H463 C443 0.930 1_545 S
H464 C451 0.931 . S
H465 C452 0.929 . S
H466 C460 0.929 . S
H467 C461 0.930 . S
Mn468 O473 2.095 . S
Mn468 O483 2.162 . S
Mn468 O484 2.297 . S
Mn468 O492 2.385 . S
Mn468 O493 2.209 . S
Mn468 O494 2.094 . S
Mn469 O474 2.121 . S
Mn469 N476 2.257 . S
Mn469 N485 2.282 . S
Mn469 O493 2.215 . S
Mn469 O495 2.117 . S
C470 O492 1.234 . S
C470 O493 1.283 . S
C471 O483 1.281 . S
C471 O484 1.236 . S
C472 O494 1.240 . S
C472 O495 1.264 . S
O473 Mn468 2.095 . S
O473 C482 1.250 . S
O474 Mn469 2.121 . S
O474 C482 1.258 . S
C475 N476 1.326 . S
C475 C479 1.460 . S
C475 H481 0.929 . S
N476 Mn469 2.257 . S
N476 C475 1.326 . S
N476 C480 1.362 . S
C477 C478 1.258 . S
C477 C480 1.431 . S
C477 C497 1.449 . S
C478 C477 1.258 . S
C478 C479 1.477 . S
C478 H498 0.931 . S
C479 C475 1.460 . S
C479 C478 1.477 . S
C479 H499 0.930 1_455 S
C480 N476 1.362 . S
C480 C477 1.431 . S
C480 C490 1.476 . S
H481 C475 0.929 . S
C482 O473 1.250 . S
C482 O474 1.258 . S
O483 Mn468 2.162 . S
O483 C471 1.281 . S
O484 Mn468 2.297 . S
O484 C471 1.236 . S
N485 Mn469 2.282 . S
N485 C486 1.328 . S
N485 C490 1.318 . S
C486 N485 1.328 . S
C486 C487 1.457 . S
C486 H491 0.929 . S
C487 C486 1.457 . S
C487 C488 1.291 . S
C487 H500 0.931 . S
C488 C487 1.291 . S
C488 C489 1.373 . S
C488 H501 0.929 . S
C489 C488 1.373 . S
C489 C490 1.396 . S
C489 C496 1.403 . S
C490 C480 1.476 . S
C490 N485 1.318 . S
C490 C489 1.396 . S
H491 C486 0.929 . S
O492 Mn468 2.385 . S
O492 C470 1.234 . S
O493 Mn468 2.209 . S
O493 Mn469 2.215 . S
O493 C470 1.283 . S
O494 Mn468 2.094 . S
O494 C472 1.240 . S
O495 Mn469 2.117 . S
O495 C472 1.264 . S
C496 C489 1.403 . S
C496 C497 1.399 . S
C496 H502 0.929 . S
C497 C477 1.449 . S
C497 C496 1.399 . S
C497 H503 0.930 . S
H498 C478 0.931 . S
H499 C479 0.930 1_655 S
H500 C487 0.931 . S
H501 C488 0.929 . S
H502 C496 0.929 . S
H503 C497 0.930 . S
Mn504 O509 2.095 . S
Mn504 O519 2.162 . S
Mn504 O520 2.297 . S
Mn504 O528 2.385 . S
Mn504 O529 2.209 . S
Mn504 O530 2.094 . S
Mn505 O510 2.121 . S
Mn505 N512 2.257 . S
Mn505 N521 2.282 . S
Mn505 O529 2.215 . S
Mn505 O531 2.117 . S
C506 O528 1.234 . S
C506 O529 1.283 . S
C507 O519 1.281 . S
C507 O520 1.236 . S
C508 O530 1.240 . S
C508 O531 1.264 . S
O509 Mn504 2.095 . S
O509 C518 1.250 . S
O510 Mn505 2.121 . S
O510 C518 1.258 . S
C511 N512 1.326 . S
C511 C515 1.460 . S
C511 H517 0.929 . S
N512 Mn505 2.257 . S
N512 C511 1.326 . S
N512 C516 1.362 . S
C513 C514 1.258 . S
C513 C516 1.431 . S
C513 C533 1.449 . S
C514 C513 1.258 . S
C514 C515 1.477 . S
C514 H534 0.931 . S
C515 C511 1.460 . S
C515 C514 1.477 . S
C515 H535 0.930 1_545 S
C516 N512 1.362 . S
C516 C513 1.431 . S
C516 C526 1.476 . S
H517 C511 0.929 . S
C518 O509 1.250 . S
C518 O510 1.258 . S
O519 Mn504 2.162 . S
O519 C507 1.281 . S
O520 Mn504 2.297 . S
O520 C507 1.236 . S
N521 Mn505 2.282 . S
N521 C522 1.328 . S
N521 C526 1.318 . S
C522 N521 1.328 . S
C522 C523 1.457 . S
C522 H527 0.929 . S
C523 C522 1.457 . S
C523 C524 1.291 . S
C523 H536 0.931 . S
C524 C523 1.291 . S
C524 C525 1.373 . S
C524 H537 0.929 . S
C525 C524 1.373 . S
C525 C526 1.396 . S
C525 C532 1.403 . S
C526 C516 1.476 . S
C526 N521 1.318 . S
C526 C525 1.396 . S
H527 C522 0.929 . S
O528 Mn504 2.385 . S
O528 C506 1.234 . S
O529 Mn504 2.209 . S
O529 Mn505 2.215 . S
O529 C506 1.283 . S
O530 Mn504 2.094 . S
O530 C508 1.240 . S
O531 Mn505 2.117 . S
O531 C508 1.264 . S
C532 C525 1.403 . S
C532 C533 1.399 . S
C532 H538 0.929 . S
C533 C513 1.449 . S
C533 C532 1.399 . S
C533 H539 0.930 . S
H534 C514 0.931 . S
H535 C515 0.930 1_565 S
H536 C523 0.931 . S
H537 C524 0.929 . S
H538 C532 0.929 . S
H539 C533 0.930 . S
Mn540 O545 2.095 . S
Mn540 O555 2.162 . S
Mn540 O556 2.297 . S
Mn540 O564 2.385 . S
Mn540 O565 2.209 . S
Mn540 O566 2.094 . S
Mn541 O546 2.121 . S
Mn541 N548 2.257 . S
Mn541 N557 2.282 . S
Mn541 O565 2.215 . S
Mn541 O567 2.117 . S
C542 O564 1.234 . S
C542 O565 1.283 . S
C543 O555 1.281 . S
C543 O556 1.236 . S
C544 O566 1.240 . S
C544 O567 1.264 . S
O545 Mn540 2.095 . S
O545 C554 1.250 . S
O546 Mn541 2.121 . S
O546 C554 1.258 . S
C547 N548 1.326 . S
C547 C551 1.460 . S
C547 H553 0.929 . S
N548 Mn541 2.257 . S
N548 C547 1.326 . S
N548 C552 1.362 . S
C549 C550 1.258 . S
C549 C552 1.431 . S
C549 C569 1.449 . S
C550 C549 1.258 . S
C550 C551 1.477 . S
C550 H570 0.931 . S
C551 C547 1.460 . S
C551 C550 1.477 . S
C551 H571 0.930 1_655 S
C552 N548 1.362 . S
C552 C549 1.431 . S
C552 C562 1.476 . S
H553 C547 0.929 . S
C554 O545 1.250 . S
C554 O546 1.258 . S
O555 Mn540 2.162 . S
O555 C543 1.281 . S
O556 Mn540 2.297 . S
O556 C543 1.236 . S
N557 Mn541 2.282 . S
N557 C558 1.328 . S
N557 C562 1.318 . S
C558 N557 1.328 . S
C558 C559 1.457 . S
C558 H563 0.929 . S
C559 C558 1.457 . S
C559 C560 1.291 . S
C559 H572 0.931 . S
C560 C559 1.291 . S
C560 C561 1.373 . S
C560 H573 0.929 . S
C561 C560 1.373 . S
C561 C562 1.396 . S
C561 C568 1.403 . S
C562 C552 1.476 . S
C562 N557 1.318 . S
C562 C561 1.396 . S
H563 C558 0.929 . S
O564 Mn540 2.385 . S
O564 C542 1.234 . S
O565 Mn540 2.209 . S
O565 Mn541 2.215 . S
O565 C542 1.283 . S
O566 Mn540 2.094 . S
O566 C544 1.240 . S
O567 Mn541 2.117 . S
O567 C544 1.264 . S
C568 C561 1.403 . S
C568 C569 1.399 . S
C568 H574 0.929 . S
C569 C549 1.449 . S
C569 C568 1.399 . S
C569 H575 0.930 . S
H570 C550 0.931 . S
H571 C551 0.930 1_455 S
H572 C559 0.931 . S
H573 C560 0.929 . S
H574 C568 0.929 . S
H575 C569 0.930 . S
Mn576 O581 2.095 . S
Mn576 O591 2.162 . S
Mn576 O592 2.297 . S
Mn576 O600 2.385 . S
Mn576 O601 2.209 . S
Mn576 O602 2.094 . S
Mn577 O582 2.121 . S
Mn577 N584 2.257 . S
Mn577 N593 2.282 . S
Mn577 O601 2.215 . S
Mn577 O603 2.117 . S
C578 O600 1.234 . S
C578 O601 1.283 . S
C579 O591 1.281 . S
C579 O592 1.236 . S
C580 O602 1.240 . S
C580 O603 1.264 . S
O581 Mn576 2.095 . S
O581 C590 1.250 . S
O582 Mn577 2.121 . S
O582 C590 1.258 . S
C583 N584 1.326 . S
C583 C587 1.460 . S
C583 H589 0.929 . S
N584 Mn577 2.257 . S
N584 C583 1.326 . S
N584 C588 1.362 . S
C585 C586 1.258 . S
C585 C588 1.431 . S
C585 C605 1.449 . S
C586 C585 1.258 . S
C586 C587 1.477 . S
C586 H606 0.931 . S
C587 C583 1.460 . S
C587 C586 1.477 . S
C587 H607 0.930 1_554 S
C588 N584 1.362 . S
C588 C585 1.431 . S
C588 C598 1.476 . S
H589 C583 0.929 . S
C590 O581 1.250 . S
C590 O582 1.258 . S
O591 Mn576 2.162 . S
O591 C579 1.281 . S
O592 Mn576 2.297 . S
O592 C579 1.236 . S
N593 Mn577 2.282 . S
N593 C594 1.328 . S
N593 C598 1.318 . S
C594 N593 1.328 . S
C594 C595 1.457 . S
C594 H599 0.929 . S
C595 C594 1.457 . S
C595 C596 1.291 . S
C595 H608 0.931 . S
C596 C595 1.291 . S
C596 C597 1.373 . S
C596 H609 0.929 . S
C597 C596 1.373 . S
C597 C598 1.396 . S
C597 C604 1.403 . S
C598 C588 1.476 . S
C598 N593 1.318 . S
C598 C597 1.396 . S
H599 C594 0.929 . S
O600 Mn576 2.385 . S
O600 C578 1.234 . S
O601 Mn576 2.209 . S
O601 Mn577 2.215 . S
O601 C578 1.283 . S
O602 Mn576 2.094 . S
O602 C580 1.240 . S
O603 Mn577 2.117 . S
O603 C580 1.264 . S
C604 C597 1.403 . S
C604 C605 1.399 . S
C604 H610 0.929 . S
C605 C585 1.449 . S
C605 C604 1.399 . S
C605 H611 0.930 . S
H606 C586 0.931 . S
H607 C587 0.930 1_556 S
H608 C595 0.931 . S
H609 C596 0.929 . S
H610 C604 0.929 . S
H611 C605 0.930 . S
Mn612 O617 2.095 . S
Mn612 O627 2.162 . S
Mn612 O628 2.297 . S
Mn612 O636 2.385 . S
Mn612 O637 2.209 . S
Mn612 O638 2.094 . S
Mn613 O618 2.121 . S
Mn613 N620 2.257 . S
Mn613 N629 2.282 . S
Mn613 O637 2.215 . S
Mn613 O639 2.117 . S
C614 O636 1.234 . S
C614 O637 1.283 . S
C615 O627 1.281 . S
C615 O628 1.236 . S
C616 O638 1.240 . S
C616 O639 1.264 . S
O617 Mn612 2.095 . S
O617 C626 1.250 . S
O618 Mn613 2.121 . S
O618 C626 1.258 . S
C619 N620 1.326 . S
C619 C623 1.460 . S
C619 H625 0.929 . S
N620 Mn613 2.257 . S
N620 C619 1.326 . S
N620 C624 1.362 . S
C621 C622 1.258 . S
C621 C624 1.431 . S
C621 C641 1.449 . S
C622 C621 1.258 . S
C622 C623 1.477 . S
C622 H642 0.931 . S
C623 C619 1.460 . S
C623 C622 1.477 . S
C623 H643 0.930 1_556 S
C624 N620 1.362 . S
C624 C621 1.431 . S
C624 C634 1.476 . S
H625 C619 0.929 . S
C626 O617 1.250 . S
C626 O618 1.258 . S
O627 Mn612 2.162 . S
O627 C615 1.281 . S
O628 Mn612 2.297 . S
O628 C615 1.236 . S
N629 Mn613 2.282 . S
N629 C630 1.328 . S
N629 C634 1.318 . S
C630 N629 1.328 . S
C630 C631 1.457 . S
C630 H635 0.929 . S
C631 C630 1.457 . S
C631 C632 1.291 . S
C631 H644 0.931 . S
C632 C631 1.291 . S
C632 C633 1.373 . S
C632 H645 0.929 . S
C633 C632 1.373 . S
C633 C634 1.396 . S
C633 C640 1.403 . S
C634 C624 1.476 . S
C634 N629 1.318 . S
C634 C633 1.396 . S
H635 C630 0.929 . S
O636 Mn612 2.385 . S
O636 C614 1.234 . S
O637 Mn612 2.209 . S
O637 Mn613 2.215 . S
O637 C614 1.283 . S
O638 Mn612 2.094 . S
O638 C616 1.240 . S
O639 Mn613 2.117 . S
O639 C616 1.264 . S
C640 C633 1.403 . S
C640 C641 1.399 . S
C640 H646 0.929 . S
C641 C621 1.449 . S
C641 C640 1.399 . S
C641 H647 0.930 . S
H642 C622 0.931 . S
H643 C623 0.930 1_554 S
H644 C631 0.931 . S
H645 C632 0.929 . S
H646 C640 0.929 . S
H647 C641 0.930 . S
Mn648 O653 2.095 . S
Mn648 O663 2.162 . S
Mn648 O664 2.297 . S
Mn648 O672 2.385 . S
Mn648 O673 2.209 . S
Mn648 O674 2.094 . S
Mn649 O654 2.121 . S
Mn649 N656 2.257 . S
Mn649 N665 2.282 . S
Mn649 O673 2.215 . S
Mn649 O675 2.117 . S
C650 O672 1.234 . S
C650 O673 1.283 . S
C651 O663 1.281 . S
C651 O664 1.236 . S
C652 O674 1.240 . S
C652 O675 1.264 . S
O653 Mn648 2.095 . S
O653 C662 1.250 . S
O654 Mn649 2.121 . S
O654 C662 1.258 . S
C655 N656 1.326 . S
C655 C659 1.460 . S
C655 H661 0.929 . S
N656 Mn649 2.257 . S
N656 C655 1.326 . S
N656 C660 1.362 . S
C657 C658 1.258 . S
C657 C660 1.431 . S
C657 C677 1.449 . S
C658 C657 1.258 . S
C658 C659 1.477 . S
C658 H678 0.931 . S
C659 C655 1.460 . S
C659 C658 1.477 . S
C659 H679 0.930 1_556 S
C660 N656 1.362 . S
C660 C657 1.431 . S
C660 C670 1.476 . S
H661 C655 0.929 . S
C662 O653 1.250 . S
C662 O654 1.258 . S
O663 Mn648 2.162 . S
O663 C651 1.281 . S
O664 Mn648 2.297 . S
O664 C651 1.236 . S
N665 Mn649 2.282 . S
N665 C666 1.328 . S
N665 C670 1.318 . S
C666 N665 1.328 . S
C666 C667 1.457 . S
C666 H671 0.929 . S
C667 C666 1.457 . S
C667 C668 1.291 . S
C667 H680 0.931 . S
C668 C667 1.291 . S
C668 C669 1.373 . S
C668 H681 0.929 . S
C669 C668 1.373 . S
C669 C670 1.396 . S
C669 C676 1.403 . S
C670 C660 1.476 . S
C670 N665 1.318 . S
C670 C669 1.396 . S
H671 C666 0.929 . S
O672 Mn648 2.385 . S
O672 C650 1.234 . S
O673 Mn648 2.209 . S
O673 Mn649 2.215 . S
O673 C650 1.283 . S
O674 Mn648 2.094 . S
O674 C652 1.240 . S
O675 Mn649 2.117 . S
O675 C652 1.264 . S
C676 C669 1.403 . S
C676 C677 1.399 . S
C676 H682 0.929 . S
C677 C657 1.449 . S
C677 C676 1.399 . S
C677 H683 0.930 . S
H678 C658 0.931 . S
H679 C659 0.930 1_554 S
H680 C667 0.931 . S
H681 C668 0.929 . S
H682 C676 0.929 . S
H683 C677 0.930 . S
Mn684 O689 2.095 . S
Mn684 O699 2.162 . S
Mn684 O700 2.297 . S
Mn684 O708 2.385 . S
Mn684 O709 2.209 . S
Mn684 O710 2.094 . S
Mn685 O690 2.121 . S
Mn685 N692 2.257 . S
Mn685 N701 2.282 . S
Mn685 O709 2.215 . S
Mn685 O711 2.117 . S
C686 O708 1.234 . S
C686 O709 1.283 . S
C687 O699 1.281 . S
C687 O700 1.236 . S
C688 O710 1.240 . S
C688 O711 1.264 . S
O689 Mn684 2.095 . S
O689 C698 1.250 . S
O690 Mn685 2.121 . S
O690 C698 1.258 . S
C691 N692 1.326 . S
C691 C695 1.460 . S
C691 H697 0.929 . S
N692 Mn685 2.257 . S
N692 C691 1.326 . S
N692 C696 1.362 . S
C693 C694 1.258 . S
C693 C696 1.431 . S
C693 C713 1.449 . S
C694 C693 1.258 . S
C694 C695 1.477 . S
C694 H714 0.931 . S
C695 C691 1.460 . S
C695 C694 1.477 . S
C695 H715 0.930 1_556 S
C696 N692 1.362 . S
C696 C693 1.431 . S
C696 C706 1.476 . S
H697 C691 0.929 . S
C698 O689 1.250 . S
C698 O690 1.258 . S
O699 Mn684 2.162 . S
O699 C687 1.281 . S
O700 Mn684 2.297 . S
O700 C687 1.236 . S
N701 Mn685 2.282 . S
N701 C702 1.328 . S
N701 C706 1.318 . S
C702 N701 1.328 . S
C702 C703 1.457 . S
C702 H707 0.929 . S
C703 C702 1.457 . S
C703 C704 1.291 . S
C703 H716 0.931 . S
C704 C703 1.291 . S
C704 C705 1.373 . S
C704 H717 0.929 . S
C705 C704 1.373 . S
C705 C706 1.396 . S
C705 C712 1.403 . S
C706 C696 1.476 . S
C706 N701 1.318 . S
C706 C705 1.396 . S
H707 C702 0.929 . S
O708 Mn684 2.385 . S
O708 C686 1.234 . S
O709 Mn684 2.209 . S
O709 Mn685 2.215 . S
O709 C686 1.283 . S
O710 Mn684 2.094 . S
O710 C688 1.240 . S
O711 Mn685 2.117 . S
O711 C688 1.264 . S
C712 C705 1.403 . S
C712 C713 1.399 . S
C712 H718 0.929 . S
C713 C693 1.449 . S
C713 C712 1.399 . S
C713 H719 0.930 . S
H714 C694 0.931 . S
H715 C695 0.930 1_554 S
H716 C703 0.931 . S
H717 C704 0.929 . S
H718 C712 0.929 . S
H719 C713 0.930 . S
Mn720 O725 2.095 . S
Mn720 O735 2.162 . S
Mn720 O736 2.297 . S
Mn720 O744 2.385 . S
Mn720 O745 2.209 . S
Mn720 O746 2.094 . S
Mn721 O726 2.121 . S
Mn721 N728 2.257 . S
Mn721 N737 2.282 . S
Mn721 O745 2.215 . S
Mn721 O747 2.117 . S
C722 O744 1.234 . S
C722 O745 1.283 . S
C723 O735 1.281 . S
C723 O736 1.236 . S
C724 O746 1.240 . S
C724 O747 1.264 . S
O725 Mn720 2.095 . S
O725 C734 1.250 . S
O726 Mn721 2.121 . S
O726 C734 1.258 . S
C727 N728 1.326 . S
C727 C731 1.460 . S
C727 H733 0.929 . S
N728 Mn721 2.257 . S
N728 C727 1.326 . S
N728 C732 1.362 . S
C729 C730 1.258 . S
C729 C732 1.431 . S
C729 C749 1.449 . S
C730 C729 1.258 . S
C730 C731 1.477 . S
C730 H750 0.931 . S
C731 C727 1.460 . S
C731 C730 1.477 . S
C731 H751 0.930 1_556 S
C732 N728 1.362 . S
C732 C729 1.431 . S
C732 C742 1.476 . S
H733 C727 0.929 . S
C734 O725 1.250 . S
C734 O726 1.258 . S
O735 Mn720 2.162 . S
O735 C723 1.281 . S
O736 Mn720 2.297 . S
O736 C723 1.236 . S
N737 Mn721 2.282 . S
N737 C738 1.328 . S
N737 C742 1.318 . S
C738 N737 1.328 . S
C738 C739 1.457 . S
C738 H743 0.929 . S
C739 C738 1.457 . S
C739 C740 1.291 . S
C739 H752 0.931 . S
C740 C739 1.291 . S
C740 C741 1.373 . S
C740 H753 0.929 . S
C741 C740 1.373 . S
C741 C742 1.396 . S
C741 C748 1.403 . S
C742 C732 1.476 . S
C742 N737 1.318 . S
C742 C741 1.396 . S
H743 C738 0.929 . S
O744 Mn720 2.385 . S
O744 C722 1.234 . S
O745 Mn720 2.209 . S
O745 Mn721 2.215 . S
O745 C722 1.283 . S
O746 Mn720 2.094 . S
O746 C724 1.240 . S
O747 Mn721 2.117 . S
O747 C724 1.264 . S
C748 C741 1.403 . S
C748 C749 1.399 . S
C748 H754 0.929 . S
C749 C729 1.449 . S
C749 C748 1.399 . S
C749 H755 0.930 . S
H750 C730 0.931 . S
H751 C731 0.930 1_554 S
H752 C739 0.931 . S
H753 C740 0.929 . S
H754 C748 0.929 . S
H755 C749 0.930 . S
Mn756 O761 2.095 . S
Mn756 O771 2.162 . S
Mn756 O772 2.297 . S
Mn756 O780 2.385 . S
Mn756 O781 2.209 . S
Mn756 O782 2.094 . S
Mn757 O762 2.121 . S
Mn757 N764 2.257 . S
Mn757 N773 2.282 . S
Mn757 O781 2.215 . S
Mn757 O783 2.117 . S
C758 O780 1.234 . S
C758 O781 1.283 . S
C759 O771 1.281 . S
C759 O772 1.236 . S
C760 O782 1.240 . S
C760 O783 1.264 . S
O761 Mn756 2.095 . S
O761 C770 1.250 . S
O762 Mn757 2.121 . S
O762 C770 1.258 . S
C763 N764 1.326 . S
C763 C767 1.460 . S
C763 H769 0.929 . S
N764 Mn757 2.257 . S
N764 C763 1.326 . S
N764 C768 1.362 . S
C765 C766 1.258 . S
C765 C768 1.431 . S
C765 C785 1.449 . S
C766 C765 1.258 . S
C766 C767 1.477 . S
C766 H786 0.931 . S
C767 C763 1.460 . S
C767 C766 1.477 . S
C767 H787 0.930 1_554 S
C768 N764 1.362 . S
C768 C765 1.431 . S
C768 C778 1.476 . S
H769 C763 0.929 . S
C770 O761 1.250 . S
C770 O762 1.258 . S
O771 Mn756 2.162 . S
O771 C759 1.281 . S
O772 Mn756 2.297 . S
O772 C759 1.236 . S
N773 Mn757 2.282 . S
N773 C774 1.328 . S
N773 C778 1.318 . S
C774 N773 1.328 . S
C774 C775 1.457 . S
C774 H779 0.929 . S
C775 C774 1.457 . S
C775 C776 1.291 . S
C775 H788 0.931 . S
C776 C775 1.291 . S
C776 C777 1.373 . S
C776 H789 0.929 . S
C777 C776 1.373 . S
C777 C778 1.396 . S
C777 C784 1.403 . S
C778 C768 1.476 . S
C778 N773 1.318 . S
C778 C777 1.396 . S
H779 C774 0.929 . S
O780 Mn756 2.385 . S
O780 C758 1.234 . S
O781 Mn756 2.209 . S
O781 Mn757 2.215 . S
O781 C758 1.283 . S
O782 Mn756 2.094 . S
O782 C760 1.240 . S
O783 Mn757 2.117 . S
O783 C760 1.264 . S
C784 C777 1.403 . S
C784 C785 1.399 . S
C784 H790 0.929 . S
C785 C765 1.449 . S
C785 C784 1.399 . S
C785 H791 0.930 . S
H786 C766 0.931 . S
H787 C767 0.930 1_556 S
H788 C775 0.931 . S
H789 C776 0.929 . S
H790 C784 0.929 . S
H791 C785 0.930 . S
Mn792 O797 2.095 . S
Mn792 O807 2.162 . S
Mn792 O808 2.297 . S
Mn792 O816 2.385 . S
Mn792 O817 2.209 . S
Mn792 O818 2.094 . S
Mn793 O798 2.121 . S
Mn793 N800 2.257 . S
Mn793 N809 2.282 . S
Mn793 O817 2.215 . S
Mn793 O819 2.117 . S
C794 O816 1.234 . S
C794 O817 1.283 . S
C795 O807 1.281 . S
C795 O808 1.236 . S
C796 O818 1.240 . S
C796 O819 1.264 . S
O797 Mn792 2.095 . S
O797 C806 1.250 . S
O798 Mn793 2.121 . S
O798 C806 1.258 . S
C799 N800 1.326 . S
C799 C803 1.460 . S
C799 H805 0.929 . S
N800 Mn793 2.257 . S
N800 C799 1.326 . S
N800 C804 1.362 . S
C801 C802 1.258 . S
C801 C804 1.431 . S
C801 C821 1.449 . S
C802 C801 1.258 . S
C802 C803 1.477 . S
C802 H822 0.931 . S
C803 C799 1.460 . S
C803 C802 1.477 . S
C803 H823 0.930 1_554 S
C804 N800 1.362 . S
C804 C801 1.431 . S
C804 C814 1.476 . S
H805 C799 0.929 . S
C806 O797 1.250 . S
C806 O798 1.258 . S
O807 Mn792 2.162 . S
O807 C795 1.281 . S
O808 Mn792 2.297 . S
O808 C795 1.236 . S
N809 Mn793 2.282 . S
N809 C810 1.328 . S
N809 C814 1.318 . S
C810 N809 1.328 . S
C810 C811 1.457 . S
C810 H815 0.929 . S
C811 C810 1.457 . S
C811 C812 1.291 . S
C811 H824 0.931 . S
C812 C811 1.291 . S
C812 C813 1.373 . S
C812 H825 0.929 . S
C813 C812 1.373 . S
C813 C814 1.396 . S
C813 C820 1.403 . S
C814 C804 1.476 . S
C814 N809 1.318 . S
C814 C813 1.396 . S
H815 C810 0.929 . S
O816 Mn792 2.385 . S
O816 C794 1.234 . S
O817 Mn792 2.209 . S
O817 Mn793 2.215 . S
O817 C794 1.283 . S
O818 Mn792 2.094 . S
O818 C796 1.240 . S
O819 Mn793 2.117 . S
O819 C796 1.264 . S
C820 C813 1.403 . S
C820 C821 1.399 . S
C820 H826 0.929 . S
C821 C801 1.449 . S
C821 C820 1.399 . S
C821 H827 0.930 . S
H822 C802 0.931 . S
H823 C803 0.930 1_556 S
H824 C811 0.931 . S
H825 C812 0.929 . S
H826 C820 0.929 . S
H827 C821 0.930 . S
Mn828 O833 2.095 . S
Mn828 O843 2.162 . S
Mn828 O844 2.297 . S
Mn828 O852 2.385 . S
Mn828 O853 2.209 . S
Mn828 O854 2.094 . S
Mn829 O834 2.121 . S
Mn829 N836 2.257 . S
Mn829 N845 2.282 . S
Mn829 O853 2.215 . S
Mn829 O855 2.117 . S
C830 O852 1.234 . S
C830 O853 1.283 . S
C831 O843 1.281 . S
C831 O844 1.236 . S
C832 O854 1.240 . S
C832 O855 1.264 . S
O833 Mn828 2.095 . S
O833 C842 1.250 . S
O834 Mn829 2.121 . S
O834 C842 1.258 . S
C835 N836 1.326 . S
C835 C839 1.460 . S
C835 H841 0.929 . S
N836 Mn829 2.257 . S
N836 C835 1.326 . S
N836 C840 1.362 . S
C837 C838 1.258 . S
C837 C840 1.431 . S
C837 C857 1.449 . S
C838 C837 1.258 . S
C838 C839 1.477 . S
C838 H858 0.931 . S
C839 C835 1.460 . S
C839 C838 1.477 . S
C839 H859 0.930 1_554 S
C840 N836 1.362 . S
C840 C837 1.431 . S
C840 C850 1.476 . S
H841 C835 0.929 . S
C842 O833 1.250 . S
C842 O834 1.258 . S
O843 Mn828 2.162 . S
O843 C831 1.281 . S
O844 Mn828 2.297 . S
O844 C831 1.236 . S
N845 Mn829 2.282 . S
N845 C846 1.328 . S
N845 C850 1.318 . S
C846 N845 1.328 . S
C846 C847 1.457 . S
C846 H851 0.929 . S
C847 C846 1.457 . S
C847 C848 1.291 . S
C847 H860 0.931 . S
C848 C847 1.291 . S
C848 C849 1.373 . S
C848 H861 0.929 . S
C849 C848 1.373 . S
C849 C850 1.396 . S
C849 C856 1.403 . S
C850 C840 1.476 . S
C850 N845 1.318 . S
C850 C849 1.396 . S
H851 C846 0.929 . S
O852 Mn828 2.385 . S
O852 C830 1.234 . S
O853 Mn828 2.209 . S
O853 Mn829 2.215 . S
O853 C830 1.283 . S
O854 Mn828 2.094 . S
O854 C832 1.240 . S
O855 Mn829 2.117 . S
O855 C832 1.264 . S
C856 C849 1.403 . S
C856 C857 1.399 . S
C856 H862 0.929 . S
C857 C837 1.449 . S
C857 C856 1.399 . S
C857 H863 0.930 . S
H858 C838 0.931 . S
H859 C839 0.930 1_556 S
H860 C847 0.931 . S
H861 C848 0.929 . S
H862 C856 0.929 . S
H863 C857 0.930 . S
Mn864 O869 2.095 . S
Mn864 O879 2.162 . S
Mn864 O880 2.297 . S
Mn864 O888 2.385 . S
Mn864 O889 2.209 . S
Mn864 O890 2.094 . S
Mn865 O870 2.121 . S
Mn865 N872 2.257 . S
Mn865 N881 2.282 . S
Mn865 O889 2.215 . S
Mn865 O891 2.117 . S
C866 O888 1.234 . S
C866 O889 1.283 . S
C867 O879 1.281 . S
C867 O880 1.236 . S
C868 O890 1.240 . S
C868 O891 1.264 . S
O869 Mn864 2.095 . S
O869 C878 1.250 . S
O870 Mn865 2.121 . S
O870 C878 1.258 . S
C871 N872 1.326 . S
C871 C875 1.460 . S
C871 H877 0.929 . S
N872 Mn865 2.257 . S
N872 C871 1.326 . S
N872 C876 1.362 . S
C873 C874 1.258 . S
C873 C876 1.431 . S
C873 C893 1.449 . S
C874 C873 1.258 . S
C874 C875 1.477 . S
C874 H894 0.931 . S
C875 C871 1.460 . S
C875 C874 1.477 . S
C875 H895 0.930 . S
C876 N872 1.362 . S
C876 C873 1.431 . S
C876 C886 1.476 . S
H877 C871 0.929 . S
C878 O869 1.250 . S
C878 O870 1.258 . S
O879 Mn864 2.162 . S
O879 C867 1.281 . S
O880 Mn864 2.297 . S
O880 C867 1.236 . S
N881 Mn865 2.282 . S
N881 C882 1.328 . S
N881 C886 1.318 . S
C882 N881 1.328 . S
C882 C883 1.457 . S
C882 H887 0.929 . S
C883 C882 1.457 . S
C883 C884 1.291 . S
C883 H896 0.931 . S
C884 C883 1.291 . S
C884 C885 1.373 . S
C884 H897 0.929 . S
C885 C884 1.373 . S
C885 C886 1.396 . S
C885 C892 1.403 . S
C886 C876 1.476 . S
C886 N881 1.318 . S
C886 C885 1.396 . S
H887 C882 0.929 . S
O888 Mn864 2.385 . S
O888 C866 1.234 . S
O889 Mn864 2.209 . S
O889 Mn865 2.215 . S
O889 C866 1.283 . S
O890 Mn864 2.094 . S
O890 C868 1.240 . S
O891 Mn865 2.117 . S
O891 C868 1.264 . S
C892 C885 1.403 . S
C892 C893 1.399 . S
C892 H898 0.929 . S
C893 C873 1.449 . S
C893 C892 1.399 . S
C893 H899 0.930 . S
H894 C874 0.931 . S
H895 C875 0.930 . S
H896 C883 0.931 . S
H897 C884 0.929 . S
H898 C892 0.929 . S
H899 C893 0.930 . S
Mn900 O905 2.095 . S
Mn900 O915 2.162 . S
Mn900 O916 2.297 . S
Mn900 O924 2.385 . S
Mn900 O925 2.209 . S
Mn900 O926 2.094 . S
Mn901 O906 2.121 . S
Mn901 N908 2.257 . S
Mn901 N917 2.282 . S
Mn901 O925 2.215 . S
Mn901 O927 2.117 . S
C902 O924 1.234 . S
C902 O925 1.283 . S
C903 O915 1.281 . S
C903 O916 1.236 . S
C904 O926 1.240 . S
C904 O927 1.264 . S
O905 Mn900 2.095 . S
O905 C914 1.250 . S
O906 Mn901 2.121 . S
O906 C914 1.258 . S
C907 N908 1.326 . S
C907 C911 1.460 . S
C907 H913 0.929 . S
N908 Mn901 2.257 . S
N908 C907 1.326 . S
N908 C912 1.362 . S
C909 C910 1.258 . S
C909 C912 1.431 . S
C909 C929 1.449 . S
C910 C909 1.258 . S
C910 C911 1.477 . S
C910 H930 0.931 . S
C911 C907 1.460 . S
C911 C910 1.477 . S
C911 H931 0.930 . S
C912 N908 1.362 . S
C912 C909 1.431 . S
C912 C922 1.476 . S
H913 C907 0.929 . S
C914 O905 1.250 . S
C914 O906 1.258 . S
O915 Mn900 2.162 . S
O915 C903 1.281 . S
O916 Mn900 2.297 . S
O916 C903 1.236 . S
N917 Mn901 2.282 . S
N917 C918 1.328 . S
N917 C922 1.318 . S
C918 N917 1.328 . S
C918 C919 1.457 . S
C918 H923 0.929 . S
C919 C918 1.457 . S
C919 C920 1.291 . S
C919 H932 0.931 . S
C920 C919 1.291 . S
C920 C921 1.373 . S
C920 H933 0.929 . S
C921 C920 1.373 . S
C921 C922 1.396 . S
C921 C928 1.403 . S
C922 C912 1.476 . S
C922 N917 1.318 . S
C922 C921 1.396 . S
H923 C918 0.929 . S
O924 Mn900 2.385 . S
O924 C902 1.234 . S
O925 Mn900 2.209 . S
O925 Mn901 2.215 . S
O925 C902 1.283 . S
O926 Mn900 2.094 . S
O926 C904 1.240 . S
O927 Mn901 2.117 . S
O927 C904 1.264 . S
C928 C921 1.403 . S
C928 C929 1.399 . S
C928 H934 0.929 . S
C929 C909 1.449 . S
C929 C928 1.399 . S
C929 H935 0.930 . S
H930 C910 0.931 . S
H931 C911 0.930 . S
H932 C919 0.931 . S
H933 C920 0.929 . S
H934 C928 0.929 . S
H935 C929 0.930 . S
Mn936 O941 2.095 . S
Mn936 O951 2.162 . S
Mn936 O952 2.297 . S
Mn936 O960 2.385 . S
Mn936 O961 2.209 . S
Mn936 O962 2.094 . S
Mn937 O942 2.121 . S
Mn937 N944 2.257 . S
Mn937 N953 2.282 . S
Mn937 O961 2.215 . S
Mn937 O963 2.117 . S
C938 O960 1.234 . S
C938 O961 1.283 . S
C939 O951 1.281 . S
C939 O952 1.236 . S
C940 O962 1.240 . S
C940 O963 1.264 . S
O941 Mn936 2.095 . S
O941 C950 1.250 . S
O942 Mn937 2.121 . S
O942 C950 1.258 . S
C943 N944 1.326 . S
C943 C947 1.460 . S
C943 H949 0.929 . S
N944 Mn937 2.257 . S
N944 C943 1.326 . S
N944 C948 1.362 . S
C945 C946 1.258 . S
C945 C948 1.431 . S
C945 C965 1.449 . S
C946 C945 1.258 . S
C946 C947 1.477 . S
C946 H966 0.931 . S
C947 C943 1.460 . S
C947 C946 1.477 . S
C947 H967 0.930 . S
C948 N944 1.362 . S
C948 C945 1.431 . S
C948 C958 1.476 . S
H949 C943 0.929 . S
C950 O941 1.250 . S
C950 O942 1.258 . S
O951 Mn936 2.162 . S
O951 C939 1.281 . S
O952 Mn936 2.297 . S
O952 C939 1.236 . S
N953 Mn937 2.282 . S
N953 C954 1.328 . S
N953 C958 1.318 . S
C954 N953 1.328 . S
C954 C955 1.457 . S
C954 H959 0.929 . S
C955 C954 1.457 . S
C955 C956 1.291 . S
C955 H968 0.931 . S
C956 C955 1.291 . S
C956 C957 1.373 . S
C956 H969 0.929 . S
C957 C956 1.373 . S
C957 C958 1.396 . S
C957 C964 1.403 . S
C958 C948 1.476 . S
C958 N953 1.318 . S
C958 C957 1.396 . S
H959 C954 0.929 . S
O960 Mn936 2.385 . S
O960 C938 1.234 . S
O961 Mn936 2.209 . S
O961 Mn937 2.215 . S
O961 C938 1.283 . S
O962 Mn936 2.094 . S
O962 C940 1.240 . S
O963 Mn937 2.117 . S
O963 C940 1.264 . S
C964 C957 1.403 . S
C964 C965 1.399 . S
C964 H970 0.929 . S
C965 C945 1.449 . S
C965 C964 1.399 . S
C965 H971 0.930 . S
H966 C946 0.931 . S
H967 C947 0.930 . S
H968 C955 0.931 . S
H969 C956 0.929 . S
H970 C964 0.929 . S
H971 C965 0.930 . S
Mn972 O977 2.095 . S
Mn972 O987 2.162 . S
Mn972 O988 2.297 . S
Mn972 O996 2.385 . S
Mn972 O997 2.209 . S
Mn972 O998 2.094 . S
Mn973 O978 2.121 . S
Mn973 N980 2.257 . S
Mn973 N989 2.282 . S
Mn973 O997 2.215 . S
Mn973 O999 2.117 . S
C974 O996 1.234 . S
C974 O997 1.283 . S
C975 O987 1.281 . S
C975 O988 1.236 . S
C976 O998 1.240 . S
C976 O999 1.264 . S
O977 Mn972 2.095 . S
O977 C986 1.250 . S
O978 Mn973 2.121 . S
O978 C986 1.258 . S
C979 N980 1.326 . S
C979 C983 1.460 . S
C979 H985 0.929 . S
N980 Mn973 2.257 . S
N980 C979 1.326 . S
N980 C984 1.362 . S
C981 C982 1.258 . S
C981 C984 1.431 . S
C981 C1001 1.449 . S
C982 C981 1.258 . S
C982 C983 1.477 . S
C982 H1002 0.931 . S
C983 C979 1.460 . S
C983 C982 1.477 . S
C983 H1003 0.930 . S
C984 N980 1.362 . S
C984 C981 1.431 . S
C984 C994 1.476 . S
H985 C979 0.929 . S
C986 O977 1.250 . S
C986 O978 1.258 . S
O987 Mn972 2.162 . S
O987 C975 1.281 . S
O988 Mn972 2.297 . S
O988 C975 1.236 . S
N989 Mn973 2.282 . S
N989 C990 1.328 . S
N989 C994 1.318 . S
C990 N989 1.328 . S
C990 C991 1.457 . S
C990 H995 0.929 . S
C991 C990 1.457 . S
C991 C992 1.291 . S
C991 H1004 0.931 . S
C992 C991 1.291 . S
C992 C993 1.373 . S
C992 H1005 0.929 . S
C993 C992 1.373 . S
C993 C994 1.396 . S
C993 C1000 1.403 . S
C994 C984 1.476 . S
C994 N989 1.318 . S
C994 C993 1.396 . S
H995 C990 0.929 . S
O996 Mn972 2.385 . S
O996 C974 1.234 . S
O997 Mn972 2.209 . S
O997 Mn973 2.215 . S
O997 C974 1.283 . S
O998 Mn972 2.094 . S
O998 C976 1.240 . S
O999 Mn973 2.117 . S
O999 C976 1.264 . S
C1000 C993 1.403 . S
C1000 C1001 1.399 . S
C1000 H1006 0.929 . S
C1001 C981 1.449 . S
C1001 C1000 1.399 . S
C1001 H1007 0.930 . S
H1002 C982 0.931 . S
H1003 C983 0.930 . S
H1004 C991 0.931 . S
H1005 C992 0.929 . S
H1006 C1000 0.929 . S
H1007 C1001 0.930 . S
Mn1008 O1013 2.095 . S
Mn1008 O1023 2.162 . S
Mn1008 O1024 2.297 . S
Mn1008 O1032 2.385 . S
Mn1008 O1033 2.209 . S
Mn1008 O1034 2.094 . S
Mn1009 O1014 2.121 . S
Mn1009 N1016 2.257 . S
Mn1009 N1025 2.282 . S
Mn1009 O1033 2.215 . S
Mn1009 O1035 2.117 . S
C1010 O1032 1.234 . S
C1010 O1033 1.283 . S
C1011 O1023 1.281 . S
C1011 O1024 1.236 . S
C1012 O1034 1.240 . S
C1012 O1035 1.264 . S
O1013 Mn1008 2.095 . S
O1013 C1022 1.250 . S
O1014 Mn1009 2.121 . S
O1014 C1022 1.258 . S
C1015 N1016 1.326 . S
C1015 C1019 1.460 . S
C1015 H1021 0.929 . S
N1016 Mn1009 2.257 . S
N1016 C1015 1.326 . S
N1016 C1020 1.362 . S
C1017 C1018 1.258 . S
C1017 C1020 1.431 . S
C1017 C1037 1.449 . S
C1018 C1017 1.258 . S
C1018 C1019 1.477 . S
C1018 H1038 0.931 . S
C1019 C1015 1.460 . S
C1019 C1018 1.477 . S
C1019 H1039 0.930 . S
C1020 N1016 1.362 . S
C1020 C1017 1.431 . S
C1020 C1030 1.476 . S
H1021 C1015 0.929 . S
C1022 O1013 1.250 . S
C1022 O1014 1.258 . S
O1023 Mn1008 2.162 . S
O1023 C1011 1.281 . S
O1024 Mn1008 2.297 . S
O1024 C1011 1.236 . S
N1025 Mn1009 2.282 . S
N1025 C1026 1.328 . S
N1025 C1030 1.318 . S
C1026 N1025 1.328 . S
C1026 C1027 1.457 . S
C1026 H1031 0.929 . S
C1027 C1026 1.457 . S
C1027 C1028 1.291 . S
C1027 H1040 0.931 . S
C1028 C1027 1.291 . S
C1028 C1029 1.373 . S
C1028 H1041 0.929 . S
C1029 C1028 1.373 . S
C1029 C1030 1.396 . S
C1029 C1036 1.403 . S
C1030 C1020 1.476 . S
C1030 N1025 1.318 . S
C1030 C1029 1.396 . S
H1031 C1026 0.929 . S
O1032 Mn1008 2.385 . S
O1032 C1010 1.234 . S
O1033 Mn1008 2.209 . S
O1033 Mn1009 2.215 . S
O1033 C1010 1.283 . S
O1034 Mn1008 2.094 . S
O1034 C1012 1.240 . S
O1035 Mn1009 2.117 . S
O1035 C1012 1.264 . S
C1036 C1029 1.403 . S
C1036 C1037 1.399 . S
C1036 H1042 0.929 . S
C1037 C1017 1.449 . S
C1037 C1036 1.399 . S
C1037 H1043 0.930 . S
H1038 C1018 0.931 . S
H1039 C1019 0.930 . S
H1040 C1027 0.931 . S
H1041 C1028 0.929 . S
H1042 C1036 0.929 . S
H1043 C1037 0.930 . S
Mn1044 O1049 2.095 . S
Mn1044 O1059 2.162 . S
Mn1044 O1060 2.297 . S
Mn1044 O1068 2.385 . S
Mn1044 O1069 2.209 . S
Mn1044 O1070 2.094 . S
Mn1045 O1050 2.121 . S
Mn1045 N1052 2.257 . S
Mn1045 N1061 2.282 . S
Mn1045 O1069 2.215 . S
Mn1045 O1071 2.117 . S
C1046 O1068 1.234 . S
C1046 O1069 1.283 . S
C1047 O1059 1.281 . S
C1047 O1060 1.236 . S
C1048 O1070 1.240 . S
C1048 O1071 1.264 . S
O1049 Mn1044 2.095 . S
O1049 C1058 1.250 . S
O1050 Mn1045 2.121 . S
O1050 C1058 1.258 . S
C1051 N1052 1.326 . S
C1051 C1055 1.460 . S
C1051 H1057 0.929 . S
N1052 Mn1045 2.257 . S
N1052 C1051 1.326 . S
N1052 C1056 1.362 . S
C1053 C1054 1.258 . S
C1053 C1056 1.431 . S
C1053 C1073 1.449 . S
C1054 C1053 1.258 . S
C1054 C1055 1.477 . S
C1054 H1074 0.931 . S
C1055 C1051 1.460 . S
C1055 C1054 1.477 . S
C1055 H1075 0.930 . S
C1056 N1052 1.362 . S
C1056 C1053 1.431 . S
C1056 C1066 1.476 . S
H1057 C1051 0.929 . S
C1058 O1049 1.250 . S
C1058 O1050 1.258 . S
O1059 Mn1044 2.162 . S
O1059 C1047 1.281 . S
O1060 Mn1044 2.297 . S
O1060 C1047 1.236 . S
N1061 Mn1045 2.282 . S
N1061 C1062 1.328 . S
N1061 C1066 1.318 . S
C1062 N1061 1.328 . S
C1062 C1063 1.457 . S
C1062 H1067 0.929 . S
C1063 C1062 1.457 . S
C1063 C1064 1.291 . S
C1063 H1076 0.931 . S
C1064 C1063 1.291 . S
C1064 C1065 1.373 . S
C1064 H1077 0.929 . S
C1065 C1064 1.373 . S
C1065 C1066 1.396 . S
C1065 C1072 1.403 . S
C1066 C1056 1.476 . S
C1066 N1061 1.318 . S
C1066 C1065 1.396 . S
H1067 C1062 0.929 . S
O1068 Mn1044 2.385 . S
O1068 C1046 1.234 . S
O1069 Mn1044 2.209 . S
O1069 Mn1045 2.215 . S
O1069 C1046 1.283 . S
O1070 Mn1044 2.094 . S
O1070 C1048 1.240 . S
O1071 Mn1045 2.117 . S
O1071 C1048 1.264 . S
C1072 C1065 1.403 . S
C1072 C1073 1.399 . S
C1072 H1078 0.929 . S
C1073 C1053 1.449 . S
C1073 C1072 1.399 . S
C1073 H1079 0.930 . S
H1074 C1054 0.931 . S
H1075 C1055 0.930 . S
H1076 C1063 0.931 . S
H1077 C1064 0.929 . S
H1078 C1072 0.929 . S
H1079 C1073 0.930 . S
Mn1080 O1085 2.095 . S
Mn1080 O1095 2.162 . S
Mn1080 O1096 2.297 . S
Mn1080 O1104 2.385 . S
Mn1080 O1105 2.209 . S
Mn1080 O1106 2.094 . S
Mn1081 O1086 2.121 . S
Mn1081 N1088 2.257 . S
Mn1081 N1097 2.282 . S
Mn1081 O1105 2.215 . S
Mn1081 O1107 2.117 . S
C1082 O1104 1.234 . S
C1082 O1105 1.283 . S
C1083 O1095 1.281 . S
C1083 O1096 1.236 . S
C1084 O1106 1.240 . S
C1084 O1107 1.264 . S
O1085 Mn1080 2.095 . S
O1085 C1094 1.250 . S
O1086 Mn1081 2.121 . S
O1086 C1094 1.258 . S
C1087 N1088 1.326 . S
C1087 C1091 1.460 . S
C1087 H1093 0.929 . S
N1088 Mn1081 2.257 . S
N1088 C1087 1.326 . S
N1088 C1092 1.362 . S
C1089 C1090 1.258 . S
C1089 C1092 1.431 . S
C1089 C1109 1.449 . S
C1090 C1089 1.258 . S
C1090 C1091 1.477 . S
C1090 H1110 0.931 . S
C1091 C1087 1.460 . S
C1091 C1090 1.477 . S
C1091 H1111 0.930 . S
C1092 N1088 1.362 . S
C1092 C1089 1.431 . S
C1092 C1102 1.476 . S
H1093 C1087 0.929 . S
C1094 O1085 1.250 . S
C1094 O1086 1.258 . S
O1095 Mn1080 2.162 . S
O1095 C1083 1.281 . S
O1096 Mn1080 2.297 . S
O1096 C1083 1.236 . S
N1097 Mn1081 2.282 . S
N1097 C1098 1.328 . S
N1097 C1102 1.318 . S
C1098 N1097 1.328 . S
C1098 C1099 1.457 . S
C1098 H1103 0.929 . S
C1099 C1098 1.457 . S
C1099 C1100 1.291 . S
C1099 H1112 0.931 . S
C1100 C1099 1.291 . S
C1100 C1101 1.373 . S
C1100 H1113 0.929 . S
C1101 C1100 1.373 . S
C1101 C1102 1.396 . S
C1101 C1108 1.403 . S
C1102 C1092 1.476 . S
C1102 N1097 1.318 . S
C1102 C1101 1.396 . S
H1103 C1098 0.929 . S
O1104 Mn1080 2.385 . S
O1104 C1082 1.234 . S
O1105 Mn1080 2.209 . S
O1105 Mn1081 2.215 . S
O1105 C1082 1.283 . S
O1106 Mn1080 2.094 . S
O1106 C1084 1.240 . S
O1107 Mn1081 2.117 . S
O1107 C1084 1.264 . S
C1108 C1101 1.403 . S
C1108 C1109 1.399 . S
C1108 H1114 0.929 . S
C1109 C1089 1.449 . S
C1109 C1108 1.399 . S
C1109 H1115 0.930 . S
H1110 C1090 0.931 . S
H1111 C1091 0.930 . S
H1112 C1099 0.931 . S
H1113 C1100 0.929 . S
H1114 C1108 0.929 . S
H1115 C1109 0.930 . S
Mn1116 O1121 2.095 . S
Mn1116 O1131 2.162 . S
Mn1116 O1132 2.297 . S
Mn1116 O1140 2.385 . S
Mn1116 O1141 2.209 . S
Mn1116 O1142 2.094 . S
Mn1117 O1122 2.121 . S
Mn1117 N1124 2.257 . S
Mn1117 N1133 2.282 . S
Mn1117 O1141 2.215 . S
Mn1117 O1143 2.117 . S
C1118 O1140 1.234 . S
C1118 O1141 1.283 . S
C1119 O1131 1.281 . S
C1119 O1132 1.236 . S
C1120 O1142 1.240 . S
C1120 O1143 1.264 . S
O1121 Mn1116 2.095 . S
O1121 C1130 1.250 . S
O1122 Mn1117 2.121 . S
O1122 C1130 1.258 . S
C1123 N1124 1.326 . S
C1123 C1127 1.460 . S
C1123 H1129 0.929 . S
N1124 Mn1117 2.257 . S
N1124 C1123 1.326 . S
N1124 C1128 1.362 . S
C1125 C1126 1.258 . S
C1125 C1128 1.431 . S
C1125 C1145 1.449 . S
C1126 C1125 1.258 . S
C1126 C1127 1.477 . S
C1126 H1146 0.931 . S
C1127 C1123 1.460 . S
C1127 C1126 1.477 . S
C1127 H1147 0.930 . S
C1128 N1124 1.362 . S
C1128 C1125 1.431 . S
C1128 C1138 1.476 . S
H1129 C1123 0.929 . S
C1130 O1121 1.250 . S
C1130 O1122 1.258 . S
O1131 Mn1116 2.162 . S
O1131 C1119 1.281 . S
O1132 Mn1116 2.297 . S
O1132 C1119 1.236 . S
N1133 Mn1117 2.282 . S
N1133 C1134 1.328 . S
N1133 C1138 1.318 . S
C1134 N1133 1.328 . S
C1134 C1135 1.457 . S
C1134 H1139 0.929 . S
C1135 C1134 1.457 . S
C1135 C1136 1.291 . S
C1135 H1148 0.931 . S
C1136 C1135 1.291 . S
C1136 C1137 1.373 . S
C1136 H1149 0.929 . S
C1137 C1136 1.373 . S
C1137 C1138 1.396 . S
C1137 C1144 1.403 . S
C1138 C1128 1.476 . S
C1138 N1133 1.318 . S
C1138 C1137 1.396 . S
H1139 C1134 0.929 . S
O1140 Mn1116 2.385 . S
O1140 C1118 1.234 . S
O1141 Mn1116 2.209 . S
O1141 Mn1117 2.215 . S
O1141 C1118 1.283 . S
O1142 Mn1116 2.094 . S
O1142 C1120 1.240 . S
O1143 Mn1117 2.117 . S
O1143 C1120 1.264 . S
C1144 C1137 1.403 . S
C1144 C1145 1.399 . S
C1144 H1150 0.929 . S
C1145 C1125 1.449 . S
C1145 C1144 1.399 . S
C1145 H1151 0.930 . S
H1146 C1126 0.931 . S
H1147 C1127 0.930 . S
H1148 C1135 0.931 . S
H1149 C1136 0.929 . S
H1150 C1144 0.929 . S
H1151 C1145 0.930 . S
Mn1152 O1157 2.095 . S
Mn1152 O1167 2.162 . S
Mn1152 O1168 2.297 . S
Mn1152 O1176 2.385 . S
Mn1152 O1177 2.209 . S
Mn1152 O1178 2.094 . S
Mn1153 O1158 2.121 . S
Mn1153 N1160 2.257 . S
Mn1153 N1169 2.282 . S
Mn1153 O1177 2.215 . S
Mn1153 O1179 2.117 . S
C1154 O1176 1.234 . S
C1154 O1177 1.283 . S
C1155 O1167 1.281 . S
C1155 O1168 1.236 . S
C1156 O1178 1.240 . S
C1156 O1179 1.264 . S
O1157 Mn1152 2.095 . S
O1157 C1166 1.250 . S
O1158 Mn1153 2.121 . S
O1158 C1166 1.258 . S
C1159 N1160 1.326 . S
C1159 C1163 1.460 . S
C1159 H1165 0.929 . S
N1160 Mn1153 2.257 . S
N1160 C1159 1.326 . S
N1160 C1164 1.362 . S
C1161 C1162 1.258 . S
C1161 C1164 1.431 . S
C1161 C1181 1.449 . S
C1162 C1161 1.258 . S
C1162 C1163 1.477 . S
C1162 H1182 0.931 . S
C1163 C1159 1.460 . S
C1163 C1162 1.477 . S
C1163 H1183 0.930 . S
C1164 N1160 1.362 . S
C1164 C1161 1.431 . S
C1164 C1174 1.476 . S
H1165 C1159 0.929 . S
C1166 O1157 1.250 . S
C1166 O1158 1.258 . S
O1167 Mn1152 2.162 . S
O1167 C1155 1.281 . S
O1168 Mn1152 2.297 . S
O1168 C1155 1.236 . S
N1169 Mn1153 2.282 . S
N1169 C1170 1.328 . S
N1169 C1174 1.318 . S
C1170 N1169 1.328 . S
C1170 C1171 1.457 . S
C1170 H1175 0.929 . S
C1171 C1170 1.457 . S
C1171 C1172 1.291 . S
C1171 H1184 0.931 . S
C1172 C1171 1.291 . S
C1172 C1173 1.373 . S
C1172 H1185 0.929 . S
C1173 C1172 1.373 . S
C1173 C1174 1.396 . S
C1173 C1180 1.403 . S
C1174 C1164 1.476 . S
C1174 N1169 1.318 . S
C1174 C1173 1.396 . S
H1175 C1170 0.929 . S
O1176 Mn1152 2.385 . S
O1176 C1154 1.234 . S
O1177 Mn1152 2.209 . S
O1177 Mn1153 2.215 . S
O1177 C1154 1.283 . S
O1178 Mn1152 2.094 . S
O1178 C1156 1.240 . S
O1179 Mn1153 2.117 . S
O1179 C1156 1.264 . S
C1180 C1173 1.403 . S
C1180 C1181 1.399 . S
C1180 H1186 0.929 . S
C1181 C1161 1.449 . S
C1181 C1180 1.399 . S
C1181 H1187 0.930 . S
H1182 C1162 0.931 . S
H1183 C1163 0.930 . S
H1184 C1171 0.931 . S
H1185 C1172 0.929 . S
H1186 C1180 0.929 . S
H1187 C1181 0.930 . S
Mn1188 O1193 2.095 . S
Mn1188 O1203 2.162 . S
Mn1188 O1204 2.297 . S
Mn1188 O1212 2.385 . S
Mn1188 O1213 2.209 . S
Mn1188 O1214 2.094 . S
Mn1189 O1194 2.121 . S
Mn1189 N1196 2.257 . S
Mn1189 N1205 2.282 . S
Mn1189 O1213 2.215 . S
Mn1189 O1215 2.117 . S
C1190 O1212 1.234 . S
C1190 O1213 1.283 . S
C1191 O1203 1.281 . S
C1191 O1204 1.236 . S
C1192 O1214 1.240 . S
C1192 O1215 1.264 . S
O1193 Mn1188 2.095 . S
O1193 C1202 1.250 . S
O1194 Mn1189 2.121 . S
O1194 C1202 1.258 . S
C1195 N1196 1.326 . S
C1195 C1199 1.460 . S
C1195 H1201 0.929 . S
N1196 Mn1189 2.257 . S
N1196 C1195 1.326 . S
N1196 C1200 1.362 . S
C1197 C1198 1.258 . S
C1197 C1200 1.431 . S
C1197 C1217 1.449 . S
C1198 C1197 1.258 . S
C1198 C1199 1.477 . S
C1198 H1218 0.931 . S
C1199 C1195 1.460 . S
C1199 C1198 1.477 . S
C1199 H1219 0.930 . S
C1200 N1196 1.362 . S
C1200 C1197 1.431 . S
C1200 C1210 1.476 . S
H1201 C1195 0.929 . S
C1202 O1193 1.250 . S
C1202 O1194 1.258 . S
O1203 Mn1188 2.162 . S
O1203 C1191 1.281 . S
O1204 Mn1188 2.297 . S
O1204 C1191 1.236 . S
N1205 Mn1189 2.282 . S
N1205 C1206 1.328 . S
N1205 C1210 1.318 . S
C1206 N1205 1.328 . S
C1206 C1207 1.457 . S
C1206 H1211 0.929 . S
C1207 C1206 1.457 . S
C1207 C1208 1.291 . S
C1207 H1220 0.931 . S
C1208 C1207 1.291 . S
C1208 C1209 1.373 . S
C1208 H1221 0.929 . S
C1209 C1208 1.373 . S
C1209 C1210 1.396 . S
C1209 C1216 1.403 . S
C1210 C1200 1.476 . S
C1210 N1205 1.318 . S
C1210 C1209 1.396 . S
H1211 C1206 0.929 . S
O1212 Mn1188 2.385 . S
O1212 C1190 1.234 . S
O1213 Mn1188 2.209 . S
O1213 Mn1189 2.215 . S
O1213 C1190 1.283 . S
O1214 Mn1188 2.094 . S
O1214 C1192 1.240 . S
O1215 Mn1189 2.117 . S
O1215 C1192 1.264 . S
C1216 C1209 1.403 . S
C1216 C1217 1.399 . S
C1216 H1222 0.929 . S
C1217 C1197 1.449 . S
C1217 C1216 1.399 . S
C1217 H1223 0.930 . S
H1218 C1198 0.931 . S
H1219 C1199 0.930 . S
H1220 C1207 0.931 . S
H1221 C1208 0.929 . S
H1222 C1216 0.929 . S
H1223 C1217 0.930 . S
Mn1224 O1229 2.095 . S
Mn1224 O1239 2.162 . S
Mn1224 O1240 2.297 . S
Mn1224 O1248 2.385 . S
Mn1224 O1249 2.209 . S
Mn1224 O1250 2.094 . S
Mn1225 O1230 2.121 . S
Mn1225 N1232 2.257 . S
Mn1225 N1241 2.282 . S
Mn1225 O1249 2.215 . S
Mn1225 O1251 2.117 . S
C1226 O1248 1.234 . S
C1226 O1249 1.283 . S
C1227 O1239 1.281 . S
C1227 O1240 1.236 . S
C1228 O1250 1.240 . S
C1228 O1251 1.264 . S
O1229 Mn1224 2.095 . S
O1229 C1238 1.250 . S
O1230 Mn1225 2.121 . S
O1230 C1238 1.258 . S
C1231 N1232 1.326 . S
C1231 C1235 1.460 . S
C1231 H1237 0.929 . S
N1232 Mn1225 2.257 . S
N1232 C1231 1.326 . S
N1232 C1236 1.362 . S
C1233 C1234 1.258 . S
C1233 C1236 1.431 . S
C1233 C1253 1.449 . S
C1234 C1233 1.258 . S
C1234 C1235 1.477 . S
C1234 H1254 0.931 . S
C1235 C1231 1.460 . S
C1235 C1234 1.477 . S
C1235 H1255 0.930 . S
C1236 N1232 1.362 . S
C1236 C1233 1.431 . S
C1236 C1246 1.476 . S
H1237 C1231 0.929 . S
C1238 O1229 1.250 . S
C1238 O1230 1.258 . S
O1239 Mn1224 2.162 . S
O1239 C1227 1.281 . S
O1240 Mn1224 2.297 . S
O1240 C1227 1.236 . S
N1241 Mn1225 2.282 . S
N1241 C1242 1.328 . S
N1241 C1246 1.318 . S
C1242 N1241 1.328 . S
C1242 C1243 1.457 . S
C1242 H1247 0.929 . S
C1243 C1242 1.457 . S
C1243 C1244 1.291 . S
C1243 H1256 0.931 . S
C1244 C1243 1.291 . S
C1244 C1245 1.373 . S
C1244 H1257 0.929 . S
C1245 C1244 1.373 . S
C1245 C1246 1.396 . S
C1245 C1252 1.403 . S
C1246 C1236 1.476 . S
C1246 N1241 1.318 . S
C1246 C1245 1.396 . S
H1247 C1242 0.929 . S
O1248 Mn1224 2.385 . S
O1248 C1226 1.234 . S
O1249 Mn1224 2.209 . S
O1249 Mn1225 2.215 . S
O1249 C1226 1.283 . S
O1250 Mn1224 2.094 . S
O1250 C1228 1.240 . S
O1251 Mn1225 2.117 . S
O1251 C1228 1.264 . S
C1252 C1245 1.403 . S
C1252 C1253 1.399 . S
C1252 H1258 0.929 . S
C1253 C1233 1.449 . S
C1253 C1252 1.399 . S
C1253 H1259 0.930 . S
H1254 C1234 0.931 . S
H1255 C1235 0.930 . S
H1256 C1243 0.931 . S
H1257 C1244 0.929 . S
H1258 C1252 0.929 . S
H1259 C1253 0.930 . S
Mn1260 O1265 2.095 . S
Mn1260 O1275 2.162 . S
Mn1260 O1276 2.297 . S
Mn1260 O1284 2.385 . S
Mn1260 O1285 2.209 . S
Mn1260 O1286 2.094 . S
Mn1261 O1266 2.121 . S
Mn1261 N1268 2.257 . S
Mn1261 N1277 2.282 . S
Mn1261 O1285 2.215 . S
Mn1261 O1287 2.117 . S
C1262 O1284 1.234 . S
C1262 O1285 1.283 . S
C1263 O1275 1.281 . S
C1263 O1276 1.236 . S
C1264 O1286 1.240 . S
C1264 O1287 1.264 . S
O1265 Mn1260 2.095 . S
O1265 C1274 1.250 . S
O1266 Mn1261 2.121 . S
O1266 C1274 1.258 . S
C1267 N1268 1.326 . S
C1267 C1271 1.460 . S
C1267 H1273 0.929 . S
N1268 Mn1261 2.257 . S
N1268 C1267 1.326 . S
N1268 C1272 1.362 . S
C1269 C1270 1.258 . S
C1269 C1272 1.431 . S
C1269 C1289 1.449 . S
C1270 C1269 1.258 . S
C1270 C1271 1.477 . S
C1270 H1290 0.931 . S
C1271 C1267 1.460 . S
C1271 C1270 1.477 . S
C1271 H1291 0.930 . S
C1272 N1268 1.362 . S
C1272 C1269 1.431 . S
C1272 C1282 1.476 . S
H1273 C1267 0.929 . S
C1274 O1265 1.250 . S
C1274 O1266 1.258 . S
O1275 Mn1260 2.162 . S
O1275 C1263 1.281 . S
O1276 Mn1260 2.297 . S
O1276 C1263 1.236 . S
N1277 Mn1261 2.282 . S
N1277 C1278 1.328 . S
N1277 C1282 1.318 . S
C1278 N1277 1.328 . S
C1278 C1279 1.457 . S
C1278 H1283 0.929 . S
C1279 C1278 1.457 . S
C1279 C1280 1.291 . S
C1279 H1292 0.931 . S
C1280 C1279 1.291 . S
C1280 C1281 1.373 . S
C1280 H1293 0.929 . S
C1281 C1280 1.373 . S
C1281 C1282 1.396 . S
C1281 C1288 1.403 . S
C1282 C1272 1.476 . S
C1282 N1277 1.318 . S
C1282 C1281 1.396 . S
H1283 C1278 0.929 . S
O1284 Mn1260 2.385 . S
O1284 C1262 1.234 . S
O1285 Mn1260 2.209 . S
O1285 Mn1261 2.215 . S
O1285 C1262 1.283 . S
O1286 Mn1260 2.094 . S
O1286 C1264 1.240 . S
O1287 Mn1261 2.117 . S
O1287 C1264 1.264 . S
C1288 C1281 1.403 . S
C1288 C1289 1.399 . S
C1288 H1294 0.929 . S
C1289 C1269 1.449 . S
C1289 C1288 1.399 . S
C1289 H1295 0.930 . S
H1290 C1270 0.931 . S
H1291 C1271 0.930 . S
H1292 C1279 0.931 . S
H1293 C1280 0.929 . S
H1294 C1288 0.929 . S
H1295 C1289 0.930 . S
Mn1296 O1301 2.095 . S
Mn1296 O1311 2.162 . S
Mn1296 O1312 2.297 . S
Mn1296 O1320 2.385 . S
Mn1296 O1321 2.209 . S
Mn1296 O1322 2.094 . S
Mn1297 O1302 2.121 . S
Mn1297 N1304 2.257 . S
Mn1297 N1313 2.282 . S
Mn1297 O1321 2.215 . S
Mn1297 O1323 2.117 . S
C1298 O1320 1.234 . S
C1298 O1321 1.283 . S
C1299 O1311 1.281 . S
C1299 O1312 1.236 . S
C1300 O1322 1.240 . S
C1300 O1323 1.264 . S
O1301 Mn1296 2.095 . S
O1301 C1310 1.250 . S
O1302 Mn1297 2.121 . S
O1302 C1310 1.258 . S
C1303 N1304 1.326 . S
C1303 C1307 1.460 . S
C1303 H1309 0.929 . S
N1304 Mn1297 2.257 . S
N1304 C1303 1.326 . S
N1304 C1308 1.362 . S
C1305 C1306 1.258 . S
C1305 C1308 1.431 . S
C1305 C1325 1.449 . S
C1306 C1305 1.258 . S
C1306 C1307 1.477 . S
C1306 H1326 0.931 . S
C1307 C1303 1.460 . S
C1307 C1306 1.477 . S
C1307 H1327 0.930 . S
C1308 N1304 1.362 . S
C1308 C1305 1.431 . S
C1308 C1318 1.476 . S
H1309 C1303 0.929 . S
C1310 O1301 1.250 . S
C1310 O1302 1.258 . S
O1311 Mn1296 2.162 . S
O1311 C1299 1.281 . S
O1312 Mn1296 2.297 . S
O1312 C1299 1.236 . S
N1313 Mn1297 2.282 . S
N1313 C1314 1.328 . S
N1313 C1318 1.318 . S
C1314 N1313 1.328 . S
C1314 C1315 1.457 . S
C1314 H1319 0.929 . S
C1315 C1314 1.457 . S
C1315 C1316 1.291 . S
C1315 H1328 0.931 . S
C1316 C1315 1.291 . S
C1316 C1317 1.373 . S
C1316 H1329 0.929 . S
C1317 C1316 1.373 . S
C1317 C1318 1.396 . S
C1317 C1324 1.403 . S
C1318 C1308 1.476 . S
C1318 N1313 1.318 . S
C1318 C1317 1.396 . S
H1319 C1314 0.929 . S
O1320 Mn1296 2.385 . S
O1320 C1298 1.234 . S
O1321 Mn1296 2.209 . S
O1321 Mn1297 2.215 . S
O1321 C1298 1.283 . S
O1322 Mn1296 2.094 . S
O1322 C1300 1.240 . S
O1323 Mn1297 2.117 . S
O1323 C1300 1.264 . S
C1324 C1317 1.403 . S
C1324 C1325 1.399 . S
C1324 H1330 0.929 . S
C1325 C1305 1.449 . S
C1325 C1324 1.399 . S
C1325 H1331 0.930 . S
H1326 C1306 0.931 . S
H1327 C1307 0.930 . S
H1328 C1315 0.931 . S
H1329 C1316 0.929 . S
H1330 C1324 0.929 . S
H1331 C1325 0.930 . S
Mn1332 O1337 2.095 . S
Mn1332 O1347 2.162 . S
Mn1332 O1348 2.297 . S
Mn1332 O1356 2.385 . S
Mn1332 O1357 2.209 . S
Mn1332 O1358 2.094 . S
Mn1333 O1338 2.121 . S
Mn1333 N1340 2.257 . S
Mn1333 N1349 2.282 . S
Mn1333 O1357 2.215 . S
Mn1333 O1359 2.117 . S
C1334 O1356 1.234 . S
C1334 O1357 1.283 . S
C1335 O1347 1.281 . S
C1335 O1348 1.236 . S
C1336 O1358 1.240 . S
C1336 O1359 1.264 . S
O1337 Mn1332 2.095 . S
O1337 C1346 1.250 . S
O1338 Mn1333 2.121 . S
O1338 C1346 1.258 . S
C1339 N1340 1.326 . S
C1339 C1343 1.460 . S
C1339 H1345 0.929 . S
N1340 Mn1333 2.257 . S
N1340 C1339 1.326 . S
N1340 C1344 1.362 . S
C1341 C1342 1.258 . S
C1341 C1344 1.431 . S
C1341 C1361 1.449 . S
C1342 C1341 1.258 . S
C1342 C1343 1.477 . S
C1342 H1362 0.931 . S
C1343 C1339 1.460 . S
C1343 C1342 1.477 . S
C1343 H1363 0.930 . S
C1344 N1340 1.362 . S
C1344 C1341 1.431 . S
C1344 C1354 1.476 . S
H1345 C1339 0.929 . S
C1346 O1337 1.250 . S
C1346 O1338 1.258 . S
O1347 Mn1332 2.162 . S
O1347 C1335 1.281 . S
O1348 Mn1332 2.297 . S
O1348 C1335 1.236 . S
N1349 Mn1333 2.282 . S
N1349 C1350 1.328 . S
N1349 C1354 1.318 . S
C1350 N1349 1.328 . S
C1350 C1351 1.457 . S
C1350 H1355 0.929 . S
C1351 C1350 1.457 . S
C1351 C1352 1.291 . S
C1351 H1364 0.931 . S
C1352 C1351 1.291 . S
C1352 C1353 1.373 . S
C1352 H1365 0.929 . S
C1353 C1352 1.373 . S
C1353 C1354 1.396 . S
C1353 C1360 1.403 . S
C1354 C1344 1.476 . S
C1354 N1349 1.318 . S
C1354 C1353 1.396 . S
H1355 C1350 0.929 . S
O1356 Mn1332 2.385 . S
O1356 C1334 1.234 . S
O1357 Mn1332 2.209 . S
O1357 Mn1333 2.215 . S
O1357 C1334 1.283 . S
O1358 Mn1332 2.094 . S
O1358 C1336 1.240 . S
O1359 Mn1333 2.117 . S
O1359 C1336 1.264 . S
C1360 C1353 1.403 . S
C1360 C1361 1.399 . S
C1360 H1366 0.929 . S
C1361 C1341 1.449 . S
C1361 C1360 1.399 . S
C1361 H1367 0.930 . S
H1362 C1342 0.931 . S
H1363 C1343 0.930 . S
H1364 C1351 0.931 . S
H1365 C1352 0.929 . S
H1366 C1360 0.929 . S
H1367 C1361 0.930 . S
Mn1368 O1373 2.095 . S
Mn1368 O1383 2.162 . S
Mn1368 O1384 2.297 . S
Mn1368 O1392 2.385 . S
Mn1368 O1393 2.209 . S
Mn1368 O1394 2.094 . S
Mn1369 O1374 2.121 . S
Mn1369 N1376 2.257 . S
Mn1369 N1385 2.282 . S
Mn1369 O1393 2.215 . S
Mn1369 O1395 2.117 . S
C1370 O1392 1.234 . S
C1370 O1393 1.283 . S
C1371 O1383 1.281 . S
C1371 O1384 1.236 . S
C1372 O1394 1.240 . S
C1372 O1395 1.264 . S
O1373 Mn1368 2.095 . S
O1373 C1382 1.250 . S
O1374 Mn1369 2.121 . S
O1374 C1382 1.258 . S
C1375 N1376 1.326 . S
C1375 C1379 1.460 . S
C1375 H1381 0.929 . S
N1376 Mn1369 2.257 . S
N1376 C1375 1.326 . S
N1376 C1380 1.362 . S
C1377 C1378 1.258 . S
C1377 C1380 1.431 . S
C1377 C1397 1.449 . S
C1378 C1377 1.258 . S
C1378 C1379 1.477 . S
C1378 H1398 0.931 . S
C1379 C1375 1.460 . S
C1379 C1378 1.477 . S
C1379 H1399 0.930 . S
C1380 N1376 1.362 . S
C1380 C1377 1.431 . S
C1380 C1390 1.476 . S
H1381 C1375 0.929 . S
C1382 O1373 1.250 . S
C1382 O1374 1.258 . S
O1383 Mn1368 2.162 . S
O1383 C1371 1.281 . S
O1384 Mn1368 2.297 . S
O1384 C1371 1.236 . S
N1385 Mn1369 2.282 . S
N1385 C1386 1.328 . S
N1385 C1390 1.318 . S
C1386 N1385 1.328 . S
C1386 C1387 1.457 . S
C1386 H1391 0.929 . S
C1387 C1386 1.457 . S
C1387 C1388 1.291 . S
C1387 H1400 0.931 . S
C1388 C1387 1.291 . S
C1388 C1389 1.373 . S
C1388 H1401 0.929 . S
C1389 C1388 1.373 . S
C1389 C1390 1.396 . S
C1389 C1396 1.403 . S
C1390 C1380 1.476 . S
C1390 N1385 1.318 . S
C1390 C1389 1.396 . S
H1391 C1386 0.929 . S
O1392 Mn1368 2.385 . S
O1392 C1370 1.234 . S
O1393 Mn1368 2.209 . S
O1393 Mn1369 2.215 . S
O1393 C1370 1.283 . S
O1394 Mn1368 2.094 . S
O1394 C1372 1.240 . S
O1395 Mn1369 2.117 . S
O1395 C1372 1.264 . S
C1396 C1389 1.403 . S
C1396 C1397 1.399 . S
C1396 H1402 0.929 . S
C1397 C1377 1.449 . S
C1397 C1396 1.399 . S
C1397 H1403 0.930 . S
H1398 C1378 0.931 . S
H1399 C1379 0.930 . S
H1400 C1387 0.931 . S
H1401 C1388 0.929 . S
H1402 C1396 0.929 . S
H1403 C1397 0.930 . S
Mn1404 O1409 2.095 . S
Mn1404 O1419 2.162 . S
Mn1404 O1420 2.297 . S
Mn1404 O1428 2.385 . S
Mn1404 O1429 2.209 . S
Mn1404 O1430 2.094 . S
Mn1405 O1410 2.121 . S
Mn1405 N1412 2.257 . S
Mn1405 N1421 2.282 . S
Mn1405 O1429 2.215 . S
Mn1405 O1431 2.117 . S
C1406 O1428 1.234 . S
C1406 O1429 1.283 . S
C1407 O1419 1.281 . S
C1407 O1420 1.236 . S
C1408 O1430 1.240 . S
C1408 O1431 1.264 . S
O1409 Mn1404 2.095 . S
O1409 C1418 1.250 . S
O1410 Mn1405 2.121 . S
O1410 C1418 1.258 . S
C1411 N1412 1.326 . S
C1411 C1415 1.460 . S
C1411 H1417 0.929 . S
N1412 Mn1405 2.257 . S
N1412 C1411 1.326 . S
N1412 C1416 1.362 . S
C1413 C1414 1.258 . S
C1413 C1416 1.431 . S
C1413 C1433 1.449 . S
C1414 C1413 1.258 . S
C1414 C1415 1.477 . S
C1414 H1434 0.931 . S
C1415 C1411 1.460 . S
C1415 C1414 1.477 . S
C1415 H1435 0.930 . S
C1416 N1412 1.362 . S
C1416 C1413 1.431 . S
C1416 C1426 1.476 . S
H1417 C1411 0.929 . S
C1418 O1409 1.250 . S
C1418 O1410 1.258 . S
O1419 Mn1404 2.162 . S
O1419 C1407 1.281 . S
O1420 Mn1404 2.297 . S
O1420 C1407 1.236 . S
N1421 Mn1405 2.282 . S
N1421 C1422 1.328 . S
N1421 C1426 1.318 . S
C1422 N1421 1.328 . S
C1422 C1423 1.457 . S
C1422 H1427 0.929 . S
C1423 C1422 1.457 . S
C1423 C1424 1.291 . S
C1423 H1436 0.931 . S
C1424 C1423 1.291 . S
C1424 C1425 1.373 . S
C1424 H1437 0.929 . S
C1425 C1424 1.373 . S
C1425 C1426 1.396 . S
C1425 C1432 1.403 . S
C1426 C1416 1.476 . S
C1426 N1421 1.318 . S
C1426 C1425 1.396 . S
H1427 C1422 0.929 . S
O1428 Mn1404 2.385 . S
O1428 C1406 1.234 . S
O1429 Mn1404 2.209 . S
O1429 Mn1405 2.215 . S
O1429 C1406 1.283 . S
O1430 Mn1404 2.094 . S
O1430 C1408 1.240 . S
O1431 Mn1405 2.117 . S
O1431 C1408 1.264 . S
C1432 C1425 1.403 . S
C1432 C1433 1.399 . S
C1432 H1438 0.929 . S
C1433 C1413 1.449 . S
C1433 C1432 1.399 . S
C1433 H1439 0.930 . S
H1434 C1414 0.931 . S
H1435 C1415 0.930 . S
H1436 C1423 0.931 . S
H1437 C1424 0.929 . S
H1438 C1432 0.929 . S
H1439 C1433 0.930 . S
Mn1440 O1445 2.095 . S
Mn1440 O1455 2.162 . S
Mn1440 O1456 2.297 . S
Mn1440 O1464 2.385 . S
Mn1440 O1465 2.209 . S
Mn1440 O1466 2.094 . S
Mn1441 O1446 2.121 . S
Mn1441 N1448 2.257 . S
Mn1441 N1457 2.282 . S
Mn1441 O1465 2.215 . S
Mn1441 O1467 2.117 . S
C1442 O1464 1.234 . S
C1442 O1465 1.283 . S
C1443 O1455 1.281 . S
C1443 O1456 1.236 . S
C1444 O1466 1.240 . S
C1444 O1467 1.264 . S
O1445 Mn1440 2.095 . S
O1445 C1454 1.250 . S
O1446 Mn1441 2.121 . S
O1446 C1454 1.258 . S
C1447 N1448 1.326 . S
C1447 C1451 1.460 . S
C1447 H1453 0.929 . S
N1448 Mn1441 2.257 . S
N1448 C1447 1.326 . S
N1448 C1452 1.362 . S
C1449 C1450 1.258 . S
C1449 C1452 1.431 . S
C1449 C1469 1.449 . S
C1450 C1449 1.258 . S
C1450 C1451 1.477 . S
C1450 H1470 0.931 . S
C1451 C1447 1.460 . S
C1451 C1450 1.477 . S
C1451 H1471 0.930 . S
C1452 N1448 1.362 . S
C1452 C1449 1.431 . S
C1452 C1462 1.476 . S
H1453 C1447 0.929 . S
C1454 O1445 1.250 . S
C1454 O1446 1.258 . S
O1455 Mn1440 2.162 . S
O1455 C1443 1.281 . S
O1456 Mn1440 2.297 . S
O1456 C1443 1.236 . S
N1457 Mn1441 2.282 . S
N1457 C1458 1.328 . S
N1457 C1462 1.318 . S
C1458 N1457 1.328 . S
C1458 C1459 1.457 . S
C1458 H1463 0.929 . S
C1459 C1458 1.457 . S
C1459 C1460 1.291 . S
C1459 H1472 0.931 . S
C1460 C1459 1.291 . S
C1460 C1461 1.373 . S
C1460 H1473 0.929 . S
C1461 C1460 1.373 . S
C1461 C1462 1.396 . S
C1461 C1468 1.403 . S
C1462 C1452 1.476 . S
C1462 N1457 1.318 . S
C1462 C1461 1.396 . S
H1463 C1458 0.929 . S
O1464 Mn1440 2.385 . S
O1464 C1442 1.234 . S
O1465 Mn1440 2.209 . S
O1465 Mn1441 2.215 . S
O1465 C1442 1.283 . S
O1466 Mn1440 2.094 . S
O1466 C1444 1.240 . S
O1467 Mn1441 2.117 . S
O1467 C1444 1.264 . S
C1468 C1461 1.403 . S
C1468 C1469 1.399 . S
C1468 H1474 0.929 . S
C1469 C1449 1.449 . S
C1469 C1468 1.399 . S
C1469 H1475 0.930 . S
H1470 C1450 0.931 . S
H1471 C1451 0.930 . S
H1472 C1459 0.931 . S
H1473 C1460 0.929 . S
H1474 C1468 0.929 . S
H1475 C1469 0.930 . S
Mn1476 O1481 2.095 . S
Mn1476 O1491 2.162 . S
Mn1476 O1492 2.297 . S
Mn1476 O1500 2.385 . S
Mn1476 O1501 2.209 . S
Mn1476 O1502 2.094 . S
Mn1477 O1482 2.121 . S
Mn1477 N1484 2.257 . S
Mn1477 N1493 2.282 . S
Mn1477 O1501 2.215 . S
Mn1477 O1503 2.117 . S
C1478 O1500 1.234 . S
C1478 O1501 1.283 . S
C1479 O1491 1.281 . S
C1479 O1492 1.236 . S
C1480 O1502 1.240 . S
C1480 O1503 1.264 . S
O1481 Mn1476 2.095 . S
O1481 C1490 1.250 . S
O1482 Mn1477 2.121 . S
O1482 C1490 1.258 . S
C1483 N1484 1.326 . S
C1483 C1487 1.460 . S
C1483 H1489 0.929 . S
N1484 Mn1477 2.257 . S
N1484 C1483 1.326 . S
N1484 C1488 1.362 . S
C1485 C1486 1.258 . S
C1485 C1488 1.431 . S
C1485 C1505 1.449 . S
C1486 C1485 1.258 . S
C1486 C1487 1.477 . S
C1486 H1506 0.931 . S
C1487 C1483 1.460 . S
C1487 C1486 1.477 . S
C1487 H1507 0.930 . S
C1488 N1484 1.362 . S
C1488 C1485 1.431 . S
C1488 C1498 1.476 . S
H1489 C1483 0.929 . S
C1490 O1481 1.250 . S
C1490 O1482 1.258 . S
O1491 Mn1476 2.162 . S
O1491 C1479 1.281 . S
O1492 Mn1476 2.297 . S
O1492 C1479 1.236 . S
N1493 Mn1477 2.282 . S
N1493 C1494 1.328 . S
N1493 C1498 1.318 . S
C1494 N1493 1.328 . S
C1494 C1495 1.457 . S
C1494 H1499 0.929 . S
C1495 C1494 1.457 . S
C1495 C1496 1.291 . S
C1495 H1508 0.931 . S
C1496 C1495 1.291 . S
C1496 C1497 1.373 . S
C1496 H1509 0.929 . S
C1497 C1496 1.373 . S
C1497 C1498 1.396 . S
C1497 C1504 1.403 . S
C1498 C1488 1.476 . S
C1498 N1493 1.318 . S
C1498 C1497 1.396 . S
H1499 C1494 0.929 . S
O1500 Mn1476 2.385 . S
O1500 C1478 1.234 . S
O1501 Mn1476 2.209 . S
O1501 Mn1477 2.215 . S
O1501 C1478 1.283 . S
O1502 Mn1476 2.094 . S
O1502 C1480 1.240 . S
O1503 Mn1477 2.117 . S
O1503 C1480 1.264 . S
C1504 C1497 1.403 . S
C1504 C1505 1.399 . S
C1504 H1510 0.929 . S
C1505 C1485 1.449 . S
C1505 C1504 1.399 . S
C1505 H1511 0.930 . S
H1506 C1486 0.931 . S
H1507 C1487 0.930 . S
H1508 C1495 0.931 . S
H1509 C1496 0.929 . S
H1510 C1504 0.929 . S
H1511 C1505 0.930 . S
Mn1512 O1517 2.095 . S
Mn1512 O1527 2.162 . S
Mn1512 O1528 2.297 . S
Mn1512 O1536 2.385 . S
Mn1512 O1537 2.209 . S
Mn1512 O1538 2.094 . S
Mn1513 O1518 2.121 . S
Mn1513 N1520 2.257 . S
Mn1513 N1529 2.282 . S
Mn1513 O1537 2.215 . S
Mn1513 O1539 2.117 . S
C1514 O1536 1.234 . S
C1514 O1537 1.283 . S
C1515 O1527 1.281 . S
C1515 O1528 1.236 . S
C1516 O1538 1.240 . S
C1516 O1539 1.264 . S
O1517 Mn1512 2.095 . S
O1517 C1526 1.250 . S
O1518 Mn1513 2.121 . S
O1518 C1526 1.258 . S
C1519 N1520 1.326 . S
C1519 C1523 1.460 . S
C1519 H1525 0.929 . S
N1520 Mn1513 2.257 . S
N1520 C1519 1.326 . S
N1520 C1524 1.362 . S
C1521 C1522 1.258 . S
C1521 C1524 1.431 . S
C1521 C1541 1.449 . S
C1522 C1521 1.258 . S
C1522 C1523 1.477 . S
C1522 H1542 0.931 . S
C1523 C1519 1.460 . S
C1523 C1522 1.477 . S
C1523 H1543 0.930 . S
C1524 N1520 1.362 . S
C1524 C1521 1.431 . S
C1524 C1534 1.476 . S
H1525 C1519 0.929 . S
C1526 O1517 1.250 . S
C1526 O1518 1.258 . S
O1527 Mn1512 2.162 . S
O1527 C1515 1.281 . S
O1528 Mn1512 2.297 . S
O1528 C1515 1.236 . S
N1529 Mn1513 2.282 . S
N1529 C1530 1.328 . S
N1529 C1534 1.318 . S
C1530 N1529 1.328 . S
C1530 C1531 1.457 . S
C1530 H1535 0.929 . S
C1531 C1530 1.457 . S
C1531 C1532 1.291 . S
C1531 H1544 0.931 . S
C1532 C1531 1.291 . S
C1532 C1533 1.373 . S
C1532 H1545 0.929 . S
C1533 C1532 1.373 . S
C1533 C1534 1.396 . S
C1533 C1540 1.403 . S
C1534 C1524 1.476 . S
C1534 N1529 1.318 . S
C1534 C1533 1.396 . S
H1535 C1530 0.929 . S
O1536 Mn1512 2.385 . S
O1536 C1514 1.234 . S
O1537 Mn1512 2.209 . S
O1537 Mn1513 2.215 . S
O1537 C1514 1.283 . S
O1538 Mn1512 2.094 . S
O1538 C1516 1.240 . S
O1539 Mn1513 2.117 . S
O1539 C1516 1.264 . S
C1540 C1533 1.403 . S
C1540 C1541 1.399 . S
C1540 H1546 0.929 . S
C1541 C1521 1.449 . S
C1541 C1540 1.399 . S
C1541 H1547 0.930 . S
H1542 C1522 0.931 . S
H1543 C1523 0.930 . S
H1544 C1531 0.931 . S
H1545 C1532 0.929 . S
H1546 C1540 0.929 . S
H1547 C1541 0.930 . S
Mn1548 O1553 2.095 . S
Mn1548 O1563 2.162 . S
Mn1548 O1564 2.297 . S
Mn1548 O1572 2.385 . S
Mn1548 O1573 2.209 . S
Mn1548 O1574 2.094 . S
Mn1549 O1554 2.121 . S
Mn1549 N1556 2.257 . S
Mn1549 N1565 2.282 . S
Mn1549 O1573 2.215 . S
Mn1549 O1575 2.117 . S
C1550 O1572 1.234 . S
C1550 O1573 1.283 . S
C1551 O1563 1.281 . S
C1551 O1564 1.236 . S
C1552 O1574 1.240 . S
C1552 O1575 1.264 . S
O1553 Mn1548 2.095 . S
O1553 C1562 1.250 . S
O1554 Mn1549 2.121 . S
O1554 C1562 1.258 . S
C1555 N1556 1.326 . S
C1555 C1559 1.460 . S
C1555 H1561 0.929 . S
N1556 Mn1549 2.257 . S
N1556 C1555 1.326 . S
N1556 C1560 1.362 . S
C1557 C1558 1.258 . S
C1557 C1560 1.431 . S
C1557 C1577 1.449 . S
C1558 C1557 1.258 . S
C1558 C1559 1.477 . S
C1558 H1578 0.931 . S
C1559 C1555 1.460 . S
C1559 C1558 1.477 . S
C1559 H1579 0.930 . S
C1560 N1556 1.362 . S
C1560 C1557 1.431 . S
C1560 C1570 1.476 . S
H1561 C1555 0.929 . S
C1562 O1553 1.250 . S
C1562 O1554 1.258 . S
O1563 Mn1548 2.162 . S
O1563 C1551 1.281 . S
O1564 Mn1548 2.297 . S
O1564 C1551 1.236 . S
N1565 Mn1549 2.282 . S
N1565 C1566 1.328 . S
N1565 C1570 1.318 . S
C1566 N1565 1.328 . S
C1566 C1567 1.457 . S
C1566 H1571 0.929 . S
C1567 C1566 1.457 . S
C1567 C1568 1.291 . S
C1567 H1580 0.931 . S
C1568 C1567 1.291 . S
C1568 C1569 1.373 . S
C1568 H1581 0.929 . S
C1569 C1568 1.373 . S
C1569 C1570 1.396 . S
C1569 C1576 1.403 . S
C1570 C1560 1.476 . S
C1570 N1565 1.318 . S
C1570 C1569 1.396 . S
H1571 C1566 0.929 . S
O1572 Mn1548 2.385 . S
O1572 C1550 1.234 . S
O1573 Mn1548 2.209 . S
O1573 Mn1549 2.215 . S
O1573 C1550 1.283 . S
O1574 Mn1548 2.094 . S
O1574 C1552 1.240 . S
O1575 Mn1549 2.117 . S
O1575 C1552 1.264 . S
C1576 C1569 1.403 . S
C1576 C1577 1.399 . S
C1576 H1582 0.929 . S
C1577 C1557 1.449 . S
C1577 C1576 1.399 . S
C1577 H1583 0.930 . S
H1578 C1558 0.931 . S
H1579 C1559 0.930 . S
H1580 C1567 0.931 . S
H1581 C1568 0.929 . S
H1582 C1576 0.929 . S
H1583 C1577 0.930 . S
Mn1584 O1589 2.095 . S
Mn1584 O1599 2.162 . S
Mn1584 O1600 2.297 . S
Mn1584 O1608 2.385 . S
Mn1584 O1609 2.209 . S
Mn1584 O1610 2.094 . S
Mn1585 O1590 2.121 . S
Mn1585 N1592 2.257 . S
Mn1585 N1601 2.282 . S
Mn1585 O1609 2.215 . S
Mn1585 O1611 2.117 . S
C1586 O1608 1.234 . S
C1586 O1609 1.283 . S
C1587 O1599 1.281 . S
C1587 O1600 1.236 . S
C1588 O1610 1.240 . S
C1588 O1611 1.264 . S
O1589 Mn1584 2.095 . S
O1589 C1598 1.250 . S
O1590 Mn1585 2.121 . S
O1590 C1598 1.258 . S
C1591 N1592 1.326 . S
C1591 C1595 1.460 . S
C1591 H1597 0.929 . S
N1592 Mn1585 2.257 . S
N1592 C1591 1.326 . S
N1592 C1596 1.362 . S
C1593 C1594 1.258 . S
C1593 C1596 1.431 . S
C1593 C1613 1.449 . S
C1594 C1593 1.258 . S
C1594 C1595 1.477 . S
C1594 H1614 0.931 . S
C1595 C1591 1.460 . S
C1595 C1594 1.477 . S
C1595 H1615 0.930 . S
C1596 N1592 1.362 . S
C1596 C1593 1.431 . S
C1596 C1606 1.476 . S
H1597 C1591 0.929 . S
C1598 O1589 1.250 . S
C1598 O1590 1.258 . S
O1599 Mn1584 2.162 . S
O1599 C1587 1.281 . S
O1600 Mn1584 2.297 . S
O1600 C1587 1.236 . S
N1601 Mn1585 2.282 . S
N1601 C1602 1.328 . S
N1601 C1606 1.318 . S
C1602 N1601 1.328 . S
C1602 C1603 1.457 . S
C1602 H1607 0.929 . S
C1603 C1602 1.457 . S
C1603 C1604 1.291 . S
C1603 H1616 0.931 . S
C1604 C1603 1.291 . S
C1604 C1605 1.373 . S
C1604 H1617 0.929 . S
C1605 C1604 1.373 . S
C1605 C1606 1.396 . S
C1605 C1612 1.403 . S
C1606 C1596 1.476 . S
C1606 N1601 1.318 . S
C1606 C1605 1.396 . S
H1607 C1602 0.929 . S
O1608 Mn1584 2.385 . S
O1608 C1586 1.234 . S
O1609 Mn1584 2.209 . S
O1609 Mn1585 2.215 . S
O1609 C1586 1.283 . S
O1610 Mn1584 2.094 . S
O1610 C1588 1.240 . S
O1611 Mn1585 2.117 . S
O1611 C1588 1.264 . S
C1612 C1605 1.403 . S
C1612 C1613 1.399 . S
C1612 H1618 0.929 . S
C1613 C1593 1.449 . S
C1613 C1612 1.399 . S
C1613 H1619 0.930 . S
H1614 C1594 0.931 . S
H1615 C1595 0.930 . S
H1616 C1603 0.931 . S
H1617 C1604 0.929 . S
H1618 C1612 0.929 . S
H1619 C1613 0.930 . S
Mn1620 O1625 2.095 . S
Mn1620 O1635 2.162 . S
Mn1620 O1636 2.297 . S
Mn1620 O1644 2.385 . S
Mn1620 O1645 2.209 . S
Mn1620 O1646 2.094 . S
Mn1621 O1626 2.121 . S
Mn1621 N1628 2.257 . S
Mn1621 N1637 2.282 . S
Mn1621 O1645 2.215 . S
Mn1621 O1647 2.117 . S
C1622 O1644 1.234 . S
C1622 O1645 1.283 . S
C1623 O1635 1.281 . S
C1623 O1636 1.236 . S
C1624 O1646 1.240 . S
C1624 O1647 1.264 . S
O1625 Mn1620 2.095 . S
O1625 C1634 1.250 . S
O1626 Mn1621 2.121 . S
O1626 C1634 1.258 . S
C1627 N1628 1.326 . S
C1627 C1631 1.460 . S
C1627 H1633 0.929 . S
N1628 Mn1621 2.257 . S
N1628 C1627 1.326 . S
N1628 C1632 1.362 . S
C1629 C1630 1.258 . S
C1629 C1632 1.431 . S
C1629 C1649 1.449 . S
C1630 C1629 1.258 . S
C1630 C1631 1.477 . S
C1630 H1650 0.931 . S
C1631 C1627 1.460 . S
C1631 C1630 1.477 . S
C1631 H1651 0.930 . S
C1632 N1628 1.362 . S
C1632 C1629 1.431 . S
C1632 C1642 1.476 . S
H1633 C1627 0.929 . S
C1634 O1625 1.250 . S
C1634 O1626 1.258 . S
O1635 Mn1620 2.162 . S
O1635 C1623 1.281 . S
O1636 Mn1620 2.297 . S
O1636 C1623 1.236 . S
N1637 Mn1621 2.282 . S
N1637 C1638 1.328 . S
N1637 C1642 1.318 . S
C1638 N1637 1.328 . S
C1638 C1639 1.457 . S
C1638 H1643 0.929 . S
C1639 C1638 1.457 . S
C1639 C1640 1.291 . S
C1639 H1652 0.931 . S
C1640 C1639 1.291 . S
C1640 C1641 1.373 . S
C1640 H1653 0.929 . S
C1641 C1640 1.373 . S
C1641 C1642 1.396 . S
C1641 C1648 1.403 . S
C1642 C1632 1.476 . S
C1642 N1637 1.318 . S
C1642 C1641 1.396 . S
H1643 C1638 0.929 . S
O1644 Mn1620 2.385 . S
O1644 C1622 1.234 . S
O1645 Mn1620 2.209 . S
O1645 Mn1621 2.215 . S
O1645 C1622 1.283 . S
O1646 Mn1620 2.094 . S
O1646 C1624 1.240 . S
O1647 Mn1621 2.117 . S
O1647 C1624 1.264 . S
C1648 C1641 1.403 . S
C1648 C1649 1.399 . S
C1648 H1654 0.929 . S
C1649 C1629 1.449 . S
C1649 C1648 1.399 . S
C1649 H1655 0.930 . S
H1650 C1630 0.931 . S
H1651 C1631 0.930 . S
H1652 C1639 0.931 . S
H1653 C1640 0.929 . S
H1654 C1648 0.929 . S
H1655 C1649 0.930 . S
Mn1656 O1661 2.095 . S
Mn1656 O1671 2.162 . S
Mn1656 O1672 2.297 . S
Mn1656 O1680 2.385 . S
Mn1656 O1681 2.209 . S
Mn1656 O1682 2.094 . S
Mn1657 O1662 2.121 . S
Mn1657 N1664 2.257 . S
Mn1657 N1673 2.282 . S
Mn1657 O1681 2.215 . S
Mn1657 O1683 2.117 . S
C1658 O1680 1.234 . S
C1658 O1681 1.283 . S
C1659 O1671 1.281 . S
C1659 O1672 1.236 . S
C1660 O1682 1.240 . S
C1660 O1683 1.264 . S
O1661 Mn1656 2.095 . S
O1661 C1670 1.250 . S
O1662 Mn1657 2.121 . S
O1662 C1670 1.258 . S
C1663 N1664 1.326 . S
C1663 C1667 1.460 . S
C1663 H1669 0.929 . S
N1664 Mn1657 2.257 . S
N1664 C1663 1.326 . S
N1664 C1668 1.362 . S
C1665 C1666 1.258 . S
C1665 C1668 1.431 . S
C1665 C1685 1.449 . S
C1666 C1665 1.258 . S
C1666 C1667 1.477 . S
C1666 H1686 0.931 . S
C1667 C1663 1.460 . S
C1667 C1666 1.477 . S
C1667 H1687 0.930 . S
C1668 N1664 1.362 . S
C1668 C1665 1.431 . S
C1668 C1678 1.476 . S
H1669 C1663 0.929 . S
C1670 O1661 1.250 . S
C1670 O1662 1.258 . S
O1671 Mn1656 2.162 . S
O1671 C1659 1.281 . S
O1672 Mn1656 2.297 . S
O1672 C1659 1.236 . S
N1673 Mn1657 2.282 . S
N1673 C1674 1.328 . S
N1673 C1678 1.318 . S
C1674 N1673 1.328 . S
C1674 C1675 1.457 . S
C1674 H1679 0.929 . S
C1675 C1674 1.457 . S
C1675 C1676 1.291 . S
C1675 H1688 0.931 . S
C1676 C1675 1.291 . S
C1676 C1677 1.373 . S
C1676 H1689 0.929 . S
C1677 C1676 1.373 . S
C1677 C1678 1.396 . S
C1677 C1684 1.403 . S
C1678 C1668 1.476 . S
C1678 N1673 1.318 . S
C1678 C1677 1.396 . S
H1679 C1674 0.929 . S
O1680 Mn1656 2.385 . S
O1680 C1658 1.234 . S
O1681 Mn1656 2.209 . S
O1681 Mn1657 2.215 . S
O1681 C1658 1.283 . S
O1682 Mn1656 2.094 . S
O1682 C1660 1.240 . S
O1683 Mn1657 2.117 . S
O1683 C1660 1.264 . S
C1684 C1677 1.403 . S
C1684 C1685 1.399 . S
C1684 H1690 0.929 . S
C1685 C1665 1.449 . S
C1685 C1684 1.399 . S
C1685 H1691 0.930 . S
H1686 C1666 0.931 . S
H1687 C1667 0.930 . S
H1688 C1675 0.931 . S
H1689 C1676 0.929 . S
H1690 C1684 0.929 . S
H1691 C1685 0.930 . S
Mn1692 O1697 2.095 . S
Mn1692 O1707 2.162 . S
Mn1692 O1708 2.297 . S
Mn1692 O1716 2.385 . S
Mn1692 O1717 2.209 . S
Mn1692 O1718 2.094 . S
Mn1693 O1698 2.121 . S
Mn1693 N1700 2.257 . S
Mn1693 N1709 2.282 . S
Mn1693 O1717 2.215 . S
Mn1693 O1719 2.117 . S
C1694 O1716 1.234 . S
C1694 O1717 1.283 . S
C1695 O1707 1.281 . S
C1695 O1708 1.236 . S
C1696 O1718 1.240 . S
C1696 O1719 1.264 . S
O1697 Mn1692 2.095 . S
O1697 C1706 1.250 . S
O1698 Mn1693 2.121 . S
O1698 C1706 1.258 . S
C1699 N1700 1.326 . S
C1699 C1703 1.460 . S
C1699 H1705 0.929 . S
N1700 Mn1693 2.257 . S
N1700 C1699 1.326 . S
N1700 C1704 1.362 . S
C1701 C1702 1.258 . S
C1701 C1704 1.431 . S
C1701 C1721 1.449 . S
C1702 C1701 1.258 . S
C1702 C1703 1.477 . S
C1702 H1722 0.931 . S
C1703 C1699 1.460 . S
C1703 C1702 1.477 . S
C1703 H1723 0.930 . S
C1704 N1700 1.362 . S
C1704 C1701 1.431 . S
C1704 C1714 1.476 . S
H1705 C1699 0.929 . S
C1706 O1697 1.250 . S
C1706 O1698 1.258 . S
O1707 Mn1692 2.162 . S
O1707 C1695 1.281 . S
O1708 Mn1692 2.297 . S
O1708 C1695 1.236 . S
N1709 Mn1693 2.282 . S
N1709 C1710 1.328 . S
N1709 C1714 1.318 . S
C1710 N1709 1.328 . S
C1710 C1711 1.457 . S
C1710 H1715 0.929 . S
C1711 C1710 1.457 . S
C1711 C1712 1.291 . S
C1711 H1724 0.931 . S
C1712 C1711 1.291 . S
C1712 C1713 1.373 . S
C1712 H1725 0.929 . S
C1713 C1712 1.373 . S
C1713 C1714 1.396 . S
C1713 C1720 1.403 . S
C1714 C1704 1.476 . S
C1714 N1709 1.318 . S
C1714 C1713 1.396 . S
H1715 C1710 0.929 . S
O1716 Mn1692 2.385 . S
O1716 C1694 1.234 . S
O1717 Mn1692 2.209 . S
O1717 Mn1693 2.215 . S
O1717 C1694 1.283 . S
O1718 Mn1692 2.094 . S
O1718 C1696 1.240 . S
O1719 Mn1693 2.117 . S
O1719 C1696 1.264 . S
C1720 C1713 1.403 . S
C1720 C1721 1.399 . S
C1720 H1726 0.929 . S
C1721 C1701 1.449 . S
C1721 C1720 1.399 . S
C1721 H1727 0.930 . S
H1722 C1702 0.931 . S
H1723 C1703 0.930 . S
H1724 C1711 0.931 . S
H1725 C1712 0.929 . S
H1726 C1720 0.929 . S
H1727 C1721 0.930 . S
Mn1728 O1733 2.095 . S
Mn1728 O1743 2.162 . S
Mn1728 O1744 2.297 . S
Mn1728 O1752 2.385 . S
Mn1728 O1753 2.209 . S
Mn1728 O1754 2.094 . S
Mn1729 O1734 2.121 . S
Mn1729 N1736 2.257 . S
Mn1729 N1745 2.282 . S
Mn1729 O1753 2.215 . S
Mn1729 O1755 2.117 . S
C1730 O1752 1.234 . S
C1730 O1753 1.283 . S
C1731 O1743 1.281 . S
C1731 O1744 1.236 . S
C1732 O1754 1.240 . S
C1732 O1755 1.264 . S
O1733 Mn1728 2.095 . S
O1733 C1742 1.250 . S
O1734 Mn1729 2.121 . S
O1734 C1742 1.258 . S
C1735 N1736 1.326 . S
C1735 C1739 1.460 . S
C1735 H1741 0.929 . S
N1736 Mn1729 2.257 . S
N1736 C1735 1.326 . S
N1736 C1740 1.362 . S
C1737 C1738 1.258 . S
C1737 C1740 1.431 1_554 S
C1737 C1757 1.449 . S
C1738 C1737 1.258 . S
C1738 C1739 1.477 1_554 S
C1738 H1758 0.931 . S
C1739 C1735 1.460 . S
C1739 C1738 1.477 1_556 S
C1739 H1759 0.930 . S
C1740 N1736 1.362 . S
C1740 C1737 1.431 1_556 S
C1740 C1750 1.476 . S
H1741 C1735 0.929 . S
C1742 O1733 1.250 . S
C1742 O1734 1.258 . S
O1743 Mn1728 2.162 . S
O1743 C1731 1.281 . S
O1744 Mn1728 2.297 . S
O1744 C1731 1.236 . S
N1745 Mn1729 2.282 . S
N1745 C1746 1.328 . S
N1745 C1750 1.318 . S
C1746 N1745 1.328 . S
C1746 C1747 1.452 . S
C1746 H1751 0.929 . S
C1747 C1746 1.452 . S
C1747 C1748 1.296 1_556 S
C1747 H1760 0.930 1_556 S
C1748 C1747 1.296 1_554 S
C1748 C1749 1.373 . S
C1748 H1761 0.929 . S
C1749 C1748 1.373 . S
C1749 C1750 1.396 1_554 S
C1749 C1756 1.403 . S
C1750 C1740 1.476 . S
C1750 N1745 1.318 . S
C1750 C1749 1.396 1_556 S
H1751 C1746 0.929 . S
O1752 Mn1728 2.385 . S
O1752 C1730 1.234 . S
O1753 Mn1728 2.209 . S
O1753 Mn1729 2.215 . S
O1753 C1730 1.283 . S
O1754 Mn1728 2.094 . S
O1754 C1732 1.240 . S
O1755 Mn1729 2.117 . S
O1755 C1732 1.264 . S
C1756 C1749 1.403 . S
C1756 C1757 1.399 . S
C1756 H1762 0.929 . S
C1757 C1737 1.449 . S
C1757 C1756 1.399 . S
C1757 H1763 0.930 . S
H1758 C1738 0.931 . S
H1759 C1739 0.930 . S
H1760 C1747 0.930 1_554 S
H1761 C1748 0.929 . S
H1762 C1756 0.929 . S
H1763 C1757 0.930 . S
Mn1764 O1769 2.095 . S
Mn1764 O1779 2.162 . S
Mn1764 O1780 2.297 . S
Mn1764 O1788 2.385 . S
Mn1764 O1789 2.209 . S
Mn1764 O1790 2.094 . S
Mn1765 O1770 2.121 . S
Mn1765 N1772 2.257 . S
Mn1765 N1781 2.282 . S
Mn1765 O1789 2.215 . S
Mn1765 O1791 2.117 . S
C1766 O1788 1.234 . S
C1766 O1789 1.283 . S
C1767 O1779 1.281 . S
C1767 O1780 1.236 . S
C1768 O1790 1.240 . S
C1768 O1791 1.264 . S
O1769 Mn1764 2.095 . S
O1769 C1778 1.250 . S
O1770 Mn1765 2.121 . S
O1770 C1778 1.258 . S
C1771 N1772 1.326 . S
C1771 C1775 1.460 . S
C1771 H1777 0.929 . S
N1772 Mn1765 2.257 . S
N1772 C1771 1.326 . S
N1772 C1776 1.362 . S
C1773 C1774 1.258 . S
C1773 C1776 1.431 1_554 S
C1773 C1793 1.449 . S
C1774 C1773 1.258 . S
C1774 C1775 1.477 1_554 S
C1774 H1794 0.931 . S
C1775 C1771 1.460 . S
C1775 C1774 1.477 1_556 S
C1775 H1795 0.930 . S
C1776 N1772 1.362 . S
C1776 C1773 1.431 1_556 S
C1776 C1786 1.476 . S
H1777 C1771 0.929 . S
C1778 O1769 1.250 . S
C1778 O1770 1.258 . S
O1779 Mn1764 2.162 . S
O1779 C1767 1.281 . S
O1780 Mn1764 2.297 . S
O1780 C1767 1.236 . S
N1781 Mn1765 2.282 . S
N1781 C1782 1.328 . S
N1781 C1786 1.318 . S
C1782 N1781 1.328 . S
C1782 C1783 1.452 . S
C1782 H1787 0.929 . S
C1783 C1782 1.452 . S
C1783 C1784 1.296 1_556 S
C1783 H1796 0.930 1_556 S
C1784 C1783 1.296 1_554 S
C1784 C1785 1.373 . S
C1784 H1797 0.929 . S
C1785 C1784 1.373 . S
C1785 C1786 1.396 1_554 S
C1785 C1792 1.403 . S
C1786 C1776 1.476 . S
C1786 N1781 1.318 . S
C1786 C1785 1.396 1_556 S
H1787 C1782 0.929 . S
O1788 Mn1764 2.385 . S
O1788 C1766 1.234 . S
O1789 Mn1764 2.209 . S
O1789 Mn1765 2.215 . S
O1789 C1766 1.283 . S
O1790 Mn1764 2.094 . S
O1790 C1768 1.240 . S
O1791 Mn1765 2.117 . S
O1791 C1768 1.264 . S
C1792 C1785 1.403 . S
C1792 C1793 1.399 . S
C1792 H1798 0.929 . S
C1793 C1773 1.449 . S
C1793 C1792 1.399 . S
C1793 H1799 0.930 . S
H1794 C1774 0.931 . S
H1795 C1775 0.930 . S
H1796 C1783 0.930 1_554 S
H1797 C1784 0.929 . S
H1798 C1792 0.929 . S
H1799 C1793 0.930 . S
Mn1800 O1805 2.095 . S
Mn1800 O1815 2.162 . S
Mn1800 O1816 2.297 . S
Mn1800 O1824 2.385 . S
Mn1800 O1825 2.209 . S
Mn1800 O1826 2.094 . S
Mn1801 O1806 2.121 . S
Mn1801 N1808 2.257 . S
Mn1801 N1817 2.282 . S
Mn1801 O1825 2.215 . S
Mn1801 O1827 2.117 . S
C1802 O1824 1.234 . S
C1802 O1825 1.283 . S
C1803 O1815 1.281 . S
C1803 O1816 1.236 . S
C1804 O1826 1.240 . S
C1804 O1827 1.264 . S
O1805 Mn1800 2.095 . S
O1805 C1814 1.250 . S
O1806 Mn1801 2.121 . S
O1806 C1814 1.258 . S
C1807 N1808 1.326 . S
C1807 C1811 1.460 . S
C1807 H1813 0.929 . S
N1808 Mn1801 2.257 . S
N1808 C1807 1.326 . S
N1808 C1812 1.362 . S
C1809 C1810 1.258 . S
C1809 C1812 1.431 1_554 S
C1809 C1829 1.449 . S
C1810 C1809 1.258 . S
C1810 C1811 1.477 1_554 S
C1810 H1830 0.931 . S
C1811 C1807 1.460 . S
C1811 C1810 1.477 1_556 S
C1811 H1831 0.930 . S
C1812 N1808 1.362 . S
C1812 C1809 1.431 1_556 S
C1812 C1822 1.476 . S
H1813 C1807 0.929 . S
C1814 O1805 1.250 . S
C1814 O1806 1.258 . S
O1815 Mn1800 2.162 . S
O1815 C1803 1.281 . S
O1816 Mn1800 2.297 . S
O1816 C1803 1.236 . S
N1817 Mn1801 2.282 . S
N1817 C1818 1.328 . S
N1817 C1822 1.318 . S
C1818 N1817 1.328 . S
C1818 C1819 1.452 . S
C1818 H1823 0.929 . S
C1819 C1818 1.452 . S
C1819 C1820 1.296 1_556 S
C1819 H1832 0.930 1_556 S
C1820 C1819 1.296 1_554 S
C1820 C1821 1.373 . S
C1820 H1833 0.929 . S
C1821 C1820 1.373 . S
C1821 C1822 1.396 1_554 S
C1821 C1828 1.403 . S
C1822 C1812 1.476 . S
C1822 N1817 1.318 . S
C1822 C1821 1.396 1_556 S
H1823 C1818 0.929 . S
O1824 Mn1800 2.385 . S
O1824 C1802 1.234 . S
O1825 Mn1800 2.209 . S
O1825 Mn1801 2.215 . S
O1825 C1802 1.283 . S
O1826 Mn1800 2.094 . S
O1826 C1804 1.240 . S
O1827 Mn1801 2.117 . S
O1827 C1804 1.264 . S
C1828 C1821 1.403 . S
C1828 C1829 1.399 . S
C1828 H1834 0.929 . S
C1829 C1809 1.449 . S
C1829 C1828 1.399 . S
C1829 H1835 0.930 . S
H1830 C1810 0.931 . S
H1831 C1811 0.930 . S
H1832 C1819 0.930 1_554 S
H1833 C1820 0.929 . S
H1834 C1828 0.929 . S
H1835 C1829 0.930 . S
Mn1836 O1841 2.095 . S
Mn1836 O1851 2.162 . S
Mn1836 O1852 2.297 . S
Mn1836 O1860 2.385 . S
Mn1836 O1861 2.209 . S
Mn1836 O1862 2.094 . S
Mn1837 O1842 2.121 . S
Mn1837 N1844 2.257 . S
Mn1837 N1853 2.282 . S
Mn1837 O1861 2.215 . S
Mn1837 O1863 2.117 . S
C1838 O1860 1.234 . S
C1838 O1861 1.283 . S
C1839 O1851 1.281 . S
C1839 O1852 1.236 . S
C1840 O1862 1.240 . S
C1840 O1863 1.264 . S
O1841 Mn1836 2.095 . S
O1841 C1850 1.250 . S
O1842 Mn1837 2.121 . S
O1842 C1850 1.258 . S
C1843 N1844 1.326 . S
C1843 C1847 1.460 . S
C1843 H1849 0.929 . S
N1844 Mn1837 2.257 . S
N1844 C1843 1.326 . S
N1844 C1848 1.362 . S
C1845 C1846 1.258 . S
C1845 C1848 1.431 1_554 S
C1845 C1865 1.449 . S
C1846 C1845 1.258 . S
C1846 C1847 1.477 1_554 S
C1846 H1866 0.931 . S
C1847 C1843 1.460 . S
C1847 C1846 1.477 1_556 S
C1847 H1867 0.930 . S
C1848 N1844 1.362 . S
C1848 C1845 1.431 1_556 S
C1848 C1858 1.476 . S
H1849 C1843 0.929 . S
C1850 O1841 1.250 . S
C1850 O1842 1.258 . S
O1851 Mn1836 2.162 . S
O1851 C1839 1.281 . S
O1852 Mn1836 2.297 . S
O1852 C1839 1.236 . S
N1853 Mn1837 2.282 . S
N1853 C1854 1.328 . S
N1853 C1858 1.318 . S
C1854 N1853 1.328 . S
C1854 C1855 1.452 . S
C1854 H1859 0.929 . S
C1855 C1854 1.452 . S
C1855 C1856 1.296 1_556 S
C1855 H1868 0.930 1_556 S
C1856 C1855 1.296 1_554 S
C1856 C1857 1.373 . S
C1856 H1869 0.929 . S
C1857 C1856 1.373 . S
C1857 C1858 1.396 1_554 S
C1857 C1864 1.403 . S
C1858 C1848 1.476 . S
C1858 N1853 1.318 . S
C1858 C1857 1.396 1_556 S
H1859 C1854 0.929 . S
O1860 Mn1836 2.385 . S
O1860 C1838 1.234 . S
O1861 Mn1836 2.209 . S
O1861 Mn1837 2.215 . S
O1861 C1838 1.283 . S
O1862 Mn1836 2.094 . S
O1862 C1840 1.240 . S
O1863 Mn1837 2.117 . S
O1863 C1840 1.264 . S
C1864 C1857 1.403 . S
C1864 C1865 1.399 . S
C1864 H1870 0.929 . S
C1865 C1845 1.449 . S
C1865 C1864 1.399 . S
C1865 H1871 0.930 . S
H1866 C1846 0.931 . S
H1867 C1847 0.930 . S
H1868 C1855 0.930 1_554 S
H1869 C1856 0.929 . S
H1870 C1864 0.929 . S
H1871 C1865 0.930 . S
Mn1872 O1877 2.095 . S
Mn1872 O1887 2.162 . S
Mn1872 O1888 2.297 . S
Mn1872 O1896 2.385 . S
Mn1872 O1897 2.209 . S
Mn1872 O1898 2.094 . S
Mn1873 O1878 2.121 . S
Mn1873 N1880 2.257 . S
Mn1873 N1889 2.282 . S
Mn1873 O1897 2.215 . S
Mn1873 O1899 2.117 . S
C1874 O1896 1.234 . S
C1874 O1897 1.283 . S
C1875 O1887 1.281 . S
C1875 O1888 1.236 . S
C1876 O1898 1.240 . S
C1876 O1899 1.264 . S
O1877 Mn1872 2.095 . S
O1877 C1886 1.250 . S
O1878 Mn1873 2.121 . S
O1878 C1886 1.258 . S
C1879 N1880 1.326 . S
C1879 C1883 1.460 . S
C1879 H1885 0.929 . S
N1880 Mn1873 2.257 . S
N1880 C1879 1.326 . S
N1880 C1884 1.362 . S
C1881 C1882 1.258 . S
C1881 C1884 1.431 1_556 S
C1881 C1901 1.449 . S
C1882 C1881 1.258 . S
C1882 C1883 1.477 1_556 S
C1882 H1902 0.931 . S
C1883 C1879 1.460 . S
C1883 C1882 1.477 1_554 S
C1883 H1903 0.930 . S
C1884 N1880 1.362 . S
C1884 C1881 1.431 1_554 S
C1884 C1894 1.476 . S
H1885 C1879 0.929 . S
C1886 O1877 1.250 . S
C1886 O1878 1.258 . S
O1887 Mn1872 2.162 . S
O1887 C1875 1.281 . S
O1888 Mn1872 2.297 . S
O1888 C1875 1.236 . S
N1889 Mn1873 2.282 . S
N1889 C1890 1.328 . S
N1889 C1894 1.318 . S
C1890 N1889 1.328 . S
C1890 C1891 1.452 . S
C1890 H1895 0.929 . S
C1891 C1890 1.452 . S
C1891 C1892 1.296 1_554 S
C1891 H1904 0.930 1_554 S
C1892 C1891 1.296 1_556 S
C1892 C1893 1.373 . S
C1892 H1905 0.929 . S
C1893 C1892 1.373 . S
C1893 C1894 1.396 1_556 S
C1893 C1900 1.403 . S
C1894 C1884 1.476 . S
C1894 N1889 1.318 . S
C1894 C1893 1.396 1_554 S
H1895 C1890 0.929 . S
O1896 Mn1872 2.385 . S
O1896 C1874 1.234 . S
O1897 Mn1872 2.209 . S
O1897 Mn1873 2.215 . S
O1897 C1874 1.283 . S
O1898 Mn1872 2.094 . S
O1898 C1876 1.240 . S
O1899 Mn1873 2.117 . S
O1899 C1876 1.264 . S
C1900 C1893 1.403 . S
C1900 C1901 1.399 . S
C1900 H1906 0.929 . S
C1901 C1881 1.449 . S
C1901 C1900 1.399 . S
C1901 H1907 0.930 . S
H1902 C1882 0.931 . S
H1903 C1883 0.930 . S
H1904 C1891 0.930 1_556 S
H1905 C1892 0.929 . S
H1906 C1900 0.929 . S
H1907 C1901 0.930 . S
Mn1908 O1913 2.095 . S
Mn1908 O1923 2.162 . S
Mn1908 O1924 2.297 . S
Mn1908 O1932 2.385 . S
Mn1908 O1933 2.209 . S
Mn1908 O1934 2.094 . S
Mn1909 O1914 2.121 . S
Mn1909 N1916 2.257 . S
Mn1909 N1925 2.282 . S
Mn1909 O1933 2.215 . S
Mn1909 O1935 2.117 . S
C1910 O1932 1.234 . S
C1910 O1933 1.283 . S
C1911 O1923 1.281 . S
C1911 O1924 1.236 . S
C1912 O1934 1.240 . S
C1912 O1935 1.264 . S
O1913 Mn1908 2.095 . S
O1913 C1922 1.250 . S
O1914 Mn1909 2.121 . S
O1914 C1922 1.258 . S
C1915 N1916 1.326 . S
C1915 C1919 1.460 . S
C1915 H1921 0.929 . S
N1916 Mn1909 2.257 . S
N1916 C1915 1.326 . S
N1916 C1920 1.362 . S
C1917 C1918 1.258 . S
C1917 C1920 1.431 1_556 S
C1917 C1937 1.449 . S
C1918 C1917 1.258 . S
C1918 C1919 1.477 1_556 S
C1918 H1938 0.931 . S
C1919 C1915 1.460 . S
C1919 C1918 1.477 1_554 S
C1919 H1939 0.930 . S
C1920 N1916 1.362 . S
C1920 C1917 1.431 1_554 S
C1920 C1930 1.476 . S
H1921 C1915 0.929 . S
C1922 O1913 1.250 . S
C1922 O1914 1.258 . S
O1923 Mn1908 2.162 . S
O1923 C1911 1.281 . S
O1924 Mn1908 2.297 . S
O1924 C1911 1.236 . S
N1925 Mn1909 2.282 . S
N1925 C1926 1.328 . S
N1925 C1930 1.318 . S
C1926 N1925 1.328 . S
C1926 C1927 1.452 . S
C1926 H1931 0.929 . S
C1927 C1926 1.452 . S
C1927 C1928 1.296 1_554 S
C1927 H1940 0.930 1_554 S
C1928 C1927 1.296 1_556 S
C1928 C1929 1.373 . S
C1928 H1941 0.929 . S
C1929 C1928 1.373 . S
C1929 C1930 1.396 1_556 S
C1929 C1936 1.403 . S
C1930 C1920 1.476 . S
C1930 N1925 1.318 . S
C1930 C1929 1.396 1_554 S
H1931 C1926 0.929 . S
O1932 Mn1908 2.385 . S
O1932 C1910 1.234 . S
O1933 Mn1908 2.209 . S
O1933 Mn1909 2.215 . S
O1933 C1910 1.283 . S
O1934 Mn1908 2.094 . S
O1934 C1912 1.240 . S
O1935 Mn1909 2.117 . S
O1935 C1912 1.264 . S
C1936 C1929 1.403 . S
C1936 C1937 1.399 . S
C1936 H1942 0.929 . S
C1937 C1917 1.449 . S
C1937 C1936 1.399 . S
C1937 H1943 0.930 . S
H1938 C1918 0.931 . S
H1939 C1919 0.930 . S
H1940 C1927 0.930 1_556 S
H1941 C1928 0.929 . S
H1942 C1936 0.929 . S
H1943 C1937 0.930 . S
Mn1944 O1949 2.095 . S
Mn1944 O1959 2.162 . S
Mn1944 O1960 2.297 . S
Mn1944 O1968 2.385 . S
Mn1944 O1969 2.209 . S
Mn1944 O1970 2.094 . S
Mn1945 O1950 2.121 . S
Mn1945 N1952 2.257 . S
Mn1945 N1961 2.282 . S
Mn1945 O1969 2.215 . S
Mn1945 O1971 2.117 . S
C1946 O1968 1.234 . S
C1946 O1969 1.283 . S
C1947 O1959 1.281 . S
C1947 O1960 1.236 . S
C1948 O1970 1.240 . S
C1948 O1971 1.264 . S
O1949 Mn1944 2.095 . S
O1949 C1958 1.250 . S
O1950 Mn1945 2.121 . S
O1950 C1958 1.258 . S
C1951 N1952 1.326 . S
C1951 C1955 1.460 . S
C1951 H1957 0.929 . S
N1952 Mn1945 2.257 . S
N1952 C1951 1.326 . S
N1952 C1956 1.362 . S
C1953 C1954 1.258 . S
C1953 C1956 1.431 1_556 S
C1953 C1973 1.449 . S
C1954 C1953 1.258 . S
C1954 C1955 1.477 1_556 S
C1954 H1974 0.931 . S
C1955 C1951 1.460 . S
C1955 C1954 1.477 1_554 S
C1955 H1975 0.930 . S
C1956 N1952 1.362 . S
C1956 C1953 1.431 1_554 S
C1956 C1966 1.476 . S
H1957 C1951 0.929 . S
C1958 O1949 1.250 . S
C1958 O1950 1.258 . S
O1959 Mn1944 2.162 . S
O1959 C1947 1.281 . S
O1960 Mn1944 2.297 . S
O1960 C1947 1.236 . S
N1961 Mn1945 2.282 . S
N1961 C1962 1.328 . S
N1961 C1966 1.318 . S
C1962 N1961 1.328 . S
C1962 C1963 1.452 . S
C1962 H1967 0.929 . S
C1963 C1962 1.452 . S
C1963 C1964 1.296 1_554 S
C1963 H1976 0.930 1_554 S
C1964 C1963 1.296 1_556 S
C1964 C1965 1.373 . S
C1964 H1977 0.929 . S
C1965 C1964 1.373 . S
C1965 C1966 1.396 1_556 S
C1965 C1972 1.403 . S
C1966 C1956 1.476 . S
C1966 N1961 1.318 . S
C1966 C1965 1.396 1_554 S
H1967 C1962 0.929 . S
O1968 Mn1944 2.385 . S
O1968 C1946 1.234 . S
O1969 Mn1944 2.209 . S
O1969 Mn1945 2.215 . S
O1969 C1946 1.283 . S
O1970 Mn1944 2.094 . S
O1970 C1948 1.240 . S
O1971 Mn1945 2.117 . S
O1971 C1948 1.264 . S
C1972 C1965 1.403 . S
C1972 C1973 1.399 . S
C1972 H1978 0.929 . S
C1973 C1953 1.449 . S
C1973 C1972 1.399 . S
C1973 H1979 0.930 . S
H1974 C1954 0.931 . S
H1975 C1955 0.930 . S
H1976 C1963 0.930 1_556 S
H1977 C1964 0.929 . S
H1978 C1972 0.929 . S
H1979 C1973 0.930 . S
Mn1980 O1985 2.095 . S
Mn1980 O1995 2.162 . S
Mn1980 O1996 2.297 . S
Mn1980 O2004 2.385 . S
Mn1980 O2005 2.209 . S
Mn1980 O2006 2.094 . S
Mn1981 O1986 2.121 . S
Mn1981 N1988 2.257 . S
Mn1981 N1997 2.282 . S
Mn1981 O2005 2.215 . S
Mn1981 O2007 2.117 . S
C1982 O2004 1.234 . S
C1982 O2005 1.283 . S
C1983 O1995 1.281 . S
C1983 O1996 1.236 . S
C1984 O2006 1.240 . S
C1984 O2007 1.264 . S
O1985 Mn1980 2.095 . S
O1985 C1994 1.250 . S
O1986 Mn1981 2.121 . S
O1986 C1994 1.258 . S
C1987 N1988 1.326 . S
C1987 C1991 1.460 . S
C1987 H1993 0.929 . S
N1988 Mn1981 2.257 . S
N1988 C1987 1.326 . S
N1988 C1992 1.362 . S
C1989 C1990 1.258 . S
C1989 C1992 1.431 1_556 S
C1989 C2009 1.449 . S
C1990 C1989 1.258 . S
C1990 C1991 1.477 1_556 S
C1990 H2010 0.931 . S
C1991 C1987 1.460 . S
C1991 C1990 1.477 1_554 S
C1991 H2011 0.930 . S
C1992 N1988 1.362 . S
C1992 C1989 1.431 1_554 S
C1992 C2002 1.476 . S
H1993 C1987 0.929 . S
C1994 O1985 1.250 . S
C1994 O1986 1.258 . S
O1995 Mn1980 2.162 . S
O1995 C1983 1.281 . S
O1996 Mn1980 2.297 . S
O1996 C1983 1.236 . S
N1997 Mn1981 2.282 . S
N1997 C1998 1.328 . S
N1997 C2002 1.318 . S
C1998 N1997 1.328 . S
C1998 C1999 1.452 . S
C1998 H2003 0.929 . S
C1999 C1998 1.452 . S
C1999 C2000 1.296 1_554 S
C1999 H2012 0.930 1_554 S
C2000 C1999 1.296 1_556 S
C2000 C2001 1.373 . S
C2000 H2013 0.929 . S
C2001 C2000 1.373 . S
C2001 C2002 1.396 1_556 S
C2001 C2008 1.403 . S
C2002 C1992 1.476 . S
C2002 N1997 1.318 . S
C2002 C2001 1.396 1_554 S
H2003 C1998 0.929 . S
O2004 Mn1980 2.385 . S
O2004 C1982 1.234 . S
O2005 Mn1980 2.209 . S
O2005 Mn1981 2.215 . S
O2005 C1982 1.283 . S
O2006 Mn1980 2.094 . S
O2006 C1984 1.240 . S
O2007 Mn1981 2.117 . S
O2007 C1984 1.264 . S
C2008 C2001 1.403 . S
C2008 C2009 1.399 . S
C2008 H2014 0.929 . S
C2009 C1989 1.449 . S
C2009 C2008 1.399 . S
C2009 H2015 0.930 . S
H2010 C1990 0.931 . S
H2011 C1991 0.930 . S
H2012 C1999 0.930 1_556 S
H2013 C2000 0.929 . S
H2014 C2008 0.929 . S
H2015 C2009 0.930 . S
Mn2016 O2021 2.095 . S
Mn2016 O2031 2.162 . S
Mn2016 O2032 2.297 . S
Mn2016 O2040 2.385 . S
Mn2016 O2041 2.209 . S
Mn2016 O2042 2.094 . S
Mn2017 O2022 2.121 . S
Mn2017 N2024 2.257 . S
Mn2017 N2033 2.282 . S
Mn2017 O2041 2.215 . S
Mn2017 O2043 2.117 . S
C2018 O2040 1.234 . S
C2018 O2041 1.283 . S
C2019 O2031 1.281 . S
C2019 O2032 1.236 . S
C2020 O2042 1.240 . S
C2020 O2043 1.264 . S
O2021 Mn2016 2.095 . S
O2021 C2030 1.250 . S
O2022 Mn2017 2.121 . S
O2022 C2030 1.258 . S
C2023 N2024 1.326 . S
C2023 C2027 1.460 . S
C2023 H2029 0.929 . S
N2024 Mn2017 2.257 . S
N2024 C2023 1.326 . S
N2024 C2028 1.362 . S
C2025 C2026 1.258 . S
C2025 C2028 1.431 1_455 S
C2025 C2045 1.449 . S
C2026 C2025 1.258 . S
C2026 C2027 1.477 1_455 S
C2026 H2046 0.931 . S
C2027 C2023 1.460 . S
C2027 C2026 1.477 1_655 S
C2027 H2047 0.930 . S
C2028 N2024 1.362 . S
C2028 C2025 1.431 1_655 S
C2028 C2038 1.476 . S
H2029 C2023 0.929 . S
C2030 O2021 1.250 . S
C2030 O2022 1.258 . S
O2031 Mn2016 2.162 . S
O2031 C2019 1.281 . S
O2032 Mn2016 2.297 . S
O2032 C2019 1.236 . S
N2033 Mn2017 2.282 . S
N2033 C2034 1.328 . S
N2033 C2038 1.318 . S
C2034 N2033 1.328 . S
C2034 C2035 1.452 . S
C2034 H2039 0.929 . S
C2035 C2034 1.452 . S
C2035 C2036 1.296 1_655 S
C2035 H2048 0.930 1_655 S
C2036 C2035 1.296 1_455 S
C2036 C2037 1.373 . S
C2036 H2049 0.929 . S
C2037 C2036 1.373 . S
C2037 C2038 1.396 1_455 S
C2037 C2044 1.403 . S
C2038 C2028 1.476 . S
C2038 N2033 1.318 . S
C2038 C2037 1.396 1_655 S
H2039 C2034 0.929 . S
O2040 Mn2016 2.385 . S
O2040 C2018 1.234 . S
O2041 Mn2016 2.209 . S
O2041 Mn2017 2.215 . S
O2041 C2018 1.283 . S
O2042 Mn2016 2.094 . S
O2042 C2020 1.240 . S
O2043 Mn2017 2.117 . S
O2043 C2020 1.264 . S
C2044 C2037 1.403 . S
C2044 C2045 1.399 . S
C2044 H2050 0.929 . S
C2045 C2025 1.449 . S
C2045 C2044 1.399 . S
C2045 H2051 0.930 . S
H2046 C2026 0.931 . S
H2047 C2027 0.930 . S
H2048 C2035 0.930 1_455 S
H2049 C2036 0.929 . S
H2050 C2044 0.929 . S
H2051 C2045 0.930 . S
Mn2052 O2057 2.095 . S
Mn2052 O2067 2.162 . S
Mn2052 O2068 2.297 . S
Mn2052 O2076 2.385 . S
Mn2052 O2077 2.209 . S
Mn2052 O2078 2.094 . S
Mn2053 O2058 2.121 . S
Mn2053 N2060 2.257 . S
Mn2053 N2069 2.282 . S
Mn2053 O2077 2.215 . S
Mn2053 O2079 2.117 . S
C2054 O2076 1.234 . S
C2054 O2077 1.283 . S
C2055 O2067 1.281 . S
C2055 O2068 1.236 . S
C2056 O2078 1.240 . S
C2056 O2079 1.264 . S
O2057 Mn2052 2.095 . S
O2057 C2066 1.250 . S
O2058 Mn2053 2.121 . S
O2058 C2066 1.258 . S
C2059 N2060 1.326 . S
C2059 C2063 1.460 . S
C2059 H2065 0.929 . S
N2060 Mn2053 2.257 . S
N2060 C2059 1.326 . S
N2060 C2064 1.362 . S
C2061 C2062 1.258 . S
C2061 C2064 1.431 1_545 S
C2061 C2081 1.449 . S
C2062 C2061 1.258 . S
C2062 C2063 1.477 1_545 S
C2062 H2082 0.931 . S
C2063 C2059 1.460 . S
C2063 C2062 1.477 1_565 S
C2063 H2083 0.930 . S
C2064 N2060 1.362 . S
C2064 C2061 1.431 1_565 S
C2064 C2074 1.476 . S
H2065 C2059 0.929 . S
C2066 O2057 1.250 . S
C2066 O2058 1.258 . S
O2067 Mn2052 2.162 . S
O2067 C2055 1.281 . S
O2068 Mn2052 2.297 . S
O2068 C2055 1.236 . S
N2069 Mn2053 2.282 . S
N2069 C2070 1.328 . S
N2069 C2074 1.318 . S
C2070 N2069 1.328 . S
C2070 C2071 1.452 . S
C2070 H2075 0.929 . S
C2071 C2070 1.452 . S
C2071 C2072 1.296 1_565 S
C2071 H2084 0.930 1_565 S
C2072 C2071 1.296 1_545 S
C2072 C2073 1.373 . S
C2072 H2085 0.929 . S
C2073 C2072 1.373 . S
C2073 C2074 1.396 1_545 S
C2073 C2080 1.403 . S
C2074 C2064 1.476 . S
C2074 N2069 1.318 . S
C2074 C2073 1.396 1_565 S
H2075 C2070 0.929 . S
O2076 Mn2052 2.385 . S
O2076 C2054 1.234 . S
O2077 Mn2052 2.209 . S
O2077 Mn2053 2.215 . S
O2077 C2054 1.283 . S
O2078 Mn2052 2.094 . S
O2078 C2056 1.240 . S
O2079 Mn2053 2.117 . S
O2079 C2056 1.264 . S
C2080 C2073 1.403 . S
C2080 C2081 1.399 . S
C2080 H2086 0.929 . S
C2081 C2061 1.449 . S
C2081 C2080 1.399 . S
C2081 H2087 0.930 . S
H2082 C2062 0.931 . S
H2083 C2063 0.930 . S
H2084 C2071 0.930 1_545 S
H2085 C2072 0.929 . S
H2086 C2080 0.929 . S
H2087 C2081 0.930 . S
Mn2088 O2093 2.095 . S
Mn2088 O2103 2.162 . S
Mn2088 O2104 2.297 . S
Mn2088 O2112 2.385 . S
Mn2088 O2113 2.209 . S
Mn2088 O2114 2.094 . S
Mn2089 O2094 2.121 . S
Mn2089 N2096 2.257 . S
Mn2089 N2105 2.282 . S
Mn2089 O2113 2.215 . S
Mn2089 O2115 2.117 . S
C2090 O2112 1.234 . S
C2090 O2113 1.283 . S
C2091 O2103 1.281 . S
C2091 O2104 1.236 . S
C2092 O2114 1.240 . S
C2092 O2115 1.264 . S
O2093 Mn2088 2.095 . S
O2093 C2102 1.250 . S
O2094 Mn2089 2.121 . S
O2094 C2102 1.258 . S
C2095 N2096 1.326 . S
C2095 C2099 1.460 . S
C2095 H2101 0.929 . S
N2096 Mn2089 2.257 . S
N2096 C2095 1.326 . S
N2096 C2100 1.362 . S
C2097 C2098 1.258 . S
C2097 C2100 1.431 1_655 S
C2097 C2117 1.449 . S
C2098 C2097 1.258 . S
C2098 C2099 1.477 1_655 S
C2098 H2118 0.931 . S
C2099 C2095 1.460 . S
C2099 C2098 1.477 1_455 S
C2099 H2119 0.930 . S
C2100 N2096 1.362 . S
C2100 C2097 1.431 1_455 S
C2100 C2110 1.476 . S
H2101 C2095 0.929 . S
C2102 O2093 1.250 . S
C2102 O2094 1.258 . S
O2103 Mn2088 2.162 . S
O2103 C2091 1.281 . S
O2104 Mn2088 2.297 . S
O2104 C2091 1.236 . S
N2105 Mn2089 2.282 . S
N2105 C2106 1.328 . S
N2105 C2110 1.318 . S
C2106 N2105 1.328 . S
C2106 C2107 1.452 . S
C2106 H2111 0.929 . S
C2107 C2106 1.452 . S
C2107 C2108 1.296 1_455 S
C2107 H2120 0.930 1_455 S
C2108 C2107 1.296 1_655 S
C2108 C2109 1.373 . S
C2108 H2121 0.929 . S
C2109 C2108 1.373 . S
C2109 C2110 1.396 1_655 S
C2109 C2116 1.403 . S
C2110 C2100 1.476 . S
C2110 N2105 1.318 . S
C2110 C2109 1.396 1_455 S
H2111 C2106 0.929 . S
O2112 Mn2088 2.385 . S
O2112 C2090 1.234 . S
O2113 Mn2088 2.209 . S
O2113 Mn2089 2.215 . S
O2113 C2090 1.283 . S
O2114 Mn2088 2.094 . S
O2114 C2092 1.240 . S
O2115 Mn2089 2.117 . S
O2115 C2092 1.264 . S
C2116 C2109 1.403 . S
C2116 C2117 1.399 . S
C2116 H2122 0.929 . S
C2117 C2097 1.449 . S
C2117 C2116 1.399 . S
C2117 H2123 0.930 . S
H2118 C2098 0.931 . S
H2119 C2099 0.930 . S
H2120 C2107 0.930 1_655 S
H2121 C2108 0.929 . S
H2122 C2116 0.929 . S
H2123 C2117 0.930 . S
Mn2124 O2129 2.095 . S
Mn2124 O2139 2.162 . S
Mn2124 O2140 2.297 . S
Mn2124 O2148 2.385 . S
Mn2124 O2149 2.209 . S
Mn2124 O2150 2.094 . S
Mn2125 O2130 2.121 . S
Mn2125 N2132 2.257 . S
Mn2125 N2141 2.282 . S
Mn2125 O2149 2.215 . S
Mn2125 O2151 2.117 . S
C2126 O2148 1.234 . S
C2126 O2149 1.283 . S
C2127 O2139 1.281 . S
C2127 O2140 1.236 . S
C2128 O2150 1.240 . S
C2128 O2151 1.264 . S
O2129 Mn2124 2.095 . S
O2129 C2138 1.250 . S
O2130 Mn2125 2.121 . S
O2130 C2138 1.258 . S
C2131 N2132 1.326 . S
C2131 C2135 1.460 . S
C2131 H2137 0.929 . S
N2132 Mn2125 2.257 . S
N2132 C2131 1.326 . S
N2132 C2136 1.362 . S
C2133 C2134 1.258 . S
C2133 C2136 1.431 1_565 S
C2133 C2153 1.449 . S
C2134 C2133 1.258 . S
C2134 C2135 1.477 1_565 S
C2134 H2154 0.931 . S
C2135 C2131 1.460 . S
C2135 C2134 1.477 1_545 S
C2135 H2155 0.930 . S
C2136 N2132 1.362 . S
C2136 C2133 1.431 1_545 S
C2136 C2146 1.476 . S
H2137 C2131 0.929 . S
C2138 O2129 1.250 . S
C2138 O2130 1.258 . S
O2139 Mn2124 2.162 . S
O2139 C2127 1.281 . S
O2140 Mn2124 2.297 . S
O2140 C2127 1.236 . S
N2141 Mn2125 2.282 . S
N2141 C2142 1.328 . S
N2141 C2146 1.318 . S
C2142 N2141 1.328 . S
C2142 C2143 1.452 . S
C2142 H2147 0.929 . S
C2143 C2142 1.452 . S
C2143 C2144 1.296 1_545 S
C2143 H2156 0.930 1_545 S
C2144 C2143 1.296 1_565 S
C2144 C2145 1.373 . S
C2144 H2157 0.929 . S
C2145 C2144 1.373 . S
C2145 C2146 1.396 1_565 S
C2145 C2152 1.403 . S
C2146 C2136 1.476 . S
C2146 N2141 1.318 . S
C2146 C2145 1.396 1_545 S
H2147 C2142 0.929 . S
O2148 Mn2124 2.385 . S
O2148 C2126 1.234 . S
O2149 Mn2124 2.209 . S
O2149 Mn2125 2.215 . S
O2149 C2126 1.283 . S
O2150 Mn2124 2.094 . S
O2150 C2128 1.240 . S
O2151 Mn2125 2.117 . S
O2151 C2128 1.264 . S
C2152 C2145 1.403 . S
C2152 C2153 1.399 . S
C2152 H2158 0.929 . S
C2153 C2133 1.449 . S
C2153 C2152 1.399 . S
C2153 H2159 0.930 . S
H2154 C2134 0.931 . S
H2155 C2135 0.930 . S
H2156 C2143 0.930 1_565 S
H2157 C2144 0.929 . S
H2158 C2152 0.929 . S
H2159 C2153 0.930 . S
Mn2160 O2165 2.095 . S
Mn2160 O2175 2.162 . S
Mn2160 O2176 2.297 . S
Mn2160 O2184 2.385 . S
Mn2160 O2185 2.209 . S
Mn2160 O2186 2.094 . S
Mn2161 O2166 2.121 . S
Mn2161 N2168 2.257 . S
Mn2161 N2177 2.282 . S
Mn2161 O2185 2.215 . S
Mn2161 O2187 2.117 . S
C2162 O2184 1.234 . S
C2162 O2185 1.283 . S
C2163 O2175 1.281 . S
C2163 O2176 1.236 . S
C2164 O2186 1.240 . S
C2164 O2187 1.264 . S
O2165 Mn2160 2.095 . S
O2165 C2174 1.250 . S
O2166 Mn2161 2.121 . S
O2166 C2174 1.258 . S
C2167 N2168 1.326 . S
C2167 C2171 1.460 . S
C2167 H2173 0.929 . S
N2168 Mn2161 2.257 . S
N2168 C2167 1.326 . S
N2168 C2172 1.362 . S
C2169 C2170 1.258 . S
C2169 C2172 1.431 1_455 S
C2169 C2189 1.449 . S
C2170 C2169 1.258 . S
C2170 C2171 1.477 1_455 S
C2170 H2190 0.931 . S
C2171 C2167 1.460 . S
C2171 C2170 1.477 1_655 S
C2171 H2191 0.930 . S
C2172 N2168 1.362 . S
C2172 C2169 1.431 1_655 S
C2172 C2182 1.476 . S
H2173 C2167 0.929 . S
C2174 O2165 1.250 . S
C2174 O2166 1.258 . S
O2175 Mn2160 2.162 . S
O2175 C2163 1.281 . S
O2176 Mn2160 2.297 . S
O2176 C2163 1.236 . S
N2177 Mn2161 2.282 . S
N2177 C2178 1.328 . S
N2177 C2182 1.318 . S
C2178 N2177 1.328 . S
C2178 C2179 1.452 . S
C2178 H2183 0.929 . S
C2179 C2178 1.452 . S
C2179 C2180 1.296 1_655 S
C2179 H2192 0.930 1_655 S
C2180 C2179 1.296 1_455 S
C2180 C2181 1.373 . S
C2180 H2193 0.929 . S
C2181 C2180 1.373 . S
C2181 C2182 1.396 1_455 S
C2181 C2188 1.403 . S
C2182 C2172 1.476 . S
C2182 N2177 1.318 . S
C2182 C2181 1.396 1_655 S
H2183 C2178 0.929 . S
O2184 Mn2160 2.385 . S
O2184 C2162 1.234 . S
O2185 Mn2160 2.209 . S
O2185 Mn2161 2.215 . S
O2185 C2162 1.283 . S
O2186 Mn2160 2.094 . S
O2186 C2164 1.240 . S
O2187 Mn2161 2.117 . S
O2187 C2164 1.264 . S
C2188 C2181 1.403 . S
C2188 C2189 1.399 . S
C2188 H2194 0.929 . S
C2189 C2169 1.449 . S
C2189 C2188 1.399 . S
C2189 H2195 0.930 . S
H2190 C2170 0.931 . S
H2191 C2171 0.930 . S
H2192 C2179 0.930 1_455 S
H2193 C2180 0.929 . S
H2194 C2188 0.929 . S
H2195 C2189 0.930 . S
Mn2196 O2201 2.095 . S
Mn2196 O2211 2.162 . S
Mn2196 O2212 2.297 . S
Mn2196 O2220 2.385 . S
Mn2196 O2221 2.209 . S
Mn2196 O2222 2.094 . S
Mn2197 O2202 2.121 . S
Mn2197 N2204 2.257 . S
Mn2197 N2213 2.282 . S
Mn2197 O2221 2.215 . S
Mn2197 O2223 2.117 . S
C2198 O2220 1.234 . S
C2198 O2221 1.283 . S
C2199 O2211 1.281 . S
C2199 O2212 1.236 . S
C2200 O2222 1.240 . S
C2200 O2223 1.264 . S
O2201 Mn2196 2.095 . S
O2201 C2210 1.250 . S
O2202 Mn2197 2.121 . S
O2202 C2210 1.258 . S
C2203 N2204 1.326 . S
C2203 C2207 1.460 . S
C2203 H2209 0.929 . S
N2204 Mn2197 2.257 . S
N2204 C2203 1.326 . S
N2204 C2208 1.362 . S
C2205 C2206 1.258 . S
C2205 C2208 1.431 1_545 S
C2205 C2225 1.449 . S
C2206 C2205 1.258 . S
C2206 C2207 1.477 1_545 S
C2206 H2226 0.931 . S
C2207 C2203 1.460 . S
C2207 C2206 1.477 1_565 S
C2207 H2227 0.930 . S
C2208 N2204 1.362 . S
C2208 C2205 1.431 1_565 S
C2208 C2218 1.476 . S
H2209 C2203 0.929 . S
C2210 O2201 1.250 . S
C2210 O2202 1.258 . S
O2211 Mn2196 2.162 . S
O2211 C2199 1.281 . S
O2212 Mn2196 2.297 . S
O2212 C2199 1.236 . S
N2213 Mn2197 2.282 . S
N2213 C2214 1.328 . S
N2213 C2218 1.318 . S
C2214 N2213 1.328 . S
C2214 C2215 1.452 . S
C2214 H2219 0.929 . S
C2215 C2214 1.452 . S
C2215 C2216 1.296 1_565 S
C2215 H2228 0.930 1_565 S
C2216 C2215 1.296 1_545 S
C2216 C2217 1.373 . S
C2216 H2229 0.929 . S
C2217 C2216 1.373 . S
C2217 C2218 1.396 1_545 S
C2217 C2224 1.403 . S
C2218 C2208 1.476 . S
C2218 N2213 1.318 . S
C2218 C2217 1.396 1_565 S
H2219 C2214 0.929 . S
O2220 Mn2196 2.385 . S
O2220 C2198 1.234 . S
O2221 Mn2196 2.209 . S
O2221 Mn2197 2.215 . S
O2221 C2198 1.283 . S
O2222 Mn2196 2.094 . S
O2222 C2200 1.240 . S
O2223 Mn2197 2.117 . S
O2223 C2200 1.264 . S
C2224 C2217 1.403 . S
C2224 C2225 1.399 . S
C2224 H2230 0.929 . S
C2225 C2205 1.449 . S
C2225 C2224 1.399 . S
C2225 H2231 0.930 . S
H2226 C2206 0.931 . S
H2227 C2207 0.930 . S
H2228 C2215 0.930 1_545 S
H2229 C2216 0.929 . S
H2230 C2224 0.929 . S
H2231 C2225 0.930 . S
Mn2232 O2237 2.095 . S
Mn2232 O2247 2.162 . S
Mn2232 O2248 2.297 . S
Mn2232 O2256 2.385 . S
Mn2232 O2257 2.209 . S
Mn2232 O2258 2.094 . S
Mn2233 O2238 2.121 . S
Mn2233 N2240 2.257 . S
Mn2233 N2249 2.282 . S
Mn2233 O2257 2.215 . S
Mn2233 O2259 2.117 . S
C2234 O2256 1.234 . S
C2234 O2257 1.283 . S
C2235 O2247 1.281 . S
C2235 O2248 1.236 . S
C2236 O2258 1.240 . S
C2236 O2259 1.264 . S
O2237 Mn2232 2.095 . S
O2237 C2246 1.250 . S
O2238 Mn2233 2.121 . S
O2238 C2246 1.258 . S
C2239 N2240 1.326 . S
C2239 C2243 1.460 . S
C2239 H2245 0.929 . S
N2240 Mn2233 2.257 . S
N2240 C2239 1.326 . S
N2240 C2244 1.362 . S
C2241 C2242 1.258 . S
C2241 C2244 1.431 1_655 S
C2241 C2261 1.449 . S
C2242 C2241 1.258 . S
C2242 C2243 1.477 1_655 S
C2242 H2262 0.931 . S
C2243 C2239 1.460 . S
C2243 C2242 1.477 1_455 S
C2243 H2263 0.930 . S
C2244 N2240 1.362 . S
C2244 C2241 1.431 1_455 S
C2244 C2254 1.476 . S
H2245 C2239 0.929 . S
C2246 O2237 1.250 . S
C2246 O2238 1.258 . S
O2247 Mn2232 2.162 . S
O2247 C2235 1.281 . S
O2248 Mn2232 2.297 . S
O2248 C2235 1.236 . S
N2249 Mn2233 2.282 . S
N2249 C2250 1.328 . S
N2249 C2254 1.318 . S
C2250 N2249 1.328 . S
C2250 C2251 1.452 . S
C2250 H2255 0.929 . S
C2251 C2250 1.452 . S
C2251 C2252 1.296 1_455 S
C2251 H2264 0.930 1_455 S
C2252 C2251 1.296 1_655 S
C2252 C2253 1.373 . S
C2252 H2265 0.929 . S
C2253 C2252 1.373 . S
C2253 C2254 1.396 1_655 S
C2253 C2260 1.403 . S
C2254 C2244 1.476 . S
C2254 N2249 1.318 . S
C2254 C2253 1.396 1_455 S
H2255 C2250 0.929 . S
O2256 Mn2232 2.385 . S
O2256 C2234 1.234 . S
O2257 Mn2232 2.209 . S
O2257 Mn2233 2.215 . S
O2257 C2234 1.283 . S
O2258 Mn2232 2.094 . S
O2258 C2236 1.240 . S
O2259 Mn2233 2.117 . S
O2259 C2236 1.264 . S
C2260 C2253 1.403 . S
C2260 C2261 1.399 . S
C2260 H2266 0.929 . S
C2261 C2241 1.449 . S
C2261 C2260 1.399 . S
C2261 H2267 0.930 . S
H2262 C2242 0.931 . S
H2263 C2243 0.930 . S
H2264 C2251 0.930 1_655 S
H2265 C2252 0.929 . S
H2266 C2260 0.929 . S
H2267 C2261 0.930 . S
Mn2268 O2273 2.095 . S
Mn2268 O2283 2.162 . S
Mn2268 O2284 2.297 . S
Mn2268 O2292 2.385 . S
Mn2268 O2293 2.209 . S
Mn2268 O2294 2.094 . S
Mn2269 O2274 2.121 . S
Mn2269 N2276 2.257 . S
Mn2269 N2285 2.282 . S
Mn2269 O2293 2.215 . S
Mn2269 O2295 2.117 . S
C2270 O2292 1.234 . S
C2270 O2293 1.283 . S
C2271 O2283 1.281 . S
C2271 O2284 1.236 . S
C2272 O2294 1.240 . S
C2272 O2295 1.264 . S
O2273 Mn2268 2.095 . S
O2273 C2282 1.250 . S
O2274 Mn2269 2.121 . S
O2274 C2282 1.258 . S
C2275 N2276 1.326 . S
C2275 C2279 1.460 . S
C2275 H2281 0.929 . S
N2276 Mn2269 2.257 . S
N2276 C2275 1.326 . S
N2276 C2280 1.362 . S
C2277 C2278 1.258 . S
C2277 C2280 1.431 1_565 S
C2277 C2297 1.449 . S
C2278 C2277 1.258 . S
C2278 C2279 1.477 1_565 S
C2278 H2298 0.931 . S
C2279 C2275 1.460 . S
C2279 C2278 1.477 1_545 S
C2279 H2299 0.930 . S
C2280 N2276 1.362 . S
C2280 C2277 1.431 1_545 S
C2280 C2290 1.476 . S
H2281 C2275 0.929 . S
C2282 O2273 1.250 . S
C2282 O2274 1.258 . S
O2283 Mn2268 2.162 . S
O2283 C2271 1.281 . S
O2284 Mn2268 2.297 . S
O2284 C2271 1.236 . S
N2285 Mn2269 2.282 . S
N2285 C2286 1.328 . S
N2285 C2290 1.318 . S
C2286 N2285 1.328 . S
C2286 C2287 1.452 . S
C2286 H2291 0.929 . S
C2287 C2286 1.452 . S
C2287 C2288 1.296 1_545 S
C2287 H2300 0.930 1_545 S
C2288 C2287 1.296 1_565 S
C2288 C2289 1.373 . S
C2288 H2301 0.929 . S
C2289 C2288 1.373 . S
C2289 C2290 1.396 1_565 S
C2289 C2296 1.403 . S
C2290 C2280 1.476 . S
C2290 N2285 1.318 . S
C2290 C2289 1.396 1_545 S
H2291 C2286 0.929 . S
O2292 Mn2268 2.385 . S
O2292 C2270 1.234 . S
O2293 Mn2268 2.209 . S
O2293 Mn2269 2.215 . S
O2293 C2270 1.283 . S
O2294 Mn2268 2.094 . S
O2294 C2272 1.240 . S
O2295 Mn2269 2.117 . S
O2295 C2272 1.264 . S
C2296 C2289 1.403 . S
C2296 C2297 1.399 . S
C2296 H2302 0.929 . S
C2297 C2277 1.449 . S
C2297 C2296 1.399 . S
C2297 H2303 0.930 . S
H2298 C2278 0.931 . S
H2299 C2279 0.930 . S
H2300 C2287 0.930 1_565 S
H2301 C2288 0.929 . S
H2302 C2296 0.929 . S
H2303 C2297 0.930 . S
Mn2304 O2309 2.095 . S
Mn2304 O2319 2.162 . S
Mn2304 O2320 2.297 . S
Mn2304 O2328 2.385 . S
Mn2304 O2329 2.209 . S
Mn2304 O2330 2.094 . S
Mn2305 O2310 2.121 . S
Mn2305 N2312 2.257 . S
Mn2305 N2321 2.282 . S
Mn2305 O2329 2.215 . S
Mn2305 O2331 2.117 . S
C2306 O2328 1.234 . S
C2306 O2329 1.283 . S
C2307 O2319 1.281 . S
C2307 O2320 1.236 . S
C2308 O2330 1.240 . S
C2308 O2331 1.264 . S
O2309 Mn2304 2.095 . S
O2309 C2318 1.250 . S
O2310 Mn2305 2.121 . S
O2310 C2318 1.258 . S
C2311 N2312 1.326 . S
C2311 C2315 1.460 . S
C2311 H2317 0.929 . S
N2312 Mn2305 2.257 . S
N2312 C2311 1.326 . S
N2312 C2316 1.362 . S
C2313 C2314 1.258 . S
C2313 C2316 1.431 1_545 S
C2313 C2333 1.449 . S
C2314 C2313 1.258 . S
C2314 C2315 1.477 1_545 S
C2314 H2334 0.931 . S
C2315 C2311 1.460 . S
C2315 C2314 1.477 1_565 S
C2315 H2335 0.930 . S
C2316 N2312 1.362 . S
C2316 C2313 1.431 1_565 S
C2316 C2326 1.476 . S
H2317 C2311 0.929 . S
C2318 O2309 1.250 . S
C2318 O2310 1.258 . S
O2319 Mn2304 2.162 . S
O2319 C2307 1.281 . S
O2320 Mn2304 2.297 . S
O2320 C2307 1.236 . S
N2321 Mn2305 2.282 . S
N2321 C2322 1.328 . S
N2321 C2326 1.318 . S
C2322 N2321 1.328 . S
C2322 C2323 1.452 . S
C2322 H2327 0.929 . S
C2323 C2322 1.452 . S
C2323 C2324 1.296 1_565 S
C2323 H2336 0.930 1_565 S
C2324 C2323 1.296 1_545 S
C2324 C2325 1.373 . S
C2324 H2337 0.929 . S
C2325 C2324 1.373 . S
C2325 C2326 1.396 1_545 S
C2325 C2332 1.403 . S
C2326 C2316 1.476 . S
C2326 N2321 1.318 . S
C2326 C2325 1.396 1_565 S
H2327 C2322 0.929 . S
O2328 Mn2304 2.385 . S
O2328 C2306 1.234 . S
O2329 Mn2304 2.209 . S
O2329 Mn2305 2.215 . S
O2329 C2306 1.283 . S
O2330 Mn2304 2.094 . S
O2330 C2308 1.240 . S
O2331 Mn2305 2.117 . S
O2331 C2308 1.264 . S
C2332 C2325 1.403 . S
C2332 C2333 1.399 . S
C2332 H2338 0.929 . S
C2333 C2313 1.449 . S
C2333 C2332 1.399 . S
C2333 H2339 0.930 . S
H2334 C2314 0.931 . S
H2335 C2315 0.930 . S
H2336 C2323 0.930 1_545 S
H2337 C2324 0.929 . S
H2338 C2332 0.929 . S
H2339 C2333 0.930 . S
Mn2340 O2345 2.095 . S
Mn2340 O2355 2.162 . S
Mn2340 O2356 2.297 . S
Mn2340 O2364 2.385 . S
Mn2340 O2365 2.209 . S
Mn2340 O2366 2.094 . S
Mn2341 O2346 2.121 . S
Mn2341 N2348 2.257 . S
Mn2341 N2357 2.282 . S
Mn2341 O2365 2.215 . S
Mn2341 O2367 2.117 . S
C2342 O2364 1.234 . S
C2342 O2365 1.283 . S
C2343 O2355 1.281 . S
C2343 O2356 1.236 . S
C2344 O2366 1.240 . S
C2344 O2367 1.264 . S
O2345 Mn2340 2.095 . S
O2345 C2354 1.250 . S
O2346 Mn2341 2.121 . S
O2346 C2354 1.258 . S
C2347 N2348 1.326 . S
C2347 C2351 1.460 . S
C2347 H2353 0.929 . S
N2348 Mn2341 2.257 . S
N2348 C2347 1.326 . S
N2348 C2352 1.362 . S
C2349 C2350 1.258 . S
C2349 C2352 1.431 1_565 S
C2349 C2369 1.449 . S
C2350 C2349 1.258 . S
C2350 C2351 1.477 1_565 S
C2350 H2370 0.931 . S
C2351 C2347 1.460 . S
C2351 C2350 1.477 1_545 S
C2351 H2371 0.930 . S
C2352 N2348 1.362 . S
C2352 C2349 1.431 1_545 S
C2352 C2362 1.476 . S
H2353 C2347 0.929 . S
C2354 O2345 1.250 . S
C2354 O2346 1.258 . S
O2355 Mn2340 2.162 . S
O2355 C2343 1.281 . S
O2356 Mn2340 2.297 . S
O2356 C2343 1.236 . S
N2357 Mn2341 2.282 . S
N2357 C2358 1.328 . S
N2357 C2362 1.318 . S
C2358 N2357 1.328 . S
C2358 C2359 1.452 . S
C2358 H2363 0.929 . S
C2359 C2358 1.452 . S
C2359 C2360 1.296 1_545 S
C2359 H2372 0.930 1_545 S
C2360 C2359 1.296 1_565 S
C2360 C2361 1.373 . S
C2360 H2373 0.929 . S
C2361 C2360 1.373 . S
C2361 C2362 1.396 1_565 S
C2361 C2368 1.403 . S
C2362 C2352 1.476 . S
C2362 N2357 1.318 . S
C2362 C2361 1.396 1_545 S
H2363 C2358 0.929 . S
O2364 Mn2340 2.385 . S
O2364 C2342 1.234 . S
O2365 Mn2340 2.209 . S
O2365 Mn2341 2.215 . S
O2365 C2342 1.283 . S
O2366 Mn2340 2.094 . S
O2366 C2344 1.240 . S
O2367 Mn2341 2.117 . S
O2367 C2344 1.264 . S
C2368 C2361 1.403 . S
C2368 C2369 1.399 . S
C2368 H2374 0.929 . S
C2369 C2349 1.449 . S
C2369 C2368 1.399 . S
C2369 H2375 0.930 . S
H2370 C2350 0.931 . S
H2371 C2351 0.930 . S
H2372 C2359 0.930 1_565 S
H2373 C2360 0.929 . S
H2374 C2368 0.929 . S
H2375 C2369 0.930 . S
Mn2376 O2381 2.095 . S
Mn2376 O2391 2.162 . S
Mn2376 O2392 2.297 . S
Mn2376 O2400 2.385 . S
Mn2376 O2401 2.209 . S
Mn2376 O2402 2.094 . S
Mn2377 O2382 2.121 . S
Mn2377 N2384 2.257 . S
Mn2377 N2393 2.282 . S
Mn2377 O2401 2.215 . S
Mn2377 O2403 2.117 . S
C2378 O2400 1.234 . S
C2378 O2401 1.283 . S
C2379 O2391 1.281 . S
C2379 O2392 1.236 . S
C2380 O2402 1.240 . S
C2380 O2403 1.264 . S
O2381 Mn2376 2.095 . S
O2381 C2390 1.250 . S
O2382 Mn2377 2.121 . S
O2382 C2390 1.258 . S
C2383 N2384 1.326 . S
C2383 C2387 1.460 . S
C2383 H2389 0.929 . S
N2384 Mn2377 2.257 . S
N2384 C2383 1.326 . S
N2384 C2388 1.362 . S
C2385 C2386 1.258 . S
C2385 C2388 1.431 1_455 S
C2385 C2405 1.449 . S
C2386 C2385 1.258 . S
C2386 C2387 1.477 1_455 S
C2386 H2406 0.931 . S
C2387 C2383 1.460 . S
C2387 C2386 1.477 1_655 S
C2387 H2407 0.930 . S
C2388 N2384 1.362 . S
C2388 C2385 1.431 1_655 S
C2388 C2398 1.476 . S
H2389 C2383 0.929 . S
C2390 O2381 1.250 . S
C2390 O2382 1.258 . S
O2391 Mn2376 2.162 . S
O2391 C2379 1.281 . S
O2392 Mn2376 2.297 . S
O2392 C2379 1.236 . S
N2393 Mn2377 2.282 . S
N2393 C2394 1.328 . S
N2393 C2398 1.318 . S
C2394 N2393 1.328 . S
C2394 C2395 1.452 . S
C2394 H2399 0.929 . S
C2395 C2394 1.452 . S
C2395 C2396 1.296 1_655 S
C2395 H2408 0.930 1_655 S
C2396 C2395 1.296 1_455 S
C2396 C2397 1.373 . S
C2396 H2409 0.929 . S
C2397 C2396 1.373 . S
C2397 C2398 1.396 1_455 S
C2397 C2404 1.403 . S
C2398 C2388 1.476 . S
C2398 N2393 1.318 . S
C2398 C2397 1.396 1_655 S
H2399 C2394 0.929 . S
O2400 Mn2376 2.385 . S
O2400 C2378 1.234 . S
O2401 Mn2376 2.209 . S
O2401 Mn2377 2.215 . S
O2401 C2378 1.283 . S
O2402 Mn2376 2.094 . S
O2402 C2380 1.240 . S
O2403 Mn2377 2.117 . S
O2403 C2380 1.264 . S
C2404 C2397 1.403 . S
C2404 C2405 1.399 . S
C2404 H2410 0.929 . S
C2405 C2385 1.449 . S
C2405 C2404 1.399 . S
C2405 H2411 0.930 . S
H2406 C2386 0.931 . S
H2407 C2387 0.930 . S
H2408 C2395 0.930 1_455 S
H2409 C2396 0.929 . S
H2410 C2404 0.929 . S
H2411 C2405 0.930 . S
Mn2412 O2417 2.095 . S
Mn2412 O2427 2.162 . S
Mn2412 O2428 2.297 . S
Mn2412 O2436 2.385 . S
Mn2412 O2437 2.209 . S
Mn2412 O2438 2.094 . S
Mn2413 O2418 2.121 . S
Mn2413 N2420 2.257 . S
Mn2413 N2429 2.282 . S
Mn2413 O2437 2.215 . S
Mn2413 O2439 2.117 . S
C2414 O2436 1.234 . S
C2414 O2437 1.283 . S
C2415 O2427 1.281 . S
C2415 O2428 1.236 . S
C2416 O2438 1.240 . S
C2416 O2439 1.264 . S
O2417 Mn2412 2.095 . S
O2417 C2426 1.250 . S
O2418 Mn2413 2.121 . S
O2418 C2426 1.258 . S
C2419 N2420 1.326 . S
C2419 C2423 1.460 . S
C2419 H2425 0.929 . S
N2420 Mn2413 2.257 . S
N2420 C2419 1.326 . S
N2420 C2424 1.362 . S
C2421 C2422 1.258 . S
C2421 C2424 1.431 1_545 S
C2421 C2441 1.449 . S
C2422 C2421 1.258 . S
C2422 C2423 1.477 1_545 S
C2422 H2442 0.931 . S
C2423 C2419 1.460 . S
C2423 C2422 1.477 1_565 S
C2423 H2443 0.930 . S
C2424 N2420 1.362 . S
C2424 C2421 1.431 1_565 S
C2424 C2434 1.476 . S
H2425 C2419 0.929 . S
C2426 O2417 1.250 . S
C2426 O2418 1.258 . S
O2427 Mn2412 2.162 . S
O2427 C2415 1.281 . S
O2428 Mn2412 2.297 . S
O2428 C2415 1.236 . S
N2429 Mn2413 2.282 . S
N2429 C2430 1.328 . S
N2429 C2434 1.318 . S
C2430 N2429 1.328 . S
C2430 C2431 1.452 . S
C2430 H2435 0.929 . S
C2431 C2430 1.452 . S
C2431 C2432 1.296 1_565 S
C2431 H2444 0.930 1_565 S
C2432 C2431 1.296 1_545 S
C2432 C2433 1.373 . S
C2432 H2445 0.929 . S
C2433 C2432 1.373 . S
C2433 C2434 1.396 1_545 S
C2433 C2440 1.403 . S
C2434 C2424 1.476 . S
C2434 N2429 1.318 . S
C2434 C2433 1.396 1_565 S
H2435 C2430 0.929 . S
O2436 Mn2412 2.385 . S
O2436 C2414 1.234 . S
O2437 Mn2412 2.209 . S
O2437 Mn2413 2.215 . S
O2437 C2414 1.283 . S
O2438 Mn2412 2.094 . S
O2438 C2416 1.240 . S
O2439 Mn2413 2.117 . S
O2439 C2416 1.264 . S
C2440 C2433 1.403 . S
C2440 C2441 1.399 . S
C2440 H2446 0.929 . S
C2441 C2421 1.449 . S
C2441 C2440 1.399 . S
C2441 H2447 0.930 . S
H2442 C2422 0.931 . S
H2443 C2423 0.930 . S
H2444 C2431 0.930 1_545 S
H2445 C2432 0.929 . S
H2446 C2440 0.929 . S
H2447 C2441 0.930 . S
Mn2448 O2453 2.095 . S
Mn2448 O2463 2.162 . S
Mn2448 O2464 2.297 . S
Mn2448 O2472 2.385 . S
Mn2448 O2473 2.209 . S
Mn2448 O2474 2.094 . S
Mn2449 O2454 2.121 . S
Mn2449 N2456 2.257 . S
Mn2449 N2465 2.282 . S
Mn2449 O2473 2.215 . S
Mn2449 O2475 2.117 . S
C2450 O2472 1.234 . S
C2450 O2473 1.283 . S
C2451 O2463 1.281 . S
C2451 O2464 1.236 . S
C2452 O2474 1.240 . S
C2452 O2475 1.264 . S
O2453 Mn2448 2.095 . S
O2453 C2462 1.250 . S
O2454 Mn2449 2.121 . S
O2454 C2462 1.258 . S
C2455 N2456 1.326 . S
C2455 C2459 1.460 . S
C2455 H2461 0.929 . S
N2456 Mn2449 2.257 . S
N2456 C2455 1.326 . S
N2456 C2460 1.362 . S
C2457 C2458 1.258 . S
C2457 C2460 1.431 1_655 S
C2457 C2477 1.449 . S
C2458 C2457 1.258 . S
C2458 C2459 1.477 1_655 S
C2458 H2478 0.931 . S
C2459 C2455 1.460 . S
C2459 C2458 1.477 1_455 S
C2459 H2479 0.930 . S
C2460 N2456 1.362 . S
C2460 C2457 1.431 1_455 S
C2460 C2470 1.476 . S
H2461 C2455 0.929 . S
C2462 O2453 1.250 . S
C2462 O2454 1.258 . S
O2463 Mn2448 2.162 . S
O2463 C2451 1.281 . S
O2464 Mn2448 2.297 . S
O2464 C2451 1.236 . S
N2465 Mn2449 2.282 . S
N2465 C2466 1.328 . S
N2465 C2470 1.318 . S
C2466 N2465 1.328 . S
C2466 C2467 1.452 . S
C2466 H2471 0.929 . S
C2467 C2466 1.452 . S
C2467 C2468 1.296 1_455 S
C2467 H2480 0.930 1_455 S
C2468 C2467 1.296 1_655 S
C2468 C2469 1.373 . S
C2468 H2481 0.929 . S
C2469 C2468 1.373 . S
C2469 C2470 1.396 1_655 S
C2469 C2476 1.403 . S
C2470 C2460 1.476 . S
C2470 N2465 1.318 . S
C2470 C2469 1.396 1_455 S
H2471 C2466 0.929 . S
O2472 Mn2448 2.385 . S
O2472 C2450 1.234 . S
O2473 Mn2448 2.209 . S
O2473 Mn2449 2.215 . S
O2473 C2450 1.283 . S
O2474 Mn2448 2.094 . S
O2474 C2452 1.240 . S
O2475 Mn2449 2.117 . S
O2475 C2452 1.264 . S
C2476 C2469 1.403 . S
C2476 C2477 1.399 . S
C2476 H2482 0.929 . S
C2477 C2457 1.449 . S
C2477 C2476 1.399 . S
C2477 H2483 0.930 . S
H2478 C2458 0.931 . S
H2479 C2459 0.930 . S
H2480 C2467 0.930 1_655 S
H2481 C2468 0.929 . S
H2482 C2476 0.929 . S
H2483 C2477 0.930 . S
Mn2484 O2489 2.095 . S
Mn2484 O2499 2.162 . S
Mn2484 O2500 2.297 . S
Mn2484 O2508 2.385 . S
Mn2484 O2509 2.209 . S
Mn2484 O2510 2.094 . S
Mn2485 O2490 2.121 . S
Mn2485 N2492 2.257 . S
Mn2485 N2501 2.282 . S
Mn2485 O2509 2.215 . S
Mn2485 O2511 2.117 . S
C2486 O2508 1.234 . S
C2486 O2509 1.283 . S
C2487 O2499 1.281 . S
C2487 O2500 1.236 . S
C2488 O2510 1.240 . S
C2488 O2511 1.264 . S
O2489 Mn2484 2.095 . S
O2489 C2498 1.250 . S
O2490 Mn2485 2.121 . S
O2490 C2498 1.258 . S
C2491 N2492 1.326 . S
C2491 C2495 1.460 . S
C2491 H2497 0.929 . S
N2492 Mn2485 2.257 . S
N2492 C2491 1.326 . S
N2492 C2496 1.362 . S
C2493 C2494 1.258 . S
C2493 C2496 1.431 1_565 S
C2493 C2513 1.449 . S
C2494 C2493 1.258 . S
C2494 C2495 1.477 1_565 S
C2494 H2514 0.931 . S
C2495 C2491 1.460 . S
C2495 C2494 1.477 1_545 S
C2495 H2515 0.930 . S
C2496 N2492 1.362 . S
C2496 C2493 1.431 1_545 S
C2496 C2506 1.476 . S
H2497 C2491 0.929 . S
C2498 O2489 1.250 . S
C2498 O2490 1.258 . S
O2499 Mn2484 2.162 . S
O2499 C2487 1.281 . S
O2500 Mn2484 2.297 . S
O2500 C2487 1.236 . S
N2501 Mn2485 2.282 . S
N2501 C2502 1.328 . S
N2501 C2506 1.318 . S
C2502 N2501 1.328 . S
C2502 C2503 1.452 . S
C2502 H2507 0.929 . S
C2503 C2502 1.452 . S
C2503 C2504 1.296 1_545 S
C2503 H2516 0.930 1_545 S
C2504 C2503 1.296 1_565 S
C2504 C2505 1.373 . S
C2504 H2517 0.929 . S
C2505 C2504 1.373 . S
C2505 C2506 1.396 1_565 S
C2505 C2512 1.403 . S
C2506 C2496 1.476 . S
C2506 N2501 1.318 . S
C2506 C2505 1.396 1_545 S
H2507 C2502 0.929 . S
O2508 Mn2484 2.385 . S
O2508 C2486 1.234 . S
O2509 Mn2484 2.209 . S
O2509 Mn2485 2.215 . S
O2509 C2486 1.283 . S
O2510 Mn2484 2.094 . S
O2510 C2488 1.240 . S
O2511 Mn2485 2.117 . S
O2511 C2488 1.264 . S
C2512 C2505 1.403 . S
C2512 C2513 1.399 . S
C2512 H2518 0.929 . S
C2513 C2493 1.449 . S
C2513 C2512 1.399 . S
C2513 H2519 0.930 . S
H2514 C2494 0.931 . S
H2515 C2495 0.930 . S
H2516 C2503 0.930 1_565 S
H2517 C2504 0.929 . S
H2518 C2512 0.929 . S
H2519 C2513 0.930 . S
Mn2520 O2525 2.095 . S
Mn2520 O2535 2.162 . S
Mn2520 O2536 2.297 . S
Mn2520 O2544 2.385 . S
Mn2520 O2545 2.209 . S
Mn2520 O2546 2.094 . S
Mn2521 O2526 2.121 . S
Mn2521 N2528 2.257 . S
Mn2521 N2537 2.282 . S
Mn2521 O2545 2.215 . S
Mn2521 O2547 2.117 . S
C2522 O2544 1.234 . S
C2522 O2545 1.283 . S
C2523 O2535 1.281 . S
C2523 O2536 1.236 . S
C2524 O2546 1.240 . S
C2524 O2547 1.264 . S
O2525 Mn2520 2.095 . S
O2525 C2534 1.250 . S
O2526 Mn2521 2.121 . S
O2526 C2534 1.258 . S
C2527 N2528 1.326 . S
C2527 C2531 1.460 . S
C2527 H2533 0.929 . S
N2528 Mn2521 2.257 . S
N2528 C2527 1.326 . S
N2528 C2532 1.362 . S
C2529 C2530 1.258 . S
C2529 C2532 1.431 1_455 S
C2529 C2549 1.449 . S
C2530 C2529 1.258 . S
C2530 C2531 1.477 1_455 S
C2530 H2550 0.931 . S
C2531 C2527 1.460 . S
C2531 C2530 1.477 1_655 S
C2531 H2551 0.930 . S
C2532 N2528 1.362 . S
C2532 C2529 1.431 1_655 S
C2532 C2542 1.476 . S
H2533 C2527 0.929 . S
C2534 O2525 1.250 . S
C2534 O2526 1.258 . S
O2535 Mn2520 2.162 . S
O2535 C2523 1.281 . S
O2536 Mn2520 2.297 . S
O2536 C2523 1.236 . S
N2537 Mn2521 2.282 . S
N2537 C2538 1.328 . S
N2537 C2542 1.318 . S
C2538 N2537 1.328 . S
C2538 C2539 1.452 . S
C2538 H2543 0.929 . S
C2539 C2538 1.452 . S
C2539 C2540 1.296 1_655 S
C2539 H2552 0.930 1_655 S
C2540 C2539 1.296 1_455 S
C2540 C2541 1.373 . S
C2540 H2553 0.929 . S
C2541 C2540 1.373 . S
C2541 C2542 1.396 1_455 S
C2541 C2548 1.403 . S
C2542 C2532 1.476 . S
C2542 N2537 1.318 . S
C2542 C2541 1.396 1_655 S
H2543 C2538 0.929 . S
O2544 Mn2520 2.385 . S
O2544 C2522 1.234 . S
O2545 Mn2520 2.209 . S
O2545 Mn2521 2.215 . S
O2545 C2522 1.283 . S
O2546 Mn2520 2.094 . S
O2546 C2524 1.240 . S
O2547 Mn2521 2.117 . S
O2547 C2524 1.264 . S
C2548 C2541 1.403 . S
C2548 C2549 1.399 . S
C2548 H2554 0.929 . S
C2549 C2529 1.449 . S
C2549 C2548 1.399 . S
C2549 H2555 0.930 . S
H2550 C2530 0.931 . S
H2551 C2531 0.930 . S
H2552 C2539 0.930 1_455 S
H2553 C2540 0.929 . S
H2554 C2548 0.929 . S
H2555 C2549 0.930 . S
Mn2556 O2561 2.095 . S
Mn2556 O2571 2.162 . S
Mn2556 O2572 2.297 . S
Mn2556 O2580 2.385 . S
Mn2556 O2581 2.209 . S
Mn2556 O2582 2.094 . S
Mn2557 O2562 2.121 . S
Mn2557 N2564 2.257 . S
Mn2557 N2573 2.282 . S
Mn2557 O2581 2.215 . S
Mn2557 O2583 2.117 . S
C2558 O2580 1.234 . S
C2558 O2581 1.283 . S
C2559 O2571 1.281 . S
C2559 O2572 1.236 . S
C2560 O2582 1.240 . S
C2560 O2583 1.264 . S
O2561 Mn2556 2.095 . S
O2561 C2570 1.250 . S
O2562 Mn2557 2.121 . S
O2562 C2570 1.258 . S
C2563 N2564 1.326 . S
C2563 C2567 1.460 . S
C2563 H2569 0.929 . S
N2564 Mn2557 2.257 . S
N2564 C2563 1.326 . S
N2564 C2568 1.362 . S
C2565 C2566 1.258 . S
C2565 C2568 1.431 1_655 S
C2565 C2585 1.449 . S
C2566 C2565 1.258 . S
C2566 C2567 1.477 1_655 S
C2566 H2586 0.931 . S
C2567 C2563 1.460 . S
C2567 C2566 1.477 1_455 S
C2567 H2587 0.930 . S
C2568 N2564 1.362 . S
C2568 C2565 1.431 1_455 S
C2568 C2578 1.476 . S
H2569 C2563 0.929 . S
C2570 O2561 1.250 . S
C2570 O2562 1.258 . S
O2571 Mn2556 2.162 . S
O2571 C2559 1.281 . S
O2572 Mn2556 2.297 . S
O2572 C2559 1.236 . S
N2573 Mn2557 2.282 . S
N2573 C2574 1.328 . S
N2573 C2578 1.318 . S
C2574 N2573 1.328 . S
C2574 C2575 1.452 . S
C2574 H2579 0.929 . S
C2575 C2574 1.452 . S
C2575 C2576 1.296 1_455 S
C2575 H2588 0.930 1_455 S
C2576 C2575 1.296 1_655 S
C2576 C2577 1.373 . S
C2576 H2589 0.929 . S
C2577 C2576 1.373 . S
C2577 C2578 1.396 1_655 S
C2577 C2584 1.403 . S
C2578 C2568 1.476 . S
C2578 N2573 1.318 . S
C2578 C2577 1.396 1_455 S
H2579 C2574 0.929 . S
O2580 Mn2556 2.385 . S
O2580 C2558 1.234 . S
O2581 Mn2556 2.209 . S
O2581 Mn2557 2.215 . S
O2581 C2558 1.283 . S
O2582 Mn2556 2.094 . S
O2582 C2560 1.240 . S
O2583 Mn2557 2.117 . S
O2583 C2560 1.264 . S
C2584 C2577 1.403 . S
C2584 C2585 1.399 . S
C2584 H2590 0.929 . S
C2585 C2565 1.449 . S
C2585 C2584 1.399 . S
C2585 H2591 0.930 . S
H2586 C2566 0.931 . S
H2587 C2567 0.930 . S
H2588 C2575 0.930 1_655 S
H2589 C2576 0.929 . S
H2590 C2584 0.929 . S
H2591 C2585 0.930 . S
Mn2592 O2597 2.095 . S
Mn2592 O2607 2.162 . S
Mn2592 O2608 2.297 . S
Mn2592 O2616 2.385 . S
Mn2592 O2617 2.209 . S
Mn2592 O2618 2.094 . S
Mn2593 O2598 2.121 . S
Mn2593 N2600 2.257 . S
Mn2593 N2609 2.282 . S
Mn2593 O2617 2.215 . S
Mn2593 O2619 2.117 . S
C2594 O2616 1.234 . S
C2594 O2617 1.283 . S
C2595 O2607 1.281 . S
C2595 O2608 1.236 . S
C2596 O2618 1.240 . S
C2596 O2619 1.264 . S
O2597 Mn2592 2.095 . S
O2597 C2606 1.250 . S
O2598 Mn2593 2.121 . S
O2598 C2606 1.258 . S
C2599 N2600 1.326 . S
C2599 C2603 1.460 . S
C2599 H2605 0.929 . S
N2600 Mn2593 2.257 . S
N2600 C2599 1.326 . S
N2600 C2604 1.362 . S
C2601 C2602 1.258 . S
C2601 C2604 1.431 . S
C2601 C2621 1.449 1_554 S
C2602 C2601 1.258 . S
C2602 C2603 1.477 . S
C2602 H2622 0.931 1_554 S
C2603 C2599 1.460 . S
C2603 C2602 1.477 . S
C2603 H2623 0.930 . S
C2604 N2600 1.362 . S
C2604 C2601 1.431 . S
C2604 C2614 1.476 . S
H2605 C2599 0.929 . S
C2606 O2597 1.250 . S
C2606 O2598 1.258 . S
O2607 Mn2592 2.162 . S
O2607 C2595 1.281 . S
O2608 Mn2592 2.297 . S
O2608 C2595 1.236 . S
N2609 Mn2593 2.282 . S
N2609 C2610 1.328 . S
N2609 C2614 1.318 . S
C2610 N2609 1.328 . S
C2610 C2611 1.457 . S
C2610 H2615 0.929 . S
C2611 C2610 1.457 . S
C2611 C2612 1.291 . S
C2611 H2624 0.931 . S
C2612 C2611 1.291 . S
C2612 C2613 1.373 . S
C2612 H2625 0.929 1_554 S
C2613 C2612 1.373 . S
C2613 C2614 1.396 . S
C2613 C2620 1.403 1_554 S
C2614 C2604 1.476 . S
C2614 N2609 1.318 . S
C2614 C2613 1.396 . S
H2615 C2610 0.929 . S
O2616 Mn2592 2.385 . S
O2616 C2594 1.234 . S
O2617 Mn2592 2.209 . S
O2617 Mn2593 2.215 . S
O2617 C2594 1.283 . S
O2618 Mn2592 2.094 . S
O2618 C2596 1.240 . S
O2619 Mn2593 2.117 . S
O2619 C2596 1.264 . S
C2620 C2613 1.403 1_556 S
C2620 C2621 1.399 . S
C2620 H2626 0.929 . S
C2621 C2601 1.449 1_556 S
C2621 C2620 1.399 . S
C2621 H2627 0.930 . S
H2622 C2602 0.931 1_556 S
H2623 C2603 0.930 . S
H2624 C2611 0.931 . S
H2625 C2612 0.929 1_556 S
H2626 C2620 0.929 . S
H2627 C2621 0.930 . S
Mn2628 O2633 2.095 . S
Mn2628 O2643 2.162 . S
Mn2628 O2644 2.297 . S
Mn2628 O2652 2.385 . S
Mn2628 O2653 2.209 . S
Mn2628 O2654 2.094 . S
Mn2629 O2634 2.121 . S
Mn2629 N2636 2.257 . S
Mn2629 N2645 2.282 . S
Mn2629 O2653 2.215 . S
Mn2629 O2655 2.117 . S
C2630 O2652 1.234 . S
C2630 O2653 1.283 . S
C2631 O2643 1.281 . S
C2631 O2644 1.236 . S
C2632 O2654 1.240 . S
C2632 O2655 1.264 . S
O2633 Mn2628 2.095 . S
O2633 C2642 1.250 . S
O2634 Mn2629 2.121 . S
O2634 C2642 1.258 . S
C2635 N2636 1.326 . S
C2635 C2639 1.460 . S
C2635 H2641 0.929 . S
N2636 Mn2629 2.257 . S
N2636 C2635 1.326 . S
N2636 C2640 1.362 . S
C2637 C2638 1.258 . S
C2637 C2640 1.431 . S
C2637 C2657 1.449 1_554 S
C2638 C2637 1.258 . S
C2638 C2639 1.477 . S
C2638 H2658 0.931 1_554 S
C2639 C2635 1.460 . S
C2639 C2638 1.477 . S
C2639 H2659 0.930 . S
C2640 N2636 1.362 . S
C2640 C2637 1.431 . S
C2640 C2650 1.476 . S
H2641 C2635 0.929 . S
C2642 O2633 1.250 . S
C2642 O2634 1.258 . S
O2643 Mn2628 2.162 . S
O2643 C2631 1.281 . S
O2644 Mn2628 2.297 . S
O2644 C2631 1.236 . S
N2645 Mn2629 2.282 . S
N2645 C2646 1.328 . S
N2645 C2650 1.318 . S
C2646 N2645 1.328 . S
C2646 C2647 1.457 . S
C2646 H2651 0.929 . S
C2647 C2646 1.457 . S
C2647 C2648 1.291 . S
C2647 H2660 0.931 . S
C2648 C2647 1.291 . S
C2648 C2649 1.373 . S
C2648 H2661 0.929 1_554 S
C2649 C2648 1.373 . S
C2649 C2650 1.396 . S
C2649 C2656 1.403 1_554 S
C2650 C2640 1.476 . S
C2650 N2645 1.318 . S
C2650 C2649 1.396 . S
H2651 C2646 0.929 . S
O2652 Mn2628 2.385 . S
O2652 C2630 1.234 . S
O2653 Mn2628 2.209 . S
O2653 Mn2629 2.215 . S
O2653 C2630 1.283 . S
O2654 Mn2628 2.094 . S
O2654 C2632 1.240 . S
O2655 Mn2629 2.117 . S
O2655 C2632 1.264 . S
C2656 C2649 1.403 1_556 S
C2656 C2657 1.399 . S
C2656 H2662 0.929 . S
C2657 C2637 1.449 1_556 S
C2657 C2656 1.399 . S
C2657 H2663 0.930 . S
H2658 C2638 0.931 1_556 S
H2659 C2639 0.930 . S
H2660 C2647 0.931 . S
H2661 C2648 0.929 1_556 S
H2662 C2656 0.929 . S
H2663 C2657 0.930 . S
Mn2664 O2669 2.095 . S
Mn2664 O2679 2.162 . S
Mn2664 O2680 2.297 . S
Mn2664 O2688 2.385 . S
Mn2664 O2689 2.209 . S
Mn2664 O2690 2.094 . S
Mn2665 O2670 2.121 . S
Mn2665 N2672 2.257 . S
Mn2665 N2681 2.282 . S
Mn2665 O2689 2.215 . S
Mn2665 O2691 2.117 . S
C2666 O2688 1.234 . S
C2666 O2689 1.283 . S
C2667 O2679 1.281 . S
C2667 O2680 1.236 . S
C2668 O2690 1.240 . S
C2668 O2691 1.264 . S
O2669 Mn2664 2.095 . S
O2669 C2678 1.250 . S
O2670 Mn2665 2.121 . S
O2670 C2678 1.258 . S
C2671 N2672 1.326 . S
C2671 C2675 1.460 . S
C2671 H2677 0.929 . S
N2672 Mn2665 2.257 . S
N2672 C2671 1.326 . S
N2672 C2676 1.362 . S
C2673 C2674 1.258 . S
C2673 C2676 1.431 . S
C2673 C2693 1.449 1_554 S
C2674 C2673 1.258 . S
C2674 C2675 1.477 . S
C2674 H2694 0.931 1_554 S
C2675 C2671 1.460 . S
C2675 C2674 1.477 . S
C2675 H2695 0.930 . S
C2676 N2672 1.362 . S
C2676 C2673 1.431 . S
C2676 C2686 1.476 . S
H2677 C2671 0.929 . S
C2678 O2669 1.250 . S
C2678 O2670 1.258 . S
O2679 Mn2664 2.162 . S
O2679 C2667 1.281 . S
O2680 Mn2664 2.297 . S
O2680 C2667 1.236 . S
N2681 Mn2665 2.282 . S
N2681 C2682 1.328 . S
N2681 C2686 1.318 . S
C2682 N2681 1.328 . S
C2682 C2683 1.457 . S
C2682 H2687 0.929 . S
C2683 C2682 1.457 . S
C2683 C2684 1.291 . S
C2683 H2696 0.931 . S
C2684 C2683 1.291 . S
C2684 C2685 1.373 . S
C2684 H2697 0.929 1_554 S
C2685 C2684 1.373 . S
C2685 C2686 1.396 . S
C2685 C2692 1.403 1_554 S
C2686 C2676 1.476 . S
C2686 N2681 1.318 . S
C2686 C2685 1.396 . S
H2687 C2682 0.929 . S
O2688 Mn2664 2.385 . S
O2688 C2666 1.234 . S
O2689 Mn2664 2.209 . S
O2689 Mn2665 2.215 . S
O2689 C2666 1.283 . S
O2690 Mn2664 2.094 . S
O2690 C2668 1.240 . S
O2691 Mn2665 2.117 . S
O2691 C2668 1.264 . S
C2692 C2685 1.403 1_556 S
C2692 C2693 1.399 . S
C2692 H2698 0.929 . S
C2693 C2673 1.449 1_556 S
C2693 C2692 1.399 . S
C2693 H2699 0.930 . S
H2694 C2674 0.931 1_556 S
H2695 C2675 0.930 . S
H2696 C2683 0.931 . S
H2697 C2684 0.929 1_556 S
H2698 C2692 0.929 . S
H2699 C2693 0.930 . S
Mn2700 O2705 2.095 . S
Mn2700 O2715 2.162 . S
Mn2700 O2716 2.297 . S
Mn2700 O2724 2.385 . S
Mn2700 O2725 2.209 . S
Mn2700 O2726 2.094 . S
Mn2701 O2706 2.121 . S
Mn2701 N2708 2.257 . S
Mn2701 N2717 2.282 . S
Mn2701 O2725 2.215 . S
Mn2701 O2727 2.117 . S
C2702 O2724 1.234 . S
C2702 O2725 1.283 . S
C2703 O2715 1.281 . S
C2703 O2716 1.236 . S
C2704 O2726 1.240 . S
C2704 O2727 1.264 . S
O2705 Mn2700 2.095 . S
O2705 C2714 1.250 . S
O2706 Mn2701 2.121 . S
O2706 C2714 1.258 . S
C2707 N2708 1.326 . S
C2707 C2711 1.460 . S
C2707 H2713 0.929 . S
N2708 Mn2701 2.257 . S
N2708 C2707 1.326 . S
N2708 C2712 1.362 . S
C2709 C2710 1.258 . S
C2709 C2712 1.431 . S
C2709 C2729 1.449 1_554 S
C2710 C2709 1.258 . S
C2710 C2711 1.477 . S
C2710 H2730 0.931 1_554 S
C2711 C2707 1.460 . S
C2711 C2710 1.477 . S
C2711 H2731 0.930 . S
C2712 N2708 1.362 . S
C2712 C2709 1.431 . S
C2712 C2722 1.476 . S
H2713 C2707 0.929 . S
C2714 O2705 1.250 . S
C2714 O2706 1.258 . S
O2715 Mn2700 2.162 . S
O2715 C2703 1.281 . S
O2716 Mn2700 2.297 . S
O2716 C2703 1.236 . S
N2717 Mn2701 2.282 . S
N2717 C2718 1.328 . S
N2717 C2722 1.318 . S
C2718 N2717 1.328 . S
C2718 C2719 1.457 . S
C2718 H2723 0.929 . S
C2719 C2718 1.457 . S
C2719 C2720 1.291 . S
C2719 H2732 0.931 . S
C2720 C2719 1.291 . S
C2720 C2721 1.373 . S
C2720 H2733 0.929 1_554 S
C2721 C2720 1.373 . S
C2721 C2722 1.396 . S
C2721 C2728 1.403 1_554 S
C2722 C2712 1.476 . S
C2722 N2717 1.318 . S
C2722 C2721 1.396 . S
H2723 C2718 0.929 . S
O2724 Mn2700 2.385 . S
O2724 C2702 1.234 . S
O2725 Mn2700 2.209 . S
O2725 Mn2701 2.215 . S
O2725 C2702 1.283 . S
O2726 Mn2700 2.094 . S
O2726 C2704 1.240 . S
O2727 Mn2701 2.117 . S
O2727 C2704 1.264 . S
C2728 C2721 1.403 1_556 S
C2728 C2729 1.399 . S
C2728 H2734 0.929 . S
C2729 C2709 1.449 1_556 S
C2729 C2728 1.399 . S
C2729 H2735 0.930 . S
H2730 C2710 0.931 1_556 S
H2731 C2711 0.930 . S
H2732 C2719 0.931 . S
H2733 C2720 0.929 1_556 S
H2734 C2728 0.929 . S
H2735 C2729 0.930 . S
Mn2736 O2741 2.095 . S
Mn2736 O2751 2.162 . S
Mn2736 O2752 2.297 . S
Mn2736 O2760 2.385 . S
Mn2736 O2761 2.209 . S
Mn2736 O2762 2.094 . S
Mn2737 O2742 2.121 . S
Mn2737 N2744 2.257 . S
Mn2737 N2753 2.282 . S
Mn2737 O2761 2.215 . S
Mn2737 O2763 2.117 . S
C2738 O2760 1.234 . S
C2738 O2761 1.283 . S
C2739 O2751 1.281 . S
C2739 O2752 1.236 . S
C2740 O2762 1.240 . S
C2740 O2763 1.264 . S
O2741 Mn2736 2.095 . S
O2741 C2750 1.250 . S
O2742 Mn2737 2.121 . S
O2742 C2750 1.258 . S
C2743 N2744 1.326 . S
C2743 C2747 1.460 . S
C2743 H2749 0.929 . S
N2744 Mn2737 2.257 . S
N2744 C2743 1.326 . S
N2744 C2748 1.362 . S
C2745 C2746 1.258 . S
C2745 C2748 1.431 . S
C2745 C2765 1.449 1_556 S
C2746 C2745 1.258 . S
C2746 C2747 1.477 . S
C2746 H2766 0.931 1_556 S
C2747 C2743 1.460 . S
C2747 C2746 1.477 . S
C2747 H2767 0.930 . S
C2748 N2744 1.362 . S
C2748 C2745 1.431 . S
C2748 C2758 1.476 . S
H2749 C2743 0.929 . S
C2750 O2741 1.250 . S
C2750 O2742 1.258 . S
O2751 Mn2736 2.162 . S
O2751 C2739 1.281 . S
O2752 Mn2736 2.297 . S
O2752 C2739 1.236 . S
N2753 Mn2737 2.282 . S
N2753 C2754 1.328 . S
N2753 C2758 1.318 . S
C2754 N2753 1.328 . S
C2754 C2755 1.457 . S
C2754 H2759 0.929 . S
C2755 C2754 1.457 . S
C2755 C2756 1.291 . S
C2755 H2768 0.931 . S
C2756 C2755 1.291 . S
C2756 C2757 1.373 . S
C2756 H2769 0.929 1_556 S
C2757 C2756 1.373 . S
C2757 C2758 1.396 . S
C2757 C2764 1.403 1_556 S
C2758 C2748 1.476 . S
C2758 N2753 1.318 . S
C2758 C2757 1.396 . S
H2759 C2754 0.929 . S
O2760 Mn2736 2.385 . S
O2760 C2738 1.234 . S
O2761 Mn2736 2.209 . S
O2761 Mn2737 2.215 . S
O2761 C2738 1.283 . S
O2762 Mn2736 2.094 . S
O2762 C2740 1.240 . S
O2763 Mn2737 2.117 . S
O2763 C2740 1.264 . S
C2764 C2757 1.403 1_554 S
C2764 C2765 1.399 . S
C2764 H2770 0.929 . S
C2765 C2745 1.449 1_554 S
C2765 C2764 1.399 . S
C2765 H2771 0.930 . S
H2766 C2746 0.931 1_554 S
H2767 C2747 0.930 . S
H2768 C2755 0.931 . S
H2769 C2756 0.929 1_554 S
H2770 C2764 0.929 . S
H2771 C2765 0.930 . S
Mn2772 O2777 2.095 . S
Mn2772 O2787 2.162 . S
Mn2772 O2788 2.297 . S
Mn2772 O2796 2.385 . S
Mn2772 O2797 2.209 . S
Mn2772 O2798 2.094 . S
Mn2773 O2778 2.121 . S
Mn2773 N2780 2.257 . S
Mn2773 N2789 2.282 . S
Mn2773 O2797 2.215 . S
Mn2773 O2799 2.117 . S
C2774 O2796 1.234 . S
C2774 O2797 1.283 . S
C2775 O2787 1.281 . S
C2775 O2788 1.236 . S
C2776 O2798 1.240 . S
C2776 O2799 1.264 . S
O2777 Mn2772 2.095 . S
O2777 C2786 1.250 . S
O2778 Mn2773 2.121 . S
O2778 C2786 1.258 . S
C2779 N2780 1.326 . S
C2779 C2783 1.460 . S
C2779 H2785 0.929 . S
N2780 Mn2773 2.257 . S
N2780 C2779 1.326 . S
N2780 C2784 1.362 . S
C2781 C2782 1.258 . S
C2781 C2784 1.431 . S
C2781 C2801 1.449 1_556 S
C2782 C2781 1.258 . S
C2782 C2783 1.477 . S
C2782 H2802 0.931 1_556 S
C2783 C2779 1.460 . S
C2783 C2782 1.477 . S
C2783 H2803 0.930 . S
C2784 N2780 1.362 . S
C2784 C2781 1.431 . S
C2784 C2794 1.476 . S
H2785 C2779 0.929 . S
C2786 O2777 1.250 . S
C2786 O2778 1.258 . S
O2787 Mn2772 2.162 . S
O2787 C2775 1.281 . S
O2788 Mn2772 2.297 . S
O2788 C2775 1.236 . S
N2789 Mn2773 2.282 . S
N2789 C2790 1.328 . S
N2789 C2794 1.318 . S
C2790 N2789 1.328 . S
C2790 C2791 1.457 . S
C2790 H2795 0.929 . S
C2791 C2790 1.457 . S
C2791 C2792 1.291 . S
C2791 H2804 0.931 . S
C2792 C2791 1.291 . S
C2792 C2793 1.373 . S
C2792 H2805 0.929 1_556 S
C2793 C2792 1.373 . S
C2793 C2794 1.396 . S
C2793 C2800 1.403 1_556 S
C2794 C2784 1.476 . S
C2794 N2789 1.318 . S
C2794 C2793 1.396 . S
H2795 C2790 0.929 . S
O2796 Mn2772 2.385 . S
O2796 C2774 1.234 . S
O2797 Mn2772 2.209 . S
O2797 Mn2773 2.215 . S
O2797 C2774 1.283 . S
O2798 Mn2772 2.094 . S
O2798 C2776 1.240 . S
O2799 Mn2773 2.117 . S
O2799 C2776 1.264 . S
C2800 C2793 1.403 1_554 S
C2800 C2801 1.399 . S
C2800 H2806 0.929 . S
C2801 C2781 1.449 1_554 S
C2801 C2800 1.399 . S
C2801 H2807 0.930 . S
H2802 C2782 0.931 1_554 S
H2803 C2783 0.930 . S
H2804 C2791 0.931 . S
H2805 C2792 0.929 1_554 S
H2806 C2800 0.929 . S
H2807 C2801 0.930 . S
Mn2808 O2813 2.095 . S
Mn2808 O2823 2.162 . S
Mn2808 O2824 2.297 . S
Mn2808 O2832 2.385 . S
Mn2808 O2833 2.209 . S
Mn2808 O2834 2.094 . S
Mn2809 O2814 2.121 . S
Mn2809 N2816 2.257 . S
Mn2809 N2825 2.282 . S
Mn2809 O2833 2.215 . S
Mn2809 O2835 2.117 . S
C2810 O2832 1.234 . S
C2810 O2833 1.283 . S
C2811 O2823 1.281 . S
C2811 O2824 1.236 . S
C2812 O2834 1.240 . S
C2812 O2835 1.264 . S
O2813 Mn2808 2.095 . S
O2813 C2822 1.250 . S
O2814 Mn2809 2.121 . S
O2814 C2822 1.258 . S
C2815 N2816 1.326 . S
C2815 C2819 1.460 . S
C2815 H2821 0.929 . S
N2816 Mn2809 2.257 . S
N2816 C2815 1.326 . S
N2816 C2820 1.362 . S
C2817 C2818 1.258 . S
C2817 C2820 1.431 . S
C2817 C2837 1.449 1_556 S
C2818 C2817 1.258 . S
C2818 C2819 1.477 . S
C2818 H2838 0.931 1_556 S
C2819 C2815 1.460 . S
C2819 C2818 1.477 . S
C2819 H2839 0.930 . S
C2820 N2816 1.362 . S
C2820 C2817 1.431 . S
C2820 C2830 1.476 . S
H2821 C2815 0.929 . S
C2822 O2813 1.250 . S
C2822 O2814 1.258 . S
O2823 Mn2808 2.162 . S
O2823 C2811 1.281 . S
O2824 Mn2808 2.297 . S
O2824 C2811 1.236 . S
N2825 Mn2809 2.282 . S
N2825 C2826 1.328 . S
N2825 C2830 1.318 . S
C2826 N2825 1.328 . S
C2826 C2827 1.457 . S
C2826 H2831 0.929 . S
C2827 C2826 1.457 . S
C2827 C2828 1.291 . S
C2827 H2840 0.931 . S
C2828 C2827 1.291 . S
C2828 C2829 1.373 . S
C2828 H2841 0.929 1_556 S
C2829 C2828 1.373 . S
C2829 C2830 1.396 . S
C2829 C2836 1.403 1_556 S
C2830 C2820 1.476 . S
C2830 N2825 1.318 . S
C2830 C2829 1.396 . S
H2831 C2826 0.929 . S
O2832 Mn2808 2.385 . S
O2832 C2810 1.234 . S
O2833 Mn2808 2.209 . S
O2833 Mn2809 2.215 . S
O2833 C2810 1.283 . S
O2834 Mn2808 2.094 . S
O2834 C2812 1.240 . S
O2835 Mn2809 2.117 . S
O2835 C2812 1.264 . S
C2836 C2829 1.403 1_554 S
C2836 C2837 1.399 . S
C2836 H2842 0.929 . S
C2837 C2817 1.449 1_554 S
C2837 C2836 1.399 . S
C2837 H2843 0.930 . S
H2838 C2818 0.931 1_554 S
H2839 C2819 0.930 . S
H2840 C2827 0.931 . S
H2841 C2828 0.929 1_554 S
H2842 C2836 0.929 . S
H2843 C2837 0.930 . S
Mn2844 O2849 2.095 . S
Mn2844 O2859 2.162 . S
Mn2844 O2860 2.297 . S
Mn2844 O2868 2.385 . S
Mn2844 O2869 2.209 . S
Mn2844 O2870 2.094 . S
Mn2845 O2850 2.121 . S
Mn2845 N2852 2.257 . S
Mn2845 N2861 2.282 . S
Mn2845 O2869 2.215 . S
Mn2845 O2871 2.117 . S
C2846 O2868 1.234 . S
C2846 O2869 1.283 . S
C2847 O2859 1.281 . S
C2847 O2860 1.236 . S
C2848 O2870 1.240 . S
C2848 O2871 1.264 . S
O2849 Mn2844 2.095 . S
O2849 C2858 1.250 . S
O2850 Mn2845 2.121 . S
O2850 C2858 1.258 . S
C2851 N2852 1.326 . S
C2851 C2855 1.460 . S
C2851 H2857 0.929 . S
N2852 Mn2845 2.257 . S
N2852 C2851 1.326 . S
N2852 C2856 1.362 . S
C2853 C2854 1.258 . S
C2853 C2856 1.431 . S
C2853 C2873 1.449 1_556 S
C2854 C2853 1.258 . S
C2854 C2855 1.477 . S
C2854 H2874 0.931 1_556 S
C2855 C2851 1.460 . S
C2855 C2854 1.477 . S
C2855 H2875 0.930 . S
C2856 N2852 1.362 . S
C2856 C2853 1.431 . S
C2856 C2866 1.476 . S
H2857 C2851 0.929 . S
C2858 O2849 1.250 . S
C2858 O2850 1.258 . S
O2859 Mn2844 2.162 . S
O2859 C2847 1.281 . S
O2860 Mn2844 2.297 . S
O2860 C2847 1.236 . S
N2861 Mn2845 2.282 . S
N2861 C2862 1.328 . S
N2861 C2866 1.318 . S
C2862 N2861 1.328 . S
C2862 C2863 1.457 . S
C2862 H2867 0.929 . S
C2863 C2862 1.457 . S
C2863 C2864 1.291 . S
C2863 H2876 0.931 . S
C2864 C2863 1.291 . S
C2864 C2865 1.373 . S
C2864 H2877 0.929 1_556 S
C2865 C2864 1.373 . S
C2865 C2866 1.396 . S
C2865 C2872 1.403 1_556 S
C2866 C2856 1.476 . S
C2866 N2861 1.318 . S
C2866 C2865 1.396 . S
H2867 C2862 0.929 . S
O2868 Mn2844 2.385 . S
O2868 C2846 1.234 . S
O2869 Mn2844 2.209 . S
O2869 Mn2845 2.215 . S
O2869 C2846 1.283 . S
O2870 Mn2844 2.094 . S
O2870 C2848 1.240 . S
O2871 Mn2845 2.117 . S
O2871 C2848 1.264 . S
C2872 C2865 1.403 1_554 S
C2872 C2873 1.399 . S
C2872 H2878 0.929 . S
C2873 C2853 1.449 1_554 S
C2873 C2872 1.399 . S
C2873 H2879 0.930 . S
H2874 C2854 0.931 1_554 S
H2875 C2855 0.930 . S
H2876 C2863 0.931 . S
H2877 C2864 0.929 1_554 S
H2878 C2872 0.929 . S
H2879 C2873 0.930 . S
Mn2880 O2885 2.095 . S
Mn2880 O2895 2.162 . S
Mn2880 O2896 2.297 . S
Mn2880 O2904 2.385 . S
Mn2880 O2905 2.209 . S
Mn2880 O2906 2.094 . S
Mn2881 O2886 2.121 . S
Mn2881 N2888 2.257 . S
Mn2881 N2897 2.282 . S
Mn2881 O2905 2.215 . S
Mn2881 O2907 2.117 . S
C2882 O2904 1.234 . S
C2882 O2905 1.283 . S
C2883 O2895 1.281 . S
C2883 O2896 1.236 . S
C2884 O2906 1.240 . S
C2884 O2907 1.264 . S
O2885 Mn2880 2.095 . S
O2885 C2894 1.250 . S
O2886 Mn2881 2.121 . S
O2886 C2894 1.258 . S
C2887 N2888 1.326 . S
C2887 C2891 1.460 . S
C2887 H2893 0.929 . S
N2888 Mn2881 2.257 . S
N2888 C2887 1.326 . S
N2888 C2892 1.362 . S
C2889 C2890 1.258 . S
C2889 C2892 1.431 . S
C2889 C2909 1.449 1_455 S
C2890 C2889 1.258 . S
C2890 C2891 1.477 . S
C2890 H2910 0.931 1_455 S
C2891 C2887 1.460 . S
C2891 C2890 1.477 . S
C2891 H2911 0.930 . S
C2892 N2888 1.362 . S
C2892 C2889 1.431 . S
C2892 C2902 1.476 . S
H2893 C2887 0.929 . S
C2894 O2885 1.250 . S
C2894 O2886 1.258 . S
O2895 Mn2880 2.162 . S
O2895 C2883 1.281 . S
O2896 Mn2880 2.297 . S
O2896 C2883 1.236 . S
N2897 Mn2881 2.282 . S
N2897 C2898 1.328 . S
N2897 C2902 1.318 . S
C2898 N2897 1.328 . S
C2898 C2899 1.457 . S
C2898 H2903 0.929 . S
C2899 C2898 1.457 . S
C2899 C2900 1.291 . S
C2899 H2912 0.931 . S
C2900 C2899 1.291 . S
C2900 C2901 1.373 . S
C2900 H2913 0.929 1_455 S
C2901 C2900 1.373 . S
C2901 C2902 1.396 . S
C2901 C2908 1.403 1_455 S
C2902 C2892 1.476 . S
C2902 N2897 1.318 . S
C2902 C2901 1.396 . S
H2903 C2898 0.929 . S
O2904 Mn2880 2.385 . S
O2904 C2882 1.234 . S
O2905 Mn2880 2.209 . S
O2905 Mn2881 2.215 . S
O2905 C2882 1.283 . S
O2906 Mn2880 2.094 . S
O2906 C2884 1.240 . S
O2907 Mn2881 2.117 . S
O2907 C2884 1.264 . S
C2908 C2901 1.403 1_655 S
C2908 C2909 1.399 . S
C2908 H2914 0.929 . S
C2909 C2889 1.449 1_655 S
C2909 C2908 1.399 . S
C2909 H2915 0.930 . S
H2910 C2890 0.931 1_655 S
H2911 C2891 0.930 . S
H2912 C2899 0.931 . S
H2913 C2900 0.929 1_655 S
H2914 C2908 0.929 . S
H2915 C2909 0.930 . S
Mn2916 O2921 2.095 . S
Mn2916 O2931 2.162 . S
Mn2916 O2932 2.297 . S
Mn2916 O2940 2.385 . S
Mn2916 O2941 2.209 . S
Mn2916 O2942 2.094 . S
Mn2917 O2922 2.121 . S
Mn2917 N2924 2.257 . S
Mn2917 N2933 2.282 . S
Mn2917 O2941 2.215 . S
Mn2917 O2943 2.117 . S
C2918 O2940 1.234 . S
C2918 O2941 1.283 . S
C2919 O2931 1.281 . S
C2919 O2932 1.236 . S
C2920 O2942 1.240 . S
C2920 O2943 1.264 . S
O2921 Mn2916 2.095 . S
O2921 C2930 1.250 . S
O2922 Mn2917 2.121 . S
O2922 C2930 1.258 . S
C2923 N2924 1.326 . S
C2923 C2927 1.460 . S
C2923 H2929 0.929 . S
N2924 Mn2917 2.257 . S
N2924 C2923 1.326 . S
N2924 C2928 1.362 . S
C2925 C2926 1.258 . S
C2925 C2928 1.431 . S
C2925 C2945 1.449 1_545 S
C2926 C2925 1.258 . S
C2926 C2927 1.477 . S
C2926 H2946 0.931 1_545 S
C2927 C2923 1.460 . S
C2927 C2926 1.477 . S
C2927 H2947 0.930 . S
C2928 N2924 1.362 . S
C2928 C2925 1.431 . S
C2928 C2938 1.476 . S
H2929 C2923 0.929 . S
C2930 O2921 1.250 . S
C2930 O2922 1.258 . S
O2931 Mn2916 2.162 . S
O2931 C2919 1.281 . S
O2932 Mn2916 2.297 . S
O2932 C2919 1.236 . S
N2933 Mn2917 2.282 . S
N2933 C2934 1.328 . S
N2933 C2938 1.318 . S
C2934 N2933 1.328 . S
C2934 C2935 1.457 . S
C2934 H2939 0.929 . S
C2935 C2934 1.457 . S
C2935 C2936 1.291 . S
C2935 H2948 0.931 . S
C2936 C2935 1.291 . S
C2936 C2937 1.373 . S
C2936 H2949 0.929 1_545 S
C2937 C2936 1.373 . S
C2937 C2938 1.396 . S
C2937 C2944 1.403 1_545 S
C2938 C2928 1.476 . S
C2938 N2933 1.318 . S
C2938 C2937 1.396 . S
H2939 C2934 0.929 . S
O2940 Mn2916 2.385 . S
O2940 C2918 1.234 . S
O2941 Mn2916 2.209 . S
O2941 Mn2917 2.215 . S
O2941 C2918 1.283 . S
O2942 Mn2916 2.094 . S
O2942 C2920 1.240 . S
O2943 Mn2917 2.117 . S
O2943 C2920 1.264 . S
C2944 C2937 1.403 1_565 S
C2944 C2945 1.399 . S
C2944 H2950 0.929 . S
C2945 C2925 1.449 1_565 S
C2945 C2944 1.399 . S
C2945 H2951 0.930 . S
H2946 C2926 0.931 1_565 S
H2947 C2927 0.930 . S
H2948 C2935 0.931 . S
H2949 C2936 0.929 1_565 S
H2950 C2944 0.929 . S
H2951 C2945 0.930 . S
Mn2952 O2957 2.095 . S
Mn2952 O2967 2.162 . S
Mn2952 O2968 2.297 . S
Mn2952 O2976 2.385 . S
Mn2952 O2977 2.209 . S
Mn2952 O2978 2.094 . S
Mn2953 O2958 2.121 . S
Mn2953 N2960 2.257 . S
Mn2953 N2969 2.282 . S
Mn2953 O2977 2.215 . S
Mn2953 O2979 2.117 . S
C2954 O2976 1.234 . S
C2954 O2977 1.283 . S
C2955 O2967 1.281 . S
C2955 O2968 1.236 . S
C2956 O2978 1.240 . S
C2956 O2979 1.264 . S
O2957 Mn2952 2.095 . S
O2957 C2966 1.250 . S
O2958 Mn2953 2.121 . S
O2958 C2966 1.258 . S
C2959 N2960 1.326 . S
C2959 C2963 1.460 . S
C2959 H2965 0.929 . S
N2960 Mn2953 2.257 . S
N2960 C2959 1.326 . S
N2960 C2964 1.362 . S
C2961 C2962 1.258 . S
C2961 C2964 1.431 . S
C2961 C2981 1.449 1_655 S
C2962 C2961 1.258 . S
C2962 C2963 1.477 . S
C2962 H2982 0.931 1_655 S
C2963 C2959 1.460 . S
C2963 C2962 1.477 . S
C2963 H2983 0.930 . S
C2964 N2960 1.362 . S
C2964 C2961 1.431 . S
C2964 C2974 1.476 . S
H2965 C2959 0.929 . S
C2966 O2957 1.250 . S
C2966 O2958 1.258 . S
O2967 Mn2952 2.162 . S
O2967 C2955 1.281 . S
O2968 Mn2952 2.297 . S
O2968 C2955 1.236 . S
N2969 Mn2953 2.282 . S
N2969 C2970 1.328 . S
N2969 C2974 1.318 . S
C2970 N2969 1.328 . S
C2970 C2971 1.457 . S
C2970 H2975 0.929 . S
C2971 C2970 1.457 . S
C2971 C2972 1.291 . S
C2971 H2984 0.931 . S
C2972 C2971 1.291 . S
C2972 C2973 1.373 . S
C2972 H2985 0.929 1_655 S
C2973 C2972 1.373 . S
C2973 C2974 1.396 . S
C2973 C2980 1.403 1_655 S
C2974 C2964 1.476 . S
C2974 N2969 1.318 . S
C2974 C2973 1.396 . S
H2975 C2970 0.929 . S
O2976 Mn2952 2.385 . S
O2976 C2954 1.234 . S
O2977 Mn2952 2.209 . S
O2977 Mn2953 2.215 . S
O2977 C2954 1.283 . S
O2978 Mn2952 2.094 . S
O2978 C2956 1.240 . S
O2979 Mn2953 2.117 . S
O2979 C2956 1.264 . S
C2980 C2973 1.403 1_455 S
C2980 C2981 1.399 . S
C2980 H2986 0.929 . S
C2981 C2961 1.449 1_455 S
C2981 C2980 1.399 . S
C2981 H2987 0.930 . S
H2982 C2962 0.931 1_455 S
H2983 C2963 0.930 . S
H2984 C2971 0.931 . S
H2985 C2972 0.929 1_455 S
H2986 C2980 0.929 . S
H2987 C2981 0.930 . S
Mn2988 O2993 2.095 . S
Mn2988 O3003 2.162 . S
Mn2988 O3004 2.297 . S
Mn2988 O3012 2.385 . S
Mn2988 O3013 2.209 . S
Mn2988 O3014 2.094 . S
Mn2989 O2994 2.121 . S
Mn2989 N2996 2.257 . S
Mn2989 N3005 2.282 . S
Mn2989 O3013 2.215 . S
Mn2989 O3015 2.117 . S
C2990 O3012 1.234 . S
C2990 O3013 1.283 . S
C2991 O3003 1.281 . S
C2991 O3004 1.236 . S
C2992 O3014 1.240 . S
C2992 O3015 1.264 . S
O2993 Mn2988 2.095 . S
O2993 C3002 1.250 . S
O2994 Mn2989 2.121 . S
O2994 C3002 1.258 . S
C2995 N2996 1.326 . S
C2995 C2999 1.460 . S
C2995 H3001 0.929 . S
N2996 Mn2989 2.257 . S
N2996 C2995 1.326 . S
N2996 C3000 1.362 . S
C2997 C2998 1.258 . S
C2997 C3000 1.431 . S
C2997 C3017 1.449 1_565 S
C2998 C2997 1.258 . S
C2998 C2999 1.477 . S
C2998 H3018 0.931 1_565 S
C2999 C2995 1.460 . S
C2999 C2998 1.477 . S
C2999 H3019 0.930 . S
C3000 N2996 1.362 . S
C3000 C2997 1.431 . S
C3000 C3010 1.476 . S
H3001 C2995 0.929 . S
C3002 O2993 1.250 . S
C3002 O2994 1.258 . S
O3003 Mn2988 2.162 . S
O3003 C2991 1.281 . S
O3004 Mn2988 2.297 . S
O3004 C2991 1.236 . S
N3005 Mn2989 2.282 . S
N3005 C3006 1.328 . S
N3005 C3010 1.318 . S
C3006 N3005 1.328 . S
C3006 C3007 1.457 . S
C3006 H3011 0.929 . S
C3007 C3006 1.457 . S
C3007 C3008 1.291 . S
C3007 H3020 0.931 . S
C3008 C3007 1.291 . S
C3008 C3009 1.373 . S
C3008 H3021 0.929 1_565 S
C3009 C3008 1.373 . S
C3009 C3010 1.396 . S
C3009 C3016 1.403 1_565 S
C3010 C3000 1.476 . S
C3010 N3005 1.318 . S
C3010 C3009 1.396 . S
H3011 C3006 0.929 . S
O3012 Mn2988 2.385 . S
O3012 C2990 1.234 . S
O3013 Mn2988 2.209 . S
O3013 Mn2989 2.215 . S
O3013 C2990 1.283 . S
O3014 Mn2988 2.094 . S
O3014 C2992 1.240 . S
O3015 Mn2989 2.117 . S
O3015 C2992 1.264 . S
C3016 C3009 1.403 1_545 S
C3016 C3017 1.399 . S
C3016 H3022 0.929 . S
C3017 C2997 1.449 1_545 S
C3017 C3016 1.399 . S
C3017 H3023 0.930 . S
H3018 C2998 0.931 1_545 S
H3019 C2999 0.930 . S
H3020 C3007 0.931 . S
H3021 C3008 0.929 1_545 S
H3022 C3016 0.929 . S
H3023 C3017 0.930 . S
Mn3024 O3029 2.095 . S
Mn3024 O3039 2.162 . S
Mn3024 O3040 2.297 . S
Mn3024 O3048 2.385 . S
Mn3024 O3049 2.209 . S
Mn3024 O3050 2.094 . S
Mn3025 O3030 2.121 . S
Mn3025 N3032 2.257 . S
Mn3025 N3041 2.282 . S
Mn3025 O3049 2.215 . S
Mn3025 O3051 2.117 . S
C3026 O3048 1.234 . S
C3026 O3049 1.283 . S
C3027 O3039 1.281 . S
C3027 O3040 1.236 . S
C3028 O3050 1.240 . S
C3028 O3051 1.264 . S
O3029 Mn3024 2.095 . S
O3029 C3038 1.250 . S
O3030 Mn3025 2.121 . S
O3030 C3038 1.258 . S
C3031 N3032 1.326 . S
C3031 C3035 1.460 . S
C3031 H3037 0.929 . S
N3032 Mn3025 2.257 . S
N3032 C3031 1.326 . S
N3032 C3036 1.362 . S
C3033 C3034 1.258 . S
C3033 C3036 1.431 . S
C3033 C3053 1.449 1_455 S
C3034 C3033 1.258 . S
C3034 C3035 1.477 . S
C3034 H3054 0.931 1_455 S
C3035 C3031 1.460 . S
C3035 C3034 1.477 . S
C3035 H3055 0.930 . S
C3036 N3032 1.362 . S
C3036 C3033 1.431 . S
C3036 C3046 1.476 . S
H3037 C3031 0.929 . S
C3038 O3029 1.250 . S
C3038 O3030 1.258 . S
O3039 Mn3024 2.162 . S
O3039 C3027 1.281 . S
O3040 Mn3024 2.297 . S
O3040 C3027 1.236 . S
N3041 Mn3025 2.282 . S
N3041 C3042 1.328 . S
N3041 C3046 1.318 . S
C3042 N3041 1.328 . S
C3042 C3043 1.457 . S
C3042 H3047 0.929 . S
C3043 C3042 1.457 . S
C3043 C3044 1.291 . S
C3043 H3056 0.931 . S
C3044 C3043 1.291 . S
C3044 C3045 1.373 . S
C3044 H3057 0.929 1_455 S
C3045 C3044 1.373 . S
C3045 C3046 1.396 . S
C3045 C3052 1.403 1_455 S
C3046 C3036 1.476 . S
C3046 N3041 1.318 . S
C3046 C3045 1.396 . S
H3047 C3042 0.929 . S
O3048 Mn3024 2.385 . S
O3048 C3026 1.234 . S
O3049 Mn3024 2.209 . S
O3049 Mn3025 2.215 . S
O3049 C3026 1.283 . S
O3050 Mn3024 2.094 . S
O3050 C3028 1.240 . S
O3051 Mn3025 2.117 . S
O3051 C3028 1.264 . S
C3052 C3045 1.403 1_655 S
C3052 C3053 1.399 . S
C3052 H3058 0.929 . S
C3053 C3033 1.449 1_655 S
C3053 C3052 1.399 . S
C3053 H3059 0.930 . S
H3054 C3034 0.931 1_655 S
H3055 C3035 0.930 . S
H3056 C3043 0.931 . S
H3057 C3044 0.929 1_655 S
H3058 C3052 0.929 . S
H3059 C3053 0.930 . S
Mn3060 O3065 2.095 . S
Mn3060 O3075 2.162 . S
Mn3060 O3076 2.297 . S
Mn3060 O3084 2.385 . S
Mn3060 O3085 2.209 . S
Mn3060 O3086 2.094 . S
Mn3061 O3066 2.121 . S
Mn3061 N3068 2.257 . S
Mn3061 N3077 2.282 . S
Mn3061 O3085 2.215 . S
Mn3061 O3087 2.117 . S
C3062 O3084 1.234 . S
C3062 O3085 1.283 . S
C3063 O3075 1.281 . S
C3063 O3076 1.236 . S
C3064 O3086 1.240 . S
C3064 O3087 1.264 . S
O3065 Mn3060 2.095 . S
O3065 C3074 1.250 . S
O3066 Mn3061 2.121 . S
O3066 C3074 1.258 . S
C3067 N3068 1.326 . S
C3067 C3071 1.460 . S
C3067 H3073 0.929 . S
N3068 Mn3061 2.257 . S
N3068 C3067 1.326 . S
N3068 C3072 1.362 . S
C3069 C3070 1.258 . S
C3069 C3072 1.431 . S
C3069 C3089 1.449 1_545 S
C3070 C3069 1.258 . S
C3070 C3071 1.477 . S
C3070 H3090 0.931 1_545 S
C3071 C3067 1.460 . S
C3071 C3070 1.477 . S
C3071 H3091 0.930 . S
C3072 N3068 1.362 . S
C3072 C3069 1.431 . S
C3072 C3082 1.476 . S
H3073 C3067 0.929 . S
C3074 O3065 1.250 . S
C3074 O3066 1.258 . S
O3075 Mn3060 2.162 . S
O3075 C3063 1.281 . S
O3076 Mn3060 2.297 . S
O3076 C3063 1.236 . S
N3077 Mn3061 2.282 . S
N3077 C3078 1.328 . S
N3077 C3082 1.318 . S
C3078 N3077 1.328 . S
C3078 C3079 1.457 . S
C3078 H3083 0.929 . S
C3079 C3078 1.457 . S
C3079 C3080 1.291 . S
C3079 H3092 0.931 . S
C3080 C3079 1.291 . S
C3080 C3081 1.373 . S
C3080 H3093 0.929 1_545 S
C3081 C3080 1.373 . S
C3081 C3082 1.396 . S
C3081 C3088 1.403 1_545 S
C3082 C3072 1.476 . S
C3082 N3077 1.318 . S
C3082 C3081 1.396 . S
H3083 C3078 0.929 . S
O3084 Mn3060 2.385 . S
O3084 C3062 1.234 . S
O3085 Mn3060 2.209 . S
O3085 Mn3061 2.215 . S
O3085 C3062 1.283 . S
O3086 Mn3060 2.094 . S
O3086 C3064 1.240 . S
O3087 Mn3061 2.117 . S
O3087 C3064 1.264 . S
C3088 C3081 1.403 1_565 S
C3088 C3089 1.399 . S
C3088 H3094 0.929 . S
C3089 C3069 1.449 1_565 S
C3089 C3088 1.399 . S
C3089 H3095 0.930 . S
H3090 C3070 0.931 1_565 S
H3091 C3071 0.930 . S
H3092 C3079 0.931 . S
H3093 C3080 0.929 1_565 S
H3094 C3088 0.929 . S
H3095 C3089 0.930 . S
Mn3096 O3101 2.095 . S
Mn3096 O3111 2.162 . S
Mn3096 O3112 2.297 . S
Mn3096 O3120 2.385 . S
Mn3096 O3121 2.209 . S
Mn3096 O3122 2.094 . S
Mn3097 O3102 2.121 . S
Mn3097 N3104 2.257 . S
Mn3097 N3113 2.282 . S
Mn3097 O3121 2.215 . S
Mn3097 O3123 2.117 . S
C3098 O3120 1.234 . S
C3098 O3121 1.283 . S
C3099 O3111 1.281 . S
C3099 O3112 1.236 . S
C3100 O3122 1.240 . S
C3100 O3123 1.264 . S
O3101 Mn3096 2.095 . S
O3101 C3110 1.250 . S
O3102 Mn3097 2.121 . S
O3102 C3110 1.258 . S
C3103 N3104 1.326 . S
C3103 C3107 1.460 . S
C3103 H3109 0.929 . S
N3104 Mn3097 2.257 . S
N3104 C3103 1.326 . S
N3104 C3108 1.362 . S
C3105 C3106 1.258 . S
C3105 C3108 1.431 . S
C3105 C3125 1.449 1_655 S
C3106 C3105 1.258 . S
C3106 C3107 1.477 . S
C3106 H3126 0.931 1_655 S
C3107 C3103 1.460 . S
C3107 C3106 1.477 . S
C3107 H3127 0.930 . S
C3108 N3104 1.362 . S
C3108 C3105 1.431 . S
C3108 C3118 1.476 . S
H3109 C3103 0.929 . S
C3110 O3101 1.250 . S
C3110 O3102 1.258 . S
O3111 Mn3096 2.162 . S
O3111 C3099 1.281 . S
O3112 Mn3096 2.297 . S
O3112 C3099 1.236 . S
N3113 Mn3097 2.282 . S
N3113 C3114 1.328 . S
N3113 C3118 1.318 . S
C3114 N3113 1.328 . S
C3114 C3115 1.457 . S
C3114 H3119 0.929 . S
C3115 C3114 1.457 . S
C3115 C3116 1.291 . S
C3115 H3128 0.931 . S
C3116 C3115 1.291 . S
C3116 C3117 1.373 . S
C3116 H3129 0.929 1_655 S
C3117 C3116 1.373 . S
C3117 C3118 1.396 . S
C3117 C3124 1.403 1_655 S
C3118 C3108 1.476 . S
C3118 N3113 1.318 . S
C3118 C3117 1.396 . S
H3119 C3114 0.929 . S
O3120 Mn3096 2.385 . S
O3120 C3098 1.234 . S
O3121 Mn3096 2.209 . S
O3121 Mn3097 2.215 . S
O3121 C3098 1.283 . S
O3122 Mn3096 2.094 . S
O3122 C3100 1.240 . S
O3123 Mn3097 2.117 . S
O3123 C3100 1.264 . S
C3124 C3117 1.403 1_455 S
C3124 C3125 1.399 . S
C3124 H3130 0.929 . S
C3125 C3105 1.449 1_455 S
C3125 C3124 1.399 . S
C3125 H3131 0.930 . S
H3126 C3106 0.931 1_455 S
H3127 C3107 0.930 . S
H3128 C3115 0.931 . S
H3129 C3116 0.929 1_455 S
H3130 C3124 0.929 . S
H3131 C3125 0.930 . S
Mn3132 O3137 2.095 . S
Mn3132 O3147 2.162 . S
Mn3132 O3148 2.297 . S
Mn3132 O3156 2.385 . S
Mn3132 O3157 2.209 . S
Mn3132 O3158 2.094 . S
Mn3133 O3138 2.121 . S
Mn3133 N3140 2.257 . S
Mn3133 N3149 2.282 . S
Mn3133 O3157 2.215 . S
Mn3133 O3159 2.117 . S
C3134 O3156 1.234 . S
C3134 O3157 1.283 . S
C3135 O3147 1.281 . S
C3135 O3148 1.236 . S
C3136 O3158 1.240 . S
C3136 O3159 1.264 . S
O3137 Mn3132 2.095 . S
O3137 C3146 1.250 . S
O3138 Mn3133 2.121 . S
O3138 C3146 1.258 . S
C3139 N3140 1.326 . S
C3139 C3143 1.460 . S
C3139 H3145 0.929 . S
N3140 Mn3133 2.257 . S
N3140 C3139 1.326 . S
N3140 C3144 1.362 . S
C3141 C3142 1.258 . S
C3141 C3144 1.431 . S
C3141 C3161 1.449 1_565 S
C3142 C3141 1.258 . S
C3142 C3143 1.477 . S
C3142 H3162 0.931 1_565 S
C3143 C3139 1.460 . S
C3143 C3142 1.477 . S
C3143 H3163 0.930 . S
C3144 N3140 1.362 . S
C3144 C3141 1.431 . S
C3144 C3154 1.476 . S
H3145 C3139 0.929 . S
C3146 O3137 1.250 . S
C3146 O3138 1.258 . S
O3147 Mn3132 2.162 . S
O3147 C3135 1.281 . S
O3148 Mn3132 2.297 . S
O3148 C3135 1.236 . S
N3149 Mn3133 2.282 . S
N3149 C3150 1.328 . S
N3149 C3154 1.318 . S
C3150 N3149 1.328 . S
C3150 C3151 1.457 . S
C3150 H3155 0.929 . S
C3151 C3150 1.457 . S
C3151 C3152 1.291 . S
C3151 H3164 0.931 . S
C3152 C3151 1.291 . S
C3152 C3153 1.373 . S
C3152 H3165 0.929 1_565 S
C3153 C3152 1.373 . S
C3153 C3154 1.396 . S
C3153 C3160 1.403 1_565 S
C3154 C3144 1.476 . S
C3154 N3149 1.318 . S
C3154 C3153 1.396 . S
H3155 C3150 0.929 . S
O3156 Mn3132 2.385 . S
O3156 C3134 1.234 . S
O3157 Mn3132 2.209 . S
O3157 Mn3133 2.215 . S
O3157 C3134 1.283 . S
O3158 Mn3132 2.094 . S
O3158 C3136 1.240 . S
O3159 Mn3133 2.117 . S
O3159 C3136 1.264 . S
C3160 C3153 1.403 1_545 S
C3160 C3161 1.399 . S
C3160 H3166 0.929 . S
C3161 C3141 1.449 1_545 S
C3161 C3160 1.399 . S
C3161 H3167 0.930 . S
H3162 C3142 0.931 1_545 S
H3163 C3143 0.930 . S
H3164 C3151 0.931 . S
H3165 C3152 0.929 1_545 S
H3166 C3160 0.929 . S
H3167 C3161 0.930 . S
Mn3168 O3173 2.095 . S
Mn3168 O3183 2.162 . S
Mn3168 O3184 2.297 . S
Mn3168 O3192 2.385 . S
Mn3168 O3193 2.209 . S
Mn3168 O3194 2.094 . S
Mn3169 O3174 2.121 . S
Mn3169 N3176 2.257 . S
Mn3169 N3185 2.282 . S
Mn3169 O3193 2.215 . S
Mn3169 O3195 2.117 . S
C3170 O3192 1.234 . S
C3170 O3193 1.283 . S
C3171 O3183 1.281 . S
C3171 O3184 1.236 . S
C3172 O3194 1.240 . S
C3172 O3195 1.264 . S
O3173 Mn3168 2.095 . S
O3173 C3182 1.250 . S
O3174 Mn3169 2.121 . S
O3174 C3182 1.258 . S
C3175 N3176 1.326 . S
C3175 C3179 1.460 . S
C3175 H3181 0.929 . S
N3176 Mn3169 2.257 . S
N3176 C3175 1.326 . S
N3176 C3180 1.362 . S
C3177 C3178 1.258 . S
C3177 C3180 1.431 . S
C3177 C3197 1.449 1_545 S
C3178 C3177 1.258 . S
C3178 C3179 1.477 . S
C3178 H3198 0.931 1_545 S
C3179 C3175 1.460 . S
C3179 C3178 1.477 . S
C3179 H3199 0.930 . S
C3180 N3176 1.362 . S
C3180 C3177 1.431 . S
C3180 C3190 1.476 . S
H3181 C3175 0.929 . S
C3182 O3173 1.250 . S
C3182 O3174 1.258 . S
O3183 Mn3168 2.162 . S
O3183 C3171 1.281 . S
O3184 Mn3168 2.297 . S
O3184 C3171 1.236 . S
N3185 Mn3169 2.282 . S
N3185 C3186 1.328 . S
N3185 C3190 1.318 . S
C3186 N3185 1.328 . S
C3186 C3187 1.457 . S
C3186 H3191 0.929 . S
C3187 C3186 1.457 . S
C3187 C3188 1.291 . S
C3187 H3200 0.931 . S
C3188 C3187 1.291 . S
C3188 C3189 1.373 . S
C3188 H3201 0.929 1_545 S
C3189 C3188 1.373 . S
C3189 C3190 1.396 . S
C3189 C3196 1.403 1_545 S
C3190 C3180 1.476 . S
C3190 N3185 1.318 . S
C3190 C3189 1.396 . S
H3191 C3186 0.929 . S
O3192 Mn3168 2.385 . S
O3192 C3170 1.234 . S
O3193 Mn3168 2.209 . S
O3193 Mn3169 2.215 . S
O3193 C3170 1.283 . S
O3194 Mn3168 2.094 . S
O3194 C3172 1.240 . S
O3195 Mn3169 2.117 . S
O3195 C3172 1.264 . S
C3196 C3189 1.403 1_565 S
C3196 C3197 1.399 . S
C3196 H3202 0.929 . S
C3197 C3177 1.449 1_565 S
C3197 C3196 1.399 . S
C3197 H3203 0.930 . S
H3198 C3178 0.931 1_565 S
H3199 C3179 0.930 . S
H3200 C3187 0.931 . S
H3201 C3188 0.929 1_565 S
H3202 C3196 0.929 . S
H3203 C3197 0.930 . S
Mn3204 O3209 2.095 . S
Mn3204 O3219 2.162 . S
Mn3204 O3220 2.297 . S
Mn3204 O3228 2.385 . S
Mn3204 O3229 2.209 . S
Mn3204 O3230 2.094 . S
Mn3205 O3210 2.121 . S
Mn3205 N3212 2.257 . S
Mn3205 N3221 2.282 . S
Mn3205 O3229 2.215 . S
Mn3205 O3231 2.117 . S
C3206 O3228 1.234 . S
C3206 O3229 1.283 . S
C3207 O3219 1.281 . S
C3207 O3220 1.236 . S
C3208 O3230 1.240 . S
C3208 O3231 1.264 . S
O3209 Mn3204 2.095 . S
O3209 C3218 1.250 . S
O3210 Mn3205 2.121 . S
O3210 C3218 1.258 . S
C3211 N3212 1.326 . S
C3211 C3215 1.460 . S
C3211 H3217 0.929 . S
N3212 Mn3205 2.257 . S
N3212 C3211 1.326 . S
N3212 C3216 1.362 . S
C3213 C3214 1.258 . S
C3213 C3216 1.431 . S
C3213 C3233 1.449 1_565 S
C3214 C3213 1.258 . S
C3214 C3215 1.477 . S
C3214 H3234 0.931 1_565 S
C3215 C3211 1.460 . S
C3215 C3214 1.477 . S
C3215 H3235 0.930 . S
C3216 N3212 1.362 . S
C3216 C3213 1.431 . S
C3216 C3226 1.476 . S
H3217 C3211 0.929 . S
C3218 O3209 1.250 . S
C3218 O3210 1.258 . S
O3219 Mn3204 2.162 . S
O3219 C3207 1.281 . S
O3220 Mn3204 2.297 . S
O3220 C3207 1.236 . S
N3221 Mn3205 2.282 . S
N3221 C3222 1.328 . S
N3221 C3226 1.318 . S
C3222 N3221 1.328 . S
C3222 C3223 1.457 . S
C3222 H3227 0.929 . S
C3223 C3222 1.457 . S
C3223 C3224 1.291 . S
C3223 H3236 0.931 . S
C3224 C3223 1.291 . S
C3224 C3225 1.373 . S
C3224 H3237 0.929 1_565 S
C3225 C3224 1.373 . S
C3225 C3226 1.396 . S
C3225 C3232 1.403 1_565 S
C3226 C3216 1.476 . S
C3226 N3221 1.318 . S
C3226 C3225 1.396 . S
H3227 C3222 0.929 . S
O3228 Mn3204 2.385 . S
O3228 C3206 1.234 . S
O3229 Mn3204 2.209 . S
O3229 Mn3205 2.215 . S
O3229 C3206 1.283 . S
O3230 Mn3204 2.094 . S
O3230 C3208 1.240 . S
O3231 Mn3205 2.117 . S
O3231 C3208 1.264 . S
C3232 C3225 1.403 1_545 S
C3232 C3233 1.399 . S
C3232 H3238 0.929 . S
C3233 C3213 1.449 1_545 S
C3233 C3232 1.399 . S
C3233 H3239 0.930 . S
H3234 C3214 0.931 1_545 S
H3235 C3215 0.930 . S
H3236 C3223 0.931 . S
H3237 C3224 0.929 1_545 S
H3238 C3232 0.929 . S
H3239 C3233 0.930 . S
Mn3240 O3245 2.095 . S
Mn3240 O3255 2.162 . S
Mn3240 O3256 2.297 . S
Mn3240 O3264 2.385 . S
Mn3240 O3265 2.209 . S
Mn3240 O3266 2.094 . S
Mn3241 O3246 2.121 . S
Mn3241 N3248 2.257 . S
Mn3241 N3257 2.282 . S
Mn3241 O3265 2.215 . S
Mn3241 O3267 2.117 . S
C3242 O3264 1.234 . S
C3242 O3265 1.283 . S
C3243 O3255 1.281 . S
C3243 O3256 1.236 . S
C3244 O3266 1.240 . S
C3244 O3267 1.264 . S
O3245 Mn3240 2.095 . S
O3245 C3254 1.250 . S
O3246 Mn3241 2.121 . S
O3246 C3254 1.258 . S
C3247 N3248 1.326 . S
C3247 C3251 1.460 . S
C3247 H3253 0.929 . S
N3248 Mn3241 2.257 . S
N3248 C3247 1.326 . S
N3248 C3252 1.362 . S
C3249 C3250 1.258 . S
C3249 C3252 1.431 . S
C3249 C3269 1.449 1_455 S
C3250 C3249 1.258 . S
C3250 C3251 1.477 . S
C3250 H3270 0.931 1_455 S
C3251 C3247 1.460 . S
C3251 C3250 1.477 . S
C3251 H3271 0.930 . S
C3252 N3248 1.362 . S
C3252 C3249 1.431 . S
C3252 C3262 1.476 . S
H3253 C3247 0.929 . S
C3254 O3245 1.250 . S
C3254 O3246 1.258 . S
O3255 Mn3240 2.162 . S
O3255 C3243 1.281 . S
O3256 Mn3240 2.297 . S
O3256 C3243 1.236 . S
N3257 Mn3241 2.282 . S
N3257 C3258 1.328 . S
N3257 C3262 1.318 . S
C3258 N3257 1.328 . S
C3258 C3259 1.457 . S
C3258 H3263 0.929 . S
C3259 C3258 1.457 . S
C3259 C3260 1.291 . S
C3259 H3272 0.931 . S
C3260 C3259 1.291 . S
C3260 C3261 1.373 . S
C3260 H3273 0.929 1_455 S
C3261 C3260 1.373 . S
C3261 C3262 1.396 . S
C3261 C3268 1.403 1_455 S
C3262 C3252 1.476 . S
C3262 N3257 1.318 . S
C3262 C3261 1.396 . S
H3263 C3258 0.929 . S
O3264 Mn3240 2.385 . S
O3264 C3242 1.234 . S
O3265 Mn3240 2.209 . S
O3265 Mn3241 2.215 . S
O3265 C3242 1.283 . S
O3266 Mn3240 2.094 . S
O3266 C3244 1.240 . S
O3267 Mn3241 2.117 . S
O3267 C3244 1.264 . S
C3268 C3261 1.403 1_655 S
C3268 C3269 1.399 . S
C3268 H3274 0.929 . S
C3269 C3249 1.449 1_655 S
C3269 C3268 1.399 . S
C3269 H3275 0.930 . S
H3270 C3250 0.931 1_655 S
H3271 C3251 0.930 . S
H3272 C3259 0.931 . S
H3273 C3260 0.929 1_655 S
H3274 C3268 0.929 . S
H3275 C3269 0.930 . S
Mn3276 O3281 2.095 . S
Mn3276 O3291 2.162 . S
Mn3276 O3292 2.297 . S
Mn3276 O3300 2.385 . S
Mn3276 O3301 2.209 . S
Mn3276 O3302 2.094 . S
Mn3277 O3282 2.121 . S
Mn3277 N3284 2.257 . S
Mn3277 N3293 2.282 . S
Mn3277 O3301 2.215 . S
Mn3277 O3303 2.117 . S
C3278 O3300 1.234 . S
C3278 O3301 1.283 . S
C3279 O3291 1.281 . S
C3279 O3292 1.236 . S
C3280 O3302 1.240 . S
C3280 O3303 1.264 . S
O3281 Mn3276 2.095 . S
O3281 C3290 1.250 . S
O3282 Mn3277 2.121 . S
O3282 C3290 1.258 . S
C3283 N3284 1.326 . S
C3283 C3287 1.460 . S
C3283 H3289 0.929 . S
N3284 Mn3277 2.257 . S
N3284 C3283 1.326 . S
N3284 C3288 1.362 . S
C3285 C3286 1.258 . S
C3285 C3288 1.431 . S
C3285 C3305 1.449 1_545 S
C3286 C3285 1.258 . S
C3286 C3287 1.477 . S
C3286 H3306 0.931 1_545 S
C3287 C3283 1.460 . S
C3287 C3286 1.477 . S
C3287 H3307 0.930 . S
C3288 N3284 1.362 . S
C3288 C3285 1.431 . S
C3288 C3298 1.476 . S
H3289 C3283 0.929 . S
C3290 O3281 1.250 . S
C3290 O3282 1.258 . S
O3291 Mn3276 2.162 . S
O3291 C3279 1.281 . S
O3292 Mn3276 2.297 . S
O3292 C3279 1.236 . S
N3293 Mn3277 2.282 . S
N3293 C3294 1.328 . S
N3293 C3298 1.318 . S
C3294 N3293 1.328 . S
C3294 C3295 1.457 . S
C3294 H3299 0.929 . S
C3295 C3294 1.457 . S
C3295 C3296 1.291 . S
C3295 H3308 0.931 . S
C3296 C3295 1.291 . S
C3296 C3297 1.373 . S
C3296 H3309 0.929 1_545 S
C3297 C3296 1.373 . S
C3297 C3298 1.396 . S
C3297 C3304 1.403 1_545 S
C3298 C3288 1.476 . S
C3298 N3293 1.318 . S
C3298 C3297 1.396 . S
H3299 C3294 0.929 . S
O3300 Mn3276 2.385 . S
O3300 C3278 1.234 . S
O3301 Mn3276 2.209 . S
O3301 Mn3277 2.215 . S
O3301 C3278 1.283 . S
O3302 Mn3276 2.094 . S
O3302 C3280 1.240 . S
O3303 Mn3277 2.117 . S
O3303 C3280 1.264 . S
C3304 C3297 1.403 1_565 S
C3304 C3305 1.399 . S
C3304 H3310 0.929 . S
C3305 C3285 1.449 1_565 S
C3305 C3304 1.399 . S
C3305 H3311 0.930 . S
H3306 C3286 0.931 1_565 S
H3307 C3287 0.930 . S
H3308 C3295 0.931 . S
H3309 C3296 0.929 1_565 S
H3310 C3304 0.929 . S
H3311 C3305 0.930 . S
Mn3312 O3317 2.095 . S
Mn3312 O3327 2.162 . S
Mn3312 O3328 2.297 . S
Mn3312 O3336 2.385 . S
Mn3312 O3337 2.209 . S
Mn3312 O3338 2.094 . S
Mn3313 O3318 2.121 . S
Mn3313 N3320 2.257 . S
Mn3313 N3329 2.282 . S
Mn3313 O3337 2.215 . S
Mn3313 O3339 2.117 . S
C3314 O3336 1.234 . S
C3314 O3337 1.283 . S
C3315 O3327 1.281 . S
C3315 O3328 1.236 . S
C3316 O3338 1.240 . S
C3316 O3339 1.264 . S
O3317 Mn3312 2.095 . S
O3317 C3326 1.250 . S
O3318 Mn3313 2.121 . S
O3318 C3326 1.258 . S
C3319 N3320 1.326 . S
C3319 C3323 1.460 . S
C3319 H3325 0.929 . S
N3320 Mn3313 2.257 . S
N3320 C3319 1.326 . S
N3320 C3324 1.362 . S
C3321 C3322 1.258 . S
C3321 C3324 1.431 . S
C3321 C3341 1.449 1_655 S
C3322 C3321 1.258 . S
C3322 C3323 1.477 . S
C3322 H3342 0.931 1_655 S
C3323 C3319 1.460 . S
C3323 C3322 1.477 . S
C3323 H3343 0.930 . S
C3324 N3320 1.362 . S
C3324 C3321 1.431 . S
C3324 C3334 1.476 . S
H3325 C3319 0.929 . S
C3326 O3317 1.250 . S
C3326 O3318 1.258 . S
O3327 Mn3312 2.162 . S
O3327 C3315 1.281 . S
O3328 Mn3312 2.297 . S
O3328 C3315 1.236 . S
N3329 Mn3313 2.282 . S
N3329 C3330 1.328 . S
N3329 C3334 1.318 . S
C3330 N3329 1.328 . S
C3330 C3331 1.457 . S
C3330 H3335 0.929 . S
C3331 C3330 1.457 . S
C3331 C3332 1.291 . S
C3331 H3344 0.931 . S
C3332 C3331 1.291 . S
C3332 C3333 1.373 . S
C3332 H3345 0.929 1_655 S
C3333 C3332 1.373 . S
C3333 C3334 1.396 . S
C3333 C3340 1.403 1_655 S
C3334 C3324 1.476 . S
C3334 N3329 1.318 . S
C3334 C3333 1.396 . S
H3335 C3330 0.929 . S
O3336 Mn3312 2.385 . S
O3336 C3314 1.234 . S
O3337 Mn3312 2.209 . S
O3337 Mn3313 2.215 . S
O3337 C3314 1.283 . S
O3338 Mn3312 2.094 . S
O3338 C3316 1.240 . S
O3339 Mn3313 2.117 . S
O3339 C3316 1.264 . S
C3340 C3333 1.403 1_455 S
C3340 C3341 1.399 . S
C3340 H3346 0.929 . S
C3341 C3321 1.449 1_455 S
C3341 C3340 1.399 . S
C3341 H3347 0.930 . S
H3342 C3322 0.931 1_455 S
H3343 C3323 0.930 . S
H3344 C3331 0.931 . S
H3345 C3332 0.929 1_455 S
H3346 C3340 0.929 . S
H3347 C3341 0.930 . S
Mn3348 O3353 2.095 . S
Mn3348 O3363 2.162 . S
Mn3348 O3364 2.297 . S
Mn3348 O3372 2.385 . S
Mn3348 O3373 2.209 . S
Mn3348 O3374 2.094 . S
Mn3349 O3354 2.121 . S
Mn3349 N3356 2.257 . S
Mn3349 N3365 2.282 . S
Mn3349 O3373 2.215 . S
Mn3349 O3375 2.117 . S
C3350 O3372 1.234 . S
C3350 O3373 1.283 . S
C3351 O3363 1.281 . S
C3351 O3364 1.236 . S
C3352 O3374 1.240 . S
C3352 O3375 1.264 . S
O3353 Mn3348 2.095 . S
O3353 C3362 1.250 . S
O3354 Mn3349 2.121 . S
O3354 C3362 1.258 . S
C3355 N3356 1.326 . S
C3355 C3359 1.460 . S
C3355 H3361 0.929 . S
N3356 Mn3349 2.257 . S
N3356 C3355 1.326 . S
N3356 C3360 1.362 . S
C3357 C3358 1.258 . S
C3357 C3360 1.431 . S
C3357 C3377 1.449 1_565 S
C3358 C3357 1.258 . S
C3358 C3359 1.477 . S
C3358 H3378 0.931 1_565 S
C3359 C3355 1.460 . S
C3359 C3358 1.477 . S
C3359 H3379 0.930 . S
C3360 N3356 1.362 . S
C3360 C3357 1.431 . S
C3360 C3370 1.476 . S
H3361 C3355 0.929 . S
C3362 O3353 1.250 . S
C3362 O3354 1.258 . S
O3363 Mn3348 2.162 . S
O3363 C3351 1.281 . S
O3364 Mn3348 2.297 . S
O3364 C3351 1.236 . S
N3365 Mn3349 2.282 . S
N3365 C3366 1.328 . S
N3365 C3370 1.318 . S
C3366 N3365 1.328 . S
C3366 C3367 1.457 . S
C3366 H3371 0.929 . S
C3367 C3366 1.457 . S
C3367 C3368 1.291 . S
C3367 H3380 0.931 . S
C3368 C3367 1.291 . S
C3368 C3369 1.373 . S
C3368 H3381 0.929 1_565 S
C3369 C3368 1.373 . S
C3369 C3370 1.396 . S
C3369 C3376 1.403 1_565 S
C3370 C3360 1.476 . S
C3370 N3365 1.318 . S
C3370 C3369 1.396 . S
H3371 C3366 0.929 . S
O3372 Mn3348 2.385 . S
O3372 C3350 1.234 . S
O3373 Mn3348 2.209 . S
O3373 Mn3349 2.215 . S
O3373 C3350 1.283 . S
O3374 Mn3348 2.094 . S
O3374 C3352 1.240 . S
O3375 Mn3349 2.117 . S
O3375 C3352 1.264 . S
C3376 C3369 1.403 1_545 S
C3376 C3377 1.399 . S
C3376 H3382 0.929 . S
C3377 C3357 1.449 1_545 S
C3377 C3376 1.399 . S
C3377 H3383 0.930 . S
H3378 C3358 0.931 1_545 S
H3379 C3359 0.930 . S
H3380 C3367 0.931 . S
H3381 C3368 0.929 1_545 S
H3382 C3376 0.929 . S
H3383 C3377 0.930 . S
Mn3384 O3389 2.095 . S
Mn3384 O3399 2.162 . S
Mn3384 O3400 2.297 . S
Mn3384 O3408 2.385 . S
Mn3384 O3409 2.209 . S
Mn3384 O3410 2.094 . S
Mn3385 O3390 2.121 . S
Mn3385 N3392 2.257 . S
Mn3385 N3401 2.282 . S
Mn3385 O3409 2.215 . S
Mn3385 O3411 2.117 . S
C3386 O3408 1.234 . S
C3386 O3409 1.283 . S
C3387 O3399 1.281 . S
C3387 O3400 1.236 . S
C3388 O3410 1.240 . S
C3388 O3411 1.264 . S
O3389 Mn3384 2.095 . S
O3389 C3398 1.250 . S
O3390 Mn3385 2.121 . S
O3390 C3398 1.258 . S
C3391 N3392 1.326 . S
C3391 C3395 1.460 . S
C3391 H3397 0.929 . S
N3392 Mn3385 2.257 . S
N3392 C3391 1.326 . S
N3392 C3396 1.362 . S
C3393 C3394 1.258 . S
C3393 C3396 1.431 . S
C3393 C3413 1.449 1_455 S
C3394 C3393 1.258 . S
C3394 C3395 1.477 . S
C3394 H3414 0.931 1_455 S
C3395 C3391 1.460 . S
C3395 C3394 1.477 . S
C3395 H3415 0.930 . S
C3396 N3392 1.362 . S
C3396 C3393 1.431 . S
C3396 C3406 1.476 . S
H3397 C3391 0.929 . S
C3398 O3389 1.250 . S
C3398 O3390 1.258 . S
O3399 Mn3384 2.162 . S
O3399 C3387 1.281 . S
O3400 Mn3384 2.297 . S
O3400 C3387 1.236 . S
N3401 Mn3385 2.282 . S
N3401 C3402 1.328 . S
N3401 C3406 1.318 . S
C3402 N3401 1.328 . S
C3402 C3403 1.457 . S
C3402 H3407 0.929 . S
C3403 C3402 1.457 . S
C3403 C3404 1.291 . S
C3403 H3416 0.931 . S
C3404 C3403 1.291 . S
C3404 C3405 1.373 . S
C3404 H3417 0.929 1_455 S
C3405 C3404 1.373 . S
C3405 C3406 1.396 . S
C3405 C3412 1.403 1_455 S
C3406 C3396 1.476 . S
C3406 N3401 1.318 . S
C3406 C3405 1.396 . S
H3407 C3402 0.929 . S
O3408 Mn3384 2.385 . S
O3408 C3386 1.234 . S
O3409 Mn3384 2.209 . S
O3409 Mn3385 2.215 . S
O3409 C3386 1.283 . S
O3410 Mn3384 2.094 . S
O3410 C3388 1.240 . S
O3411 Mn3385 2.117 . S
O3411 C3388 1.264 . S
C3412 C3405 1.403 1_655 S
C3412 C3413 1.399 . S
C3412 H3418 0.929 . S
C3413 C3393 1.449 1_655 S
C3413 C3412 1.399 . S
C3413 H3419 0.930 . S
H3414 C3394 0.931 1_655 S
H3415 C3395 0.930 . S
H3416 C3403 0.931 . S
H3417 C3404 0.929 1_655 S
H3418 C3412 0.929 . S
H3419 C3413 0.930 . S
Mn3420 O3425 2.095 . S
Mn3420 O3435 2.162 . S
Mn3420 O3436 2.297 . S
Mn3420 O3444 2.385 . S
Mn3420 O3445 2.209 . S
Mn3420 O3446 2.094 . S
Mn3421 O3426 2.121 . S
Mn3421 N3428 2.257 . S
Mn3421 N3437 2.282 . S
Mn3421 O3445 2.215 . S
Mn3421 O3447 2.117 . S
C3422 O3444 1.234 . S
C3422 O3445 1.283 . S
C3423 O3435 1.281 . S
C3423 O3436 1.236 . S
C3424 O3446 1.240 . S
C3424 O3447 1.264 . S
O3425 Mn3420 2.095 . S
O3425 C3434 1.250 . S
O3426 Mn3421 2.121 . S
O3426 C3434 1.258 . S
C3427 N3428 1.326 . S
C3427 C3431 1.460 . S
C3427 H3433 0.929 . S
N3428 Mn3421 2.257 . S
N3428 C3427 1.326 . S
N3428 C3432 1.362 . S
C3429 C3430 1.258 . S
C3429 C3432 1.431 . S
C3429 C3449 1.449 1_655 S
C3430 C3429 1.258 . S
C3430 C3431 1.477 . S
C3430 H3450 0.931 1_655 S
C3431 C3427 1.460 . S
C3431 C3430 1.477 . S
C3431 H3451 0.930 . S
C3432 N3428 1.362 . S
C3432 C3429 1.431 . S
C3432 C3442 1.476 . S
H3433 C3427 0.929 . S
C3434 O3425 1.250 . S
C3434 O3426 1.258 . S
O3435 Mn3420 2.162 . S
O3435 C3423 1.281 . S
O3436 Mn3420 2.297 . S
O3436 C3423 1.236 . S
N3437 Mn3421 2.282 . S
N3437 C3438 1.328 . S
N3437 C3442 1.318 . S
C3438 N3437 1.328 . S
C3438 C3439 1.457 . S
C3438 H3443 0.929 . S
C3439 C3438 1.457 . S
C3439 C3440 1.291 . S
C3439 H3452 0.931 . S
C3440 C3439 1.291 . S
C3440 C3441 1.373 . S
C3440 H3453 0.929 1_655 S
C3441 C3440 1.373 . S
C3441 C3442 1.396 . S
C3441 C3448 1.403 1_655 S
C3442 C3432 1.476 . S
C3442 N3437 1.318 . S
C3442 C3441 1.396 . S
H3443 C3438 0.929 . S
O3444 Mn3420 2.385 . S
O3444 C3422 1.234 . S
O3445 Mn3420 2.209 . S
O3445 Mn3421 2.215 . S
O3445 C3422 1.283 . S
O3446 Mn3420 2.094 . S
O3446 C3424 1.240 . S
O3447 Mn3421 2.117 . S
O3447 C3424 1.264 . S
C3448 C3441 1.403 1_455 S
C3448 C3449 1.399 . S
C3448 H3454 0.929 . S
C3449 C3429 1.449 1_455 S
C3449 C3448 1.399 . S
C3449 H3455 0.930 . S
H3450 C3430 0.931 1_455 S
H3451 C3431 0.930 . S
H3452 C3439 0.931 . S
H3453 C3440 0.929 1_455 S
H3454 C3448 0.929 . S
H3455 C3449 0.930 . S
C3456 C3457 1.363 . S
C3456 C3462 1.379 . S
C3456 N3464 1.356 . S
C3457 C3456 1.363 . S
C3457 C3463 1.363 . S
C3458 C3459 1.363 . S
C3458 C3463 1.379 . S
C3458 N3465 1.356 . S
C3459 C3458 1.363 . S
C3459 C3462 1.363 . S
N3460 C3462 1.356 . S
N3460 H3472 0.984 . S
N3460 H3473 0.985 . S
N3461 C3463 1.356 . S
N3461 H3466 0.984 . S
N3461 H3467 0.985 . S
C3462 C3456 1.379 . S
C3462 C3459 1.363 . S
C3462 N3460 1.356 . S
C3463 C3457 1.363 . S
C3463 C3458 1.379 . S
C3463 N3461 1.356 . S
N3464 C3456 1.356 . S
N3464 H3470 0.984 . S
N3464 H3471 0.984 . S
N3465 C3458 1.356 . S
N3465 H3468 0.984 . S
N3465 H3469 0.985 . S
H3466 N3461 0.984 . S
H3467 N3461 0.985 . S
H3468 N3465 0.984 . S
H3469 N3465 0.985 . S
H3470 N3464 0.984 . S
H3471 N3464 0.984 . S
H3472 N3460 0.984 . S
H3473 N3460 0.985 . S
C3474 C3475 1.363 . S
C3474 C3480 1.379 . S
C3474 N3482 1.356 . S
C3475 C3474 1.363 . S
C3475 C3481 1.363 . S
C3476 C3477 1.363 . S
C3476 C3481 1.379 . S
C3476 N3483 1.356 . S
C3477 C3476 1.363 . S
C3477 C3480 1.363 . S
N3478 C3480 1.356 . S
N3478 H3490 0.984 . S
N3478 H3491 0.985 . S
N3479 C3481 1.356 . S
N3479 H3484 0.984 . S
N3479 H3485 0.985 . S
C3480 C3474 1.379 . S
C3480 C3477 1.363 . S
C3480 N3478 1.356 . S
C3481 C3475 1.363 . S
C3481 C3476 1.379 . S
C3481 N3479 1.356 . S
N3482 C3474 1.356 . S
N3482 H3488 0.984 . S
N3482 H3489 0.984 . S
N3483 C3476 1.356 . S
N3483 H3486 0.984 . S
N3483 H3487 0.985 . S
H3484 N3479 0.984 . S
H3485 N3479 0.985 . S
H3486 N3483 0.984 . S
H3487 N3483 0.985 . S
H3488 N3482 0.984 . S
H3489 N3482 0.984 . S
H3490 N3478 0.984 . S
H3491 N3478 0.985 . S
C3492 C3493 1.363 . S
C3492 C3498 1.379 . S
C3492 N3500 1.356 . S
C3493 C3492 1.363 . S
C3493 C3499 1.363 . S
C3494 C3495 1.363 . S
C3494 C3499 1.379 . S
C3494 N3501 1.356 . S
C3495 C3494 1.363 . S
C3495 C3498 1.363 . S
N3496 C3498 1.356 . S
N3496 H3508 0.984 . S
N3496 H3509 0.985 . S
N3497 C3499 1.356 . S
N3497 H3502 0.984 . S
N3497 H3503 0.985 . S
C3498 C3492 1.379 . S
C3498 C3495 1.363 . S
C3498 N3496 1.356 . S
C3499 C3493 1.363 . S
C3499 C3494 1.379 . S
C3499 N3497 1.356 . S
N3500 C3492 1.356 . S
N3500 H3506 0.984 . S
N3500 H3507 0.984 . S
N3501 C3494 1.356 . S
N3501 H3504 0.984 . S
N3501 H3505 0.985 . S
H3502 N3497 0.984 . S
H3503 N3497 0.985 . S
H3504 N3501 0.984 . S
H3505 N3501 0.985 . S
H3506 N3500 0.984 . S
H3507 N3500 0.984 . S
H3508 N3496 0.984 . S
H3509 N3496 0.985 . S
C3510 C3511 1.363 . S
C3510 C3516 1.379 . S
C3510 N3518 1.356 . S
C3511 C3510 1.363 . S
C3511 C3517 1.363 . S
C3512 C3513 1.363 . S
C3512 C3517 1.379 . S
C3512 N3519 1.356 . S
C3513 C3512 1.363 . S
C3513 C3516 1.363 . S
N3514 C3516 1.356 . S
N3514 H3526 0.984 . S
N3514 H3527 0.985 . S
N3515 C3517 1.356 . S
N3515 H3520 0.984 . S
N3515 H3521 0.985 . S
C3516 C3510 1.379 . S
C3516 C3513 1.363 . S
C3516 N3514 1.356 . S
C3517 C3511 1.363 . S
C3517 C3512 1.379 . S
C3517 N3515 1.356 . S
N3518 C3510 1.356 . S
N3518 H3524 0.984 . S
N3518 H3525 0.984 . S
N3519 C3512 1.356 . S
N3519 H3522 0.984 . S
N3519 H3523 0.985 . S
H3520 N3515 0.984 . S
H3521 N3515 0.985 . S
H3522 N3519 0.984 . S
H3523 N3519 0.985 . S
H3524 N3518 0.984 . S
H3525 N3518 0.984 . S
H3526 N3514 0.984 . S
H3527 N3514 0.985 . S
C3528 C3529 1.363 . S
C3528 C3534 1.379 . S
C3528 N3536 1.356 . S
C3529 C3528 1.363 . S
C3529 C3535 1.363 . S
C3530 C3531 1.363 . S
C3530 C3535 1.379 . S
C3530 N3537 1.356 . S
C3531 C3530 1.363 . S
C3531 C3534 1.363 . S
N3532 C3534 1.356 . S
N3532 H3544 0.984 . S
N3532 H3545 0.985 . S
N3533 C3535 1.356 . S
N3533 H3538 0.984 . S
N3533 H3539 0.985 . S
C3534 C3528 1.379 . S
C3534 C3531 1.363 . S
C3534 N3532 1.356 . S
C3535 C3529 1.363 . S
C3535 C3530 1.379 . S
C3535 N3533 1.356 . S
N3536 C3528 1.356 . S
N3536 H3542 0.984 . S
N3536 H3543 0.984 . S
N3537 C3530 1.356 . S
N3537 H3540 0.984 . S
N3537 H3541 0.985 . S
H3538 N3533 0.984 . S
H3539 N3533 0.985 . S
H3540 N3537 0.984 . S
H3541 N3537 0.985 . S
H3542 N3536 0.984 . S
H3543 N3536 0.984 . S
H3544 N3532 0.984 . S
H3545 N3532 0.985 . S
C3546 C3547 1.363 . S
C3546 C3552 1.379 . S
C3546 N3554 1.356 . S
C3547 C3546 1.363 . S
C3547 C3553 1.363 . S
C3548 C3549 1.363 . S
C3548 C3553 1.379 . S
C3548 N3555 1.356 . S
C3549 C3548 1.363 . S
C3549 C3552 1.363 . S
N3550 C3552 1.356 . S
N3550 H3562 0.984 . S
N3550 H3563 0.985 . S
N3551 C3553 1.356 . S
N3551 H3556 0.984 . S
N3551 H3557 0.985 . S
C3552 C3546 1.379 . S
C3552 C3549 1.363 . S
C3552 N3550 1.356 . S
C3553 C3547 1.363 . S
C3553 C3548 1.379 . S
C3553 N3551 1.356 . S
N3554 C3546 1.356 . S
N3554 H3560 0.984 . S
N3554 H3561 0.984 . S
N3555 C3548 1.356 . S
N3555 H3558 0.984 . S
N3555 H3559 0.985 . S
H3556 N3551 0.984 . S
H3557 N3551 0.985 . S
H3558 N3555 0.984 . S
H3559 N3555 0.985 . S
H3560 N3554 0.984 . S
H3561 N3554 0.984 . S
H3562 N3550 0.984 . S
H3563 N3550 0.985 . S
C3564 C3565 1.363 . S
C3564 C3570 1.379 . S
C3564 N3572 1.356 . S
C3565 C3564 1.363 . S
C3565 C3571 1.363 . S
C3566 C3567 1.363 . S
C3566 C3571 1.379 . S
C3566 N3573 1.356 . S
C3567 C3566 1.363 . S
C3567 C3570 1.363 . S
N3568 C3570 1.356 . S
N3568 H3580 0.984 . S
N3568 H3581 0.985 . S
N3569 C3571 1.356 . S
N3569 H3574 0.984 . S
N3569 H3575 0.985 . S
C3570 C3564 1.379 . S
C3570 C3567 1.363 . S
C3570 N3568 1.356 . S
C3571 C3565 1.363 . S
C3571 C3566 1.379 . S
C3571 N3569 1.356 . S
N3572 C3564 1.356 . S
N3572 H3578 0.984 . S
N3572 H3579 0.984 . S
N3573 C3566 1.356 . S
N3573 H3576 0.984 . S
N3573 H3577 0.985 . S
H3574 N3569 0.984 . S
H3575 N3569 0.985 . S
H3576 N3573 0.984 . S
H3577 N3573 0.985 . S
H3578 N3572 0.984 . S
H3579 N3572 0.984 . S
H3580 N3568 0.984 . S
H3581 N3568 0.985 . S
C3582 C3583 1.363 . S
C3582 C3588 1.379 . S
C3582 N3590 1.356 . S
C3583 C3582 1.363 . S
C3583 C3589 1.363 . S
C3584 C3585 1.363 . S
C3584 C3589 1.379 . S
C3584 N3591 1.356 . S
C3585 C3584 1.363 . S
C3585 C3588 1.363 . S
N3586 C3588 1.356 . S
N3586 H3598 0.984 . S
N3586 H3599 0.985 . S
N3587 C3589 1.356 . S
N3587 H3592 0.984 . S
N3587 H3593 0.985 . S
C3588 C3582 1.379 . S
C3588 C3585 1.363 . S
C3588 N3586 1.356 . S
C3589 C3583 1.363 . S
C3589 C3584 1.379 . S
C3589 N3587 1.356 . S
N3590 C3582 1.356 . S
N3590 H3596 0.984 . S
N3590 H3597 0.984 . S
N3591 C3584 1.356 . S
N3591 H3594 0.984 . S
N3591 H3595 0.985 . S
H3592 N3587 0.984 . S
H3593 N3587 0.985 . S
H3594 N3591 0.984 . S
H3595 N3591 0.985 . S
H3596 N3590 0.984 . S
H3597 N3590 0.984 . S
H3598 N3586 0.984 . S
H3599 N3586 0.985 . S
C3600 C3601 1.363 . S
C3600 C3606 1.379 . S
C3600 N3608 1.356 . S
C3601 C3600 1.363 . S
C3601 C3607 1.363 . S
C3602 C3603 1.363 . S
C3602 C3607 1.379 . S
C3602 N3609 1.356 . S
C3603 C3602 1.363 . S
C3603 C3606 1.363 . S
N3604 C3606 1.356 . S
N3604 H3616 0.984 . S
N3604 H3617 0.985 . S
N3605 C3607 1.356 . S
N3605 H3610 0.984 . S
N3605 H3611 0.985 . S
C3606 C3600 1.379 . S
C3606 C3603 1.363 . S
C3606 N3604 1.356 . S
C3607 C3601 1.363 . S
C3607 C3602 1.379 . S
C3607 N3605 1.356 . S
N3608 C3600 1.356 . S
N3608 H3614 0.984 . S
N3608 H3615 0.984 . S
N3609 C3602 1.356 . S
N3609 H3612 0.984 . S
N3609 H3613 0.985 . S
H3610 N3605 0.984 . S
H3611 N3605 0.985 . S
H3612 N3609 0.984 . S
H3613 N3609 0.985 . S
H3614 N3608 0.984 . S
H3615 N3608 0.984 . S
H3616 N3604 0.984 . S
H3617 N3604 0.985 . S
C3618 C3619 1.363 . S
C3618 C3624 1.379 . S
C3618 N3626 1.356 . S
C3619 C3618 1.363 . S
C3619 C3625 1.363 . S
C3620 C3621 1.363 . S
C3620 C3625 1.379 . S
C3620 N3627 1.356 . S
C3621 C3620 1.363 . S
C3621 C3624 1.363 . S
N3622 C3624 1.356 . S
N3622 H3634 0.984 . S
N3622 H3635 0.985 . S
N3623 C3625 1.356 . S
N3623 H3628 0.984 . S
N3623 H3629 0.985 . S
C3624 C3618 1.379 . S
C3624 C3621 1.363 . S
C3624 N3622 1.356 . S
C3625 C3619 1.363 . S
C3625 C3620 1.379 . S
C3625 N3623 1.356 . S
N3626 C3618 1.356 . S
N3626 H3632 0.984 . S
N3626 H3633 0.984 . S
N3627 C3620 1.356 . S
N3627 H3630 0.984 . S
N3627 H3631 0.985 . S
H3628 N3623 0.984 . S
H3629 N3623 0.985 . S
H3630 N3627 0.984 . S
H3631 N3627 0.985 . S
H3632 N3626 0.984 . S
H3633 N3626 0.984 . S
H3634 N3622 0.984 . S
H3635 N3622 0.985 . S
C3636 C3637 1.363 . S
C3636 C3642 1.379 . S
C3636 N3644 1.356 . S
C3637 C3636 1.363 . S
C3637 C3643 1.363 . S
C3638 C3639 1.363 . S
C3638 C3643 1.379 . S
C3638 N3645 1.356 . S
C3639 C3638 1.363 . S
C3639 C3642 1.363 . S
N3640 C3642 1.356 . S
N3640 H3652 0.984 . S
N3640 H3653 0.985 . S
N3641 C3643 1.356 . S
N3641 H3646 0.984 . S
N3641 H3647 0.985 . S
C3642 C3636 1.379 . S
C3642 C3639 1.363 . S
C3642 N3640 1.356 . S
C3643 C3637 1.363 . S
C3643 C3638 1.379 . S
C3643 N3641 1.356 . S
N3644 C3636 1.356 . S
N3644 H3650 0.984 . S
N3644 H3651 0.984 . S
N3645 C3638 1.356 . S
N3645 H3648 0.984 . S
N3645 H3649 0.985 . S
H3646 N3641 0.984 . S
H3647 N3641 0.985 . S
H3648 N3645 0.984 . S
H3649 N3645 0.985 . S
H3650 N3644 0.984 . S
H3651 N3644 0.984 . S
H3652 N3640 0.984 . S
H3653 N3640 0.985 . S
C3654 C3655 1.363 . S
C3654 C3660 1.379 . S
C3654 N3662 1.356 . S
C3655 C3654 1.363 . S
C3655 C3661 1.363 . S
C3656 C3657 1.363 . S
C3656 C3661 1.379 . S
C3656 N3663 1.356 . S
C3657 C3656 1.363 . S
C3657 C3660 1.363 . S
N3658 C3660 1.356 . S
N3658 H3670 0.984 . S
N3658 H3671 0.985 . S
N3659 C3661 1.356 . S
N3659 H3664 0.984 . S
N3659 H3665 0.985 . S
C3660 C3654 1.379 . S
C3660 C3657 1.363 . S
C3660 N3658 1.356 . S
C3661 C3655 1.363 . S
C3661 C3656 1.379 . S
C3661 N3659 1.356 . S
N3662 C3654 1.356 . S
N3662 H3668 0.984 . S
N3662 H3669 0.984 . S
N3663 C3656 1.356 . S
N3663 H3666 0.984 . S
N3663 H3667 0.985 . S
H3664 N3659 0.984 . S
H3665 N3659 0.985 . S
H3666 N3663 0.984 . S
H3667 N3663 0.985 . S
H3668 N3662 0.984 . S
H3669 N3662 0.984 . S
H3670 N3658 0.984 . S
H3671 N3658 0.985 . S
C3672 C3673 1.363 . S
C3672 C3678 1.379 . S
C3672 N3680 1.356 . S
C3673 C3672 1.363 . S
C3673 C3679 1.363 . S
C3674 C3675 1.363 . S
C3674 C3679 1.379 . S
C3674 N3681 1.356 . S
C3675 C3674 1.363 . S
C3675 C3678 1.363 . S
N3676 C3678 1.356 . S
N3676 H3688 0.984 . S
N3676 H3689 0.985 . S
N3677 C3679 1.356 . S
N3677 H3682 0.984 . S
N3677 H3683 0.985 . S
C3678 C3672 1.379 . S
C3678 C3675 1.363 . S
C3678 N3676 1.356 . S
C3679 C3673 1.363 . S
C3679 C3674 1.379 . S
C3679 N3677 1.356 . S
N3680 C3672 1.356 . S
N3680 H3686 0.984 . S
N3680 H3687 0.984 . S
N3681 C3674 1.356 . S
N3681 H3684 0.984 . S
N3681 H3685 0.985 . S
H3682 N3677 0.984 . S
H3683 N3677 0.985 . S
H3684 N3681 0.984 . S
H3685 N3681 0.985 . S
H3686 N3680 0.984 . S
H3687 N3680 0.984 . S
H3688 N3676 0.984 . S
H3689 N3676 0.985 . S
C3690 C3691 1.363 . S
C3690 C3696 1.379 . S
C3690 N3698 1.356 . S
C3691 C3690 1.363 . S
C3691 C3697 1.363 . S
C3692 C3693 1.363 . S
C3692 C3697 1.379 . S
C3692 N3699 1.356 . S
C3693 C3692 1.363 . S
C3693 C3696 1.363 . S
N3694 C3696 1.356 . S
N3694 H3706 0.984 . S
N3694 H3707 0.985 . S
N3695 C3697 1.356 . S
N3695 H3700 0.984 . S
N3695 H3701 0.985 . S
C3696 C3690 1.379 . S
C3696 C3693 1.363 . S
C3696 N3694 1.356 . S
C3697 C3691 1.363 . S
C3697 C3692 1.379 . S
C3697 N3695 1.356 . S
N3698 C3690 1.356 . S
N3698 H3704 0.984 . S
N3698 H3705 0.984 . S
N3699 C3692 1.356 . S
N3699 H3702 0.984 . S
N3699 H3703 0.985 . S
H3700 N3695 0.984 . S
H3701 N3695 0.985 . S
H3702 N3699 0.984 . S
H3703 N3699 0.985 . S
H3704 N3698 0.984 . S
H3705 N3698 0.984 . S
H3706 N3694 0.984 . S
H3707 N3694 0.985 . S
C3708 C3709 1.363 . S
C3708 C3714 1.379 . S
C3708 N3716 1.356 . S
C3709 C3708 1.363 . S
C3709 C3715 1.363 . S
C3710 C3711 1.363 . S
C3710 C3715 1.379 . S
C3710 N3717 1.356 . S
C3711 C3710 1.363 . S
C3711 C3714 1.363 . S
N3712 C3714 1.356 . S
N3712 H3724 0.984 . S
N3712 H3725 0.985 . S
N3713 C3715 1.356 . S
N3713 H3718 0.984 . S
N3713 H3719 0.985 . S
C3714 C3708 1.379 . S
C3714 C3711 1.363 . S
C3714 N3712 1.356 . S
C3715 C3709 1.363 . S
C3715 C3710 1.379 . S
C3715 N3713 1.356 . S
N3716 C3708 1.356 . S
N3716 H3722 0.984 . S
N3716 H3723 0.984 . S
N3717 C3710 1.356 . S
N3717 H3720 0.984 . S
N3717 H3721 0.985 . S
H3718 N3713 0.984 . S
H3719 N3713 0.985 . S
H3720 N3717 0.984 . S
H3721 N3717 0.985 . S
H3722 N3716 0.984 . S
H3723 N3716 0.984 . S
H3724 N3712 0.984 . S
H3725 N3712 0.985 . S
C3726 C3727 1.363 . S
C3726 C3732 1.379 . S
C3726 N3734 1.356 . S
C3727 C3726 1.363 . S
C3727 C3733 1.363 . S
C3728 C3729 1.363 . S
C3728 C3733 1.379 . S
C3728 N3735 1.356 . S
C3729 C3728 1.363 . S
C3729 C3732 1.363 . S
N3730 C3732 1.356 . S
N3730 H3742 0.984 . S
N3730 H3743 0.985 . S
N3731 C3733 1.356 . S
N3731 H3736 0.984 . S
N3731 H3737 0.985 . S
C3732 C3726 1.379 . S
C3732 C3729 1.363 . S
C3732 N3730 1.356 . S
C3733 C3727 1.363 . S
C3733 C3728 1.379 . S
C3733 N3731 1.356 . S
N3734 C3726 1.356 . S
N3734 H3740 0.984 . S
N3734 H3741 0.984 . S
N3735 C3728 1.356 . S
N3735 H3738 0.984 . S
N3735 H3739 0.985 . S
H3736 N3731 0.984 . S
H3737 N3731 0.985 . S
H3738 N3735 0.984 . S
H3739 N3735 0.985 . S
H3740 N3734 0.984 . S
H3741 N3734 0.984 . S
H3742 N3730 0.984 . S
H3743 N3730 0.985 . S
C3744 C3745 1.363 . S
C3744 C3750 1.379 . S
C3744 N3752 1.356 . S
C3745 C3744 1.363 . S
C3745 C3751 1.363 . S
C3746 C3747 1.363 . S
C3746 C3751 1.379 . S
C3746 N3753 1.356 . S
C3747 C3746 1.363 . S
C3747 C3750 1.363 . S
N3748 C3750 1.356 . S
N3748 H3760 0.984 . S
N3748 H3761 0.985 . S
N3749 C3751 1.356 . S
N3749 H3754 0.984 . S
N3749 H3755 0.985 . S
C3750 C3744 1.379 . S
C3750 C3747 1.363 . S
C3750 N3748 1.356 . S
C3751 C3745 1.363 . S
C3751 C3746 1.379 . S
C3751 N3749 1.356 . S
N3752 C3744 1.356 . S
N3752 H3758 0.984 . S
N3752 H3759 0.984 . S
N3753 C3746 1.356 . S
N3753 H3756 0.984 . S
N3753 H3757 0.985 . S
H3754 N3749 0.984 . S
H3755 N3749 0.985 . S
H3756 N3753 0.984 . S
H3757 N3753 0.985 . S
H3758 N3752 0.984 . S
H3759 N3752 0.984 . S
H3760 N3748 0.984 . S
H3761 N3748 0.985 . S
C3762 C3763 1.363 . S
C3762 C3768 1.379 . S
C3762 N3770 1.356 . S
C3763 C3762 1.363 . S
C3763 C3769 1.363 . S
C3764 C3765 1.363 . S
C3764 C3769 1.379 . S
C3764 N3771 1.356 . S
C3765 C3764 1.363 . S
C3765 C3768 1.363 . S
N3766 C3768 1.356 . S
N3766 H3778 0.984 . S
N3766 H3779 0.985 . S
N3767 C3769 1.356 . S
N3767 H3772 0.984 . S
N3767 H3773 0.985 . S
C3768 C3762 1.379 . S
C3768 C3765 1.363 . S
C3768 N3766 1.356 . S
C3769 C3763 1.363 . S
C3769 C3764 1.379 . S
C3769 N3767 1.356 . S
N3770 C3762 1.356 . S
N3770 H3776 0.984 . S
N3770 H3777 0.984 . S
N3771 C3764 1.356 . S
N3771 H3774 0.984 . S
N3771 H3775 0.985 . S
H3772 N3767 0.984 . S
H3773 N3767 0.985 . S
H3774 N3771 0.984 . S
H3775 N3771 0.985 . S
H3776 N3770 0.984 . S
H3777 N3770 0.984 . S
H3778 N3766 0.984 . S
H3779 N3766 0.985 . S
C3780 C3781 1.363 . S
C3780 C3786 1.379 . S
C3780 N3788 1.356 . S
C3781 C3780 1.363 . S
C3781 C3787 1.363 . S
C3782 C3783 1.363 . S
C3782 C3787 1.379 . S
C3782 N3789 1.356 . S
C3783 C3782 1.363 . S
C3783 C3786 1.363 . S
N3784 C3786 1.356 . S
N3784 H3796 0.984 . S
N3784 H3797 0.985 . S
N3785 C3787 1.356 . S
N3785 H3790 0.984 . S
N3785 H3791 0.985 . S
C3786 C3780 1.379 . S
C3786 C3783 1.363 . S
C3786 N3784 1.356 . S
C3787 C3781 1.363 . S
C3787 C3782 1.379 . S
C3787 N3785 1.356 . S
N3788 C3780 1.356 . S
N3788 H3794 0.984 . S
N3788 H3795 0.984 . S
N3789 C3782 1.356 . S
N3789 H3792 0.984 . S
N3789 H3793 0.985 . S
H3790 N3785 0.984 . S
H3791 N3785 0.985 . S
H3792 N3789 0.984 . S
H3793 N3789 0.985 . S
H3794 N3788 0.984 . S
H3795 N3788 0.984 . S
H3796 N3784 0.984 . S
H3797 N3784 0.985 . S
C3798 C3799 1.363 . S
C3798 C3804 1.379 . S
C3798 N3806 1.356 . S
C3799 C3798 1.363 . S
C3799 C3805 1.363 . S
C3800 C3801 1.363 . S
C3800 C3805 1.379 . S
C3800 N3807 1.356 . S
C3801 C3800 1.363 . S
C3801 C3804 1.363 . S
N3802 C3804 1.356 . S
N3802 H3814 0.984 . S
N3802 H3815 0.985 . S
N3803 C3805 1.356 . S
N3803 H3808 0.984 . S
N3803 H3809 0.985 . S
C3804 C3798 1.379 . S
C3804 C3801 1.363 . S
C3804 N3802 1.356 . S
C3805 C3799 1.363 . S
C3805 C3800 1.379 . S
C3805 N3803 1.356 . S
N3806 C3798 1.356 . S
N3806 H3812 0.984 . S
N3806 H3813 0.984 . S
N3807 C3800 1.356 . S
N3807 H3810 0.984 . S
N3807 H3811 0.985 . S
H3808 N3803 0.984 . S
H3809 N3803 0.985 . S
H3810 N3807 0.984 . S
H3811 N3807 0.985 . S
H3812 N3806 0.984 . S
H3813 N3806 0.984 . S
H3814 N3802 0.984 . S
H3815 N3802 0.985 . S
C3816 C3817 1.363 . S
C3816 C3822 1.379 . S
C3816 N3824 1.356 . S
C3817 C3816 1.363 . S
C3817 C3823 1.363 . S
C3818 C3819 1.363 . S
C3818 C3823 1.379 . S
C3818 N3825 1.356 . S
C3819 C3818 1.363 . S
C3819 C3822 1.363 . S
N3820 C3822 1.356 . S
N3820 H3832 0.984 . S
N3820 H3833 0.985 . S
N3821 C3823 1.356 . S
N3821 H3826 0.984 . S
N3821 H3827 0.985 . S
C3822 C3816 1.379 . S
C3822 C3819 1.363 . S
C3822 N3820 1.356 . S
C3823 C3817 1.363 . S
C3823 C3818 1.379 . S
C3823 N3821 1.356 . S
N3824 C3816 1.356 . S
N3824 H3830 0.984 . S
N3824 H3831 0.984 . S
N3825 C3818 1.356 . S
N3825 H3828 0.984 . S
N3825 H3829 0.985 . S
H3826 N3821 0.984 . S
H3827 N3821 0.985 . S
H3828 N3825 0.984 . S
H3829 N3825 0.985 . S
H3830 N3824 0.984 . S
H3831 N3824 0.984 . S
H3832 N3820 0.984 . S
H3833 N3820 0.985 . S
C3834 C3835 1.363 . S
C3834 C3840 1.379 . S
C3834 N3842 1.356 . S
C3835 C3834 1.363 . S
C3835 C3841 1.363 . S
C3836 C3837 1.363 . S
C3836 C3841 1.379 . S
C3836 N3843 1.356 . S
C3837 C3836 1.363 . S
C3837 C3840 1.363 . S
N3838 C3840 1.356 . S
N3838 H3850 0.984 . S
N3838 H3851 0.985 . S
N3839 C3841 1.356 . S
N3839 H3844 0.984 . S
N3839 H3845 0.985 . S
C3840 C3834 1.379 . S
C3840 C3837 1.363 . S
C3840 N3838 1.356 . S
C3841 C3835 1.363 . S
C3841 C3836 1.379 . S
C3841 N3839 1.356 . S
N3842 C3834 1.356 . S
N3842 H3848 0.984 . S
N3842 H3849 0.984 . S
N3843 C3836 1.356 . S
N3843 H3846 0.984 . S
N3843 H3847 0.985 . S
H3844 N3839 0.984 . S
H3845 N3839 0.985 . S
H3846 N3843 0.984 . S
H3847 N3843 0.985 . S
H3848 N3842 0.984 . S
H3849 N3842 0.984 . S
H3850 N3838 0.984 . S
H3851 N3838 0.985 . S
C3852 C3853 1.363 . S
C3852 C3858 1.379 . S
C3852 N3860 1.356 . S
C3853 C3852 1.363 . S
C3853 C3859 1.363 . S
C3854 C3855 1.363 . S
C3854 C3859 1.379 . S
C3854 N3861 1.356 . S
C3855 C3854 1.363 . S
C3855 C3858 1.363 . S
N3856 C3858 1.356 . S
N3856 H3868 0.984 . S
N3856 H3869 0.985 . S
N3857 C3859 1.356 . S
N3857 H3862 0.984 . S
N3857 H3863 0.985 . S
C3858 C3852 1.379 . S
C3858 C3855 1.363 . S
C3858 N3856 1.356 . S
C3859 C3853 1.363 . S
C3859 C3854 1.379 . S
C3859 N3857 1.356 . S
N3860 C3852 1.356 . S
N3860 H3866 0.984 . S
N3860 H3867 0.984 . S
N3861 C3854 1.356 . S
N3861 H3864 0.984 . S
N3861 H3865 0.985 . S
H3862 N3857 0.984 . S
H3863 N3857 0.985 . S
H3864 N3861 0.984 . S
H3865 N3861 0.985 . S
H3866 N3860 0.984 . S
H3867 N3860 0.984 . S
H3868 N3856 0.984 . S
H3869 N3856 0.985 . S
C3870 C3871 1.363 . S
C3870 C3876 1.379 . S
C3870 N3878 1.356 . S
C3871 C3870 1.363 . S
C3871 C3877 1.363 . S
C3872 C3873 1.363 . S
C3872 C3877 1.379 . S
C3872 N3879 1.356 . S
C3873 C3872 1.363 . S
C3873 C3876 1.363 . S
N3874 C3876 1.356 . S
N3874 H3886 0.984 . S
N3874 H3887 0.985 . S
N3875 C3877 1.356 . S
N3875 H3880 0.984 . S
N3875 H3881 0.985 . S
C3876 C3870 1.379 . S
C3876 C3873 1.363 . S
C3876 N3874 1.356 . S
C3877 C3871 1.363 . S
C3877 C3872 1.379 . S
C3877 N3875 1.356 . S
N3878 C3870 1.356 . S
N3878 H3884 0.984 . S
N3878 H3885 0.984 . S
N3879 C3872 1.356 . S
N3879 H3882 0.984 . S
N3879 H3883 0.985 . S
H3880 N3875 0.984 . S
H3881 N3875 0.985 . S
H3882 N3879 0.984 . S
H3883 N3879 0.985 . S
H3884 N3878 0.984 . S
H3885 N3878 0.984 . S
H3886 N3874 0.984 . S
H3887 N3874 0.985 . S
C3888 C3889 1.363 . S
C3888 C3894 1.379 . S
C3888 N3896 1.356 . S
C3889 C3888 1.363 . S
C3889 C3895 1.363 . S
C3890 C3891 1.363 . S
C3890 C3895 1.379 . S
C3890 N3897 1.356 . S
C3891 C3890 1.363 . S
C3891 C3894 1.363 . S
N3892 C3894 1.356 . S
N3892 H3904 0.984 . S
N3892 H3905 0.985 . S
N3893 C3895 1.356 . S
N3893 H3898 0.984 . S
N3893 H3899 0.985 . S
C3894 C3888 1.379 . S
C3894 C3891 1.363 . S
C3894 N3892 1.356 . S
C3895 C3889 1.363 . S
C3895 C3890 1.379 . S
C3895 N3893 1.356 . S
N3896 C3888 1.356 . S
N3896 H3902 0.984 . S
N3896 H3903 0.984 . S
N3897 C3890 1.356 . S
N3897 H3900 0.984 . S
N3897 H3901 0.985 . S
H3898 N3893 0.984 . S
H3899 N3893 0.985 . S
H3900 N3897 0.984 . S
H3901 N3897 0.985 . S
H3902 N3896 0.984 . S
H3903 N3896 0.984 . S
H3904 N3892 0.984 . S
H3905 N3892 0.985 . S
C3906 C3907 1.363 . S
C3906 C3912 1.379 . S
C3906 N3914 1.356 . S
C3907 C3906 1.363 . S
C3907 C3913 1.363 . S
C3908 C3909 1.363 . S
C3908 C3913 1.379 . S
C3908 N3915 1.356 . S
C3909 C3908 1.363 . S
C3909 C3912 1.363 . S
N3910 C3912 1.356 . S
N3910 H3922 0.984 . S
N3910 H3923 0.985 . S
N3911 C3913 1.356 . S
N3911 H3916 0.984 . S
N3911 H3917 0.985 . S
C3912 C3906 1.379 . S
C3912 C3909 1.363 . S
C3912 N3910 1.356 . S
C3913 C3907 1.363 . S
C3913 C3908 1.379 . S
C3913 N3911 1.356 . S
N3914 C3906 1.356 . S
N3914 H3920 0.984 . S
N3914 H3921 0.984 . S
N3915 C3908 1.356 . S
N3915 H3918 0.984 . S
N3915 H3919 0.985 . S
H3916 N3911 0.984 . S
H3917 N3911 0.985 . S
H3918 N3915 0.984 . S
H3919 N3915 0.985 . S
H3920 N3914 0.984 . S
H3921 N3914 0.984 . S
H3922 N3910 0.984 . S
H3923 N3910 0.985 . S
C3924 C3925 1.363 . S
C3924 C3930 1.379 . S
C3924 N3932 1.356 . S
C3925 C3924 1.363 . S
C3925 C3931 1.363 . S
C3926 C3927 1.363 . S
C3926 C3931 1.379 . S
C3926 N3933 1.356 . S
C3927 C3926 1.363 . S
C3927 C3930 1.363 . S
N3928 C3930 1.356 . S
N3928 H3940 0.984 . S
N3928 H3941 0.985 . S
N3929 C3931 1.356 . S
N3929 H3934 0.984 . S
N3929 H3935 0.985 . S
C3930 C3924 1.379 . S
C3930 C3927 1.363 . S
C3930 N3928 1.356 . S
C3931 C3925 1.363 . S
C3931 C3926 1.379 . S
C3931 N3929 1.356 . S
N3932 C3924 1.356 . S
N3932 H3938 0.984 . S
N3932 H3939 0.984 . S
N3933 C3926 1.356 . S
N3933 H3936 0.984 . S
N3933 H3937 0.985 . S
H3934 N3929 0.984 . S
H3935 N3929 0.985 . S
H3936 N3933 0.984 . S
H3937 N3933 0.985 . S
H3938 N3932 0.984 . S
H3939 N3932 0.984 . S
H3940 N3928 0.984 . S
H3941 N3928 0.985 . S
C3942 C3943 1.363 . S
C3942 C3948 1.379 . S
C3942 N3950 1.356 . S
C3943 C3942 1.363 . S
C3943 C3949 1.363 . S
C3944 C3945 1.363 . S
C3944 C3949 1.379 . S
C3944 N3951 1.356 . S
C3945 C3944 1.363 . S
C3945 C3948 1.363 . S
N3946 C3948 1.356 . S
N3946 H3958 0.984 . S
N3946 H3959 0.985 . S
N3947 C3949 1.356 . S
N3947 H3952 0.984 . S
N3947 H3953 0.985 . S
C3948 C3942 1.379 . S
C3948 C3945 1.363 . S
C3948 N3946 1.356 . S
C3949 C3943 1.363 . S
C3949 C3944 1.379 . S
C3949 N3947 1.356 . S
N3950 C3942 1.356 . S
N3950 H3956 0.984 . S
N3950 H3957 0.984 . S
N3951 C3944 1.356 . S
N3951 H3954 0.984 . S
N3951 H3955 0.985 . S
H3952 N3947 0.984 . S
H3953 N3947 0.985 . S
H3954 N3951 0.984 . S
H3955 N3951 0.985 . S
H3956 N3950 0.984 . S
H3957 N3950 0.984 . S
H3958 N3946 0.984 . S
H3959 N3946 0.985 . S
C3960 C3961 1.363 . S
C3960 C3966 1.379 . S
C3960 N3968 1.356 . S
C3961 C3960 1.363 . S
C3961 C3967 1.363 . S
C3962 C3963 1.363 . S
C3962 C3967 1.379 . S
C3962 N3969 1.356 . S
C3963 C3962 1.363 . S
C3963 C3966 1.363 . S
N3964 C3966 1.356 . S
N3964 H3976 0.984 . S
N3964 H3977 0.985 . S
N3965 C3967 1.356 . S
N3965 H3970 0.984 . S
N3965 H3971 0.985 . S
C3966 C3960 1.379 . S
C3966 C3963 1.363 . S
C3966 N3964 1.356 . S
C3967 C3961 1.363 . S
C3967 C3962 1.379 . S
C3967 N3965 1.356 . S
N3968 C3960 1.356 . S
N3968 H3974 0.984 . S
N3968 H3975 0.984 . S
N3969 C3962 1.356 . S
N3969 H3972 0.984 . S
N3969 H3973 0.985 . S
H3970 N3965 0.984 . S
H3971 N3965 0.985 . S
H3972 N3969 0.984 . S
H3973 N3969 0.985 . S
H3974 N3968 0.984 . S
H3975 N3968 0.984 . S
H3976 N3964 0.984 . S
H3977 N3964 0.985 . S
C3978 C3979 1.363 . S
C3978 C3984 1.379 . S
C3978 N3986 1.356 . S
C3979 C3978 1.363 . S
C3979 C3985 1.363 . S
C3980 C3981 1.363 . S
C3980 C3985 1.379 . S
C3980 N3987 1.356 . S
C3981 C3980 1.363 . S
C3981 C3984 1.363 . S
N3982 C3984 1.356 . S
N3982 H3994 0.984 . S
N3982 H3995 0.985 . S
N3983 C3985 1.356 . S
N3983 H3988 0.984 . S
N3983 H3989 0.985 . S
C3984 C3978 1.379 . S
C3984 C3981 1.363 . S
C3984 N3982 1.356 . S
C3985 C3979 1.363 . S
C3985 C3980 1.379 . S
C3985 N3983 1.356 . S
N3986 C3978 1.356 . S
N3986 H3992 0.984 . S
N3986 H3993 0.984 . S
N3987 C3980 1.356 . S
N3987 H3990 0.984 . S
N3987 H3991 0.985 . S
H3988 N3983 0.984 . S
H3989 N3983 0.985 . S
H3990 N3987 0.984 . S
H3991 N3987 0.985 . S
H3992 N3986 0.984 . S
H3993 N3986 0.984 . S
H3994 N3982 0.984 . S
H3995 N3982 0.985 . S
C3996 C3997 1.363 . S
C3996 C4002 1.379 . S
C3996 N4004 1.356 . S
C3997 C3996 1.363 . S
C3997 C4003 1.363 . S
C3998 C3999 1.363 . S
C3998 C4003 1.379 . S
C3998 N4005 1.356 . S
C3999 C3998 1.363 . S
C3999 C4002 1.363 . S
N4000 C4002 1.356 . S
N4000 H4012 0.984 . S
N4000 H4013 0.985 . S
N4001 C4003 1.356 . S
N4001 H4006 0.984 . S
N4001 H4007 0.985 . S
C4002 C3996 1.379 . S
C4002 C3999 1.363 . S
C4002 N4000 1.356 . S
C4003 C3997 1.363 . S
C4003 C3998 1.379 . S
C4003 N4001 1.356 . S
N4004 C3996 1.356 . S
N4004 H4010 0.984 . S
N4004 H4011 0.984 . S
N4005 C3998 1.356 . S
N4005 H4008 0.984 . S
N4005 H4009 0.985 . S
H4006 N4001 0.984 . S
H4007 N4001 0.985 . S
H4008 N4005 0.984 . S
H4009 N4005 0.985 . S
H4010 N4004 0.984 . S
H4011 N4004 0.984 . S
H4012 N4000 0.984 . S
H4013 N4000 0.985 . S
C4014 C4015 1.363 . S
C4014 C4020 1.379 . S
C4014 N4022 1.356 . S
C4015 C4014 1.363 . S
C4015 C4021 1.363 . S
C4016 C4017 1.363 . S
C4016 C4021 1.379 . S
C4016 N4023 1.356 . S
C4017 C4016 1.363 . S
C4017 C4020 1.363 . S
N4018 C4020 1.356 . S
N4018 H4030 0.984 . S
N4018 H4031 0.985 . S
N4019 C4021 1.356 . S
N4019 H4024 0.984 . S
N4019 H4025 0.985 . S
C4020 C4014 1.379 . S
C4020 C4017 1.363 . S
C4020 N4018 1.356 . S
C4021 C4015 1.363 . S
C4021 C4016 1.379 . S
C4021 N4019 1.356 . S
N4022 C4014 1.356 . S
N4022 H4028 0.984 . S
N4022 H4029 0.984 . S
N4023 C4016 1.356 . S
N4023 H4026 0.984 . S
N4023 H4027 0.985 . S
H4024 N4019 0.984 . S
H4025 N4019 0.985 . S
H4026 N4023 0.984 . S
H4027 N4023 0.985 . S
H4028 N4022 0.984 . S
H4029 N4022 0.984 . S
H4030 N4018 0.984 . S
H4031 N4018 0.985 . S
C4032 C4033 1.363 . S
C4032 C4038 1.379 . S
C4032 N4040 1.356 . S
C4033 C4032 1.363 . S
C4033 C4039 1.363 . S
C4034 C4035 1.363 . S
C4034 C4039 1.379 . S
C4034 N4041 1.356 . S
C4035 C4034 1.363 . S
C4035 C4038 1.363 . S
N4036 C4038 1.356 . S
N4036 H4048 0.984 . S
N4036 H4049 0.985 . S
N4037 C4039 1.356 . S
N4037 H4042 0.984 . S
N4037 H4043 0.985 . S
C4038 C4032 1.379 . S
C4038 C4035 1.363 . S
C4038 N4036 1.356 . S
C4039 C4033 1.363 . S
C4039 C4034 1.379 . S
C4039 N4037 1.356 . S
N4040 C4032 1.356 . S
N4040 H4046 0.984 . S
N4040 H4047 0.984 . S
N4041 C4034 1.356 . S
N4041 H4044 0.984 . S
N4041 H4045 0.985 . S
H4042 N4037 0.984 . S
H4043 N4037 0.985 . S
H4044 N4041 0.984 . S
H4045 N4041 0.985 . S
H4046 N4040 0.984 . S
H4047 N4040 0.984 . S
H4048 N4036 0.984 . S
H4049 N4036 0.985 . S
C4050 C4051 1.363 . S
C4050 C4056 1.379 . S
C4050 N4058 1.356 . S
C4051 C4050 1.363 . S
C4051 C4057 1.363 . S
C4052 C4053 1.363 . S
C4052 C4057 1.379 . S
C4052 N4059 1.356 . S
C4053 C4052 1.363 . S
C4053 C4056 1.363 . S
N4054 C4056 1.356 . S
N4054 H4066 0.984 . S
N4054 H4067 0.985 . S
N4055 C4057 1.356 . S
N4055 H4060 0.984 . S
N4055 H4061 0.985 . S
C4056 C4050 1.379 . S
C4056 C4053 1.363 . S
C4056 N4054 1.356 . S
C4057 C4051 1.363 . S
C4057 C4052 1.379 . S
C4057 N4055 1.356 . S
N4058 C4050 1.356 . S
N4058 H4064 0.984 . S
N4058 H4065 0.984 . S
N4059 C4052 1.356 . S
N4059 H4062 0.984 . S
N4059 H4063 0.985 . S
H4060 N4055 0.984 . S
H4061 N4055 0.985 . S
H4062 N4059 0.984 . S
H4063 N4059 0.985 . S
H4064 N4058 0.984 . S
H4065 N4058 0.984 . S
H4066 N4054 0.984 . S
H4067 N4054 0.985 . S
C4068 C4069 1.363 . S
C4068 C4074 1.379 . S
C4068 N4076 1.356 . S
C4069 C4068 1.363 . S
C4069 C4075 1.363 . S
C4070 C4071 1.363 . S
C4070 C4075 1.379 . S
C4070 N4077 1.356 . S
C4071 C4070 1.363 . S
C4071 C4074 1.363 . S
N4072 C4074 1.356 . S
N4072 H4084 0.984 . S
N4072 H4085 0.985 . S
N4073 C4075 1.356 . S
N4073 H4078 0.984 . S
N4073 H4079 0.985 . S
C4074 C4068 1.379 . S
C4074 C4071 1.363 . S
C4074 N4072 1.356 . S
C4075 C4069 1.363 . S
C4075 C4070 1.379 . S
C4075 N4073 1.356 . S
N4076 C4068 1.356 . S
N4076 H4082 0.984 . S
N4076 H4083 0.984 . S
N4077 C4070 1.356 . S
N4077 H4080 0.984 . S
N4077 H4081 0.985 . S
H4078 N4073 0.984 . S
H4079 N4073 0.985 . S
H4080 N4077 0.984 . S
H4081 N4077 0.985 . S
H4082 N4076 0.984 . S
H4083 N4076 0.984 . S
H4084 N4072 0.984 . S
H4085 N4072 0.985 . S
C4086 C4087 1.363 . S
C4086 C4092 1.379 . S
C4086 N4094 1.356 . S
C4087 C4086 1.363 . S
C4087 C4093 1.363 . S
C4088 C4089 1.363 . S
C4088 C4093 1.379 . S
C4088 N4095 1.356 . S
C4089 C4088 1.363 . S
C4089 C4092 1.363 . S
N4090 C4092 1.356 . S
N4090 H4102 0.984 . S
N4090 H4103 0.985 . S
N4091 C4093 1.356 . S
N4091 H4096 0.984 . S
N4091 H4097 0.985 . S
C4092 C4086 1.379 . S
C4092 C4089 1.363 . S
C4092 N4090 1.356 . S
C4093 C4087 1.363 . S
C4093 C4088 1.379 . S
C4093 N4091 1.356 . S
N4094 C4086 1.356 . S
N4094 H4100 0.984 . S
N4094 H4101 0.984 . S
N4095 C4088 1.356 . S
N4095 H4098 0.984 . S
N4095 H4099 0.985 . S
H4096 N4091 0.984 . S
H4097 N4091 0.985 . S
H4098 N4095 0.984 . S
H4099 N4095 0.985 . S
H4100 N4094 0.984 . S
H4101 N4094 0.984 . S
H4102 N4090 0.984 . S
H4103 N4090 0.985 . S
C4104 C4105 1.363 . S
C4104 C4110 1.379 . S
C4104 N4112 1.356 . S
C4105 C4104 1.363 . S
C4105 C4111 1.363 . S
C4106 C4107 1.363 . S
C4106 C4111 1.379 . S
C4106 N4113 1.356 . S
C4107 C4106 1.363 . S
C4107 C4110 1.363 . S
N4108 C4110 1.356 . S
N4108 H4120 0.984 . S
N4108 H4121 0.985 . S
N4109 C4111 1.356 . S
N4109 H4114 0.984 . S
N4109 H4115 0.985 . S
C4110 C4104 1.379 . S
C4110 C4107 1.363 . S
C4110 N4108 1.356 . S
C4111 C4105 1.363 . S
C4111 C4106 1.379 . S
C4111 N4109 1.356 . S
N4112 C4104 1.356 . S
N4112 H4118 0.984 . S
N4112 H4119 0.984 . S
N4113 C4106 1.356 . S
N4113 H4116 0.984 . S
N4113 H4117 0.985 . S
H4114 N4109 0.984 . S
H4115 N4109 0.985 . S
H4116 N4113 0.984 . S
H4117 N4113 0.985 . S
H4118 N4112 0.984 . S
H4119 N4112 0.984 . S
H4120 N4108 0.984 . S
H4121 N4108 0.985 . S
C4122 C4123 1.363 . S
C4122 C4128 1.379 . S
C4122 N4130 1.356 . S
C4123 C4122 1.363 . S
C4123 C4129 1.363 . S
C4124 C4125 1.363 . S
C4124 C4129 1.379 . S
C4124 N4131 1.356 . S
C4125 C4124 1.363 . S
C4125 C4128 1.363 . S
N4126 C4128 1.356 . S
N4126 H4138 0.984 . S
N4126 H4139 0.985 . S
N4127 C4129 1.356 . S
N4127 H4132 0.984 . S
N4127 H4133 0.985 . S
C4128 C4122 1.379 . S
C4128 C4125 1.363 . S
C4128 N4126 1.356 . S
C4129 C4123 1.363 . S
C4129 C4124 1.379 . S
C4129 N4127 1.356 . S
N4130 C4122 1.356 . S
N4130 H4136 0.984 . S
N4130 H4137 0.984 . S
N4131 C4124 1.356 . S
N4131 H4134 0.984 . S
N4131 H4135 0.985 . S
H4132 N4127 0.984 . S
H4133 N4127 0.985 . S
H4134 N4131 0.984 . S
H4135 N4131 0.985 . S
H4136 N4130 0.984 . S
H4137 N4130 0.984 . S
H4138 N4126 0.984 . S
H4139 N4126 0.985 . S
C4140 C4141 1.363 . S
C4140 C4146 1.379 . S
C4140 N4148 1.356 . S
C4141 C4140 1.363 . S
C4141 C4147 1.363 . S
C4142 C4143 1.363 . S
C4142 C4147 1.379 . S
C4142 N4149 1.356 . S
C4143 C4142 1.363 . S
C4143 C4146 1.363 . S
N4144 C4146 1.356 . S
N4144 H4156 0.984 . S
N4144 H4157 0.985 . S
N4145 C4147 1.356 . S
N4145 H4150 0.984 . S
N4145 H4151 0.985 . S
C4146 C4140 1.379 . S
C4146 C4143 1.363 . S
C4146 N4144 1.356 . S
C4147 C4141 1.363 . S
C4147 C4142 1.379 . S
C4147 N4145 1.356 . S
N4148 C4140 1.356 . S
N4148 H4154 0.984 . S
N4148 H4155 0.984 . S
N4149 C4142 1.356 . S
N4149 H4152 0.984 . S
N4149 H4153 0.985 . S
H4150 N4145 0.984 . S
H4151 N4145 0.985 . S
H4152 N4149 0.984 . S
H4153 N4149 0.985 . S
H4154 N4148 0.984 . S
H4155 N4148 0.984 . S
H4156 N4144 0.984 . S
H4157 N4144 0.985 . S
C4158 C4159 1.363 . S
C4158 C4164 1.379 . S
C4158 N4166 1.356 . S
C4159 C4158 1.363 . S
C4159 C4165 1.363 . S
C4160 C4161 1.363 . S
C4160 C4165 1.379 . S
C4160 N4167 1.356 . S
C4161 C4160 1.363 . S
C4161 C4164 1.363 . S
N4162 C4164 1.356 . S
N4162 H4174 0.984 . S
N4162 H4175 0.985 . S
N4163 C4165 1.356 . S
N4163 H4168 0.984 . S
N4163 H4169 0.985 . S
C4164 C4158 1.379 . S
C4164 C4161 1.363 . S
C4164 N4162 1.356 . S
C4165 C4159 1.363 . S
C4165 C4160 1.379 . S
C4165 N4163 1.356 . S
N4166 C4158 1.356 . S
N4166 H4172 0.984 . S
N4166 H4173 0.984 . S
N4167 C4160 1.356 . S
N4167 H4170 0.984 . S
N4167 H4171 0.985 . S
H4168 N4163 0.984 . S
H4169 N4163 0.985 . S
H4170 N4167 0.984 . S
H4171 N4167 0.985 . S
H4172 N4166 0.984 . S
H4173 N4166 0.984 . S
H4174 N4162 0.984 . S
H4175 N4162 0.985 . S
C4176 C4177 1.363 . S
C4176 C4182 1.379 . S
C4176 N4184 1.356 . S
C4177 C4176 1.363 . S
C4177 C4183 1.363 . S
C4178 C4179 1.363 . S
C4178 C4183 1.379 . S
C4178 N4185 1.356 . S
C4179 C4178 1.363 . S
C4179 C4182 1.363 . S
N4180 C4182 1.356 . S
N4180 H4192 0.984 . S
N4180 H4193 0.985 . S
N4181 C4183 1.356 . S
N4181 H4186 0.984 . S
N4181 H4187 0.985 . S
C4182 C4176 1.379 . S
C4182 C4179 1.363 . S
C4182 N4180 1.356 . S
C4183 C4177 1.363 . S
C4183 C4178 1.379 . S
C4183 N4181 1.356 . S
N4184 C4176 1.356 . S
N4184 H4190 0.984 . S
N4184 H4191 0.984 . S
N4185 C4178 1.356 . S
N4185 H4188 0.984 . S
N4185 H4189 0.985 . S
H4186 N4181 0.984 . S
H4187 N4181 0.985 . S
H4188 N4185 0.984 . S
H4189 N4185 0.985 . S
H4190 N4184 0.984 . S
H4191 N4184 0.984 . S
H4192 N4180 0.984 . S
H4193 N4180 0.985 . S
C4194 C4195 1.363 . S
C4194 C4200 1.379 . S
C4194 N4202 1.356 . S
C4195 C4194 1.363 . S
C4195 C4201 1.363 . S
C4196 C4197 1.363 . S
C4196 C4201 1.379 . S
C4196 N4203 1.356 . S
C4197 C4196 1.363 . S
C4197 C4200 1.363 . S
N4198 C4200 1.356 . S
N4198 H4210 0.984 . S
N4198 H4211 0.985 . S
N4199 C4201 1.356 . S
N4199 H4204 0.984 . S
N4199 H4205 0.985 . S
C4200 C4194 1.379 . S
C4200 C4197 1.363 . S
C4200 N4198 1.356 . S
C4201 C4195 1.363 . S
C4201 C4196 1.379 . S
C4201 N4199 1.356 . S
N4202 C4194 1.356 . S
N4202 H4208 0.984 . S
N4202 H4209 0.984 . S
N4203 C4196 1.356 . S
N4203 H4206 0.984 . S
N4203 H4207 0.985 . S
H4204 N4199 0.984 . S
H4205 N4199 0.985 . S
H4206 N4203 0.984 . S
H4207 N4203 0.985 . S
H4208 N4202 0.984 . S
H4209 N4202 0.984 . S
H4210 N4198 0.984 . S
H4211 N4198 0.985 . S
C4212 C4213 1.363 . S
C4212 C4218 1.379 . S
C4212 N4220 1.356 . S
C4213 C4212 1.363 . S
C4213 C4219 1.363 . S
C4214 C4215 1.363 . S
C4214 C4219 1.379 . S
C4214 N4221 1.356 . S
C4215 C4214 1.363 . S
C4215 C4218 1.363 . S
N4216 C4218 1.356 . S
N4216 H4228 0.984 . S
N4216 H4229 0.985 . S
N4217 C4219 1.356 . S
N4217 H4222 0.984 . S
N4217 H4223 0.985 . S
C4218 C4212 1.379 . S
C4218 C4215 1.363 . S
C4218 N4216 1.356 . S
C4219 C4213 1.363 . S
C4219 C4214 1.379 . S
C4219 N4217 1.356 . S
N4220 C4212 1.356 . S
N4220 H4226 0.984 . S
N4220 H4227 0.984 . S
N4221 C4214 1.356 . S
N4221 H4224 0.984 . S
N4221 H4225 0.985 . S
H4222 N4217 0.984 . S
H4223 N4217 0.985 . S
H4224 N4221 0.984 . S
H4225 N4221 0.985 . S
H4226 N4220 0.984 . S
H4227 N4220 0.984 . S
H4228 N4216 0.984 . S
H4229 N4216 0.985 . S
C4230 C4231 1.363 . S
C4230 C4236 1.379 . S
C4230 N4238 1.356 . S
C4231 C4230 1.363 . S
C4231 C4237 1.363 . S
C4232 C4233 1.363 . S
C4232 C4237 1.379 . S
C4232 N4239 1.356 . S
C4233 C4232 1.363 . S
C4233 C4236 1.363 . S
N4234 C4236 1.356 . S
N4234 H4246 0.984 . S
N4234 H4247 0.985 . S
N4235 C4237 1.356 . S
N4235 H4240 0.984 . S
N4235 H4241 0.985 . S
C4236 C4230 1.379 . S
C4236 C4233 1.363 . S
C4236 N4234 1.356 . S
C4237 C4231 1.363 . S
C4237 C4232 1.379 . S
C4237 N4235 1.356 . S
N4238 C4230 1.356 . S
N4238 H4244 0.984 . S
N4238 H4245 0.984 . S
N4239 C4232 1.356 . S
N4239 H4242 0.984 . S
N4239 H4243 0.985 . S
H4240 N4235 0.984 . S
H4241 N4235 0.985 . S
H4242 N4239 0.984 . S
H4243 N4239 0.985 . S
H4244 N4238 0.984 . S
H4245 N4238 0.984 . S
H4246 N4234 0.984 . S
H4247 N4234 0.985 . S
C4248 C4249 1.363 . S
C4248 C4254 1.379 . S
C4248 N4256 1.356 . S
C4249 C4248 1.363 . S
C4249 C4255 1.363 . S
C4250 C4251 1.363 . S
C4250 C4255 1.379 . S
C4250 N4257 1.356 . S
C4251 C4250 1.363 . S
C4251 C4254 1.363 . S
N4252 C4254 1.356 . S
N4252 H4264 0.984 . S
N4252 H4265 0.985 . S
N4253 C4255 1.356 . S
N4253 H4258 0.984 . S
N4253 H4259 0.985 . S
C4254 C4248 1.379 . S
C4254 C4251 1.363 . S
C4254 N4252 1.356 . S
C4255 C4249 1.363 . S
C4255 C4250 1.379 . S
C4255 N4253 1.356 . S
N4256 C4248 1.356 . S
N4256 H4262 0.984 . S
N4256 H4263 0.984 . S
N4257 C4250 1.356 . S
N4257 H4260 0.984 . S
N4257 H4261 0.985 . S
H4258 N4253 0.984 . S
H4259 N4253 0.985 . S
H4260 N4257 0.984 . S
H4261 N4257 0.985 . S
H4262 N4256 0.984 . S
H4263 N4256 0.984 . S
H4264 N4252 0.984 . S
H4265 N4252 0.985 . S
C4266 C4267 1.363 . S
C4266 C4272 1.379 . S
C4266 N4274 1.356 . S
C4267 C4266 1.363 . S
C4267 C4273 1.363 . S
C4268 C4269 1.363 . S
C4268 C4273 1.379 . S
C4268 N4275 1.356 . S
C4269 C4268 1.363 . S
C4269 C4272 1.363 . S
N4270 C4272 1.356 . S
N4270 H4282 0.984 . S
N4270 H4283 0.985 . S
N4271 C4273 1.356 . S
N4271 H4276 0.984 . S
N4271 H4277 0.985 . S
C4272 C4266 1.379 . S
C4272 C4269 1.363 . S
C4272 N4270 1.356 . S
C4273 C4267 1.363 . S
C4273 C4268 1.379 . S
C4273 N4271 1.356 . S
N4274 C4266 1.356 . S
N4274 H4280 0.984 . S
N4274 H4281 0.984 . S
N4275 C4268 1.356 . S
N4275 H4278 0.984 . S
N4275 H4279 0.985 . S
H4276 N4271 0.984 . S
H4277 N4271 0.985 . S
H4278 N4275 0.984 . S
H4279 N4275 0.985 . S
H4280 N4274 0.984 . S
H4281 N4274 0.984 . S
H4282 N4270 0.984 . S
H4283 N4270 0.985 . S
C4284 C4285 1.363 . S
C4284 C4290 1.379 . S
C4284 N4292 1.356 . S
C4285 C4284 1.363 . S
C4285 C4291 1.363 . S
C4286 C4287 1.363 . S
C4286 C4291 1.379 . S
C4286 N4293 1.356 . S
C4287 C4286 1.363 . S
C4287 C4290 1.363 . S
N4288 C4290 1.356 . S
N4288 H4300 0.984 . S
N4288 H4301 0.985 . S
N4289 C4291 1.356 . S
N4289 H4294 0.984 . S
N4289 H4295 0.985 . S
C4290 C4284 1.379 . S
C4290 C4287 1.363 . S
C4290 N4288 1.356 . S
C4291 C4285 1.363 . S
C4291 C4286 1.379 . S
C4291 N4289 1.356 . S
N4292 C4284 1.356 . S
N4292 H4298 0.984 . S
N4292 H4299 0.984 . S
N4293 C4286 1.356 . S
N4293 H4296 0.984 . S
N4293 H4297 0.985 . S
H4294 N4289 0.984 . S
H4295 N4289 0.985 . S
H4296 N4293 0.984 . S
H4297 N4293 0.985 . S
H4298 N4292 0.984 . S
H4299 N4292 0.984 . S
H4300 N4288 0.984 . S
H4301 N4288 0.985 . S
C4302 C4303 1.363 . S
C4302 C4308 1.379 . S
C4302 N4310 1.356 . S
C4303 C4302 1.363 . S
C4303 C4309 1.363 . S
C4304 C4305 1.363 . S
C4304 C4309 1.379 . S
C4304 N4311 1.356 . S
C4305 C4304 1.363 . S
C4305 C4308 1.363 . S
N4306 C4308 1.356 . S
N4306 H4318 0.984 . S
N4306 H4319 0.985 . S
N4307 C4309 1.356 . S
N4307 H4312 0.984 . S
N4307 H4313 0.985 . S
C4308 C4302 1.379 . S
C4308 C4305 1.363 . S
C4308 N4306 1.356 . S
C4309 C4303 1.363 . S
C4309 C4304 1.379 . S
C4309 N4307 1.356 . S
N4310 C4302 1.356 . S
N4310 H4316 0.984 . S
N4310 H4317 0.984 . S
N4311 C4304 1.356 . S
N4311 H4314 0.984 . S
N4311 H4315 0.985 . S
H4312 N4307 0.984 . S
H4313 N4307 0.985 . S
H4314 N4311 0.984 . S
H4315 N4311 0.985 . S
H4316 N4310 0.984 . S
H4317 N4310 0.984 . S
H4318 N4306 0.984 . S
H4319 N4306 0.985 . S
C4320 C4321 1.363 . S
C4320 C4326 1.379 . S
C4320 N4328 1.356 . S
C4321 C4320 1.363 . S
C4321 C4327 1.363 . S
C4322 C4323 1.363 . S
C4322 C4327 1.379 . S
C4322 N4329 1.356 . S
C4323 C4322 1.363 . S
C4323 C4326 1.363 . S
N4324 C4326 1.356 . S
N4324 H4336 0.984 . S
N4324 H4337 0.985 . S
N4325 C4327 1.356 . S
N4325 H4330 0.984 . S
N4325 H4331 0.985 . S
C4326 C4320 1.379 . S
C4326 C4323 1.363 . S
C4326 N4324 1.356 . S
C4327 C4321 1.363 . S
C4327 C4322 1.379 . S
C4327 N4325 1.356 . S
N4328 C4320 1.356 . S
N4328 H4334 0.984 . S
N4328 H4335 0.984 . S
N4329 C4322 1.356 . S
N4329 H4332 0.984 . S
N4329 H4333 0.985 . S
H4330 N4325 0.984 . S
H4331 N4325 0.985 . S
H4332 N4329 0.984 . S
H4333 N4329 0.985 . S
H4334 N4328 0.984 . S
H4335 N4328 0.984 . S
H4336 N4324 0.984 . S
H4337 N4324 0.985 . S
C4338 C4339 1.363 . S
C4338 C4344 1.379 . S
C4338 N4346 1.356 . S
C4339 C4338 1.363 . S
C4339 C4345 1.363 . S
C4340 C4341 1.363 . S
C4340 C4345 1.379 . S
C4340 N4347 1.356 . S
C4341 C4340 1.363 . S
C4341 C4344 1.363 . S
N4342 C4344 1.356 . S
N4342 H4354 0.984 . S
N4342 H4355 0.985 . S
N4343 C4345 1.356 . S
N4343 H4348 0.984 . S
N4343 H4349 0.985 . S
C4344 C4338 1.379 . S
C4344 C4341 1.363 . S
C4344 N4342 1.356 . S
C4345 C4339 1.363 . S
C4345 C4340 1.379 . S
C4345 N4343 1.356 . S
N4346 C4338 1.356 . S
N4346 H4352 0.984 . S
N4346 H4353 0.984 . S
N4347 C4340 1.356 . S
N4347 H4350 0.984 . S
N4347 H4351 0.985 . S
H4348 N4343 0.984 . S
H4349 N4343 0.985 . S
H4350 N4347 0.984 . S
H4351 N4347 0.985 . S
H4352 N4346 0.984 . S
H4353 N4346 0.984 . S
H4354 N4342 0.984 . S
H4355 N4342 0.985 . S
C4356 C4357 1.363 . S
C4356 C4362 1.379 . S
C4356 N4364 1.356 . S
C4357 C4356 1.363 . S
C4357 C4363 1.363 . S
C4358 C4359 1.363 . S
C4358 C4363 1.379 . S
C4358 N4365 1.356 . S
C4359 C4358 1.363 . S
C4359 C4362 1.363 . S
N4360 C4362 1.356 . S
N4360 H4372 0.984 . S
N4360 H4373 0.985 . S
N4361 C4363 1.356 . S
N4361 H4366 0.984 . S
N4361 H4367 0.985 . S
C4362 C4356 1.379 . S
C4362 C4359 1.363 . S
C4362 N4360 1.356 . S
C4363 C4357 1.363 . S
C4363 C4358 1.379 . S
C4363 N4361 1.356 . S
N4364 C4356 1.356 . S
N4364 H4370 0.984 . S
N4364 H4371 0.984 . S
N4365 C4358 1.356 . S
N4365 H4368 0.984 . S
N4365 H4369 0.985 . S
H4366 N4361 0.984 . S
H4367 N4361 0.985 . S
H4368 N4365 0.984 . S
H4369 N4365 0.985 . S
H4370 N4364 0.984 . S
H4371 N4364 0.984 . S
H4372 N4360 0.984 . S
H4373 N4360 0.985 . S
C4374 C4375 1.363 . S
C4374 C4380 1.379 . S
C4374 N4382 1.356 . S
C4375 C4374 1.363 . S
C4375 C4381 1.363 . S
C4376 C4377 1.363 . S
C4376 C4381 1.379 . S
C4376 N4383 1.356 . S
C4377 C4376 1.363 . S
C4377 C4380 1.363 . S
N4378 C4380 1.356 . S
N4378 H4390 0.984 . S
N4378 H4391 0.985 . S
N4379 C4381 1.356 . S
N4379 H4384 0.984 . S
N4379 H4385 0.985 . S
C4380 C4374 1.379 . S
C4380 C4377 1.363 . S
C4380 N4378 1.356 . S
C4381 C4375 1.363 . S
C4381 C4376 1.379 . S
C4381 N4379 1.356 . S
N4382 C4374 1.356 . S
N4382 H4388 0.984 . S
N4382 H4389 0.984 . S
N4383 C4376 1.356 . S
N4383 H4386 0.984 . S
N4383 H4387 0.985 . S
H4384 N4379 0.984 . S
H4385 N4379 0.985 . S
H4386 N4383 0.984 . S
H4387 N4383 0.985 . S
H4388 N4382 0.984 . S
H4389 N4382 0.984 . S
H4390 N4378 0.984 . S
H4391 N4378 0.985 . S
C4392 C4393 1.363 . S
C4392 C4398 1.379 . S
C4392 N4400 1.356 . S
C4393 C4392 1.363 . S
C4393 C4399 1.363 . S
C4394 C4395 1.363 . S
C4394 C4399 1.379 . S
C4394 N4401 1.356 . S
C4395 C4394 1.363 . S
C4395 C4398 1.363 . S
N4396 C4398 1.356 . S
N4396 H4408 0.984 . S
N4396 H4409 0.985 . S
N4397 C4399 1.356 . S
N4397 H4402 0.984 . S
N4397 H4403 0.985 . S
C4398 C4392 1.379 . S
C4398 C4395 1.363 . S
C4398 N4396 1.356 . S
C4399 C4393 1.363 . S
C4399 C4394 1.379 . S
C4399 N4397 1.356 . S
N4400 C4392 1.356 . S
N4400 H4406 0.984 . S
N4400 H4407 0.984 . S
N4401 C4394 1.356 . S
N4401 H4404 0.984 . S
N4401 H4405 0.985 . S
H4402 N4397 0.984 . S
H4403 N4397 0.985 . S
H4404 N4401 0.984 . S
H4405 N4401 0.985 . S
H4406 N4400 0.984 . S
H4407 N4400 0.984 . S
H4408 N4396 0.984 . S
H4409 N4396 0.985 . S
C4410 C4411 1.363 . S
C4410 C4416 1.379 . S
C4410 N4418 1.356 . S
C4411 C4410 1.363 . S
C4411 C4417 1.363 . S
C4412 C4413 1.363 . S
C4412 C4417 1.379 . S
C4412 N4419 1.356 . S
C4413 C4412 1.363 . S
C4413 C4416 1.363 . S
N4414 C4416 1.356 . S
N4414 H4426 0.984 . S
N4414 H4427 0.985 . S
N4415 C4417 1.356 . S
N4415 H4420 0.984 . S
N4415 H4421 0.985 . S
C4416 C4410 1.379 . S
C4416 C4413 1.363 . S
C4416 N4414 1.356 . S
C4417 C4411 1.363 . S
C4417 C4412 1.379 . S
C4417 N4415 1.356 . S
N4418 C4410 1.356 . S
N4418 H4424 0.984 . S
N4418 H4425 0.984 . S
N4419 C4412 1.356 . S
N4419 H4422 0.984 . S
N4419 H4423 0.985 . S
H4420 N4415 0.984 . S
H4421 N4415 0.985 . S
H4422 N4419 0.984 . S
H4423 N4419 0.985 . S
H4424 N4418 0.984 . S
H4425 N4418 0.984 . S
H4426 N4414 0.984 . S
H4427 N4414 0.985 . S
C4428 C4429 1.363 . S
C4428 C4434 1.379 . S
C4428 N4436 1.356 . S
C4429 C4428 1.363 . S
C4429 C4435 1.363 . S
C4430 C4431 1.363 . S
C4430 C4435 1.379 . S
C4430 N4437 1.356 . S
C4431 C4430 1.363 . S
C4431 C4434 1.363 . S
N4432 C4434 1.356 . S
N4432 H4444 0.984 . S
N4432 H4445 0.985 . S
N4433 C4435 1.356 . S
N4433 H4438 0.984 . S
N4433 H4439 0.985 . S
C4434 C4428 1.379 . S
C4434 C4431 1.363 . S
C4434 N4432 1.356 . S
C4435 C4429 1.363 . S
C4435 C4430 1.379 . S
C4435 N4433 1.356 . S
N4436 C4428 1.356 . S
N4436 H4442 0.984 . S
N4436 H4443 0.984 . S
N4437 C4430 1.356 . S
N4437 H4440 0.984 . S
N4437 H4441 0.985 . S
H4438 N4433 0.984 . S
H4439 N4433 0.985 . S
H4440 N4437 0.984 . S
H4441 N4437 0.985 . S
H4442 N4436 0.984 . S
H4443 N4436 0.984 . S
H4444 N4432 0.984 . S
H4445 N4432 0.985 . S
C4446 C4447 1.363 . S
C4446 C4452 1.379 . S
C4446 N4454 1.356 . S
C4447 C4446 1.363 . S
C4447 C4453 1.363 . S
C4448 C4449 1.363 . S
C4448 C4453 1.379 . S
C4448 N4455 1.356 . S
C4449 C4448 1.363 . S
C4449 C4452 1.363 . S
N4450 C4452 1.356 . S
N4450 H4462 0.984 . S
N4450 H4463 0.985 . S
N4451 C4453 1.356 . S
N4451 H4456 0.984 . S
N4451 H4457 0.985 . S
C4452 C4446 1.379 . S
C4452 C4449 1.363 . S
C4452 N4450 1.356 . S
C4453 C4447 1.363 . S
C4453 C4448 1.379 . S
C4453 N4451 1.356 . S
N4454 C4446 1.356 . S
N4454 H4460 0.984 . S
N4454 H4461 0.984 . S
N4455 C4448 1.356 . S
N4455 H4458 0.984 . S
N4455 H4459 0.985 . S
H4456 N4451 0.984 . S
H4457 N4451 0.985 . S
H4458 N4455 0.984 . S
H4459 N4455 0.985 . S
H4460 N4454 0.984 . S
H4461 N4454 0.984 . S
H4462 N4450 0.984 . S
H4463 N4450 0.985 . S
C4464 C4465 1.363 . S
C4464 C4470 1.379 . S
C4464 N4472 1.356 . S
C4465 C4464 1.363 . S
C4465 C4471 1.363 . S
C4466 C4467 1.363 . S
C4466 C4471 1.379 . S
C4466 N4473 1.356 . S
C4467 C4466 1.363 . S
C4467 C4470 1.363 . S
N4468 C4470 1.356 . S
N4468 H4480 0.984 . S
N4468 H4481 0.985 . S
N4469 C4471 1.356 . S
N4469 H4474 0.984 . S
N4469 H4475 0.985 . S
C4470 C4464 1.379 . S
C4470 C4467 1.363 . S
C4470 N4468 1.356 . S
C4471 C4465 1.363 . S
C4471 C4466 1.379 . S
C4471 N4469 1.356 . S
N4472 C4464 1.356 . S
N4472 H4478 0.984 . S
N4472 H4479 0.984 . S
N4473 C4466 1.356 . S
N4473 H4476 0.984 . S
N4473 H4477 0.985 . S
H4474 N4469 0.984 . S
H4475 N4469 0.985 . S
H4476 N4473 0.984 . S
H4477 N4473 0.985 . S
H4478 N4472 0.984 . S
H4479 N4472 0.984 . S
H4480 N4468 0.984 . S
H4481 N4468 0.985 . S
C4482 C4483 1.363 . S
C4482 C4488 1.379 . S
C4482 N4490 1.356 . S
C4483 C4482 1.363 . S
C4483 C4489 1.363 . S
C4484 C4485 1.363 . S
C4484 C4489 1.379 . S
C4484 N4491 1.356 . S
C4485 C4484 1.363 . S
C4485 C4488 1.363 . S
N4486 C4488 1.356 . S
N4486 H4498 0.984 . S
N4486 H4499 0.985 . S
N4487 C4489 1.356 . S
N4487 H4492 0.984 . S
N4487 H4493 0.985 . S
C4488 C4482 1.379 . S
C4488 C4485 1.363 . S
C4488 N4486 1.356 . S
C4489 C4483 1.363 . S
C4489 C4484 1.379 . S
C4489 N4487 1.356 . S
N4490 C4482 1.356 . S
N4490 H4496 0.984 . S
N4490 H4497 0.984 . S
N4491 C4484 1.356 . S
N4491 H4494 0.984 . S
N4491 H4495 0.985 . S
H4492 N4487 0.984 . S
H4493 N4487 0.985 . S
H4494 N4491 0.984 . S
H4495 N4491 0.985 . S
H4496 N4490 0.984 . S
H4497 N4490 0.984 . S
H4498 N4486 0.984 . S
H4499 N4486 0.985 . S
C4500 C4501 1.363 . S
C4500 C4506 1.379 . S
C4500 N4508 1.356 . S
C4501 C4500 1.363 . S
C4501 C4507 1.363 . S
C4502 C4503 1.363 . S
C4502 C4507 1.379 . S
C4502 N4509 1.356 . S
C4503 C4502 1.363 . S
C4503 C4506 1.363 . S
N4504 C4506 1.356 . S
N4504 H4516 0.984 . S
N4504 H4517 0.985 . S
N4505 C4507 1.356 . S
N4505 H4510 0.984 . S
N4505 H4511 0.985 . S
C4506 C4500 1.379 . S
C4506 C4503 1.363 . S
C4506 N4504 1.356 . S
C4507 C4501 1.363 . S
C4507 C4502 1.379 . S
C4507 N4505 1.356 . S
N4508 C4500 1.356 . S
N4508 H4514 0.984 . S
N4508 H4515 0.984 . S
N4509 C4502 1.356 . S
N4509 H4512 0.984 . S
N4509 H4513 0.985 . S
H4510 N4505 0.984 . S
H4511 N4505 0.985 . S
H4512 N4509 0.984 . S
H4513 N4509 0.985 . S
H4514 N4508 0.984 . S
H4515 N4508 0.984 . S
H4516 N4504 0.984 . S
H4517 N4504 0.985 . S
C4518 C4519 1.363 . S
C4518 C4524 1.379 . S
C4518 N4526 1.356 . S
C4519 C4518 1.363 . S
C4519 C4525 1.363 . S
C4520 C4521 1.363 . S
C4520 C4525 1.379 . S
C4520 N4527 1.356 . S
C4521 C4520 1.363 . S
C4521 C4524 1.363 . S
N4522 C4524 1.356 . S
N4522 H4534 0.984 . S
N4522 H4535 0.985 . S
N4523 C4525 1.356 . S
N4523 H4528 0.984 . S
N4523 H4529 0.985 . S
C4524 C4518 1.379 . S
C4524 C4521 1.363 . S
C4524 N4522 1.356 . S
C4525 C4519 1.363 . S
C4525 C4520 1.379 . S
C4525 N4523 1.356 . S
N4526 C4518 1.356 . S
N4526 H4532 0.984 . S
N4526 H4533 0.984 . S
N4527 C4520 1.356 . S
N4527 H4530 0.984 . S
N4527 H4531 0.985 . S
H4528 N4523 0.984 . S
H4529 N4523 0.985 . S
H4530 N4527 0.984 . S
H4531 N4527 0.985 . S
H4532 N4526 0.984 . S
H4533 N4526 0.984 . S
H4534 N4522 0.984 . S
H4535 N4522 0.985 . S
C4536 C4537 1.363 . S
C4536 C4542 1.379 . S
C4536 N4544 1.356 . S
C4537 C4536 1.363 . S
C4537 C4543 1.363 . S
C4538 C4539 1.363 . S
C4538 C4543 1.379 . S
C4538 N4545 1.356 . S
C4539 C4538 1.363 . S
C4539 C4542 1.363 . S
N4540 C4542 1.356 . S
N4540 H4552 0.984 . S
N4540 H4553 0.985 . S
N4541 C4543 1.356 . S
N4541 H4546 0.984 . S
N4541 H4547 0.985 . S
C4542 C4536 1.379 . S
C4542 C4539 1.363 . S
C4542 N4540 1.356 . S
C4543 C4537 1.363 . S
C4543 C4538 1.379 . S
C4543 N4541 1.356 . S
N4544 C4536 1.356 . S
N4544 H4550 0.984 . S
N4544 H4551 0.984 . S
N4545 C4538 1.356 . S
N4545 H4548 0.984 . S
N4545 H4549 0.985 . S
H4546 N4541 0.984 . S
H4547 N4541 0.985 . S
H4548 N4545 0.984 . S
H4549 N4545 0.985 . S
H4550 N4544 0.984 . S
H4551 N4544 0.984 . S
H4552 N4540 0.984 . S
H4553 N4540 0.985 . S
C4554 C4555 1.363 . S
C4554 C4560 1.379 . S
C4554 N4562 1.356 . S
C4555 C4554 1.363 . S
C4555 C4561 1.363 . S
C4556 C4557 1.363 . S
C4556 C4561 1.379 . S
C4556 N4563 1.356 . S
C4557 C4556 1.363 . S
C4557 C4560 1.363 . S
N4558 C4560 1.356 . S
N4558 H4570 0.984 . S
N4558 H4571 0.985 . S
N4559 C4561 1.356 . S
N4559 H4564 0.984 . S
N4559 H4565 0.985 . S
C4560 C4554 1.379 . S
C4560 C4557 1.363 . S
C4560 N4558 1.356 . S
C4561 C4555 1.363 . S
C4561 C4556 1.379 . S
C4561 N4559 1.356 . S
N4562 C4554 1.356 . S
N4562 H4568 0.984 . S
N4562 H4569 0.984 . S
N4563 C4556 1.356 . S
N4563 H4566 0.984 . S
N4563 H4567 0.985 . S
H4564 N4559 0.984 . S
H4565 N4559 0.985 . S
H4566 N4563 0.984 . S
H4567 N4563 0.985 . S
H4568 N4562 0.984 . S
H4569 N4562 0.984 . S
H4570 N4558 0.984 . S
H4571 N4558 0.985 . S
C4572 C4573 1.363 . S
C4572 C4578 1.379 . S
C4572 N4580 1.356 . S
C4573 C4572 1.363 . S
C4573 C4579 1.363 . S
C4574 C4575 1.363 . S
C4574 C4579 1.379 . S
C4574 N4581 1.356 . S
C4575 C4574 1.363 . S
C4575 C4578 1.363 . S
N4576 C4578 1.356 . S
N4576 H4588 0.984 . S
N4576 H4589 0.985 . S
N4577 C4579 1.356 . S
N4577 H4582 0.984 . S
N4577 H4583 0.985 . S
C4578 C4572 1.379 . S
C4578 C4575 1.363 . S
C4578 N4576 1.356 . S
C4579 C4573 1.363 . S
C4579 C4574 1.379 . S
C4579 N4577 1.356 . S
N4580 C4572 1.356 . S
N4580 H4586 0.984 . S
N4580 H4587 0.984 . S
N4581 C4574 1.356 . S
N4581 H4584 0.984 . S
N4581 H4585 0.985 . S
H4582 N4577 0.984 . S
H4583 N4577 0.985 . S
H4584 N4581 0.984 . S
H4585 N4581 0.985 . S
H4586 N4580 0.984 . S
H4587 N4580 0.984 . S
H4588 N4576 0.984 . S
H4589 N4576 0.985 . S
C4590 C4591 1.363 . S
C4590 C4596 1.379 . S
C4590 N4598 1.356 . S
C4591 C4590 1.363 . S
C4591 C4597 1.363 . S
C4592 C4593 1.363 . S
C4592 C4597 1.379 . S
C4592 N4599 1.356 . S
C4593 C4592 1.363 . S
C4593 C4596 1.363 . S
N4594 C4596 1.356 . S
N4594 H4606 0.984 . S
N4594 H4607 0.985 . S
N4595 C4597 1.356 . S
N4595 H4600 0.984 . S
N4595 H4601 0.985 . S
C4596 C4590 1.379 . S
C4596 C4593 1.363 . S
C4596 N4594 1.356 . S
C4597 C4591 1.363 . S
C4597 C4592 1.379 . S
C4597 N4595 1.356 . S
N4598 C4590 1.356 . S
N4598 H4604 0.984 . S
N4598 H4605 0.984 . S
N4599 C4592 1.356 . S
N4599 H4602 0.984 . S
N4599 H4603 0.985 . S
H4600 N4595 0.984 . S
H4601 N4595 0.985 . S
H4602 N4599 0.984 . S
H4603 N4599 0.985 . S
H4604 N4598 0.984 . S
H4605 N4598 0.984 . S
H4606 N4594 0.984 . S
H4607 N4594 0.985 . S
C4608 C4609 1.363 . S
C4608 C4614 1.379 . S
C4608 N4616 1.356 . S
C4609 C4608 1.363 . S
C4609 C4615 1.363 . S
C4610 C4611 1.363 . S
C4610 C4615 1.379 . S
C4610 N4617 1.356 . S
C4611 C4610 1.363 . S
C4611 C4614 1.363 . S
N4612 C4614 1.356 . S
N4612 H4624 0.984 . S
N4612 H4625 0.985 . S
N4613 C4615 1.356 . S
N4613 H4618 0.984 . S
N4613 H4619 0.985 . S
C4614 C4608 1.379 . S
C4614 C4611 1.363 . S
C4614 N4612 1.356 . S
C4615 C4609 1.363 . S
C4615 C4610 1.379 . S
C4615 N4613 1.356 . S
N4616 C4608 1.356 . S
N4616 H4622 0.984 . S
N4616 H4623 0.984 . S
N4617 C4610 1.356 . S
N4617 H4620 0.984 . S
N4617 H4621 0.985 . S
H4618 N4613 0.984 . S
H4619 N4613 0.985 . S
H4620 N4617 0.984 . S
H4621 N4617 0.985 . S
H4622 N4616 0.984 . S
H4623 N4616 0.984 . S
H4624 N4612 0.984 . S
H4625 N4612 0.985 . S
C4626 C4627 1.363 . S
C4626 C4632 1.379 . S
C4626 N4634 1.356 . S
C4627 C4626 1.363 . S
C4627 C4633 1.363 . S
C4628 C4629 1.363 . S
C4628 C4633 1.379 . S
C4628 N4635 1.356 . S
C4629 C4628 1.363 . S
C4629 C4632 1.363 . S
N4630 C4632 1.356 . S
N4630 H4642 0.984 . S
N4630 H4643 0.985 . S
N4631 C4633 1.356 . S
N4631 H4636 0.984 . S
N4631 H4637 0.985 . S
C4632 C4626 1.379 . S
C4632 C4629 1.363 . S
C4632 N4630 1.356 . S
C4633 C4627 1.363 . S
C4633 C4628 1.379 . S
C4633 N4631 1.356 . S
N4634 C4626 1.356 . S
N4634 H4640 0.984 . S
N4634 H4641 0.984 . S
N4635 C4628 1.356 . S
N4635 H4638 0.984 . S
N4635 H4639 0.985 . S
H4636 N4631 0.984 . S
H4637 N4631 0.985 . S
H4638 N4635 0.984 . S
H4639 N4635 0.985 . S
H4640 N4634 0.984 . S
H4641 N4634 0.984 . S
H4642 N4630 0.984 . S
H4643 N4630 0.985 . S
C4644 C4645 1.363 . S
C4644 C4650 1.379 . S
C4644 N4652 1.356 . S
C4645 C4644 1.363 . S
C4645 C4651 1.363 . S
C4646 C4647 1.363 . S
C4646 C4651 1.379 . S
C4646 N4653 1.356 . S
C4647 C4646 1.363 . S
C4647 C4650 1.363 . S
N4648 C4650 1.356 . S
N4648 H4660 0.984 . S
N4648 H4661 0.985 . S
N4649 C4651 1.356 . S
N4649 H4654 0.984 . S
N4649 H4655 0.985 . S
C4650 C4644 1.379 . S
C4650 C4647 1.363 . S
C4650 N4648 1.356 . S
C4651 C4645 1.363 . S
C4651 C4646 1.379 . S
C4651 N4649 1.356 . S
N4652 C4644 1.356 . S
N4652 H4658 0.984 . S
N4652 H4659 0.984 . S
N4653 C4646 1.356 . S
N4653 H4656 0.984 . S
N4653 H4657 0.985 . S
H4654 N4649 0.984 . S
H4655 N4649 0.985 . S
H4656 N4653 0.984 . S
H4657 N4653 0.985 . S
H4658 N4652 0.984 . S
H4659 N4652 0.984 . S
H4660 N4648 0.984 . S
H4661 N4648 0.985 . S
C4662 C4663 1.363 . S
C4662 C4668 1.379 . S
C4662 N4670 1.356 . S
C4663 C4662 1.363 . S
C4663 C4669 1.363 . S
C4664 C4665 1.363 . S
C4664 C4669 1.379 . S
C4664 N4671 1.356 . S
C4665 C4664 1.363 . S
C4665 C4668 1.363 . S
N4666 C4668 1.356 . S
N4666 H4678 0.984 . S
N4666 H4679 0.985 . S
N4667 C4669 1.356 . S
N4667 H4672 0.984 . S
N4667 H4673 0.985 . S
C4668 C4662 1.379 . S
C4668 C4665 1.363 . S
C4668 N4666 1.356 . S
C4669 C4663 1.363 . S
C4669 C4664 1.379 . S
C4669 N4667 1.356 . S
N4670 C4662 1.356 . S
N4670 H4676 0.984 . S
N4670 H4677 0.984 . S
N4671 C4664 1.356 . S
N4671 H4674 0.984 . S
N4671 H4675 0.985 . S
H4672 N4667 0.984 . S
H4673 N4667 0.985 . S
H4674 N4671 0.984 . S
H4675 N4671 0.985 . S
H4676 N4670 0.984 . S
H4677 N4670 0.984 . S
H4678 N4666 0.984 . S
H4679 N4666 0.985 . S
C4680 C4681 1.363 . S
C4680 C4686 1.379 . S
C4680 N4688 1.356 . S
C4681 C4680 1.363 . S
C4681 C4687 1.363 . S
C4682 C4683 1.363 . S
C4682 C4687 1.379 . S
C4682 N4689 1.356 . S
C4683 C4682 1.363 . S
C4683 C4686 1.363 . S
N4684 C4686 1.356 . S
N4684 H4696 0.984 . S
N4684 H4697 0.985 . S
N4685 C4687 1.356 . S
N4685 H4690 0.984 . S
N4685 H4691 0.985 . S
C4686 C4680 1.379 . S
C4686 C4683 1.363 . S
C4686 N4684 1.356 . S
C4687 C4681 1.363 . S
C4687 C4682 1.379 . S
C4687 N4685 1.356 . S
N4688 C4680 1.356 . S
N4688 H4694 0.984 . S
N4688 H4695 0.984 . S
N4689 C4682 1.356 . S
N4689 H4692 0.984 . S
N4689 H4693 0.985 . S
H4690 N4685 0.984 . S
H4691 N4685 0.985 . S
H4692 N4689 0.984 . S
H4693 N4689 0.985 . S
H4694 N4688 0.984 . S
H4695 N4688 0.984 . S
H4696 N4684 0.984 . S
H4697 N4684 0.985 . S
C4698 C4699 1.363 . S
C4698 C4704 1.379 . S
C4698 N4706 1.356 . S
C4699 C4698 1.363 . S
C4699 C4705 1.363 . S
C4700 C4701 1.363 . S
C4700 C4705 1.379 . S
C4700 N4707 1.356 . S
C4701 C4700 1.363 . S
C4701 C4704 1.363 . S
N4702 C4704 1.356 . S
N4702 H4714 0.984 . S
N4702 H4715 0.985 . S
N4703 C4705 1.356 . S
N4703 H4708 0.984 . S
N4703 H4709 0.985 . S
C4704 C4698 1.379 . S
C4704 C4701 1.363 . S
C4704 N4702 1.356 . S
C4705 C4699 1.363 . S
C4705 C4700 1.379 . S
C4705 N4703 1.356 . S
N4706 C4698 1.356 . S
N4706 H4712 0.984 . S
N4706 H4713 0.984 . S
N4707 C4700 1.356 . S
N4707 H4710 0.984 . S
N4707 H4711 0.985 . S
H4708 N4703 0.984 . S
H4709 N4703 0.985 . S
H4710 N4707 0.984 . S
H4711 N4707 0.985 . S
H4712 N4706 0.984 . S
H4713 N4706 0.984 . S
H4714 N4702 0.984 . S
H4715 N4702 0.985 . S
C4716 C4717 1.363 . S
C4716 C4722 1.379 . S
C4716 N4724 1.356 . S
C4717 C4716 1.363 . S
C4717 C4723 1.363 . S
C4718 C4719 1.363 . S
C4718 C4723 1.379 . S
C4718 N4725 1.356 . S
C4719 C4718 1.363 . S
C4719 C4722 1.363 . S
N4720 C4722 1.356 . S
N4720 H4732 0.984 . S
N4720 H4733 0.985 . S
N4721 C4723 1.356 . S
N4721 H4726 0.984 . S
N4721 H4727 0.985 . S
C4722 C4716 1.379 . S
C4722 C4719 1.363 . S
C4722 N4720 1.356 . S
C4723 C4717 1.363 . S
C4723 C4718 1.379 . S
C4723 N4721 1.356 . S
N4724 C4716 1.356 . S
N4724 H4730 0.984 . S
N4724 H4731 0.984 . S
N4725 C4718 1.356 . S
N4725 H4728 0.984 . S
N4725 H4729 0.985 . S
H4726 N4721 0.984 . S
H4727 N4721 0.985 . S
H4728 N4725 0.984 . S
H4729 N4725 0.985 . S
H4730 N4724 0.984 . S
H4731 N4724 0.984 . S
H4732 N4720 0.984 . S
H4733 N4720 0.985 . S
C4734 C4735 1.363 . S
C4734 C4740 1.379 . S
C4734 N4742 1.356 . S
C4735 C4734 1.363 . S
C4735 C4741 1.363 . S
C4736 C4737 1.363 . S
C4736 C4741 1.379 . S
C4736 N4743 1.356 . S
C4737 C4736 1.363 . S
C4737 C4740 1.363 . S
N4738 C4740 1.356 . S
N4738 H4750 0.984 . S
N4738 H4751 0.985 . S
N4739 C4741 1.356 . S
N4739 H4744 0.984 . S
N4739 H4745 0.985 . S
C4740 C4734 1.379 . S
C4740 C4737 1.363 . S
C4740 N4738 1.356 . S
C4741 C4735 1.363 . S
C4741 C4736 1.379 . S
C4741 N4739 1.356 . S
N4742 C4734 1.356 . S
N4742 H4748 0.984 . S
N4742 H4749 0.984 . S
N4743 C4736 1.356 . S
N4743 H4746 0.984 . S
N4743 H4747 0.985 . S
H4744 N4739 0.984 . S
H4745 N4739 0.985 . S
H4746 N4743 0.984 . S
H4747 N4743 0.985 . S
H4748 N4742 0.984 . S
H4749 N4742 0.984 . S
H4750 N4738 0.984 . S
H4751 N4738 0.985 . S
C4752 C4753 1.363 . S
C4752 C4758 1.379 . S
C4752 N4760 1.356 . S
C4753 C4752 1.363 . S
C4753 C4759 1.363 . S
C4754 C4755 1.363 . S
C4754 C4759 1.379 . S
C4754 N4761 1.356 . S
C4755 C4754 1.363 . S
C4755 C4758 1.363 . S
N4756 C4758 1.356 . S
N4756 H4768 0.984 . S
N4756 H4769 0.985 . S
N4757 C4759 1.356 . S
N4757 H4762 0.984 . S
N4757 H4763 0.985 . S
C4758 C4752 1.379 . S
C4758 C4755 1.363 . S
C4758 N4756 1.356 . S
C4759 C4753 1.363 . S
C4759 C4754 1.379 . S
C4759 N4757 1.356 . S
N4760 C4752 1.356 . S
N4760 H4766 0.984 . S
N4760 H4767 0.984 . S
N4761 C4754 1.356 . S
N4761 H4764 0.984 . S
N4761 H4765 0.985 . S
H4762 N4757 0.984 . S
H4763 N4757 0.985 . S
H4764 N4761 0.984 . S
H4765 N4761 0.985 . S
H4766 N4760 0.984 . S
H4767 N4760 0.984 . S
H4768 N4756 0.984 . S
H4769 N4756 0.985 . S
C4770 C4771 1.363 . S
C4770 C4776 1.379 . S
C4770 N4778 1.356 . S
C4771 C4770 1.363 . S
C4771 C4777 1.363 . S
C4772 C4773 1.363 . S
C4772 C4777 1.379 . S
C4772 N4779 1.356 . S
C4773 C4772 1.363 . S
C4773 C4776 1.363 . S
N4774 C4776 1.356 . S
N4774 H4786 0.984 . S
N4774 H4787 0.985 . S
N4775 C4777 1.356 . S
N4775 H4780 0.984 . S
N4775 H4781 0.985 . S
C4776 C4770 1.379 . S
C4776 C4773 1.363 . S
C4776 N4774 1.356 . S
C4777 C4771 1.363 . S
C4777 C4772 1.379 . S
C4777 N4775 1.356 . S
N4778 C4770 1.356 . S
N4778 H4784 0.984 . S
N4778 H4785 0.984 . S
N4779 C4772 1.356 . S
N4779 H4782 0.984 . S
N4779 H4783 0.985 . S
H4780 N4775 0.984 . S
H4781 N4775 0.985 . S
H4782 N4779 0.984 . S
H4783 N4779 0.985 . S
H4784 N4778 0.984 . S
H4785 N4778 0.984 . S
H4786 N4774 0.984 . S
H4787 N4774 0.985 . S
C4788 C4789 1.363 . S
C4788 C4794 1.379 . S
C4788 N4796 1.356 . S
C4789 C4788 1.363 . S
C4789 C4795 1.363 . S
C4790 C4791 1.363 . S
C4790 C4795 1.379 . S
C4790 N4797 1.356 . S
C4791 C4790 1.363 . S
C4791 C4794 1.363 . S
N4792 C4794 1.356 . S
N4792 H4804 0.984 . S
N4792 H4805 0.985 . S
N4793 C4795 1.356 . S
N4793 H4798 0.984 . S
N4793 H4799 0.985 . S
C4794 C4788 1.379 . S
C4794 C4791 1.363 . S
C4794 N4792 1.356 . S
C4795 C4789 1.363 . S
C4795 C4790 1.379 . S
C4795 N4793 1.356 . S
N4796 C4788 1.356 . S
N4796 H4802 0.984 . S
N4796 H4803 0.984 . S
N4797 C4790 1.356 . S
N4797 H4800 0.984 . S
N4797 H4801 0.985 . S
H4798 N4793 0.984 . S
H4799 N4793 0.985 . S
H4800 N4797 0.984 . S
H4801 N4797 0.985 . S
H4802 N4796 0.984 . S
H4803 N4796 0.984 . S
H4804 N4792 0.984 . S
H4805 N4792 0.985 . S
C4806 C4807 1.363 . S
C4806 C4812 1.379 . S
C4806 N4814 1.356 . S
C4807 C4806 1.363 . S
C4807 C4813 1.363 . S
C4808 C4809 1.363 . S
C4808 C4813 1.379 . S
C4808 N4815 1.356 . S
C4809 C4808 1.363 . S
C4809 C4812 1.363 . S
N4810 C4812 1.356 . S
N4810 H4822 0.984 . S
N4810 H4823 0.985 . S
N4811 C4813 1.356 . S
N4811 H4816 0.984 . S
N4811 H4817 0.985 . S
C4812 C4806 1.379 . S
C4812 C4809 1.363 . S
C4812 N4810 1.356 . S
C4813 C4807 1.363 . S
C4813 C4808 1.379 . S
C4813 N4811 1.356 . S
N4814 C4806 1.356 . S
N4814 H4820 0.984 . S
N4814 H4821 0.984 . S
N4815 C4808 1.356 . S
N4815 H4818 0.984 . S
N4815 H4819 0.985 . S
H4816 N4811 0.984 . S
H4817 N4811 0.985 . S
H4818 N4815 0.984 . S
H4819 N4815 0.985 . S
H4820 N4814 0.984 . S
H4821 N4814 0.984 . S
H4822 N4810 0.984 . S
H4823 N4810 0.985 . S
C4824 C4825 1.363 . S
C4824 C4830 1.379 . S
C4824 N4832 1.356 . S
C4825 C4824 1.363 . S
C4825 C4831 1.363 . S
C4826 C4827 1.363 . S
C4826 C4831 1.379 . S
C4826 N4833 1.356 . S
C4827 C4826 1.363 . S
C4827 C4830 1.363 . S
N4828 C4830 1.356 . S
N4828 H4840 0.984 . S
N4828 H4841 0.985 . S
N4829 C4831 1.356 . S
N4829 H4834 0.984 . S
N4829 H4835 0.985 . S
C4830 C4824 1.379 . S
C4830 C4827 1.363 . S
C4830 N4828 1.356 . S
C4831 C4825 1.363 . S
C4831 C4826 1.379 . S
C4831 N4829 1.356 . S
N4832 C4824 1.356 . S
N4832 H4838 0.984 . S
N4832 H4839 0.984 . S
N4833 C4826 1.356 . S
N4833 H4836 0.984 . S
N4833 H4837 0.985 . S
H4834 N4829 0.984 . S
H4835 N4829 0.985 . S
H4836 N4833 0.984 . S
H4837 N4833 0.985 . S
H4838 N4832 0.984 . S
H4839 N4832 0.984 . S
H4840 N4828 0.984 . S
H4841 N4828 0.985 . S
C4842 C4843 1.363 . S
C4842 C4848 1.379 . S
C4842 N4850 1.356 . S
C4843 C4842 1.363 . S
C4843 C4849 1.363 . S
C4844 C4845 1.363 . S
C4844 C4849 1.379 . S
C4844 N4851 1.356 . S
C4845 C4844 1.363 . S
C4845 C4848 1.363 . S
N4846 C4848 1.356 . S
N4846 H4858 0.984 . S
N4846 H4859 0.985 . S
N4847 C4849 1.356 . S
N4847 H4852 0.984 . S
N4847 H4853 0.985 . S
C4848 C4842 1.379 . S
C4848 C4845 1.363 . S
C4848 N4846 1.356 . S
C4849 C4843 1.363 . S
C4849 C4844 1.379 . S
C4849 N4847 1.356 . S
N4850 C4842 1.356 . S
N4850 H4856 0.984 . S
N4850 H4857 0.984 . S
N4851 C4844 1.356 . S
N4851 H4854 0.984 . S
N4851 H4855 0.985 . S
H4852 N4847 0.984 . S
H4853 N4847 0.985 . S
H4854 N4851 0.984 . S
H4855 N4851 0.985 . S
H4856 N4850 0.984 . S
H4857 N4850 0.984 . S
H4858 N4846 0.984 . S
H4859 N4846 0.985 . S
C4860 C4861 1.363 . S
C4860 C4866 1.379 . S
C4860 N4868 1.356 . S
C4861 C4860 1.363 . S
C4861 C4867 1.363 . S
C4862 C4863 1.363 . S
C4862 C4867 1.379 . S
C4862 N4869 1.356 . S
C4863 C4862 1.363 . S
C4863 C4866 1.363 . S
N4864 C4866 1.356 . S
N4864 H4876 0.984 . S
N4864 H4877 0.985 . S
N4865 C4867 1.356 . S
N4865 H4870 0.984 . S
N4865 H4871 0.985 . S
C4866 C4860 1.379 . S
C4866 C4863 1.363 . S
C4866 N4864 1.356 . S
C4867 C4861 1.363 . S
C4867 C4862 1.379 . S
C4867 N4865 1.356 . S
N4868 C4860 1.356 . S
N4868 H4874 0.984 . S
N4868 H4875 0.984 . S
N4869 C4862 1.356 . S
N4869 H4872 0.984 . S
N4869 H4873 0.985 . S
H4870 N4865 0.984 . S
H4871 N4865 0.985 . S
H4872 N4869 0.984 . S
H4873 N4869 0.985 . S
H4874 N4868 0.984 . S
H4875 N4868 0.984 . S
H4876 N4864 0.984 . S
H4877 N4864 0.985 . S
C4878 C4879 1.363 . S
C4878 C4884 1.379 . S
C4878 N4886 1.356 . S
C4879 C4878 1.363 . S
C4879 C4885 1.363 . S
C4880 C4881 1.363 . S
C4880 C4885 1.379 . S
C4880 N4887 1.356 . S
C4881 C4880 1.363 . S
C4881 C4884 1.363 . S
N4882 C4884 1.356 . S
N4882 H4894 0.984 . S
N4882 H4895 0.985 . S
N4883 C4885 1.356 . S
N4883 H4888 0.984 . S
N4883 H4889 0.985 . S
C4884 C4878 1.379 . S
C4884 C4881 1.363 . S
C4884 N4882 1.356 . S
C4885 C4879 1.363 . S
C4885 C4880 1.379 . S
C4885 N4883 1.356 . S
N4886 C4878 1.356 . S
N4886 H4892 0.984 . S
N4886 H4893 0.984 . S
N4887 C4880 1.356 . S
N4887 H4890 0.984 . S
N4887 H4891 0.985 . S
H4888 N4883 0.984 . S
H4889 N4883 0.985 . S
H4890 N4887 0.984 . S
H4891 N4887 0.985 . S
H4892 N4886 0.984 . S
H4893 N4886 0.984 . S
H4894 N4882 0.984 . S
H4895 N4882 0.985 . S
C4896 C4897 1.363 . S
C4896 C4902 1.379 . S
C4896 N4904 1.356 . S
C4897 C4896 1.363 . S
C4897 C4903 1.363 . S
C4898 C4899 1.363 . S
C4898 C4903 1.379 . S
C4898 N4905 1.356 . S
C4899 C4898 1.363 . S
C4899 C4902 1.363 . S
N4900 C4902 1.356 . S
N4900 H4912 0.984 . S
N4900 H4913 0.985 . S
N4901 C4903 1.356 . S
N4901 H4906 0.984 . S
N4901 H4907 0.985 . S
C4902 C4896 1.379 . S
C4902 C4899 1.363 . S
C4902 N4900 1.356 . S
C4903 C4897 1.363 . S
C4903 C4898 1.379 . S
C4903 N4901 1.356 . S
N4904 C4896 1.356 . S
N4904 H4910 0.984 . S
N4904 H4911 0.984 . S
N4905 C4898 1.356 . S
N4905 H4908 0.984 . S
N4905 H4909 0.985 . S
H4906 N4901 0.984 . S
H4907 N4901 0.985 . S
H4908 N4905 0.984 . S
H4909 N4905 0.985 . S
H4910 N4904 0.984 . S
H4911 N4904 0.984 . S
H4912 N4900 0.984 . S
H4913 N4900 0.985 . S
C4914 C4915 1.363 . S
C4914 C4920 1.379 . S
C4914 N4922 1.356 . S
C4915 C4914 1.363 . S
C4915 C4921 1.363 . S
C4916 C4917 1.363 . S
C4916 C4921 1.379 . S
C4916 N4923 1.356 . S
C4917 C4916 1.363 . S
C4917 C4920 1.363 . S
N4918 C4920 1.356 . S
N4918 H4930 0.984 . S
N4918 H4931 0.985 . S
N4919 C4921 1.356 . S
N4919 H4924 0.984 . S
N4919 H4925 0.985 . S
C4920 C4914 1.379 . S
C4920 C4917 1.363 . S
C4920 N4918 1.356 . S
C4921 C4915 1.363 . S
C4921 C4916 1.379 . S
C4921 N4919 1.356 . S
N4922 C4914 1.356 . S
N4922 H4928 0.984 . S
N4922 H4929 0.984 . S
N4923 C4916 1.356 . S
N4923 H4926 0.984 . S
N4923 H4927 0.985 . S
H4924 N4919 0.984 . S
H4925 N4919 0.985 . S
H4926 N4923 0.984 . S
H4927 N4923 0.985 . S
H4928 N4922 0.984 . S
H4929 N4922 0.984 . S
H4930 N4918 0.984 . S
H4931 N4918 0.985 . S
C4932 C4933 1.363 . S
C4932 C4938 1.379 . S
C4932 N4940 1.356 . S
C4933 C4932 1.363 . S
C4933 C4939 1.363 . S
C4934 C4935 1.363 . S
C4934 C4939 1.379 . S
C4934 N4941 1.356 . S
C4935 C4934 1.363 . S
C4935 C4938 1.363 . S
N4936 C4938 1.356 . S
N4936 H4948 0.984 . S
N4936 H4949 0.985 . S
N4937 C4939 1.356 . S
N4937 H4942 0.984 . S
N4937 H4943 0.985 . S
C4938 C4932 1.379 . S
C4938 C4935 1.363 . S
C4938 N4936 1.356 . S
C4939 C4933 1.363 . S
C4939 C4934 1.379 . S
C4939 N4937 1.356 . S
N4940 C4932 1.356 . S
N4940 H4946 0.984 . S
N4940 H4947 0.984 . S
N4941 C4934 1.356 . S
N4941 H4944 0.984 . S
N4941 H4945 0.985 . S
H4942 N4937 0.984 . S
H4943 N4937 0.985 . S
H4944 N4941 0.984 . S
H4945 N4941 0.985 . S
H4946 N4940 0.984 . S
H4947 N4940 0.984 . S
H4948 N4936 0.984 . S
H4949 N4936 0.985 . S
C4950 C4951 1.363 . S
C4950 C4956 1.379 . S
C4950 N4958 1.356 . S
C4951 C4950 1.363 . S
C4951 C4957 1.363 . S
C4952 C4953 1.363 . S
C4952 C4957 1.379 . S
C4952 N4959 1.356 . S
C4953 C4952 1.363 . S
C4953 C4956 1.363 . S
N4954 C4956 1.356 . S
N4954 H4966 0.984 . S
N4954 H4967 0.985 . S
N4955 C4957 1.356 . S
N4955 H4960 0.984 . S
N4955 H4961 0.985 . S
C4956 C4950 1.379 . S
C4956 C4953 1.363 . S
C4956 N4954 1.356 . S
C4957 C4951 1.363 . S
C4957 C4952 1.379 . S
C4957 N4955 1.356 . S
N4958 C4950 1.356 . S
N4958 H4964 0.984 . S
N4958 H4965 0.984 . S
N4959 C4952 1.356 . S
N4959 H4962 0.984 . S
N4959 H4963 0.985 . S
H4960 N4955 0.984 . S
H4961 N4955 0.985 . S
H4962 N4959 0.984 . S
H4963 N4959 0.985 . S
H4964 N4958 0.984 . S
H4965 N4958 0.984 . S
H4966 N4954 0.984 . S
H4967 N4954 0.985 . S
C4968 C4969 1.363 . S
C4968 C4974 1.379 . S
C4968 N4976 1.356 . S
C4969 C4968 1.363 . S
C4969 C4975 1.363 . S
C4970 C4971 1.363 . S
C4970 C4975 1.379 . S
C4970 N4977 1.356 . S
C4971 C4970 1.363 . S
C4971 C4974 1.363 . S
N4972 C4974 1.356 . S
N4972 H4984 0.984 . S
N4972 H4985 0.985 . S
N4973 C4975 1.356 . S
N4973 H4978 0.984 . S
N4973 H4979 0.985 . S
C4974 C4968 1.379 . S
C4974 C4971 1.363 . S
C4974 N4972 1.356 . S
C4975 C4969 1.363 . S
C4975 C4970 1.379 . S
C4975 N4973 1.356 . S
N4976 C4968 1.356 . S
N4976 H4982 0.984 . S
N4976 H4983 0.984 . S
N4977 C4970 1.356 . S
N4977 H4980 0.984 . S
N4977 H4981 0.985 . S
H4978 N4973 0.984 . S
H4979 N4973 0.985 . S
H4980 N4977 0.984 . S
H4981 N4977 0.985 . S
H4982 N4976 0.984 . S
H4983 N4976 0.984 . S
H4984 N4972 0.984 . S
H4985 N4972 0.985 . S
C4986 C4987 1.363 . S
C4986 C4992 1.379 . S
C4986 N4994 1.356 . S
C4987 C4986 1.363 . S
C4987 C4993 1.363 . S
C4988 C4989 1.363 . S
C4988 C4993 1.379 . S
C4988 N4995 1.356 . S
C4989 C4988 1.363 . S
C4989 C4992 1.363 . S
N4990 C4992 1.356 . S
N4990 H5002 0.984 . S
N4990 H5003 0.985 . S
N4991 C4993 1.356 . S
N4991 H4996 0.984 . S
N4991 H4997 0.985 . S
C4992 C4986 1.379 . S
C4992 C4989 1.363 . S
C4992 N4990 1.356 . S
C4993 C4987 1.363 . S
C4993 C4988 1.379 . S
C4993 N4991 1.356 . S
N4994 C4986 1.356 . S
N4994 H5000 0.984 . S
N4994 H5001 0.984 . S
N4995 C4988 1.356 . S
N4995 H4998 0.984 . S
N4995 H4999 0.985 . S
H4996 N4991 0.984 . S
H4997 N4991 0.985 . S
H4998 N4995 0.984 . S
H4999 N4995 0.985 . S
H5000 N4994 0.984 . S
H5001 N4994 0.984 . S
H5002 N4990 0.984 . S
H5003 N4990 0.985 . S
C5004 C5005 1.363 . S
C5004 C5010 1.379 . S
C5004 N5012 1.356 . S
C5005 C5004 1.363 . S
C5005 C5011 1.363 . S
C5006 C5007 1.363 . S
C5006 C5011 1.379 . S
C5006 N5013 1.356 . S
C5007 C5006 1.363 . S
C5007 C5010 1.363 . S
N5008 C5010 1.356 . S
N5008 H5020 0.984 . S
N5008 H5021 0.985 . S
N5009 C5011 1.356 . S
N5009 H5014 0.984 . S
N5009 H5015 0.985 . S
C5010 C5004 1.379 . S
C5010 C5007 1.363 . S
C5010 N5008 1.356 . S
C5011 C5005 1.363 . S
C5011 C5006 1.379 . S
C5011 N5009 1.356 . S
N5012 C5004 1.356 . S
N5012 H5018 0.984 . S
N5012 H5019 0.984 . S
N5013 C5006 1.356 . S
N5013 H5016 0.984 . S
N5013 H5017 0.985 . S
H5014 N5009 0.984 . S
H5015 N5009 0.985 . S
H5016 N5013 0.984 . S
H5017 N5013 0.985 . S
H5018 N5012 0.984 . S
H5019 N5012 0.984 . S
H5020 N5008 0.984 . S
H5021 N5008 0.985 . S
C5022 C5023 1.363 . S
C5022 C5028 1.379 . S
C5022 N5030 1.356 . S
C5023 C5022 1.363 . S
C5023 C5029 1.363 . S
C5024 C5025 1.363 . S
C5024 C5029 1.379 . S
C5024 N5031 1.356 . S
C5025 C5024 1.363 . S
C5025 C5028 1.363 . S
N5026 C5028 1.356 . S
N5026 H5038 0.984 . S
N5026 H5039 0.985 . S
N5027 C5029 1.356 . S
N5027 H5032 0.984 . S
N5027 H5033 0.985 . S
C5028 C5022 1.379 . S
C5028 C5025 1.363 . S
C5028 N5026 1.356 . S
C5029 C5023 1.363 . S
C5029 C5024 1.379 . S
C5029 N5027 1.356 . S
N5030 C5022 1.356 . S
N5030 H5036 0.984 . S
N5030 H5037 0.984 . S
N5031 C5024 1.356 . S
N5031 H5034 0.984 . S
N5031 H5035 0.985 . S
H5032 N5027 0.984 . S
H5033 N5027 0.985 . S
H5034 N5031 0.984 . S
H5035 N5031 0.985 . S
H5036 N5030 0.984 . S
H5037 N5030 0.984 . S
H5038 N5026 0.984 . S
H5039 N5026 0.985 . S
C5040 C5041 1.363 . S
C5040 C5046 1.379 . S
C5040 N5048 1.356 . S
C5041 C5040 1.363 . S
C5041 C5047 1.363 . S
C5042 C5043 1.363 . S
C5042 C5047 1.379 . S
C5042 N5049 1.356 . S
C5043 C5042 1.363 . S
C5043 C5046 1.363 . S
N5044 C5046 1.356 . S
N5044 H5056 0.984 . S
N5044 H5057 0.985 . S
N5045 C5047 1.356 . S
N5045 H5050 0.984 . S
N5045 H5051 0.985 . S
C5046 C5040 1.379 . S
C5046 C5043 1.363 . S
C5046 N5044 1.356 . S
C5047 C5041 1.363 . S
C5047 C5042 1.379 . S
C5047 N5045 1.356 . S
N5048 C5040 1.356 . S
N5048 H5054 0.984 . S
N5048 H5055 0.984 . S
N5049 C5042 1.356 . S
N5049 H5052 0.984 . S
N5049 H5053 0.985 . S
H5050 N5045 0.984 . S
H5051 N5045 0.985 . S
H5052 N5049 0.984 . S
H5053 N5049 0.985 . S
H5054 N5048 0.984 . S
H5055 N5048 0.984 . S
H5056 N5044 0.984 . S
H5057 N5044 0.985 . S
C5058 C5059 1.363 . S
C5058 C5064 1.379 . S
C5058 N5066 1.356 . S
C5059 C5058 1.363 . S
C5059 C5065 1.363 . S
C5060 C5061 1.363 . S
C5060 C5065 1.379 . S
C5060 N5067 1.356 . S
C5061 C5060 1.363 . S
C5061 C5064 1.363 . S
N5062 C5064 1.356 . S
N5062 H5074 0.984 . S
N5062 H5075 0.985 . S
N5063 C5065 1.356 . S
N5063 H5068 0.984 . S
N5063 H5069 0.985 . S
C5064 C5058 1.379 . S
C5064 C5061 1.363 . S
C5064 N5062 1.356 . S
C5065 C5059 1.363 . S
C5065 C5060 1.379 . S
C5065 N5063 1.356 . S
N5066 C5058 1.356 . S
N5066 H5072 0.984 . S
N5066 H5073 0.984 . S
N5067 C5060 1.356 . S
N5067 H5070 0.984 . S
N5067 H5071 0.985 . S
H5068 N5063 0.984 . S
H5069 N5063 0.985 . S
H5070 N5067 0.984 . S
H5071 N5067 0.985 . S
H5072 N5066 0.984 . S
H5073 N5066 0.984 . S
H5074 N5062 0.984 . S
H5075 N5062 0.985 . S
C5076 C5077 1.363 . S
C5076 C5082 1.379 . S
C5076 N5084 1.356 . S
C5077 C5076 1.363 . S
C5077 C5083 1.363 . S
C5078 C5079 1.363 . S
C5078 C5083 1.379 . S
C5078 N5085 1.356 . S
C5079 C5078 1.363 . S
C5079 C5082 1.363 . S
N5080 C5082 1.356 . S
N5080 H5092 0.984 . S
N5080 H5093 0.985 . S
N5081 C5083 1.356 . S
N5081 H5086 0.984 . S
N5081 H5087 0.985 . S
C5082 C5076 1.379 . S
C5082 C5079 1.363 . S
C5082 N5080 1.356 . S
C5083 C5077 1.363 . S
C5083 C5078 1.379 . S
C5083 N5081 1.356 . S
N5084 C5076 1.356 . S
N5084 H5090 0.984 . S
N5084 H5091 0.984 . S
N5085 C5078 1.356 . S
N5085 H5088 0.984 . S
N5085 H5089 0.985 . S
H5086 N5081 0.984 . S
H5087 N5081 0.985 . S
H5088 N5085 0.984 . S
H5089 N5085 0.985 . S
H5090 N5084 0.984 . S
H5091 N5084 0.984 . S
H5092 N5080 0.984 . S
H5093 N5080 0.985 . S
C5094 C5095 1.363 . S
C5094 C5100 1.379 . S
C5094 N5102 1.356 . S
C5095 C5094 1.363 . S
C5095 C5101 1.363 . S
C5096 C5097 1.363 . S
C5096 C5101 1.379 . S
C5096 N5103 1.356 . S
C5097 C5096 1.363 . S
C5097 C5100 1.363 . S
N5098 C5100 1.356 . S
N5098 H5110 0.984 . S
N5098 H5111 0.985 . S
N5099 C5101 1.356 . S
N5099 H5104 0.984 . S
N5099 H5105 0.985 . S
C5100 C5094 1.379 . S
C5100 C5097 1.363 . S
C5100 N5098 1.356 . S
C5101 C5095 1.363 . S
C5101 C5096 1.379 . S
C5101 N5099 1.356 . S
N5102 C5094 1.356 . S
N5102 H5108 0.984 . S
N5102 H5109 0.984 . S
N5103 C5096 1.356 . S
N5103 H5106 0.984 . S
N5103 H5107 0.985 . S
H5104 N5099 0.984 . S
H5105 N5099 0.985 . S
H5106 N5103 0.984 . S
H5107 N5103 0.985 . S
H5108 N5102 0.984 . S
H5109 N5102 0.984 . S
H5110 N5098 0.984 . S
H5111 N5098 0.985 . S
C5112 C5113 1.363 . S
C5112 C5118 1.379 . S
C5112 N5120 1.356 . S
C5113 C5112 1.363 . S
C5113 C5119 1.363 . S
C5114 C5115 1.363 . S
C5114 C5119 1.379 . S
C5114 N5121 1.356 . S
C5115 C5114 1.363 . S
C5115 C5118 1.363 . S
N5116 C5118 1.356 . S
N5116 H5128 0.984 . S
N5116 H5129 0.985 . S
N5117 C5119 1.356 . S
N5117 H5122 0.984 . S
N5117 H5123 0.985 . S
C5118 C5112 1.379 . S
C5118 C5115 1.363 . S
C5118 N5116 1.356 . S
C5119 C5113 1.363 . S
C5119 C5114 1.379 . S
C5119 N5117 1.356 . S
N5120 C5112 1.356 . S
N5120 H5126 0.984 . S
N5120 H5127 0.984 . S
N5121 C5114 1.356 . S
N5121 H5124 0.984 . S
N5121 H5125 0.985 . S
H5122 N5117 0.984 . S
H5123 N5117 0.985 . S
H5124 N5121 0.984 . S
H5125 N5121 0.985 . S
H5126 N5120 0.984 . S
H5127 N5120 0.984 . S
H5128 N5116 0.984 . S
H5129 N5116 0.985 . S
C5130 C5131 1.363 . S
C5130 C5136 1.379 . S
C5130 N5138 1.356 . S
C5131 C5130 1.363 . S
C5131 C5137 1.363 . S
C5132 C5133 1.363 . S
C5132 C5137 1.379 . S
C5132 N5139 1.356 . S
C5133 C5132 1.363 . S
C5133 C5136 1.363 . S
N5134 C5136 1.356 . S
N5134 H5146 0.984 . S
N5134 H5147 0.985 . S
N5135 C5137 1.356 . S
N5135 H5140 0.984 . S
N5135 H5141 0.985 . S
C5136 C5130 1.379 . S
C5136 C5133 1.363 . S
C5136 N5134 1.356 . S
C5137 C5131 1.363 . S
C5137 C5132 1.379 . S
C5137 N5135 1.356 . S
N5138 C5130 1.356 . S
N5138 H5144 0.984 . S
N5138 H5145 0.984 . S
N5139 C5132 1.356 . S
N5139 H5142 0.984 . S
N5139 H5143 0.985 . S
H5140 N5135 0.984 . S
H5141 N5135 0.985 . S
H5142 N5139 0.984 . S
H5143 N5139 0.985 . S
H5144 N5138 0.984 . S
H5145 N5138 0.984 . S
H5146 N5134 0.984 . S
H5147 N5134 0.985 . S
C5148 C5149 1.363 . S
C5148 C5154 1.379 . S
C5148 N5156 1.356 . S
C5149 C5148 1.363 . S
C5149 C5155 1.363 . S
C5150 C5151 1.363 . S
C5150 C5155 1.379 . S
C5150 N5157 1.356 . S
C5151 C5150 1.363 . S
C5151 C5154 1.363 . S
N5152 C5154 1.356 . S
N5152 H5164 0.984 . S
N5152 H5165 0.985 . S
N5153 C5155 1.356 . S
N5153 H5158 0.984 . S
N5153 H5159 0.985 . S
C5154 C5148 1.379 . S
C5154 C5151 1.363 . S
C5154 N5152 1.356 . S
C5155 C5149 1.363 . S
C5155 C5150 1.379 . S
C5155 N5153 1.356 . S
N5156 C5148 1.356 . S
N5156 H5162 0.984 . S
N5156 H5163 0.984 . S
N5157 C5150 1.356 . S
N5157 H5160 0.984 . S
N5157 H5161 0.985 . S
H5158 N5153 0.984 . S
H5159 N5153 0.985 . S
H5160 N5157 0.984 . S
H5161 N5157 0.985 . S
H5162 N5156 0.984 . S
H5163 N5156 0.984 . S
H5164 N5152 0.984 . S
H5165 N5152 0.985 . S
C5166 C5167 1.363 . S
C5166 C5172 1.379 . S
C5166 N5174 1.356 . S
C5167 C5166 1.363 . S
C5167 C5173 1.363 . S
C5168 C5169 1.363 . S
C5168 C5173 1.379 . S
C5168 N5175 1.356 . S
C5169 C5168 1.363 . S
C5169 C5172 1.363 . S
N5170 C5172 1.356 . S
N5170 H5182 0.984 . S
N5170 H5183 0.985 . S
N5171 C5173 1.356 . S
N5171 H5176 0.984 . S
N5171 H5177 0.985 . S
C5172 C5166 1.379 . S
C5172 C5169 1.363 . S
C5172 N5170 1.356 . S
C5173 C5167 1.363 . S
C5173 C5168 1.379 . S
C5173 N5171 1.356 . S
N5174 C5166 1.356 . S
N5174 H5180 0.984 . S
N5174 H5181 0.984 . S
N5175 C5168 1.356 . S
N5175 H5178 0.984 . S
N5175 H5179 0.985 . S
H5176 N5171 0.984 . S
H5177 N5171 0.985 . S
H5178 N5175 0.984 . S
H5179 N5175 0.985 . S
H5180 N5174 0.984 . S
H5181 N5174 0.984 . S
H5182 N5170 0.984 . S
H5183 N5170 0.985 . S
C5184 C5185 1.363 . S
C5184 C5190 1.379 1_455 S
C5184 N5192 1.356 . S
C5185 C5184 1.363 . S
C5185 C5191 1.363 . S
C5186 C5187 1.363 . S
C5186 C5191 1.379 1_655 S
C5186 N5193 1.356 . S
C5187 C5186 1.363 . S
C5187 C5190 1.363 . S
N5188 C5190 1.356 . S
N5188 H5200 0.984 . S
N5188 H5201 0.985 . S
N5189 C5191 1.356 . S
N5189 H5194 0.984 . S
N5189 H5195 0.985 . S
C5190 C5184 1.379 1_655 S
C5190 C5187 1.363 . S
C5190 N5188 1.356 . S
C5191 C5185 1.363 . S
C5191 C5186 1.379 1_455 S
C5191 N5189 1.356 . S
N5192 C5184 1.356 . S
N5192 H5198 0.984 . S
N5192 H5199 0.984 . S
N5193 C5186 1.356 . S
N5193 H5196 0.984 . S
N5193 H5197 0.985 . S
H5194 N5189 0.984 . S
H5195 N5189 0.985 . S
H5196 N5193 0.984 . S
H5197 N5193 0.985 . S
H5198 N5192 0.984 . S
H5199 N5192 0.984 . S
H5200 N5188 0.984 . S
H5201 N5188 0.985 . S
C5202 C5203 1.363 . S
C5202 C5208 1.379 1_545 S
C5202 N5210 1.356 . S
C5203 C5202 1.363 . S
C5203 C5209 1.363 . S
C5204 C5205 1.363 . S
C5204 C5209 1.379 1_565 S
C5204 N5211 1.356 . S
C5205 C5204 1.363 . S
C5205 C5208 1.363 . S
N5206 C5208 1.356 . S
N5206 H5218 0.984 . S
N5206 H5219 0.985 . S
N5207 C5209 1.356 . S
N5207 H5212 0.984 . S
N5207 H5213 0.985 . S
C5208 C5202 1.379 1_565 S
C5208 C5205 1.363 . S
C5208 N5206 1.356 . S
C5209 C5203 1.363 . S
C5209 C5204 1.379 1_545 S
C5209 N5207 1.356 . S
N5210 C5202 1.356 . S
N5210 H5216 0.984 . S
N5210 H5217 0.984 . S
N5211 C5204 1.356 . S
N5211 H5214 0.984 . S
N5211 H5215 0.985 . S
H5212 N5207 0.984 . S
H5213 N5207 0.985 . S
H5214 N5211 0.984 . S
H5215 N5211 0.985 . S
H5216 N5210 0.984 . S
H5217 N5210 0.984 . S
H5218 N5206 0.984 . S
H5219 N5206 0.985 . S
C5220 C5221 1.363 . S
C5220 C5226 1.379 1_655 S
C5220 N5228 1.356 . S
C5221 C5220 1.363 . S
C5221 C5227 1.363 . S
C5222 C5223 1.363 . S
C5222 C5227 1.379 1_455 S
C5222 N5229 1.356 . S
C5223 C5222 1.363 . S
C5223 C5226 1.363 . S
N5224 C5226 1.356 . S
N5224 H5236 0.984 . S
N5224 H5237 0.985 . S
N5225 C5227 1.356 . S
N5225 H5230 0.984 . S
N5225 H5231 0.985 . S
C5226 C5220 1.379 1_455 S
C5226 C5223 1.363 . S
C5226 N5224 1.356 . S
C5227 C5221 1.363 . S
C5227 C5222 1.379 1_655 S
C5227 N5225 1.356 . S
N5228 C5220 1.356 . S
N5228 H5234 0.984 . S
N5228 H5235 0.984 . S
N5229 C5222 1.356 . S
N5229 H5232 0.984 . S
N5229 H5233 0.985 . S
H5230 N5225 0.984 . S
H5231 N5225 0.985 . S
H5232 N5229 0.984 . S
H5233 N5229 0.985 . S
H5234 N5228 0.984 . S
H5235 N5228 0.984 . S
H5236 N5224 0.984 . S
H5237 N5224 0.985 . S
C5238 C5239 1.363 . S
C5238 C5244 1.379 1_565 S
C5238 N5246 1.356 . S
C5239 C5238 1.363 . S
C5239 C5245 1.363 . S
C5240 C5241 1.363 . S
C5240 C5245 1.379 1_545 S
C5240 N5247 1.356 . S
C5241 C5240 1.363 . S
C5241 C5244 1.363 . S
N5242 C5244 1.356 . S
N5242 H5254 0.984 . S
N5242 H5255 0.985 . S
N5243 C5245 1.356 . S
N5243 H5248 0.984 . S
N5243 H5249 0.985 . S
C5244 C5238 1.379 1_545 S
C5244 C5241 1.363 . S
C5244 N5242 1.356 . S
C5245 C5239 1.363 . S
C5245 C5240 1.379 1_565 S
C5245 N5243 1.356 . S
N5246 C5238 1.356 . S
N5246 H5252 0.984 . S
N5246 H5253 0.984 . S
N5247 C5240 1.356 . S
N5247 H5250 0.984 . S
N5247 H5251 0.985 . S
H5248 N5243 0.984 . S
H5249 N5243 0.985 . S
H5250 N5247 0.984 . S
H5251 N5247 0.985 . S
H5252 N5246 0.984 . S
H5253 N5246 0.984 . S
H5254 N5242 0.984 . S
H5255 N5242 0.985 . S
C5256 C5257 1.363 . S
C5256 C5262 1.379 1_655 S
C5256 N5264 1.356 . S
C5257 C5256 1.363 . S
C5257 C5263 1.363 . S
C5258 C5259 1.363 . S
C5258 C5263 1.379 1_455 S
C5258 N5265 1.356 . S
C5259 C5258 1.363 . S
C5259 C5262 1.363 . S
N5260 C5262 1.356 . S
N5260 H5272 0.984 . S
N5260 H5273 0.985 . S
N5261 C5263 1.356 . S
N5261 H5266 0.984 . S
N5261 H5267 0.985 . S
C5262 C5256 1.379 1_455 S
C5262 C5259 1.363 . S
C5262 N5260 1.356 . S
C5263 C5257 1.363 . S
C5263 C5258 1.379 1_655 S
C5263 N5261 1.356 . S
N5264 C5256 1.356 . S
N5264 H5270 0.984 . S
N5264 H5271 0.984 . S
N5265 C5258 1.356 . S
N5265 H5268 0.984 . S
N5265 H5269 0.985 . S
H5266 N5261 0.984 . S
H5267 N5261 0.985 . S
H5268 N5265 0.984 . S
H5269 N5265 0.985 . S
H5270 N5264 0.984 . S
H5271 N5264 0.984 . S
H5272 N5260 0.984 . S
H5273 N5260 0.985 . S
C5274 C5275 1.363 . S
C5274 C5280 1.379 1_545 S
C5274 N5282 1.356 . S
C5275 C5274 1.363 . S
C5275 C5281 1.363 . S
C5276 C5277 1.363 . S
C5276 C5281 1.379 1_565 S
C5276 N5283 1.356 . S
C5277 C5276 1.363 . S
C5277 C5280 1.363 . S
N5278 C5280 1.356 . S
N5278 H5290 0.984 . S
N5278 H5291 0.985 . S
N5279 C5281 1.356 . S
N5279 H5284 0.984 . S
N5279 H5285 0.985 . S
C5280 C5274 1.379 1_565 S
C5280 C5277 1.363 . S
C5280 N5278 1.356 . S
C5281 C5275 1.363 . S
C5281 C5276 1.379 1_545 S
C5281 N5279 1.356 . S
N5282 C5274 1.356 . S
N5282 H5288 0.984 . S
N5282 H5289 0.984 . S
N5283 C5276 1.356 . S
N5283 H5286 0.984 . S
N5283 H5287 0.985 . S
H5284 N5279 0.984 . S
H5285 N5279 0.985 . S
H5286 N5283 0.984 . S
H5287 N5283 0.985 . S
H5288 N5282 0.984 . S
H5289 N5282 0.984 . S
H5290 N5278 0.984 . S
H5291 N5278 0.985 . S
C5292 C5293 1.363 . S
C5292 C5298 1.379 1_455 S
C5292 N5300 1.356 . S
C5293 C5292 1.363 . S
C5293 C5299 1.363 . S
C5294 C5295 1.363 . S
C5294 C5299 1.379 1_655 S
C5294 N5301 1.356 . S
C5295 C5294 1.363 . S
C5295 C5298 1.363 . S
N5296 C5298 1.356 . S
N5296 H5308 0.984 . S
N5296 H5309 0.985 . S
N5297 C5299 1.356 . S
N5297 H5302 0.984 . S
N5297 H5303 0.985 . S
C5298 C5292 1.379 1_655 S
C5298 C5295 1.363 . S
C5298 N5296 1.356 . S
C5299 C5293 1.363 . S
C5299 C5294 1.379 1_455 S
C5299 N5297 1.356 . S
N5300 C5292 1.356 . S
N5300 H5306 0.984 . S
N5300 H5307 0.984 . S
N5301 C5294 1.356 . S
N5301 H5304 0.984 . S
N5301 H5305 0.985 . S
H5302 N5297 0.984 . S
H5303 N5297 0.985 . S
H5304 N5301 0.984 . S
H5305 N5301 0.985 . S
H5306 N5300 0.984 . S
H5307 N5300 0.984 . S
H5308 N5296 0.984 . S
H5309 N5296 0.985 . S
C5310 C5311 1.363 . S
C5310 C5316 1.379 1_545 S
C5310 N5318 1.356 . S
C5311 C5310 1.363 . S
C5311 C5317 1.363 . S
C5312 C5313 1.363 . S
C5312 C5317 1.379 1_565 S
C5312 N5319 1.356 . S
C5313 C5312 1.363 . S
C5313 C5316 1.363 . S
N5314 C5316 1.356 . S
N5314 H5326 0.984 . S
N5314 H5327 0.985 . S
N5315 C5317 1.356 . S
N5315 H5320 0.984 . S
N5315 H5321 0.985 . S
C5316 C5310 1.379 1_565 S
C5316 C5313 1.363 . S
C5316 N5314 1.356 . S
C5317 C5311 1.363 . S
C5317 C5312 1.379 1_545 S
C5317 N5315 1.356 . S
N5318 C5310 1.356 . S
N5318 H5324 0.984 . S
N5318 H5325 0.984 . S
N5319 C5312 1.356 . S
N5319 H5322 0.984 . S
N5319 H5323 0.985 . S
H5320 N5315 0.984 . S
H5321 N5315 0.985 . S
H5322 N5319 0.984 . S
H5323 N5319 0.985 . S
H5324 N5318 0.984 . S
H5325 N5318 0.984 . S
H5326 N5314 0.984 . S
H5327 N5314 0.985 . S
C5328 C5329 1.363 . S
C5328 C5334 1.379 1_545 S
C5328 N5336 1.356 . S
C5329 C5328 1.363 . S
C5329 C5335 1.363 . S
C5330 C5331 1.363 . S
C5330 C5335 1.379 1_565 S
C5330 N5337 1.356 . S
C5331 C5330 1.363 . S
C5331 C5334 1.363 . S
N5332 C5334 1.356 . S
N5332 H5344 0.984 . S
N5332 H5345 0.985 . S
N5333 C5335 1.356 . S
N5333 H5338 0.984 . S
N5333 H5339 0.985 . S
C5334 C5328 1.379 1_565 S
C5334 C5331 1.363 . S
C5334 N5332 1.356 . S
C5335 C5329 1.363 . S
C5335 C5330 1.379 1_545 S
C5335 N5333 1.356 . S
N5336 C5328 1.356 . S
N5336 H5342 0.984 . S
N5336 H5343 0.984 . S
N5337 C5330 1.356 . S
N5337 H5340 0.984 . S
N5337 H5341 0.985 . S
H5338 N5333 0.984 . S
H5339 N5333 0.985 . S
H5340 N5337 0.984 . S
H5341 N5337 0.985 . S
H5342 N5336 0.984 . S
H5343 N5336 0.984 . S
H5344 N5332 0.984 . S
H5345 N5332 0.985 . S
C5346 C5347 1.363 . S
C5346 C5352 1.379 1_455 S
C5346 N5354 1.356 . S
C5347 C5346 1.363 . S
C5347 C5353 1.363 . S
C5348 C5349 1.363 . S
C5348 C5353 1.379 1_655 S
C5348 N5355 1.356 . S
C5349 C5348 1.363 . S
C5349 C5352 1.363 . S
N5350 C5352 1.356 . S
N5350 H5362 0.984 . S
N5350 H5363 0.985 . S
N5351 C5353 1.356 . S
N5351 H5356 0.984 . S
N5351 H5357 0.985 . S
C5352 C5346 1.379 1_655 S
C5352 C5349 1.363 . S
C5352 N5350 1.356 . S
C5353 C5347 1.363 . S
C5353 C5348 1.379 1_455 S
C5353 N5351 1.356 . S
N5354 C5346 1.356 . S
N5354 H5360 0.984 . S
N5354 H5361 0.984 . S
N5355 C5348 1.356 . S
N5355 H5358 0.984 . S
N5355 H5359 0.985 . S
H5356 N5351 0.984 . S
H5357 N5351 0.985 . S
H5358 N5355 0.984 . S
H5359 N5355 0.985 . S
H5360 N5354 0.984 . S
H5361 N5354 0.984 . S
H5362 N5350 0.984 . S
H5363 N5350 0.985 . S
C5364 C5365 1.363 . S
C5364 C5370 1.379 1_565 S
C5364 N5372 1.356 . S
C5365 C5364 1.363 . S
C5365 C5371 1.363 . S
C5366 C5367 1.363 . S
C5366 C5371 1.379 1_545 S
C5366 N5373 1.356 . S
C5367 C5366 1.363 . S
C5367 C5370 1.363 . S
N5368 C5370 1.356 . S
N5368 H5380 0.984 . S
N5368 H5381 0.985 . S
N5369 C5371 1.356 . S
N5369 H5374 0.984 . S
N5369 H5375 0.985 . S
C5370 C5364 1.379 1_545 S
C5370 C5367 1.363 . S
C5370 N5368 1.356 . S
C5371 C5365 1.363 . S
C5371 C5366 1.379 1_565 S
C5371 N5369 1.356 . S
N5372 C5364 1.356 . S
N5372 H5378 0.984 . S
N5372 H5379 0.984 . S
N5373 C5366 1.356 . S
N5373 H5376 0.984 . S
N5373 H5377 0.985 . S
H5374 N5369 0.984 . S
H5375 N5369 0.985 . S
H5376 N5373 0.984 . S
H5377 N5373 0.985 . S
H5378 N5372 0.984 . S
H5379 N5372 0.984 . S
H5380 N5368 0.984 . S
H5381 N5368 0.985 . S
C5382 C5383 1.363 . S
C5382 C5388 1.379 1_455 S
C5382 N5390 1.356 . S
C5383 C5382 1.363 . S
C5383 C5389 1.363 . S
C5384 C5385 1.363 . S
C5384 C5389 1.379 1_655 S
C5384 N5391 1.356 . S
C5385 C5384 1.363 . S
C5385 C5388 1.363 . S
N5386 C5388 1.356 . S
N5386 H5398 0.984 . S
N5386 H5399 0.985 . S
N5387 C5389 1.356 . S
N5387 H5392 0.984 . S
N5387 H5393 0.985 . S
C5388 C5382 1.379 1_655 S
C5388 C5385 1.363 . S
C5388 N5386 1.356 . S
C5389 C5383 1.363 . S
C5389 C5384 1.379 1_455 S
C5389 N5387 1.356 . S
N5390 C5382 1.356 . S
N5390 H5396 0.984 . S
N5390 H5397 0.984 . S
N5391 C5384 1.356 . S
N5391 H5394 0.984 . S
N5391 H5395 0.985 . S
H5392 N5387 0.984 . S
H5393 N5387 0.985 . S
H5394 N5391 0.984 . S
H5395 N5391 0.985 . S
H5396 N5390 0.984 . S
H5397 N5390 0.984 . S
H5398 N5386 0.984 . S
H5399 N5386 0.985 . S
C5400 C5401 1.363 . S
C5400 C5406 1.379 1_565 S
C5400 N5408 1.356 . S
C5401 C5400 1.363 . S
C5401 C5407 1.363 . S
C5402 C5403 1.363 . S
C5402 C5407 1.379 1_545 S
C5402 N5409 1.356 . S
C5403 C5402 1.363 . S
C5403 C5406 1.363 . S
N5404 C5406 1.356 . S
N5404 H5416 0.984 . S
N5404 H5417 0.985 . S
N5405 C5407 1.356 . S
N5405 H5410 0.984 . S
N5405 H5411 0.985 . S
C5406 C5400 1.379 1_545 S
C5406 C5403 1.363 . S
C5406 N5404 1.356 . S
C5407 C5401 1.363 . S
C5407 C5402 1.379 1_565 S
C5407 N5405 1.356 . S
N5408 C5400 1.356 . S
N5408 H5414 0.984 . S
N5408 H5415 0.984 . S
N5409 C5402 1.356 . S
N5409 H5412 0.984 . S
N5409 H5413 0.985 . S
H5410 N5405 0.984 . S
H5411 N5405 0.985 . S
H5412 N5409 0.984 . S
H5413 N5409 0.985 . S
H5414 N5408 0.984 . S
H5415 N5408 0.984 . S
H5416 N5404 0.984 . S
H5417 N5404 0.985 . S
C5418 C5419 1.363 . S
C5418 C5424 1.379 1_455 S
C5418 N5426 1.356 . S
C5419 C5418 1.363 . S
C5419 C5425 1.363 . S
C5420 C5421 1.363 . S
C5420 C5425 1.379 1_655 S
C5420 N5427 1.356 . S
C5421 C5420 1.363 . S
C5421 C5424 1.363 . S
N5422 C5424 1.356 . S
N5422 H5434 0.984 . S
N5422 H5435 0.985 . S
N5423 C5425 1.356 . S
N5423 H5428 0.984 . S
N5423 H5429 0.985 . S
C5424 C5418 1.379 1_655 S
C5424 C5421 1.363 . S
C5424 N5422 1.356 . S
C5425 C5419 1.363 . S
C5425 C5420 1.379 1_455 S
C5425 N5423 1.356 . S
N5426 C5418 1.356 . S
N5426 H5432 0.984 . S
N5426 H5433 0.984 . S
N5427 C5420 1.356 . S
N5427 H5430 0.984 . S
N5427 H5431 0.985 . S
H5428 N5423 0.984 . S
H5429 N5423 0.985 . S
H5430 N5427 0.984 . S
H5431 N5427 0.985 . S
H5432 N5426 0.984 . S
H5433 N5426 0.984 . S
H5434 N5422 0.984 . S
H5435 N5422 0.985 . S
C5436 C5437 1.363 . S
C5436 C5442 1.379 1_545 S
C5436 N5444 1.356 . S
C5437 C5436 1.363 . S
C5437 C5443 1.363 . S
C5438 C5439 1.363 . S
C5438 C5443 1.379 1_565 S
C5438 N5445 1.356 . S
C5439 C5438 1.363 . S
C5439 C5442 1.363 . S
N5440 C5442 1.356 . S
N5440 H5452 0.984 . S
N5440 H5453 0.985 . S
N5441 C5443 1.356 . S
N5441 H5446 0.984 . S
N5441 H5447 0.985 . S
C5442 C5436 1.379 1_565 S
C5442 C5439 1.363 . S
C5442 N5440 1.356 . S
C5443 C5437 1.363 . S
C5443 C5438 1.379 1_545 S
C5443 N5441 1.356 . S
N5444 C5436 1.356 . S
N5444 H5450 0.984 . S
N5444 H5451 0.984 . S
N5445 C5438 1.356 . S
N5445 H5448 0.984 . S
N5445 H5449 0.985 . S
H5446 N5441 0.984 . S
H5447 N5441 0.985 . S
H5448 N5445 0.984 . S
H5449 N5445 0.985 . S
H5450 N5444 0.984 . S
H5451 N5444 0.984 . S
H5452 N5440 0.984 . S
H5453 N5440 0.985 . S
C5454 C5455 1.363 . S
C5454 C5460 1.379 1_455 S
C5454 N5462 1.356 . S
C5455 C5454 1.363 . S
C5455 C5461 1.363 . S
C5456 C5457 1.363 . S
C5456 C5461 1.379 1_655 S
C5456 N5463 1.356 . S
C5457 C5456 1.363 . S
C5457 C5460 1.363 . S
N5458 C5460 1.356 . S
N5458 H5470 0.984 . S
N5458 H5471 0.985 . S
N5459 C5461 1.356 . S
N5459 H5464 0.984 . S
N5459 H5465 0.985 . S
C5460 C5454 1.379 1_655 S
C5460 C5457 1.363 . S
C5460 N5458 1.356 . S
C5461 C5455 1.363 . S
C5461 C5456 1.379 1_455 S
C5461 N5459 1.356 . S
N5462 C5454 1.356 . S
N5462 H5468 0.984 . S
N5462 H5469 0.984 . S
N5463 C5456 1.356 . S
N5463 H5466 0.984 . S
N5463 H5467 0.985 . S
H5464 N5459 0.984 . S
H5465 N5459 0.985 . S
H5466 N5463 0.984 . S
H5467 N5463 0.985 . S
H5468 N5462 0.984 . S
H5469 N5462 0.984 . S
H5470 N5458 0.984 . S
H5471 N5458 0.985 . S
C5472 C5473 1.363 . S
C5472 C5478 1.379 1_554 S
C5472 N5480 1.356 . S
C5473 C5472 1.363 . S
C5473 C5479 1.363 . S
C5474 C5475 1.363 . S
C5474 C5479 1.379 1_556 S
C5474 N5481 1.356 . S
C5475 C5474 1.363 . S
C5475 C5478 1.363 . S
N5476 C5478 1.356 . S
N5476 H5488 0.984 . S
N5476 H5489 0.985 . S
N5477 C5479 1.356 . S
N5477 H5482 0.984 . S
N5477 H5483 0.985 . S
C5478 C5472 1.379 1_556 S
C5478 C5475 1.363 . S
C5478 N5476 1.356 . S
C5479 C5473 1.363 . S
C5479 C5474 1.379 1_554 S
C5479 N5477 1.356 . S
N5480 C5472 1.356 . S
N5480 H5486 0.984 . S
N5480 H5487 0.984 . S
N5481 C5474 1.356 . S
N5481 H5484 0.984 . S
N5481 H5485 0.985 . S
H5482 N5477 0.984 . S
H5483 N5477 0.985 . S
H5484 N5481 0.984 . S
H5485 N5481 0.985 . S
H5486 N5480 0.984 . S
H5487 N5480 0.984 . S
H5488 N5476 0.984 . S
H5489 N5476 0.985 . S
C5490 C5491 1.363 . S
C5490 C5496 1.379 1_556 S
C5490 N5498 1.356 . S
C5491 C5490 1.363 . S
C5491 C5497 1.363 . S
C5492 C5493 1.363 . S
C5492 C5497 1.379 1_554 S
C5492 N5499 1.356 . S
C5493 C5492 1.363 . S
C5493 C5496 1.363 . S
N5494 C5496 1.356 . S
N5494 H5506 0.984 . S
N5494 H5507 0.985 . S
N5495 C5497 1.356 . S
N5495 H5500 0.984 . S
N5495 H5501 0.985 . S
C5496 C5490 1.379 1_554 S
C5496 C5493 1.363 . S
C5496 N5494 1.356 . S
C5497 C5491 1.363 . S
C5497 C5492 1.379 1_556 S
C5497 N5495 1.356 . S
N5498 C5490 1.356 . S
N5498 H5504 0.984 . S
N5498 H5505 0.984 . S
N5499 C5492 1.356 . S
N5499 H5502 0.984 . S
N5499 H5503 0.985 . S
H5500 N5495 0.984 . S
H5501 N5495 0.985 . S
H5502 N5499 0.984 . S
H5503 N5499 0.985 . S
H5504 N5498 0.984 . S
H5505 N5498 0.984 . S
H5506 N5494 0.984 . S
H5507 N5494 0.985 . S
C5508 C5509 1.363 . S
C5508 C5514 1.379 1_554 S
C5508 N5516 1.356 . S
C5509 C5508 1.363 . S
C5509 C5515 1.363 . S
C5510 C5511 1.363 . S
C5510 C5515 1.379 1_556 S
C5510 N5517 1.356 . S
C5511 C5510 1.363 . S
C5511 C5514 1.363 . S
N5512 C5514 1.356 . S
N5512 H5524 0.984 . S
N5512 H5525 0.985 . S
N5513 C5515 1.356 . S
N5513 H5518 0.984 . S
N5513 H5519 0.985 . S
C5514 C5508 1.379 1_556 S
C5514 C5511 1.363 . S
C5514 N5512 1.356 . S
C5515 C5509 1.363 . S
C5515 C5510 1.379 1_554 S
C5515 N5513 1.356 . S
N5516 C5508 1.356 . S
N5516 H5522 0.984 . S
N5516 H5523 0.984 . S
N5517 C5510 1.356 . S
N5517 H5520 0.984 . S
N5517 H5521 0.985 . S
H5518 N5513 0.984 . S
H5519 N5513 0.985 . S
H5520 N5517 0.984 . S
H5521 N5517 0.985 . S
H5522 N5516 0.984 . S
H5523 N5516 0.984 . S
H5524 N5512 0.984 . S
H5525 N5512 0.985 . S
C5526 C5527 1.363 . S
C5526 C5532 1.379 1_556 S
C5526 N5534 1.356 . S
C5527 C5526 1.363 . S
C5527 C5533 1.363 . S
C5528 C5529 1.363 . S
C5528 C5533 1.379 1_554 S
C5528 N5535 1.356 . S
C5529 C5528 1.363 . S
C5529 C5532 1.363 . S
N5530 C5532 1.356 . S
N5530 H5542 0.984 . S
N5530 H5543 0.985 . S
N5531 C5533 1.356 . S
N5531 H5536 0.984 . S
N5531 H5537 0.985 . S
C5532 C5526 1.379 1_554 S
C5532 C5529 1.363 . S
C5532 N5530 1.356 . S
C5533 C5527 1.363 . S
C5533 C5528 1.379 1_556 S
C5533 N5531 1.356 . S
N5534 C5526 1.356 . S
N5534 H5540 0.984 . S
N5534 H5541 0.984 . S
N5535 C5528 1.356 . S
N5535 H5538 0.984 . S
N5535 H5539 0.985 . S
H5536 N5531 0.984 . S
H5537 N5531 0.985 . S
H5538 N5535 0.984 . S
H5539 N5535 0.985 . S
H5540 N5534 0.984 . S
H5541 N5534 0.984 . S
H5542 N5530 0.984 . S
H5543 N5530 0.985 . S
C5544 C5545 1.363 . S
C5544 C5550 1.379 1_554 S
C5544 N5552 1.356 . S
C5545 C5544 1.363 . S
C5545 C5551 1.363 . S
C5546 C5547 1.363 . S
C5546 C5551 1.379 1_556 S
C5546 N5553 1.356 . S
C5547 C5546 1.363 . S
C5547 C5550 1.363 . S
N5548 C5550 1.356 . S
N5548 H5560 0.984 . S
N5548 H5561 0.985 . S
N5549 C5551 1.356 . S
N5549 H5554 0.984 . S
N5549 H5555 0.985 . S
C5550 C5544 1.379 1_556 S
C5550 C5547 1.363 . S
C5550 N5548 1.356 . S
C5551 C5545 1.363 . S
C5551 C5546 1.379 1_554 S
C5551 N5549 1.356 . S
N5552 C5544 1.356 . S
N5552 H5558 0.984 . S
N5552 H5559 0.984 . S
N5553 C5546 1.356 . S
N5553 H5556 0.984 . S
N5553 H5557 0.985 . S
H5554 N5549 0.984 . S
H5555 N5549 0.985 . S
H5556 N5553 0.984 . S
H5557 N5553 0.985 . S
H5558 N5552 0.984 . S
H5559 N5552 0.984 . S
H5560 N5548 0.984 . S
H5561 N5548 0.985 . S
C5562 C5563 1.363 . S
C5562 C5568 1.379 1_554 S
C5562 N5570 1.356 . S
C5563 C5562 1.363 . S
C5563 C5569 1.363 . S
C5564 C5565 1.363 . S
C5564 C5569 1.379 1_556 S
C5564 N5571 1.356 . S
C5565 C5564 1.363 . S
C5565 C5568 1.363 . S
N5566 C5568 1.356 . S
N5566 H5578 0.984 . S
N5566 H5579 0.985 . S
N5567 C5569 1.356 . S
N5567 H5572 0.984 . S
N5567 H5573 0.985 . S
C5568 C5562 1.379 1_556 S
C5568 C5565 1.363 . S
C5568 N5566 1.356 . S
C5569 C5563 1.363 . S
C5569 C5564 1.379 1_554 S
C5569 N5567 1.356 . S
N5570 C5562 1.356 . S
N5570 H5576 0.984 . S
N5570 H5577 0.984 . S
N5571 C5564 1.356 . S
N5571 H5574 0.984 . S
N5571 H5575 0.985 . S
H5572 N5567 0.984 . S
H5573 N5567 0.985 . S
H5574 N5571 0.984 . S
H5575 N5571 0.985 . S
H5576 N5570 0.984 . S
H5577 N5570 0.984 . S
H5578 N5566 0.984 . S
H5579 N5566 0.985 . S
C5580 C5581 1.363 . S
C5580 C5586 1.379 1_556 S
C5580 N5588 1.356 . S
C5581 C5580 1.363 . S
C5581 C5587 1.363 . S
C5582 C5583 1.363 . S
C5582 C5587 1.379 1_554 S
C5582 N5589 1.356 . S
C5583 C5582 1.363 . S
C5583 C5586 1.363 . S
N5584 C5586 1.356 . S
N5584 H5596 0.984 . S
N5584 H5597 0.985 . S
N5585 C5587 1.356 . S
N5585 H5590 0.984 . S
N5585 H5591 0.985 . S
C5586 C5580 1.379 1_554 S
C5586 C5583 1.363 . S
C5586 N5584 1.356 . S
C5587 C5581 1.363 . S
C5587 C5582 1.379 1_556 S
C5587 N5585 1.356 . S
N5588 C5580 1.356 . S
N5588 H5594 0.984 . S
N5588 H5595 0.984 . S
N5589 C5582 1.356 . S
N5589 H5592 0.984 . S
N5589 H5593 0.985 . S
H5590 N5585 0.984 . S
H5591 N5585 0.985 . S
H5592 N5589 0.984 . S
H5593 N5589 0.985 . S
H5594 N5588 0.984 . S
H5595 N5588 0.984 . S
H5596 N5584 0.984 . S
H5597 N5584 0.985 . S
C5598 C5599 1.363 . S
C5598 C5604 1.379 1_556 S
C5598 N5606 1.356 . S
C5599 C5598 1.363 . S
C5599 C5605 1.363 . S
C5600 C5601 1.363 . S
C5600 C5605 1.379 1_554 S
C5600 N5607 1.356 . S
C5601 C5600 1.363 . S
C5601 C5604 1.363 . S
N5602 C5604 1.356 . S
N5602 H5614 0.984 . S
N5602 H5615 0.985 . S
N5603 C5605 1.356 . S
N5603 H5608 0.984 . S
N5603 H5609 0.985 . S
C5604 C5598 1.379 1_554 S
C5604 C5601 1.363 . S
C5604 N5602 1.356 . S
C5605 C5599 1.363 . S
C5605 C5600 1.379 1_556 S
C5605 N5603 1.356 . S
N5606 C5598 1.356 . S
N5606 H5612 0.984 . S
N5606 H5613 0.984 . S
N5607 C5600 1.356 . S
N5607 H5610 0.984 . S
N5607 H5611 0.985 . S
H5608 N5603 0.984 . S
H5609 N5603 0.985 . S
H5610 N5607 0.984 . S
H5611 N5607 0.985 . S
H5612 N5606 0.984 . S
H5613 N5606 0.984 . S
H5614 N5602 0.984 . S
H5615 N5602 0.985 . S
C5616 C5617 1.363 . S
C5616 C5622 1.379 . S
C5616 N5624 1.356 . S
C5617 C5616 1.363 . S
C5617 C5623 1.363 . S
C5618 C5619 1.363 . S
C5618 C5623 1.379 . S
C5618 N5625 1.356 . S
C5619 C5618 1.363 . S
C5619 C5622 1.363 . S
N5620 C5622 1.356 . S
N5620 H5632 0.984 . S
N5620 H5633 0.985 . S
N5621 C5623 1.356 . S
N5621 H5626 0.984 . S
N5621 H5627 0.985 . S
C5622 C5616 1.379 . S
C5622 C5619 1.363 . S
C5622 N5620 1.356 . S
C5623 C5617 1.363 . S
C5623 C5618 1.379 . S
C5623 N5621 1.356 . S
N5624 C5616 1.356 . S
N5624 H5630 0.984 . S
N5624 H5631 0.984 . S
N5625 C5618 1.356 . S
N5625 H5628 0.984 . S
N5625 H5629 0.985 . S
H5626 N5621 0.984 . S
H5627 N5621 0.985 . S
H5628 N5625 0.984 . S
H5629 N5625 0.985 . S
H5630 N5624 0.984 . S
H5631 N5624 0.984 . S
H5632 N5620 0.984 . S
H5633 N5620 0.985 . S
C5634 C5635 1.363 . S
C5634 C5640 1.379 . S
C5634 N5642 1.356 . S
C5635 C5634 1.363 . S
C5635 C5641 1.363 . S
C5636 C5637 1.363 . S
C5636 C5641 1.379 . S
C5636 N5643 1.356 . S
C5637 C5636 1.363 . S
C5637 C5640 1.363 . S
N5638 C5640 1.356 . S
N5638 H5650 0.984 . S
N5638 H5651 0.985 . S
N5639 C5641 1.356 . S
N5639 H5644 0.984 . S
N5639 H5645 0.985 . S
C5640 C5634 1.379 . S
C5640 C5637 1.363 . S
C5640 N5638 1.356 . S
C5641 C5635 1.363 . S
C5641 C5636 1.379 . S
C5641 N5639 1.356 . S
N5642 C5634 1.356 . S
N5642 H5648 0.984 . S
N5642 H5649 0.984 . S
N5643 C5636 1.356 . S
N5643 H5646 0.984 . S
N5643 H5647 0.985 . S
H5644 N5639 0.984 . S
H5645 N5639 0.985 . S
H5646 N5643 0.984 . S
H5647 N5643 0.985 . S
H5648 N5642 0.984 . S
H5649 N5642 0.984 . S
H5650 N5638 0.984 . S
H5651 N5638 0.985 . S
C5652 C5653 1.363 . S
C5652 C5658 1.379 . S
C5652 N5660 1.356 . S
C5653 C5652 1.363 . S
C5653 C5659 1.363 . S
C5654 C5655 1.363 . S
C5654 C5659 1.379 . S
C5654 N5661 1.356 . S
C5655 C5654 1.363 . S
C5655 C5658 1.363 . S
N5656 C5658 1.356 . S
N5656 H5668 0.984 . S
N5656 H5669 0.985 . S
N5657 C5659 1.356 . S
N5657 H5662 0.984 . S
N5657 H5663 0.985 . S
C5658 C5652 1.379 . S
C5658 C5655 1.363 . S
C5658 N5656 1.356 . S
C5659 C5653 1.363 . S
C5659 C5654 1.379 . S
C5659 N5657 1.356 . S
N5660 C5652 1.356 . S
N5660 H5666 0.984 . S
N5660 H5667 0.984 . S
N5661 C5654 1.356 . S
N5661 H5664 0.984 . S
N5661 H5665 0.985 . S
H5662 N5657 0.984 . S
H5663 N5657 0.985 . S
H5664 N5661 0.984 . S
H5665 N5661 0.985 . S
H5666 N5660 0.984 . S
H5667 N5660 0.984 . S
H5668 N5656 0.984 . S
H5669 N5656 0.985 . S
C5670 C5671 1.363 . S
C5670 C5676 1.379 . S
C5670 N5678 1.356 . S
C5671 C5670 1.363 . S
C5671 C5677 1.363 . S
C5672 C5673 1.363 . S
C5672 C5677 1.379 . S
C5672 N5679 1.356 . S
C5673 C5672 1.363 . S
C5673 C5676 1.363 . S
N5674 C5676 1.356 . S
N5674 H5686 0.984 . S
N5674 H5687 0.985 . S
N5675 C5677 1.356 . S
N5675 H5680 0.984 . S
N5675 H5681 0.985 . S
C5676 C5670 1.379 . S
C5676 C5673 1.363 . S
C5676 N5674 1.356 . S
C5677 C5671 1.363 . S
C5677 C5672 1.379 . S
C5677 N5675 1.356 . S
N5678 C5670 1.356 . S
N5678 H5684 0.984 . S
N5678 H5685 0.984 . S
N5679 C5672 1.356 . S
N5679 H5682 0.984 . S
N5679 H5683 0.985 . S
H5680 N5675 0.984 . S
H5681 N5675 0.985 . S
H5682 N5679 0.984 . S
H5683 N5679 0.985 . S
H5684 N5678 0.984 . S
H5685 N5678 0.984 . S
H5686 N5674 0.984 . S
H5687 N5674 0.985 . S
C5688 C5689 1.363 . S
C5688 C5694 1.379 . S
C5688 N5696 1.356 . S
C5689 C5688 1.363 . S
C5689 C5695 1.363 . S
C5690 C5691 1.363 . S
C5690 C5695 1.379 . S
C5690 N5697 1.356 . S
C5691 C5690 1.363 . S
C5691 C5694 1.363 . S
N5692 C5694 1.356 . S
N5692 H5704 0.984 . S
N5692 H5705 0.985 . S
N5693 C5695 1.356 . S
N5693 H5698 0.984 . S
N5693 H5699 0.985 . S
C5694 C5688 1.379 . S
C5694 C5691 1.363 . S
C5694 N5692 1.356 . S
C5695 C5689 1.363 . S
C5695 C5690 1.379 . S
C5695 N5693 1.356 . S
N5696 C5688 1.356 . S
N5696 H5702 0.984 . S
N5696 H5703 0.984 . S
N5697 C5690 1.356 . S
N5697 H5700 0.984 . S
N5697 H5701 0.985 . S
H5698 N5693 0.984 . S
H5699 N5693 0.985 . S
H5700 N5697 0.984 . S
H5701 N5697 0.985 . S
H5702 N5696 0.984 . S
H5703 N5696 0.984 . S
H5704 N5692 0.984 . S
H5705 N5692 0.985 . S
C5706 C5707 1.363 . S
C5706 C5712 1.379 . S
C5706 N5714 1.356 . S
C5707 C5706 1.363 . S
C5707 C5713 1.363 . S
C5708 C5709 1.363 . S
C5708 C5713 1.379 . S
C5708 N5715 1.356 . S
C5709 C5708 1.363 . S
C5709 C5712 1.363 . S
N5710 C5712 1.356 . S
N5710 H5722 0.984 . S
N5710 H5723 0.985 . S
N5711 C5713 1.356 . S
N5711 H5716 0.984 . S
N5711 H5717 0.985 . S
C5712 C5706 1.379 . S
C5712 C5709 1.363 . S
C5712 N5710 1.356 . S
C5713 C5707 1.363 . S
C5713 C5708 1.379 . S
C5713 N5711 1.356 . S
N5714 C5706 1.356 . S
N5714 H5720 0.984 . S
N5714 H5721 0.984 . S
N5715 C5708 1.356 . S
N5715 H5718 0.984 . S
N5715 H5719 0.985 . S
H5716 N5711 0.984 . S
H5717 N5711 0.985 . S
H5718 N5715 0.984 . S
H5719 N5715 0.985 . S
H5720 N5714 0.984 . S
H5721 N5714 0.984 . S
H5722 N5710 0.984 . S
H5723 N5710 0.985 . S
C5724 C5725 1.363 . S
C5724 C5730 1.379 . S
C5724 N5732 1.356 . S
C5725 C5724 1.363 . S
C5725 C5731 1.363 . S
C5726 C5727 1.363 . S
C5726 C5731 1.379 . S
C5726 N5733 1.356 . S
C5727 C5726 1.363 . S
C5727 C5730 1.363 . S
N5728 C5730 1.356 . S
N5728 H5740 0.984 . S
N5728 H5741 0.985 . S
N5729 C5731 1.356 . S
N5729 H5734 0.984 . S
N5729 H5735 0.985 . S
C5730 C5724 1.379 . S
C5730 C5727 1.363 . S
C5730 N5728 1.356 . S
C5731 C5725 1.363 . S
C5731 C5726 1.379 . S
C5731 N5729 1.356 . S
N5732 C5724 1.356 . S
N5732 H5738 0.984 . S
N5732 H5739 0.984 . S
N5733 C5726 1.356 . S
N5733 H5736 0.984 . S
N5733 H5737 0.985 . S
H5734 N5729 0.984 . S
H5735 N5729 0.985 . S
H5736 N5733 0.984 . S
H5737 N5733 0.985 . S
H5738 N5732 0.984 . S
H5739 N5732 0.984 . S
H5740 N5728 0.984 . S
H5741 N5728 0.985 . S
C5742 C5743 1.363 . S
C5742 C5748 1.379 . S
C5742 N5750 1.356 . S
C5743 C5742 1.363 . S
C5743 C5749 1.363 . S
C5744 C5745 1.363 . S
C5744 C5749 1.379 . S
C5744 N5751 1.356 . S
C5745 C5744 1.363 . S
C5745 C5748 1.363 . S
N5746 C5748 1.356 . S
N5746 H5758 0.984 . S
N5746 H5759 0.985 . S
N5747 C5749 1.356 . S
N5747 H5752 0.984 . S
N5747 H5753 0.985 . S
C5748 C5742 1.379 . S
C5748 C5745 1.363 . S
C5748 N5746 1.356 . S
C5749 C5743 1.363 . S
C5749 C5744 1.379 . S
C5749 N5747 1.356 . S
N5750 C5742 1.356 . S
N5750 H5756 0.984 . S
N5750 H5757 0.984 . S
N5751 C5744 1.356 . S
N5751 H5754 0.984 . S
N5751 H5755 0.985 . S
H5752 N5747 0.984 . S
H5753 N5747 0.985 . S
H5754 N5751 0.984 . S
H5755 N5751 0.985 . S
H5756 N5750 0.984 . S
H5757 N5750 0.984 . S
H5758 N5746 0.984 . S
H5759 N5746 0.985 . S
C5760 C5761 1.363 . S
C5760 C5766 1.379 . S
C5760 N5768 1.356 . S
C5761 C5760 1.363 . S
C5761 C5767 1.363 . S
C5762 C5763 1.363 . S
C5762 C5767 1.379 . S
C5762 N5769 1.356 . S
C5763 C5762 1.363 . S
C5763 C5766 1.363 . S
N5764 C5766 1.356 . S
N5764 H5776 0.984 . S
N5764 H5777 0.985 . S
N5765 C5767 1.356 . S
N5765 H5770 0.984 . S
N5765 H5771 0.985 . S
C5766 C5760 1.379 . S
C5766 C5763 1.363 . S
C5766 N5764 1.356 . S
C5767 C5761 1.363 . S
C5767 C5762 1.379 . S
C5767 N5765 1.356 . S
N5768 C5760 1.356 . S
N5768 H5774 0.984 . S
N5768 H5775 0.984 . S
N5769 C5762 1.356 . S
N5769 H5772 0.984 . S
N5769 H5773 0.985 . S
H5770 N5765 0.984 . S
H5771 N5765 0.985 . S
H5772 N5769 0.984 . S
H5773 N5769 0.985 . S
H5774 N5768 0.984 . S
H5775 N5768 0.984 . S
H5776 N5764 0.984 . S
H5777 N5764 0.985 . S
C5778 C5779 1.363 . S
C5778 C5784 1.379 . S
C5778 N5786 1.356 . S
C5779 C5778 1.363 . S
C5779 C5785 1.363 . S
C5780 C5781 1.363 . S
C5780 C5785 1.379 . S
C5780 N5787 1.356 . S
C5781 C5780 1.363 . S
C5781 C5784 1.363 . S
N5782 C5784 1.356 . S
N5782 H5794 0.984 . S
N5782 H5795 0.985 . S
N5783 C5785 1.356 . S
N5783 H5788 0.984 . S
N5783 H5789 0.985 . S
C5784 C5778 1.379 . S
C5784 C5781 1.363 . S
C5784 N5782 1.356 . S
C5785 C5779 1.363 . S
C5785 C5780 1.379 . S
C5785 N5783 1.356 . S
N5786 C5778 1.356 . S
N5786 H5792 0.984 . S
N5786 H5793 0.984 . S
N5787 C5780 1.356 . S
N5787 H5790 0.984 . S
N5787 H5791 0.985 . S
H5788 N5783 0.984 . S
H5789 N5783 0.985 . S
H5790 N5787 0.984 . S
H5791 N5787 0.985 . S
H5792 N5786 0.984 . S
H5793 N5786 0.984 . S
H5794 N5782 0.984 . S
H5795 N5782 0.985 . S
C5796 C5797 1.363 . S
C5796 C5802 1.379 . S
C5796 N5804 1.356 . S
C5797 C5796 1.363 . S
C5797 C5803 1.363 . S
C5798 C5799 1.363 . S
C5798 C5803 1.379 . S
C5798 N5805 1.356 . S
C5799 C5798 1.363 . S
C5799 C5802 1.363 . S
N5800 C5802 1.356 . S
N5800 H5812 0.984 . S
N5800 H5813 0.985 . S
N5801 C5803 1.356 . S
N5801 H5806 0.984 . S
N5801 H5807 0.985 . S
C5802 C5796 1.379 . S
C5802 C5799 1.363 . S
C5802 N5800 1.356 . S
C5803 C5797 1.363 . S
C5803 C5798 1.379 . S
C5803 N5801 1.356 . S
N5804 C5796 1.356 . S
N5804 H5810 0.984 . S
N5804 H5811 0.984 . S
N5805 C5798 1.356 . S
N5805 H5808 0.984 . S
N5805 H5809 0.985 . S
H5806 N5801 0.984 . S
H5807 N5801 0.985 . S
H5808 N5805 0.984 . S
H5809 N5805 0.985 . S
H5810 N5804 0.984 . S
H5811 N5804 0.984 . S
H5812 N5800 0.984 . S
H5813 N5800 0.985 . S
C5814 C5815 1.363 . S
C5814 C5820 1.379 . S
C5814 N5822 1.356 . S
C5815 C5814 1.363 . S
C5815 C5821 1.363 . S
C5816 C5817 1.363 . S
C5816 C5821 1.379 . S
C5816 N5823 1.356 . S
C5817 C5816 1.363 . S
C5817 C5820 1.363 . S
N5818 C5820 1.356 . S
N5818 H5830 0.984 . S
N5818 H5831 0.985 . S
N5819 C5821 1.356 . S
N5819 H5824 0.984 . S
N5819 H5825 0.985 . S
C5820 C5814 1.379 . S
C5820 C5817 1.363 . S
C5820 N5818 1.356 . S
C5821 C5815 1.363 . S
C5821 C5816 1.379 . S
C5821 N5819 1.356 . S
N5822 C5814 1.356 . S
N5822 H5828 0.984 . S
N5822 H5829 0.984 . S
N5823 C5816 1.356 . S
N5823 H5826 0.984 . S
N5823 H5827 0.985 . S
H5824 N5819 0.984 . S
H5825 N5819 0.985 . S
H5826 N5823 0.984 . S
H5827 N5823 0.985 . S
H5828 N5822 0.984 . S
H5829 N5822 0.984 . S
H5830 N5818 0.984 . S
H5831 N5818 0.985 . S
C5832 C5833 1.363 . S
C5832 C5838 1.379 . S
C5832 N5840 1.356 . S
C5833 C5832 1.363 . S
C5833 C5839 1.363 . S
C5834 C5835 1.363 . S
C5834 C5839 1.379 . S
C5834 N5841 1.356 . S
C5835 C5834 1.363 . S
C5835 C5838 1.363 . S
N5836 C5838 1.356 . S
N5836 H5848 0.984 . S
N5836 H5849 0.985 . S
N5837 C5839 1.356 . S
N5837 H5842 0.984 . S
N5837 H5843 0.985 . S
C5838 C5832 1.379 . S
C5838 C5835 1.363 . S
C5838 N5836 1.356 . S
C5839 C5833 1.363 . S
C5839 C5834 1.379 . S
C5839 N5837 1.356 . S
N5840 C5832 1.356 . S
N5840 H5846 0.984 . S
N5840 H5847 0.984 . S
N5841 C5834 1.356 . S
N5841 H5844 0.984 . S
N5841 H5845 0.985 . S
H5842 N5837 0.984 . S
H5843 N5837 0.985 . S
H5844 N5841 0.984 . S
H5845 N5841 0.985 . S
H5846 N5840 0.984 . S
H5847 N5840 0.984 . S
H5848 N5836 0.984 . S
H5849 N5836 0.985 . S
C5850 C5851 1.363 . S
C5850 C5856 1.379 . S
C5850 N5858 1.356 . S
C5851 C5850 1.363 . S
C5851 C5857 1.363 . S
C5852 C5853 1.363 . S
C5852 C5857 1.379 . S
C5852 N5859 1.356 . S
C5853 C5852 1.363 . S
C5853 C5856 1.363 . S
N5854 C5856 1.356 . S
N5854 H5866 0.984 . S
N5854 H5867 0.985 . S
N5855 C5857 1.356 . S
N5855 H5860 0.984 . S
N5855 H5861 0.985 . S
C5856 C5850 1.379 . S
C5856 C5853 1.363 . S
C5856 N5854 1.356 . S
C5857 C5851 1.363 . S
C5857 C5852 1.379 . S
C5857 N5855 1.356 . S
N5858 C5850 1.356 . S
N5858 H5864 0.984 . S
N5858 H5865 0.984 . S
N5859 C5852 1.356 . S
N5859 H5862 0.984 . S
N5859 H5863 0.985 . S
H5860 N5855 0.984 . S
H5861 N5855 0.985 . S
H5862 N5859 0.984 . S
H5863 N5859 0.985 . S
H5864 N5858 0.984 . S
H5865 N5858 0.984 . S
H5866 N5854 0.984 . S
H5867 N5854 0.985 . S
C5868 C5869 1.363 . S
C5868 C5874 1.379 . S
C5868 N5876 1.356 . S
C5869 C5868 1.363 . S
C5869 C5875 1.363 . S
C5870 C5871 1.363 . S
C5870 C5875 1.379 . S
C5870 N5877 1.356 . S
C5871 C5870 1.363 . S
C5871 C5874 1.363 . S
N5872 C5874 1.356 . S
N5872 H5884 0.984 . S
N5872 H5885 0.985 . S
N5873 C5875 1.356 . S
N5873 H5878 0.984 . S
N5873 H5879 0.985 . S
C5874 C5868 1.379 . S
C5874 C5871 1.363 . S
C5874 N5872 1.356 . S
C5875 C5869 1.363 . S
C5875 C5870 1.379 . S
C5875 N5873 1.356 . S
N5876 C5868 1.356 . S
N5876 H5882 0.984 . S
N5876 H5883 0.984 . S
N5877 C5870 1.356 . S
N5877 H5880 0.984 . S
N5877 H5881 0.985 . S
H5878 N5873 0.984 . S
H5879 N5873 0.985 . S
H5880 N5877 0.984 . S
H5881 N5877 0.985 . S
H5882 N5876 0.984 . S
H5883 N5876 0.984 . S
H5884 N5872 0.984 . S
H5885 N5872 0.985 . S
C5886 C5887 1.363 . S
C5886 C5892 1.379 . S
C5886 N5894 1.356 . S
C5887 C5886 1.363 . S
C5887 C5893 1.363 . S
C5888 C5889 1.363 . S
C5888 C5893 1.379 . S
C5888 N5895 1.356 . S
C5889 C5888 1.363 . S
C5889 C5892 1.363 . S
N5890 C5892 1.356 . S
N5890 H5902 0.984 . S
N5890 H5903 0.985 . S
N5891 C5893 1.356 . S
N5891 H5896 0.984 . S
N5891 H5897 0.985 . S
C5892 C5886 1.379 . S
C5892 C5889 1.363 . S
C5892 N5890 1.356 . S
C5893 C5887 1.363 . S
C5893 C5888 1.379 . S
C5893 N5891 1.356 . S
N5894 C5886 1.356 . S
N5894 H5900 0.984 . S
N5894 H5901 0.984 . S
N5895 C5888 1.356 . S
N5895 H5898 0.984 . S
N5895 H5899 0.985 . S
H5896 N5891 0.984 . S
H5897 N5891 0.985 . S
H5898 N5895 0.984 . S
H5899 N5895 0.985 . S
H5900 N5894 0.984 . S
H5901 N5894 0.984 . S
H5902 N5890 0.984 . S
H5903 N5890 0.985 . S
C5904 C5905 1.363 . S
C5904 C5910 1.379 . S
C5904 N5912 1.356 . S
C5905 C5904 1.363 . S
C5905 C5911 1.363 . S
C5906 C5907 1.363 . S
C5906 C5911 1.379 . S
C5906 N5913 1.356 . S
C5907 C5906 1.363 . S
C5907 C5910 1.363 . S
N5908 C5910 1.356 . S
N5908 H5920 0.984 . S
N5908 H5921 0.985 . S
N5909 C5911 1.356 . S
N5909 H5914 0.984 . S
N5909 H5915 0.985 . S
C5910 C5904 1.379 . S
C5910 C5907 1.363 . S
C5910 N5908 1.356 . S
C5911 C5905 1.363 . S
C5911 C5906 1.379 . S
C5911 N5909 1.356 . S
N5912 C5904 1.356 . S
N5912 H5918 0.984 . S
N5912 H5919 0.984 . S
N5913 C5906 1.356 . S
N5913 H5916 0.984 . S
N5913 H5917 0.985 . S
H5914 N5909 0.984 . S
H5915 N5909 0.985 . S
H5916 N5913 0.984 . S
H5917 N5913 0.985 . S
H5918 N5912 0.984 . S
H5919 N5912 0.984 . S
H5920 N5908 0.984 . S
H5921 N5908 0.985 . S
C5922 C5923 1.363 . S
C5922 C5928 1.379 . S
C5922 N5930 1.356 . S
C5923 C5922 1.363 . S
C5923 C5929 1.363 . S
C5924 C5925 1.363 . S
C5924 C5929 1.379 . S
C5924 N5931 1.356 . S
C5925 C5924 1.363 . S
C5925 C5928 1.363 . S
N5926 C5928 1.356 . S
N5926 H5938 0.984 . S
N5926 H5939 0.985 . S
N5927 C5929 1.356 . S
N5927 H5932 0.984 . S
N5927 H5933 0.985 . S
C5928 C5922 1.379 . S
C5928 C5925 1.363 . S
C5928 N5926 1.356 . S
C5929 C5923 1.363 . S
C5929 C5924 1.379 . S
C5929 N5927 1.356 . S
N5930 C5922 1.356 . S
N5930 H5936 0.984 . S
N5930 H5937 0.984 . S
N5931 C5924 1.356 . S
N5931 H5934 0.984 . S
N5931 H5935 0.985 . S
H5932 N5927 0.984 . S
H5933 N5927 0.985 . S
H5934 N5931 0.984 . S
H5935 N5931 0.985 . S
H5936 N5930 0.984 . S
H5937 N5930 0.984 . S
H5938 N5926 0.984 . S
H5939 N5926 0.985 . S
C5940 C5941 1.363 . S
C5940 C5946 1.379 . S
C5940 N5948 1.356 . S
C5941 C5940 1.363 . S
C5941 C5947 1.363 . S
C5942 C5943 1.363 . S
C5942 C5947 1.379 . S
C5942 N5949 1.356 . S
C5943 C5942 1.363 . S
C5943 C5946 1.363 . S
N5944 C5946 1.356 . S
N5944 H5956 0.984 . S
N5944 H5957 0.985 . S
N5945 C5947 1.356 . S
N5945 H5950 0.984 . S
N5945 H5951 0.985 . S
C5946 C5940 1.379 . S
C5946 C5943 1.363 . S
C5946 N5944 1.356 . S
C5947 C5941 1.363 . S
C5947 C5942 1.379 . S
C5947 N5945 1.356 . S
N5948 C5940 1.356 . S
N5948 H5954 0.984 . S
N5948 H5955 0.984 . S
N5949 C5942 1.356 . S
N5949 H5952 0.984 . S
N5949 H5953 0.985 . S
H5950 N5945 0.984 . S
H5951 N5945 0.985 . S
H5952 N5949 0.984 . S
H5953 N5949 0.985 . S
H5954 N5948 0.984 . S
H5955 N5948 0.984 . S
H5956 N5944 0.984 . S
H5957 N5944 0.985 . S
C5958 C5959 1.363 . S
C5958 C5964 1.379 . S
C5958 N5966 1.356 . S
C5959 C5958 1.363 . S
C5959 C5965 1.363 . S
C5960 C5961 1.363 . S
C5960 C5965 1.379 . S
C5960 N5967 1.356 . S
C5961 C5960 1.363 . S
C5961 C5964 1.363 . S
N5962 C5964 1.356 . S
N5962 H5974 0.984 . S
N5962 H5975 0.985 . S
N5963 C5965 1.356 . S
N5963 H5968 0.984 . S
N5963 H5969 0.985 . S
C5964 C5958 1.379 . S
C5964 C5961 1.363 . S
C5964 N5962 1.356 . S
C5965 C5959 1.363 . S
C5965 C5960 1.379 . S
C5965 N5963 1.356 . S
N5966 C5958 1.356 . S
N5966 H5972 0.984 . S
N5966 H5973 0.984 . S
N5967 C5960 1.356 . S
N5967 H5970 0.984 . S
N5967 H5971 0.985 . S
H5968 N5963 0.984 . S
H5969 N5963 0.985 . S
H5970 N5967 0.984 . S
H5971 N5967 0.985 . S
H5972 N5966 0.984 . S
H5973 N5966 0.984 . S
H5974 N5962 0.984 . S
H5975 N5962 0.985 . S
C5976 C5977 1.363 . S
C5976 C5982 1.379 . S
C5976 N5984 1.356 . S
C5977 C5976 1.363 . S
C5977 C5983 1.363 . S
C5978 C5979 1.363 . S
C5978 C5983 1.379 . S
C5978 N5985 1.356 . S
C5979 C5978 1.363 . S
C5979 C5982 1.363 . S
N5980 C5982 1.356 . S
N5980 H5992 0.984 . S
N5980 H5993 0.985 . S
N5981 C5983 1.356 . S
N5981 H5986 0.984 . S
N5981 H5987 0.985 . S
C5982 C5976 1.379 . S
C5982 C5979 1.363 . S
C5982 N5980 1.356 . S
C5983 C5977 1.363 . S
C5983 C5978 1.379 . S
C5983 N5981 1.356 . S
N5984 C5976 1.356 . S
N5984 H5990 0.984 . S
N5984 H5991 0.984 . S
N5985 C5978 1.356 . S
N5985 H5988 0.984 . S
N5985 H5989 0.985 . S
H5986 N5981 0.984 . S
H5987 N5981 0.985 . S
H5988 N5985 0.984 . S
H5989 N5985 0.985 . S
H5990 N5984 0.984 . S
H5991 N5984 0.984 . S
H5992 N5980 0.984 . S
H5993 N5980 0.985 . S
C5994 C5995 1.363 . S
C5994 C6000 1.379 . S
C5994 N6002 1.356 . S
C5995 C5994 1.363 . S
C5995 C6001 1.363 . S
C5996 C5997 1.363 . S
C5996 C6001 1.379 . S
C5996 N6003 1.356 . S
C5997 C5996 1.363 . S
C5997 C6000 1.363 . S
N5998 C6000 1.356 . S
N5998 H6010 0.984 . S
N5998 H6011 0.985 . S
N5999 C6001 1.356 . S
N5999 H6004 0.984 . S
N5999 H6005 0.985 . S
C6000 C5994 1.379 . S
C6000 C5997 1.363 . S
C6000 N5998 1.356 . S
C6001 C5995 1.363 . S
C6001 C5996 1.379 . S
C6001 N5999 1.356 . S
N6002 C5994 1.356 . S
N6002 H6008 0.984 . S
N6002 H6009 0.984 . S
N6003 C5996 1.356 . S
N6003 H6006 0.984 . S
N6003 H6007 0.985 . S
H6004 N5999 0.984 . S
H6005 N5999 0.985 . S
H6006 N6003 0.984 . S
H6007 N6003 0.985 . S
H6008 N6002 0.984 . S
H6009 N6002 0.984 . S
H6010 N5998 0.984 . S
H6011 N5998 0.985 . S
C6012 C6013 1.363 . S
C6012 C6018 1.379 . S
C6012 N6020 1.356 . S
C6013 C6012 1.363 . S
C6013 C6019 1.363 . S
C6014 C6015 1.363 . S
C6014 C6019 1.379 . S
C6014 N6021 1.356 . S
C6015 C6014 1.363 . S
C6015 C6018 1.363 . S
N6016 C6018 1.356 . S
N6016 H6028 0.984 . S
N6016 H6029 0.985 . S
N6017 C6019 1.356 . S
N6017 H6022 0.984 . S
N6017 H6023 0.985 . S
C6018 C6012 1.379 . S
C6018 C6015 1.363 . S
C6018 N6016 1.356 . S
C6019 C6013 1.363 . S
C6019 C6014 1.379 . S
C6019 N6017 1.356 . S
N6020 C6012 1.356 . S
N6020 H6026 0.984 . S
N6020 H6027 0.984 . S
N6021 C6014 1.356 . S
N6021 H6024 0.984 . S
N6021 H6025 0.985 . S
H6022 N6017 0.984 . S
H6023 N6017 0.985 . S
H6024 N6021 0.984 . S
H6025 N6021 0.985 . S
H6026 N6020 0.984 . S
H6027 N6020 0.984 . S
H6028 N6016 0.984 . S
H6029 N6016 0.985 . S
C6030 C6031 1.363 . S
C6030 C6036 1.379 . S
C6030 N6038 1.356 . S
C6031 C6030 1.363 . S
C6031 C6037 1.363 . S
C6032 C6033 1.363 . S
C6032 C6037 1.379 . S
C6032 N6039 1.356 . S
C6033 C6032 1.363 . S
C6033 C6036 1.363 . S
N6034 C6036 1.356 . S
N6034 H6046 0.984 . S
N6034 H6047 0.985 . S
N6035 C6037 1.356 . S
N6035 H6040 0.984 . S
N6035 H6041 0.985 . S
C6036 C6030 1.379 . S
C6036 C6033 1.363 . S
C6036 N6034 1.356 . S
C6037 C6031 1.363 . S
C6037 C6032 1.379 . S
C6037 N6035 1.356 . S
N6038 C6030 1.356 . S
N6038 H6044 0.984 . S
N6038 H6045 0.984 . S
N6039 C6032 1.356 . S
N6039 H6042 0.984 . S
N6039 H6043 0.985 . S
H6040 N6035 0.984 . S
H6041 N6035 0.985 . S
H6042 N6039 0.984 . S
H6043 N6039 0.985 . S
H6044 N6038 0.984 . S
H6045 N6038 0.984 . S
H6046 N6034 0.984 . S
H6047 N6034 0.985 . S
C6048 C6049 1.363 . S
C6048 C6054 1.379 . S
C6048 N6056 1.356 . S
C6049 C6048 1.363 . S
C6049 C6055 1.363 . S
C6050 C6051 1.363 . S
C6050 C6055 1.379 . S
C6050 N6057 1.356 . S
C6051 C6050 1.363 . S
C6051 C6054 1.363 . S
N6052 C6054 1.356 . S
N6052 H6064 0.984 . S
N6052 H6065 0.985 . S
N6053 C6055 1.356 . S
N6053 H6058 0.984 . S
N6053 H6059 0.985 . S
C6054 C6048 1.379 . S
C6054 C6051 1.363 . S
C6054 N6052 1.356 . S
C6055 C6049 1.363 . S
C6055 C6050 1.379 . S
C6055 N6053 1.356 . S
N6056 C6048 1.356 . S
N6056 H6062 0.984 . S
N6056 H6063 0.984 . S
N6057 C6050 1.356 . S
N6057 H6060 0.984 . S
N6057 H6061 0.985 . S
H6058 N6053 0.984 . S
H6059 N6053 0.985 . S
H6060 N6057 0.984 . S
H6061 N6057 0.985 . S
H6062 N6056 0.984 . S
H6063 N6056 0.984 . S
H6064 N6052 0.984 . S
H6065 N6052 0.985 . S
C6066 C6067 1.363 . S
C6066 C6072 1.379 . S
C6066 N6074 1.356 . S
C6067 C6066 1.363 . S
C6067 C6073 1.363 . S
C6068 C6069 1.363 . S
C6068 C6073 1.379 . S
C6068 N6075 1.356 . S
C6069 C6068 1.363 . S
C6069 C6072 1.363 . S
N6070 C6072 1.356 . S
N6070 H6082 0.984 . S
N6070 H6083 0.985 . S
N6071 C6073 1.356 . S
N6071 H6076 0.984 . S
N6071 H6077 0.985 . S
C6072 C6066 1.379 . S
C6072 C6069 1.363 . S
C6072 N6070 1.356 . S
C6073 C6067 1.363 . S
C6073 C6068 1.379 . S
C6073 N6071 1.356 . S
N6074 C6066 1.356 . S
N6074 H6080 0.984 . S
N6074 H6081 0.984 . S
N6075 C6068 1.356 . S
N6075 H6078 0.984 . S
N6075 H6079 0.985 . S
H6076 N6071 0.984 . S
H6077 N6071 0.985 . S
H6078 N6075 0.984 . S
H6079 N6075 0.985 . S
H6080 N6074 0.984 . S
H6081 N6074 0.984 . S
H6082 N6070 0.984 . S
H6083 N6070 0.985 . S
C6084 C6085 1.363 . S
C6084 C6090 1.379 . S
C6084 N6092 1.356 . S
C6085 C6084 1.363 . S
C6085 C6091 1.363 . S
C6086 C6087 1.363 . S
C6086 C6091 1.379 . S
C6086 N6093 1.356 . S
C6087 C6086 1.363 . S
C6087 C6090 1.363 . S
N6088 C6090 1.356 . S
N6088 H6100 0.984 . S
N6088 H6101 0.985 . S
N6089 C6091 1.356 . S
N6089 H6094 0.984 . S
N6089 H6095 0.985 . S
C6090 C6084 1.379 . S
C6090 C6087 1.363 . S
C6090 N6088 1.356 . S
C6091 C6085 1.363 . S
C6091 C6086 1.379 . S
C6091 N6089 1.356 . S
N6092 C6084 1.356 . S
N6092 H6098 0.984 . S
N6092 H6099 0.984 . S
N6093 C6086 1.356 . S
N6093 H6096 0.984 . S
N6093 H6097 0.985 . S
H6094 N6089 0.984 . S
H6095 N6089 0.985 . S
H6096 N6093 0.984 . S
H6097 N6093 0.985 . S
H6098 N6092 0.984 . S
H6099 N6092 0.984 . S
H6100 N6088 0.984 . S
H6101 N6088 0.985 . S
C6102 C6103 1.363 . S
C6102 C6108 1.379 . S
C6102 N6110 1.356 . S
C6103 C6102 1.363 . S
C6103 C6109 1.363 . S
C6104 C6105 1.363 . S
C6104 C6109 1.379 . S
C6104 N6111 1.356 . S
C6105 C6104 1.363 . S
C6105 C6108 1.363 . S
N6106 C6108 1.356 . S
N6106 H6118 0.984 . S
N6106 H6119 0.985 . S
N6107 C6109 1.356 . S
N6107 H6112 0.984 . S
N6107 H6113 0.985 . S
C6108 C6102 1.379 . S
C6108 C6105 1.363 . S
C6108 N6106 1.356 . S
C6109 C6103 1.363 . S
C6109 C6104 1.379 . S
C6109 N6107 1.356 . S
N6110 C6102 1.356 . S
N6110 H6116 0.984 . S
N6110 H6117 0.984 . S
N6111 C6104 1.356 . S
N6111 H6114 0.984 . S
N6111 H6115 0.985 . S
H6112 N6107 0.984 . S
H6113 N6107 0.985 . S
H6114 N6111 0.984 . S
H6115 N6111 0.985 . S
H6116 N6110 0.984 . S
H6117 N6110 0.984 . S
H6118 N6106 0.984 . S
H6119 N6106 0.985 . S
C6120 C6121 1.363 . S
C6120 C6126 1.379 . S
C6120 N6128 1.356 . S
C6121 C6120 1.363 . S
C6121 C6127 1.363 . S
C6122 C6123 1.363 . S
C6122 C6127 1.379 . S
C6122 N6129 1.356 . S
C6123 C6122 1.363 . S
C6123 C6126 1.363 . S
N6124 C6126 1.356 . S
N6124 H6136 0.984 . S
N6124 H6137 0.985 . S
N6125 C6127 1.356 . S
N6125 H6130 0.984 . S
N6125 H6131 0.985 . S
C6126 C6120 1.379 . S
C6126 C6123 1.363 . S
C6126 N6124 1.356 . S
C6127 C6121 1.363 . S
C6127 C6122 1.379 . S
C6127 N6125 1.356 . S
N6128 C6120 1.356 . S
N6128 H6134 0.984 . S
N6128 H6135 0.984 . S
N6129 C6122 1.356 . S
N6129 H6132 0.984 . S
N6129 H6133 0.985 . S
H6130 N6125 0.984 . S
H6131 N6125 0.985 . S
H6132 N6129 0.984 . S
H6133 N6129 0.985 . S
H6134 N6128 0.984 . S
H6135 N6128 0.984 . S
H6136 N6124 0.984 . S
H6137 N6124 0.985 . S
C6138 C6139 1.363 . S
C6138 C6144 1.379 . S
C6138 N6146 1.356 . S
C6139 C6138 1.363 . S
C6139 C6145 1.363 . S
C6140 C6141 1.363 . S
C6140 C6145 1.379 . S
C6140 N6147 1.356 . S
C6141 C6140 1.363 . S
C6141 C6144 1.363 . S
N6142 C6144 1.356 . S
N6142 H6154 0.984 . S
N6142 H6155 0.985 . S
N6143 C6145 1.356 . S
N6143 H6148 0.984 . S
N6143 H6149 0.985 . S
C6144 C6138 1.379 . S
C6144 C6141 1.363 . S
C6144 N6142 1.356 . S
C6145 C6139 1.363 . S
C6145 C6140 1.379 . S
C6145 N6143 1.356 . S
N6146 C6138 1.356 . S
N6146 H6152 0.984 . S
N6146 H6153 0.984 . S
N6147 C6140 1.356 . S
N6147 H6150 0.984 . S
N6147 H6151 0.985 . S
H6148 N6143 0.984 . S
H6149 N6143 0.985 . S
H6150 N6147 0.984 . S
H6151 N6147 0.985 . S
H6152 N6146 0.984 . S
H6153 N6146 0.984 . S
H6154 N6142 0.984 . S
H6155 N6142 0.985 . S
C6156 C6157 1.363 . S
C6156 C6162 1.379 . S
C6156 N6164 1.356 . S
C6157 C6156 1.363 . S
C6157 C6163 1.363 . S
C6158 C6159 1.363 . S
C6158 C6163 1.379 . S
C6158 N6165 1.356 . S
C6159 C6158 1.363 . S
C6159 C6162 1.363 . S
N6160 C6162 1.356 . S
N6160 H6172 0.984 . S
N6160 H6173 0.985 . S
N6161 C6163 1.356 . S
N6161 H6166 0.984 . S
N6161 H6167 0.985 . S
C6162 C6156 1.379 . S
C6162 C6159 1.363 . S
C6162 N6160 1.356 . S
C6163 C6157 1.363 . S
C6163 C6158 1.379 . S
C6163 N6161 1.356 . S
N6164 C6156 1.356 . S
N6164 H6170 0.984 . S
N6164 H6171 0.984 . S
N6165 C6158 1.356 . S
N6165 H6168 0.984 . S
N6165 H6169 0.985 . S
H6166 N6161 0.984 . S
H6167 N6161 0.985 . S
H6168 N6165 0.984 . S
H6169 N6165 0.985 . S
H6170 N6164 0.984 . S
H6171 N6164 0.984 . S
H6172 N6160 0.984 . S
H6173 N6160 0.985 . S
C6174 C6175 1.363 . S
C6174 C6180 1.379 . S
C6174 N6182 1.356 . S
C6175 C6174 1.363 . S
C6175 C6181 1.363 . S
C6176 C6177 1.363 . S
C6176 C6181 1.379 . S
C6176 N6183 1.356 . S
C6177 C6176 1.363 . S
C6177 C6180 1.363 . S
N6178 C6180 1.356 . S
N6178 H6190 0.984 . S
N6178 H6191 0.985 . S
N6179 C6181 1.356 . S
N6179 H6184 0.984 . S
N6179 H6185 0.985 . S
C6180 C6174 1.379 . S
C6180 C6177 1.363 . S
C6180 N6178 1.356 . S
C6181 C6175 1.363 . S
C6181 C6176 1.379 . S
C6181 N6179 1.356 . S
N6182 C6174 1.356 . S
N6182 H6188 0.984 . S
N6182 H6189 0.984 . S
N6183 C6176 1.356 . S
N6183 H6186 0.984 . S
N6183 H6187 0.985 . S
H6184 N6179 0.984 . S
H6185 N6179 0.985 . S
H6186 N6183 0.984 . S
H6187 N6183 0.985 . S
H6188 N6182 0.984 . S
H6189 N6182 0.984 . S
H6190 N6178 0.984 . S
H6191 N6178 0.985 . S
C6192 C6193 1.363 . S
C6192 C6198 1.379 . S
C6192 N6200 1.356 . S
C6193 C6192 1.363 . S
C6193 C6199 1.363 . S
C6194 C6195 1.363 . S
C6194 C6199 1.379 . S
C6194 N6201 1.356 . S
C6195 C6194 1.363 . S
C6195 C6198 1.363 . S
N6196 C6198 1.356 . S
N6196 H6208 0.984 . S
N6196 H6209 0.985 . S
N6197 C6199 1.356 . S
N6197 H6202 0.984 . S
N6197 H6203 0.985 . S
C6198 C6192 1.379 . S
C6198 C6195 1.363 . S
C6198 N6196 1.356 . S
C6199 C6193 1.363 . S
C6199 C6194 1.379 . S
C6199 N6197 1.356 . S
N6200 C6192 1.356 . S
N6200 H6206 0.984 . S
N6200 H6207 0.984 . S
N6201 C6194 1.356 . S
N6201 H6204 0.984 . S
N6201 H6205 0.985 . S
H6202 N6197 0.984 . S
H6203 N6197 0.985 . S
H6204 N6201 0.984 . S
H6205 N6201 0.985 . S
H6206 N6200 0.984 . S
H6207 N6200 0.984 . S
H6208 N6196 0.984 . S
H6209 N6196 0.985 . S
C6210 C6211 1.363 . S
C6210 C6216 1.379 . S
C6210 N6218 1.356 . S
C6211 C6210 1.363 . S
C6211 C6217 1.363 . S
C6212 C6213 1.363 . S
C6212 C6217 1.379 . S
C6212 N6219 1.356 . S
C6213 C6212 1.363 . S
C6213 C6216 1.363 . S
N6214 C6216 1.356 . S
N6214 H6226 0.984 . S
N6214 H6227 0.985 . S
N6215 C6217 1.356 . S
N6215 H6220 0.984 . S
N6215 H6221 0.985 . S
C6216 C6210 1.379 . S
C6216 C6213 1.363 . S
C6216 N6214 1.356 . S
C6217 C6211 1.363 . S
C6217 C6212 1.379 . S
C6217 N6215 1.356 . S
N6218 C6210 1.356 . S
N6218 H6224 0.984 . S
N6218 H6225 0.984 . S
N6219 C6212 1.356 . S
N6219 H6222 0.984 . S
N6219 H6223 0.985 . S
H6220 N6215 0.984 . S
H6221 N6215 0.985 . S
H6222 N6219 0.984 . S
H6223 N6219 0.985 . S
H6224 N6218 0.984 . S
H6225 N6218 0.984 . S
H6226 N6214 0.984 . S
H6227 N6214 0.985 . S
C6228 C6229 1.363 . S
C6228 C6234 1.379 . S
C6228 N6236 1.356 . S
C6229 C6228 1.363 . S
C6229 C6235 1.363 . S
C6230 C6231 1.363 . S
C6230 C6235 1.379 . S
C6230 N6237 1.356 . S
C6231 C6230 1.363 . S
C6231 C6234 1.363 . S
N6232 C6234 1.356 . S
N6232 H6244 0.984 . S
N6232 H6245 0.985 . S
N6233 C6235 1.356 . S
N6233 H6238 0.984 . S
N6233 H6239 0.985 . S
C6234 C6228 1.379 . S
C6234 C6231 1.363 . S
C6234 N6232 1.356 . S
C6235 C6229 1.363 . S
C6235 C6230 1.379 . S
C6235 N6233 1.356 . S
N6236 C6228 1.356 . S
N6236 H6242 0.984 . S
N6236 H6243 0.984 . S
N6237 C6230 1.356 . S
N6237 H6240 0.984 . S
N6237 H6241 0.985 . S
H6238 N6233 0.984 . S
H6239 N6233 0.985 . S
H6240 N6237 0.984 . S
H6241 N6237 0.985 . S
H6242 N6236 0.984 . S
H6243 N6236 0.984 . S
H6244 N6232 0.984 . S
H6245 N6232 0.985 . S
C6246 C6247 1.363 . S
C6246 C6252 1.379 . S
C6246 N6254 1.356 . S
C6247 C6246 1.363 . S
C6247 C6253 1.363 . S
C6248 C6249 1.363 . S
C6248 C6253 1.379 . S
C6248 N6255 1.356 . S
C6249 C6248 1.363 . S
C6249 C6252 1.363 . S
N6250 C6252 1.356 . S
N6250 H6262 0.984 . S
N6250 H6263 0.985 . S
N6251 C6253 1.356 . S
N6251 H6256 0.984 . S
N6251 H6257 0.985 . S
C6252 C6246 1.379 . S
C6252 C6249 1.363 . S
C6252 N6250 1.356 . S
C6253 C6247 1.363 . S
C6253 C6248 1.379 . S
C6253 N6251 1.356 . S
N6254 C6246 1.356 . S
N6254 H6260 0.984 . S
N6254 H6261 0.984 . S
N6255 C6248 1.356 . S
N6255 H6258 0.984 . S
N6255 H6259 0.985 . S
H6256 N6251 0.984 . S
H6257 N6251 0.985 . S
H6258 N6255 0.984 . S
H6259 N6255 0.985 . S
H6260 N6254 0.984 . S
H6261 N6254 0.984 . S
H6262 N6250 0.984 . S
H6263 N6250 0.985 . S
C6264 C6265 1.363 . S
C6264 C6270 1.379 . S
C6264 N6272 1.356 . S
C6265 C6264 1.363 . S
C6265 C6271 1.363 . S
C6266 C6267 1.363 . S
C6266 C6271 1.379 . S
C6266 N6273 1.356 . S
C6267 C6266 1.363 . S
C6267 C6270 1.363 . S
N6268 C6270 1.356 . S
N6268 H6280 0.984 . S
N6268 H6281 0.985 . S
N6269 C6271 1.356 . S
N6269 H6274 0.984 . S
N6269 H6275 0.985 . S
C6270 C6264 1.379 . S
C6270 C6267 1.363 . S
C6270 N6268 1.356 . S
C6271 C6265 1.363 . S
C6271 C6266 1.379 . S
C6271 N6269 1.356 . S
N6272 C6264 1.356 . S
N6272 H6278 0.984 . S
N6272 H6279 0.984 . S
N6273 C6266 1.356 . S
N6273 H6276 0.984 . S
N6273 H6277 0.985 . S
H6274 N6269 0.984 . S
H6275 N6269 0.985 . S
H6276 N6273 0.984 . S
H6277 N6273 0.985 . S
H6278 N6272 0.984 . S
H6279 N6272 0.984 . S
H6280 N6268 0.984 . S
H6281 N6268 0.985 . S
C6282 C6283 1.363 . S
C6282 C6288 1.379 . S
C6282 N6290 1.356 . S
C6283 C6282 1.363 . S
C6283 C6289 1.363 . S
C6284 C6285 1.363 . S
C6284 C6289 1.379 . S
C6284 N6291 1.356 . S
C6285 C6284 1.363 . S
C6285 C6288 1.363 . S
N6286 C6288 1.356 . S
N6286 H6298 0.984 . S
N6286 H6299 0.985 . S
N6287 C6289 1.356 . S
N6287 H6292 0.984 . S
N6287 H6293 0.985 . S
C6288 C6282 1.379 . S
C6288 C6285 1.363 . S
C6288 N6286 1.356 . S
C6289 C6283 1.363 . S
C6289 C6284 1.379 . S
C6289 N6287 1.356 . S
N6290 C6282 1.356 . S
N6290 H6296 0.984 . S
N6290 H6297 0.984 . S
N6291 C6284 1.356 . S
N6291 H6294 0.984 . S
N6291 H6295 0.985 . S
H6292 N6287 0.984 . S
H6293 N6287 0.985 . S
H6294 N6291 0.984 . S
H6295 N6291 0.985 . S
H6296 N6290 0.984 . S
H6297 N6290 0.984 . S
H6298 N6286 0.984 . S
H6299 N6286 0.985 . S
C6300 C6301 1.363 . S
C6300 C6306 1.379 . S
C6300 N6308 1.356 . S
C6301 C6300 1.363 . S
C6301 C6307 1.363 . S
C6302 C6303 1.363 . S
C6302 C6307 1.379 . S
C6302 N6309 1.356 . S
C6303 C6302 1.363 . S
C6303 C6306 1.363 . S
N6304 C6306 1.356 . S
N6304 H6316 0.984 . S
N6304 H6317 0.985 . S
N6305 C6307 1.356 . S
N6305 H6310 0.984 . S
N6305 H6311 0.985 . S
C6306 C6300 1.379 . S
C6306 C6303 1.363 . S
C6306 N6304 1.356 . S
C6307 C6301 1.363 . S
C6307 C6302 1.379 . S
C6307 N6305 1.356 . S
N6308 C6300 1.356 . S
N6308 H6314 0.984 . S
N6308 H6315 0.984 . S
N6309 C6302 1.356 . S
N6309 H6312 0.984 . S
N6309 H6313 0.985 . S
H6310 N6305 0.984 . S
H6311 N6305 0.985 . S
H6312 N6309 0.984 . S
H6313 N6309 0.985 . S
H6314 N6308 0.984 . S
H6315 N6308 0.984 . S
H6316 N6304 0.984 . S
H6317 N6304 0.985 . S
C6318 C6319 1.363 . S
C6318 C6324 1.379 . S
C6318 N6326 1.356 . S
C6319 C6318 1.363 . S
C6319 C6325 1.363 . S
C6320 C6321 1.363 . S
C6320 C6325 1.379 . S
C6320 N6327 1.356 . S
C6321 C6320 1.363 . S
C6321 C6324 1.363 . S
N6322 C6324 1.356 . S
N6322 H6334 0.984 . S
N6322 H6335 0.985 . S
N6323 C6325 1.356 . S
N6323 H6328 0.984 . S
N6323 H6329 0.985 . S
C6324 C6318 1.379 . S
C6324 C6321 1.363 . S
C6324 N6322 1.356 . S
C6325 C6319 1.363 . S
C6325 C6320 1.379 . S
C6325 N6323 1.356 . S
N6326 C6318 1.356 . S
N6326 H6332 0.984 . S
N6326 H6333 0.984 . S
N6327 C6320 1.356 . S
N6327 H6330 0.984 . S
N6327 H6331 0.985 . S
H6328 N6323 0.984 . S
H6329 N6323 0.985 . S
H6330 N6327 0.984 . S
H6331 N6327 0.985 . S
H6332 N6326 0.984 . S
H6333 N6326 0.984 . S
H6334 N6322 0.984 . S
H6335 N6322 0.985 . S
C6336 C6337 1.363 . S
C6336 C6342 1.379 . S
C6336 N6344 1.356 . S
C6337 C6336 1.363 . S
C6337 C6343 1.363 . S
C6338 C6339 1.363 . S
C6338 C6343 1.379 . S
C6338 N6345 1.356 . S
C6339 C6338 1.363 . S
C6339 C6342 1.363 . S
N6340 C6342 1.356 . S
N6340 H6352 0.984 . S
N6340 H6353 0.985 . S
N6341 C6343 1.356 . S
N6341 H6346 0.984 . S
N6341 H6347 0.985 . S
C6342 C6336 1.379 . S
C6342 C6339 1.363 . S
C6342 N6340 1.356 . S
C6343 C6337 1.363 . S
C6343 C6338 1.379 . S
C6343 N6341 1.356 . S
N6344 C6336 1.356 . S
N6344 H6350 0.984 . S
N6344 H6351 0.984 . S
N6345 C6338 1.356 . S
N6345 H6348 0.984 . S
N6345 H6349 0.985 . S
H6346 N6341 0.984 . S
H6347 N6341 0.985 . S
H6348 N6345 0.984 . S
H6349 N6345 0.985 . S
H6350 N6344 0.984 . S
H6351 N6344 0.984 . S
H6352 N6340 0.984 . S
H6353 N6340 0.985 . S
C6354 C6355 1.363 . S
C6354 C6360 1.379 . S
C6354 N6362 1.356 . S
C6355 C6354 1.363 . S
C6355 C6361 1.363 . S
C6356 C6357 1.363 . S
C6356 C6361 1.379 . S
C6356 N6363 1.356 . S
C6357 C6356 1.363 . S
C6357 C6360 1.363 . S
N6358 C6360 1.356 . S
N6358 H6370 0.984 . S
N6358 H6371 0.985 . S
N6359 C6361 1.356 . S
N6359 H6364 0.984 . S
N6359 H6365 0.985 . S
C6360 C6354 1.379 . S
C6360 C6357 1.363 . S
C6360 N6358 1.356 . S
C6361 C6355 1.363 . S
C6361 C6356 1.379 . S
C6361 N6359 1.356 . S
N6362 C6354 1.356 . S
N6362 H6368 0.984 . S
N6362 H6369 0.984 . S
N6363 C6356 1.356 . S
N6363 H6366 0.984 . S
N6363 H6367 0.985 . S
H6364 N6359 0.984 . S
H6365 N6359 0.985 . S
H6366 N6363 0.984 . S
H6367 N6363 0.985 . S
H6368 N6362 0.984 . S
H6369 N6362 0.984 . S
H6370 N6358 0.984 . S
H6371 N6358 0.985 . S
C6372 C6373 1.363 . S
C6372 C6378 1.379 . S
C6372 N6380 1.356 . S
C6373 C6372 1.363 . S
C6373 C6379 1.363 . S
C6374 C6375 1.363 . S
C6374 C6379 1.379 . S
C6374 N6381 1.356 . S
C6375 C6374 1.363 . S
C6375 C6378 1.363 . S
N6376 C6378 1.356 . S
N6376 H6388 0.984 . S
N6376 H6389 0.985 . S
N6377 C6379 1.356 . S
N6377 H6382 0.984 . S
N6377 H6383 0.985 . S
C6378 C6372 1.379 . S
C6378 C6375 1.363 . S
C6378 N6376 1.356 . S
C6379 C6373 1.363 . S
C6379 C6374 1.379 . S
C6379 N6377 1.356 . S
N6380 C6372 1.356 . S
N6380 H6386 0.984 . S
N6380 H6387 0.984 . S
N6381 C6374 1.356 . S
N6381 H6384 0.984 . S
N6381 H6385 0.985 . S
H6382 N6377 0.984 . S
H6383 N6377 0.985 . S
H6384 N6381 0.984 . S
H6385 N6381 0.985 . S
H6386 N6380 0.984 . S
H6387 N6380 0.984 . S
H6388 N6376 0.984 . S
H6389 N6376 0.985 . S
C6390 C6391 1.363 . S
C6390 C6396 1.379 . S
C6390 N6398 1.356 . S
C6391 C6390 1.363 . S
C6391 C6397 1.363 . S
C6392 C6393 1.363 . S
C6392 C6397 1.379 . S
C6392 N6399 1.356 . S
C6393 C6392 1.363 . S
C6393 C6396 1.363 . S
N6394 C6396 1.356 . S
N6394 H6406 0.984 . S
N6394 H6407 0.985 . S
N6395 C6397 1.356 . S
N6395 H6400 0.984 . S
N6395 H6401 0.985 . S
C6396 C6390 1.379 . S
C6396 C6393 1.363 . S
C6396 N6394 1.356 . S
C6397 C6391 1.363 . S
C6397 C6392 1.379 . S
C6397 N6395 1.356 . S
N6398 C6390 1.356 . S
N6398 H6404 0.984 . S
N6398 H6405 0.984 . S
N6399 C6392 1.356 . S
N6399 H6402 0.984 . S
N6399 H6403 0.985 . S
H6400 N6395 0.984 . S
H6401 N6395 0.985 . S
H6402 N6399 0.984 . S
H6403 N6399 0.985 . S
H6404 N6398 0.984 . S
H6405 N6398 0.984 . S
H6406 N6394 0.984 . S
H6407 N6394 0.985 . S
C6408 C6409 1.363 . S
C6408 C6414 1.379 . S
C6408 N6416 1.356 . S
C6409 C6408 1.363 . S
C6409 C6415 1.363 . S
C6410 C6411 1.363 . S
C6410 C6415 1.379 . S
C6410 N6417 1.356 . S
C6411 C6410 1.363 . S
C6411 C6414 1.363 . S
N6412 C6414 1.356 . S
N6412 H6424 0.984 . S
N6412 H6425 0.985 . S
N6413 C6415 1.356 . S
N6413 H6418 0.984 . S
N6413 H6419 0.985 . S
C6414 C6408 1.379 . S
C6414 C6411 1.363 . S
C6414 N6412 1.356 . S
C6415 C6409 1.363 . S
C6415 C6410 1.379 . S
C6415 N6413 1.356 . S
N6416 C6408 1.356 . S
N6416 H6422 0.984 . S
N6416 H6423 0.984 . S
N6417 C6410 1.356 . S
N6417 H6420 0.984 . S
N6417 H6421 0.985 . S
H6418 N6413 0.984 . S
H6419 N6413 0.985 . S
H6420 N6417 0.984 . S
H6421 N6417 0.985 . S
H6422 N6416 0.984 . S
H6423 N6416 0.984 . S
H6424 N6412 0.984 . S
H6425 N6412 0.985 . S
C6426 C6427 1.363 . S
C6426 C6432 1.379 . S
C6426 N6434 1.356 . S
C6427 C6426 1.363 . S
C6427 C6433 1.363 . S
C6428 C6429 1.363 . S
C6428 C6433 1.379 . S
C6428 N6435 1.356 . S
C6429 C6428 1.363 . S
C6429 C6432 1.363 . S
N6430 C6432 1.356 . S
N6430 H6442 0.984 . S
N6430 H6443 0.985 . S
N6431 C6433 1.356 . S
N6431 H6436 0.984 . S
N6431 H6437 0.985 . S
C6432 C6426 1.379 . S
C6432 C6429 1.363 . S
C6432 N6430 1.356 . S
C6433 C6427 1.363 . S
C6433 C6428 1.379 . S
C6433 N6431 1.356 . S
N6434 C6426 1.356 . S
N6434 H6440 0.984 . S
N6434 H6441 0.984 . S
N6435 C6428 1.356 . S
N6435 H6438 0.984 . S
N6435 H6439 0.985 . S
H6436 N6431 0.984 . S
H6437 N6431 0.985 . S
H6438 N6435 0.984 . S
H6439 N6435 0.985 . S
H6440 N6434 0.984 . S
H6441 N6434 0.984 . S
H6442 N6430 0.984 . S
H6443 N6430 0.985 . S
C6444 C6445 1.363 . S
C6444 C6450 1.379 . S
C6444 N6452 1.356 . S
C6445 C6444 1.363 . S
C6445 C6451 1.363 . S
C6446 C6447 1.363 . S
C6446 C6451 1.379 . S
C6446 N6453 1.356 . S
C6447 C6446 1.363 . S
C6447 C6450 1.363 . S
N6448 C6450 1.356 . S
N6448 H6460 0.984 . S
N6448 H6461 0.985 . S
N6449 C6451 1.356 . S
N6449 H6454 0.984 . S
N6449 H6455 0.985 . S
C6450 C6444 1.379 . S
C6450 C6447 1.363 . S
C6450 N6448 1.356 . S
C6451 C6445 1.363 . S
C6451 C6446 1.379 . S
C6451 N6449 1.356 . S
N6452 C6444 1.356 . S
N6452 H6458 0.984 . S
N6452 H6459 0.984 . S
N6453 C6446 1.356 . S
N6453 H6456 0.984 . S
N6453 H6457 0.985 . S
H6454 N6449 0.984 . S
H6455 N6449 0.985 . S
H6456 N6453 0.984 . S
H6457 N6453 0.985 . S
H6458 N6452 0.984 . S
H6459 N6452 0.984 . S
H6460 N6448 0.984 . S
H6461 N6448 0.985 . S
C6462 C6463 1.363 . S
C6462 C6468 1.379 . S
C6462 N6470 1.356 . S
C6463 C6462 1.363 . S
C6463 C6469 1.363 . S
C6464 C6465 1.363 . S
C6464 C6469 1.379 . S
C6464 N6471 1.356 . S
C6465 C6464 1.363 . S
C6465 C6468 1.363 . S
N6466 C6468 1.356 . S
N6466 H6478 0.984 . S
N6466 H6479 0.985 . S
N6467 C6469 1.356 . S
N6467 H6472 0.984 . S
N6467 H6473 0.985 . S
C6468 C6462 1.379 . S
C6468 C6465 1.363 . S
C6468 N6466 1.356 . S
C6469 C6463 1.363 . S
C6469 C6464 1.379 . S
C6469 N6467 1.356 . S
N6470 C6462 1.356 . S
N6470 H6476 0.984 . S
N6470 H6477 0.984 . S
N6471 C6464 1.356 . S
N6471 H6474 0.984 . S
N6471 H6475 0.985 . S
H6472 N6467 0.984 . S
H6473 N6467 0.985 . S
H6474 N6471 0.984 . S
H6475 N6471 0.985 . S
H6476 N6470 0.984 . S
H6477 N6470 0.984 . S
H6478 N6466 0.984 . S
H6479 N6466 0.985 . S
C6480 C6481 1.336 1_554 S
C6480 C6486 1.421 . S
C6480 N6488 1.330 1_554 S
C6481 C6480 1.336 1_556 S
C6481 C6487 1.363 . S
C6482 C6483 1.363 . S
C6482 C6487 1.379 1_554 S
C6482 N6489 1.356 . S
C6483 C6482 1.363 . S
C6483 C6486 1.363 . S
N6484 C6486 1.356 . S
N6484 H6496 0.984 . S
N6484 H6497 0.985 . S
N6485 C6487 1.356 . S
N6485 H6490 0.984 . S
N6485 H6491 0.985 . S
C6486 C6480 1.421 . S
C6486 C6483 1.363 . S
C6486 N6484 1.356 . S
C6487 C6481 1.363 . S
C6487 C6482 1.379 1_556 S
C6487 N6485 1.356 . S
N6488 C6480 1.330 1_556 S
N6488 H6494 0.984 . S
N6488 H6495 0.984 . S
N6489 C6482 1.356 . S
N6489 H6492 0.984 . S
N6489 H6493 0.985 . S
H6490 N6485 0.984 . S
H6491 N6485 0.985 . S
H6492 N6489 0.984 . S
H6493 N6489 0.985 . S
H6494 N6488 0.984 . S
H6495 N6488 0.984 . S
H6496 N6484 0.984 . S
H6497 N6484 0.985 . S
C6498 C6499 1.363 . S
C6498 C6504 1.379 1_554 S
C6498 N6506 1.356 . S
C6499 C6498 1.363 . S
C6499 C6505 1.363 . S
C6500 C6501 1.339 1_554 S
C6500 C6505 1.416 . S
C6500 N6507 1.333 1_554 S
C6501 C6500 1.339 1_556 S
C6501 C6504 1.363 . S
N6502 C6504 1.356 . S
N6502 H6514 0.984 . S
N6502 H6515 0.985 . S
N6503 C6505 1.356 . S
N6503 H6508 0.984 . S
N6503 H6509 0.985 . S
C6504 C6498 1.379 1_556 S
C6504 C6501 1.363 . S
C6504 N6502 1.356 . S
C6505 C6499 1.363 . S
C6505 C6500 1.416 . S
C6505 N6503 1.356 . S
N6506 C6498 1.356 . S
N6506 H6512 0.984 . S
N6506 H6513 0.984 . S
N6507 C6500 1.333 1_556 S
N6507 H6510 0.984 . S
N6507 H6511 0.985 . S
H6508 N6503 0.984 . S
H6509 N6503 0.985 . S
H6510 N6507 0.984 . S
H6511 N6507 0.985 . S
H6512 N6506 0.984 . S
H6513 N6506 0.984 . S
H6514 N6502 0.984 . S
H6515 N6502 0.985 . S
C6516 C6517 1.363 . S
C6516 C6522 1.379 1_554 S
C6516 N6524 1.356 . S
C6517 C6516 1.363 . S
C6517 C6523 1.363 . S
C6518 C6519 1.363 . S
C6518 C6523 1.379 1_556 S
C6518 N6525 1.356 . S
C6519 C6518 1.363 . S
C6519 C6522 1.363 . S
N6520 C6522 1.356 . S
N6520 H6532 0.984 . S
N6520 H6533 0.985 . S
N6521 C6523 1.356 . S
N6521 H6526 0.984 . S
N6521 H6527 0.985 . S
C6522 C6516 1.379 1_556 S
C6522 C6519 1.363 . S
C6522 N6520 1.356 . S
C6523 C6517 1.363 . S
C6523 C6518 1.379 1_554 S
C6523 N6521 1.356 . S
N6524 C6516 1.356 . S
N6524 H6530 0.984 . S
N6524 H6531 0.984 . S
N6525 C6518 1.356 . S
N6525 H6528 0.984 . S
N6525 H6529 0.985 . S
H6526 N6521 0.984 . S
H6527 N6521 0.985 . S
H6528 N6525 0.984 . S
H6529 N6525 0.985 . S
H6530 N6524 0.984 . S
H6531 N6524 0.984 . S
H6532 N6520 0.984 . S
H6533 N6520 0.985 . S
C6534 C6535 1.363 . S
C6534 C6540 1.379 1_554 S
C6534 N6542 1.356 . S
C6535 C6534 1.363 . S
C6535 C6541 1.363 . S
C6536 C6537 1.333 1_554 S
C6536 C6541 1.425 . S
C6536 N6543 1.327 1_554 S
C6537 C6536 1.333 1_556 S
C6537 C6540 1.363 . S
N6538 C6540 1.356 . S
N6538 H6550 0.984 . S
N6538 H6551 0.985 . S
N6539 C6541 1.356 . S
N6539 H6544 0.984 . S
N6539 H6545 0.985 . S
C6540 C6534 1.379 1_556 S
C6540 C6537 1.363 . S
C6540 N6538 1.356 . S
C6541 C6535 1.363 . S
C6541 C6536 1.425 . S
C6541 N6539 1.356 . S
N6542 C6534 1.356 . S
N6542 H6548 0.984 . S
N6542 H6549 0.984 . S
N6543 C6536 1.327 1_556 S
N6543 H6546 0.984 . S
N6543 H6547 0.985 . S
H6544 N6539 0.984 . S
H6545 N6539 0.985 . S
H6546 N6543 0.984 . S
H6547 N6543 0.985 . S
H6548 N6542 0.984 . S
H6549 N6542 0.984 . S
H6550 N6538 0.984 . S
H6551 N6538 0.985 . S
C6552 C6553 1.340 1_556 S
C6552 C6558 1.414 . S
C6552 N6560 1.334 1_556 S
C6553 C6552 1.340 1_554 S
C6553 C6559 1.363 . S
C6554 C6555 1.363 . S
C6554 C6559 1.379 1_556 S
C6554 N6561 1.356 . S
C6555 C6554 1.363 . S
C6555 C6558 1.363 . S
N6556 C6558 1.356 . S
N6556 H6568 0.984 . S
N6556 H6569 0.985 . S
N6557 C6559 1.356 . S
N6557 H6562 0.984 . S
N6557 H6563 0.985 . S
C6558 C6552 1.414 . S
C6558 C6555 1.363 . S
C6558 N6556 1.356 . S
C6559 C6553 1.363 . S
C6559 C6554 1.379 1_554 S
C6559 N6557 1.356 . S
N6560 C6552 1.334 1_554 S
N6560 H6566 0.984 . S
N6560 H6567 0.984 . S
N6561 C6554 1.356 . S
N6561 H6564 0.984 . S
N6561 H6565 0.985 . S
H6562 N6557 0.984 . S
H6563 N6557 0.985 . S
H6564 N6561 0.984 . S
H6565 N6561 0.985 . S
H6566 N6560 0.984 . S
H6567 N6560 0.984 . S
H6568 N6556 0.984 . S
H6569 N6556 0.985 . S
C6570 C6571 1.363 . S
C6570 C6576 1.424 . S
C6570 N6578 1.356 . S
C6571 C6570 1.363 . S
C6571 C6577 1.363 . S
C6572 C6573 1.363 . S
C6572 C6577 1.379 1_554 S
C6572 N6579 1.356 . S
C6573 C6572 1.363 . S
C6573 C6576 1.334 1_554 S
N6574 C6576 1.328 1_554 S
N6574 H6586 0.984 . S
N6574 H6587 0.985 . S
N6575 C6577 1.356 . S
N6575 H6580 0.984 . S
N6575 H6581 0.985 . S
C6576 C6570 1.424 . S
C6576 C6573 1.334 1_556 S
C6576 N6574 1.328 1_556 S
C6577 C6571 1.363 . S
C6577 C6572 1.379 1_556 S
C6577 N6575 1.356 . S
N6578 C6570 1.356 . S
N6578 H6584 0.984 . S
N6578 H6585 0.984 . S
N6579 C6572 1.356 . S
N6579 H6582 0.984 . S
N6579 H6583 0.985 . S
H6580 N6575 0.984 . S
H6581 N6575 0.985 . S
H6582 N6579 0.984 . S
H6583 N6579 0.985 . S
H6584 N6578 0.984 . S
H6585 N6578 0.984 . S
H6586 N6574 0.984 . S
H6587 N6574 0.985 . S
C6588 C6589 1.333 1_556 S
C6588 C6594 1.425 . S
C6588 N6596 1.327 1_556 S
C6589 C6588 1.333 1_554 S
C6589 C6595 1.363 . S
C6590 C6591 1.363 . S
C6590 C6595 1.379 1_556 S
C6590 N6597 1.356 . S
C6591 C6590 1.363 . S
C6591 C6594 1.363 . S
N6592 C6594 1.356 . S
N6592 H6604 0.984 . S
N6592 H6605 0.985 . S
N6593 C6595 1.356 . S
N6593 H6598 0.984 . S
N6593 H6599 0.985 . S
C6594 C6588 1.425 . S
C6594 C6591 1.363 . S
C6594 N6592 1.356 . S
C6595 C6589 1.363 . S
C6595 C6590 1.379 1_554 S
C6595 N6593 1.356 . S
N6596 C6588 1.327 1_554 S
N6596 H6602 0.984 . S
N6596 H6603 0.984 . S
N6597 C6590 1.356 . S
N6597 H6600 0.984 . S
N6597 H6601 0.985 . S
H6598 N6593 0.984 . S
H6599 N6593 0.985 . S
H6600 N6597 0.984 . S
H6601 N6597 0.985 . S
H6602 N6596 0.984 . S
H6603 N6596 0.984 . S
H6604 N6592 0.984 . S
H6605 N6592 0.985 . S
C6606 C6607 1.363 . S
C6606 C6612 1.423 . S
C6606 N6614 1.356 . S
C6607 C6606 1.363 . S
C6607 C6613 1.363 . S
C6608 C6609 1.363 . S
C6608 C6613 1.379 1_554 S
C6608 N6615 1.356 . S
C6609 C6608 1.363 . S
C6609 C6612 1.334 1_554 S
N6610 C6612 1.328 1_554 S
N6610 H6622 0.984 . S
N6610 H6623 0.985 . S
N6611 C6613 1.356 . S
N6611 H6616 0.984 . S
N6611 H6617 0.985 . S
C6612 C6606 1.423 . S
C6612 C6609 1.334 1_556 S
C6612 N6610 1.328 1_556 S
C6613 C6607 1.363 . S
C6613 C6608 1.379 1_556 S
C6613 N6611 1.356 . S
N6614 C6606 1.356 . S
N6614 H6620 0.984 . S
N6614 H6621 0.984 . S
N6615 C6608 1.356 . S
N6615 H6618 0.984 . S
N6615 H6619 0.985 . S
H6616 N6611 0.984 . S
H6617 N6611 0.985 . S
H6618 N6615 0.984 . S
H6619 N6615 0.985 . S
H6620 N6614 0.984 . S
H6621 N6614 0.984 . S
H6622 N6610 0.984 . S
H6623 N6610 0.985 . S
C6624 C6625 1.363 . S
C6624 C6630 1.379 1_655 S
C6624 N6632 1.356 . S
C6625 C6624 1.363 . S
C6625 C6631 1.344 1_655 S
C6626 C6627 1.363 . S
C6626 C6631 1.409 . S
C6626 N6633 1.356 . S
C6627 C6626 1.363 . S
C6627 C6630 1.363 . S
N6628 C6630 1.356 . S
N6628 H6640 0.984 . S
N6628 H6641 0.985 . S
N6629 C6631 1.337 1_655 S
N6629 H6634 0.984 . S
N6629 H6635 0.985 . S
C6630 C6624 1.379 1_455 S
C6630 C6627 1.363 . S
C6630 N6628 1.356 . S
C6631 C6625 1.344 1_455 S
C6631 C6626 1.409 . S
C6631 N6629 1.337 1_455 S
N6632 C6624 1.356 . S
N6632 H6638 0.984 . S
N6632 H6639 0.984 . S
N6633 C6626 1.356 . S
N6633 H6636 0.984 . S
N6633 H6637 0.985 . S
H6634 N6629 0.984 . S
H6635 N6629 0.985 . S
H6636 N6633 0.984 . S
H6637 N6633 0.985 . S
H6638 N6632 0.984 . S
H6639 N6632 0.984 . S
H6640 N6628 0.984 . S
H6641 N6628 0.985 . S
C6642 C6643 1.363 . S
C6642 C6648 1.324 1_545 S
C6642 N6650 1.356 . S
C6643 C6642 1.363 . S
C6643 C6649 1.363 . S
C6644 C6645 1.363 . S
C6644 C6649 1.379 1_565 S
C6644 N6651 1.356 . S
C6645 C6644 1.363 . S
C6645 C6648 1.395 . S
N6646 C6648 1.396 . S
N6646 H6658 0.984 . S
N6646 H6659 0.985 . S
N6647 C6649 1.356 . S
N6647 H6652 0.984 . S
N6647 H6653 0.985 . S
C6648 C6642 1.324 1_565 S
C6648 C6645 1.395 . S
C6648 N6646 1.396 . S
C6649 C6643 1.363 . S
C6649 C6644 1.379 1_545 S
C6649 N6647 1.356 . S
N6650 C6642 1.356 . S
N6650 H6656 0.984 . S
N6650 H6657 0.984 . S
N6651 C6644 1.356 . S
N6651 H6654 0.984 . S
N6651 H6655 0.985 . S
H6652 N6647 0.984 . S
H6653 N6647 0.985 . S
H6654 N6651 0.984 . S
H6655 N6651 0.985 . S
H6656 N6650 0.984 . S
H6657 N6650 0.984 . S
H6658 N6646 0.984 . S
H6659 N6646 0.985 . S
C6660 C6661 1.363 . S
C6660 C6666 1.379 1_455 S
C6660 N6668 1.356 . S
C6661 C6660 1.363 . S
C6661 C6667 1.363 . S
C6662 C6663 1.363 . S
C6662 C6667 1.379 1_655 S
C6662 N6669 1.356 . S
C6663 C6662 1.363 . S
C6663 C6666 1.363 . S
N6664 C6666 1.356 . S
N6664 H6676 0.984 . S
N6664 H6677 0.985 . S
N6665 C6667 1.356 . S
N6665 H6670 0.984 . S
N6665 H6671 0.985 . S
C6666 C6660 1.379 1_655 S
C6666 C6663 1.363 . S
C6666 N6664 1.356 . S
C6667 C6661 1.363 . S
C6667 C6662 1.379 1_455 S
C6667 N6665 1.356 . S
N6668 C6660 1.356 . S
N6668 H6674 0.984 . S
N6668 H6675 0.984 . S
N6669 C6662 1.356 . S
N6669 H6672 0.984 . S
N6669 H6673 0.985 . S
H6670 N6665 0.984 . S
H6671 N6665 0.985 . S
H6672 N6669 0.984 . S
H6673 N6669 0.985 . S
H6674 N6668 0.984 . S
H6675 N6668 0.984 . S
H6676 N6664 0.984 . S
H6677 N6664 0.985 . S
C6678 C6679 1.363 . S
C6678 C6684 1.323 1_565 S
C6678 N6686 1.356 . S
C6679 C6678 1.363 . S
C6679 C6685 1.363 . S
C6680 C6681 1.363 . S
C6680 C6685 1.379 1_545 S
C6680 N6687 1.356 . S
C6681 C6680 1.363 . S
C6681 C6684 1.395 . S
N6682 C6684 1.396 . S
N6682 H6694 0.984 . S
N6682 H6695 0.985 . S
N6683 C6685 1.356 . S
N6683 H6688 0.984 . S
N6683 H6689 0.985 . S
C6684 C6678 1.323 1_545 S
C6684 C6681 1.395 . S
C6684 N6682 1.396 . S
C6685 C6679 1.363 . S
C6685 C6680 1.379 1_565 S
C6685 N6683 1.356 . S
N6686 C6678 1.356 . S
N6686 H6692 0.984 . S
N6686 H6693 0.984 . S
N6687 C6680 1.356 . S
N6687 H6690 0.984 . S
N6687 H6691 0.985 . S
H6688 N6683 0.984 . S
H6689 N6683 0.985 . S
H6690 N6687 0.984 . S
H6691 N6687 0.985 . S
H6692 N6686 0.984 . S
H6693 N6686 0.984 . S
H6694 N6682 0.984 . S
H6695 N6682 0.985 . S
C6696 C6697 1.363 . S
C6696 C6702 1.379 1_455 S
C6696 N6704 1.356 . S
C6697 C6696 1.363 . S
C6697 C6703 1.363 . S
C6698 C6699 1.363 . S
C6698 C6703 1.379 1_655 S
C6698 N6705 1.356 . S
C6699 C6698 1.363 . S
C6699 C6702 1.363 . S
N6700 C6702 1.356 . S
N6700 H6712 0.984 . S
N6700 H6713 0.985 . S
N6701 C6703 1.356 . S
N6701 H6706 0.984 . S
N6701 H6707 0.985 . S
C6702 C6696 1.379 1_655 S
C6702 C6699 1.363 . S
C6702 N6700 1.356 . S
C6703 C6697 1.363 . S
C6703 C6698 1.379 1_455 S
C6703 N6701 1.356 . S
N6704 C6696 1.356 . S
N6704 H6710 0.984 . S
N6704 H6711 0.984 . S
N6705 C6698 1.356 . S
N6705 H6708 0.984 . S
N6705 H6709 0.985 . S
H6706 N6701 0.984 . S
H6707 N6701 0.985 . S
H6708 N6705 0.984 . S
H6709 N6705 0.985 . S
H6710 N6704 0.984 . S
H6711 N6704 0.984 . S
H6712 N6700 0.984 . S
H6713 N6700 0.985 . S
C6714 C6715 1.363 . S
C6714 C6720 1.379 1_545 S
C6714 N6722 1.356 . S
C6715 C6714 1.363 . S
C6715 C6721 1.363 . S
C6716 C6717 1.363 . S
C6716 C6721 1.379 1_565 S
C6716 N6723 1.356 . S
C6717 C6716 1.363 . S
C6717 C6720 1.363 . S
N6718 C6720 1.356 . S
N6718 H6730 0.984 . S
N6718 H6731 0.985 . S
N6719 C6721 1.356 . S
N6719 H6724 0.984 . S
N6719 H6725 0.985 . S
C6720 C6714 1.379 1_565 S
C6720 C6717 1.363 . S
C6720 N6718 1.356 . S
C6721 C6715 1.363 . S
C6721 C6716 1.379 1_545 S
C6721 N6719 1.356 . S
N6722 C6714 1.356 . S
N6722 H6728 0.984 . S
N6722 H6729 0.984 . S
N6723 C6716 1.356 . S
N6723 H6726 0.984 . S
N6723 H6727 0.985 . S
H6724 N6719 0.984 . S
H6725 N6719 0.985 . S
H6726 N6723 0.984 . S
H6727 N6723 0.985 . S
H6728 N6722 0.984 . S
H6729 N6722 0.984 . S
H6730 N6718 0.984 . S
H6731 N6718 0.985 . S
C6732 C6733 1.363 . S
C6732 C6738 1.379 1_655 S
C6732 N6740 1.356 . S
C6733 C6732 1.363 . S
C6733 C6739 1.363 . S
C6734 C6735 1.387 . S
C6734 C6739 1.338 1_455 S
C6734 N6741 1.385 . S
C6735 C6734 1.387 . S
C6735 C6738 1.363 . S
N6736 C6738 1.356 . S
N6736 H6748 0.984 . S
N6736 H6749 0.985 . S
N6737 C6739 1.356 . S
N6737 H6742 0.984 . S
N6737 H6743 0.985 . S
C6738 C6732 1.379 1_455 S
C6738 C6735 1.363 . S
C6738 N6736 1.356 . S
C6739 C6733 1.363 . S
C6739 C6734 1.338 1_655 S
C6739 N6737 1.356 . S
N6740 C6732 1.356 . S
N6740 H6746 0.984 . S
N6740 H6747 0.984 . S
N6741 C6734 1.385 . S
N6741 H6744 0.984 . S
N6741 H6745 0.985 . S
H6742 N6737 0.984 . S
H6743 N6737 0.985 . S
H6744 N6741 0.984 . S
H6745 N6741 0.985 . S
H6746 N6740 0.984 . S
H6747 N6740 0.984 . S
H6748 N6736 0.984 . S
H6749 N6736 0.985 . S
C6750 C6751 1.363 . S
C6750 C6756 1.379 1_565 S
C6750 N6758 1.356 . S
C6751 C6750 1.363 . S
C6751 C6757 1.363 . S
C6752 C6753 1.363 . S
C6752 C6757 1.379 1_545 S
C6752 N6759 1.356 . S
C6753 C6752 1.363 . S
C6753 C6756 1.363 . S
N6754 C6756 1.356 . S
N6754 H6766 0.984 . S
N6754 H6767 0.985 . S
N6755 C6757 1.356 . S
N6755 H6760 0.984 . S
N6755 H6761 0.985 . S
C6756 C6750 1.379 1_545 S
C6756 C6753 1.363 . S
C6756 N6754 1.356 . S
C6757 C6751 1.363 . S
C6757 C6752 1.379 1_565 S
C6757 N6755 1.356 . S
N6758 C6750 1.356 . S
N6758 H6764 0.984 . S
N6758 H6765 0.984 . S
N6759 C6752 1.356 . S
N6759 H6762 0.984 . S
N6759 H6763 0.985 . S
H6760 N6755 0.984 . S
H6761 N6755 0.985 . S
H6762 N6759 0.984 . S
H6763 N6759 0.985 . S
H6764 N6758 0.984 . S
H6765 N6758 0.984 . S
H6766 N6754 0.984 . S
H6767 N6754 0.985 . S
C6768 C6769 1.363 . S
C6768 C6774 1.379 1_565 S
C6768 N6776 1.356 . S
C6769 C6768 1.363 . S
C6769 C6775 1.363 . S
C6770 C6771 1.363 . S
C6770 C6775 1.379 1_545 S
C6770 N6777 1.356 . S
C6771 C6770 1.363 . S
C6771 C6774 1.363 . S
N6772 C6774 1.356 . S
N6772 H6784 0.984 . S
N6772 H6785 0.985 . S
N6773 C6775 1.356 . S
N6773 H6778 0.984 . S
N6773 H6779 0.985 . S
C6774 C6768 1.379 1_545 S
C6774 C6771 1.363 . S
C6774 N6772 1.356 . S
C6775 C6769 1.363 . S
C6775 C6770 1.379 1_565 S
C6775 N6773 1.356 . S
N6776 C6768 1.356 . S
N6776 H6782 0.984 . S
N6776 H6783 0.984 . S
N6777 C6770 1.356 . S
N6777 H6780 0.984 . S
N6777 H6781 0.985 . S
H6778 N6773 0.984 . S
H6779 N6773 0.985 . S
H6780 N6777 0.984 . S
H6781 N6777 0.985 . S
H6782 N6776 0.984 . S
H6783 N6776 0.984 . S
H6784 N6772 0.984 . S
H6785 N6772 0.985 . S
C6786 C6787 1.363 . S
C6786 C6792 1.379 1_565 S
C6786 N6794 1.356 . S
C6787 C6786 1.363 . S
C6787 C6793 1.363 . S
C6788 C6789 1.342 1_565 S
C6788 C6793 1.412 . S
C6788 N6795 1.335 1_565 S
C6789 C6788 1.342 1_545 S
C6789 C6792 1.363 . S
N6790 C6792 1.356 . S
N6790 H6802 0.984 . S
N6790 H6803 0.985 . S
N6791 C6793 1.356 . S
N6791 H6796 0.984 . S
N6791 H6797 0.985 . S
C6792 C6786 1.379 1_545 S
C6792 C6789 1.363 . S
C6792 N6790 1.356 . S
C6793 C6787 1.363 . S
C6793 C6788 1.412 . S
C6793 N6791 1.356 . S
N6794 C6786 1.356 . S
N6794 H6800 0.984 . S
N6794 H6801 0.984 . S
N6795 C6788 1.335 1_545 S
N6795 H6798 0.984 . S
N6795 H6799 0.985 . S
H6796 N6791 0.984 . S
H6797 N6791 0.985 . S
H6798 N6795 0.984 . S
H6799 N6795 0.985 . S
H6800 N6794 0.984 . S
H6801 N6794 0.984 . S
H6802 N6790 0.984 . S
H6803 N6790 0.985 . S
C6804 C6805 1.363 . S
C6804 C6810 1.379 1_455 S
C6804 N6812 1.356 . S
C6805 C6804 1.363 . S
C6805 C6811 1.363 . S
C6806 C6807 1.363 . S
C6806 C6811 1.379 1_655 S
C6806 N6813 1.356 . S
C6807 C6806 1.363 . S
C6807 C6810 1.363 . S
N6808 C6810 1.356 . S
N6808 H6820 0.984 . S
N6808 H6821 0.985 . S
N6809 C6811 1.356 . S
N6809 H6814 0.984 . S
N6809 H6815 0.985 . S
C6810 C6804 1.379 1_655 S
C6810 C6807 1.363 . S
C6810 N6808 1.356 . S
C6811 C6805 1.363 . S
C6811 C6806 1.379 1_455 S
C6811 N6809 1.356 . S
N6812 C6804 1.356 . S
N6812 H6818 0.984 . S
N6812 H6819 0.984 . S
N6813 C6806 1.356 . S
N6813 H6816 0.984 . S
N6813 H6817 0.985 . S
H6814 N6809 0.984 . S
H6815 N6809 0.985 . S
H6816 N6813 0.984 . S
H6817 N6813 0.985 . S
H6818 N6812 0.984 . S
H6819 N6812 0.984 . S
H6820 N6808 0.984 . S
H6821 N6808 0.985 . S
C6822 C6823 1.363 . S
C6822 C6828 1.379 1_545 S
C6822 N6830 1.356 . S
C6823 C6822 1.363 . S
C6823 C6829 1.363 . S
C6824 C6825 1.336 1_545 S
C6824 C6829 1.421 . S
C6824 N6831 1.330 1_545 S
C6825 C6824 1.336 1_565 S
C6825 C6828 1.363 . S
N6826 C6828 1.356 . S
N6826 H6838 0.984 . S
N6826 H6839 0.985 . S
N6827 C6829 1.356 . S
N6827 H6832 0.984 . S
N6827 H6833 0.985 . S
C6828 C6822 1.379 1_565 S
C6828 C6825 1.363 . S
C6828 N6826 1.356 . S
C6829 C6823 1.363 . S
C6829 C6824 1.421 . S
C6829 N6827 1.356 . S
N6830 C6822 1.356 . S
N6830 H6836 0.984 . S
N6830 H6837 0.984 . S
N6831 C6824 1.330 1_565 S
N6831 H6834 0.984 . S
N6831 H6835 0.985 . S
H6832 N6827 0.984 . S
H6833 N6827 0.985 . S
H6834 N6831 0.984 . S
H6835 N6831 0.985 . S
H6836 N6830 0.984 . S
H6837 N6830 0.984 . S
H6838 N6826 0.984 . S
H6839 N6826 0.985 . S
C6840 C6841 1.363 . S
C6840 C6846 1.379 1_655 S
C6840 N6848 1.356 . S
C6841 C6840 1.363 . S
C6841 C6847 1.363 . S
C6842 C6843 1.363 . S
C6842 C6847 1.379 1_455 S
C6842 N6849 1.356 . S
C6843 C6842 1.363 . S
C6843 C6846 1.363 . S
N6844 C6846 1.356 . S
N6844 H6856 0.984 . S
N6844 H6857 0.985 . S
N6845 C6847 1.356 . S
N6845 H6850 0.984 . S
N6845 H6851 0.985 . S
C6846 C6840 1.379 1_455 S
C6846 C6843 1.363 . S
C6846 N6844 1.356 . S
C6847 C6841 1.363 . S
C6847 C6842 1.379 1_655 S
C6847 N6845 1.356 . S
N6848 C6840 1.356 . S
N6848 H6854 0.984 . S
N6848 H6855 0.984 . S
N6849 C6842 1.356 . S
N6849 H6852 0.984 . S
N6849 H6853 0.985 . S
H6850 N6845 0.984 . S
H6851 N6845 0.985 . S
H6852 N6849 0.984 . S
H6853 N6849 0.985 . S
H6854 N6848 0.984 . S
H6855 N6848 0.984 . S
H6856 N6844 0.984 . S
H6857 N6844 0.985 . S
C6858 C6859 1.363 . S
C6858 C6864 1.379 1_545 S
C6858 N6866 1.356 . S
C6859 C6858 1.363 . S
C6859 C6865 1.363 . S
C6860 C6861 1.363 . S
C6860 C6865 1.379 1_565 S
C6860 N6867 1.356 . S
C6861 C6860 1.363 . S
C6861 C6864 1.363 . S
N6862 C6864 1.356 . S
N6862 H6874 0.984 . S
N6862 H6875 0.985 . S
N6863 C6865 1.356 . S
N6863 H6868 0.984 . S
N6863 H6869 0.985 . S
C6864 C6858 1.379 1_565 S
C6864 C6861 1.363 . S
C6864 N6862 1.356 . S
C6865 C6859 1.363 . S
C6865 C6860 1.379 1_545 S
C6865 N6863 1.356 . S
N6866 C6858 1.356 . S
N6866 H6872 0.984 . S
N6866 H6873 0.984 . S
N6867 C6860 1.356 . S
N6867 H6870 0.984 . S
N6867 H6871 0.985 . S
H6868 N6863 0.984 . S
H6869 N6863 0.985 . S
H6870 N6867 0.984 . S
H6871 N6867 0.985 . S
H6872 N6866 0.984 . S
H6873 N6866 0.984 . S
H6874 N6862 0.984 . S
H6875 N6862 0.985 . S
C6876 C6877 1.377 . S
C6876 C6882 1.355 1_655 S
C6876 N6884 1.373 . S
C6877 C6876 1.377 . S
C6877 C6883 1.363 . S
C6878 C6879 1.363 . S
C6878 C6883 1.379 1_455 S
C6878 N6885 1.356 . S
C6879 C6878 1.363 . S
C6879 C6882 1.363 . S
N6880 C6882 1.356 . S
N6880 H6892 0.984 . S
N6880 H6893 0.985 . S
N6881 C6883 1.356 . S
N6881 H6886 0.984 . S
N6881 H6887 0.985 . S
C6882 C6876 1.355 1_455 S
C6882 C6879 1.363 . S
C6882 N6880 1.356 . S
C6883 C6877 1.363 . S
C6883 C6878 1.379 1_655 S
C6883 N6881 1.356 . S
N6884 C6876 1.373 . S
N6884 H6890 0.984 . S
N6884 H6891 0.984 . S
N6885 C6878 1.356 . S
N6885 H6888 0.984 . S
N6885 H6889 0.985 . S
H6886 N6881 0.984 . S
H6887 N6881 0.985 . S
H6888 N6885 0.984 . S
H6889 N6885 0.985 . S
H6890 N6884 0.984 . S
H6891 N6884 0.984 . S
H6892 N6880 0.984 . S
H6893 N6880 0.985 . S
C6894 C6895 1.363 . S
C6894 C6900 1.379 1_655 S
C6894 N6902 1.356 . S
C6895 C6894 1.363 . S
C6895 C6901 1.363 . S
C6896 C6897 1.359 1_655 S
C6896 C6901 1.386 . S
C6896 N6903 1.351 1_655 S
C6897 C6896 1.359 1_455 S
C6897 C6900 1.363 . S
N6898 C6900 1.356 . S
N6898 H6910 0.984 . S
N6898 H6911 0.985 . S
N6899 C6901 1.356 . S
N6899 H6904 0.984 . S
N6899 H6905 0.985 . S
C6900 C6894 1.379 1_455 S
C6900 C6897 1.363 . S
C6900 N6898 1.356 . S
C6901 C6895 1.363 . S
C6901 C6896 1.386 . S
C6901 N6899 1.356 . S
N6902 C6894 1.356 . S
N6902 H6908 0.984 . S
N6902 H6909 0.984 . S
N6903 C6896 1.351 1_455 S
N6903 H6906 0.984 . S
N6903 H6907 0.985 . S
H6904 N6899 0.984 . S
H6905 N6899 0.985 . S
H6906 N6903 0.984 . S
H6907 N6903 0.985 . S
H6908 N6902 0.984 . S
H6909 N6902 0.984 . S
H6910 N6898 0.984 . S
H6911 N6898 0.985 . S
C3457 C3 1.382 . S
C3459 C1119 1.339 . S
C3475 C39 1.382 . S
C3477 C1011 1.339 . S
C3493 C1047 1.339 . S
C3495 C75 1.382 . S
C3511 C1083 1.339 . S
C3513 C111 1.382 . S
C3529 C903 1.339 . S
C3531 C147 1.382 . S
C3547 C939 1.339 . S
C3549 C183 1.382 . S
C3565 C219 1.382 . S
C3567 C975 1.339 . S
C3583 C867 1.339 . S
C3585 C255 1.382 . S
C3601 C291 1.382 . S
C3603 C1587 1.339 . S
C3619 C327 1.382 . S
C3621 C1479 1.339 . S
C3637 C363 1.382 . S
C3639 C1515 1.339 . S
C3655 C399 1.382 . S
C3657 C1551 1.339 . S
C3673 C435 1.382 . S
C3675 C1695 1.339 . S
C3691 C471 1.382 . S
C3693 C1623 1.339 . S
C3709 C507 1.382 . S
C3711 C1659 1.339 . S
C3727 C1443 1.339 . S
C3729 C543 1.382 . S
C3745 C579 1.382 . S
C3747 C1407 1.339 . S
C3763 C1191 1.339 . S
C3765 C615 1.382 . S
C3781 C1227 1.339 . S
C3783 C651 1.382 . S
C3799 C687 1.382 . S
C3801 C1263 1.339 . S
C3817 C1155 1.339 . S
C3819 C723 1.382 . S
C3835 C1335 1.339 . S
C3837 C759 1.382 . S
C3853 C795 1.382 . S
C3855 C1371 1.339 . S
C3871 C831 1.382 . S
C3873 C1299 1.339 . S
C3889 C2847 1.339 . S
C3891 C1731 1.382 . S
C3907 C2739 1.339 . S
C3909 C1767 1.382 . S
C3925 C1803 1.382 . S
C3927 C2775 1.339 . S
C3943 C2811 1.339 . S
C3945 C1839 1.382 . S
C3961 C1875 1.382 . S
C3963 C2631 1.339 . S
C3979 C1911 1.382 . S
C3981 C2667 1.339 . S
C3997 C2703 1.339 . S
C3999 C1947 1.382 . S
C4015 C2595 1.339 . S
C4017 C1983 1.382 . S
C4033 C3315 1.339 . S
C4035 C2019 1.382 . S
C4051 C3207 1.339 . S
C4053 C2055 1.382 . S
C4069 C2091 1.382 . S
C4071 C3243 1.339 . S
C4087 C2127 1.382 . S
C4089 C3279 1.339 . S
C4105 C3423 1.339 . S
C4107 C2163 1.382 . S
C4123 C3351 1.339 . S
C4125 C2199 1.382 . S
C4141 C3387 1.339 . S
C4143 C2235 1.382 . S
C4159 C2271 1.382 . S
C4161 C3171 1.339 . S
C4177 C3135 1.339 . S
C4179 C2307 1.382 . S
C4195 C2343 1.382 . S
C4197 C2919 1.339 . S
C4213 C2955 1.339 . S
C4215 C2379 1.382 . S
C4231 C2991 1.339 . S
C4233 C2415 1.382 . S
C4249 C2883 1.339 . S
C4251 C2451 1.382 . S
C4267 C2487 1.382 . S
C4269 C3063 1.339 . S
C4285 C2523 1.382 . S
C4287 C3099 1.339 . S
C4303 C3027 1.339 . S
C4305 C2559 1.382 . S
C4321 C4 1.170 . S
C4323 C2452 1.170 . S
C4339 C40 1.170 . S
C4341 C2344 1.170 . S
C4357 C76 1.170 . S
C4359 C2380 1.170 . S
C4375 C112 1.170 . S
C4377 C2416 1.170 . S
C4393 C2560 1.170 . S
C4395 C148 1.170 . S
C4411 C184 1.170 . S
C4413 C2488 1.170 . S
C4429 C2524 1.170 . S
C4431 C220 1.170 . S
C4447 C256 1.170 . S
C4449 C2308 1.170 . S
C4465 C2272 1.170 . S
C4467 C292 1.170 . S
C4483 C328 1.170 . S
C4485 C2164 1.170 . S
C4501 C2200 1.170 . S
C4503 C364 1.170 . S
C4519 C400 1.170 . S
C4521 C2236 1.170 . S
C4537 C436 1.170 . S
C4539 C2056 1.170 . S
C4555 C472 1.170 . S
C4557 C2092 1.170 . S
C4573 C2128 1.170 . S
C4575 C508 1.170 . S
C4591 C2020 1.170 . S
C4593 C544 1.170 . S
C4609 C580 1.170 . S
C4611 C1984 1.170 . S
C4627 C616 1.170 . S
C4629 C1768 1.170 . S
C4645 C652 1.170 . S
C4647 C1804 1.170 . S
C4663 C688 1.170 . S
C4665 C1840 1.170 . S
C4681 C724 1.170 . S
C4683 C1732 1.170 . S
C4699 C1912 1.170 . S
C4701 C760 1.170 . S
C4717 C1948 1.170 . S
C4719 C796 1.170 . S
C4735 C832 1.170 . S
C4737 C1876 1.170 . S
C4753 C878 1.751 . S
C4755 C3326 1.751 . S
C4771 C914 1.751 . S
C4773 C3218 1.751 . S
C4789 C950 1.751 . S
C4791 C3254 1.751 . S
C4807 C986 1.751 . S
C4809 C3290 1.751 . S
C4825 C1022 1.751 . S
C4827 C3434 1.751 . S
C4843 C3362 1.751 . S
C4845 C1058 1.751 . S
C4861 C1094 1.751 . S
C4863 C3398 1.751 . S
C4879 C1130 1.751 . S
C4881 C3182 1.751 . S
C4897 C3146 1.751 . S
C4899 C1166 1.751 . S
C4915 C3038 1.751 . S
C4917 C1202 1.751 . S
C4933 C3074 1.751 . S
C4935 C1238 1.751 . S
C4951 C3110 1.751 . S
C4953 C1274 1.751 . S
C4969 C1310 1.751 . S
C4971 C2930 1.751 . S
C4987 C1346 1.751 . S
C4989 C2966 1.751 . S
C5005 C1382 1.751 . S
C5007 C3002 1.751 . S
C5023 C2894 1.751 . S
C5025 C1418 1.751 . S
C5041 C2858 1.751 . S
C5043 C1454 1.751 . S
C5059 C1490 1.751 . S
C5061 C2642 1.751 . S
C5077 C2678 1.751 . S
C5079 C1526 1.751 . S
C5095 C2714 1.751 . S
C5097 C1562 1.751 . S
C5113 C1598 1.751 . S
C5115 C2606 1.751 . S
C5131 C1634 1.751 . S
C5133 C2786 1.751 . S
C5149 C2822 1.751 . S
C5151 C1670 1.751 . S
C5167 C1706 1.751 . S
C5169 C2750 1.751 . S
C5185 C14 1.350 . S
C5187 C1012 1.473 . S
C5203 C50 1.350 . S
C5205 C1048 1.473 . S
C5221 C86 1.350 . S
C5223 C1084 1.473 . S
C5239 C122 1.350 . S
C5241 C1120 1.473 . S
C5257 C868 1.473 . S
C5259 C158 1.350 . S
C5275 C194 1.350 . S
C5277 C904 1.473 . S
C5293 C940 1.473 . S
C5295 C230 1.350 . S
C5311 C976 1.473 . S
C5313 C266 1.350 . S
C5329 C302 1.350 . S
C5331 C1372 1.473 . S
C5347 C1408 1.473 . S
C5349 C338 1.350 . S
C5365 C374 1.350 . S
C5367 C1300 1.473 . S
C5383 C410 1.350 . S
C5385 C1336 1.473 . S
C5401 C446 1.350 . S
C5403 C1228 1.473 . S
C5419 C482 1.350 . S
C5421 C1264 1.473 . S
C5437 C518 1.350 . S
C5439 C1156 1.473 . S
C5455 C1192 1.473 . S
C5457 C554 1.350 . S
C5473 C590 1.350 . S
C5475 C1624 1.473 . S
C5491 C626 1.350 . S
C5493 C1552 1.473 . S
C5509 C1588 1.473 . S
C5511 C662 1.350 . S
C5527 C698 1.350 . S
C5529 C1480 1.473 . S
C5545 C1516 1.473 . S
C5547 C734 1.350 . S
C5563 C770 1.350 . S
C5565 C1444 1.473 . S
C5581 C1696 1.473 . S
C5583 C806 1.350 . S
C5599 C1660 1.473 . S
C5601 C842 1.350 . S
C5617 C1742 1.350 . S
C5619 C2740 1.473 . S
C5635 C1778 1.350 . S
C5637 C2776 1.473 . S
C5653 C1814 1.350 . S
C5655 C2812 1.473 . S
C5671 C2848 1.473 . S
C5673 C1850 1.350 . S
C5689 C1886 1.350 . S
C5691 C2596 1.473 . S
C5707 C1922 1.350 . S
C5709 C2632 1.473 . S
C5725 C1958 1.350 . S
C5727 C2668 1.473 . S
C5743 C1994 1.350 . S
C5745 C2704 1.473 . S
C5761 C2030 1.350 . S
C5763 C3100 1.473 . S
C5779 C3136 1.473 . S
C5781 C2066 1.350 . S
C5797 C3028 1.473 . S
C5799 C2102 1.350 . S
C5815 C3064 1.473 . S
C5817 C2138 1.350 . S
C5833 C2174 1.350 . S
C5835 C2956 1.473 . S
C5851 C2992 1.473 . S
C5853 C2210 1.350 . S
C5869 C2246 1.350 . S
C5871 C2884 1.473 . S
C5887 C2920 1.473 . S
C5889 C2282 1.350 . S
C5905 C3352 1.473 . S
C5907 C2318 1.350 . S
C5923 C3280 1.473 . S
C5925 C2354 1.350 . S
C5941 C2390 1.350 . S
C5943 C3316 1.473 . S
C5959 C2426 1.350 . S
C5961 C3208 1.473 . S
C5977 C3244 1.473 . S
C5979 C2462 1.350 . S
C5995 C2498 1.350 . S
C5997 C3172 1.473 . S
C6013 C3424 1.473 . S
C6015 C2534 1.350 . S
C6031 C3388 1.473 . S
C6033 C2570 1.350 . S
C6049 C938 1.567 . S
C6051 C2 1.567 . S
C6067 C38 1.567 . S
C6069 C974 1.567 . S
C6085 C866 1.567 . S
C6087 C74 1.567 . S
C6103 C110 1.567 . S
C6105 C902 1.567 . S
C6121 C1082 1.567 . S
C6123 C146 1.567 . S
C6139 C1118 1.567 . S
C6141 C182 1.567 . S
C6157 C218 1.567 . S
C6159 C1010 1.567 . S
C6175 C1046 1.567 . S
C6177 C254 1.567 . S
C6193 C290 1.567 . S
C6195 C1298 1.567 . S
C6211 C326 1.567 . S
C6213 C1334 1.567 . S
C6229 C1370 1.567 . S
C6231 C362 1.567 . S
C6247 C398 1.567 . S
C6249 C1406 1.567 . S
C6265 C434 1.567 . S
C6267 C1154 1.567 . S
C6283 C1190 1.567 . S
C6285 C470 1.567 . S
C6301 C1226 1.567 . S
C6303 C506 1.567 . S
C6319 C1262 1.567 . S
C6321 C542 1.567 . S
C6337 C578 1.567 . S
C6339 C1550 1.567 . S
C6355 C1622 1.567 . S
C6357 C614 1.567 . S
C6373 C650 1.567 . S
C6375 C1658 1.567 . S
C6391 C1442 1.567 . S
C6393 C686 1.567 . S
C6409 C1694 1.567 . S
C6411 C722 1.567 . S
C6427 C1478 1.567 . S
C6429 C758 1.567 . S
C6445 C794 1.567 . S
C6447 C1514 1.567 . S
C6463 C830 1.567 . S
C6465 C1586 1.567 . S
C6481 C1730 1.567 . S
C6483 C2666 1.567 . S
C6499 C2702 1.567 . S
C6501 C1766 1.567 . S
C6517 C2594 1.567 . S
C6519 C1802 1.567 . S
C6535 C2630 1.567 . S
C6537 C1838 1.567 . S
C6553 C1874 1.567 . S
C6555 C2810 1.567 . S
C6571 C2846 1.567 . S
C6573 C1910 1.567 . S
C6589 C1946 1.567 . S
C6591 C2738 1.567 . S
C6607 C2774 1.567 . S
C6609 C1982 1.567 . S
C6625 C2018 1.567 . S
C6627 C3026 1.567 . S
C6643 C3062 1.567 . S
C6645 C2054 1.567 . S
C6661 C2090 1.567 . S
C6663 C3098 1.567 . S
C6679 C3134 1.567 . S
C6681 C2126 1.567 . S
C6697 C2882 1.567 . S
C6699 C2162 1.567 . S
C6715 C2918 1.567 . S
C6717 C2198 1.567 . S
C6733 C2954 1.567 . S
C6735 C2234 1.567 . S
C6751 C2990 1.567 . S
C6753 C2270 1.567 . S
C6769 C2306 1.567 . S
C6771 C3278 1.567 . S
C6787 C3350 1.567 . S
C6789 C2342 1.567 . S
C6805 C3386 1.567 . S
C6807 C2378 1.567 . S
C6823 C3170 1.567 . S
C6825 C2414 1.567 . S
C6841 C3422 1.567 . S
C6843 C2450 1.567 . S
C6859 C2486 1.567 . S
C6861 C3206 1.567 . S
C6877 C2522 1.567 . S
C6879 C3242 1.567 . S
C6895 C3314 1.567 . S
C6897 C2558 1.567 . S
