# Generated by pormake.
# Topology umh, (4)-cn, num edge types: 1
# Building blocks:
#     Node 0, Type 0, BuildingBlock: QUQFOY_clean_sbu_1, # of connection points: 4
#     Node 1, Type 0, BuildingBlock: QUQFOY_clean_sbu_1, # of connection points: 4
#     Node 2, Type 0, BuildingBlock: QUQFOY_clean_sbu_1, # of connection points: 4
#     Node 3, Type 0, BuildingBlock: QUQFOY_clean_sbu_1, # of connection points: 4
#     Node 4, Type 0, BuildingBlock: QUQFOY_clean_sbu_1, # of connection points: 4
#     Node 5, Type 0, BuildingBlock: QUQFOY_clean_sbu_1, # of connection points: 4
#     Node 6, Type 0, BuildingBlock: QUQFOY_clean_sbu_1, # of connection points: 4
#     Node 7, Type 0, BuildingBlock: QUQFOY_clean_sbu_1, # of connection points: 4
#     Node 8, Type 0, BuildingBlock: QUQFOY_clean_sbu_1, # of connection points: 4
#     Node 9, Type 0, BuildingBlock: QUQFOY_clean_sbu_1, # of connection points: 4
#     Node 10, Type 0, BuildingBlock: QUQFOY_clean_sbu_1, # of connection points: 4
#     Node 11, Type 0, BuildingBlock: QUQFOY_clean_sbu_1, # of connection points: 4
#     Node 12, Type 0, BuildingBlock: QUQFOY_clean_sbu_1, # of connection points: 4
#     Node 13, Type 0, BuildingBlock: QUQFOY_clean_sbu_1, # of connection points: 4
#     Node 14, Type 0, BuildingBlock: QUQFOY_clean_sbu_1, # of connection points: 4
#     Node 15, Type 0, BuildingBlock: QUQFOY_clean_sbu_1, # of connection points: 4
#     Edge 16, Type (0, 0), BuildingBlock: KIFKEQ_clean_linker_1, # of connection points: 2
#     Edge 17, Type (0, 0), BuildingBlock: KIFKEQ_clean_linker_1, # of connection points: 2
#     Edge 18, Type (0, 0), BuildingBlock: KIFKEQ_clean_linker_1, # of connection points: 2
#     Edge 19, Type (0, 0), BuildingBlock: KIFKEQ_clean_linker_1, # of connection points: 2
#     Edge 20, Type (0, 0), BuildingBlock: KIFKEQ_clean_linker_1, # of connection points: 2
#     Edge 21, Type (0, 0), BuildingBlock: KIFKEQ_clean_linker_1, # of connection points: 2
#     Edge 22, Type (0, 0), BuildingBlock: KIFKEQ_clean_linker_1, # of connection points: 2
#     Edge 23, Type (0, 0), BuildingBlock: KIFKEQ_clean_linker_1, # of connection points: 2
#     Edge 24, Type (0, 0), BuildingBlock: KIFKEQ_clean_linker_1, # of connection points: 2
#     Edge 25, Type (0, 0), BuildingBlock: KIFKEQ_clean_linker_1, # of connection points: 2
#     Edge 26, Type (0, 0), BuildingBlock: KIFKEQ_clean_linker_1, # of connection points: 2
#     Edge 27, Type (0, 0), BuildingBlock: KIFKEQ_clean_linker_1, # of connection points: 2
#     Edge 28, Type (0, 0), BuildingBlock: KIFKEQ_clean_linker_1, # of connection points: 2
#     Edge 29, Type (0, 0), BuildingBlock: KIFKEQ_clean_linker_1, # of connection points: 2
#     Edge 30, Type (0, 0), BuildingBlock: KIFKEQ_clean_linker_1, # of connection points: 2
#     Edge 31, Type (0, 0), BuildingBlock: KIFKEQ_clean_linker_1, # of connection points: 2
#     Edge 32, Type (0, 0), BuildingBlock: KIFKEQ_clean_linker_1, # of connection points: 2
#     Edge 33, Type (0, 0), BuildingBlock: KIFKEQ_clean_linker_1, # of connection points: 2
#     Edge 34, Type (0, 0), BuildingBlock: KIFKEQ_clean_linker_1, # of connection points: 2
#     Edge 35, Type (0, 0), BuildingBlock: KIFKEQ_clean_linker_1, # of connection points: 2
#     Edge 36, Type (0, 0), BuildingBlock: KIFKEQ_clean_linker_1, # of connection points: 2
#     Edge 37, Type (0, 0), BuildingBlock: KIFKEQ_clean_linker_1, # of connection points: 2
#     Edge 38, Type (0, 0), BuildingBlock: KIFKEQ_clean_linker_1, # of connection points: 2
#     Edge 39, Type (0, 0), BuildingBlock: KIFKEQ_clean_linker_1, # of connection points: 2
#     Edge 40, Type (0, 0), BuildingBlock: KIFKEQ_clean_linker_1, # of connection points: 2
#     Edge 41, Type (0, 0), BuildingBlock: KIFKEQ_clean_linker_1, # of connection points: 2
#     Edge 42, Type (0, 0), BuildingBlock: KIFKEQ_clean_linker_1, # of connection points: 2
#     Edge 43, Type (0, 0), BuildingBlock: KIFKEQ_clean_linker_1, # of connection points: 2
#     Edge 44, Type (0, 0), BuildingBlock: KIFKEQ_clean_linker_1, # of connection points: 2
#     Edge 45, Type (0, 0), BuildingBlock: KIFKEQ_clean_linker_1, # of connection points: 2
#     Edge 46, Type (0, 0), BuildingBlock: KIFKEQ_clean_linker_1, # of connection points: 2
#     Edge 47, Type (0, 0), BuildingBlock: KIFKEQ_clean_linker_1, # of connection points: 2
# Relax obj value: 0.066
# Max RMSD: 0.411
# Mean RMSD: 0.288
data_MOF--net-umh--node1-QUQFOY_clean_sbu_1--edge1-KIFKEQ_clean_linker_1
_symmetry_space_group_name_H-M    P1
_symmetry_Int_Tables_number       1
_symmetry_cell_setting            triclinic
loop_
_symmetry_equiv_pos_as_xyz
'x, y, z'
_cell_length_a     42.009275
_cell_length_b     41.878729
_cell_length_c     53.462043
_cell_angle_alpha  92.289668
_cell_angle_beta   87.688547
_cell_angle_gamma 89.674146
loop_
_atom_site_label
_atom_site_type_symbol
_atom_site_fract_x
_atom_site_fract_y
_atom_site_fract_z
_atom_type_partial_charge
O0 O 0.38525 0.12647 0.1327 0.0
Cd1 Cd 0.38155 0.12725 0.17138 0.0
Cd2 Cd 0.32618 0.09686 0.16113 0.0
O3 O 0.347 0.0918 0.12476 0.0
O4 O 0.4256 0.12462 0.18529 0.0
O5 O 0.39078 0.08532 0.18597 0.0
C6 C 0.419 0.09541 0.1904 0.0
C7 C 0.30306 0.06039 0.18856 0.0
C8 C 0.37015 0.10913 0.11712 0.0
C9 C 0.32172 0.16367 0.18384 0.0
O10 O 0.30906 0.14157 0.17079 0.0
O11 O 0.35106 0.16181 0.18895 0.0
O12 O 0.28828 0.06902 0.16915 0.0
O13 O 0.3322 0.06932 0.19048 0.0
O14 O 0.37986 0.38555 0.63668 0.0
Cd15 Cd 0.38106 0.38629 0.67502 0.0
Cd16 Cd 0.41263 0.33033 0.66471 0.0
O17 O 0.41795 0.34948 0.62867 0.0
O18 O 0.38332 0.4322 0.68845 0.0
O19 O 0.42357 0.39799 0.68781 0.0
C20 C 0.41304 0.4267 0.69227 0.0
C21 C 0.44815 0.31118 0.69361 0.0
C22 C 0.39859 0.37041 0.62105 0.0
C23 C 0.34635 0.3269 0.68711 0.0
O24 O 0.36835 0.31307 0.67367 0.0
O25 O 0.34779 0.35676 0.69271 0.0
O26 O 0.44268 0.29466 0.67329 0.0
O27 O 0.43677 0.33986 0.6957 0.0
O28 O 0.12402 0.39276 0.14158 0.0
Cd29 Cd 0.12458 0.39415 0.17999 0.0
Cd30 Cd 0.17936 0.42444 0.17024 0.0
O31 O 0.15877 0.43139 0.13547 0.0
O32 O 0.07882 0.39555 0.19361 0.0
O33 O 0.11124 0.43687 0.19465 0.0
C34 C 0.08302 0.42571 0.19845 0.0
C35 C 0.19718 0.45765 0.20318 0.0
C36 C 0.13779 0.41216 0.12704 0.0
C37 C 0.18469 0.35887 0.18803 0.0
O38 O 0.19701 0.37962 0.174 0.0
O39 O 0.15568 0.36188 0.19599 0.0
O40 O 0.21375 0.45453 0.18227 0.0
O41 O 0.16919 0.44518 0.20399 0.0
O42 O 0.1261 0.12279 0.63543 0.0
Cd43 Cd 0.12609 0.12107 0.67373 0.0
Cd44 Cd 0.09338 0.17671 0.67042 0.0
O45 O 0.08751 0.15864 0.63342 0.0
O46 O 0.1243 0.07494 0.68386 0.0
O47 O 0.08409 0.10906 0.68915 0.0
C48 C 0.09477 0.08031 0.69057 0.0
C49 C 0.05743 0.19534 0.70255 0.0
C50 C 0.10678 0.13817 0.62259 0.0
C51 C 0.16023 0.1805 0.68802 0.0
O52 O 0.13757 0.19441 0.67769 0.0
O53 O 0.15951 0.15043 0.69105 0.0
O54 O 0.06306 0.21206 0.68306 0.0
O55 O 0.06902 0.16675 0.70213 0.0
O56 O 0.38027 0.38416 0.42053 0.0
Cd57 Cd 0.38118 0.3859 0.38223 0.0
Cd58 Cd 0.32579 0.41813 0.39255 0.0
O59 O 0.34523 0.42324 0.4285 0.0
O60 O 0.42694 0.38828 0.36865 0.0
O61 O 0.39306 0.42886 0.37024 0.0
C62 C 0.42158 0.41826 0.36542 0.0
C63 C 0.3075 0.45375 0.3633 0.0
C64 C 0.36563 0.40333 0.43614 0.0
C65 C 0.32139 0.35203 0.37001 0.0
O66 O 0.30793 0.37397 0.38379 0.0
O67 O 0.35113 0.35332 0.36421 0.0
O68 O 0.29089 0.44896 0.3837 0.0
O69 O 0.3358 0.44163 0.36131 0.0
O70 O 0.11616 0.38824 0.92739 0.0
Cd71 Cd 0.12024 0.38484 0.88875 0.0
Cd72 Cd 0.08914 0.32911 0.898 0.0
O73 O 0.08169 0.34954 0.93428 0.0
O74 O 0.12209 0.43011 0.87684 0.0
O75 O 0.08194 0.3974 0.8703 0.0
C76 C 0.09404 0.42542 0.86839 0.0
C77 C 0.05487 0.31014 0.86731 0.0
C78 C 0.09832 0.37292 0.94245 0.0
C79 C 0.15695 0.32425 0.87827 0.0
O80 O 0.13403 0.31145 0.89033 0.0
O81 O 0.15554 0.35371 0.87306 0.0
O82 O 0.05952 0.29377 0.88688 0.0
O83 O 0.06656 0.33852 0.86694 0.0
O84 O 0.1178 0.1312 0.42 0.0
Cd85 Cd 0.11627 0.13115 0.38164 0.0
Cd86 Cd 0.17174 0.09891 0.38496 0.0
O87 O 0.15457 0.09351 0.4222 0.0
O88 O 0.07053 0.12805 0.37142 0.0
O89 O 0.10576 0.08873 0.36595 0.0
C90 C 0.07677 0.09861 0.36461 0.0
C91 C 0.19332 0.06202 0.35456 0.0
C92 C 0.13366 0.11236 0.43293 0.0
C93 C 0.17438 0.16627 0.36686 0.0
O94 O 0.18852 0.14336 0.37674 0.0
O95 O 0.14432 0.1656 0.36438 0.0
O96 O 0.20917 0.0707 0.37388 0.0
O97 O 0.16395 0.07107 0.35425 0.0
O98 O 0.39276 0.12947 0.91797 0.0
Cd99 Cd 0.39059 0.1292 0.87959 0.0
Cd100 Cd 0.4212 0.18432 0.88771 0.0
O101 O 0.42959 0.16631 0.92307 0.0
O102 O 0.38793 0.08262 0.86882 0.0
O103 O 0.42979 0.11278 0.86062 0.0
C104 C 0.41694 0.08489 0.86012 0.0
C105 C 0.45379 0.201 0.85414 0.0
C106 C 0.41169 0.1446 0.93205 0.0
C107 C 0.35407 0.18866 0.87214 0.0
O108 O 0.37623 0.20181 0.88423 0.0
O109 O 0.35618 0.15913 0.86526 0.0
O110 O 0.45052 0.21851 0.87459 0.0
O111 O 0.44189 0.17266 0.85417 0.0
O112 O 0.61684 0.88509 0.92731 0.0
Cd113 Cd 0.61926 0.88316 0.88875 0.0
Cd114 Cd 0.67621 0.91358 0.89712 0.0
O115 O 0.65652 0.91854 0.93403 0.0
O116 O 0.57463 0.88506 0.87577 0.0
O117 O 0.60925 0.9244 0.87339 0.0
C118 C 0.58091 0.91405 0.86983 0.0
C119 C 0.69651 0.9499 0.86834 0.0
C120 C 0.63309 0.90205 0.94234 0.0
C121 C 0.67906 0.84655 0.87483 0.0
O122 O 0.69306 0.86902 0.88652 0.0
O123 O 0.64917 0.84796 0.87154 0.0
O124 O 0.7125 0.94296 0.88759 0.0
O125 O 0.66773 0.93951 0.86745 0.0
O126 O 0.61943 0.6253 0.42177 0.0
Cd127 Cd 0.62116 0.62571 0.38327 0.0
Cd128 Cd 0.59039 0.68211 0.39377 0.0
O129 O 0.58542 0.66507 0.43035 0.0
O130 O 0.62054 0.57954 0.37104 0.0
O131 O 0.58088 0.61353 0.3666 0.0
C132 C 0.59181 0.58466 0.36428 0.0
C133 C 0.554 0.70328 0.36657 0.0
C134 C 0.60238 0.64198 0.43762 0.0
C135 C 0.65758 0.68404 0.37154 0.0
O136 O 0.63473 0.69833 0.38365 0.0
O137 O 0.65673 0.65391 0.36703 0.0
O138 O 0.56256 0.71958 0.38618 0.0
O139 O 0.56273 0.67366 0.36437 0.0
O140 O 0.8814 0.62087 0.91675 0.0
Cd141 Cd 0.88208 0.62091 0.87838 0.0
Cd142 Cd 0.82563 0.59111 0.88632 0.0
O143 O 0.84343 0.58519 0.92231 0.0
O144 O 0.92819 0.61947 0.86603 0.0
O145 O 0.89508 0.57891 0.86214 0.0
C146 C 0.92366 0.58976 0.85971 0.0
C147 C 0.80742 0.55628 0.85462 0.0
C148 C 0.86545 0.60287 0.93111 0.0
C149 C 0.82352 0.65746 0.86797 0.0
O150 O 0.80913 0.63585 0.87989 0.0
O151 O 0.85339 0.65525 0.86275 0.0
O152 O 0.79036 0.56182 0.87505 0.0
O153 O 0.83615 0.56702 0.85388 0.0
O154 O 0.88218 0.88972 0.42167 0.0
Cd155 Cd 0.87949 0.88961 0.38332 0.0
Cd156 Cd 0.91103 0.83352 0.38743 0.0
O157 O 0.91654 0.85004 0.4247 0.0
O158 O 0.8797 0.9358 0.37408 0.0
O159 O 0.9193 0.90196 0.36434 0.0
C160 C 0.90825 0.9308 0.36476 0.0
C161 C 0.94771 0.81266 0.35677 0.0
C162 C 0.89971 0.87291 0.43494 0.0
C163 C 0.84342 0.83113 0.37009 0.0
O164 O 0.86674 0.81688 0.37925 0.0
O165 O 0.84377 0.86135 0.36791 0.0
O166 O 0.93915 0.79631 0.37588 0.0
O167 O 0.93867 0.84217 0.35687 0.0
O168 O 0.62177 0.62183 0.63662 0.0
Cd169 Cd 0.62191 0.62421 0.67507 0.0
Cd170 Cd 0.67842 0.593 0.66497 0.0
O171 O 0.66089 0.58694 0.6286 0.0
O172 O 0.57564 0.62493 0.68706 0.0
O173 O 0.60841 0.58443 0.69206 0.0
C174 C 0.57992 0.59611 0.69413 0.0
C175 C 0.69648 0.55789 0.69452 0.0
C176 C 0.63817 0.60413 0.62104 0.0
C177 C 0.6809 0.66052 0.68595 0.0
O178 O 0.69512 0.63761 0.67378 0.0
O179 O 0.65093 0.65954 0.69086 0.0
O180 O 0.71363 0.56321 0.6745 0.0
O181 O 0.66776 0.5691 0.6959 0.0
O182 O 0.88524 0.6255 0.13174 0.0
Cd183 Cd 0.88262 0.62841 0.17049 0.0
Cd184 Cd 0.91331 0.68373 0.16118 0.0
O185 O 0.91918 0.66452 0.12444 0.0
O186 O 0.88262 0.5832 0.18229 0.0
O187 O 0.92202 0.61715 0.18807 0.0
C188 C 0.91081 0.58875 0.19018 0.0
C189 C 0.94928 0.70572 0.18938 0.0
C190 C 0.90237 0.64119 0.11642 0.0
C191 C 0.84589 0.68799 0.18272 0.0
O192 O 0.86861 0.70091 0.17055 0.0
O193 O 0.84725 0.65836 0.18733 0.0
O194 O 0.941 0.72127 0.17024 0.0
O195 O 0.9403 0.6764 0.19061 0.0
O196 O 0.88523 0.88742 0.63637 0.0
Cd197 Cd 0.88562 0.88389 0.67458 0.0
Cd198 Cd 0.8295 0.91607 0.67116 0.0
O199 O 0.84638 0.92286 0.63411 0.0
O200 O 0.932 0.88253 0.68313 0.0
O201 O 0.89959 0.92302 0.69376 0.0
C202 C 0.92802 0.91113 0.6928 0.0
C203 C 0.81194 0.95132 0.70403 0.0
C204 C 0.86876 0.90575 0.6235 0.0
C205 C 0.82643 0.84807 0.68715 0.0
O206 O 0.81228 0.87152 0.67798 0.0
O207 O 0.85652 0.84848 0.68971 0.0
O208 O 0.79466 0.94614 0.68482 0.0
O209 O 0.84051 0.93975 0.70289 0.0
O210 O 0.61207 0.88181 0.1424 0.0
Cd211 Cd 0.61275 0.88215 0.18094 0.0
Cd212 Cd 0.58295 0.82712 0.1722 0.0
O213 O 0.576 0.84443 0.13643 0.0
O214 O 0.61333 0.92861 0.19207 0.0
O215 O 0.57232 0.89682 0.19906 0.0
C216 C 0.58415 0.92519 0.20007 0.0
C217 C 0.54882 0.80683 0.20341 0.0
C218 C 0.59397 0.86633 0.12784 0.0
C219 C 0.64969 0.82389 0.18965 0.0
O220 O 0.62794 0.81057 0.17724 0.0
O221 O 0.64733 0.85345 0.19626 0.0
O222 O 0.5557 0.79028 0.18295 0.0
O223 O 0.55789 0.83624 0.20459 0.0
H224 H 0.39006 0.09048 0.95331 0.0
H225 H 0.43056 0.18237 0.97224 0.0
H226 H 0.38242 0.07996 0.99746 0.0
H227 H 0.4219 0.17234 1.01678 0.0
H228 H 0.42332 0.1359 0.09571 0.0
H229 H 0.43631 0.14282 0.05152 0.0
H230 H 0.34912 0.09511 0.0324 0.0
H231 H 0.33669 0.08728 0.07669 0.0
C232 C 0.39745 0.10849 0.96695 0.0
C233 C 0.41084 0.13738 0.95915 0.0
C234 C 0.39276 0.10253 0.99239 0.0
C235 C 0.40101 0.12541 1.01094 0.0
C236 C 0.41544 0.15394 1.00315 0.0
C237 C 0.42042 0.15979 0.97756 0.0
C238 C 0.40699 0.12661 0.08208 0.0
C239 C 0.3789 0.11097 0.08988 0.0
C240 C 0.41436 0.13085 0.05664 0.0
C241 C 0.39378 0.11977 0.03814 0.0
C242 C 0.36591 0.10362 0.04594 0.0
C243 C 0.35864 0.09917 0.07143 0.0
H244 H 0.34913 0.44531 0.47594 0.0
H245 H 0.39661 0.35511 0.458 0.0
H246 H 0.35985 0.43955 0.52016 0.0
H247 H 0.4059 0.34854 0.50185 0.0
H248 H 0.43975 0.35251 0.58112 0.0
H249 H 0.43401 0.36315 0.53687 0.0
H250 H 0.34475 0.41207 0.55543 0.0
H251 H 0.35133 0.40284 0.59929 0.0
C252 C 0.3617 0.42421 0.4814 0.0
C253 C 0.37199 0.40078 0.46328 0.0
C254 C 0.36774 0.42072 0.50685 0.0
C255 C 0.38383 0.39346 0.51493 0.0
C256 C 0.39412 0.37019 0.49664 0.0
C257 C 0.38848 0.37388 0.4713 0.0
C258 C 0.41905 0.3657 0.57571 0.0
C259 C 0.39611 0.3768 0.5939 0.0
C260 C 0.41557 0.3717 0.55024 0.0
C261 C 0.38879 0.38855 0.54223 0.0
C262 C 0.36603 0.39967 0.5606 0.0
C263 C 0.36973 0.39407 0.58594 0.0
H264 H 0.12081 0.42776 0.96454 0.0
H265 H 0.07922 0.337 0.98234 0.0
H266 H 0.1283 0.43983 1.00877 0.0
H267 H 0.0877 0.34852 1.02667 0.0
H268 H 0.08485 0.38626 0.10684 0.0
H269 H 0.0726 0.37914 0.06299 0.0
H270 H 0.16043 0.42618 0.04197 0.0
H271 H 0.17208 0.43432 0.08622 0.0
C272 C 0.11311 0.41036 0.97793 0.0
C273 C 0.09938 0.38135 0.96978 0.0
C274 C 0.11772 0.41719 1.00338 0.0
C275 C 0.10898 0.39512 1.02154 0.0
C276 C 0.09444 0.36641 1.01342 0.0
C277 C 0.08956 0.3597 0.98791 0.0
C278 C 0.1015 0.39536 0.0929 0.0
C279 C 0.12957 0.41079 0.10014 0.0
C280 C 0.09455 0.39101 0.06762 0.0
C281 C 0.11561 0.40165 0.04866 0.0
C282 C 0.14336 0.41789 0.05592 0.0
C283 C 0.15017 0.42254 0.08135 0.0
H284 H 0.15396 0.10782 0.59423 0.0
H285 H 0.06383 0.15627 0.58787 0.0
H286 H 0.15913 0.10036 0.54915 0.0
H287 H 0.06815 0.14737 0.54238 0.0
H288 H 0.10243 0.15913 0.46126 0.0
H289 H 0.09463 0.16404 0.50636 0.0
H290 H 0.14313 0.07362 0.51309 0.0
H291 H 0.15235 0.06961 0.46764 0.0
C292 C 0.1349 0.11652 0.58321 0.0
C293 C 0.10844 0.13276 0.59482 0.0
C294 C 0.13778 0.11196 0.55716 0.0
C295 C 0.11409 0.12309 0.54176 0.0
C296 C 0.08726 0.13888 0.55342 0.0
C297 C 0.0846 0.14386 0.57959 0.0
C298 C 0.1114 0.14015 0.47229 0.0
C299 C 0.12815 0.11396 0.46069 0.0
C300 C 0.10665 0.14287 0.49833 0.0
C301 C 0.11809 0.11926 0.51373 0.0
C302 C 0.13439 0.09268 0.50206 0.0
C303 C 0.13956 0.0902 0.47592 0.0
H304 H 0.61899 0.91918 0.10657 0.0
H305 H 0.57345 0.82981 0.08752 0.0
H306 H 0.6266 0.92984 0.06245 0.0
H307 H 0.58198 0.84 0.04302 0.0
H308 H 0.57926 0.87825 0.96489 0.0
H309 H 0.5676 0.87121 1.00921 0.0
H310 H 0.65798 0.91376 1.0265 0.0
H311 H 0.66918 0.9217 0.982 0.0
C312 C 0.61053 0.90172 0.09293 0.0
C313 C 0.59564 0.87352 0.10071 0.0
C314 C 0.61518 0.90777 0.0675 0.0
C315 C 0.60532 0.88571 0.04891 0.0
C316 C 0.58966 0.8578 0.05668 0.0
C317 C 0.58478 0.85185 0.08225 0.0
C318 C 0.5966 0.8864 0.97813 0.0
C319 C 0.62524 0.90057 0.96975 0.0
C320 C 0.58999 0.88206 1.00365 0.0
C321 C 0.61187 0.89159 1.02167 0.0
C322 C 0.64026 0.90642 1.01333 0.0
C323 C 0.6468 0.91096 0.98773 0.0
H324 H 0.6755 0.58412 0.57954 0.0
H325 H 0.58488 0.62833 0.60107 0.0
H326 H 0.66546 0.59265 0.53553 0.0
H327 H 0.57447 0.63604 0.55738 0.0
H328 H 0.58201 0.67867 0.4794 0.0
H329 H 0.59008 0.66788 0.52334 0.0
H330 H 0.63464 0.57746 0.50083 0.0
H331 H 0.62739 0.58862 0.45721 0.0
C332 C 0.65323 0.59514 0.5749 0.0
C333 C 0.63114 0.60561 0.59395 0.0
C334 C 0.64738 0.60006 0.54961 0.0
C335 C 0.61918 0.61538 0.54271 0.0
C336 C 0.59674 0.62487 0.56181 0.0
C337 C 0.60265 0.62014 0.58698 0.0
C338 C 0.59325 0.65639 0.48387 0.0
C339 C 0.60411 0.63466 0.46465 0.0
C340 C 0.59787 0.65009 0.50912 0.0
C341 C 0.6133 0.6218 0.51583 0.0
C342 C 0.62333 0.59978 0.49655 0.0
C343 C 0.61889 0.60613 0.47142 0.0
H344 H 0.82804 0.58366 0.97142 0.0
H345 H 0.91906 0.62552 0.95238 0.0
H346 H 0.83843 0.59173 1.01595 0.0
H347 H 0.92988 0.63264 0.99647 0.0
H348 H 0.9233 0.6762 0.0765 0.0
H349 H 0.9149 0.66501 0.03212 0.0
H350 H 0.86886 0.5763 0.04999 0.0
H351 H 0.8764 0.588 0.09427 0.0
C352 C 0.85046 0.59407 0.9767 0.0
C353 C 0.87255 0.60411 0.95825 0.0
C354 C 0.85652 0.59869 1.00228 0.0
C355 C 0.88495 0.61323 1.01003 0.0
C356 C 0.90741 0.62214 0.99143 0.0
C357 C 0.90127 0.61778 0.96601 0.0
C358 C 0.9117 0.65417 0.07094 0.0
C359 C 0.90052 0.6331 0.08907 0.0
C360 C 0.90688 0.64763 0.0454 0.0
C361 C 0.89098 0.61972 0.03725 0.0
C362 C 0.8806 0.59831 0.05542 0.0
C363 C 0.88522 0.60493 0.0809 0.0
H364 H 0.92122 0.83541 0.47213 0.0
H365 H 0.87534 0.92584 0.46048 0.0
H366 H 0.91446 0.84518 0.51741 0.0
H367 H 0.86944 0.93603 0.50547 0.0
H368 H 0.83058 0.92699 0.58668 0.0
H369 H 0.83958 0.91987 0.54132 0.0
H370 H 0.93105 0.87614 0.55253 0.0
H371 H 0.92163 0.8824 0.59757 0.0
C372 C 0.91016 0.85757 0.47919 0.0
C373 C 0.89875 0.87971 0.46256 0.0
C374 C 0.90631 0.86328 0.50522 0.0
C375 C 0.89115 0.89139 0.5153 0.0
C376 C 0.88058 0.91384 0.49857 0.0
C377 C 0.88424 0.90805 0.47265 0.0
C378 C 0.85273 0.91619 0.57942 0.0
C379 C 0.87525 0.90516 0.59586 0.0
C380 C 0.85799 0.9121 0.55336 0.0
C381 C 0.886 0.89709 0.54306 0.0
C382 C 0.9089 0.88709 0.5596 0.0
C383 C 0.90356 0.89097 0.58554 0.0
H384 H 0.1667 0.30344 0.21096 0.0
H385 H 0.24856 0.35187 0.17937 0.0
H386 H 0.20018 0.25651 0.21707 0.0
H387 H 0.28139 0.30526 0.18476 0.0
H388 H 0.34035 0.22207 0.20388 0.0
H389 H 0.30694 0.26981 0.21187 0.0
H390 H 0.22453 0.21635 0.18922 0.0
H391 H 0.25735 0.16898 0.18204 0.0
C392 C 0.1918 0.30422 0.20555 0.0
C393 C 0.20476 0.33124 0.19432 0.0
C394 C 0.21099 0.27731 0.20895 0.0
C395 C 0.24353 0.27697 0.20126 0.0
C396 C 0.25664 0.30466 0.19122 0.0
C397 C 0.23758 0.33137 0.18783 0.0
C398 C 0.31501 0.22046 0.20108 0.0
C399 C 0.30169 0.19184 0.19192 0.0
C400 C 0.29585 0.24782 0.20553 0.0
C401 C 0.26302 0.24707 0.20094 0.0
C402 C 0.24955 0.21789 0.19322 0.0
C403 C 0.26858 0.19071 0.1888 0.0
H404 H 0.34768 0.26678 0.70383 0.0
H405 H 0.28314 0.34281 0.68739 0.0
H406 H 0.30297 0.23099 0.71044 0.0
H407 H 0.23826 0.30663 0.69216 0.0
H408 H 0.15882 0.24058 0.70879 0.0
H409 H 0.20347 0.27636 0.71506 0.0
H410 H 0.26831 0.20109 0.68747 0.0
H411 H 0.22351 0.16489 0.683 0.0
C412 C 0.32374 0.27585 0.70185 0.0
C413 C 0.31878 0.30751 0.6951 0.0
C414 C 0.29805 0.25521 0.70531 0.0
C415 C 0.26673 0.26542 0.70139 0.0
C416 C 0.2618 0.29772 0.69572 0.0
C417 C 0.28754 0.31861 0.69289 0.0
C418 C 0.18277 0.23159 0.70463 0.0
C419 C 0.18778 0.20002 0.69538 0.0
C420 C 0.20842 0.25223 0.70793 0.0
C421 C 0.23977 0.24211 0.70137 0.0
C422 C 0.24475 0.20992 0.69311 0.0
C423 C 0.21905 0.18902 0.69043 0.0
H424 H 0.33678 0.28841 0.36819 0.0
H425 H 0.26109 0.35444 0.35414 0.0
H426 H 0.30031 0.24383 0.36276 0.0
H427 H 0.22498 0.31011 0.34692 0.0
H428 H 0.1591 0.22968 0.37329 0.0
H429 H 0.19533 0.2746 0.36936 0.0
H430 H 0.2695 0.21009 0.33931 0.0
H431 H 0.23369 0.16526 0.34501 0.0
C432 C 0.31257 0.29324 0.36309 0.0
C433 C 0.30168 0.32478 0.36175 0.0
C434 C 0.29152 0.26767 0.35988 0.0
C435 C 0.25924 0.2731 0.35469 0.0
C436 C 0.2492 0.30478 0.35165 0.0
C437 C 0.27001 0.33026 0.35548 0.0
C438 C 0.18296 0.22534 0.3654 0.0
C439 C 0.19366 0.19407 0.3596 0.0
C440 C 0.20389 0.25111 0.36305 0.0
C441 C 0.23581 0.24622 0.35429 0.0
C442 C 0.24558 0.21495 0.34685 0.0
C443 C 0.22493 0.1892 0.34981 0.0
H444 H 0.29732 0.16945 0.85226 0.0
H445 H 0.34689 0.25286 0.88018 0.0
H446 H 0.24972 0.20237 0.84757 0.0
H447 H 0.29961 0.28517 0.87619 0.0
H448 H 0.21474 0.3426 0.85727 0.0
H449 H 0.26255 0.30938 0.84961 0.0
H450 H 0.21109 0.22758 0.8763 0.0
H451 H 0.16359 0.26017 0.88321 0.0
C452 C 0.29817 0.19476 0.85719 0.0
C453 C 0.32579 0.20835 0.86692 0.0
C454 C 0.27089 0.21363 0.8546 0.0
C455 C 0.27073 0.24645 0.86164 0.0
C456 C 0.29886 0.26016 0.87027 0.0
C457 C 0.32597 0.24141 0.87284 0.0
C458 C 0.21358 0.31743 0.86114 0.0
C459 C 0.18543 0.30423 0.87118 0.0
C460 C 0.24099 0.29839 0.85685 0.0
C461 C 0.24078 0.26578 0.8625 0.0
C462 C 0.21216 0.25241 0.87142 0.0
C463 C 0.1849 0.27133 0.87567 0.0
H464 H 0.66303 0.78348 0.8763 0.0
H465 H 0.739 0.84657 0.85432 0.0
H466 H 0.69898 0.73777 0.86965 0.0
H467 H 0.77457 0.80099 0.84595 0.0
H468 H 0.83965 0.72056 0.87137 0.0
H469 H 0.80394 0.76617 0.8681 0.0
H470 H 0.72916 0.70225 0.84472 0.0
H471 H 0.76442 0.65686 0.84976 0.0
C472 C 0.68717 0.78738 0.86922 0.0
C473 C 0.69835 0.81845 0.86601 0.0
C474 C 0.70791 0.76117 0.8653 0.0
C475 C 0.7401 0.76548 0.85753 0.0
C476 C 0.75039 0.79661 0.85264 0.0
C477 C 0.7299 0.82277 0.85715 0.0
C478 C 0.81576 0.71649 0.86508 0.0
C479 C 0.80466 0.68532 0.86101 0.0
C480 C 0.79517 0.74263 0.8631 0.0
C481 C 0.76323 0.73811 0.85646 0.0
C482 C 0.75311 0.70682 0.85063 0.0
C483 C 0.77343 0.68076 0.85322 0.0
H484 H 0.6563 0.74388 0.35432 0.0
H485 H 0.72097 0.66849 0.37199 0.0
H486 H 0.70086 0.7799 0.34797 0.0
H487 H 0.76573 0.70492 0.36721 0.0
H488 H 0.84468 0.77123 0.34907 0.0
H489 H 0.80013 0.73519 0.3433 0.0
H490 H 0.73527 0.81 0.37168 0.0
H491 H 0.77999 0.84646 0.37589 0.0
C492 C 0.68023 0.73498 0.35663 0.0
C493 C 0.68524 0.70344 0.36369 0.0
C494 C 0.70581 0.75575 0.35328 0.0
C495 C 0.7371 0.74578 0.3575 0.0
C496 C 0.74215 0.7136 0.36345 0.0
C497 C 0.7165 0.69258 0.36626 0.0
C498 C 0.82075 0.78009 0.35355 0.0
C499 C 0.81574 0.8116 0.36299 0.0
C500 C 0.79518 0.7593 0.35052 0.0
C501 C 0.7639 0.76923 0.35742 0.0
C502 C 0.75884 0.80136 0.36582 0.0
C503 C 0.78447 0.82239 0.36833 0.0
H504 H 0.84207 0.78458 0.68125 0.0
H505 H 0.76646 0.84895 0.70772 0.0
H506 H 0.80603 0.73946 0.68533 0.0
H507 H 0.73084 0.804 0.71341 0.0
H508 H 0.66499 0.72395 0.6852 0.0
H509 H 0.70098 0.76914 0.68972 0.0
H510 H 0.77632 0.70476 0.70897 0.0
H511 H 0.74075 0.65975 0.70281 0.0
C512 C 0.81799 0.7889 0.68869 0.0
C513 C 0.80698 0.82019 0.69397 0.0
C514 C 0.7972 0.76304 0.69114 0.0
C515 C 0.76511 0.76788 0.69945 0.0
C516 C 0.75493 0.7992 0.70626 0.0
C517 C 0.77548 0.82501 0.70326 0.0
C518 C 0.68908 0.71969 0.69084 0.0
C519 C 0.70017 0.68843 0.69348 0.0
C520 C 0.70984 0.74559 0.69352 0.0
C521 C 0.74197 0.7408 0.69942 0.0
C522 C 0.7522 0.70951 0.70369 0.0
C523 C 0.73168 0.68367 0.70045 0.0
H524 H 0.83949 0.75219 0.1785 0.0
H525 H 0.78854 0.66972 0.20459 0.0
H526 H 0.79227 0.78493 0.18615 0.0
H527 H 0.74102 0.70312 0.21312 0.0
H528 H 0.65645 0.75954 0.18293 0.0
H529 H 0.70358 0.72722 0.18721 0.0
H530 H 0.75392 0.81041 0.21461 0.0
H531 H 0.70644 0.84337 0.2095 0.0
C532 C 0.81829 0.74106 0.18627 0.0
C533 C 0.8177 0.70808 0.1905 0.0
C534 C 0.79119 0.76007 0.19096 0.0
C535 C 0.76267 0.74675 0.20013 0.0
C536 C 0.76247 0.71409 0.20567 0.0
C537 C 0.78972 0.69493 0.20088 0.0
C538 C 0.67743 0.77108 0.19007 0.0
C539 C 0.67779 0.80426 0.19544 0.0
C540 C 0.70447 0.75232 0.19283 0.0
C541 C 0.73272 0.76612 0.20114 0.0
C542 C 0.73268 0.79907 0.20779 0.0
C543 C 0.70546 0.81797 0.20498 0.0
H544 H 0.16629 0.03453 0.31317 0.0
H545 H 0.25722 0.05876 0.34325 0.0
H546 H 0.19219 0.02297 0.27216 0.0
H547 H 0.28292 0.04909 0.30224 0.0
H548 H 0.32821 0.02985 0.22766 0.0
H549 H 0.30147 0.01904 0.2677 0.0
H550 H 0.21249 0.05206 0.23955 0.0
H551 H 0.23897 0.06093 0.19929 0.0
C552 C 0.19192 0.03683 0.31114 0.0
C553 C 0.20962 0.04774 0.33152 0.0
C554 C 0.20682 0.03059 0.28747 0.0
C555 C 0.23975 0.03568 0.28341 0.0
C556 C 0.25766 0.04447 0.30433 0.0
C557 C 0.24284 0.05016 0.32805 0.0
C558 C 0.30272 0.0338 0.22983 0.0
C559 C 0.28578 0.0464 0.21028 0.0
C560 C 0.28737 0.02802 0.25297 0.0
C561 C 0.25477 0.03535 0.25739 0.0
C562 C 0.23747 0.04576 0.23712 0.0
C563 C 0.25272 0.05095 0.21384 0.0
H564 H 0.45212 0.33724 0.74095 0.0
H565 H 0.47374 0.25079 0.69673 0.0
H566 H 0.46176 0.30975 0.77888 0.0
H567 H 0.48532 0.22337 0.73481 0.0
H568 H 0.4501 0.17473 0.80681 0.0
H569 H 0.45717 0.20134 0.76762 0.0
H570 H 0.49196 0.28513 0.80749 0.0
H571 H 0.48297 0.25882 0.84703 0.0
C572 C 0.45999 0.31254 0.73922 0.0
C573 C 0.46178 0.2962 0.71569 0.0
C574 C 0.46574 0.29664 0.76116 0.0
C575 C 0.47394 0.26393 0.7603 0.0
C576 C 0.47819 0.24827 0.7365 0.0
C577 C 0.47195 0.26412 0.71452 0.0
C578 C 0.45989 0.19861 0.80724 0.0
C579 C 0.46561 0.2147 0.83021 0.0
C580 C 0.46413 0.21398 0.78456 0.0
C581 C 0.47471 0.24584 0.78405 0.0
C582 C 0.48288 0.26099 0.80696 0.0
C583 C 0.47811 0.24575 0.82973 0.0
H584 H 0.25582 0.48551 0.20927 0.0
H585 H 0.17131 0.45648 0.25073 0.0
H586 H 0.28255 0.49524 0.24852 0.0
H587 H 0.19825 0.46421 0.2896 0.0
H588 H 0.24809 0.48116 0.35992 0.0
H589 H 0.22109 0.4927 0.32169 0.0
H590 H 0.30641 0.46553 0.27782 0.0
H591 H 0.33357 0.45601 0.31586 0.0
C592 C 0.24276 0.48167 0.22676 0.0
C593 C 0.21146 0.46998 0.22673 0.0
C594 C 0.25823 0.48685 0.24937 0.0
C595 C 0.24301 0.47995 0.27256 0.0
C596 C 0.21097 0.47022 0.27244 0.0
C597 C 0.19541 0.46556 0.24993 0.0
C598 C 0.2613 0.47858 0.34212 0.0
C599 C 0.29296 0.46741 0.34106 0.0
C600 C 0.24568 0.48479 0.32006 0.0
C601 C 0.26112 0.47946 0.29628 0.0
C602 C 0.29349 0.47032 0.2955 0.0
C603 C 0.30919 0.46464 0.31751 0.0
H604 H 0.05574 0.17029 0.74886 0.0
H605 H 0.02873 0.25435 0.71042 0.0
H606 H 0.04601 0.19847 0.7888 0.0
H607 H 0.01689 0.28232 0.75065 0.0
H608 H 0.054 0.33496 0.82099 0.0
H609 H 0.04547 0.30669 0.78156 0.0
H610 H 0.01664 0.22295 0.8213 0.0
H611 H 0.02726 0.25102 0.86094 0.0
C612 C 0.04661 0.19454 0.74892 0.0
C613 C 0.04345 0.21014 0.72633 0.0
C614 C 0.04081 0.21083 0.77204 0.0
C615 C 0.03112 0.24314 0.77333 0.0
C616 C 0.02527 0.25784 0.75063 0.0
C617 C 0.03165 0.24166 0.72744 0.0
C618 C 0.04521 0.31071 0.82143 0.0
C619 C 0.04176 0.29518 0.84422 0.0
C620 C 0.04008 0.29437 0.79862 0.0
C621 C 0.0308 0.26208 0.79785 0.0
C622 C 0.0247 0.24743 0.82088 0.0
C623 C 0.03039 0.26367 0.84374 0.0
H624 H 0.75681 0.97493 0.86303 0.0
H625 H 0.67213 0.95509 0.8222 0.0
H626 H 0.7856 0.98641 0.82391 0.0
H627 H 0.701 0.9644 0.78321 0.0
H628 H 0.75438 0.98226 0.71283 0.0
H629 H 0.72685 0.99321 0.75332 0.0
H630 H 0.80888 0.95801 0.79045 0.0
H631 H 0.83675 0.94923 0.75028 0.0
C632 C 0.74417 0.97352 0.84577 0.0
C633 C 0.71219 0.96383 0.84583 0.0
C634 C 0.76081 0.97969 0.82317 0.0
C635 C 0.74609 0.97572 0.79998 0.0
C636 C 0.71343 0.96814 0.8004 0.0
C637 C 0.69672 0.96257 0.82297 0.0
C638 C 0.76681 0.9778 0.72972 0.0
C639 C 0.79771 0.96464 0.72822 0.0
C640 C 0.75086 0.98366 0.75305 0.0
C641 C 0.76511 0.97585 0.77551 0.0
C642 C 0.79689 0.96474 0.7739 0.0
C643 C 0.813 0.9595 0.75065 0.0
H644 H 0.52519 0.67566 0.32598 0.0
H645 H 0.55319 0.76703 0.35778 0.0
H646 H 0.51361 0.70063 0.28692 0.0
H647 H 0.54372 0.79171 0.31852 0.0
H648 H 0.52342 0.83527 0.24694 0.0
H649 H 0.51433 0.81063 0.28713 0.0
H650 H 0.54097 0.7187 0.25251 0.0
H651 H 0.54795 0.74312 0.21235 0.0
C652 C 0.52839 0.70121 0.32477 0.0
C653 C 0.54021 0.71928 0.34505 0.0
C654 C 0.52218 0.71557 0.30217 0.0
C655 C 0.5283 0.74829 0.29899 0.0
C656 C 0.53825 0.76662 0.31994 0.0
C657 C 0.54382 0.75238 0.34266 0.0
C658 C 0.52639 0.80963 0.24784 0.0
C659 C 0.5365 0.79123 0.22638 0.0
C660 C 0.52161 0.79545 0.27104 0.0
C661 C 0.52752 0.76255 0.27358 0.0
C662 C 0.53574 0.74395 0.25165 0.0
C663 C 0.53987 0.75803 0.2284 0.0
H664 H 0.83333 0.55544 0.80699 0.0
H665 H 0.7482 0.52961 0.8491 0.0
H666 H 0.80606 0.54745 0.76827 0.0
H667 H 0.7211 0.51957 0.81008 0.0
H668 H 0.67054 0.55756 0.74212 0.0
H669 H 0.69773 0.54875 0.78031 0.0
H670 H 0.78242 0.51895 0.73666 0.0
H671 H 0.75544 0.52981 0.69831 0.0
C672 C 0.80902 0.54695 0.80797 0.0
C673 C 0.79293 0.54352 0.83129 0.0
C674 C 0.79324 0.54217 0.78556 0.0
C675 C 0.76092 0.53327 0.78567 0.0
C676 C 0.74563 0.52733 0.80902 0.0
C677 C 0.76131 0.53267 0.83151 0.0
C678 C 0.69477 0.54849 0.74058 0.0
C679 C 0.71084 0.54475 0.71704 0.0
C680 C 0.71049 0.54323 0.76268 0.0
C681 C 0.74272 0.53355 0.76197 0.0
C682 C 0.75797 0.52731 0.73823 0.0
C683 C 0.74235 0.53313 0.7161 0.0
H684 H 0.95077 0.74877 0.34478 0.0
H685 H 0.97505 0.84046 0.3156 0.0
H686 H 0.96025 0.72363 0.30357 0.0
H687 H 0.98657 0.81508 0.27437 0.0
H688 H 0.94937 0.76977 0.20092 0.0
H689 H 0.95811 0.79547 0.24146 0.0
H690 H 0.98954 0.70522 0.26886 0.0
H691 H 0.9787 0.67924 0.22852 0.0
C692 C 0.95935 0.76343 0.32973 0.0
C693 C 0.96183 0.79671 0.33352 0.0
C694 C 0.96494 0.74893 0.30588 0.0
C695 C 0.97375 0.7672 0.28514 0.0
C696 C 0.9789 0.80018 0.28952 0.0
C697 C 0.97271 0.81477 0.31331 0.0
C698 C 0.95892 0.75554 0.21539 0.0
C699 C 0.96302 0.72237 0.2115 0.0
C700 C 0.96406 0.77036 0.23884 0.0
C701 C 0.97403 0.75251 0.25898 0.0
C702 C 0.98088 0.71976 0.25426 0.0
C703 C 0.9751 0.70483 0.23094 0.0
H704 H 0.41286 0.03159 0.19686 0.0
H705 H 0.48087 0.10821 0.20251 0.0
H706 H 0.45414 0.99315 0.20454 0.0
H707 H 0.52235 0.06963 0.21151 0.0
H708 H 0.59333 0.98717 0.18764 0.0
H709 H 0.55412 0.03024 0.19041 0.0
H710 H 0.48876 0.96993 0.23118 0.0
H711 H 0.52749 0.92634 0.22706 0.0
C712 C 0.43655 0.04036 0.20034 0.0
C713 C 0.44355 0.07303 0.19886 0.0
C714 C 0.46035 0.0182 0.20499 0.0
C715 C 0.49189 0.02802 0.20864 0.0
C716 C 0.49856 0.06098 0.20836 0.0
C717 C 0.4747 0.0832 0.20341 0.0
C718 C 0.57083 0.98335 0.19766 0.0
C719 C 0.56339 0.95322 0.20688 0.0
C720 C 0.54825 0.00817 0.19934 0.0
C721 C 0.5178 1.00361 0.21062 0.0
C722 C 0.51148 0.97417 0.22165 0.0
C723 C 0.53384 0.9492 0.21955 0.0
H724 H 0.58137 0.54202 0.72089 0.0
H725 H 0.51731 0.60288 0.68303 0.0
H726 H 0.5391 0.50309 0.72641 0.0
H727 H 0.4754 0.56325 0.6872 0.0
H728 H 0.39968 0.49034 0.7034 0.0
H729 H 0.43781 0.53352 0.70983 0.0
H730 H 0.5152 0.46491 0.70124 0.0
H731 H 0.4773 0.42216 0.69608 0.0
C732 C 0.55809 0.54722 0.71398 0.0
C733 C 0.55276 0.57546 0.70141 0.0
C734 C 0.53385 0.52471 0.71688 0.0
C735 C 0.50379 0.52944 0.70677 0.0
C736 C 0.498 0.55864 0.69545 0.0
C737 C 0.52212 0.58146 0.69298 0.0
C738 C 0.42483 0.48452 0.70339 0.0
C739 C 0.43536 0.45275 0.69918 0.0
C740 C 0.44679 0.50933 0.70685 0.0
C741 C 0.47984 0.503 0.70597 0.0
C742 C 0.49009 0.47099 0.70257 0.0
C743 C 0.46822 0.44629 0.69939 0.0
H744 H 0.01951 0.41154 0.20644 0.0
H745 H 0.08524 0.49038 0.20475 0.0
H746 H 0.97487 0.44934 0.21087 0.0
H747 H 0.04123 0.52782 0.20778 0.0
H748 H 0.96097 0.59444 0.2208 0.0
H749 H 0.99977 0.55346 0.22972 0.0
H750 H 0.94703 0.48398 0.1863 0.0
H751 H 0.90728 0.5247 0.17885 0.0
C752 C 0.02446 0.4369 0.20733 0.0
C753 C 0.05598 0.44787 0.20513 0.0
C754 C 0.99884 0.45865 0.2096 0.0
C755 C 0.00414 0.49188 0.20947 0.0
C756 C 0.03585 0.50262 0.20842 0.0
C757 C 0.06132 0.48098 0.20647 0.0
C758 C 0.95735 0.57021 0.21367 0.0
C759 C 0.93122 0.56284 0.19898 0.0
C760 C 0.97979 0.54669 0.21855 0.0
C761 C 0.97718 0.51532 0.20828 0.0
C762 C 0.94994 0.50764 0.19476 0.0
C763 C 0.9271 0.53107 0.19036 0.0
H764 H 0.99024 0.90455 0.67626 0.0
H765 H 0.92749 0.96425 0.7241 0.0
H766 H 0.03233 0.94398 0.68023 0.0
H767 H 0.96999 1.00293 0.72935 0.0
H768 H 0.03075 0.08465 0.70018 0.0
H769 H 0.99307 0.04176 0.70523 0.0
H770 H 0.0706 0.97315 0.70203 0.0
H771 H 0.10848 0.0165 0.69572 0.0
C772 C 0.98578 0.92565 0.68831 0.0
C773 C 0.95543 0.93143 0.69965 0.0
C774 C 0.01001 0.94834 0.69067 0.0
C775 C 0.00462 0.97718 0.70476 0.0
C776 C 0.9749 0.98161 0.71768 0.0
C777 C 0.95054 0.95924 0.71492 0.0
C778 C 0.03992 0.06049 0.70087 0.0
C779 C 0.07271 0.05409 0.69739 0.0
C780 C 0.01818 0.0357 0.70399 0.0
C781 C 0.02851 1.00365 0.70405 0.0
C782 C 0.06155 0.99737 0.70168 0.0
C783 C 0.08337 0.02228 0.69827 0.0
H784 H 0.59821 0.5214 0.37405 0.0
H785 H 0.5368 0.58765 0.33888 0.0
H786 H 0.55827 0.47986 0.36978 0.0
H787 H 0.4975 0.54574 0.33321 0.0
H788 H 0.41729 0.48291 0.36315 0.0
H789 H 0.45994 0.52091 0.35824 0.0
H790 H 0.52788 0.44318 0.34698 0.0
H791 H 0.48481 0.40489 0.35322 0.0
C792 C 0.57655 0.52681 0.36468 0.0
C793 C 0.57056 0.55793 0.35703 0.0
C794 C 0.55356 0.50288 0.36213 0.0
C795 C 0.52415 0.50933 0.35151 0.0
C796 C 0.51931 0.53994 0.3422 0.0
C797 C 0.54203 0.56399 0.34519 0.0
C798 C 0.44124 0.47379 0.35932 0.0
C799 C 0.44756 0.44076 0.35873 0.0
C800 C 0.46589 0.49573 0.35628 0.0
C801 C 0.4977 0.4854 0.35219 0.0
C802 C 0.50386 0.45221 0.35052 0.0
C803 C 0.47911 0.43017 0.35386 0.0
H804 H 0.04554 0.42112 0.83616 0.0
H805 H 0.09787 0.48917 0.88081 0.0
H806 H 0.00737 0.46264 0.82713 0.0
H807 H 0.0587 0.53042 0.87321 0.0
H808 H 0.98732 0.60385 0.85316 0.0
H809 H 0.03188 0.566 0.84875 0.0
H810 H 0.96523 0.48765 0.8488 0.0
H811 H 0.92127 0.52524 0.85186 0.0
C812 C 0.04904 0.44512 0.84383 0.0
C813 C 0.07456 0.45185 0.85932 0.0
C814 C 0.02694 0.46894 0.8389 0.0
C815 C 0.02927 0.49995 0.84989 0.0
C816 C 0.05602 0.50706 0.86418 0.0
C817 C 0.07854 0.48333 0.86865 0.0
C818 C 0.98229 0.57853 0.85161 0.0
C819 C 0.95069 0.56762 0.85297 0.0
C820 C 0.00787 0.55675 0.84934 0.0
C821 C 0.00245 0.52353 0.84865 0.0
C822 C 0.9707 0.51288 0.84883 0.0
C823 C 0.94526 0.53457 0.85078 0.0
H824 H 0.9017 0.99397 0.379 0.0
H825 H 0.9628 0.92813 0.3351 0.0
H826 H 0.94128 0.03572 0.37441 0.0
H827 H 0.00176 0.97029 0.32918 0.0
H828 H 0.08201 0.03405 0.35719 0.0
H829 H 0.0397 0.99555 0.35271 0.0
H830 H 0.97078 0.07257 0.35178 0.0
H831 H 0.01343 0.11126 0.35761 0.0
C832 C 0.92321 0.98869 0.36769 0.0
C833 C 0.92923 0.95763 0.35762 0.0
C834 C 0.946 0.01276 0.36495 0.0
C835 C 0.97523 0.00651 0.35173 0.0
C836 C 0.98009 0.97593 0.34014 0.0
C837 C 0.95756 0.95175 0.34329 0.0
C838 C 0.0579 0.04289 0.3557 0.0
C839 C 0.05116 0.07581 0.35794 0.0
C840 C 0.03346 0.02067 0.35292 0.0
C841 C 1.00147 0.03066 0.35193 0.0
C842 C 0.99493 0.06378 0.35295 0.0
C843 C 0.01945 0.08606 0.35606 0.0
H844 H 0.51826 0.90095 0.86025 0.0
H845 H 0.58698 0.97724 0.8608 0.0
H846 H 0.47642 0.93918 0.85124 0.0
H847 H 0.54547 0.01536 0.85307 0.0
H848 H 0.47164 0.08131 0.83077 0.0
H849 H 0.50958 0.03705 0.82665 0.0
H850 H 0.44597 0.98008 0.87193 0.0
H851 H 0.40742 0.0238 0.87472 0.0
C852 C 0.5245 0.92579 0.85821 0.0
C853 C 0.55597 0.936 0.86135 0.0
C854 C 0.50046 0.94782 0.85325 0.0
C855 C 0.50728 0.98061 0.85151 0.0
C856 C 0.53909 0.9904 0.85375 0.0
C857 C 0.56305 0.96843 0.85844 0.0
C858 C 0.46545 0.059 0.83926 0.0
C859 C 0.43664 0.05614 0.85322 0.0
C860 C 0.48737 0.03366 0.83717 0.0
C861 C 0.4814 1.00504 0.84949 0.0
C862 C 0.45154 1.00151 0.86202 0.0
C863 C 0.42934 0.02669 0.86369 0.0
loop_
_geom_bond_atom_site_label_1
_geom_bond_atom_site_label_2
_geom_bond_distance
_geom_bond_site_symmetry_2
_ccdc_geom_bond_type
O0 Cd1 2.223 . S
O0 C8 1.315 . S
Cd1 O0 2.223 . S
Cd1 O4 2.297 . S
Cd1 O5 2.439 . S
Cd1 O11 2.240 . S
Cd2 O3 2.240 . S
Cd2 O10 2.223 . S
Cd2 O12 2.297 . S
Cd2 O13 2.439 . S
O3 Cd2 2.240 . S
O3 C8 1.279 . S
O4 Cd1 2.297 . S
O4 C6 1.247 . S
O5 Cd1 2.439 . S
O5 C6 1.208 . S
C6 O4 1.247 . S
C6 O5 1.208 . S
C7 O12 1.247 . S
C7 O13 1.208 . S
C8 O0 1.315 . S
C8 O3 1.279 . S
C9 O10 1.315 . S
C9 O11 1.279 . S
O10 Cd2 2.223 . S
O10 C9 1.315 . S
O11 Cd1 2.240 . S
O11 C9 1.279 . S
O12 Cd2 2.297 . S
O12 C7 1.247 . S
O13 Cd2 2.439 . S
O13 C7 1.208 . S
O14 Cd15 2.223 . S
O14 C22 1.315 . S
Cd15 O14 2.223 . S
Cd15 O18 2.297 . S
Cd15 O19 2.439 . S
Cd15 O25 2.240 . S
Cd16 O17 2.240 . S
Cd16 O24 2.223 . S
Cd16 O26 2.297 . S
Cd16 O27 2.439 . S
O17 Cd16 2.240 . S
O17 C22 1.279 . S
O18 Cd15 2.297 . S
O18 C20 1.247 . S
O19 Cd15 2.439 . S
O19 C20 1.208 . S
C20 O18 1.247 . S
C20 O19 1.208 . S
C21 O26 1.247 . S
C21 O27 1.208 . S
C22 O14 1.315 . S
C22 O17 1.279 . S
C23 O24 1.315 . S
C23 O25 1.279 . S
O24 Cd16 2.223 . S
O24 C23 1.315 . S
O25 Cd15 2.240 . S
O25 C23 1.279 . S
O26 Cd16 2.297 . S
O26 C21 1.247 . S
O27 Cd16 2.439 . S
O27 C21 1.208 . S
O28 Cd29 2.223 . S
O28 C36 1.315 . S
Cd29 O28 2.223 . S
Cd29 O32 2.297 . S
Cd29 O33 2.439 . S
Cd29 O39 2.240 . S
Cd30 O31 2.240 . S
Cd30 O38 2.223 . S
Cd30 O40 2.297 . S
Cd30 O41 2.439 . S
O31 Cd30 2.240 . S
O31 C36 1.279 . S
O32 Cd29 2.297 . S
O32 C34 1.247 . S
O33 Cd29 2.439 . S
O33 C34 1.208 . S
C34 O32 1.247 . S
C34 O33 1.208 . S
C35 O40 1.247 . S
C35 O41 1.208 . S
C36 O28 1.315 . S
C36 O31 1.279 . S
C37 O38 1.315 . S
C37 O39 1.279 . S
O38 Cd30 2.223 . S
O38 C37 1.315 . S
O39 Cd29 2.240 . S
O39 C37 1.279 . S
O40 Cd30 2.297 . S
O40 C35 1.247 . S
O41 Cd30 2.439 . S
O41 C35 1.208 . S
O42 Cd43 2.223 . S
O42 C50 1.315 . S
Cd43 O42 2.223 . S
Cd43 O46 2.297 . S
Cd43 O47 2.439 . S
Cd43 O53 2.240 . S
Cd44 O45 2.240 . S
Cd44 O52 2.223 . S
Cd44 O54 2.297 . S
Cd44 O55 2.439 . S
O45 Cd44 2.240 . S
O45 C50 1.279 . S
O46 Cd43 2.297 . S
O46 C48 1.247 . S
O47 Cd43 2.439 . S
O47 C48 1.208 . S
C48 O46 1.247 . S
C48 O47 1.208 . S
C49 O54 1.247 . S
C49 O55 1.208 . S
C50 O42 1.315 . S
C50 O45 1.279 . S
C51 O52 1.315 . S
C51 O53 1.279 . S
O52 Cd44 2.223 . S
O52 C51 1.315 . S
O53 Cd43 2.240 . S
O53 C51 1.279 . S
O54 Cd44 2.297 . S
O54 C49 1.247 . S
O55 Cd44 2.439 . S
O55 C49 1.208 . S
O56 Cd57 2.223 . S
O56 C64 1.315 . S
Cd57 O56 2.223 . S
Cd57 O60 2.297 . S
Cd57 O61 2.439 . S
Cd57 O67 2.240 . S
Cd58 O59 2.240 . S
Cd58 O66 2.223 . S
Cd58 O68 2.297 . S
Cd58 O69 2.439 . S
O59 Cd58 2.240 . S
O59 C64 1.279 . S
O60 Cd57 2.297 . S
O60 C62 1.247 . S
O61 Cd57 2.439 . S
O61 C62 1.208 . S
C62 O60 1.247 . S
C62 O61 1.208 . S
C63 O68 1.247 . S
C63 O69 1.208 . S
C64 O56 1.315 . S
C64 O59 1.279 . S
C65 O66 1.315 . S
C65 O67 1.279 . S
O66 Cd58 2.223 . S
O66 C65 1.315 . S
O67 Cd57 2.240 . S
O67 C65 1.279 . S
O68 Cd58 2.297 . S
O68 C63 1.247 . S
O69 Cd58 2.439 . S
O69 C63 1.208 . S
O70 Cd71 2.223 . S
O70 C78 1.315 . S
Cd71 O70 2.223 . S
Cd71 O74 2.297 . S
Cd71 O75 2.439 . S
Cd71 O81 2.240 . S
Cd72 O73 2.240 . S
Cd72 O80 2.223 . S
Cd72 O82 2.297 . S
Cd72 O83 2.439 . S
O73 Cd72 2.240 . S
O73 C78 1.279 . S
O74 Cd71 2.297 . S
O74 C76 1.247 . S
O75 Cd71 2.439 . S
O75 C76 1.208 . S
C76 O74 1.247 . S
C76 O75 1.208 . S
C77 O82 1.247 . S
C77 O83 1.208 . S
C78 O70 1.315 . S
C78 O73 1.279 . S
C79 O80 1.315 . S
C79 O81 1.279 . S
O80 Cd72 2.223 . S
O80 C79 1.315 . S
O81 Cd71 2.240 . S
O81 C79 1.279 . S
O82 Cd72 2.297 . S
O82 C77 1.247 . S
O83 Cd72 2.439 . S
O83 C77 1.208 . S
O84 Cd85 2.223 . S
O84 C92 1.315 . S
Cd85 O84 2.223 . S
Cd85 O88 2.297 . S
Cd85 O89 2.439 . S
Cd85 O95 2.240 . S
Cd86 O87 2.240 . S
Cd86 O94 2.223 . S
Cd86 O96 2.297 . S
Cd86 O97 2.439 . S
O87 Cd86 2.240 . S
O87 C92 1.279 . S
O88 Cd85 2.297 . S
O88 C90 1.247 . S
O89 Cd85 2.439 . S
O89 C90 1.208 . S
C90 O88 1.247 . S
C90 O89 1.208 . S
C91 O96 1.247 . S
C91 O97 1.208 . S
C92 O84 1.315 . S
C92 O87 1.279 . S
C93 O94 1.315 . S
C93 O95 1.279 . S
O94 Cd86 2.223 . S
O94 C93 1.315 . S
O95 Cd85 2.240 . S
O95 C93 1.279 . S
O96 Cd86 2.297 . S
O96 C91 1.247 . S
O97 Cd86 2.439 . S
O97 C91 1.208 . S
O98 Cd99 2.223 . S
O98 C106 1.315 . S
Cd99 O98 2.223 . S
Cd99 O102 2.297 . S
Cd99 O103 2.439 . S
Cd99 O109 2.240 . S
Cd100 O101 2.240 . S
Cd100 O108 2.223 . S
Cd100 O110 2.297 . S
Cd100 O111 2.439 . S
O101 Cd100 2.240 . S
O101 C106 1.279 . S
O102 Cd99 2.297 . S
O102 C104 1.247 . S
O103 Cd99 2.439 . S
O103 C104 1.208 . S
C104 O102 1.247 . S
C104 O103 1.208 . S
C105 O110 1.247 . S
C105 O111 1.208 . S
C106 O98 1.315 . S
C106 O101 1.279 . S
C107 O108 1.315 . S
C107 O109 1.279 . S
O108 Cd100 2.223 . S
O108 C107 1.315 . S
O109 Cd99 2.240 . S
O109 C107 1.279 . S
O110 Cd100 2.297 . S
O110 C105 1.247 . S
O111 Cd100 2.439 . S
O111 C105 1.208 . S
O112 Cd113 2.223 . S
O112 C120 1.315 . S
Cd113 O112 2.223 . S
Cd113 O116 2.297 . S
Cd113 O117 2.439 . S
Cd113 O123 2.240 . S
Cd114 O115 2.240 . S
Cd114 O122 2.223 . S
Cd114 O124 2.297 . S
Cd114 O125 2.439 . S
O115 Cd114 2.240 . S
O115 C120 1.279 . S
O116 Cd113 2.297 . S
O116 C118 1.247 . S
O117 Cd113 2.439 . S
O117 C118 1.208 . S
C118 O116 1.247 . S
C118 O117 1.208 . S
C119 O124 1.247 . S
C119 O125 1.208 . S
C120 O112 1.315 . S
C120 O115 1.279 . S
C121 O122 1.315 . S
C121 O123 1.279 . S
O122 Cd114 2.223 . S
O122 C121 1.315 . S
O123 Cd113 2.240 . S
O123 C121 1.279 . S
O124 Cd114 2.297 . S
O124 C119 1.247 . S
O125 Cd114 2.439 . S
O125 C119 1.208 . S
O126 Cd127 2.223 . S
O126 C134 1.315 . S
Cd127 O126 2.223 . S
Cd127 O130 2.297 . S
Cd127 O131 2.439 . S
Cd127 O137 2.240 . S
Cd128 O129 2.240 . S
Cd128 O136 2.223 . S
Cd128 O138 2.297 . S
Cd128 O139 2.439 . S
O129 Cd128 2.240 . S
O129 C134 1.279 . S
O130 Cd127 2.297 . S
O130 C132 1.247 . S
O131 Cd127 2.439 . S
O131 C132 1.208 . S
C132 O130 1.247 . S
C132 O131 1.208 . S
C133 O138 1.247 . S
C133 O139 1.208 . S
C134 O126 1.315 . S
C134 O129 1.279 . S
C135 O136 1.315 . S
C135 O137 1.279 . S
O136 Cd128 2.223 . S
O136 C135 1.315 . S
O137 Cd127 2.240 . S
O137 C135 1.279 . S
O138 Cd128 2.297 . S
O138 C133 1.247 . S
O139 Cd128 2.439 . S
O139 C133 1.208 . S
O140 Cd141 2.223 . S
O140 C148 1.315 . S
Cd141 O140 2.223 . S
Cd141 O144 2.297 . S
Cd141 O145 2.439 . S
Cd141 O151 2.240 . S
Cd142 O143 2.240 . S
Cd142 O150 2.223 . S
Cd142 O152 2.297 . S
Cd142 O153 2.439 . S
O143 Cd142 2.240 . S
O143 C148 1.279 . S
O144 Cd141 2.297 . S
O144 C146 1.247 . S
O145 Cd141 2.439 . S
O145 C146 1.208 . S
C146 O144 1.247 . S
C146 O145 1.208 . S
C147 O152 1.247 . S
C147 O153 1.208 . S
C148 O140 1.315 . S
C148 O143 1.279 . S
C149 O150 1.315 . S
C149 O151 1.279 . S
O150 Cd142 2.223 . S
O150 C149 1.315 . S
O151 Cd141 2.240 . S
O151 C149 1.279 . S
O152 Cd142 2.297 . S
O152 C147 1.247 . S
O153 Cd142 2.439 . S
O153 C147 1.208 . S
O154 Cd155 2.223 . S
O154 C162 1.315 . S
Cd155 O154 2.223 . S
Cd155 O158 2.297 . S
Cd155 O159 2.439 . S
Cd155 O165 2.240 . S
Cd156 O157 2.240 . S
Cd156 O164 2.223 . S
Cd156 O166 2.297 . S
Cd156 O167 2.439 . S
O157 Cd156 2.240 . S
O157 C162 1.279 . S
O158 Cd155 2.297 . S
O158 C160 1.247 . S
O159 Cd155 2.439 . S
O159 C160 1.208 . S
C160 O158 1.247 . S
C160 O159 1.208 . S
C161 O166 1.247 . S
C161 O167 1.208 . S
C162 O154 1.315 . S
C162 O157 1.279 . S
C163 O164 1.315 . S
C163 O165 1.279 . S
O164 Cd156 2.223 . S
O164 C163 1.315 . S
O165 Cd155 2.240 . S
O165 C163 1.279 . S
O166 Cd156 2.297 . S
O166 C161 1.247 . S
O167 Cd156 2.439 . S
O167 C161 1.208 . S
O168 Cd169 2.223 . S
O168 C176 1.315 . S
Cd169 O168 2.223 . S
Cd169 O172 2.297 . S
Cd169 O173 2.439 . S
Cd169 O179 2.240 . S
Cd170 O171 2.240 . S
Cd170 O178 2.223 . S
Cd170 O180 2.297 . S
Cd170 O181 2.439 . S
O171 Cd170 2.240 . S
O171 C176 1.279 . S
O172 Cd169 2.297 . S
O172 C174 1.247 . S
O173 Cd169 2.439 . S
O173 C174 1.208 . S
C174 O172 1.247 . S
C174 O173 1.208 . S
C175 O180 1.247 . S
C175 O181 1.208 . S
C176 O168 1.315 . S
C176 O171 1.279 . S
C177 O178 1.315 . S
C177 O179 1.279 . S
O178 Cd170 2.223 . S
O178 C177 1.315 . S
O179 Cd169 2.240 . S
O179 C177 1.279 . S
O180 Cd170 2.297 . S
O180 C175 1.247 . S
O181 Cd170 2.439 . S
O181 C175 1.208 . S
O182 Cd183 2.223 . S
O182 C190 1.315 . S
Cd183 O182 2.223 . S
Cd183 O186 2.297 . S
Cd183 O187 2.439 . S
Cd183 O193 2.240 . S
Cd184 O185 2.240 . S
Cd184 O192 2.223 . S
Cd184 O194 2.297 . S
Cd184 O195 2.439 . S
O185 Cd184 2.240 . S
O185 C190 1.279 . S
O186 Cd183 2.297 . S
O186 C188 1.247 . S
O187 Cd183 2.439 . S
O187 C188 1.208 . S
C188 O186 1.247 . S
C188 O187 1.208 . S
C189 O194 1.247 . S
C189 O195 1.208 . S
C190 O182 1.315 . S
C190 O185 1.279 . S
C191 O192 1.315 . S
C191 O193 1.279 . S
O192 Cd184 2.223 . S
O192 C191 1.315 . S
O193 Cd183 2.240 . S
O193 C191 1.279 . S
O194 Cd184 2.297 . S
O194 C189 1.247 . S
O195 Cd184 2.439 . S
O195 C189 1.208 . S
O196 Cd197 2.223 . S
O196 C204 1.315 . S
Cd197 O196 2.223 . S
Cd197 O200 2.297 . S
Cd197 O201 2.439 . S
Cd197 O207 2.240 . S
Cd198 O199 2.240 . S
Cd198 O206 2.223 . S
Cd198 O208 2.297 . S
Cd198 O209 2.439 . S
O199 Cd198 2.240 . S
O199 C204 1.279 . S
O200 Cd197 2.297 . S
O200 C202 1.247 . S
O201 Cd197 2.439 . S
O201 C202 1.208 . S
C202 O200 1.247 . S
C202 O201 1.208 . S
C203 O208 1.247 . S
C203 O209 1.208 . S
C204 O196 1.315 . S
C204 O199 1.279 . S
C205 O206 1.315 . S
C205 O207 1.279 . S
O206 Cd198 2.223 . S
O206 C205 1.315 . S
O207 Cd197 2.240 . S
O207 C205 1.279 . S
O208 Cd198 2.297 . S
O208 C203 1.247 . S
O209 Cd198 2.439 . S
O209 C203 1.208 . S
O210 Cd211 2.223 . S
O210 C218 1.315 . S
Cd211 O210 2.223 . S
Cd211 O214 2.297 . S
Cd211 O215 2.439 . S
Cd211 O221 2.240 . S
Cd212 O213 2.240 . S
Cd212 O220 2.223 . S
Cd212 O222 2.297 . S
Cd212 O223 2.439 . S
O213 Cd212 2.240 . S
O213 C218 1.279 . S
O214 Cd211 2.297 . S
O214 C216 1.247 . S
O215 Cd211 2.439 . S
O215 C216 1.208 . S
C216 O214 1.247 . S
C216 O215 1.208 . S
C217 O222 1.247 . S
C217 O223 1.208 . S
C218 O210 1.315 . S
C218 O213 1.279 . S
C219 O220 1.315 . S
C219 O221 1.279 . S
O220 Cd212 2.223 . S
O220 C219 1.315 . S
O221 Cd211 2.240 . S
O221 C219 1.279 . S
O222 Cd212 2.297 . S
O222 C217 1.247 . S
O223 Cd212 2.439 . S
O223 C217 1.208 . S
H224 C232 0.950 . S
H225 C237 0.950 . S
H226 C234 0.950 . S
H227 C236 0.950 1_554 S
H228 C238 0.950 . S
H229 C240 0.950 . S
H230 C242 0.950 1_556 S
H231 C243 0.950 . S
C232 H224 0.950 . S
C232 C233 1.386 . S
C232 C234 1.391 . S
C233 C232 1.386 . S
C233 C237 1.393 . S
C234 H226 0.950 . S
C234 C232 1.391 . S
C234 C235 1.400 . S
C235 C234 1.400 . S
C235 C236 1.398 . S
C235 C241 1.491 1_556 S
C236 H227 0.950 1_556 S
C236 C235 1.398 . S
C236 C237 1.391 . S
C237 H225 0.950 . S
C237 C233 1.393 . S
C237 C236 1.391 . S
C238 H228 0.950 . S
C238 C239 1.386 . S
C238 C240 1.391 . S
C239 C238 1.386 . S
C239 C243 1.393 . S
C240 H229 0.950 . S
C240 C238 1.391 . S
C240 C241 1.400 . S
C241 C235 1.491 1_554 S
C241 C240 1.400 . S
C241 C242 1.398 . S
C242 H230 0.950 1_554 S
C242 C241 1.398 . S
C242 C243 1.391 . S
C243 H231 0.950 . S
C243 C239 1.393 . S
C243 C242 1.391 . S
H244 C252 0.950 . S
H245 C257 0.950 . S
H246 C254 0.950 . S
H247 C256 0.950 . S
H248 C258 0.950 . S
H249 C260 0.950 . S
H250 C262 0.950 . S
H251 C263 0.950 . S
C252 H244 0.950 . S
C252 C253 1.386 . S
C252 C254 1.391 . S
C253 C252 1.386 . S
C253 C257 1.393 . S
C254 H246 0.950 . S
C254 C252 1.391 . S
C254 C255 1.400 . S
C255 C254 1.400 . S
C255 C256 1.398 . S
C255 C261 1.491 . S
C256 H247 0.950 . S
C256 C255 1.398 . S
C256 C257 1.391 . S
C257 H245 0.950 . S
C257 C253 1.393 . S
C257 C256 1.391 . S
C258 H248 0.950 . S
C258 C259 1.386 . S
C258 C260 1.391 . S
C259 C258 1.386 . S
C259 C263 1.393 . S
C260 H249 0.950 . S
C260 C258 1.391 . S
C260 C261 1.400 . S
C261 C255 1.491 . S
C261 C260 1.400 . S
C261 C262 1.398 . S
C262 H250 0.950 . S
C262 C261 1.398 . S
C262 C263 1.391 . S
C263 H251 0.950 . S
C263 C259 1.393 . S
C263 C262 1.391 . S
H264 C272 0.950 . S
H265 C277 0.950 . S
H266 C274 0.950 . S
H267 C276 0.937 1_554 S
H268 C278 0.950 . S
H269 C280 0.950 . S
H270 C282 0.950 . S
H271 C283 0.950 . S
C272 H264 0.950 . S
C272 C273 1.386 . S
C272 C274 1.391 . S
C273 C272 1.386 . S
C273 C277 1.393 . S
C274 H266 0.950 . S
C274 C272 1.391 . S
C274 C275 1.400 . S
C275 C274 1.400 . S
C275 C276 1.398 . S
C275 C281 1.491 1_556 S
C276 H267 0.937 1_556 S
C276 C275 1.398 . S
C276 C277 1.391 . S
C277 H265 0.950 . S
C277 C273 1.393 . S
C277 C276 1.391 . S
C278 H268 0.950 . S
C278 C279 1.386 . S
C278 C280 1.391 . S
C279 C278 1.386 . S
C279 C283 1.393 . S
C280 H269 0.950 . S
C280 C278 1.391 . S
C280 C281 1.400 . S
C281 C275 1.491 1_554 S
C281 C280 1.400 . S
C281 C282 1.398 . S
C282 H270 0.950 . S
C282 C281 1.398 . S
C282 C283 1.391 . S
C283 H271 0.950 . S
C283 C279 1.393 . S
C283 C282 1.391 . S
H284 C292 0.950 . S
H285 C297 0.950 . S
H286 C294 0.950 . S
H287 C296 0.950 . S
H288 C298 0.950 . S
H289 C300 0.950 . S
H290 C302 0.950 . S
H291 C303 0.950 . S
C292 H284 0.950 . S
C292 C293 1.386 . S
C292 C294 1.391 . S
C293 C292 1.386 . S
C293 C297 1.393 . S
C294 H286 0.950 . S
C294 C292 1.391 . S
C294 C295 1.400 . S
C295 C294 1.400 . S
C295 C296 1.398 . S
C295 C301 1.491 . S
C296 H287 0.950 . S
C296 C295 1.398 . S
C296 C297 1.391 . S
C297 H285 0.950 . S
C297 C293 1.393 . S
C297 C296 1.391 . S
C298 H288 0.950 . S
C298 C299 1.386 . S
C298 C300 1.391 . S
C299 C298 1.386 . S
C299 C303 1.393 . S
C300 H289 0.950 . S
C300 C298 1.391 . S
C300 C301 1.400 . S
C301 C295 1.491 . S
C301 C300 1.400 . S
C301 C302 1.398 . S
C302 H290 0.950 . S
C302 C301 1.398 . S
C302 C303 1.391 . S
C303 H291 0.950 . S
C303 C299 1.393 . S
C303 C302 1.391 . S
H304 C312 0.950 . S
H305 C317 0.950 . S
H306 C314 0.950 . S
H307 C316 0.950 1_556 S
H308 C318 0.950 . S
H309 C320 0.950 . S
H310 C322 0.950 1_554 S
H311 C323 0.950 . S
C312 H304 0.950 . S
C312 C313 1.386 . S
C312 C314 1.391 . S
C313 C312 1.386 . S
C313 C317 1.393 . S
C314 H306 0.950 . S
C314 C312 1.391 . S
C314 C315 1.400 . S
C315 C314 1.400 . S
C315 C316 1.398 . S
C315 C321 1.491 1_554 S
C316 H307 0.950 1_554 S
C316 C315 1.398 . S
C316 C317 1.391 . S
C317 H305 0.950 . S
C317 C313 1.393 . S
C317 C316 1.391 . S
C318 H308 0.950 . S
C318 C319 1.386 . S
C318 C320 1.391 . S
C319 C318 1.386 . S
C319 C323 1.393 . S
C320 H309 0.950 . S
C320 C318 1.391 . S
C320 C321 1.400 . S
C321 C315 1.491 1_556 S
C321 C320 1.400 . S
C321 C322 1.398 . S
C322 H310 0.950 1_556 S
C322 C321 1.398 . S
C322 C323 1.391 . S
C323 H311 0.950 . S
C323 C319 1.393 . S
C323 C322 1.391 . S
H324 C332 0.950 . S
H325 C337 0.950 . S
H326 C334 0.950 . S
H327 C336 0.950 . S
H328 C338 0.950 . S
H329 C340 0.950 . S
H330 C342 0.950 . S
H331 C343 0.950 . S
C332 H324 0.950 . S
C332 C333 1.386 . S
C332 C334 1.391 . S
C333 C332 1.386 . S
C333 C337 1.393 . S
C334 H326 0.950 . S
C334 C332 1.391 . S
C334 C335 1.400 . S
C335 C334 1.400 . S
C335 C336 1.398 . S
C335 C341 1.491 . S
C336 H327 0.950 . S
C336 C335 1.398 . S
C336 C337 1.391 . S
C337 H325 0.950 . S
C337 C333 1.393 . S
C337 C336 1.391 . S
C338 H328 0.950 . S
C338 C339 1.386 . S
C338 C340 1.391 . S
C339 C338 1.386 . S
C339 C343 1.393 . S
C340 H329 0.950 . S
C340 C338 1.391 . S
C340 C341 1.400 . S
C341 C335 1.491 . S
C341 C340 1.400 . S
C341 C342 1.398 . S
C342 H330 0.950 . S
C342 C341 1.398 . S
C342 C343 1.391 . S
C343 H331 0.950 . S
C343 C339 1.393 . S
C343 C342 1.391 . S
H344 C352 0.950 . S
H345 C357 0.950 . S
H346 C354 0.950 . S
H347 C356 0.950 . S
H348 C358 0.950 . S
H349 C360 0.950 . S
H350 C362 0.950 . S
H351 C363 0.950 . S
C352 H344 0.950 . S
C352 C353 1.386 . S
C352 C354 1.391 . S
C353 C352 1.386 . S
C353 C357 1.393 . S
C354 H346 0.950 . S
C354 C352 1.391 . S
C354 C355 1.400 . S
C355 C354 1.400 . S
C355 C356 1.398 . S
C355 C361 1.491 1_556 S
C356 H347 0.950 . S
C356 C355 1.398 . S
C356 C357 1.391 . S
C357 H345 0.950 . S
C357 C353 1.393 . S
C357 C356 1.391 . S
C358 H348 0.950 . S
C358 C359 1.386 . S
C358 C360 1.391 . S
C359 C358 1.386 . S
C359 C363 1.393 . S
C360 H349 0.950 . S
C360 C358 1.391 . S
C360 C361 1.400 . S
C361 C355 1.491 1_554 S
C361 C360 1.400 . S
C361 C362 1.398 . S
C362 H350 0.950 . S
C362 C361 1.398 . S
C362 C363 1.391 . S
C363 H351 0.950 . S
C363 C359 1.393 . S
C363 C362 1.391 . S
H364 C372 0.950 . S
H365 C377 0.950 . S
H366 C374 0.950 . S
H367 C376 0.950 . S
H368 C378 0.950 . S
H369 C380 0.950 . S
H370 C382 0.950 . S
H371 C383 0.950 . S
C372 H364 0.950 . S
C372 C373 1.386 . S
C372 C374 1.391 . S
C373 C372 1.386 . S
C373 C377 1.393 . S
C374 H366 0.950 . S
C374 C372 1.391 . S
C374 C375 1.400 . S
C375 C374 1.400 . S
C375 C376 1.398 . S
C375 C381 1.491 . S
C376 H367 0.950 . S
C376 C375 1.398 . S
C376 C377 1.391 . S
C377 H365 0.950 . S
C377 C373 1.393 . S
C377 C376 1.391 . S
C378 H368 0.950 . S
C378 C379 1.386 . S
C378 C380 1.391 . S
C379 C378 1.386 . S
C379 C383 1.393 . S
C380 H369 0.950 . S
C380 C378 1.391 . S
C380 C381 1.400 . S
C381 C375 1.491 . S
C381 C380 1.400 . S
C381 C382 1.398 . S
C382 H370 0.950 . S
C382 C381 1.398 . S
C382 C383 1.391 . S
C383 H371 0.950 . S
C383 C379 1.393 . S
C383 C382 1.391 . S
H384 C392 0.950 . S
H385 C397 0.950 . S
H386 C394 0.950 . S
H387 C396 0.950 . S
H388 C398 0.950 . S
H389 C400 0.950 . S
H390 C402 0.950 . S
H391 C403 0.950 . S
C392 H384 0.950 . S
C392 C393 1.386 . S
C392 C394 1.391 . S
C393 C392 1.386 . S
C393 C397 1.393 . S
C394 H386 0.950 . S
C394 C392 1.391 . S
C394 C395 1.400 . S
C395 C394 1.400 . S
C395 C396 1.398 . S
C395 C401 1.491 . S
C396 H387 0.950 . S
C396 C395 1.398 . S
C396 C397 1.391 . S
C397 H385 0.950 . S
C397 C393 1.393 . S
C397 C396 1.391 . S
C398 H388 0.950 . S
C398 C399 1.386 . S
C398 C400 1.391 . S
C399 C398 1.386 . S
C399 C403 1.393 . S
C400 H389 0.950 . S
C400 C398 1.391 . S
C400 C401 1.400 . S
C401 C395 1.491 . S
C401 C400 1.400 . S
C401 C402 1.398 . S
C402 H390 0.950 . S
C402 C401 1.398 . S
C402 C403 1.391 . S
C403 H391 0.950 . S
C403 C399 1.393 . S
C403 C402 1.391 . S
H404 C412 0.950 . S
H405 C417 0.950 . S
H406 C414 0.950 . S
H407 C416 0.950 . S
H408 C418 0.950 . S
H409 C420 0.950 . S
H410 C422 0.950 . S
H411 C423 0.950 . S
C412 H404 0.950 . S
C412 C413 1.386 . S
C412 C414 1.391 . S
C413 C412 1.386 . S
C413 C417 1.393 . S
C414 H406 0.950 . S
C414 C412 1.391 . S
C414 C415 1.400 . S
C415 C414 1.400 . S
C415 C416 1.398 . S
C415 C421 1.491 . S
C416 H407 0.950 . S
C416 C415 1.398 . S
C416 C417 1.391 . S
C417 H405 0.950 . S
C417 C413 1.393 . S
C417 C416 1.391 . S
C418 H408 0.950 . S
C418 C419 1.386 . S
C418 C420 1.391 . S
C419 C418 1.386 . S
C419 C423 1.393 . S
C420 H409 0.950 . S
C420 C418 1.391 . S
C420 C421 1.400 . S
C421 C415 1.491 . S
C421 C420 1.400 . S
C421 C422 1.398 . S
C422 H410 0.950 . S
C422 C421 1.398 . S
C422 C423 1.391 . S
C423 H411 0.950 . S
C423 C419 1.393 . S
C423 C422 1.391 . S
H424 C432 0.950 . S
H425 C437 0.950 . S
H426 C434 0.950 . S
H427 C436 0.950 . S
H428 C438 0.950 . S
H429 C440 0.950 . S
H430 C442 0.950 . S
H431 C443 0.950 . S
C432 H424 0.950 . S
C432 C433 1.386 . S
C432 C434 1.391 . S
C433 C432 1.386 . S
C433 C437 1.393 . S
C434 H426 0.950 . S
C434 C432 1.391 . S
C434 C435 1.400 . S
C435 C434 1.400 . S
C435 C436 1.398 . S
C435 C441 1.491 . S
C436 H427 0.950 . S
C436 C435 1.398 . S
C436 C437 1.391 . S
C437 H425 0.950 . S
C437 C433 1.393 . S
C437 C436 1.391 . S
C438 H428 0.950 . S
C438 C439 1.386 . S
C438 C440 1.391 . S
C439 C438 1.386 . S
C439 C443 1.393 . S
C440 H429 0.950 . S
C440 C438 1.391 . S
C440 C441 1.400 . S
C441 C435 1.491 . S
C441 C440 1.400 . S
C441 C442 1.398 . S
C442 H430 0.950 . S
C442 C441 1.398 . S
C442 C443 1.391 . S
C443 H431 0.950 . S
C443 C439 1.393 . S
C443 C442 1.391 . S
H444 C452 0.950 . S
H445 C457 0.950 . S
H446 C454 0.950 . S
H447 C456 0.950 . S
H448 C458 0.950 . S
H449 C460 0.950 . S
H450 C462 0.950 . S
H451 C463 0.950 . S
C452 H444 0.950 . S
C452 C453 1.386 . S
C452 C454 1.391 . S
C453 C452 1.386 . S
C453 C457 1.393 . S
C454 H446 0.950 . S
C454 C452 1.391 . S
C454 C455 1.400 . S
C455 C454 1.400 . S
C455 C456 1.398 . S
C455 C461 1.491 . S
C456 H447 0.950 . S
C456 C455 1.398 . S
C456 C457 1.391 . S
C457 H445 0.950 . S
C457 C453 1.393 . S
C457 C456 1.391 . S
C458 H448 0.950 . S
C458 C459 1.386 . S
C458 C460 1.391 . S
C459 C458 1.386 . S
C459 C463 1.393 . S
C460 H449 0.950 . S
C460 C458 1.391 . S
C460 C461 1.400 . S
C461 C455 1.491 . S
C461 C460 1.400 . S
C461 C462 1.398 . S
C462 H450 0.950 . S
C462 C461 1.398 . S
C462 C463 1.391 . S
C463 H451 0.950 . S
C463 C459 1.393 . S
C463 C462 1.391 . S
H464 C472 0.950 . S
H465 C477 0.950 . S
H466 C474 0.950 . S
H467 C476 0.950 . S
H468 C478 0.950 . S
H469 C480 0.950 . S
H470 C482 0.950 . S
H471 C483 0.950 . S
C472 H464 0.950 . S
C472 C473 1.386 . S
C472 C474 1.391 . S
C473 C472 1.386 . S
C473 C477 1.393 . S
C474 H466 0.950 . S
C474 C472 1.391 . S
C474 C475 1.400 . S
C475 C474 1.400 . S
C475 C476 1.398 . S
C475 C481 1.491 . S
C476 H467 0.950 . S
C476 C475 1.398 . S
C476 C477 1.391 . S
C477 H465 0.950 . S
C477 C473 1.393 . S
C477 C476 1.391 . S
C478 H468 0.950 . S
C478 C479 1.386 . S
C478 C480 1.391 . S
C479 C478 1.386 . S
C479 C483 1.393 . S
C480 H469 0.950 . S
C480 C478 1.391 . S
C480 C481 1.400 . S
C481 C475 1.491 . S
C481 C480 1.400 . S
C481 C482 1.398 . S
C482 H470 0.950 . S
C482 C481 1.398 . S
C482 C483 1.391 . S
C483 H471 0.950 . S
C483 C479 1.393 . S
C483 C482 1.391 . S
H484 C492 0.950 . S
H485 C497 0.950 . S
H486 C494 0.950 . S
H487 C496 0.950 . S
H488 C498 0.950 . S
H489 C500 0.950 . S
H490 C502 0.950 . S
H491 C503 0.950 . S
C492 H484 0.950 . S
C492 C493 1.386 . S
C492 C494 1.391 . S
C493 C492 1.386 . S
C493 C497 1.393 . S
C494 H486 0.950 . S
C494 C492 1.391 . S
C494 C495 1.400 . S
C495 C494 1.400 . S
C495 C496 1.398 . S
C495 C501 1.491 . S
C496 H487 0.950 . S
C496 C495 1.398 . S
C496 C497 1.391 . S
C497 H485 0.950 . S
C497 C493 1.393 . S
C497 C496 1.391 . S
C498 H488 0.950 . S
C498 C499 1.386 . S
C498 C500 1.391 . S
C499 C498 1.386 . S
C499 C503 1.393 . S
C500 H489 0.950 . S
C500 C498 1.391 . S
C500 C501 1.400 . S
C501 C495 1.491 . S
C501 C500 1.400 . S
C501 C502 1.398 . S
C502 H490 0.950 . S
C502 C501 1.398 . S
C502 C503 1.391 . S
C503 H491 0.950 . S
C503 C499 1.393 . S
C503 C502 1.391 . S
H504 C512 0.950 . S
H505 C517 0.950 . S
H506 C514 0.950 . S
H507 C516 0.950 . S
H508 C518 0.950 . S
H509 C520 0.950 . S
H510 C522 0.950 . S
H511 C523 0.950 . S
C512 H504 0.950 . S
C512 C513 1.386 . S
C512 C514 1.391 . S
C513 C512 1.386 . S
C513 C517 1.393 . S
C514 H506 0.950 . S
C514 C512 1.391 . S
C514 C515 1.400 . S
C515 C514 1.400 . S
C515 C516 1.398 . S
C515 C521 1.491 . S
C516 H507 0.950 . S
C516 C515 1.398 . S
C516 C517 1.391 . S
C517 H505 0.950 . S
C517 C513 1.393 . S
C517 C516 1.391 . S
C518 H508 0.950 . S
C518 C519 1.386 . S
C518 C520 1.391 . S
C519 C518 1.386 . S
C519 C523 1.393 . S
C520 H509 0.950 . S
C520 C518 1.391 . S
C520 C521 1.400 . S
C521 C515 1.491 . S
C521 C520 1.400 . S
C521 C522 1.398 . S
C522 H510 0.950 . S
C522 C521 1.398 . S
C522 C523 1.391 . S
C523 H511 0.950 . S
C523 C519 1.393 . S
C523 C522 1.391 . S
H524 C532 0.950 . S
H525 C537 0.950 . S
H526 C534 0.950 . S
H527 C536 0.950 . S
H528 C538 0.950 . S
H529 C540 0.950 . S
H530 C542 0.950 . S
H531 C543 0.950 . S
C532 H524 0.950 . S
C532 C533 1.386 . S
C532 C534 1.391 . S
C533 C532 1.386 . S
C533 C537 1.393 . S
C534 H526 0.950 . S
C534 C532 1.391 . S
C534 C535 1.400 . S
C535 C534 1.400 . S
C535 C536 1.398 . S
C535 C541 1.491 . S
C536 H527 0.950 . S
C536 C535 1.398 . S
C536 C537 1.391 . S
C537 H525 0.950 . S
C537 C533 1.393 . S
C537 C536 1.391 . S
C538 H528 0.950 . S
C538 C539 1.386 . S
C538 C540 1.391 . S
C539 C538 1.386 . S
C539 C543 1.393 . S
C540 H529 0.950 . S
C540 C538 1.391 . S
C540 C541 1.400 . S
C541 C535 1.491 . S
C541 C540 1.400 . S
C541 C542 1.398 . S
C542 H530 0.950 . S
C542 C541 1.398 . S
C542 C543 1.391 . S
C543 H531 0.950 . S
C543 C539 1.393 . S
C543 C542 1.391 . S
H544 C552 0.950 . S
H545 C557 0.950 . S
H546 C554 0.950 . S
H547 C556 0.950 . S
H548 C558 0.950 . S
H549 C560 0.950 . S
H550 C562 0.950 . S
H551 C563 0.950 . S
C552 H544 0.950 . S
C552 C553 1.386 . S
C552 C554 1.391 . S
C553 C552 1.386 . S
C553 C557 1.393 . S
C554 H546 0.950 . S
C554 C552 1.391 . S
C554 C555 1.400 . S
C555 C554 1.400 . S
C555 C556 1.398 . S
C555 C561 1.491 . S
C556 H547 0.950 . S
C556 C555 1.398 . S
C556 C557 1.391 . S
C557 H545 0.950 . S
C557 C553 1.393 . S
C557 C556 1.391 . S
C558 H548 0.950 . S
C558 C559 1.386 . S
C558 C560 1.391 . S
C559 C558 1.386 . S
C559 C563 1.393 . S
C560 H549 0.950 . S
C560 C558 1.391 . S
C560 C561 1.400 . S
C561 C555 1.491 . S
C561 C560 1.400 . S
C561 C562 1.398 . S
C562 H550 0.950 . S
C562 C561 1.398 . S
C562 C563 1.391 . S
C563 H551 0.950 . S
C563 C559 1.393 . S
C563 C562 1.391 . S
H564 C572 0.950 . S
H565 C577 0.950 . S
H566 C574 0.950 . S
H567 C576 0.950 . S
H568 C578 0.950 . S
H569 C580 0.950 . S
H570 C582 0.950 . S
H571 C583 0.950 . S
C572 H564 0.950 . S
C572 C573 1.386 . S
C572 C574 1.391 . S
C573 C572 1.386 . S
C573 C577 1.393 . S
C574 H566 0.950 . S
C574 C572 1.391 . S
C574 C575 1.400 . S
C575 C574 1.400 . S
C575 C576 1.398 . S
C575 C581 1.491 . S
C576 H567 0.950 . S
C576 C575 1.398 . S
C576 C577 1.391 . S
C577 H565 0.950 . S
C577 C573 1.393 . S
C577 C576 1.391 . S
C578 H568 0.950 . S
C578 C579 1.386 . S
C578 C580 1.391 . S
C579 C578 1.386 . S
C579 C583 1.393 . S
C580 H569 0.950 . S
C580 C578 1.391 . S
C580 C581 1.400 . S
C581 C575 1.491 . S
C581 C580 1.400 . S
C581 C582 1.398 . S
C582 H570 0.950 . S
C582 C581 1.398 . S
C582 C583 1.391 . S
C583 H571 0.950 . S
C583 C579 1.393 . S
C583 C582 1.391 . S
H584 C592 0.950 . S
H585 C597 0.950 . S
H586 C594 0.950 . S
H587 C596 0.950 . S
H588 C598 0.950 . S
H589 C600 0.950 . S
H590 C602 0.950 . S
H591 C603 0.950 . S
C592 H584 0.950 . S
C592 C593 1.386 . S
C592 C594 1.391 . S
C593 C592 1.386 . S
C593 C597 1.393 . S
C594 H586 0.950 . S
C594 C592 1.391 . S
C594 C595 1.400 . S
C595 C594 1.400 . S
C595 C596 1.398 . S
C595 C601 1.491 . S
C596 H587 0.950 . S
C596 C595 1.398 . S
C596 C597 1.391 . S
C597 H585 0.950 . S
C597 C593 1.393 . S
C597 C596 1.391 . S
C598 H588 0.950 . S
C598 C599 1.386 . S
C598 C600 1.391 . S
C599 C598 1.386 . S
C599 C603 1.393 . S
C600 H589 0.950 . S
C600 C598 1.391 . S
C600 C601 1.400 . S
C601 C595 1.491 . S
C601 C600 1.400 . S
C601 C602 1.398 . S
C602 H590 0.950 . S
C602 C601 1.398 . S
C602 C603 1.391 . S
C603 H591 0.950 . S
C603 C599 1.393 . S
C603 C602 1.391 . S
H604 C612 0.950 . S
H605 C617 0.950 . S
H606 C614 0.950 . S
H607 C616 0.950 . S
H608 C618 0.950 . S
H609 C620 0.950 . S
H610 C622 0.950 . S
H611 C623 0.950 . S
C612 H604 0.950 . S
C612 C613 1.386 . S
C612 C614 1.391 . S
C613 C612 1.386 . S
C613 C617 1.393 . S
C614 H606 0.950 . S
C614 C612 1.391 . S
C614 C615 1.400 . S
C615 C614 1.400 . S
C615 C616 1.398 . S
C615 C621 1.491 . S
C616 H607 0.950 . S
C616 C615 1.398 . S
C616 C617 1.391 . S
C617 H605 0.950 . S
C617 C613 1.393 . S
C617 C616 1.391 . S
C618 H608 0.950 . S
C618 C619 1.386 . S
C618 C620 1.391 . S
C619 C618 1.386 . S
C619 C623 1.393 . S
C620 H609 0.950 . S
C620 C618 1.391 . S
C620 C621 1.400 . S
C621 C615 1.491 . S
C621 C620 1.400 . S
C621 C622 1.398 . S
C622 H610 0.950 . S
C622 C621 1.398 . S
C622 C623 1.391 . S
C623 H611 0.950 . S
C623 C619 1.393 . S
C623 C622 1.391 . S
H624 C632 0.950 . S
H625 C637 0.950 . S
H626 C634 0.950 . S
H627 C636 0.950 . S
H628 C638 0.950 . S
H629 C640 0.950 . S
H630 C642 0.950 . S
H631 C643 0.950 . S
C632 H624 0.950 . S
C632 C633 1.386 . S
C632 C634 1.391 . S
C633 C632 1.386 . S
C633 C637 1.393 . S
C634 H626 0.950 . S
C634 C632 1.391 . S
C634 C635 1.400 . S
C635 C634 1.400 . S
C635 C636 1.398 . S
C635 C641 1.491 . S
C636 H627 0.950 . S
C636 C635 1.398 . S
C636 C637 1.391 . S
C637 H625 0.950 . S
C637 C633 1.393 . S
C637 C636 1.391 . S
C638 H628 0.950 . S
C638 C639 1.386 . S
C638 C640 1.391 . S
C639 C638 1.386 . S
C639 C643 1.393 . S
C640 H629 0.950 . S
C640 C638 1.391 . S
C640 C641 1.400 . S
C641 C635 1.491 . S
C641 C640 1.400 . S
C641 C642 1.398 . S
C642 H630 0.950 . S
C642 C641 1.398 . S
C642 C643 1.391 . S
C643 H631 0.950 . S
C643 C639 1.393 . S
C643 C642 1.391 . S
H644 C652 0.950 . S
H645 C657 0.950 . S
H646 C654 0.950 . S
H647 C656 0.950 . S
H648 C658 0.950 . S
H649 C660 0.950 . S
H650 C662 0.950 . S
H651 C663 0.950 . S
C652 H644 0.950 . S
C652 C653 1.386 . S
C652 C654 1.391 . S
C653 C652 1.386 . S
C653 C657 1.393 . S
C654 H646 0.950 . S
C654 C652 1.391 . S
C654 C655 1.400 . S
C655 C654 1.400 . S
C655 C656 1.398 . S
C655 C661 1.491 . S
C656 H647 0.950 . S
C656 C655 1.398 . S
C656 C657 1.391 . S
C657 H645 0.950 . S
C657 C653 1.393 . S
C657 C656 1.391 . S
C658 H648 0.950 . S
C658 C659 1.386 . S
C658 C660 1.391 . S
C659 C658 1.386 . S
C659 C663 1.393 . S
C660 H649 0.950 . S
C660 C658 1.391 . S
C660 C661 1.400 . S
C661 C655 1.491 . S
C661 C660 1.400 . S
C661 C662 1.398 . S
C662 H650 0.950 . S
C662 C661 1.398 . S
C662 C663 1.391 . S
C663 H651 0.950 . S
C663 C659 1.393 . S
C663 C662 1.391 . S
H664 C672 0.950 . S
H665 C677 0.950 . S
H666 C674 0.950 . S
H667 C676 0.950 . S
H668 C678 0.950 . S
H669 C680 0.950 . S
H670 C682 0.950 . S
H671 C683 0.950 . S
C672 H664 0.950 . S
C672 C673 1.386 . S
C672 C674 1.391 . S
C673 C672 1.386 . S
C673 C677 1.393 . S
C674 H666 0.950 . S
C674 C672 1.391 . S
C674 C675 1.400 . S
C675 C674 1.400 . S
C675 C676 1.398 . S
C675 C681 1.491 . S
C676 H667 0.950 . S
C676 C675 1.398 . S
C676 C677 1.391 . S
C677 H665 0.950 . S
C677 C673 1.393 . S
C677 C676 1.391 . S
C678 H668 0.950 . S
C678 C679 1.386 . S
C678 C680 1.391 . S
C679 C678 1.386 . S
C679 C683 1.393 . S
C680 H669 0.950 . S
C680 C678 1.391 . S
C680 C681 1.400 . S
C681 C675 1.491 . S
C681 C680 1.400 . S
C681 C682 1.398 . S
C682 H670 0.950 . S
C682 C681 1.398 . S
C682 C683 1.391 . S
C683 H671 0.950 . S
C683 C679 1.393 . S
C683 C682 1.391 . S
H684 C692 0.950 . S
H685 C697 0.950 . S
H686 C694 0.950 . S
H687 C696 0.950 . S
H688 C698 0.950 . S
H689 C700 0.950 . S
H690 C702 0.950 . S
H691 C703 0.950 . S
C692 H684 0.950 . S
C692 C693 1.386 . S
C692 C694 1.391 . S
C693 C692 1.386 . S
C693 C697 1.393 . S
C694 H686 0.950 . S
C694 C692 1.391 . S
C694 C695 1.400 . S
C695 C694 1.400 . S
C695 C696 1.398 . S
C695 C701 1.491 . S
C696 H687 0.950 . S
C696 C695 1.398 . S
C696 C697 1.391 . S
C697 H685 0.950 . S
C697 C693 1.393 . S
C697 C696 1.391 . S
C698 H688 0.950 . S
C698 C699 1.386 . S
C698 C700 1.391 . S
C699 C698 1.386 . S
C699 C703 1.393 . S
C700 H689 0.950 . S
C700 C698 1.391 . S
C700 C701 1.400 . S
C701 C695 1.491 . S
C701 C700 1.400 . S
C701 C702 1.398 . S
C702 H690 0.950 . S
C702 C701 1.398 . S
C702 C703 1.391 . S
C703 H691 0.950 . S
C703 C699 1.393 . S
C703 C702 1.391 . S
H704 C712 0.950 . S
H705 C717 0.950 . S
H706 C714 0.950 . S
H707 C716 0.950 . S
H708 C718 0.950 . S
H709 C720 0.950 . S
H710 C722 0.950 . S
H711 C723 0.950 . S
C712 H704 0.950 . S
C712 C713 1.386 . S
C712 C714 1.391 1_545 S
C713 C712 1.386 . S
C713 C717 1.393 . S
C714 H706 0.950 . S
C714 C712 1.391 1_565 S
C714 C715 1.400 . S
C715 C714 1.400 . S
C715 C716 1.398 . S
C715 C721 1.491 . S
C716 H707 0.950 . S
C716 C715 1.398 . S
C716 C717 1.391 1_565 S
C717 H705 0.950 . S
C717 C713 1.393 . S
C717 C716 1.391 1_545 S
C718 H708 0.950 . S
C718 C719 1.386 . S
C718 C720 1.391 . S
C719 C718 1.386 . S
C719 C723 1.393 . S
C720 H709 0.950 . S
C720 C718 1.391 . S
C720 C721 1.400 . S
C721 C715 1.491 . S
C721 C720 1.400 . S
C721 C722 1.398 . S
C722 H710 0.950 . S
C722 C721 1.398 . S
C722 C723 1.391 . S
C723 H711 0.950 . S
C723 C719 1.393 . S
C723 C722 1.391 . S
H724 C732 0.950 . S
H725 C737 0.950 . S
H726 C734 0.950 . S
H727 C736 0.950 . S
H728 C738 0.950 . S
H729 C740 0.950 . S
H730 C742 0.950 . S
H731 C743 0.950 . S
C732 H724 0.950 . S
C732 C733 1.386 . S
C732 C734 1.391 . S
C733 C732 1.386 . S
C733 C737 1.393 . S
C734 H726 0.950 . S
C734 C732 1.391 . S
C734 C735 1.400 . S
C735 C734 1.400 . S
C735 C736 1.398 . S
C735 C741 1.491 . S
C736 H727 0.950 . S
C736 C735 1.398 . S
C736 C737 1.391 . S
C737 H725 0.950 . S
C737 C733 1.393 . S
C737 C736 1.391 . S
C738 H728 0.950 . S
C738 C739 1.386 . S
C738 C740 1.391 . S
C739 C738 1.386 . S
C739 C743 1.393 . S
C740 H729 0.950 . S
C740 C738 1.391 . S
C740 C741 1.400 . S
C741 C735 1.491 . S
C741 C740 1.400 . S
C741 C742 1.398 . S
C742 H730 0.950 . S
C742 C741 1.398 . S
C742 C743 1.391 . S
C743 H731 0.950 . S
C743 C739 1.393 . S
C743 C742 1.391 . S
H744 C752 0.950 . S
H745 C757 0.950 . S
H746 C754 0.950 . S
H747 C756 0.950 . S
H748 C758 0.950 . S
H749 C760 0.950 . S
H750 C762 0.950 . S
H751 C763 0.950 . S
C752 H744 0.950 . S
C752 C753 1.386 . S
C752 C754 1.391 . S
C753 C752 1.386 . S
C753 C757 1.393 . S
C754 H746 0.950 . S
C754 C752 1.391 . S
C754 C755 1.400 . S
C755 C754 1.400 . S
C755 C756 1.398 . S
C755 C761 1.491 . S
C756 H747 0.950 . S
C756 C755 1.398 . S
C756 C757 1.391 . S
C757 H745 0.950 . S
C757 C753 1.393 . S
C757 C756 1.391 . S
C758 H748 0.950 . S
C758 C759 1.386 . S
C758 C760 1.391 1_655 S
C759 C758 1.386 . S
C759 C763 1.393 . S
C760 H749 0.950 . S
C760 C758 1.391 1_455 S
C760 C761 1.400 . S
C761 C755 1.491 . S
C761 C760 1.400 . S
C761 C762 1.398 1_455 S
C762 H750 0.950 . S
C762 C761 1.398 1_655 S
C762 C763 1.391 . S
C763 H751 0.950 . S
C763 C759 1.393 . S
C763 C762 1.391 . S
H764 C772 0.950 . S
H765 C777 0.950 . S
H766 C774 0.950 . S
H767 C776 0.950 . S
H768 C778 0.950 . S
H769 C780 0.950 . S
H770 C782 0.950 . S
H771 C783 0.950 . S
C772 H764 0.950 . S
C772 C773 1.386 . S
C772 C774 1.391 1_655 S
C773 C772 1.386 . S
C773 C777 1.393 . S
C774 H766 0.950 . S
C774 C772 1.391 1_455 S
C774 C775 1.400 . S
C775 C774 1.400 . S
C775 C776 1.398 1_455 S
C775 C781 1.491 . S
C776 H767 0.950 . S
C776 C775 1.398 1_655 S
C776 C777 1.391 . S
C777 H765 0.950 . S
C777 C773 1.393 . S
C777 C776 1.391 . S
C778 H768 0.950 . S
C778 C779 1.386 . S
C778 C780 1.391 . S
C779 C778 1.386 . S
C779 C783 1.393 . S
C780 H769 0.950 . S
C780 C778 1.391 . S
C780 C781 1.400 1_545 S
C781 C775 1.491 . S
C781 C780 1.400 1_565 S
C781 C782 1.398 . S
C782 H770 0.950 . S
C782 C781 1.398 . S
C782 C783 1.391 1_565 S
C783 H771 0.950 . S
C783 C779 1.393 . S
C783 C782 1.391 1_545 S
H784 C792 0.950 . S
H785 C797 0.950 . S
H786 C794 0.950 . S
H787 C796 0.950 . S
H788 C798 0.950 . S
H789 C800 0.950 . S
H790 C802 0.950 . S
H791 C803 0.950 . S
C792 H784 0.950 . S
C792 C793 1.386 . S
C792 C794 1.391 . S
C793 C792 1.386 . S
C793 C797 1.393 . S
C794 H786 0.950 . S
C794 C792 1.391 . S
C794 C795 1.400 . S
C795 C794 1.400 . S
C795 C796 1.398 . S
C795 C801 1.491 . S
C796 H787 0.950 . S
C796 C795 1.398 . S
C796 C797 1.391 . S
C797 H785 0.950 . S
C797 C793 1.393 . S
C797 C796 1.391 . S
C798 H788 0.950 . S
C798 C799 1.386 . S
C798 C800 1.391 . S
C799 C798 1.386 . S
C799 C803 1.393 . S
C800 H789 0.950 . S
C800 C798 1.391 . S
C800 C801 1.400 . S
C801 C795 1.491 . S
C801 C800 1.400 . S
C801 C802 1.398 . S
C802 H790 0.950 . S
C802 C801 1.398 . S
C802 C803 1.391 . S
C803 H791 0.950 . S
C803 C799 1.393 . S
C803 C802 1.391 . S
H804 C812 0.944 1_655 S
H805 C817 0.950 . S
H806 C814 0.950 . S
H807 C816 0.950 . S
H808 C818 0.950 . S
H809 C820 0.950 . S
H810 C822 0.950 . S
H811 C823 0.950 . S
C812 H804 0.944 1_455 S
C812 C813 1.419 . S
C812 C814 1.364 1_455 S
C813 C812 1.419 . S
C813 C817 1.393 . S
C814 H806 0.950 . S
C814 C812 1.364 1_655 S
C814 C815 1.400 . S
C815 C814 1.400 . S
C815 C816 1.398 1_655 S
C815 C821 1.491 . S
C816 H807 0.950 . S
C816 C815 1.398 1_455 S
C816 C817 1.391 . S
C817 H805 0.950 . S
C817 C813 1.393 . S
C817 C816 1.391 . S
C818 H808 0.950 . S
C818 C819 1.386 . S
C818 C820 1.391 . S
C819 C818 1.386 . S
C819 C823 1.393 . S
C820 H809 0.950 . S
C820 C818 1.391 . S
C820 C821 1.400 . S
C821 C815 1.491 . S
C821 C820 1.400 . S
C821 C822 1.398 . S
C822 H810 0.950 . S
C822 C821 1.398 . S
C822 C823 1.391 . S
C823 H811 0.950 . S
C823 C819 1.393 . S
C823 C822 1.391 . S
H824 C832 0.950 . S
H825 C837 0.950 . S
H826 C834 0.950 . S
H827 C836 0.950 . S
H828 C838 0.950 . S
H829 C840 0.950 . S
H830 C842 0.950 . S
H831 C843 0.950 . S
C832 H824 0.950 . S
C832 C833 1.386 . S
C832 C834 1.391 1_565 S
C833 C832 1.386 . S
C833 C837 1.393 . S
C834 H826 0.950 . S
C834 C832 1.391 1_545 S
C834 C835 1.400 . S
C835 C834 1.400 . S
C835 C836 1.398 1_545 S
C835 C841 1.491 . S
C836 H827 0.950 . S
C836 C835 1.398 1_565 S
C836 C837 1.391 . S
C837 H825 0.950 . S
C837 C833 1.393 . S
C837 C836 1.391 . S
C838 H828 0.950 . S
C838 C839 1.386 . S
C838 C840 1.391 . S
C839 C838 1.386 . S
C839 C843 1.393 . S
C840 H829 0.950 . S
C840 C838 1.391 . S
C840 C841 1.400 1_455 S
C841 C835 1.491 . S
C841 C840 1.400 1_655 S
C841 C842 1.398 . S
C842 H830 0.950 . S
C842 C841 1.398 . S
C842 C843 1.391 1_655 S
C843 H831 0.950 . S
C843 C839 1.393 . S
C843 C842 1.391 1_455 S
H844 C852 0.950 . S
H845 C857 0.950 . S
H846 C854 0.950 . S
H847 C856 0.950 . S
H848 C858 0.950 . S
H849 C860 0.950 . S
H850 C862 0.950 . S
H851 C863 0.950 . S
C852 H844 0.950 . S
C852 C853 1.386 . S
C852 C854 1.391 . S
C853 C852 1.386 . S
C853 C857 1.393 . S
C854 H846 0.950 . S
C854 C852 1.391 . S
C854 C855 1.400 1_565 S
C855 C854 1.400 1_545 S
C855 C856 1.398 . S
C855 C861 1.491 . S
C856 H847 0.950 . S
C856 C855 1.398 . S
C856 C857 1.391 1_545 S
C857 H845 0.950 . S
C857 C853 1.393 . S
C857 C856 1.391 1_565 S
C858 H848 0.950 . S
C858 C859 1.386 . S
C858 C860 1.391 . S
C859 C858 1.386 . S
C859 C863 1.393 . S
C860 H849 0.950 . S
C860 C858 1.391 . S
C860 C861 1.400 . S
C861 C855 1.491 . S
C861 C860 1.400 . S
C861 C862 1.398 . S
C862 H850 0.950 . S
C862 C861 1.398 . S
C862 C863 1.391 . S
C863 H851 0.950 . S
C863 C859 1.393 . S
C863 C862 1.391 . S
C233 C106 1.449 . S
C239 C8 1.501 . S
C253 C64 2.065 . S
C259 C22 2.055 . S
C273 C78 1.460 . S
C279 C36 1.421 . S
C293 C50 1.095 . S
C299 C92 1.111 . S
C313 C218 1.458 . S
C319 C120 1.493 . S
C333 C176 2.075 . S
C339 C134 2.082 . S
C353 C148 1.413 . S
C359 C190 1.462 . S
C373 C162 1.099 . S
C379 C204 1.114 . S
C393 C37 1.158 . S
C399 C9 1.137 . S
C413 C23 1.168 . S
C419 C51 1.176 . S
C433 C65 1.181 . S
C439 C93 1.184 . S
C453 C107 1.158 . S
C459 C79 1.137 . S
C473 C121 1.151 . S
C479 C149 1.170 . S
C493 C135 1.213 . S
C499 C163 1.217 . S
C513 C205 1.218 . S
C519 C177 1.212 . S
C533 C191 1.169 . S
C539 C219 1.185 . S
C553 C91 1.493 . S
C559 C7 1.472 . S
C573 C21 2.174 . S
C579 C105 2.228 . S
C593 C35 2.228 . S
C599 C63 2.175 . S
C613 C49 1.497 . S
C619 C77 1.466 . S
C633 C119 1.463 . S
C639 C203 1.493 . S
C653 C133 2.187 . S
C659 C217 2.220 . S
C673 C147 2.230 . S
C679 C175 2.184 . S
C693 C161 1.494 . S
C699 C189 1.476 . S
C713 C6 1.449 . S
C719 C216 1.430 . S
C733 C174 1.458 . S
C739 C20 1.448 . S
C753 C34 1.443 . S
C759 C188 1.441 . S
C773 C202 1.370 . S
C779 C48 1.381 . S
C793 C132 1.457 . S
C799 C62 1.449 . S
C813 C76 1.443 . S
C819 C146 1.439 . S
C833 C160 1.376 . S
C839 C90 1.375 . S
C853 C118 1.449 . S
C859 C104 1.430 . S
