# Generated by pormake.
# Topology hcp, (12)-cn, num edge types: 1
# Building blocks:
#     Node 0, Type 0, BuildingBlock: BOTCEU_clean_sbu_0, # of connection points: 12
#     Node 1, Type 0, BuildingBlock: BOTCEU_clean_sbu_0, # of connection points: 12
#     Edge 2, Type (0, 0), BuildingBlock: AJUNOK_clean_linker_0, # of connection points: 2
#     Edge 3, Type (0, 0), BuildingBlock: AJUNOK_clean_linker_0, # of connection points: 2
#     Edge 4, Type (0, 0), BuildingBlock: AJUNOK_clean_linker_0, # of connection points: 2
#     Edge 5, Type (0, 0), BuildingBlock: AJUNOK_clean_linker_0, # of connection points: 2
#     Edge 6, Type (0, 0), BuildingBlock: AJUNOK_clean_linker_0, # of connection points: 2
#     Edge 7, Type (0, 0), BuildingBlock: AJUNOK_clean_linker_0, # of connection points: 2
#     Edge 8, Type (0, 0), BuildingBlock: AJUNOK_clean_linker_0, # of connection points: 2
#     Edge 9, Type (0, 0), BuildingBlock: AJUNOK_clean_linker_0, # of connection points: 2
#     Edge 10, Type (0, 0), BuildingBlock: AJUNOK_clean_linker_0, # of connection points: 2
#     Edge 11, Type (0, 0), BuildingBlock: AJUNOK_clean_linker_0, # of connection points: 2
#     Edge 12, Type (0, 0), BuildingBlock: AJUNOK_clean_linker_0, # of connection points: 2
#     Edge 13, Type (0, 0), BuildingBlock: AJUNOK_clean_linker_0, # of connection points: 2
# Relax obj value: 0.170
# Max RMSD: 0.247
# Mean RMSD: 0.247
data_MOF--net-hcp--node1-BOTCEU_clean_sbu_0--edge1-AJUNOK_clean_linker_0
_symmetry_space_group_name_H-M    P1
_symmetry_Int_Tables_number       1
_symmetry_cell_setting            triclinic
loop_
_symmetry_equiv_pos_as_xyz
'x, y, z'
_cell_length_a     22.870629
_cell_length_b     17.833374
_cell_length_c     36.502905
_cell_angle_alpha  99.910285
_cell_angle_beta   87.319495
_cell_angle_gamma 124.09535
loop_
_atom_site_label
_atom_site_type_symbol
_atom_site_fract_x
_atom_site_fract_y
_atom_site_fract_z
_atom_type_partial_charge
C0 C 0.31068 1.00438 0.25256 0.0
C1 C 0.30512 0.92741 0.26061 0.0
C2 C 0.35001 0.96103 0.29248 0.0
N3 N 0.35314 0.07644 0.27913 0.0
N4 N 0.37571 0.05067 0.30395 0.0
C5 C 0.26688 1.00553 0.22375 0.0
H6 H 0.29199 0.0762 0.218 0.0
H7 H 0.21358 0.98088 0.23394 0.0
H8 H 0.2602 0.95838 0.19765 0.0
C9 C 0.37276 0.9091 0.30847 0.0
H10 H 0.41613 0.95543 0.33029 0.0
H11 H 0.39224 0.87959 0.28592 0.0
H12 H 0.32684 0.84999 0.3192 0.0
C13 C 0.91303 0.41279 0.10158 0.0
C14 C 0.83743 0.42573 0.07248 0.0
C15 C 0.90057 0.43168 0.06849 0.0
N16 N 0.85932 0.39576 0.12332 0.0
N17 N 0.8151 0.40544 0.10627 0.0
H18 H 0.97989 0.36373 0.09307 0.0
H19 H 0.02516 0.4839 0.11154 0.0
H20 H 0.97259 0.40085 0.14158 0.0
C21 C 0.97624 0.41542 0.11291 0.0
H22 H 0.80223 0.41439 0.01697 0.0
H23 H 0.83151 0.52099 0.04741 0.0
H24 H 0.74673 0.41823 0.05332 0.0
C25 C 0.80195 0.44548 0.04596 0.0
C26 C 0.32188 0.19701 0.36533 0.0
C27 C 0.48763 0.24103 0.24273 0.0
C28 C 0.68728 0.06859 0.3576 0.0
N29 N 0.72388 0.15826 0.35327 0.0
N30 N 0.74253 0.16188 0.31855 0.0
C31 C 0.67769 1.01358 0.32297 0.0
C32 C 0.71507 0.07657 0.29923 0.0
H33 H 0.70489 0.09657 0.41748 0.0
H34 H 0.70104 0.99614 0.39374 0.0
H35 H 0.62105 0.99131 0.39858 0.0
C36 C 0.67823 0.03724 0.39419 0.0
H37 H 0.74542 0.11437 0.24525 0.0
H38 H 0.68467 0.99143 0.24491 0.0
H39 H 0.77629 0.05023 0.25988 0.0
C40 C 0.73093 0.057 0.25988 0.0
C41 C 0.27646 0.28678 0.24733 0.0
C42 C 0.23709 0.17228 0.27808 0.0
N43 N 0.32948 0.27846 0.25411 0.0
N44 N 0.3061 0.21043 0.27291 0.0
C45 C 0.21662 0.21981 0.26228 0.0
H46 H 0.24398 0.32327 0.20334 0.0
H47 H 0.27057 0.40192 0.24666 0.0
H48 H 0.33734 0.40089 0.21814 0.0
C49 C 0.28308 0.35774 0.2276 0.0
C50 C 0.19132 0.09215 0.29736 0.0
H51 H 0.14015 0.0426 0.28097 0.0
H52 H 0.17949 0.11643 0.32496 0.0
H53 H 0.21779 0.05722 0.30094 0.0
C54 C 0.90246 0.43984 0.36822 0.0
C55 C 0.68803 0.32415 0.34802 0.0
C56 C 0.63847 0.21166 0.08864 0.0
N57 N 0.65515 0.2888 0.11198 0.0
C58 C 0.56893 0.16629 0.07483 0.0
N59 N 0.60059 0.29529 0.11385 0.0
C60 C 0.54668 0.22212 0.09141 0.0
H61 H 0.72984 0.21234 0.10039 0.0
H62 H 0.7177 0.2194 0.05306 0.0
H63 H 0.66204 0.11097 0.06881 0.0
C64 C 0.68989 0.18663 0.07721 0.0
H65 H 0.47315 0.26109 0.1015 0.0
C66 C 0.48077 0.21418 0.08101 0.0
H67 H 0.48526 0.23295 0.05307 0.0
H68 H 0.43423 0.14232 0.07946 0.0
C69 C 0.78014 0.36081 0.48906 0.0
C70 C 0.83153 0.30468 0.45332 0.0
N71 N 0.74271 0.31961 0.4559 0.0
N72 N 0.77459 0.28608 0.43467 0.0
C73 C 0.83944 0.3566 0.48788 0.0
H74 H 0.77419 0.39437 0.54751 0.0
C75 C 0.76285 0.40781 0.52102 0.0
H76 H 0.70612 0.38144 0.51835 0.0
H77 H 0.79709 0.48313 0.522 0.0
H78 H 0.90421 0.26492 0.4531 0.0
H79 H 0.93376 0.36173 0.43108 0.0
C80 C 0.88679 0.29366 0.43493 0.0
H81 H 0.86566 0.24728 0.40753 0.0
C82 C 0.76344 0.56866 0.12341 0.0
C83 C 0.70596 0.31932 0.20062 0.0
C84 C 0.00076 0.50932 0.24729 0.0
N85 N 0.93657 0.4443 0.23074 0.0
C86 C 0.03044 0.58409 0.229 0.0
C87 C 0.97974 0.55826 0.20111 0.0
N88 N 0.92357 0.47305 0.2034 0.0
C89 C 0.03575 0.49501 0.27646 0.0
H90 H -0.00442 0.44551 0.29334 0.0
H91 H 0.06467 0.46582 0.26252 0.0
H92 H 0.07454 0.56057 0.29483 0.0
C93 C 0.98557 0.61267 0.17257 0.0
H94 H 0.93279 0.58358 0.15915 0.0
H95 H 0.00972 0.68561 0.18575 0.0
H96 H 0.02078 0.61108 0.15097 0.0
C97 C 0.3933 0.03344 0.41558 0.0
C98 C 0.4291 0.06818 0.45142 0.0
C99 C 0.45982 0.16112 0.45487 0.0
N100 N 0.4085 0.10497 0.39874 0.0
N101 N 0.45284 0.18052 0.42221 0.0
H102 H 0.31458 0.89167 0.41759 0.0
H103 H 0.38512 0.91168 0.38843 0.0
H104 H 0.31663 0.92579 0.37391 0.0
C105 C 0.34994 0.93488 0.39754 0.0
C106 C 0.50531 0.23362 0.48726 0.0
H107 H 0.49534 0.28811 0.49005 0.0
H108 H 0.49319 0.20513 0.51344 0.0
H109 H 0.56196 0.26474 0.48229 0.0
C110 C 0.82855 0.20465 0.16265 0.0
C111 C 0.80448 0.40407 0.28297 0.0
C112 C 0.55076 0.59582 0.22676 0.0
C113 C 0.53887 0.62155 0.26323 0.0
C114 C 0.49124 0.53703 0.27508 0.0
N115 N 0.51307 0.50348 0.21831 0.0
N116 N 0.47744 0.46755 0.24708 0.0
C117 C 0.59729 0.65798 0.20033 0.0
H118 H 0.57958 0.62192 0.17111 0.0
H119 H 0.59714 0.72103 0.20471 0.0
H120 H 0.65231 0.67872 0.20535 0.0
C121 C 0.46243 0.52253 0.31269 0.0
H122 H 0.4535 0.45848 0.31931 0.0
H123 H 0.49878 0.5823 0.3344 0.0
H124 H 0.41063 0.51434 0.31241 0.0
C125 C 0.92352 0.21726 0.29827 0.0
C126 C 0.96568 0.21739 0.26949 0.0
C127 C 0.95249 0.25208 0.24207 0.0
N128 N 0.88732 0.24936 0.28769 0.0
N129 N 0.90443 0.26942 0.25416 0.0
C130 C 0.91953 0.19062 0.33538 0.0
H131 H 0.95508 0.2535 0.35605 0.0
H132 H 0.93642 0.14283 0.33421 0.0
H133 H 0.86479 0.15828 0.34464 0.0
C134 C 0.99146 0.27998 0.20756 0.0
H135 H 0.04847 0.30966 0.21286 0.0
H136 H 0.9696 0.2184 0.18533 0.0
H137 H 0.98513 0.33064 0.19768 0.0
C138 C 0.36502 0.26245 0.16197 0.0
C139 C 0.63961 0.47302 0.21485 0.0
C140 C 0.54714 0.40991 0.43514 0.0
N141 N 0.58239 0.37192 0.42307 0.0
N142 N 0.64 0.40619 0.44435 0.0
C143 C 0.57854 0.46855 0.4684 0.0
C144 C 0.63902 0.4664 0.47317 0.0
H145 H 0.4354 0.34303 0.44043 0.0
H146 H 0.47371 0.42828 0.41052 0.0
H147 H 0.46217 0.31992 0.39471 0.0
C148 C 0.47507 0.3728 0.41934 0.0
H149 H 0.74594 0.53916 0.49481 0.0
H150 H 0.69808 0.58876 0.51416 0.0
H151 H 0.67914 0.48654 0.5282 0.0
C152 C 0.69415 0.5235 0.50436 0.0
C153 C 0.57708 0.46298 0.07791 0.0
N154 N 0.57401 0.44579 0.11247 0.0
N155 N 0.52403 0.45035 0.13001 0.0
C156 C 0.52717 0.48181 0.07299 0.0
C157 C 0.4936 0.47196 0.10668 0.0
C158 C 0.62079 0.45051 0.04891 0.0
H159 H 0.66871 0.51862 0.04601 0.0
H160 H 0.59052 0.41791 0.02149 0.0
H161 H 0.63728 0.40759 0.05706 0.0
C162 C 0.43402 0.48236 0.11618 0.0
H163 H 0.44207 0.54149 0.10507 0.0
H164 H 0.38395 0.41934 0.10289 0.0
H165 H 0.42955 0.49189 0.14681 0.0
C166 C 0.58593 0.13434 0.39753 0.0
C167 C 0.54081 0.30534 0.33228 0.0
Cu168 Cu 0.37215 0.19363 0.29034 0.0
Cu169 Cu 0.41538 0.13577 0.34936 0.0
Cu170 Cu 0.76773 0.27743 0.38358 0.0
Cu171 Cu 0.82324 0.27211 0.3102 0.0
Cu172 Cu 0.74015 0.39263 0.13297 0.0
Cu173 Cu 0.6211 0.41017 0.13648 0.0
Cu174 Cu 0.86817 0.32528 0.23568 0.0
Cu175 Cu 0.84402 0.38199 0.17267 0.0
Cu176 Cu 0.51075 0.42089 0.17843 0.0
Cu177 Cu 0.4218 0.33652 0.23933 0.0
Cu178 Cu 0.53581 0.25157 0.40077 0.0
Cu179 Cu 0.6796 0.33203 0.42918 0.0
H180 H 0.33799 0.21775 0.39543 0.0
H181 H 0.27761 0.1234 0.36029 0.0
H182 H 0.30499 0.23974 0.35743 0.0
H183 H 0.4842 0.1868 0.25556 0.0
H184 H 0.54394 0.29532 0.24045 0.0
H185 H 0.46036 0.20972 0.21458 0.0
H186 H 0.92806 0.46628 0.34264 0.0
H187 H 0.94382 0.45865 0.3894 0.0
H188 H 0.87326 0.47103 0.37918 0.0
H189 H 0.70811 0.29505 0.32597 0.0
H190 H 0.69636 0.38828 0.34206 0.0
H191 H 0.63215 0.27027 0.34906 0.0
H192 H 0.7466 0.61523 0.13451 0.0
H193 H 0.75606 0.55283 0.09268 0.0
H194 H 0.8201 0.60289 0.13177 0.0
H195 H 0.65906 0.26999 0.18119 0.0
H196 H 0.69146 0.35481 0.22324 0.0
H197 H 0.72231 0.28044 0.21262 0.0
H198 H 0.78229 0.16251 0.14223 0.0
H199 H 0.87778 0.23989 0.1477 0.0
H200 H 0.83007 0.15911 0.17924 0.0
H201 H 0.83716 0.45418 0.26447 0.0
H202 H 0.74936 0.38376 0.27956 0.0
H203 H 0.82468 0.43727 0.31214 0.0
H204 H 0.31909 0.20895 0.1751 0.0
H205 H 0.35471 0.31343 0.15651 0.0
H206 H 0.37276 0.22927 0.13539 0.0
H207 H 0.65354 0.5432 0.21447 0.0
H208 H 0.61846 0.4533 0.24205 0.0
H209 H 0.68817 0.47381 0.21083 0.0
H210 H 0.60305 0.13865 0.36873 0.0
H211 H 0.61717 0.12236 0.41466 0.0
H212 H 0.52966 0.07652 0.39658 0.0
H213 H 0.58223 0.36725 0.35131 0.0
H214 H 0.56539 0.2989 0.30619 0.0
H215 H 0.49877 0.31595 0.32794 0.0
O216 O 0.37737 0.20853 0.34488 0.0
O217 O 0.4556 0.27772 0.26423 0.0
O218 O 0.85636 0.34601 0.36016 0.0
O219 O 0.72193 0.34132 0.38111 0.0
O220 O 0.72377 0.48914 0.13773 0.0
O221 O 0.76016 0.38235 0.18194 0.0
O222 O 0.82239 0.26858 0.18592 0.0
O223 O 0.80691 0.32787 0.27373 0.0
O224 O 0.42436 0.30575 0.18543 0.0
O225 O 0.5899 0.4124 0.18645 0.0
O226 O 0.59379 0.21441 0.41404 0.0
O227 O 0.51491 0.22897 0.3483 0.0
C228 C 0.00132 0.54272 0.77375 0.0
C229 C 0.97223 0.46367 0.78912 0.0
C230 C 0.02165 0.48651 0.81728 0.0
N231 N 0.06368 0.60744 0.7923 0.0
N232 N 0.07624 0.57447 0.81809 0.0
C233 C 0.96645 0.55979 0.74557 0.0
H234 H 0.00624 0.61868 0.73239 0.0
H235 H 0.92979 0.57588 0.75976 0.0
H236 H 0.93514 0.49817 0.7237 0.0
C237 C 0.01617 0.42701 0.84333 0.0
H238 H 0.06962 0.45083 0.85401 0.0
H239 H 0.98734 0.35409 0.82917 0.0
H240 H 0.98611 0.43149 0.86729 0.0
C241 C 0.58294 0.98742 0.58587 0.0
C242 C 0.51485 0.8508 0.55237 0.0
C243 C 0.54097 0.94133 0.5517 0.0
N244 N 0.57637 0.92455 0.60579 0.0
N245 N 0.53028 0.84336 0.58592 0.0
H246 H 0.64223 0.12722 0.57682 0.0
H247 H 0.58483 0.10346 0.61445 0.0
H248 H 0.66666 0.10962 0.61907 0.0
C249 C 0.62163 0.08803 0.60004 0.0
H250 H 0.49124 0.72574 0.51904 0.0
H251 H 0.46978 0.78954 0.4956 0.0
H252 H 0.41517 0.72647 0.53129 0.0
C253 C 0.46999 0.76898 0.5226 0.0
C254 C 0.15013 0.83 0.86909 0.0
C255 C 0.21075 0.66936 0.75062 0.0
C256 C 0.43419 0.44847 0.77964 0.0
N257 N 0.4737 0.54084 0.78849 0.0
N258 N 0.51034 0.57669 0.75993 0.0
C259 C 0.4464 0.42255 0.74327 0.0
C260 C 0.49584 0.50701 0.73181 0.0
H261 H 0.40407 0.42144 0.83511 0.0
H262 H 0.38532 0.32223 0.80125 0.0
H263 H 0.3321 0.36745 0.8006 0.0
C264 C 0.38656 0.38629 0.80579 0.0
H265 H 0.53689 0.58525 0.68754 0.0
H266 H 0.49201 0.46142 0.67277 0.0
H267 H 0.5789 0.52956 0.69632 0.0
C268 C 0.52719 0.52128 0.69474 0.0
C269 C 0.07496 0.83282 0.72703 0.0
C270 C 0.04254 0.79836 0.78303 0.0
N271 N 0.11204 0.80411 0.73949 0.0
N272 N 0.09336 0.78471 0.77298 0.0
C273 C 0.02988 0.83044 0.75432 0.0
H274 H 0.04152 0.79189 0.6694 0.0
H275 H 0.06482 0.90571 0.68922 0.0
H276 H 0.13324 0.88392 0.67927 0.0
C277 C 0.07924 0.85569 0.68907 0.0
C278 C -0.00062 0.76654 0.816 0.0
H279 H 0.94288 0.7368 0.80898 0.0
H280 H 0.01884 0.82627 0.83894 0.0
H281 H 0.00437 0.71463 0.82573 0.0
C282 C 0.6312 0.77789 0.84641 0.0
C283 C 0.35977 0.59482 0.79729 0.0
C284 C 0.43648 0.61412 0.58705 0.0
N285 N 0.40505 0.65769 0.59785 0.0
C286 C 0.39288 0.53729 0.56139 0.0
N287 N 0.33991 0.61276 0.58327 0.0
C288 C 0.33084 0.53745 0.55962 0.0
H289 H 0.54204 0.67144 0.56911 0.0
H290 H 0.52135 0.61158 0.60789 0.0
H291 H 0.53391 0.72183 0.61458 0.0
C292 C 0.51327 0.6574 0.59507 0.0
H293 H 0.21921 0.46226 0.54771 0.0
C294 C 0.26591 0.46613 0.53551 0.0
H295 H 0.27242 0.48304 0.50713 0.0
H296 H 0.25821 0.39813 0.53288 0.0
C297 C 0.41935 0.56684 0.93015 0.0
C298 C 0.50328 0.56395 0.89896 0.0
N299 N 0.42098 0.58811 0.89655 0.0
N300 N 0.47121 0.58733 0.87758 0.0
C301 C 0.4708 0.5497 0.93303 0.0
H302 H 0.33084 0.50421 0.96385 0.0
C303 C 0.37555 0.57423 0.96045 0.0
H304 H 0.35422 0.61285 0.95344 0.0
H305 H 0.40766 0.60911 0.98731 0.0
H306 H 0.56131 0.50239 0.90007 0.0
H307 H 0.61384 0.62236 0.89655 0.0
C308 C 0.56309 0.55558 0.88716 0.0
H309 H 0.56107 0.53862 0.85631 0.0
C310 C 0.40358 0.89426 0.619 0.0
C311 C 0.46024 0.74586 0.68253 0.0
C312 C 0.69325 0.04084 0.75291 0.0
N313 N 0.64976 0.97008 0.72619 0.0
C314 C 0.70278 0.11969 0.74453 0.0
C315 C 0.66044 0.08946 0.71187 0.0
N316 N 0.63004 0.9982 0.70086 0.0
C317 C 0.73302 0.03514 0.78254 0.0
H318 H 0.70691 0.963 0.78659 0.0
H319 H 0.78784 0.06207 0.77435 0.0
H320 H 0.7362 0.07807 0.80925 0.0
C321 C 0.64757 0.14773 0.69352 0.0
H322 H 0.59777 0.10385 0.67576 0.0
H323 H 0.64335 0.19645 0.71504 0.0
H324 H 0.69335 0.18982 0.67722 0.0
C325 C 0.07785 0.60969 0.9209 0.0
C326 C 0.08969 0.58261 0.95173 0.0
C327 C 0.15418 0.59274 0.94678 0.0
N328 N 0.13303 0.63459 0.89941 0.0
N329 N 0.17776 0.62255 0.91444 0.0
H330 H 0.01669 0.66679 0.93085 0.0
H331 H 0.96526 0.54473 0.91578 0.0
H332 H 0.0149 0.62004 0.88252 0.0
C333 C 0.01493 0.60997 0.91168 0.0
C334 C 0.19105 0.57118 0.97153 0.0
H335 H 0.18864 0.59649 1.00117 0.0
H336 H 0.16386 0.49547 0.96774 0.0
H337 H 0.24696 0.60311 0.96454 0.0
C338 C 0.67165 0.84107 0.64126 0.0
C339 C 0.52236 0.8225 0.77128 0.0
C340 C 0.30002 0.96576 0.65961 0.0
C341 C 0.31215 0.0292 0.69201 0.0
C342 C 0.27916 0.97474 0.71913 0.0
N343 N 0.26493 0.87991 0.66829 0.0
N344 N 0.25138 0.88646 0.70375 0.0
C345 C 0.30956 0.9854 0.62081 0.0
H346 H 0.29015 0.92169 0.60007 0.0
H347 H 0.27971 1.01518 0.61584 0.0
H348 H 0.36618 0.03771 0.61753 0.0
C349 C 0.2677 1.00478 0.75808 0.0
H350 H 0.25529 0.95302 0.77558 0.0
H351 H 0.31524 0.07282 0.77026 0.0
H352 H 0.22239 1.01156 0.75763 0.0
C353 C 0.71369 0.74856 0.7601 0.0
C354 C 0.77436 0.81356 0.74516 0.0
C355 C 0.75618 0.86215 0.72841 0.0
N356 N 0.66217 0.75885 0.75244 0.0
N357 N 0.68737 0.82637 0.73311 0.0
C358 C 0.70555 0.67994 0.78192 0.0
H359 H 0.73974 0.71678 0.80807 0.0
H360 H 0.72361 0.63866 0.76568 0.0
H361 H 0.64964 0.63385 0.78863 0.0
C362 C 0.80416 0.94257 0.70966 0.0
H363 H 0.85513 0.99035 0.7264 0.0
H364 H 0.81589 0.91796 0.6821 0.0
H365 H 0.77939 0.9795 0.70593 0.0
C366 C 0.09414 0.59853 0.66834 0.0
C367 C 0.31588 0.73441 0.68044 0.0
C368 C 0.35525 0.8155 0.93905 0.0
N369 N 0.33907 0.74384 0.91231 0.0
N370 N 0.39443 0.73978 0.90667 0.0
C371 C 0.42527 0.8591 0.9518 0.0
C372 C 0.44848 0.8087 0.9304 0.0
H373 H 0.26827 0.82505 0.92873 0.0
H374 H 0.2707 0.79584 0.97296 0.0
H375 H 0.33193 0.91291 0.96586 0.0
C376 C 0.30391 0.83953 0.95242 0.0
H377 H 0.52377 0.77584 0.91273 0.0
H378 H 0.56167 0.891 0.93897 0.0
H379 H 0.51604 0.79408 0.96249 0.0
C380 C 0.51662 0.8179 0.93623 0.0
C381 C 0.18673 0.63302 0.54155 0.0
N382 N 0.23039 0.68617 0.57217 0.0
N383 N 0.202 0.72591 0.59251 0.0
C384 C 0.12801 0.63823 0.54325 0.0
C385 C 0.14097 0.69972 0.57569 0.0
C386 C 0.19928 0.57713 0.51118 0.0
H387 H 0.18584 0.58455 0.48378 0.0
H388 H 0.16367 0.5034 0.51334 0.0
H389 H 0.25557 0.60082 0.51274 0.0
C390 C 0.08864 0.71584 0.59473 0.0
H391 H 0.06799 0.73902 0.5756 0.0
H392 H 0.04313 0.65063 0.60205 0.0
H393 H 0.1138 0.76871 0.62028 0.0
C394 C 0.23345 0.46712 0.8859 0.0
C395 C 0.29623 0.76191 0.83408 0.0
Cu396 Cu 0.12978 0.73004 0.79243 0.0
Cu397 Cu 0.15111 0.66375 0.85213 0.0
Cu398 Cu 0.48302 0.62383 0.83054 0.0
Cu399 Cu 0.57163 0.70761 0.76894 0.0
Cu400 Cu 0.45321 0.78084 0.61286 0.0
Cu401 Cu 0.3034 0.69081 0.59756 0.0
Cu402 Cu 0.62454 0.84989 0.7167 0.0
Cu403 Cu 0.58141 0.90756 0.65715 0.0
Cu404 Cu 0.22116 0.75508 0.64363 0.0
Cu405 Cu 0.17597 0.78044 0.71819 0.0
Cu406 Cu 0.25543 0.64678 0.88753 0.0
Cu407 Cu 0.37485 0.63094 0.87703 0.0
H408 H 0.18865 0.86411 0.89357 0.0
H409 H 0.09605 0.7854 0.87833 0.0
H410 H 0.1533 0.8832 0.85555 0.0
H411 H 0.18116 0.61979 0.76973 0.0
H412 H 0.26788 0.69932 0.75521 0.0
H413 H 0.19296 0.63216 0.72165 0.0
H414 H 0.67665 0.83383 0.83398 0.0
H415 H 0.64249 0.72678 0.85018 0.0
H416 H 0.62287 0.80757 0.87378 0.0
H417 H 0.33198 0.52006 0.79718 0.0
H418 H 0.38731 0.61125 0.7711 0.0
H419 H 0.32039 0.61263 0.79917 0.0
H420 H 0.3668 0.883 0.64101 0.0
H421 H 0.39932 0.93053 0.59872 0.0
H422 H 0.45806 0.93751 0.63215 0.0
H423 H 0.41292 0.68302 0.66727 0.0
H424 H 0.44382 0.76025 0.71025 0.0
H425 H 0.5004 0.73023 0.68327 0.0
H426 H 0.65534 0.8214 0.61116 0.0
H427 H 0.71749 0.91378 0.64652 0.0
H428 H 0.6864 0.79588 0.64881 0.0
H429 H 0.52442 0.87591 0.75847 0.0
H430 H 0.46758 0.77418 0.77871 0.0
H431 H 0.55837 0.85671 0.79677 0.0
H432 H 0.0808 0.57934 0.69631 0.0
H433 H 0.04477 0.57321 0.6521 0.0
H434 H 0.12085 0.56672 0.65384 0.0
H435 H 0.29773 0.76802 0.70161 0.0
H436 H 0.31284 0.67716 0.69047 0.0
H437 H 0.3699 0.78903 0.67554 0.0
H438 H 0.25206 0.42385 0.87267 0.0
H439 H 0.24011 0.47723 0.91656 0.0
H440 H 0.17673 0.43231 0.87751 0.0
H441 H 0.32191 0.8137 0.85982 0.0
H442 H 0.33572 0.75273 0.81923 0.0
H443 H 0.27642 0.78868 0.81654 0.0
O444 O 0.16613 0.778 0.84426 0.0
O445 O 0.19901 0.73802 0.75741 0.0
O446 O 0.5717 0.73598 0.82322 0.0
O447 O 0.40802 0.64306 0.82731 0.0
O448 O 0.39023 0.81152 0.6014 0.0
O449 O 0.48348 0.81811 0.66425 0.0
O450 O 0.61713 0.83224 0.66196 0.0
O451 O 0.54363 0.77585 0.74669 0.0
O452 O 0.13827 0.69232 0.67173 0.0
O453 O 0.27419 0.70181 0.64851 0.0
O454 O 0.272 0.5505 0.87438 0.0
O455 O 0.24122 0.67982 0.84295 0.0
C456 C 0.52682 0.01731 0.97927 0.0
C457 C 0.46308 0.93495 0.98395 0.0
C458 C 0.56098 0.09204 0.0089 0.0
C459 C 0.53223 0.08675 0.04403 0.0
H460 H 0.54955 0.02472 0.95235 0.0
H461 H 0.60958 0.15489 1.00416 0.0
S462 S 0.37007 0.88385 0.07146 0.0
N463 N 0.37523 0.85037 0.02703 0.0
N464 N 0.43897 0.99142 0.08247 0.0
C465 C 0.46941 1.00434 0.04924 0.0
C466 C 0.43493 0.92817 0.01923 0.0
C467 C 0.44877 0.53363 0.50104 0.0
C468 C 0.42508 0.49855 0.53432 0.0
C469 C 0.50379 0.5324 0.48228 0.0
C470 C 0.53723 0.49403 0.49516 0.0
H471 H 0.42724 0.56701 0.49044 0.0
H472 H 0.5196 0.56055 0.45682 0.0
S473 S 0.49631 0.39501 0.58181 0.0
N474 N 0.44074 0.42585 0.57984 0.0
N475 N 0.54277 0.42238 0.54456 0.0
C476 C 0.51411 0.45888 0.52851 0.0
C477 C 0.45799 0.46015 0.54763 0.0
C478 C 0.01375 0.5536 0.04635 0.0
C479 C 0.94935 0.46693 0.0387 0.0
C480 C 0.05928 0.59078 0.01793 0.0
C481 C 0.04132 0.5424 0.98117 0.0
H482 H 0.02831 0.59348 0.07429 0.0
H483 H 0.10833 0.65811 0.02459 0.0
S484 S 0.88108 0.31054 0.94754 0.0
N485 N 0.8713 0.33209 0.99245 0.0
N486 N 0.9572 0.40192 0.93894 0.0
C487 C 0.97777 0.45508 0.97337 0.0
C488 C 0.93152 0.4173 1.00224 0.0
C489 C 0.55627 0.04758 0.50814 0.0
C490 C 0.51132 0.97236 0.52588 0.0
C491 C 0.5292 0.07515 0.48334 0.0
C492 C 0.45566 0.029 0.4745 0.0
H493 H 0.61304 0.08509 0.51297 0.0
H494 H 0.56706 0.13505 0.47166 0.0
S495 S 0.31402 0.8291 0.51348 0.0
N496 N 0.38766 0.85107 0.53192 0.0
N497 N 0.33879 0.9065 0.48682 0.0
C498 C 0.41019 0.95384 0.4918 0.0
C499 C 0.4374 0.92479 0.51692 0.0
C500 C 0.44625 0.4435 0.0188 0.0
C501 C 0.51266 0.50239 0.0382 0.0
C502 C 0.43432 0.45698 0.98383 0.0
C503 C 0.48838 0.52961 0.96708 0.0
H504 H 0.40371 0.38577 0.03038 0.0
H505 H 0.38215 0.41057 0.96986 0.0
S506 S 0.67013 0.70647 1.00791 0.0
N507 N 0.63231 0.63805 0.03903 0.0
N508 N 0.60951 0.66361 0.9735 0.0
C509 C 0.55478 0.58925 0.98637 0.0
C510 C 0.56694 0.57561 0.02193 0.0
C511 C 0.95017 0.40984 0.52397 0.0
C512 C 0.91045 0.43091 0.50511 0.0
C513 C 0.02177 0.47661 0.53492 0.0
C514 C 0.05605 0.56595 0.52677 0.0
H515 H 0.92593 0.34108 0.52982 0.0
H516 H 0.05023 0.45876 0.55042 0.0
S517 S 0.97706 0.65329 0.47542 0.0
N518 N 0.91171 0.54573 0.47681 0.0
N519 N 0.04599 0.6712 0.49793 0.0
C520 C 0.01721 0.58746 0.50762 0.0
C521 C 0.94447 0.51984 0.49656 0.0
C522 C 0.68129 0.87568 0.29761 0.0
C523 C 0.64287 0.91164 0.31362 0.0
C524 C 0.64761 0.78122 0.2834 0.0
C525 C 0.57384 0.71837 0.28414 0.0
H526 H 0.73776 0.92133 0.29527 0.0
H527 H 0.6796 0.75755 0.27084 0.0
S528 S 0.44949 0.77695 0.32467 0.0
N529 N 0.52749 0.87638 0.33114 0.0
N530 N 0.46397 0.69937 0.30378 0.0
C531 C 0.53523 0.75286 0.30157 0.0
C532 C 0.56976 0.84924 0.31639 0.0
C533 C 0.91826 0.77708 0.7207 0.0
C534 C 0.96938 0.836 0.75004 0.0
C535 C 0.85544 0.77214 0.71873 0.0
C536 C 0.84267 0.82601 0.74601 0.0
H537 H 0.9255 0.73179 0.70012 0.0
H538 H 0.81584 0.72426 0.69643 0.0
S539 S 0.96099 0.99375 0.8271 0.0
N540 N 0.00472 0.95164 0.80592 0.0
N541 N 0.88549 0.94175 0.80216 0.0
C542 C 0.89387 0.8869 0.77482 0.0
C543 C 0.9578 0.89198 0.77687 0.0
C544 C 0.21967 0.77911 0.21832 0.0
C545 C 0.2381 0.83565 0.25351 0.0
C546 C 0.15195 0.69725 0.2103 0.0
C547 C 0.10101 0.67062 0.23719 0.0
H548 H 0.25736 0.799 0.19684 0.0
H549 H 0.13935 0.65456 0.18303 0.0
S550 S 0.12121 0.79987 0.33198 0.0
N551 N 0.19892 0.86229 0.3145 0.0
N552 N 0.07181 0.70955 0.29919 0.0
C553 C 0.11857 0.72745 0.27212 0.0
C554 C 0.1872 0.80983 0.28036 0.0
C555 C 0.33875 0.26218 0.72278 0.0
C556 C 0.41263 0.32537 0.72288 0.0
C557 C 0.30608 0.16714 0.71038 0.0
C558 C 0.34563 0.13082 0.69711 0.0
H559 H 0.30601 0.28602 0.73377 0.0
H560 H 0.24955 0.12122 0.71252 0.0
S561 S 0.53986 0.26602 0.68906 0.0
N562 N 0.52387 0.34421 0.7067 0.0
N563 N 0.46226 0.16601 0.68286 0.0
C564 C 0.41889 0.1934 0.69493 0.0
C565 C 0.4524 0.29046 0.70786 0.0
C566 C 0.14143 0.26453 0.29557 0.0
C567 C 0.14923 0.21043 0.2657 0.0
C568 C 0.07922 0.26195 0.29801 0.0
C569 C 0.02372 0.20529 0.27054 0.0
H570 H 0.18445 0.31095 0.31646 0.0
H571 H 0.07597 0.30782 0.32037 0.0
S572 S 0.01722 0.04534 0.18873 0.0
N573 N 0.0962 0.095 0.20963 0.0
N574 N 0.97835 0.08957 0.21418 0.0
C575 C 0.02998 0.14803 0.24146 0.0
C576 C 0.09325 0.15073 0.23903 0.0
C577 C 0.88696 0.32958 0.74189 0.0
C578 C 0.90219 0.37723 0.77872 0.0
C579 C 0.82059 0.24858 0.73071 0.0
C580 C 0.76733 0.2124 0.75603 0.0
H581 H 0.9271 0.35438 0.72172 0.0
H582 H 0.8117 0.21221 0.70235 0.0
S583 S 0.77967 0.31335 0.85521 0.0
N584 N 0.8581 0.38499 0.84017 0.0
N585 N 0.73318 0.23093 0.8192 0.0
C586 C 0.78148 0.2598 0.79283 0.0
C587 C 0.84912 0.34273 0.80421 0.0
loop_
_geom_bond_atom_site_label_1
_geom_bond_atom_site_label_2
_geom_bond_distance
_geom_bond_site_symmetry_2
_ccdc_geom_bond_type
C0 C1 1.388 1_545 S
C0 N3 1.338 . S
C0 C5 1.503 . S
C1 C0 1.388 1_565 S
C1 C2 1.396 1_565 S
C2 C1 1.396 1_545 S
C2 N4 1.348 . S
C2 C9 1.504 1_545 S
N3 C0 1.338 . S
N3 N4 1.361 . S
N3 Cu168 1.924 . S
N4 C2 1.348 . S
N4 N3 1.361 . S
N4 Cu169 1.964 . S
C5 C0 1.503 . S
C5 H6 0.979 . S
C5 H7 0.979 1_545 S
C5 H8 0.979 . S
H6 C5 0.979 . S
H7 C5 0.979 1_565 S
H8 C5 0.979 . S
C9 C2 1.504 1_565 S
C9 H10 0.981 1_565 S
C9 H11 0.980 . S
C9 H12 0.979 . S
H10 C9 0.981 1_545 S
H11 C9 0.980 . S
H12 C9 0.979 . S
C13 C15 1.402 . S
C13 N16 1.356 . S
C13 C21 1.481 1_655 S
C14 C15 1.400 . S
C14 N17 1.325 . S
C14 C25 1.503 . S
C15 C13 1.402 . S
C15 C14 1.400 . S
N16 C13 1.356 . S
N16 N17 1.365 . S
N16 Cu175 1.941 . S
N17 C14 1.325 . S
N17 N16 1.365 . S
N17 Cu172 1.924 . S
H18 C21 0.980 . S
H19 C21 0.980 . S
H20 C21 0.980 . S
C21 C13 1.481 1_455 S
C21 H18 0.980 . S
C21 H19 0.980 . S
C21 H20 0.980 . S
H22 C25 0.978 . S
H23 C25 0.978 . S
H24 C25 0.983 . S
C25 C14 1.503 . S
C25 H22 0.978 . S
C25 H23 0.978 . S
C25 H24 0.983 . S
C26 H180 0.979 . S
C26 H181 0.981 . S
C26 H182 0.981 . S
C26 O216 1.438 . S
C27 H183 0.980 . S
C27 H184 0.979 . S
C27 H185 0.980 . S
C27 O217 1.533 . S
C28 N29 1.338 . S
C28 C31 1.388 . S
C28 C36 1.503 . S
N29 C28 1.338 . S
N29 N30 1.361 . S
N29 Cu170 1.924 . S
N30 N29 1.361 . S
N30 C32 1.348 . S
N30 Cu171 1.964 . S
C31 C28 1.388 . S
C31 C32 1.396 . S
C32 N30 1.348 . S
C32 C31 1.396 . S
C32 C40 1.504 . S
H33 C36 0.979 . S
H34 C36 0.979 1_565 S
H35 C36 0.979 1_565 S
C36 C28 1.503 . S
C36 H33 0.979 . S
C36 H34 0.979 1_545 S
C36 H35 0.979 1_545 S
H37 C40 0.981 . S
H38 C40 0.980 . S
H39 C40 0.979 . S
C40 C32 1.504 . S
C40 H37 0.981 . S
C40 H38 0.980 . S
C40 H39 0.979 . S
C41 N43 1.356 . S
C41 C45 1.402 . S
C41 C49 1.481 . S
C42 N44 1.325 . S
C42 C45 1.400 . S
C42 C50 1.503 . S
N43 C41 1.356 . S
N43 N44 1.365 . S
N43 Cu177 1.941 . S
N44 C42 1.325 . S
N44 N43 1.365 . S
N44 Cu168 1.924 . S
C45 C41 1.402 . S
C45 C42 1.400 . S
H46 C49 0.980 . S
H47 C49 0.980 . S
H48 C49 0.980 . S
C49 C41 1.481 . S
C49 H46 0.980 . S
C49 H47 0.980 . S
C49 H48 0.980 . S
C50 C42 1.503 . S
C50 H51 0.978 . S
C50 H52 0.978 . S
C50 H53 0.983 . S
H51 C50 0.978 . S
H52 C50 0.978 . S
H53 C50 0.983 . S
C54 H186 0.979 . S
C54 H187 0.981 . S
C54 H188 0.981 . S
C54 O218 1.438 . S
C55 H189 0.980 . S
C55 H190 0.979 . S
C55 H191 0.980 . S
C55 O219 1.533 . S
C56 N57 1.338 . S
C56 C58 1.388 . S
C56 C64 1.503 . S
N57 C56 1.338 . S
N57 N59 1.361 . S
N57 Cu172 1.924 . S
C58 C56 1.388 . S
C58 C60 1.396 . S
N59 N57 1.361 . S
N59 C60 1.348 . S
N59 Cu173 1.964 . S
C60 C58 1.396 . S
C60 N59 1.348 . S
C60 C66 1.504 . S
H61 C64 0.979 . S
H62 C64 0.979 . S
H63 C64 0.979 . S
C64 C56 1.503 . S
C64 H61 0.979 . S
C64 H62 0.979 . S
C64 H63 0.979 . S
H65 C66 0.981 . S
C66 C60 1.504 . S
C66 H65 0.981 . S
C66 H67 0.979 . S
C66 H68 0.980 . S
H67 C66 0.979 . S
H68 C66 0.980 . S
C69 N71 1.356 . S
C69 C73 1.402 . S
C69 C75 1.481 . S
C70 N72 1.325 . S
C70 C73 1.400 . S
C70 C80 1.503 . S
N71 C69 1.356 . S
N71 N72 1.365 . S
N71 Cu179 1.941 . S
N72 C70 1.325 . S
N72 N71 1.365 . S
N72 Cu170 1.924 . S
C73 C69 1.402 . S
C73 C70 1.400 . S
H74 C75 0.980 . S
C75 C69 1.481 . S
C75 H74 0.980 . S
C75 H76 0.980 . S
C75 H77 0.980 . S
H76 C75 0.980 . S
H77 C75 0.980 . S
H78 C80 0.978 . S
H79 C80 0.978 . S
C80 C70 1.503 . S
C80 H78 0.978 . S
C80 H79 0.978 . S
C80 H81 0.983 . S
H81 C80 0.983 . S
C82 H192 0.979 . S
C82 H193 0.981 . S
C82 H194 0.981 . S
C82 O220 1.438 . S
C83 H195 0.980 . S
C83 H196 0.979 . S
C83 H197 0.980 . S
C83 O221 1.533 . S
C84 N85 1.338 1_455 S
C84 C86 1.388 . S
C84 C89 1.503 . S
N85 C84 1.338 1_655 S
N85 N88 1.361 . S
N85 Cu174 1.924 . S
C86 C84 1.388 . S
C86 C87 1.396 1_455 S
C87 C86 1.396 1_655 S
C87 N88 1.348 . S
C87 C93 1.504 . S
N88 N85 1.361 . S
N88 C87 1.348 . S
N88 Cu175 1.964 . S
C89 C84 1.503 . S
C89 H90 0.979 . S
C89 H91 0.979 . S
C89 H92 0.979 . S
H90 C89 0.979 . S
H91 C89 0.979 . S
H92 C89 0.979 . S
C93 C87 1.504 . S
C93 H94 0.981 . S
C93 H95 0.980 . S
C93 H96 0.979 . S
H94 C93 0.981 . S
H95 C93 0.980 . S
H96 C93 0.979 . S
C97 C98 1.402 . S
C97 N100 1.356 . S
C97 C105 1.481 . S
C98 C97 1.402 . S
C98 C99 1.400 . S
C99 C98 1.400 . S
C99 N101 1.325 . S
C99 C106 1.503 . S
N100 C97 1.356 . S
N100 N101 1.365 . S
N100 Cu169 1.941 . S
N101 C99 1.325 . S
N101 N100 1.365 . S
N101 Cu178 1.924 . S
H102 C105 0.980 . S
H103 C105 0.980 1_565 S
H104 C105 0.980 . S
C105 C97 1.481 . S
C105 H102 0.980 . S
C105 H103 0.980 1_545 S
C105 H104 0.980 . S
C106 C99 1.503 . S
C106 H107 0.978 . S
C106 H108 0.978 . S
C106 H109 0.983 . S
H107 C106 0.978 . S
H108 C106 0.978 . S
H109 C106 0.983 . S
C110 H198 0.979 . S
C110 H199 0.981 . S
C110 H200 0.981 . S
C110 O222 1.438 . S
C111 H201 0.980 . S
C111 H202 0.979 . S
C111 H203 0.980 . S
C111 O223 1.533 . S
C112 C113 1.388 . S
C112 N115 1.338 . S
C112 C117 1.503 . S
C113 C112 1.388 . S
C113 C114 1.396 . S
C114 C113 1.396 . S
C114 N116 1.348 . S
C114 C121 1.504 . S
N115 C112 1.338 . S
N115 N116 1.361 . S
N115 Cu176 1.924 . S
N116 C114 1.348 . S
N116 N115 1.361 . S
N116 Cu177 1.964 . S
C117 C112 1.503 . S
C117 H118 0.979 . S
C117 H119 0.979 . S
C117 H120 0.979 . S
H118 C117 0.979 . S
H119 C117 0.979 . S
H120 C117 0.979 . S
C121 C114 1.504 . S
C121 H122 0.981 . S
C121 H123 0.980 . S
C121 H124 0.979 . S
H122 C121 0.981 . S
H123 C121 0.980 . S
H124 C121 0.979 . S
C125 C126 1.402 1_655 S
C125 N128 1.356 . S
C125 C130 1.481 . S
C126 C125 1.402 1_455 S
C126 C127 1.400 . S
C127 C126 1.400 . S
C127 N129 1.325 . S
C127 C134 1.503 . S
N128 C125 1.356 . S
N128 N129 1.365 1_655 S
N128 Cu171 1.941 . S
N129 C127 1.325 . S
N129 N128 1.365 1_455 S
N129 Cu174 1.924 1_455 S
C130 C125 1.481 . S
C130 H131 0.980 . S
C130 H132 0.980 . S
C130 H133 0.980 . S
H131 C130 0.980 . S
H132 C130 0.980 . S
H133 C130 0.980 . S
C134 C127 1.503 . S
C134 H135 0.978 . S
C134 H136 0.978 . S
C134 H137 0.983 . S
H135 C134 0.978 . S
H136 C134 0.978 . S
H137 C134 0.983 . S
C138 H204 0.979 . S
C138 H205 0.981 . S
C138 H206 0.981 . S
C138 O224 1.438 . S
C139 H207 0.980 . S
C139 H208 0.979 . S
C139 H209 0.980 . S
C139 O225 1.533 . S
C140 N141 1.338 . S
C140 C143 1.388 . S
C140 C148 1.503 . S
N141 C140 1.338 . S
N141 N142 1.361 . S
N141 Cu178 1.924 . S
N142 N141 1.361 . S
N142 C144 1.348 . S
N142 Cu179 1.964 . S
C143 C140 1.388 . S
C143 C144 1.396 . S
C144 N142 1.348 . S
C144 C143 1.396 . S
C144 C152 1.504 . S
H145 C148 0.979 . S
H146 C148 0.979 . S
H147 C148 0.979 . S
C148 C140 1.503 . S
C148 H145 0.979 . S
C148 H146 0.979 . S
C148 H147 0.979 . S
H149 C152 0.981 . S
H150 C152 0.980 . S
H151 C152 0.979 . S
C152 C144 1.504 . S
C152 H149 0.981 . S
C152 H150 0.980 . S
C152 H151 0.979 . S
C153 N154 1.356 . S
C153 C156 1.402 . S
C153 C158 1.481 . S
N154 C153 1.356 . S
N154 N155 1.365 . S
N154 Cu173 1.941 . S
N155 N154 1.365 . S
N155 C157 1.325 . S
N155 Cu176 1.924 . S
C156 C153 1.402 . S
C156 C157 1.400 . S
C157 N155 1.325 . S
C157 C156 1.400 . S
C157 C162 1.503 . S
C158 C153 1.481 . S
C158 H159 0.965 1_554 S
C158 H160 0.968 1_554 S
C158 H161 0.980 . S
H159 C158 0.965 1_556 S
H160 C158 0.968 1_556 S
H161 C158 0.980 . S
C162 C157 1.503 . S
C162 H163 0.978 . S
C162 H164 0.978 . S
C162 H165 0.983 . S
H163 C162 0.978 . S
H164 C162 0.978 . S
H165 C162 0.983 . S
C166 H210 0.979 . S
C166 H211 0.981 . S
C166 H212 0.981 . S
C166 O226 1.438 . S
C167 H213 0.980 . S
C167 H214 0.979 . S
C167 H215 0.980 . S
C167 O227 1.533 . S
Cu168 N3 1.924 . S
Cu168 N44 1.924 . S
Cu168 O216 1.923 . S
Cu168 O217 1.930 . S
Cu169 N4 1.964 . S
Cu169 N100 1.941 . S
Cu169 O216 1.905 . S
Cu169 O227 1.920 . S
Cu170 N29 1.924 . S
Cu170 N72 1.924 . S
Cu170 O218 1.923 . S
Cu170 O219 1.930 . S
Cu171 N30 1.964 . S
Cu171 N128 1.941 . S
Cu171 O218 1.905 . S
Cu171 O223 1.920 . S
Cu172 N17 1.924 . S
Cu172 N57 1.924 . S
Cu172 O220 1.923 . S
Cu172 O221 1.930 . S
Cu173 N59 1.964 . S
Cu173 N154 1.941 . S
Cu173 O220 1.905 . S
Cu173 O225 1.920 . S
Cu174 N85 1.924 . S
Cu174 N129 1.924 1_655 S
Cu174 O222 1.923 . S
Cu174 O223 1.930 . S
Cu175 N16 1.941 . S
Cu175 N88 1.964 . S
Cu175 O221 1.920 . S
Cu175 O222 1.905 . S
Cu176 N115 1.924 . S
Cu176 N155 1.924 . S
Cu176 O224 1.923 . S
Cu176 O225 1.930 . S
Cu177 N43 1.941 . S
Cu177 N116 1.964 . S
Cu177 O217 1.920 . S
Cu177 O224 1.905 . S
Cu178 N101 1.924 . S
Cu178 N141 1.924 . S
Cu178 O226 1.923 . S
Cu178 O227 1.930 . S
Cu179 N71 1.941 . S
Cu179 N142 1.964 . S
Cu179 O219 1.920 . S
Cu179 O226 1.905 . S
H180 C26 0.979 . S
H181 C26 0.981 . S
H182 C26 0.981 . S
H183 C27 0.980 . S
H184 C27 0.979 . S
H185 C27 0.980 . S
H186 C54 0.979 . S
H187 C54 0.981 . S
H188 C54 0.981 . S
H189 C55 0.980 . S
H190 C55 0.979 . S
H191 C55 0.980 . S
H192 C82 0.979 . S
H193 C82 0.981 . S
H194 C82 0.981 . S
H195 C83 0.980 . S
H196 C83 0.979 . S
H197 C83 0.980 . S
H198 C110 0.979 . S
H199 C110 0.981 . S
H200 C110 0.981 . S
H201 C111 0.980 . S
H202 C111 0.979 . S
H203 C111 0.980 . S
H204 C138 0.979 . S
H205 C138 0.981 . S
H206 C138 0.981 . S
H207 C139 0.980 . S
H208 C139 0.979 . S
H209 C139 0.980 . S
H210 C166 0.979 . S
H211 C166 0.981 . S
H212 C166 0.981 . S
H213 C167 0.980 . S
H214 C167 0.979 . S
H215 C167 0.980 . S
O216 C26 1.438 . S
O216 Cu168 1.923 . S
O216 Cu169 1.905 . S
O217 C27 1.533 . S
O217 Cu168 1.930 . S
O217 Cu177 1.920 . S
O218 C54 1.438 . S
O218 Cu170 1.923 . S
O218 Cu171 1.905 . S
O219 C55 1.533 . S
O219 Cu170 1.930 . S
O219 Cu179 1.920 . S
O220 C82 1.438 . S
O220 Cu172 1.923 . S
O220 Cu173 1.905 . S
O221 C83 1.533 . S
O221 Cu172 1.930 . S
O221 Cu175 1.920 . S
O222 C110 1.438 . S
O222 Cu174 1.923 . S
O222 Cu175 1.905 . S
O223 C111 1.533 . S
O223 Cu171 1.920 . S
O223 Cu174 1.930 . S
O224 C138 1.438 . S
O224 Cu176 1.923 . S
O224 Cu177 1.905 . S
O225 C139 1.533 . S
O225 Cu173 1.920 . S
O225 Cu176 1.930 . S
O226 C166 1.438 . S
O226 Cu178 1.923 . S
O226 Cu179 1.905 . S
O227 C167 1.533 . S
O227 Cu169 1.920 . S
O227 Cu178 1.930 . S
C228 C229 1.388 . S
C228 N231 1.338 1_655 S
C228 C233 1.503 . S
C229 C228 1.388 . S
C229 C230 1.396 1_655 S
C230 C229 1.396 1_455 S
C230 N232 1.348 . S
C230 C237 1.504 . S
N231 C228 1.338 1_455 S
N231 N232 1.361 . S
N231 Cu396 1.924 . S
N232 C230 1.348 . S
N232 N231 1.361 . S
N232 Cu397 1.964 . S
C233 C228 1.503 . S
C233 H234 0.979 . S
C233 H235 0.979 . S
C233 H236 0.979 . S
H234 C233 0.979 . S
H235 C233 0.979 . S
H236 C233 0.979 . S
C237 C230 1.504 . S
C237 H238 0.981 . S
C237 H239 0.980 . S
C237 H240 0.979 . S
H238 C237 0.981 . S
H239 C237 0.980 . S
H240 C237 0.979 . S
C241 C243 1.402 . S
C241 N244 1.356 . S
C241 C249 1.481 . S
C242 C243 1.400 . S
C242 N245 1.325 . S
C242 C253 1.503 . S
C243 C241 1.402 . S
C243 C242 1.400 . S
N244 C241 1.356 . S
N244 N245 1.365 . S
N244 Cu403 1.941 . S
N245 C242 1.325 . S
N245 N244 1.365 . S
N245 Cu400 1.924 . S
H246 C249 0.980 . S
H247 C249 0.980 1_545 S
H248 C249 0.980 . S
C249 C241 1.481 . S
C249 H246 0.980 . S
C249 H247 0.980 1_565 S
C249 H248 0.980 . S
H250 C253 0.978 . S
H251 C253 0.978 . S
H252 C253 0.983 . S
C253 C242 1.503 . S
C253 H250 0.978 . S
C253 H251 0.978 . S
C253 H252 0.983 . S
C254 H408 0.979 . S
C254 H409 0.981 . S
C254 H410 0.981 . S
C254 O444 1.438 . S
C255 H411 0.980 . S
C255 H412 0.979 . S
C255 H413 0.980 . S
C255 O445 1.533 . S
C256 N257 1.338 . S
C256 C259 1.388 . S
C256 C264 1.503 . S
N257 C256 1.338 . S
N257 N258 1.361 . S
N257 Cu398 1.924 . S
N258 N257 1.361 . S
N258 C260 1.348 . S
N258 Cu399 1.964 . S
C259 C256 1.388 . S
C259 C260 1.396 . S
C260 N258 1.348 . S
C260 C259 1.396 . S
C260 C268 1.504 . S
H261 C264 0.979 . S
H262 C264 0.979 . S
H263 C264 0.979 . S
C264 C256 1.503 . S
C264 H261 0.979 . S
C264 H262 0.979 . S
C264 H263 0.979 . S
H265 C268 0.981 . S
H266 C268 0.980 . S
H267 C268 0.979 . S
C268 C260 1.504 . S
C268 H265 0.981 . S
C268 H266 0.980 . S
C268 H267 0.979 . S
C269 N271 1.356 . S
C269 C273 1.402 1_455 S
C269 C277 1.481 . S
C270 N272 1.325 . S
C270 C273 1.400 . S
C270 C278 1.503 . S
N271 C269 1.356 . S
N271 N272 1.365 1_455 S
N271 Cu405 1.941 . S
N272 C270 1.325 . S
N272 N271 1.365 1_655 S
N272 Cu396 1.924 1_655 S
C273 C269 1.402 1_655 S
C273 C270 1.400 . S
H274 C277 0.980 . S
H275 C277 0.980 . S
H276 C277 0.980 . S
C277 C269 1.481 . S
C277 H274 0.980 . S
C277 H275 0.980 . S
C277 H276 0.980 . S
C278 C270 1.503 . S
C278 H279 0.978 . S
C278 H280 0.978 . S
C278 H281 0.983 . S
H279 C278 0.978 . S
H280 C278 0.978 . S
H281 C278 0.983 . S
C282 H414 0.979 . S
C282 H415 0.981 . S
C282 H416 0.981 . S
C282 O446 1.438 . S
C283 H417 0.980 . S
C283 H418 0.979 . S
C283 H419 0.980 . S
C283 O447 1.533 . S
C284 N285 1.338 . S
C284 C286 1.388 . S
C284 C292 1.503 . S
N285 C284 1.338 . S
N285 N287 1.361 . S
N285 Cu400 1.924 . S
C286 C284 1.388 . S
C286 C288 1.396 . S
N287 N285 1.361 . S
N287 C288 1.348 . S
N287 Cu401 1.964 . S
C288 C286 1.396 . S
C288 N287 1.348 . S
C288 C294 1.504 . S
H289 C292 0.979 . S
H290 C292 0.979 . S
H291 C292 0.979 . S
C292 C284 1.503 . S
C292 H289 0.979 . S
C292 H290 0.979 . S
C292 H291 0.979 . S
H293 C294 0.981 . S
C294 C288 1.504 . S
C294 H293 0.981 . S
C294 H295 0.979 . S
C294 H296 0.980 . S
H295 C294 0.979 . S
H296 C294 0.980 . S
C297 N299 1.356 . S
C297 C301 1.402 . S
C297 C303 1.481 . S
C298 N300 1.325 . S
C298 C301 1.400 . S
C298 C308 1.503 . S
N299 C297 1.356 . S
N299 N300 1.365 . S
N299 Cu407 1.941 . S
N300 C298 1.325 . S
N300 N299 1.365 . S
N300 Cu398 1.924 . S
C301 C297 1.402 . S
C301 C298 1.400 . S
H302 C303 0.965 1_554 S
C303 C297 1.481 . S
C303 H302 0.965 1_556 S
C303 H304 0.980 . S
C303 H305 0.968 1_556 S
H304 C303 0.980 . S
H305 C303 0.968 1_554 S
H306 C308 0.978 . S
H307 C308 0.978 . S
C308 C298 1.503 . S
C308 H306 0.978 . S
C308 H307 0.978 . S
C308 H309 0.983 . S
H309 C308 0.983 . S
C310 H420 0.979 . S
C310 H421 0.981 . S
C310 H422 0.981 . S
C310 O448 1.438 . S
C311 H423 0.980 . S
C311 H424 0.979 . S
C311 H425 0.980 . S
C311 O449 1.533 . S
C312 N313 1.338 . S
C312 C314 1.388 1_565 S
C312 C317 1.503 . S
N313 C312 1.338 . S
N313 N316 1.361 . S
N313 Cu402 1.924 . S
C314 C312 1.388 1_545 S
C314 C315 1.396 1_545 S
C315 C314 1.396 1_565 S
C315 N316 1.348 . S
C315 C321 1.504 1_565 S
N316 N313 1.361 . S
N316 C315 1.348 . S
N316 Cu403 1.964 . S
C317 C312 1.503 . S
C317 H318 0.979 . S
C317 H319 0.979 1_565 S
C317 H320 0.979 . S
H318 C317 0.979 . S
H319 C317 0.979 1_545 S
H320 C317 0.979 . S
C321 C315 1.504 1_545 S
C321 H322 0.981 1_545 S
C321 H323 0.980 . S
C321 H324 0.979 . S
H322 C321 0.981 1_565 S
H323 C321 0.980 . S
H324 C321 0.979 . S
C325 C326 1.402 . S
C325 N328 1.356 . S
C325 C333 1.481 1_455 S
C326 C325 1.402 . S
C326 C327 1.400 . S
C327 C326 1.400 . S
C327 N329 1.325 . S
C327 C334 1.503 . S
N328 C325 1.356 . S
N328 N329 1.365 . S
N328 Cu397 1.941 . S
N329 C327 1.325 . S
N329 N328 1.365 . S
N329 Cu406 1.924 . S
H330 C333 0.980 . S
H331 C333 0.980 . S
H332 C333 0.980 . S
C333 C325 1.481 1_655 S
C333 H330 0.980 . S
C333 H331 0.980 . S
C333 H332 0.980 . S
C334 C327 1.503 . S
C334 H335 0.978 . S
C334 H336 0.978 . S
C334 H337 0.983 . S
H335 C334 0.978 . S
H336 C334 0.978 . S
H337 C334 0.983 . S
C338 H426 0.979 . S
C338 H427 0.981 . S
C338 H428 0.981 . S
C338 O450 1.438 . S
C339 H429 0.980 . S
C339 H430 0.979 . S
C339 H431 0.980 . S
C339 O451 1.533 . S
C340 C341 1.388 . S
C340 N343 1.338 . S
C340 C345 1.503 . S
C341 C340 1.388 . S
C341 C342 1.396 . S
C342 C341 1.396 . S
C342 N344 1.348 . S
C342 C349 1.504 . S
N343 C340 1.338 . S
N343 N344 1.361 . S
N343 Cu404 1.924 . S
N344 C342 1.348 . S
N344 N343 1.361 . S
N344 Cu405 1.964 . S
C345 C340 1.503 . S
C345 H346 0.979 . S
C345 H347 0.979 1_565 S
C345 H348 0.979 1_565 S
H346 C345 0.979 . S
H347 C345 0.979 1_545 S
H348 C345 0.979 1_545 S
C349 C342 1.504 . S
C349 H350 0.981 . S
C349 H351 0.980 . S
C349 H352 0.979 . S
H350 C349 0.981 . S
H351 C349 0.980 . S
H352 C349 0.979 . S
C353 C354 1.402 . S
C353 N356 1.356 . S
C353 C358 1.481 . S
C354 C353 1.402 . S
C354 C355 1.400 . S
C355 C354 1.400 . S
C355 N357 1.325 . S
C355 C362 1.503 . S
N356 C353 1.356 . S
N356 N357 1.365 . S
N356 Cu399 1.941 . S
N357 C355 1.325 . S
N357 N356 1.365 . S
N357 Cu402 1.924 . S
C358 C353 1.481 . S
C358 H359 0.980 . S
C358 H360 0.980 . S
C358 H361 0.980 . S
H359 C358 0.980 . S
H360 C358 0.980 . S
H361 C358 0.980 . S
C362 C355 1.503 . S
C362 H363 0.978 . S
C362 H364 0.978 . S
C362 H365 0.983 . S
H363 C362 0.978 . S
H364 C362 0.978 . S
H365 C362 0.983 . S
C366 H432 0.979 . S
C366 H433 0.981 . S
C366 H434 0.981 . S
C366 O452 1.438 . S
C367 H435 0.980 . S
C367 H436 0.979 . S
C367 H437 0.980 . S
C367 O453 1.533 . S
C368 N369 1.338 . S
C368 C371 1.388 . S
C368 C376 1.503 . S
N369 C368 1.338 . S
N369 N370 1.361 . S
N369 Cu406 1.924 . S
N370 N369 1.361 . S
N370 C372 1.348 . S
N370 Cu407 1.964 . S
C371 C368 1.388 . S
C371 C372 1.396 . S
C372 N370 1.348 . S
C372 C371 1.396 . S
C372 C380 1.504 . S
H373 C376 0.979 . S
H374 C376 0.979 . S
H375 C376 0.979 . S
C376 C368 1.503 . S
C376 H373 0.979 . S
C376 H374 0.979 . S
C376 H375 0.979 . S
H377 C380 0.981 . S
H378 C380 0.980 . S
H379 C380 0.979 . S
C380 C372 1.504 . S
C380 H377 0.981 . S
C380 H378 0.980 . S
C380 H379 0.979 . S
C381 N382 1.356 . S
C381 C384 1.402 . S
C381 C386 1.481 . S
N382 C381 1.356 . S
N382 N383 1.365 . S
N382 Cu401 1.941 . S
N383 N382 1.365 . S
N383 C385 1.325 . S
N383 Cu404 1.924 . S
C384 C381 1.402 . S
C384 C385 1.400 . S
C385 N383 1.325 . S
C385 C384 1.400 . S
C385 C390 1.503 . S
C386 C381 1.481 . S
C386 H387 0.980 . S
C386 H388 0.980 . S
C386 H389 0.980 . S
H387 C386 0.980 . S
H388 C386 0.980 . S
H389 C386 0.980 . S
C390 C385 1.503 . S
C390 H391 0.978 . S
C390 H392 0.978 . S
C390 H393 0.983 . S
H391 C390 0.978 . S
H392 C390 0.978 . S
H393 C390 0.983 . S
C394 H438 0.979 . S
C394 H439 0.981 . S
C394 H440 0.981 . S
C394 O454 1.438 . S
C395 H441 0.980 . S
C395 H442 0.979 . S
C395 H443 0.980 . S
C395 O455 1.533 . S
Cu396 N231 1.924 . S
Cu396 N272 1.924 1_455 S
Cu396 O444 1.923 . S
Cu396 O445 1.930 . S
Cu397 N232 1.964 . S
Cu397 N328 1.941 . S
Cu397 O444 1.905 . S
Cu397 O455 1.920 . S
Cu398 N257 1.924 . S
Cu398 N300 1.924 . S
Cu398 O446 1.923 . S
Cu398 O447 1.930 . S
Cu399 N258 1.964 . S
Cu399 N356 1.941 . S
Cu399 O446 1.905 . S
Cu399 O451 1.920 . S
Cu400 N245 1.924 . S
Cu400 N285 1.924 . S
Cu400 O448 1.923 . S
Cu400 O449 1.930 . S
Cu401 N287 1.964 . S
Cu401 N382 1.941 . S
Cu401 O448 1.905 . S
Cu401 O453 1.920 . S
Cu402 N313 1.924 . S
Cu402 N357 1.924 . S
Cu402 O450 1.923 . S
Cu402 O451 1.930 . S
Cu403 N244 1.941 . S
Cu403 N316 1.964 . S
Cu403 O449 1.920 . S
Cu403 O450 1.905 . S
Cu404 N343 1.924 . S
Cu404 N383 1.924 . S
Cu404 O452 1.923 . S
Cu404 O453 1.930 . S
Cu405 N271 1.941 . S
Cu405 N344 1.964 . S
Cu405 O445 1.920 . S
Cu405 O452 1.905 . S
Cu406 N329 1.924 . S
Cu406 N369 1.924 . S
Cu406 O454 1.923 . S
Cu406 O455 1.930 . S
Cu407 N299 1.941 . S
Cu407 N370 1.964 . S
Cu407 O447 1.920 . S
Cu407 O454 1.905 . S
H408 C254 0.979 . S
H409 C254 0.981 . S
H410 C254 0.981 . S
H411 C255 0.980 . S
H412 C255 0.979 . S
H413 C255 0.980 . S
H414 C282 0.979 . S
H415 C282 0.981 . S
H416 C282 0.981 . S
H417 C283 0.980 . S
H418 C283 0.979 . S
H419 C283 0.980 . S
H420 C310 0.979 . S
H421 C310 0.981 . S
H422 C310 0.981 . S
H423 C311 0.980 . S
H424 C311 0.979 . S
H425 C311 0.980 . S
H426 C338 0.979 . S
H427 C338 0.981 . S
H428 C338 0.981 . S
H429 C339 0.980 . S
H430 C339 0.979 . S
H431 C339 0.980 . S
H432 C366 0.979 . S
H433 C366 0.981 . S
H434 C366 0.981 . S
H435 C367 0.980 . S
H436 C367 0.979 . S
H437 C367 0.980 . S
H438 C394 0.979 . S
H439 C394 0.981 . S
H440 C394 0.981 . S
H441 C395 0.980 . S
H442 C395 0.979 . S
H443 C395 0.980 . S
O444 C254 1.438 . S
O444 Cu396 1.923 . S
O444 Cu397 1.905 . S
O445 C255 1.533 . S
O445 Cu396 1.930 . S
O445 Cu405 1.920 . S
O446 C282 1.438 . S
O446 Cu398 1.923 . S
O446 Cu399 1.905 . S
O447 C283 1.533 . S
O447 Cu398 1.930 . S
O447 Cu407 1.920 . S
O448 C310 1.438 . S
O448 Cu400 1.923 . S
O448 Cu401 1.905 . S
O449 C311 1.533 . S
O449 Cu400 1.930 . S
O449 Cu403 1.920 . S
O450 C338 1.438 . S
O450 Cu402 1.923 . S
O450 Cu403 1.905 . S
O451 C339 1.533 . S
O451 Cu399 1.920 . S
O451 Cu402 1.930 . S
O452 C366 1.438 . S
O452 Cu404 1.923 . S
O452 Cu405 1.905 . S
O453 C367 1.533 . S
O453 Cu401 1.920 . S
O453 Cu404 1.930 . S
O454 C394 1.438 . S
O454 Cu406 1.923 . S
O454 Cu407 1.905 . S
O455 C395 1.533 . S
O455 Cu397 1.920 . S
O455 Cu406 1.930 . S
C456 C457 1.369 . S
C456 C458 1.419 1_566 S
C456 H460 0.930 . S
C457 C456 1.369 . S
C457 C466 1.429 . S
C458 C456 1.419 1_544 S
C458 C459 1.363 . S
C458 H461 0.929 . S
C459 C458 1.363 . S
C459 C465 1.428 . S
H460 C456 0.930 . S
H461 C458 0.929 . S
S462 N463 1.613 1_554 S
S462 N464 1.610 1_565 S
N463 S462 1.613 1_556 S
N463 C466 1.350 . S
N464 S462 1.610 1_545 S
N464 C465 1.351 . S
C465 C459 1.428 . S
C465 N464 1.351 . S
C465 C466 1.434 1_544 S
C466 C457 1.429 . S
C466 N463 1.350 . S
C466 C465 1.434 1_566 S
C467 C468 1.369 . S
C467 C469 1.419 . S
C467 H471 0.930 . S
C468 C467 1.369 . S
C468 C477 1.429 . S
C469 C467 1.419 . S
C469 C470 1.363 . S
C469 H472 0.929 . S
C470 C469 1.363 . S
C470 C476 1.428 . S
H471 C467 0.930 . S
H472 C469 0.929 . S
S473 N474 1.613 . S
S473 N475 1.610 . S
N474 S473 1.613 . S
N474 C477 1.350 . S
N475 S473 1.610 . S
N475 C476 1.351 . S
C476 C470 1.428 . S
C476 N475 1.351 . S
C476 C477 1.434 . S
C477 C468 1.429 . S
C477 N474 1.350 . S
C477 C476 1.434 . S
C478 C479 1.369 . S
C478 C480 1.419 1_554 S
C478 H482 0.930 . S
C479 C478 1.369 . S
C479 C488 1.429 1_455 S
C480 C478 1.419 1_556 S
C480 C481 1.363 1_455 S
C480 H483 0.929 . S
C481 C480 1.363 1_655 S
C481 C487 1.428 . S
H482 C478 0.930 . S
H483 C480 0.929 . S
S484 N485 1.613 . S
S484 N486 1.610 1_554 S
N485 S484 1.613 . S
N485 C488 1.350 . S
N486 S484 1.610 1_556 S
N486 C487 1.351 . S
C487 C481 1.428 . S
C487 N486 1.351 . S
C487 C488 1.434 1_556 S
C488 C479 1.429 1_655 S
C488 N485 1.350 . S
C488 C487 1.434 1_554 S
C489 C490 1.369 1_545 S
C489 C491 1.419 . S
C489 H493 0.930 . S
C490 C489 1.369 1_565 S
C490 C499 1.429 . S
C491 C489 1.419 . S
C491 C492 1.363 . S
C491 H494 0.929 . S
C492 C491 1.363 . S
C492 C498 1.428 1_545 S
H493 C489 0.930 . S
H494 C491 0.929 . S
S495 N496 1.613 . S
S495 N497 1.610 . S
N496 S495 1.613 . S
N496 C499 1.350 . S
N497 S495 1.610 . S
N497 C498 1.351 . S
C498 C492 1.428 1_565 S
C498 N497 1.351 . S
C498 C499 1.434 . S
C499 C490 1.429 . S
C499 N496 1.350 . S
C499 C498 1.434 . S
C500 C501 1.372 . S
C500 C502 1.415 1_554 S
C500 H504 0.931 1_554 S
C501 C500 1.372 . S
C501 C510 1.429 . S
C502 C500 1.415 1_556 S
C502 C503 1.363 . S
C502 H505 0.929 . S
C503 C502 1.363 . S
C503 C509 1.424 1_556 S
H504 C500 0.931 1_556 S
H505 C502 0.929 . S
S506 N507 1.613 . S
S506 N508 1.610 . S
N507 S506 1.613 . S
N507 C510 1.350 . S
N508 S506 1.610 . S
N508 C509 1.351 . S
C509 C503 1.424 1_554 S
C509 N508 1.351 . S
C509 C510 1.440 . S
C510 C501 1.429 . S
C510 N507 1.350 . S
C510 C509 1.440 . S
C511 C512 1.369 . S
C511 C513 1.419 1_655 S
C511 H515 0.930 . S
C512 C511 1.369 . S
C512 C521 1.429 . S
C513 C511 1.419 1_455 S
C513 C514 1.363 . S
C513 H516 0.929 . S
C514 C513 1.363 . S
C514 C520 1.428 . S
H515 C511 0.930 . S
H516 C513 0.929 . S
S517 N518 1.613 . S
S517 N519 1.610 . S
N518 S517 1.613 . S
N518 C521 1.350 . S
N519 S517 1.610 . S
N519 C520 1.351 1_655 S
C520 C514 1.428 . S
C520 N519 1.351 1_455 S
C520 C521 1.434 1_455 S
C521 C512 1.429 . S
C521 N518 1.350 . S
C521 C520 1.434 1_655 S
C522 C523 1.369 . S
C522 C524 1.419 . S
C522 H526 0.930 . S
C523 C522 1.369 . S
C523 C532 1.429 . S
C524 C522 1.419 . S
C524 C525 1.363 . S
C524 H527 0.929 . S
C525 C524 1.363 . S
C525 C531 1.428 . S
H526 C522 0.930 . S
H527 C524 0.929 . S
S528 N529 1.613 . S
S528 N530 1.610 . S
N529 S528 1.613 . S
N529 C532 1.350 . S
N530 S528 1.610 . S
N530 C531 1.351 . S
C531 C525 1.428 . S
C531 N530 1.351 . S
C531 C532 1.434 . S
C532 C523 1.429 . S
C532 N529 1.350 . S
C532 C531 1.434 . S
C533 C534 1.369 . S
C533 C535 1.419 . S
C533 H537 0.930 . S
C534 C533 1.369 . S
C534 C543 1.429 . S
C535 C533 1.419 . S
C535 C536 1.363 . S
C535 H538 0.929 . S
C536 C535 1.363 . S
C536 C542 1.428 . S
H537 C533 0.930 . S
H538 C535 0.929 . S
S539 N540 1.613 . S
S539 N541 1.610 . S
N540 S539 1.613 . S
N540 C543 1.350 . S
N541 S539 1.610 . S
N541 C542 1.351 . S
C542 C536 1.428 . S
C542 N541 1.351 . S
C542 C543 1.434 . S
C543 C534 1.429 . S
C543 N540 1.350 . S
C543 C542 1.434 . S
C544 C545 1.369 . S
C544 C546 1.419 . S
C544 H548 0.930 . S
C545 C544 1.369 . S
C545 C554 1.429 . S
C546 C544 1.419 . S
C546 C547 1.363 . S
C546 H549 0.929 . S
C547 C546 1.363 . S
C547 C553 1.428 . S
H548 C544 0.930 . S
H549 C546 0.929 . S
S550 N551 1.613 . S
S550 N552 1.610 . S
N551 S550 1.613 . S
N551 C554 1.350 . S
N552 S550 1.610 . S
N552 C553 1.351 . S
C553 C547 1.428 . S
C553 N552 1.351 . S
C553 C554 1.434 . S
C554 C545 1.429 . S
C554 N551 1.350 . S
C554 C553 1.434 . S
C555 C556 1.369 . S
C555 C557 1.419 . S
C555 H559 0.930 . S
C556 C555 1.369 . S
C556 C565 1.429 . S
C557 C555 1.419 . S
C557 C558 1.363 . S
C557 H560 0.929 . S
C558 C557 1.363 . S
C558 C564 1.428 . S
H559 C555 0.930 . S
H560 C557 0.929 . S
S561 N562 1.613 . S
S561 N563 1.610 . S
N562 S561 1.613 . S
N562 C565 1.350 . S
N563 S561 1.610 . S
N563 C564 1.351 . S
C564 C558 1.428 . S
C564 N563 1.351 . S
C564 C565 1.434 . S
C565 C556 1.429 . S
C565 N562 1.350 . S
C565 C564 1.434 . S
C566 C567 1.369 . S
C566 C568 1.419 . S
C566 H570 0.930 . S
C567 C566 1.369 . S
C567 C576 1.429 . S
C568 C566 1.419 . S
C568 C569 1.363 . S
C568 H571 0.929 . S
C569 C568 1.363 . S
C569 C575 1.428 . S
H570 C566 0.930 . S
H571 C568 0.929 . S
S572 N573 1.613 . S
S572 N574 1.610 . S
N573 S572 1.613 . S
N573 C576 1.350 . S
N574 S572 1.610 . S
N574 C575 1.351 . S
C575 C569 1.428 . S
C575 N574 1.351 . S
C575 C576 1.434 . S
C576 C567 1.429 . S
C576 N573 1.350 . S
C576 C575 1.434 . S
C577 C578 1.369 . S
C577 C579 1.419 . S
C577 H581 0.930 . S
C578 C577 1.369 . S
C578 C587 1.429 . S
C579 C577 1.419 . S
C579 C580 1.363 . S
C579 H582 0.929 . S
C580 C579 1.363 . S
C580 C586 1.428 . S
H581 C577 0.930 . S
H582 C579 0.929 . S
S583 N584 1.613 . S
S583 N585 1.610 . S
N584 S583 1.613 . S
N584 C587 1.350 . S
N585 S583 1.610 . S
N585 C586 1.351 . S
C586 C580 1.428 . S
C586 N585 1.351 . S
C586 C587 1.434 . S
C587 C578 1.429 . S
C587 N584 1.350 . S
C587 C586 1.434 . S
C457 C371 1.842 . S
C459 C58 1.838 . S
C468 C286 4.060 . S
C470 C143 4.059 . S
C479 C15 1.968 1_455 S
C481 C326 1.980 1_655 S
C490 C243 3.790 . S
C492 C98 3.795 . S
C501 C156 1.994 . S
C503 C301 2.005 . S
C512 C73 1.389 . S
C514 C384 1.399 . S
C523 C31 1.578 1_565 S
C525 C113 1.582 . S
C534 C273 0.985 . S
C536 C354 0.962 . S
C545 C1 1.604 . S
C547 C86 1.601 . S
C556 C259 1.578 . S
C558 C341 1.582 1_545 S
C567 C45 0.962 . S
C569 C126 0.980 . S
C578 C229 1.599 . S
C580 C314 1.605 . S
