# Generated by pormake.
# Topology sxc, (6)-cn, num edge types: 1
# Building blocks:
#     Node 0, Type 0, BuildingBlock: PAMTOO_clean_sbu_0, # of connection points: 6
#     Node 1, Type 0, BuildingBlock: PAMTOO_clean_sbu_0, # of connection points: 6
#     Node 2, Type 0, BuildingBlock: PAMTOO_clean_sbu_0, # of connection points: 6
#     Edge 3, Type (0, 0), BuildingBlock: CIFDUS_clean_linker_0, # of connection points: 2
#     Edge 4, Type (0, 0), BuildingBlock: CIFDUS_clean_linker_0, # of connection points: 2
#     Edge 5, Type (0, 0), BuildingBlock: CIFDUS_clean_linker_0, # of connection points: 2
#     Edge 6, Type (0, 0), BuildingBlock: CIFDUS_clean_linker_0, # of connection points: 2
#     Edge 7, Type (0, 0), BuildingBlock: CIFDUS_clean_linker_0, # of connection points: 2
#     Edge 8, Type (0, 0), BuildingBlock: CIFDUS_clean_linker_0, # of connection points: 2
#     Edge 9, Type (0, 0), BuildingBlock: CIFDUS_clean_linker_0, # of connection points: 2
#     Edge 10, Type (0, 0), BuildingBlock: CIFDUS_clean_linker_0, # of connection points: 2
#     Edge 11, Type (0, 0), BuildingBlock: CIFDUS_clean_linker_0, # of connection points: 2
# Relax obj value: 0.420
# Max RMSD: 0.138
# Mean RMSD: 0.107
data_MOF--net-sxc--node1-PAMTOO_clean_sbu_0--edge1-CIFDUS_clean_linker_0
_symmetry_space_group_name_H-M    P1
_symmetry_Int_Tables_number       1
_symmetry_cell_setting            triclinic
loop_
_symmetry_equiv_pos_as_xyz
'x, y, z'
_cell_length_a     15.023204
_cell_length_b     13.942308
_cell_length_c     40.25785
_cell_angle_alpha  93.600123
_cell_angle_beta   97.118734
_cell_angle_gamma 91.510577
loop_
_atom_site_label
_atom_site_type_symbol
_atom_site_fract_x
_atom_site_fract_y
_atom_site_fract_z
_atom_type_partial_charge
Dy0 Dy 1.10901 0.13954 -0.01708 0.0
Dy1 Dy 0.32346 0.12728 -0.01658 0.0
C2 C 0.23852 0.14346 0.05248 0.0
O3 O 1.14898 0.29503 0.97641 0.0
O4 O 0.30209 0.28882 -0.01075 0.0
O5 O 0.99067 0.13639 0.00816 0.0
O6 O 0.97848 0.15883 0.95512 0.0
O7 O 0.26659 0.16481 0.93191 0.0
O8 O 1.13475 0.08289 0.93184 0.0
O9 O 0.27718 0.96959 0.97785 0.0
O10 O 1.13284 0.9811 -0.0096 0.0
O11 O 0.432 0.066 0.95982 0.0
O12 O 0.46059 0.16555 0.00369 0.0
C13 C 0.2288 0.33904 -0.01711 0.0
O14 O 0.16739 0.17896 0.03596 0.0
O15 O 0.30167 0.10531 0.03661 0.0
C16 C 0.87526 1.05019 0.97289 0.0
C17 C 0.78272 0.87568 0.95076 0.0
C18 C 0.84823 0.88042 0.97887 0.0
C19 C 0.8941 0.96651 -0.01021 0.0
C20 C 0.80598 1.04713 0.94594 0.0
C21 C 0.75943 0.96023 0.93502 0.0
C22 C 0.9368 0.13482 0.98008 0.0
C23 C 0.19498 0.12113 0.91535 0.0
C24 C 0.20163 0.92822 -0.01576 0.0
C25 C 0.55063 0.17947 0.96079 0.0
C26 C 0.64642 0.32758 0.93525 0.0
C27 C 0.56228 0.29479 0.91876 0.0
C28 C 0.51444 0.22174 0.93156 0.0
C29 C 0.638 0.20551 0.97543 0.0
C30 C 0.68581 0.27913 0.96272 0.0
C31 C 0.4928 0.12027 0.97866 0.0
H32 H 0.86578 0.81662 -0.00805 0.0
H33 H 0.94726 0.96601 0.01058 0.0
H34 H 0.79084 0.11071 0.93243 0.0
H35 H 0.7084 0.95818 0.91345 0.0
H36 H 0.53094 0.32996 0.89728 0.0
H37 H 0.44695 0.20266 0.91981 0.0
H38 H 0.66684 0.17351 -0.00202 0.0
H39 H 0.7504 0.3031 0.97607 0.0
Dy40 Dy 0.25237 0.14481 0.32459 0.0
Dy41 Dy 1.04022 0.15168 0.30272 0.0
C42 C 0.17651 0.14135 0.24789 0.0
O43 O 0.22736 0.30577 0.32591 0.0
O44 O 1.08025 0.30997 0.30197 0.0
O45 O 0.38844 0.10819 0.31902 0.0
O46 O 0.35738 0.17713 0.36584 0.0
O47 O 1.0606 0.19953 0.35739 0.0
O48 O 0.17976 0.10534 0.36736 0.0
O49 O 1.06401 0.9959 0.31466 0.0
O50 O 0.21387 0.98714 0.31029 0.0
O51 O 0.93189 0.16871 0.26306 0.0
O52 O 0.90311 0.12863 0.31184 0.0
C53 C 1.15717 0.35489 0.31412 0.0
O54 O 0.24264 0.17569 0.27016 0.0
O55 O 1.10375 0.10411 0.2575 0.0
C56 C 0.45579 1.04893 0.36855 0.0
C57 C 0.53296 0.87233 0.3825 0.0
C58 C 0.43962 0.88147 0.38098 0.0
C59 C 0.40123 0.96932 0.37391 0.0
C60 C 0.54894 1.04386 0.37488 0.0
C61 C 0.58742 0.95645 0.38226 0.0
C62 C 0.41596 0.12915 0.35078 0.0
C63 C 1.11538 0.15451 0.37849 0.0
C64 C 1.13561 0.94388 0.31222 0.0
C65 C 0.82382 1.04483 0.26516 0.0
C66 C 0.73747 0.86222 0.25728 0.0
C67 C 0.68752 0.94615 0.25981 0.0
C68 C 0.73065 1.0368 0.2641 0.0
C69 C 0.87217 0.96253 0.25811 0.0
C70 C 0.82929 0.87158 0.25434 0.0
C71 C 0.87234 0.13281 0.28022 0.0
H72 H 0.39596 0.81844 0.38117 0.0
H73 H 0.3288 0.97251 0.3695 0.0
H74 H 0.59192 0.10482 0.37109 0.0
H75 H 0.6596 0.95271 0.38323 0.0
H76 H 0.61678 0.94153 0.26266 0.0
H77 H 0.6924 0.0994 0.26959 0.0
H78 H 0.94438 0.9676 0.25861 0.0
H79 H 0.86925 0.80834 0.25257 0.0
Dy80 Dy 1.14844 0.23883 0.64522 0.0
Dy81 Dy 1.15447 1.01837 0.64764 0.0
C82 C 1.13796 0.1109 0.57739 0.0
O83 O 0.99342 0.20712 0.65014 0.0
O84 O 0.99567 1.04399 0.64323 0.0
O85 O 1.15451 0.3641 0.6168 0.0
O86 O 1.13942 0.38097 0.66953 0.0
O87 O 1.1345 0.06915 0.69977 0.0
O88 O 0.20225 0.21487 0.69847 0.0
O89 O 0.31251 1.05382 0.65186 0.0
O90 O 0.30435 0.21179 0.64121 0.0
O91 O 0.20276 0.89224 0.67162 0.0
O92 O 1.11053 0.87754 0.62547 0.0
C93 C 0.94609 0.12296 0.64666 0.0
O94 O 1.10172 0.18302 0.59237 0.0
O95 O 0.17841 1.04622 0.59535 0.0
C96 C 0.24449 0.48421 0.64959 0.0
C97 C 0.41515 0.572 0.66911 0.0
C98 C 0.40027 0.50717 0.6408 0.0
C99 C 0.31607 0.46377 0.63112 0.0
C100 C 0.25773 0.55379 0.67671 0.0
C101 C 0.34269 0.59796 0.68634 0.0
C102 C 0.1618 0.42293 0.64355 0.0
C103 C 0.17392 0.14621 0.71561 0.0
C104 C 0.35687 0.13539 0.64644 0.0
C105 C 1.08667 0.77379 0.66693 0.0
C106 C 0.93656 0.67972 0.68696 0.0
C107 C 0.97329 0.76444 0.70468 0.0
C108 C 1.04744 0.8114 0.69464 0.0
C109 C 1.05521 0.685 0.65103 0.0
C110 C 0.98068 0.63798 0.66103 0.0
C111 C 1.14835 0.83454 0.65121 0.0
H112 H 0.45474 0.48775 0.62665 0.0
H113 H 0.30867 0.41067 0.61006 0.0
H114 H 0.20364 0.57049 0.69136 0.0
H115 H 0.35275 0.6486 0.70811 0.0
H116 H 0.94147 0.7974 0.72505 0.0
H117 H 1.0704 0.88018 0.70722 0.0
H118 H 1.08446 0.65529 0.62951 0.0
H119 H 0.95365 0.573 0.64677 0.0
H120 H 1.09572 0.47618 -0.01743 0.0
H121 H 0.38158 0.45289 -0.017 0.0
H122 H 0.39872 0.62767 -0.01709 0.0
H123 H 0.33384 0.79071 -0.0169 0.0
H124 H 1.04872 0.81456 -0.01546 0.0
H125 H 1.03099 0.63958 -0.0165 0.0
C126 C 0.16198 0.5089 -0.01737 0.0
C127 C 0.23721 0.44876 -0.01719 0.0
C128 C 0.17191 0.61147 -0.01699 0.0
C129 C 0.32205 0.49505 -0.01698 0.0
C130 C 0.33206 0.59604 -0.01707 0.0
C131 C 0.26762 0.75808 -0.01677 0.0
C132 C 0.1928 0.81845 -0.01604 0.0
C133 C 0.25769 0.65558 -0.01698 0.0
C134 C 1.10806 0.77229 -0.01583 0.0
C135 C 1.0977 0.67114 -0.01648 0.0
H136 H 0.46166 0.74744 0.33179 0.0
H137 H 0.69012 0.78745 0.40757 0.0
H138 H 0.789 0.73603 0.36674 0.0
H139 H 0.80943 0.76357 0.30869 0.0
H140 H 0.5793 0.76271 0.23346 0.0
H141 H 0.48268 0.70999 0.27363 0.0
C142 C 0.53232 0.73881 0.33998 0.0
C143 C 0.56997 0.77919 0.37172 0.0
C144 C 0.58905 0.71975 0.31543 0.0
C145 C 0.66036 0.76187 0.38258 0.0
C146 C 0.71724 0.73433 0.35895 0.0
C147 C 0.73903 0.74584 0.30051 0.0
C148 C 0.70008 0.77278 0.26897 0.0
C149 C 0.68301 0.72595 0.32477 0.0
C150 C 0.6099 0.74587 0.25812 0.0
C151 C 0.5544 0.7174 0.28135 0.0
H152 H 0.79115 0.78573 0.69429 0.0
H153 H 0.87786 0.49292 0.68928 0.0
H154 H 0.72248 0.43394 0.68734 0.0
H155 H 0.56169 0.46609 0.68038 0.0
H156 H 0.47481 0.75845 0.68369 0.0
H157 H 0.6315 0.81776 0.69413 0.0
C158 C 0.77649 0.70901 0.69376 0.0
C159 C 0.84582 0.64363 0.69179 0.0
C160 C 0.68715 0.67584 0.69206 0.0
C161 C 0.82544 0.54447 0.69045 0.0
C162 C 0.73673 0.51082 0.6893 0.0
C163 C 0.57735 0.54279 0.68374 0.0
C164 C 0.5076 0.60817 0.68077 0.0
C165 C 0.66701 0.57589 0.68897 0.0
C166 C 0.52783 0.70717 0.68581 0.0
C167 C 0.61719 0.74087 0.69151 0.0
H168 H 0.79555 0.26401 0.64459 0.0
H169 H 0.83198 0.95962 0.64939 0.0
H170 H 0.67034 0.9346 0.65014 0.0
H171 H 0.50774 0.99468 0.64963 0.0
H172 H 0.47067 0.29835 0.64289 0.0
H173 H 0.63241 0.32356 0.64257 0.0
C174 C 0.77 0.19117 0.64582 0.0
C175 C 0.8356 0.11418 0.64696 0.0
C176 C 0.67079 0.17564 0.64596 0.0
C177 C 0.79132 1.02259 0.64841 0.0
C178 C 0.69541 1.00764 0.64891 0.0
C179 C 0.53322 0.06743 0.64813 0.0
C180 C 0.46742 0.14421 0.64638 0.0
C181 C 0.63234 0.08287 0.64772 0.0
C182 C 0.51149 0.23558 0.64434 0.0
C183 C 0.60752 0.25067 0.64424 0.0
H184 H 0.86953 0.71335 0.93823 0.0
H185 H 0.60458 0.82694 0.93513 0.0
H186 H 0.53786 0.66403 0.92428 0.0
H187 H 0.55687 0.4905 0.92486 0.0
H188 H 0.82238 0.37642 0.93109 0.0
H189 H 0.88762 0.53929 0.9317 0.0
C190 C 0.79709 0.70224 0.93471 0.0
C191 C 0.74173 0.78113 0.93802 0.0
C192 C 0.7598 0.60877 0.92944 0.0
C193 C 0.64817 0.76687 0.93275 0.0
C194 C 0.61025 0.6739 0.9268 0.0
C195 C 0.6288 0.50079 0.92518 0.0
C196 C 0.68492 0.42168 0.92808 0.0
C197 C 0.66563 0.59433 0.92632 0.0
C198 C 0.77808 0.43644 0.92916 0.0
C199 C 0.81527 0.52936 0.92955 0.0
H200 H 1.02465 0.49272 0.30763 0.0
H201 H 0.31213 0.46775 0.32095 0.0
H202 H 0.33167 0.64206 0.32079 0.0
H203 H 0.26855 0.80583 0.31723 0.0
H204 H 0.98116 0.83112 0.30715 0.0
H205 H 0.96141 0.65656 0.30576 0.0
C206 C 1.09179 0.52505 0.31048 0.0
C207 C 0.16669 0.46451 0.31421 0.0
C208 C 1.1031 0.62752 0.31098 0.0
C209 C 0.25269 0.51027 0.31813 0.0
C210 C 0.26416 0.61108 0.31801 0.0
C211 C 0.2014 0.77354 0.31463 0.0
C212 C 1.12646 0.83418 0.31186 0.0
C213 C 0.19009 0.67111 0.3145 0.0
C214 C 1.04053 0.78853 0.30898 0.0
C215 C 1.02899 0.6876 0.30826 0.0
H216 H 0.32095 0.12927 0.21134 0.0
H217 H 1.03518 0.1687 0.20194 0.0
H218 H 1.03009 0.17681 0.1416 0.0
H219 H 1.10423 0.16873 0.09106 0.0
H220 H 0.38774 0.11879 0.09799 0.0
H221 H 0.39618 0.11834 0.15924 0.0
C222 C 0.25789 0.14009 0.19601 0.0
C223 C 0.17853 0.14825 0.21125 0.0
C224 C 0.25479 0.14237 0.16074 0.0
C225 C 1.09715 0.16138 0.19095 0.0
C226 C 1.09407 0.16627 0.15635 0.0
C227 C 0.1682 0.15833 0.10588 0.0
C228 C 0.2453 0.14445 0.08979 0.0
C229 C 0.17214 0.1562 0.14092 0.0
C230 C 0.32719 0.12972 0.1096 0.0
C231 C 0.33208 0.12955 0.1447 0.0
H232 H 0.19524 1.04027 0.42486 0.0
H233 H 1.01172 0.27235 0.41403 0.0
H234 H 1.00107 0.27892 0.4744 0.0
H235 H 1.04766 0.22121 0.53078 0.0
H236 H 0.22866 0.98613 0.54022 0.0
H237 H 0.2361 0.97845 0.48004 0.0
C238 C 1.15261 0.0923 0.4356 0.0
C239 C 1.10469 0.15609 0.41483 0.0
C240 C 1.14642 0.09525 0.47023 0.0
C241 C 1.04931 0.2223 0.42932 0.0
C242 C 1.04338 0.22623 0.4639 0.0
C243 C 1.08844 0.16805 0.51966 0.0
C244 C 1.13778 0.10458 0.54026 0.0
C245 C 1.09217 0.16346 0.4847 0.0
C246 C 0.18987 1.03592 0.52521 0.0
C247 C 0.19439 1.0315 0.49069 0.0
H248 H 1.09319 1.03866 0.75846 0.0
H249 H 0.28615 0.27262 0.75699 0.0
H250 H 0.31171 0.28401 0.81834 0.0
H251 H 0.27927 0.22742 0.87272 0.0
H252 H 1.08053 0.99878 0.87379 0.0
H253 H 1.05758 0.98551 0.81255 0.0
C254 C 1.1409 0.09219 0.77152 0.0
C255 C 0.18786 0.15447 0.75299 0.0
C256 C 1.15437 0.0993 0.80688 0.0
C257 C 0.24885 0.22386 0.77049 0.0
C258 C 0.26369 0.2303 0.80564 0.0
C259 C 0.23108 0.17455 0.85955 0.0
C260 C 0.18198 0.11396 0.87797 0.0
C261 C 0.21691 0.16835 0.82414 0.0
C262 C 1.1192 1.04651 0.86039 0.0
C263 C 1.10603 1.03875 0.82529 0.0
loop_
_geom_bond_atom_site_label_1
_geom_bond_atom_site_label_2
_geom_bond_distance
_geom_bond_site_symmetry_2
_ccdc_geom_bond_type
Dy0 O3 2.307 1_565 S
Dy0 O5 2.395 1_556 S
Dy0 O6 2.379 . S
Dy0 O8 2.339 . S
Dy0 O10 2.298 . S
Dy0 O14 2.275 1_656 S
Dy0 C22 2.738 . S
Dy1 O4 2.298 . S
Dy1 O7 2.275 1_554 S
Dy1 O9 2.307 1_545 S
Dy1 O11 2.395 1_554 S
Dy1 O12 2.379 . S
Dy1 O15 2.339 . S
Dy1 C31 2.738 . S
C2 O14 1.254 1_545 S
C2 O15 1.257 . S
O3 Dy0 2.307 1_545 S
O3 C13 1.265 1_656 S
O4 Dy1 2.298 . S
O4 C13 1.238 . S
O5 Dy0 2.395 1_554 S
O5 C22 1.255 1_554 S
O6 Dy0 2.379 . S
O6 C22 1.249 . S
O7 Dy1 2.275 1_556 S
O7 C23 1.254 . S
O8 Dy0 2.339 . S
O8 C23 1.257 1_665 S
O9 Dy1 2.307 1_565 S
O9 C24 1.266 . S
O10 Dy0 2.298 . S
O10 C24 1.236 1_656 S
O11 Dy1 2.395 1_556 S
O11 C31 1.255 1_556 S
O12 Dy1 2.379 . S
O12 C31 1.249 . S
C13 O3 1.265 1_454 S
C13 O4 1.238 . S
O14 Dy0 2.275 1_454 S
O14 C2 1.254 1_565 S
O15 Dy1 2.339 . S
O15 C2 1.257 . S
C16 C19 1.344 1_556 S
C16 C20 1.328 . S
C16 C22 1.516 . S
C17 C18 1.304 1_556 S
C17 C21 1.323 . S
C18 C17 1.304 1_554 S
C18 C19 1.371 . S
C18 H32 0.930 . S
C19 C16 1.344 1_554 S
C19 C18 1.371 . S
C19 H33 0.931 . S
C20 C16 1.328 . S
C20 C21 1.433 . S
C20 H34 0.931 . S
C21 C17 1.323 . S
C21 C20 1.433 . S
C21 H35 0.933 . S
C22 Dy0 2.738 . S
C22 O5 1.255 1_556 S
C22 O6 1.249 . S
C22 C16 1.516 . S
C23 O7 1.254 . S
C23 O8 1.257 1_445 S
C24 O9 1.266 . S
C24 O10 1.236 1_454 S
C25 C28 1.344 1_554 S
C25 C29 1.328 . S
C25 C31 1.516 . S
C26 C27 1.304 1_554 S
C26 C30 1.323 . S
C27 C26 1.304 1_556 S
C27 C28 1.371 . S
C27 H36 0.930 . S
C28 C25 1.344 1_556 S
C28 C27 1.371 . S
C28 H37 0.931 . S
C29 C25 1.328 . S
C29 C30 1.433 . S
C29 H38 0.931 . S
C30 C26 1.323 . S
C30 C29 1.433 . S
C30 H39 0.933 . S
C31 Dy1 2.738 . S
C31 O11 1.255 1_554 S
C31 O12 1.249 . S
C31 C25 1.516 . S
H32 C18 0.930 . S
H33 C19 0.931 . S
H34 C20 0.931 . S
H35 C21 0.933 . S
H36 C27 0.930 . S
H37 C28 0.931 . S
H38 C29 0.931 . S
H39 C30 0.933 . S
Dy40 O43 2.307 . S
Dy40 O45 2.395 . S
Dy40 O46 2.379 . S
Dy40 O48 2.339 . S
Dy40 O50 2.298 1_545 S
Dy40 O54 2.275 . S
Dy40 C62 2.738 . S
Dy41 O44 2.298 1_565 S
Dy41 O47 2.275 1_565 S
Dy41 O49 2.307 . S
Dy41 O51 2.395 1_565 S
Dy41 O52 2.379 1_565 S
Dy41 O55 2.339 . S
Dy41 C71 2.738 1_565 S
C42 O54 1.254 1_655 S
C42 O55 1.257 1_545 S
O43 Dy40 2.307 . S
O43 C53 1.266 1_455 S
O44 Dy41 2.298 1_545 S
O44 C53 1.236 . S
O45 Dy40 2.395 . S
O45 C62 1.255 . S
O46 Dy40 2.379 . S
O46 C62 1.249 . S
O47 Dy41 2.275 1_545 S
O47 C63 1.254 1_655 S
O48 Dy40 2.339 . S
O48 C63 1.257 . S
O49 Dy41 2.307 . S
O49 C64 1.266 1_655 S
O50 Dy40 2.298 1_565 S
O50 C64 1.236 . S
O51 Dy41 2.395 1_545 S
O51 C71 1.255 . S
O52 Dy41 2.379 1_545 S
O52 C71 1.249 . S
C53 O43 1.266 1_655 S
C53 O44 1.236 . S
O54 Dy40 2.275 . S
O54 C42 1.254 1_455 S
O55 Dy41 2.339 . S
O55 C42 1.257 1_565 S
C56 C59 1.344 . S
C56 C60 1.328 . S
C56 C62 1.516 1_565 S
C57 C58 1.304 . S
C57 C61 1.323 . S
C58 C57 1.304 . S
C58 C59 1.371 . S
C58 H72 0.930 . S
C59 C56 1.344 . S
C59 C58 1.371 . S
C59 H73 0.931 . S
C60 C56 1.328 . S
C60 C61 1.433 . S
C60 H74 0.931 1_565 S
C61 C57 1.323 . S
C61 C60 1.433 . S
C61 H75 0.933 . S
C62 Dy40 2.738 . S
C62 O45 1.255 . S
C62 O46 1.249 . S
C62 C56 1.516 1_545 S
C63 O47 1.254 1_455 S
C63 O48 1.257 . S
C64 O49 1.266 1_455 S
C64 O50 1.236 . S
C65 C68 1.344 . S
C65 C69 1.328 . S
C65 C71 1.516 . S
C66 C67 1.304 . S
C66 C70 1.323 . S
C67 C66 1.304 . S
C67 C68 1.371 . S
C67 H76 0.930 . S
C68 C65 1.344 . S
C68 C67 1.371 . S
C68 H77 0.931 . S
C69 C65 1.328 . S
C69 C70 1.433 . S
C69 H78 0.931 . S
C70 C66 1.323 . S
C70 C69 1.433 . S
C70 H79 0.933 . S
C71 Dy41 2.738 1_545 S
C71 O51 1.255 . S
C71 O52 1.249 . S
C71 C65 1.516 . S
H72 C58 0.930 . S
H73 C59 0.931 . S
H74 C60 0.931 1_545 S
H75 C61 0.933 . S
H76 C67 0.930 . S
H77 C68 0.931 . S
H78 C69 0.931 . S
H79 C70 0.933 . S
Dy80 O83 2.307 1_455 S
Dy80 O85 2.395 . S
Dy80 O86 2.379 . S
Dy80 O88 2.339 . S
Dy80 O90 2.298 . S
Dy80 O94 2.275 . S
Dy80 C102 2.738 . S
Dy81 O84 2.298 1_565 S
Dy81 O87 2.275 1_565 S
Dy81 O89 2.307 1_655 S
Dy81 O91 2.395 . S
Dy81 O92 2.379 . S
Dy81 O95 2.339 . S
Dy81 C111 2.738 . S
C82 O94 1.254 1_655 S
C82 O95 1.257 1_545 S
O83 Dy80 2.307 1_655 S
O83 C93 1.266 . S
O84 Dy81 2.298 1_545 S
O84 C93 1.236 . S
O85 Dy80 2.395 . S
O85 C102 1.255 . S
O86 Dy80 2.379 . S
O86 C102 1.249 . S
O87 Dy81 2.275 1_545 S
O87 C103 1.254 1_655 S
O88 Dy80 2.339 . S
O88 C103 1.257 . S
O89 Dy81 2.307 1_455 S
O89 C104 1.266 1_565 S
O90 Dy80 2.298 . S
O90 C104 1.236 . S
O91 Dy81 2.395 . S
O91 C111 1.255 . S
O92 Dy81 2.379 . S
O92 C111 1.249 . S
C93 O83 1.266 . S
C93 O84 1.236 . S
O94 Dy80 2.275 . S
O94 C82 1.254 1_455 S
O95 Dy81 2.339 . S
O95 C82 1.257 1_565 S
C96 C99 1.344 . S
C96 C100 1.328 . S
C96 C102 1.516 . S
C97 C98 1.304 . S
C97 C101 1.323 . S
C98 C97 1.304 . S
C98 C99 1.371 . S
C98 H112 0.930 . S
C99 C96 1.344 . S
C99 C98 1.371 . S
C99 H113 0.931 . S
C100 C96 1.328 . S
C100 C101 1.433 . S
C100 H114 0.931 . S
C101 C97 1.323 . S
C101 C100 1.433 . S
C101 H115 0.933 . S
C102 Dy80 2.738 . S
C102 O85 1.255 . S
C102 O86 1.249 . S
C102 C96 1.516 . S
C103 O87 1.254 1_455 S
C103 O88 1.257 . S
C104 O89 1.266 1_545 S
C104 O90 1.236 . S
C105 C108 1.344 . S
C105 C109 1.328 . S
C105 C111 1.516 . S
C106 C107 1.304 . S
C106 C110 1.323 . S
C107 C106 1.304 . S
C107 C108 1.371 . S
C107 H116 0.930 . S
C108 C105 1.344 . S
C108 C107 1.371 . S
C108 H117 0.931 . S
C109 C105 1.328 . S
C109 C110 1.433 . S
C109 H118 0.931 . S
C110 C106 1.323 . S
C110 C109 1.433 . S
C110 H119 0.933 . S
C111 Dy81 2.738 . S
C111 O91 1.255 . S
C111 O92 1.249 . S
C111 C105 1.516 . S
H112 C98 0.930 . S
H113 C99 0.931 . S
H114 C100 0.931 . S
H115 C101 0.933 . S
H116 C107 0.930 . S
H117 C108 0.931 . S
H118 C109 0.931 . S
H119 C110 0.933 . S
H120 C126 0.930 . S
H121 C129 0.930 . S
H122 C130 0.930 . S
H123 C131 0.930 . S
H124 C134 0.930 . S
H125 C135 0.930 . S
C126 H120 0.930 . S
C126 C127 1.355 1_655 S
C126 C128 1.415 . S
C127 C126 1.355 1_455 S
C127 C129 1.419 1_556 S
C128 C126 1.415 . S
C128 C133 1.425 1_656 S
C128 C135 1.409 . S
C129 H121 0.930 . S
C129 C127 1.419 1_554 S
C129 C130 1.362 . S
C130 H122 0.930 . S
C130 C129 1.362 . S
C130 C133 1.409 . S
C131 H123 0.930 . S
C131 C132 1.355 . S
C131 C133 1.415 . S
C132 C131 1.355 . S
C132 C134 1.419 1_454 S
C133 C128 1.425 1_454 S
C133 C130 1.409 . S
C133 C131 1.415 . S
C134 H124 0.930 . S
C134 C132 1.419 1_656 S
C134 C135 1.362 . S
C135 H125 0.930 . S
C135 C128 1.409 . S
C135 C134 1.362 . S
H136 C142 0.930 . S
H137 C145 0.930 . S
H138 C146 0.930 . S
H139 C147 0.930 . S
H140 C150 0.930 . S
H141 C151 0.930 . S
C142 H136 0.930 . S
C142 C143 1.355 . S
C142 C144 1.415 1_565 S
C143 C142 1.355 . S
C143 C145 1.419 . S
C144 C142 1.415 1_545 S
C144 C149 1.425 . S
C144 C151 1.409 . S
C145 H137 0.930 . S
C145 C143 1.419 . S
C145 C146 1.362 . S
C146 H138 0.930 . S
C146 C145 1.362 . S
C146 C149 1.409 1_565 S
C147 H139 0.930 . S
C147 C148 1.355 . S
C147 C149 1.415 . S
C148 C147 1.355 . S
C148 C150 1.419 . S
C149 C144 1.425 . S
C149 C146 1.409 1_545 S
C149 C147 1.415 . S
C150 H140 0.930 . S
C150 C148 1.419 . S
C150 C151 1.362 . S
C151 H141 0.930 . S
C151 C144 1.409 . S
C151 C150 1.362 . S
H152 C158 0.930 . S
H153 C161 0.930 . S
H154 C162 0.930 . S
H155 C163 0.930 . S
H156 C166 0.930 . S
H157 C167 0.930 . S
C158 H152 0.930 . S
C158 C159 1.355 . S
C158 C160 1.415 . S
C159 C158 1.355 . S
C159 C161 1.419 . S
C160 C158 1.415 . S
C160 C165 1.425 . S
C160 C167 1.409 . S
C161 H153 0.930 . S
C161 C159 1.419 . S
C161 C162 1.362 . S
C162 H154 0.930 . S
C162 C161 1.362 . S
C162 C165 1.409 . S
C163 H155 0.930 . S
C163 C164 1.355 . S
C163 C165 1.415 . S
C164 C163 1.355 . S
C164 C166 1.419 . S
C165 C160 1.425 . S
C165 C162 1.409 . S
C165 C163 1.415 . S
C166 H156 0.930 . S
C166 C164 1.419 . S
C166 C167 1.362 . S
C167 H157 0.930 . S
C167 C160 1.409 . S
C167 C166 1.362 . S
H168 C174 0.930 . S
H169 C177 0.930 . S
H170 C178 0.930 . S
H171 C179 0.930 1_565 S
H172 C182 0.930 . S
H173 C183 0.930 . S
C174 H168 0.930 . S
C174 C175 1.355 . S
C174 C176 1.415 . S
C175 C174 1.355 . S
C175 C177 1.419 1_545 S
C176 C174 1.415 . S
C176 C181 1.425 . S
C176 C183 1.409 . S
C177 H169 0.930 . S
C177 C175 1.419 1_565 S
C177 C178 1.362 . S
C178 H170 0.930 . S
C178 C177 1.362 . S
C178 C181 1.409 1_565 S
C179 H171 0.930 1_545 S
C179 C180 1.355 . S
C179 C181 1.415 . S
C180 C179 1.355 . S
C180 C182 1.419 . S
C181 C176 1.425 . S
C181 C178 1.409 1_545 S
C181 C179 1.415 . S
C182 H172 0.930 . S
C182 C180 1.419 . S
C182 C183 1.362 . S
C183 H173 0.930 . S
C183 C176 1.409 . S
C183 C182 1.362 . S
H184 C190 0.930 . S
H185 C193 0.930 . S
H186 C194 0.930 . S
H187 C195 0.930 . S
H188 C198 0.930 . S
H189 C199 0.930 . S
C190 H184 0.930 . S
C190 C191 1.355 1_554 S
C190 C192 1.415 . S
C191 C190 1.355 1_556 S
C191 C193 1.419 . S
C192 C190 1.415 . S
C192 C197 1.425 1_554 S
C192 C199 1.409 . S
C193 H185 0.930 . S
C193 C191 1.419 . S
C193 C194 1.362 . S
C194 H186 0.930 . S
C194 C193 1.362 . S
C194 C197 1.409 . S
C195 H187 0.930 . S
C195 C196 1.355 1_556 S
C195 C197 1.415 . S
C196 C195 1.355 1_554 S
C196 C198 1.419 . S
C197 C192 1.425 1_556 S
C197 C194 1.409 . S
C197 C195 1.415 . S
C198 H188 0.930 . S
C198 C196 1.419 . S
C198 C199 1.362 . S
C199 H189 0.930 . S
C199 C192 1.409 . S
C199 C198 1.362 . S
H200 C206 0.930 . S
H201 C209 0.930 . S
H202 C210 0.930 . S
H203 C211 0.930 . S
H204 C214 0.930 . S
H205 C215 0.930 . S
C206 H200 0.930 . S
C206 C207 1.355 . S
C206 C208 1.415 . S
C207 C206 1.355 . S
C207 C209 1.419 1_655 S
C208 C206 1.415 . S
C208 C213 1.425 1_655 S
C208 C215 1.409 . S
C209 H201 0.930 . S
C209 C207 1.419 1_455 S
C209 C210 1.362 . S
C210 H202 0.930 . S
C210 C209 1.362 . S
C210 C213 1.409 . S
C211 H203 0.930 . S
C211 C212 1.355 . S
C211 C213 1.415 . S
C212 C211 1.355 . S
C212 C214 1.419 1_455 S
C213 C208 1.425 1_455 S
C213 C210 1.409 . S
C213 C211 1.415 . S
C214 H204 0.930 . S
C214 C212 1.419 1_655 S
C214 C215 1.362 . S
C215 H205 0.930 . S
C215 C208 1.409 . S
C215 C214 1.362 . S
H216 C222 0.930 . S
H217 C225 0.930 . S
H218 C226 0.930 . S
H219 C227 0.930 . S
H220 C230 0.930 . S
H221 C231 0.930 . S
C222 H216 0.930 . S
C222 C223 1.355 1_565 S
C222 C224 1.415 . S
C223 C222 1.355 1_545 S
C223 C225 1.419 1_455 S
C224 C222 1.415 . S
C224 C229 1.424 1_465 S
C224 C231 1.409 . S
C225 H217 0.930 . S
C225 C223 1.419 1_655 S
C225 C226 1.362 . S
C226 H218 0.930 . S
C226 C225 1.362 . S
C226 C229 1.411 . S
C227 H219 0.930 . S
C227 C228 1.355 1_655 S
C227 C229 1.415 1_565 S
C228 C227 1.355 1_455 S
C228 C230 1.419 . S
C229 C224 1.424 1_645 S
C229 C226 1.411 . S
C229 C227 1.415 1_545 S
C230 H220 0.930 . S
C230 C228 1.419 . S
C230 C231 1.362 . S
C231 H221 0.930 . S
C231 C224 1.409 . S
C231 C230 1.362 . S
H232 C238 0.930 . S
H233 C241 0.930 . S
H234 C242 0.930 . S
H235 C243 0.930 . S
H236 C246 0.930 . S
H237 C247 0.930 . S
C238 H232 0.930 . S
C238 C239 1.355 1_565 S
C238 C240 1.415 1_565 S
C239 C238 1.355 1_545 S
C239 C241 1.419 1_455 S
C240 C238 1.415 1_545 S
C240 C245 1.425 1_455 S
C240 C247 1.409 1_545 S
C241 H233 0.930 . S
C241 C239 1.419 1_655 S
C241 C242 1.362 . S
C242 H234 0.930 . S
C242 C241 1.362 . S
C242 C245 1.409 . S
C243 H235 0.930 . S
C243 C244 1.355 1_655 S
C243 C245 1.415 . S
C244 C243 1.355 1_455 S
C244 C246 1.419 1_545 S
C245 C240 1.425 1_655 S
C245 C242 1.409 . S
C245 C243 1.415 . S
C246 H236 0.930 . S
C246 C244 1.419 1_565 S
C246 C247 1.362 . S
C247 H237 0.930 . S
C247 C240 1.409 1_565 S
C247 C246 1.362 . S
H248 C254 0.930 . S
H249 C257 0.930 . S
H250 C258 0.930 . S
H251 C259 0.930 . S
H252 C262 0.930 . S
H253 C263 0.930 . S
C254 H248 0.930 . S
C254 C255 1.355 1_655 S
C254 C256 1.415 . S
C255 C254 1.355 1_455 S
C255 C257 1.419 1_545 S
C256 C254 1.415 . S
C256 C261 1.425 1_655 S
C256 C263 1.409 . S
C257 H249 0.930 . S
C257 C255 1.419 1_565 S
C257 C258 1.362 . S
C258 H250 0.930 . S
C258 C257 1.362 . S
C258 C261 1.409 1_565 S
C259 H251 0.930 . S
C259 C260 1.355 1_565 S
C259 C261 1.415 1_565 S
C260 C259 1.355 1_545 S
C260 C262 1.419 1_455 S
C261 C256 1.425 1_455 S
C261 C258 1.409 1_545 S
C261 C259 1.415 1_545 S
C262 H252 0.930 . S
C262 C260 1.419 1_655 S
C262 C263 1.362 . S
C263 H253 0.930 . S
C263 C256 1.409 . S
C263 C262 1.362 . S
C127 C13 2.873 1_556 S
C132 C24 2.873 . S
C143 C57 1.068 . S
C148 C66 1.068 . S
C159 C106 0.991 . S
C164 C97 0.991 . S
C175 C93 4.849 . S
C180 C104 4.849 . S
C191 C17 0.532 . S
C196 C26 0.532 . S
C207 C53 2.913 . S
C212 C64 2.913 . S
C223 C42 1.474 1_455 S
C228 C2 1.484 1_565 S
C239 C63 1.495 . S
C244 C82 1.445 1_455 S
C255 C103 1.489 . S
C260 C23 1.460 . S
