# Generated by pormake.
# Topology atn, (4)-cn, num edge types: 1
# Building blocks:
#     Node 0, Type 0, BuildingBlock: QUQFOY_clean_sbu_3, # of connection points: 4
#     Node 1, Type 0, BuildingBlock: QUQFOY_clean_sbu_3, # of connection points: 4
#     Node 2, Type 0, BuildingBlock: QUQFOY_clean_sbu_3, # of connection points: 4
#     Node 3, Type 0, BuildingBlock: QUQFOY_clean_sbu_3, # of connection points: 4
#     Node 4, Type 0, BuildingBlock: QUQFOY_clean_sbu_3, # of connection points: 4
#     Node 5, Type 0, BuildingBlock: QUQFOY_clean_sbu_3, # of connection points: 4
#     Node 6, Type 0, BuildingBlock: QUQFOY_clean_sbu_3, # of connection points: 4
#     Node 7, Type 0, BuildingBlock: QUQFOY_clean_sbu_3, # of connection points: 4
#     Node 8, Type 0, BuildingBlock: QUQFOY_clean_sbu_3, # of connection points: 4
#     Node 9, Type 0, BuildingBlock: QUQFOY_clean_sbu_3, # of connection points: 4
#     Node 10, Type 0, BuildingBlock: QUQFOY_clean_sbu_3, # of connection points: 4
#     Node 11, Type 0, BuildingBlock: QUQFOY_clean_sbu_3, # of connection points: 4
#     Node 12, Type 0, BuildingBlock: QUQFOY_clean_sbu_3, # of connection points: 4
#     Node 13, Type 0, BuildingBlock: QUQFOY_clean_sbu_3, # of connection points: 4
#     Node 14, Type 0, BuildingBlock: QUQFOY_clean_sbu_3, # of connection points: 4
#     Node 15, Type 0, BuildingBlock: QUQFOY_clean_sbu_3, # of connection points: 4
#     Edge 16, Type (0, 0), BuildingBlock: EZIPEK_clean_linker_0, # of connection points: 2
#     Edge 17, Type (0, 0), BuildingBlock: EZIPEK_clean_linker_0, # of connection points: 2
#     Edge 18, Type (0, 0), BuildingBlock: EZIPEK_clean_linker_0, # of connection points: 2
#     Edge 19, Type (0, 0), BuildingBlock: EZIPEK_clean_linker_0, # of connection points: 2
#     Edge 20, Type (0, 0), BuildingBlock: EZIPEK_clean_linker_0, # of connection points: 2
#     Edge 21, Type (0, 0), BuildingBlock: EZIPEK_clean_linker_0, # of connection points: 2
#     Edge 22, Type (0, 0), BuildingBlock: EZIPEK_clean_linker_0, # of connection points: 2
#     Edge 23, Type (0, 0), BuildingBlock: EZIPEK_clean_linker_0, # of connection points: 2
#     Edge 24, Type (0, 0), BuildingBlock: EZIPEK_clean_linker_0, # of connection points: 2
#     Edge 25, Type (0, 0), BuildingBlock: EZIPEK_clean_linker_0, # of connection points: 2
#     Edge 26, Type (0, 0), BuildingBlock: EZIPEK_clean_linker_0, # of connection points: 2
#     Edge 27, Type (0, 0), BuildingBlock: EZIPEK_clean_linker_0, # of connection points: 2
#     Edge 28, Type (0, 0), BuildingBlock: EZIPEK_clean_linker_0, # of connection points: 2
#     Edge 29, Type (0, 0), BuildingBlock: EZIPEK_clean_linker_0, # of connection points: 2
#     Edge 30, Type (0, 0), BuildingBlock: EZIPEK_clean_linker_0, # of connection points: 2
#     Edge 31, Type (0, 0), BuildingBlock: EZIPEK_clean_linker_0, # of connection points: 2
#     Edge 32, Type (0, 0), BuildingBlock: EZIPEK_clean_linker_0, # of connection points: 2
#     Edge 33, Type (0, 0), BuildingBlock: EZIPEK_clean_linker_0, # of connection points: 2
#     Edge 34, Type (0, 0), BuildingBlock: EZIPEK_clean_linker_0, # of connection points: 2
#     Edge 35, Type (0, 0), BuildingBlock: EZIPEK_clean_linker_0, # of connection points: 2
#     Edge 36, Type (0, 0), BuildingBlock: EZIPEK_clean_linker_0, # of connection points: 2
#     Edge 37, Type (0, 0), BuildingBlock: EZIPEK_clean_linker_0, # of connection points: 2
#     Edge 38, Type (0, 0), BuildingBlock: EZIPEK_clean_linker_0, # of connection points: 2
#     Edge 39, Type (0, 0), BuildingBlock: EZIPEK_clean_linker_0, # of connection points: 2
#     Edge 40, Type (0, 0), BuildingBlock: EZIPEK_clean_linker_0, # of connection points: 2
#     Edge 41, Type (0, 0), BuildingBlock: EZIPEK_clean_linker_0, # of connection points: 2
#     Edge 42, Type (0, 0), BuildingBlock: EZIPEK_clean_linker_0, # of connection points: 2
#     Edge 43, Type (0, 0), BuildingBlock: EZIPEK_clean_linker_0, # of connection points: 2
#     Edge 44, Type (0, 0), BuildingBlock: EZIPEK_clean_linker_0, # of connection points: 2
#     Edge 45, Type (0, 0), BuildingBlock: EZIPEK_clean_linker_0, # of connection points: 2
#     Edge 46, Type (0, 0), BuildingBlock: EZIPEK_clean_linker_0, # of connection points: 2
#     Edge 47, Type (0, 0), BuildingBlock: EZIPEK_clean_linker_0, # of connection points: 2
# Relax obj value: 0.028
# Max RMSD: 0.059
# Mean RMSD: 0.059
data_MOF--net-atn--node1-QUQFOY_clean_sbu_3--edge1-EZIPEK_clean_linker_0
_symmetry_space_group_name_H-M    P1
_symmetry_Int_Tables_number       1
_symmetry_cell_setting            triclinic
loop_
_symmetry_equiv_pos_as_xyz
'x, y, z'
_cell_length_a     46.740761
_cell_length_b     46.151991
_cell_length_c     20.996499
_cell_angle_alpha  89.760073
_cell_angle_beta   90.245008
_cell_angle_gamma 89.94757
loop_
_atom_site_label
_atom_site_type_symbol
_atom_site_fract_x
_atom_site_fract_y
_atom_site_fract_z
_atom_type_partial_charge
C0 C 0.14781 0.33831 0.89311 0.0
O1 O 0.13494 0.31818 0.92253 0.0
Cd2 Cd 0.14407 0.30985 0.03233 0.0
O3 O 0.16451 0.35563 0.92206 0.0
Cd4 Cd 0.18047 0.36536 0.03228 0.0
C5 C 0.21697 0.3032 0.02819 0.0
O6 O 0.13536 0.35494 0.08592 0.0
O7 O 0.17295 0.35708 0.14576 0.0
O8 O 0.17401 0.41598 0.00668 0.0
C9 C 0.14593 0.35546 0.14148 0.0
O10 O 0.19294 0.29085 0.03636 0.0
C11 C 0.1977 0.42413 0.03013 0.0
O12 O 0.21885 0.33052 0.02231 0.0
O13 O 0.21396 0.40491 0.05413 0.0
C14 C 0.62802 0.14556 0.86415 0.0
O15 O 0.64986 0.13403 0.89004 0.0
Cd16 Cd 0.66328 0.14152 -0.00042 0.0
O17 O 0.61099 0.16126 0.89612 0.0
Cd18 Cd 0.60525 0.18015 0.00411 0.0
C19 C 0.66804 0.21578 -0.00658 0.0
O20 O 0.62148 0.13798 0.06431 0.0
O21 O 0.61582 0.17806 0.11609 0.0
O22 O 0.55486 0.16988 -0.00258 0.0
C23 C 0.62192 0.1513 0.11704 0.0
O24 O 0.68033 0.19137 0.00068 0.0
C25 C 0.54681 0.19559 0.00873 0.0
O26 O 0.64096 0.21804 -0.01125 0.0
O27 O 0.56597 0.21465 0.01775 0.0
C28 C 0.82014 0.63762 0.89127 0.0
O29 O 0.82448 0.66102 0.9214 0.0
Cd30 Cd 0.81788 0.66872 0.0331 0.0
O31 O 0.80873 0.61605 0.91917 0.0
Cd32 Cd 0.78538 0.60822 0.02304 0.0
C33 C 0.74566 0.66976 0.0248 0.0
O34 O 0.82617 0.62353 0.0864 0.0
O35 O 0.78771 0.61283 0.13806 0.0
O36 O 0.79411 0.55723 0.00883 0.0
C37 C 0.81381 0.6201 0.13942 0.0
O38 O 0.76838 0.68333 0.03937 0.0
C39 C 0.76851 0.54963 0.0195 0.0
O40 O 0.74601 0.64293 0.01108 0.0
O41 O 0.75032 0.5693 0.03102 0.0
C42 C 0.3274 0.83268 0.87755 0.0
O43 O 0.30811 0.84536 0.90925 0.0
Cd44 Cd 0.30259 0.83654 0.01986 0.0
O45 O 0.3456 0.81604 0.90421 0.0
Cd46 Cd 0.35828 0.79979 0.01254 0.0
C47 C 0.29698 0.76248 0.01499 0.0
O48 O 0.3486 0.84509 0.06736 0.0
O49 O 0.35151 0.80685 0.12618 0.0
O50 O 0.40798 0.80759 -0.01412 0.0
C51 C 0.34979 0.83423 0.12265 0.0
O52 O 0.28481 0.78671 0.02505 0.0
C53 C 0.41671 0.78364 0.00861 0.0
O54 O 0.32379 0.7608 0.00602 0.0
O55 O 0.39813 0.76644 0.03118 0.0
C56 C 0.13867 0.63916 0.09259 0.0
O57 O 0.1268 0.65559 0.05161 0.0
Cd58 Cd 0.14462 0.66043 0.94539 0.0
O59 O 0.15859 0.62174 0.07721 0.0
Cd60 Cd 0.18508 0.60446 -0.01659 0.0
C61 C 0.21611 0.67011 -0.01383 0.0
O62 O 0.14868 0.61285 0.90403 0.0
O63 O 0.19104 0.60473 0.86773 0.0
O64 O 0.17473 0.55548 0.01565 0.0
C65 C 0.16491 0.61011 0.85632 0.0
O66 O 0.19256 0.68012 0.96461 0.0
C67 C 0.20034 0.5466 0.01114 0.0
O68 O 0.21934 0.64338 -0.00027 0.0
O69 O 0.21942 0.56493 -0.00406 0.0
C70 C 0.33294 0.14073 0.10662 0.0
O71 O 0.31544 0.1283 0.0693 0.0
Cd72 Cd 0.30898 0.14451 0.96184 0.0
O73 O 0.35045 0.15974 0.08645 0.0
Cd74 Cd 0.36687 0.18263 -0.01323 0.0
C75 C 0.30441 0.21814 -0.00533 0.0
O76 O 0.35468 0.14462 0.91289 0.0
O77 O 0.36288 0.18658 0.87113 0.0
O78 O 0.41591 0.17079 0.01192 0.0
C79 C 0.35655 0.16013 0.86322 0.0
O80 O 0.2926 0.19449 0.97781 0.0
C81 C 0.42519 0.19644 0.00458 0.0
O82 O 0.33128 0.22007 0.0036 0.0
O83 O 0.40712 0.21615 -0.00884 0.0
C84 C 0.82767 0.33536 0.10517 0.0
O85 O 0.83933 0.31816 0.06595 0.0
Cd86 Cd 0.82499 0.31403 0.95674 0.0
O87 O 0.80881 0.3536 0.08724 0.0
Cd88 Cd 0.78506 0.37005 -0.01167 0.0
C89 C 0.75249 0.30514 -0.01803 0.0
O90 O 0.82399 0.36201 0.91498 0.0
O91 O 0.78295 0.37127 0.87227 0.0
O92 O 0.79328 0.41934 0.01964 0.0
C93 C 0.8093 0.36586 0.86486 0.0
O94 O 0.77638 0.29462 0.9645 0.0
C95 C 0.76759 0.42741 0.01088 0.0
O96 O 0.74971 0.33172 -0.00344 0.0
O97 O 0.74941 0.40841 -0.00563 0.0
C98 C 0.62484 0.82694 0.15943 0.0
O99 O 0.64661 0.83773 0.13228 0.0
Cd100 Cd 0.65811 0.82958 0.02227 0.0
O101 O 0.60668 0.81205 0.12828 0.0
Cd102 Cd 0.59787 0.79407 0.01972 0.0
C103 C 0.65846 0.7549 0.0278 0.0
O104 O 0.61586 0.83535 0.95909 0.0
O105 O 0.60708 0.79601 0.90685 0.0
O106 O 0.54806 0.80643 0.03307 0.0
C107 C 0.61515 0.82219 0.90615 0.0
O108 O 0.67187 0.77871 0.02129 0.0
C109 C 0.53865 0.78164 0.01763 0.0
O110 O 0.63134 0.75396 0.03279 0.0
O111 O 0.55677 0.76214 0.00397 0.0
C112 C 0.63225 0.83574 0.42934 0.0
O113 O 0.62584 0.81568 0.46816 0.0
Cd114 Cd 0.64628 0.80946 0.57204 0.0
O115 O 0.6512 0.85429 0.44485 0.0
Cd116 Cd 0.68054 0.86712 0.53931 0.0
C117 C 0.71743 0.80492 0.5325 0.0
O118 O 0.64449 0.85643 0.61858 0.0
O119 O 0.68696 0.86467 0.65488 0.0
O120 O 0.6706 0.91718 0.51531 0.0
C121 C 0.6608 0.85987 0.66615 0.0
O122 O 0.69544 0.79266 0.55588 0.0
C123 C 0.69638 0.92541 0.52061 0.0
O124 O 0.71739 0.83165 0.51785 0.0
O125 O 0.71525 0.90633 0.53247 0.0
C126 C 0.13051 0.64895 0.36413 0.0
O127 O 0.1512 0.63606 0.39152 0.0
Cd128 Cd 0.16453 0.64277 0.50087 0.0
O129 O 0.11386 0.66561 0.39477 0.0
Cd130 Cd 0.10818 0.68423 0.50341 0.0
C131 C 0.17269 0.71656 0.48833 0.0
O132 O 0.12238 0.64169 0.56451 0.0
O133 O 0.11915 0.68221 0.61567 0.0
O134 O 0.05745 0.67616 0.4955 0.0
C135 C 0.12372 0.65514 0.61703 0.0
O136 O 0.18394 0.69173 0.49722 0.0
C137 C 0.05039 0.70203 0.50828 0.0
O138 O 0.14568 0.72 0.48493 0.0
O139 O 0.07027 0.72023 0.51831 0.0
C140 C 0.32182 0.13756 0.37896 0.0
O141 O 0.33492 0.15638 0.41189 0.0
Cd142 Cd 0.3225 0.16638 0.52006 0.0
O143 O 0.30257 0.12152 0.40323 0.0
Cd144 Cd 0.28077 0.11072 0.50737 0.0
C145 C 0.24951 0.17614 0.49961 0.0
O146 O 0.32196 0.12095 0.57427 0.0
O147 O 0.28147 0.11675 0.6225 0.0
O148 O 0.28775 0.0601 0.485 0.0
C149 C 0.30827 0.12057 0.62614 0.0
O150 O 0.27405 0.18662 0.51252 0.0
C151 C 0.2624 0.05254 0.49851 0.0
O152 O 0.24572 0.14907 0.49202 0.0
O153 O 0.2449 0.0722 0.5148 0.0
C154 C 0.83955 0.32457 0.37698 0.0
O155 O 0.81897 0.33683 0.4056 0.0
Cd156 Cd 0.8084 0.33132 0.5169 0.0
O157 O 0.85748 0.30883 0.40702 0.0
Cd158 Cd 0.86579 0.29103 0.51629 0.0
C159 C 0.80141 0.25725 0.51299 0.0
O160 O 0.85231 0.33426 0.57497 0.0
O161 O 0.85915 0.29504 0.62967 0.0
O162 O 0.91584 0.29948 0.49867 0.0
C163 C 0.85327 0.32183 0.62894 0.0
O164 O 0.78991 0.28199 0.52048 0.0
C165 C 0.92391 0.27444 0.51626 0.0
O166 O 0.82833 0.25427 0.50607 0.0
O167 O 0.90482 0.25631 0.53254 0.0
C168 C 0.63125 0.13657 0.59497 0.0
O169 O 0.62331 0.15542 0.55453 0.0
Cd170 Cd 0.64385 0.16213 0.4514 0.0
O171 O 0.65132 0.11899 0.58116 0.0
Cd172 Cd 0.68122 0.10607 0.48869 0.0
C173 C 0.71486 0.17005 0.49395 0.0
O174 O 0.64588 0.11508 0.40635 0.0
O175 O 0.68924 0.10853 0.37428 0.0
O176 O 0.6712 0.05593 0.5089 0.0
C177 C 0.66312 0.11246 0.36044 0.0
O178 O 0.69215 0.18078 0.46977 0.0
C179 C 0.69713 0.04785 0.50777 0.0
O180 O 0.71651 0.14346 0.50967 0.0
O181 O 0.71621 0.06708 0.50005 0.0
C182 C 0.8391 0.64855 0.62044 0.0
O183 O 0.8175 0.64232 0.58627 0.0
Cd184 Cd 0.81217 0.65048 0.47398 0.0
O185 O 0.86039 0.66166 0.59626 0.0
Cd186 Cd 0.87126 0.68691 0.49577 0.0
C187 C 0.80743 0.72304 0.4968 0.0
O188 O 0.85824 0.64781 0.42561 0.0
O189 O 0.86912 0.68827 0.3799 0.0
O190 O 0.92102 0.67722 0.51755 0.0
C191 C 0.8616 0.66203 0.37449 0.0
O192 O 0.79548 0.6999 0.47773 0.0
C193 C 0.92925 0.70318 0.50987 0.0
O194 O 0.83399 0.72396 0.51078 0.0
O195 O 0.91031 0.72219 0.49769 0.0
C196 C 0.32318 0.84137 0.6052 0.0
O197 O 0.33788 0.82483 0.57003 0.0
Cd198 Cd 0.32885 0.82122 0.45884 0.0
O199 O 0.30427 0.85831 0.58216 0.0
Cd200 Cd 0.28526 0.87351 0.47787 0.0
C201 C 0.25636 0.80738 0.46801 0.0
O202 O 0.32967 0.86988 0.41932 0.0
O203 O 0.29114 0.87176 0.36332 0.0
O204 O 0.28849 0.92316 0.51218 0.0
C205 C 0.31826 0.87188 0.36486 0.0
O206 O 0.2815 0.79837 0.45574 0.0
C207 C 0.26384 0.93037 0.49218 0.0
O208 O 0.25146 0.8339 0.48006 0.0
O209 O 0.24822 0.91074 0.46806 0.0
C210 C 0.13743 0.33741 0.62092 0.0
O211 O 0.15411 0.35033 0.58268 0.0
Cd212 Cd 0.15513 0.33977 0.47131 0.0
O213 O 0.11889 0.31927 0.6014 0.0
Cd214 Cd 0.10121 0.29908 0.50042 0.0
C215 C 0.16474 0.26595 0.48511 0.0
O216 O 0.10656 0.34247 0.43586 0.0
O217 O 0.1001 0.30276 0.38535 0.0
O218 O 0.05223 0.3041 0.53518 0.0
C219 C 0.10197 0.33015 0.38319 0.0
O220 O 0.17489 0.29045 0.46862 0.0
C221 C 0.04491 0.27868 0.51906 0.0
O222 O 0.1388 0.26309 0.5019 0.0
O223 O 0.06419 0.26199 0.49773 0.0
C224 C 0.20401 0.50264 0.07976 0.0
C225 C 0.20688 0.51557 0.01884 0.0
C226 C 0.21336 0.46787 0.97058 0.0
C227 C 0.20559 0.45499 0.02926 0.0
N228 N 0.19412 0.45899 0.14065 0.0
N229 N 0.21383 0.51129 0.90538 0.0
C230 C 0.20159 0.47202 0.08454 0.0
C231 C 0.21202 0.49845 0.96407 0.0
N232 N 0.2038 0.51975 0.13274 0.0
N233 N 0.22206 0.45072 0.92136 0.0
H234 H 0.21349 0.53368 0.89864 0.0
H235 H 0.21399 0.4998 0.86282 0.0
H236 H 0.2232 0.42819 0.92515 0.0
H237 H 0.23058 0.45877 0.87912 0.0
H238 H 0.20423 0.51172 0.17912 0.0
H239 H 0.20569 0.54227 0.13021 0.0
H240 H 0.18747 0.47025 0.18079 0.0
H241 H 0.19336 0.43654 0.14629 0.0
C242 C 0.47155 0.21134 0.95465 0.0
C243 C 0.45608 0.20252 0.0095 0.0
C244 C 0.50074 0.19418 0.06792 0.0
C245 C 0.51613 0.20242 0.01274 0.0
N246 N 0.51725 0.2256 0.9099 0.0
N247 N 0.45502 0.19288 0.12224 0.0
C248 C 0.50182 0.21347 0.9583 0.0
C249 C 0.47044 0.19628 0.06752 0.0
N250 N 0.45759 0.21566 0.89799 0.0
N251 N 0.51511 0.18353 0.11985 0.0
H252 H 0.43277 0.19474 0.12333 0.0
H253 H 0.46424 0.19084 0.16725 0.0
H254 H 0.5374 0.18321 0.12293 0.0
H255 H 0.50508 0.17382 0.15861 0.0
H256 H 0.46804 0.21864 0.85478 0.0
H257 H 0.43545 0.21424 0.89294 0.0
H258 H 0.50799 0.23663 0.87167 0.0
H259 H 0.53954 0.22688 0.9108 0.0
C260 C 0.75524 0.47449 0.95872 0.0
C261 C 0.76008 0.45825 0.01535 0.0
C262 C 0.76432 0.50268 0.07745 0.0
C263 C 0.76077 0.51883 0.02042 0.0
N264 N 0.74546 0.52152 0.91105 0.0
N265 N 0.76179 0.4557 0.1297 0.0
C266 C 0.75359 0.50513 0.96243 0.0
C267 C 0.76212 0.47205 0.07526 0.0
N268 N 0.75418 0.46081 0.90109 0.0
N269 N 0.77097 0.51663 0.1329 0.0
H270 H 0.75996 0.43316 0.12896 0.0
H271 H 0.76082 0.46439 0.1753 0.0
H272 H 0.7715 0.53917 0.13651 0.0
H273 H 0.77716 0.50603 0.17458 0.0
H274 H 0.75428 0.47167 0.85755 0.0
H275 H 0.75486 0.43835 0.89631 0.0
H276 H 0.7374 0.51283 0.86898 0.0
H277 H 0.74441 0.5441 0.9126 0.0
C278 C 0.49219 0.77457 0.07282 0.0
C279 C 0.50764 0.77619 0.01508 0.0
C280 C 0.46298 0.7741 0.95402 0.0
C281 C 0.44757 0.77712 0.01156 0.0
N282 N 0.4469 0.78167 0.12613 0.0
N283 N 0.50863 0.77834 0.90033 0.0
C284 C 0.46194 0.77726 0.07127 0.0
C285 C 0.49332 0.77575 0.95542 0.0
N286 N 0.50653 0.77021 0.12895 0.0
N287 N 0.4485 0.76929 0.89834 0.0
H288 H 0.53093 0.77888 0.89945 0.0
H289 H 0.49931 0.78166 0.85578 0.0
H290 H 0.42624 0.76781 0.89618 0.0
H291 H 0.45847 0.76418 0.85558 0.0
H292 H 0.49641 0.76597 0.17206 0.0
H293 H 0.52876 0.7682 0.13139 0.0
H294 H 0.45649 0.78566 0.17007 0.0
H295 H 0.42467 0.78324 0.12736 0.0
C296 C 0.69848 0.00059 0.45182 0.0
C297 C 0.70408 0.01683 0.5077 0.0
C298 C 0.71055 0.97248 0.56987 0.0
C299 C 0.70364 0.95626 0.5146 0.0
N300 N 0.69836 0.95348 0.40078 0.0
N301 N 0.72225 0.01945 0.61485 0.0
C302 C 0.70002 0.96994 0.45469 0.0
C303 C 0.71259 0.00311 0.56507 0.0
N304 N 0.69076 0.01456 0.39675 0.0
N305 N 0.71333 0.95877 0.62746 0.0
H306 H 0.72344 0.04201 0.61266 0.0
H307 H 0.73125 0.01074 0.65611 0.0
H308 H 0.71242 0.93632 0.63269 0.0
H309 H 0.71497 0.9696 0.67069 0.0
H310 H 0.68296 0.00405 0.35652 0.0
H311 H 0.69107 0.03708 0.392 0.0
H312 H 0.69817 0.96203 0.35484 0.0
H313 H 0.69966 0.9309 0.40181 0.0
C314 C 0.97482 0.70461 0.57126 0.0
C315 C 0.95995 0.71034 0.51364 0.0
C316 C 0.00525 0.72073 0.45999 0.0
C317 C 0.01998 0.70984 0.514 0.0
N318 N 0.01991 0.69212 0.62206 0.0
N319 N 0.96038 0.72335 0.40206 0.0
C320 C 0.0051 0.70236 0.57036 0.0
C321 C 0.97492 0.71893 0.45793 0.0
N322 N 0.95985 0.70166 0.62672 0.0
N323 N 0.02036 0.73241 0.41056 0.0
H324 H 0.93816 0.72242 0.39845 0.0
H325 H 0.97034 0.72616 0.35823 0.0
H326 H 0.04266 0.73355 0.41069 0.0
H327 H 0.01089 0.74321 0.37227 0.0
H328 H 0.96943 0.69991 0.67142 0.0
H329 H 0.93762 0.70363 0.62859 0.0
H330 H 0.01023 0.68293 0.66185 0.0
H331 H 0.04223 0.69164 0.62399 0.0
C332 C 0.25272 0.00772 0.43723 0.0
C333 C 0.25433 0.02173 0.49691 0.0
C334 C 0.25127 0.97499 0.5518 0.0
C335 C 0.25511 0.96103 0.49257 0.0
N336 N 0.2597 0.96334 0.37811 0.0
N337 N 0.25466 0.01969 0.61169 0.0
C338 C 0.25524 0.97711 0.43478 0.0
C339 C 0.25285 0.00569 0.55455 0.0
N340 N 0.24883 0.02385 0.38312 0.0
N341 N 0.24611 0.95875 0.6051 0.0
H342 H 0.25505 0.04221 0.61547 0.0
H343 H 0.2572 0.00909 0.6552 0.0
H344 H 0.24475 0.93618 0.60384 0.0
H345 H 0.24067 0.96754 0.64899 0.0
H346 H 0.24488 0.0149 0.33851 0.0
H347 H 0.24689 0.04638 0.38402 0.0
H348 H 0.26364 0.97418 0.33547 0.0
H349 H 0.2611 0.94089 0.37403 0.0
C350 C -0.00038 0.26771 0.46035 0.0
C351 C 0.01454 0.27022 0.51916 0.0
C352 C 0.96946 0.26902 0.57778 0.0
C353 C 0.9546 0.26745 0.51888 0.0
N354 N 0.95471 0.25728 0.40674 0.0
N355 N 0.01506 0.26595 0.63337 0.0
C356 C 0.96951 0.26401 0.46098 0.0
C357 C -0.00016 0.2684 0.57787 0.0
N358 N 0.01389 0.27087 0.40399 0.0
N359 N 0.95455 0.27265 0.63307 0.0
H360 H 0.03739 0.26533 0.63438 0.0
H361 H 0.00576 0.26198 0.6775 0.0
H362 H 0.93225 0.27226 0.63487 0.0
H363 H 0.96411 0.27747 0.67661 0.0
H364 H 0.00367 0.27287 0.36003 0.0
H365 H 0.03599 0.27346 0.40108 0.0
H366 H 0.96449 0.2518 0.36398 0.0
H367 H 0.93254 0.25448 0.40625 0.0
C368 C 0.25395 0.2801 0.95939 0.0
C369 C 0.24278 0.28513 0.02116 0.0
C370 C 0.27587 0.24957 0.06729 0.0
C371 C 0.28609 0.24365 0.00517 0.0
N372 N 0.29038 0.25698 0.89478 0.0
N373 N 0.24625 0.27982 0.13498 0.0
C374 C 0.27685 0.26016 0.95197 0.0
C375 C 0.25477 0.27143 0.07559 0.0
N376 N 0.24184 0.2935 0.90766 0.0
N377 N 0.28586 0.23368 0.11782 0.0
H378 H 0.23088 0.29588 0.14221 0.0
H379 H 0.25563 0.27258 0.17714 0.0
H380 H 0.30265 0.21891 0.11375 0.0
H381 H 0.27714 0.2343 0.16329 0.0
H382 H 0.24637 0.28813 0.86069 0.0
H383 H 0.22607 0.30936 0.9115 0.0
H384 H 0.28657 0.27008 0.85519 0.0
H385 H 0.30735 0.2426 0.88829 0.0
C386 C 0.71334 0.27739 0.92944 0.0
C387 C 0.72763 0.28569 -0.01386 0.0
C388 C 0.69723 0.25324 0.04854 0.0
C389 C 0.68598 0.24195 -0.00902 0.0
N390 N 0.68393 0.24156 0.87626 0.0
N391 N 0.73477 0.28114 0.09956 0.0
C392 C 0.69396 0.25374 0.93123 0.0
C393 C 0.71982 0.27375 0.04589 0.0
N394 N 0.718 0.29249 0.87431 0.0
N395 N 0.68597 0.24457 0.10552 0.0
H396 H 0.75092 0.29673 0.09966 0.0
H397 H 0.73244 0.27065 0.14321 0.0
H398 H 0.66918 0.22975 0.10873 0.0
H399 H 0.69139 0.25385 0.14902 0.0
H400 H 0.70638 0.28924 0.83254 0.0
H401 H 0.73175 0.31024 0.87198 0.0
H402 H 0.69153 0.24689 0.83118 0.0
H403 H 0.66915 0.22466 0.87592 0.0
C404 C 0.70547 0.69482 0.96792 0.0
C405 C 0.71842 0.68578 0.02588 0.0
C406 C 0.68741 0.71808 0.08666 0.0
C407 C 0.67524 0.72794 0.0286 0.0
N408 N 0.667 0.72161 0.91629 0.0
N409 N 0.71737 0.68247 0.14027 0.0
C410 C 0.68232 0.71476 0.96991 0.0
C411 C 0.70786 0.69535 0.08534 0.0
N412 N 0.7164 0.68565 0.91114 0.0
N413 N 0.68029 0.73134 0.14251 0.0
H414 H 0.73215 0.6655 0.14033 0.0
H415 H 0.70889 0.68668 0.18504 0.0
H416 H 0.6645 0.74727 0.14521 0.0
H417 H 0.69084 0.72764 0.18554 0.0
H418 H 0.71022 0.69406 0.86711 0.0
H419 H 0.7329 0.6705 0.90806 0.0
H420 H 0.66937 0.71104 0.87294 0.0
H421 H 0.65007 0.73637 0.91656 0.0
C422 C 0.25783 0.69781 0.9449 0.0
C423 C 0.23993 0.69042 -0.00334 0.0
C424 C 0.26401 0.72617 0.06406 0.0
C425 C 0.27919 0.73617 0.00991 0.0
N426 N 0.28922 0.73344 0.89726 0.0
N427 N 0.22486 0.69718 0.10517 0.0
C428 C 0.27605 0.72229 0.95 0.0
C429 C 0.24286 0.70434 0.05642 0.0
N430 N 0.25753 0.68117 0.89115 0.0
N431 N 0.27042 0.73708 0.12288 0.0
H432 H 0.21024 0.68016 0.10223 0.0
H433 H 0.22336 0.70886 0.14734 0.0
H434 H 0.286 0.75293 0.12999 0.0
H435 H 0.26213 0.72889 0.16519 0.0
H436 H 0.27207 0.6836 0.85408 0.0
H437 H 0.24432 0.66312 0.88606 0.0
H438 H 0.28493 0.72655 0.85106 0.0
H439 H 0.30306 0.75112 0.89882 0.0
C440 C 0.78034 0.75595 0.56896 0.0
C441 C 0.78908 0.74859 0.50647 0.0
C442 C 0.75236 0.7803 0.46055 0.0
C443 C 0.74362 0.78767 0.52304 0.0
N444 N 0.75321 0.7886 0.63587 0.0
N445 N 0.78865 0.75831 0.39385 0.0
C446 C 0.75892 0.77742 0.57706 0.0
C447 C 0.77676 0.76234 0.45253 0.0
N448 N 0.79139 0.74134 0.62029 0.0
N449 N 0.73651 0.7892 0.40916 0.0
H450 H 0.80678 0.74549 0.38707 0.0
H451 H 0.78234 0.76966 0.35321 0.0
H452 H 0.71861 0.80258 0.4131 0.0
H453 H 0.73985 0.78181 0.36302 0.0
H454 H 0.78329 0.74313 0.66622 0.0
H455 H 0.80763 0.72594 0.61652 0.0
H456 H 0.76548 0.78412 0.67623 0.0
H457 H 0.73771 0.80451 0.64327 0.0
C458 C 0.22546 0.76988 0.41672 0.0
C459 C 0.23275 0.78618 0.47152 0.0
C460 C 0.19651 0.76026 0.53368 0.0
C461 C 0.19173 0.74176 0.48102 0.0
N462 N 0.20279 0.72688 0.3739 0.0
N463 N 0.228 0.79489 0.58443 0.0
C464 C 0.20649 0.74601 0.42283 0.0
C465 C 0.2188 0.7811 0.53054 0.0
N466 N 0.23601 0.77783 0.35855 0.0
N467 N 0.17983 0.75777 0.58679 0.0
H468 H 0.24429 0.81029 0.58457 0.0
H469 H 0.22113 0.78949 0.63005 0.0
H470 H 0.16405 0.74197 0.59183 0.0
H471 H 0.18008 0.77269 0.62386 0.0
H472 H 0.22931 0.76869 0.31577 0.0
H473 H 0.24966 0.79548 0.35231 0.0
H474 H 0.21536 0.72677 0.33309 0.0
H475 H 0.18824 0.70979 0.37571 0.0
C476 C 0.21273 0.20674 0.55221 0.0
C477 C 0.22487 0.19602 0.49528 0.0
C478 C 0.19359 0.22756 0.43155 0.0
C479 C 0.18401 0.24067 0.48856 0.0
N480 N 0.18468 0.24416 0.60323 0.0
N481 N 0.22723 0.19493 0.3808 0.0
C482 C 0.1934 0.23044 0.54902 0.0
C483 C 0.2152 0.20588 0.43483 0.0
N484 N 0.21927 0.19369 0.60908 0.0
N485 N 0.18141 0.23539 0.37465 0.0
H486 H 0.24147 0.17754 0.38165 0.0
H487 H 0.22398 0.2035 0.33543 0.0
H488 H 0.16555 0.25124 0.37085 0.0
H489 H 0.18539 0.22496 0.33176 0.0
H490 H 0.20913 0.19849 0.65179 0.0
H491 H 0.23322 0.17611 0.61277 0.0
H492 H 0.19344 0.24025 0.64809 0.0
H493 H 0.16967 0.26088 0.6031 0.0
C494 C 0.77428 0.22111 0.44855 0.0
C495 C 0.78257 0.23175 0.5091 0.0
C496 C 0.74797 0.1998 0.56129 0.0
C497 C 0.74015 0.18882 0.5007 0.0
N498 N 0.75058 0.18309 0.38921 0.0
N499 N 0.78207 0.22769 0.62347 0.0
C500 C 0.75485 0.19762 0.44506 0.0
C501 C 0.77093 0.21989 0.56573 0.0
N502 N 0.7839 0.23435 0.39439 0.0
N503 N 0.73267 0.19197 0.61399 0.0
H504 H 0.79895 0.24233 0.62796 0.0
H505 H 0.77635 0.21793 0.66634 0.0
H506 H 0.71614 0.17681 0.61257 0.0
H507 H 0.73513 0.2017 0.6583 0.0
H508 H 0.77607 0.22975 0.34905 0.0
H509 H 0.7982 0.25164 0.39522 0.0
H510 H 0.76259 0.18675 0.34831 0.0
H511 H 0.73697 0.16528 0.38567 0.0
C512 C 0.1229 0.36924 0.31081 0.0
C513 C 0.10442 0.34516 0.32048 0.0
C514 C 0.10674 0.3328 0.20787 0.0
C515 C 0.12796 0.35449 0.19935 0.0
N516 N 0.14732 0.40009 0.23446 0.0
N517 N 0.06786 0.31547 0.27367 0.0
C518 C 0.1333 0.37487 0.24841 0.0
C519 C 0.09261 0.33088 0.26714 0.0
N520 N 0.13088 0.38646 0.36048 0.0
N521 N 0.10139 0.31267 0.16187 0.0
H522 H 0.05668 0.31485 0.31664 0.0
H523 H 0.05687 0.30644 0.23529 0.0
H524 H 0.11127 0.31264 0.11773 0.0
H525 H 0.08861 0.29451 0.16953 0.0
H526 H 0.14821 0.4006 0.35864 0.0
H527 H 0.1196 0.38742 0.40301 0.0
H528 H 0.14984 0.41705 0.26652 0.0
H529 H 0.15389 0.40533 0.18841 0.0
C530 C 0.63291 0.10394 0.26375 0.0
C531 C 0.65423 0.12042 0.29537 0.0
C532 C 0.65885 0.15179 0.20226 0.0
C533 C 0.63462 0.13827 0.17473 0.0
N534 N 0.5968 0.10283 0.18049 0.0
N535 N 0.68358 0.16352 0.29971 0.0
C536 C 0.62126 0.11447 0.20542 0.0
C537 C 0.66634 0.1452 0.2659 0.0
N538 N 0.62423 0.07805 0.28889 0.0
N539 N 0.67508 0.17049 0.16707 0.0
H540 H 0.68847 0.1604 0.34766 0.0
H541 H 0.69051 0.18344 0.2821 0.0
H542 H 0.67072 0.17499 0.11932 0.0
H543 H 0.69449 0.17892 0.183 0.0
H544 H 0.61085 0.06369 0.26493 0.0
H545 H 0.6324 0.06974 0.33155 0.0
H546 H 0.58431 0.08767 0.20447 0.0
H547 H 0.58783 0.10982 0.13753 0.0
C548 C 0.86293 0.62743 0.28305 0.0
C549 C 0.84985 0.65127 0.31388 0.0
C550 C 0.81552 0.65642 0.2265 0.0
C551 C 0.82682 0.631 0.19854 0.0
N552 N 0.85895 0.59016 0.20222 0.0
N553 N 0.81048 0.68505 0.32166 0.0
C554 C 0.84998 0.61591 0.22722 0.0
C555 C 0.82528 0.66489 0.28743 0.0
N556 N 0.88811 0.61643 0.30611 0.0
N557 N 0.79614 0.67308 0.19385 0.0
H558 H 0.81673 0.6918 0.36682 0.0
H559 H 0.79057 0.69314 0.30791 0.0
H560 H 0.7885 0.6677 0.14878 0.0
H561 H 0.78964 0.69355 0.20871 0.0
H562 H 0.90032 0.6011 0.28216 0.0
H563 H 0.89801 0.62425 0.34722 0.0
H564 H 0.87363 0.57651 0.22469 0.0
H565 H 0.85016 0.58134 0.16086 0.0
C566 C 0.32289 0.88522 0.25138 0.0
C567 C 0.33472 0.87058 0.30461 0.0
C568 C 0.36628 0.84409 0.23282 0.0
C569 C 0.34816 0.85189 0.18129 0.0
N570 N 0.30942 0.88211 0.14091 0.0
N571 N 0.37163 0.83842 0.34638 0.0
C572 C 0.32698 0.87368 0.18972 0.0
C573 C 0.35806 0.85118 0.29582 0.0
N574 N 0.30771 0.91018 0.26025 0.0
N575 N 0.39168 0.83045 0.22106 0.0
H576 H 0.3697 0.84533 0.39313 0.0
H577 H 0.38508 0.82055 0.34165 0.0
H578 H 0.39869 0.8262 0.17488 0.0
H579 H 0.4071 0.82645 0.25599 0.0
H580 H 0.30055 0.92326 0.22287 0.0
H581 H 0.3053 0.91942 0.30525 0.0
H582 H 0.29125 0.89481 0.14774 0.0
H583 H 0.31179 0.87552 0.09409 0.0
C584 C 0.12101 0.6181 0.70472 0.0
C585 C 0.13562 0.64136 0.67482 0.0
C586 C 0.16877 0.64462 0.76467 0.0
C587 C 0.1555 0.62009 0.79279 0.0
N588 N 0.12243 0.58018 0.78507 0.0
N589 N 0.17771 0.67146 0.66779 0.0
C590 C 0.13261 0.6058 0.76142 0.0
C591 C 0.16085 0.65299 0.70218 0.0
N592 N 0.09547 0.60864 0.68062 0.0
N593 N 0.18774 0.66101 0.79876 0.0
H594 H 0.17303 0.67752 0.621 0.0
H595 H 0.19783 0.67827 0.68317 0.0
H596 H 0.19342 0.65646 0.84575 0.0
H597 H 0.19559 0.68084 0.7827 0.0
H598 H 0.08225 0.59403 0.7043 0.0
H599 H 0.08637 0.61704 0.63902 0.0
H600 H 0.10779 0.56722 0.76087 0.0
H601 H 0.13048 0.5706 0.82654 0.0
C602 C 0.31111 0.15671 0.71376 0.0
C603 C 0.32153 0.13094 0.6856 0.0
C604 C 0.3573 0.12606 0.77057 0.0
C605 C 0.34467 0.14998 0.80208 0.0
N606 N 0.30538 0.18386 0.81075 0.0
N607 N 0.35207 0.08884 0.69011 0.0
C608 C 0.32043 0.1642 0.77567 0.0
C609 C 0.34405 0.11499 0.71466 0.0
N610 N 0.29315 0.17467 0.68045 0.0
N611 N 0.38235 0.11452 0.793 0.0
H612 H 0.34293 0.08015 0.649 0.0
H613 H 0.36617 0.07472 0.71304 0.0
H614 H 0.3926 0.12209 0.83391 0.0
H615 H 0.39419 0.0991 0.7684 0.0
H616 H 0.28727 0.19517 0.69638 0.0
H617 H 0.28656 0.17049 0.63392 0.0
H618 H 0.28583 0.19252 0.79606 0.0
H619 H 0.31076 0.18926 0.85739 0.0
C620 C 0.80751 0.3311 0.77445 0.0
C621 C 0.82001 0.35591 0.80279 0.0
C622 C 0.85474 0.35903 0.71589 0.0
C623 C 0.84084 0.33542 0.68585 0.0
N624 N 0.79971 0.30405 0.67795 0.0
N625 N 0.85251 0.39633 0.79701 0.0
C626 C 0.81589 0.32302 0.71254 0.0
C627 C 0.84279 0.37077 0.77247 0.0
N628 N 0.78874 0.31426 0.8079 0.0
N629 N 0.87983 0.36946 0.69175 0.0
H630 H 0.84433 0.40533 0.83865 0.0
H631 H 0.86706 0.40972 0.77372 0.0
H632 H 0.88887 0.36164 0.64984 0.0
H633 H 0.89266 0.38446 0.71526 0.0
H634 H 0.7815 0.29419 0.79202 0.0
H635 H 0.78264 0.3188 0.85438 0.0
H636 H 0.77971 0.29667 0.69251 0.0
H637 H 0.80488 0.29807 0.63166 0.0
C638 C 0.61715 0.85905 0.81794 0.0
C639 C 0.62885 0.8343 0.84875 0.0
C640 C 0.66163 0.82653 0.76 0.0
C641 C 0.65097 0.85205 0.73049 0.0
N642 N 0.62262 0.89561 0.73544 0.0
N643 N 0.66696 0.79917 0.85766 0.0
C644 C 0.62994 0.86928 0.76078 0.0
C645 C 0.65258 0.81949 0.82237 0.0
N646 N 0.59312 0.87192 0.84165 0.0
N647 N 0.67917 0.80815 0.72731 0.0
H648 H 0.66134 0.79391 0.90424 0.0
H649 H 0.68615 0.78978 0.84333 0.0
H650 H 0.68597 0.8121 0.68089 0.0
H651 H 0.68487 0.78764 0.74399 0.0
H652 H 0.58168 0.88793 0.81746 0.0
H653 H 0.58336 0.86519 0.88376 0.0
H654 H 0.60958 0.9105 0.75856 0.0
H655 H 0.63155 0.90364 0.69347 0.0
C656 C 0.85179 0.66116 0.73513 0.0
C657 C 0.8382 0.64256 0.69025 0.0
C658 C 0.81212 0.61965 0.77761 0.0
C659 C 0.82809 0.63613 0.82266 0.0
N660 N 0.872 0.66278 0.84071 0.0
N661 N 0.81452 0.59642 0.67506 0.0
C662 C 0.85096 0.65357 0.80033 0.0
C663 C 0.82139 0.61919 0.71346 0.0
N664 N 0.86347 0.68713 0.71777 0.0
N665 N 0.78715 0.60613 0.79356 0.0
H666 H 0.82282 0.59414 0.62932 0.0
H667 H 0.80379 0.57815 0.69197 0.0
H668 H 0.77727 0.60812 0.83759 0.0
H669 H 0.77428 0.59589 0.75976 0.0
H670 H 0.87174 0.70158 0.7512 0.0
H671 H 0.86136 0.69631 0.67269 0.0
H672 H 0.88987 0.67416 0.82465 0.0
H673 H 0.87346 0.65571 0.88789 0.0
C674 C 0.30884 0.81719 0.7058 0.0
C675 C 0.32557 0.83851 0.6746 0.0
C676 C 0.34548 0.85446 0.77645 0.0
C677 C 0.3269 0.83486 0.80785 0.0
N678 N 0.28844 0.8 0.80482 0.0
N679 N 0.35767 0.87929 0.67807 0.0
C680 C 0.30786 0.81688 0.77321 0.0
C681 C 0.34336 0.85769 0.70929 0.0
N682 N 0.29434 0.79693 0.67089 0.0
N683 N 0.36531 0.86964 0.81085 0.0
H684 H 0.35727 0.8816 0.62861 0.0
H685 H 0.36852 0.89595 0.70105 0.0
H686 H 0.36677 0.86842 0.86039 0.0
H687 H 0.38149 0.88198 0.79035 0.0
H688 H 0.28429 0.77894 0.69074 0.0
H689 H 0.29413 0.79676 0.62121 0.0
H690 H 0.27185 0.78894 0.78239 0.0
H691 H 0.28751 0.79861 0.85435 0.0
C692 C 0.12352 0.35841 0.72601 0.0
C693 C 0.14188 0.34044 0.68989 0.0
C694 C 0.16327 0.32063 0.78706 0.0
C695 C 0.14592 0.33957 0.82329 0.0
N696 N 0.11276 0.37948 0.829 0.0
N697 N 0.18319 0.30917 0.684 0.0
C698 C 0.12706 0.35949 0.79325 0.0
C699 C 0.16306 0.32307 0.71983 0.0
N700 N 0.10239 0.37387 0.69606 0.0
N701 N 0.17926 0.29971 0.81684 0.0
H702 H 0.1836 0.3102 0.6344 0.0
H703 H 0.20096 0.29868 0.70337 0.0
H704 H 0.18025 0.29737 0.86621 0.0
H705 H 0.18976 0.28317 0.79275 0.0
H706 H 0.08626 0.38485 0.72002 0.0
H707 H 0.10008 0.37444 0.64661 0.0
H708 H 0.10093 0.39649 0.80958 0.0
H709 H 0.11429 0.38022 0.87857 0.0
C710 C 0.61953 0.16723 0.75605 0.0
C711 C 0.62317 0.14224 0.79491 0.0
C712 C 0.62181 0.11154 0.69994 0.0
C713 C 0.61994 0.13692 0.6615 0.0
N714 N 0.60021 0.18542 0.65719 0.0
N715 N 0.61931 0.09037 0.80605 0.0
C716 C 0.61336 0.16372 0.69064 0.0
C717 C 0.62171 0.1142 0.76753 0.0
N718 N 0.62349 0.1944 0.78024 0.0
N719 N 0.62332 0.08502 0.67152 0.0
H720 H 0.61832 0.09179 0.85557 0.0
H721 H 0.61589 0.06947 0.7893 0.0
H722 H 0.61923 0.08226 0.623 0.0
H723 H 0.62863 0.06597 0.69551 0.0
H724 H 0.62392 0.2129 0.75159 0.0
H725 H 0.62933 0.19833 0.82734 0.0
H726 H 0.59361 0.2047 0.67831 0.0
H727 H 0.59152 0.18234 0.61198 0.0
C728 C 0.84573 0.35381 0.27695 0.0
C729 C 0.84095 0.3266 0.30677 0.0
C730 C 0.82756 0.30534 0.20438 0.0
C731 C 0.83375 0.33208 0.17389 0.0
N732 N 0.85375 0.38014 0.17824 0.0
N733 N 0.83417 0.2748 0.29681 0.0
C734 C 0.84431 0.35591 0.20937 0.0
C735 C 0.8343 0.30179 0.26977 0.0
N736 N 0.85142 0.37764 0.3133 0.0
N737 N 0.81336 0.28396 0.1722 0.0
H738 H 0.83836 0.27095 0.34479 0.0
H739 H 0.83256 0.25582 0.27034 0.0
H740 H 0.80701 0.2858 0.1247 0.0
H741 H 0.8052 0.2655 0.19432 0.0
H742 H 0.85165 0.3987 0.29534 0.0
H743 H 0.85462 0.37649 0.36246 0.0
H744 H 0.86424 0.39717 0.20076 0.0
H745 H 0.85331 0.38217 0.12874 0.0
C746 C 0.62124 0.85847 0.25652 0.0
C747 C 0.62127 0.8304 0.22903 0.0
C748 C 0.6124 0.80929 0.3339 0.0
C749 C 0.62044 0.83578 0.36275 0.0
N750 N 0.62464 0.88764 0.35234 0.0
N751 N 0.61991 0.77828 0.2437 0.0
C752 C 0.62238 0.86112 0.32414 0.0
C753 C 0.61739 0.80556 0.26813 0.0
N754 N 0.61904 0.88237 0.21808 0.0
N755 N 0.59869 0.78825 0.36789 0.0
H756 H 0.6248 0.77414 0.19625 0.0
H757 H 0.62007 0.75976 0.27235 0.0
H758 H 0.59058 0.79184 0.41332 0.0
H759 H 0.59104 0.76927 0.34713 0.0
H760 H 0.61667 0.9034 0.23488 0.0
H761 H 0.61721 0.881 0.16865 0.0
H762 H 0.63026 0.90652 0.3282 0.0
H763 H 0.62058 0.89065 0.40069 0.0
C764 C 0.13557 0.67231 0.25739 0.0
C765 C 0.12817 0.64751 0.2941 0.0
C766 C 0.12136 0.61931 0.19651 0.0
C767 C 0.13222 0.64296 0.16075 0.0
N768 N 0.15323 0.6908 0.15714 0.0
N769 N 0.11465 0.59722 0.30055 0.0
C770 C 0.13986 0.66933 0.19095 0.0
C771 C 0.12113 0.62094 0.26416 0.0
N772 N 0.13904 0.69868 0.28597 0.0
N773 N 0.11069 0.59565 0.16545 0.0
H774 H 0.11253 0.59815 0.34995 0.0
H775 H 0.11264 0.57636 0.28242 0.0
H776 H 0.11039 0.59406 0.11589 0.0
H777 H 0.10005 0.57872 0.18805 0.0
H778 H 0.14065 0.71806 0.26067 0.0
H779 H 0.13832 0.70181 0.33501 0.0
H780 H 0.16285 0.70873 0.17815 0.0
H781 H 0.15703 0.68978 0.10835 0.0
C782 C 0.30716 0.15607 0.27275 0.0
C783 C 0.32522 0.13776 0.30936 0.0
C784 C 0.34886 0.12088 0.21246 0.0
C785 C 0.32924 0.13755 0.17587 0.0
N786 N 0.28626 0.16664 0.16987 0.0
N787 N 0.36084 0.10013 0.31581 0.0
C788 C 0.30725 0.15371 0.20563 0.0
C789 C 0.34539 0.11932 0.27973 0.0
N790 N 0.29072 0.17656 0.30207 0.0
N791 N 0.37094 0.10699 0.18294 0.0
H792 H 0.35925 0.09911 0.36534 0.0
H793 H 0.3738 0.08405 0.29666 0.0
H794 H 0.37328 0.1068 0.13354 0.0
H795 H 0.38774 0.09703 0.20728 0.0
H796 H 0.27961 0.19271 0.27749 0.0
H797 H 0.29028 0.17923 0.35134 0.0
H798 H 0.26789 0.1757 0.18947 0.0
H799 H 0.2859 0.1664 0.12023 0.0
loop_
_geom_bond_atom_site_label_1
_geom_bond_atom_site_label_2
_geom_bond_distance
_geom_bond_site_symmetry_2
_ccdc_geom_bond_type
C0 O1 1.306 . S
C0 O3 1.160 . S
O1 C0 1.306 . S
O1 Cd2 2.228 1_556 S
Cd2 O1 2.228 1_554 S
Cd2 O6 2.273 . S
Cd2 O10 2.277 . S
O3 C0 1.160 . S
O3 Cd4 2.203 1_556 S
Cd4 O3 2.203 1_554 S
Cd4 O6 2.411 . S
Cd4 O7 2.333 . S
Cd4 O8 2.352 . S
Cd4 O12 2.277 . S
Cd4 O13 2.356 . S
C5 O10 1.209 . S
C5 O12 1.226 . S
O6 Cd2 2.273 . S
O6 Cd4 2.411 . S
O6 C9 1.320 . S
O7 Cd4 2.333 . S
O7 C9 1.214 . S
O8 Cd4 2.352 . S
O8 C11 1.258 . S
C9 O6 1.320 . S
C9 O7 1.214 . S
O10 Cd2 2.277 . S
O10 C5 1.209 . S
C11 O8 1.258 . S
C11 O13 1.282 . S
O12 Cd4 2.277 . S
O12 C5 1.226 . S
O13 Cd4 2.356 . S
O13 C11 1.282 . S
C14 O15 1.306 . S
C14 O17 1.160 . S
O15 C14 1.306 . S
O15 Cd16 2.228 1_556 S
Cd16 O15 2.228 1_554 S
Cd16 O20 2.273 . S
Cd16 O24 2.277 . S
O17 C14 1.160 . S
O17 Cd18 2.203 1_556 S
Cd18 O17 2.203 1_554 S
Cd18 O20 2.411 . S
Cd18 O21 2.333 . S
Cd18 O22 2.352 . S
Cd18 O26 2.277 . S
Cd18 O27 2.356 . S
C19 O24 1.209 . S
C19 O26 1.226 . S
O20 Cd16 2.273 . S
O20 Cd18 2.411 . S
O20 C23 1.320 . S
O21 Cd18 2.333 . S
O21 C23 1.214 . S
O22 Cd18 2.352 . S
O22 C25 1.258 . S
C23 O20 1.320 . S
C23 O21 1.214 . S
O24 Cd16 2.277 . S
O24 C19 1.209 . S
C25 O22 1.258 . S
C25 O27 1.282 . S
O26 Cd18 2.277 . S
O26 C19 1.226 . S
O27 Cd18 2.356 . S
O27 C25 1.282 . S
C28 O29 1.306 . S
C28 O31 1.160 . S
O29 C28 1.306 . S
O29 Cd30 2.228 1_556 S
Cd30 O29 2.228 1_554 S
Cd30 O34 2.273 . S
Cd30 O38 2.277 . S
O31 C28 1.160 . S
O31 Cd32 2.203 1_556 S
Cd32 O31 2.203 1_554 S
Cd32 O34 2.411 . S
Cd32 O35 2.333 . S
Cd32 O36 2.352 . S
Cd32 O40 2.277 . S
Cd32 O41 2.356 . S
C33 O38 1.209 . S
C33 O40 1.226 . S
O34 Cd30 2.273 . S
O34 Cd32 2.411 . S
O34 C37 1.320 . S
O35 Cd32 2.333 . S
O35 C37 1.214 . S
O36 Cd32 2.352 . S
O36 C39 1.258 . S
C37 O34 1.320 . S
C37 O35 1.214 . S
O38 Cd30 2.277 . S
O38 C33 1.209 . S
C39 O36 1.258 . S
C39 O41 1.282 . S
O40 Cd32 2.277 . S
O40 C33 1.226 . S
O41 Cd32 2.356 . S
O41 C39 1.282 . S
C42 O43 1.306 . S
C42 O45 1.160 . S
O43 C42 1.306 . S
O43 Cd44 2.228 1_556 S
Cd44 O43 2.228 1_554 S
Cd44 O48 2.273 . S
Cd44 O52 2.277 . S
O45 C42 1.160 . S
O45 Cd46 2.203 1_556 S
Cd46 O45 2.203 1_554 S
Cd46 O48 2.411 . S
Cd46 O49 2.333 . S
Cd46 O50 2.352 . S
Cd46 O54 2.277 . S
Cd46 O55 2.356 . S
C47 O52 1.209 . S
C47 O54 1.226 . S
O48 Cd44 2.273 . S
O48 Cd46 2.411 . S
O48 C51 1.320 . S
O49 Cd46 2.333 . S
O49 C51 1.214 . S
O50 Cd46 2.352 . S
O50 C53 1.258 . S
C51 O48 1.320 . S
C51 O49 1.214 . S
O52 Cd44 2.277 . S
O52 C47 1.209 . S
C53 O50 1.258 . S
C53 O55 1.282 . S
O54 Cd46 2.277 . S
O54 C47 1.226 . S
O55 Cd46 2.356 . S
O55 C53 1.282 . S
C56 O57 1.306 . S
C56 O59 1.160 . S
O57 C56 1.306 . S
O57 Cd58 2.228 . S
Cd58 O57 2.228 . S
Cd58 O62 2.273 1_554 S
Cd58 O66 2.277 . S
O59 C56 1.160 . S
O59 Cd60 2.203 . S
Cd60 O59 2.203 . S
Cd60 O62 2.411 1_554 S
Cd60 O63 2.333 1_554 S
Cd60 O64 2.352 . S
Cd60 O68 2.277 . S
Cd60 O69 2.356 . S
C61 O66 1.209 . S
C61 O68 1.226 . S
O62 Cd58 2.273 1_556 S
O62 Cd60 2.411 1_556 S
O62 C65 1.320 . S
O63 Cd60 2.333 1_556 S
O63 C65 1.214 . S
O64 Cd60 2.352 . S
O64 C67 1.258 . S
C65 O62 1.320 . S
C65 O63 1.214 . S
O66 Cd58 2.277 . S
O66 C61 1.209 . S
C67 O64 1.258 . S
C67 O69 1.282 . S
O68 Cd60 2.277 . S
O68 C61 1.226 . S
O69 Cd60 2.356 . S
O69 C67 1.282 . S
C70 O71 1.306 . S
C70 O73 1.160 . S
O71 C70 1.306 . S
O71 Cd72 2.228 . S
Cd72 O71 2.228 . S
Cd72 O76 2.273 1_554 S
Cd72 O80 2.277 . S
O73 C70 1.160 . S
O73 Cd74 2.203 . S
Cd74 O73 2.203 . S
Cd74 O76 2.411 1_554 S
Cd74 O77 2.333 1_554 S
Cd74 O78 2.352 . S
Cd74 O82 2.277 . S
Cd74 O83 2.356 . S
C75 O80 1.209 . S
C75 O82 1.226 . S
O76 Cd72 2.273 1_556 S
O76 Cd74 2.411 1_556 S
O76 C79 1.320 . S
O77 Cd74 2.333 1_556 S
O77 C79 1.214 . S
O78 Cd74 2.352 . S
O78 C81 1.258 . S
C79 O76 1.320 . S
C79 O77 1.214 . S
O80 Cd72 2.277 . S
O80 C75 1.209 . S
C81 O78 1.258 . S
C81 O83 1.282 . S
O82 Cd74 2.277 . S
O82 C75 1.226 . S
O83 Cd74 2.356 . S
O83 C81 1.282 . S
C84 O85 1.306 . S
C84 O87 1.160 . S
O85 C84 1.306 . S
O85 Cd86 2.228 . S
Cd86 O85 2.228 . S
Cd86 O90 2.273 1_554 S
Cd86 O94 2.277 . S
O87 C84 1.160 . S
O87 Cd88 2.203 . S
Cd88 O87 2.203 . S
Cd88 O90 2.411 1_554 S
Cd88 O91 2.333 1_554 S
Cd88 O92 2.352 . S
Cd88 O96 2.277 . S
Cd88 O97 2.356 . S
C89 O94 1.209 . S
C89 O96 1.226 . S
O90 Cd86 2.273 1_556 S
O90 Cd88 2.411 1_556 S
O90 C93 1.320 . S
O91 Cd88 2.333 1_556 S
O91 C93 1.214 . S
O92 Cd88 2.352 . S
O92 C95 1.258 . S
C93 O90 1.320 . S
C93 O91 1.214 . S
O94 Cd86 2.277 . S
O94 C89 1.209 . S
C95 O92 1.258 . S
C95 O97 1.282 . S
O96 Cd88 2.277 . S
O96 C89 1.226 . S
O97 Cd88 2.356 . S
O97 C95 1.282 . S
C98 O99 1.306 . S
C98 O101 1.160 . S
O99 C98 1.306 . S
O99 Cd100 2.228 . S
Cd100 O99 2.228 . S
Cd100 O104 2.273 1_554 S
Cd100 O108 2.277 . S
O101 C98 1.160 . S
O101 Cd102 2.203 . S
Cd102 O101 2.203 . S
Cd102 O104 2.411 1_554 S
Cd102 O105 2.333 1_554 S
Cd102 O106 2.352 . S
Cd102 O110 2.277 . S
Cd102 O111 2.356 . S
C103 O108 1.209 . S
C103 O110 1.226 . S
O104 Cd100 2.273 1_556 S
O104 Cd102 2.411 1_556 S
O104 C107 1.320 . S
O105 Cd102 2.333 1_556 S
O105 C107 1.214 . S
O106 Cd102 2.352 . S
O106 C109 1.258 . S
C107 O104 1.320 . S
C107 O105 1.214 . S
O108 Cd100 2.277 . S
O108 C103 1.209 . S
C109 O106 1.258 . S
C109 O111 1.282 . S
O110 Cd102 2.277 . S
O110 C103 1.226 . S
O111 Cd102 2.356 . S
O111 C109 1.282 . S
C112 O113 1.306 . S
C112 O115 1.160 . S
O113 C112 1.306 . S
O113 Cd114 2.228 . S
Cd114 O113 2.228 . S
Cd114 O118 2.273 . S
Cd114 O122 2.277 . S
O115 C112 1.160 . S
O115 Cd116 2.203 . S
Cd116 O115 2.203 . S
Cd116 O118 2.411 . S
Cd116 O119 2.333 . S
Cd116 O120 2.352 . S
Cd116 O124 2.277 . S
Cd116 O125 2.356 . S
C117 O122 1.209 . S
C117 O124 1.226 . S
O118 Cd114 2.273 . S
O118 Cd116 2.411 . S
O118 C121 1.320 . S
O119 Cd116 2.333 . S
O119 C121 1.214 . S
O120 Cd116 2.352 . S
O120 C123 1.258 . S
C121 O118 1.320 . S
C121 O119 1.214 . S
O122 Cd114 2.277 . S
O122 C117 1.209 . S
C123 O120 1.258 . S
C123 O125 1.282 . S
O124 Cd116 2.277 . S
O124 C117 1.226 . S
O125 Cd116 2.356 . S
O125 C123 1.282 . S
C126 O127 1.306 . S
C126 O129 1.160 . S
O127 C126 1.306 . S
O127 Cd128 2.228 . S
Cd128 O127 2.228 . S
Cd128 O132 2.273 . S
Cd128 O136 2.277 . S
O129 C126 1.160 . S
O129 Cd130 2.203 . S
Cd130 O129 2.203 . S
Cd130 O132 2.411 . S
Cd130 O133 2.333 . S
Cd130 O134 2.352 . S
Cd130 O138 2.277 . S
Cd130 O139 2.356 . S
C131 O136 1.209 . S
C131 O138 1.226 . S
O132 Cd128 2.273 . S
O132 Cd130 2.411 . S
O132 C135 1.320 . S
O133 Cd130 2.333 . S
O133 C135 1.214 . S
O134 Cd130 2.352 . S
O134 C137 1.258 . S
C135 O132 1.320 . S
C135 O133 1.214 . S
O136 Cd128 2.277 . S
O136 C131 1.209 . S
C137 O134 1.258 . S
C137 O139 1.282 . S
O138 Cd130 2.277 . S
O138 C131 1.226 . S
O139 Cd130 2.356 . S
O139 C137 1.282 . S
C140 O141 1.306 . S
C140 O143 1.160 . S
O141 C140 1.306 . S
O141 Cd142 2.228 . S
Cd142 O141 2.228 . S
Cd142 O146 2.273 . S
Cd142 O150 2.277 . S
O143 C140 1.160 . S
O143 Cd144 2.203 . S
Cd144 O143 2.203 . S
Cd144 O146 2.411 . S
Cd144 O147 2.333 . S
Cd144 O148 2.352 . S
Cd144 O152 2.277 . S
Cd144 O153 2.356 . S
C145 O150 1.209 . S
C145 O152 1.226 . S
O146 Cd142 2.273 . S
O146 Cd144 2.411 . S
O146 C149 1.320 . S
O147 Cd144 2.333 . S
O147 C149 1.214 . S
O148 Cd144 2.352 . S
O148 C151 1.258 . S
C149 O146 1.320 . S
C149 O147 1.214 . S
O150 Cd142 2.277 . S
O150 C145 1.209 . S
C151 O148 1.258 . S
C151 O153 1.282 . S
O152 Cd144 2.277 . S
O152 C145 1.226 . S
O153 Cd144 2.356 . S
O153 C151 1.282 . S
C154 O155 1.306 . S
C154 O157 1.160 . S
O155 C154 1.306 . S
O155 Cd156 2.228 . S
Cd156 O155 2.228 . S
Cd156 O160 2.273 . S
Cd156 O164 2.277 . S
O157 C154 1.160 . S
O157 Cd158 2.203 . S
Cd158 O157 2.203 . S
Cd158 O160 2.411 . S
Cd158 O161 2.333 . S
Cd158 O162 2.352 . S
Cd158 O166 2.277 . S
Cd158 O167 2.356 . S
C159 O164 1.209 . S
C159 O166 1.226 . S
O160 Cd156 2.273 . S
O160 Cd158 2.411 . S
O160 C163 1.320 . S
O161 Cd158 2.333 . S
O161 C163 1.214 . S
O162 Cd158 2.352 . S
O162 C165 1.258 . S
C163 O160 1.320 . S
C163 O161 1.214 . S
O164 Cd156 2.277 . S
O164 C159 1.209 . S
C165 O162 1.258 . S
C165 O167 1.282 . S
O166 Cd158 2.277 . S
O166 C159 1.226 . S
O167 Cd158 2.356 . S
O167 C165 1.282 . S
C168 O169 1.306 . S
C168 O171 1.160 . S
O169 C168 1.306 . S
O169 Cd170 2.228 . S
Cd170 O169 2.228 . S
Cd170 O174 2.273 . S
Cd170 O178 2.277 . S
O171 C168 1.160 . S
O171 Cd172 2.203 . S
Cd172 O171 2.203 . S
Cd172 O174 2.411 . S
Cd172 O175 2.333 . S
Cd172 O176 2.352 . S
Cd172 O180 2.277 . S
Cd172 O181 2.356 . S
C173 O178 1.209 . S
C173 O180 1.226 . S
O174 Cd170 2.273 . S
O174 Cd172 2.411 . S
O174 C177 1.320 . S
O175 Cd172 2.333 . S
O175 C177 1.214 . S
O176 Cd172 2.352 . S
O176 C179 1.258 . S
C177 O174 1.320 . S
C177 O175 1.214 . S
O178 Cd170 2.277 . S
O178 C173 1.209 . S
C179 O176 1.258 . S
C179 O181 1.282 . S
O180 Cd172 2.277 . S
O180 C173 1.226 . S
O181 Cd172 2.356 . S
O181 C179 1.282 . S
C182 O183 1.306 . S
C182 O185 1.160 . S
O183 C182 1.306 . S
O183 Cd184 2.228 . S
Cd184 O183 2.228 . S
Cd184 O188 2.273 . S
Cd184 O192 2.277 . S
O185 C182 1.160 . S
O185 Cd186 2.203 . S
Cd186 O185 2.203 . S
Cd186 O188 2.411 . S
Cd186 O189 2.333 . S
Cd186 O190 2.352 . S
Cd186 O194 2.277 . S
Cd186 O195 2.356 . S
C187 O192 1.209 . S
C187 O194 1.226 . S
O188 Cd184 2.273 . S
O188 Cd186 2.411 . S
O188 C191 1.320 . S
O189 Cd186 2.333 . S
O189 C191 1.214 . S
O190 Cd186 2.352 . S
O190 C193 1.258 . S
C191 O188 1.320 . S
C191 O189 1.214 . S
O192 Cd184 2.277 . S
O192 C187 1.209 . S
C193 O190 1.258 . S
C193 O195 1.282 . S
O194 Cd186 2.277 . S
O194 C187 1.226 . S
O195 Cd186 2.356 . S
O195 C193 1.282 . S
C196 O197 1.306 . S
C196 O199 1.160 . S
O197 C196 1.306 . S
O197 Cd198 2.228 . S
Cd198 O197 2.228 . S
Cd198 O202 2.273 . S
Cd198 O206 2.277 . S
O199 C196 1.160 . S
O199 Cd200 2.203 . S
Cd200 O199 2.203 . S
Cd200 O202 2.411 . S
Cd200 O203 2.333 . S
Cd200 O204 2.352 . S
Cd200 O208 2.277 . S
Cd200 O209 2.356 . S
C201 O206 1.209 . S
C201 O208 1.226 . S
O202 Cd198 2.273 . S
O202 Cd200 2.411 . S
O202 C205 1.320 . S
O203 Cd200 2.333 . S
O203 C205 1.214 . S
O204 Cd200 2.352 . S
O204 C207 1.258 . S
C205 O202 1.320 . S
C205 O203 1.214 . S
O206 Cd198 2.277 . S
O206 C201 1.209 . S
C207 O204 1.258 . S
C207 O209 1.282 . S
O208 Cd200 2.277 . S
O208 C201 1.226 . S
O209 Cd200 2.356 . S
O209 C207 1.282 . S
C210 O211 1.306 . S
C210 O213 1.160 . S
O211 C210 1.306 . S
O211 Cd212 2.228 . S
Cd212 O211 2.228 . S
Cd212 O216 2.273 . S
Cd212 O220 2.277 . S
O213 C210 1.160 . S
O213 Cd214 2.203 . S
Cd214 O213 2.203 . S
Cd214 O216 2.411 . S
Cd214 O217 2.333 . S
Cd214 O218 2.352 . S
Cd214 O222 2.277 . S
Cd214 O223 2.356 . S
C215 O220 1.209 . S
C215 O222 1.226 . S
O216 Cd212 2.273 . S
O216 Cd214 2.411 . S
O216 C219 1.320 . S
O217 Cd214 2.333 . S
O217 C219 1.214 . S
O218 Cd214 2.352 . S
O218 C221 1.258 . S
C219 O216 1.320 . S
C219 O217 1.214 . S
O220 Cd212 2.277 . S
O220 C215 1.209 . S
C221 O218 1.258 . S
C221 O223 1.282 . S
O222 Cd214 2.277 . S
O222 C215 1.226 . S
O223 Cd214 2.356 . S
O223 C221 1.282 . S
C224 C225 1.363 . S
C224 C230 1.379 . S
C224 N232 1.356 . S
C225 C224 1.363 . S
C225 C231 1.363 1_554 S
C226 C227 1.363 1_556 S
C226 C231 1.379 . S
C226 N233 1.356 . S
C227 C226 1.363 1_554 S
C227 C230 1.363 . S
N228 C230 1.356 . S
N228 H240 0.984 . S
N228 H241 0.985 . S
N229 C231 1.356 . S
N229 H234 0.984 . S
N229 H235 0.985 . S
C230 C224 1.379 . S
C230 C227 1.363 . S
C230 N228 1.356 . S
C231 C225 1.363 1_556 S
C231 C226 1.379 . S
C231 N229 1.356 . S
N232 C224 1.356 . S
N232 H238 0.984 . S
N232 H239 0.984 . S
N233 C226 1.356 . S
N233 H236 0.984 . S
N233 H237 0.985 . S
H234 N229 0.984 . S
H235 N229 0.985 . S
H236 N233 0.984 . S
H237 N233 0.985 . S
H238 N232 0.984 . S
H239 N232 0.984 . S
H240 N228 0.984 . S
H241 N228 0.985 . S
C242 C243 1.363 1_556 S
C242 C248 1.379 . S
C242 N250 1.356 . S
C243 C242 1.363 1_554 S
C243 C249 1.363 . S
C244 C245 1.363 . S
C244 C249 1.379 . S
C244 N251 1.356 . S
C245 C244 1.363 . S
C245 C248 1.363 1_554 S
N246 C248 1.356 . S
N246 H258 0.984 . S
N246 H259 0.985 . S
N247 C249 1.356 . S
N247 H252 0.984 . S
N247 H253 0.985 . S
C248 C242 1.379 . S
C248 C245 1.363 1_556 S
C248 N246 1.356 . S
C249 C243 1.363 . S
C249 C244 1.379 . S
C249 N247 1.356 . S
N250 C242 1.356 . S
N250 H256 0.984 . S
N250 H257 0.984 . S
N251 C244 1.356 . S
N251 H254 0.984 . S
N251 H255 0.985 . S
H252 N247 0.984 . S
H253 N247 0.985 . S
H254 N251 0.984 . S
H255 N251 0.985 . S
H256 N250 0.984 . S
H257 N250 0.984 . S
H258 N246 0.984 . S
H259 N246 0.985 . S
C260 C261 1.363 1_556 S
C260 C266 1.379 . S
C260 N268 1.356 . S
C261 C260 1.363 1_554 S
C261 C267 1.363 . S
C262 C263 1.363 . S
C262 C267 1.379 . S
C262 N269 1.356 . S
C263 C262 1.363 . S
C263 C266 1.363 1_554 S
N264 C266 1.356 . S
N264 H276 0.984 . S
N264 H277 0.985 . S
N265 C267 1.356 . S
N265 H270 0.984 . S
N265 H271 0.985 . S
C266 C260 1.379 . S
C266 C263 1.363 1_556 S
C266 N264 1.356 . S
C267 C261 1.363 . S
C267 C262 1.379 . S
C267 N265 1.356 . S
N268 C260 1.356 . S
N268 H274 0.984 . S
N268 H275 0.984 . S
N269 C262 1.356 . S
N269 H272 0.984 . S
N269 H273 0.985 . S
H270 N265 0.984 . S
H271 N265 0.985 . S
H272 N269 0.984 . S
H273 N269 0.985 . S
H274 N268 0.984 . S
H275 N268 0.984 . S
H276 N264 0.984 . S
H277 N264 0.985 . S
C278 C279 1.363 . S
C278 C284 1.379 . S
C278 N286 1.356 . S
C279 C278 1.363 . S
C279 C285 1.363 1_554 S
C280 C281 1.363 1_556 S
C280 C285 1.379 . S
C280 N287 1.356 . S
C281 C280 1.363 1_554 S
C281 C284 1.363 . S
N282 C284 1.356 . S
N282 H294 0.984 . S
N282 H295 0.985 . S
N283 C285 1.356 . S
N283 H288 0.984 . S
N283 H289 0.985 . S
C284 C278 1.379 . S
C284 C281 1.363 . S
C284 N282 1.356 . S
C285 C279 1.363 1_556 S
C285 C280 1.379 . S
C285 N283 1.356 . S
N286 C278 1.356 . S
N286 H292 0.984 . S
N286 H293 0.984 . S
N287 C280 1.356 . S
N287 H290 0.984 . S
N287 H291 0.985 . S
H288 N283 0.984 . S
H289 N283 0.985 . S
H290 N287 0.984 . S
H291 N287 0.985 . S
H292 N286 0.984 . S
H293 N286 0.984 . S
H294 N282 0.984 . S
H295 N282 0.985 . S
C296 C297 1.363 . S
C296 C302 1.379 1_545 S
C296 N304 1.356 . S
C297 C296 1.363 . S
C297 C303 1.363 . S
C298 C299 1.363 . S
C298 C303 1.379 1_565 S
C298 N305 1.356 . S
C299 C298 1.363 . S
C299 C302 1.363 . S
N300 C302 1.356 . S
N300 H312 0.984 . S
N300 H313 0.985 . S
N301 C303 1.356 . S
N301 H306 0.984 . S
N301 H307 0.985 . S
C302 C296 1.379 1_565 S
C302 C299 1.363 . S
C302 N300 1.356 . S
C303 C297 1.363 . S
C303 C298 1.379 1_545 S
C303 N301 1.356 . S
N304 C296 1.356 . S
N304 H310 0.984 . S
N304 H311 0.984 . S
N305 C298 1.356 . S
N305 H308 0.984 . S
N305 H309 0.985 . S
H306 N301 0.984 . S
H307 N301 0.985 . S
H308 N305 0.984 . S
H309 N305 0.985 . S
H310 N304 0.984 . S
H311 N304 0.984 . S
H312 N300 0.984 . S
H313 N300 0.985 . S
C314 C315 1.363 . S
C314 C320 1.379 1_655 S
C314 N322 1.356 . S
C315 C314 1.363 . S
C315 C321 1.363 . S
C316 C317 1.363 . S
C316 C321 1.379 1_455 S
C316 N323 1.356 . S
C317 C316 1.363 . S
C317 C320 1.363 . S
N318 C320 1.356 . S
N318 H330 0.984 . S
N318 H331 0.985 . S
N319 C321 1.356 . S
N319 H324 0.984 . S
N319 H325 0.985 . S
C320 C314 1.379 1_455 S
C320 C317 1.363 . S
C320 N318 1.356 . S
C321 C315 1.363 . S
C321 C316 1.379 1_655 S
C321 N319 1.356 . S
N322 C314 1.356 . S
N322 H328 0.984 . S
N322 H329 0.984 . S
N323 C316 1.356 . S
N323 H326 0.984 . S
N323 H327 0.985 . S
H324 N319 0.984 . S
H325 N319 0.985 . S
H326 N323 0.984 . S
H327 N323 0.985 . S
H328 N322 0.984 . S
H329 N322 0.984 . S
H330 N318 0.984 . S
H331 N318 0.985 . S
C332 C333 1.363 . S
C332 C338 1.379 1_545 S
C332 N340 1.356 . S
C333 C332 1.363 . S
C333 C339 1.363 . S
C334 C335 1.363 . S
C334 C339 1.379 1_565 S
C334 N341 1.356 . S
C335 C334 1.363 . S
C335 C338 1.363 . S
N336 C338 1.356 . S
N336 H348 0.984 . S
N336 H349 0.985 . S
N337 C339 1.356 . S
N337 H342 0.984 . S
N337 H343 0.985 . S
C338 C332 1.379 1_565 S
C338 C335 1.363 . S
C338 N336 1.356 . S
C339 C333 1.363 . S
C339 C334 1.379 1_545 S
C339 N337 1.356 . S
N340 C332 1.356 . S
N340 H346 0.984 . S
N340 H347 0.984 . S
N341 C334 1.356 . S
N341 H344 0.984 . S
N341 H345 0.985 . S
H342 N337 0.984 . S
H343 N337 0.985 . S
H344 N341 0.984 . S
H345 N341 0.985 . S
H346 N340 0.984 . S
H347 N340 0.984 . S
H348 N336 0.984 . S
H349 N336 0.985 . S
C350 C351 1.363 . S
C350 C356 1.379 1_455 S
C350 N358 1.356 . S
C351 C350 1.363 . S
C351 C357 1.363 . S
C352 C353 1.363 . S
C352 C357 1.379 1_655 S
C352 N359 1.356 . S
C353 C352 1.363 . S
C353 C356 1.363 . S
N354 C356 1.356 . S
N354 H366 0.984 . S
N354 H367 0.985 . S
N355 C357 1.356 . S
N355 H360 0.984 . S
N355 H361 0.985 . S
C356 C350 1.379 1_655 S
C356 C353 1.363 . S
C356 N354 1.356 . S
C357 C351 1.363 . S
C357 C352 1.379 1_455 S
C357 N355 1.356 . S
N358 C350 1.356 . S
N358 H364 0.984 . S
N358 H365 0.984 . S
N359 C352 1.356 . S
N359 H362 0.984 . S
N359 H363 0.985 . S
H360 N355 0.984 . S
H361 N355 0.985 . S
H362 N359 0.984 . S
H363 N359 0.985 . S
H364 N358 0.984 . S
H365 N358 0.984 . S
H366 N354 0.984 . S
H367 N354 0.985 . S
C368 C369 1.363 1_556 S
C368 C374 1.379 . S
C368 N376 1.356 . S
C369 C368 1.363 1_554 S
C369 C375 1.363 . S
C370 C371 1.363 . S
C370 C375 1.379 . S
C370 N377 1.356 . S
C371 C370 1.363 . S
C371 C374 1.363 1_554 S
N372 C374 1.356 . S
N372 H384 0.984 . S
N372 H385 0.985 . S
N373 C375 1.356 . S
N373 H378 0.984 . S
N373 H379 0.985 . S
C374 C368 1.379 . S
C374 C371 1.363 1_556 S
C374 N372 1.356 . S
C375 C369 1.363 . S
C375 C370 1.379 . S
C375 N373 1.356 . S
N376 C368 1.356 . S
N376 H382 0.984 . S
N376 H383 0.984 . S
N377 C370 1.356 . S
N377 H380 0.984 . S
N377 H381 0.985 . S
H378 N373 0.984 . S
H379 N373 0.985 . S
H380 N377 0.984 . S
H381 N377 0.985 . S
H382 N376 0.984 . S
H383 N376 0.984 . S
H384 N372 0.984 . S
H385 N372 0.985 . S
C386 C387 1.363 1_556 S
C386 C392 1.379 . S
C386 N394 1.356 . S
C387 C386 1.363 1_554 S
C387 C393 1.363 . S
C388 C389 1.363 . S
C388 C393 1.379 . S
C388 N395 1.356 . S
C389 C388 1.363 . S
C389 C392 1.363 1_554 S
N390 C392 1.356 . S
N390 H402 0.984 . S
N390 H403 0.985 . S
N391 C393 1.356 . S
N391 H396 0.984 . S
N391 H397 0.985 . S
C392 C386 1.379 . S
C392 C389 1.363 1_556 S
C392 N390 1.356 . S
C393 C387 1.363 . S
C393 C388 1.379 . S
C393 N391 1.356 . S
N394 C386 1.356 . S
N394 H400 0.984 . S
N394 H401 0.984 . S
N395 C388 1.356 . S
N395 H398 0.984 . S
N395 H399 0.985 . S
H396 N391 0.984 . S
H397 N391 0.985 . S
H398 N395 0.984 . S
H399 N395 0.985 . S
H400 N394 0.984 . S
H401 N394 0.984 . S
H402 N390 0.984 . S
H403 N390 0.985 . S
C404 C405 1.363 1_556 S
C404 C410 1.379 . S
C404 N412 1.356 . S
C405 C404 1.363 1_554 S
C405 C411 1.363 . S
C406 C407 1.363 . S
C406 C411 1.379 . S
C406 N413 1.356 . S
C407 C406 1.363 . S
C407 C410 1.363 1_554 S
N408 C410 1.356 . S
N408 H420 0.984 . S
N408 H421 0.985 . S
N409 C411 1.356 . S
N409 H414 0.984 . S
N409 H415 0.985 . S
C410 C404 1.379 . S
C410 C407 1.363 1_556 S
C410 N408 1.356 . S
C411 C405 1.363 . S
C411 C406 1.379 . S
C411 N409 1.356 . S
N412 C404 1.356 . S
N412 H418 0.984 . S
N412 H419 0.984 . S
N413 C406 1.356 . S
N413 H416 0.984 . S
N413 H417 0.985 . S
H414 N409 0.984 . S
H415 N409 0.985 . S
H416 N413 0.984 . S
H417 N413 0.985 . S
H418 N412 0.984 . S
H419 N412 0.984 . S
H420 N408 0.984 . S
H421 N408 0.985 . S
C422 C423 1.363 1_556 S
C422 C428 1.379 . S
C422 N430 1.356 . S
C423 C422 1.363 1_554 S
C423 C429 1.363 . S
C424 C425 1.363 . S
C424 C429 1.379 . S
C424 N431 1.356 . S
C425 C424 1.363 . S
C425 C428 1.363 1_554 S
N426 C428 1.356 . S
N426 H438 0.984 . S
N426 H439 0.985 . S
N427 C429 1.356 . S
N427 H432 0.984 . S
N427 H433 0.985 . S
C428 C422 1.379 . S
C428 C425 1.363 1_556 S
C428 N426 1.356 . S
C429 C423 1.363 . S
C429 C424 1.379 . S
C429 N427 1.356 . S
N430 C422 1.356 . S
N430 H436 0.984 . S
N430 H437 0.984 . S
N431 C424 1.356 . S
N431 H434 0.984 . S
N431 H435 0.985 . S
H432 N427 0.984 . S
H433 N427 0.985 . S
H434 N431 0.984 . S
H435 N431 0.985 . S
H436 N430 0.984 . S
H437 N430 0.984 . S
H438 N426 0.984 . S
H439 N426 0.985 . S
C440 C441 1.363 . S
C440 C446 1.379 . S
C440 N448 1.356 . S
C441 C440 1.363 . S
C441 C447 1.363 . S
C442 C443 1.363 . S
C442 C447 1.379 . S
C442 N449 1.356 . S
C443 C442 1.363 . S
C443 C446 1.363 . S
N444 C446 1.356 . S
N444 H456 0.984 . S
N444 H457 0.985 . S
N445 C447 1.356 . S
N445 H450 0.984 . S
N445 H451 0.985 . S
C446 C440 1.379 . S
C446 C443 1.363 . S
C446 N444 1.356 . S
C447 C441 1.363 . S
C447 C442 1.379 . S
C447 N445 1.356 . S
N448 C440 1.356 . S
N448 H454 0.984 . S
N448 H455 0.984 . S
N449 C442 1.356 . S
N449 H452 0.984 . S
N449 H453 0.985 . S
H450 N445 0.984 . S
H451 N445 0.985 . S
H452 N449 0.984 . S
H453 N449 0.985 . S
H454 N448 0.984 . S
H455 N448 0.984 . S
H456 N444 0.984 . S
H457 N444 0.985 . S
C458 C459 1.363 . S
C458 C464 1.379 . S
C458 N466 1.356 . S
C459 C458 1.363 . S
C459 C465 1.363 . S
C460 C461 1.363 . S
C460 C465 1.379 . S
C460 N467 1.356 . S
C461 C460 1.363 . S
C461 C464 1.363 . S
N462 C464 1.356 . S
N462 H474 0.984 . S
N462 H475 0.985 . S
N463 C465 1.356 . S
N463 H468 0.984 . S
N463 H469 0.985 . S
C464 C458 1.379 . S
C464 C461 1.363 . S
C464 N462 1.356 . S
C465 C459 1.363 . S
C465 C460 1.379 . S
C465 N463 1.356 . S
N466 C458 1.356 . S
N466 H472 0.984 . S
N466 H473 0.984 . S
N467 C460 1.356 . S
N467 H470 0.984 . S
N467 H471 0.985 . S
H468 N463 0.984 . S
H469 N463 0.985 . S
H470 N467 0.984 . S
H471 N467 0.985 . S
H472 N466 0.984 . S
H473 N466 0.984 . S
H474 N462 0.984 . S
H475 N462 0.985 . S
C476 C477 1.363 . S
C476 C482 1.379 . S
C476 N484 1.356 . S
C477 C476 1.363 . S
C477 C483 1.363 . S
C478 C479 1.363 . S
C478 C483 1.379 . S
C478 N485 1.356 . S
C479 C478 1.363 . S
C479 C482 1.363 . S
N480 C482 1.356 . S
N480 H492 0.984 . S
N480 H493 0.985 . S
N481 C483 1.356 . S
N481 H486 0.984 . S
N481 H487 0.985 . S
C482 C476 1.379 . S
C482 C479 1.363 . S
C482 N480 1.356 . S
C483 C477 1.363 . S
C483 C478 1.379 . S
C483 N481 1.356 . S
N484 C476 1.356 . S
N484 H490 0.984 . S
N484 H491 0.984 . S
N485 C478 1.356 . S
N485 H488 0.984 . S
N485 H489 0.985 . S
H486 N481 0.984 . S
H487 N481 0.985 . S
H488 N485 0.984 . S
H489 N485 0.985 . S
H490 N484 0.984 . S
H491 N484 0.984 . S
H492 N480 0.984 . S
H493 N480 0.985 . S
C494 C495 1.363 . S
C494 C500 1.379 . S
C494 N502 1.356 . S
C495 C494 1.363 . S
C495 C501 1.363 . S
C496 C497 1.363 . S
C496 C501 1.379 . S
C496 N503 1.356 . S
C497 C496 1.363 . S
C497 C500 1.363 . S
N498 C500 1.356 . S
N498 H510 0.984 . S
N498 H511 0.985 . S
N499 C501 1.356 . S
N499 H504 0.984 . S
N499 H505 0.985 . S
C500 C494 1.379 . S
C500 C497 1.363 . S
C500 N498 1.356 . S
C501 C495 1.363 . S
C501 C496 1.379 . S
C501 N499 1.356 . S
N502 C494 1.356 . S
N502 H508 0.984 . S
N502 H509 0.984 . S
N503 C496 1.356 . S
N503 H506 0.984 . S
N503 H507 0.985 . S
H504 N499 0.984 . S
H505 N499 0.985 . S
H506 N503 0.984 . S
H507 N503 0.985 . S
H508 N502 0.984 . S
H509 N502 0.984 . S
H510 N498 0.984 . S
H511 N498 0.985 . S
C512 C513 1.363 . S
C512 C518 1.379 . S
C512 N520 1.356 . S
C513 C512 1.363 . S
C513 C519 1.363 . S
C514 C515 1.363 . S
C514 C519 1.379 . S
C514 N521 1.356 . S
C515 C514 1.363 . S
C515 C518 1.363 . S
N516 C518 1.356 . S
N516 H528 0.984 . S
N516 H529 0.985 . S
N517 C519 1.356 . S
N517 H522 0.984 . S
N517 H523 0.985 . S
C518 C512 1.379 . S
C518 C515 1.363 . S
C518 N516 1.356 . S
C519 C513 1.363 . S
C519 C514 1.379 . S
C519 N517 1.356 . S
N520 C512 1.356 . S
N520 H526 0.984 . S
N520 H527 0.984 . S
N521 C514 1.356 . S
N521 H524 0.984 . S
N521 H525 0.985 . S
H522 N517 0.984 . S
H523 N517 0.985 . S
H524 N521 0.984 . S
H525 N521 0.985 . S
H526 N520 0.984 . S
H527 N520 0.984 . S
H528 N516 0.984 . S
H529 N516 0.985 . S
C530 C531 1.363 . S
C530 C536 1.379 . S
C530 N538 1.356 . S
C531 C530 1.363 . S
C531 C537 1.363 . S
C532 C533 1.363 . S
C532 C537 1.379 . S
C532 N539 1.356 . S
C533 C532 1.363 . S
C533 C536 1.363 . S
N534 C536 1.356 . S
N534 H546 0.984 . S
N534 H547 0.985 . S
N535 C537 1.356 . S
N535 H540 0.984 . S
N535 H541 0.985 . S
C536 C530 1.379 . S
C536 C533 1.363 . S
C536 N534 1.356 . S
C537 C531 1.363 . S
C537 C532 1.379 . S
C537 N535 1.356 . S
N538 C530 1.356 . S
N538 H544 0.984 . S
N538 H545 0.984 . S
N539 C532 1.356 . S
N539 H542 0.984 . S
N539 H543 0.985 . S
H540 N535 0.984 . S
H541 N535 0.985 . S
H542 N539 0.984 . S
H543 N539 0.985 . S
H544 N538 0.984 . S
H545 N538 0.984 . S
H546 N534 0.984 . S
H547 N534 0.985 . S
C548 C549 1.363 . S
C548 C554 1.379 . S
C548 N556 1.356 . S
C549 C548 1.363 . S
C549 C555 1.363 . S
C550 C551 1.363 . S
C550 C555 1.379 . S
C550 N557 1.356 . S
C551 C550 1.363 . S
C551 C554 1.363 . S
N552 C554 1.356 . S
N552 H564 0.984 . S
N552 H565 0.985 . S
N553 C555 1.356 . S
N553 H558 0.984 . S
N553 H559 0.985 . S
C554 C548 1.379 . S
C554 C551 1.363 . S
C554 N552 1.356 . S
C555 C549 1.363 . S
C555 C550 1.379 . S
C555 N553 1.356 . S
N556 C548 1.356 . S
N556 H562 0.984 . S
N556 H563 0.984 . S
N557 C550 1.356 . S
N557 H560 0.984 . S
N557 H561 0.985 . S
H558 N553 0.984 . S
H559 N553 0.985 . S
H560 N557 0.984 . S
H561 N557 0.985 . S
H562 N556 0.984 . S
H563 N556 0.984 . S
H564 N552 0.984 . S
H565 N552 0.985 . S
C566 C567 1.363 . S
C566 C572 1.379 . S
C566 N574 1.356 . S
C567 C566 1.363 . S
C567 C573 1.363 . S
C568 C569 1.363 . S
C568 C573 1.379 . S
C568 N575 1.356 . S
C569 C568 1.363 . S
C569 C572 1.363 . S
N570 C572 1.356 . S
N570 H582 0.984 . S
N570 H583 0.985 . S
N571 C573 1.356 . S
N571 H576 0.984 . S
N571 H577 0.985 . S
C572 C566 1.379 . S
C572 C569 1.363 . S
C572 N570 1.356 . S
C573 C567 1.363 . S
C573 C568 1.379 . S
C573 N571 1.356 . S
N574 C566 1.356 . S
N574 H580 0.984 . S
N574 H581 0.984 . S
N575 C568 1.356 . S
N575 H578 0.984 . S
N575 H579 0.985 . S
H576 N571 0.984 . S
H577 N571 0.985 . S
H578 N575 0.984 . S
H579 N575 0.985 . S
H580 N574 0.984 . S
H581 N574 0.984 . S
H582 N570 0.984 . S
H583 N570 0.985 . S
C584 C585 1.363 . S
C584 C590 1.379 . S
C584 N592 1.356 . S
C585 C584 1.363 . S
C585 C591 1.363 . S
C586 C587 1.363 . S
C586 C591 1.379 . S
C586 N593 1.356 . S
C587 C586 1.363 . S
C587 C590 1.363 . S
N588 C590 1.356 . S
N588 H600 0.984 . S
N588 H601 0.985 . S
N589 C591 1.356 . S
N589 H594 0.984 . S
N589 H595 0.985 . S
C590 C584 1.379 . S
C590 C587 1.363 . S
C590 N588 1.356 . S
C591 C585 1.363 . S
C591 C586 1.379 . S
C591 N589 1.356 . S
N592 C584 1.356 . S
N592 H598 0.984 . S
N592 H599 0.984 . S
N593 C586 1.356 . S
N593 H596 0.984 . S
N593 H597 0.985 . S
H594 N589 0.984 . S
H595 N589 0.985 . S
H596 N593 0.984 . S
H597 N593 0.985 . S
H598 N592 0.984 . S
H599 N592 0.984 . S
H600 N588 0.984 . S
H601 N588 0.985 . S
C602 C603 1.363 . S
C602 C608 1.379 . S
C602 N610 1.356 . S
C603 C602 1.363 . S
C603 C609 1.363 . S
C604 C605 1.363 . S
C604 C609 1.379 . S
C604 N611 1.356 . S
C605 C604 1.363 . S
C605 C608 1.363 . S
N606 C608 1.356 . S
N606 H618 0.984 . S
N606 H619 0.985 . S
N607 C609 1.356 . S
N607 H612 0.984 . S
N607 H613 0.985 . S
C608 C602 1.379 . S
C608 C605 1.363 . S
C608 N606 1.356 . S
C609 C603 1.363 . S
C609 C604 1.379 . S
C609 N607 1.356 . S
N610 C602 1.356 . S
N610 H616 0.984 . S
N610 H617 0.984 . S
N611 C604 1.356 . S
N611 H614 0.984 . S
N611 H615 0.985 . S
H612 N607 0.984 . S
H613 N607 0.985 . S
H614 N611 0.984 . S
H615 N611 0.985 . S
H616 N610 0.984 . S
H617 N610 0.984 . S
H618 N606 0.984 . S
H619 N606 0.985 . S
C620 C621 1.363 . S
C620 C626 1.379 . S
C620 N628 1.356 . S
C621 C620 1.363 . S
C621 C627 1.363 . S
C622 C623 1.363 . S
C622 C627 1.379 . S
C622 N629 1.356 . S
C623 C622 1.363 . S
C623 C626 1.363 . S
N624 C626 1.356 . S
N624 H636 0.984 . S
N624 H637 0.985 . S
N625 C627 1.356 . S
N625 H630 0.984 . S
N625 H631 0.985 . S
C626 C620 1.379 . S
C626 C623 1.363 . S
C626 N624 1.356 . S
C627 C621 1.363 . S
C627 C622 1.379 . S
C627 N625 1.356 . S
N628 C620 1.356 . S
N628 H634 0.984 . S
N628 H635 0.984 . S
N629 C622 1.356 . S
N629 H632 0.984 . S
N629 H633 0.985 . S
H630 N625 0.984 . S
H631 N625 0.985 . S
H632 N629 0.984 . S
H633 N629 0.985 . S
H634 N628 0.984 . S
H635 N628 0.984 . S
H636 N624 0.984 . S
H637 N624 0.985 . S
C638 C639 1.363 . S
C638 C644 1.379 . S
C638 N646 1.356 . S
C639 C638 1.363 . S
C639 C645 1.363 . S
C640 C641 1.363 . S
C640 C645 1.379 . S
C640 N647 1.356 . S
C641 C640 1.363 . S
C641 C644 1.363 . S
N642 C644 1.356 . S
N642 H654 0.984 . S
N642 H655 0.985 . S
N643 C645 1.356 . S
N643 H648 0.984 . S
N643 H649 0.985 . S
C644 C638 1.379 . S
C644 C641 1.363 . S
C644 N642 1.356 . S
C645 C639 1.363 . S
C645 C640 1.379 . S
C645 N643 1.356 . S
N646 C638 1.356 . S
N646 H652 0.984 . S
N646 H653 0.984 . S
N647 C640 1.356 . S
N647 H650 0.984 . S
N647 H651 0.985 . S
H648 N643 0.984 . S
H649 N643 0.985 . S
H650 N647 0.984 . S
H651 N647 0.985 . S
H652 N646 0.984 . S
H653 N646 0.984 . S
H654 N642 0.984 . S
H655 N642 0.985 . S
C656 C657 1.363 . S
C656 C662 1.379 . S
C656 N664 1.356 . S
C657 C656 1.363 . S
C657 C663 1.363 . S
C658 C659 1.363 . S
C658 C663 1.379 . S
C658 N665 1.356 . S
C659 C658 1.363 . S
C659 C662 1.363 . S
N660 C662 1.356 . S
N660 H672 0.984 . S
N660 H673 0.985 . S
N661 C663 1.356 . S
N661 H666 0.984 . S
N661 H667 0.985 . S
C662 C656 1.379 . S
C662 C659 1.363 . S
C662 N660 1.356 . S
C663 C657 1.363 . S
C663 C658 1.379 . S
C663 N661 1.356 . S
N664 C656 1.356 . S
N664 H670 0.984 . S
N664 H671 0.984 . S
N665 C658 1.356 . S
N665 H668 0.984 . S
N665 H669 0.985 . S
H666 N661 0.984 . S
H667 N661 0.985 . S
H668 N665 0.984 . S
H669 N665 0.985 . S
H670 N664 0.984 . S
H671 N664 0.984 . S
H672 N660 0.984 . S
H673 N660 0.985 . S
C674 C675 1.363 . S
C674 C680 1.379 . S
C674 N682 1.356 . S
C675 C674 1.363 . S
C675 C681 1.363 . S
C676 C677 1.363 . S
C676 C681 1.379 . S
C676 N683 1.356 . S
C677 C676 1.363 . S
C677 C680 1.363 . S
N678 C680 1.356 . S
N678 H690 0.984 . S
N678 H691 0.985 . S
N679 C681 1.356 . S
N679 H684 0.984 . S
N679 H685 0.985 . S
C680 C674 1.379 . S
C680 C677 1.363 . S
C680 N678 1.356 . S
C681 C675 1.363 . S
C681 C676 1.379 . S
C681 N679 1.356 . S
N682 C674 1.356 . S
N682 H688 0.984 . S
N682 H689 0.984 . S
N683 C676 1.356 . S
N683 H686 0.984 . S
N683 H687 0.985 . S
H684 N679 0.984 . S
H685 N679 0.985 . S
H686 N683 0.984 . S
H687 N683 0.985 . S
H688 N682 0.984 . S
H689 N682 0.984 . S
H690 N678 0.984 . S
H691 N678 0.985 . S
C692 C693 1.363 . S
C692 C698 1.379 . S
C692 N700 1.356 . S
C693 C692 1.363 . S
C693 C699 1.363 . S
C694 C695 1.363 . S
C694 C699 1.379 . S
C694 N701 1.356 . S
C695 C694 1.363 . S
C695 C698 1.363 . S
N696 C698 1.356 . S
N696 H708 0.984 . S
N696 H709 0.985 . S
N697 C699 1.356 . S
N697 H702 0.984 . S
N697 H703 0.985 . S
C698 C692 1.379 . S
C698 C695 1.363 . S
C698 N696 1.356 . S
C699 C693 1.363 . S
C699 C694 1.379 . S
C699 N697 1.356 . S
N700 C692 1.356 . S
N700 H706 0.984 . S
N700 H707 0.984 . S
N701 C694 1.356 . S
N701 H704 0.984 . S
N701 H705 0.985 . S
H702 N697 0.984 . S
H703 N697 0.985 . S
H704 N701 0.984 . S
H705 N701 0.985 . S
H706 N700 0.984 . S
H707 N700 0.984 . S
H708 N696 0.984 . S
H709 N696 0.985 . S
C710 C711 1.363 . S
C710 C716 1.379 . S
C710 N718 1.356 . S
C711 C710 1.363 . S
C711 C717 1.363 . S
C712 C713 1.363 . S
C712 C717 1.379 . S
C712 N719 1.356 . S
C713 C712 1.363 . S
C713 C716 1.363 . S
N714 C716 1.356 . S
N714 H726 0.984 . S
N714 H727 0.985 . S
N715 C717 1.356 . S
N715 H720 0.984 . S
N715 H721 0.985 . S
C716 C710 1.379 . S
C716 C713 1.363 . S
C716 N714 1.356 . S
C717 C711 1.363 . S
C717 C712 1.379 . S
C717 N715 1.356 . S
N718 C710 1.356 . S
N718 H724 0.984 . S
N718 H725 0.984 . S
N719 C712 1.356 . S
N719 H722 0.984 . S
N719 H723 0.985 . S
H720 N715 0.984 . S
H721 N715 0.985 . S
H722 N719 0.984 . S
H723 N719 0.985 . S
H724 N718 0.984 . S
H725 N718 0.984 . S
H726 N714 0.984 . S
H727 N714 0.985 . S
C728 C729 1.363 . S
C728 C734 1.379 . S
C728 N736 1.356 . S
C729 C728 1.363 . S
C729 C735 1.363 . S
C730 C731 1.363 . S
C730 C735 1.379 . S
C730 N737 1.356 . S
C731 C730 1.363 . S
C731 C734 1.363 . S
N732 C734 1.356 . S
N732 H744 0.984 . S
N732 H745 0.985 . S
N733 C735 1.356 . S
N733 H738 0.984 . S
N733 H739 0.985 . S
C734 C728 1.379 . S
C734 C731 1.363 . S
C734 N732 1.356 . S
C735 C729 1.363 . S
C735 C730 1.379 . S
C735 N733 1.356 . S
N736 C728 1.356 . S
N736 H742 0.984 . S
N736 H743 0.984 . S
N737 C730 1.356 . S
N737 H740 0.984 . S
N737 H741 0.985 . S
H738 N733 0.984 . S
H739 N733 0.985 . S
H740 N737 0.984 . S
H741 N737 0.985 . S
H742 N736 0.984 . S
H743 N736 0.984 . S
H744 N732 0.984 . S
H745 N732 0.985 . S
C746 C747 1.363 . S
C746 C752 1.379 . S
C746 N754 1.356 . S
C747 C746 1.363 . S
C747 C753 1.363 . S
C748 C749 1.363 . S
C748 C753 1.379 . S
C748 N755 1.356 . S
C749 C748 1.363 . S
C749 C752 1.363 . S
N750 C752 1.356 . S
N750 H762 0.984 . S
N750 H763 0.985 . S
N751 C753 1.356 . S
N751 H756 0.984 . S
N751 H757 0.985 . S
C752 C746 1.379 . S
C752 C749 1.363 . S
C752 N750 1.356 . S
C753 C747 1.363 . S
C753 C748 1.379 . S
C753 N751 1.356 . S
N754 C746 1.356 . S
N754 H760 0.984 . S
N754 H761 0.984 . S
N755 C748 1.356 . S
N755 H758 0.984 . S
N755 H759 0.985 . S
H756 N751 0.984 . S
H757 N751 0.985 . S
H758 N755 0.984 . S
H759 N755 0.985 . S
H760 N754 0.984 . S
H761 N754 0.984 . S
H762 N750 0.984 . S
H763 N750 0.985 . S
C764 C765 1.363 . S
C764 C770 1.379 . S
C764 N772 1.356 . S
C765 C764 1.363 . S
C765 C771 1.363 . S
C766 C767 1.363 . S
C766 C771 1.379 . S
C766 N773 1.356 . S
C767 C766 1.363 . S
C767 C770 1.363 . S
N768 C770 1.356 . S
N768 H780 0.984 . S
N768 H781 0.985 . S
N769 C771 1.356 . S
N769 H774 0.984 . S
N769 H775 0.985 . S
C770 C764 1.379 . S
C770 C767 1.363 . S
C770 N768 1.356 . S
C771 C765 1.363 . S
C771 C766 1.379 . S
C771 N769 1.356 . S
N772 C764 1.356 . S
N772 H778 0.984 . S
N772 H779 0.984 . S
N773 C766 1.356 . S
N773 H776 0.984 . S
N773 H777 0.985 . S
H774 N769 0.984 . S
H775 N769 0.985 . S
H776 N773 0.984 . S
H777 N773 0.985 . S
H778 N772 0.984 . S
H779 N772 0.984 . S
H780 N768 0.984 . S
H781 N768 0.985 . S
C782 C783 1.363 . S
C782 C788 1.379 . S
C782 N790 1.356 . S
C783 C782 1.363 . S
C783 C789 1.363 . S
C784 C785 1.363 . S
C784 C789 1.379 . S
C784 N791 1.356 . S
C785 C784 1.363 . S
C785 C788 1.363 . S
N786 C788 1.356 . S
N786 H798 0.984 . S
N786 H799 0.985 . S
N787 C789 1.356 . S
N787 H792 0.984 . S
N787 H793 0.985 . S
C788 C782 1.379 . S
C788 C785 1.363 . S
C788 N786 1.356 . S
C789 C783 1.363 . S
C789 C784 1.379 . S
C789 N787 1.356 . S
N790 C782 1.356 . S
N790 H796 0.984 . S
N790 H797 0.984 . S
N791 C784 1.356 . S
N791 H794 0.984 . S
N791 H795 0.985 . S
H792 N787 0.984 . S
H793 N787 0.985 . S
H794 N791 0.984 . S
H795 N791 0.985 . S
H796 N790 0.984 . S
H797 N790 0.984 . S
H798 N786 0.984 . S
H799 N786 0.985 . S
C225 C67 1.434 . S
C227 C11 1.434 . S
C243 C81 1.434 . S
C245 C25 1.434 . S
C261 C95 1.434 . S
C263 C39 1.434 . S
C279 C109 1.434 . S
C281 C53 1.434 . S
C297 C179 1.434 . S
C299 C123 1.434 . S
C315 C193 1.434 . S
C317 C137 1.434 . S
C333 C151 1.434 . S
C335 C207 1.434 . S
C351 C221 1.434 . S
C353 C165 1.434 . S
C369 C5 1.477 . S
C371 C75 1.477 . S
C387 C89 1.477 . S
C389 C19 1.477 . S
C405 C33 1.477 . S
C407 C103 1.477 . S
C423 C61 1.477 . S
C425 C47 1.477 . S
C441 C187 1.477 . S
C443 C117 1.477 . S
C459 C201 1.477 . S
C461 C131 1.477 . S
C477 C145 1.477 . S
C479 C215 1.477 . S
C495 C159 1.477 . S
C497 C173 1.477 . S
C513 C219 1.468 . S
C515 C9 1.468 . S
C531 C177 1.468 . S
C533 C23 1.468 . S
C549 C191 1.468 . S
C551 C37 1.468 . S
C567 C205 1.468 . S
C569 C51 1.468 . S
C585 C135 1.468 . S
C587 C65 1.468 . S
C603 C149 1.468 . S
C605 C79 1.468 . S
C621 C93 1.468 . S
C623 C163 1.468 . S
C639 C107 1.468 . S
C641 C121 1.468 . S
C657 C182 1.404 . S
C659 C28 1.404 . S
C675 C196 1.404 . S
C677 C42 1.404 . S
C693 C210 1.404 . S
C695 C0 1.404 . S
C711 C14 1.404 . S
C713 C168 1.404 . S
C729 C154 1.404 . S
C731 C84 1.404 . S
C747 C98 1.404 . S
C749 C112 1.404 . S
C765 C126 1.404 . S
C767 C56 1.404 . S
C783 C140 1.404 . S
C785 C70 1.404 . S
