# Generated by pormake.
# Topology hjm, (4)-cn, num edge types: 1
# Building blocks:
#     Node 0, Type 0, BuildingBlock: ICAMEG_clean_sbu_1, # of connection points: 4
#     Node 1, Type 0, BuildingBlock: ICAMEG_clean_sbu_1, # of connection points: 4
#     Node 2, Type 0, BuildingBlock: ICAMEG_clean_sbu_1, # of connection points: 4
#     Node 3, Type 0, BuildingBlock: ICAMEG_clean_sbu_1, # of connection points: 4
#     Node 4, Type 0, BuildingBlock: ICAMEG_clean_sbu_1, # of connection points: 4
#     Node 5, Type 0, BuildingBlock: ICAMEG_clean_sbu_1, # of connection points: 4
#     Node 6, Type 0, BuildingBlock: ICAMEG_clean_sbu_1, # of connection points: 4
#     Node 7, Type 0, BuildingBlock: ICAMEG_clean_sbu_1, # of connection points: 4
#     Edge 8, Type (0, 0), BuildingBlock: OJICUG_clean_linker_0, # of connection points: 2
#     Edge 9, Type (0, 0), BuildingBlock: OJICUG_clean_linker_0, # of connection points: 2
#     Edge 10, Type (0, 0), BuildingBlock: OJICUG_clean_linker_0, # of connection points: 2
#     Edge 11, Type (0, 0), BuildingBlock: OJICUG_clean_linker_0, # of connection points: 2
#     Edge 12, Type (0, 0), BuildingBlock: OJICUG_clean_linker_0, # of connection points: 2
#     Edge 13, Type (0, 0), BuildingBlock: OJICUG_clean_linker_0, # of connection points: 2
#     Edge 14, Type (0, 0), BuildingBlock: OJICUG_clean_linker_0, # of connection points: 2
#     Edge 15, Type (0, 0), BuildingBlock: OJICUG_clean_linker_0, # of connection points: 2
#     Edge 16, Type (0, 0), BuildingBlock: OJICUG_clean_linker_0, # of connection points: 2
#     Edge 17, Type (0, 0), BuildingBlock: OJICUG_clean_linker_0, # of connection points: 2
#     Edge 18, Type (0, 0), BuildingBlock: OJICUG_clean_linker_0, # of connection points: 2
#     Edge 19, Type (0, 0), BuildingBlock: OJICUG_clean_linker_0, # of connection points: 2
#     Edge 20, Type (0, 0), BuildingBlock: OJICUG_clean_linker_0, # of connection points: 2
#     Edge 21, Type (0, 0), BuildingBlock: OJICUG_clean_linker_0, # of connection points: 2
#     Edge 22, Type (0, 0), BuildingBlock: OJICUG_clean_linker_0, # of connection points: 2
#     Edge 23, Type (0, 0), BuildingBlock: OJICUG_clean_linker_0, # of connection points: 2
# Relax obj value: 0.161
# Max RMSD: 0.207
# Mean RMSD: 0.207
data_MOF--net-hjm--node1-ICAMEG_clean_sbu_1--edge1-OJICUG_clean_linker_0
_symmetry_space_group_name_H-M    P1
_symmetry_Int_Tables_number       1
_symmetry_cell_setting            triclinic
loop_
_symmetry_equiv_pos_as_xyz
'x, y, z'
_cell_length_a     19.453982
_cell_length_b     20.78584
_cell_length_c     19.190846
_cell_angle_alpha  90.1262
_cell_angle_beta   67.0249
_cell_angle_gamma 90.143848
loop_
_atom_site_label
_atom_site_type_symbol
_atom_site_fract_x
_atom_site_fract_y
_atom_site_fract_z
_atom_type_partial_charge
Co0 Co 0.16841 0.30463 0.26185 0.0
Co1 Co 0.1838 0.14736 0.30381 0.0
O2 O 0.13101 0.22823 0.32297 0.0
C3 C 0.06561 0.36022 0.42457 0.0
O4 O 0.04262 0.30334 0.45408 0.0
C5 C 0.02235 0.08994 0.39243 0.0
O6 O 0.97923 0.141 0.40866 0.0
O7 O 0.19279 0.14957 0.19258 0.0
O8 O 0.22962 0.2528 0.17278 0.0
H9 H 0.42895 0.05876 0.28679 0.0
H10 H -0.02048 0.26093 0.34808 0.0
O11 O 0.1102 0.36407 0.35398 0.0
H12 H 0.08191 0.37325 0.04588 0.0
H13 H 0.18846 0.56031 0.07032 0.0
H14 H 0.31567 0.33773 0.13264 0.0
H15 H 0.07965 0.32731 0.12531 0.0
H16 H 0.11603 0.4655 0.27108 0.0
O17 O 0.08688 0.09185 0.33704 0.0
H18 H 0.34309 0.10684 0.22674 0.0
H19 H 0.13074 -0.01333 0.33997 0.0
H20 H 0.36548 0.40067 0.00791 0.0
H21 H 0.87354 0.38763 0.27335 0.0
H22 H 0.31964 0.51306 0.97483 0.0
H23 H 0.96417 0.43772 0.13575 0.0
O24 O 0.26651 0.30705 0.28143 0.0
H25 H 0.04873 0.15225 0.58864 0.0
H26 H 0.29299 0.17338 0.38203 0.0
H27 H 0.28577 0.1572 0.50914 0.0
H28 H 0.16346 0.12673 0.60891 0.0
H29 H 0.06079 0.17597 0.45943 0.0
H30 H 0.25496 0.88678 0.43463 0.0
H31 H 0.31802 0.94804 0.38349 0.0
O32 O 0.28562 0.20012 0.26988 0.0
C33 C 0.21989 0.19846 0.14788 0.0
C34 C 0.37433 0.03815 0.30439 0.0
C35 C 0.27358 0.93365 0.39337 0.0
N36 N 0.23207 0.05886 0.29047 0.0
C37 C 0.31585 0.07351 0.27192 0.0
C38 C 0.18631 -0.00353 0.33659 0.0
C39 C 0.36003 0.97594 0.36159 0.0
C40 C -0.00573 0.28583 0.29407 0.0
N41 N 0.07634 0.27632 0.23138 0.0
C42 C 0.92483 0.37719 0.24841 0.0
C43 C 0.97721 0.39492 0.15804 0.0
C44 C 0.0582 0.35425 0.10942 0.0
C45 C 0.10165 0.29669 0.14686 0.0
C46 C 0.21783 0.53158 0.09475 0.0
C47 C 0.28585 0.3816 0.13422 0.0
C48 C 0.1642 0.45899 0.21803 0.0
N49 N 0.21091 0.39303 0.20419 0.0
C50 C 0.32413 0.42562 0.05407 0.0
C51 C 0.29484 0.49565 0.03233 0.0
C52 C 0.31153 0.25808 0.27063 0.0
C53 C 0.10261 0.15239 0.5422 0.0
C54 C 0.23814 0.16859 0.42523 0.0
C55 C 0.2352 0.15809 0.49844 0.0
C56 C 0.1669 0.14332 0.55524 0.0
N57 N 0.17664 0.15609 0.409 0.0
C58 C 0.10912 0.16153 0.46806 0.0
Co59 Co 0.7908 0.3043 0.23075 0.0
Co60 Co 0.77486 0.14731 0.18968 0.0
O61 O 0.82721 0.2285 0.16859 0.0
C62 C 0.89234 0.36034 0.06815 0.0
O63 O 0.91407 0.30343 0.0379 0.0
C64 C 0.93612 0.09132 0.09657 0.0
O65 O 0.97693 0.14377 0.07628 0.0
O66 O 0.77078 0.14965 0.29892 0.0
O67 O 0.73071 0.25187 0.31978 0.0
H68 H 0.53687 0.0589 0.19915 0.0
H69 H -0.02005 0.26027 0.14361 0.0
O70 O 0.8485 0.36411 0.13898 0.0
H71 H 0.87933 0.37463 0.44505 0.0
H72 H 0.77231 0.55975 0.42266 0.0
H73 H 0.64444 0.33656 0.36147 0.0
H74 H 0.88077 0.32847 0.36589 0.0
H75 H 0.843 0.4652 0.22152 0.0
O76 O 0.87181 0.09298 0.15184 0.0
H77 H 0.61941 0.10352 0.26536 0.0
H78 H 0.83118 -0.01561 0.15823 0.0
H79 H 0.59511 0.39985 0.48616 0.0
H80 H 0.08781 0.3865 0.21754 0.0
H81 H 0.64142 0.51254 0.51885 0.0
H82 H -0.00233 0.43815 0.35491 0.0
O83 O 0.69218 0.30589 0.2123 0.0
H84 H 0.8926 0.14623 0.90389 0.0
H85 H 0.65662 0.17133 0.12199 0.0
H86 H 0.65515 0.1593 -0.00139 0.0
H87 H 0.77149 0.12704 0.89277 0.0
H88 H 0.89096 0.17153 0.02881 0.0
H89 H 0.70847 0.88172 0.0619 0.0
H90 H 0.64639 0.94467 0.10945 0.0
O91 O 0.67178 0.19931 0.22921 0.0
C92 C 0.74222 0.19796 0.34413 0.0
C93 C 0.5903 0.03666 0.18463 0.0
C94 C 0.69017 0.92994 0.10111 0.0
N95 N 0.72973 0.05743 0.20348 0.0
C96 C 0.64718 0.07223 0.21868 0.0
C97 C 0.77617 -0.00582 0.15958 0.0
C98 C 0.6048 0.97312 0.12936 0.0
C99 C 0.96551 0.28559 0.19742 0.0
N100 N 0.88333 0.27675 0.26034 0.0
C101 C 0.03609 0.37695 0.24237 0.0
C102 C -0.01606 0.39549 0.3326 0.0
C103 C 0.9026 0.35535 0.38158 0.0
C104 C 0.85831 0.29788 0.34461 0.0
C105 C 0.74242 0.53127 0.39838 0.0
C106 C 0.67416 0.38067 0.3596 0.0
C107 C 0.79515 0.45856 0.27493 0.0
N108 N 0.74865 0.39234 0.28915 0.0
C109 C 0.63636 0.42477 0.43986 0.0
C110 C 0.66581 0.49507 0.46131 0.0
C111 C 0.64618 0.25707 0.22661 0.0
C112 C 0.8406 0.1491 0.95263 0.0
C113 C 0.71017 0.16789 0.07628 0.0
C114 C 0.70785 0.1592 0.00494 0.0
C115 C 0.77314 0.14274 0.94486 0.0
N116 N 0.7749 0.1558 0.08709 0.0
C117 C 0.83994 0.15898 0.0246 0.0
Co118 Co 0.79138 0.65046 0.73206 0.0
Co119 Co 0.77613 0.80796 0.69003 0.0
O120 O 0.82902 0.72708 0.67128 0.0
C121 C 0.89358 0.59477 0.56902 0.0
O122 O 0.91575 0.65157 0.53887 0.0
C123 C 0.9363 0.86671 0.60084 0.0
O124 O -0.01799 0.81739 0.58503 0.0
O125 O 0.76605 0.80566 0.80155 0.0
O126 O 0.7301 0.70216 0.82113 0.0
H127 H 0.52932 0.89561 0.70961 0.0
H128 H -0.01986 0.69421 0.64581 0.0
O129 O 0.84966 0.59112 0.63985 0.0
H130 H 0.87788 0.58105 0.94759 0.0
H131 H 0.77213 0.39436 0.9226 0.0
H132 H 0.64416 0.61721 0.86169 0.0
H133 H 0.88012 0.62728 0.86836 0.0
H134 H 0.84346 0.4895 0.72217 0.0
O135 O 0.87313 0.86366 0.65818 0.0
H136 H 0.6164 0.84764 0.76807 0.0
H137 H 0.82788 0.96841 0.65294 0.0
H138 H 0.59483 0.55402 0.98637 0.0
H139 H 0.08598 0.56698 0.7197 0.0
H140 H 0.64096 0.4415 0.01884 0.0
H141 H -0.00428 0.51683 0.85749 0.0
O142 O 0.69345 0.64812 0.71234 0.0
H143 H 0.91464 0.79905 0.40542 0.0
H144 H 0.66878 0.78214 0.60998 0.0
H145 H 0.67775 0.79927 0.48222 0.0
H146 H 0.80137 0.82709 0.38315 0.0
H147 H 0.90043 0.77746 0.53592 0.0
H148 H 0.70215 0.06736 0.55944 0.0
H149 H 0.63939 0.00625 0.61151 0.0
O150 O 0.67457 0.75506 0.72281 0.0
C151 C 0.73933 0.75663 0.84609 0.0
C152 C 0.58389 0.91633 0.69137 0.0
C153 C 0.68391 0.02071 0.60107 0.0
N154 N 0.72713 0.8961 0.70338 0.0
C155 C 0.64315 0.88126 0.72304 0.0
C156 C 0.77228 0.95842 0.65675 0.0
C157 C 0.59747 -0.02166 0.63397 0.0
C158 C 0.96547 0.66922 0.69978 0.0
N159 N 0.88342 0.67865 0.76257 0.0
C160 C 0.03489 0.57765 0.74506 0.0
C161 C -0.01741 0.55967 0.83533 0.0
C162 C 0.90158 0.60026 0.88414 0.0
C163 C 0.8581 0.65801 0.84699 0.0
C164 C 0.74236 0.42311 0.89853 0.0
C165 C 0.67402 0.57332 0.85988 0.0
C166 C 0.79538 0.49588 0.77533 0.0
N167 N 0.74872 0.56192 0.78957 0.0
C168 C 0.63609 0.52918 0.94003 0.0
C169 C 0.66555 0.45903 0.96139 0.0
C170 C 0.64853 0.6971 0.72265 0.0
C171 C 0.86044 0.80036 0.45139 0.0
C172 C 0.7239 0.78689 0.56721 0.0
C173 C 0.7279 0.79769 0.4937 0.0
C174 C 0.79693 0.81075 0.43726 0.0
N175 N 0.78483 0.79915 0.58435 0.0
C176 C 0.85272 0.7922 0.52609 0.0
Co177 Co 0.16888 0.65049 0.76323 0.0
Co178 Co 0.18461 0.80739 0.80429 0.0
O179 O 0.13246 0.72618 0.82543 0.0
C180 C 0.06679 0.59448 0.92563 0.0
O181 O 0.04444 0.65141 0.95549 0.0
C182 C 0.02279 0.86287 0.89712 0.0
O183 O -0.01733 0.81007 0.9175 0.0
O184 O 0.18847 0.80505 0.69505 0.0
O185 O 0.22893 0.70295 0.67415 0.0
H186 H 0.42154 0.89598 0.79633 0.0
H187 H -0.02029 0.69435 0.8503 0.0
O188 O 0.11119 0.59062 0.85498 0.0
H189 H 0.08049 0.58082 0.5484 0.0
H190 H 0.18893 0.39546 0.5701 0.0
H191 H 0.31546 0.61832 0.63351 0.0
H192 H 0.07902 0.62671 0.62777 0.0
H193 H 0.11638 0.48958 0.77176 0.0
O194 O 0.08758 0.86153 0.84261 0.0
H195 H 0.33981 0.85149 0.72935 0.0
H196 H 0.1276 0.97031 0.83565 0.0
H197 H 0.36551 0.55546 0.50875 0.0
H198 H 0.87177 0.56858 0.7756 0.0
H199 H 0.31977 0.44291 0.47512 0.0
H200 H 0.96224 0.51705 0.63832 0.0
O201 O 0.2677 0.64902 0.78152 0.0
H202 H 0.06772 0.80977 0.08996 0.0
H203 H 0.30322 0.7832 0.87157 0.0
H204 H 0.30507 0.79514 0.99473 0.0
H205 H 0.1892 0.82831 0.10055 0.0
H206 H 0.06878 0.78394 0.96544 0.0
H207 H 0.2497 0.07336 0.93246 0.0
H208 H 0.31189 0.01039 0.88524 0.0
O209 O 0.28791 0.75559 0.76437 0.0
C210 C 0.21723 0.75678 0.64978 0.0
C211 C 0.36829 0.91838 0.81034 0.0
C212 C 0.26815 0.02507 0.89337 0.0
N213 N 0.22931 0.8974 0.79071 0.0
C214 C 0.31177 0.8827 0.77597 0.0
C215 C 0.18257 0.96062 0.83448 0.0
C216 C 0.35352 -0.01803 0.86554 0.0
C217 C -0.00578 0.66912 0.79644 0.0
N218 N 0.07639 0.67806 0.73361 0.0
C219 C 0.92363 0.57798 0.7511 0.0
C220 C 0.97587 0.55967 0.66076 0.0
C221 C 0.0572 0.59989 0.61196 0.0
C222 C 0.10144 0.65719 0.64922 0.0
C223 C 0.21814 0.42395 0.59497 0.0
C224 C 0.28584 0.57421 0.63503 0.0
C225 C 0.16442 0.49638 0.71855 0.0
N226 N 0.21096 0.56251 0.70493 0.0
C227 C 0.32417 0.53033 0.55476 0.0
C228 C 0.29503 0.46019 0.53273 0.0
C229 C 0.31367 0.6979 0.76702 0.0
C230 C 0.11961 0.8064 0.04117 0.0
C231 C 0.24974 0.78678 0.91735 0.0
C232 C 0.2523 0.79542 0.98859 0.0
C233 C 0.18723 0.8124 0.04868 0.0
N234 N 0.18491 0.7989 0.90673 0.0
C235 C 0.11997 0.79623 0.96937 0.0
Co236 Co 0.66859 0.80438 0.26265 0.0
Co237 Co 0.68616 0.64761 0.30289 0.0
O238 O 0.63281 0.72856 0.32536 0.0
C239 C 0.56767 0.86052 0.42568 0.0
O240 O 0.54855 0.80358 0.4568 0.0
C241 C 0.52447 0.59139 0.39811 0.0
O242 O 0.48596 0.64477 0.42025 0.0
O243 O 0.68679 0.64946 0.19481 0.0
O244 O 0.72809 0.7514 0.17353 0.0
H245 H 0.92541 0.55802 0.29136 0.0
H246 H 0.47908 0.76172 0.35089 0.0
O247 O 0.6109 0.86435 0.35456 0.0
H248 H 0.579 0.87338 0.04817 0.0
H249 H 0.68878 0.05939 0.0688 0.0
H250 H 0.81519 0.83589 0.13055 0.0
H251 H 0.5783 0.82748 0.12705 0.0
H252 H 0.61995 0.96616 0.2704 0.0
O253 O 0.58988 0.59263 0.3447 0.0
H254 H 0.8427 0.60428 0.22626 0.0
H255 H 0.62981 0.48479 0.33285 0.0
H256 H 0.86429 0.89819 0.00514 0.0
H257 H 0.3723 0.88738 0.27781 0.0
H258 H 0.81928 0.01116 0.97217 0.0
H259 H 0.46143 0.93789 0.13948 0.0
O260 O 0.76655 0.80644 0.28202 0.0
H261 H 0.57963 0.64138 0.58891 0.0
H262 H 0.80859 0.67206 0.36466 0.0
H263 H 0.81667 0.66081 0.48426 0.0
H264 H 0.70504 0.6262 0.59285 0.0
H265 H 0.57393 0.66733 0.46745 0.0
H266 H 0.75108 0.3828 0.43039 0.0
H267 H 0.81394 0.4453 0.38252 0.0
O268 O 0.78875 0.70033 0.2605 0.0
C269 C 0.71515 0.69769 0.14937 0.0
C270 C 0.87111 0.53682 0.30685 0.0
C271 C 0.77008 0.43063 0.39073 0.0
N272 N 0.73192 0.5577 0.28743 0.0
C273 C 0.81464 0.57231 0.27229 0.0
C274 C 0.6851 0.49452 0.33129 0.0
C275 C 0.85582 0.4736 0.36253 0.0
C276 C 0.49352 0.78725 0.2973 0.0
N277 N 0.57537 0.7768 0.23371 0.0
C278 C 0.42391 0.87752 0.25296 0.0
C279 C 0.47521 0.89533 0.16166 0.0
C280 C 0.55619 0.85455 0.11171 0.0
C281 C 0.60032 0.7969 0.1488 0.0
C282 C 0.7187 0.03052 0.09272 0.0
C283 C 0.78584 0.88004 0.13221 0.0
C284 C 0.66598 0.95852 0.21662 0.0
N285 N 0.71167 0.89217 0.20286 0.0
C286 C 0.82372 0.92359 0.05151 0.0
C287 C 0.7948 -0.00614 0.02974 0.0
C288 C 0.81339 0.75821 0.26532 0.0
C289 C 0.6301 0.6475 0.53899 0.0
C290 C 0.75636 0.66899 0.41168 0.0
C291 C 0.76249 0.6606 0.48117 0.0
C292 C 0.69947 0.64304 0.54305 0.0
N293 N 0.69004 0.65662 0.40406 0.0
C294 C 0.62679 0.65773 0.46868 0.0
Co295 Co 0.29005 0.80544 0.23441 0.0
Co296 Co 0.27252 0.64855 0.19197 0.0
O297 O 0.32541 0.72979 0.17083 0.0
C298 C 0.39084 0.86148 0.07115 0.0
O299 O 0.4108 0.80437 0.04069 0.0
C300 C 0.43466 0.59283 0.09629 0.0
O301 O 0.47333 0.64629 0.07483 0.0
O302 O 0.27101 0.65026 0.30037 0.0
O303 O 0.23004 0.75232 0.32288 0.0
H304 H 0.03442 0.55749 0.20008 0.0
H305 H 0.47849 0.76051 0.14709 0.0
O306 O 0.34786 0.8655 0.14238 0.0
H307 H 0.44645 0.88322 0.36501 0.0
H308 H 0.27976 0.06472 0.4202 0.0
H309 H 0.14518 0.83883 0.37047 0.0
H310 H 0.37081 0.82523 0.38563 0.0
H311 H 0.3425 0.9653 0.22326 0.0
O312 O 0.36926 0.59387 0.14999 0.0
H313 H 0.11589 0.60466 0.26643 0.0
H314 H 0.32941 0.48606 0.16172 0.0
H315 H 0.09776 0.90566 0.49439 0.0
H316 H 0.58786 0.88724 0.21799 0.0
H317 H 0.14777 0.01805 0.52225 0.0
H318 H 0.51151 0.94657 0.34758 0.0
O319 O 0.19159 0.80764 0.2159 0.0
H320 H 0.38041 0.64236 0.90649 0.0
H321 H 0.15072 0.67313 0.12932 0.0
H322 H 0.14351 0.66237 0.00919 0.0
H323 H 0.25554 0.62744 0.90094 0.0
H324 H 0.38525 0.66873 0.02798 0.0
H325 H 0.20988 0.38278 0.06248 0.0
H326 H 0.14671 0.44514 0.10972 0.0
O327 O 0.17 0.701 0.23398 0.0
C328 C 0.24229 0.69818 0.34635 0.0
C329 C 0.0887 0.53658 0.18517 0.0
C330 C 0.1905 0.43076 0.10198 0.0
N331 N 0.22699 0.55847 0.20636 0.0
C332 C 0.14443 0.57261 0.2206 0.0
C333 C 0.27429 0.49546 0.16268 0.0
C334 C 0.10474 0.47324 0.12932 0.0
C335 C 0.4646 0.78618 0.20063 0.0
N336 N 0.38278 0.77723 0.26383 0.0
C337 C 0.53643 0.87766 0.24359 0.0
C338 C 0.48519 0.8978 0.33516 0.0
C339 C 0.40061 0.85413 0.38584 0.0
C340 C 0.35699 0.79797 0.34854 0.0
C341 C 0.24738 0.03457 0.39946 0.0
C342 C 0.17535 0.88299 0.3669 0.0
C343 C 0.29564 0.95972 0.27755 0.0
N344 N 0.24856 0.89367 0.29435 0.0
C345 C 0.13976 0.92869 0.44673 0.0
C346 C 0.1712 -0.00057 0.46525 0.0
C347 C 0.14532 0.75896 0.23007 0.0
C348 C 0.32973 0.64805 0.956 0.0
C349 C 0.20306 0.66986 0.0826 0.0
C350 C 0.19745 0.66171 0.01278 0.0
C351 C 0.26062 0.64375 0.95124 0.0
N352 N 0.26913 0.65758 0.0907 0.0
C353 C 0.3326 0.65853 0.02642 0.0
Co354 Co 0.28988 0.15028 0.73129 0.0
Co355 Co 0.27212 0.30685 0.69083 0.0
O356 O 0.32518 0.22581 0.66801 0.0
C357 C 0.39102 0.094 0.5685 0.0
O358 O 0.4109 0.15099 0.53775 0.0
C359 C 0.4344 0.36139 0.59452 0.0
O360 O 0.47117 0.30721 0.5722 0.0
O361 O 0.27289 0.30509 0.79845 0.0
O362 O 0.23073 0.20345 0.82037 0.0
H363 H 0.03472 0.39711 0.70035 0.0
H364 H 0.47963 0.19292 0.6427 0.0
O365 O 0.34729 0.09009 0.63946 0.0
H366 H 0.37963 0.08213 0.94588 0.0
H367 H 0.26937 0.89557 0.92587 0.0
H368 H 0.1434 0.11894 0.86331 0.0
H369 H 0.38034 0.12775 0.8668 0.0
H370 H 0.33879 -0.01139 0.72409 0.0
O371 O 0.36859 0.36121 0.64718 0.0
H372 H 0.11625 0.35091 0.76673 0.0
H373 H 0.32982 0.46971 0.66181 0.0
H374 H 0.09395 0.05674 0.98873 0.0
H375 H 0.58646 0.06769 0.7166 0.0
H376 H 0.13882 0.94388 0.02206 0.0
H377 H 0.49707 0.01734 0.85475 0.0
O378 O 0.19159 0.14824 0.71265 0.0
H379 H 0.37259 0.31582 0.40481 0.0
H380 H 0.14737 0.28254 0.63208 0.0
H381 H 0.13613 0.29294 0.51431 0.0
H382 H 0.24531 0.32795 0.40382 0.0
H383 H 0.38206 0.28967 0.52436 0.0
H384 H 0.20981 0.57255 0.56325 0.0
H385 H 0.14674 0.50998 0.61038 0.0
O386 O 0.16934 0.25434 0.73473 0.0
C387 C 0.2441 0.25713 0.84425 0.0
C388 C 0.08897 0.41835 0.68544 0.0
C389 C 0.1905 0.52459 0.60266 0.0
N390 N 0.2272 0.39711 0.7065 0.0
C391 C 0.14471 0.3827 0.72073 0.0
C392 C 0.27452 0.46031 0.66309 0.0
C393 C 0.10483 0.48168 0.62989 0.0
C394 C 0.46512 0.16747 0.69635 0.0
N395 N 0.38328 0.17805 0.75989 0.0
C396 C 0.53472 0.0774 0.74108 0.0
C397 C 0.48337 0.05987 0.83247 0.0
C398 C 0.40244 0.10075 0.88225 0.0
C399 C 0.35836 0.15823 0.84489 0.0
C400 C 0.23969 0.92447 0.90176 0.0
C401 C 0.1727 0.07479 0.86178 0.0
C402 C 0.29277 -0.00365 0.77783 0.0
N403 N 0.24703 0.06264 0.79134 0.0
C404 C 0.13461 0.03129 0.94246 0.0
C405 C 0.16344 0.96111 0.96446 0.0
C406 C 0.14475 0.19649 0.72952 0.0
C407 C 0.32298 0.30858 0.45533 0.0
C408 C 0.19897 0.28561 0.58442 0.0
C409 C 0.19093 0.29369 0.51585 0.0
C410 C 0.25273 0.3118 0.453 0.0
N411 N 0.26615 0.29789 0.59039 0.0
C412 C 0.32837 0.29809 0.52472 0.0
Co413 Co 0.66858 0.14956 0.75919 0.0
Co414 Co 0.68613 0.30661 0.8017 0.0
O415 O 0.63307 0.22539 0.82259 0.0
C416 C 0.56811 0.09364 0.92266 0.0
O417 O 0.54856 0.15073 0.9533 0.0
C418 C 0.52464 0.36324 0.89724 0.0
O419 O 0.48486 0.31033 0.91856 0.0
O420 O 0.68841 0.30487 0.69308 0.0
O421 O 0.72872 0.2026 0.67076 0.0
H422 H 0.92559 0.39729 0.79198 0.0
H423 H 0.48028 0.19466 0.84647 0.0
O424 O 0.61071 0.08963 0.85132 0.0
H425 H 0.51206 0.07132 0.62909 0.0
H426 H 0.67739 0.88925 0.57519 0.0
H427 H 0.813 0.116 0.62196 0.0
H428 H 0.58775 0.12929 0.60815 0.0
H429 H 0.61648 -0.01026 0.77127 0.0
O430 O 0.58946 0.36163 0.84256 0.0
H431 H 0.84324 0.34991 0.72673 0.0
H432 H 0.63018 0.46907 0.83245 0.0
H433 H 0.85933 0.04874 0.49825 0.0
H434 H 0.37094 0.06745 0.77647 0.0
H435 H 0.80891 0.93608 0.47164 0.0
H436 H 0.44696 0.00799 0.64673 0.0
O437 O 0.76685 0.14725 0.77797 0.0
H438 H 0.57534 0.31085 0.08738 0.0
H439 H 0.80666 0.28202 0.86587 0.0
H440 H 0.81248 0.29311 0.98678 0.0
H441 H 0.69922 0.32726 0.09438 0.0
H442 H 0.57232 0.28492 0.96487 0.0
H443 H 0.75058 0.57181 0.931 0.0
H444 H 0.81359 0.50949 0.88327 0.0
O445 O 0.78844 0.25394 0.76057 0.0
C446 C 0.71681 0.25683 0.64725 0.0
C447 C 0.87119 0.41812 0.8074 0.0
C448 C 0.76975 0.52391 0.89133 0.0
N449 N 0.73226 0.39648 0.78732 0.0
C450 C 0.81497 0.3822 0.77245 0.0
C451 C 0.68532 0.4595 0.83125 0.0
C452 C 0.85554 0.48137 0.86334 0.0
C453 C 0.49408 0.16889 0.79299 0.0
N454 N 0.57589 0.17772 0.72969 0.0
C455 C 0.42218 0.07721 0.75048 0.0
C456 C 0.47332 0.0568 0.65901 0.0
C457 C 0.55792 0.10035 0.60811 0.0
C458 C 0.60164 0.15668 0.6451 0.0
C459 C 0.71021 0.91982 0.59513 0.0
C460 C 0.78278 0.0718 0.62604 0.0
C461 C 0.66308 -0.0049 0.71676 0.0
N462 N 0.7101 0.06122 0.69921 0.0
C463 C 0.81769 0.02583 0.5463 0.0
C464 C 0.78597 0.9549 0.52855 0.0
C465 C 0.81308 0.19592 0.76417 0.0
C466 C 0.6264 0.30602 0.03808 0.0
C467 C 0.75407 0.28526 0.91227 0.0
C468 C 0.75884 0.29354 0.98249 0.0
C469 C 0.69507 0.311 0.04364 0.0
N470 N 0.68842 0.29757 0.9034 0.0
C471 C 0.62451 0.29583 0.96718 0.0
C472 C -0.00675 0.97012 0.42003 0.0
C473 C -0.0001 0.03252 0.44541 0.0
H474 H 0.97672 0.86987 0.44676 0.0
C475 C -0.01692 0.04 0.52361 0.0
H476 H 0.00481 0.9618 0.36078 0.0
C477 C 0.96422 -0.01299 0.57377 0.0
C478 C 0.95728 0.9246 0.54842 0.0
H479 H -0.01882 0.08737 0.5469 0.0
H480 H 0.95315 -0.00477 0.63293 0.0
C481 C 0.97421 0.9172 0.47021 0.0
C482 C -0.01074 0.91764 0.02503 0.0
C483 C 0.00041 0.92161 0.94778 0.0
H484 H 0.96261 0.96685 0.13152 0.0
C485 C -0.01126 -0.0181 0.92091 0.0
H486 H -0.00673 0.87185 0.0493 0.0
C487 C 0.96921 0.03641 0.96884 0.0
C488 C 0.95803 0.03245 0.04609 0.0
H489 H -0.00397 -0.01275 0.86231 0.0
H490 H 0.96534 0.0822 0.94454 0.0
C491 C 0.96975 0.97216 0.07296 0.0
C492 C 0.47126 0.48003 0.57203 0.0
C493 C 0.45846 0.42026 0.54436 0.0
H494 H 0.49826 0.58015 0.54945 0.0
C495 C 0.46842 0.41738 0.46728 0.0
H496 H 0.46464 0.48452 0.63054 0.0
C497 C 0.48875 0.47238 0.42019 0.0
C498 C 0.50153 0.53217 0.44788 0.0
H499 H 0.4614 0.37227 0.44281 0.0
H500 H 0.49511 0.46797 0.36175 0.0
C501 C 0.49175 0.53498 0.52489 0.0
C502 C 0.46861 0.53714 0.96845 0.0
C503 C 0.45791 0.53383 0.04572 0.0
H504 H 0.4961 0.48728 0.86208 0.0
C505 C 0.47061 0.47386 0.0727 0.0
H506 H 0.46239 0.58247 0.9443 0.0
C507 C 0.49141 0.41919 0.0248 0.0
C508 C 0.5021 0.42247 0.94754 0.0
H509 H 0.46364 0.46895 0.13125 0.0
H510 H 0.49728 0.37382 0.04903 0.0
C511 C 0.48935 0.48244 0.92057 0.0
C512 C 0.00628 0.41637 0.96906 0.0
C513 C 0.93317 0.42059 0.02565 0.0
H514 H 0.10781 0.46524 0.8993 0.0
C515 C 0.90681 0.48329 0.05116 0.0
H516 H 0.02971 0.3697 0.94757 0.0
C517 C 0.95293 0.53841 0.02479 0.0
C518 C 0.02601 0.5342 0.96815 0.0
H519 H 0.85138 0.48954 0.0945 0.0
H520 H 0.92948 0.58507 0.04631 0.0
C521 C 0.0524 0.47149 0.94268 0.0
C522 C 0.05233 0.48322 0.44231 0.0
C523 C 0.02536 0.42056 0.46739 0.0
H524 H 0.03071 0.58513 0.44809 0.0
C525 C 0.95246 0.41653 0.52438 0.0
H526 H 0.10769 0.48934 0.39876 0.0
C527 C 0.907 0.4718 0.55144 0.0
C528 C 0.93393 0.53445 0.5263 0.0
H529 H 0.9286 0.36991 0.54568 0.0
H530 H 0.85162 0.46569 0.59495 0.0
C531 C 0.00687 0.5385 0.46937 0.0
C532 C 0.5516 0.97071 0.94167 0.0
C533 C 0.52643 0.03387 0.96618 0.0
H534 H 0.52764 0.86907 0.9492 0.0
C535 C 0.45393 0.03907 0.02379 0.0
H536 H 0.6066 0.96363 0.89785 0.0
C537 C 0.40731 -0.01555 0.05221 0.0
C538 C 0.43249 0.92128 0.02768 0.0
H539 H 0.43128 0.0861 0.04463 0.0
H540 H 0.35234 -0.00848 0.09608 0.0
C541 C 0.50498 0.9161 0.97006 0.0
C542 C 0.44886 0.91588 0.5177 0.0
C543 C 0.52498 0.92017 0.46795 0.0
H544 H 0.34634 0.96531 0.58369 0.0
C545 C 0.55465 -0.01703 0.44909 0.0
H546 H 0.42277 0.8691 0.53324 0.0
C547 C 0.50974 0.03857 0.47646 0.0
C548 C 0.43362 0.03429 0.52623 0.0
H549 H 0.61226 -0.01085 0.41052 0.0
H550 H 0.53585 0.08534 0.46089 0.0
C551 C 0.40395 0.97148 0.5451 0.0
C552 C 0.28724 0.68594 0.45245 0.0
C553 C 0.22972 0.70102 0.42857 0.0
H554 H 0.33288 0.69882 0.53669 0.0
C555 C 0.17154 0.74142 0.47643 0.0
H556 H 0.33451 0.65767 0.41643 0.0
C557 C 0.17228 0.76802 0.54372 0.0
C558 C 0.2298 0.75305 0.56758 0.0
H559 H 0.12609 0.75448 0.46006 0.0
H560 H 0.12514 0.79641 0.57966 0.0
C561 C 0.28772 0.71224 0.52003 0.0
C562 C 0.66901 0.7117 0.97569 0.0
C563 C 0.72645 0.75316 0.92843 0.0
H564 H 0.62288 0.65663 0.07888 0.0
C565 C 0.78388 0.76869 0.95242 0.0
H566 H 0.6241 0.69766 0.95884 0.0
C567 C 0.78482 0.74226 0.01962 0.0
C568 C 0.72712 0.70123 0.0672 0.0
H569 H 0.83089 0.79743 0.91666 0.0
H570 H 0.83021 0.7558 0.03598 0.0
C571 C 0.66976 0.68551 0.04316 0.0
C572 C 0.78733 0.18717 0.44999 0.0
C573 C 0.72957 0.20159 0.42628 0.0
H574 H 0.83359 0.20139 0.53349 0.0
C575 C 0.6713 0.24206 0.47387 0.0
H576 H 0.83473 0.15907 0.41397 0.0
C577 C 0.6717 0.2686 0.54135 0.0
C578 C 0.72947 0.25408 0.56507 0.0
H579 H 0.62595 0.25502 0.45729 0.0
H580 H 0.62416 0.29656 0.57745 0.0
C581 C 0.78798 0.21402 0.51718 0.0
C582 C 0.29008 0.24351 0.0182 0.0
C583 C 0.23271 0.20199 0.0655 0.0
H584 H 0.33625 0.29848 0.91491 0.0
C585 C 0.17541 0.18627 0.04139 0.0
H586 H 0.33494 0.25769 0.03509 0.0
C587 C 0.17449 0.21261 0.97413 0.0
C588 C 0.23215 0.25368 0.92648 0.0
H589 H 0.12846 0.15745 0.07712 0.0
H590 H 0.12915 0.19894 0.95775 0.0
C591 C 0.28941 0.26956 0.95062 0.0
C592 C 0.44183 0.32192 0.24654 0.0
C593 C 0.39693 0.26466 0.26054 0.0
H594 H 0.55023 0.36685 0.22666 0.0
C595 C 0.43678 0.20921 0.26527 0.0
H596 H 0.41661 0.36739 0.24259 0.0
C597 C 0.51336 0.20864 0.25513 0.0
C598 C 0.55987 0.26384 0.23964 0.0
H599 H 0.40803 0.16438 0.27862 0.0
H600 H 0.5353 0.16286 0.26043 0.0
C601 C 0.5203 0.32159 0.23726 0.0
C602 C 0.52376 0.7457 0.72616 0.0
C603 C 0.56318 0.6905 0.73256 0.0
H604 H 0.42555 0.79183 0.72947 0.0
C605 C 0.51791 0.63341 0.74803 0.0
H606 H 0.55306 0.79022 0.71127 0.0
C607 C 0.43943 0.63369 0.75733 0.0
C608 C 0.40013 0.69125 0.75363 0.0
H609 H 0.54281 0.58811 0.75319 0.0
H610 H 0.40922 0.58855 0.76912 0.0
C611 C 0.4471 0.74627 0.73637 0.0
C612 C 0.01831 0.82357 0.24429 0.0
C613 C 0.06014 0.76566 0.23951 0.0
H614 H 0.91273 0.86911 0.25509 0.0
C615 C 0.01746 0.70969 0.24291 0.0
H616 H 0.04557 0.8694 0.24218 0.0
C617 C 0.94218 0.70952 0.24947 0.0
C618 C 0.89895 0.76527 0.25485 0.0
H619 H 0.04211 0.66362 0.23953 0.0
H620 H 0.91792 0.66336 0.25132 0.0
C621 C 0.94039 0.82339 0.25156 0.0
C622 C 0.01557 0.24521 0.74668 0.0
C623 C 0.05923 0.18946 0.7399 0.0
H624 H 0.91534 0.29107 0.75744 0.0
C625 C 0.01817 0.13137 0.74189 0.0
H626 H 0.03928 0.29141 0.7463 0.0
C627 C 0.94027 0.13122 0.74912 0.0
C628 C 0.89815 0.18914 0.75497 0.0
H629 H 0.04612 0.08567 0.73739 0.0
H630 H 0.91328 0.08542 0.75024 0.0
C631 C 0.94039 0.24505 0.75297 0.0
loop_
_geom_bond_atom_site_label_1
_geom_bond_atom_site_label_2
_geom_bond_distance
_geom_bond_site_symmetry_2
_ccdc_geom_bond_type
Co0 O2 2.143 . S
Co0 O8 2.074 . S
Co0 O11 2.093 . S
Co0 O24 2.097 . S
Co0 N41 2.151 . S
Co0 N49 2.214 . S
Co1 O2 2.160 . S
Co1 O7 2.058 . S
Co1 O17 2.057 . S
Co1 O32 2.037 . S
Co1 N36 2.145 . S
Co1 N57 2.257 . S
O2 Co0 2.143 . S
O2 Co1 2.160 . S
C3 O4 1.278 . S
C3 O11 1.224 . S
O4 C3 1.278 . S
C5 O6 1.245 . S
C5 O17 1.232 . S
O6 C5 1.245 . S
O7 Co1 2.058 . S
O7 C33 1.269 . S
O8 Co0 2.074 . S
O8 C33 1.257 . S
H9 C34 0.930 . S
H10 C40 0.930 . S
O11 Co0 2.093 . S
O11 C3 1.224 . S
H12 C44 0.929 . S
H13 C46 0.930 . S
H14 C47 0.930 . S
H15 C45 0.929 . S
H16 C48 0.928 . S
O17 Co1 2.057 . S
O17 C5 1.232 . S
H18 C37 0.929 . S
H19 C38 0.929 . S
H20 C50 0.931 . S
H21 C42 0.929 . S
H22 C51 0.930 . S
H23 C43 0.931 . S
O24 Co0 2.097 . S
O24 C52 1.214 . S
H25 C53 0.929 . S
H26 C54 0.929 . S
H27 C55 0.930 . S
H28 C56 0.929 . S
H29 C58 0.930 . S
H30 C35 0.930 . S
H31 C39 0.930 . S
O32 Co1 2.037 . S
O32 C52 1.234 . S
C33 O7 1.269 . S
C33 O8 1.257 . S
C34 H9 0.930 . S
C34 C37 1.388 . S
C34 C39 1.418 1_545 S
C35 H30 0.930 . S
C35 C38 1.404 1_565 S
C35 C39 1.353 . S
N36 Co1 2.145 . S
N36 C37 1.397 . S
N36 C38 1.334 . S
C37 H18 0.929 . S
C37 C34 1.388 . S
C37 N36 1.397 . S
C38 H19 0.929 . S
C38 C35 1.404 1_545 S
C38 N36 1.334 . S
C39 H31 0.930 . S
C39 C34 1.418 1_565 S
C39 C35 1.353 . S
C40 H10 0.930 . S
C40 N41 1.330 . S
C40 C42 1.446 1_455 S
N41 Co0 2.151 . S
N41 C40 1.330 . S
N41 C45 1.418 . S
C42 H21 0.929 . S
C42 C40 1.446 1_655 S
C42 C43 1.332 . S
C43 H23 0.931 . S
C43 C42 1.332 . S
C43 C44 1.267 1_655 S
C44 H12 0.929 . S
C44 C43 1.267 1_455 S
C44 C45 1.251 . S
C45 H15 0.929 . S
C45 N41 1.418 . S
C45 C44 1.251 . S
C46 H13 0.930 . S
C46 C48 1.406 . S
C46 C51 1.261 . S
C47 H14 0.930 . S
C47 N49 1.325 . S
C47 C50 1.357 . S
C48 H16 0.928 . S
C48 C46 1.406 . S
C48 N49 1.261 . S
N49 Co0 2.214 . S
N49 C47 1.325 . S
N49 C48 1.261 . S
C50 H20 0.931 . S
C50 C47 1.357 . S
C50 C51 1.312 . S
C51 H22 0.930 . S
C51 C46 1.261 . S
C51 C50 1.312 . S
C52 O24 1.214 . S
C52 O32 1.234 . S
C53 H25 0.929 . S
C53 C56 1.391 . S
C53 C58 1.391 . S
C54 H26 0.929 . S
C54 C55 1.390 . S
C54 N57 1.391 . S
C55 H27 0.930 . S
C55 C54 1.390 . S
C55 C56 1.392 . S
C56 H28 0.929 . S
C56 C53 1.391 . S
C56 C55 1.392 . S
N57 Co1 2.257 . S
N57 C54 1.391 . S
N57 C58 1.388 . S
C58 H29 0.930 . S
C58 C53 1.391 . S
C58 N57 1.388 . S
Co59 O61 2.143 . S
Co59 O67 2.074 . S
Co59 O70 2.093 . S
Co59 O83 2.097 . S
Co59 N100 2.151 . S
Co59 N108 2.214 . S
Co60 O61 2.160 . S
Co60 O66 2.058 . S
Co60 O76 2.057 . S
Co60 O91 2.037 . S
Co60 N95 2.145 . S
Co60 N116 2.257 . S
O61 Co59 2.143 . S
O61 Co60 2.160 . S
C62 O63 1.278 . S
C62 O70 1.224 . S
O63 C62 1.278 . S
C64 O65 1.245 . S
C64 O76 1.232 . S
O65 C64 1.245 . S
O66 Co60 2.058 . S
O66 C92 1.269 . S
O67 Co59 2.074 . S
O67 C92 1.257 . S
H68 C93 0.930 . S
H69 C99 0.930 . S
O70 Co59 2.093 . S
O70 C62 1.224 . S
H71 C103 0.929 . S
H72 C105 0.930 . S
H73 C106 0.930 . S
H74 C104 0.929 . S
H75 C107 0.928 . S
O76 Co60 2.057 . S
O76 C64 1.232 . S
H77 C96 0.929 . S
H78 C97 0.929 . S
H79 C109 0.931 . S
H80 C101 0.929 . S
H81 C110 0.930 . S
H82 C102 0.931 . S
O83 Co59 2.097 . S
O83 C111 1.214 . S
H84 C112 0.929 . S
H85 C113 0.929 . S
H86 C114 0.930 . S
H87 C115 0.929 . S
H88 C117 0.925 1_554 S
H89 C94 0.930 . S
H90 C98 0.930 . S
O91 Co60 2.037 . S
O91 C111 1.234 . S
C92 O66 1.269 . S
C92 O67 1.257 . S
C93 H68 0.930 . S
C93 C96 1.388 . S
C93 C98 1.418 1_545 S
C94 H89 0.930 . S
C94 C97 1.404 1_565 S
C94 C98 1.353 . S
N95 Co60 2.145 . S
N95 C96 1.397 . S
N95 C97 1.334 . S
C96 H77 0.929 . S
C96 C93 1.388 . S
C96 N95 1.397 . S
C97 H78 0.929 . S
C97 C94 1.404 1_545 S
C97 N95 1.334 . S
C98 H90 0.930 . S
C98 C93 1.418 1_565 S
C98 C94 1.353 . S
C99 H69 0.930 . S
C99 N100 1.330 . S
C99 C101 1.446 1_655 S
N100 Co59 2.151 . S
N100 C99 1.330 . S
N100 C104 1.418 . S
C101 H80 0.929 . S
C101 C99 1.446 1_455 S
C101 C102 1.332 . S
C102 H82 0.931 . S
C102 C101 1.332 . S
C102 C103 1.267 1_455 S
C103 H71 0.929 . S
C103 C102 1.267 1_655 S
C103 C104 1.251 . S
C104 H74 0.929 . S
C104 N100 1.418 . S
C104 C103 1.251 . S
C105 H72 0.930 . S
C105 C107 1.406 . S
C105 C110 1.261 . S
C106 H73 0.930 . S
C106 N108 1.325 . S
C106 C109 1.357 . S
C107 H75 0.928 . S
C107 C105 1.406 . S
C107 N108 1.261 . S
N108 Co59 2.214 . S
N108 C106 1.325 . S
N108 C107 1.261 . S
C109 H79 0.931 . S
C109 C106 1.357 . S
C109 C110 1.312 . S
C110 H81 0.930 . S
C110 C105 1.261 . S
C110 C109 1.312 . S
C111 O83 1.214 . S
C111 O91 1.234 . S
C112 H84 0.929 . S
C112 C115 1.391 . S
C112 C117 1.404 . S
C113 H85 0.929 . S
C113 C114 1.390 1_554 S
C113 N116 1.391 . S
C114 H86 0.930 . S
C114 C113 1.390 1_556 S
C114 C115 1.392 . S
C115 H87 0.929 . S
C115 C112 1.391 . S
C115 C114 1.392 . S
N116 Co60 2.257 . S
N116 C113 1.391 . S
N116 C117 1.381 1_554 S
C117 H88 0.925 1_556 S
C117 C112 1.404 . S
C117 N116 1.381 1_556 S
Co118 O120 2.143 . S
Co118 O126 2.074 . S
Co118 O129 2.093 . S
Co118 O142 2.097 . S
Co118 N159 2.151 . S
Co118 N167 2.214 . S
Co119 O120 2.160 . S
Co119 O125 2.058 . S
Co119 O135 2.057 . S
Co119 O150 2.037 . S
Co119 N154 2.145 . S
Co119 N175 2.257 . S
O120 Co118 2.143 . S
O120 Co119 2.160 . S
C121 O122 1.278 . S
C121 O129 1.224 . S
O122 C121 1.278 . S
C123 O124 1.245 . S
C123 O135 1.232 . S
O124 C123 1.245 . S
O125 Co119 2.058 . S
O125 C151 1.269 . S
O126 Co118 2.074 . S
O126 C151 1.257 . S
H127 C152 0.930 . S
H128 C158 0.930 . S
O129 Co118 2.093 . S
O129 C121 1.224 . S
H130 C162 0.929 . S
H131 C164 0.930 . S
H132 C165 0.930 . S
H133 C163 0.929 . S
H134 C166 0.928 . S
O135 Co119 2.057 . S
O135 C123 1.232 . S
H136 C155 0.929 . S
H137 C156 0.929 . S
H138 C168 0.931 . S
H139 C160 0.929 . S
H140 C169 0.930 . S
H141 C161 0.931 . S
O142 Co118 2.097 . S
O142 C170 1.214 . S
H143 C171 0.929 . S
H144 C172 0.929 . S
H145 C173 0.930 . S
H146 C174 0.929 . S
H147 C176 0.930 . S
H148 C153 0.930 . S
H149 C157 0.930 . S
O150 Co119 2.037 . S
O150 C170 1.234 . S
C151 O125 1.269 . S
C151 O126 1.257 . S
C152 H127 0.930 . S
C152 C155 1.388 . S
C152 C157 1.418 1_565 S
C153 H148 0.930 . S
C153 C156 1.404 1_545 S
C153 C157 1.353 . S
N154 Co119 2.145 . S
N154 C155 1.397 . S
N154 C156 1.334 . S
C155 H136 0.929 . S
C155 C152 1.388 . S
C155 N154 1.397 . S
C156 H137 0.929 . S
C156 C153 1.404 1_565 S
C156 N154 1.334 . S
C157 H149 0.930 . S
C157 C152 1.418 1_545 S
C157 C153 1.353 . S
C158 H128 0.930 . S
C158 N159 1.330 . S
C158 C160 1.446 1_655 S
N159 Co118 2.151 . S
N159 C158 1.330 . S
N159 C163 1.418 . S
C160 H139 0.929 . S
C160 C158 1.446 1_455 S
C160 C161 1.332 . S
C161 H141 0.931 . S
C161 C160 1.332 . S
C161 C162 1.267 1_455 S
C162 H130 0.929 . S
C162 C161 1.267 1_655 S
C162 C163 1.251 . S
C163 H133 0.929 . S
C163 N159 1.418 . S
C163 C162 1.251 . S
C164 H131 0.930 . S
C164 C166 1.406 . S
C164 C169 1.261 . S
C165 H132 0.930 . S
C165 N167 1.325 . S
C165 C168 1.357 . S
C166 H134 0.928 . S
C166 C164 1.406 . S
C166 N167 1.261 . S
N167 Co118 2.214 . S
N167 C165 1.325 . S
N167 C166 1.261 . S
C168 H138 0.931 . S
C168 C165 1.357 . S
C168 C169 1.312 . S
C169 H140 0.930 . S
C169 C164 1.261 . S
C169 C168 1.312 . S
C170 O142 1.214 . S
C170 O150 1.234 . S
C171 H143 0.929 . S
C171 C174 1.391 . S
C171 C176 1.391 . S
C172 H144 0.929 . S
C172 C173 1.390 . S
C172 N175 1.391 . S
C173 H145 0.930 . S
C173 C172 1.390 . S
C173 C174 1.392 . S
C174 H146 0.929 . S
C174 C171 1.391 . S
C174 C173 1.392 . S
N175 Co119 2.257 . S
N175 C172 1.391 . S
N175 C176 1.388 . S
C176 H147 0.930 . S
C176 C171 1.391 . S
C176 N175 1.388 . S
Co177 O179 2.143 . S
Co177 O185 2.074 . S
Co177 O188 2.093 . S
Co177 O201 2.097 . S
Co177 N218 2.151 . S
Co177 N226 2.214 . S
Co178 O179 2.160 . S
Co178 O184 2.058 . S
Co178 O194 2.057 . S
Co178 O209 2.037 . S
Co178 N213 2.145 . S
Co178 N234 2.257 . S
O179 Co177 2.143 . S
O179 Co178 2.160 . S
C180 O181 1.278 . S
C180 O188 1.224 . S
O181 C180 1.278 . S
C182 O183 1.245 . S
C182 O194 1.232 . S
O183 C182 1.245 . S
O184 Co178 2.058 . S
O184 C210 1.269 . S
O185 Co177 2.074 . S
O185 C210 1.257 . S
H186 C211 0.930 . S
H187 C217 0.930 . S
O188 Co177 2.093 . S
O188 C180 1.224 . S
H189 C221 0.929 . S
H190 C223 0.930 . S
H191 C224 0.930 . S
H192 C222 0.929 . S
H193 C225 0.928 . S
O194 Co178 2.057 . S
O194 C182 1.232 . S
H195 C214 0.929 . S
H196 C215 0.929 . S
H197 C227 0.931 . S
H198 C219 0.929 . S
H199 C228 0.930 . S
H200 C220 0.931 . S
O201 Co177 2.097 . S
O201 C229 1.214 . S
H202 C230 0.929 . S
H203 C231 0.929 . S
H204 C232 0.930 . S
H205 C233 0.929 . S
H206 C235 0.925 1_556 S
H207 C212 0.930 . S
H208 C216 0.930 . S
O209 Co178 2.037 . S
O209 C229 1.234 . S
C210 O184 1.269 . S
C210 O185 1.257 . S
C211 H186 0.930 . S
C211 C214 1.388 . S
C211 C216 1.418 1_565 S
C212 H207 0.930 . S
C212 C215 1.404 1_545 S
C212 C216 1.353 . S
N213 Co178 2.145 . S
N213 C214 1.397 . S
N213 C215 1.334 . S
C214 H195 0.929 . S
C214 C211 1.388 . S
C214 N213 1.397 . S
C215 H196 0.929 . S
C215 C212 1.404 1_565 S
C215 N213 1.334 . S
C216 H208 0.930 . S
C216 C211 1.418 1_545 S
C216 C212 1.353 . S
C217 H187 0.930 . S
C217 N218 1.330 . S
C217 C219 1.446 1_455 S
N218 Co177 2.151 . S
N218 C217 1.330 . S
N218 C222 1.418 . S
C219 H198 0.929 . S
C219 C217 1.446 1_655 S
C219 C220 1.332 . S
C220 H200 0.931 . S
C220 C219 1.332 . S
C220 C221 1.267 1_655 S
C221 H189 0.929 . S
C221 C220 1.267 1_455 S
C221 C222 1.251 . S
C222 H192 0.929 . S
C222 N218 1.418 . S
C222 C221 1.251 . S
C223 H190 0.930 . S
C223 C225 1.406 . S
C223 C228 1.261 . S
C224 H191 0.930 . S
C224 N226 1.325 . S
C224 C227 1.357 . S
C225 H193 0.928 . S
C225 C223 1.406 . S
C225 N226 1.261 . S
N226 Co177 2.214 . S
N226 C224 1.325 . S
N226 C225 1.261 . S
C227 H197 0.931 . S
C227 C224 1.357 . S
C227 C228 1.312 . S
C228 H199 0.930 . S
C228 C223 1.261 . S
C228 C227 1.312 . S
C229 O201 1.214 . S
C229 O209 1.234 . S
C230 H202 0.929 . S
C230 C233 1.391 . S
C230 C235 1.404 . S
C231 H203 0.929 . S
C231 C232 1.390 1_556 S
C231 N234 1.391 . S
C232 H204 0.930 . S
C232 C231 1.390 1_554 S
C232 C233 1.392 . S
C233 H205 0.929 . S
C233 C230 1.391 . S
C233 C232 1.392 . S
N234 Co178 2.257 . S
N234 C231 1.391 . S
N234 C235 1.381 1_556 S
C235 H206 0.925 1_554 S
C235 C230 1.404 . S
C235 N234 1.381 1_554 S
Co236 O238 2.143 . S
Co236 O244 2.074 . S
Co236 O247 2.093 . S
Co236 O260 2.097 . S
Co236 N277 2.151 . S
Co236 N285 2.214 . S
Co237 O238 2.160 . S
Co237 O243 2.058 . S
Co237 O253 2.057 . S
Co237 O268 2.037 . S
Co237 N272 2.145 . S
Co237 N293 2.257 . S
O238 Co236 2.143 . S
O238 Co237 2.160 . S
C239 O240 1.278 . S
C239 O247 1.224 . S
O240 C239 1.278 . S
C241 O242 1.245 . S
C241 O253 1.232 . S
O242 C241 1.245 . S
O243 Co237 2.058 . S
O243 C269 1.269 . S
O244 Co236 2.074 . S
O244 C269 1.257 . S
H245 C270 0.930 . S
H246 C276 0.930 . S
O247 Co236 2.093 . S
O247 C239 1.224 . S
H248 C280 0.929 . S
H249 C282 0.930 . S
H250 C283 0.930 . S
H251 C281 0.929 . S
H252 C284 0.928 . S
O253 Co237 2.057 . S
O253 C241 1.232 . S
H254 C273 0.929 . S
H255 C274 0.929 . S
H256 C286 0.931 . S
H257 C278 0.929 . S
H258 C287 0.930 . S
H259 C279 0.931 . S
O260 Co236 2.097 . S
O260 C288 1.214 . S
H261 C289 0.929 . S
H262 C290 0.929 . S
H263 C291 0.930 . S
H264 C292 0.929 . S
H265 C294 0.930 . S
H266 C271 0.930 . S
H267 C275 0.930 . S
O268 Co237 2.037 . S
O268 C288 1.234 . S
C269 O243 1.269 . S
C269 O244 1.257 . S
C270 H245 0.930 . S
C270 C273 1.388 . S
C270 C275 1.418 . S
C271 H266 0.930 . S
C271 C274 1.404 . S
C271 C275 1.353 . S
N272 Co237 2.145 . S
N272 C273 1.397 . S
N272 C274 1.334 . S
C273 H254 0.929 . S
C273 C270 1.388 . S
C273 N272 1.397 . S
C274 H255 0.929 . S
C274 C271 1.404 . S
C274 N272 1.334 . S
C275 H267 0.930 . S
C275 C270 1.418 . S
C275 C271 1.353 . S
C276 H246 0.930 . S
C276 N277 1.330 . S
C276 C278 1.446 . S
N277 Co236 2.151 . S
N277 C276 1.330 . S
N277 C281 1.418 . S
C278 H257 0.929 . S
C278 C276 1.446 . S
C278 C279 1.332 . S
C279 H259 0.931 . S
C279 C278 1.332 . S
C279 C280 1.267 . S
C280 H248 0.929 . S
C280 C279 1.267 . S
C280 C281 1.251 . S
C281 H251 0.929 . S
C281 N277 1.418 . S
C281 C280 1.251 . S
C282 H249 0.930 . S
C282 C284 1.406 . S
C282 C287 1.261 . S
C283 H250 0.930 . S
C283 N285 1.325 . S
C283 C286 1.357 . S
C284 H252 0.928 . S
C284 C282 1.406 . S
C284 N285 1.261 1_545 S
N285 Co236 2.214 . S
N285 C283 1.325 . S
N285 C284 1.261 1_565 S
C286 H256 0.931 . S
C286 C283 1.357 . S
C286 C287 1.312 1_565 S
C287 H258 0.930 . S
C287 C282 1.261 . S
C287 C286 1.312 1_545 S
C288 O260 1.214 . S
C288 O268 1.234 . S
C289 H261 0.929 . S
C289 C292 1.391 . S
C289 C294 1.391 . S
C290 H262 0.929 . S
C290 C291 1.390 . S
C290 N293 1.391 . S
C291 H263 0.930 . S
C291 C290 1.390 . S
C291 C292 1.392 . S
C292 H264 0.929 . S
C292 C289 1.391 . S
C292 C291 1.392 . S
N293 Co237 2.257 . S
N293 C290 1.391 . S
N293 C294 1.388 . S
C294 H265 0.930 . S
C294 C289 1.391 . S
C294 N293 1.388 . S
Co295 O297 2.143 . S
Co295 O303 2.074 . S
Co295 O306 2.093 . S
Co295 O319 2.097 . S
Co295 N336 2.151 . S
Co295 N344 2.214 . S
Co296 O297 2.160 . S
Co296 O302 2.058 . S
Co296 O312 2.057 . S
Co296 O327 2.037 . S
Co296 N331 2.145 . S
Co296 N352 2.257 . S
O297 Co295 2.143 . S
O297 Co296 2.160 . S
C298 O299 1.278 . S
C298 O306 1.224 . S
O299 C298 1.278 . S
C300 O301 1.245 . S
C300 O312 1.232 . S
O301 C300 1.245 . S
O302 Co296 2.058 . S
O302 C328 1.269 . S
O303 Co295 2.074 . S
O303 C328 1.257 . S
H304 C329 0.930 . S
H305 C335 0.930 . S
O306 Co295 2.093 . S
O306 C298 1.224 . S
H307 C339 0.929 . S
H308 C341 0.930 . S
H309 C342 0.930 . S
H310 C340 0.929 . S
H311 C343 0.928 . S
O312 Co296 2.057 . S
O312 C300 1.232 . S
H313 C332 0.929 . S
H314 C333 0.929 . S
H315 C345 0.931 . S
H316 C337 0.929 . S
H317 C346 0.930 . S
H318 C338 0.931 . S
O319 Co295 2.097 . S
O319 C347 1.214 . S
H320 C348 0.929 . S
H321 C349 0.929 . S
H322 C350 0.930 . S
H323 C351 0.929 . S
H324 C353 0.925 1_554 S
H325 C330 0.930 . S
H326 C334 0.930 . S
O327 Co296 2.037 . S
O327 C347 1.234 . S
C328 O302 1.269 . S
C328 O303 1.257 . S
C329 H304 0.930 . S
C329 C332 1.388 . S
C329 C334 1.418 . S
C330 H325 0.930 . S
C330 C333 1.404 . S
C330 C334 1.353 . S
N331 Co296 2.145 . S
N331 C332 1.397 . S
N331 C333 1.334 . S
C332 H313 0.929 . S
C332 C329 1.388 . S
C332 N331 1.397 . S
C333 H314 0.929 . S
C333 C330 1.404 . S
C333 N331 1.334 . S
C334 H326 0.930 . S
C334 C329 1.418 . S
C334 C330 1.353 . S
C335 H305 0.930 . S
C335 N336 1.330 . S
C335 C337 1.446 . S
N336 Co295 2.151 . S
N336 C335 1.330 . S
N336 C340 1.418 . S
C337 H316 0.929 . S
C337 C335 1.446 . S
C337 C338 1.332 . S
C338 H318 0.931 . S
C338 C337 1.332 . S
C338 C339 1.267 . S
C339 H307 0.929 . S
C339 C338 1.267 . S
C339 C340 1.251 . S
C340 H310 0.929 . S
C340 N336 1.418 . S
C340 C339 1.251 . S
C341 H308 0.930 . S
C341 C343 1.406 . S
C341 C346 1.261 . S
C342 H309 0.930 . S
C342 N344 1.325 . S
C342 C345 1.357 . S
C343 H311 0.928 . S
C343 C341 1.406 . S
C343 N344 1.261 1_545 S
N344 Co295 2.214 . S
N344 C342 1.325 . S
N344 C343 1.261 1_565 S
C345 H315 0.931 . S
C345 C342 1.357 . S
C345 C346 1.312 1_565 S
C346 H317 0.930 . S
C346 C341 1.261 . S
C346 C345 1.312 1_545 S
C347 O319 1.214 . S
C347 O327 1.234 . S
C348 H320 0.929 . S
C348 C351 1.391 . S
C348 C353 1.404 . S
C349 H321 0.929 . S
C349 C350 1.390 1_554 S
C349 N352 1.391 . S
C350 H322 0.930 . S
C350 C349 1.390 1_556 S
C350 C351 1.392 . S
C351 H323 0.929 . S
C351 C348 1.391 . S
C351 C350 1.392 . S
N352 Co296 2.257 . S
N352 C349 1.391 . S
N352 C353 1.381 1_554 S
C353 H324 0.925 1_556 S
C353 C348 1.404 . S
C353 N352 1.381 1_556 S
Co354 O356 2.143 . S
Co354 O362 2.074 . S
Co354 O365 2.093 . S
Co354 O378 2.097 . S
Co354 N395 2.151 . S
Co354 N403 2.214 . S
Co355 O356 2.160 . S
Co355 O361 2.058 . S
Co355 O371 2.057 . S
Co355 O386 2.037 . S
Co355 N390 2.145 . S
Co355 N411 2.257 . S
O356 Co354 2.143 . S
O356 Co355 2.160 . S
C357 O358 1.278 . S
C357 O365 1.224 . S
O358 C357 1.278 . S
C359 O360 1.245 . S
C359 O371 1.232 . S
O360 C359 1.245 . S
O361 Co355 2.058 . S
O361 C387 1.269 . S
O362 Co354 2.074 . S
O362 C387 1.257 . S
H363 C388 0.930 . S
H364 C394 0.930 . S
O365 Co354 2.093 . S
O365 C357 1.224 . S
H366 C398 0.929 . S
H367 C400 0.930 . S
H368 C401 0.930 . S
H369 C399 0.929 . S
H370 C402 0.928 . S
O371 Co355 2.057 . S
O371 C359 1.232 . S
H372 C391 0.929 . S
H373 C392 0.929 . S
H374 C404 0.931 . S
H375 C396 0.929 . S
H376 C405 0.930 . S
H377 C397 0.931 . S
O378 Co354 2.097 . S
O378 C406 1.214 . S
H379 C407 0.929 . S
H380 C408 0.929 . S
H381 C409 0.930 . S
H382 C410 0.929 . S
H383 C412 0.930 . S
H384 C389 0.930 . S
H385 C393 0.930 . S
O386 Co355 2.037 . S
O386 C406 1.234 . S
C387 O361 1.269 . S
C387 O362 1.257 . S
C388 H363 0.930 . S
C388 C391 1.388 . S
C388 C393 1.418 . S
C389 H384 0.930 . S
C389 C392 1.404 . S
C389 C393 1.353 . S
N390 Co355 2.145 . S
N390 C391 1.397 . S
N390 C392 1.334 . S
C391 H372 0.929 . S
C391 C388 1.388 . S
C391 N390 1.397 . S
C392 H373 0.929 . S
C392 C389 1.404 . S
C392 N390 1.334 . S
C393 H385 0.930 . S
C393 C388 1.418 . S
C393 C389 1.353 . S
C394 H364 0.930 . S
C394 N395 1.330 . S
C394 C396 1.446 . S
N395 Co354 2.151 . S
N395 C394 1.330 . S
N395 C399 1.418 . S
C396 H375 0.929 . S
C396 C394 1.446 . S
C396 C397 1.332 . S
C397 H377 0.931 . S
C397 C396 1.332 . S
C397 C398 1.267 . S
C398 H366 0.929 . S
C398 C397 1.267 . S
C398 C399 1.251 . S
C399 H369 0.929 . S
C399 N395 1.418 . S
C399 C398 1.251 . S
C400 H367 0.930 . S
C400 C402 1.406 . S
C400 C405 1.261 . S
C401 H368 0.930 . S
C401 N403 1.325 . S
C401 C404 1.357 . S
C402 H370 0.928 . S
C402 C400 1.406 . S
C402 N403 1.261 1_565 S
N403 Co354 2.214 . S
N403 C401 1.325 . S
N403 C402 1.261 1_545 S
C404 H374 0.931 . S
C404 C401 1.357 . S
C404 C405 1.312 1_545 S
C405 H376 0.930 . S
C405 C400 1.261 . S
C405 C404 1.312 1_565 S
C406 O378 1.214 . S
C406 O386 1.234 . S
C407 H379 0.929 . S
C407 C410 1.391 . S
C407 C412 1.391 . S
C408 H380 0.929 . S
C408 C409 1.390 . S
C408 N411 1.391 . S
C409 H381 0.930 . S
C409 C408 1.390 . S
C409 C410 1.392 . S
C410 H382 0.929 . S
C410 C407 1.391 . S
C410 C409 1.392 . S
N411 Co355 2.257 . S
N411 C408 1.391 . S
N411 C412 1.388 . S
C412 H383 0.930 . S
C412 C407 1.391 . S
C412 N411 1.388 . S
Co413 O415 2.143 . S
Co413 O421 2.074 . S
Co413 O424 2.093 . S
Co413 O437 2.097 . S
Co413 N454 2.151 . S
Co413 N462 2.214 . S
Co414 O415 2.160 . S
Co414 O420 2.058 . S
Co414 O430 2.057 . S
Co414 O445 2.037 . S
Co414 N449 2.145 . S
Co414 N470 2.257 . S
O415 Co413 2.143 . S
O415 Co414 2.160 . S
C416 O417 1.278 . S
C416 O424 1.224 . S
O417 C416 1.278 . S
C418 O419 1.245 . S
C418 O430 1.232 . S
O419 C418 1.245 . S
O420 Co414 2.058 . S
O420 C446 1.269 . S
O421 Co413 2.074 . S
O421 C446 1.257 . S
H422 C447 0.930 . S
H423 C453 0.930 . S
O424 Co413 2.093 . S
O424 C416 1.224 . S
H425 C457 0.929 . S
H426 C459 0.930 . S
H427 C460 0.930 . S
H428 C458 0.929 . S
H429 C461 0.928 . S
O430 Co414 2.057 . S
O430 C418 1.232 . S
H431 C450 0.929 . S
H432 C451 0.929 . S
H433 C463 0.931 . S
H434 C455 0.929 . S
H435 C464 0.930 . S
H436 C456 0.931 . S
O437 Co413 2.097 . S
O437 C465 1.214 . S
H438 C466 0.929 . S
H439 C467 0.929 . S
H440 C468 0.930 . S
H441 C469 0.929 . S
H442 C471 0.925 1_556 S
H443 C448 0.930 . S
H444 C452 0.930 . S
O445 Co414 2.037 . S
O445 C465 1.234 . S
C446 O420 1.269 . S
C446 O421 1.257 . S
C447 H422 0.930 . S
C447 C450 1.388 . S
C447 C452 1.418 . S
C448 H443 0.930 . S
C448 C451 1.404 . S
C448 C452 1.353 . S
N449 Co414 2.145 . S
N449 C450 1.397 . S
N449 C451 1.334 . S
C450 H431 0.929 . S
C450 C447 1.388 . S
C450 N449 1.397 . S
C451 H432 0.929 . S
C451 C448 1.404 . S
C451 N449 1.334 . S
C452 H444 0.930 . S
C452 C447 1.418 . S
C452 C448 1.353 . S
C453 H423 0.930 . S
C453 N454 1.330 . S
C453 C455 1.446 . S
N454 Co413 2.151 . S
N454 C453 1.330 . S
N454 C458 1.418 . S
C455 H434 0.929 . S
C455 C453 1.446 . S
C455 C456 1.332 . S
C456 H436 0.931 . S
C456 C455 1.332 . S
C456 C457 1.267 . S
C457 H425 0.929 . S
C457 C456 1.267 . S
C457 C458 1.251 . S
C458 H428 0.929 . S
C458 N454 1.418 . S
C458 C457 1.251 . S
C459 H426 0.930 . S
C459 C461 1.406 . S
C459 C464 1.261 . S
C460 H427 0.930 . S
C460 N462 1.325 . S
C460 C463 1.357 . S
C461 H429 0.928 . S
C461 C459 1.406 . S
C461 N462 1.261 1_565 S
N462 Co413 2.214 . S
N462 C460 1.325 . S
N462 C461 1.261 1_545 S
C463 H433 0.931 . S
C463 C460 1.357 . S
C463 C464 1.312 1_545 S
C464 H435 0.930 . S
C464 C459 1.261 . S
C464 C463 1.312 1_565 S
C465 O437 1.214 . S
C465 O445 1.234 . S
C466 H438 0.929 . S
C466 C469 1.391 . S
C466 C471 1.404 . S
C467 H439 0.929 . S
C467 C468 1.390 1_556 S
C467 N470 1.391 . S
C468 H440 0.930 . S
C468 C467 1.390 1_554 S
C468 C469 1.392 . S
C469 H441 0.929 . S
C469 C466 1.391 . S
C469 C468 1.392 . S
N470 Co414 2.257 . S
N470 C467 1.391 . S
N470 C471 1.381 1_556 S
C471 H442 0.925 1_554 S
C471 C466 1.404 . S
C471 N470 1.381 1_554 S
C472 C473 1.387 . S
C472 H476 0.950 . S
C472 C481 1.390 1_545 S
C473 C472 1.387 . S
C473 C475 1.387 1_455 S
H474 C481 0.950 . S
C475 C473 1.387 1_655 S
C475 C477 1.390 1_545 S
C475 H479 0.950 . S
H476 C472 0.950 . S
C477 C475 1.390 1_565 S
C477 C478 1.387 . S
C477 H480 0.950 . S
C478 C477 1.387 . S
C478 C481 1.387 1_655 S
H479 C475 0.950 . S
H480 C477 0.950 . S
C481 C472 1.390 1_565 S
C481 H474 0.950 . S
C481 C478 1.387 1_455 S
C482 C483 1.387 1_654 S
C482 H486 0.950 . S
C482 C491 1.390 . S
C483 C482 1.387 1_456 S
C483 C485 1.387 1_565 S
H484 C491 0.950 . S
C485 C483 1.387 1_545 S
C485 C487 1.390 . S
C485 H489 0.950 . S
H486 C482 0.950 . S
C487 C485 1.390 . S
C487 C488 1.387 1_456 S
C487 H490 0.950 . S
C488 C487 1.387 1_654 S
C488 C491 1.387 1_545 S
H489 C485 0.950 . S
H490 C487 0.950 . S
C491 C482 1.390 . S
C491 H484 0.950 . S
C491 C488 1.387 1_565 S
C492 C493 1.387 . S
C492 H496 0.950 . S
C492 C501 1.390 . S
C493 C492 1.387 . S
C493 C495 1.387 . S
H494 C501 0.950 . S
C495 C493 1.387 . S
C495 C497 1.390 . S
C495 H499 0.950 . S
H496 C492 0.950 . S
C497 C495 1.390 . S
C497 C498 1.387 . S
C497 H500 0.950 . S
C498 C497 1.387 . S
C498 C501 1.387 . S
H499 C495 0.950 . S
H500 C497 0.950 . S
C501 C492 1.390 . S
C501 H494 0.950 . S
C501 C498 1.387 . S
C502 C503 1.387 1_556 S
C502 H506 0.950 . S
C502 C511 1.390 . S
C503 C502 1.387 1_554 S
C503 C505 1.387 . S
H504 C511 0.950 . S
C505 C503 1.387 . S
C505 C507 1.390 . S
C505 H509 0.950 . S
H506 C502 0.950 . S
C507 C505 1.390 . S
C507 C508 1.387 1_554 S
C507 H510 0.950 . S
C508 C507 1.387 1_556 S
C508 C511 1.387 . S
H509 C505 0.950 . S
H510 C507 0.950 . S
C511 C502 1.390 . S
C511 H504 0.950 . S
C511 C508 1.387 . S
C512 C513 1.387 1_556 S
C512 H516 0.950 . S
C512 C521 1.390 1_655 S
C513 C512 1.387 1_554 S
C513 C515 1.387 . S
H514 C521 0.950 . S
C515 C513 1.387 . S
C515 C517 1.390 1_655 S
C515 H519 0.950 . S
H516 C512 0.950 . S
C517 C515 1.390 1_455 S
C517 C518 1.387 1_554 S
C517 H520 0.950 . S
C518 C517 1.387 1_556 S
C518 C521 1.387 . S
H519 C515 0.950 . S
H520 C517 0.950 . S
C521 C512 1.390 1_455 S
C521 H514 0.950 . S
C521 C518 1.387 . S
C522 C523 1.387 . S
C522 H526 0.950 . S
C522 C531 1.390 1_455 S
C523 C522 1.387 . S
C523 C525 1.387 . S
H524 C531 0.950 . S
C525 C523 1.387 . S
C525 C527 1.390 1_455 S
C525 H529 0.950 . S
H526 C522 0.950 . S
C527 C525 1.390 1_655 S
C527 C528 1.387 . S
C527 H530 0.950 . S
C528 C527 1.387 . S
C528 C531 1.387 . S
H529 C525 0.950 . S
H530 C527 0.950 . S
C531 C522 1.390 1_655 S
C531 H524 0.950 . S
C531 C528 1.387 . S
C532 C533 1.387 1_565 S
C532 H536 0.950 . S
C532 C541 1.390 . S
C533 C532 1.387 1_545 S
C533 C535 1.387 1_556 S
H534 C541 0.950 . S
C535 C533 1.387 1_554 S
C535 C537 1.390 . S
C535 H539 0.950 . S
H536 C532 0.950 . S
C537 C535 1.390 . S
C537 C538 1.387 1_545 S
C537 H540 0.950 . S
C538 C537 1.387 1_565 S
C538 C541 1.387 1_554 S
H539 C535 0.950 . S
H540 C537 0.950 . S
C541 C532 1.390 . S
C541 H534 0.950 . S
C541 C538 1.387 1_556 S
C542 C543 1.387 . S
C542 H546 0.950 . S
C542 C551 1.390 . S
C543 C542 1.387 . S
C543 C545 1.387 1_565 S
H544 C551 0.950 . S
C545 C543 1.387 1_545 S
C545 C547 1.390 . S
C545 H549 0.950 . S
H546 C542 0.950 . S
C547 C545 1.390 . S
C547 C548 1.387 . S
C547 H550 0.950 . S
C548 C547 1.387 . S
C548 C551 1.387 1_545 S
H549 C545 0.950 . S
H550 C547 0.950 . S
C551 C542 1.390 . S
C551 H544 0.950 . S
C551 C548 1.387 1_565 S
C552 C553 1.387 . S
C552 H556 0.950 . S
C552 C561 1.390 . S
C553 C552 1.387 . S
C553 C555 1.387 . S
H554 C561 0.950 . S
C555 C553 1.387 . S
C555 C557 1.390 . S
C555 H559 0.950 . S
H556 C552 0.950 . S
C557 C555 1.390 . S
C557 C558 1.387 . S
C557 H560 0.950 . S
C558 C557 1.387 . S
C558 C561 1.387 . S
H559 C555 0.950 . S
H560 C557 0.950 . S
C561 C552 1.390 . S
C561 H554 0.950 . S
C561 C558 1.387 . S
C562 C563 1.387 . S
C562 H566 0.950 . S
C562 C571 1.390 1_556 S
C563 C562 1.387 . S
C563 C565 1.387 . S
H564 C571 0.950 . S
C565 C563 1.387 . S
C565 C567 1.390 1_556 S
C565 H569 0.950 . S
H566 C562 0.950 . S
C567 C565 1.390 1_554 S
C567 C568 1.387 . S
C567 H570 0.950 . S
C568 C567 1.387 . S
C568 C571 1.387 . S
H569 C565 0.950 . S
H570 C567 0.950 . S
C571 C562 1.390 1_554 S
C571 H564 0.950 . S
C571 C568 1.387 . S
C572 C573 1.387 . S
C572 H576 0.950 . S
C572 C581 1.390 . S
C573 C572 1.387 . S
C573 C575 1.387 . S
H574 C581 0.950 . S
C575 C573 1.387 . S
C575 C577 1.390 . S
C575 H579 0.950 . S
H576 C572 0.950 . S
C577 C575 1.390 . S
C577 C578 1.387 . S
C577 H580 0.950 . S
C578 C577 1.387 . S
C578 C581 1.387 . S
H579 C575 0.950 . S
H580 C577 0.950 . S
C581 C572 1.390 . S
C581 H574 0.950 . S
C581 C578 1.387 . S
C582 C583 1.387 . S
C582 H586 0.950 . S
C582 C591 1.390 1_554 S
C583 C582 1.387 . S
C583 C585 1.387 . S
H584 C591 0.950 . S
C585 C583 1.387 . S
C585 C587 1.390 1_554 S
C585 H589 0.950 . S
H586 C582 0.950 . S
C587 C585 1.390 1_556 S
C587 C588 1.387 . S
C587 H590 0.950 . S
C588 C587 1.387 . S
C588 C591 1.387 . S
H589 C585 0.950 . S
H590 C587 0.950 . S
C591 C582 1.390 1_556 S
C591 H584 0.950 . S
C591 C588 1.387 . S
C592 C593 1.387 . S
C592 H596 0.950 . S
C592 C601 1.390 . S
C593 C592 1.387 . S
C593 C595 1.387 . S
H594 C601 0.950 . S
C595 C593 1.387 . S
C595 C597 1.390 . S
C595 H599 0.950 . S
H596 C592 0.950 . S
C597 C595 1.390 . S
C597 C598 1.387 . S
C597 H600 0.950 . S
C598 C597 1.387 . S
C598 C601 1.387 . S
H599 C595 0.950 . S
H600 C597 0.950 . S
C601 C592 1.390 . S
C601 H594 0.950 . S
C601 C598 1.387 . S
C602 C603 1.387 . S
C602 H606 0.950 . S
C602 C611 1.390 . S
C603 C602 1.387 . S
C603 C605 1.387 . S
H604 C611 0.950 . S
C605 C603 1.387 . S
C605 C607 1.390 . S
C605 H609 0.950 . S
H606 C602 0.950 . S
C607 C605 1.390 . S
C607 C608 1.387 . S
C607 H610 0.950 . S
C608 C607 1.387 . S
C608 C611 1.387 . S
H609 C605 0.950 . S
H610 C607 0.950 . S
C611 C602 1.390 . S
C611 H604 0.950 . S
C611 C608 1.387 . S
C612 C613 1.387 . S
C612 H616 0.950 . S
C612 C621 1.390 1_455 S
C613 C612 1.387 . S
C613 C615 1.387 . S
H614 C621 0.950 . S
C615 C613 1.387 . S
C615 C617 1.390 1_455 S
C615 H619 0.950 . S
H616 C612 0.950 . S
C617 C615 1.390 1_655 S
C617 C618 1.387 . S
C617 H620 0.950 . S
C618 C617 1.387 . S
C618 C621 1.387 . S
H619 C615 0.950 . S
H620 C617 0.950 . S
C621 C612 1.390 1_655 S
C621 H614 0.950 . S
C621 C618 1.387 . S
C622 C623 1.387 . S
C622 H626 0.950 . S
C622 C631 1.390 1_455 S
C623 C622 1.387 . S
C623 C625 1.387 . S
H624 C631 0.950 . S
C625 C623 1.387 . S
C625 C627 1.390 1_455 S
C625 H629 0.950 . S
H626 C622 0.950 . S
C627 C625 1.390 1_655 S
C627 C628 1.387 . S
C627 H630 0.950 . S
C628 C627 1.387 . S
C628 C631 1.387 . S
H629 C625 0.950 . S
H630 C627 0.950 . S
C631 C622 1.390 1_655 S
C631 H624 0.950 . S
C631 C628 1.387 . S
C473 C5 2.007 . S
C478 C123 2.007 . S
C483 C182 2.008 . S
C488 C64 2.008 . S
C493 C359 2.007 . S
C498 C241 2.007 . S
C503 C300 2.006 . S
C508 C418 2.006 . S
C513 C62 1.343 . S
C518 C180 1.343 . S
C523 C3 1.344 . S
C528 C121 1.344 . S
C533 C416 1.342 . S
C538 C298 1.342 . S
C543 C239 1.343 . S
C548 C357 1.343 . S
C553 C328 1.598 . S
C558 C210 1.598 . S
C563 C151 1.598 . S
C568 C269 1.598 . S
C573 C92 1.598 . S
C578 C446 1.598 . S
C583 C33 1.596 . S
C588 C387 1.596 . S
C593 C52 1.625 . S
C598 C111 1.625 . S
C603 C170 1.625 . S
C608 C229 1.625 . S
C613 C347 1.625 . S
C618 C288 1.625 . S
C623 C406 1.625 . S
C628 C465 1.625 . S
