# Generated by pormake.
# Topology umj, (4)-cn, num edge types: 1
# Building blocks:
#     Node 0, Type 0, BuildingBlock: MUDLON_clean_sbu_0, # of connection points: 4
#     Node 1, Type 0, BuildingBlock: MUDLON_clean_sbu_0, # of connection points: 4
#     Node 2, Type 0, BuildingBlock: MUDLON_clean_sbu_0, # of connection points: 4
#     Node 3, Type 0, BuildingBlock: MUDLON_clean_sbu_0, # of connection points: 4
#     Node 4, Type 0, BuildingBlock: MUDLON_clean_sbu_0, # of connection points: 4
#     Node 5, Type 0, BuildingBlock: MUDLON_clean_sbu_0, # of connection points: 4
#     Node 6, Type 0, BuildingBlock: MUDLON_clean_sbu_0, # of connection points: 4
#     Node 7, Type 0, BuildingBlock: MUDLON_clean_sbu_0, # of connection points: 4
#     Node 8, Type 0, BuildingBlock: MUDLON_clean_sbu_0, # of connection points: 4
#     Node 9, Type 0, BuildingBlock: MUDLON_clean_sbu_0, # of connection points: 4
#     Node 10, Type 0, BuildingBlock: MUDLON_clean_sbu_0, # of connection points: 4
#     Node 11, Type 0, BuildingBlock: MUDLON_clean_sbu_0, # of connection points: 4
#     Edge 12, Type (0, 0), BuildingBlock: XUDNAN_clean_linker_2, # of connection points: 2
#     Edge 13, Type (0, 0), BuildingBlock: XUDNAN_clean_linker_2, # of connection points: 2
#     Edge 14, Type (0, 0), BuildingBlock: XUDNAN_clean_linker_2, # of connection points: 2
#     Edge 15, Type (0, 0), BuildingBlock: XUDNAN_clean_linker_2, # of connection points: 2
#     Edge 16, Type (0, 0), BuildingBlock: XUDNAN_clean_linker_2, # of connection points: 2
#     Edge 17, Type (0, 0), BuildingBlock: XUDNAN_clean_linker_2, # of connection points: 2
#     Edge 18, Type (0, 0), BuildingBlock: XUDNAN_clean_linker_2, # of connection points: 2
#     Edge 19, Type (0, 0), BuildingBlock: XUDNAN_clean_linker_2, # of connection points: 2
#     Edge 20, Type (0, 0), BuildingBlock: XUDNAN_clean_linker_2, # of connection points: 2
#     Edge 21, Type (0, 0), BuildingBlock: XUDNAN_clean_linker_2, # of connection points: 2
#     Edge 22, Type (0, 0), BuildingBlock: XUDNAN_clean_linker_2, # of connection points: 2
#     Edge 23, Type (0, 0), BuildingBlock: XUDNAN_clean_linker_2, # of connection points: 2
#     Edge 24, Type (0, 0), BuildingBlock: XUDNAN_clean_linker_2, # of connection points: 2
#     Edge 25, Type (0, 0), BuildingBlock: XUDNAN_clean_linker_2, # of connection points: 2
#     Edge 26, Type (0, 0), BuildingBlock: XUDNAN_clean_linker_2, # of connection points: 2
#     Edge 27, Type (0, 0), BuildingBlock: XUDNAN_clean_linker_2, # of connection points: 2
#     Edge 28, Type (0, 0), BuildingBlock: XUDNAN_clean_linker_2, # of connection points: 2
#     Edge 29, Type (0, 0), BuildingBlock: XUDNAN_clean_linker_2, # of connection points: 2
#     Edge 30, Type (0, 0), BuildingBlock: XUDNAN_clean_linker_2, # of connection points: 2
#     Edge 31, Type (0, 0), BuildingBlock: XUDNAN_clean_linker_2, # of connection points: 2
#     Edge 32, Type (0, 0), BuildingBlock: XUDNAN_clean_linker_2, # of connection points: 2
#     Edge 33, Type (0, 0), BuildingBlock: XUDNAN_clean_linker_2, # of connection points: 2
#     Edge 34, Type (0, 0), BuildingBlock: XUDNAN_clean_linker_2, # of connection points: 2
#     Edge 35, Type (0, 0), BuildingBlock: XUDNAN_clean_linker_2, # of connection points: 2
# Relax obj value: 0.017
# Max RMSD: 0.120
# Mean RMSD: 0.120
data_MOF--net-umj--node1-MUDLON_clean_sbu_0--edge1-XUDNAN_clean_linker_2
_symmetry_space_group_name_H-M    P1
_symmetry_Int_Tables_number       1
_symmetry_cell_setting            triclinic
loop_
_symmetry_equiv_pos_as_xyz
'x, y, z'
_cell_length_a     30.38646
_cell_length_b     30.493127
_cell_length_c     87.598401
_cell_angle_alpha  90.237336
_cell_angle_beta   89.876081
_cell_angle_gamma 120.13096
loop_
_atom_site_label
_atom_site_type_symbol
_atom_site_fract_x
_atom_site_fract_y
_atom_site_fract_z
_atom_type_partial_charge
Mg0 Mg 0.05434 0.29536 0.10013 0.0
C1 C 0.0623 0.27812 0.13401 0.0
O2 O 0.05747 0.23533 0.12895 0.0
C3 C 0.09019 0.30354 0.06993 0.0
O4 O 0.04064 0.27312 0.0702 0.0
C5 C 0.04926 0.38286 0.09187 0.0
O6 O 0.09721 0.39638 0.09399 0.0
O7 O 0.01538 0.33654 0.09389 0.0
O8 O 0.06855 0.31218 0.12446 0.0
O9 O 0.02073 0.21307 0.09725 0.0
C10 C 0.05579 0.20225 0.09517 0.0
O11 O 0.10343 0.23897 0.09574 0.0
O12 O 0.11314 0.32356 0.0824 0.0
Mg13 Mg 0.80426 0.04675 0.43372 0.0
C14 C 0.77824 0.00841 0.46424 0.0
O15 O 0.75748 0.96962 0.45479 0.0
C16 C 0.81235 0.09129 0.40468 0.0
O17 O 0.79495 0.0425 0.40284 0.0
C18 C 0.70129 0.02394 0.43154 0.0
O19 O 0.72865 0.06995 0.43717 0.0
O20 O 0.7236 0.99899 0.42847 0.0
O21 O 0.80445 0.05273 0.45862 0.0
O22 O 0.86044 0.02425 0.42811 0.0
C23 C 0.90465 0.06248 0.42597 0.0
O24 O 0.91027 0.10803 0.42692 0.0
O25 O 0.82233 0.10934 0.41821 0.0
Mg26 Mg 0.71107 0.75592 0.76601 0.0
C27 C 0.73587 0.74588 0.79814 0.0
O28 O 0.76972 0.74021 0.79038 0.0
C29 C 0.70991 0.83785 0.74638 0.0
O30 O 0.75523 0.8664 0.75234 0.0
C31 C 0.61296 0.66984 0.76505 0.0
O32 O 0.61255 0.7075 0.77228 0.0
O33 O 0.65559 0.67709 0.76004 0.0
O34 O 0.70504 0.75524 0.79098 0.0
O35 O 0.79275 0.79589 0.76032 0.0
C36 C 0.81902 0.83434 0.76889 0.0
O37 O 0.79601 0.84302 0.78023 0.0
O38 O 0.68123 0.79395 0.75189 0.0
Mg39 Mg 0.96375 0.7469 0.1013 0.0
C40 C 1.00935 0.77009 0.13099 0.0
O41 O 0.04596 0.79058 0.1208 0.0
C42 C 0.88271 0.73426 0.07893 0.0
O43 O 0.90318 0.78295 0.08172 0.0
C44 C 0.97569 0.65897 0.09838 0.0
O45 O 0.93299 0.64358 0.10592 0.0
O46 O 1.0016 0.7055 0.09461 0.0
O47 O 0.96357 0.74512 0.12622 0.0
O48 O 1.00138 0.82723 0.09551 0.0
C49 C 0.98475 0.85227 0.10277 0.0
O50 O 0.94928 0.82871 0.11314 0.0
O51 O 0.89507 0.70815 0.0873 0.0
Mg52 Mg 0.26101 0.96269 0.43453 0.0
C53 C 0.28121 0.96079 0.46844 0.0
O54 O 0.32421 0.96608 0.46328 0.0
C55 C 0.23343 0.91629 0.40516 0.0
O56 O 0.26769 0.96436 0.40331 0.0
C57 C 0.3464 0.94686 0.42886 0.0
O58 O 0.30606 0.90147 0.43 0.0
O59 O 0.34075 0.98537 0.43039 0.0
O60 O 0.24623 0.9531 0.45901 0.0
O61 O 0.22926 0.01034 0.42832 0.0
C62 C 0.18126 0.98486 0.43045 0.0
O63 O 0.16152 0.93846 0.43573 0.0
O64 O 0.21988 0.89991 0.41871 0.0
Mg65 Mg 0.26281 0.22812 0.76154 0.0
C66 C 0.29922 0.27135 0.79301 0.0
O67 O 0.32637 0.31198 0.7847 0.0
C68 C 0.35327 0.2319 0.74393 0.0
O69 O 0.38159 0.27501 0.75114 0.0
C70 C 0.318 0.33211 0.74517 0.0
O71 O 0.32594 0.30762 0.73414 0.0
O72 O 0.2879 0.30729 0.75604 0.0
O73 O 0.27253 0.22889 0.7863 0.0
O74 O 0.18337 0.17167 0.75634 0.0
C75 C 0.15485 0.14317 0.76699 0.0
O76 O 0.17224 0.15205 0.78105 0.0
O77 O 0.30661 0.20463 0.74755 0.0
Mg78 Mg 0.77825 0.98313 0.6097 0.0
C79 C 0.79065 0.99103 0.57629 0.0
O80 O 0.82947 0.03339 0.58139 0.0
C81 C 0.75586 0.95129 0.64067 0.0
O82 O 0.79198 0.99917 0.6405 0.0
C83 C 0.72674 0.04492 0.60438 0.0
O84 O 0.72836 0.03222 0.59014 0.0
O85 O 0.75103 0.03573 0.61448 0.0
O86 O 0.76039 0.95875 0.58596 0.0
O87 O 0.85827 1.00619 0.61296 0.0
C88 C 0.86409 0.96791 0.61466 0.0
O89 O 0.82345 0.92249 0.61439 0.0
O90 O 0.73907 0.9287 0.62793 0.0
Mg91 Mg 0.75115 0.69915 0.9406 0.0
C92 C 0.78487 0.71037 0.90709 0.0
O93 O 0.82195 0.75471 0.91161 0.0
C94 C 0.78008 0.70417 0.97184 0.0
O95 O 0.75671 0.73032 0.97033 0.0
C96 C 0.66228 0.60356 0.94776 0.0
O97 O 0.70166 0.59671 0.94793 0.0
O98 O 0.67013 0.64806 0.94513 0.0
O99 O 0.75596 0.67844 0.91702 0.0
O100 O 0.78526 0.78191 0.94077 0.0
C101 C 0.8334 0.80556 0.94271 0.0
O102 O 0.85598 0.7789 0.94479 0.0
O103 O 0.78652 0.68372 0.95998 0.0
Mg104 Mg 0.04819 0.79236 0.27628 0.0
C105 C 0.03631 0.78069 0.24315 0.0
O106 O 0.99073 0.75038 0.24872 0.0
C107 C 0.0811 0.77958 0.30621 0.0
O108 O 0.03208 0.74693 0.30559 0.0
C109 C 0.02538 0.6892 0.27482 0.0
O110 O 0.07451 0.71784 0.27238 0.0
O111 O 0.99915 0.71065 0.27697 0.0
O112 O 0.07271 0.80624 0.25245 0.0
O113 O 0.01747 0.84096 0.28244 0.0
C114 C 1.00359 0.86188 0.27252 0.0
O115 O 1.0009 0.84862 0.25812 0.0
O116 O 0.10275 0.807 0.29456 0.0
Mg117 Mg 0.32588 0.07578 0.60942 0.0
C118 C 0.32891 0.0558 0.57677 0.0
O119 O 0.3335 0.02003 0.58358 0.0
C120 C 0.34029 0.11416 0.6395 0.0
O121 O 0.31626 0.06435 0.63988 0.0
C122 C 0.42037 0.0735 0.60731 0.0
O123 O 0.42757 0.11171 0.59869 0.0
O124 O 0.37718 0.04665 0.61364 0.0
O125 O 0.3271 0.08959 0.58492 0.0
O126 O 0.24487 0.0292 0.61421 0.0
C127 C 0.22263 0.0549 0.61256 0.0
O128 O 0.25021 0.10275 0.60859 0.0
O129 O 0.3518 0.13579 0.62651 0.0
Mg130 Mg 0.2023 0.25323 0.93468 0.0
C131 C 0.20054 0.24394 0.90105 0.0
O132 O 0.18891 0.19835 0.90558 0.0
C133 C 0.17235 0.26377 0.96498 0.0
O134 O 0.17339 0.22122 0.9647 0.0
C135 C 0.30559 0.33144 0.93832 0.0
O136 O 0.27906 0.3522 0.93374 0.0
O137 O 0.28248 0.2834 0.93999 0.0
O138 O 0.20505 0.27642 0.91105 0.0
O139 O 0.14515 0.17221 0.93606 0.0
C140 C 0.10045 0.16498 0.93399 0.0
O141 O 0.09558 0.20464 0.93117 0.0
O142 O 0.18158 0.28903 0.95269 0.0
Mg143 Mg 0.94896 0.24571 0.27456 0.0
C144 C 0.96564 0.23206 0.24207 0.0
O145 O 1.00496 0.23405 0.24893 0.0
C146 C 0.90727 0.24529 0.30452 0.0
O147 O 0.95185 0.28695 0.30398 0.0
C148 C 0.94116 0.3335 0.27345 0.0
O149 O 0.89667 0.29339 0.27053 0.0
O150 O 0.97898 0.32711 0.27577 0.0
O151 O 0.93095 0.23254 0.25017 0.0
O152 O 0.99091 0.20713 0.2799 0.0
C153 C 0.96342 0.16102 0.27576 0.0
O154 O 0.91914 0.14691 0.26938 0.0
O155 O 0.89154 0.21687 0.29271 0.0
H156 H 1.00649 0.19556 0.22146 0.0
H157 H 0.93168 0.28445 0.2251 0.0
H158 H 0.95081 0.30839 0.19787 0.0
H159 H 0.10659 0.27684 0.19758 0.0
H160 H 0.10685 0.22762 0.18618 0.0
H161 H 0.08477 0.21495 0.20563 0.0
H162 H 0.99851 0.13927 0.19682 0.0
H163 H 0.02075 0.15092 0.17737 0.0
H164 H 0.9622 0.14898 0.18234 0.0
H165 H 0.98704 0.33001 0.17101 0.0
H166 H 0.02269 0.3349 0.14527 0.0
H167 H 0.06874 0.22712 0.15882 0.0
C168 C 0.99317 0.21917 0.21641 0.0
C169 C 0.96748 0.23809 0.22532 0.0
C170 C 0.95079 0.26904 0.2184 0.0
C171 C 0.96198 0.28322 0.203 0.0
C172 C 0.98901 0.26531 0.19466 0.0
C173 C 1.0031 0.2328 0.20103 0.0
C174 C 0.0312 0.2183 0.18961 0.0
C175 C 0.08557 0.23547 0.19508 0.0
C176 C 1.00137 0.16097 0.18634 0.0
C177 C 0.03161 0.24847 0.17587 0.0
C178 C 1.00773 0.2759 0.17907 0.0
C179 C 1.00519 0.30815 0.16832 0.0
C180 C 0.02605 0.31108 0.15378 0.0
C181 C 0.04849 0.28136 0.15004 0.0
C182 C 0.05175 0.2502 0.16134 0.0
H183 H 0.83265 0.07246 0.48822 0.0
H184 H 0.70698 0.92188 0.47793 0.0
H185 H 0.69584 0.90151 0.50529 0.0
H186 H 0.88534 0.03426 0.51821 0.0
H187 H 0.90323 0.08928 0.52999 0.0
H188 H 0.90003 0.09366 0.50957 0.0
H189 H 0.83706 0.12697 0.51272 0.0
H190 H 0.84034 0.12299 0.53316 0.0
H191 H 0.77959 0.09061 0.52364 0.0
H192 H 0.69908 0.89596 0.53371 0.0
H193 H 0.71683 0.90656 0.56143 0.0
H194 H 0.84126 0.0596 0.55348 0.0
C195 C 0.80245 0.03549 0.49176 0.0
C196 C 0.77069 0.99884 0.48089 0.0
C197 C 0.73195 0.95062 0.486 0.0
C198 C 0.72519 0.9386 0.50155 0.0
C199 C 0.75752 0.9751 0.51195 0.0
C200 C 0.79534 0.02261 0.50732 0.0
C201 C 0.82572 0.05421 0.52091 0.0
C202 C 0.8819 0.06869 0.51959 0.0
C203 C 0.82034 0.10149 0.52271 0.0
C204 C 0.79926 0.01689 0.5338 0.0
C205 C 0.75985 0.97158 0.52838 0.0
C206 C 0.72984 0.93132 0.53811 0.0
C207 C 0.74023 0.93763 0.55384 0.0
C208 C 0.78048 0.98375 0.55966 0.0
C209 C 0.81034 0.02372 0.54942 0.0
H210 H 0.81442 0.77705 0.8182 0.0
H211 H 0.64976 0.69568 0.81545 0.0
H212 H 0.64467 0.67273 0.8428 0.0
H213 H 0.82904 0.69495 0.84371 0.0
H214 H 0.88036 0.74503 0.85442 0.0
H215 H 0.87123 0.7547 0.83468 0.0
H216 H 0.86557 0.8342 0.84191 0.0
H217 H 0.87568 0.82536 0.86164 0.0
H218 H 0.82049 0.82914 0.85621 0.0
H219 H 0.65834 0.65349 0.8699 0.0
H220 H 0.68824 0.65311 0.89605 0.0
H221 H 0.84402 0.75387 0.8817 0.0
C222 C 0.77732 0.75479 0.82343 0.0
C223 C 0.73241 0.73788 0.8148 0.0
C224 C 0.68451 0.70922 0.82196 0.0
C225 C 0.68134 0.69566 0.83741 0.0
C226 C 0.72643 0.71202 0.84555 0.0
C227 C 0.7735 0.74214 0.83891 0.0
C228 C 0.81611 0.75702 0.85035 0.0
C229 C 0.85125 0.7367 0.84549 0.0
C230 C 0.84622 0.81486 0.85267 0.0
C231 C 0.78574 0.73012 0.86446 0.0
C232 C 0.73416 0.70354 0.86136 0.0
C233 C 0.6986 0.67458 0.87248 0.0
C234 C 0.71604 0.67421 0.88728 0.0
C235 C 0.7685 0.70345 0.89092 0.0
C236 C 0.80373 0.73113 0.87926 0.0
H237 H 0.94545 0.72978 0.15599 0.0
H238 H 0.10384 0.82701 0.1433 0.0
H239 H 0.1281 0.84026 0.1704 0.0
H240 H 0.94808 0.80129 0.18923 0.0
H241 H 0.90663 0.74601 0.20033 0.0
H242 H 0.90132 0.744 0.17983 0.0
H243 H 0.914 0.66607 0.17904 0.0
H244 H 0.91937 0.66789 0.19953 0.0
H245 H 0.96944 0.67012 0.18789 0.0
H246 H 0.1358 0.84388 0.19901 0.0
H247 H 0.12547 0.83623 0.22709 0.0
H248 H 0.96283 0.73621 0.2212 0.0
C249 C 0.98518 0.75386 0.15892 0.0
C250 C 0.02263 0.77731 0.14746 0.0
C251 C 0.07429 0.8085 0.15182 0.0
C252 C 0.0886 0.81637 0.16722 0.0
C253 C 0.05091 0.79275 0.17822 0.0
C254 C 1.00027 0.76206 0.1743 0.0
C255 C 0.96745 0.74104 0.18842 0.0
C256 C 0.92858 0.75919 0.18951 0.0
C257 C 0.94102 0.68283 0.18874 0.0
C258 C 1.00755 0.76476 0.20082 0.0
C259 C 0.05545 0.79454 0.19471 0.0
C260 C 0.09844 0.82058 0.20394 0.0
C261 C 0.09226 0.81606 0.21987 0.0
C262 C 0.04346 0.78561 0.22637 0.0
C263 C 1.00075 0.7597 0.21663 0.0
H264 H 0.3668 0.01788 0.55568 0.0
H265 H 0.26951 0.08324 0.5605 0.0
H266 H 0.24419 0.06342 0.53332 0.0
H267 H 0.40984 0.06448 0.51683 0.0
H268 H 0.41181 0.00843 0.51137 0.0
H269 H 0.42294 0.02965 0.53094 0.0
H270 H 0.35074 0.94119 0.53947 0.0
H271 H 0.33867 0.92 0.51991 0.0
H272 H 0.28788 0.91621 0.53154 0.0
H273 H 0.22371 0.02861 0.50621 0.0
H274 H 0.22051 0.99529 0.48021 0.0
H275 H 0.33556 0.95769 0.49292 0.0
C276 C 0.34078 0.02875 0.55093 0.0
C277 C 0.32004 0.05207 0.56012 0.0
C278 C 0.28618 0.06583 0.55357 0.0
C279 C 0.27128 0.05428 0.5382 0.0
C280 C 0.29134 0.02984 0.52956 0.0
C281 C 0.32635 0.01842 0.53561 0.0
C282 C 0.34304 0.99305 0.52389 0.0
C283 C 0.4003 0.02587 0.52056 0.0
C284 C 0.32924 0.93944 0.52902 0.0
C285 C 0.31136 0.99115 0.51033 0.0
C286 C 0.28128 0.01194 0.51387 0.0
C287 C 0.24755 0.01281 0.50328 0.0
C288 C 0.24566 0.99335 0.48858 0.0
C289 C 0.27784 0.97394 0.48454 0.0
C290 C 0.31061 0.9724 0.49566 0.0
H291 H 0.24387 0.1961 0.81399 0.0
H292 H 0.33954 0.35934 0.80953 0.0
H293 H 0.32174 0.37027 0.83629 0.0
H294 H 0.14881 0.19695 0.83761 0.0
H295 H 0.13967 0.14456 0.84932 0.0
H296 H 0.16064 0.14896 0.82985 0.0
H297 H 0.2397 0.14492 0.83885 0.0
H298 H 0.21856 0.13971 0.85833 0.0
H299 H 0.2813 0.18942 0.85302 0.0
H300 H 0.29005 0.36402 0.86323 0.0
H301 H 0.25503 0.34006 0.88933 0.0
H302 H 0.1822 0.1811 0.87653 0.0
C303 C 0.26158 0.23411 0.81869 0.0
C304 C 0.29307 0.27684 0.8096 0.0
C305 C 0.31537 0.32593 0.81622 0.0
C306 C 0.30527 0.33262 0.83142 0.0
C307 C 0.2731 0.28985 0.83993 0.0
C308 C 0.25224 0.2415 0.8339 0.0
C309 C 0.21955 0.2019 0.8456 0.0
C310 C 0.16387 0.1713 0.84027 0.0
C311 C 0.24108 0.16694 0.84916 0.0
C312 C 0.2252 0.23558 0.85911 0.0
C313 C 0.25581 0.28622 0.85556 0.0
C314 C 0.26621 0.32446 0.86617 0.0
C315 C 0.24585 0.31051 0.88093 0.0
C316 C 0.2159 0.25875 0.88498 0.0
C317 C 0.20499 0.22101 0.8738 0.0
H318 H 0.07689 0.22938 0.05062 0.0
H319 H 0.16067 0.39255 0.05621 0.0
H320 H 0.19087 0.40179 0.02933 0.0
H321 H 0.17066 0.22098 0.0262 0.0
H322 H 0.12172 0.1694 1.01526 0.0
H323 H 0.11078 0.17739 0.03503 0.0
H324 H 0.02938 0.17914 0.02728 0.0
H325 H 0.04072 0.17247 1.00746 0.0
H326 H 0.03397 0.22528 1.0136 0.0
H327 H 0.20386 0.39145 1.00059 0.0
H328 H 0.20917 0.36261 0.9744 0.0
H329 H 0.1186 0.20631 0.98899 0.0
C330 C 0.10255 0.26703 0.04627 0.0
C331 C 0.1169 0.31029 0.05536 0.0
C332 C 0.15011 0.35901 0.04938 0.0
C333 C 0.1669 0.3645 0.03412 0.0
C334 C 0.15053 0.32081 0.02523 0.0
C335 C 0.12 0.273 0.03127 0.0
C336 C 0.10716 0.23183 1.01957 0.0
C337 C 0.1289 0.19792 0.02429 0.0
C338 C 0.04939 0.20036 1.01682 0.0
C339 C 0.13451 0.26371 1.00584 0.0
C340 C 0.159 0.31498 1.00917 0.0
C341 C 0.18527 0.35137 0.99794 0.0
C342 C 0.18768 0.33475 0.98309 0.0
C343 C 0.16439 0.2823 0.97974 0.0
C344 C 0.13706 0.24667 0.99126 0.0
H345 H 0.79836 0.06071 0.37494 0.0
H346 H 0.84656 0.19389 0.40347 0.0
H347 H 0.86422 0.24625 0.38023 0.0
H348 H 0.89304 0.11833 0.34764 0.0
H349 H 0.85347 0.08324 0.33168 0.0
H350 H 0.83875 0.05597 0.35045 0.0
H351 H 0.74796 0.04318 0.3483 0.0
H352 H 0.76259 0.07081 0.3295 0.0
H353 H 0.74015 0.09671 0.34409 0.0
H354 H 0.88464 0.28477 0.35403 0.0
H355 H 0.91074 0.30759 0.32721 0.0
H356 H 0.8486 0.14884 0.31578 0.0
C357 C 0.81183 0.10077 0.37638 0.0
C358 C 0.8209 0.12323 0.39106 0.0
C359 C 0.83917 0.17587 0.39236 0.0
C360 C 0.84903 0.20578 0.37922 0.0
C361 C 0.84006 0.18235 0.36492 0.0
C362 C 0.82186 0.13099 0.36345 0.0
C363 C 0.81948 0.11556 0.34686 0.0
C364 C 0.85321 0.09191 0.344 0.0
C365 C 0.76425 0.07942 0.3419 0.0
C366 C 0.84084 0.1666 0.33918 0.0
C367 C 0.8517 0.20451 0.34979 0.0
C368 C 0.87552 0.25533 0.34562 0.0
C369 C 0.89017 0.26789 0.33035 0.0
C370 C 0.88109 0.22988 0.31942 0.0
C371 C 0.85469 0.17848 0.32381 0.0
H372 H 0.76581 0.9259 0.73051 0.0
H373 H 0.6307 0.77701 0.72716 0.0
H374 H 0.62393 0.79125 0.69973 0.0
H375 H 0.72562 0.99 0.70223 0.0
H376 H 0.78968 0.02771 0.69516 0.0
H377 H 0.77889 0.00825 0.71485 0.0
H378 H 0.83564 0.96777 0.71143 0.0
H379 H 0.84582 0.98616 0.69168 0.0
H380 H 0.82012 0.92054 0.69677 0.0
H381 H 0.63958 0.81756 0.67168 0.0
H382 H 0.67165 0.85731 0.64636 0.0
H383 H 0.79555 0.98825 0.66872 0.0
C384 C 0.73384 0.89683 0.72415 0.0
C385 C 0.69879 0.85039 0.73104 0.0
C386 C 0.65788 0.81313 0.72221 0.0
C387 C 0.65383 0.82076 0.70657 0.0
C388 C 0.69057 0.86608 0.69998 0.0
C389 C 0.72921 0.90386 0.7086 0.0
C390 C 0.76578 0.94777 0.69874 0.0
C391 C 0.76491 0.9963 0.703 0.0
C392 C 0.82001 0.956 0.69972 0.0
C393 C 0.74261 0.92828 0.68317 0.0
C394 C 0.69916 0.88122 0.68404 0.0
C395 C 0.6731 0.8548 0.67091 0.0
C396 C 0.69172 0.87746 0.65658 0.0
C397 C 0.73591 0.92596 0.65555 0.0
C398 C 0.76135 0.95136 0.66908 0.0
H399 H 0.84977 0.77983 0.05888 0.0
H400 H 0.86143 0.6448 0.06478 0.0
H401 H 0.83572 0.62096 0.03786 0.0
H402 H 0.74041 0.72413 0.03281 0.0
H403 H 0.76526 0.78176 0.02191 0.0
H404 H 0.77974 0.78465 0.04194 0.0
H405 H 0.87601 0.83616 0.03558 0.0
H406 H 0.8619 0.83254 1.01552 0.0
H407 H 0.9028 0.81007 0.02249 0.0
H408 H 0.8173 0.6173 1.00909 0.0
H409 H 0.7978 0.62912 0.98238 0.0
H410 H 0.79811 0.766 0.9962 0.0
C411 C 0.84576 0.74457 0.05466 0.0
C412 C 0.85749 0.71415 0.06399 0.0
C413 C 0.85217 0.66853 0.05792 0.0
C414 C 0.83797 0.65487 0.04259 0.0
C415 C 0.8288 0.68698 0.03353 0.0
C416 C 0.83164 0.73042 0.03947 0.0
C417 C 0.8217 0.75959 0.02738 0.0
C418 C 0.77392 0.76268 0.03124 0.0
C419 C 0.86838 0.81271 0.02512 0.0
C420 C 0.81313 0.72608 1.01365 0.0
C421 C 0.81767 0.6845 1.0173 0.0
C422 C 0.81309 0.64945 1.00617 0.0
C423 C 0.80245 0.65662 0.99103 0.0
C424 C 0.79618 0.69827 0.98726 0.0
C425 C 0.80214 0.73346 0.99875 0.0
H426 H 0.16497 0.86586 0.31698 0.0
H427 H 0.05486 0.71072 0.32896 0.0
H428 H 0.08783 0.72623 0.35529 0.0
H429 H 0.26956 0.87943 0.34294 0.0
H430 H 0.288 0.94409 0.34754 0.0
H431 H 0.26163 0.91834 0.32904 0.0
H432 H 0.19236 0.94302 0.33324 0.0
H433 H 0.21804 0.96821 0.35179 0.0
H434 H 0.15209 0.91993 0.34988 0.0
H435 H 0.12421 0.76156 0.38111 0.0
H436 H 0.16443 0.8138 0.40415 0.0
H437 H 0.2505 0.94556 0.37536 0.0
C438 C 0.14914 0.83473 0.32501 0.0
C439 C 0.10767 0.78703 0.32092 0.0
C440 C 0.08682 0.74757 0.33186 0.0
C441 C 0.10533 0.75595 0.34685 0.0
C442 C 0.14488 0.80398 0.35073 0.0
C443 C 0.16698 0.8426 0.3401 0.0
C444 C 0.2057 0.89191 0.34756 0.0
C445 C 0.25941 0.90946 0.3414 0.0
C446 C 0.19114 0.93317 0.34549 0.0
C447 C 0.2006 0.87532 0.36405 0.0
C448 C 0.16575 0.82437 0.36566 0.0
C449 C 0.15229 0.80135 0.37998 0.0
C450 C 0.17511 0.83129 0.393 0.0
C451 C 0.21074 0.88364 0.39157 0.0
C452 C 0.22381 0.90552 0.37687 0.0
H453 H 0.29966 0.07667 0.66726 0.0
H454 H 0.4102 0.21538 0.64483 0.0
H455 H 0.4332 0.25939 0.66997 0.0
H456 H 0.25541 0.13422 0.69352 0.0
H457 H 0.24578 0.09037 0.70865 0.0
H458 H 0.24125 0.07068 0.68906 0.0
H459 H 0.30951 0.04517 0.69412 0.0
H460 H 0.31484 0.06563 0.71369 0.0
H461 H 0.37059 0.09152 0.70172 0.0
H462 H 0.44231 0.28768 0.69803 0.0
H463 H 0.42938 0.30034 0.72524 0.0
H464 H 0.31163 0.14223 0.72842 0.0
C465 C 0.32901 0.11627 0.66758 0.0
C466 C 0.35345 0.14257 0.6541 0.0
C467 C 0.391 0.19456 0.65503 0.0
C468 C 0.40452 0.21965 0.66926 0.0
C469 C 0.37996 0.19215 0.68237 0.0
C470 C 0.34255 0.1417 0.68155 0.0
C471 C 0.31935 0.121 0.697 0.0
C472 C 0.26208 0.10304 0.69706 0.0
C473 C 0.32919 0.07831 0.70192 0.0
C474 C 0.34906 0.1678 0.70675 0.0
C475 C 0.38443 0.20837 0.69821 0.0
C476 C 0.41492 0.25604 0.7048 0.0
C477 C 0.40761 0.26276 0.72031 0.0
C478 C 0.36964 0.22216 0.72898 0.0
C479 C 0.34122 0.17387 0.72214 0.0
H480 H 0.93143 0.55964 0.1071 0.0
H481 H 0.05579 0.6743 0.08012 0.0
H482 H 0.08132 0.6116 0.07307 0.0
H483 H 0.99892 0.50382 0.12224 0.0
H484 H 0.94564 0.43996 0.12181 0.0
H485 H 0.93487 0.49262 0.12363 0.0
H486 H 0.87654 0.46119 0.09979 0.0
H487 H 0.88755 0.4086 0.09781 0.0
H488 H 0.90079 0.45141 0.08208 0.0
H489 H 0.09663 0.53889 0.0704 0.0
H490 H 0.10445 0.46278 0.07348 0.0
H491 H 0.9696 0.3943 0.102 0.0
C492 C 0.96377 0.57154 0.09958 0.0
C493 C 0.99157 0.62192 0.0941 0.0
C494 C 0.03395 0.63599 0.08444 0.0
C495 C 0.0485 0.60054 0.08031 0.0
C496 C 0.02017 0.55121 0.08589 0.0
C497 C 0.97882 0.53672 0.09537 0.0
C498 C 0.95683 0.48229 0.10061 0.0
C499 C 0.95924 0.47954 0.11811 0.0
C500 C 0.90218 0.44891 0.09472 0.0
C501 C 0.99305 0.46868 0.09288 0.0
C502 C 0.02888 0.50889 0.08429 0.0
C503 C 0.06845 0.50698 0.07691 0.0
C504 C 0.07252 0.46359 0.07872 0.0
C505 C 0.03725 0.42258 0.08782 0.0
C506 C 0.9962 0.42458 0.09465 0.0
H507 H 0.64742 0.07236 0.43624 0.0
H508 H 0.63035 0.9289 0.42105 0.0
H509 H 0.53803 0.89535 0.41735 0.0
H510 H 0.53265 0.02145 0.45729 0.0
H511 H 0.51958 0.07095 0.45214 0.0
H512 H 0.58426 0.08404 0.45288 0.0
H513 H 0.59802 0.11555 0.4249 0.0
H514 H 0.53328 0.10245 0.42406 0.0
H515 H 0.5559 0.07453 0.41019 0.0
H516 H 0.44734 0.87669 0.41649 0.0
H517 H 0.36487 0.87334 0.41861 0.0
H518 H 0.44165 0.02986 0.43408 0.0
C519 C 0.62447 0.03391 0.43205 0.0
C520 C 0.64615 1.00316 0.42893 0.0
C521 C 0.6146 0.9531 0.4235 0.0
C522 C 0.5622 0.93382 0.42134 0.0
C523 C 0.54216 0.96522 0.4246 0.0
C524 C 0.57238 0.01423 0.42981 0.0
C525 C 0.54143 0.03982 0.43288 0.0
C526 C 0.54468 0.05493 0.4498 0.0
C527 C 0.55816 0.08581 0.42238 0.0
C528 C 0.48871 0.99729 0.42878 0.0
C529 C 0.49005 0.95467 0.42398 0.0
C530 C 0.44594 0.90993 0.42013 0.0
C531 C 0.39924 0.90844 0.42141 0.0
C532 C 0.3968 0.95142 0.42647 0.0
C533 C 0.44232 0.99663 0.43 0.0
H534 H 0.41527 0.38956 0.73405 0.0
H535 H 0.30131 0.39813 0.76181 0.0
H536 H 0.36424 0.48626 0.76886 0.0
H537 H 0.51612 0.45472 0.75968 0.0
H538 H 0.56459 0.48802 0.74548 0.0
H539 H 0.50951 0.42788 0.74087 0.0
H540 H 0.48928 0.46832 0.718 0.0
H541 H 0.54474 0.52852 0.72239 0.0
H542 H 0.4832 0.52355 0.72107 0.0
H543 H 0.43956 0.56947 0.77456 0.0
H544 H 0.52274 0.64579 0.77809 0.0
H545 H 0.59131 0.58498 0.74724 0.0
C546 C 0.40314 0.41057 0.74122 0.0
C547 C 0.35304 0.38726 0.7472 0.0
C548 C 0.33919 0.41541 0.75697 0.0
C549 C 0.37473 0.46542 0.76106 0.0
C550 C 0.42411 0.48671 0.75536 0.0
C551 C 0.43844 0.46049 0.74558 0.0
C552 C 0.495 0.49137 0.74196 0.0
C553 C 0.52294 0.46384 0.74732 0.0
C554 C 0.50355 0.50367 0.72484 0.0
C555 C 0.5103 0.53878 0.75141 0.0
C556 C 0.4685 0.53506 0.75893 0.0
C557 C 0.47247 0.57305 0.76861 0.0
C558 C 0.52019 0.61636 0.77055 0.0
C559 C 0.56388 0.62175 0.76291 0.0
C560 C 0.55878 0.58211 0.75324 0.0
H561 H 0.49817 0.0941 0.58788 0.0
H562 H 0.43949 0.03371 0.63281 0.0
H563 H 0.51638 0.02734 0.63794 0.0
H564 H 0.54917 0.01232 0.58023 0.0
H565 H 0.603 0.06004 0.56977 0.0
H566 H 0.54438 0.06121 0.57017 0.0
H567 H 0.59322 0.15357 0.58036 0.0
H568 H 0.65188 0.15233 0.58027 0.0
H569 H 0.63028 0.16757 0.5976 0.0
H570 H 0.60171 0.03068 0.63826 0.0
H571 H 0.68052 0.02925 0.63232 0.0
H572 H 0.68005 0.08299 0.58657 0.0
C573 C 0.50148 0.07945 0.59879 0.0
C574 C 0.46321 0.06464 0.61001 0.0
C575 C 0.46841 0.04501 0.62407 0.0
C576 C 0.5121 0.04175 0.62711 0.0
C577 C 0.5497 0.05766 0.61589 0.0
C578 C 0.54421 0.0751 0.60189 0.0
C579 C 0.58841 0.08693 0.59139 0.0
C580 C 0.57015 0.05309 0.57705 0.0
C581 C 0.61767 0.14347 0.58716 0.0
C582 C 0.61981 0.07341 0.60164 0.0
C583 C 0.5974 0.05752 0.61583 0.0
C584 C 0.61948 0.04292 0.62718 0.0
C585 C 0.66453 0.04268 0.62374 0.0
C586 C 0.6865 0.05612 0.60898 0.0
C587 C 0.6643 0.07275 0.59796 0.0
H588 H 0.36296 0.43359 0.93373 0.0
H589 H 0.37277 0.30477 0.9503 0.0
H590 H 0.46425 0.36191 0.95595 0.0
H591 H 0.48363 0.4962 0.91529 0.0
H592 H 0.49647 0.559 0.92022 0.0
H593 H 0.43179 0.50821 0.91806 0.0
H594 H 0.41107 0.52574 0.94534 0.0
H595 H 0.47582 0.57643 0.94763 0.0
H596 H 0.44845 0.52534 0.96124 0.0
H597 H 0.55475 0.43295 0.9592 0.0
H598 H 0.6384 0.51107 0.95884 0.0
H599 H 0.56943 0.59393 0.94007 0.0
C600 C 0.38414 0.4172 0.93861 0.0
C601 C 0.36059 0.36456 0.94162 0.0
C602 C 0.38995 0.34487 0.9479 0.0
C603 C 0.44184 0.37709 0.95119 0.0
C604 C 0.46368 0.42882 0.94813 0.0
C605 C 0.43576 0.44868 0.94192 0.0
C606 C 0.46848 0.50531 0.93926 0.0
C607 C 0.47019 0.5179 0.9222 0.0
C608 C 0.44983 0.53494 0.94895 0.0
C609 C 0.51954 0.51434 0.94481 0.0
C610 C 0.51578 0.46973 0.94996 0.0
C611 C 0.55803 0.46804 0.95524 0.0
C612 C 0.60545 0.51275 0.95498 0.0
C613 C 0.61056 0.55878 0.94945 0.0
C614 C 0.56673 0.55959 0.94453 0.0
H615 H 0.07507 0.63547 0.27379 0.0
H616 H 0.92415 0.61724 0.27716 0.0
H617 H 0.8868 0.5241 0.27781 0.0
H618 H 0.04203 0.52959 0.2494 0.0
H619 H 0.08445 0.51248 0.25847 0.0
H620 H 0.09924 0.57753 0.25858 0.0
H621 H 0.10529 0.57952 0.2881 0.0
H622 H 0.09049 0.51443 0.2881 0.0
H623 H 0.05225 0.53296 0.29911 0.0
H624 H 0.86614 0.43381 0.27724 0.0
H625 H 0.86259 0.35155 0.27597 0.0
H626 H 0.02753 0.42843 0.27353 0.0
C627 C 0.03412 0.61199 0.27469 0.0
C628 C 1.00241 0.63356 0.27539 0.0
C629 C 0.9491 0.60148 0.27661 0.0
C630 C 0.92761 0.54863 0.27699 0.0
C631 C 0.96005 0.5287 0.27624 0.0
C632 C 0.01215 0.55935 0.27517 0.0
C633 C 0.03854 0.52839 0.27442 0.0
C634 C 0.06778 0.53755 0.25932 0.0
C635 C 0.07371 0.53949 0.28826 0.0
C636 C 0.99302 0.47531 0.2751 0.0
C637 C 0.94818 0.47649 0.27614 0.0
C638 C 0.90097 0.43241 0.27651 0.0
C639 C 0.89945 0.38585 0.27573 0.0
C640 C 0.94485 0.38358 0.27465 0.0
C641 C 0.99227 0.429 0.27445 0.0
H642 H 0.98127 0.11261 0.10774 0.0
H643 H 0.10899 0.17556 0.0764 0.0
H644 H 0.10207 0.09176 0.07385 0.0
H645 H 0.01688 0.03615 0.1276 0.0
H646 H 0.95342 0.98344 0.13036 0.0
H647 H 0.96348 0.04651 0.12826 0.0
H648 H 0.90015 0.01661 0.1056 0.0
H649 H 0.88939 0.95321 0.10776 0.0
H650 H 0.9096 0.98483 0.08961 0.0
H651 H 0.08619 1.00324 0.07623 0.0
H652 H 0.06063 0.91495 0.08302 0.0
H653 H 0.94508 0.90979 0.11344 0.0
C654 C 1.00665 0.10819 0.10001 0.0
C655 C 0.04533 0.15025 0.09215 0.0
C656 C 0.07898 0.14361 0.08248 0.0
C657 C 0.07535 0.09619 0.08094 0.0
C658 C 0.03795 0.05571 0.0892 0.0
C659 C 1.00396 0.06101 0.09849 0.0
C660 C 0.96977 0.01215 0.10693 0.0
C661 C 0.97631 0.02006 0.12432 0.0
C662 C 0.91392 0.99042 0.10218 0.0
C663 C 0.99061 0.97916 0.10118 0.0
C664 C 0.02956 1.00482 0.09084 0.0
C665 C 0.05542 0.98254 0.08422 0.0
C666 C 0.04078 0.93246 0.08818 0.0
C667 C 1.00097 0.90544 0.09877 0.0
C668 C 0.97575 0.92937 0.10532 0.0
H669 H 0.9158 0.97925 0.43111 0.0
H670 H 0.99727 0.13533 0.41559 0.0
H671 H 0.07628 0.13166 0.41375 0.0
H672 H 0.01347 0.98786 0.45465 0.0
H673 H 1.00226 0.92517 0.45041 0.0
H674 H 0.95084 0.93824 0.44914 0.0
H675 H 0.93428 0.90647 0.42111 0.0
H676 H 0.9855 0.89297 0.42233 0.0
H677 H 0.98571 0.93389 0.4075 0.0
H678 H 0.14836 0.11309 0.41528 0.0
H679 H 0.20672 0.07973 0.4197 0.0
H680 H 0.0783 0.93653 0.43432 0.0
C681 C 0.95002 0.01227 0.42703 0.0
C682 C 0.95022 0.05749 0.42345 0.0
C683 C 0.99609 0.10021 0.41842 0.0
C684 C 0.04126 0.09854 0.4173 0.0
C685 C 0.04013 0.05384 0.42124 0.0
C686 C 0.99566 0.01137 0.42593 0.0
C687 C 1.00538 0.96893 0.43024 0.0
C688 C 0.99222 0.95422 0.44711 0.0
C689 C 0.97598 0.92284 0.41966 0.0
C690 C 0.06223 0.99447 0.42748 0.0
C691 C 0.08163 0.04332 0.4222 0.0
C692 C 0.13353 0.07469 0.41929 0.0
C693 C 0.16643 0.05552 0.42186 0.0
C694 C 0.14724 1.00557 0.42734 0.0
C695 C 0.09437 0.97486 0.43008 0.0
H696 H 0.08062 0.08406 0.78741 0.0
H697 H 0.11676 0.09761 0.7391 0.0
H698 H 0.03689 0.01668 0.73422 0.0
H699 H 0.02629 0.94996 0.79026 0.0
H700 H 0.97738 0.9421 0.8035 0.0
H701 H 0.03716 1.00085 0.80308 0.0
H702 H 0.98995 0.0507 0.79857 0.0
H703 H 0.93004 0.99221 0.79922 0.0
H704 H 0.94594 0.03312 0.78287 0.0
H705 H 0.95236 0.93157 0.735 0.0
H706 H 0.86819 0.85676 0.74103 0.0
H707 H 0.88909 0.90181 0.78868 0.0
C708 C 0.07177 0.07024 0.77577 0.0
C709 C 0.10507 0.09722 0.76364 0.0
C710 C 0.09174 0.07778 0.74858 0.0
C711 C 0.04661 0.03163 0.74572 0.0
C712 C 0.01508 1.00553 0.75802 0.0
C713 C 0.02693 0.02465 0.77272 0.0
C714 C 0.98638 0.99046 0.78395 0.0
C715 C 1.00812 0.96962 0.7959 0.0
C716 C 0.96161 0.01828 0.7916 0.0
C717 C 0.94968 0.94899 0.77333 0.0
C718 C 0.96688 0.95782 0.75842 0.0
C719 C 0.93865 0.9244 0.74665 0.0
C720 C 0.89111 0.88177 0.75018 0.0
C721 C 0.87221 0.87338 0.76532 0.0
C722 C 0.90252 0.90711 0.77699 0.0
H723 H 0.95876 0.0531 0.61069 0.0
H724 H 0.88438 0.89343 0.62241 0.0
H725 H 0.96776 0.89867 0.62406 0.0
H726 H 0.0539 0.05355 0.58693 0.0
H727 H 0.10361 0.11552 0.59283 0.0
H728 H 0.03818 0.10019 0.59344 0.0
H729 H 0.04758 0.12423 0.62215 0.0
H730 H 0.11313 0.13979 0.62161 0.0
H731 H 0.07002 0.09427 0.63523 0.0
H732 H 0.05926 0.92005 0.62341 0.0
H733 H 0.15233 0.95691 0.62058 0.0
H734 H 0.1669 0.1021 0.60922 0.0
C735 C 0.96008 0.01944 0.61378 0.0
C736 C 0.91494 0.9729 0.61644 0.0
C737 C 0.91835 0.92956 0.62029 0.0
C738 C 0.9656 0.9321 0.62129 0.0
C739 C 1.00932 0.97828 0.61842 0.0
C740 C 1.00706 0.02123 0.61478 0.0
C741 C 0.05972 0.06571 0.61172 0.0
C742 C 0.06409 0.08485 0.59525 0.0
C743 C 0.07341 0.10852 0.62337 0.0
C744 C 0.09169 0.04089 0.61407 0.0
C745 C 0.06198 0.99051 0.61799 0.0
C746 C 0.08301 0.95959 0.62042 0.0
C747 C 0.13587 0.98079 0.61878 0.0
C748 C 0.16699 0.03234 0.6147 0.0
C749 C 0.14432 0.06258 0.61239 0.0
H750 H 0.93688 0.864 0.9456 0.0
H751 H 0.80149 0.87413 0.93718 0.0
H752 H 0.85535 0.96716 0.93434 0.0
H753 H 1.00578 0.98048 0.96729 0.0
H754 H 0.06659 0.99601 0.95929 0.0
H755 H 0.01725 0.93066 0.96107 0.0
H756 H 0.02407 0.91703 0.93215 0.0
H757 H 0.07327 0.98236 0.93025 0.0
H758 H 0.01692 0.95731 0.91858 0.0
H759 H 0.9242 0.05855 0.9318 0.0
H760 H 1.00214 0.1419 0.9301 0.0
H761 H 0.09337 0.07242 0.9401 0.0
C762 C 0.91833 0.88568 0.94325 0.0
C763 C 0.86477 0.86165 0.94164 0.0
C764 C 0.84231 0.8916 0.93851 0.0
C765 C 0.87264 0.94446 0.93686 0.0
C766 C 0.92532 0.96675 0.93839 0.0
C767 C 0.94797 0.93832 0.94156 0.0
C768 C 1.00545 0.97137 0.94244 0.0
C769 C 0.0249 0.96952 0.95848 0.0
C770 C 0.03144 0.9561 0.93012 0.0
C771 C 0.01179 0.02301 0.93918 0.0
C772 C 0.96504 0.0194 0.9369 0.0
C773 C 0.96094 0.06178 0.9336 0.0
C774 C 1.00564 0.10906 0.93265 0.0
C775 C 0.05413 0.11394 0.93496 0.0
C776 C 0.05702 0.07009 0.93827 0.0
H777 H 0.95709 0.90346 0.25621 0.0
H778 H 0.0413 0.92207 0.29799 0.0
H779 H 0.04321 1.00281 0.30317 0.0
H780 H 0.02038 0.03225 0.24515 0.0
H781 H 0.964 0.03078 0.23807 0.0
H782 H 0.96817 0.97393 0.23786 0.0
H783 H 0.88475 0.92678 0.25355 0.0
H784 H 0.87987 0.98324 0.25359 0.0
H785 H 0.87951 0.95356 0.27138 0.0
H786 H 0.0409 0.08547 0.30268 0.0
H787 H 0.02376 0.15604 0.29833 0.0
H788 H 0.9379 0.0797 0.25765 0.0
C789 C 0.97545 0.92421 0.26654 0.0
C790 C 0.9991 0.90654 0.27667 0.0
C791 C 0.02261 0.93473 0.2901 0.0
C792 C 0.02424 0.98083 0.29309 0.0
C793 C 1.0016 0.99782 0.28265 0.0
C794 C 0.97679 0.96979 0.2698 0.0
C795 C 0.95454 0.99564 0.26051 0.0
C796 C 0.9782 0.00894 0.24445 0.0
C797 C 0.89621 0.96286 0.25972 0.0
C798 C 0.97103 0.04281 0.27004 0.0
C799 C 0.99869 0.04392 0.28268 0.0
C800 C 0.01888 0.08474 0.29289 0.0
C801 C 1.00937 0.12478 0.29029 0.0
C802 C 0.97937 0.12301 0.27773 0.0
C803 C 0.96063 0.08178 0.26744 0.0
loop_
_geom_bond_atom_site_label_1
_geom_bond_atom_site_label_2
_geom_bond_distance
_geom_bond_site_symmetry_2
_ccdc_geom_bond_type
Mg0 O7 2.141 . S
Mg0 O8 2.048 . S
Mg0 O9 2.048 . S
Mg0 O12 2.141 . S
C1 O2 1.313 . S
C1 O8 1.195 . S
O2 C1 1.313 . S
C3 O4 1.245 . S
C3 O12 1.289 . S
O4 C3 1.245 . S
C5 O6 1.245 . S
C5 O7 1.289 . S
O6 C5 1.245 . S
O7 Mg0 2.141 . S
O7 C5 1.289 . S
O8 Mg0 2.048 . S
O8 C1 1.195 . S
O9 Mg0 2.048 . S
O9 C10 1.195 . S
C10 O9 1.195 . S
C10 O11 1.313 . S
O11 C10 1.313 . S
O12 Mg0 2.141 . S
O12 C3 1.289 . S
Mg13 O20 2.141 . S
Mg13 O21 2.048 . S
Mg13 O22 2.048 . S
Mg13 O25 2.141 . S
C14 O15 1.313 . S
C14 O21 1.195 . S
O15 C14 1.313 . S
C16 O17 1.245 . S
C16 O25 1.289 . S
O17 C16 1.245 . S
C18 O19 1.245 . S
C18 O20 1.289 . S
O19 C18 1.245 . S
O20 Mg13 2.141 . S
O20 C18 1.289 . S
O21 Mg13 2.048 . S
O21 C14 1.195 . S
O22 Mg13 2.048 . S
O22 C23 1.195 . S
C23 O22 1.195 . S
C23 O24 1.313 . S
O24 C23 1.313 . S
O25 Mg13 2.141 . S
O25 C16 1.289 . S
Mg26 O33 2.141 . S
Mg26 O34 2.048 . S
Mg26 O35 2.048 . S
Mg26 O38 2.141 . S
C27 O28 1.313 . S
C27 O34 1.195 . S
O28 C27 1.313 . S
C29 O30 1.245 . S
C29 O38 1.289 . S
O30 C29 1.245 . S
C31 O32 1.245 . S
C31 O33 1.289 . S
O32 C31 1.245 . S
O33 Mg26 2.141 . S
O33 C31 1.289 . S
O34 Mg26 2.048 . S
O34 C27 1.195 . S
O35 Mg26 2.048 . S
O35 C36 1.195 . S
C36 O35 1.195 . S
C36 O37 1.313 . S
O37 C36 1.313 . S
O38 Mg26 2.141 . S
O38 C29 1.289 . S
Mg39 O46 2.141 . S
Mg39 O47 2.048 . S
Mg39 O48 2.048 . S
Mg39 O51 2.141 . S
C40 O41 1.313 . S
C40 O47 1.195 . S
O41 C40 1.313 . S
C42 O43 1.245 . S
C42 O51 1.289 . S
O43 C42 1.245 . S
C44 O45 1.245 . S
C44 O46 1.289 . S
O45 C44 1.245 . S
O46 Mg39 2.141 . S
O46 C44 1.289 . S
O47 Mg39 2.048 . S
O47 C40 1.195 . S
O48 Mg39 2.048 . S
O48 C49 1.195 . S
C49 O48 1.195 . S
C49 O50 1.313 . S
O50 C49 1.313 . S
O51 Mg39 2.141 . S
O51 C42 1.289 . S
Mg52 O59 2.141 . S
Mg52 O60 2.048 . S
Mg52 O61 2.048 . S
Mg52 O64 2.141 . S
C53 O54 1.313 . S
C53 O60 1.195 . S
O54 C53 1.313 . S
C55 O56 1.245 . S
C55 O64 1.289 . S
O56 C55 1.245 . S
C57 O58 1.245 . S
C57 O59 1.289 . S
O58 C57 1.245 . S
O59 Mg52 2.141 . S
O59 C57 1.289 . S
O60 Mg52 2.048 . S
O60 C53 1.195 . S
O61 Mg52 2.048 . S
O61 C62 1.195 . S
C62 O61 1.195 . S
C62 O63 1.313 . S
O63 C62 1.313 . S
O64 Mg52 2.141 . S
O64 C55 1.289 . S
Mg65 O72 2.141 . S
Mg65 O73 2.048 . S
Mg65 O74 2.048 . S
Mg65 O77 2.141 . S
C66 O67 1.313 . S
C66 O73 1.195 . S
O67 C66 1.313 . S
C68 O69 1.245 . S
C68 O77 1.289 . S
O69 C68 1.245 . S
C70 O71 1.245 . S
C70 O72 1.289 . S
O71 C70 1.245 . S
O72 Mg65 2.141 . S
O72 C70 1.289 . S
O73 Mg65 2.048 . S
O73 C66 1.195 . S
O74 Mg65 2.048 . S
O74 C75 1.195 . S
C75 O74 1.195 . S
C75 O76 1.313 . S
O76 C75 1.313 . S
O77 Mg65 2.141 . S
O77 C68 1.289 . S
Mg78 O85 2.141 . S
Mg78 O86 2.048 . S
Mg78 O87 2.048 . S
Mg78 O90 2.141 . S
C79 O80 1.313 . S
C79 O86 1.195 . S
O80 C79 1.313 . S
C81 O82 1.245 . S
C81 O90 1.289 . S
O82 C81 1.245 . S
C83 O84 1.245 . S
C83 O85 1.289 . S
O84 C83 1.245 . S
O85 Mg78 2.141 . S
O85 C83 1.289 . S
O86 Mg78 2.048 . S
O86 C79 1.195 . S
O87 Mg78 2.048 . S
O87 C88 1.195 . S
C88 O87 1.195 . S
C88 O89 1.313 . S
O89 C88 1.313 . S
O90 Mg78 2.141 . S
O90 C81 1.289 . S
Mg91 O98 2.141 . S
Mg91 O99 2.048 . S
Mg91 O100 2.048 . S
Mg91 O103 2.141 . S
C92 O93 1.313 . S
C92 O99 1.195 . S
O93 C92 1.313 . S
C94 O95 1.245 . S
C94 O103 1.289 . S
O95 C94 1.245 . S
C96 O97 1.245 . S
C96 O98 1.289 . S
O97 C96 1.245 . S
O98 Mg91 2.141 . S
O98 C96 1.289 . S
O99 Mg91 2.048 . S
O99 C92 1.195 . S
O100 Mg91 2.048 . S
O100 C101 1.195 . S
C101 O100 1.195 . S
C101 O102 1.313 . S
O102 C101 1.313 . S
O103 Mg91 2.141 . S
O103 C94 1.289 . S
Mg104 O111 2.141 . S
Mg104 O112 2.048 . S
Mg104 O113 2.048 . S
Mg104 O116 2.141 . S
C105 O106 1.313 . S
C105 O112 1.195 . S
O106 C105 1.313 . S
C107 O108 1.245 . S
C107 O116 1.289 . S
O108 C107 1.245 . S
C109 O110 1.245 . S
C109 O111 1.289 . S
O110 C109 1.245 . S
O111 Mg104 2.141 . S
O111 C109 1.289 . S
O112 Mg104 2.048 . S
O112 C105 1.195 . S
O113 Mg104 2.048 . S
O113 C114 1.195 . S
C114 O113 1.195 . S
C114 O115 1.313 . S
O115 C114 1.313 . S
O116 Mg104 2.141 . S
O116 C107 1.289 . S
Mg117 O124 2.141 . S
Mg117 O125 2.048 . S
Mg117 O126 2.048 . S
Mg117 O129 2.141 . S
C118 O119 1.313 . S
C118 O125 1.195 . S
O119 C118 1.313 . S
C120 O121 1.245 . S
C120 O129 1.289 . S
O121 C120 1.245 . S
C122 O123 1.245 . S
C122 O124 1.289 . S
O123 C122 1.245 . S
O124 Mg117 2.141 . S
O124 C122 1.289 . S
O125 Mg117 2.048 . S
O125 C118 1.195 . S
O126 Mg117 2.048 . S
O126 C127 1.195 . S
C127 O126 1.195 . S
C127 O128 1.313 . S
O128 C127 1.313 . S
O129 Mg117 2.141 . S
O129 C120 1.289 . S
Mg130 O137 2.141 . S
Mg130 O138 2.048 . S
Mg130 O139 2.048 . S
Mg130 O142 2.141 . S
C131 O132 1.313 . S
C131 O138 1.195 . S
O132 C131 1.313 . S
C133 O134 1.245 . S
C133 O142 1.289 . S
O134 C133 1.245 . S
C135 O136 1.245 . S
C135 O137 1.289 . S
O136 C135 1.245 . S
O137 Mg130 2.141 . S
O137 C135 1.289 . S
O138 Mg130 2.048 . S
O138 C131 1.195 . S
O139 Mg130 2.048 . S
O139 C140 1.195 . S
C140 O139 1.195 . S
C140 O141 1.313 . S
O141 C140 1.313 . S
O142 Mg130 2.141 . S
O142 C133 1.289 . S
Mg143 O150 2.141 . S
Mg143 O151 2.048 . S
Mg143 O152 2.048 . S
Mg143 O155 2.141 . S
C144 O145 1.313 . S
C144 O151 1.195 . S
O145 C144 1.313 . S
C146 O147 1.245 . S
C146 O155 1.289 . S
O147 C146 1.245 . S
C148 O149 1.245 . S
C148 O150 1.289 . S
O149 C148 1.245 . S
O150 Mg143 2.141 . S
O150 C148 1.289 . S
O151 Mg143 2.048 . S
O151 C144 1.195 . S
O152 Mg143 2.048 . S
O152 C153 1.195 . S
C153 O152 1.195 . S
C153 O154 1.313 . S
O154 C153 1.313 . S
O155 Mg143 2.141 . S
O155 C146 1.289 . S
H156 C168 0.930 . S
H157 C170 0.930 . S
H158 C171 0.930 . S
H159 C175 0.959 . S
H160 C175 0.959 . S
H161 C175 0.961 . S
H162 C176 0.960 . S
H163 C176 0.961 . S
H164 C176 0.959 . S
H165 C179 0.929 . S
H166 C180 0.931 . S
H167 C182 0.930 . S
C168 H156 0.930 . S
C168 C169 1.399 . S
C168 C173 1.399 . S
C169 C168 1.399 . S
C169 C170 1.376 . S
C170 H157 0.930 . S
C170 C169 1.376 . S
C170 C171 1.388 . S
C171 H158 0.930 . S
C171 C170 1.388 . S
C171 C172 1.390 . S
C172 C171 1.390 . S
C172 C173 1.394 . S
C172 C178 1.465 1_655 S
C173 C168 1.399 . S
C173 C172 1.394 . S
C173 C174 1.516 . S
C174 C173 1.516 . S
C174 C175 1.502 1_655 S
C174 C176 1.561 . S
C174 C177 1.526 1_655 S
C175 H159 0.959 . S
C175 H160 0.959 . S
C175 H161 0.961 . S
C175 C174 1.502 1_455 S
C176 H162 0.960 . S
C176 H163 0.961 . S
C176 H164 0.959 . S
C176 C174 1.561 . S
C177 C174 1.526 1_455 S
C177 C178 1.396 . S
C177 C182 1.390 . S
C178 C172 1.465 1_455 S
C178 C177 1.396 . S
C178 C179 1.399 . S
C179 H165 0.929 . S
C179 C178 1.399 . S
C179 C180 1.385 . S
C180 H166 0.931 . S
C180 C179 1.385 . S
C180 C181 1.389 . S
C181 C180 1.389 . S
C181 C182 1.387 . S
C182 H167 0.930 . S
C182 C177 1.390 . S
C182 C181 1.387 . S
H183 C195 0.930 . S
H184 C197 0.930 . S
H185 C198 0.930 . S
H186 C202 0.959 . S
H187 C202 0.959 . S
H188 C202 0.961 . S
H189 C203 0.960 . S
H190 C203 0.961 . S
H191 C203 0.959 . S
H192 C206 0.929 . S
H193 C207 0.931 . S
H194 C209 0.930 . S
C195 H183 0.930 . S
C195 C196 1.399 1_565 S
C195 C200 1.399 . S
C196 C195 1.399 1_545 S
C196 C197 1.376 . S
C197 H184 0.930 . S
C197 C196 1.376 . S
C197 C198 1.388 . S
C198 H185 0.930 . S
C198 C197 1.388 . S
C198 C199 1.390 . S
C199 C198 1.390 . S
C199 C200 1.394 1_545 S
C199 C205 1.465 . S
C200 C195 1.399 . S
C200 C199 1.394 1_565 S
C200 C201 1.516 . S
C201 C200 1.516 . S
C201 C202 1.502 . S
C201 C203 1.561 . S
C201 C204 1.526 . S
C202 H186 0.959 . S
C202 H187 0.959 . S
C202 H188 0.961 . S
C202 C201 1.502 . S
C203 H189 0.960 . S
C203 H190 0.961 . S
C203 H191 0.959 . S
C203 C201 1.561 . S
C204 C201 1.526 . S
C204 C205 1.396 1_565 S
C204 C209 1.390 . S
C205 C199 1.465 . S
C205 C204 1.396 1_545 S
C205 C206 1.399 . S
C206 H192 0.929 . S
C206 C205 1.399 . S
C206 C207 1.385 . S
C207 H193 0.931 . S
C207 C206 1.385 . S
C207 C208 1.389 1_545 S
C208 C207 1.389 1_565 S
C208 C209 1.387 . S
C209 H194 0.930 . S
C209 C204 1.390 . S
C209 C208 1.387 . S
H210 C222 0.930 . S
H211 C224 0.930 . S
H212 C225 0.930 . S
H213 C229 0.959 . S
H214 C229 0.959 . S
H215 C229 0.961 . S
H216 C230 0.960 . S
H217 C230 0.961 . S
H218 C230 0.959 . S
H219 C233 0.929 . S
H220 C234 0.931 . S
H221 C236 0.930 . S
C222 H210 0.930 . S
C222 C223 1.399 . S
C222 C227 1.399 . S
C223 C222 1.399 . S
C223 C224 1.376 . S
C224 H211 0.930 . S
C224 C223 1.376 . S
C224 C225 1.388 . S
C225 H212 0.930 . S
C225 C224 1.388 . S
C225 C226 1.390 . S
C226 C225 1.390 . S
C226 C227 1.394 . S
C226 C232 1.465 . S
C227 C222 1.399 . S
C227 C226 1.394 . S
C227 C228 1.516 . S
C228 C227 1.516 . S
C228 C229 1.502 . S
C228 C230 1.561 . S
C228 C231 1.526 . S
C229 H213 0.959 . S
C229 H214 0.959 . S
C229 H215 0.961 . S
C229 C228 1.502 . S
C230 H216 0.960 . S
C230 H217 0.961 . S
C230 H218 0.959 . S
C230 C228 1.561 . S
C231 C228 1.526 . S
C231 C232 1.396 . S
C231 C236 1.390 . S
C232 C226 1.465 . S
C232 C231 1.396 . S
C232 C233 1.399 . S
C233 H219 0.929 . S
C233 C232 1.399 . S
C233 C234 1.385 . S
C234 H220 0.931 . S
C234 C233 1.385 . S
C234 C235 1.389 . S
C235 C234 1.389 . S
C235 C236 1.387 . S
C236 H221 0.930 . S
C236 C231 1.390 . S
C236 C235 1.387 . S
H237 C249 0.930 . S
H238 C251 0.930 . S
H239 C252 0.930 . S
H240 C256 0.959 . S
H241 C256 0.959 . S
H242 C256 0.961 . S
H243 C257 0.960 . S
H244 C257 0.961 . S
H245 C257 0.959 1_655 S
H246 C260 0.929 . S
H247 C261 0.931 . S
H248 C263 0.930 . S
C249 H237 0.930 . S
C249 C250 1.399 1_455 S
C249 C254 1.399 . S
C250 C249 1.399 1_655 S
C250 C251 1.376 . S
C251 H238 0.930 . S
C251 C250 1.376 . S
C251 C252 1.388 . S
C252 H239 0.930 . S
C252 C251 1.388 . S
C252 C253 1.390 . S
C253 C252 1.390 . S
C253 C254 1.394 1_655 S
C253 C259 1.465 . S
C254 C249 1.399 . S
C254 C253 1.394 1_455 S
C254 C255 1.516 . S
C255 C254 1.516 . S
C255 C256 1.502 . S
C255 C257 1.561 . S
C255 C258 1.526 . S
C256 H240 0.959 . S
C256 H241 0.959 . S
C256 H242 0.961 . S
C256 C255 1.502 . S
C257 H243 0.960 . S
C257 H244 0.961 . S
C257 H245 0.959 1_455 S
C257 C255 1.561 . S
C258 C255 1.526 . S
C258 C259 1.396 1_455 S
C258 C263 1.390 . S
C259 C253 1.465 . S
C259 C258 1.396 1_655 S
C259 C260 1.399 . S
C260 H246 0.929 . S
C260 C259 1.399 . S
C260 C261 1.385 . S
C261 H247 0.931 . S
C261 C260 1.385 . S
C261 C262 1.389 1_655 S
C262 C261 1.389 1_455 S
C262 C263 1.387 . S
C263 H248 0.930 . S
C263 C258 1.390 . S
C263 C262 1.387 . S
H264 C276 0.930 . S
H265 C278 0.930 . S
H266 C279 0.930 . S
H267 C283 0.959 . S
H268 C283 0.959 . S
H269 C283 0.961 . S
H270 C284 0.960 . S
H271 C284 0.961 . S
H272 C284 0.959 . S
H273 C287 0.929 . S
H274 C288 0.931 . S
H275 C290 0.930 . S
C276 H264 0.930 . S
C276 C277 1.399 1_565 S
C276 C281 1.399 . S
C277 C276 1.399 1_545 S
C277 C278 1.376 . S
C278 H265 0.930 . S
C278 C277 1.376 . S
C278 C279 1.388 . S
C279 H266 0.930 . S
C279 C278 1.388 . S
C279 C280 1.390 . S
C280 C279 1.390 . S
C280 C281 1.394 1_545 S
C280 C286 1.465 . S
C281 C276 1.399 . S
C281 C280 1.394 1_565 S
C281 C282 1.516 . S
C282 C281 1.516 . S
C282 C283 1.502 . S
C282 C284 1.561 . S
C282 C285 1.526 . S
C283 H267 0.959 . S
C283 H268 0.959 . S
C283 H269 0.961 . S
C283 C282 1.502 . S
C284 H270 0.960 . S
C284 H271 0.961 . S
C284 H272 0.959 . S
C284 C282 1.561 . S
C285 C282 1.526 . S
C285 C286 1.396 1_565 S
C285 C290 1.390 . S
C286 C280 1.465 . S
C286 C285 1.396 1_545 S
C286 C287 1.399 . S
C287 H273 0.929 . S
C287 C286 1.399 . S
C287 C288 1.385 . S
C288 H274 0.931 . S
C288 C287 1.385 . S
C288 C289 1.389 1_545 S
C289 C288 1.389 1_565 S
C289 C290 1.387 . S
C290 H275 0.930 . S
C290 C285 1.390 . S
C290 C289 1.387 . S
H291 C303 0.930 . S
H292 C305 0.930 . S
H293 C306 0.930 . S
H294 C310 0.959 . S
H295 C310 0.959 . S
H296 C310 0.961 . S
H297 C311 0.960 . S
H298 C311 0.961 . S
H299 C311 0.959 . S
H300 C314 0.929 . S
H301 C315 0.931 . S
H302 C317 0.930 . S
C303 H291 0.930 . S
C303 C304 1.399 . S
C303 C308 1.399 . S
C304 C303 1.399 . S
C304 C305 1.376 . S
C305 H292 0.930 . S
C305 C304 1.376 . S
C305 C306 1.388 . S
C306 H293 0.930 . S
C306 C305 1.388 . S
C306 C307 1.390 . S
C307 C306 1.390 . S
C307 C308 1.394 . S
C307 C313 1.465 . S
C308 C303 1.399 . S
C308 C307 1.394 . S
C308 C309 1.516 . S
C309 C308 1.516 . S
C309 C310 1.502 . S
C309 C311 1.561 . S
C309 C312 1.526 . S
C310 H294 0.959 . S
C310 H295 0.959 . S
C310 H296 0.961 . S
C310 C309 1.502 . S
C311 H297 0.960 . S
C311 H298 0.961 . S
C311 H299 0.959 . S
C311 C309 1.561 . S
C312 C309 1.526 . S
C312 C313 1.396 . S
C312 C317 1.390 . S
C313 C307 1.465 . S
C313 C312 1.396 . S
C313 C314 1.399 . S
C314 H300 0.929 . S
C314 C313 1.399 . S
C314 C315 1.385 . S
C315 H301 0.931 . S
C315 C314 1.385 . S
C315 C316 1.389 . S
C316 C315 1.389 . S
C316 C317 1.387 . S
C317 H302 0.930 . S
C317 C312 1.390 . S
C317 C316 1.387 . S
H318 C330 0.930 . S
H319 C332 0.930 . S
H320 C333 0.930 . S
H321 C337 0.959 . S
H322 C337 0.959 . S
H323 C337 0.970 . S
H324 C338 1.010 . S
H325 C338 0.908 1_556 S
H326 C338 0.977 . S
H327 C341 0.929 . S
H328 C342 0.931 . S
H329 C344 0.930 . S
C330 H318 0.930 . S
C330 C331 1.399 . S
C330 C335 1.399 . S
C331 C330 1.399 . S
C331 C332 1.376 . S
C332 H319 0.930 . S
C332 C331 1.376 . S
C332 C333 1.388 . S
C333 H320 0.930 . S
C333 C332 1.388 . S
C333 C334 1.390 . S
C334 C333 1.390 . S
C334 C335 1.394 . S
C334 C340 1.465 1_554 S
C335 C330 1.399 . S
C335 C334 1.394 . S
C335 C336 1.516 1_554 S
C336 C335 1.516 1_556 S
C336 C337 1.502 . S
C336 C338 1.551 1_556 S
C336 C339 1.526 . S
C337 H321 0.959 . S
C337 H322 0.959 . S
C337 H323 0.970 . S
C337 C336 1.502 . S
C338 H324 1.010 . S
C338 H325 0.908 1_554 S
C338 H326 0.977 . S
C338 C336 1.551 1_554 S
C339 C336 1.526 . S
C339 C340 1.396 . S
C339 C344 1.390 . S
C340 C334 1.465 1_556 S
C340 C339 1.396 . S
C340 C341 1.399 . S
C341 H327 0.929 . S
C341 C340 1.399 . S
C341 C342 1.385 . S
C342 H328 0.931 . S
C342 C341 1.385 . S
C342 C343 1.389 . S
C343 C342 1.389 . S
C343 C344 1.387 . S
C344 H329 0.930 . S
C344 C339 1.390 . S
C344 C343 1.387 . S
H345 C357 0.930 . S
H346 C359 0.930 . S
H347 C360 0.930 . S
H348 C364 0.959 . S
H349 C364 0.959 . S
H350 C364 0.961 . S
H351 C365 0.960 . S
H352 C365 0.961 . S
H353 C365 0.959 . S
H354 C368 0.929 . S
H355 C369 0.931 . S
H356 C371 0.930 . S
C357 H345 0.930 . S
C357 C358 1.399 . S
C357 C362 1.399 . S
C358 C357 1.399 . S
C358 C359 1.376 . S
C359 H346 0.930 . S
C359 C358 1.376 . S
C359 C360 1.388 . S
C360 H347 0.930 . S
C360 C359 1.388 . S
C360 C361 1.390 . S
C361 C360 1.390 . S
C361 C362 1.394 . S
C361 C367 1.465 . S
C362 C357 1.399 . S
C362 C361 1.394 . S
C362 C363 1.516 . S
C363 C362 1.516 . S
C363 C364 1.502 . S
C363 C365 1.561 . S
C363 C366 1.526 . S
C364 H348 0.959 . S
C364 H349 0.959 . S
C364 H350 0.961 . S
C364 C363 1.502 . S
C365 H351 0.960 . S
C365 H352 0.961 . S
C365 H353 0.959 . S
C365 C363 1.561 . S
C366 C363 1.526 . S
C366 C367 1.396 . S
C366 C371 1.390 . S
C367 C361 1.465 . S
C367 C366 1.396 . S
C367 C368 1.399 . S
C368 H354 0.929 . S
C368 C367 1.399 . S
C368 C369 1.385 . S
C369 H355 0.931 . S
C369 C368 1.385 . S
C369 C370 1.389 . S
C370 C369 1.389 . S
C370 C371 1.387 . S
C371 H356 0.930 . S
C371 C366 1.390 . S
C371 C370 1.387 . S
H372 C384 0.930 . S
H373 C386 0.930 . S
H374 C387 0.930 . S
H375 C391 0.959 . S
H376 C391 0.959 . S
H377 C391 0.961 . S
H378 C392 0.960 . S
H379 C392 0.961 . S
H380 C392 0.959 . S
H381 C395 0.929 . S
H382 C396 0.931 . S
H383 C398 0.930 . S
C384 H372 0.930 . S
C384 C385 1.399 . S
C384 C389 1.399 . S
C385 C384 1.399 . S
C385 C386 1.376 . S
C386 H373 0.930 . S
C386 C385 1.376 . S
C386 C387 1.388 . S
C387 H374 0.930 . S
C387 C386 1.388 . S
C387 C388 1.390 . S
C388 C387 1.390 . S
C388 C389 1.394 . S
C388 C394 1.465 . S
C389 C384 1.399 . S
C389 C388 1.394 . S
C389 C390 1.516 . S
C390 C389 1.516 . S
C390 C391 1.502 . S
C390 C392 1.561 . S
C390 C393 1.526 . S
C391 H375 0.959 . S
C391 H376 0.959 . S
C391 H377 0.961 . S
C391 C390 1.502 . S
C392 H378 0.960 . S
C392 H379 0.961 . S
C392 H380 0.959 . S
C392 C390 1.561 . S
C393 C390 1.526 . S
C393 C394 1.396 . S
C393 C398 1.390 . S
C394 C388 1.465 . S
C394 C393 1.396 . S
C394 C395 1.399 . S
C395 H381 0.929 . S
C395 C394 1.399 . S
C395 C396 1.385 . S
C396 H382 0.931 . S
C396 C395 1.385 . S
C396 C397 1.389 . S
C397 C396 1.389 . S
C397 C398 1.387 . S
C398 H383 0.930 . S
C398 C393 1.390 . S
C398 C397 1.387 . S
H399 C411 0.930 . S
H400 C413 0.930 . S
H401 C414 0.930 . S
H402 C418 0.959 . S
H403 C418 0.959 1_556 S
H404 C418 0.961 . S
H405 C419 0.960 1_554 S
H406 C419 0.961 . S
H407 C419 0.959 . S
H408 C422 0.929 . S
H409 C423 0.931 . S
H410 C425 0.930 . S
C411 H399 0.930 . S
C411 C412 1.399 . S
C411 C416 1.399 . S
C412 C411 1.399 . S
C412 C413 1.376 . S
C413 H400 0.930 . S
C413 C412 1.376 . S
C413 C414 1.388 . S
C414 H401 0.930 . S
C414 C413 1.388 . S
C414 C415 1.390 . S
C415 C414 1.390 . S
C415 C416 1.394 . S
C415 C421 1.465 1_554 S
C416 C411 1.399 . S
C416 C415 1.394 . S
C416 C417 1.541 . S
C417 C416 1.541 . S
C417 C418 1.511 . S
C417 C419 1.552 1_554 S
C417 C420 1.499 1_554 S
C418 H402 0.959 . S
C418 H403 0.959 1_554 S
C418 H404 0.961 . S
C418 C417 1.511 . S
C419 H405 0.960 1_556 S
C419 H406 0.961 . S
C419 H407 0.959 . S
C419 C417 1.552 1_556 S
C420 C417 1.499 1_556 S
C420 C421 1.396 . S
C420 C425 1.390 . S
C421 C415 1.465 1_556 S
C421 C420 1.396 . S
C421 C422 1.399 . S
C422 H408 0.929 . S
C422 C421 1.399 . S
C422 C423 1.385 . S
C423 H409 0.931 . S
C423 C422 1.385 . S
C423 C424 1.389 . S
C424 C423 1.389 . S
C424 C425 1.387 . S
C425 H410 0.930 . S
C425 C420 1.390 . S
C425 C424 1.387 . S
H426 C438 0.930 . S
H427 C440 0.930 . S
H428 C441 0.930 . S
H429 C445 0.959 . S
H430 C445 0.959 . S
H431 C445 0.961 . S
H432 C446 0.960 . S
H433 C446 0.961 . S
H434 C446 0.959 . S
H435 C449 0.929 . S
H436 C450 0.931 . S
H437 C452 0.930 . S
C438 H426 0.930 . S
C438 C439 1.399 . S
C438 C443 1.399 . S
C439 C438 1.399 . S
C439 C440 1.376 . S
C440 H427 0.930 . S
C440 C439 1.376 . S
C440 C441 1.388 . S
C441 H428 0.930 . S
C441 C440 1.388 . S
C441 C442 1.390 . S
C442 C441 1.390 . S
C442 C443 1.394 . S
C442 C448 1.465 . S
C443 C438 1.399 . S
C443 C442 1.394 . S
C443 C444 1.516 . S
C444 C443 1.516 . S
C444 C445 1.502 . S
C444 C446 1.561 . S
C444 C447 1.526 . S
C445 H429 0.959 . S
C445 H430 0.959 . S
C445 H431 0.961 . S
C445 C444 1.502 . S
C446 H432 0.960 . S
C446 H433 0.961 . S
C446 H434 0.959 . S
C446 C444 1.561 . S
C447 C444 1.526 . S
C447 C448 1.396 . S
C447 C452 1.390 . S
C448 C442 1.465 . S
C448 C447 1.396 . S
C448 C449 1.399 . S
C449 H435 0.929 . S
C449 C448 1.399 . S
C449 C450 1.385 . S
C450 H436 0.931 . S
C450 C449 1.385 . S
C450 C451 1.389 . S
C451 C450 1.389 . S
C451 C452 1.387 . S
C452 H437 0.930 . S
C452 C447 1.390 . S
C452 C451 1.387 . S
H453 C465 0.930 . S
H454 C467 0.930 . S
H455 C468 0.930 . S
H456 C472 0.959 . S
H457 C472 0.959 . S
H458 C472 0.961 . S
H459 C473 0.960 . S
H460 C473 0.961 . S
H461 C473 0.959 . S
H462 C476 0.929 . S
H463 C477 0.931 . S
H464 C479 0.930 . S
C465 H453 0.930 . S
C465 C466 1.399 . S
C465 C470 1.399 . S
C466 C465 1.399 . S
C466 C467 1.376 . S
C467 H454 0.930 . S
C467 C466 1.376 . S
C467 C468 1.388 . S
C468 H455 0.930 . S
C468 C467 1.388 . S
C468 C469 1.390 . S
C469 C468 1.390 . S
C469 C470 1.394 . S
C469 C475 1.465 . S
C470 C465 1.399 . S
C470 C469 1.394 . S
C470 C471 1.516 . S
C471 C470 1.516 . S
C471 C472 1.502 . S
C471 C473 1.561 . S
C471 C474 1.526 . S
C472 H456 0.959 . S
C472 H457 0.959 . S
C472 H458 0.961 . S
C472 C471 1.502 . S
C473 H459 0.960 . S
C473 H460 0.961 . S
C473 H461 0.959 . S
C473 C471 1.561 . S
C474 C471 1.526 . S
C474 C475 1.396 . S
C474 C479 1.390 . S
C475 C469 1.465 . S
C475 C474 1.396 . S
C475 C476 1.399 . S
C476 H462 0.929 . S
C476 C475 1.399 . S
C476 C477 1.385 . S
C477 H463 0.931 . S
C477 C476 1.385 . S
C477 C478 1.389 . S
C478 C477 1.389 . S
C478 C479 1.387 . S
C479 H464 0.930 . S
C479 C474 1.390 . S
C479 C478 1.387 . S
H480 C492 0.930 . S
H481 C494 0.930 . S
H482 C495 0.930 1_455 S
H483 C499 0.959 . S
H484 C499 0.959 . S
H485 C499 0.961 . S
H486 C500 0.960 . S
H487 C500 0.961 . S
H488 C500 0.959 . S
H489 C503 0.929 . S
H490 C504 0.931 . S
H491 C506 0.930 . S
C492 H480 0.930 . S
C492 C493 1.399 . S
C492 C497 1.399 . S
C493 C492 1.399 . S
C493 C494 1.376 . S
C494 H481 0.930 . S
C494 C493 1.376 . S
C494 C495 1.388 . S
C495 H482 0.930 1_655 S
C495 C494 1.388 . S
C495 C496 1.390 . S
C496 C495 1.390 . S
C496 C497 1.394 . S
C496 C502 1.465 1_655 S
C497 C492 1.399 . S
C497 C496 1.394 . S
C497 C498 1.516 . S
C498 C497 1.516 . S
C498 C499 1.502 . S
C498 C500 1.561 1_655 S
C498 C501 1.526 1_655 S
C499 H483 0.959 . S
C499 H484 0.959 . S
C499 H485 0.961 . S
C499 C498 1.502 . S
C500 H486 0.960 . S
C500 H487 0.961 . S
C500 H488 0.959 . S
C500 C498 1.561 1_455 S
C501 C498 1.526 1_455 S
C501 C502 1.396 . S
C501 C506 1.390 . S
C502 C496 1.465 1_455 S
C502 C501 1.396 . S
C502 C503 1.399 . S
C503 H489 0.929 . S
C503 C502 1.399 . S
C503 C504 1.385 . S
C504 H490 0.931 . S
C504 C503 1.385 . S
C504 C505 1.389 . S
C505 C504 1.389 . S
C505 C506 1.387 . S
C506 H491 0.930 . S
C506 C501 1.390 . S
C506 C505 1.387 . S
H507 C519 0.930 . S
H508 C521 0.930 . S
H509 C522 0.930 . S
H510 C526 0.959 . S
H511 C526 0.959 . S
H512 C526 0.961 . S
H513 C527 0.960 1_545 S
H514 C527 0.961 . S
H515 C527 0.959 . S
H516 C530 0.929 . S
H517 C531 0.931 . S
H518 C533 0.930 . S
C519 H507 0.930 . S
C519 C520 1.399 . S
C519 C524 1.399 . S
C520 C519 1.399 . S
C520 C521 1.376 . S
C521 H508 0.930 . S
C521 C520 1.376 . S
C521 C522 1.388 1_545 S
C522 H509 0.930 . S
C522 C521 1.388 1_565 S
C522 C523 1.390 . S
C523 C522 1.390 . S
C523 C524 1.394 1_565 S
C523 C529 1.465 . S
C524 C519 1.399 . S
C524 C523 1.394 1_545 S
C524 C525 1.516 . S
C525 C524 1.516 . S
C525 C526 1.502 . S
C525 C527 1.561 1_545 S
C525 C528 1.526 1_545 S
C526 H510 0.959 . S
C526 H511 0.959 . S
C526 H512 0.961 . S
C526 C525 1.502 . S
C527 H513 0.960 1_565 S
C527 H514 0.961 . S
C527 H515 0.959 . S
C527 C525 1.561 1_565 S
C528 C525 1.526 1_565 S
C528 C529 1.396 . S
C528 C533 1.390 . S
C529 C523 1.465 . S
C529 C528 1.396 . S
C529 C530 1.399 . S
C530 H516 0.929 . S
C530 C529 1.399 . S
C530 C531 1.385 . S
C531 H517 0.931 . S
C531 C530 1.385 . S
C531 C532 1.389 . S
C532 C531 1.389 . S
C532 C533 1.387 . S
C533 H518 0.930 . S
C533 C528 1.390 . S
C533 C532 1.387 . S
H534 C546 0.930 . S
H535 C548 0.930 . S
H536 C549 0.930 . S
H537 C553 0.959 . S
H538 C553 0.959 . S
H539 C553 0.961 . S
H540 C554 0.960 . S
H541 C554 0.961 . S
H542 C554 0.959 . S
H543 C557 0.929 . S
H544 C558 0.931 . S
H545 C560 0.930 . S
C546 H534 0.930 . S
C546 C547 1.399 . S
C546 C551 1.399 . S
C547 C546 1.399 . S
C547 C548 1.376 . S
C548 H535 0.930 . S
C548 C547 1.376 . S
C548 C549 1.388 . S
C549 H536 0.930 . S
C549 C548 1.388 . S
C549 C550 1.390 . S
C550 C549 1.390 . S
C550 C551 1.394 . S
C550 C556 1.465 . S
C551 C546 1.399 . S
C551 C550 1.394 . S
C551 C552 1.516 . S
C552 C551 1.516 . S
C552 C553 1.502 . S
C552 C554 1.561 . S
C552 C555 1.526 . S
C553 H537 0.959 . S
C553 H538 0.959 . S
C553 H539 0.961 . S
C553 C552 1.502 . S
C554 H540 0.960 . S
C554 H541 0.961 . S
C554 H542 0.959 . S
C554 C552 1.561 . S
C555 C552 1.526 . S
C555 C556 1.396 . S
C555 C560 1.390 . S
C556 C550 1.465 . S
C556 C555 1.396 . S
C556 C557 1.399 . S
C557 H543 0.929 . S
C557 C556 1.399 . S
C557 C558 1.385 . S
C558 H544 0.931 . S
C558 C557 1.385 . S
C558 C559 1.389 . S
C559 C558 1.389 . S
C559 C560 1.387 . S
C560 H545 0.930 . S
C560 C555 1.390 . S
C560 C559 1.387 . S
H561 C573 0.930 . S
H562 C575 0.930 . S
H563 C576 0.930 . S
H564 C580 0.959 . S
H565 C580 0.959 . S
H566 C580 0.961 . S
H567 C581 0.960 . S
H568 C581 0.961 . S
H569 C581 0.959 . S
H570 C584 0.929 1_545 S
H571 C585 0.931 . S
H572 C587 0.930 . S
C573 H561 0.930 . S
C573 C574 1.399 . S
C573 C578 1.399 . S
C574 C573 1.399 . S
C574 C575 1.376 . S
C575 H562 0.930 . S
C575 C574 1.376 . S
C575 C576 1.388 . S
C576 H563 0.930 . S
C576 C575 1.388 . S
C576 C577 1.390 . S
C577 C576 1.390 . S
C577 C578 1.394 . S
C577 C583 1.460 1_545 S
C578 C573 1.399 . S
C578 C577 1.394 . S
C578 C579 1.516 1_545 S
C579 C578 1.516 1_565 S
C579 C580 1.502 . S
C579 C581 1.561 1_565 S
C579 C582 1.526 . S
C580 H564 0.959 . S
C580 H565 0.959 . S
C580 H566 0.961 . S
C580 C579 1.502 . S
C581 H567 0.960 . S
C581 H568 0.961 . S
C581 H569 0.959 . S
C581 C579 1.561 1_545 S
C582 C579 1.526 . S
C582 C583 1.399 . S
C582 C587 1.390 . S
C583 C577 1.460 1_565 S
C583 C582 1.399 . S
C583 C584 1.401 . S
C584 H570 0.929 1_565 S
C584 C583 1.401 . S
C584 C585 1.385 . S
C585 H571 0.931 . S
C585 C584 1.385 . S
C585 C586 1.389 . S
C586 C585 1.389 . S
C586 C587 1.387 . S
C587 H572 0.930 . S
C587 C582 1.390 . S
C587 C586 1.387 . S
H588 C600 0.930 . S
H589 C602 0.930 . S
H590 C603 0.930 . S
H591 C607 0.959 . S
H592 C607 0.959 . S
H593 C607 0.961 . S
H594 C608 0.960 . S
H595 C608 0.961 . S
H596 C608 0.959 . S
H597 C611 0.929 . S
H598 C612 0.931 . S
H599 C614 0.930 . S
C600 H588 0.930 . S
C600 C601 1.399 . S
C600 C605 1.399 . S
C601 C600 1.399 . S
C601 C602 1.376 . S
C602 H589 0.930 . S
C602 C601 1.376 . S
C602 C603 1.388 . S
C603 H590 0.930 . S
C603 C602 1.388 . S
C603 C604 1.390 . S
C604 C603 1.390 . S
C604 C605 1.394 . S
C604 C610 1.465 . S
C605 C600 1.399 . S
C605 C604 1.394 . S
C605 C606 1.516 . S
C606 C605 1.516 . S
C606 C607 1.502 . S
C606 C608 1.561 . S
C606 C609 1.526 . S
C607 H591 0.959 . S
C607 H592 0.959 . S
C607 H593 0.961 . S
C607 C606 1.502 . S
C608 H594 0.960 . S
C608 H595 0.961 . S
C608 H596 0.959 . S
C608 C606 1.561 . S
C609 C606 1.526 . S
C609 C610 1.396 . S
C609 C614 1.390 . S
C610 C604 1.465 . S
C610 C609 1.396 . S
C610 C611 1.399 . S
C611 H597 0.929 . S
C611 C610 1.399 . S
C611 C612 1.385 . S
C612 H598 0.931 . S
C612 C611 1.385 . S
C612 C613 1.389 . S
C613 C612 1.389 . S
C613 C614 1.387 . S
C614 H599 0.930 . S
C614 C609 1.390 . S
C614 C613 1.387 . S
H615 C627 0.930 . S
H616 C629 0.930 . S
H617 C630 0.930 1_655 S
H618 C634 0.959 . S
H619 C634 0.959 . S
H620 C634 0.961 . S
H621 C635 0.960 . S
H622 C635 0.961 . S
H623 C635 0.959 . S
H624 C638 0.929 . S
H625 C639 0.931 . S
H626 C641 0.930 . S
C627 H615 0.930 . S
C627 C628 1.399 . S
C627 C632 1.399 . S
C628 C627 1.399 . S
C628 C629 1.376 . S
C629 H616 0.930 . S
C629 C628 1.376 . S
C629 C630 1.388 . S
C630 H617 0.930 1_455 S
C630 C629 1.388 . S
C630 C631 1.393 1_455 S
C631 C630 1.393 1_655 S
C631 C632 1.391 1_655 S
C631 C637 1.464 . S
C632 C627 1.399 . S
C632 C631 1.391 1_455 S
C632 C633 1.516 . S
C633 C632 1.516 . S
C633 C634 1.502 . S
C633 C635 1.561 1_455 S
C633 C636 1.526 1_455 S
C634 H618 0.959 . S
C634 H619 0.959 . S
C634 H620 0.961 . S
C634 C633 1.502 . S
C635 H621 0.960 . S
C635 H622 0.961 . S
C635 H623 0.959 . S
C635 C633 1.561 1_655 S
C636 C633 1.526 1_655 S
C636 C637 1.396 . S
C636 C641 1.390 . S
C637 C631 1.464 . S
C637 C636 1.396 . S
C637 C638 1.399 . S
C638 H624 0.929 . S
C638 C637 1.399 . S
C638 C639 1.385 . S
C639 H625 0.931 . S
C639 C638 1.385 . S
C639 C640 1.389 . S
C640 C639 1.389 . S
C640 C641 1.387 . S
C641 H626 0.930 . S
C641 C636 1.390 . S
C641 C640 1.387 . S
H642 C654 0.930 1_655 S
H643 C656 0.930 . S
H644 C657 0.930 . S
H645 C661 0.959 . S
H646 C661 0.959 . S
H647 C661 0.961 1_545 S
H648 C662 0.960 1_545 S
H649 C662 0.961 . S
H650 C662 0.959 . S
H651 C665 0.929 . S
H652 C666 0.931 . S
H653 C668 0.930 . S
C654 H642 0.930 1_455 S
C654 C655 1.399 . S
C654 C659 1.399 1_455 S
C655 C654 1.399 . S
C655 C656 1.376 . S
C656 H643 0.930 . S
C656 C655 1.376 . S
C656 C657 1.388 . S
C657 H644 0.930 . S
C657 C656 1.388 . S
C657 C658 1.390 . S
C658 C657 1.390 . S
C658 C659 1.394 1_455 S
C658 C664 1.465 1_545 S
C659 C654 1.399 1_655 S
C659 C658 1.394 1_655 S
C659 C660 1.516 1_545 S
C660 C659 1.516 1_565 S
C660 C661 1.502 . S
C660 C662 1.561 . S
C660 C663 1.526 . S
C661 H645 0.959 . S
C661 H646 0.959 . S
C661 H647 0.961 1_565 S
C661 C660 1.502 . S
C662 H648 0.960 1_565 S
C662 H649 0.961 . S
C662 H650 0.959 . S
C662 C660 1.561 . S
C663 C660 1.526 . S
C663 C664 1.396 1_655 S
C663 C668 1.390 . S
C664 C658 1.465 1_565 S
C664 C663 1.396 1_455 S
C664 C665 1.399 . S
C665 H651 0.929 . S
C665 C664 1.399 . S
C665 C666 1.385 . S
C666 H652 0.931 . S
C666 C665 1.385 . S
C666 C667 1.389 1_455 S
C667 C666 1.389 1_655 S
C667 C668 1.387 . S
C668 H653 0.930 . S
C668 C663 1.390 . S
C668 C667 1.387 . S
H669 C681 0.930 . S
H670 C683 0.930 . S
H671 C684 0.930 . S
H672 C688 0.959 . S
H673 C688 0.959 . S
H674 C688 0.961 . S
H675 C689 0.960 . S
H676 C689 0.961 . S
H677 C689 0.959 . S
H678 C692 0.929 1_545 S
H679 C693 0.931 . S
H680 C695 0.930 . S
C681 H669 0.930 . S
C681 C682 1.399 . S
C681 C686 1.399 . S
C682 C681 1.399 . S
C682 C683 1.376 . S
C683 H670 0.930 . S
C683 C682 1.376 . S
C683 C684 1.388 . S
C684 H671 0.930 . S
C684 C683 1.388 . S
C684 C685 1.390 . S
C685 C684 1.390 . S
C685 C686 1.394 . S
C685 C691 1.445 1_645 S
C686 C681 1.399 . S
C686 C685 1.394 . S
C686 C687 1.516 1_545 S
C687 C686 1.516 1_565 S
C687 C688 1.502 . S
C687 C689 1.561 1_665 S
C687 C690 1.526 1_655 S
C688 H672 0.959 . S
C688 H673 0.959 . S
C688 H674 0.961 . S
C688 C687 1.502 . S
C689 H675 0.960 . S
C689 H676 0.961 . S
C689 H677 0.959 . S
C689 C687 1.561 1_445 S
C690 C687 1.526 1_455 S
C690 C691 1.407 . S
C690 C695 1.390 . S
C691 C685 1.445 1_465 S
C691 C690 1.407 . S
C691 C692 1.410 . S
C692 H678 0.929 1_565 S
C692 C691 1.410 . S
C692 C693 1.385 . S
C693 H679 0.931 . S
C693 C692 1.385 . S
C693 C694 1.389 . S
C694 C693 1.389 . S
C694 C695 1.387 . S
C695 H680 0.930 . S
C695 C690 1.390 . S
C695 C694 1.387 . S
H696 C708 0.930 . S
H697 C710 0.930 . S
H698 C711 0.930 . S
H699 C715 0.959 . S
H700 C715 0.959 1_655 S
H701 C715 0.961 . S
H702 C716 0.960 1_455 S
H703 C716 0.968 . S
H704 C716 0.959 . S
H705 C719 0.938 . S
H706 C720 0.931 . S
H707 C722 0.930 . S
C708 H696 0.930 . S
C708 C709 1.399 . S
C708 C713 1.399 . S
C709 C708 1.399 . S
C709 C710 1.376 . S
C710 H697 0.930 . S
C710 C709 1.376 . S
C710 C711 1.388 . S
C711 H698 0.930 . S
C711 C710 1.388 . S
C711 C712 1.390 . S
C712 C711 1.390 . S
C712 C713 1.394 . S
C712 C718 1.465 1_445 S
C713 C708 1.399 . S
C713 C712 1.394 . S
C713 C714 1.516 1_545 S
C714 C713 1.516 1_565 S
C714 C715 1.502 . S
C714 C716 1.561 1_465 S
C714 C717 1.526 1_455 S
C715 H699 0.959 . S
C715 H700 0.959 1_455 S
C715 H701 0.961 . S
C715 C714 1.502 . S
C716 H702 0.960 1_655 S
C716 H703 0.968 . S
C716 H704 0.959 . S
C716 C714 1.561 1_645 S
C717 C714 1.526 1_655 S
C717 C718 1.396 . S
C717 C722 1.390 . S
C718 C712 1.465 1_665 S
C718 C717 1.396 . S
C718 C719 1.399 . S
C719 H705 0.938 . S
C719 C718 1.399 . S
C719 C720 1.385 . S
C720 H706 0.931 . S
C720 C719 1.385 . S
C720 C721 1.389 . S
C721 C720 1.389 . S
C721 C722 1.387 . S
C722 H707 0.930 . S
C722 C717 1.390 . S
C722 C721 1.387 . S
H723 C735 0.930 . S
H724 C737 0.930 . S
H725 C738 0.930 . S
H726 C742 0.959 . S
H727 C742 0.959 . S
H728 C742 0.961 1_655 S
H729 C743 0.960 . S
H730 C743 0.961 1_455 S
H731 C743 0.959 . S
H732 C746 0.929 1_565 S
H733 C747 0.931 . S
H734 C749 0.930 . S
C735 H723 0.930 . S
C735 C736 1.399 . S
C735 C740 1.399 . S
C736 C735 1.399 . S
C736 C737 1.376 . S
C737 H724 0.930 . S
C737 C736 1.376 . S
C737 C738 1.388 . S
C738 H725 0.930 . S
C738 C737 1.388 . S
C738 C739 1.390 . S
C739 C738 1.390 . S
C739 C740 1.394 . S
C739 C745 1.464 1_655 S
C740 C735 1.399 . S
C740 C739 1.394 . S
C740 C741 1.516 1_665 S
C741 C740 1.516 1_445 S
C741 C742 1.502 . S
C741 C743 1.561 1_445 S
C741 C744 1.526 . S
C742 H726 0.959 . S
C742 H727 0.959 . S
C742 H728 0.961 1_455 S
C742 C741 1.502 . S
C743 H729 0.960 . S
C743 H730 0.961 1_655 S
C743 H731 0.959 . S
C743 C741 1.561 1_665 S
C744 C741 1.526 . S
C744 C745 1.394 1_545 S
C744 C749 1.390 . S
C745 C739 1.464 1_455 S
C745 C744 1.394 1_565 S
C745 C746 1.401 1_565 S
C746 H732 0.929 1_545 S
C746 C745 1.401 1_545 S
C746 C747 1.385 . S
C747 H733 0.931 . S
C747 C746 1.385 . S
C747 C748 1.389 . S
C748 C747 1.389 . S
C748 C749 1.387 . S
C749 H734 0.930 . S
C749 C744 1.390 . S
C749 C748 1.387 . S
H750 C762 0.930 . S
H751 C764 0.930 . S
H752 C765 0.930 . S
H753 C769 0.959 . S
H754 C769 0.959 1_545 S
H755 C769 0.961 . S
H756 C770 0.960 . S
H757 C770 0.961 1_545 S
H758 C770 0.957 . S
H759 C773 0.929 . S
H760 C774 0.931 . S
H761 C776 0.930 . S
C762 H750 0.930 . S
C762 C763 1.399 . S
C762 C767 1.399 . S
C763 C762 1.399 . S
C763 C764 1.376 . S
C764 H751 0.930 . S
C764 C763 1.376 . S
C764 C765 1.388 . S
C765 H752 0.930 . S
C765 C764 1.388 . S
C765 C766 1.390 . S
C766 C765 1.390 . S
C766 C767 1.394 . S
C766 C772 1.465 1_565 S
C767 C762 1.399 . S
C767 C766 1.394 . S
C767 C768 1.516 1_655 S
C768 C767 1.516 1_455 S
C768 C769 1.502 . S
C768 C770 1.561 . S
C768 C771 1.526 1_565 S
C769 H753 0.959 . S
C769 H754 0.959 1_565 S
C769 H755 0.961 . S
C769 C768 1.502 . S
C770 H756 0.960 . S
C770 H757 0.961 1_565 S
C770 H758 0.957 . S
C770 C768 1.561 . S
C771 C768 1.526 1_545 S
C771 C772 1.396 1_455 S
C771 C776 1.390 . S
C772 C766 1.465 1_545 S
C772 C771 1.396 1_655 S
C772 C773 1.399 . S
C773 H759 0.929 . S
C773 C772 1.399 . S
C773 C774 1.385 1_655 S
C774 H760 0.931 . S
C774 C773 1.385 1_455 S
C774 C775 1.389 . S
C775 C774 1.389 . S
C775 C776 1.387 . S
C776 H761 0.930 . S
C776 C771 1.390 . S
C776 C775 1.387 . S
H777 C789 0.930 . S
H778 C791 0.930 . S
H779 C792 0.930 . S
H780 C796 0.959 . S
H781 C796 0.959 . S
H782 C796 0.961 . S
H783 C797 0.960 . S
H784 C797 0.961 . S
H785 C797 0.959 . S
H786 C800 0.929 . S
H787 C801 0.931 . S
H788 C803 0.930 . S
C789 H777 0.930 . S
C789 C790 1.399 . S
C789 C794 1.399 . S
C790 C789 1.399 . S
C790 C791 1.376 . S
C791 H778 0.930 . S
C791 C790 1.376 . S
C791 C792 1.388 . S
C792 H779 0.930 . S
C792 C791 1.388 . S
C792 C793 1.390 . S
C793 C792 1.390 . S
C793 C794 1.394 . S
C793 C799 1.465 1_465 S
C794 C789 1.399 . S
C794 C793 1.394 . S
C794 C795 1.515 1_565 S
C795 C794 1.515 1_545 S
C795 C796 1.507 . S
C795 C797 1.556 1_445 S
C795 C798 1.527 1_455 S
C796 H780 0.959 . S
C796 H781 0.959 . S
C796 H782 0.961 . S
C796 C795 1.507 . S
C797 H783 0.960 . S
C797 H784 0.961 . S
C797 H785 0.959 . S
C797 C795 1.556 1_665 S
C798 C795 1.527 1_655 S
C798 C799 1.396 . S
C798 C803 1.390 . S
C799 C793 1.465 1_645 S
C799 C798 1.396 . S
C799 C800 1.399 . S
C800 H786 0.929 . S
C800 C799 1.399 . S
C800 C801 1.385 . S
C801 H787 0.931 . S
C801 C800 1.385 . S
C801 C802 1.389 . S
C802 C801 1.389 . S
C802 C803 1.387 . S
C803 H788 0.930 . S
C803 C798 1.390 . S
C803 C802 1.387 . S
C169 C144 1.500 . S
C181 C1 1.506 . S
C196 C14 1.482 . S
C208 C79 1.509 . S
C223 C27 1.501 . S
C235 C92 1.506 . S
C250 C40 1.487 . S
C262 C105 1.515 . S
C277 C118 1.483 . S
C289 C53 1.511 . S
C304 C66 1.484 . S
C316 C131 1.514 . S
C331 C3 1.492 . S
C343 C133 1.522 . S
C358 C16 1.518 . S
C370 C146 1.496 . S
C385 C29 1.527 . S
C397 C81 1.485 . S
C412 C42 1.514 . S
C424 C94 1.494 . S
C439 C107 1.485 . S
C451 C55 1.527 . S
C466 C120 1.524 . S
C478 C68 1.486 . S
C493 C44 1.765 . S
C505 C5 1.775 . S
C520 C18 1.763 . S
C532 C57 1.778 . S
C547 C70 1.766 . S
C559 C31 1.774 . S
C574 C122 1.781 . S
C586 C83 1.771 . S
C601 C135 1.765 . S
C613 C96 1.774 . S
C628 C109 1.765 . S
C640 C148 1.776 . S
C655 C10 1.674 . S
C667 C49 1.648 . S
C682 C23 1.665 . S
C694 C62 1.650 . S
C709 C75 1.652 . S
C721 C36 1.670 . S
C736 C88 1.666 . S
C748 C127 1.649 . S
C763 C101 1.643 . S
C775 C140 1.675 . S
C790 C114 1.656 . S
C802 C153 1.668 . S
