# Generated by pormake.
# Topology wku, (7)-cn, num edge types: 1
# Building blocks:
#     Node 0, Type 0, BuildingBlock: OLANEW_clean_sbu_3, # of connection points: 7
#     Node 1, Type 0, BuildingBlock: OLANEW_clean_sbu_3, # of connection points: 7
#     Node 2, Type 0, BuildingBlock: OLANEW_clean_sbu_3, # of connection points: 7
#     Node 3, Type 0, BuildingBlock: OLANEW_clean_sbu_3, # of connection points: 7
#     Node 4, Type 0, BuildingBlock: OLANEW_clean_sbu_3, # of connection points: 7
#     Node 5, Type 0, BuildingBlock: OLANEW_clean_sbu_3, # of connection points: 7
#     Node 6, Type 0, BuildingBlock: OLANEW_clean_sbu_3, # of connection points: 7
#     Node 7, Type 0, BuildingBlock: OLANEW_clean_sbu_3, # of connection points: 7
#     Node 8, Type 0, BuildingBlock: OLANEW_clean_sbu_3, # of connection points: 7
#     Node 9, Type 0, BuildingBlock: OLANEW_clean_sbu_3, # of connection points: 7
#     Node 10, Type 0, BuildingBlock: OLANEW_clean_sbu_3, # of connection points: 7
#     Node 11, Type 0, BuildingBlock: OLANEW_clean_sbu_3, # of connection points: 7
#     Edge 12, Type (0, 0), BuildingBlock: ZUJKAS_clean_linker_0, # of connection points: 2
#     Edge 13, Type (0, 0), BuildingBlock: ZUJKAS_clean_linker_0, # of connection points: 2
#     Edge 14, Type (0, 0), BuildingBlock: ZUJKAS_clean_linker_0, # of connection points: 2
#     Edge 15, Type (0, 0), BuildingBlock: ZUJKAS_clean_linker_0, # of connection points: 2
#     Edge 16, Type (0, 0), BuildingBlock: ZUJKAS_clean_linker_0, # of connection points: 2
#     Edge 17, Type (0, 0), BuildingBlock: ZUJKAS_clean_linker_0, # of connection points: 2
#     Edge 18, Type (0, 0), BuildingBlock: ZUJKAS_clean_linker_0, # of connection points: 2
#     Edge 19, Type (0, 0), BuildingBlock: ZUJKAS_clean_linker_0, # of connection points: 2
#     Edge 20, Type (0, 0), BuildingBlock: ZUJKAS_clean_linker_0, # of connection points: 2
#     Edge 21, Type (0, 0), BuildingBlock: ZUJKAS_clean_linker_0, # of connection points: 2
#     Edge 22, Type (0, 0), BuildingBlock: ZUJKAS_clean_linker_0, # of connection points: 2
#     Edge 23, Type (0, 0), BuildingBlock: ZUJKAS_clean_linker_0, # of connection points: 2
#     Edge 24, Type (0, 0), BuildingBlock: ZUJKAS_clean_linker_0, # of connection points: 2
#     Edge 25, Type (0, 0), BuildingBlock: ZUJKAS_clean_linker_0, # of connection points: 2
#     Edge 26, Type (0, 0), BuildingBlock: ZUJKAS_clean_linker_0, # of connection points: 2
#     Edge 27, Type (0, 0), BuildingBlock: ZUJKAS_clean_linker_0, # of connection points: 2
#     Edge 28, Type (0, 0), BuildingBlock: ZUJKAS_clean_linker_0, # of connection points: 2
#     Edge 29, Type (0, 0), BuildingBlock: ZUJKAS_clean_linker_0, # of connection points: 2
#     Edge 30, Type (0, 0), BuildingBlock: ZUJKAS_clean_linker_0, # of connection points: 2
#     Edge 31, Type (0, 0), BuildingBlock: ZUJKAS_clean_linker_0, # of connection points: 2
#     Edge 32, Type (0, 0), BuildingBlock: ZUJKAS_clean_linker_0, # of connection points: 2
#     Edge 33, Type (0, 0), BuildingBlock: ZUJKAS_clean_linker_0, # of connection points: 2
#     Edge 34, Type (0, 0), BuildingBlock: ZUJKAS_clean_linker_0, # of connection points: 2
#     Edge 35, Type (0, 0), BuildingBlock: ZUJKAS_clean_linker_0, # of connection points: 2
#     Edge 36, Type (0, 0), BuildingBlock: ZUJKAS_clean_linker_0, # of connection points: 2
#     Edge 37, Type (0, 0), BuildingBlock: ZUJKAS_clean_linker_0, # of connection points: 2
#     Edge 38, Type (0, 0), BuildingBlock: ZUJKAS_clean_linker_0, # of connection points: 2
#     Edge 39, Type (0, 0), BuildingBlock: ZUJKAS_clean_linker_0, # of connection points: 2
#     Edge 40, Type (0, 0), BuildingBlock: ZUJKAS_clean_linker_0, # of connection points: 2
#     Edge 41, Type (0, 0), BuildingBlock: ZUJKAS_clean_linker_0, # of connection points: 2
#     Edge 42, Type (0, 0), BuildingBlock: ZUJKAS_clean_linker_0, # of connection points: 2
#     Edge 43, Type (0, 0), BuildingBlock: ZUJKAS_clean_linker_0, # of connection points: 2
#     Edge 44, Type (0, 0), BuildingBlock: ZUJKAS_clean_linker_0, # of connection points: 2
#     Edge 45, Type (0, 0), BuildingBlock: ZUJKAS_clean_linker_0, # of connection points: 2
#     Edge 46, Type (0, 0), BuildingBlock: ZUJKAS_clean_linker_0, # of connection points: 2
#     Edge 47, Type (0, 0), BuildingBlock: ZUJKAS_clean_linker_0, # of connection points: 2
#     Edge 48, Type (0, 0), BuildingBlock: ZUJKAS_clean_linker_0, # of connection points: 2
#     Edge 49, Type (0, 0), BuildingBlock: ZUJKAS_clean_linker_0, # of connection points: 2
#     Edge 50, Type (0, 0), BuildingBlock: ZUJKAS_clean_linker_0, # of connection points: 2
#     Edge 51, Type (0, 0), BuildingBlock: ZUJKAS_clean_linker_0, # of connection points: 2
#     Edge 52, Type (0, 0), BuildingBlock: ZUJKAS_clean_linker_0, # of connection points: 2
#     Edge 53, Type (0, 0), BuildingBlock: ZUJKAS_clean_linker_0, # of connection points: 2
# Relax obj value: 0.108
# Max RMSD: 0.198
# Mean RMSD: 0.197
data_MOF--net-wku--node1-OLANEW_clean_sbu_3--edge1-ZUJKAS_clean_linker_0
_symmetry_space_group_name_H-M    P1
_symmetry_Int_Tables_number       1
_symmetry_cell_setting            triclinic
loop_
_symmetry_equiv_pos_as_xyz
'x, y, z'
_cell_length_a     37.447889
_cell_length_b     37.470478
_cell_length_c     150.52505
_cell_angle_alpha  89.989516
_cell_angle_beta   90.001293
_cell_angle_gamma 119.93134
loop_
_atom_site_label
_atom_site_type_symbol
_atom_site_fract_x
_atom_site_fract_y
_atom_site_fract_z
_atom_type_partial_charge
C0 C 0.25484 0.34944 0.05295 0.0
C1 C 0.21867 0.31749 0.04926 0.0
C2 C 0.22235 0.29147 0.04296 0.0
C3 C 0.2615 0.2975 0.04055 0.0
C4 C 0.29628 0.33008 0.04451 0.0
N5 N 0.29085 0.35377 0.05037 0.0
C6 C 0.33997 0.34256 0.04315 0.0
C7 C 0.41166 0.39618 0.04681 0.0
C8 C 0.43061 0.37237 0.0483 0.0
C9 C 0.47318 0.38965 0.04732 0.0
C10 C 0.49723 0.43061 0.04467 0.0
C11 C 0.47857 0.454 0.0428 0.0
C12 C 0.43602 0.43683 0.04381 0.0
Cd13 Cd 0.36053 0.30749 0.02263 0.0
Cd14 Cd 0.31342 0.30465 0.01002 0.0
C15 C 0.30747 0.42864 0.07076 0.0
C16 C 0.3386 0.49384 0.0788 0.0
C17 C 0.32477 0.4722 0.0868 0.0
C18 C 0.30014 0.42927 0.0869 0.0
C19 C 0.29221 0.40746 0.07887 0.0
C20 C 0.3287 0.47196 0.07075 0.0
Co21 Co 0.33717 0.39619 0.0555 0.0
N22 N 0.33974 0.36252 0.06508 0.0
N23 N 0.38317 0.43929 0.06064 0.0
C24 C 0.39283 0.43171 0.06867 0.0
C25 C 0.42239 0.46472 0.07369 0.0
C26 C 0.4393 0.50481 0.0701 0.0
C27 C 0.42563 0.5112 0.06181 0.0
C28 C 0.39591 0.47665 0.0572 0.0
N29 N 0.34095 0.43714 0.04703 0.0
N30 N 0.36764 0.37822 0.04759 0.0
N31 N 0.29881 0.40592 0.06255 0.0
O32 O 0.35592 0.31506 0.99771 0.0
O33 O 0.36769 0.27886 1.00754 0.0
C34 C 0.44662 0.35325 0.02415 0.0
O35 O 0.42646 0.36541 0.01948 0.0
O36 O 0.42641 0.31896 0.02818 0.0
C37 C 0.28071 0.21253 0.01814 0.0
O38 O 0.31292 0.23168 0.02294 0.0
O39 O 0.27073 0.23253 0.01285 0.0
C40 C 0.36761 0.38832 0.07129 0.0
O41 O 0.37505 0.37426 0.07866 0.0
O42 O 0.32979 0.35135 0.02223 0.0
O43 O 0.28724 0.35029 0.01211 0.0
C44 C 0.37197 0.47543 0.04933 0.0
O45 O 0.38097 0.50837 0.0446 0.0
C46 C 0.31838 0.4288 0.03895 0.0
C47 C 0.32845 0.41101 0.03208 0.0
C48 C 0.30266 0.3946 0.02472 0.0
C49 C 0.26988 0.40195 0.02362 0.0
C50 C 0.2619 0.42413 0.03011 0.0
C51 C 0.28563 0.43651 0.03796 0.0
C52 C 0.36814 0.28987 0.99947 0.0
O53 O 0.35092 0.31718 0.03895 0.0
C54 C 0.30767 0.36537 0.01917 0.0
C55 C 0.33286 0.32135 0.06405 0.0
C56 C 0.29344 0.28743 0.0627 0.0
C57 C 0.28832 0.2479 0.06185 0.0
C58 C 0.32217 0.24176 0.06263 0.0
C59 C 0.36143 0.27535 0.06438 0.0
C60 C 0.36646 0.31484 0.06474 0.0
C61 C 0.25927 0.37907 0.05989 0.0
O62 O 0.22714 0.37763 0.06379 0.0
H63 H 0.1887 0.31254 0.0512 0.0
H64 H 0.19491 0.26651 0.04 0.0
H65 H 0.26436 0.27754 0.03575 0.0
H66 H 0.41269 0.3403 0.0501 0.0
H67 H 0.53015 0.44393 0.04388 0.0
H68 H 0.42227 0.45493 0.04189 0.0
H69 H 0.33025 0.48928 0.09295 0.0
H70 H 0.2736 0.37417 0.07888 0.0
H71 H 0.33696 0.4886 0.06453 0.0
H72 H 0.43127 0.45996 0.08023 0.0
H73 H 0.46176 0.53097 0.07388 0.0
H74 H 0.43667 0.54203 0.0593 0.0
H75 H 0.35542 0.40776 0.03278 0.0
H76 H 0.25095 0.39072 0.01771 0.0
H77 H 0.27874 0.45183 0.04323 0.0
H78 H 0.26671 0.29124 0.06243 0.0
H79 H 0.31722 0.21075 0.06236 0.0
H80 H 0.39699 0.34086 0.06588 0.0
C81 C 0.9035 0.26116 0.21902 0.0
C82 C 0.89601 0.22387 0.21526 0.0
C83 C 0.92562 0.2247 0.20929 0.0
C84 C 0.96183 0.26215 0.20727 0.0
C85 C 0.9672 0.29815 0.21129 0.0
N86 N 0.93803 0.29546 0.2168 0.0
C87 C 0.0013 0.34067 0.21017 0.0
C88 C 0.02468 0.4138 0.2136 0.0
C89 C 0.06684 0.4296 0.21527 0.0
C90 C 0.09482 0.4716 0.21426 0.0
C91 C 0.08111 0.49816 0.21141 0.0
C92 C 0.03961 0.48249 0.20933 0.0
C93 C 0.0116 0.44049 0.21035 0.0
Cd94 Cd 0.04567 0.35367 0.18915 0.0
Cd95 Cd 0.98716 0.27343 0.17591 0.0
C96 C 0.88188 0.31765 0.23676 0.0
C97 C 0.84524 0.34635 0.24479 0.0
C98 C 0.85129 0.33052 0.25272 0.0
C99 C 0.87025 0.30652 0.25271 0.0
C100 C 0.88617 0.30069 0.24477 0.0
C101 C 0.85998 0.33923 0.23675 0.0
Co102 Co 0.94616 0.34343 0.22197 0.0
N103 N 0.97881 0.34094 0.23183 0.0
N104 N 0.95315 0.39096 0.22721 0.0
C105 C 0.96911 0.39833 0.23537 0.0
C106 C 0.96757 0.4287 0.2405 0.0
C107 C 0.94745 0.44881 0.23688 0.0
C108 C 0.9284 0.43749 0.22845 0.0
C109 C 0.93121 0.40682 0.22373 0.0
N110 N 0.9138 0.35286 0.21316 0.0
N111 N -0.00392 0.3704 0.21449 0.0
N112 N 0.89529 0.30819 0.22855 0.0
O113 O 0.02765 0.32178 0.16463 0.0
O114 O 0.07771 0.36077 0.17399 0.0
C115 C 0.07595 0.43908 0.18958 0.0
O116 O 0.0419 0.41426 0.1859 0.0
O117 O 0.09626 0.42388 0.19313 0.0
C118 C 0.06422 0.27279 0.18786 0.0
O119 O 0.07782 0.31031 0.19003 0.0
O120 O 0.02996 0.25223 0.18382 0.0
C121 C 0.98336 0.36978 0.23804 0.0
O122 O 0.0034 0.3746 0.24553 0.0
O123 O 0.97249 0.31485 0.18754 0.0
O124 O 0.92158 0.26442 0.1806 0.0
C125 C 0.90875 0.38513 0.21565 0.0
O126 O 0.88679 0.39688 0.21096 0.0
C127 C 0.89576 0.32871 0.20537 0.0
C128 C 0.92137 0.32798 0.19878 0.0
C129 C 0.90552 0.29859 0.19201 0.0
C130 C 0.86287 0.27375 0.19115 0.0
C131 C 0.83649 0.2781 0.19712 0.0
C132 C 0.85296 0.30475 0.20442 0.0
C133 C 0.06485 0.34914 0.16607 0.0
O134 O 0.03586 0.34891 0.20561 0.0
C135 C 0.93409 0.29297 0.18628 0.0
C136 C 0.00971 0.32888 0.23102 0.0
C137 C -0.00092 0.28792 0.22949 0.0
C138 C 0.0299 0.27778 0.22817 0.0
C139 C 0.07152 0.30803 0.22872 0.0
C140 C 0.08292 0.34898 0.23083 0.0
C141 C 0.05153 0.35888 0.23177 0.0
C142 C 0.87905 0.26833 0.22569 0.0
O143 O 0.84582 0.23781 0.22929 0.0
H144 H 0.86857 0.19517 0.21691 0.0
H145 H 0.92062 0.19636 0.20628 0.0
H146 H 0.98449 0.26286 0.2027 0.0
H147 H 0.07819 0.40937 0.21721 0.0
H148 H 0.10277 0.53065 0.21061 0.0
H149 H 0.9803 0.42896 0.20824 0.0
H150 H 0.8379 0.33385 0.25884 0.0
H151 H 0.90032 0.28155 0.24472 0.0
H152 H 0.85336 0.34928 0.23054 0.0
H153 H 0.98024 0.43576 0.24715 0.0
H154 H 0.94525 0.47199 0.24075 0.0
H155 H 0.91085 0.45106 0.2259 0.0
H156 H 0.95395 0.34967 0.19912 0.0
H157 H 0.85014 0.25226 0.18566 0.0
H158 H 0.83277 0.30689 0.20928 0.0
H159 H 0.96718 0.26385 0.22927 0.0
H160 H 0.09451 0.29896 0.22776 0.0
H161 H 0.05928 0.39005 0.23337 0.0
C162 C 0.65266 0.91309 0.38622 0.0
C163 C 0.68525 0.91035 0.38239 0.0
C164 C 0.70926 0.93966 0.37582 0.0
C165 C 0.70069 0.971 0.3733 0.0
C166 C 0.66757 0.97178 0.37741 0.0
N167 N 0.64578 0.94299 0.38348 0.0
C168 C 0.65252 0.00099 0.37598 0.0
C169 C 0.59658 0.01551 0.37983 0.0
C170 C 0.61848 0.05834 0.38116 0.0
C171 C 0.59881 0.08151 0.3803 0.0
C172 C 0.55731 0.06234 0.37792 0.0
C173 C 0.53578 0.02015 0.37616 0.0
C174 C 0.55538 -0.00309 0.37705 0.0
Cd175 Cd 0.68591 0.04906 0.3549 0.0
Cd176 Cd 0.68962 0.00398 0.34273 0.0
C177 C 0.57183 0.88237 0.40397 0.0
C178 C 0.50528 0.84106 0.41122 0.0
C179 C 0.52499 0.85064 0.41947 0.0
C180 C 0.568 0.87381 0.42009 0.0
C181 C 0.59132 0.89026 0.41231 0.0
C182 C 0.52889 0.85594 0.40344 0.0
Co183 Co 0.60266 0.94506 0.38881 0.0
N184 N 0.63671 0.98346 0.39809 0.0
N185 N 0.559 0.94617 0.39416 0.0
C186 C 0.567 0.96427 0.40211 0.0
C187 C 0.53401 0.95964 0.40732 0.0
C188 C 0.49362 0.93445 0.40403 0.0
C189 C 0.48698 0.91361 0.39583 0.0
C190 C 0.52153 0.91977 0.391 0.0
N191 N 0.56165 0.90575 0.3807 0.0
N192 N 0.61693 0.99166 0.38062 0.0
N193 N 0.59629 0.8988 0.39604 0.0
O194 O 0.68244 0.03963 0.33066 0.0
O195 O 0.72094 0.08696 0.34042 0.0
C196 C 0.63107 0.0778 0.35208 0.0
O197 O 0.63036 0.04889 0.34752 0.0
O198 O 0.65795 0.09383 0.35823 0.0
C199 C 0.78068 0.06297 0.35145 0.0
O200 O 0.76153 0.07786 0.35568 0.0
O201 O 0.76089 0.03204 0.3464 0.0
C202 C 0.61099 0.98481 0.40442 0.0
O203 O 0.62527 0.00725 0.41166 0.0
O204 O 0.64516 0.97528 0.35532 0.0
O205 O 0.64333 0.93235 0.34523 0.0
C206 C 0.52302 0.89694 0.38318 0.0
O207 O 0.48987 0.87077 0.37877 0.0
C208 C 0.57023 0.89004 0.37287 0.0
C209 C 0.58637 0.91601 0.36565 0.0
C210 C 0.60344 0.90579 0.35854 0.0
C211 C 0.59887 0.86663 0.3581 0.0
C212 C 0.57886 0.83823 0.36501 0.0
C213 C 0.56561 0.8506 0.37258 0.0
C214 C 0.70921 0.07662 0.33237 0.0
O215 O 0.67555 0.037 0.37147 0.0
C216 C 0.63087 0.93879 0.35255 0.0
C217 C 0.67715 0.01864 0.39671 0.0
C218 C 0.71149 0.01432 0.39493 0.0
C219 C 0.74969 0.04911 0.39317 0.0
C220 C 0.7544 0.08856 0.39353 0.0
C221 C 0.72088 0.09374 0.39588 0.0
C222 C 0.6824 0.05834 0.39725 0.0
C223 C 0.62464 0.88799 0.39341 0.0
O224 O 0.62805 0.85854 0.39737 0.0
H225 H 0.69218 0.88674 0.38441 0.0
H226 H 0.73466 0.93828 0.37275 0.0
H227 H 0.71915 0.99355 0.36832 0.0
H228 H 0.65087 0.07401 0.38274 0.0
H229 H 0.54212 0.0803 0.37724 0.0
H230 H 0.53867 0.9649 0.37522 0.0
H231 H 0.50674 0.83708 0.42541 0.0
H232 H 0.62461 0.90848 0.41271 0.0
H233 H 0.51397 0.84648 0.39704 0.0
H234 H 0.53908 0.97396 0.41379 0.0
H235 H 0.4675 0.92987 0.40797 0.0
H236 H 0.45607 0.89235 0.39356 0.0
H237 H 0.58799 0.94565 0.36589 0.0
H238 H 0.61045 0.8583 0.35233 0.0
H239 H 0.55173 0.82985 0.37815 0.0
H240 H 0.70898 0.98434 0.3949 0.0
H241 H 0.78455 0.11484 0.39228 0.0
H242 H 0.6561 0.06138 0.39905 0.0
C243 C 0.73516 0.64353 0.55291 0.0
C244 C 0.77197 0.67533 0.54941 0.0
C245 C 0.76954 0.70278 0.5433 0.0
C246 C 0.73097 0.69823 0.54087 0.0
C247 C 0.6955 0.66572 0.54464 0.0
N248 N 0.6998 0.64081 0.55036 0.0
C249 C 0.65205 0.65355 0.54301 0.0
C250 C 0.57998 0.59934 0.54599 0.0
C251 C 0.56056 0.62209 0.5481 0.0
C252 C 0.51826 0.6053 0.54673 0.0
C253 C 0.49507 0.56591 0.54312 0.0
C254 C 0.51431 0.54359 0.54074 0.0
C255 C 0.55659 0.56028 0.54212 0.0
Cd256 Cd 0.63535 0.68957 0.5224 0.0
Cd257 Cd 0.70075 0.70968 0.51244 0.0
C258 C 0.67962 0.56407 0.57047 0.0
C259 C 0.64843 0.4992 0.57875 0.0
C260 C 0.66378 0.52166 0.58664 0.0
C261 C 0.68852 0.56451 0.58654 0.0
C262 C 0.69582 0.58574 0.57847 0.0
C263 C 0.65733 0.52068 0.57062 0.0
Co264 Co 0.65253 0.59771 0.555 0.0
N265 N 0.64805 0.62975 0.56469 0.0
N266 N 0.60546 0.55395 0.55959 0.0
C267 C 0.59289 0.56048 0.56739 0.0
C268 C 0.56127 0.52685 0.57188 0.0
C269 C 0.54518 0.48737 0.56801 0.0
C270 C 0.56135 0.48216 0.55993 0.0
C271 C 0.59299 0.51726 0.55584 0.0
N272 N 0.6502 0.55833 0.54631 0.0
N273 N 0.62374 0.6171 0.54706 0.0
N274 N 0.68933 0.58637 0.56219 0.0
O275 O 0.67365 0.71046 0.49847 0.0
O276 O 0.63152 0.71873 0.50728 0.0
C277 C 0.55016 0.63467 0.522 0.0
O278 O 0.57551 0.62876 0.51753 0.0
O279 O 0.56466 0.66711 0.52673 0.0
C280 C 0.71234 0.79053 0.52213 0.0
O281 O 0.67462 0.76567 0.52399 0.0
O282 O 0.73418 0.77708 0.51863 0.0
C283 C 0.6171 0.60354 0.57031 0.0
O284 O 0.60775 0.61663 0.57758 0.0
O285 O 0.67063 0.65046 0.52217 0.0
O286 O 0.72518 0.6628 0.51449 0.0
C287 C 0.61854 0.51973 0.54817 0.0
O288 O 0.61056 0.48763 0.54324 0.0
C289 C 0.67572 0.56829 0.53864 0.0
C290 C 0.66885 0.58847 0.53175 0.0
C291 C 0.6986 0.60838 0.52517 0.0
C292 C 0.73208 0.60193 0.5247 0.0
C293 C 0.73723 0.57755 0.53112 0.0
C294 C 0.70956 0.56197 0.53834 0.0
C295 C 0.6463 0.72053 0.49953 0.0
O296 O 0.64155 0.67917 0.53878 0.0
C297 C 0.69712 0.64051 0.51995 0.0
C298 C 0.66137 0.67301 0.56442 0.0
C299 C 0.7033 0.70288 0.5642 0.0
C300 C 0.71543 0.74474 0.56429 0.0
C301 C 0.68595 0.75712 0.56486 0.0
C302 C 0.644 0.7275 0.56536 0.0
C303 C 0.63198 0.68577 0.56492 0.0
C304 C 0.7293 0.61261 0.55967 0.0
O305 O 0.76068 0.6128 0.56363 0.0
H306 H 0.80149 0.67909 0.55134 0.0
H307 H 0.7975 0.72759 0.54047 0.0
H308 H 0.72904 0.71903 0.53616 0.0
H309 H 0.57805 0.653 0.55068 0.0
H310 H 0.46237 0.55298 0.54203 0.0
H311 H 0.57101 0.54319 0.53988 0.0
H312 H 0.6596 0.50544 0.59286 0.0
H313 H 0.71505 0.61897 0.57836 0.0
H314 H 0.64799 0.50373 0.56445 0.0
H315 H 0.55003 0.53068 0.57823 0.0
H316 H 0.52106 0.46074 0.57139 0.0
H317 H 0.55043 0.45178 0.55717 0.0
H318 H 0.64161 0.59149 0.53198 0.0
H319 H 0.75356 0.61545 0.51924 0.0
H320 H 0.71417 0.54518 0.54365 0.0
H321 H 0.72671 0.69412 0.56426 0.0
H322 H 0.69596 0.7896 0.56537 0.0
H323 H 0.59962 0.66303 0.56557 0.0
C324 C 0.08477 0.72898 0.71902 0.0
C325 C 0.09265 0.76574 0.71492 0.0
C326 C 0.06419 0.76392 0.70849 0.0
C327 C 0.02858 0.72607 0.70637 0.0
C328 C 0.02273 0.6906 0.71074 0.0
N329 N 0.0511 0.69422 0.71662 0.0
C330 C 0.98872 0.64777 0.70973 0.0
C331 C 0.96714 0.5753 0.71355 0.0
C332 C 0.92556 0.55643 0.71602 0.0
C333 C 0.89956 0.5141 0.71487 0.0
C334 C 0.91483 0.49027 0.71115 0.0
C335 C 0.95591 0.50891 0.70844 0.0
C336 C 0.98192 0.55124 0.70959 0.0
Cd337 Cd 0.94269 0.63219 0.68865 0.0
Cd338 Cd -0.00501 0.68795 0.67637 0.0
C339 C 0.10288 0.67358 0.73776 0.0
C340 C 0.13777 0.64324 0.74581 0.0
C341 C 0.13071 0.658 0.75378 0.0
C342 C 0.1123 0.68263 0.75381 0.0
C343 C 0.09769 0.6897 0.74579 0.0
C344 C 0.1245 0.65179 0.73776 0.0
Co345 Co 0.04129 0.6473 0.72253 0.0
N346 N 0.00613 0.65178 0.73149 0.0
N347 N 0.03196 0.60053 0.72845 0.0
C348 C 0.01112 0.59269 0.73605 0.0
C349 C 0.00783 0.56069 0.74142 0.0
C350 C 0.02793 0.53917 0.73859 0.0
C351 C 0.05119 0.55028 0.73064 0.0
C352 C 0.05296 0.58252 0.72561 0.0
N353 N 0.07592 0.6362 0.71476 0.0
N354 N 0.99355 0.61901 0.71455 0.0
N355 N 0.09005 0.68334 0.72953 0.0
O356 O 0.96132 0.64763 0.66386 0.0
O357 O 0.90995 0.62503 0.67336 0.0
C358 C 0.90708 0.54634 0.68957 0.0
O359 O 0.94023 0.56899 0.68534 0.0
O360 O 0.88948 0.56388 0.69336 0.0
C361 C 0.93243 0.71653 0.68489 0.0
O362 O 0.9163 0.68151 0.68874 0.0
O363 O 0.96508 0.72911 0.68032 0.0
C364 C -0.00398 0.62157 0.73776 0.0
O365 O 0.97172 0.61673 0.74451 0.0
O366 O 0.01663 0.6622 0.68873 0.0
O367 O 0.06454 0.70676 0.67993 0.0
C368 C 0.07818 0.60291 0.7177 0.0
O369 O 0.10002 0.58933 0.71358 0.0
C370 C 0.09496 0.65842 0.70684 0.0
C371 C 0.06994 0.65424 0.69969 0.0
C372 C 0.08452 0.68256 0.69271 0.0
C373 C 0.12627 0.71198 0.69235 0.0
C374 C 0.15297 0.71377 0.69913 0.0
C375 C 0.13704 0.6875 0.70653 0.0
C376 C 0.92292 0.62967 0.66535 0.0
O377 O 0.95382 0.63872 0.70516 0.0
C378 C 0.05433 0.68328 0.68663 0.0
C379 C 0.98152 0.67105 0.73018 0.0
C380 C -0.00049 0.71391 0.72958 0.0
C381 C 0.97495 0.73165 0.72795 0.0
C382 C 0.9322 0.70689 0.72713 0.0
C383 C 0.91354 0.66398 0.72808 0.0
C384 C 0.9386 0.64655 0.72958 0.0
C385 C 0.10706 0.72286 0.7264 0.0
O386 O 0.13937 0.75378 0.73016 0.0
H387 H 0.11933 0.79482 0.7167 0.0
H388 H 0.06948 0.79187 0.70522 0.0
H389 H 0.00666 0.72469 0.7015 0.0
H390 H 0.91318 0.57443 0.71874 0.0
H391 H 0.8947 0.45753 0.71023 0.0
H392 H 0.01307 0.56501 0.70716 0.0
H393 H 0.14334 0.65362 0.7599 0.0
H394 H 0.08351 0.70881 0.74571 0.0
H395 H 0.13204 0.64263 0.73155 0.0
H396 H 0.99113 0.55309 0.74764 0.0
H397 H 0.02629 0.51459 0.74266 0.0
H398 H 0.06789 0.53493 0.72864 0.0
H399 H 0.03802 0.63027 0.6999 0.0
H400 H 0.13804 0.73305 0.68677 0.0
H401 H 0.15691 0.69003 0.71201 0.0
H402 H 0.03225 0.7337 0.73048 0.0
H403 H 0.91371 0.72136 0.72609 0.0
H404 H 0.92459 0.61381 0.73075 0.0
C405 C 0.34589 0.08708 0.88562 0.0
C406 C 0.31499 0.09287 0.88185 0.0
C407 C 0.28907 0.06429 0.87537 0.0
C408 C 0.29418 0.03073 0.87286 0.0
C409 C 0.32577 0.02698 0.87691 0.0
N410 N 0.34948 0.05513 0.88292 0.0
C411 C 0.33747 0.9953 0.87543 0.0
C412 C 0.39028 0.97585 0.87873 0.0
C413 C 0.36621 0.93294 0.87978 0.0
C414 C 0.3829 0.90753 0.87813 0.0
C415 C 0.42359 0.92458 0.87526 0.0
C416 C 0.44724 0.96693 0.87381 0.0
C417 C 0.43061 0.99239 0.87548 0.0
Cd418 Cd 0.30552 0.94959 0.85423 0.0
Cd419 Cd 0.29052 0.00036 0.8432 0.0
C420 C 0.42492 0.11154 0.90344 0.0
C421 C 0.49116 0.14912 0.91104 0.0
C422 C 0.47055 0.1439 0.9191 0.0
C423 C 0.42762 0.12486 0.91938 0.0
C424 C 0.40474 0.10767 0.9116 0.0
C425 C 0.4683 0.13412 0.90316 0.0
Co426 Co 0.39057 0.04911 0.88815 0.0
N427 N 0.35502 0.01246 0.8975 0.0
N428 N 0.43218 0.04401 0.89344 0.0
C429 C 0.42328 0.02652 0.90146 0.0
C430 C 0.4553 0.02868 0.90665 0.0
C431 C 0.49588 0.05101 0.90327 0.0
C432 C 0.50376 0.07157 0.89501 0.0
C433 C 0.47013 0.06797 0.8902 0.0
N434 N 0.43293 0.08603 0.87995 0.0
N435 N 0.37235 0.00169 0.87998 0.0
N436 N 0.40109 0.09698 0.89538 0.0
O437 O 0.29326 0.96898 0.82985 0.0
O438 O 0.27757 0.91766 0.83907 0.0
C439 C 0.35889 0.91729 0.85361 0.0
O440 O 0.3666 0.95005 0.84952 0.0
O441 O 0.3257 0.8992 0.85811 0.0
C442 C 0.20628 0.93076 0.85278 0.0
O443 O 0.22939 0.91645 0.85518 0.0
O444 O 0.22174 0.96563 0.84898 0.0
C445 C 0.37971 0.00948 0.90387 0.0
O446 O 0.36433 0.98753 0.91114 0.0
O447 O 0.34481 0.0237 0.85438 0.0
O448 O 0.34038 0.07032 0.84653 0.0
C449 C 0.47058 0.09191 0.8824 0.0
O450 O 0.50444 0.1164 0.878 0.0
C451 C 0.42613 0.1041 0.87228 0.0
C452 C 0.40556 0.07882 0.86516 0.0
C453 C 0.38938 0.09221 0.85843 0.0
C454 C 0.39966 0.13346 0.85816 0.0
C455 C 0.42475 0.16081 0.86484 0.0
C456 C 0.43683 0.1456 0.8721 0.0
C457 C 0.27949 0.93091 0.83116 0.0
O458 O 0.31266 0.96041 0.87077 0.0
C459 C 0.35809 0.06123 0.85254 0.0
C460 C 0.31404 0.97832 0.89606 0.0
C461 C 0.28063 0.98417 0.89428 0.0
C462 C 0.24175 0.95021 0.89256 0.0
C463 C 0.23551 0.91015 0.89294 0.0
C464 C 0.26823 0.90354 0.89521 0.0
C465 C 0.30736 0.93806 0.89653 0.0
C466 C 0.37525 0.11097 0.8927 0.0
O467 O 0.37506 0.14235 0.89657 0.0
H468 H 0.31076 0.11825 0.88385 0.0
H469 H 0.26493 0.06801 0.87234 0.0
H470 H 0.27432 0.00877 0.86792 0.0
H471 H 0.33426 0.91891 0.88167 0.0
H472 H 0.43647 0.90491 0.87396 0.0
H473 H 0.44873 0.02447 0.8738 0.0
H474 H 0.48822 0.15784 0.92509 0.0
H475 H 0.37145 0.09315 0.91178 0.0
H476 H 0.48421 0.14126 0.89686 0.0
H477 H 0.44944 0.01472 0.91318 0.0
H478 H 0.52132 0.05374 0.9072 0.0
H479 H 0.53502 0.09087 0.89268 0.0
H480 H 0.39995 0.0476 0.86522 0.0
H481 H 0.38891 0.14431 0.85267 0.0
H482 H 0.45431 0.1657 0.87754 0.0
H483 H 0.28444 0.0147 0.89421 0.0
H484 H 0.20487 0.88452 0.89176 0.0
H485 H 0.33307 0.9339 0.89825 0.0
C486 C 0.63859 0.7273 0.7979 0.0
C487 C 0.66826 0.76355 0.80202 0.0
C488 C 0.69565 0.76086 0.8081 0.0
C489 C 0.69329 0.72265 0.80986 0.0
C490 C 0.66282 0.68772 0.8055 0.0
N491 N 0.63746 0.6921 0.79993 0.0
C492 C 0.65428 0.6449 0.80611 0.0
C493 C 0.60541 0.57296 0.80148 0.0
C494 C 0.63255 0.55807 0.79979 0.0
C495 C 0.61853 0.51583 0.79996 0.0
C496 C 0.57741 0.48802 0.80196 0.0
C497 C 0.55059 0.50255 0.80402 0.0
C498 C 0.56459 0.54479 0.80386 0.0
Cd499 Cd 0.69045 0.62468 0.8264 0.0
Cd500 Cd 0.7062 0.69052 0.83677 0.0
C501 C 0.56135 0.67484 0.77966 0.0
C502 C 0.49511 0.64733 0.77214 0.0
C503 C 0.51564 0.6611 0.76402 0.0
C504 C 0.55869 0.68396 0.76364 0.0
C505 C 0.58155 0.69048 0.77148 0.0
C506 C 0.51804 0.65483 0.78 0.0
Co507 Co 0.59871 0.64581 0.79407 0.0
N508 N 0.63594 0.65054 0.78446 0.0
N509 N 0.55923 0.59995 0.78813 0.0
C510 C 0.56963 0.59467 0.77996 0.0
C511 C 0.53889 0.56603 0.77435 0.0
C512 C 0.49786 0.54538 0.7775 0.0
C513 C 0.48826 0.55452 0.78598 0.0
C514 C 0.52067 0.58357 0.79121 0.0
N515 N 0.55476 0.63459 0.80248 0.0
N516 N 0.61993 0.61651 0.80139 0.0
N517 N 0.58513 0.68311 0.78771 0.0
O518 O 0.70877 0.6621 0.85048 0.0
O519 O 0.71405 0.61712 0.84201 0.0
C520 C 0.63973 0.53911 0.82458 0.0
O521 O 0.62873 0.56169 0.82864 0.0
O522 O 0.67607 0.55633 0.8214 0.0
C523 C 0.78882 0.70833 0.82666 0.0
O524 O 0.76663 0.66995 0.82499 0.0
O525 O 0.77268 0.72786 0.83012 0.0
C526 C 0.61304 0.6235 0.77784 0.0
O527 O 0.62987 0.62055 0.77041 0.0
O528 O 0.64559 0.65394 0.82733 0.0
O529 O 0.65248 0.70634 0.83506 0.0
C530 C 0.51812 0.60303 0.79949 0.0
O531 O 0.48356 0.58966 0.80395 0.0
C532 C 0.5595 0.65414 0.81089 0.0
C533 C 0.58238 0.64846 0.81738 0.0
C534 C 0.59663 0.67428 0.82478 0.0
C535 C 0.58063 0.70004 0.82657 0.0
C536 C 0.55178 0.70104 0.82076 0.0
C537 C 0.54294 0.67977 0.81261 0.0
C538 C 0.71609 0.63273 0.84968 0.0
O539 O 0.6813 0.63577 0.81018 0.0
C540 C 0.63177 0.67723 0.82969 0.0
C541 C 0.67876 0.6626 0.78555 0.0
C542 C 0.70866 0.70333 0.78745 0.0
C543 C 0.74973 0.71368 0.7887 0.0
C544 C 0.7616 0.68392 0.78771 0.0
C545 C 0.73242 0.64334 0.7853 0.0
C546 C 0.69103 0.63305 0.78448 0.0
C547 C 0.60882 0.72227 0.79093 0.0
O548 O 0.60729 0.75383 0.78754 0.0
H549 H 0.67061 0.79291 0.80054 0.0
H550 H 0.71894 0.7884 0.81138 0.0
H551 H 0.71443 0.72059 0.81445 0.0
H552 H 0.66466 0.57908 0.79845 0.0
H553 H 0.56657 0.45533 0.8021 0.0
H554 H 0.54385 0.55522 0.80593 0.0
H555 H 0.49781 0.65703 0.75803 0.0
H556 H 0.6149 0.70833 0.77128 0.0
H557 H 0.50232 0.6461 0.78633 0.0
H558 H 0.54599 0.56071 0.76768 0.0
H559 H 0.47337 0.52354 0.77326 0.0
H560 H 0.45661 0.54061 0.78819 0.0
H561 H 0.59128 0.62552 0.81631 0.0
H562 H 0.59042 0.71919 0.83247 0.0
H563 H 0.52294 0.68239 0.80778 0.0
H564 H 0.70052 0.72713 0.78792 0.0
H565 H 0.79378 0.6931 0.78851 0.0
H566 H 0.66808 0.60207 0.7826 0.0
C567 C 0.90633 0.64138 0.9633 0.0
C568 C 0.90023 0.67257 0.96678 0.0
C569 C 0.93071 0.70176 0.97254 0.0
C570 C 0.9664 0.69957 0.97461 0.0
C571 C 0.97044 0.66763 0.97085 0.0
N572 N 0.94043 0.64075 0.96555 0.0
C573 C 0.00378 0.65805 0.97211 0.0
C574 C 0.02511 0.60634 0.96909 0.0
C575 C 0.06726 0.63105 0.96711 0.0
C576 C 0.09432 0.61595 0.96832 0.0
C577 C 0.0798 0.57634 0.97167 0.0
C578 C 0.03842 0.55226 0.97404 0.0
C579 C 0.0113 0.5673 0.97284 0.0
Cd580 Cd 0.04688 0.68983 0.99332 0.0
Cd581 Cd 0.98872 0.71342 1.00707 0.0
C582 C 0.88123 0.55968 0.94624 0.0
C583 C 0.84642 0.49332 0.93865 0.0
C584 C 0.85263 0.51376 0.93053 0.0
C585 C 0.87048 0.5566 0.93016 0.0
C586 C 0.88528 0.57957 0.93803 0.0
C587 C 0.86006 0.51634 0.94655 0.0
Co588 Co 0.9467 0.59907 0.96075 0.0
N589 N 0.97853 0.63165 0.95059 0.0
N590 N 0.95199 0.55681 0.95587 0.0
C591 C 0.96674 0.56335 0.94761 0.0
C592 C 0.96385 0.53012 0.94277 0.0
C593 C 0.94369 0.49075 0.94678 0.0
C594 C 0.92591 0.48519 0.95531 0.0
C595 C 0.93004 0.51992 0.95973 0.0
N596 N 0.91458 0.55938 0.96993 0.0
N597 N -0.00263 0.62219 0.96804 0.0
N598 N 0.89551 0.58371 0.95428 0.0
O599 O 0.02922 0.70241 0.01785 0.0
O600 O 0.07974 0.71489 0.00848 0.0
C601 C 0.07141 0.62996 0.99369 0.0
O602 O 0.03703 0.62322 0.9968 0.0
O603 O 0.09502 0.66533 0.99035 0.0
C604 C 0.0669 0.78992 0.99482 0.0
O605 O 0.08019 0.76591 0.99244 0.0
O606 O 0.03317 0.77637 0.99907 0.0
C607 C 0.98124 0.60563 0.94454 0.0
O608 O 0.00056 0.61902 0.93691 0.0
O609 O 0.974 0.65888 0.99532 0.0
O610 O 0.92284 0.65844 1.00213 0.0
C611 C 0.90867 0.52135 0.9678 0.0
O612 O 0.88661 0.48874 0.97278 0.0
C613 C 0.89691 0.56722 0.97756 0.0
C614 C 0.92276 0.59467 0.98397 0.0
C615 C 0.90699 0.60847 0.9907 0.0
C616 C 0.86431 0.59014 0.99171 0.0
C617 C 0.83777 0.55854 0.98593 0.0
C618 C 0.85413 0.54801 0.97866 0.0
C619 C 0.06656 0.71264 0.01641 0.0
O620 O 0.0384 0.68371 0.97675 0.0
C621 C 0.93551 0.64268 0.99641 0.0
C622 C 0.01108 0.67389 0.95108 0.0
C623 C 0.00317 0.70645 0.95217 0.0
C624 C 0.03602 0.74705 0.95263 0.0
C625 C 0.07678 0.75551 0.95172 0.0
C626 C 0.08469 0.72315 0.95024 0.0
C627 C 0.05188 0.68272 0.95024 0.0
C628 C 0.88066 0.6089 0.9569 0.0
O629 O 0.84768 0.60675 0.95328 0.0
H630 H 0.87318 0.67455 0.9651 0.0
H631 H 0.92675 0.72614 0.97535 0.0
H632 H 0.9897 0.72181 0.97903 0.0
H633 H 0.07951 0.66219 0.96474 0.0
H634 H 0.10075 0.56469 0.97262 0.0
H635 H 0.98018 0.54902 0.97519 0.0
H636 H 0.84002 0.4958 0.92451 0.0
H637 H 0.89925 0.61279 0.93781 0.0
H638 H 0.85341 0.50064 0.95288 0.0
H639 H 0.9755 0.53407 0.93605 0.0
H640 H 0.94041 0.46438 0.94314 0.0
H641 H 0.90823 0.45473 0.95816 0.0
H642 H 0.95537 0.60576 0.98359 0.0
H643 H 0.85177 0.59901 0.99722 0.0
H644 H 0.83385 0.52485 0.97395 0.0
H645 H 0.97193 0.7007 0.95259 0.0
H646 H 0.1016 0.78718 0.95169 0.0
H647 H 0.0582 0.65773 0.94927 0.0
C648 C 0.25477 0.90534 0.13047 0.0
C649 C 0.21858 0.8998 0.13445 0.0
C650 C 0.22198 0.92889 0.14088 0.0
C651 C 0.26087 0.96276 0.14312 0.0
C652 C 0.29569 0.96625 0.13887 0.0
N653 N 0.2906 0.93751 0.13295 0.0
C654 C 0.33909 -0.00146 0.13996 0.0
C655 C 0.41101 0.01856 0.13601 0.0
C656 C 0.42897 0.06136 0.13488 0.0
C657 C 0.4714 0.08727 0.13593 0.0
C658 C 0.49629 0.07087 0.13831 0.0
C659 C 0.47856 0.02869 0.13986 0.0
C660 C 0.43614 0.00273 0.13879 0.0
Cd661 Cd 0.35793 0.04956 0.16084 0.0
Cd662 Cd 0.29662 0.0001 0.17207 0.0
C663 C 0.30714 0.87989 0.11231 0.0
C664 C 0.33631 0.84288 0.1047 0.0
C665 C 0.32246 0.84963 0.09658 0.0
C666 C 0.29861 0.86883 0.09625 0.0
C667 C 0.29154 0.88457 0.10413 0.0
C668 C 0.32757 0.857 0.11259 0.0
Co669 Co 0.33696 0.94373 0.1273 0.0
N670 N 0.33572 0.97936 0.11797 0.0
N671 N 0.38285 0.94894 0.12157 0.0
C672 C 0.38948 0.96554 0.11347 0.0
C673 C 0.41817 0.96295 0.10795 0.0
C674 C 0.43735 0.9411 0.1111 0.0
C675 C 0.42664 0.92135 0.11946 0.0
C676 C 0.39765 0.92529 0.1246 0.0
N677 N 0.34465 0.90774 0.13543 0.0
N678 N 0.36709 0.99205 0.13521 0.0
N679 N 0.29874 0.89512 0.12038 0.0
O680 O 0.33075 0.02998 0.18547 0.0
O681 O 0.36406 0.08173 0.17623 0.0
C682 C 0.44409 0.08724 0.15944 0.0
O683 O 0.42288 0.05449 0.1639 0.0
O684 O 0.42494 0.10304 0.15562 0.0
C685 C 0.27667 0.06642 0.16278 0.0
O686 O 0.31355 0.0812 0.15999 0.0
O687 O 0.25905 0.03218 0.16686 0.0
C688 C 0.36208 0.98189 0.11132 0.0
O689 O 0.36684 0.003 0.104 0.0
O690 O 0.32566 0.97499 0.16098 0.0
O691 O 0.27569 0.92972 0.16931 0.0
C692 C 0.37605 0.90195 0.13261 0.0
O693 O 0.38707 0.87849 0.13693 0.0
C694 C 0.32272 0.89121 0.14352 0.0
C695 C 0.32875 0.91807 0.1504 0.0
C696 C 0.30155 0.9057 0.15758 0.0
C697 C 0.27227 0.86408 0.15855 0.0
C698 C 0.26996 0.83547 0.15222 0.0
C699 C 0.29431 0.84922 0.1445 0.0
C700 C 0.35414 0.06817 0.18417 0.0
O701 O 0.34934 0.03399 0.14443 0.0
C702 C 0.30189 0.93779 0.1632 0.0
C703 C 0.3291 0.01363 0.11948 0.0
C704 C 0.29019 0.00794 0.12157 0.0
C705 C 0.28545 0.04207 0.12326 0.0
C706 C 0.31907 0.0821 0.12255 0.0
C707 C 0.35799 0.08848 0.12 0.0
C708 C 0.36249 0.05386 0.1187 0.0
C709 C 0.25932 0.88114 0.12331 0.0
O710 O 0.22733 0.84962 0.11961 0.0
H711 H 0.18877 0.87429 0.13262 0.0
H712 H 0.19451 0.9254 0.14406 0.0
H713 H 0.26351 0.98521 0.14799 0.0
H714 H 0.4102 0.07491 0.13334 0.0
H715 H 0.5291 0.09093 0.13915 0.0
H716 H 0.42312 0.97082 0.14054 0.0
H717 H 0.32731 0.83666 0.09057 0.0
H718 H 0.27329 0.89968 0.10394 0.0
H719 H 0.33589 0.84944 0.1189 0.0
H720 H 0.42463 0.97617 0.10135 0.0
H721 H 0.45917 0.93804 0.10692 0.0
H722 H 0.43921 0.90231 0.12163 0.0
H723 H 0.35358 0.94948 0.14985 0.0
H724 H 0.25219 0.85381 0.16431 0.0
H725 H 0.29127 0.82764 0.13936 0.0
H726 H 0.26358 0.9774 0.1219 0.0
H727 H 0.31419 0.10784 0.12372 0.0
H728 H 0.39206 0.05791 0.11674 0.0
C729 C 0.34776 0.26603 0.29869 0.0
C730 C 0.3174 0.23118 0.30311 0.0
C731 C 0.29172 0.23651 0.30923 0.0
C732 C 0.29636 0.2759 0.31074 0.0
C733 C 0.32737 0.30934 0.30609 0.0
N734 N 0.35109 0.30239 0.30052 0.0
C735 C 0.33881 0.35321 0.30652 0.0
C736 C 0.39271 0.42335 0.30173 0.0
C737 C 0.37278 0.4434 0.29822 0.0
C738 C 0.39217 0.48636 0.2982 0.0
C739 C 0.43159 0.50969 0.30179 0.0
C740 C 0.45123 0.49001 0.30556 0.0
C741 C 0.43184 0.44704 0.30557 0.0
Cd742 Cd 0.29981 0.36733 0.32706 0.0
Cd743 Cd 0.2931 0.31335 0.33773 0.0
C744 C 0.42275 0.31314 0.27975 0.0
C745 C 0.48811 0.33945 0.27184 0.0
C746 C 0.46641 0.32302 0.26394 0.0
C747 C 0.42341 0.29969 0.2639 0.0
C748 C 0.40153 0.29522 0.27179 0.0
C749 C 0.46619 0.33372 0.2798 0.0
Co750 Co 0.38998 0.34659 0.29418 0.0
N751 N 0.3514 0.3422 0.28494 0.0
N752 N 0.42916 0.3907 0.28785 0.0
C753 C 0.41714 0.39767 0.28003 0.0
C754 C 0.44693 0.42751 0.27443 0.0
C755 C 0.48846 0.44786 0.27731 0.0
C756 C 0.49942 0.43777 0.28555 0.0
C757 C 0.46791 0.40769 0.29079 0.0
N758 N 0.43477 0.3571 0.30219 0.0
N759 N 0.37316 0.37919 0.30152 0.0
N760 N 0.39996 0.30678 0.28789 0.0
O761 O 0.294 0.34507 0.35116 0.0
O762 O 0.26375 0.36645 0.3418 0.0
C763 C 0.34518 0.45239 0.32933 0.0
O764 O 0.34714 0.4271 0.33464 0.0
O765 O 0.32142 0.4381 0.32262 0.0
C766 C 0.20504 0.28246 0.32842 0.0
O767 O 0.22463 0.31903 0.32534 0.0
O768 O 0.224 0.26854 0.33296 0.0
C769 C 0.37281 0.37036 0.27838 0.0
O770 O 0.35441 0.3747 0.27136 0.0
O771 O 0.34889 0.34248 0.32711 0.0
O772 O 0.34432 0.29447 0.33609 0.0
C773 C 0.47121 0.38857 0.29908 0.0
O774 O 0.5062 0.4016 0.30333 0.0
C775 C 0.43022 0.33682 0.31048 0.0
C776 C 0.41142 0.34556 0.31739 0.0
C777 C 0.39542 0.31907 0.32466 0.0
C778 C 0.40468 0.28764 0.32571 0.0
C779 C 0.42702 0.28047 0.31912 0.0
C780 C 0.43877 0.30461 0.31133 0.0
C781 C 0.27135 0.36071 0.34981 0.0
O782 O 0.31411 0.36542 0.31058 0.0
C783 C 0.36302 0.32006 0.32993 0.0
C784 C 0.30763 0.32502 0.2861 0.0
C785 C 0.2813 0.28263 0.28724 0.0
C786 C 0.23935 0.26711 0.28889 0.0
C787 C 0.22307 0.29354 0.28917 0.0
C788 C 0.24865 0.33588 0.2876 0.0
C789 C 0.29081 0.35107 0.28605 0.0
C790 C 0.37558 0.26844 0.29148 0.0
O791 O 0.37498 0.23548 0.28829 0.0
H792 H 0.31314 0.2009 0.30179 0.0
H793 H 0.26794 0.21008 0.31273 0.0
H794 H 0.27658 0.27996 0.31538 0.0
H795 H 0.34238 0.42589 0.29552 0.0
H796 H 0.44659 0.54294 0.30179 0.0
H797 H 0.44732 0.43264 0.3087 0.0
H798 H 0.48327 0.32563 0.25787 0.0
H799 H 0.36819 0.27696 0.27181 0.0
H800 H 0.48284 0.34425 0.28599 0.0
H801 H 0.43868 0.43435 0.26802 0.0
H802 H 0.51221 0.47075 0.27308 0.0
H803 H 0.53132 0.45221 0.28761 0.0
H804 H 0.40575 0.37097 0.31666 0.0
H805 H 0.39395 0.26856 0.3316 0.0
H806 H 0.45349 0.29791 0.30589 0.0
H807 H 0.29288 0.26148 0.28677 0.0
H808 H 0.19039 0.28068 0.29033 0.0
H809 H 0.31055 0.38315 0.28439 0.0
C810 C 0.08091 0.35007 0.46454 0.0
C811 C 0.08403 0.31722 0.4681 0.0
C812 C 0.05151 0.28859 0.47355 0.0
C813 C 0.0167 0.29291 0.47524 0.0
C814 C 0.01573 0.32653 0.47146 0.0
N815 N 0.04763 0.35282 0.46647 0.0
C816 C 0.98348 0.338 0.47228 0.0
C817 C 0.96648 0.39251 0.46854 0.0
C818 C 0.92481 0.36932 0.46604 0.0
C819 C 0.89954 0.3869 0.46622 0.0
C820 C 0.91527 0.42741 0.46911 0.0
C821 C 0.95597 0.44997 0.47204 0.0
C822 C 0.98136 0.43253 0.47182 0.0
Cd823 Cd 0.92616 0.29212 0.49226 0.0
Cd824 Cd 0.97252 0.2668 0.50003 0.0
C825 C 0.11069 0.43001 0.4469 0.0
C826 C 0.14646 0.49429 0.43852 0.0
C827 C 0.13851 0.4715 0.43067 0.0
C828 C 0.11911 0.42857 0.43085 0.0
C829 C 0.10486 0.40779 0.43896 0.0
C830 C 0.13313 0.47339 0.44669 0.0
Co831 Co 0.04462 0.39566 0.46128 0.0
N832 N 0.01291 0.36335 0.45105 0.0
N833 N 0.04257 0.43912 0.45604 0.0
C834 C 0.02813 0.43257 0.44775 0.0
C835 C 0.03297 0.46614 0.44273 0.0
C836 C 0.05457 0.50574 0.4466 0.0
C837 C 0.07182 0.51114 0.45519 0.0
C838 C 0.06578 0.47609 0.45979 0.0
N839 N 0.07751 0.43556 0.47043 0.0
N840 N 0.99295 0.37492 0.4682 0.0
N841 N 0.09582 0.40811 0.45519 0.0
O842 O 0.94444 0.25586 0.5144 0.0
O843 O 0.89473 0.25869 0.50727 0.0
C844 C 0.89339 0.34387 0.49515 0.0
O845 O 0.92006 0.34284 0.50017 0.0
O846 O 0.88087 0.31982 0.48847 0.0
C847 C 0.90331 0.19159 0.48947 0.0
O848 O 0.88948 0.21658 0.48937 0.0
O849 O 0.94027 0.20423 0.49185 0.0
C850 C 0.01175 0.38974 0.44487 0.0
O851 O 0.99304 0.37663 0.43717 0.0
O852 O 0.00032 0.33502 0.49329 0.0
O853 O 0.04317 0.31813 0.49921 0.0
C854 C 0.08566 0.47409 0.46806 0.0
O855 O 0.1077 0.50657 0.47307 0.0
C856 C 0.09062 0.4266 0.47863 0.0
C857 C 0.06082 0.40101 0.48462 0.0
C858 C 0.07044 0.38188 0.49141 0.0
C859 C 0.11163 0.39577 0.4934 0.0
C860 C 0.14281 0.4279 0.4884 0.0
C861 C 0.13232 0.44155 0.48062 0.0
C862 C 0.90847 0.25095 0.51436 0.0
O863 O 0.94623 0.31189 0.47605 0.0
C864 C 0.03682 0.34448 0.49536 0.0
C865 C 0.97986 0.32127 0.45142 0.0
C866 C 0.98699 0.28831 0.45272 0.0
C867 C 0.95366 0.24797 0.45321 0.0
C868 C 0.9132 0.24013 0.4521 0.0
C869 C 0.90608 0.27281 0.45034 0.0
C870 C 0.93936 0.313 0.45025 0.0
C871 C 0.10854 0.38167 0.45817 0.0
O872 O 0.14076 0.38141 0.45476 0.0
H873 H 0.11024 0.31342 0.46665 0.0
H874 H 0.05309 0.26289 0.47639 0.0
H875 H 0.99171 0.27094 0.47937 0.0
H876 H 0.91156 0.33763 0.464 0.0
H877 H 0.89567 0.44096 0.46927 0.0
H878 H 0.01204 0.44992 0.47448 0.0
H879 H 0.15051 0.48746 0.42441 0.0
H880 H 0.08971 0.37447 0.43913 0.0
H881 H 0.14062 0.49071 0.45282 0.0
H882 H 0.02167 0.46219 0.43598 0.0
H883 H 0.05931 0.53233 0.44283 0.0
H884 H 0.09043 0.54164 0.45796 0.0
H885 H 0.02947 0.39376 0.48352 0.0
H886 H 0.11945 0.38228 0.4989 0.0
H887 H 0.156 0.46408 0.4763 0.0
H888 H 0.01798 0.29355 0.45332 0.0
H889 H 0.888 0.20864 0.45215 0.0
H890 H 0.93366 0.33822 0.44902 0.0
C891 C 0.72801 0.0795 0.63005 0.0
C892 C 0.76434 0.08497 0.63394 0.0
C893 C 0.76111 0.05616 0.64043 0.0
C894 C 0.72224 0.02268 0.64283 0.0
C895 C 0.68726 0.0192 0.63866 0.0
N896 N 0.69224 0.04757 0.63264 0.0
C897 C 0.64381 0.9874 0.63997 0.0
C898 C 0.57184 0.96812 0.63625 0.0
C899 C 0.55324 0.92525 0.6351 0.0
C900 C 0.51083 0.89984 0.6363 0.0
C901 C 0.48661 0.91681 0.63882 0.0
C902 C 0.50497 0.95906 0.64035 0.0
C903 C 0.54737 0.98453 0.63914 0.0
Cd904 Cd 0.62668 0.93845 0.66116 0.0
Cd905 Cd 0.66961 0.98494 0.67443 0.0
C906 C 0.67506 0.10472 0.61199 0.0
C907 C 0.6463 0.14163 0.60409 0.0
C908 C 0.66046 0.13411 0.59608 0.0
C909 C 0.68346 0.114 0.5959 0.0
C910 C 0.69018 0.09877 0.60388 0.0
C911 C 0.6548 0.12787 0.61209 0.0
Co912 Co 0.64565 0.04213 0.62725 0.0
N913 N 0.64485 0.0057 0.61785 0.0
N914 N 0.5995 0.03776 0.62181 0.0
C915 C 0.59183 0.0212 0.6137 0.0
C916 C 0.56311 0.02457 0.60834 0.0
C917 C 0.54502 0.04718 0.61166 0.0
C918 C 0.5569 0.06694 0.62001 0.0
C919 C 0.5859 0.06223 0.62497 0.0
N920 N 0.64007 0.07919 0.63546 0.0
N921 N 0.61574 0.99418 0.63531 0.0
N922 N 0.68365 0.09022 0.62016 0.0
O923 O 0.62459 0.95065 0.68622 0.0
O924 O 0.61705 0.9035 0.67652 0.0
C925 C 0.54124 0.90375 0.66024 0.0
O926 O 0.56416 0.93691 0.66444 0.0
O927 O 0.55837 0.88571 0.65645 0.0
C928 C 0.706 0.92588 0.66737 0.0
O929 O 0.6765 0.91266 0.66177 0.0
O930 O 0.7123 0.95482 0.67267 0.0
C931 C 0.61843 0.00418 0.61133 0.0
O932 O 0.61293 0.98347 0.60391 0.0
O933 O 0.65802 0.01232 0.66118 0.0
O934 O 0.69574 0.05672 0.6714 0.0
C935 C 0.60883 0.08565 0.63285 0.0
O936 O 0.59904 0.10981 0.63727 0.0
C937 C 0.66289 0.09558 0.64346 0.0
C938 C 0.65605 0.06883 0.65039 0.0
C939 C 0.68188 0.08126 0.65781 0.0
C940 C 0.71129 0.12273 0.65882 0.0
C941 C 0.71503 0.1513 0.65231 0.0
C942 C 0.69155 0.13753 0.64446 0.0
C943 C 0.6145 0.91364 0.68453 0.0
O944 O 0.63346 0.95212 0.64457 0.0
C945 C 0.67844 0.04918 0.66387 0.0
C946 C 0.64972 0.97028 0.61929 0.0
C947 C 0.68778 0.97425 0.62154 0.0
C948 C 0.69059 0.93913 0.62336 0.0
C949 C 0.65596 0.89979 0.6226 0.0
C950 C 0.61792 0.89497 0.61978 0.0
C951 C 0.61538 0.93066 0.61836 0.0
C952 C 0.72322 0.1038 0.62295 0.0
O953 O 0.75514 0.13488 0.61911 0.0
H954 H 0.79412 0.11029 0.63203 0.0
H955 H 0.7887 0.05964 0.64356 0.0
H956 H 0.71972 0.00053 0.64777 0.0
H957 H 0.57142 0.9112 0.63341 0.0
H958 H 0.45381 0.89712 0.63977 0.0
H959 H 0.56095 0.01656 0.64084 0.0
H960 H 0.65645 0.14711 0.58997 0.0
H961 H 0.70778 0.08297 0.60383 0.0
H962 H 0.64637 0.13578 0.61834 0.0
H963 H 0.55585 0.01142 0.60174 0.0
H964 H 0.52322 0.05086 0.6076 0.0
H965 H 0.54528 0.08662 0.62229 0.0
H966 H 0.63081 0.03761 0.64985 0.0
H967 H 0.73016 0.13294 0.66477 0.0
H968 H 0.69516 0.15911 0.63926 0.0
H969 H 0.71516 0.00422 0.62193 0.0
H970 H 0.65947 0.87339 0.62398 0.0
H971 H 0.58655 0.92802 0.61628 0.0
H972 H 0.30221 0.76479 0.1108 0.0
H973 H 0.32292 0.71451 0.10684 0.0
H974 H 0.43244 0.81042 0.09421 0.0
H975 H 0.41043 0.86037 0.09785 0.0
H976 H 0.39426 0.75091 0.08318 0.0
H977 H 0.40195 0.67998 0.1146 0.0
H978 H 0.35323 0.6779 0.11391 0.0
H979 H 0.40007 0.72717 0.11437 0.0
C980 C 0.33151 0.77531 0.10751 0.0
C981 C 0.35505 0.81634 0.10472 0.0
C982 C 0.34345 0.74659 0.10524 0.0
C983 C 0.37959 0.75859 0.1003 0.0
C984 C 0.40453 0.80034 0.09804 0.0
H985 H 0.40885 0.54678 0.08756 0.0
H986 H 0.43044 0.61795 0.09173 0.0
C987 C 0.3922 0.82893 0.10018 0.0
C988 C 0.38794 0.72679 0.09647 0.0
H989 H 0.38456 0.63633 0.10144 0.0
C990 C 0.39306 0.72635 0.08722 0.0
C991 C 0.38732 0.69505 0.10168 0.0
C992 C 0.38583 0.69536 0.1117 0.0
C993 C 0.39469 0.69374 0.08301 0.0
C994 C 0.3898 0.65996 0.08814 0.0
C995 C 0.38761 0.6618 0.09744 0.0
C996 C 0.3831 0.62091 0.08405 0.0
C997 C 0.40109 0.69566 0.07309 0.0
C998 C 0.3505 0.59942 0.07802 0.0
C999 C 0.33867 0.55905 0.07552 0.0
C1000 C 0.35877 0.53927 0.07912 0.0
C1001 C 0.3931 0.56161 0.08466 0.0
C1002 C 0.40523 0.60211 0.08708 0.0
H1003 H 0.41984 0.72807 0.0708 0.0
H1004 H 0.41661 0.67837 0.071 0.0
H1005 H 0.37074 0.6822 0.06972 0.0
H1006 H 0.33223 0.61268 0.07574 0.0
H1007 H 0.31163 0.54217 0.07138 0.0
H1008 H 0.76932 0.31564 0.23747 0.0
H1009 H 0.71645 0.33207 0.24198 0.0
H1010 H 0.8061 0.43295 0.25788 0.0
H1011 H 0.85859 0.4153 0.25361 0.0
H1012 H 0.74317 0.38642 0.26764 0.0
H1013 H 0.68186 0.41414 0.23677 0.0
H1014 H 0.68085 0.36594 0.23604 0.0
H1015 H 0.72954 0.41315 0.23698 0.0
C1016 C 0.77807 0.3424 0.24161 0.0
C1017 C 0.81805 0.36452 0.24511 0.0
C1018 C 0.74779 0.35182 0.24421 0.0
C1019 C 0.75713 0.38403 0.25024 0.0
C1020 C 0.79798 0.40799 0.25323 0.0
H1021 H 0.54438 0.41143 0.26412 0.0
H1022 H 0.61531 0.43121 0.26001 0.0
C1023 C 0.82809 0.3982 0.25072 0.0
C1024 C 0.72345 0.38899 0.2543 0.0
H1025 H 0.63502 0.39009 0.24935 0.0
C1026 C 0.71996 0.38802 0.26362 0.0
C1027 C 0.69338 0.3919 0.24915 0.0
C1028 C 0.69689 0.39682 0.23919 0.0
C1029 C 0.68629 0.38757 0.26787 0.0
C1030 C 0.65434 0.38672 0.26268 0.0
C1031 C 0.65901 0.39007 0.25338 0.0
C1032 C 0.61466 0.37954 0.26662 0.0
C1033 C 0.68543 0.3879 0.27789 0.0
C1034 C 0.591 0.34482 0.27199 0.0
C1035 C 0.55089 0.33418 0.27452 0.0
C1036 C 0.53341 0.35761 0.2716 0.0
C1037 C 0.55757 0.39336 0.26659 0.0
C1038 C 0.5979 0.40437 0.26416 0.0
H1039 H 0.71716 0.40436 0.28066 0.0
H1040 H 0.66823 0.4028 0.28044 0.0
H1041 H 0.67037 0.35574 0.28037 0.0
H1042 H 0.60244 0.32436 0.27378 0.0
H1043 H 0.53242 0.30583 0.27817 0.0
H1044 H 0.22069 0.54189 0.4465 0.0
H1045 H 0.27384 0.61042 0.44164 0.0
H1046 H 0.18692 0.61652 0.42379 0.0
H1047 H 0.13396 0.54762 0.42855 0.0
H1048 H 0.25347 0.62758 0.41506 0.0
H1049 H 0.3046 0.72929 0.44443 0.0
H1050 H 0.30442 0.68218 0.44665 0.0
H1051 H 0.25667 0.68091 0.44424 0.0
C1052 C 0.21248 0.55868 0.44184 0.0
C1053 C 0.17328 0.53959 0.43791 0.0
C1054 C 0.24292 0.59786 0.43904 0.0
C1055 C 0.23448 0.61879 0.43233 0.0
C1056 C 0.19425 0.60104 0.42895 0.0
H1057 H 0.44426 0.85583 0.41625 0.0
H1058 H 0.37316 0.80396 0.41999 0.0
C1059 C 0.16393 0.56183 0.43171 0.0
C1060 C 0.2687 0.6559 0.42801 0.0
H1061 H 0.35375 0.74883 0.43243 0.0
C1062 C 0.275 0.65443 0.41884 0.0
C1063 C 0.29653 0.69128 0.43287 0.0
C1064 C 0.28997 0.69624 0.44257 0.0
C1065 C 0.30938 0.68629 0.4145 0.0
C1066 C 0.33895 0.72021 0.4195 0.0
C1067 C 0.33148 0.72269 0.42858 0.0
C1068 C 0.37906 0.75203 0.41565 0.0
C1069 C 0.31362 0.68301 0.40461 0.0
C1070 C 0.40572 0.74043 0.41166 0.0
C1071 C 0.44596 0.77016 0.40932 0.0
C1072 C 0.46044 0.81194 0.41106 0.0
C1073 C 0.43337 0.82381 0.41467 0.0
C1074 C 0.39296 0.79415 0.4169 0.0
H1075 H 0.28296 0.66493 0.4014 0.0
H1076 H 0.33029 0.71382 0.40143 0.0
H1077 H 0.33099 0.66667 0.40335 0.0
H1078 H 0.39637 0.70823 0.41085 0.0
H1079 H 0.46672 0.76026 0.4068 0.0
H1080 H 0.66314 0.44761 0.56843 0.0
H1081 H 0.64537 0.37707 0.57213 0.0
H1082 H 0.57398 0.37848 0.59449 0.0
H1083 H 0.58957 0.44777 0.59049 0.0
H1084 H 0.6732 0.36281 0.58659 0.0
H1085 H 0.50428 0.26166 0.5874 0.0
H1086 H 0.52849 0.31152 0.5821 0.0
H1087 H 0.51979 0.30706 0.59393 0.0
C1088 C 0.64202 0.43215 0.57386 0.0
C1089 C 0.62824 0.4535 0.57924 0.0
C1090 C 0.63218 0.3919 0.57604 0.0
C1091 C 0.60848 0.37229 0.58364 0.0
C1092 C 0.59174 0.39234 0.58853 0.0
H1093 H 0.66582 0.21004 0.61412 0.0
H1094 H 0.65 0.26429 0.61033 0.0
C1095 C 0.60106 0.43227 0.58628 0.0
C1096 C 0.6071 0.33454 0.58724 0.0
H1097 H 0.54375 0.23886 0.59596 0.0
C1098 C 0.64475 0.33559 0.58854 0.0
C1099 C 0.5701 0.29886 0.58982 0.0
C1100 C 0.5284 0.29453 0.58815 0.0
C1101 C 0.64661 0.30244 0.59237 0.0
C1102 C 0.60986 0.26755 0.59533 0.0
C1103 C 0.57202 0.26602 0.59391 0.0
C1104 C 0.61039 0.2313 0.59923 0.0
C1105 C 0.68802 0.30482 0.59296 0.0
C1106 C 0.59023 0.1933 0.59482 0.0
C1107 C 0.59843 0.16196 0.59712 0.0
C1108 C 0.62725 0.1682 0.60381 0.0
C1109 C 0.64366 0.20438 0.60891 0.0
C1110 C 0.63505 0.23562 0.60666 0.0
H1111 H 0.7109 0.3284 0.58838 0.0
H1112 H 0.70012 0.31347 0.59983 0.0
H1113 H 0.68542 0.27469 0.59136 0.0
H1114 H 0.5706 0.18893 0.58916 0.0
H1115 H 0.58479 0.13403 0.59318 0.0
H1116 H 0.12393 0.57387 0.75457 0.0
H1117 H 0.17648 0.55643 0.75895 0.0
H1118 H 0.2663 0.65683 0.74298 0.0
H1119 H 0.21341 0.67322 0.73835 0.0
H1120 H 0.2814 0.59334 0.74321 0.0
H1121 H 0.25656 0.63001 0.77763 0.0
H1122 H 0.21216 0.58748 0.77266 0.0
H1123 H 0.23239 0.63841 0.76813 0.0
C1124 C 0.15455 0.59111 0.75174 0.0
C1125 C 0.16476 0.62488 0.74614 0.0
C1126 C 0.18468 0.58154 0.75434 0.0
C1127 C 0.2257 0.60622 0.75155 0.0
C1128 C 0.23497 0.63756 0.7453 0.0
H1129 H 0.45538 0.68757 0.7771 0.0
H1130 H 0.38561 0.67019 0.77272 0.0
C1131 C 0.20469 0.64676 0.74259 0.0
C1132 C 0.25971 0.60249 0.75576 0.0
H1133 H 0.30852 0.61315 0.77561 0.0
C1134 C 0.28714 0.59724 0.75031 0.0
C1135 C 0.26756 0.60826 0.76502 0.0
C1136 C 0.2409 0.61674 0.7712 0.0
C1137 C 0.32274 0.59874 0.75379 0.0
C1138 C 0.33053 0.60438 0.76306 0.0
C1139 C 0.30238 0.60837 0.76854 0.0
C1140 C 0.36987 0.611 0.76703 0.0
C1141 C 0.35274 0.59663 0.74741 0.0
C1142 C 0.38358 0.5826 0.76577 0.0
C1143 C 0.4237 0.5928 0.7682 0.0
C1144 C 0.45016 0.63095 0.77218 0.0
C1145 C 0.4352 0.65766 0.77419 0.0
C1146 C 0.39543 0.64782 0.77162 0.0
H1147 H 0.34707 0.60222 0.74043 0.0
H1148 H 0.38502 0.61958 0.74916 0.0
H1149 H 0.34931 0.56549 0.74771 0.0
H1150 H 0.36406 0.55345 0.76251 0.0
H1151 H 0.43487 0.57197 0.76652 0.0
H1152 H 0.8627 0.4371 0.93103 0.0
H1153 H 0.811 0.36715 0.92647 0.0
H1154 H 0.71758 0.37951 0.94063 0.0
H1155 H 0.76953 0.44862 0.94545 0.0
H1156 H 0.7013 0.30103 0.94093 0.0
H1157 H 0.73737 0.36119 0.90638 0.0
H1158 H 0.77941 0.36176 0.91223 0.0
H1159 H 0.75934 0.39395 0.91594 0.0
C1160 C 0.83142 0.42401 0.93347 0.0
C1161 C 0.81996 0.44801 0.9386 0.0
C1162 C 0.80179 0.38438 0.93075 0.0
C1163 C 0.76011 0.36862 0.93294 0.0
C1164 C 0.74946 0.3911 0.93878 0.0
H1165 H 0.53491 0.22866 0.90585 0.0
H1166 H 0.60535 0.27828 0.91042 0.0
C1167 C 0.77919 0.43047 0.94161 0.0
C1168 C 0.72696 0.33117 0.92849 0.0
H1169 H 0.68249 0.29388 0.90823 0.0
C1170 C 0.69743 0.29917 0.93377 0.0
C1171 C 0.72161 0.32905 0.91914 0.0
C1172 C 0.75084 0.36341 0.91308 0.0
C1173 C 0.66202 0.26597 0.93003 0.0
C1174 C 0.65654 0.26397 0.92068 0.0
C1175 C 0.68688 0.29518 0.91537 0.0
C1176 C 0.61734 0.23273 0.91642 0.0
C1177 C 0.62968 0.23479 0.9362 0.0
C1178 C 0.60144 0.19032 0.91777 0.0
C1179 C 0.56101 0.16203 0.91522 0.0
C1180 C 0.5364 0.17564 0.91105 0.0
C1181 C 0.55363 0.21746 0.90892 0.0
C1182 C 0.59376 0.2458 0.91159 0.0
H1183 H 0.6344 0.24592 0.94318 0.0
H1184 H 0.5983 0.22737 0.93409 0.0
H1185 H 0.63125 0.206 0.93607 0.0
H1186 H 0.61942 0.17931 0.92123 0.0
H1187 H 0.54808 0.12989 0.91699 0.0
H1188 H 0.15127 0.834 0.99347 0.0
H1189 H 0.19541 0.90704 0.99725 0.0
H1190 H 0.08808 0.92062 0.9995 0.0
H1191 H 0.04391 0.84815 0.99572 0.0
H1192 H 0.19942 0.98757 0.99038 0.0
H1193 H 0.14634 0.94185 0.02515 0.0
H1194 H 0.14337 0.90561 0.01685 0.0
H1195 H 0.10625 0.92263 0.0169 0.0
C1196 C 0.1372 0.8529 0.99446 0.0
C1197 C 0.09404 0.83518 0.9944 0.0
C1198 C 0.16244 0.89451 0.99668 0.0
C1199 C 0.14479 0.91877 0.99884 0.0
C1200 C 0.10214 0.90213 0.99798 0.0
H1201 H 0.20859 0.16364 0.00948 0.0
H1202 H 0.17983 0.09138 1.00552 0.0
C1203 C 0.07699 0.86075 0.99578 0.0
C1204 C 0.16981 0.96021 1.00278 0.0
H1205 H 0.18097 0.01376 0.02193 0.0
C1206 C 0.19595 0.99329 0.9973 0.0
C1207 C 0.16558 0.96739 0.01185 0.0
C1208 C 0.13916 0.93251 0.01808 0.0
C1209 C 0.2162 0.03382 1.00057 0.0
C1210 C 0.2098 0.04119 0.00949 0.0
C1211 C 0.18551 0.00792 0.01509 0.0
C1212 C 0.22514 0.0835 0.01281 0.0
C1213 C 0.24342 0.06874 0.99442 0.0
C1214 C 0.25903 0.10234 0.01857 0.0
C1215 C 0.27571 0.14391 0.02089 0.0
C1216 C 0.2585 0.167 0.01747 0.0
C1217 C 0.22282 0.14695 0.01219 0.0
C1218 C 0.20641 0.10568 0.00987 0.0
H1219 H 0.2519 0.05761 0.98838 0.0
H1220 H 0.22684 0.08496 0.99232 0.0
H1221 H 0.27204 0.0914 0.99789 0.0
H1222 H 0.27361 0.08544 0.02096 0.0
H1223 H 0.30325 0.15843 0.02494 0.0
H1224 H 0.31403 0.15038 0.16156 0.0
H1225 H 0.2844 0.19269 0.16629 0.0
H1226 H 0.16581 0.08327 0.16944 0.0
H1227 H 0.19516 0.04079 0.16487 0.0
H1228 H 0.21553 0.20209 0.16129 0.0
H1229 H 0.19669 0.13281 0.19471 0.0
H1230 H 0.22775 0.128 0.18614 0.0
H1231 H 0.17265 0.09521 0.18607 0.0
C1232 C 0.28136 0.13542 0.163 0.0
C1233 C 0.25702 0.09219 0.16298 0.0
C1234 C 0.26457 0.15964 0.16575 0.0
C1235 C 0.22329 0.14091 0.16848 0.0
C1236 C 0.19804 0.09816 0.16759 0.0
H1237 H 0.04217 0.19173 0.18699 0.0
H1238 H 0.08735 0.16411 0.18351 0.0
C1239 C 0.21478 0.07397 0.16491 0.0
C1240 C 0.2071 0.16521 0.1729 0.0
H1241 H 0.16142 0.17032 0.19213 0.0
C1242 C 0.20424 0.19568 0.16807 0.0
C1243 C 0.19306 0.15715 0.18181 0.0
C1244 C 0.19804 0.12682 0.18752 0.0
C1245 C 0.18526 0.21651 0.17174 0.0
C1246 C 0.16916 0.20673 0.18048 0.0
C1247 C 0.17371 0.17761 0.18543 0.0
C1248 C 0.14355 0.22303 0.18416 0.0
C1249 C 0.18071 0.24739 0.16613 0.0
C1250 C 0.16052 0.26496 0.18617 0.0
C1251 C 0.13474 0.28086 0.18826 0.0
C1252 C 0.09166 0.255 0.18828 0.0
C1253 C 0.07518 0.21248 0.18698 0.0
C1254 C 0.10094 0.19664 0.18496 0.0
H1255 H 0.19046 0.2478 0.15914 0.0
H1256 H 0.1482 0.24043 0.16616 0.0
H1257 H 0.19995 0.27865 0.16897 0.0
H1258 H 0.19346 0.28565 0.1857 0.0
H1259 H 0.1484 0.31377 0.1892 0.0
H1260 H 0.1557 0.20046 0.33149 0.0
H1261 H 0.08236 0.16499 0.33504 0.0
H1262 H 0.07813 0.27547 0.32918 0.0
H1263 H 0.15162 0.31118 0.32549 0.0
H1264 H 0.05342 0.19275 0.34911 0.0
H1265 H 0.97242 0.18429 0.31751 0.0
H1266 H 0.02461 0.1936 0.31777 0.0
H1267 H 0.0143 0.23431 0.32043 0.0
C1268 C 0.13895 0.21691 0.3307 0.0
C1269 C 0.15951 0.25869 0.32825 0.0
C1270 C 0.09707 0.19663 0.33277 0.0
C1271 C 0.0749 0.21765 0.33242 0.0
C1272 C 0.09459 0.25855 0.3294 0.0
H1273 H 0.83499 0.14144 0.35715 0.0
H1274 H 0.90863 0.18182 0.35347 0.0
C1275 C 0.13659 0.27888 0.32727 0.0
C1276 C 0.03255 0.19784 0.33607 0.0
H1277 H 0.93183 0.16164 0.33056 0.0
C1278 C 0.02684 0.18609 0.34506 0.0
C1279 C -0.00197 0.18941 0.33078 0.0
C1280 C 0.00238 0.20073 0.32107 0.0
C1281 C 0.98738 0.1655 0.34886 0.0
C1282 C 0.95296 0.15653 0.34354 0.0
C1283 C 0.95858 0.16889 0.33461 0.0
C1284 C 0.91052 0.13147 0.34691 0.0
C1285 C 0.98236 0.15238 0.35846 0.0
C1286 C 0.88801 0.08966 0.3447 0.0
C1287 C 0.8463 0.06654 0.34683 0.0
C1288 C 0.82624 0.08495 0.35115 0.0
C1289 C 0.84956 0.12632 0.35385 0.0
C1290 C 0.8915 0.14949 0.35172 0.0
H1291 H 0.01234 0.16142 0.36171 0.0
H1292 H 0.96687 0.1665 0.36217 0.0
H1293 H 0.96236 0.11843 0.35893 0.0
H1294 H 0.90238 0.0753 0.34102 0.0
H1295 H 0.82933 0.03472 0.34469 0.0
H1296 H 0.66796 0.83048 0.52261 0.0
H1297 H 0.69201 0.90082 0.51744 0.0
H1298 H 0.81589 0.92177 0.51554 0.0
H1299 H 0.79233 0.8518 0.52073 0.0
H1300 H 0.80845 0.99159 0.5216 0.0
H1301 H 0.72272 0.91969 0.49036 0.0
H1302 H 0.69383 0.90434 0.50056 0.0
H1303 H 0.73285 0.89081 0.49858 0.0
C1304 C 0.70058 0.85053 0.52141 0.0
C1305 C 0.72819 0.8354 0.52195 0.0
C1306 C 0.71414 0.89054 0.51836 0.0
C1307 C 0.75545 0.91592 0.51589 0.0
C1308 C 0.78378 0.9024 0.51733 0.0
H1309 H 0.92232 0.13035 0.48818 0.0
H1310 H 0.87952 0.0601 0.49363 0.0
C1311 C 0.77027 0.86244 0.52032 0.0
C1312 C 0.7688 0.9547 0.51098 0.0
H1313 H 0.76451 0.99176 0.49047 0.0
C1314 C 0.79842 0.99176 0.51485 0.0
C1315 C 0.75575 0.9546 0.50213 0.0
C1316 C 0.72472 0.91528 0.4976 0.0
C1317 C 0.81605 0.02871 0.51004 0.0
C1318 C 0.80417 0.02834 0.50111 0.0
C1319 C 0.77351 0.99165 0.49731 0.0
C1320 C 0.8254 0.06579 0.49559 0.0
C1321 C 0.84807 0.06788 0.51446 0.0
C1322 C 0.80801 0.09095 0.49433 0.0
C1323 C 0.83235 0.13118 0.49116 0.0
C1324 C 0.87444 0.14665 0.48934 0.0
C1325 C 0.89016 0.11952 0.48962 0.0
C1326 C 0.86581 0.0794 0.49275 0.0
H1327 H 0.84857 0.06441 0.52178 0.0
H1328 H 0.87898 0.07641 0.51181 0.0
H1329 H 0.84228 0.09359 0.51298 0.0
H1330 H 0.77672 0.0807 0.49645 0.0
H1331 H 0.81924 0.15121 0.49101 0.0
H1332 H 0.85734 0.697 0.6922 0.0
H1333 H 0.8179 0.73215 0.68954 0.0
H1334 H 0.91766 0.82333 0.67365 0.0
H1335 H 0.95761 0.78973 0.67654 0.0
H1336 H 0.88775 0.85878 0.68359 0.0
H1337 H 0.75794 0.72517 0.66686 0.0
H1338 H 0.76629 0.71445 0.67805 0.0
H1339 H 0.80518 0.72617 0.66974 0.0
C1340 C 0.8711 0.72493 0.68827 0.0
C1341 C 0.91056 0.74034 0.68454 0.0
C1342 C 0.84827 0.74465 0.68664 0.0
C1343 C 0.86432 0.77972 0.68117 0.0
C1344 C 0.90441 0.79611 0.67781 0.0
H1345 H 0.72333 0.88072 0.65538 0.0
H1346 H 0.76247 0.84512 0.65835 0.0
C1347 C 0.92729 0.7768 0.6795 0.0
C1348 C 0.83994 0.79986 0.67888 0.0
H1349 H 0.74999 0.78344 0.66941 0.0
C1350 C 0.85766 0.84226 0.68047 0.0
C1351 C 0.80108 0.77856 0.67461 0.0
C1352 C 0.78164 0.73368 0.67212 0.0
C1353 C 0.83762 0.86388 0.67801 0.0
C1354 C 0.79787 0.84225 0.67415 0.0
C1355 C 0.78028 0.79994 0.67243 0.0
C1356 C 0.77361 0.86286 0.67222 0.0
C1357 C 0.85984 0.90993 0.6794 0.0
C1358 C 0.76621 0.88381 0.67903 0.0
C1359 C 0.74506 0.90479 0.6773 0.0
C1360 C 0.72961 0.90439 0.66876 0.0
C1361 C 0.7354 0.88199 0.66198 0.0
C1362 C 0.75754 0.86156 0.66369 0.0
H1363 H 0.89381 0.92311 0.67942 0.0
H1364 H 0.85186 0.92566 0.67417 0.0
H1365 H 0.85106 0.91675 0.68596 0.0
H1366 H 0.7768 0.88394 0.68573 0.0
H1367 H 0.74004 0.92069 0.68275 0.0
H1368 H 0.84376 0.79059 0.82638 0.0
H1369 H 0.91633 0.82364 0.83055 0.0
H1370 H 0.90903 0.70513 0.83137 0.0
H1371 H 0.83644 0.67183 0.82704 0.0
H1372 H 0.93579 0.80438 0.847 0.0
H1373 H 0.02232 0.77862 0.82011 0.0
H1374 H 0.97236 0.77369 0.81831 0.0
H1375 H 0.97647 0.73346 0.82386 0.0
C1376 C 0.85795 0.77167 0.82714 0.0
C1377 C 0.83429 0.72858 0.82645 0.0
C1378 C 0.89939 0.79059 0.82956 0.0
C1379 C 0.918 0.76684 0.83133 0.0
C1380 C 0.89544 0.72411 0.82994 0.0
H1381 H 0.16157 0.84677 0.85429 0.0
H1382 H 0.0888 0.80258 0.85041 0.0
C1383 C 0.85392 0.70512 0.82744 0.0
C1384 C 0.95878 0.78627 0.83576 0.0
H1385 H 0.05849 0.80856 0.83344 0.0
C1386 C 0.96262 0.80527 0.84403 0.0
C1387 C 0.99351 0.78673 0.83195 0.0
C1388 C 0.99126 0.76733 0.82304 0.0
C1389 C 0.00045 0.82555 0.8485 0.0
C1390 C 0.03549 0.82727 0.84457 0.0
C1391 C 0.03145 0.80707 0.83645 0.0
C1392 C 0.07728 0.85305 0.84832 0.0
C1393 C 0.00265 0.84514 0.85739 0.0
C1394 C 0.09442 0.89592 0.84869 0.0
C1395 C 0.13582 0.92119 0.85091 0.0
C1396 C 0.16094 0.90406 0.85276 0.0
C1397 C 0.14299 0.86093 0.85297 0.0
C1398 C 0.10153 0.83563 0.85068 0.0
H1399 H 0.97196 0.83096 0.86066 0.0
H1400 H 0.02462 0.8424 0.86191 0.0
H1401 H 0.01346 0.87835 0.85641 0.0
H1402 H 0.07639 0.91003 0.84679 0.0
H1403 H 0.1487 0.95427 0.85067 0.0
H1404 H 0.42097 0.19111 0.92327 0.0
H1405 H 0.4048 0.2096 0.93769 0.0
H1406 H 0.37736 0.0914 0.9482 0.0
H1407 H 0.395 0.07346 0.93372 0.0
H1408 H 0.33732 0.17704 0.94833 0.0
H1409 H 0.46563 0.16947 0.96521 0.0
H1410 H 0.45991 0.16684 0.95329 0.0
H1411 H 0.42748 0.12271 0.96001 0.0
C1412 C 0.41052 0.16876 0.92861 0.0
C1413 C 0.40875 0.13079 0.92743 0.0
C1414 C 0.40152 0.17938 0.93686 0.0
C1415 C 0.39066 0.15225 0.94409 0.0
C1416 C 0.38661 0.11321 0.94277 0.0
H1417 H 0.36252 0.214 0.99928 0.0
H1418 H 0.36673 0.17695 0.98622 0.0
C1419 C 0.39603 0.10269 0.9345 0.0
C1420 C 0.38543 0.16623 0.953 0.0
H1421 H 0.42824 0.19223 0.97374 0.0
C1422 C 0.35696 0.17999 0.95391 0.0
C1423 C 0.41099 0.16999 0.96031 0.0
C1424 C 0.44297 0.1568 0.95969 0.0
C1425 C 0.35401 0.19829 0.9618 0.0
C1426 C 0.38078 0.20371 0.96896 0.0
C1427 C 0.408 0.18833 0.96822 0.0
C1428 C 0.38215 0.22709 0.97705 0.0
C1429 C 0.32234 0.21192 0.96235 0.0
C1430 C 0.3912 0.26811 0.97631 0.0
C1431 C 0.38855 0.28914 0.98371 0.0
C1432 C 0.37758 0.26988 0.99206 0.0
C1433 C 0.37123 0.22972 0.99294 0.0
C1434 C 0.37342 0.20845 0.98548 0.0
H1435 H 0.29662 0.19465 0.95761 0.0
H1436 H 0.30941 0.20768 0.96916 0.0
H1437 H 0.33712 0.24507 0.96062 0.0
H1438 H 0.39925 0.28356 0.96993 0.0
H1439 H 0.39405 0.32019 0.98284 0.0
H1440 H 0.14838 0.37939 0.1663 0.0
H1441 H 0.19384 0.3938 0.1534 0.0
H1442 H 0.0921 0.36531 0.13584 0.0
H1443 H 0.04664 0.35067 0.14861 0.0
H1444 H 0.17969 0.33436 0.13939 0.0
H1445 H 0.18729 0.47659 0.12644 0.0
H1446 H 0.17291 0.45923 0.13775 0.0
H1447 H 0.13599 0.43599 0.12894 0.0
C1448 C 0.13596 0.3771 0.15969 0.0
C1449 C 0.09392 0.364 0.15847 0.0
C1450 C 0.16188 0.38503 0.15233 0.0
C1451 C 0.14636 0.38081 0.14367 0.0
C1452 C 0.10482 0.36919 0.14246 0.0
H1453 H 0.21755 0.38136 0.0894 0.0
H1454 H 0.18107 0.36554 0.10366 0.0
C1455 C 0.07885 0.36076 0.14978 0.0
C1456 C 0.17255 0.38611 0.13581 0.0
H1457 H 0.20834 0.4408 0.11654 0.0
C1458 C 0.18646 0.35794 0.13445 0.0
C1459 C 0.1813 0.41688 0.12937 0.0
C1460 C 0.16897 0.44918 0.13071 0.0
C1461 C 0.20763 0.35892 0.12664 0.0
C1462 C 0.21502 0.38878 0.12009 0.0
C1463 C 0.20208 0.41757 0.12155 0.0
C1464 C 0.23642 0.39113 0.11164 0.0
C1465 C 0.22098 0.32744 0.12528 0.0
C1466 C 0.27947 0.40944 0.11145 0.0
C1467 C 0.30032 0.41852 0.10332 0.0
C1468 C 0.27841 0.40925 0.09526 0.0
C1469 C 0.23513 0.38819 0.0955 0.0
C1470 C 0.21431 0.3795 0.10363 0.0
H1471 H 0.21002 0.30416 0.13069 0.0
H1472 H 0.20908 0.31145 0.11884 0.0
H1473 H 0.25513 0.3432 0.12502 0.0
H1474 H 0.29704 0.41886 0.11756 0.0
H1475 H 0.33371 0.43505 0.10331 0.0
H1476 H 0.80994 0.22907 0.25595 0.0
H1477 H 0.79186 0.19347 0.27028 0.0
H1478 H 0.90165 0.29343 0.28191 0.0
H1479 H 0.91867 0.32995 0.26758 0.0
H1480 H 0.82642 0.16473 0.28156 0.0
H1481 H 0.81516 0.29198 0.29784 0.0
H1482 H 0.82179 0.29044 0.28601 0.0
H1483 H 0.86496 0.30636 0.29337 0.0
C1484 C 0.83065 0.24287 0.26153 0.0
C1485 C 0.86581 0.2819 0.26071 0.0
C1486 C 0.82023 0.2227 0.26972 0.0
C1487 C 0.84485 0.24117 0.27724 0.0
C1488 C 0.88155 0.27909 0.27627 0.0
H1489 H 0.78362 0.14881 0.33228 0.0
H1490 H 0.82008 0.19103 0.31928 0.0
C1491 C 0.89165 0.29963 0.26808 0.0
C1492 C 0.83058 0.22119 0.28608 0.0
H1493 H 0.79902 0.23382 0.3066 0.0
C1494 C 0.82074 0.18 0.28704 0.0
C1495 C 0.82314 0.24108 0.29328 0.0
C1496 C 0.83144 0.28476 0.29259 0.0
C1497 C 0.80296 0.15793 0.29488 0.0
C1498 C 0.79431 0.17738 0.30195 0.0
C1499 C 0.80559 0.219 0.30116 0.0
C1500 C 0.77139 0.15415 0.30997 0.0
C1501 C 0.79325 0.11377 0.29549 0.0
C1502 C 0.73136 0.12051 0.30911 0.0
C1503 C 0.71062 0.09642 0.31647 0.0
C1504 C 0.72923 0.10575 0.32491 0.0
C1505 C 0.76844 0.14087 0.32588 0.0
C1506 C 0.78936 0.1649 0.31845 0.0
H1507 H 0.81226 0.10738 0.29079 0.0
H1508 H 0.79841 0.10611 0.30233 0.0
H1509 H 0.76039 0.09308 0.29376 0.0
H1510 H 0.71643 0.11235 0.30267 0.0
H1511 H 0.68026 0.06989 0.31552 0.0
H1512 H 0.62642 0.85258 0.42335 0.0
H1513 H 0.64259 0.83414 0.43783 0.0
H1514 H 0.56741 0.87583 0.45081 0.0
H1515 H 0.55115 0.89442 0.43635 0.0
H1516 H 0.65269 0.89135 0.45955 0.0
H1517 H 0.5333 0.73161 0.45037 0.0
H1518 H 0.57121 0.76178 0.44208 0.0
H1519 H 0.53458 0.77645 0.44559 0.0
C1520 C 0.61476 0.85942 0.42932 0.0
C1521 C 0.58742 0.87478 0.42874 0.0
C1522 C 0.62373 0.84857 0.43756 0.0
C1523 C 0.60579 0.85326 0.44534 0.0
C1524 C 0.58148 0.87198 0.44487 0.0
H1525 H 0.60951 0.76821 0.49976 0.0
H1526 H 0.59711 0.80155 0.48701 0.0
C1527 C 0.57229 0.88262 0.43662 0.0
C1528 C 0.60801 0.83381 0.45371 0.0
H1529 H 0.57007 0.73985 0.46364 0.0
C1530 C 0.63452 0.85831 0.4605 0.0
C1531 C 0.58386 0.79075 0.45491 0.0
C1532 C 0.55386 0.7634 0.4479 0.0
C1533 C 0.63865 0.84049 0.46839 0.0
C1534 C 0.61519 0.79723 0.4695 0.0
C1535 C 0.58796 0.77298 0.46277 0.0
C1536 C 0.62072 0.77612 0.47726 0.0
C1537 C 0.66905 0.8678 0.47533 0.0
C1538 C 0.63682 0.74983 0.47596 0.0
C1539 C 0.64383 0.73079 0.48319 0.0
C1540 C 0.63445 0.73727 0.49188 0.0
C1541 C 0.61688 0.76246 0.49315 0.0
C1542 C 0.61017 0.78185 0.48589 0.0
H1543 H 0.68987 0.89941 0.4728 0.0
H1544 H 0.65201 0.87009 0.48113 0.0
H1545 H 0.68804 0.8545 0.47768 0.0
H1546 H 0.64486 0.74475 0.46935 0.0
H1547 H 0.65722 0.71145 0.48197 0.0
H1548 H 0.7713 0.60541 0.5889 0.0
H1549 H 0.80756 0.62022 0.60315 0.0
H1550 H 0.69333 0.58308 0.61696 0.0
H1551 H 0.65678 0.56662 0.6027 0.0
H1552 H 0.81986 0.66753 0.61756 0.0
H1553 H 0.72422 0.50277 0.62696 0.0
H1554 H 0.72288 0.52131 0.61598 0.0
H1555 H 0.69519 0.52822 0.62496 0.0
C1556 C 0.75425 0.60169 0.59498 0.0
C1557 C 0.71135 0.58495 0.59474 0.0
C1558 C 0.77488 0.60979 0.60312 0.0
C1559 C 0.75295 0.60151 0.61114 0.0
C1560 C 0.71067 0.58842 0.61087 0.0
H1561 H 0.84132 0.60871 0.66561 0.0
H1562 H 0.79772 0.6013 0.65277 0.0
C1563 C 0.68993 0.57967 0.60274 0.0
C1564 C 0.77395 0.60407 0.6197 0.0
H1565 H 0.77334 0.54665 0.63745 0.0
C1566 C 0.80955 0.64113 0.62192 0.0
C1567 C 0.7606 0.56951 0.6254 0.0
C1568 C 0.72388 0.52809 0.62319 0.0
C1569 C 0.83225 0.64456 0.62962 0.0
C1570 C 0.81924 0.6099 0.63521 0.0
C1571 C 0.78313 0.57314 0.63315 0.0
C1572 C 0.84402 0.61084 0.64299 0.0
C1573 C 0.87008 0.6853 0.63169 0.0
C1574 C 0.88378 0.61695 0.64173 0.0
C1575 C 0.90863 0.62108 0.64902 0.0
C1576 C 0.89415 0.61892 0.65774 0.0
C1577 C 0.85341 0.61051 0.65899 0.0
C1578 C 0.82852 0.60645 0.65166 0.0
H1579 H 0.86991 0.71115 0.62812 0.0
H1580 H 0.87256 0.69174 0.63894 0.0
H1581 H 0.89791 0.68418 0.62959 0.0
H1582 H 0.89595 0.61943 0.63509 0.0
H1583 H 0.93966 0.6271 0.6478 0.0
H1584 H 0.291 0.94935 0.81349 0.0
H1585 H 0.25701 0.90317 0.80097 0.0
H1586 H 0.19479 0.80086 0.81902 0.0
H1587 H 0.22869 0.84701 0.83164 0.0
H1588 H 0.25745 0.83035 0.79572 0.0
H1589 H 0.10027 0.80023 0.80436 0.0
H1590 H 0.1463 0.84219 0.80916 0.0
H1591 H 0.12761 0.79046 0.81297 0.0
C1592 C 0.27032 0.91698 0.81481 0.0
C1593 C 0.2624 0.90192 0.82357 0.0
C1594 C 0.2509 0.89064 0.80765 0.0
C1595 C 0.22283 0.84878 0.80908 0.0
C1596 C 0.21581 0.83324 0.81779 0.0
H1597 H 0.08961 0.65265 0.77068 0.0
H1598 H 0.11269 0.69276 0.78447 0.0
C1599 C 0.23551 0.85958 0.82498 0.0
C1600 C 0.20098 0.82182 0.80141 0.0
H1601 H 0.10622 0.76641 0.79166 0.0
C1602 C 0.22439 0.81631 0.79484 0.0
C1603 C 0.15782 0.80354 0.80029 0.0
C1604 C 0.1314 0.80951 0.80702 0.0
C1605 C 0.20583 0.79309 0.78718 0.0
C1606 C 0.16284 0.77549 0.78598 0.0
C1607 C 0.13922 0.78027 0.7926 0.0
C1608 C 0.1423 0.75185 0.77785 0.0
C1609 C 0.23225 0.78727 0.78041 0.0
C1610 C 0.14957 0.77198 0.76963 0.0
C1611 C 0.13608 0.74919 0.76176 0.0
C1612 C 0.11539 0.70594 0.76201 0.0
C1613 C 0.10546 0.68596 0.77031 0.0
C1614 C 0.1187 0.70878 0.77817 0.0
H1615 H 0.26335 0.7964 0.78306 0.0
H1616 H 0.21726 0.75463 0.77823 0.0
H1617 H 0.23604 0.80645 0.77448 0.0
H1618 H 0.1676 0.80526 0.76927 0.0
H1619 H 0.14465 0.76539 0.75547 0.0
H1620 H 0.83363 0.60252 0.92741 0.0
H1621 H 0.81237 0.61694 0.91307 0.0
H1622 H 0.87801 0.56584 0.89946 0.0
H1623 H 0.89825 0.5503 0.9138 0.0
H1624 H 0.85046 0.66033 0.89809 0.0
H1625 H 0.76247 0.49329 0.89025 0.0
H1626 H 0.78433 0.51234 0.90107 0.0
H1627 H 0.81644 0.51303 0.89211 0.0
C1628 C 0.84448 0.59548 0.92135 0.0
C1629 C 0.86752 0.57526 0.9217 0.0
C1630 C 0.83202 0.60337 0.91316 0.0
C1631 C 0.84251 0.59131 0.90518 0.0
C1632 C 0.86841 0.57422 0.90552 0.0
H1633 H 0.7628 0.59473 0.85033 0.0
H1634 H 0.79451 0.58368 0.86358 0.0
C1635 C 0.88046 0.5659 0.9137 0.0
C1636 C 0.82476 0.59493 0.8966 0.0
H1637 H 0.76322 0.53869 0.87926 0.0
C1638 C 0.83145 0.63373 0.89398 0.0
C1639 C 0.79993 0.56019 0.8912 0.0
C1640 C 0.78998 0.51729 0.89382 0.0
C1641 C 0.81415 0.63882 0.88613 0.0
C1642 C 0.78871 0.604 0.88081 0.0
C1643 C 0.78267 0.56531 0.88333 0.0
C1644 C 0.76692 0.60712 0.87283 0.0
C1645 C 0.82361 0.68161 0.88357 0.0
C1646 C 0.73951 0.6222 0.87367 0.0
C1647 C 0.72166 0.62872 0.86615 0.0
C1648 C 0.7302 0.61962 0.85761 0.0
C1649 C 0.75557 0.60199 0.85681 0.0
C1650 C 0.77384 0.59585 0.86437 0.0
H1651 H 0.8525 0.7056 0.88673 0.0
H1652 H 0.8266 0.68597 0.87625 0.0
H1653 H 0.79815 0.68643 0.88585 0.0
H1654 H 0.73261 0.62985 0.88014 0.0
H1655 H 0.70182 0.64181 0.86701 0.0
H1656 H 0.33232 0.89727 0.07991 0.0
H1657 H 0.29621 0.87813 0.0656 0.0
H1658 H 0.18006 0.81091 0.07937 0.0
H1659 H 0.21603 0.83148 0.09363 0.0
H1660 H 0.25482 0.80303 0.05939 0.0
H1661 H 0.1477 0.86403 0.06068 0.0
H1662 H 0.18945 0.87985 0.0685 0.0
H1663 H 0.14144 0.83267 0.07019 0.0
C1664 C 0.29895 0.87977 0.07985 0.0
C1665 C 0.27686 0.86637 0.08785 0.0
C1666 C 0.27835 0.86851 0.07168 0.0
C1667 C 0.23528 0.8433 0.07136 0.0
C1668 C 0.2131 0.8313 0.07939 0.0
H1669 H 0.04739 0.69398 0.03387 0.0
H1670 H 0.09183 0.72587 0.04672 0.0
C1671 C 0.23367 0.84311 0.08756 0.0
C1672 C 0.21408 0.82614 0.06272 0.0
H1673 H 0.13122 0.80967 0.05017 0.0
C1674 C 0.22813 0.80501 0.05732 0.0
C1675 C 0.17924 0.82865 0.05997 0.0
C1676 C 0.16388 0.85291 0.0651 0.0
C1677 C 0.20741 0.785 0.04947 0.0
C1678 C 0.17175 0.78631 0.04691 0.0
C1679 C 0.15834 0.80832 0.05218 0.0
C1680 C 0.1467 0.76385 0.03901 0.0
C1681 C 0.22302 0.76144 0.04415 0.0
C1682 C 0.16299 0.77372 0.03036 0.0
C1683 C 0.1376 0.7551 0.02295 0.0
C1684 C 0.09537 0.72674 0.02408 0.0
C1685 C 0.0797 0.71581 0.03276 0.0
C1686 C 0.10505 0.73412 0.04012 0.0
H1687 H 0.24491 0.7557 0.04803 0.0
H1688 H 0.19709 0.73144 0.04189 0.0
H1689 H 0.23939 0.7796 0.03818 0.0
H1690 H 0.19488 0.79702 0.02932 0.0
H1691 H 0.15053 0.76456 0.01636 0.0
H1692 H 0.39643 0.21896 0.26137 0.0
H1693 H 0.38129 0.18291 0.2471 0.0
H1694 H 0.39166 0.29008 0.23396 0.0
H1695 H 0.4088 0.32679 0.24824 0.0
H1696 H 0.32447 0.16097 0.23432 0.0
H1697 H 0.47677 0.27668 0.22063 0.0
H1698 H 0.46359 0.27631 0.23216 0.0
H1699 H 0.44449 0.29718 0.22388 0.0
C1700 C 0.39428 0.23429 0.25545 0.0
C1701 C 0.40326 0.27535 0.25586 0.0
C1702 C 0.38598 0.21386 0.24729 0.0
C1703 C 0.38641 0.23411 0.2394 0.0
C1704 C 0.3924 0.27422 0.23991 0.0
H1705 H 0.37036 0.14809 0.18434 0.0
H1706 H 0.37815 0.19031 0.19748 0.0
C1707 C 0.40142 0.29493 0.24807 0.0
C1708 C 0.38247 0.2136 0.23068 0.0
H1709 H 0.43332 0.2217 0.21123 0.0
C1710 C 0.34822 0.17437 0.22927 0.0
C1711 C 0.41343 0.23108 0.22404 0.0
C1712 C 0.45182 0.27245 0.22526 0.0
C1713 C 0.34418 0.152 0.22148 0.0
C1714 C 0.37567 0.16893 0.21496 0.0
C1715 C 0.40933 0.20867 0.21624 0.0
C1716 C 0.37469 0.14519 0.20694 0.0
C1717 C 0.30598 0.11046 0.22031 0.0
C1718 C 0.37202 0.10665 0.20787 0.0
C1719 C 0.36714 0.08242 0.20042 0.0
C1720 C 0.36587 0.09662 0.19184 0.0
C1721 C 0.3714 0.1364 0.19086 0.0
C1722 C 0.37564 0.16045 0.19836 0.0
H1723 H 0.27993 0.10778 0.22436 0.0
H1724 H 0.29622 0.10466 0.21324 0.0
H1725 H 0.31251 0.08608 0.22255 0.0
H1726 H 0.37268 0.0948 0.21439 0.0
H1727 H 0.36346 0.0521 0.20138 0.0
H1728 H 0.1654 0.39309 0.42762 0.0
H1729 H 0.18222 0.37665 0.41301 0.0
H1730 H 0.09219 0.40112 0.40088 0.0
H1731 H 0.07693 0.41959 0.41548 0.0
H1732 H 0.14396 0.32407 0.39979 0.0
H1733 H 0.19341 0.48238 0.38787 0.0
H1734 H 0.18008 0.4674 0.39931 0.0
H1735 H 0.14031 0.45367 0.39111 0.0
C1736 C 0.14841 0.39374 0.42185 0.0
C1737 C 0.11976 0.40731 0.42263 0.0
C1738 C 0.15822 0.38468 0.4135 0.0
C1739 C 0.13938 0.38884 0.40579 0.0
C1740 C 0.10815 0.39901 0.40668 0.0
H1741 H 0.20474 0.37319 0.35006 0.0
H1742 H 0.16941 0.37942 0.36325 0.0
C1743 C 0.09889 0.40883 0.41502 0.0
C1744 C 0.15431 0.38476 0.39687 0.0
H1745 H 0.19894 0.43755 0.37771 0.0
C1746 C 0.15573 0.34883 0.39496 0.0
C1747 C 0.16983 0.41712 0.39053 0.0
C1748 C 0.17125 0.45747 0.39231 0.0
C1749 C 0.17264 0.34453 0.38697 0.0
C1750 C 0.18892 0.37717 0.38074 0.0
C1751 C 0.18634 0.41256 0.38249 0.0
C1752 C 0.2113 0.37612 0.37268 0.0
C1753 C 0.17321 0.3051 0.38531 0.0
C1754 C 0.24733 0.37378 0.3736 0.0
C1755 C 0.26739 0.3702 0.36613 0.0
C1756 C 0.25218 0.36931 0.35754 0.0
C1757 C 0.21721 0.37375 0.35658 0.0
C1758 C 0.19693 0.37716 0.36411 0.0
H1759 H 0.14966 0.27928 0.38936 0.0
H1760 H 0.1677 0.29628 0.37819 0.0
H1761 H 0.20388 0.30962 0.38716 0.0
H1762 H 0.25963 0.37408 0.38013 0.0
H1763 H 0.29457 0.36743 0.36711 0.0
H1764 H 0.93433 0.24783 0.5311 0.0
H1765 H 0.89276 0.21972 0.54448 0.0
H1766 H 0.78307 0.19061 0.52964 0.0
H1767 H 0.8247 0.21903 0.51612 0.0
H1768 H 0.83719 0.24455 0.55253 0.0
H1769 H 0.75914 0.07995 0.54221 0.0
H1770 H 0.80605 0.1188 0.53702 0.0
H1771 H 0.75797 0.11621 0.53454 0.0
C1772 C 0.90136 0.23551 0.53065 0.0
C1773 C 0.88284 0.23553 0.52251 0.0
C1774 C 0.87767 0.21948 0.53832 0.0
C1775 C 0.83483 0.20262 0.53803 0.0
C1776 C 0.81608 0.20302 0.52997 0.0
H1777 H 0.64935 0.09165 0.57937 0.0
H1778 H 0.68626 0.11061 0.56518 0.0
C1779 C 0.83992 0.2195 0.52227 0.0
C1780 C 0.81031 0.18513 0.54625 0.0
H1781 H 0.74188 0.09457 0.5563 0.0
C1782 C 0.8163 0.21177 0.55336 0.0
C1783 C 0.78302 0.14238 0.54729 0.0
C1784 C 0.77614 0.11243 0.53991 0.0
C1785 C 0.79563 0.19687 0.56148 0.0
C1786 C 0.76912 0.15396 0.56262 0.0
C1787 C 0.76262 0.12735 0.55546 0.0
C1788 C 0.7468 0.13656 0.5711 0.0
C1789 C 0.80173 0.22738 0.5687 0.0
C1790 C 0.7684 0.14267 0.57912 0.0
C1791 C 0.74733 0.13176 0.58724 0.0
C1792 C 0.70431 0.11447 0.58746 0.0
C1793 C 0.68255 0.10516 0.57939 0.0
C1794 C 0.7036 0.11606 0.57128 0.0
H1795 H 0.81413 0.25902 0.56601 0.0
H1796 H 0.77232 0.21841 0.57219 0.0
H1797 H 0.8241 0.22817 0.57364 0.0
H1798 H 0.80172 0.15762 0.57912 0.0
H1799 H 0.76494 0.13956 0.59335 0.0
H1800 H 0.55287 0.64977 0.74735 0.0
H1801 H 0.56905 0.68543 0.733 0.0
H1802 H 0.61905 0.80197 0.74662 0.0
H1803 H 0.60448 0.7664 0.76092 0.0
H1804 H 0.53434 0.72576 0.72703 0.0
H1805 H 0.70193 0.83465 0.72741 0.0
H1806 H 0.67752 0.79328 0.73536 0.0
H1807 H 0.6779 0.84109 0.73709 0.0
C1808 C 0.56889 0.68312 0.74724 0.0
C1809 C 0.57801 0.70543 0.75522 0.0
C1810 C 0.57779 0.70348 0.73905 0.0
C1811 C 0.59559 0.74653 0.73867 0.0
C1812 C 0.60643 0.76894 0.74667 0.0
H1813 H 0.60801 0.92694 0.70214 0.0
H1814 H 0.60227 0.88308 0.71468 0.0
C1815 C 0.59812 0.7486 0.75487 0.0
C1816 C 0.59836 0.76736 0.73004 0.0
H1817 H 0.66192 0.85071 0.71727 0.0
C1818 C 0.5625 0.75264 0.72483 0.0
C1819 C 0.63501 0.80251 0.72712 0.0
C1820 C 0.67532 0.81849 0.732 0.0
C1821 C 0.56192 0.77293 0.71702 0.0
C1822 C 0.59804 0.80896 0.71434 0.0
C1823 C 0.63415 0.82316 0.71939 0.0
C1824 C 0.59849 0.83367 0.70659 0.0
C1825 C 0.52237 0.75669 0.71183 0.0
C1826 C 0.59754 0.82007 0.69785 0.0
C1827 C 0.60089 0.8452 0.69062 0.0
C1828 C 0.60524 0.88434 0.69201 0.0
C1829 C 0.60473 0.89706 0.70079 0.0
C1830 C 0.6016 0.87209 0.70799 0.0
H1831 H 0.49591 0.73075 0.71528 0.0
H1832 H 0.51512 0.78167 0.71068 0.0
H1833 H 0.52616 0.74575 0.70523 0.0
H1834 H 0.59534 0.79055 0.69664 0.0
H1835 H 0.60143 0.83452 0.68396 0.0
H1836 H 0.49881 0.32338 0.02694 0.0
H1837 H 0.57175 0.35773 0.02272 0.0
H1838 H 0.56868 0.46882 0.01684 0.0
H1839 H 0.49596 0.43468 0.02091 0.0
H1840 H 0.58501 0.38619 1.0043 0.0
H1841 H 0.68521 0.50976 0.02792 0.0
H1842 H 0.63714 0.46523 0.03122 0.0
H1843 H 0.63696 0.50704 0.02543 0.0
C1844 C 0.51416 0.35556 0.02505 0.0
C1845 C 0.49182 0.37626 0.02405 0.0
C1846 C 0.55571 0.37509 0.02267 0.0
C1847 C 0.57532 0.41566 0.01947 0.0
C1848 C 0.55408 0.43761 0.01937 0.0
H1849 H 0.78421 0.58601 0.98935 0.0
H1850 H 0.71763 0.54732 0.9969 0.0
C1851 C 0.51251 0.41798 0.02162 0.0
C1852 C 0.61416 0.43216 0.0145 0.0
H1853 H 0.71131 0.51437 0.01324 0.0
C1854 C 0.61299 0.41382 1.0063 0.0
C1855 C 0.65002 0.46845 0.01711 0.0
C1856 C 0.65272 0.48869 0.02594 0.0
C1857 C 0.64632 0.43195 1.00041 0.0
C1858 C 0.68202 0.46877 1.00294 0.0
C1859 C 0.68366 0.48633 0.01129 0.0
C1860 C 0.71823 0.48983 0.99707 0.0
C1861 C 0.64219 0.41256 0.9914 0.0
C1862 C 0.73953 0.46976 0.99435 0.0
C1863 C 0.777 0.49158 0.98989 0.0
C1864 C 0.79394 0.53386 0.98827 0.0
C1865 C 0.7715 0.55335 0.99053 0.0
C1866 C 0.73379 0.53141 0.99488 0.0
H1867 H 0.60939 0.39201 0.98956 0.0
H1868 H 0.65712 0.43637 0.98616 0.0
H1869 H 0.65741 0.39365 0.99154 0.0
H1870 H 0.72845 0.43793 0.99612 0.0
H1871 H 0.79422 0.47619 0.98834 0.0
H1872 H 0.03599 0.47899 0.18408 0.0
H1873 H 0.06798 0.55081 0.17935 0.0
H1874 H 0.18595 0.57199 0.18858 0.0
H1875 H 0.15425 0.50006 0.19337 0.0
H1876 H 0.13457 0.63771 0.188 0.0
H1877 H 0.17998 0.57393 0.15945 0.0
H1878 H 0.13745 0.54139 0.16665 0.0
H1879 H 0.18937 0.56271 0.17056 0.0
C1880 C 0.06855 0.4992 0.18532 0.0
C1881 C 0.09295 0.4838 0.18884 0.0
C1882 C 0.08663 0.54021 0.18268 0.0
C1883 C 0.12922 0.56613 0.18353 0.0
C1884 C 0.15297 0.55208 0.18787 0.0
H1885 H 0.29844 0.783 0.15462 0.0
H1886 H 0.26223 0.71607 0.16202 0.0
C1887 C 0.13487 0.51104 0.19056 0.0
C1888 C 0.14943 0.60461 0.17841 0.0
H1889 H 0.19834 0.64349 0.15872 0.0
C1890 C 0.14872 0.63929 0.18161 0.0
C1891 C 0.16757 0.606 0.1701 0.0
C1892 C 0.16866 0.56908 0.16641 0.0
C1893 C 0.16653 0.67603 0.17672 0.0
C1894 C 0.18402 0.67723 0.16829 0.0
C1895 C 0.18459 0.64233 0.16513 0.0
C1896 C 0.20392 0.715 0.16283 0.0
C1897 C 0.16742 0.71338 0.18074 0.0
C1898 C 0.1825 0.73538 0.16041 0.0
C1899 C 0.20333 0.77382 0.15629 0.0
C1900 C 0.24539 0.79152 0.15431 0.0
C1901 C 0.26583 0.76949 0.15601 0.0
C1902 C 0.24527 0.73153 0.16029 0.0
H1903 H 0.16345 0.71054 0.18807 0.0
H1904 H 0.19684 0.7419 0.17922 0.0
H1905 H 0.14174 0.7166 0.17795 0.0
H1906 H 0.15019 0.72239 0.16202 0.0
H1907 H 0.1872 0.79057 0.15501 0.0
H1908 H 0.49988 0.28468 0.31494 0.0
H1909 H 0.52516 0.24055 0.32067 0.0
H1910 H 0.40788 0.16336 0.33339 0.0
H1911 H 0.38112 0.20476 0.32693 0.0
H1912 H 0.5352 0.23633 0.33763 0.0
H1913 H 0.43205 0.07747 0.32553 0.0
H1914 H 0.43126 0.12136 0.32085 0.0
H1915 H 0.40463 0.09875 0.3311 0.0
C1916 C 0.47888 0.25724 0.31861 0.0
C1917 C 0.43886 0.24879 0.32067 0.0
C1918 C 0.4935 0.23231 0.32198 0.0
C1919 C 0.46855 0.19892 0.32754 0.0
C1920 C 0.42759 0.18861 0.32904 0.0
H1921 H 0.60594 0.12068 0.36269 0.0
H1922 H 0.55962 0.14659 0.35847 0.0
C1923 C 0.41259 0.21282 0.32546 0.0
C1924 C 0.48704 0.17833 0.33257 0.0
H1925 H 0.47811 0.08524 0.33718 0.0
C1926 C 0.52291 0.20328 0.33748 0.0
C1927 C 0.47032 0.13517 0.33253 0.0
C1928 C 0.43266 0.1067 0.32715 0.0
C1929 C 0.54407 0.18663 0.34191 0.0
C1930 C 0.52774 0.1435 0.34175 0.0
C1931 C 0.49046 0.1183 0.3373 0.0
C1932 C 0.55178 0.12452 0.3449 0.0
C1933 C 0.58477 0.2157 0.34626 0.0
C1934 C 0.561 0.10194 0.33882 0.0
C1935 C 0.58602 0.08609 0.3413 0.0
C1936 C 0.60299 0.09313 0.34986 0.0
C1937 C 0.59335 0.11513 0.35603 0.0
C1938 C 0.56721 0.13013 0.35361 0.0
H1939 H 0.59684 0.24809 0.34411 0.0
H1940 H 0.58062 0.21454 0.35357 0.0
H1941 H 0.60828 0.20684 0.3447 0.0
H1942 H 0.54965 0.09739 0.33206 0.0
H1943 H 0.5931 0.06937 0.33639 0.0
H1944 H 0.21406 0.44789 0.4793 0.0
H1945 H 0.28396 0.47883 0.48563 0.0
H1946 H 0.23614 0.48449 0.51134 0.0
H1947 H 0.16702 0.45411 0.50513 0.0
H1948 H 0.3284 0.55632 0.49522 0.0
H1949 H 0.29953 0.42133 0.51575 0.0
H1950 H 0.26735 0.41763 0.50645 0.0
H1951 H 0.26152 0.4369 0.51695 0.0
C1952 C 0.21873 0.45597 0.48628 0.0
C1953 C 0.18532 0.44808 0.49178 0.0
C1954 C 0.25838 0.47335 0.48988 0.0
C1955 C 0.26466 0.48283 0.49897 0.0
C1956 C 0.23153 0.47625 0.50436 0.0
H1957 H 0.48758 0.64783 0.52704 0.0
H1958 H 0.41527 0.60712 0.52247 0.0
C1959 C 0.1922 0.45898 0.50081 0.0
C1960 C 0.30593 0.50081 0.50292 0.0
H1961 H 0.36055 0.48483 0.51902 0.0
C1962 C 0.33566 0.54067 0.50037 0.0
C1963 C 0.31495 0.48 0.50961 0.0
C1964 C 0.28431 0.43644 0.51231 0.0
C1965 C 0.37421 0.56085 0.50452 0.0
C1966 C 0.3827 0.54066 0.51144 0.0
C1967 C 0.35337 0.50035 0.51383 0.0
C1968 C 0.42315 0.56032 0.51582 0.0
C1969 C 0.40572 0.60347 0.50142 0.0
C1970 C 0.45037 0.54587 0.51401 0.0
C1971 C 0.49144 0.56895 0.51658 0.0
C1972 C 0.50566 0.60668 0.521 0.0
C1973 C 0.47744 0.61911 0.52354 0.0
C1974 C 0.4363 0.59601 0.52093 0.0
H1975 H 0.39718 0.61131 0.49493 0.0
H1976 H 0.40815 0.62642 0.5064 0.0
H1977 H 0.43654 0.60624 0.50076 0.0
H1978 H 0.44047 0.51812 0.51014 0.0
H1979 H 0.51247 0.55829 0.51469 0.0
H1980 H 0.94487 0.5029 0.68537 0.0
H1981 H 0.91104 0.43052 0.68104 0.0
H1982 H 0.79333 0.41579 0.68855 0.0
H1983 H 0.82702 0.48841 0.69298 0.0
H1984 H 0.8389 0.34499 0.68933 0.0
H1985 H 0.80763 0.41369 0.65951 0.0
H1986 H 0.84883 0.44456 0.66715 0.0
H1987 H 0.79635 0.4258 0.67037 0.0
C1988 C 0.91191 0.48396 0.68634 0.0
C1989 C 0.88827 0.50134 0.68925 0.0
C1990 C 0.89277 0.44262 0.68395 0.0
C1991 C 0.84984 0.41837 0.68439 0.0
C1992 C 0.82659 0.43439 0.68818 0.0
H1993 H 0.68724 0.20495 0.65351 0.0
H1994 H 0.72154 0.27135 0.66115 0.0
C1995 C 0.84581 0.47578 0.69066 0.0
C1996 C 0.82946 0.38003 0.67924 0.0
H1997 H 0.78795 0.34385 0.65881 0.0
C1998 C 0.82741 0.34439 0.68269 0.0
C1999 C 0.8149 0.37994 0.67058 0.0
C2000 C 0.81703 0.41798 0.66661 0.0
C2001 C 0.81053 0.30805 0.67766 0.0
C2002 C 0.79687 0.30823 0.66888 0.0
C2003 C 0.79881 0.34399 0.6655 0.0
C2004 C 0.77868 0.27111 0.66323 0.0
C2005 C 0.80668 0.26973 0.68188 0.0
C2006 C 0.80036 0.25035 0.66141 0.0
C2007 C 0.78064 0.21228 0.65712 0.0
C2008 C 0.73949 0.19528 0.65441 0.0
C2009 C 0.71918 0.21787 0.65547 0.0
C2010 C 0.73861 0.25552 0.6599 0.0
H2011 H 0.80756 0.27178 0.68925 0.0
H2012 H 0.77757 0.2419 0.67988 0.0
H2013 H 0.83287 0.26587 0.67972 0.0
H2014 H 0.83184 0.26268 0.66364 0.0
H2015 H 0.79671 0.19514 0.65634 0.0
H2016 H 0.54249 0.75886 0.81143 0.0
H2017 H 0.51345 0.8007 0.81715 0.0
H2018 H 0.48531 0.73493 0.84203 0.0
H2019 H 0.51373 0.69328 0.83639 0.0
H2020 H 0.42978 0.77099 0.82532 0.0
H2021 H 0.56141 0.8611 0.84814 0.0
H2022 H 0.56509 0.83415 0.83854 0.0
H2023 H 0.54041 0.80624 0.84848 0.0
C2024 C 0.52956 0.75316 0.81806 0.0
C2025 C 0.53074 0.72345 0.82354 0.0
C2026 C 0.5133 0.77706 0.82132 0.0
C2027 C 0.49827 0.77128 0.83006 0.0
C2028 C 0.49768 0.7403 0.83534 0.0
H2029 H 0.34191 0.83958 0.85791 0.0
H2030 H 0.37996 0.80582 0.85288 0.0
C2031 C 0.5138 0.71659 0.83211 0.0
C2032 C 0.48306 0.79737 0.83382 0.0
H2033 H 0.50094 0.86587 0.85052 0.0
C2034 C 0.44545 0.79208 0.83076 0.0
C2035 C 0.50389 0.82481 0.84089 0.0
C2036 C 0.54513 0.8323 0.84418 0.0
C2037 C 0.42727 0.8127 0.83482 0.0
C2038 C 0.44721 0.83876 0.84214 0.0
C2039 C 0.48556 0.84521 0.845 0.0
C2040 C 0.42887 0.86049 0.84667 0.0
C2041 C 0.38679 0.80639 0.83129 0.0
C2042 C 0.44523 0.9027 0.84522 0.0
C2043 C 0.4236 0.92195 0.84804 0.0
C2044 C 0.38545 0.89917 0.85236 0.0
C2045 C 0.37103 0.85772 0.85451 0.0
C2046 C 0.39261 0.83841 0.85164 0.0
H2047 H 0.37933 0.7914 0.82466 0.0
H2048 H 0.36171 0.78648 0.83595 0.0
H2049 H 0.38742 0.83627 0.83079 0.0
H2050 H 0.47342 0.92013 0.84145 0.0
H2051 H 0.43573 0.95415 0.84643 0.0
H2052 H 0.66112 0.47933 0.82479 0.0
H2053 H 0.61641 0.40868 0.83008 0.0
H2054 H 0.51232 0.42824 0.82983 0.0
H2055 H 0.55665 0.4987 0.82469 0.0
H2056 H 0.55972 0.42061 0.84776 0.0
H2057 H 0.49179 0.29418 0.8227 0.0
H2058 H 0.54335 0.33717 0.82125 0.0
H2059 H 0.5001 0.34493 0.82015 0.0
C2060 C 0.62836 0.46786 0.82547 0.0
C2061 C 0.61229 0.4944 0.82456 0.0
C2062 C 0.60292 0.42761 0.82847 0.0
C2063 C 0.56139 0.41381 0.83038 0.0
C2064 C 0.54435 0.43859 0.82835 0.0
H2065 H 0.3837 0.20025 0.85944 0.0
H2066 H 0.4158 0.26755 0.85213 0.0
C2067 C 0.56972 0.47879 0.82547 0.0
C2068 C 0.53911 0.37939 0.83654 0.0
H2069 H 0.47669 0.27557 0.83782 0.0
C2070 C 0.54147 0.38882 0.84562 0.0
C2071 C 0.51531 0.33845 0.83362 0.0
C2072 C 0.51219 0.32767 0.8239 0.0
C2073 C 0.52078 0.35788 0.85194 0.0
C2074 C 0.49743 0.3168 0.84905 0.0
C2075 C 0.49455 0.3074 0.83995 0.0
C2076 C 0.478 0.28251 0.85536 0.0
C2077 C 0.52392 0.36908 0.86164 0.0
C2078 C 0.50253 0.27024 0.85999 0.0
C2079 C 0.48441 0.2318 0.86409 0.0
C2080 C 0.44162 0.20533 0.86353 0.0
C2081 C 0.41685 0.21989 0.85981 0.0
C2082 C 0.43504 0.25818 0.85564 0.0
H2083 H 0.53717 0.40274 0.86263 0.0
H2084 H 0.49307 0.35259 0.86483 0.0
H2085 H 0.54401 0.35944 0.86506 0.0
H2086 H 0.53583 0.2888 0.85978 0.0
H2087 H 0.50421 0.22127 0.86688 0.0
H2088 H 0.0232 0.549 0.99785 0.0
H2089 H 0.04663 0.50215 1.00292 0.0
H2090 H 0.17231 0.59435 0.99724 0.0
H2091 H 0.14911 0.64137 0.99203 0.0
H2092 H 0.14937 0.50694 0.99408 0.0
H2093 H 0.10826 0.53997 0.02745 0.0
H2094 H 0.06819 0.52044 0.0192 0.0
H2095 H 0.11282 0.57042 0.01778 0.0
C2096 C 0.05575 0.55899 0.9975 0.0
C2097 C 0.08453 0.59918 0.99479 0.0
C2098 C 0.069 0.53216 1.00037 0.0
C2099 C 0.11115 0.54532 1.00063 0.0
C2100 C 0.13962 0.58391 0.99712 0.0
H2101 H 0.27013 0.49977 0.03243 0.0
H2102 H 0.2268 0.52462 0.02588 0.0
C2103 C 0.12635 0.61073 0.99419 0.0
C2104 C 0.12597 0.52169 1.00572 0.0
H2105 H 0.13758 0.49729 0.02697 0.0
C2106 C 0.14642 0.5043 1.00125 0.0
C2107 C 0.12243 0.51903 0.01509 0.0
C2108 C 0.10203 0.53866 0.02021 0.0
C2109 C 0.1639 0.4845 1.00596 0.0
C2110 C 0.16046 0.48202 0.01533 0.0
C2111 C 0.1396 0.49896 0.01978 0.0
C2112 C 0.18166 0.46521 0.02064 0.0
C2113 C 0.18731 0.46777 1.00095 0.0
C2114 C 0.16909 0.42323 0.02026 0.0
C2115 C 0.19353 0.4089 0.02407 0.0
C2116 C 0.23089 0.43649 0.02825 0.0
C2117 C 0.24143 0.47784 0.02928 0.0
C2118 C 0.21691 0.49211 0.0255 0.0
H2119 H 0.1921 0.47741 0.99387 0.0
H2120 H 0.21782 0.47827 1.00408 0.0
H2121 H 0.16983 0.43362 1.0012 0.0
H2122 H 0.1415 0.40201 0.01666 0.0
H2123 H 0.18437 0.37669 0.02332 0.0
H2124 H 0.79282 0.31588 0.19378 0.0
H2125 H 0.72671 0.28591 0.18606 0.0
H2126 H 0.71584 0.1658 0.1876 0.0
H2127 H 0.78307 0.19628 0.19499 0.0
H2128 H 0.70776 0.18503 0.17093 0.0
H2129 H 0.60859 0.21734 0.19298 0.0
H2130 H 0.65628 0.26271 0.1903 0.0
H2131 H 0.65663 0.22229 0.1967 0.0
C2132 C 0.77547 0.28286 0.19276 0.0
C2133 C 0.7925 0.25815 0.19498 0.0
C2134 C 0.7378 0.26577 0.18834 0.0
C2135 C 0.71632 0.22362 0.1863 0.0
C2136 C 0.73206 0.19843 0.1891 0.0
H2137 H 0.49127 0.05336 0.16357 0.0
H2138 H 0.56408 0.09062 0.16755 0.0
C2139 C 0.77009 0.21565 0.19338 0.0
C2140 C 0.67981 0.2066 0.18047 0.0
H2141 H 0.58406 0.195 0.17835 0.0
C2142 C 0.68064 0.1871 0.17256 0.0
C2143 C 0.64478 0.20987 0.18257 0.0
C2144 C 0.64128 0.22884 0.19114 0.0
C2145 C 0.64695 0.17011 0.16674 0.0
C2146 C 0.61187 0.17301 0.16891 0.0
C2147 C 0.61146 0.1935 0.17667 0.0
C2148 C 0.57299 0.15046 0.16396 0.0
C2149 C 0.64883 0.14884 0.1584 0.0
C2150 C 0.55459 0.17172 0.16027 0.0
C2151 C 0.51292 0.15047 0.15798 0.0
C2152 C 0.48927 0.10794 0.15955 0.0
C2153 C 0.50877 0.08629 0.16244 0.0
C2154 C 0.55044 0.10745 0.16462 0.0
H2155 H 0.68112 0.15867 0.1565 0.0
H2156 H 0.63242 0.11508 0.15955 0.0
H2157 H 0.63351 0.15512 0.15278 0.0
H2158 H 0.57168 0.205 0.15976 0.0
H2159 H 0.4986 0.16777 0.15569 0.0
H2160 H 0.35733 0.48893 0.34517 0.0
H2161 H 0.40995 0.55887 0.34899 0.0
H2162 H 0.44516 0.58426 0.32139 0.0
H2163 H 0.39073 0.51387 0.31749 0.0
H2164 H 0.49587 0.58702 0.34502 0.0
H2165 H 0.43759 0.68584 0.33071 0.0
H2166 H 0.40287 0.63183 0.3328 0.0
H2167 H 0.43961 0.64718 0.32394 0.0
C2168 C 0.37564 0.50977 0.3399 0.0
C2169 C 0.37053 0.49641 0.33106 0.0
C2170 C 0.40577 0.54947 0.34208 0.0
C2171 C 0.43169 0.57622 0.33548 0.0
C2172 C 0.42531 0.56384 0.32655 0.0
H2173 H 0.62647 0.80839 0.35803 0.0
H2174 H 0.59893 0.74253 0.35024 0.0
C2175 C 0.39435 0.52396 0.32433 0.0
C2176 C 0.46615 0.61607 0.33833 0.0
H2177 H 0.48942 0.71517 0.34152 0.0
C2178 C 0.4954 0.61549 0.34409 0.0
C2179 C 0.4653 0.65285 0.337 0.0
C2180 C 0.43474 0.65486 0.33079 0.0
C2181 C 0.52111 0.64986 0.34929 0.0
C2182 C 0.51747 0.68535 0.34855 0.0
C2183 C 0.49129 0.6873 0.34213 0.0
C2184 C 0.53666 0.71925 0.35497 0.0
C2185 C 0.54946 0.64704 0.35601 0.0
C2186 C 0.5111 0.72646 0.3606 0.0
C2187 C 0.52646 0.76411 0.36491 0.0
C2188 C 0.56757 0.79491 0.3636 0.0
C2189 C 0.59437 0.78537 0.35896 0.0
C2190 C 0.57883 0.74781 0.35454 0.0
H2191 H 0.54705 0.61626 0.35603 0.0
H2192 H 0.58181 0.67064 0.35451 0.0
H2193 H 0.54214 0.6535 0.36276 0.0
H2194 H 0.47845 0.70434 0.36103 0.0
H2195 H 0.50509 0.77051 0.36845 0.0
H2196 H 0.72901 0.50214 0.53402 0.0
H2197 H 0.76808 0.4751 0.52658 0.0
H2198 H 0.85215 0.596 0.51623 0.0
H2199 H 0.81553 0.62412 0.52437 0.0
H2200 H 0.76697 0.47713 0.50872 0.0
H2201 H 0.92955 0.55368 0.52045 0.0
H2202 H 0.88969 0.55644 0.52662 0.0
H2203 H 0.9114 0.5875 0.51685 0.0
C2204 C 0.75709 0.52348 0.53058 0.0
C2205 C 0.76837 0.565 0.52953 0.0
C2206 C 0.77908 0.50785 0.52622 0.0
C2207 C 0.8123 0.53337 0.52067 0.0
C2208 C 0.82659 0.57573 0.52046 0.0
H2209 H 0.86231 0.37863 0.48369 0.0
H2210 H 0.84651 0.4334 0.4873 0.0
C2211 C 0.80527 0.59162 0.52504 0.0
C2212 C 0.82762 0.51426 0.5143 0.0
H2213 H 0.91105 0.50537 0.50892 0.0
C2214 C 0.79856 0.48337 0.50871 0.0
C2215 C 0.86912 0.52379 0.51408 0.0
C2216 C 0.90176 0.55696 0.51985 0.0
C2217 C 0.80881 0.45851 0.50365 0.0
C2218 C 0.84956 0.4658 0.504 0.0
C2219 C 0.87969 0.49977 0.50877 0.0
C2220 C 0.85939 0.43385 0.50135 0.0
C2221 C 0.77528 0.42271 0.49857 0.0
C2222 C 0.8717 0.41623 0.50802 0.0
C2223 C 0.88154 0.38616 0.50595 0.0
C2224 C 0.87868 0.37258 0.49717 0.0
C2225 C 0.86486 0.38892 0.49049 0.0
C2226 C 0.85579 0.41999 0.49255 0.0
H2227 H 0.74436 0.41905 0.49979 0.0
H2228 H 0.78177 0.42761 0.49135 0.0
H2229 H 0.77436 0.39361 0.50045 0.0
H2230 H 0.87392 0.42595 0.51488 0.0
H2231 H 0.89167 0.3737 0.51125 0.0
H2232 H 0.1938 0.79577 0.69538 0.0
H2233 H 0.26194 0.83345 0.68843 0.0
H2234 H 0.2792 0.72912 0.6926 0.0
H2235 H 0.21141 0.69161 0.69965 0.0
H2236 H 0.35181 0.80634 0.6942 0.0
H2237 H 0.26505 0.79202 0.66314 0.0
H2238 H 0.25631 0.81843 0.67209 0.0
H2239 H 0.24018 0.76473 0.6732 0.0
C2240 C 0.21288 0.78159 0.69508 0.0
C2241 C 0.19748 0.74075 0.69789 0.0
C2242 C 0.25146 0.80289 0.69106 0.0
C2243 C 0.27464 0.78334 0.68976 0.0
C2244 C 0.26131 0.74437 0.69347 0.0
H2245 H 0.48321 0.82255 0.65866 0.0
H2246 H 0.41208 0.79117 0.66406 0.0
C2247 C 0.22284 0.72314 0.69755 0.0
C2248 C 0.31035 0.80131 0.68375 0.0
H2249 H 0.33789 0.82691 0.66204 0.0
C2250 C 0.34885 0.8109 0.68718 0.0
C2251 C 0.30591 0.80651 0.67457 0.0
C2252 C 0.2646 0.79458 0.67049 0.0
C2253 C 0.38342 0.82624 0.68166 0.0
C2254 C 0.37907 0.83187 0.67252 0.0
C2255 C 0.34068 0.8223 0.66906 0.0
C2256 C 0.41518 0.8494 0.66668 0.0
C2257 C 0.42457 0.83661 0.6856 0.0
C2258 C 0.43894 0.89222 0.66591 0.0
C2259 C 0.47946 0.91011 0.66296 0.0
C2260 C 0.49636 0.88523 0.66071 0.0
C2261 C 0.47085 0.84229 0.66042 0.0
C2262 C 0.43033 0.82437 0.66348 0.0
H2263 H 0.42292 0.83178 0.69291 0.0
H2264 H 0.43571 0.81709 0.68249 0.0
H2265 H 0.44765 0.86922 0.68417 0.0
H2266 H 0.42743 0.91179 0.66836 0.0
H2267 H 0.49845 0.94336 0.66307 0.0
H2268 H 0.35143 0.14994 0.11167 0.0
H2269 H 0.4023 0.19985 0.10161 0.0
H2270 H 0.4922 0.16861 0.11078 0.0
H2271 H 0.44257 0.12078 0.12144 0.0
H2272 H 0.5157 0.26204 0.10118 0.0
H2273 H 0.42435 0.11353 0.08375 0.0
H2274 H 0.39495 0.12258 0.09198 0.0
H2275 H 0.43806 0.11715 0.09537 0.0
C2276 C 0.38258 0.15526 0.11203 0.0
C2277 C 0.39204 0.12959 0.1171 0.0
C2278 C 0.41177 0.18391 0.10622 0.0
C2279 C 0.45043 0.18679 0.1053 0.0
C2280 C 0.46231 0.16638 0.11134 0.0
H2281 H 0.39308 0.2299 0.05667 0.0
H2282 H 0.44592 0.2167 0.06305 0.0
C2283 C 0.43345 0.13855 0.11736 0.0
C2284 C 0.47149 0.20105 0.0967 0.0
H2285 H 0.43739 0.17477 0.07558 0.0
C2286 C 0.50014 0.24279 0.09548 0.0
C2287 C 0.45393 0.17553 0.08919 0.0
C2288 C 0.42647 0.12955 0.09011 0.0
C2289 C 0.50489 0.26074 0.08706 0.0
C2290 C 0.4772 0.23705 0.0802 0.0
C2291 C 0.45673 0.19396 0.08095 0.0
C2292 C 0.45646 0.25462 0.07474 0.0
C2293 C 0.5355 0.30585 0.0859 0.0
C2294 C 0.44547 0.28125 0.07895 0.0
C2295 C 0.41598 0.28886 0.07531 0.0
C2296 C 0.39592 0.26974 0.06738 0.0
C2297 C 0.40792 0.24468 0.06284 0.0
C2298 C 0.43838 0.23754 0.06645 0.0
H2299 H 0.56646 0.31202 0.08803 0.0
H2300 H 0.53728 0.3159 0.07889 0.0
H2301 H 0.52715 0.32447 0.09026 0.0
H2302 H 0.45674 0.29358 0.0855 0.0
H2303 H 0.40695 0.30781 0.07904 0.0
H2304 H 0.124 0.43422 0.22896 0.0
H2305 H 0.1789 0.48221 0.23864 0.0
H2306 H 0.19694 0.38368 0.24801 0.0
H2307 H 0.14043 0.33499 0.23895 0.0
H2308 H 0.15394 0.4561 0.25656 0.0
H2309 H 0.31218 0.48712 0.25148 0.0
H2310 H 0.27805 0.48095 0.24234 0.0
H2311 H 0.27623 0.43658 0.24747 0.0
C2312 C 0.14011 0.42263 0.23289 0.0
C2313 C 0.12597 0.37997 0.23346 0.0
C2314 C 0.17217 0.45056 0.23832 0.0
C2315 C 0.1917 0.4365 0.2441 0.0
C2316 C 0.18249 0.39535 0.24353 0.0
H2317 H 0.17917 0.31933 0.27847 0.0
H2318 H 0.1675 0.37043 0.27122 0.0
C2319 C 0.14975 0.36724 0.23831 0.0
C2320 C 0.21043 0.45874 0.25243 0.0
H2321 H 0.28151 0.45918 0.26645 0.0
C2322 C 0.18295 0.45914 0.25874 0.0
C2323 C 0.24873 0.46436 0.25529 0.0
C2324 C 0.28066 0.46772 0.24875 0.0
C2325 C 0.18852 0.45487 0.2678 0.0
C2326 C 0.22256 0.4511 0.27045 0.0
C2327 C 0.25462 0.46082 0.26437 0.0
C2328 C 0.21835 0.42275 0.27769 0.0
C2329 C 0.15503 0.44806 0.27427 0.0
C2330 C 0.24858 0.43501 0.28428 0.0
C2331 C 0.25443 0.40545 0.28866 0.0
C2332 C 0.23157 0.36369 0.28617 0.0
C2333 C 0.1976 0.35118 0.28051 0.0
C2334 C 0.19088 0.38055 0.27635 0.0
H2335 H 0.14013 0.46614 0.27231 0.0
H2336 H 0.13103 0.41499 0.27424 0.0
H2337 H 0.16739 0.45673 0.28112 0.0
H2338 H 0.26996 0.46739 0.28544 0.0
H2339 H 0.27939 0.41568 0.29335 0.0
H2340 H 0.89245 0.30134 0.43519 0.0
H2341 H 0.82822 0.28878 0.42899 0.0
H2342 H 0.7634 0.21718 0.45213 0.0
H2343 H 0.82944 0.22881 0.45827 0.0
H2344 H 0.72603 0.17536 0.43943 0.0
H2345 H 0.74355 0.31896 0.42817 0.0
H2346 H 0.79358 0.32687 0.42568 0.0
H2347 H 0.7757 0.31861 0.43709 0.0
C2348 C 0.86467 0.28369 0.43908 0.0
C2349 C 0.86581 0.26594 0.44718 0.0
C2350 C 0.82765 0.27719 0.43561 0.0
C2351 C 0.79043 0.25318 0.44019 0.0
C2352 C 0.7916 0.23641 0.4485 0.0
H2353 H 0.66578 0.12278 0.39431 0.0
H2354 H 0.66239 0.17024 0.40487 0.0
C2355 C 0.82911 0.24256 0.45196 0.0
C2356 C 0.75132 0.23848 0.43517 0.0
H2357 H 0.73688 0.26769 0.41472 0.0
C2358 C 0.72615 0.19568 0.43429 0.0
C2359 C 0.74811 0.26408 0.42866 0.0
C2360 C 0.76643 0.3097 0.43007 0.0
C2361 C 0.70811 0.17864 0.42609 0.0
C2362 C 0.71656 0.20527 0.41875 0.0
C2363 C 0.73246 0.24737 0.42026 0.0
C2364 C 0.72346 0.1917 0.41007 0.0
C2365 C 0.68703 0.13256 0.42491 0.0
C2366 C 0.76023 0.19075 0.40902 0.0
C2367 C 0.76162 0.16212 0.40334 0.0
C2368 C 0.72638 0.13461 0.39851 0.0
C2369 C 0.69273 0.1418 0.39828 0.0
C2370 C 0.69082 0.1695 0.40421 0.0
H2371 H 0.67467 0.1162 0.43131 0.0
H2372 H 0.6614 0.12193 0.42005 0.0
H2373 H 0.70954 0.12404 0.42232 0.0
H2374 H 0.78591 0.20807 0.41349 0.0
H2375 H 0.78841 0.15834 0.40367 0.0
H2376 H 0.57888 0.7255 0.55636 0.0
H2377 H 0.52312 0.73409 0.56306 0.0
H2378 H 0.58456 0.75825 0.58843 0.0
H2379 H 0.63972 0.75075 0.58181 0.0
H2380 H 0.48878 0.68972 0.58642 0.0
H2381 H 0.53969 0.84948 0.57561 0.0
H2382 H 0.53446 0.80961 0.56802 0.0
H2383 H 0.57861 0.83468 0.57518 0.0
C2384 C 0.5805 0.73353 0.56332 0.0
C2385 C 0.61376 0.73855 0.56858 0.0
C2386 C 0.54864 0.73791 0.56713 0.0
C2387 C 0.54966 0.74626 0.57624 0.0
C2388 C 0.58321 0.75164 0.58139 0.0
H2389 H 0.62101 0.8283 0.61307 0.0
H2390 H 0.56969 0.77537 0.60369 0.0
C2391 C 0.61496 0.74795 0.5776 0.0
C2392 C 0.51733 0.75076 0.58082 0.0
H2393 H 0.5261 0.83483 0.5913 0.0
C2394 C 0.49454 0.72089 0.58728 0.0
C2395 C 0.52308 0.79072 0.58178 0.0
C2396 C 0.54496 0.82302 0.57474 0.0
C2397 C 0.48745 0.73286 0.59563 0.0
C2398 C 0.50297 0.77505 0.59729 0.0
C2399 C 0.51538 0.8025 0.59008 0.0
C2400 C 0.52349 0.79308 0.60581 0.0
C2401 C 0.46994 0.70176 0.60302 0.0
C2402 C 0.51314 0.81816 0.61076 0.0
C2403 C 0.5421 0.84761 0.61653 0.0
C2404 C 0.5827 0.85417 0.61697 0.0
C2405 C 0.59065 0.82506 0.61291 0.0
C2406 C 0.56109 0.79451 0.60747 0.0
H2407 H 0.44676 0.67107 0.60041 0.0
H2408 H 0.49515 0.69874 0.60614 0.0
H2409 H 0.45545 0.71157 0.60819 0.0
H2410 H 0.48418 0.81733 0.60961 0.0
H2411 H 0.53368 0.8677 0.61995 0.0
H2412 H 0.86309 0.67969 0.73823 0.0
H2413 H 0.80026 0.62721 0.74518 0.0
H2414 H 0.7998 0.53465 0.72808 0.0
H2415 H 0.86187 0.58806 0.72068 0.0
H2416 H 0.71715 0.5505 0.74145 0.0
H2417 H 0.84042 0.52088 0.75354 0.0
H2418 H 0.85628 0.56689 0.74708 0.0
H2419 H 0.82679 0.51725 0.74195 0.0
C2420 C 0.8484 0.64874 0.73555 0.0
C2421 C 0.8684 0.63754 0.7292 0.0
C2422 C 0.8124 0.61857 0.73956 0.0
C2423 C 0.79621 0.5769 0.73732 0.0
C2424 C 0.81228 0.56655 0.73 0.0
H2425 H 0.69199 0.55837 0.78719 0.0
H2426 H 0.69729 0.51152 0.77676 0.0
C2427 C 0.84799 0.597 0.72586 0.0
C2428 C 0.77122 0.5462 0.74413 0.0
H2429 H 0.79905 0.52883 0.76447 0.0
C2430 C 0.73343 0.54291 0.74638 0.0
C2431 C 0.79181 0.53491 0.75046 0.0
C2432 C 0.83097 0.5348 0.74817 0.0
C2433 C 0.7207 0.53783 0.75528 0.0
C2434 C 0.74706 0.53687 0.7619 0.0
C2435 C 0.77956 0.53071 0.75937 0.0
C2436 C 0.75173 0.55919 0.77028 0.0
C2437 C 0.6833 0.54112 0.75765 0.0
C2438 C 0.7826 0.60082 0.77058 0.0
C2439 C 0.77923 0.6279 0.77639 0.0
C2440 C 0.74495 0.61366 0.78203 0.0
C2441 C 0.71795 0.57075 0.78272 0.0
C2442 C 0.72103 0.54367 0.7768 0.0
H2443 H 0.66387 0.53721 0.75175 0.0
H2444 H 0.6643 0.51732 0.76264 0.0
H2445 H 0.6932 0.57182 0.76061 0.0
H2446 H 0.80672 0.61339 0.76559 0.0
H2447 H 0.80083 0.66049 0.77565 0.0
H2448 H 0.09871 0.69334 0.93534 0.0
H2449 H 0.16312 0.70691 0.92912 0.0
H2450 H 0.22782 0.7821 0.95187 0.0
H2451 H 0.16144 0.76939 0.95802 0.0
H2452 H 0.26375 0.82324 0.9391 0.0
H2453 H 0.25094 0.6816 0.92804 0.0
H2454 H 0.19993 0.6712 0.92567 0.0
H2455 H 0.21859 0.68086 0.93704 0.0
C2456 C 0.12652 0.71197 0.93915 0.0
C2457 C 0.12519 0.73043 0.94714 0.0
C2458 C 0.16371 0.71909 0.93567 0.0
C2459 C 0.20099 0.74452 0.94011 0.0
C2460 C 0.19963 0.76185 0.94834 0.0
H2461 H 0.32068 0.8715 0.89334 0.0
H2462 H 0.32389 0.82458 0.90407 0.0
C2463 C 0.1619 0.75507 0.95181 0.0
C2464 C 0.23992 0.76012 0.93497 0.0
H2465 H 0.25328 0.73087 0.91443 0.0
C2466 C 0.26373 0.80299 0.93396 0.0
C2467 C 0.24353 0.73483 0.92844 0.0
C2468 C 0.22716 0.68957 0.92998 0.0
C2469 C 0.28024 0.81988 0.92565 0.0
C2470 C 0.27174 0.79301 0.91836 0.0
C2471 C 0.25755 0.75126 0.91994 0.0
C2472 C 0.26404 0.8058 0.90966 0.0
C2473 C 0.29982 0.8658 0.92436 0.0
C2474 C 0.22779 0.80785 0.90877 0.0
C2475 C 0.22654 0.83617 0.90296 0.0
C2476 C 0.26141 0.86222 0.89787 0.0
C2477 C 0.2941 0.85359 0.8975 0.0
C2478 C 0.29591 0.82625 0.90354 0.0
H2479 H 0.31358 0.88267 0.93064 0.0
H2480 H 0.32409 0.87681 0.91916 0.0
H2481 H 0.27596 0.87327 0.92218 0.0
H2482 H 0.20265 0.79179 0.91344 0.0
H2483 H 0.20047 0.84109 0.9034 0.0
loop_
_geom_bond_atom_site_label_1
_geom_bond_atom_site_label_2
_geom_bond_distance
_geom_bond_site_symmetry_2
_ccdc_geom_bond_type
C0 C1 1.359 . S
C0 N5 1.330 . S
C0 C61 1.504 . S
C1 C0 1.359 . S
C1 C2 1.366 . S
C1 H63 0.929 . S
C2 C1 1.366 . S
C2 C3 1.415 . S
C2 H64 0.932 . S
C3 C2 1.415 . S
C3 C4 1.366 . S
C3 H65 0.931 . S
C4 C3 1.366 . S
C4 N5 1.325 . S
C4 C6 1.516 . S
N5 C0 1.330 . S
N5 C4 1.325 . S
N5 Co21 1.869 . S
C6 C4 1.516 . S
C6 N30 1.316 . S
C6 O53 1.263 . S
C7 C8 1.421 . S
C7 C12 1.360 . S
C7 N30 1.436 . S
C8 C7 1.421 . S
C8 C9 1.379 . S
C8 H66 0.929 . S
C9 C8 1.379 . S
C9 C10 1.417 . S
C10 C9 1.417 . S
C10 C11 1.352 . S
C10 H67 0.929 . S
C11 C10 1.352 . S
C11 C12 1.393 . S
C12 C7 1.360 . S
C12 C11 1.393 . S
C12 H68 0.931 . S
Cd13 O33 2.374 . S
Cd13 O35 2.350 . S
Cd13 O36 2.277 . S
Cd13 O38 2.173 . S
Cd13 O42 2.263 . S
Cd13 O53 2.366 . S
Cd14 O32 2.352 . S
Cd14 O39 2.250 1_556 S
Cd14 O43 2.308 1_556 S
C15 C19 1.403 . S
C15 C20 1.370 . S
C15 N31 1.423 . S
C16 C17 1.389 . S
C16 C20 1.389 . S
C17 C16 1.389 . S
C17 C18 1.379 . S
C17 H69 0.929 . S
C18 C17 1.379 . S
C18 C19 1.405 . S
C19 C15 1.403 . S
C19 C18 1.405 . S
C19 H70 0.932 . S
C20 C15 1.370 . S
C20 C16 1.389 . S
C20 H71 0.931 . S
Co21 N5 1.869 . S
Co21 N22 1.955 . S
Co21 N23 1.864 . S
Co21 N29 1.958 . S
Co21 N30 1.953 . S
Co21 N31 1.974 . S
N22 Co21 1.955 . S
N22 C40 1.329 . S
N22 C55 1.432 . S
N23 Co21 1.864 . S
N23 C24 1.327 . S
N23 C28 1.342 . S
C24 N23 1.327 . S
C24 C25 1.407 . S
C24 C40 1.481 . S
C25 C24 1.407 . S
C25 C26 1.364 . S
C25 H72 0.930 . S
C26 C25 1.364 . S
C26 C27 1.390 . S
C26 H73 0.931 . S
C27 C26 1.390 . S
C27 C28 1.346 . S
C27 H74 0.930 . S
C28 N23 1.342 . S
C28 C27 1.346 . S
C28 C44 1.516 . S
N29 Co21 1.958 . S
N29 C44 1.324 . S
N29 C46 1.427 . S
N30 C6 1.316 . S
N30 C7 1.436 . S
N30 Co21 1.953 . S
N31 C15 1.423 . S
N31 Co21 1.974 . S
N31 C61 1.309 . S
O32 Cd14 2.352 . S
O32 C52 1.235 . S
O33 Cd13 2.374 . S
O33 C52 1.238 1_554 S
C34 O35 1.270 . S
C34 O36 1.248 . S
O35 Cd13 2.350 . S
O35 C34 1.270 . S
O36 Cd13 2.277 . S
O36 C34 1.248 . S
C37 O38 1.277 . S
C37 O39 1.230 . S
O38 Cd13 2.173 . S
O38 C37 1.277 . S
O39 Cd14 2.250 1_554 S
O39 C37 1.230 . S
C40 N22 1.329 . S
C40 C24 1.481 . S
C40 O41 1.246 . S
O41 C40 1.246 . S
O42 Cd13 2.263 . S
O42 C54 1.258 . S
O43 Cd14 2.308 1_554 S
O43 C54 1.274 . S
C44 C28 1.516 . S
C44 N29 1.324 . S
C44 O45 1.238 . S
O45 C44 1.238 . S
C46 N29 1.427 . S
C46 C47 1.394 . S
C46 C51 1.395 . S
C47 C46 1.394 . S
C47 C48 1.380 . S
C47 H75 0.929 . S
C48 C47 1.380 . S
C48 C49 1.384 . S
C48 C54 1.495 . S
C49 C48 1.384 . S
C49 C50 1.382 . S
C49 H76 0.930 . S
C50 C49 1.382 . S
C50 C51 1.398 . S
C51 C46 1.395 . S
C51 C50 1.398 . S
C51 H77 0.930 . S
C52 O32 1.235 . S
C52 O33 1.238 1_556 S
O53 C6 1.263 . S
O53 Cd13 2.366 . S
C54 O42 1.258 . S
C54 O43 1.274 . S
C54 C48 1.495 . S
C55 N22 1.432 . S
C55 C56 1.381 . S
C55 C60 1.385 . S
C56 C55 1.381 . S
C56 C57 1.371 . S
C56 H78 0.932 . S
C57 C56 1.371 . S
C57 C58 1.400 . S
C58 C57 1.400 . S
C58 C59 1.351 . S
C58 H79 0.930 . S
C59 C58 1.351 . S
C59 C60 1.388 . S
C60 C55 1.385 . S
C60 C59 1.388 . S
C60 H80 0.929 . S
C61 C0 1.504 . S
C61 N31 1.309 . S
C61 O62 1.258 . S
O62 C61 1.258 . S
H63 C1 0.929 . S
H64 C2 0.932 . S
H65 C3 0.931 . S
H66 C8 0.929 . S
H67 C10 0.929 . S
H68 C12 0.931 . S
H69 C17 0.929 . S
H70 C19 0.932 . S
H71 C20 0.931 . S
H72 C25 0.930 . S
H73 C26 0.931 . S
H74 C27 0.930 . S
H75 C47 0.929 . S
H76 C49 0.930 . S
H77 C51 0.930 . S
H78 C56 0.932 . S
H79 C58 0.930 . S
H80 C60 0.929 . S
C81 C82 1.359 . S
C81 N86 1.330 . S
C81 C142 1.504 . S
C82 C81 1.359 . S
C82 C83 1.366 . S
C82 H144 0.929 . S
C83 C82 1.366 . S
C83 C84 1.415 1_655 S
C83 H145 0.932 1_655 S
C84 C83 1.415 1_455 S
C84 C85 1.366 . S
C84 H146 0.931 . S
C85 C84 1.366 . S
C85 N86 1.325 1_455 S
C85 C87 1.516 . S
N86 C81 1.330 . S
N86 C85 1.325 1_655 S
N86 Co102 1.869 . S
C87 C85 1.516 . S
C87 N111 1.316 . S
C87 O134 1.263 . S
C88 C89 1.421 . S
C88 C93 1.360 . S
C88 N111 1.436 . S
C89 C88 1.421 . S
C89 C90 1.379 . S
C89 H147 0.929 . S
C90 C89 1.379 . S
C90 C91 1.417 . S
C91 C90 1.417 . S
C91 C92 1.352 . S
C91 H148 0.929 . S
C92 C91 1.352 . S
C92 C93 1.393 . S
C93 C88 1.360 . S
C93 C92 1.393 . S
C93 H149 0.931 1_455 S
Cd94 O114 2.329 . S
Cd94 O116 2.350 . S
Cd94 O117 2.277 . S
Cd94 O119 2.173 . S
Cd94 O123 2.263 . S
Cd94 O134 2.366 . S
Cd95 O113 2.352 . S
Cd95 O120 2.250 . S
Cd95 O124 2.308 1_455 S
C96 C100 1.403 . S
C96 C101 1.370 . S
C96 N112 1.423 . S
C97 C98 1.389 . S
C97 C101 1.389 . S
C98 C97 1.389 . S
C98 C99 1.379 . S
C98 H150 0.929 . S
C99 C98 1.379 . S
C99 C100 1.405 . S
C100 C96 1.403 . S
C100 C99 1.405 . S
C100 H151 0.932 . S
C101 C96 1.370 . S
C101 C97 1.389 . S
C101 H152 0.931 . S
Co102 N86 1.869 . S
Co102 N103 1.955 1_655 S
Co102 N104 1.864 . S
Co102 N110 1.958 . S
Co102 N111 1.953 1_655 S
Co102 N112 1.974 . S
N103 Co102 1.955 1_455 S
N103 C121 1.329 . S
N103 C136 1.432 . S
N104 Co102 1.864 . S
N104 C105 1.327 . S
N104 C109 1.342 . S
C105 N104 1.327 . S
C105 C106 1.407 . S
C105 C121 1.481 1_655 S
C106 C105 1.407 . S
C106 C107 1.364 . S
C106 H153 0.930 . S
C107 C106 1.364 . S
C107 C108 1.390 . S
C107 H154 0.931 . S
C108 C107 1.390 . S
C108 C109 1.346 . S
C108 H155 0.930 . S
C109 N104 1.342 . S
C109 C108 1.346 . S
C109 C125 1.516 . S
N110 Co102 1.958 . S
N110 C125 1.324 . S
N110 C127 1.427 . S
N111 C87 1.316 . S
N111 C88 1.436 . S
N111 Co102 1.953 1_455 S
N112 C96 1.423 . S
N112 Co102 1.974 . S
N112 C142 1.309 . S
O113 Cd95 2.352 . S
O113 C133 1.235 . S
O114 Cd94 2.329 . S
O114 C133 1.270 . S
C115 O116 1.270 . S
C115 O117 1.248 . S
O116 Cd94 2.350 . S
O116 C115 1.270 . S
O117 Cd94 2.277 . S
O117 C115 1.248 . S
C118 O119 1.277 . S
C118 O120 1.230 . S
O119 Cd94 2.173 . S
O119 C118 1.277 . S
O120 Cd95 2.250 . S
O120 C118 1.230 . S
C121 N103 1.329 . S
C121 C105 1.481 1_455 S
C121 O122 1.246 . S
O122 C121 1.246 . S
O123 Cd94 2.263 . S
O123 C135 1.258 1_455 S
O124 Cd95 2.308 1_655 S
O124 C135 1.274 . S
C125 C109 1.516 . S
C125 N110 1.324 . S
C125 O126 1.238 . S
O126 C125 1.238 . S
C127 N110 1.427 . S
C127 C128 1.394 . S
C127 C132 1.395 . S
C128 C127 1.394 . S
C128 C129 1.380 . S
C128 H156 0.929 . S
C129 C128 1.380 . S
C129 C130 1.384 . S
C129 C135 1.495 . S
C130 C129 1.384 . S
C130 C131 1.382 . S
C130 H157 0.930 . S
C131 C130 1.382 . S
C131 C132 1.398 . S
C132 C127 1.395 . S
C132 C131 1.398 . S
C132 H158 0.930 . S
C133 O113 1.235 . S
C133 O114 1.270 . S
O134 C87 1.263 . S
O134 Cd94 2.366 . S
C135 O123 1.258 1_655 S
C135 O124 1.274 . S
C135 C129 1.495 . S
C136 N103 1.432 . S
C136 C137 1.381 . S
C136 C141 1.385 . S
C137 C136 1.381 . S
C137 C138 1.371 . S
C137 H159 0.932 1_455 S
C138 C137 1.371 . S
C138 C139 1.400 . S
C139 C138 1.400 . S
C139 C140 1.351 . S
C139 H160 0.930 . S
C140 C139 1.351 . S
C140 C141 1.388 . S
C141 C136 1.385 . S
C141 C140 1.388 . S
C141 H161 0.929 . S
C142 C81 1.504 . S
C142 N112 1.309 . S
C142 O143 1.258 . S
O143 C142 1.258 . S
H144 C82 0.929 . S
H145 C83 0.932 1_455 S
H146 C84 0.931 . S
H147 C89 0.929 . S
H148 C91 0.929 . S
H149 C93 0.931 1_655 S
H150 C98 0.929 . S
H151 C100 0.932 . S
H152 C101 0.931 . S
H153 C106 0.930 . S
H154 C107 0.931 . S
H155 C108 0.930 . S
H156 C128 0.929 . S
H157 C130 0.930 . S
H158 C132 0.930 . S
H159 C137 0.932 1_655 S
H160 C139 0.930 . S
H161 C141 0.929 . S
C162 C163 1.359 . S
C162 N167 1.330 . S
C162 C223 1.504 . S
C163 C162 1.359 . S
C163 C164 1.366 . S
C163 H225 0.929 . S
C164 C163 1.366 . S
C164 C165 1.415 1_565 S
C164 H226 0.932 1_565 S
C165 C164 1.415 1_545 S
C165 C166 1.366 . S
C165 H227 0.931 . S
C166 C165 1.366 . S
C166 N167 1.325 1_545 S
C166 C168 1.516 . S
N167 C162 1.330 . S
N167 C166 1.325 1_565 S
N167 Co183 1.869 . S
C168 C166 1.516 . S
C168 N192 1.316 . S
C168 O215 1.263 . S
C169 C170 1.421 . S
C169 C174 1.360 . S
C169 N192 1.436 . S
C170 C169 1.421 . S
C170 C171 1.379 . S
C170 H228 0.929 . S
C171 C170 1.379 . S
C171 C172 1.417 . S
C172 C171 1.417 . S
C172 C173 1.352 . S
C172 H229 0.929 . S
C173 C172 1.352 . S
C173 C174 1.393 . S
C174 C169 1.360 . S
C174 C173 1.393 . S
C174 H230 0.931 1_545 S
Cd175 O195 2.329 . S
Cd175 O197 2.350 . S
Cd175 O198 2.277 . S
Cd175 O200 2.173 . S
Cd175 O204 2.263 . S
Cd175 O215 2.366 . S
Cd176 O194 2.352 . S
Cd176 O201 2.250 . S
Cd176 O205 2.308 1_545 S
C177 C181 1.403 . S
C177 C182 1.370 . S
C177 N193 1.423 . S
C178 C179 1.389 . S
C178 C182 1.389 . S
C179 C178 1.389 . S
C179 C180 1.379 . S
C179 H231 0.929 . S
C180 C179 1.379 . S
C180 C181 1.405 . S
C181 C177 1.403 . S
C181 C180 1.405 . S
C181 H232 0.932 . S
C182 C177 1.370 . S
C182 C178 1.389 . S
C182 H233 0.931 . S
Co183 N167 1.869 . S
Co183 N184 1.955 1_565 S
Co183 N185 1.864 . S
Co183 N191 1.958 . S
Co183 N192 1.953 1_565 S
Co183 N193 1.974 . S
N184 Co183 1.955 1_545 S
N184 C202 1.329 . S
N184 C217 1.432 . S
N185 Co183 1.864 . S
N185 C186 1.327 . S
N185 C190 1.342 . S
C186 N185 1.327 . S
C186 C187 1.407 . S
C186 C202 1.481 1_565 S
C187 C186 1.407 . S
C187 C188 1.364 . S
C187 H234 0.930 . S
C188 C187 1.364 . S
C188 C189 1.390 . S
C188 H235 0.931 . S
C189 C188 1.390 . S
C189 C190 1.346 . S
C189 H236 0.930 . S
C190 N185 1.342 . S
C190 C189 1.346 . S
C190 C206 1.516 . S
N191 Co183 1.958 . S
N191 C206 1.324 . S
N191 C208 1.427 . S
N192 C168 1.316 . S
N192 C169 1.436 . S
N192 Co183 1.953 1_545 S
N193 C177 1.423 . S
N193 Co183 1.974 . S
N193 C223 1.309 . S
O194 Cd176 2.352 . S
O194 C214 1.235 . S
O195 Cd175 2.329 . S
O195 C214 1.270 . S
C196 O197 1.270 . S
C196 O198 1.248 . S
O197 Cd175 2.350 . S
O197 C196 1.270 . S
O198 Cd175 2.277 . S
O198 C196 1.248 . S
C199 O200 1.277 . S
C199 O201 1.230 . S
O200 Cd175 2.173 . S
O200 C199 1.277 . S
O201 Cd176 2.250 . S
O201 C199 1.230 . S
C202 N184 1.329 . S
C202 C186 1.481 1_545 S
C202 O203 1.246 . S
O203 C202 1.246 . S
O204 Cd175 2.263 . S
O204 C216 1.258 1_545 S
O205 Cd176 2.308 1_565 S
O205 C216 1.274 . S
C206 C190 1.516 . S
C206 N191 1.324 . S
C206 O207 1.238 . S
O207 C206 1.238 . S
C208 N191 1.427 . S
C208 C209 1.394 . S
C208 C213 1.395 . S
C209 C208 1.394 . S
C209 C210 1.380 . S
C209 H237 0.929 . S
C210 C209 1.380 . S
C210 C211 1.384 . S
C210 C216 1.495 . S
C211 C210 1.384 . S
C211 C212 1.382 . S
C211 H238 0.930 . S
C212 C211 1.382 . S
C212 C213 1.398 . S
C213 C208 1.395 . S
C213 C212 1.398 . S
C213 H239 0.930 . S
C214 O194 1.235 . S
C214 O195 1.270 . S
O215 C168 1.263 . S
O215 Cd175 2.366 . S
C216 O204 1.258 1_565 S
C216 O205 1.274 . S
C216 C210 1.495 . S
C217 N184 1.432 . S
C217 C218 1.381 . S
C217 C222 1.385 . S
C218 C217 1.381 . S
C218 C219 1.371 . S
C218 H240 0.932 1_545 S
C219 C218 1.371 . S
C219 C220 1.400 . S
C220 C219 1.400 . S
C220 C221 1.351 . S
C220 H241 0.930 . S
C221 C220 1.351 . S
C221 C222 1.388 . S
C222 C217 1.385 . S
C222 C221 1.388 . S
C222 H242 0.929 . S
C223 C162 1.504 . S
C223 N193 1.309 . S
C223 O224 1.258 . S
O224 C223 1.258 . S
H225 C163 0.929 . S
H226 C164 0.932 1_545 S
H227 C165 0.931 . S
H228 C170 0.929 . S
H229 C172 0.929 . S
H230 C174 0.931 1_565 S
H231 C179 0.929 . S
H232 C181 0.932 . S
H233 C182 0.931 . S
H234 C187 0.930 . S
H235 C188 0.931 . S
H236 C189 0.930 . S
H237 C209 0.929 . S
H238 C211 0.930 . S
H239 C213 0.930 . S
H240 C218 0.932 1_565 S
H241 C220 0.930 . S
H242 C222 0.929 . S
C243 C244 1.359 . S
C243 N248 1.330 . S
C243 C304 1.504 . S
C244 C243 1.359 . S
C244 C245 1.366 . S
C244 H306 0.929 . S
C245 C244 1.366 . S
C245 C246 1.415 . S
C245 H307 0.932 . S
C246 C245 1.415 . S
C246 C247 1.366 . S
C246 H308 0.931 . S
C247 C246 1.366 . S
C247 N248 1.325 . S
C247 C249 1.516 . S
N248 C243 1.330 . S
N248 C247 1.325 . S
N248 Co264 1.869 . S
C249 C247 1.516 . S
C249 N273 1.316 . S
C249 O296 1.263 . S
C250 C251 1.421 . S
C250 C255 1.360 . S
C250 N273 1.436 . S
C251 C250 1.421 . S
C251 C252 1.379 . S
C251 H309 0.929 . S
C252 C251 1.379 . S
C252 C253 1.417 . S
C253 C252 1.417 . S
C253 C254 1.352 . S
C253 H310 0.929 . S
C254 C253 1.352 . S
C254 C255 1.393 . S
C255 C250 1.360 . S
C255 C254 1.393 . S
C255 H311 0.931 . S
Cd256 O276 2.329 . S
Cd256 O278 2.350 . S
Cd256 O279 2.277 . S
Cd256 O281 2.173 . S
Cd256 O285 2.263 . S
Cd256 O296 2.366 . S
Cd257 O275 2.352 . S
Cd257 O282 2.250 . S
Cd257 O286 2.308 . S
C258 C262 1.403 . S
C258 C263 1.370 . S
C258 N274 1.423 . S
C259 C260 1.389 . S
C259 C263 1.389 . S
C260 C259 1.389 . S
C260 C261 1.379 . S
C260 H312 0.929 . S
C261 C260 1.379 . S
C261 C262 1.405 . S
C262 C258 1.403 . S
C262 C261 1.405 . S
C262 H313 0.932 . S
C263 C258 1.370 . S
C263 C259 1.389 . S
C263 H314 0.931 . S
Co264 N248 1.869 . S
Co264 N265 1.955 . S
Co264 N266 1.864 . S
Co264 N272 1.958 . S
Co264 N273 1.953 . S
Co264 N274 1.974 . S
N265 Co264 1.955 . S
N265 C283 1.329 . S
N265 C298 1.432 . S
N266 Co264 1.864 . S
N266 C267 1.327 . S
N266 C271 1.342 . S
C267 N266 1.327 . S
C267 C268 1.407 . S
C267 C283 1.481 . S
C268 C267 1.407 . S
C268 C269 1.364 . S
C268 H315 0.930 . S
C269 C268 1.364 . S
C269 C270 1.390 . S
C269 H316 0.931 . S
C270 C269 1.390 . S
C270 C271 1.346 . S
C270 H317 0.930 . S
C271 N266 1.342 . S
C271 C270 1.346 . S
C271 C287 1.516 . S
N272 Co264 1.958 . S
N272 C287 1.324 . S
N272 C289 1.427 . S
N273 C249 1.316 . S
N273 C250 1.436 . S
N273 Co264 1.953 . S
N274 C258 1.423 . S
N274 Co264 1.974 . S
N274 C304 1.309 . S
O275 Cd257 2.352 . S
O275 C295 1.235 . S
O276 Cd256 2.329 . S
O276 C295 1.270 . S
C277 O278 1.270 . S
C277 O279 1.248 . S
O278 Cd256 2.350 . S
O278 C277 1.270 . S
O279 Cd256 2.277 . S
O279 C277 1.248 . S
C280 O281 1.277 . S
C280 O282 1.230 . S
O281 Cd256 2.173 . S
O281 C280 1.277 . S
O282 Cd257 2.250 . S
O282 C280 1.230 . S
C283 N265 1.329 . S
C283 C267 1.481 . S
C283 O284 1.246 . S
O284 C283 1.246 . S
O285 Cd256 2.263 . S
O285 C297 1.258 . S
O286 Cd257 2.308 . S
O286 C297 1.274 . S
C287 C271 1.516 . S
C287 N272 1.324 . S
C287 O288 1.238 . S
O288 C287 1.238 . S
C289 N272 1.427 . S
C289 C290 1.394 . S
C289 C294 1.395 . S
C290 C289 1.394 . S
C290 C291 1.380 . S
C290 H318 0.929 . S
C291 C290 1.380 . S
C291 C292 1.384 . S
C291 C297 1.495 . S
C292 C291 1.384 . S
C292 C293 1.382 . S
C292 H319 0.930 . S
C293 C292 1.382 . S
C293 C294 1.398 . S
C294 C289 1.395 . S
C294 C293 1.398 . S
C294 H320 0.930 . S
C295 O275 1.235 . S
C295 O276 1.270 . S
O296 C249 1.263 . S
O296 Cd256 2.366 . S
C297 O285 1.258 . S
C297 O286 1.274 . S
C297 C291 1.495 . S
C298 N265 1.432 . S
C298 C299 1.381 . S
C298 C303 1.385 . S
C299 C298 1.381 . S
C299 C300 1.371 . S
C299 H321 0.932 . S
C300 C299 1.371 . S
C300 C301 1.400 . S
C301 C300 1.400 . S
C301 C302 1.351 . S
C301 H322 0.930 . S
C302 C301 1.351 . S
C302 C303 1.388 . S
C303 C298 1.385 . S
C303 C302 1.388 . S
C303 H323 0.929 . S
C304 C243 1.504 . S
C304 N274 1.309 . S
C304 O305 1.258 . S
O305 C304 1.258 . S
H306 C244 0.929 . S
H307 C245 0.932 . S
H308 C246 0.931 . S
H309 C251 0.929 . S
H310 C253 0.929 . S
H311 C255 0.931 . S
H312 C260 0.929 . S
H313 C262 0.932 . S
H314 C263 0.931 . S
H315 C268 0.930 . S
H316 C269 0.931 . S
H317 C270 0.930 . S
H318 C290 0.929 . S
H319 C292 0.930 . S
H320 C294 0.930 . S
H321 C299 0.932 . S
H322 C301 0.930 . S
H323 C303 0.929 . S
C324 C325 1.359 . S
C324 N329 1.330 . S
C324 C385 1.504 . S
C325 C324 1.359 . S
C325 C326 1.366 . S
C325 H387 0.929 . S
C326 C325 1.366 . S
C326 C327 1.415 1_455 S
C326 H388 0.932 1_455 S
C327 C326 1.415 1_655 S
C327 C328 1.366 . S
C327 H389 0.931 . S
C328 C327 1.366 . S
C328 N329 1.325 1_655 S
C328 C330 1.516 . S
N329 C324 1.330 . S
N329 C328 1.325 1_455 S
N329 Co345 1.869 . S
C330 C328 1.516 . S
C330 N354 1.316 . S
C330 O377 1.263 . S
C331 C332 1.421 . S
C331 C336 1.360 . S
C331 N354 1.436 . S
C332 C331 1.421 . S
C332 C333 1.379 . S
C332 H390 0.929 . S
C333 C332 1.379 . S
C333 C334 1.417 . S
C334 C333 1.417 . S
C334 C335 1.352 . S
C334 H391 0.929 . S
C335 C334 1.352 . S
C335 C336 1.393 . S
C336 C331 1.360 . S
C336 C335 1.393 . S
C336 H392 0.931 1_655 S
Cd337 O357 2.329 . S
Cd337 O359 2.350 . S
Cd337 O360 2.277 . S
Cd337 O362 2.173 . S
Cd337 O366 2.263 . S
Cd337 O377 2.366 . S
Cd338 O356 2.352 . S
Cd338 O363 2.250 . S
Cd338 O367 2.308 1_655 S
C339 C343 1.403 . S
C339 C344 1.370 . S
C339 N355 1.423 . S
C340 C341 1.389 . S
C340 C344 1.389 . S
C341 C340 1.389 . S
C341 C342 1.379 . S
C341 H393 0.929 . S
C342 C341 1.379 . S
C342 C343 1.405 . S
C343 C339 1.403 . S
C343 C342 1.405 . S
C343 H394 0.932 . S
C344 C339 1.370 . S
C344 C340 1.389 . S
C344 H395 0.931 . S
Co345 N329 1.869 . S
Co345 N346 1.955 1_455 S
Co345 N347 1.864 . S
Co345 N353 1.958 . S
Co345 N354 1.953 1_455 S
Co345 N355 1.974 . S
N346 Co345 1.955 1_655 S
N346 C364 1.329 . S
N346 C379 1.432 . S
N347 Co345 1.864 . S
N347 C348 1.327 . S
N347 C352 1.342 . S
C348 N347 1.327 . S
C348 C349 1.407 . S
C348 C364 1.481 1_455 S
C349 C348 1.407 . S
C349 C350 1.364 . S
C349 H396 0.930 . S
C350 C349 1.364 . S
C350 C351 1.390 . S
C350 H397 0.931 . S
C351 C350 1.390 . S
C351 C352 1.346 . S
C351 H398 0.930 . S
C352 N347 1.342 . S
C352 C351 1.346 . S
C352 C368 1.516 . S
N353 Co345 1.958 . S
N353 C368 1.324 . S
N353 C370 1.427 . S
N354 C330 1.316 . S
N354 C331 1.436 . S
N354 Co345 1.953 1_655 S
N355 C339 1.423 . S
N355 Co345 1.974 . S
N355 C385 1.309 . S
O356 Cd338 2.352 . S
O356 C376 1.235 . S
O357 Cd337 2.329 . S
O357 C376 1.270 . S
C358 O359 1.270 . S
C358 O360 1.248 . S
O359 Cd337 2.350 . S
O359 C358 1.270 . S
O360 Cd337 2.277 . S
O360 C358 1.248 . S
C361 O362 1.277 . S
C361 O363 1.230 . S
O362 Cd337 2.173 . S
O362 C361 1.277 . S
O363 Cd338 2.250 . S
O363 C361 1.230 . S
C364 N346 1.329 . S
C364 C348 1.481 1_655 S
C364 O365 1.246 . S
O365 C364 1.246 . S
O366 Cd337 2.263 . S
O366 C378 1.258 1_655 S
O367 Cd338 2.308 1_455 S
O367 C378 1.274 . S
C368 C352 1.516 . S
C368 N353 1.324 . S
C368 O369 1.238 . S
O369 C368 1.238 . S
C370 N353 1.427 . S
C370 C371 1.394 . S
C370 C375 1.395 . S
C371 C370 1.394 . S
C371 C372 1.380 . S
C371 H399 0.929 . S
C372 C371 1.380 . S
C372 C373 1.384 . S
C372 C378 1.495 . S
C373 C372 1.384 . S
C373 C374 1.382 . S
C373 H400 0.930 . S
C374 C373 1.382 . S
C374 C375 1.398 . S
C375 C370 1.395 . S
C375 C374 1.398 . S
C375 H401 0.930 . S
C376 O356 1.235 . S
C376 O357 1.270 . S
O377 C330 1.263 . S
O377 Cd337 2.366 . S
C378 O366 1.258 1_455 S
C378 O367 1.274 . S
C378 C372 1.495 . S
C379 N346 1.432 . S
C379 C380 1.381 . S
C379 C384 1.385 . S
C380 C379 1.381 . S
C380 C381 1.371 . S
C380 H402 0.932 1_655 S
C381 C380 1.371 . S
C381 C382 1.400 . S
C382 C381 1.400 . S
C382 C383 1.351 . S
C382 H403 0.930 . S
C383 C382 1.351 . S
C383 C384 1.388 . S
C384 C379 1.385 . S
C384 C383 1.388 . S
C384 H404 0.929 . S
C385 C324 1.504 . S
C385 N355 1.309 . S
C385 O386 1.258 . S
O386 C385 1.258 . S
H387 C325 0.929 . S
H388 C326 0.932 1_655 S
H389 C327 0.931 . S
H390 C332 0.929 . S
H391 C334 0.929 . S
H392 C336 0.931 1_455 S
H393 C341 0.929 . S
H394 C343 0.932 . S
H395 C344 0.931 . S
H396 C349 0.930 . S
H397 C350 0.931 . S
H398 C351 0.930 . S
H399 C371 0.929 . S
H400 C373 0.930 . S
H401 C375 0.930 . S
H402 C380 0.932 1_455 S
H403 C382 0.930 . S
H404 C384 0.929 . S
C405 C406 1.359 . S
C405 N410 1.330 . S
C405 C466 1.504 . S
C406 C405 1.359 . S
C406 C407 1.366 . S
C406 H468 0.929 . S
C407 C406 1.366 . S
C407 C408 1.415 1_545 S
C407 H469 0.932 1_545 S
C408 C407 1.415 1_565 S
C408 C409 1.366 . S
C408 H470 0.931 . S
C409 C408 1.366 . S
C409 N410 1.325 1_565 S
C409 C411 1.516 . S
N410 C405 1.330 . S
N410 C409 1.325 1_545 S
N410 Co426 1.869 . S
C411 C409 1.516 . S
C411 N435 1.316 . S
C411 O458 1.263 . S
C412 C413 1.421 . S
C412 C417 1.360 . S
C412 N435 1.436 . S
C413 C412 1.421 . S
C413 C414 1.379 . S
C413 H471 0.929 . S
C414 C413 1.379 . S
C414 C415 1.417 . S
C415 C414 1.417 . S
C415 C416 1.352 . S
C415 H472 0.929 . S
C416 C415 1.352 . S
C416 C417 1.393 . S
C417 C412 1.360 . S
C417 C416 1.393 . S
C417 H473 0.931 1_565 S
Cd418 O438 2.329 . S
Cd418 O440 2.350 . S
Cd418 O441 2.277 . S
Cd418 O443 2.173 . S
Cd418 O447 2.263 . S
Cd418 O458 2.366 . S
Cd419 O437 2.352 . S
Cd419 O444 2.250 . S
Cd419 O448 2.308 1_565 S
C420 C424 1.403 . S
C420 C425 1.370 . S
C420 N436 1.423 . S
C421 C422 1.389 . S
C421 C425 1.389 . S
C422 C421 1.389 . S
C422 C423 1.379 . S
C422 H474 0.929 . S
C423 C422 1.379 . S
C423 C424 1.405 . S
C424 C420 1.403 . S
C424 C423 1.405 . S
C424 H475 0.932 . S
C425 C420 1.370 . S
C425 C421 1.389 . S
C425 H476 0.931 . S
Co426 N410 1.869 . S
Co426 N427 1.955 1_545 S
Co426 N428 1.864 . S
Co426 N434 1.958 . S
Co426 N435 1.953 1_545 S
Co426 N436 1.974 . S
N427 Co426 1.955 1_565 S
N427 C445 1.329 . S
N427 C460 1.432 . S
N428 Co426 1.864 . S
N428 C429 1.327 . S
N428 C433 1.342 . S
C429 N428 1.327 . S
C429 C430 1.407 . S
C429 C445 1.481 1_545 S
C430 C429 1.407 . S
C430 C431 1.364 . S
C430 H477 0.930 . S
C431 C430 1.364 . S
C431 C432 1.390 . S
C431 H478 0.931 . S
C432 C431 1.390 . S
C432 C433 1.346 . S
C432 H479 0.930 . S
C433 N428 1.342 . S
C433 C432 1.346 . S
C433 C449 1.516 . S
N434 Co426 1.958 . S
N434 C449 1.324 . S
N434 C451 1.427 . S
N435 C411 1.316 . S
N435 C412 1.436 . S
N435 Co426 1.953 1_565 S
N436 C420 1.423 . S
N436 Co426 1.974 . S
N436 C466 1.309 . S
O437 Cd419 2.352 . S
O437 C457 1.235 . S
O438 Cd418 2.329 . S
O438 C457 1.270 . S
C439 O440 1.270 . S
C439 O441 1.248 . S
O440 Cd418 2.350 . S
O440 C439 1.270 . S
O441 Cd418 2.277 . S
O441 C439 1.248 . S
C442 O443 1.277 . S
C442 O444 1.230 . S
O443 Cd418 2.173 . S
O443 C442 1.277 . S
O444 Cd419 2.250 . S
O444 C442 1.230 . S
C445 N427 1.329 . S
C445 C429 1.481 1_565 S
C445 O446 1.246 . S
O446 C445 1.246 . S
O447 Cd418 2.263 . S
O447 C459 1.258 1_565 S
O448 Cd419 2.308 1_545 S
O448 C459 1.274 . S
C449 C433 1.516 . S
C449 N434 1.324 . S
C449 O450 1.238 . S
O450 C449 1.238 . S
C451 N434 1.427 . S
C451 C452 1.394 . S
C451 C456 1.395 . S
C452 C451 1.394 . S
C452 C453 1.380 . S
C452 H480 0.929 . S
C453 C452 1.380 . S
C453 C454 1.384 . S
C453 C459 1.495 . S
C454 C453 1.384 . S
C454 C455 1.382 . S
C454 H481 0.930 . S
C455 C454 1.382 . S
C455 C456 1.398 . S
C456 C451 1.395 . S
C456 C455 1.398 . S
C456 H482 0.930 . S
C457 O437 1.235 . S
C457 O438 1.270 . S
O458 C411 1.263 . S
O458 Cd418 2.366 . S
C459 O447 1.258 1_545 S
C459 O448 1.274 . S
C459 C453 1.495 . S
C460 N427 1.432 . S
C460 C461 1.381 . S
C460 C465 1.385 . S
C461 C460 1.381 . S
C461 C462 1.371 . S
C461 H483 0.932 1_565 S
C462 C461 1.371 . S
C462 C463 1.400 . S
C463 C462 1.400 . S
C463 C464 1.351 . S
C463 H484 0.930 . S
C464 C463 1.351 . S
C464 C465 1.388 . S
C465 C460 1.385 . S
C465 C464 1.388 . S
C465 H485 0.929 . S
C466 C405 1.504 . S
C466 N436 1.309 . S
C466 O467 1.258 . S
O467 C466 1.258 . S
H468 C406 0.929 . S
H469 C407 0.932 1_565 S
H470 C408 0.931 . S
H471 C413 0.929 . S
H472 C415 0.929 . S
H473 C417 0.931 1_545 S
H474 C422 0.929 . S
H475 C424 0.932 . S
H476 C425 0.931 . S
H477 C430 0.930 . S
H478 C431 0.931 . S
H479 C432 0.930 . S
H480 C452 0.929 . S
H481 C454 0.930 . S
H482 C456 0.930 . S
H483 C461 0.932 1_545 S
H484 C463 0.930 . S
H485 C465 0.929 . S
C486 C487 1.359 . S
C486 N491 1.330 . S
C486 C547 1.504 . S
C487 C486 1.359 . S
C487 C488 1.366 . S
C487 H549 0.929 . S
C488 C487 1.366 . S
C488 C489 1.415 . S
C488 H550 0.932 . S
C489 C488 1.415 . S
C489 C490 1.366 . S
C489 H551 0.931 . S
C490 C489 1.366 . S
C490 N491 1.325 . S
C490 C492 1.516 . S
N491 C486 1.330 . S
N491 C490 1.325 . S
N491 Co507 1.869 . S
C492 C490 1.516 . S
C492 N516 1.316 . S
C492 O539 1.263 . S
C493 C494 1.421 . S
C493 C498 1.360 . S
C493 N516 1.436 . S
C494 C493 1.421 . S
C494 C495 1.379 . S
C494 H552 0.929 . S
C495 C494 1.379 . S
C495 C496 1.417 . S
C496 C495 1.417 . S
C496 C497 1.352 . S
C496 H553 0.929 . S
C497 C496 1.352 . S
C497 C498 1.393 . S
C498 C493 1.360 . S
C498 C497 1.393 . S
C498 H554 0.931 . S
Cd499 O519 2.329 . S
Cd499 O521 2.350 . S
Cd499 O522 2.277 . S
Cd499 O524 2.173 . S
Cd499 O528 2.263 . S
Cd499 O539 2.366 . S
Cd500 O518 2.352 . S
Cd500 O525 2.250 . S
Cd500 O529 2.308 . S
C501 C505 1.403 . S
C501 C506 1.370 . S
C501 N517 1.423 . S
C502 C503 1.389 . S
C502 C506 1.389 . S
C503 C502 1.389 . S
C503 C504 1.379 . S
C503 H555 0.929 . S
C504 C503 1.379 . S
C504 C505 1.405 . S
C505 C501 1.403 . S
C505 C504 1.405 . S
C505 H556 0.932 . S
C506 C501 1.370 . S
C506 C502 1.389 . S
C506 H557 0.931 . S
Co507 N491 1.869 . S
Co507 N508 1.955 . S
Co507 N509 1.864 . S
Co507 N515 1.958 . S
Co507 N516 1.953 . S
Co507 N517 1.974 . S
N508 Co507 1.955 . S
N508 C526 1.329 . S
N508 C541 1.432 . S
N509 Co507 1.864 . S
N509 C510 1.327 . S
N509 C514 1.342 . S
C510 N509 1.327 . S
C510 C511 1.407 . S
C510 C526 1.481 . S
C511 C510 1.407 . S
C511 C512 1.364 . S
C511 H558 0.930 . S
C512 C511 1.364 . S
C512 C513 1.390 . S
C512 H559 0.931 . S
C513 C512 1.390 . S
C513 C514 1.346 . S
C513 H560 0.930 . S
C514 N509 1.342 . S
C514 C513 1.346 . S
C514 C530 1.516 . S
N515 Co507 1.958 . S
N515 C530 1.324 . S
N515 C532 1.427 . S
N516 C492 1.316 . S
N516 C493 1.436 . S
N516 Co507 1.953 . S
N517 C501 1.423 . S
N517 Co507 1.974 . S
N517 C547 1.309 . S
O518 Cd500 2.352 . S
O518 C538 1.235 . S
O519 Cd499 2.329 . S
O519 C538 1.270 . S
C520 O521 1.270 . S
C520 O522 1.248 . S
O521 Cd499 2.350 . S
O521 C520 1.270 . S
O522 Cd499 2.277 . S
O522 C520 1.248 . S
C523 O524 1.277 . S
C523 O525 1.230 . S
O524 Cd499 2.173 . S
O524 C523 1.277 . S
O525 Cd500 2.250 . S
O525 C523 1.230 . S
C526 N508 1.329 . S
C526 C510 1.481 . S
C526 O527 1.246 . S
O527 C526 1.246 . S
O528 Cd499 2.263 . S
O528 C540 1.258 . S
O529 Cd500 2.308 . S
O529 C540 1.274 . S
C530 C514 1.516 . S
C530 N515 1.324 . S
C530 O531 1.238 . S
O531 C530 1.238 . S
C532 N515 1.427 . S
C532 C533 1.394 . S
C532 C537 1.395 . S
C533 C532 1.394 . S
C533 C534 1.380 . S
C533 H561 0.929 . S
C534 C533 1.380 . S
C534 C535 1.384 . S
C534 C540 1.495 . S
C535 C534 1.384 . S
C535 C536 1.382 . S
C535 H562 0.930 . S
C536 C535 1.382 . S
C536 C537 1.398 . S
C537 C532 1.395 . S
C537 C536 1.398 . S
C537 H563 0.930 . S
C538 O518 1.235 . S
C538 O519 1.270 . S
O539 C492 1.263 . S
O539 Cd499 2.366 . S
C540 O528 1.258 . S
C540 O529 1.274 . S
C540 C534 1.495 . S
C541 N508 1.432 . S
C541 C542 1.381 . S
C541 C546 1.385 . S
C542 C541 1.381 . S
C542 C543 1.371 . S
C542 H564 0.932 . S
C543 C542 1.371 . S
C543 C544 1.400 . S
C544 C543 1.400 . S
C544 C545 1.351 . S
C544 H565 0.930 . S
C545 C544 1.351 . S
C545 C546 1.388 . S
C546 C541 1.385 . S
C546 C545 1.388 . S
C546 H566 0.929 . S
C547 C486 1.504 . S
C547 N517 1.309 . S
C547 O548 1.258 . S
O548 C547 1.258 . S
H549 C487 0.929 . S
H550 C488 0.932 . S
H551 C489 0.931 . S
H552 C494 0.929 . S
H553 C496 0.929 . S
H554 C498 0.931 . S
H555 C503 0.929 . S
H556 C505 0.932 . S
H557 C506 0.931 . S
H558 C511 0.930 . S
H559 C512 0.931 . S
H560 C513 0.930 . S
H561 C533 0.929 . S
H562 C535 0.930 . S
H563 C537 0.930 . S
H564 C542 0.932 . S
H565 C544 0.930 . S
H566 C546 0.929 . S
C567 C568 1.359 . S
C567 N572 1.330 . S
C567 C628 1.504 . S
C568 C567 1.359 . S
C568 C569 1.366 . S
C568 H630 0.929 . S
C569 C568 1.366 . S
C569 C570 1.415 1_655 S
C569 H631 0.932 1_655 S
C570 C569 1.415 1_455 S
C570 C571 1.366 . S
C570 H632 0.931 . S
C571 C570 1.366 . S
C571 N572 1.325 1_455 S
C571 C573 1.516 . S
N572 C567 1.330 . S
N572 C571 1.325 1_655 S
N572 Co588 1.869 . S
C573 C571 1.516 . S
C573 N597 1.316 . S
C573 O620 1.263 . S
C574 C575 1.421 . S
C574 C579 1.360 . S
C574 N597 1.436 . S
C575 C574 1.421 . S
C575 C576 1.379 . S
C575 H633 0.929 . S
C576 C575 1.379 . S
C576 C577 1.417 . S
C577 C576 1.417 . S
C577 C578 1.352 . S
C577 H634 0.929 . S
C578 C577 1.352 . S
C578 C579 1.393 . S
C579 C574 1.360 . S
C579 C578 1.393 . S
C579 H635 0.931 1_455 S
Cd580 O600 2.354 . S
Cd580 O602 2.350 . S
Cd580 O603 2.277 . S
Cd580 O605 2.173 . S
Cd580 O609 2.263 . S
Cd580 O620 2.366 . S
Cd581 O599 2.352 . S
Cd581 O606 2.250 1_554 S
Cd581 O610 2.308 1_454 S
C582 C586 1.403 . S
C582 C587 1.370 . S
C582 N598 1.423 . S
C583 C584 1.389 . S
C583 C587 1.389 . S
C584 C583 1.389 . S
C584 C585 1.379 . S
C584 H636 0.929 . S
C585 C584 1.379 . S
C585 C586 1.405 . S
C586 C582 1.403 . S
C586 C585 1.405 . S
C586 H637 0.932 . S
C587 C582 1.370 . S
C587 C583 1.389 . S
C587 H638 0.931 . S
Co588 N572 1.869 . S
Co588 N589 1.955 1_655 S
Co588 N590 1.864 . S
Co588 N596 1.958 . S
Co588 N597 1.953 1_655 S
Co588 N598 1.974 . S
N589 Co588 1.955 1_455 S
N589 C607 1.329 . S
N589 C622 1.432 . S
N590 Co588 1.864 . S
N590 C591 1.327 . S
N590 C595 1.342 . S
C591 N590 1.327 . S
C591 C592 1.407 . S
C591 C607 1.481 1_655 S
C592 C591 1.407 . S
C592 C593 1.364 . S
C592 H639 0.930 . S
C593 C592 1.364 . S
C593 C594 1.390 . S
C593 H640 0.931 . S
C594 C593 1.390 . S
C594 C595 1.346 . S
C594 H641 0.930 . S
C595 N590 1.342 . S
C595 C594 1.346 . S
C595 C611 1.516 . S
N596 Co588 1.958 . S
N596 C611 1.324 . S
N596 C613 1.427 . S
N597 C573 1.316 . S
N597 C574 1.436 . S
N597 Co588 1.953 1_455 S
N598 C582 1.423 . S
N598 Co588 1.974 . S
N598 C628 1.309 . S
O599 Cd581 2.352 . S
O599 C619 1.235 . S
O600 Cd580 2.354 . S
O600 C619 1.252 1_556 S
C601 O602 1.270 . S
C601 O603 1.248 . S
O602 Cd580 2.350 . S
O602 C601 1.270 . S
O603 Cd580 2.277 . S
O603 C601 1.248 . S
C604 O605 1.277 . S
C604 O606 1.230 . S
O605 Cd580 2.173 . S
O605 C604 1.277 . S
O606 Cd581 2.250 1_556 S
O606 C604 1.230 . S
C607 N589 1.329 . S
C607 C591 1.481 1_455 S
C607 O608 1.246 . S
O608 C607 1.246 . S
O609 Cd580 2.263 . S
O609 C621 1.258 1_455 S
O610 Cd581 2.308 1_656 S
O610 C621 1.274 . S
C611 C595 1.516 . S
C611 N596 1.324 . S
C611 O612 1.238 . S
O612 C611 1.238 . S
C613 N596 1.427 . S
C613 C614 1.394 . S
C613 C618 1.395 . S
C614 C613 1.394 . S
C614 C615 1.380 . S
C614 H642 0.929 . S
C615 C614 1.380 . S
C615 C616 1.384 . S
C615 C621 1.495 . S
C616 C615 1.384 . S
C616 C617 1.382 . S
C616 H643 0.930 . S
C617 C616 1.382 . S
C617 C618 1.398 . S
C618 C613 1.395 . S
C618 C617 1.398 . S
C618 H644 0.930 . S
C619 O599 1.235 . S
C619 O600 1.252 1_554 S
O620 C573 1.263 . S
O620 Cd580 2.366 . S
C621 O609 1.258 1_655 S
C621 O610 1.274 . S
C621 C615 1.495 . S
C622 N589 1.432 . S
C622 C623 1.381 . S
C622 C627 1.385 . S
C623 C622 1.381 . S
C623 C624 1.371 . S
C623 H645 0.932 1_455 S
C624 C623 1.371 . S
C624 C625 1.400 . S
C625 C624 1.400 . S
C625 C626 1.351 . S
C625 H646 0.930 . S
C626 C625 1.351 . S
C626 C627 1.388 . S
C627 C622 1.385 . S
C627 C626 1.388 . S
C627 H647 0.929 . S
C628 C567 1.504 . S
C628 N598 1.309 . S
C628 O629 1.258 . S
O629 C628 1.258 . S
H630 C568 0.929 . S
H631 C569 0.932 1_455 S
H632 C570 0.931 . S
H633 C575 0.929 . S
H634 C577 0.929 . S
H635 C579 0.931 1_655 S
H636 C584 0.929 . S
H637 C586 0.932 . S
H638 C587 0.931 . S
H639 C592 0.930 . S
H640 C593 0.931 . S
H641 C594 0.930 . S
H642 C614 0.929 . S
H643 C616 0.930 . S
H644 C618 0.930 . S
H645 C623 0.932 1_655 S
H646 C625 0.930 . S
H647 C627 0.929 . S
C648 C649 1.359 . S
C648 N653 1.330 . S
C648 C709 1.504 . S
C649 C648 1.359 . S
C649 C650 1.366 . S
C649 H711 0.929 . S
C650 C649 1.366 . S
C650 C651 1.415 1_565 S
C650 H712 0.932 1_565 S
C651 C650 1.415 1_545 S
C651 C652 1.366 . S
C651 H713 0.931 . S
C652 C651 1.366 . S
C652 N653 1.325 1_545 S
C652 C654 1.516 . S
N653 C648 1.330 . S
N653 C652 1.325 1_565 S
N653 Co669 1.869 . S
C654 C652 1.516 . S
C654 N678 1.316 . S
C654 O701 1.263 . S
C655 C656 1.421 . S
C655 C660 1.360 . S
C655 N678 1.436 . S
C656 C655 1.421 . S
C656 C657 1.379 . S
C656 H714 0.929 . S
C657 C656 1.379 . S
C657 C658 1.417 . S
C658 C657 1.417 . S
C658 C659 1.352 . S
C658 H715 0.929 . S
C659 C658 1.352 . S
C659 C660 1.393 . S
C660 C655 1.360 . S
C660 C659 1.393 . S
C660 H716 0.931 1_545 S
Cd661 O681 2.329 . S
Cd661 O683 2.350 . S
Cd661 O684 2.277 . S
Cd661 O686 2.173 . S
Cd661 O690 2.263 . S
Cd661 O701 2.366 . S
Cd662 O680 2.352 . S
Cd662 O687 2.250 . S
Cd662 O691 2.308 1_545 S
C663 C667 1.403 . S
C663 C668 1.370 . S
C663 N679 1.423 . S
C664 C665 1.389 . S
C664 C668 1.389 . S
C665 C664 1.389 . S
C665 C666 1.379 . S
C665 H717 0.929 . S
C666 C665 1.379 . S
C666 C667 1.405 . S
C667 C663 1.403 . S
C667 C666 1.405 . S
C667 H718 0.932 . S
C668 C663 1.370 . S
C668 C664 1.389 . S
C668 H719 0.931 . S
Co669 N653 1.869 . S
Co669 N670 1.955 1_565 S
Co669 N671 1.864 . S
Co669 N677 1.958 . S
Co669 N678 1.953 1_565 S
Co669 N679 1.974 . S
N670 Co669 1.955 1_545 S
N670 C688 1.329 . S
N670 C703 1.432 . S
N671 Co669 1.864 . S
N671 C672 1.327 . S
N671 C676 1.342 . S
C672 N671 1.327 . S
C672 C673 1.407 . S
C672 C688 1.481 1_565 S
C673 C672 1.407 . S
C673 C674 1.364 . S
C673 H720 0.930 . S
C674 C673 1.364 . S
C674 C675 1.390 . S
C674 H721 0.931 . S
C675 C674 1.390 . S
C675 C676 1.346 . S
C675 H722 0.930 . S
C676 N671 1.342 . S
C676 C675 1.346 . S
C676 C692 1.516 . S
N677 Co669 1.958 . S
N677 C692 1.324 . S
N677 C694 1.427 . S
N678 C654 1.316 . S
N678 C655 1.436 . S
N678 Co669 1.953 1_545 S
N679 C663 1.423 . S
N679 Co669 1.974 . S
N679 C709 1.309 . S
O680 Cd662 2.352 . S
O680 C700 1.235 . S
O681 Cd661 2.329 . S
O681 C700 1.270 . S
C682 O683 1.270 . S
C682 O684 1.248 . S
O683 Cd661 2.350 . S
O683 C682 1.270 . S
O684 Cd661 2.277 . S
O684 C682 1.248 . S
C685 O686 1.277 . S
C685 O687 1.230 . S
O686 Cd661 2.173 . S
O686 C685 1.277 . S
O687 Cd662 2.250 . S
O687 C685 1.230 . S
C688 N670 1.329 . S
C688 C672 1.481 1_545 S
C688 O689 1.246 . S
O689 C688 1.246 . S
O690 Cd661 2.263 . S
O690 C702 1.258 1_545 S
O691 Cd662 2.308 1_565 S
O691 C702 1.274 . S
C692 C676 1.516 . S
C692 N677 1.324 . S
C692 O693 1.238 . S
O693 C692 1.238 . S
C694 N677 1.427 . S
C694 C695 1.394 . S
C694 C699 1.395 . S
C695 C694 1.394 . S
C695 C696 1.380 . S
C695 H723 0.929 . S
C696 C695 1.380 . S
C696 C697 1.384 . S
C696 C702 1.495 . S
C697 C696 1.384 . S
C697 C698 1.382 . S
C697 H724 0.930 . S
C698 C697 1.382 . S
C698 C699 1.398 . S
C699 C694 1.395 . S
C699 C698 1.398 . S
C699 H725 0.930 . S
C700 O680 1.235 . S
C700 O681 1.270 . S
O701 C654 1.263 . S
O701 Cd661 2.366 . S
C702 O690 1.258 1_565 S
C702 O691 1.274 . S
C702 C696 1.495 . S
C703 N670 1.432 . S
C703 C704 1.381 . S
C703 C708 1.385 . S
C704 C703 1.381 . S
C704 C705 1.371 . S
C704 H726 0.932 1_545 S
C705 C704 1.371 . S
C705 C706 1.400 . S
C706 C705 1.400 . S
C706 C707 1.351 . S
C706 H727 0.930 . S
C707 C706 1.351 . S
C707 C708 1.388 . S
C708 C703 1.385 . S
C708 C707 1.388 . S
C708 H728 0.929 . S
C709 C648 1.504 . S
C709 N679 1.309 . S
C709 O710 1.258 . S
O710 C709 1.258 . S
H711 C649 0.929 . S
H712 C650 0.932 1_545 S
H713 C651 0.931 . S
H714 C656 0.929 . S
H715 C658 0.929 . S
H716 C660 0.931 1_565 S
H717 C665 0.929 . S
H718 C667 0.932 . S
H719 C668 0.931 . S
H720 C673 0.930 . S
H721 C674 0.931 . S
H722 C675 0.930 . S
H723 C695 0.929 . S
H724 C697 0.930 . S
H725 C699 0.930 . S
H726 C704 0.932 1_565 S
H727 C706 0.930 . S
H728 C708 0.929 . S
C729 C730 1.359 . S
C729 N734 1.330 . S
C729 C790 1.504 . S
C730 C729 1.359 . S
C730 C731 1.366 . S
C730 H792 0.929 . S
C731 C730 1.366 . S
C731 C732 1.415 . S
C731 H793 0.932 . S
C732 C731 1.415 . S
C732 C733 1.366 . S
C732 H794 0.931 . S
C733 C732 1.366 . S
C733 N734 1.325 . S
C733 C735 1.516 . S
N734 C729 1.330 . S
N734 C733 1.325 . S
N734 Co750 1.869 . S
C735 C733 1.516 . S
C735 N759 1.316 . S
C735 O782 1.263 . S
C736 C737 1.421 . S
C736 C741 1.360 . S
C736 N759 1.436 . S
C737 C736 1.421 . S
C737 C738 1.379 . S
C737 H795 0.929 . S
C738 C737 1.379 . S
C738 C739 1.417 . S
C739 C738 1.417 . S
C739 C740 1.352 . S
C739 H796 0.929 . S
C740 C739 1.352 . S
C740 C741 1.393 . S
C741 C736 1.360 . S
C741 C740 1.393 . S
C741 H797 0.931 . S
Cd742 O762 2.329 . S
Cd742 O764 2.350 . S
Cd742 O765 2.277 . S
Cd742 O767 2.173 . S
Cd742 O771 2.263 . S
Cd742 O782 2.366 . S
Cd743 O761 2.352 . S
Cd743 O768 2.250 . S
Cd743 O772 2.308 . S
C744 C748 1.403 . S
C744 C749 1.370 . S
C744 N760 1.423 . S
C745 C746 1.389 . S
C745 C749 1.389 . S
C746 C745 1.389 . S
C746 C747 1.379 . S
C746 H798 0.929 . S
C747 C746 1.379 . S
C747 C748 1.405 . S
C748 C744 1.403 . S
C748 C747 1.405 . S
C748 H799 0.932 . S
C749 C744 1.370 . S
C749 C745 1.389 . S
C749 H800 0.931 . S
Co750 N734 1.869 . S
Co750 N751 1.955 . S
Co750 N752 1.864 . S
Co750 N758 1.958 . S
Co750 N759 1.953 . S
Co750 N760 1.974 . S
N751 Co750 1.955 . S
N751 C769 1.329 . S
N751 C784 1.432 . S
N752 Co750 1.864 . S
N752 C753 1.327 . S
N752 C757 1.342 . S
C753 N752 1.327 . S
C753 C754 1.407 . S
C753 C769 1.481 . S
C754 C753 1.407 . S
C754 C755 1.364 . S
C754 H801 0.930 . S
C755 C754 1.364 . S
C755 C756 1.390 . S
C755 H802 0.931 . S
C756 C755 1.390 . S
C756 C757 1.346 . S
C756 H803 0.930 . S
C757 N752 1.342 . S
C757 C756 1.346 . S
C757 C773 1.516 . S
N758 Co750 1.958 . S
N758 C773 1.324 . S
N758 C775 1.427 . S
N759 C735 1.316 . S
N759 C736 1.436 . S
N759 Co750 1.953 . S
N760 C744 1.423 . S
N760 Co750 1.974 . S
N760 C790 1.309 . S
O761 Cd743 2.352 . S
O761 C781 1.235 . S
O762 Cd742 2.329 . S
O762 C781 1.270 . S
C763 O764 1.270 . S
C763 O765 1.248 . S
O764 Cd742 2.350 . S
O764 C763 1.270 . S
O765 Cd742 2.277 . S
O765 C763 1.248 . S
C766 O767 1.277 . S
C766 O768 1.230 . S
O767 Cd742 2.173 . S
O767 C766 1.277 . S
O768 Cd743 2.250 . S
O768 C766 1.230 . S
C769 N751 1.329 . S
C769 C753 1.481 . S
C769 O770 1.246 . S
O770 C769 1.246 . S
O771 Cd742 2.263 . S
O771 C783 1.258 . S
O772 Cd743 2.308 . S
O772 C783 1.274 . S
C773 C757 1.516 . S
C773 N758 1.324 . S
C773 O774 1.238 . S
O774 C773 1.238 . S
C775 N758 1.427 . S
C775 C776 1.394 . S
C775 C780 1.395 . S
C776 C775 1.394 . S
C776 C777 1.380 . S
C776 H804 0.929 . S
C777 C776 1.380 . S
C777 C778 1.384 . S
C777 C783 1.495 . S
C778 C777 1.384 . S
C778 C779 1.382 . S
C778 H805 0.930 . S
C779 C778 1.382 . S
C779 C780 1.398 . S
C780 C775 1.395 . S
C780 C779 1.398 . S
C780 H806 0.930 . S
C781 O761 1.235 . S
C781 O762 1.270 . S
O782 C735 1.263 . S
O782 Cd742 2.366 . S
C783 O771 1.258 . S
C783 O772 1.274 . S
C783 C777 1.495 . S
C784 N751 1.432 . S
C784 C785 1.381 . S
C784 C789 1.385 . S
C785 C784 1.381 . S
C785 C786 1.371 . S
C785 H807 0.932 . S
C786 C785 1.371 . S
C786 C787 1.400 . S
C787 C786 1.400 . S
C787 C788 1.351 . S
C787 H808 0.930 . S
C788 C787 1.351 . S
C788 C789 1.388 . S
C789 C784 1.385 . S
C789 C788 1.388 . S
C789 H809 0.929 . S
C790 C729 1.504 . S
C790 N760 1.309 . S
C790 O791 1.258 . S
O791 C790 1.258 . S
H792 C730 0.929 . S
H793 C731 0.932 . S
H794 C732 0.931 . S
H795 C737 0.929 . S
H796 C739 0.929 . S
H797 C741 0.931 . S
H798 C746 0.929 . S
H799 C748 0.932 . S
H800 C749 0.931 . S
H801 C754 0.930 . S
H802 C755 0.931 . S
H803 C756 0.930 . S
H804 C776 0.929 . S
H805 C778 0.930 . S
H806 C780 0.930 . S
H807 C785 0.932 . S
H808 C787 0.930 . S
H809 C789 0.929 . S
C810 C811 1.359 . S
C810 N815 1.330 . S
C810 C871 1.504 . S
C811 C810 1.359 . S
C811 C812 1.366 . S
C811 H873 0.929 . S
C812 C811 1.366 . S
C812 C813 1.415 1_455 S
C812 H874 0.932 1_455 S
C813 C812 1.415 1_655 S
C813 C814 1.366 . S
C813 H875 0.931 . S
C814 C813 1.366 . S
C814 N815 1.325 1_655 S
C814 C816 1.516 . S
N815 C810 1.330 . S
N815 C814 1.325 1_455 S
N815 Co831 1.869 . S
C816 C814 1.516 . S
C816 N840 1.316 . S
C816 O863 1.263 . S
C817 C818 1.421 . S
C817 C822 1.360 . S
C817 N840 1.436 . S
C818 C817 1.421 . S
C818 C819 1.379 . S
C818 H876 0.929 . S
C819 C818 1.379 . S
C819 C820 1.417 . S
C820 C819 1.417 . S
C820 C821 1.352 . S
C820 H877 0.929 . S
C821 C820 1.352 . S
C821 C822 1.393 . S
C822 C817 1.360 . S
C822 C821 1.393 . S
C822 H878 0.931 1_655 S
Cd823 O843 2.329 . S
Cd823 O845 2.350 . S
Cd823 O846 2.277 . S
Cd823 O848 2.173 . S
Cd823 O852 2.263 . S
Cd823 O863 2.366 . S
Cd824 O842 2.352 . S
Cd824 O849 2.250 . S
Cd824 O853 2.308 1_655 S
C825 C829 1.403 . S
C825 C830 1.370 . S
C825 N841 1.423 . S
C826 C827 1.389 . S
C826 C830 1.389 . S
C827 C826 1.389 . S
C827 C828 1.379 . S
C827 H879 0.929 . S
C828 C827 1.379 . S
C828 C829 1.405 . S
C829 C825 1.403 . S
C829 C828 1.405 . S
C829 H880 0.932 . S
C830 C825 1.370 . S
C830 C826 1.389 . S
C830 H881 0.931 . S
Co831 N815 1.869 . S
Co831 N832 1.955 1_455 S
Co831 N833 1.864 . S
Co831 N839 1.958 . S
Co831 N840 1.953 1_455 S
Co831 N841 1.974 . S
N832 Co831 1.955 1_655 S
N832 C850 1.329 . S
N832 C865 1.432 . S
N833 Co831 1.864 . S
N833 C834 1.327 . S
N833 C838 1.342 . S
C834 N833 1.327 . S
C834 C835 1.407 . S
C834 C850 1.481 1_455 S
C835 C834 1.407 . S
C835 C836 1.364 . S
C835 H882 0.930 . S
C836 C835 1.364 . S
C836 C837 1.390 . S
C836 H883 0.931 . S
C837 C836 1.390 . S
C837 C838 1.346 . S
C837 H884 0.930 . S
C838 N833 1.342 . S
C838 C837 1.346 . S
C838 C854 1.516 . S
N839 Co831 1.958 . S
N839 C854 1.324 . S
N839 C856 1.427 . S
N840 C816 1.316 . S
N840 C817 1.436 . S
N840 Co831 1.953 1_655 S
N841 C825 1.423 . S
N841 Co831 1.974 . S
N841 C871 1.309 . S
O842 Cd824 2.352 . S
O842 C862 1.235 . S
O843 Cd823 2.329 . S
O843 C862 1.270 . S
C844 O845 1.270 . S
C844 O846 1.248 . S
O845 Cd823 2.350 . S
O845 C844 1.270 . S
O846 Cd823 2.277 . S
O846 C844 1.248 . S
C847 O848 1.277 . S
C847 O849 1.230 . S
O848 Cd823 2.173 . S
O848 C847 1.277 . S
O849 Cd824 2.250 . S
O849 C847 1.230 . S
C850 N832 1.329 . S
C850 C834 1.481 1_655 S
C850 O851 1.246 . S
O851 C850 1.246 . S
O852 Cd823 2.263 . S
O852 C864 1.258 1_655 S
O853 Cd824 2.308 1_455 S
O853 C864 1.274 . S
C854 C838 1.516 . S
C854 N839 1.324 . S
C854 O855 1.238 . S
O855 C854 1.238 . S
C856 N839 1.427 . S
C856 C857 1.394 . S
C856 C861 1.395 . S
C857 C856 1.394 . S
C857 C858 1.380 . S
C857 H885 0.929 . S
C858 C857 1.380 . S
C858 C859 1.384 . S
C858 C864 1.495 . S
C859 C858 1.384 . S
C859 C860 1.382 . S
C859 H886 0.930 . S
C860 C859 1.382 . S
C860 C861 1.398 . S
C861 C856 1.395 . S
C861 C860 1.398 . S
C861 H887 0.930 . S
C862 O842 1.235 . S
C862 O843 1.270 . S
O863 C816 1.263 . S
O863 Cd823 2.366 . S
C864 O852 1.258 1_455 S
C864 O853 1.274 . S
C864 C858 1.495 . S
C865 N832 1.432 . S
C865 C866 1.381 . S
C865 C870 1.385 . S
C866 C865 1.381 . S
C866 C867 1.371 . S
C866 H888 0.932 1_655 S
C867 C866 1.371 . S
C867 C868 1.400 . S
C868 C867 1.400 . S
C868 C869 1.351 . S
C868 H889 0.930 . S
C869 C868 1.351 . S
C869 C870 1.388 . S
C870 C865 1.385 . S
C870 C869 1.388 . S
C870 H890 0.929 . S
C871 C810 1.504 . S
C871 N841 1.309 . S
C871 O872 1.258 . S
O872 C871 1.258 . S
H873 C811 0.929 . S
H874 C812 0.932 1_655 S
H875 C813 0.931 . S
H876 C818 0.929 . S
H877 C820 0.929 . S
H878 C822 0.931 1_455 S
H879 C827 0.929 . S
H880 C829 0.932 . S
H881 C830 0.931 . S
H882 C835 0.930 . S
H883 C836 0.931 . S
H884 C837 0.930 . S
H885 C857 0.929 . S
H886 C859 0.930 . S
H887 C861 0.930 . S
H888 C866 0.932 1_455 S
H889 C868 0.930 . S
H890 C870 0.929 . S
C891 C892 1.359 . S
C891 N896 1.330 . S
C891 C952 1.504 . S
C892 C891 1.359 . S
C892 C893 1.366 . S
C892 H954 0.929 . S
C893 C892 1.366 . S
C893 C894 1.415 1_545 S
C893 H955 0.932 1_545 S
C894 C893 1.415 1_565 S
C894 C895 1.366 . S
C894 H956 0.931 . S
C895 C894 1.366 . S
C895 N896 1.325 1_565 S
C895 C897 1.516 . S
N896 C891 1.330 . S
N896 C895 1.325 1_545 S
N896 Co912 1.869 . S
C897 C895 1.516 . S
C897 N921 1.316 . S
C897 O944 1.263 . S
C898 C899 1.421 . S
C898 C903 1.360 . S
C898 N921 1.436 . S
C899 C898 1.421 . S
C899 C900 1.379 . S
C899 H957 0.929 . S
C900 C899 1.379 . S
C900 C901 1.417 . S
C901 C900 1.417 . S
C901 C902 1.352 . S
C901 H958 0.929 . S
C902 C901 1.352 . S
C902 C903 1.393 . S
C903 C898 1.360 . S
C903 C902 1.393 . S
C903 H959 0.931 1_565 S
Cd904 O924 2.329 . S
Cd904 O926 2.350 . S
Cd904 O927 2.277 . S
Cd904 O929 2.173 . S
Cd904 O933 2.263 . S
Cd904 O944 2.366 . S
Cd905 O923 2.352 . S
Cd905 O930 2.250 . S
Cd905 O934 2.308 1_565 S
C906 C910 1.403 . S
C906 C911 1.370 . S
C906 N922 1.423 . S
C907 C908 1.389 . S
C907 C911 1.389 . S
C908 C907 1.389 . S
C908 C909 1.379 . S
C908 H960 0.929 . S
C909 C908 1.379 . S
C909 C910 1.405 . S
C910 C906 1.403 . S
C910 C909 1.405 . S
C910 H961 0.932 . S
C911 C906 1.370 . S
C911 C907 1.389 . S
C911 H962 0.931 . S
Co912 N896 1.869 . S
Co912 N913 1.955 1_545 S
Co912 N914 1.864 . S
Co912 N920 1.958 . S
Co912 N921 1.953 1_545 S
Co912 N922 1.974 . S
N913 Co912 1.955 1_565 S
N913 C931 1.329 . S
N913 C946 1.432 . S
N914 Co912 1.864 . S
N914 C915 1.327 . S
N914 C919 1.342 . S
C915 N914 1.327 . S
C915 C916 1.407 . S
C915 C931 1.481 1_545 S
C916 C915 1.407 . S
C916 C917 1.364 . S
C916 H963 0.930 . S
C917 C916 1.364 . S
C917 C918 1.390 . S
C917 H964 0.931 . S
C918 C917 1.390 . S
C918 C919 1.346 . S
C918 H965 0.930 . S
C919 N914 1.342 . S
C919 C918 1.346 . S
C919 C935 1.516 . S
N920 Co912 1.958 . S
N920 C935 1.324 . S
N920 C937 1.427 . S
N921 C897 1.316 . S
N921 C898 1.436 . S
N921 Co912 1.953 1_565 S
N922 C906 1.423 . S
N922 Co912 1.974 . S
N922 C952 1.309 . S
O923 Cd905 2.352 . S
O923 C943 1.235 . S
O924 Cd904 2.329 . S
O924 C943 1.270 . S
C925 O926 1.270 . S
C925 O927 1.248 . S
O926 Cd904 2.350 . S
O926 C925 1.270 . S
O927 Cd904 2.277 . S
O927 C925 1.248 . S
C928 O929 1.277 . S
C928 O930 1.230 . S
O929 Cd904 2.173 . S
O929 C928 1.277 . S
O930 Cd905 2.250 . S
O930 C928 1.230 . S
C931 N913 1.329 . S
C931 C915 1.481 1_565 S
C931 O932 1.246 . S
O932 C931 1.246 . S
O933 Cd904 2.263 . S
O933 C945 1.258 1_565 S
O934 Cd905 2.308 1_545 S
O934 C945 1.274 . S
C935 C919 1.516 . S
C935 N920 1.324 . S
C935 O936 1.238 . S
O936 C935 1.238 . S
C937 N920 1.427 . S
C937 C938 1.394 . S
C937 C942 1.395 . S
C938 C937 1.394 . S
C938 C939 1.380 . S
C938 H966 0.929 . S
C939 C938 1.380 . S
C939 C940 1.384 . S
C939 C945 1.495 . S
C940 C939 1.384 . S
C940 C941 1.382 . S
C940 H967 0.930 . S
C941 C940 1.382 . S
C941 C942 1.398 . S
C942 C937 1.395 . S
C942 C941 1.398 . S
C942 H968 0.930 . S
C943 O923 1.235 . S
C943 O924 1.270 . S
O944 C897 1.263 . S
O944 Cd904 2.366 . S
C945 O933 1.258 1_545 S
C945 O934 1.274 . S
C945 C939 1.495 . S
C946 N913 1.432 . S
C946 C947 1.381 . S
C946 C951 1.385 . S
C947 C946 1.381 . S
C947 C948 1.371 . S
C947 H969 0.932 1_565 S
C948 C947 1.371 . S
C948 C949 1.400 . S
C949 C948 1.400 . S
C949 C950 1.351 . S
C949 H970 0.930 . S
C950 C949 1.351 . S
C950 C951 1.388 . S
C951 C946 1.385 . S
C951 C950 1.388 . S
C951 H971 0.929 . S
C952 C891 1.504 . S
C952 N922 1.309 . S
C952 O953 1.258 . S
O953 C952 1.258 . S
H954 C892 0.929 . S
H955 C893 0.932 1_565 S
H956 C894 0.931 . S
H957 C899 0.929 . S
H958 C901 0.929 . S
H959 C903 0.931 1_545 S
H960 C908 0.929 . S
H961 C910 0.932 . S
H962 C911 0.931 . S
H963 C916 0.930 . S
H964 C917 0.931 . S
H965 C918 0.930 . S
H966 C938 0.929 . S
H967 C940 0.930 . S
H968 C942 0.930 . S
H969 C947 0.932 1_545 S
H970 C949 0.930 . S
H971 C951 0.929 . S
H972 C980 0.929 . S
H973 C982 0.930 . S
H974 C984 0.930 . S
H975 C987 0.929 . S
H976 C990 0.930 . S
H977 C992 0.960 . S
H978 C992 0.960 . S
H979 C992 0.960 . S
C980 H972 0.929 . S
C980 C981 1.377 . S
C980 C982 1.384 . S
C981 C980 1.377 . S
C981 C987 1.390 . S
C982 H973 0.930 . S
C982 C980 1.384 . S
C982 C983 1.372 . S
C983 C982 1.372 . S
C983 C984 1.400 . S
C983 C988 1.490 . S
C984 H974 0.930 . S
C984 C983 1.400 . S
C984 C987 1.386 . S
H985 C1001 0.930 . S
H986 C1002 0.931 . S
C987 H975 0.929 . S
C987 C981 1.390 . S
C987 C984 1.386 . S
C988 C983 1.490 . S
C988 C990 1.395 . S
C988 C991 1.403 . S
H989 C995 0.930 . S
C990 H976 0.930 . S
C990 C988 1.395 . S
C990 C993 1.403 . S
C991 C988 1.403 . S
C991 C992 1.524 . S
C991 C995 1.400 . S
C992 H977 0.960 . S
C992 H978 0.960 . S
C992 H979 0.960 . S
C992 C991 1.524 . S
C993 C990 1.403 . S
C993 C994 1.392 . S
C993 C997 1.495 . S
C994 C993 1.392 . S
C994 C995 1.385 . S
C994 C996 1.478 . S
C995 H989 0.930 . S
C995 C991 1.400 . S
C995 C994 1.385 . S
C996 C994 1.478 . S
C996 C998 1.381 . S
C996 C1002 1.383 . S
C997 C993 1.495 . S
C997 H1003 0.959 . S
C997 H1004 0.961 . S
C997 H1005 0.960 . S
C998 C996 1.381 . S
C998 C999 1.394 . S
C998 H1006 0.930 . S
C999 C998 1.394 . S
C999 C1000 1.383 . S
C999 H1007 0.929 . S
C1000 C999 1.383 . S
C1000 C1001 1.377 . S
C1001 H985 0.930 . S
C1001 C1000 1.377 . S
C1001 C1002 1.379 . S
C1002 H986 0.931 . S
C1002 C996 1.383 . S
C1002 C1001 1.379 . S
H1003 C997 0.959 . S
H1004 C997 0.961 . S
H1005 C997 0.960 . S
H1006 C998 0.930 . S
H1007 C999 0.929 . S
H1008 C1016 0.929 . S
H1009 C1018 0.930 . S
H1010 C1020 0.930 . S
H1011 C1023 0.929 . S
H1012 C1026 0.930 . S
H1013 C1028 0.960 . S
H1014 C1028 0.960 . S
H1015 C1028 0.960 . S
C1016 H1008 0.929 . S
C1016 C1017 1.377 . S
C1016 C1018 1.384 . S
C1017 C1016 1.377 . S
C1017 C1023 1.390 . S
C1018 H1009 0.930 . S
C1018 C1016 1.384 . S
C1018 C1019 1.372 . S
C1019 C1018 1.372 . S
C1019 C1020 1.400 . S
C1019 C1024 1.490 . S
C1020 H1010 0.930 . S
C1020 C1019 1.400 . S
C1020 C1023 1.386 . S
H1021 C1037 0.930 . S
H1022 C1038 0.931 . S
C1023 H1011 0.929 . S
C1023 C1017 1.390 . S
C1023 C1020 1.386 . S
C1024 C1019 1.490 . S
C1024 C1026 1.395 . S
C1024 C1027 1.403 . S
H1025 C1031 0.930 . S
C1026 H1012 0.930 . S
C1026 C1024 1.395 . S
C1026 C1029 1.403 . S
C1027 C1024 1.403 . S
C1027 C1028 1.524 . S
C1027 C1031 1.400 . S
C1028 H1013 0.960 . S
C1028 H1014 0.960 . S
C1028 H1015 0.960 . S
C1028 C1027 1.524 . S
C1029 C1026 1.403 . S
C1029 C1030 1.392 . S
C1029 C1033 1.495 . S
C1030 C1029 1.392 . S
C1030 C1031 1.385 . S
C1030 C1032 1.478 . S
C1031 H1025 0.930 . S
C1031 C1027 1.400 . S
C1031 C1030 1.385 . S
C1032 C1030 1.478 . S
C1032 C1034 1.381 . S
C1032 C1038 1.383 . S
C1033 C1029 1.495 . S
C1033 H1039 0.959 . S
C1033 H1040 0.961 . S
C1033 H1041 0.960 . S
C1034 C1032 1.381 . S
C1034 C1035 1.394 . S
C1034 H1042 0.930 . S
C1035 C1034 1.394 . S
C1035 C1036 1.383 . S
C1035 H1043 0.929 . S
C1036 C1035 1.383 . S
C1036 C1037 1.377 . S
C1037 H1021 0.930 . S
C1037 C1036 1.377 . S
C1037 C1038 1.379 . S
C1038 H1022 0.931 . S
C1038 C1032 1.383 . S
C1038 C1037 1.379 . S
H1039 C1033 0.959 . S
H1040 C1033 0.961 . S
H1041 C1033 0.960 . S
H1042 C1034 0.930 . S
H1043 C1035 0.929 . S
H1044 C1052 0.929 . S
H1045 C1054 0.930 . S
H1046 C1056 0.930 . S
H1047 C1059 0.929 . S
H1048 C1062 0.930 . S
H1049 C1064 0.960 . S
H1050 C1064 0.960 . S
H1051 C1064 0.960 . S
C1052 H1044 0.929 . S
C1052 C1053 1.377 . S
C1052 C1054 1.384 . S
C1053 C1052 1.377 . S
C1053 C1059 1.390 . S
C1054 H1045 0.930 . S
C1054 C1052 1.384 . S
C1054 C1055 1.372 . S
C1055 C1054 1.372 . S
C1055 C1056 1.400 . S
C1055 C1060 1.490 . S
C1056 H1046 0.930 . S
C1056 C1055 1.400 . S
C1056 C1059 1.386 . S
H1057 C1073 0.930 . S
H1058 C1074 0.931 . S
C1059 H1047 0.929 . S
C1059 C1053 1.390 . S
C1059 C1056 1.386 . S
C1060 C1055 1.490 . S
C1060 C1062 1.395 . S
C1060 C1063 1.403 . S
H1061 C1067 0.930 . S
C1062 H1048 0.930 . S
C1062 C1060 1.395 . S
C1062 C1065 1.403 . S
C1063 C1060 1.403 . S
C1063 C1064 1.524 . S
C1063 C1067 1.400 . S
C1064 H1049 0.960 . S
C1064 H1050 0.960 . S
C1064 H1051 0.960 . S
C1064 C1063 1.524 . S
C1065 C1062 1.403 . S
C1065 C1066 1.392 . S
C1065 C1069 1.495 . S
C1066 C1065 1.392 . S
C1066 C1067 1.385 . S
C1066 C1068 1.478 . S
C1067 H1061 0.930 . S
C1067 C1063 1.400 . S
C1067 C1066 1.385 . S
C1068 C1066 1.478 . S
C1068 C1070 1.381 . S
C1068 C1074 1.383 . S
C1069 C1065 1.495 . S
C1069 H1075 0.959 . S
C1069 H1076 0.961 . S
C1069 H1077 0.960 . S
C1070 C1068 1.381 . S
C1070 C1071 1.394 . S
C1070 H1078 0.930 . S
C1071 C1070 1.394 . S
C1071 C1072 1.383 . S
C1071 H1079 0.929 . S
C1072 C1071 1.383 . S
C1072 C1073 1.377 . S
C1073 H1057 0.930 . S
C1073 C1072 1.377 . S
C1073 C1074 1.379 . S
C1074 H1058 0.931 . S
C1074 C1068 1.383 . S
C1074 C1073 1.379 . S
H1075 C1069 0.959 . S
H1076 C1069 0.961 . S
H1077 C1069 0.960 . S
H1078 C1070 0.930 . S
H1079 C1071 0.929 . S
H1080 C1088 0.929 . S
H1081 C1090 0.930 . S
H1082 C1092 0.930 . S
H1083 C1095 0.929 . S
H1084 C1098 0.930 . S
H1085 C1100 0.960 . S
H1086 C1100 0.960 . S
H1087 C1100 0.960 . S
C1088 H1080 0.929 . S
C1088 C1089 1.377 . S
C1088 C1090 1.384 . S
C1089 C1088 1.377 . S
C1089 C1095 1.390 . S
C1090 H1081 0.930 . S
C1090 C1088 1.384 . S
C1090 C1091 1.372 . S
C1091 C1090 1.372 . S
C1091 C1092 1.400 . S
C1091 C1096 1.490 . S
C1092 H1082 0.930 . S
C1092 C1091 1.400 . S
C1092 C1095 1.386 . S
H1093 C1109 0.930 . S
H1094 C1110 0.931 . S
C1095 H1083 0.929 . S
C1095 C1089 1.390 . S
C1095 C1092 1.386 . S
C1096 C1091 1.490 . S
C1096 C1098 1.395 . S
C1096 C1099 1.403 . S
H1097 C1103 0.930 . S
C1098 H1084 0.930 . S
C1098 C1096 1.395 . S
C1098 C1101 1.403 . S
C1099 C1096 1.403 . S
C1099 C1100 1.524 . S
C1099 C1103 1.400 . S
C1100 H1085 0.960 . S
C1100 H1086 0.960 . S
C1100 H1087 0.960 . S
C1100 C1099 1.524 . S
C1101 C1098 1.403 . S
C1101 C1102 1.392 . S
C1101 C1105 1.495 . S
C1102 C1101 1.392 . S
C1102 C1103 1.385 . S
C1102 C1104 1.478 . S
C1103 H1097 0.930 . S
C1103 C1099 1.400 . S
C1103 C1102 1.385 . S
C1104 C1102 1.478 . S
C1104 C1106 1.381 . S
C1104 C1110 1.383 . S
C1105 C1101 1.495 . S
C1105 H1111 0.959 . S
C1105 H1112 0.961 . S
C1105 H1113 0.960 . S
C1106 C1104 1.381 . S
C1106 C1107 1.394 . S
C1106 H1114 0.930 . S
C1107 C1106 1.394 . S
C1107 C1108 1.383 . S
C1107 H1115 0.929 . S
C1108 C1107 1.383 . S
C1108 C1109 1.377 . S
C1109 H1093 0.930 . S
C1109 C1108 1.377 . S
C1109 C1110 1.379 . S
C1110 H1094 0.931 . S
C1110 C1104 1.383 . S
C1110 C1109 1.379 . S
H1111 C1105 0.959 . S
H1112 C1105 0.961 . S
H1113 C1105 0.960 . S
H1114 C1106 0.930 . S
H1115 C1107 0.929 . S
H1116 C1124 0.929 . S
H1117 C1126 0.930 . S
H1118 C1128 0.930 . S
H1119 C1131 0.929 . S
H1120 C1134 0.930 . S
H1121 C1136 0.960 . S
H1122 C1136 0.960 . S
H1123 C1136 0.960 . S
C1124 H1116 0.929 . S
C1124 C1125 1.377 . S
C1124 C1126 1.384 . S
C1125 C1124 1.377 . S
C1125 C1131 1.390 . S
C1126 H1117 0.930 . S
C1126 C1124 1.384 . S
C1126 C1127 1.372 . S
C1127 C1126 1.372 . S
C1127 C1128 1.400 . S
C1127 C1132 1.490 . S
C1128 H1118 0.930 . S
C1128 C1127 1.400 . S
C1128 C1131 1.386 . S
H1129 C1145 0.930 . S
H1130 C1146 0.931 . S
C1131 H1119 0.929 . S
C1131 C1125 1.390 . S
C1131 C1128 1.386 . S
C1132 C1127 1.490 . S
C1132 C1134 1.395 . S
C1132 C1135 1.403 . S
H1133 C1139 0.930 . S
C1134 H1120 0.930 . S
C1134 C1132 1.395 . S
C1134 C1137 1.403 . S
C1135 C1132 1.403 . S
C1135 C1136 1.524 . S
C1135 C1139 1.400 . S
C1136 H1121 0.960 . S
C1136 H1122 0.960 . S
C1136 H1123 0.960 . S
C1136 C1135 1.524 . S
C1137 C1134 1.403 . S
C1137 C1138 1.392 . S
C1137 C1141 1.495 . S
C1138 C1137 1.392 . S
C1138 C1139 1.385 . S
C1138 C1140 1.478 . S
C1139 H1133 0.930 . S
C1139 C1135 1.400 . S
C1139 C1138 1.385 . S
C1140 C1138 1.478 . S
C1140 C1142 1.381 . S
C1140 C1146 1.383 . S
C1141 C1137 1.495 . S
C1141 H1147 0.959 . S
C1141 H1148 0.961 . S
C1141 H1149 0.960 . S
C1142 C1140 1.381 . S
C1142 C1143 1.394 . S
C1142 H1150 0.930 . S
C1143 C1142 1.394 . S
C1143 C1144 1.383 . S
C1143 H1151 0.929 . S
C1144 C1143 1.383 . S
C1144 C1145 1.377 . S
C1145 H1129 0.930 . S
C1145 C1144 1.377 . S
C1145 C1146 1.379 . S
C1146 H1130 0.931 . S
C1146 C1140 1.383 . S
C1146 C1145 1.379 . S
H1147 C1141 0.959 . S
H1148 C1141 0.961 . S
H1149 C1141 0.960 . S
H1150 C1142 0.930 . S
H1151 C1143 0.929 . S
H1152 C1160 0.929 . S
H1153 C1162 0.930 . S
H1154 C1164 0.930 . S
H1155 C1167 0.929 . S
H1156 C1170 0.930 . S
H1157 C1172 0.960 . S
H1158 C1172 0.960 . S
H1159 C1172 0.960 . S
C1160 H1152 0.929 . S
C1160 C1161 1.377 . S
C1160 C1162 1.384 . S
C1161 C1160 1.377 . S
C1161 C1167 1.390 . S
C1162 H1153 0.930 . S
C1162 C1160 1.384 . S
C1162 C1163 1.372 . S
C1163 C1162 1.372 . S
C1163 C1164 1.400 . S
C1163 C1168 1.490 . S
C1164 H1154 0.930 . S
C1164 C1163 1.400 . S
C1164 C1167 1.386 . S
H1165 C1181 0.930 . S
H1166 C1182 0.931 . S
C1167 H1155 0.929 . S
C1167 C1161 1.390 . S
C1167 C1164 1.386 . S
C1168 C1163 1.490 . S
C1168 C1170 1.395 . S
C1168 C1171 1.403 . S
H1169 C1175 0.930 . S
C1170 H1156 0.930 . S
C1170 C1168 1.395 . S
C1170 C1173 1.403 . S
C1171 C1168 1.403 . S
C1171 C1172 1.524 . S
C1171 C1175 1.400 . S
C1172 H1157 0.960 . S
C1172 H1158 0.960 . S
C1172 H1159 0.960 . S
C1172 C1171 1.524 . S
C1173 C1170 1.403 . S
C1173 C1174 1.392 . S
C1173 C1177 1.495 . S
C1174 C1173 1.392 . S
C1174 C1175 1.385 . S
C1174 C1176 1.478 . S
C1175 H1169 0.930 . S
C1175 C1171 1.400 . S
C1175 C1174 1.385 . S
C1176 C1174 1.478 . S
C1176 C1178 1.381 . S
C1176 C1182 1.383 . S
C1177 C1173 1.495 . S
C1177 H1183 0.959 . S
C1177 H1184 0.961 . S
C1177 H1185 0.960 . S
C1178 C1176 1.381 . S
C1178 C1179 1.394 . S
C1178 H1186 0.930 . S
C1179 C1178 1.394 . S
C1179 C1180 1.383 . S
C1179 H1187 0.929 . S
C1180 C1179 1.383 . S
C1180 C1181 1.377 . S
C1181 H1165 0.930 . S
C1181 C1180 1.377 . S
C1181 C1182 1.379 . S
C1182 H1166 0.931 . S
C1182 C1176 1.383 . S
C1182 C1181 1.379 . S
H1183 C1177 0.959 . S
H1184 C1177 0.961 . S
H1185 C1177 0.960 . S
H1186 C1178 0.930 . S
H1187 C1179 0.929 . S
H1188 C1196 0.929 . S
H1189 C1198 0.930 . S
H1190 C1200 0.930 . S
H1191 C1203 0.929 . S
H1192 C1206 0.930 . S
H1193 C1208 0.960 . S
H1194 C1208 0.960 . S
H1195 C1208 0.960 . S
C1196 H1188 0.929 . S
C1196 C1197 1.377 . S
C1196 C1198 1.384 . S
C1197 C1196 1.377 . S
C1197 C1203 1.390 . S
C1198 H1189 0.930 . S
C1198 C1196 1.384 . S
C1198 C1199 1.372 . S
C1199 C1198 1.372 . S
C1199 C1200 1.400 . S
C1199 C1204 1.490 . S
C1200 H1190 0.930 . S
C1200 C1199 1.400 . S
C1200 C1203 1.386 . S
H1201 C1217 0.930 . S
H1202 C1218 0.931 . S
C1203 H1191 0.929 . S
C1203 C1197 1.390 . S
C1203 C1200 1.386 . S
C1204 C1199 1.490 . S
C1204 C1206 1.395 . S
C1204 C1207 1.403 1_556 S
H1205 C1211 0.930 . S
C1206 H1192 0.930 . S
C1206 C1204 1.395 . S
C1206 C1209 1.403 1_565 S
C1207 C1204 1.403 1_554 S
C1207 C1208 1.524 . S
C1207 C1211 1.400 1_565 S
C1208 H1193 0.960 . S
C1208 H1194 0.960 . S
C1208 H1195 0.960 . S
C1208 C1207 1.524 . S
C1209 C1206 1.403 1_545 S
C1209 C1210 1.392 1_556 S
C1209 C1213 1.495 . S
C1210 C1209 1.392 1_554 S
C1210 C1211 1.385 . S
C1210 C1212 1.478 . S
C1211 H1205 0.930 . S
C1211 C1207 1.400 1_545 S
C1211 C1210 1.385 . S
C1212 C1210 1.478 . S
C1212 C1214 1.381 . S
C1212 C1218 1.383 . S
C1213 C1209 1.495 . S
C1213 H1219 0.959 . S
C1213 H1220 0.961 . S
C1213 H1221 0.960 . S
C1214 C1212 1.381 . S
C1214 C1215 1.394 . S
C1214 H1222 0.930 . S
C1215 C1214 1.394 . S
C1215 C1216 1.383 . S
C1215 H1223 0.929 . S
C1216 C1215 1.383 . S
C1216 C1217 1.377 . S
C1217 H1201 0.930 . S
C1217 C1216 1.377 . S
C1217 C1218 1.379 . S
C1218 H1202 0.931 . S
C1218 C1212 1.383 . S
C1218 C1217 1.379 . S
H1219 C1213 0.959 . S
H1220 C1213 0.961 . S
H1221 C1213 0.960 . S
H1222 C1214 0.930 . S
H1223 C1215 0.929 . S
H1224 C1232 0.929 . S
H1225 C1234 0.930 . S
H1226 C1236 0.930 . S
H1227 C1239 0.929 . S
H1228 C1242 0.930 . S
H1229 C1244 0.960 . S
H1230 C1244 0.960 . S
H1231 C1244 0.960 . S
C1232 H1224 0.929 . S
C1232 C1233 1.377 . S
C1232 C1234 1.384 . S
C1233 C1232 1.377 . S
C1233 C1239 1.390 . S
C1234 H1225 0.930 . S
C1234 C1232 1.384 . S
C1234 C1235 1.372 . S
C1235 C1234 1.372 . S
C1235 C1236 1.400 . S
C1235 C1240 1.490 . S
C1236 H1226 0.930 . S
C1236 C1235 1.400 . S
C1236 C1239 1.386 . S
H1237 C1253 0.930 . S
H1238 C1254 0.931 . S
C1239 H1227 0.929 . S
C1239 C1233 1.390 . S
C1239 C1236 1.386 . S
C1240 C1235 1.490 . S
C1240 C1242 1.395 . S
C1240 C1243 1.403 . S
H1241 C1247 0.930 . S
C1242 H1228 0.930 . S
C1242 C1240 1.395 . S
C1242 C1245 1.403 . S
C1243 C1240 1.403 . S
C1243 C1244 1.524 . S
C1243 C1247 1.400 . S
C1244 H1229 0.960 . S
C1244 H1230 0.960 . S
C1244 H1231 0.960 . S
C1244 C1243 1.524 . S
C1245 C1242 1.403 . S
C1245 C1246 1.392 . S
C1245 C1249 1.495 . S
C1246 C1245 1.392 . S
C1246 C1247 1.385 . S
C1246 C1248 1.478 . S
C1247 H1241 0.930 . S
C1247 C1243 1.400 . S
C1247 C1246 1.385 . S
C1248 C1246 1.478 . S
C1248 C1250 1.381 . S
C1248 C1254 1.383 . S
C1249 C1245 1.495 . S
C1249 H1255 0.959 . S
C1249 H1256 0.961 . S
C1249 H1257 0.960 . S
C1250 C1248 1.381 . S
C1250 C1251 1.394 . S
C1250 H1258 0.930 . S
C1251 C1250 1.394 . S
C1251 C1252 1.383 . S
C1251 H1259 0.929 . S
C1252 C1251 1.383 . S
C1252 C1253 1.377 . S
C1253 H1237 0.930 . S
C1253 C1252 1.377 . S
C1253 C1254 1.379 . S
C1254 H1238 0.931 . S
C1254 C1248 1.383 . S
C1254 C1253 1.379 . S
H1255 C1249 0.959 . S
H1256 C1249 0.961 . S
H1257 C1249 0.960 . S
H1258 C1250 0.930 . S
H1259 C1251 0.929 . S
H1260 C1268 0.929 . S
H1261 C1270 0.930 . S
H1262 C1272 0.930 . S
H1263 C1275 0.929 . S
H1264 C1278 0.930 . S
H1265 C1280 0.960 1_655 S
H1266 C1280 0.960 . S
H1267 C1280 0.960 . S
C1268 H1260 0.929 . S
C1268 C1269 1.377 . S
C1268 C1270 1.384 . S
C1269 C1268 1.377 . S
C1269 C1275 1.390 . S
C1270 H1261 0.930 . S
C1270 C1268 1.384 . S
C1270 C1271 1.372 . S
C1271 C1270 1.372 . S
C1271 C1272 1.400 . S
C1271 C1276 1.490 . S
C1272 H1262 0.930 . S
C1272 C1271 1.400 . S
C1272 C1275 1.386 . S
H1273 C1289 0.930 . S
H1274 C1290 0.931 . S
C1275 H1263 0.929 . S
C1275 C1269 1.390 . S
C1275 C1272 1.386 . S
C1276 C1271 1.490 . S
C1276 C1278 1.395 . S
C1276 C1279 1.403 . S
H1277 C1283 0.930 . S
C1278 H1264 0.930 . S
C1278 C1276 1.395 . S
C1278 C1281 1.403 1_455 S
C1279 C1276 1.403 . S
C1279 C1280 1.524 . S
C1279 C1283 1.400 1_455 S
C1280 H1265 0.960 1_455 S
C1280 H1266 0.960 . S
C1280 H1267 0.960 . S
C1280 C1279 1.524 . S
C1281 C1278 1.403 1_655 S
C1281 C1282 1.392 . S
C1281 C1285 1.495 . S
C1282 C1281 1.392 . S
C1282 C1283 1.385 . S
C1282 C1284 1.478 . S
C1283 H1277 0.930 . S
C1283 C1279 1.400 1_655 S
C1283 C1282 1.385 . S
C1284 C1282 1.478 . S
C1284 C1286 1.381 . S
C1284 C1290 1.383 . S
C1285 C1281 1.495 . S
C1285 H1291 0.959 1_655 S
C1285 H1292 0.961 . S
C1285 H1293 0.960 . S
C1286 C1284 1.381 . S
C1286 C1287 1.394 . S
C1286 H1294 0.930 . S
C1287 C1286 1.394 . S
C1287 C1288 1.383 . S
C1287 H1295 0.929 . S
C1288 C1287 1.383 . S
C1288 C1289 1.377 . S
C1289 H1273 0.930 . S
C1289 C1288 1.377 . S
C1289 C1290 1.379 . S
C1290 H1274 0.931 . S
C1290 C1284 1.383 . S
C1290 C1289 1.379 . S
H1291 C1285 0.959 1_455 S
H1292 C1285 0.961 . S
H1293 C1285 0.960 . S
H1294 C1286 0.930 . S
H1295 C1287 0.929 . S
H1296 C1304 0.929 . S
H1297 C1306 0.930 . S
H1298 C1308 0.930 . S
H1299 C1311 0.929 . S
H1300 C1314 0.930 . S
H1301 C1316 0.960 . S
H1302 C1316 0.960 . S
H1303 C1316 0.960 . S
C1304 H1296 0.929 . S
C1304 C1305 1.377 . S
C1304 C1306 1.384 . S
C1305 C1304 1.377 . S
C1305 C1311 1.390 . S
C1306 H1297 0.930 . S
C1306 C1304 1.384 . S
C1306 C1307 1.372 . S
C1307 C1306 1.372 . S
C1307 C1308 1.400 . S
C1307 C1312 1.490 . S
C1308 H1298 0.930 . S
C1308 C1307 1.400 . S
C1308 C1311 1.386 . S
H1309 C1325 0.930 . S
H1310 C1326 0.931 . S
C1311 H1299 0.929 . S
C1311 C1305 1.390 . S
C1311 C1308 1.386 . S
C1312 C1307 1.490 . S
C1312 C1314 1.395 . S
C1312 C1315 1.403 . S
H1313 C1319 0.930 . S
C1314 H1300 0.930 . S
C1314 C1312 1.395 . S
C1314 C1317 1.403 1_565 S
C1315 C1312 1.403 . S
C1315 C1316 1.524 . S
C1315 C1319 1.400 1_565 S
C1316 H1301 0.960 . S
C1316 H1302 0.960 . S
C1316 H1303 0.960 . S
C1316 C1315 1.524 . S
C1317 C1314 1.403 1_545 S
C1317 C1318 1.392 . S
C1317 C1321 1.495 . S
C1318 C1317 1.392 . S
C1318 C1319 1.385 . S
C1318 C1320 1.478 . S
C1319 H1313 0.930 . S
C1319 C1315 1.400 1_545 S
C1319 C1318 1.385 . S
C1320 C1318 1.478 . S
C1320 C1322 1.381 . S
C1320 C1326 1.383 . S
C1321 C1317 1.495 . S
C1321 H1327 0.959 . S
C1321 H1328 0.961 . S
C1321 H1329 0.960 . S
C1322 C1320 1.381 . S
C1322 C1323 1.394 . S
C1322 H1330 0.930 . S
C1323 C1322 1.394 . S
C1323 C1324 1.383 . S
C1323 H1331 0.929 . S
C1324 C1323 1.383 . S
C1324 C1325 1.377 . S
C1325 H1309 0.930 . S
C1325 C1324 1.377 . S
C1325 C1326 1.379 . S
C1326 H1310 0.931 . S
C1326 C1320 1.383 . S
C1326 C1325 1.379 . S
H1327 C1321 0.959 . S
H1328 C1321 0.961 . S
H1329 C1321 0.960 . S
H1330 C1322 0.930 . S
H1331 C1323 0.929 . S
H1332 C1340 0.929 . S
H1333 C1342 0.930 . S
H1334 C1344 0.930 . S
H1335 C1347 0.929 . S
H1336 C1350 0.930 . S
H1337 C1352 0.960 . S
H1338 C1352 0.960 . S
H1339 C1352 0.960 . S
C1340 H1332 0.929 . S
C1340 C1341 1.377 . S
C1340 C1342 1.384 . S
C1341 C1340 1.377 . S
C1341 C1347 1.390 . S
C1342 H1333 0.930 . S
C1342 C1340 1.384 . S
C1342 C1343 1.372 . S
C1343 C1342 1.372 . S
C1343 C1344 1.400 . S
C1343 C1348 1.490 . S
C1344 H1334 0.930 . S
C1344 C1343 1.400 . S
C1344 C1347 1.386 . S
H1345 C1361 0.930 . S
H1346 C1362 0.931 . S
C1347 H1335 0.929 . S
C1347 C1341 1.390 . S
C1347 C1344 1.386 . S
C1348 C1343 1.490 . S
C1348 C1350 1.395 . S
C1348 C1351 1.403 . S
H1349 C1355 0.930 . S
C1350 H1336 0.930 . S
C1350 C1348 1.395 . S
C1350 C1353 1.403 . S
C1351 C1348 1.403 . S
C1351 C1352 1.524 . S
C1351 C1355 1.400 . S
C1352 H1337 0.960 . S
C1352 H1338 0.960 . S
C1352 H1339 0.960 . S
C1352 C1351 1.524 . S
C1353 C1350 1.403 . S
C1353 C1354 1.392 . S
C1353 C1357 1.495 . S
C1354 C1353 1.392 . S
C1354 C1355 1.385 . S
C1354 C1356 1.478 . S
C1355 H1349 0.930 . S
C1355 C1351 1.400 . S
C1355 C1354 1.385 . S
C1356 C1354 1.478 . S
C1356 C1358 1.381 . S
C1356 C1362 1.383 . S
C1357 C1353 1.495 . S
C1357 H1363 0.959 . S
C1357 H1364 0.961 . S
C1357 H1365 0.960 . S
C1358 C1356 1.381 . S
C1358 C1359 1.394 . S
C1358 H1366 0.930 . S
C1359 C1358 1.394 . S
C1359 C1360 1.383 . S
C1359 H1367 0.929 . S
C1360 C1359 1.383 . S
C1360 C1361 1.377 . S
C1361 H1345 0.930 . S
C1361 C1360 1.377 . S
C1361 C1362 1.379 . S
C1362 H1346 0.931 . S
C1362 C1356 1.383 . S
C1362 C1361 1.379 . S
H1363 C1357 0.959 . S
H1364 C1357 0.961 . S
H1365 C1357 0.960 . S
H1366 C1358 0.930 . S
H1367 C1359 0.929 . S
H1368 C1376 0.929 . S
H1369 C1378 0.930 . S
H1370 C1380 0.930 . S
H1371 C1383 0.929 . S
H1372 C1386 0.930 . S
H1373 C1388 0.960 1_455 S
H1374 C1388 0.960 . S
H1375 C1388 0.960 . S
C1376 H1368 0.929 . S
C1376 C1377 1.377 . S
C1376 C1378 1.384 . S
C1377 C1376 1.377 . S
C1377 C1383 1.390 . S
C1378 H1369 0.930 . S
C1378 C1376 1.384 . S
C1378 C1379 1.372 . S
C1379 C1378 1.372 . S
C1379 C1380 1.400 . S
C1379 C1384 1.490 . S
C1380 H1370 0.930 . S
C1380 C1379 1.400 . S
C1380 C1383 1.386 . S
H1381 C1397 0.930 . S
H1382 C1398 0.931 . S
C1383 H1371 0.929 . S
C1383 C1377 1.390 . S
C1383 C1380 1.386 . S
C1384 C1379 1.490 . S
C1384 C1386 1.395 . S
C1384 C1387 1.403 . S
H1385 C1391 0.930 . S
C1386 H1372 0.930 . S
C1386 C1384 1.395 . S
C1386 C1389 1.403 1_655 S
C1387 C1384 1.403 . S
C1387 C1388 1.524 . S
C1387 C1391 1.400 1_655 S
C1388 H1373 0.960 1_655 S
C1388 H1374 0.960 . S
C1388 H1375 0.960 . S
C1388 C1387 1.524 . S
C1389 C1386 1.403 1_455 S
C1389 C1390 1.392 . S
C1389 C1393 1.495 . S
C1390 C1389 1.392 . S
C1390 C1391 1.385 . S
C1390 C1392 1.478 . S
C1391 H1385 0.930 . S
C1391 C1387 1.400 1_455 S
C1391 C1390 1.385 . S
C1392 C1390 1.478 . S
C1392 C1394 1.381 . S
C1392 C1398 1.383 . S
C1393 C1389 1.495 . S
C1393 H1399 0.959 . S
C1393 H1400 0.961 . S
C1393 H1401 0.960 . S
C1394 C1392 1.381 . S
C1394 C1395 1.394 . S
C1394 H1402 0.930 . S
C1395 C1394 1.394 . S
C1395 C1396 1.383 . S
C1395 H1403 0.929 . S
C1396 C1395 1.383 . S
C1396 C1397 1.377 . S
C1397 H1381 0.930 . S
C1397 C1396 1.377 . S
C1397 C1398 1.379 . S
C1398 H1382 0.931 . S
C1398 C1392 1.383 . S
C1398 C1397 1.379 . S
H1399 C1393 0.959 . S
H1400 C1393 0.961 . S
H1401 C1393 0.960 . S
H1402 C1394 0.930 . S
H1403 C1395 0.929 . S
H1404 C1412 0.929 . S
H1405 C1414 0.930 . S
H1406 C1416 0.930 . S
H1407 C1419 0.929 . S
H1408 C1422 0.930 . S
H1409 C1424 0.960 . S
H1410 C1424 0.960 . S
H1411 C1424 0.960 . S
C1412 H1404 0.929 . S
C1412 C1413 1.377 . S
C1412 C1414 1.384 . S
C1413 C1412 1.377 . S
C1413 C1419 1.390 . S
C1414 H1405 0.930 . S
C1414 C1412 1.384 . S
C1414 C1415 1.372 . S
C1415 C1414 1.372 . S
C1415 C1416 1.400 . S
C1415 C1420 1.490 . S
C1416 H1406 0.930 . S
C1416 C1415 1.400 . S
C1416 C1419 1.386 . S
H1417 C1433 0.930 . S
H1418 C1434 0.931 . S
C1419 H1407 0.929 . S
C1419 C1413 1.390 . S
C1419 C1416 1.386 . S
C1420 C1415 1.490 . S
C1420 C1422 1.395 . S
C1420 C1423 1.403 . S
H1421 C1427 0.930 . S
C1422 H1408 0.930 . S
C1422 C1420 1.395 . S
C1422 C1425 1.403 . S
C1423 C1420 1.403 . S
C1423 C1424 1.524 . S
C1423 C1427 1.400 . S
C1424 H1409 0.960 . S
C1424 H1410 0.960 . S
C1424 H1411 0.960 . S
C1424 C1423 1.524 . S
C1425 C1422 1.403 . S
C1425 C1426 1.392 . S
C1425 C1429 1.495 . S
C1426 C1425 1.392 . S
C1426 C1427 1.385 . S
C1426 C1428 1.478 . S
C1427 H1421 0.930 . S
C1427 C1423 1.400 . S
C1427 C1426 1.385 . S
C1428 C1426 1.478 . S
C1428 C1430 1.381 . S
C1428 C1434 1.383 . S
C1429 C1425 1.495 . S
C1429 H1435 0.959 . S
C1429 H1436 0.961 . S
C1429 H1437 0.960 . S
C1430 C1428 1.381 . S
C1430 C1431 1.394 . S
C1430 H1438 0.930 . S
C1431 C1430 1.394 . S
C1431 C1432 1.383 . S
C1431 H1439 0.929 . S
C1432 C1431 1.383 . S
C1432 C1433 1.377 . S
C1433 H1417 0.930 . S
C1433 C1432 1.377 . S
C1433 C1434 1.379 . S
C1434 H1418 0.931 . S
C1434 C1428 1.383 . S
C1434 C1433 1.379 . S
H1435 C1429 0.959 . S
H1436 C1429 0.961 . S
H1437 C1429 0.960 . S
H1438 C1430 0.930 . S
H1439 C1431 0.929 . S
H1440 C1448 0.929 . S
H1441 C1450 0.930 . S
H1442 C1452 0.930 . S
H1443 C1455 0.929 . S
H1444 C1458 0.930 . S
H1445 C1460 0.960 . S
H1446 C1460 0.960 . S
H1447 C1460 0.960 . S
C1448 H1440 0.929 . S
C1448 C1449 1.377 . S
C1448 C1450 1.384 . S
C1449 C1448 1.377 . S
C1449 C1455 1.390 . S
C1450 H1441 0.930 . S
C1450 C1448 1.384 . S
C1450 C1451 1.372 . S
C1451 C1450 1.372 . S
C1451 C1452 1.400 . S
C1451 C1456 1.490 . S
C1452 H1442 0.930 . S
C1452 C1451 1.400 . S
C1452 C1455 1.386 . S
H1453 C1469 0.930 . S
H1454 C1470 0.931 . S
C1455 H1443 0.929 . S
C1455 C1449 1.390 . S
C1455 C1452 1.386 . S
C1456 C1451 1.490 . S
C1456 C1458 1.395 . S
C1456 C1459 1.403 . S
H1457 C1463 0.930 . S
C1458 H1444 0.930 . S
C1458 C1456 1.395 . S
C1458 C1461 1.403 . S
C1459 C1456 1.403 . S
C1459 C1460 1.524 . S
C1459 C1463 1.400 . S
C1460 H1445 0.960 . S
C1460 H1446 0.960 . S
C1460 H1447 0.960 . S
C1460 C1459 1.524 . S
C1461 C1458 1.403 . S
C1461 C1462 1.392 . S
C1461 C1465 1.495 . S
C1462 C1461 1.392 . S
C1462 C1463 1.385 . S
C1462 C1464 1.478 . S
C1463 H1457 0.930 . S
C1463 C1459 1.400 . S
C1463 C1462 1.385 . S
C1464 C1462 1.478 . S
C1464 C1466 1.381 . S
C1464 C1470 1.383 . S
C1465 C1461 1.495 . S
C1465 H1471 0.959 . S
C1465 H1472 0.961 . S
C1465 H1473 0.960 . S
C1466 C1464 1.381 . S
C1466 C1467 1.394 . S
C1466 H1474 0.930 . S
C1467 C1466 1.394 . S
C1467 C1468 1.383 . S
C1467 H1475 0.929 . S
C1468 C1467 1.383 . S
C1468 C1469 1.377 . S
C1469 H1453 0.930 . S
C1469 C1468 1.377 . S
C1469 C1470 1.379 . S
C1470 H1454 0.931 . S
C1470 C1464 1.383 . S
C1470 C1469 1.379 . S
H1471 C1465 0.959 . S
H1472 C1465 0.961 . S
H1473 C1465 0.960 . S
H1474 C1466 0.930 . S
H1475 C1467 0.929 . S
H1476 C1484 0.929 . S
H1477 C1486 0.930 . S
H1478 C1488 0.930 . S
H1479 C1491 0.929 . S
H1480 C1494 0.930 . S
H1481 C1496 0.960 . S
H1482 C1496 0.960 . S
H1483 C1496 0.960 . S
C1484 H1476 0.929 . S
C1484 C1485 1.377 . S
C1484 C1486 1.384 . S
C1485 C1484 1.377 . S
C1485 C1491 1.390 . S
C1486 H1477 0.930 . S
C1486 C1484 1.384 . S
C1486 C1487 1.372 . S
C1487 C1486 1.372 . S
C1487 C1488 1.400 . S
C1487 C1492 1.490 . S
C1488 H1478 0.930 . S
C1488 C1487 1.400 . S
C1488 C1491 1.386 . S
H1489 C1505 0.930 . S
H1490 C1506 0.931 . S
C1491 H1479 0.929 . S
C1491 C1485 1.390 . S
C1491 C1488 1.386 . S
C1492 C1487 1.490 . S
C1492 C1494 1.395 . S
C1492 C1495 1.403 . S
H1493 C1499 0.930 . S
C1494 H1480 0.930 . S
C1494 C1492 1.395 . S
C1494 C1497 1.403 . S
C1495 C1492 1.403 . S
C1495 C1496 1.524 . S
C1495 C1499 1.400 . S
C1496 H1481 0.960 . S
C1496 H1482 0.960 . S
C1496 H1483 0.960 . S
C1496 C1495 1.524 . S
C1497 C1494 1.403 . S
C1497 C1498 1.392 . S
C1497 C1501 1.495 . S
C1498 C1497 1.392 . S
C1498 C1499 1.385 . S
C1498 C1500 1.478 . S
C1499 H1493 0.930 . S
C1499 C1495 1.400 . S
C1499 C1498 1.385 . S
C1500 C1498 1.478 . S
C1500 C1502 1.381 . S
C1500 C1506 1.383 . S
C1501 C1497 1.495 . S
C1501 H1507 0.959 . S
C1501 H1508 0.961 . S
C1501 H1509 0.960 . S
C1502 C1500 1.381 . S
C1502 C1503 1.394 . S
C1502 H1510 0.930 . S
C1503 C1502 1.394 . S
C1503 C1504 1.383 . S
C1503 H1511 0.929 . S
C1504 C1503 1.383 . S
C1504 C1505 1.377 . S
C1505 H1489 0.930 . S
C1505 C1504 1.377 . S
C1505 C1506 1.379 . S
C1506 H1490 0.931 . S
C1506 C1500 1.383 . S
C1506 C1505 1.379 . S
H1507 C1501 0.959 . S
H1508 C1501 0.961 . S
H1509 C1501 0.960 . S
H1510 C1502 0.930 . S
H1511 C1503 0.929 . S
H1512 C1520 0.929 . S
H1513 C1522 0.930 . S
H1514 C1524 0.930 . S
H1515 C1527 0.929 . S
H1516 C1530 0.930 . S
H1517 C1532 0.960 . S
H1518 C1532 0.960 . S
H1519 C1532 0.960 . S
C1520 H1512 0.929 . S
C1520 C1521 1.377 . S
C1520 C1522 1.384 . S
C1521 C1520 1.377 . S
C1521 C1527 1.390 . S
C1522 H1513 0.930 . S
C1522 C1520 1.384 . S
C1522 C1523 1.372 . S
C1523 C1522 1.372 . S
C1523 C1524 1.400 . S
C1523 C1528 1.490 . S
C1524 H1514 0.930 . S
C1524 C1523 1.400 . S
C1524 C1527 1.386 . S
H1525 C1541 0.930 . S
H1526 C1542 0.931 . S
C1527 H1515 0.929 . S
C1527 C1521 1.390 . S
C1527 C1524 1.386 . S
C1528 C1523 1.490 . S
C1528 C1530 1.395 . S
C1528 C1531 1.403 . S
H1529 C1535 0.930 . S
C1530 H1516 0.930 . S
C1530 C1528 1.395 . S
C1530 C1533 1.403 . S
C1531 C1528 1.403 . S
C1531 C1532 1.524 . S
C1531 C1535 1.400 . S
C1532 H1517 0.960 . S
C1532 H1518 0.960 . S
C1532 H1519 0.960 . S
C1532 C1531 1.524 . S
C1533 C1530 1.403 . S
C1533 C1534 1.392 . S
C1533 C1537 1.495 . S
C1534 C1533 1.392 . S
C1534 C1535 1.385 . S
C1534 C1536 1.478 . S
C1535 H1529 0.930 . S
C1535 C1531 1.400 . S
C1535 C1534 1.385 . S
C1536 C1534 1.478 . S
C1536 C1538 1.381 . S
C1536 C1542 1.383 . S
C1537 C1533 1.495 . S
C1537 H1543 0.959 . S
C1537 H1544 0.961 . S
C1537 H1545 0.960 . S
C1538 C1536 1.381 . S
C1538 C1539 1.394 . S
C1538 H1546 0.930 . S
C1539 C1538 1.394 . S
C1539 C1540 1.383 . S
C1539 H1547 0.929 . S
C1540 C1539 1.383 . S
C1540 C1541 1.377 . S
C1541 H1525 0.930 . S
C1541 C1540 1.377 . S
C1541 C1542 1.379 . S
C1542 H1526 0.931 . S
C1542 C1536 1.383 . S
C1542 C1541 1.379 . S
H1543 C1537 0.959 . S
H1544 C1537 0.961 . S
H1545 C1537 0.960 . S
H1546 C1538 0.930 . S
H1547 C1539 0.929 . S
H1548 C1556 0.929 . S
H1549 C1558 0.930 . S
H1550 C1560 0.930 . S
H1551 C1563 0.929 . S
H1552 C1566 0.930 . S
H1553 C1568 0.960 . S
H1554 C1568 0.960 . S
H1555 C1568 0.960 . S
C1556 H1548 0.929 . S
C1556 C1557 1.377 . S
C1556 C1558 1.384 . S
C1557 C1556 1.377 . S
C1557 C1563 1.390 . S
C1558 H1549 0.930 . S
C1558 C1556 1.384 . S
C1558 C1559 1.372 . S
C1559 C1558 1.372 . S
C1559 C1560 1.400 . S
C1559 C1564 1.490 . S
C1560 H1550 0.930 . S
C1560 C1559 1.400 . S
C1560 C1563 1.386 . S
H1561 C1577 0.930 . S
H1562 C1578 0.931 . S
C1563 H1551 0.929 . S
C1563 C1557 1.390 . S
C1563 C1560 1.386 . S
C1564 C1559 1.490 . S
C1564 C1566 1.395 . S
C1564 C1567 1.403 . S
H1565 C1571 0.930 . S
C1566 H1552 0.930 . S
C1566 C1564 1.395 . S
C1566 C1569 1.403 . S
C1567 C1564 1.403 . S
C1567 C1568 1.524 . S
C1567 C1571 1.400 . S
C1568 H1553 0.960 . S
C1568 H1554 0.960 . S
C1568 H1555 0.960 . S
C1568 C1567 1.524 . S
C1569 C1566 1.403 . S
C1569 C1570 1.392 . S
C1569 C1573 1.495 . S
C1570 C1569 1.392 . S
C1570 C1571 1.385 . S
C1570 C1572 1.478 . S
C1571 H1565 0.930 . S
C1571 C1567 1.400 . S
C1571 C1570 1.385 . S
C1572 C1570 1.478 . S
C1572 C1574 1.381 . S
C1572 C1578 1.383 . S
C1573 C1569 1.495 . S
C1573 H1579 0.959 . S
C1573 H1580 0.961 . S
C1573 H1581 0.960 . S
C1574 C1572 1.381 . S
C1574 C1575 1.394 . S
C1574 H1582 0.930 . S
C1575 C1574 1.394 . S
C1575 C1576 1.383 . S
C1575 H1583 0.929 . S
C1576 C1575 1.383 . S
C1576 C1577 1.377 . S
C1577 H1561 0.930 . S
C1577 C1576 1.377 . S
C1577 C1578 1.379 . S
C1578 H1562 0.931 . S
C1578 C1572 1.383 . S
C1578 C1577 1.379 . S
H1579 C1573 0.959 . S
H1580 C1573 0.961 . S
H1581 C1573 0.960 . S
H1582 C1574 0.930 . S
H1583 C1575 0.929 . S
H1584 C1592 0.929 . S
H1585 C1594 0.930 . S
H1586 C1596 0.930 . S
H1587 C1599 0.929 . S
H1588 C1602 0.930 . S
H1589 C1604 0.960 . S
H1590 C1604 0.960 . S
H1591 C1604 0.960 . S
C1592 H1584 0.929 . S
C1592 C1593 1.377 . S
C1592 C1594 1.384 . S
C1593 C1592 1.377 . S
C1593 C1599 1.390 . S
C1594 H1585 0.930 . S
C1594 C1592 1.384 . S
C1594 C1595 1.372 . S
C1595 C1594 1.372 . S
C1595 C1596 1.400 . S
C1595 C1600 1.490 . S
C1596 H1586 0.930 . S
C1596 C1595 1.400 . S
C1596 C1599 1.386 . S
H1597 C1613 0.930 . S
H1598 C1614 0.931 . S
C1599 H1587 0.929 . S
C1599 C1593 1.390 . S
C1599 C1596 1.386 . S
C1600 C1595 1.490 . S
C1600 C1602 1.395 . S
C1600 C1603 1.403 . S
H1601 C1607 0.930 . S
C1602 H1588 0.930 . S
C1602 C1600 1.395 . S
C1602 C1605 1.403 . S
C1603 C1600 1.403 . S
C1603 C1604 1.524 . S
C1603 C1607 1.400 . S
C1604 H1589 0.960 . S
C1604 H1590 0.960 . S
C1604 H1591 0.960 . S
C1604 C1603 1.524 . S
C1605 C1602 1.403 . S
C1605 C1606 1.392 . S
C1605 C1609 1.495 . S
C1606 C1605 1.392 . S
C1606 C1607 1.385 . S
C1606 C1608 1.478 . S
C1607 H1601 0.930 . S
C1607 C1603 1.400 . S
C1607 C1606 1.385 . S
C1608 C1606 1.478 . S
C1608 C1610 1.381 . S
C1608 C1614 1.383 . S
C1609 C1605 1.495 . S
C1609 H1615 0.959 . S
C1609 H1616 0.961 . S
C1609 H1617 0.960 . S
C1610 C1608 1.381 . S
C1610 C1611 1.394 . S
C1610 H1618 0.930 . S
C1611 C1610 1.394 . S
C1611 C1612 1.383 . S
C1611 H1619 0.929 . S
C1612 C1611 1.383 . S
C1612 C1613 1.377 . S
C1613 H1597 0.930 . S
C1613 C1612 1.377 . S
C1613 C1614 1.379 . S
C1614 H1598 0.931 . S
C1614 C1608 1.383 . S
C1614 C1613 1.379 . S
H1615 C1609 0.959 . S
H1616 C1609 0.961 . S
H1617 C1609 0.960 . S
H1618 C1610 0.930 . S
H1619 C1611 0.929 . S
H1620 C1628 0.929 . S
H1621 C1630 0.930 . S
H1622 C1632 0.930 . S
H1623 C1635 0.929 . S
H1624 C1638 0.930 . S
H1625 C1640 0.960 . S
H1626 C1640 0.960 . S
H1627 C1640 0.960 . S
C1628 H1620 0.929 . S
C1628 C1629 1.377 . S
C1628 C1630 1.384 . S
C1629 C1628 1.377 . S
C1629 C1635 1.390 . S
C1630 H1621 0.930 . S
C1630 C1628 1.384 . S
C1630 C1631 1.372 . S
C1631 C1630 1.372 . S
C1631 C1632 1.400 . S
C1631 C1636 1.490 . S
C1632 H1622 0.930 . S
C1632 C1631 1.400 . S
C1632 C1635 1.386 . S
H1633 C1649 0.930 . S
H1634 C1650 0.931 . S
C1635 H1623 0.929 . S
C1635 C1629 1.390 . S
C1635 C1632 1.386 . S
C1636 C1631 1.490 . S
C1636 C1638 1.395 . S
C1636 C1639 1.403 . S
H1637 C1643 0.930 . S
C1638 H1624 0.930 . S
C1638 C1636 1.395 . S
C1638 C1641 1.403 . S
C1639 C1636 1.403 . S
C1639 C1640 1.524 . S
C1639 C1643 1.400 . S
C1640 H1625 0.960 . S
C1640 H1626 0.960 . S
C1640 H1627 0.960 . S
C1640 C1639 1.524 . S
C1641 C1638 1.403 . S
C1641 C1642 1.392 . S
C1641 C1645 1.495 . S
C1642 C1641 1.392 . S
C1642 C1643 1.385 . S
C1642 C1644 1.478 . S
C1643 H1637 0.930 . S
C1643 C1639 1.400 . S
C1643 C1642 1.385 . S
C1644 C1642 1.478 . S
C1644 C1646 1.381 . S
C1644 C1650 1.383 . S
C1645 C1641 1.495 . S
C1645 H1651 0.959 . S
C1645 H1652 0.961 . S
C1645 H1653 0.960 . S
C1646 C1644 1.381 . S
C1646 C1647 1.394 . S
C1646 H1654 0.930 . S
C1647 C1646 1.394 . S
C1647 C1648 1.383 . S
C1647 H1655 0.929 . S
C1648 C1647 1.383 . S
C1648 C1649 1.377 . S
C1649 H1633 0.930 . S
C1649 C1648 1.377 . S
C1649 C1650 1.379 . S
C1650 H1634 0.931 . S
C1650 C1644 1.383 . S
C1650 C1649 1.379 . S
H1651 C1645 0.959 . S
H1652 C1645 0.961 . S
H1653 C1645 0.960 . S
H1654 C1646 0.930 . S
H1655 C1647 0.929 . S
H1656 C1664 0.929 . S
H1657 C1666 0.930 . S
H1658 C1668 0.930 . S
H1659 C1671 0.929 . S
H1660 C1674 0.930 . S
H1661 C1676 0.960 . S
H1662 C1676 0.960 . S
H1663 C1676 0.960 . S
C1664 H1656 0.929 . S
C1664 C1665 1.377 . S
C1664 C1666 1.384 . S
C1665 C1664 1.377 . S
C1665 C1671 1.390 . S
C1666 H1657 0.930 . S
C1666 C1664 1.384 . S
C1666 C1667 1.372 . S
C1667 C1666 1.372 . S
C1667 C1668 1.400 . S
C1667 C1672 1.490 . S
C1668 H1658 0.930 . S
C1668 C1667 1.400 . S
C1668 C1671 1.386 . S
H1669 C1685 0.930 . S
H1670 C1686 0.931 . S
C1671 H1659 0.929 . S
C1671 C1665 1.390 . S
C1671 C1668 1.386 . S
C1672 C1667 1.490 . S
C1672 C1674 1.395 . S
C1672 C1675 1.403 . S
H1673 C1679 0.930 . S
C1674 H1660 0.930 . S
C1674 C1672 1.395 . S
C1674 C1677 1.403 . S
C1675 C1672 1.403 . S
C1675 C1676 1.524 . S
C1675 C1679 1.400 . S
C1676 H1661 0.960 . S
C1676 H1662 0.960 . S
C1676 H1663 0.960 . S
C1676 C1675 1.524 . S
C1677 C1674 1.403 . S
C1677 C1678 1.392 . S
C1677 C1681 1.495 . S
C1678 C1677 1.392 . S
C1678 C1679 1.385 . S
C1678 C1680 1.478 . S
C1679 H1673 0.930 . S
C1679 C1675 1.400 . S
C1679 C1678 1.385 . S
C1680 C1678 1.478 . S
C1680 C1682 1.381 . S
C1680 C1686 1.383 . S
C1681 C1677 1.495 . S
C1681 H1687 0.959 . S
C1681 H1688 0.961 . S
C1681 H1689 0.960 . S
C1682 C1680 1.381 . S
C1682 C1683 1.394 . S
C1682 H1690 0.930 . S
C1683 C1682 1.394 . S
C1683 C1684 1.383 . S
C1683 H1691 0.929 . S
C1684 C1683 1.383 . S
C1684 C1685 1.377 . S
C1685 H1669 0.930 . S
C1685 C1684 1.377 . S
C1685 C1686 1.379 . S
C1686 H1670 0.931 . S
C1686 C1680 1.383 . S
C1686 C1685 1.379 . S
H1687 C1681 0.959 . S
H1688 C1681 0.961 . S
H1689 C1681 0.960 . S
H1690 C1682 0.930 . S
H1691 C1683 0.929 . S
H1692 C1700 0.929 . S
H1693 C1702 0.930 . S
H1694 C1704 0.930 . S
H1695 C1707 0.929 . S
H1696 C1710 0.930 . S
H1697 C1712 0.960 . S
H1698 C1712 0.960 . S
H1699 C1712 0.960 . S
C1700 H1692 0.929 . S
C1700 C1701 1.377 . S
C1700 C1702 1.384 . S
C1701 C1700 1.377 . S
C1701 C1707 1.390 . S
C1702 H1693 0.930 . S
C1702 C1700 1.384 . S
C1702 C1703 1.372 . S
C1703 C1702 1.372 . S
C1703 C1704 1.400 . S
C1703 C1708 1.490 . S
C1704 H1694 0.930 . S
C1704 C1703 1.400 . S
C1704 C1707 1.386 . S
H1705 C1721 0.930 . S
H1706 C1722 0.931 . S
C1707 H1695 0.929 . S
C1707 C1701 1.390 . S
C1707 C1704 1.386 . S
C1708 C1703 1.490 . S
C1708 C1710 1.395 . S
C1708 C1711 1.403 . S
H1709 C1715 0.930 . S
C1710 H1696 0.930 . S
C1710 C1708 1.395 . S
C1710 C1713 1.403 . S
C1711 C1708 1.403 . S
C1711 C1712 1.524 . S
C1711 C1715 1.400 . S
C1712 H1697 0.960 . S
C1712 H1698 0.960 . S
C1712 H1699 0.960 . S
C1712 C1711 1.524 . S
C1713 C1710 1.403 . S
C1713 C1714 1.392 . S
C1713 C1717 1.495 . S
C1714 C1713 1.392 . S
C1714 C1715 1.385 . S
C1714 C1716 1.478 . S
C1715 H1709 0.930 . S
C1715 C1711 1.400 . S
C1715 C1714 1.385 . S
C1716 C1714 1.478 . S
C1716 C1718 1.381 . S
C1716 C1722 1.383 . S
C1717 C1713 1.495 . S
C1717 H1723 0.959 . S
C1717 H1724 0.961 . S
C1717 H1725 0.960 . S
C1718 C1716 1.381 . S
C1718 C1719 1.394 . S
C1718 H1726 0.930 . S
C1719 C1718 1.394 . S
C1719 C1720 1.383 . S
C1719 H1727 0.929 . S
C1720 C1719 1.383 . S
C1720 C1721 1.377 . S
C1721 H1705 0.930 . S
C1721 C1720 1.377 . S
C1721 C1722 1.379 . S
C1722 H1706 0.931 . S
C1722 C1716 1.383 . S
C1722 C1721 1.379 . S
H1723 C1717 0.959 . S
H1724 C1717 0.961 . S
H1725 C1717 0.960 . S
H1726 C1718 0.930 . S
H1727 C1719 0.929 . S
H1728 C1736 0.929 . S
H1729 C1738 0.930 . S
H1730 C1740 0.930 . S
H1731 C1743 0.929 . S
H1732 C1746 0.930 . S
H1733 C1748 0.960 . S
H1734 C1748 0.960 . S
H1735 C1748 0.960 . S
C1736 H1728 0.929 . S
C1736 C1737 1.377 . S
C1736 C1738 1.384 . S
C1737 C1736 1.377 . S
C1737 C1743 1.390 . S
C1738 H1729 0.930 . S
C1738 C1736 1.384 . S
C1738 C1739 1.372 . S
C1739 C1738 1.372 . S
C1739 C1740 1.400 . S
C1739 C1744 1.490 . S
C1740 H1730 0.930 . S
C1740 C1739 1.400 . S
C1740 C1743 1.386 . S
H1741 C1757 0.930 . S
H1742 C1758 0.931 . S
C1743 H1731 0.929 . S
C1743 C1737 1.390 . S
C1743 C1740 1.386 . S
C1744 C1739 1.490 . S
C1744 C1746 1.395 . S
C1744 C1747 1.403 . S
H1745 C1751 0.930 . S
C1746 H1732 0.930 . S
C1746 C1744 1.395 . S
C1746 C1749 1.403 . S
C1747 C1744 1.403 . S
C1747 C1748 1.524 . S
C1747 C1751 1.400 . S
C1748 H1733 0.960 . S
C1748 H1734 0.960 . S
C1748 H1735 0.960 . S
C1748 C1747 1.524 . S
C1749 C1746 1.403 . S
C1749 C1750 1.392 . S
C1749 C1753 1.495 . S
C1750 C1749 1.392 . S
C1750 C1751 1.385 . S
C1750 C1752 1.478 . S
C1751 H1745 0.930 . S
C1751 C1747 1.400 . S
C1751 C1750 1.385 . S
C1752 C1750 1.478 . S
C1752 C1754 1.381 . S
C1752 C1758 1.383 . S
C1753 C1749 1.495 . S
C1753 H1759 0.959 . S
C1753 H1760 0.961 . S
C1753 H1761 0.960 . S
C1754 C1752 1.381 . S
C1754 C1755 1.394 . S
C1754 H1762 0.930 . S
C1755 C1754 1.394 . S
C1755 C1756 1.383 . S
C1755 H1763 0.929 . S
C1756 C1755 1.383 . S
C1756 C1757 1.377 . S
C1757 H1741 0.930 . S
C1757 C1756 1.377 . S
C1757 C1758 1.379 . S
C1758 H1742 0.931 . S
C1758 C1752 1.383 . S
C1758 C1757 1.379 . S
H1759 C1753 0.959 . S
H1760 C1753 0.961 . S
H1761 C1753 0.960 . S
H1762 C1754 0.930 . S
H1763 C1755 0.929 . S
H1764 C1772 0.929 . S
H1765 C1774 0.930 . S
H1766 C1776 0.930 . S
H1767 C1779 0.929 . S
H1768 C1782 0.930 . S
H1769 C1784 0.960 . S
H1770 C1784 0.960 . S
H1771 C1784 0.960 . S
C1772 H1764 0.929 . S
C1772 C1773 1.377 . S
C1772 C1774 1.384 . S
C1773 C1772 1.377 . S
C1773 C1779 1.390 . S
C1774 H1765 0.930 . S
C1774 C1772 1.384 . S
C1774 C1775 1.372 . S
C1775 C1774 1.372 . S
C1775 C1776 1.400 . S
C1775 C1780 1.490 . S
C1776 H1766 0.930 . S
C1776 C1775 1.400 . S
C1776 C1779 1.386 . S
H1777 C1793 0.930 . S
H1778 C1794 0.931 . S
C1779 H1767 0.929 . S
C1779 C1773 1.390 . S
C1779 C1776 1.386 . S
C1780 C1775 1.490 . S
C1780 C1782 1.395 . S
C1780 C1783 1.403 . S
H1781 C1787 0.930 . S
C1782 H1768 0.930 . S
C1782 C1780 1.395 . S
C1782 C1785 1.403 . S
C1783 C1780 1.403 . S
C1783 C1784 1.524 . S
C1783 C1787 1.400 . S
C1784 H1769 0.960 . S
C1784 H1770 0.960 . S
C1784 H1771 0.960 . S
C1784 C1783 1.524 . S
C1785 C1782 1.403 . S
C1785 C1786 1.392 . S
C1785 C1789 1.495 . S
C1786 C1785 1.392 . S
C1786 C1787 1.385 . S
C1786 C1788 1.478 . S
C1787 H1781 0.930 . S
C1787 C1783 1.400 . S
C1787 C1786 1.385 . S
C1788 C1786 1.478 . S
C1788 C1790 1.381 . S
C1788 C1794 1.383 . S
C1789 C1785 1.495 . S
C1789 H1795 0.959 . S
C1789 H1796 0.961 . S
C1789 H1797 0.960 . S
C1790 C1788 1.381 . S
C1790 C1791 1.394 . S
C1790 H1798 0.930 . S
C1791 C1790 1.394 . S
C1791 C1792 1.383 . S
C1791 H1799 0.929 . S
C1792 C1791 1.383 . S
C1792 C1793 1.377 . S
C1793 H1777 0.930 . S
C1793 C1792 1.377 . S
C1793 C1794 1.379 . S
C1794 H1778 0.931 . S
C1794 C1788 1.383 . S
C1794 C1793 1.379 . S
H1795 C1789 0.959 . S
H1796 C1789 0.961 . S
H1797 C1789 0.960 . S
H1798 C1790 0.930 . S
H1799 C1791 0.929 . S
H1800 C1808 0.929 . S
H1801 C1810 0.930 . S
H1802 C1812 0.930 . S
H1803 C1815 0.929 . S
H1804 C1818 0.930 . S
H1805 C1820 0.960 . S
H1806 C1820 0.960 . S
H1807 C1820 0.960 . S
C1808 H1800 0.929 . S
C1808 C1809 1.377 . S
C1808 C1810 1.384 . S
C1809 C1808 1.377 . S
C1809 C1815 1.390 . S
C1810 H1801 0.930 . S
C1810 C1808 1.384 . S
C1810 C1811 1.372 . S
C1811 C1810 1.372 . S
C1811 C1812 1.400 . S
C1811 C1816 1.490 . S
C1812 H1802 0.930 . S
C1812 C1811 1.400 . S
C1812 C1815 1.386 . S
H1813 C1829 0.930 . S
H1814 C1830 0.931 . S
C1815 H1803 0.929 . S
C1815 C1809 1.390 . S
C1815 C1812 1.386 . S
C1816 C1811 1.490 . S
C1816 C1818 1.395 . S
C1816 C1819 1.403 . S
H1817 C1823 0.930 . S
C1818 H1804 0.930 . S
C1818 C1816 1.395 . S
C1818 C1821 1.403 . S
C1819 C1816 1.403 . S
C1819 C1820 1.524 . S
C1819 C1823 1.400 . S
C1820 H1805 0.960 . S
C1820 H1806 0.960 . S
C1820 H1807 0.960 . S
C1820 C1819 1.524 . S
C1821 C1818 1.403 . S
C1821 C1822 1.392 . S
C1821 C1825 1.495 . S
C1822 C1821 1.392 . S
C1822 C1823 1.385 . S
C1822 C1824 1.478 . S
C1823 H1817 0.930 . S
C1823 C1819 1.400 . S
C1823 C1822 1.385 . S
C1824 C1822 1.478 . S
C1824 C1826 1.381 . S
C1824 C1830 1.383 . S
C1825 C1821 1.495 . S
C1825 H1831 0.959 . S
C1825 H1832 0.961 . S
C1825 H1833 0.960 . S
C1826 C1824 1.381 . S
C1826 C1827 1.394 . S
C1826 H1834 0.930 . S
C1827 C1826 1.394 . S
C1827 C1828 1.383 . S
C1827 H1835 0.929 . S
C1828 C1827 1.383 . S
C1828 C1829 1.377 . S
C1829 H1813 0.930 . S
C1829 C1828 1.377 . S
C1829 C1830 1.379 . S
C1830 H1814 0.931 . S
C1830 C1824 1.383 . S
C1830 C1829 1.379 . S
H1831 C1825 0.959 . S
H1832 C1825 0.961 . S
H1833 C1825 0.960 . S
H1834 C1826 0.930 . S
H1835 C1827 0.929 . S
H1836 C1844 0.929 . S
H1837 C1846 0.930 . S
H1838 C1848 0.930 . S
H1839 C1851 0.929 . S
H1840 C1854 0.930 . S
H1841 C1856 0.960 . S
H1842 C1856 0.960 . S
H1843 C1856 0.960 . S
C1844 H1836 0.929 . S
C1844 C1845 1.377 . S
C1844 C1846 1.384 . S
C1845 C1844 1.377 . S
C1845 C1851 1.390 . S
C1846 H1837 0.930 . S
C1846 C1844 1.384 . S
C1846 C1847 1.372 . S
C1847 C1846 1.372 . S
C1847 C1848 1.400 . S
C1847 C1852 1.490 . S
C1848 H1838 0.930 . S
C1848 C1847 1.400 . S
C1848 C1851 1.386 . S
H1849 C1865 0.930 . S
H1850 C1866 0.931 . S
C1851 H1839 0.929 . S
C1851 C1845 1.390 . S
C1851 C1848 1.386 . S
C1852 C1847 1.490 . S
C1852 C1854 1.395 1_554 S
C1852 C1855 1.403 . S
H1853 C1859 0.941 . S
C1854 H1840 0.930 . S
C1854 C1852 1.395 1_556 S
C1854 C1857 1.403 . S
C1855 C1852 1.403 . S
C1855 C1856 1.524 . S
C1855 C1859 1.436 . S
C1856 H1841 0.960 . S
C1856 H1842 0.960 . S
C1856 H1843 0.960 . S
C1856 C1855 1.524 . S
C1857 C1854 1.403 . S
C1857 C1858 1.392 . S
C1857 C1861 1.495 . S
C1858 C1857 1.392 . S
C1858 C1859 1.342 1_556 S
C1858 C1860 1.478 . S
C1859 H1853 0.941 . S
C1859 C1855 1.436 . S
C1859 C1858 1.342 1_554 S
C1860 C1858 1.478 . S
C1860 C1862 1.381 . S
C1860 C1866 1.383 . S
C1861 C1857 1.495 . S
C1861 H1867 0.959 . S
C1861 H1868 0.961 . S
C1861 H1869 0.960 . S
C1862 C1860 1.381 . S
C1862 C1863 1.394 . S
C1862 H1870 0.930 . S
C1863 C1862 1.394 . S
C1863 C1864 1.383 . S
C1863 H1871 0.929 . S
C1864 C1863 1.383 . S
C1864 C1865 1.377 . S
C1865 H1849 0.930 . S
C1865 C1864 1.377 . S
C1865 C1866 1.379 . S
C1866 H1850 0.931 . S
C1866 C1860 1.383 . S
C1866 C1865 1.379 . S
H1867 C1861 0.959 . S
H1868 C1861 0.961 . S
H1869 C1861 0.960 . S
H1870 C1862 0.930 . S
H1871 C1863 0.929 . S
H1872 C1880 0.929 . S
H1873 C1882 0.930 . S
H1874 C1884 0.930 . S
H1875 C1887 0.929 . S
H1876 C1890 0.930 . S
H1877 C1892 0.960 . S
H1878 C1892 0.960 . S
H1879 C1892 0.960 . S
C1880 H1872 0.929 . S
C1880 C1881 1.377 . S
C1880 C1882 1.384 . S
C1881 C1880 1.377 . S
C1881 C1887 1.390 . S
C1882 H1873 0.930 . S
C1882 C1880 1.384 . S
C1882 C1883 1.372 . S
C1883 C1882 1.372 . S
C1883 C1884 1.400 . S
C1883 C1888 1.490 . S
C1884 H1874 0.930 . S
C1884 C1883 1.400 . S
C1884 C1887 1.386 . S
H1885 C1901 0.930 . S
H1886 C1902 0.931 . S
C1887 H1875 0.929 . S
C1887 C1881 1.390 . S
C1887 C1884 1.386 . S
C1888 C1883 1.490 . S
C1888 C1890 1.395 . S
C1888 C1891 1.403 . S
H1889 C1895 0.930 . S
C1890 H1876 0.930 . S
C1890 C1888 1.395 . S
C1890 C1893 1.403 . S
C1891 C1888 1.403 . S
C1891 C1892 1.524 . S
C1891 C1895 1.400 . S
C1892 H1877 0.960 . S
C1892 H1878 0.960 . S
C1892 H1879 0.960 . S
C1892 C1891 1.524 . S
C1893 C1890 1.403 . S
C1893 C1894 1.392 . S
C1893 C1897 1.495 . S
C1894 C1893 1.392 . S
C1894 C1895 1.385 . S
C1894 C1896 1.478 . S
C1895 H1889 0.930 . S
C1895 C1891 1.400 . S
C1895 C1894 1.385 . S
C1896 C1894 1.478 . S
C1896 C1898 1.381 . S
C1896 C1902 1.383 . S
C1897 C1893 1.495 . S
C1897 H1903 0.959 . S
C1897 H1904 0.961 . S
C1897 H1905 0.960 . S
C1898 C1896 1.381 . S
C1898 C1899 1.394 . S
C1898 H1906 0.930 . S
C1899 C1898 1.394 . S
C1899 C1900 1.383 . S
C1899 H1907 0.929 . S
C1900 C1899 1.383 . S
C1900 C1901 1.377 . S
C1901 H1885 0.930 . S
C1901 C1900 1.377 . S
C1901 C1902 1.379 . S
C1902 H1886 0.931 . S
C1902 C1896 1.383 . S
C1902 C1901 1.379 . S
H1903 C1897 0.959 . S
H1904 C1897 0.961 . S
H1905 C1897 0.960 . S
H1906 C1898 0.930 . S
H1907 C1899 0.929 . S
H1908 C1916 0.929 . S
H1909 C1918 0.930 . S
H1910 C1920 0.930 . S
H1911 C1923 0.929 . S
H1912 C1926 0.930 . S
H1913 C1928 0.960 . S
H1914 C1928 0.960 . S
H1915 C1928 0.960 . S
C1916 H1908 0.929 . S
C1916 C1917 1.377 . S
C1916 C1918 1.384 . S
C1917 C1916 1.377 . S
C1917 C1923 1.390 . S
C1918 H1909 0.930 . S
C1918 C1916 1.384 . S
C1918 C1919 1.372 . S
C1919 C1918 1.372 . S
C1919 C1920 1.400 . S
C1919 C1924 1.490 . S
C1920 H1910 0.930 . S
C1920 C1919 1.400 . S
C1920 C1923 1.386 . S
H1921 C1937 0.930 . S
H1922 C1938 0.931 . S
C1923 H1911 0.929 . S
C1923 C1917 1.390 . S
C1923 C1920 1.386 . S
C1924 C1919 1.490 . S
C1924 C1926 1.395 . S
C1924 C1927 1.403 . S
H1925 C1931 0.930 . S
C1926 H1912 0.930 . S
C1926 C1924 1.395 . S
C1926 C1929 1.403 . S
C1927 C1924 1.403 . S
C1927 C1928 1.524 . S
C1927 C1931 1.400 . S
C1928 H1913 0.960 . S
C1928 H1914 0.960 . S
C1928 H1915 0.960 . S
C1928 C1927 1.524 . S
C1929 C1926 1.403 . S
C1929 C1930 1.392 . S
C1929 C1933 1.495 . S
C1930 C1929 1.392 . S
C1930 C1931 1.385 . S
C1930 C1932 1.478 . S
C1931 H1925 0.930 . S
C1931 C1927 1.400 . S
C1931 C1930 1.385 . S
C1932 C1930 1.478 . S
C1932 C1934 1.381 . S
C1932 C1938 1.383 . S
C1933 C1929 1.495 . S
C1933 H1939 0.959 . S
C1933 H1940 0.961 . S
C1933 H1941 0.960 . S
C1934 C1932 1.381 . S
C1934 C1935 1.394 . S
C1934 H1942 0.930 . S
C1935 C1934 1.394 . S
C1935 C1936 1.383 . S
C1935 H1943 0.929 . S
C1936 C1935 1.383 . S
C1936 C1937 1.377 . S
C1937 H1921 0.930 . S
C1937 C1936 1.377 . S
C1937 C1938 1.379 . S
C1938 H1922 0.931 . S
C1938 C1932 1.383 . S
C1938 C1937 1.379 . S
H1939 C1933 0.959 . S
H1940 C1933 0.961 . S
H1941 C1933 0.960 . S
H1942 C1934 0.930 . S
H1943 C1935 0.929 . S
H1944 C1952 0.929 . S
H1945 C1954 0.930 . S
H1946 C1956 0.930 . S
H1947 C1959 0.929 . S
H1948 C1962 0.930 . S
H1949 C1964 0.960 . S
H1950 C1964 0.960 . S
H1951 C1964 0.960 . S
C1952 H1944 0.929 . S
C1952 C1953 1.377 . S
C1952 C1954 1.384 . S
C1953 C1952 1.377 . S
C1953 C1959 1.390 . S
C1954 H1945 0.930 . S
C1954 C1952 1.384 . S
C1954 C1955 1.372 . S
C1955 C1954 1.372 . S
C1955 C1956 1.400 . S
C1955 C1960 1.490 . S
C1956 H1946 0.930 . S
C1956 C1955 1.400 . S
C1956 C1959 1.386 . S
H1957 C1973 0.930 . S
H1958 C1974 0.931 . S
C1959 H1947 0.929 . S
C1959 C1953 1.390 . S
C1959 C1956 1.386 . S
C1960 C1955 1.490 . S
C1960 C1962 1.395 . S
C1960 C1963 1.403 . S
H1961 C1967 0.930 . S
C1962 H1948 0.930 . S
C1962 C1960 1.395 . S
C1962 C1965 1.403 . S
C1963 C1960 1.403 . S
C1963 C1964 1.524 . S
C1963 C1967 1.400 . S
C1964 H1949 0.960 . S
C1964 H1950 0.960 . S
C1964 H1951 0.960 . S
C1964 C1963 1.524 . S
C1965 C1962 1.403 . S
C1965 C1966 1.392 . S
C1965 C1969 1.495 . S
C1966 C1965 1.392 . S
C1966 C1967 1.385 . S
C1966 C1968 1.478 . S
C1967 H1961 0.930 . S
C1967 C1963 1.400 . S
C1967 C1966 1.385 . S
C1968 C1966 1.478 . S
C1968 C1970 1.381 . S
C1968 C1974 1.383 . S
C1969 C1965 1.495 . S
C1969 H1975 0.959 . S
C1969 H1976 0.961 . S
C1969 H1977 0.960 . S
C1970 C1968 1.381 . S
C1970 C1971 1.394 . S
C1970 H1978 0.930 . S
C1971 C1970 1.394 . S
C1971 C1972 1.383 . S
C1971 H1979 0.929 . S
C1972 C1971 1.383 . S
C1972 C1973 1.377 . S
C1973 H1957 0.930 . S
C1973 C1972 1.377 . S
C1973 C1974 1.379 . S
C1974 H1958 0.931 . S
C1974 C1968 1.383 . S
C1974 C1973 1.379 . S
H1975 C1969 0.959 . S
H1976 C1969 0.961 . S
H1977 C1969 0.960 . S
H1978 C1970 0.930 . S
H1979 C1971 0.929 . S
H1980 C1988 0.929 . S
H1981 C1990 0.930 . S
H1982 C1992 0.930 . S
H1983 C1995 0.929 . S
H1984 C1998 0.930 . S
H1985 C2000 0.960 . S
H1986 C2000 0.960 . S
H1987 C2000 0.960 . S
C1988 H1980 0.929 . S
C1988 C1989 1.377 . S
C1988 C1990 1.384 . S
C1989 C1988 1.377 . S
C1989 C1995 1.390 . S
C1990 H1981 0.930 . S
C1990 C1988 1.384 . S
C1990 C1991 1.372 . S
C1991 C1990 1.372 . S
C1991 C1992 1.400 . S
C1991 C1996 1.490 . S
C1992 H1982 0.930 . S
C1992 C1991 1.400 . S
C1992 C1995 1.386 . S
H1993 C2009 0.930 . S
H1994 C2010 0.931 . S
C1995 H1983 0.929 . S
C1995 C1989 1.390 . S
C1995 C1992 1.386 . S
C1996 C1991 1.490 . S
C1996 C1998 1.395 . S
C1996 C1999 1.403 . S
H1997 C2003 0.930 . S
C1998 H1984 0.930 . S
C1998 C1996 1.395 . S
C1998 C2001 1.403 . S
C1999 C1996 1.403 . S
C1999 C2000 1.524 . S
C1999 C2003 1.400 . S
C2000 H1985 0.960 . S
C2000 H1986 0.960 . S
C2000 H1987 0.960 . S
C2000 C1999 1.524 . S
C2001 C1998 1.403 . S
C2001 C2002 1.392 . S
C2001 C2005 1.495 . S
C2002 C2001 1.392 . S
C2002 C2003 1.385 . S
C2002 C2004 1.478 . S
C2003 H1997 0.930 . S
C2003 C1999 1.400 . S
C2003 C2002 1.385 . S
C2004 C2002 1.478 . S
C2004 C2006 1.381 . S
C2004 C2010 1.383 . S
C2005 C2001 1.495 . S
C2005 H2011 0.959 . S
C2005 H2012 0.961 . S
C2005 H2013 0.960 . S
C2006 C2004 1.381 . S
C2006 C2007 1.394 . S
C2006 H2014 0.930 . S
C2007 C2006 1.394 . S
C2007 C2008 1.383 . S
C2007 H2015 0.929 . S
C2008 C2007 1.383 . S
C2008 C2009 1.377 . S
C2009 H1993 0.930 . S
C2009 C2008 1.377 . S
C2009 C2010 1.379 . S
C2010 H1994 0.931 . S
C2010 C2004 1.383 . S
C2010 C2009 1.379 . S
H2011 C2005 0.959 . S
H2012 C2005 0.961 . S
H2013 C2005 0.960 . S
H2014 C2006 0.930 . S
H2015 C2007 0.929 . S
H2016 C2024 0.929 . S
H2017 C2026 0.930 . S
H2018 C2028 0.930 . S
H2019 C2031 0.929 . S
H2020 C2034 0.930 . S
H2021 C2036 0.960 . S
H2022 C2036 0.960 . S
H2023 C2036 0.960 . S
C2024 H2016 0.929 . S
C2024 C2025 1.377 . S
C2024 C2026 1.384 . S
C2025 C2024 1.377 . S
C2025 C2031 1.390 . S
C2026 H2017 0.930 . S
C2026 C2024 1.384 . S
C2026 C2027 1.372 . S
C2027 C2026 1.372 . S
C2027 C2028 1.400 . S
C2027 C2032 1.490 . S
C2028 H2018 0.930 . S
C2028 C2027 1.400 . S
C2028 C2031 1.386 . S
H2029 C2045 0.930 . S
H2030 C2046 0.931 . S
C2031 H2019 0.929 . S
C2031 C2025 1.390 . S
C2031 C2028 1.386 . S
C2032 C2027 1.490 . S
C2032 C2034 1.395 . S
C2032 C2035 1.403 . S
H2033 C2039 0.930 . S
C2034 H2020 0.930 . S
C2034 C2032 1.395 . S
C2034 C2037 1.403 . S
C2035 C2032 1.403 . S
C2035 C2036 1.524 . S
C2035 C2039 1.400 . S
C2036 H2021 0.960 . S
C2036 H2022 0.960 . S
C2036 H2023 0.960 . S
C2036 C2035 1.524 . S
C2037 C2034 1.403 . S
C2037 C2038 1.392 . S
C2037 C2041 1.495 . S
C2038 C2037 1.392 . S
C2038 C2039 1.385 . S
C2038 C2040 1.478 . S
C2039 H2033 0.930 . S
C2039 C2035 1.400 . S
C2039 C2038 1.385 . S
C2040 C2038 1.478 . S
C2040 C2042 1.381 . S
C2040 C2046 1.383 . S
C2041 C2037 1.495 . S
C2041 H2047 0.959 . S
C2041 H2048 0.961 . S
C2041 H2049 0.960 . S
C2042 C2040 1.381 . S
C2042 C2043 1.394 . S
C2042 H2050 0.930 . S
C2043 C2042 1.394 . S
C2043 C2044 1.383 . S
C2043 H2051 0.929 . S
C2044 C2043 1.383 . S
C2044 C2045 1.377 . S
C2045 H2029 0.930 . S
C2045 C2044 1.377 . S
C2045 C2046 1.379 . S
C2046 H2030 0.931 . S
C2046 C2040 1.383 . S
C2046 C2045 1.379 . S
H2047 C2041 0.959 . S
H2048 C2041 0.961 . S
H2049 C2041 0.960 . S
H2050 C2042 0.930 . S
H2051 C2043 0.929 . S
H2052 C2060 0.929 . S
H2053 C2062 0.930 . S
H2054 C2064 0.930 . S
H2055 C2067 0.929 . S
H2056 C2070 0.930 . S
H2057 C2072 0.960 . S
H2058 C2072 0.960 . S
H2059 C2072 0.960 . S
C2060 H2052 0.929 . S
C2060 C2061 1.377 . S
C2060 C2062 1.384 . S
C2061 C2060 1.377 . S
C2061 C2067 1.390 . S
C2062 H2053 0.930 . S
C2062 C2060 1.384 . S
C2062 C2063 1.372 . S
C2063 C2062 1.372 . S
C2063 C2064 1.400 . S
C2063 C2068 1.490 . S
C2064 H2054 0.930 . S
C2064 C2063 1.400 . S
C2064 C2067 1.386 . S
H2065 C2081 0.930 . S
H2066 C2082 0.931 . S
C2067 H2055 0.929 . S
C2067 C2061 1.390 . S
C2067 C2064 1.386 . S
C2068 C2063 1.490 . S
C2068 C2070 1.395 . S
C2068 C2071 1.403 . S
H2069 C2075 0.930 . S
C2070 H2056 0.930 . S
C2070 C2068 1.395 . S
C2070 C2073 1.403 . S
C2071 C2068 1.403 . S
C2071 C2072 1.524 . S
C2071 C2075 1.400 . S
C2072 H2057 0.960 . S
C2072 H2058 0.960 . S
C2072 H2059 0.960 . S
C2072 C2071 1.524 . S
C2073 C2070 1.403 . S
C2073 C2074 1.392 . S
C2073 C2077 1.495 . S
C2074 C2073 1.392 . S
C2074 C2075 1.385 . S
C2074 C2076 1.478 . S
C2075 H2069 0.930 . S
C2075 C2071 1.400 . S
C2075 C2074 1.385 . S
C2076 C2074 1.478 . S
C2076 C2078 1.381 . S
C2076 C2082 1.383 . S
C2077 C2073 1.495 . S
C2077 H2083 0.959 . S
C2077 H2084 0.961 . S
C2077 H2085 0.960 . S
C2078 C2076 1.381 . S
C2078 C2079 1.394 . S
C2078 H2086 0.930 . S
C2079 C2078 1.394 . S
C2079 C2080 1.383 . S
C2079 H2087 0.929 . S
C2080 C2079 1.383 . S
C2080 C2081 1.377 . S
C2081 H2065 0.930 . S
C2081 C2080 1.377 . S
C2081 C2082 1.379 . S
C2082 H2066 0.931 . S
C2082 C2076 1.383 . S
C2082 C2081 1.379 . S
H2083 C2077 0.959 . S
H2084 C2077 0.961 . S
H2085 C2077 0.960 . S
H2086 C2078 0.930 . S
H2087 C2079 0.929 . S
H2088 C2096 0.929 . S
H2089 C2098 0.930 . S
H2090 C2100 0.930 . S
H2091 C2103 0.929 . S
H2092 C2106 0.930 . S
H2093 C2108 0.960 . S
H2094 C2108 0.960 . S
H2095 C2108 0.960 . S
C2096 H2088 0.929 . S
C2096 C2097 1.377 . S
C2096 C2098 1.384 . S
C2097 C2096 1.377 . S
C2097 C2103 1.390 . S
C2098 H2089 0.930 . S
C2098 C2096 1.384 . S
C2098 C2099 1.372 . S
C2099 C2098 1.372 . S
C2099 C2100 1.400 . S
C2099 C2104 1.490 . S
C2100 H2090 0.930 . S
C2100 C2099 1.400 . S
C2100 C2103 1.386 . S
H2101 C2117 0.930 . S
H2102 C2118 0.931 . S
C2103 H2091 0.929 . S
C2103 C2097 1.390 . S
C2103 C2100 1.386 . S
C2104 C2099 1.490 . S
C2104 C2106 1.395 . S
C2104 C2107 1.403 1_556 S
H2105 C2111 0.930 . S
C2106 H2092 0.930 . S
C2106 C2104 1.395 . S
C2106 C2109 1.403 . S
C2107 C2104 1.403 1_554 S
C2107 C2108 1.524 . S
C2107 C2111 1.400 . S
C2108 H2093 0.960 . S
C2108 H2094 0.960 . S
C2108 H2095 0.960 . S
C2108 C2107 1.524 . S
C2109 C2106 1.403 . S
C2109 C2110 1.392 1_556 S
C2109 C2113 1.495 . S
C2110 C2109 1.392 1_554 S
C2110 C2111 1.385 . S
C2110 C2112 1.478 . S
C2111 H2105 0.930 . S
C2111 C2107 1.400 . S
C2111 C2110 1.385 . S
C2112 C2110 1.478 . S
C2112 C2114 1.381 . S
C2112 C2118 1.383 . S
C2113 C2109 1.495 . S
C2113 H2119 0.959 . S
C2113 H2120 0.961 . S
C2113 H2121 0.960 . S
C2114 C2112 1.381 . S
C2114 C2115 1.394 . S
C2114 H2122 0.930 . S
C2115 C2114 1.394 . S
C2115 C2116 1.383 . S
C2115 H2123 0.929 . S
C2116 C2115 1.383 . S
C2116 C2117 1.377 . S
C2117 H2101 0.930 . S
C2117 C2116 1.377 . S
C2117 C2118 1.379 . S
C2118 H2102 0.931 . S
C2118 C2112 1.383 . S
C2118 C2117 1.379 . S
H2119 C2113 0.959 . S
H2120 C2113 0.961 . S
H2121 C2113 0.960 . S
H2122 C2114 0.930 . S
H2123 C2115 0.929 . S
H2124 C2132 0.929 . S
H2125 C2134 0.930 . S
H2126 C2136 0.930 . S
H2127 C2139 0.929 . S
H2128 C2142 0.930 . S
H2129 C2144 0.960 . S
H2130 C2144 0.960 . S
H2131 C2144 0.960 . S
C2132 H2124 0.929 . S
C2132 C2133 1.377 . S
C2132 C2134 1.384 . S
C2133 C2132 1.377 . S
C2133 C2139 1.390 . S
C2134 H2125 0.930 . S
C2134 C2132 1.384 . S
C2134 C2135 1.372 . S
C2135 C2134 1.372 . S
C2135 C2136 1.400 . S
C2135 C2140 1.490 . S
C2136 H2126 0.930 . S
C2136 C2135 1.400 . S
C2136 C2139 1.386 . S
H2137 C2153 0.930 . S
H2138 C2154 0.931 . S
C2139 H2127 0.929 . S
C2139 C2133 1.390 . S
C2139 C2136 1.386 . S
C2140 C2135 1.490 . S
C2140 C2142 1.395 . S
C2140 C2143 1.403 . S
H2141 C2147 0.930 . S
C2142 H2128 0.930 . S
C2142 C2140 1.395 . S
C2142 C2145 1.403 . S
C2143 C2140 1.403 . S
C2143 C2144 1.524 . S
C2143 C2147 1.400 . S
C2144 H2129 0.960 . S
C2144 H2130 0.960 . S
C2144 H2131 0.960 . S
C2144 C2143 1.524 . S
C2145 C2142 1.403 . S
C2145 C2146 1.392 . S
C2145 C2149 1.495 . S
C2146 C2145 1.392 . S
C2146 C2147 1.385 . S
C2146 C2148 1.478 . S
C2147 H2141 0.930 . S
C2147 C2143 1.400 . S
C2147 C2146 1.385 . S
C2148 C2146 1.478 . S
C2148 C2150 1.381 . S
C2148 C2154 1.383 . S
C2149 C2145 1.495 . S
C2149 H2155 0.959 . S
C2149 H2156 0.961 . S
C2149 H2157 0.960 . S
C2150 C2148 1.381 . S
C2150 C2151 1.394 . S
C2150 H2158 0.930 . S
C2151 C2150 1.394 . S
C2151 C2152 1.383 . S
C2151 H2159 0.929 . S
C2152 C2151 1.383 . S
C2152 C2153 1.377 . S
C2153 H2137 0.930 . S
C2153 C2152 1.377 . S
C2153 C2154 1.379 . S
C2154 H2138 0.931 . S
C2154 C2148 1.383 . S
C2154 C2153 1.379 . S
H2155 C2149 0.959 . S
H2156 C2149 0.961 . S
H2157 C2149 0.960 . S
H2158 C2150 0.930 . S
H2159 C2151 0.929 . S
H2160 C2168 0.929 . S
H2161 C2170 0.930 . S
H2162 C2172 0.930 . S
H2163 C2175 0.929 . S
H2164 C2178 0.930 . S
H2165 C2180 0.960 . S
H2166 C2180 0.960 . S
H2167 C2180 0.960 . S
C2168 H2160 0.929 . S
C2168 C2169 1.377 . S
C2168 C2170 1.384 . S
C2169 C2168 1.377 . S
C2169 C2175 1.390 . S
C2170 H2161 0.930 . S
C2170 C2168 1.384 . S
C2170 C2171 1.372 . S
C2171 C2170 1.372 . S
C2171 C2172 1.400 . S
C2171 C2176 1.490 . S
C2172 H2162 0.930 . S
C2172 C2171 1.400 . S
C2172 C2175 1.386 . S
H2173 C2189 0.930 . S
H2174 C2190 0.931 . S
C2175 H2163 0.929 . S
C2175 C2169 1.390 . S
C2175 C2172 1.386 . S
C2176 C2171 1.490 . S
C2176 C2178 1.395 . S
C2176 C2179 1.403 . S
H2177 C2183 0.930 . S
C2178 H2164 0.930 . S
C2178 C2176 1.395 . S
C2178 C2181 1.403 . S
C2179 C2176 1.403 . S
C2179 C2180 1.524 . S
C2179 C2183 1.400 . S
C2180 H2165 0.960 . S
C2180 H2166 0.960 . S
C2180 H2167 0.960 . S
C2180 C2179 1.524 . S
C2181 C2178 1.403 . S
C2181 C2182 1.392 . S
C2181 C2185 1.495 . S
C2182 C2181 1.392 . S
C2182 C2183 1.385 . S
C2182 C2184 1.478 . S
C2183 H2177 0.930 . S
C2183 C2179 1.400 . S
C2183 C2182 1.385 . S
C2184 C2182 1.478 . S
C2184 C2186 1.381 . S
C2184 C2190 1.383 . S
C2185 C2181 1.495 . S
C2185 H2191 0.959 . S
C2185 H2192 0.961 . S
C2185 H2193 0.960 . S
C2186 C2184 1.381 . S
C2186 C2187 1.394 . S
C2186 H2194 0.930 . S
C2187 C2186 1.394 . S
C2187 C2188 1.383 . S
C2187 H2195 0.929 . S
C2188 C2187 1.383 . S
C2188 C2189 1.377 . S
C2189 H2173 0.930 . S
C2189 C2188 1.377 . S
C2189 C2190 1.379 . S
C2190 H2174 0.931 . S
C2190 C2184 1.383 . S
C2190 C2189 1.379 . S
H2191 C2185 0.959 . S
H2192 C2185 0.961 . S
H2193 C2185 0.960 . S
H2194 C2186 0.930 . S
H2195 C2187 0.929 . S
H2196 C2204 0.929 . S
H2197 C2206 0.930 . S
H2198 C2208 0.930 . S
H2199 C2211 0.929 . S
H2200 C2214 0.930 . S
H2201 C2216 0.960 . S
H2202 C2216 0.960 . S
H2203 C2216 0.960 . S
C2204 H2196 0.929 . S
C2204 C2205 1.377 . S
C2204 C2206 1.384 . S
C2205 C2204 1.377 . S
C2205 C2211 1.390 . S
C2206 H2197 0.930 . S
C2206 C2204 1.384 . S
C2206 C2207 1.372 . S
C2207 C2206 1.372 . S
C2207 C2208 1.400 . S
C2207 C2212 1.490 . S
C2208 H2198 0.930 . S
C2208 C2207 1.400 . S
C2208 C2211 1.386 . S
H2209 C2225 0.930 . S
H2210 C2226 0.931 . S
C2211 H2199 0.929 . S
C2211 C2205 1.390 . S
C2211 C2208 1.386 . S
C2212 C2207 1.490 . S
C2212 C2214 1.395 . S
C2212 C2215 1.403 . S
H2213 C2219 0.930 . S
C2214 H2200 0.930 . S
C2214 C2212 1.395 . S
C2214 C2217 1.403 . S
C2215 C2212 1.403 . S
C2215 C2216 1.524 . S
C2215 C2219 1.400 . S
C2216 H2201 0.960 . S
C2216 H2202 0.960 . S
C2216 H2203 0.960 . S
C2216 C2215 1.524 . S
C2217 C2214 1.403 . S
C2217 C2218 1.392 . S
C2217 C2221 1.495 . S
C2218 C2217 1.392 . S
C2218 C2219 1.385 . S
C2218 C2220 1.478 . S
C2219 H2213 0.930 . S
C2219 C2215 1.400 . S
C2219 C2218 1.385 . S
C2220 C2218 1.478 . S
C2220 C2222 1.381 . S
C2220 C2226 1.383 . S
C2221 C2217 1.495 . S
C2221 H2227 0.959 . S
C2221 H2228 0.961 . S
C2221 H2229 0.960 . S
C2222 C2220 1.381 . S
C2222 C2223 1.394 . S
C2222 H2230 0.930 . S
C2223 C2222 1.394 . S
C2223 C2224 1.383 . S
C2223 H2231 0.929 . S
C2224 C2223 1.383 . S
C2224 C2225 1.377 . S
C2225 H2209 0.930 . S
C2225 C2224 1.377 . S
C2225 C2226 1.379 . S
C2226 H2210 0.931 . S
C2226 C2220 1.383 . S
C2226 C2225 1.379 . S
H2227 C2221 0.959 . S
H2228 C2221 0.961 . S
H2229 C2221 0.960 . S
H2230 C2222 0.930 . S
H2231 C2223 0.929 . S
H2232 C2240 0.929 . S
H2233 C2242 0.930 . S
H2234 C2244 0.930 . S
H2235 C2247 0.929 . S
H2236 C2250 0.930 . S
H2237 C2252 0.960 . S
H2238 C2252 0.960 . S
H2239 C2252 0.960 . S
C2240 H2232 0.929 . S
C2240 C2241 1.377 . S
C2240 C2242 1.384 . S
C2241 C2240 1.377 . S
C2241 C2247 1.390 . S
C2242 H2233 0.930 . S
C2242 C2240 1.384 . S
C2242 C2243 1.372 . S
C2243 C2242 1.372 . S
C2243 C2244 1.400 . S
C2243 C2248 1.490 . S
C2244 H2234 0.930 . S
C2244 C2243 1.400 . S
C2244 C2247 1.386 . S
H2245 C2261 0.930 . S
H2246 C2262 0.931 . S
C2247 H2235 0.929 . S
C2247 C2241 1.390 . S
C2247 C2244 1.386 . S
C2248 C2243 1.490 . S
C2248 C2250 1.395 . S
C2248 C2251 1.403 . S
H2249 C2255 0.930 . S
C2250 H2236 0.930 . S
C2250 C2248 1.395 . S
C2250 C2253 1.403 . S
C2251 C2248 1.403 . S
C2251 C2252 1.524 . S
C2251 C2255 1.400 . S
C2252 H2237 0.960 . S
C2252 H2238 0.960 . S
C2252 H2239 0.960 . S
C2252 C2251 1.524 . S
C2253 C2250 1.403 . S
C2253 C2254 1.392 . S
C2253 C2257 1.495 . S
C2254 C2253 1.392 . S
C2254 C2255 1.385 . S
C2254 C2256 1.478 . S
C2255 H2249 0.930 . S
C2255 C2251 1.400 . S
C2255 C2254 1.385 . S
C2256 C2254 1.478 . S
C2256 C2258 1.381 . S
C2256 C2262 1.383 . S
C2257 C2253 1.495 . S
C2257 H2263 0.959 . S
C2257 H2264 0.961 . S
C2257 H2265 0.960 . S
C2258 C2256 1.381 . S
C2258 C2259 1.394 . S
C2258 H2266 0.930 . S
C2259 C2258 1.394 . S
C2259 C2260 1.383 . S
C2259 H2267 0.929 . S
C2260 C2259 1.383 . S
C2260 C2261 1.377 . S
C2261 H2245 0.930 . S
C2261 C2260 1.377 . S
C2261 C2262 1.379 . S
C2262 H2246 0.931 . S
C2262 C2256 1.383 . S
C2262 C2261 1.379 . S
H2263 C2257 0.959 . S
H2264 C2257 0.961 . S
H2265 C2257 0.960 . S
H2266 C2258 0.930 . S
H2267 C2259 0.929 . S
H2268 C2276 0.929 . S
H2269 C2278 0.930 . S
H2270 C2280 0.930 . S
H2271 C2283 0.929 . S
H2272 C2286 0.930 . S
H2273 C2288 0.960 . S
H2274 C2288 0.960 . S
H2275 C2288 0.960 . S
C2276 H2268 0.929 . S
C2276 C2277 1.377 . S
C2276 C2278 1.384 . S
C2277 C2276 1.377 . S
C2277 C2283 1.390 . S
C2278 H2269 0.930 . S
C2278 C2276 1.384 . S
C2278 C2279 1.372 . S
C2279 C2278 1.372 . S
C2279 C2280 1.400 . S
C2279 C2284 1.490 . S
C2280 H2270 0.930 . S
C2280 C2279 1.400 . S
C2280 C2283 1.386 . S
H2281 C2297 0.930 . S
H2282 C2298 0.931 . S
C2283 H2271 0.929 . S
C2283 C2277 1.390 . S
C2283 C2280 1.386 . S
C2284 C2279 1.490 . S
C2284 C2286 1.395 . S
C2284 C2287 1.403 . S
H2285 C2291 0.930 . S
C2286 H2272 0.930 . S
C2286 C2284 1.395 . S
C2286 C2289 1.403 . S
C2287 C2284 1.403 . S
C2287 C2288 1.524 . S
C2287 C2291 1.400 . S
C2288 H2273 0.960 . S
C2288 H2274 0.960 . S
C2288 H2275 0.960 . S
C2288 C2287 1.524 . S
C2289 C2286 1.403 . S
C2289 C2290 1.392 . S
C2289 C2293 1.495 . S
C2290 C2289 1.392 . S
C2290 C2291 1.385 . S
C2290 C2292 1.478 . S
C2291 H2285 0.930 . S
C2291 C2287 1.400 . S
C2291 C2290 1.385 . S
C2292 C2290 1.478 . S
C2292 C2294 1.381 . S
C2292 C2298 1.383 . S
C2293 C2289 1.495 . S
C2293 H2299 0.959 . S
C2293 H2300 0.961 . S
C2293 H2301 0.960 . S
C2294 C2292 1.381 . S
C2294 C2295 1.394 . S
C2294 H2302 0.930 . S
C2295 C2294 1.394 . S
C2295 C2296 1.383 . S
C2295 H2303 0.929 . S
C2296 C2295 1.383 . S
C2296 C2297 1.377 . S
C2297 H2281 0.930 . S
C2297 C2296 1.377 . S
C2297 C2298 1.379 . S
C2298 H2282 0.931 . S
C2298 C2292 1.383 . S
C2298 C2297 1.379 . S
H2299 C2293 0.959 . S
H2300 C2293 0.961 . S
H2301 C2293 0.960 . S
H2302 C2294 0.930 . S
H2303 C2295 0.929 . S
H2304 C2312 0.929 . S
H2305 C2314 0.930 . S
H2306 C2316 0.930 . S
H2307 C2319 0.929 . S
H2308 C2322 0.930 . S
H2309 C2324 0.960 . S
H2310 C2324 0.960 . S
H2311 C2324 0.960 . S
C2312 H2304 0.929 . S
C2312 C2313 1.377 . S
C2312 C2314 1.384 . S
C2313 C2312 1.377 . S
C2313 C2319 1.390 . S
C2314 H2305 0.930 . S
C2314 C2312 1.384 . S
C2314 C2315 1.372 . S
C2315 C2314 1.372 . S
C2315 C2316 1.400 . S
C2315 C2320 1.490 . S
C2316 H2306 0.930 . S
C2316 C2315 1.400 . S
C2316 C2319 1.386 . S
H2317 C2333 0.930 . S
H2318 C2334 0.931 . S
C2319 H2307 0.929 . S
C2319 C2313 1.390 . S
C2319 C2316 1.386 . S
C2320 C2315 1.490 . S
C2320 C2322 1.395 . S
C2320 C2323 1.403 . S
H2321 C2327 0.930 . S
C2322 H2308 0.930 . S
C2322 C2320 1.395 . S
C2322 C2325 1.403 . S
C2323 C2320 1.403 . S
C2323 C2324 1.524 . S
C2323 C2327 1.400 . S
C2324 H2309 0.960 . S
C2324 H2310 0.960 . S
C2324 H2311 0.960 . S
C2324 C2323 1.524 . S
C2325 C2322 1.403 . S
C2325 C2326 1.392 . S
C2325 C2329 1.495 . S
C2326 C2325 1.392 . S
C2326 C2327 1.385 . S
C2326 C2328 1.478 . S
C2327 H2321 0.930 . S
C2327 C2323 1.400 . S
C2327 C2326 1.385 . S
C2328 C2326 1.478 . S
C2328 C2330 1.381 . S
C2328 C2334 1.383 . S
C2329 C2325 1.495 . S
C2329 H2335 0.959 . S
C2329 H2336 0.961 . S
C2329 H2337 0.960 . S
C2330 C2328 1.381 . S
C2330 C2331 1.394 . S
C2330 H2338 0.930 . S
C2331 C2330 1.394 . S
C2331 C2332 1.383 . S
C2331 H2339 0.929 . S
C2332 C2331 1.383 . S
C2332 C2333 1.377 . S
C2333 H2317 0.930 . S
C2333 C2332 1.377 . S
C2333 C2334 1.379 . S
C2334 H2318 0.931 . S
C2334 C2328 1.383 . S
C2334 C2333 1.379 . S
H2335 C2329 0.959 . S
H2336 C2329 0.961 . S
H2337 C2329 0.960 . S
H2338 C2330 0.930 . S
H2339 C2331 0.929 . S
H2340 C2348 0.929 . S
H2341 C2350 0.930 . S
H2342 C2352 0.930 . S
H2343 C2355 0.929 . S
H2344 C2358 0.930 . S
H2345 C2360 0.960 . S
H2346 C2360 0.960 . S
H2347 C2360 0.960 . S
C2348 H2340 0.929 . S
C2348 C2349 1.377 . S
C2348 C2350 1.384 . S
C2349 C2348 1.377 . S
C2349 C2355 1.390 . S
C2350 H2341 0.930 . S
C2350 C2348 1.384 . S
C2350 C2351 1.372 . S
C2351 C2350 1.372 . S
C2351 C2352 1.400 . S
C2351 C2356 1.490 . S
C2352 H2342 0.930 . S
C2352 C2351 1.400 . S
C2352 C2355 1.386 . S
H2353 C2369 0.930 . S
H2354 C2370 0.931 . S
C2355 H2343 0.929 . S
C2355 C2349 1.390 . S
C2355 C2352 1.386 . S
C2356 C2351 1.490 . S
C2356 C2358 1.395 . S
C2356 C2359 1.403 . S
H2357 C2363 0.930 . S
C2358 H2344 0.930 . S
C2358 C2356 1.395 . S
C2358 C2361 1.403 . S
C2359 C2356 1.403 . S
C2359 C2360 1.524 . S
C2359 C2363 1.400 . S
C2360 H2345 0.960 . S
C2360 H2346 0.960 . S
C2360 H2347 0.960 . S
C2360 C2359 1.524 . S
C2361 C2358 1.403 . S
C2361 C2362 1.392 . S
C2361 C2365 1.495 . S
C2362 C2361 1.392 . S
C2362 C2363 1.385 . S
C2362 C2364 1.478 . S
C2363 H2357 0.930 . S
C2363 C2359 1.400 . S
C2363 C2362 1.385 . S
C2364 C2362 1.478 . S
C2364 C2366 1.381 . S
C2364 C2370 1.383 . S
C2365 C2361 1.495 . S
C2365 H2371 0.959 . S
C2365 H2372 0.961 . S
C2365 H2373 0.960 . S
C2366 C2364 1.381 . S
C2366 C2367 1.394 . S
C2366 H2374 0.930 . S
C2367 C2366 1.394 . S
C2367 C2368 1.383 . S
C2367 H2375 0.929 . S
C2368 C2367 1.383 . S
C2368 C2369 1.377 . S
C2369 H2353 0.930 . S
C2369 C2368 1.377 . S
C2369 C2370 1.379 . S
C2370 H2354 0.931 . S
C2370 C2364 1.383 . S
C2370 C2369 1.379 . S
H2371 C2365 0.959 . S
H2372 C2365 0.961 . S
H2373 C2365 0.960 . S
H2374 C2366 0.930 . S
H2375 C2367 0.929 . S
H2376 C2384 0.929 . S
H2377 C2386 0.930 . S
H2378 C2388 0.930 . S
H2379 C2391 0.929 . S
H2380 C2394 0.930 . S
H2381 C2396 0.960 . S
H2382 C2396 0.960 . S
H2383 C2396 0.960 . S
C2384 H2376 0.929 . S
C2384 C2385 1.377 . S
C2384 C2386 1.384 . S
C2385 C2384 1.377 . S
C2385 C2391 1.390 . S
C2386 H2377 0.930 . S
C2386 C2384 1.384 . S
C2386 C2387 1.372 . S
C2387 C2386 1.372 . S
C2387 C2388 1.400 . S
C2387 C2392 1.490 . S
C2388 H2378 0.930 . S
C2388 C2387 1.400 . S
C2388 C2391 1.386 . S
H2389 C2405 0.930 . S
H2390 C2406 0.931 . S
C2391 H2379 0.929 . S
C2391 C2385 1.390 . S
C2391 C2388 1.386 . S
C2392 C2387 1.490 . S
C2392 C2394 1.395 . S
C2392 C2395 1.403 . S
H2393 C2399 0.930 . S
C2394 H2380 0.930 . S
C2394 C2392 1.395 . S
C2394 C2397 1.403 . S
C2395 C2392 1.403 . S
C2395 C2396 1.524 . S
C2395 C2399 1.400 . S
C2396 H2381 0.960 . S
C2396 H2382 0.960 . S
C2396 H2383 0.960 . S
C2396 C2395 1.524 . S
C2397 C2394 1.403 . S
C2397 C2398 1.392 . S
C2397 C2401 1.495 . S
C2398 C2397 1.392 . S
C2398 C2399 1.385 . S
C2398 C2400 1.478 . S
C2399 H2393 0.930 . S
C2399 C2395 1.400 . S
C2399 C2398 1.385 . S
C2400 C2398 1.478 . S
C2400 C2402 1.381 . S
C2400 C2406 1.383 . S
C2401 C2397 1.495 . S
C2401 H2407 0.959 . S
C2401 H2408 0.961 . S
C2401 H2409 0.960 . S
C2402 C2400 1.381 . S
C2402 C2403 1.394 . S
C2402 H2410 0.930 . S
C2403 C2402 1.394 . S
C2403 C2404 1.383 . S
C2403 H2411 0.929 . S
C2404 C2403 1.383 . S
C2404 C2405 1.377 . S
C2405 H2389 0.930 . S
C2405 C2404 1.377 . S
C2405 C2406 1.379 . S
C2406 H2390 0.931 . S
C2406 C2400 1.383 . S
C2406 C2405 1.379 . S
H2407 C2401 0.959 . S
H2408 C2401 0.961 . S
H2409 C2401 0.960 . S
H2410 C2402 0.930 . S
H2411 C2403 0.929 . S
H2412 C2420 0.929 . S
H2413 C2422 0.930 . S
H2414 C2424 0.930 . S
H2415 C2427 0.929 . S
H2416 C2430 0.930 . S
H2417 C2432 0.960 . S
H2418 C2432 0.960 . S
H2419 C2432 0.960 . S
C2420 H2412 0.929 . S
C2420 C2421 1.377 . S
C2420 C2422 1.384 . S
C2421 C2420 1.377 . S
C2421 C2427 1.390 . S
C2422 H2413 0.930 . S
C2422 C2420 1.384 . S
C2422 C2423 1.372 . S
C2423 C2422 1.372 . S
C2423 C2424 1.400 . S
C2423 C2428 1.490 . S
C2424 H2414 0.930 . S
C2424 C2423 1.400 . S
C2424 C2427 1.386 . S
H2425 C2441 0.930 . S
H2426 C2442 0.931 . S
C2427 H2415 0.929 . S
C2427 C2421 1.390 . S
C2427 C2424 1.386 . S
C2428 C2423 1.490 . S
C2428 C2430 1.395 . S
C2428 C2431 1.403 . S
H2429 C2435 0.930 . S
C2430 H2416 0.930 . S
C2430 C2428 1.395 . S
C2430 C2433 1.403 . S
C2431 C2428 1.403 . S
C2431 C2432 1.524 . S
C2431 C2435 1.400 . S
C2432 H2417 0.960 . S
C2432 H2418 0.960 . S
C2432 H2419 0.960 . S
C2432 C2431 1.524 . S
C2433 C2430 1.403 . S
C2433 C2434 1.392 . S
C2433 C2437 1.495 . S
C2434 C2433 1.392 . S
C2434 C2435 1.385 . S
C2434 C2436 1.478 . S
C2435 H2429 0.930 . S
C2435 C2431 1.400 . S
C2435 C2434 1.385 . S
C2436 C2434 1.478 . S
C2436 C2438 1.381 . S
C2436 C2442 1.383 . S
C2437 C2433 1.495 . S
C2437 H2443 0.959 . S
C2437 H2444 0.961 . S
C2437 H2445 0.960 . S
C2438 C2436 1.381 . S
C2438 C2439 1.394 . S
C2438 H2446 0.930 . S
C2439 C2438 1.394 . S
C2439 C2440 1.383 . S
C2439 H2447 0.929 . S
C2440 C2439 1.383 . S
C2440 C2441 1.377 . S
C2441 H2425 0.930 . S
C2441 C2440 1.377 . S
C2441 C2442 1.379 . S
C2442 H2426 0.931 . S
C2442 C2436 1.383 . S
C2442 C2441 1.379 . S
H2443 C2437 0.959 . S
H2444 C2437 0.961 . S
H2445 C2437 0.960 . S
H2446 C2438 0.930 . S
H2447 C2439 0.929 . S
H2448 C2456 0.929 . S
H2449 C2458 0.930 . S
H2450 C2460 0.930 . S
H2451 C2463 0.929 . S
H2452 C2466 0.930 . S
H2453 C2468 0.960 . S
H2454 C2468 0.960 . S
H2455 C2468 0.960 . S
C2456 H2448 0.929 . S
C2456 C2457 1.377 . S
C2456 C2458 1.384 . S
C2457 C2456 1.377 . S
C2457 C2463 1.390 . S
C2458 H2449 0.930 . S
C2458 C2456 1.384 . S
C2458 C2459 1.372 . S
C2459 C2458 1.372 . S
C2459 C2460 1.400 . S
C2459 C2464 1.490 . S
C2460 H2450 0.930 . S
C2460 C2459 1.400 . S
C2460 C2463 1.386 . S
H2461 C2477 0.930 . S
H2462 C2478 0.931 . S
C2463 H2451 0.929 . S
C2463 C2457 1.390 . S
C2463 C2460 1.386 . S
C2464 C2459 1.490 . S
C2464 C2466 1.395 . S
C2464 C2467 1.403 . S
H2465 C2471 0.930 . S
C2466 H2452 0.930 . S
C2466 C2464 1.395 . S
C2466 C2469 1.403 . S
C2467 C2464 1.403 . S
C2467 C2468 1.524 . S
C2467 C2471 1.400 . S
C2468 H2453 0.960 . S
C2468 H2454 0.960 . S
C2468 H2455 0.960 . S
C2468 C2467 1.524 . S
C2469 C2466 1.403 . S
C2469 C2470 1.392 . S
C2469 C2473 1.495 . S
C2470 C2469 1.392 . S
C2470 C2471 1.385 . S
C2470 C2472 1.478 . S
C2471 H2465 0.930 . S
C2471 C2467 1.400 . S
C2471 C2470 1.385 . S
C2472 C2470 1.478 . S
C2472 C2474 1.381 . S
C2472 C2478 1.383 . S
C2473 C2469 1.495 . S
C2473 H2479 0.959 . S
C2473 H2480 0.961 . S
C2473 H2481 0.960 . S
C2474 C2472 1.381 . S
C2474 C2475 1.394 . S
C2474 H2482 0.930 . S
C2475 C2474 1.394 . S
C2475 C2476 1.383 . S
C2475 H2483 0.929 . S
C2476 C2475 1.383 . S
C2476 C2477 1.377 . S
C2477 H2461 0.930 . S
C2477 C2476 1.377 . S
C2477 C2478 1.379 . S
C2478 H2462 0.931 . S
C2478 C2472 1.383 . S
C2478 C2477 1.379 . S
H2479 C2473 0.959 . S
H2480 C2473 0.961 . S
H2481 C2473 0.960 . S
H2482 C2474 0.930 . S
H2483 C2475 0.929 . S
C981 C664 1.338 . S
C1000 C16 1.374 . S
C1017 C97 1.349 . S
C1036 C745 1.367 . S
C1053 C826 1.331 . S
C1072 C178 1.315 . S
C1089 C259 1.352 . S
C1108 C907 1.306 . S
C1125 C340 1.337 . S
C1144 C502 1.329 . S
C1161 C583 1.317 . S
C1180 C421 1.291 . S
C1197 C604 3.243 . S
C1216 C37 3.228 . S
C1233 C685 3.243 . S
C1252 C118 3.232 . S
C1269 C766 3.251 . S
C1288 C199 3.256 . S
C1305 C280 3.246 . S
C1324 C847 3.235 . S
C1341 C361 3.245 . S
C1360 C928 3.243 . S
C1377 C523 3.251 . S
C1396 C442 3.256 . S
C1413 C423 2.222 . S
C1432 C52 1.977 . S
C1449 C133 2.021 . S
C1468 C18 2.235 . S
C1485 C99 2.225 . S
C1504 C214 1.983 . S
C1521 C180 2.220 . S
C1540 C295 2.004 . S
C1557 C261 2.225 . S
C1576 C376 1.980 . S
C1593 C457 2.006 . S
C1612 C342 2.211 . S
C1629 C585 2.220 . S
C1648 C538 1.968 . S
C1665 C666 2.228 . S
C1684 C619 2.042 . S
C1701 C747 2.226 . S
C1720 C700 1.987 . S
C1737 C828 2.221 . S
C1756 C781 1.970 . S
C1773 C862 2.008 . S
C1792 C909 2.205 . S
C1809 C504 2.230 . S
C1828 C943 2.045 . S
C1845 C34 1.084 . S
C1864 C617 1.105 . S
C1881 C115 1.069 . S
C1900 C698 1.137 . S
C1917 C779 1.140 . S
C1936 C196 1.086 . S
C1953 C860 1.121 . S
C1972 C277 1.041 . S
C1989 C358 1.070 . S
C2008 C941 1.133 . S
C2025 C536 1.141 . S
C2044 C439 1.059 . S
C2061 C520 1.076 . S
C2080 C455 1.140 . S
C2097 C601 1.090 . S
C2116 C50 1.102 . S
C2133 C131 1.113 . S
C2152 C682 1.111 . S
C2169 C763 1.069 . S
C2188 C212 1.147 . S
C2205 C293 1.140 . S
C2224 C844 1.082 . S
C2241 C374 1.127 . S
C2260 C925 1.027 . S
C2277 C707 0.837 . S
C2296 C59 0.891 . S
C2313 C140 0.853 . S
C2332 C788 0.893 . S
C2349 C869 0.807 . S
C2368 C221 0.754 . S
C2385 C302 0.845 . S
C2404 C950 0.909 . S
C2421 C383 0.823 . S
C2440 C545 0.813 . S
C2457 C626 0.809 . S
C2476 C464 0.761 . S
