# Generated by pormake.
# Topology wgp, (5)-cn, num edge types: 1
# Building blocks:
#     Node 0, Type 0, BuildingBlock: XOMCOT_clean_sbu_1, # of connection points: 5
#     Node 1, Type 0, BuildingBlock: XOMCOT_clean_sbu_1, # of connection points: 5
#     Node 2, Type 0, BuildingBlock: XOMCOT_clean_sbu_1, # of connection points: 5
#     Node 3, Type 0, BuildingBlock: XOMCOT_clean_sbu_1, # of connection points: 5
#     Node 4, Type 0, BuildingBlock: XOMCOT_clean_sbu_1, # of connection points: 5
#     Node 5, Type 0, BuildingBlock: XOMCOT_clean_sbu_1, # of connection points: 5
#     Node 6, Type 0, BuildingBlock: XOMCOT_clean_sbu_1, # of connection points: 5
#     Node 7, Type 0, BuildingBlock: XOMCOT_clean_sbu_1, # of connection points: 5
#     Node 8, Type 0, BuildingBlock: XOMCOT_clean_sbu_1, # of connection points: 5
#     Node 9, Type 0, BuildingBlock: XOMCOT_clean_sbu_1, # of connection points: 5
#     Node 10, Type 0, BuildingBlock: XOMCOT_clean_sbu_1, # of connection points: 5
#     Node 11, Type 0, BuildingBlock: XOMCOT_clean_sbu_1, # of connection points: 5
#     Node 12, Type 0, BuildingBlock: XOMCOT_clean_sbu_1, # of connection points: 5
#     Node 13, Type 0, BuildingBlock: XOMCOT_clean_sbu_1, # of connection points: 5
#     Node 14, Type 0, BuildingBlock: XOMCOT_clean_sbu_1, # of connection points: 5
#     Node 15, Type 0, BuildingBlock: XOMCOT_clean_sbu_1, # of connection points: 5
#     Node 16, Type 0, BuildingBlock: XOMCOT_clean_sbu_1, # of connection points: 5
#     Node 17, Type 0, BuildingBlock: XOMCOT_clean_sbu_1, # of connection points: 5
#     Node 18, Type 0, BuildingBlock: XOMCOT_clean_sbu_1, # of connection points: 5
#     Node 19, Type 0, BuildingBlock: XOMCOT_clean_sbu_1, # of connection points: 5
#     Node 20, Type 0, BuildingBlock: XOMCOT_clean_sbu_1, # of connection points: 5
#     Node 21, Type 0, BuildingBlock: XOMCOT_clean_sbu_1, # of connection points: 5
#     Node 22, Type 0, BuildingBlock: XOMCOT_clean_sbu_1, # of connection points: 5
#     Node 23, Type 0, BuildingBlock: XOMCOT_clean_sbu_1, # of connection points: 5
#     Node 24, Type 0, BuildingBlock: XOMCOT_clean_sbu_1, # of connection points: 5
#     Node 25, Type 0, BuildingBlock: XOMCOT_clean_sbu_1, # of connection points: 5
#     Node 26, Type 0, BuildingBlock: XOMCOT_clean_sbu_1, # of connection points: 5
#     Node 27, Type 0, BuildingBlock: XOMCOT_clean_sbu_1, # of connection points: 5
#     Node 28, Type 0, BuildingBlock: XOMCOT_clean_sbu_1, # of connection points: 5
#     Node 29, Type 0, BuildingBlock: XOMCOT_clean_sbu_1, # of connection points: 5
#     Node 30, Type 0, BuildingBlock: XOMCOT_clean_sbu_1, # of connection points: 5
#     Node 31, Type 0, BuildingBlock: XOMCOT_clean_sbu_1, # of connection points: 5
#     Edge 32, Type (0, 0), BuildingBlock: UVAHIK_clean_linker_0, # of connection points: 2
#     Edge 33, Type (0, 0), BuildingBlock: UVAHIK_clean_linker_0, # of connection points: 2
#     Edge 34, Type (0, 0), BuildingBlock: UVAHIK_clean_linker_0, # of connection points: 2
#     Edge 35, Type (0, 0), BuildingBlock: UVAHIK_clean_linker_0, # of connection points: 2
#     Edge 36, Type (0, 0), BuildingBlock: UVAHIK_clean_linker_0, # of connection points: 2
#     Edge 37, Type (0, 0), BuildingBlock: UVAHIK_clean_linker_0, # of connection points: 2
#     Edge 38, Type (0, 0), BuildingBlock: UVAHIK_clean_linker_0, # of connection points: 2
#     Edge 39, Type (0, 0), BuildingBlock: UVAHIK_clean_linker_0, # of connection points: 2
#     Edge 40, Type (0, 0), BuildingBlock: UVAHIK_clean_linker_0, # of connection points: 2
#     Edge 41, Type (0, 0), BuildingBlock: UVAHIK_clean_linker_0, # of connection points: 2
#     Edge 42, Type (0, 0), BuildingBlock: UVAHIK_clean_linker_0, # of connection points: 2
#     Edge 43, Type (0, 0), BuildingBlock: UVAHIK_clean_linker_0, # of connection points: 2
#     Edge 44, Type (0, 0), BuildingBlock: UVAHIK_clean_linker_0, # of connection points: 2
#     Edge 45, Type (0, 0), BuildingBlock: UVAHIK_clean_linker_0, # of connection points: 2
#     Edge 46, Type (0, 0), BuildingBlock: UVAHIK_clean_linker_0, # of connection points: 2
#     Edge 47, Type (0, 0), BuildingBlock: UVAHIK_clean_linker_0, # of connection points: 2
#     Edge 48, Type (0, 0), BuildingBlock: UVAHIK_clean_linker_0, # of connection points: 2
#     Edge 49, Type (0, 0), BuildingBlock: UVAHIK_clean_linker_0, # of connection points: 2
#     Edge 50, Type (0, 0), BuildingBlock: UVAHIK_clean_linker_0, # of connection points: 2
#     Edge 51, Type (0, 0), BuildingBlock: UVAHIK_clean_linker_0, # of connection points: 2
#     Edge 52, Type (0, 0), BuildingBlock: UVAHIK_clean_linker_0, # of connection points: 2
#     Edge 53, Type (0, 0), BuildingBlock: UVAHIK_clean_linker_0, # of connection points: 2
#     Edge 54, Type (0, 0), BuildingBlock: UVAHIK_clean_linker_0, # of connection points: 2
#     Edge 55, Type (0, 0), BuildingBlock: UVAHIK_clean_linker_0, # of connection points: 2
#     Edge 56, Type (0, 0), BuildingBlock: UVAHIK_clean_linker_0, # of connection points: 2
#     Edge 57, Type (0, 0), BuildingBlock: UVAHIK_clean_linker_0, # of connection points: 2
#     Edge 58, Type (0, 0), BuildingBlock: UVAHIK_clean_linker_0, # of connection points: 2
#     Edge 59, Type (0, 0), BuildingBlock: UVAHIK_clean_linker_0, # of connection points: 2
#     Edge 60, Type (0, 0), BuildingBlock: UVAHIK_clean_linker_0, # of connection points: 2
#     Edge 61, Type (0, 0), BuildingBlock: UVAHIK_clean_linker_0, # of connection points: 2
#     Edge 62, Type (0, 0), BuildingBlock: UVAHIK_clean_linker_0, # of connection points: 2
#     Edge 63, Type (0, 0), BuildingBlock: UVAHIK_clean_linker_0, # of connection points: 2
#     Edge 64, Type (0, 0), BuildingBlock: UVAHIK_clean_linker_0, # of connection points: 2
#     Edge 65, Type (0, 0), BuildingBlock: UVAHIK_clean_linker_0, # of connection points: 2
#     Edge 66, Type (0, 0), BuildingBlock: UVAHIK_clean_linker_0, # of connection points: 2
#     Edge 67, Type (0, 0), BuildingBlock: UVAHIK_clean_linker_0, # of connection points: 2
#     Edge 68, Type (0, 0), BuildingBlock: UVAHIK_clean_linker_0, # of connection points: 2
#     Edge 69, Type (0, 0), BuildingBlock: UVAHIK_clean_linker_0, # of connection points: 2
#     Edge 70, Type (0, 0), BuildingBlock: UVAHIK_clean_linker_0, # of connection points: 2
#     Edge 71, Type (0, 0), BuildingBlock: UVAHIK_clean_linker_0, # of connection points: 2
#     Edge 72, Type (0, 0), BuildingBlock: UVAHIK_clean_linker_0, # of connection points: 2
#     Edge 73, Type (0, 0), BuildingBlock: UVAHIK_clean_linker_0, # of connection points: 2
#     Edge 74, Type (0, 0), BuildingBlock: UVAHIK_clean_linker_0, # of connection points: 2
#     Edge 75, Type (0, 0), BuildingBlock: UVAHIK_clean_linker_0, # of connection points: 2
#     Edge 76, Type (0, 0), BuildingBlock: UVAHIK_clean_linker_0, # of connection points: 2
#     Edge 77, Type (0, 0), BuildingBlock: UVAHIK_clean_linker_0, # of connection points: 2
#     Edge 78, Type (0, 0), BuildingBlock: UVAHIK_clean_linker_0, # of connection points: 2
#     Edge 79, Type (0, 0), BuildingBlock: UVAHIK_clean_linker_0, # of connection points: 2
#     Edge 80, Type (0, 0), BuildingBlock: UVAHIK_clean_linker_0, # of connection points: 2
#     Edge 81, Type (0, 0), BuildingBlock: UVAHIK_clean_linker_0, # of connection points: 2
#     Edge 82, Type (0, 0), BuildingBlock: UVAHIK_clean_linker_0, # of connection points: 2
#     Edge 83, Type (0, 0), BuildingBlock: UVAHIK_clean_linker_0, # of connection points: 2
#     Edge 84, Type (0, 0), BuildingBlock: UVAHIK_clean_linker_0, # of connection points: 2
#     Edge 85, Type (0, 0), BuildingBlock: UVAHIK_clean_linker_0, # of connection points: 2
#     Edge 86, Type (0, 0), BuildingBlock: UVAHIK_clean_linker_0, # of connection points: 2
#     Edge 87, Type (0, 0), BuildingBlock: UVAHIK_clean_linker_0, # of connection points: 2
#     Edge 88, Type (0, 0), BuildingBlock: UVAHIK_clean_linker_0, # of connection points: 2
#     Edge 89, Type (0, 0), BuildingBlock: UVAHIK_clean_linker_0, # of connection points: 2
#     Edge 90, Type (0, 0), BuildingBlock: UVAHIK_clean_linker_0, # of connection points: 2
#     Edge 91, Type (0, 0), BuildingBlock: UVAHIK_clean_linker_0, # of connection points: 2
#     Edge 92, Type (0, 0), BuildingBlock: UVAHIK_clean_linker_0, # of connection points: 2
#     Edge 93, Type (0, 0), BuildingBlock: UVAHIK_clean_linker_0, # of connection points: 2
#     Edge 94, Type (0, 0), BuildingBlock: UVAHIK_clean_linker_0, # of connection points: 2
#     Edge 95, Type (0, 0), BuildingBlock: UVAHIK_clean_linker_0, # of connection points: 2
#     Edge 96, Type (0, 0), BuildingBlock: UVAHIK_clean_linker_0, # of connection points: 2
#     Edge 97, Type (0, 0), BuildingBlock: UVAHIK_clean_linker_0, # of connection points: 2
#     Edge 98, Type (0, 0), BuildingBlock: UVAHIK_clean_linker_0, # of connection points: 2
#     Edge 99, Type (0, 0), BuildingBlock: UVAHIK_clean_linker_0, # of connection points: 2
#     Edge 100, Type (0, 0), BuildingBlock: UVAHIK_clean_linker_0, # of connection points: 2
#     Edge 101, Type (0, 0), BuildingBlock: UVAHIK_clean_linker_0, # of connection points: 2
#     Edge 102, Type (0, 0), BuildingBlock: UVAHIK_clean_linker_0, # of connection points: 2
#     Edge 103, Type (0, 0), BuildingBlock: UVAHIK_clean_linker_0, # of connection points: 2
#     Edge 104, Type (0, 0), BuildingBlock: UVAHIK_clean_linker_0, # of connection points: 2
#     Edge 105, Type (0, 0), BuildingBlock: UVAHIK_clean_linker_0, # of connection points: 2
#     Edge 106, Type (0, 0), BuildingBlock: UVAHIK_clean_linker_0, # of connection points: 2
#     Edge 107, Type (0, 0), BuildingBlock: UVAHIK_clean_linker_0, # of connection points: 2
#     Edge 108, Type (0, 0), BuildingBlock: UVAHIK_clean_linker_0, # of connection points: 2
#     Edge 109, Type (0, 0), BuildingBlock: UVAHIK_clean_linker_0, # of connection points: 2
#     Edge 110, Type (0, 0), BuildingBlock: UVAHIK_clean_linker_0, # of connection points: 2
#     Edge 111, Type (0, 0), BuildingBlock: UVAHIK_clean_linker_0, # of connection points: 2
# Relax obj value: 0.159
# Max RMSD: 0.159
# Mean RMSD: 0.159
data_MOF--net-wgp--node1-XOMCOT_clean_sbu_1--edge1-UVAHIK_clean_linker_0
_symmetry_space_group_name_H-M    P1
_symmetry_Int_Tables_number       1
_symmetry_cell_setting            triclinic
loop_
_symmetry_equiv_pos_as_xyz
'x, y, z'
_cell_length_a     44.178669
_cell_length_b     44.149946
_cell_length_c     133.28156
_cell_angle_alpha  89.997267
_cell_angle_beta   90.017999
_cell_angle_gamma 90.04856
loop_
_atom_site_label
_atom_site_type_symbol
_atom_site_fract_x
_atom_site_fract_y
_atom_site_fract_z
_atom_type_partial_charge
C0 C 0.26412 0.22194 0.08344 0.0
C1 C 0.26848 0.25267 0.08408 0.0
N2 N 0.24987 0.2664 0.07746 0.0
N3 N 0.2429 0.21609 0.07645 0.0
C4 C 0.23452 0.24358 0.07295 0.0
H5 H 0.27542 0.2049 0.0879 0.0
Co6 Co 0.22868 0.17745 0.07331 0.0
C7 C 0.21601 0.17757 0.05152 0.0
O8 O 0.22441 0.14906 0.05127 0.0
N9 N 0.21349 0.13803 0.07048 0.0
C10 C 0.18013 0.10173 0.06673 0.0
C11 C 0.18445 0.13239 0.06784 0.0
C12 C 0.22616 0.11011 0.07103 0.0
N13 N 0.20643 0.08773 0.06878 0.0
O14 O 0.19044 0.18725 0.07937 0.0
H15 H 0.16735 0.1496 0.06675 0.0
H16 H 0.24939 0.10578 0.07295 0.0
O17 O 0.21592 0.19195 0.05988 0.0
C18 C 0.19421 0.18206 0.08871 0.0
O19 O 0.22101 0.17285 0.09172 0.0
N20 N 0.26757 0.16788 0.06864 0.0
C21 C 0.33044 0.16282 0.06673 0.0
C22 C 0.3135 0.18013 0.05989 0.0
C23 C 0.28216 0.18257 0.06102 0.0
C24 C 0.28371 0.15127 0.07538 0.0
C25 C 0.31478 0.14733 0.07433 0.0
H26 H 0.27039 0.19853 0.05632 0.0
H27 H 0.27258 0.1423 0.08196 0.0
H28 H 0.21746 0.24671 0.06723 0.0
H29 H 0.28369 0.26394 0.08923 0.0
H30 H 0.15908 0.0906 0.0648 0.0
H31 H 0.32444 0.19363 0.05416 0.0
H32 H 0.32651 0.13354 0.0798 0.0
C33 C 0.02487 0.96947 0.33883 0.0
C34 C 0.99426 0.96412 0.33914 0.0
N35 N 0.98194 0.97328 0.33039 0.0
N36 N 0.0322 0.98178 0.32991 0.0
C37 C 0.00554 0.98385 0.32491 0.0
H38 H 0.04055 0.96578 0.34493 0.0
Co39 Co 0.07087 0.99643 0.3267 0.0
C40 C 0.07526 0.96202 0.30691 0.0
O41 O 0.09555 0.94175 0.30951 0.0
N42 N 0.11024 0.01147 0.32374 0.0
C43 C 0.14962 0.04302 0.32336 0.0
C44 C 0.11916 0.04045 0.32516 0.0
C45 C 0.1362 0.99666 0.32134 0.0
N46 N 0.16043 0.01546 0.32103 0.0
O47 O 0.0882 0.9592 0.33149 0.0
H48 H 0.10476 0.05854 0.32781 0.0
H49 H 0.13761 0.97242 0.32026 0.0
O50 O 0.06617 0.98149 0.31326 0.0
C51 C 0.10182 0.96296 0.33983 0.0
O52 O 0.10315 0.99033 0.34369 0.0
N53 N 0.05383 0.03327 0.32259 0.0
C54 C 0.03209 0.09075 0.31804 0.0
C55 C 0.04742 0.07373 0.31079 0.0
C56 C 0.05821 0.04503 0.31321 0.0
C57 C 0.0386 0.04934 0.3297 0.0
C58 C 0.02723 0.07809 0.32755 0.0
H59 H 0.07149 0.03304 0.3077 0.0
H60 H 0.03595 0.04007 0.33717 0.0
H61 H 0.00345 0.99384 0.31753 0.0
H62 H 0.98189 0.95559 0.34555 0.0
H63 H 0.16316 0.06328 0.3243 0.0
H64 H 0.05174 0.08284 0.30337 0.0
H65 H 0.01596 0.09081 0.33341 0.0
C66 C 0.21014 0.777 0.5915 0.0
C67 C 0.20777 0.74607 0.59205 0.0
N68 N 0.22474 0.73393 0.58469 0.0
N69 N 0.22868 0.78457 0.58387 0.0
C70 C 0.23714 0.75778 0.57978 0.0
H71 H 0.19888 0.7931 0.59634 0.0
Co72 Co 0.23768 0.82496 0.58094 0.0
C73 C 0.25287 0.82757 0.55934 0.0
O74 O 0.23896 0.85383 0.55898 0.0
N75 N 0.24721 0.86634 0.57849 0.0
C76 C 0.27518 0.90678 0.57456 0.0
C77 C 0.27465 0.87573 0.57521 0.0
C78 C 0.23192 0.89252 0.5802 0.0
N79 N 0.24833 0.91729 0.57774 0.0
O80 O 0.27656 0.82054 0.58722 0.0
H81 H 0.29323 0.86081 0.57335 0.0
H82 H 0.20936 0.89384 0.58325 0.0
O83 O 0.25445 0.81308 0.56767 0.0
C84 C 0.27478 0.82272 0.59674 0.0
O85 O 0.24807 0.82692 0.60083 0.0
N86 N 0.19831 0.82874 0.5756 0.0
C87 C 0.13636 0.82323 0.57163 0.0
C88 C 0.1578 0.80953 0.56538 0.0
C89 C 0.18848 0.81196 0.56761 0.0
C90 C 0.17775 0.8422 0.58178 0.0
C91 C 0.14671 0.84026 0.57984 0.0
H92 H 0.2037 0.79785 0.56341 0.0
H93 H 0.18526 0.85251 0.5887 0.0
H94 H 0.25227 0.75574 0.57344 0.0
H95 H 0.19413 0.73346 0.59735 0.0
H96 H 0.2941 0.92064 0.57219 0.0
H97 H 0.15094 0.79484 0.55928 0.0
H98 H 0.13095 0.85067 0.58502 0.0
C99 C 0.49508 0.00691 0.8374 0.0
C100 C 0.52576 0.00229 0.83805 0.0
N101 N 0.53878 0.01298 0.82963 0.0
N102 N 0.48837 0.02034 0.82859 0.0
C103 C 0.51563 0.02395 0.82403 0.0
H104 H 0.4787 1.00076 0.84307 0.0
Co105 Co 0.44857 0.0301 0.82445 0.0
C106 C 0.47143 0.06165 0.80545 0.0
O107 O 0.47008 0.08989 0.80851 0.0
N108 N 0.40881 0.0398 0.82045 0.0
C109 C 0.36922 0.06556 0.81471 0.0
C110 C 0.40003 0.06588 0.81608 0.0
C111 C 0.38272 0.02405 0.82174 0.0
N112 N 0.35813 0.03916 0.81824 0.0
O113 O 0.45388 0.0705 0.82946 0.0
H114 H 0.41489 0.0845 0.81427 0.0
H115 H 0.3818 0.00199 0.82523 0.0
O116 O 0.46354 0.04011 0.81124 0.0
C117 C 0.44682 0.06946 0.83873 0.0
O118 O 0.43755 0.04352 0.84247 0.0
N119 N 0.44273 0.99 0.82051 0.0
C120 C 0.4433 0.92764 0.81782 0.0
C121 C 0.44605 0.94712 0.80955 0.0
C122 C 0.44538 0.97842 0.81105 0.0
C123 C 0.43697 0.97144 0.82843 0.0
C124 C 0.43721 0.94015 0.82727 0.0
H125 H 0.44796 0.99298 0.80462 0.0
H126 H 0.43338 0.98106 0.83579 0.0
H127 H 0.51857 0.03402 0.81671 0.0
H128 H 0.53762 0.99225 0.84433 0.0
H129 H 0.35602 0.08395 0.81162 0.0
H130 H 0.45033 0.93839 0.80209 0.0
H131 H 0.43385 0.9259 0.83379 0.0
C132 C 0.30032 0.78078 0.43127 0.0
C133 C 0.30414 0.74997 0.431 0.0
N134 N 0.28049 0.73685 0.43568 0.0
N135 N 0.27444 0.78741 0.43615 0.0
C136 C 0.26266 0.76012 0.43869 0.0
H137 H 0.31524 0.79731 0.4279 0.0
Co138 Co 0.26004 0.82707 0.43796 0.0
C139 C 0.23216 0.82871 0.45828 0.0
O140 O 0.23815 0.85778 0.45883 0.0
N141 N 0.24526 0.86742 0.43936 0.0
C142 C 0.21202 0.90541 0.4399 0.0
C143 C 0.2155 0.87457 0.43928 0.0
C144 C 0.25936 0.89473 0.43997 0.0
N145 N 0.23965 0.9182 0.44033 0.0
O146 O 0.22565 0.81787 0.42966 0.0
H147 H 0.19722 0.85832 0.43886 0.0
H148 H 0.28355 0.89766 0.44023 0.0
O149 O 0.23878 0.81397 0.45029 0.0
C150 C 0.23327 0.81752 0.42044 0.0
O151 O 0.2619 0.82154 0.41813 0.0
N152 N 0.29564 0.83578 0.44515 0.0
C153 C 0.35678 0.82939 0.44989 0.0
C154 C 0.33441 0.81782 0.45628 0.0
C155 C 0.30396 0.82098 0.45373 0.0
C156 C 0.31704 0.84951 0.43935 0.0
C157 C 0.34771 0.84714 0.44169 0.0
H158 H 0.28793 0.80807 0.458 0.0
H159 H 0.31059 0.85939 0.43224 0.0
H160 H 0.24143 0.7574 0.44264 0.0
H161 H 0.32253 0.73816 0.42734 0.0
H162 H 0.1907 0.91744 0.43982 0.0
H163 H 0.34026 0.8034 0.46256 0.0
H164 H 0.36421 0.85661 0.43657 0.0
C165 C 0.49886 0.03024 0.674 0.0
C166 C 0.52987 0.03196 0.67394 0.0
N167 N 0.5409 0.00955 0.67973 0.0
N168 N 0.4901 0.00705 0.67991 0.0
C169 C 0.51627 0.99461 0.68323 0.0
H170 H 0.48363 0.04476 0.66987 0.0
Co171 Co 0.44958 0.99595 0.68198 0.0
C172 C 0.44287 0.98478 0.70366 0.0
O173 O 0.41563 0.99644 0.7029 0.0
N174 N 0.40849 0.98374 0.68369 0.0
C175 C 0.37078 0.95127 0.68658 0.0
C176 C 0.40153 0.95514 0.68652 0.0
C177 C 0.38107 0.99679 0.68203 0.0
N178 N 0.35781 0.97743 0.68373 0.0
O179 O 0.45754 0.95677 0.67635 0.0
H180 H 0.41791 0.93799 0.68852 0.0
H181 H 0.37786 0.01969 0.67944 0.0
O182 O 0.45949 0.98225 0.6958 0.0
C183 C 0.45832 0.9579 0.66679 0.0
O184 O 0.458 0.98463 0.66245 0.0
N185 N 0.44202 0.03566 0.68652 0.0
C186 C 0.44645 0.0986 0.68819 0.0
C187 C 0.45966 0.07962 0.69539 0.0
C188 C 0.45763 0.04831 0.69433 0.0
C189 C 0.42792 0.0538 0.67969 0.0
C190 C 0.42933 0.08531 0.68049 0.0
H191 H 0.4717 0.03476 0.69916 0.0
H192 H 0.41823 0.04393 0.673 0.0
H193 H 0.51722 0.975 0.6881 0.0
H194 H 0.5433 0.04797 0.66968 0.0
H195 H 0.35889 0.9308 0.68869 0.0
H196 H 0.47411 0.08865 0.70123 0.0
H197 H 0.41899 0.09904 0.67469 0.0
C198 C 0.23108 0.23501 0.92017 0.0
C199 C 0.22618 0.26567 0.91988 0.0
N200 N 0.24474 0.27912 0.92658 0.0
N201 N 0.25263 0.22884 0.92702 0.0
C202 C 0.26064 0.25614 0.93079 0.0
H203 H 0.22009 0.21828 0.9155 0.0
Co204 Co 0.26775 0.19 0.92951 0.0
C205 C 0.27728 0.1861 0.95146 0.0
O206 O 0.26979 0.15735 0.951 0.0
N207 N 0.28375 0.15047 0.93171 0.0
C208 C 0.31715 0.11431 0.93557 0.0
C209 C 0.31243 0.14503 0.9348 0.0
C210 C 0.27181 0.12239 0.93049 0.0
N211 N 0.29152 0.10012 0.93282 0.0
O212 O 0.3067 0.2023 0.92452 0.0
H213 H 0.3289 0.16239 0.93654 0.0
H214 H 0.24901 0.11778 0.92811 0.0
O215 O 0.27792 0.20209 0.94343 0.0
C216 C 0.30592 0.20356 0.91496 0.0
O217 O 0.2802 0.19798 0.91037 0.0
N218 N 0.22852 0.17816 0.93327 0.0
C219 C 0.16595 0.16903 0.93451 0.0
C220 C 0.18138 0.186 0.94183 0.0
C221 C 0.21257 0.19049 0.94103 0.0
C222 C 0.21382 0.16228 0.92599 0.0
C223 C 0.18294 0.15632 0.92668 0.0
H224 H 0.22308 0.20605 0.94619 0.0
H225 H 0.22599 0.15523 0.91935 0.0
H226 H 0.27792 0.25903 0.93646 0.0
H227 H 0.21073 0.27712 0.91486 0.0
H228 H 0.33792 0.10329 0.93784 0.0
H229 H 0.16935 0.19762 0.94776 0.0
H230 H 0.17243 0.14301 0.92082 0.0
C231 C 0.02436 0.97398 0.17543 0.0
C232 C 0.99358 0.97029 0.17577 0.0
N233 N 0.9823 0.98872 0.18291 0.0
N234 N 0.03284 0.99459 0.18233 0.0
C235 C 0.00667 0.00341 0.18675 0.0
H236 H 0.03968 0.9625 0.17038 0.0
Co237 Co 0.07334 0.00576 0.1839 0.0
C238 C 0.08036 0.03144 0.20459 0.0
O239 O 0.10936 0.02512 0.2043 0.0
N240 N 0.11469 0.01707 0.18488 0.0
C241 C 0.1555 0.04672 0.18561 0.0
C242 C 0.12449 0.04612 0.18509 0.0
C243 C 0.14054 1.00046 0.18502 0.0
N244 N 0.1656 0.01801 0.18557 0.0
O245 O 0.06558 0.04211 0.17638 0.0
H246 H 0.10996 0.06581 0.18508 0.0
H247 H 0.14122 0.97602 0.18486 0.0
O248 O 0.06366 0.02582 0.19692 0.0
C249 C 0.07054 0.03606 0.16717 0.0
O250 O 0.07882 0.00832 0.16487 0.0
N251 N 0.0802 0.96828 0.19026 0.0
C252 C 0.0705 0.90753 0.19494 0.0
C253 C 0.06438 0.93021 0.20198 0.0
C254 C 0.06887 0.96044 0.19944 0.0
C255 C 0.08899 0.94629 0.18369 0.0
C256 C 0.08447 0.91566 0.18589 0.0
H257 H 0.06008 0.97693 0.20452 0.0
H258 H 0.09671 0.95264 0.17628 0.0
H259 H 0.00552 0.02012 0.19267 0.0
H260 H 0.98048 0.95562 0.17092 0.0
H261 H 0.16958 0.06679 0.18589 0.0
H262 H 0.05367 0.92482 0.20907 0.0
H263 H 0.0892 0.89885 0.18019 0.0
C264 C 0.71673 0.77904 0.9286 0.0
C265 C 0.71378 0.74809 0.92816 0.0
N266 N 0.73707 0.73545 0.93318 0.0
N267 N 0.74166 0.78618 0.93394 0.0
C268 C 0.75374 0.75912 0.93657 0.0
H269 H 0.70187 0.79533 0.92508 0.0
Co270 Co 0.75553 0.82583 0.93628 0.0
C271 C 0.77649 0.82652 0.95746 0.0
O272 O 0.77016 0.85552 0.95798 0.0
N273 N 0.77023 0.86617 0.93833 0.0
C274 C 0.80384 0.90349 0.94032 0.0
C275 C 0.79997 0.87275 0.9394 0.0
C276 C 0.75659 0.89377 0.93857 0.0
N277 N 0.77652 0.91683 0.9398 0.0
O278 O 0.79196 0.81675 0.92911 0.0
H279 H 0.81795 0.85616 0.93958 0.0
H280 H 0.73255 0.89726 0.93798 0.0
O281 O 0.77276 0.81228 0.94918 0.0
C282 C 0.78621 0.81877 0.91975 0.0
O283 O 0.75811 0.82392 0.917 0.0
N284 N 0.71815 0.83469 0.94225 0.0
C285 C 0.65596 0.83547 0.94589 0.0
C286 C 0.67574 0.82071 0.95251 0.0
C287 C 0.70674 0.82029 0.9505 0.0
C288 C 0.69932 0.85001 0.93595 0.0
C289 C 0.66834 0.85145 0.93778 0.0
H290 H 0.72068 0.80572 0.95501 0.0
H291 H 0.70814 0.85929 0.92903 0.0
H292 H 0.77439 0.75686 0.94087 0.0
H293 H 0.69624 0.73588 0.92418 0.0
H294 H 0.8253 0.91508 0.94112 0.0
H295 H 0.66721 0.8072 0.95868 0.0
H296 H 0.65401 0.86321 0.93246 0.0
C297 C 0.98833 0.01936 0.69223 0.0
C298 C 0.01863 0.02649 0.69285 0.0
N299 N 0.03423 0.00713 0.68698 0.0
N300 N 0.98475 0.99553 0.68602 0.0
C301 C 0.01305 0.98876 0.68288 0.0
H302 H 0.97009 0.03071 0.69612 0.0
Co303 Co 0.94849 0.97617 0.68259 0.0
C304 C 0.91708 0.96522 0.70183 0.0
O305 O 0.90733 0.93935 0.69818 0.0
N306 N 0.91119 0.95744 0.67891 0.0
C307 C 0.87399 0.92778 0.67327 0.0
C308 C 0.90484 0.93117 0.67412 0.0
C309 C 0.88354 0.96985 0.6806 0.0
N310 N 0.86055 0.9521 0.67739 0.0
O311 O 0.93222 0.01375 0.67801 0.0
H312 H 0.92108 0.91511 0.67132 0.0
H313 H 0.88036 0.99119 0.68446 0.0
O314 O 0.93336 0.98268 0.69635 0.0
C315 C 0.94211 0.01904 0.6692 0.0
O316 O 0.96259 1.00069 0.66544 0.0
N317 N 0.96634 0.93909 0.68616 0.0
C318 C 0.99999 0.88617 0.6888 0.0
C319 C 0.99262 0.90456 0.69703 0.0
C320 C 0.9763 0.93129 0.69552 0.0
C321 C 0.97513 0.92258 0.67805 0.0
C322 C 0.99114 0.89567 0.67919 0.0
H323 H 0.97306 0.9462 0.70184 0.0
H324 H 0.97008 0.93072 0.67058 0.0
H325 H 0.01796 0.97071 0.67765 0.0
H326 H 0.0284 0.04413 0.69747 0.0
H327 H 0.86241 0.90892 0.66978 0.0
H328 H 1.00024 0.89893 0.70452 0.0
H329 H 0.99654 0.88255 0.67257 0.0
C330 C 0.73542 0.22774 0.41674 0.0
C331 C 0.72904 0.25792 0.41527 0.0
N332 N 0.72357 0.27064 0.42427 0.0
N333 N 0.73391 0.22136 0.42661 0.0
C334 C 0.72619 0.2479 0.43101 0.0
H335 H 0.74195 0.21171 0.411 0.0
Co336 Co 0.74317 0.18344 0.43216 0.0
C337 C 0.75689 0.20965 0.45288 0.0
O338 O 0.78596 0.21234 0.45119 0.0
N339 N 0.75159 0.14471 0.43779 0.0
C340 C 0.771 0.10804 0.4473 0.0
C341 C 0.76986 0.13871 0.44568 0.0
C342 C 0.74201 0.117 0.43475 0.0
N343 N 0.75344 0.09428 0.44042 0.0
O344 O 0.70083 0.17409 0.43186 0.0
H345 H 0.78273 0.15528 0.4498 0.0
H346 H 0.72707 0.11338 0.42846 0.0
O347 O 0.73913 0.1992 0.44609 0.0
C348 C 0.69539 0.16321 0.42318 0.0
O349 O 0.7181 0.15889 0.41698 0.0
N350 N 0.78536 0.19216 0.431 0.0
C351 C 0.84672 0.20223 0.42715 0.0
C352 C 0.82797 0.22604 0.43018 0.0
C353 C 0.79731 0.22067 0.43187 0.0
C354 C 0.803 0.16941 0.42722 0.0
C355 C 0.83385 0.17371 0.42552 0.0
H356 H 0.78361 0.23946 0.43431 0.0
H357 H 0.79324 0.14771 0.42534 0.0
H358 H 0.72385 0.2509 0.43902 0.0
H359 H 0.73007 0.26993 0.4082 0.0
H360 H 0.78465 0.09678 0.45291 0.0
H361 H 0.83698 0.24854 0.43144 0.0
H362 H 0.84739 0.15502 0.42277 0.0
C363 C 0.5289 0.98409 0.17037 0.0
C364 C 0.49855 0.97828 0.16911 0.0
N365 N 0.48517 0.97886 0.17818 0.0
N366 N 0.53486 0.988 0.18022 0.0
C367 C 0.50767 0.9847 0.18478 0.0
H368 H 0.54529 0.98639 0.16442 0.0
Co369 Co 0.57243 0.99916 0.18557 0.0
C370 C 0.57535 0.96707 0.20486 0.0
O371 O 0.60139 0.95505 0.20225 0.0
N372 N 0.61048 0.01099 0.191 0.0
C373 C 0.64461 0.03173 0.20126 0.0
C374 C 0.61427 0.02732 0.19949 0.0
C375 C 0.63913 0.00572 0.18778 0.0
N376 N 0.66028 0.01806 0.19388 0.0
O377 O 0.58842 0.96063 0.18149 0.0
H378 H 0.59611 0.03518 0.20426 0.0
H379 H 0.64471 0.99324 0.18108 0.0
O380 O 0.56092 0.98339 0.19859 0.0
C381 C 0.6003 0.96197 0.17279 0.0
O382 O 0.60222 0.98843 0.1683 0.0
N383 N 0.55654 0.03727 0.18867 0.0
C384 C 0.53122 0.09485 0.19029 0.0
C385 C 0.52433 0.07226 0.19732 0.0
C386 C 0.53718 0.0436 0.19638 0.0
C387 C 0.56399 0.05902 0.18187 0.0
C388 C 0.55167 0.08806 0.18255 0.0
H389 H 0.53077 0.02654 0.20173 0.0
H390 H 0.57917 0.05353 0.17577 0.0
H391 H 0.50424 0.9871 0.19278 0.0
H392 H 0.48698 0.97535 0.16202 0.0
H393 H 0.65438 0.04344 0.20762 0.0
H394 H 0.5083 0.07632 0.20332 0.0
H395 H 0.55793 0.10491 0.17702 0.0
C396 C 0.76953 0.23262 0.58776 0.0
C397 C 0.77738 0.26244 0.58652 0.0
N398 N 0.76405 0.27285 0.57812 0.0
N399 N 0.75142 0.22369 0.58016 0.0
C400 C 0.74861 0.24885 0.57436 0.0
H401 H 0.77563 0.21901 0.59417 0.0
Co402 Co 0.73134 0.1858 0.57961 0.0
C403 C 0.73449 0.16392 0.55841 0.0
O404 O 0.71059 0.14695 0.56001 0.0
N405 N 0.71121 0.1475 0.57956 0.0
C406 C 0.67741 0.11031 0.58113 0.0
C407 C 0.68179 0.14116 0.58138 0.0
C408 C 0.72423 0.11986 0.57842 0.0
N409 N 0.70414 0.09683 0.57923 0.0
O410 O 0.76681 0.16618 0.58496 0.0
H411 H 0.6644 0.15763 0.58294 0.0
H412 H 0.748 0.1168 0.57676 0.0
O413 O 0.74512 0.18041 0.56553 0.0
C414 C 0.76111 0.16126 0.59422 0.0
O415 O 0.73477 0.17015 0.59774 0.0
N416 N 0.69591 0.20577 0.57562 0.0
C417 C 0.64209 0.2378 0.57351 0.0
C418 C 0.65881 0.22932 0.56504 0.0
C419 C 0.68583 0.21334 0.56625 0.0
C420 C 0.68054 0.21512 0.58392 0.0
C421 C 0.65339 0.23082 0.58304 0.0
H422 H 0.69868 0.20823 0.55963 0.0
H423 H 0.68935 0.20984 0.59128 0.0
H424 H 0.73482 0.24992 0.56768 0.0
H425 H 0.79039 0.2759 0.59177 0.0
H426 H 0.65617 0.09877 0.58245 0.0
H427 H 0.65094 0.23473 0.55756 0.0
H428 H 0.64141 0.23755 0.58977 0.0
C429 C 0.52489 0.99462 0.34042 0.0
C430 C 0.49419 0.98959 0.34108 0.0
N431 N 0.48192 0.99375 0.33192 0.0
N432 N 0.53217 1.0017 0.33089 0.0
C433 C 0.50544 1.00106 0.32588 0.0
H434 H 0.54094 0.99346 0.34654 0.0
Co435 Co 0.57161 0.01096 0.32658 0.0
C436 C 0.54734 0.04551 0.30828 0.0
O437 O 0.54795 0.07341 0.31169 0.0
N438 N 0.61111 0.02051 0.32235 0.0
C439 C 0.65035 0.04633 0.3164 0.0
C440 C 0.61961 0.04652 0.31787 0.0
C441 C 0.63725 0.0049 0.32361 0.0
N442 N 0.66162 0.0201 0.31999 0.0
O443 O 0.56738 0.05039 0.33238 0.0
H444 H 0.60463 0.06505 0.31609 0.0
H445 H 0.63829 0.98293 0.32719 0.0
O446 O 0.55598 0.02362 0.31378 0.0
C447 C 0.58158 0.05135 0.34069 0.0
O448 O 0.59724 0.02758 0.34354 0.0
N449 N 0.57596 0.97167 0.32165 0.0
C450 C 0.5695 0.91157 0.31592 0.0
C451 C 0.57429 0.93415 0.30868 0.0
C452 C 0.57795 0.96418 0.31173 0.0
C453 C 0.57506 0.94969 0.3288 0.0
C454 C 0.57172 0.91942 0.3261 0.0
H455 H 0.581 0.98142 0.30608 0.0
H456 H 0.5752 0.95588 0.33665 0.0
H457 H 0.50314 0.00574 0.31796 0.0
H458 H 0.48175 0.98414 0.34784 0.0
H459 H 0.66343 0.06474 0.31325 0.0
H460 H 0.57332 0.92907 0.30074 0.0
H461 H 0.56938 0.90252 0.33194 0.0
C462 C 0.78802 0.7667 0.08243 0.0
C463 C 0.79114 0.73578 0.08256 0.0
N464 N 0.76569 0.7231 0.07882 0.0
N465 N 0.76088 0.77398 0.07852 0.0
C466 C 0.74771 0.74698 0.07642 0.0
H467 H 0.8045 0.78284 0.08515 0.0
Co468 Co 0.74557 0.81357 0.07707 0.0
C469 C 0.71907 0.81574 0.05646 0.0
O470 O 0.72146 0.84536 0.05634 0.0
N471 N 0.72957 0.85377 0.07586 0.0
C472 C 0.69533 0.89096 0.07525 0.0
C473 C 0.69965 0.86029 0.07623 0.0
C474 C 0.74284 0.88135 0.07466 0.0
N475 N 0.72255 0.90427 0.07426 0.0
O476 O 0.71065 0.80251 0.08487 0.0
H477 H 0.68175 0.84373 0.07693 0.0
H478 H 0.7668 0.88492 0.07381 0.0
O479 O 0.72647 0.80094 0.06435 0.0
C480 C 0.7177 0.80043 0.09413 0.0
O481 O 0.74631 0.80317 0.09667 0.0
N482 N 0.78152 0.82438 0.07047 0.0
C483 C 0.84268 0.82855 0.06537 0.0
C484 C 0.82204 0.81377 0.05902 0.0
C485 C 0.79159 0.81177 0.06174 0.0
C486 C 0.80106 0.8397 0.07655 0.0
C487 C 0.83145 0.84291 0.07399 0.0
H488 H 0.77718 0.79748 0.0573 0.0
H489 H 0.7933 0.84799 0.08374 0.0
H490 H 0.72509 0.74504 0.07339 0.0
H491 H 0.81088 0.72381 0.08524 0.0
H492 H 0.67374 0.90251 0.07535 0.0
H493 H 0.82962 0.80149 0.05246 0.0
H494 H 0.84632 0.85487 0.07909 0.0
C495 C 0.99814 0.97169 0.83703 0.0
C496 C 0.02869 0.96608 0.83672 0.0
N497 N 0.03977 0.97665 0.82797 0.0
N498 N 0.9895 0.98559 0.82848 0.0
C499 C 0.01542 0.98806 0.82307 0.0
H500 H 0.98367 0.96748 0.8434 0.0
Co501 Co 0.95104 0.00321 0.82636 0.0
C502 C 0.93481 0.9609 0.80957 0.0
O503 O 0.91817 0.9428 0.81511 0.0
N504 N 0.91255 0.02126 0.82445 0.0
C505 C 0.87634 0.05628 0.82441 0.0
C506 C 0.90672 0.05103 0.8257 0.0
C507 C 0.885 0.00876 0.82262 0.0
N508 N 0.86258 0.02969 0.82251 0.0
O509 O 0.93237 0.96986 0.83323 0.0
H510 H 0.92336 0.06791 0.82773 0.0
H511 H 0.88128 0.98475 0.82164 0.0
O512 O 0.9482 0.98347 0.81352 0.0
C513 C 0.92303 0.97697 0.84197 0.0
O514 O 0.92582 0.00525 0.84491 0.0
N515 N 0.96948 0.03663 0.82026 0.0
C516 C 0.99735 0.08868 0.81291 0.0
C517 C 0.97893 0.0709 0.80667 0.0
C518 C 0.96491 0.04508 0.81052 0.0
C519 C 0.98717 0.05363 0.82645 0.0
C520 C 1.00147 0.07966 0.82292 0.0
H521 H 0.94972 0.03251 0.80573 0.0
H522 H 0.98986 0.04705 0.83422 0.0
H523 H 0.01664 0.99942 0.81588 0.0
H524 H 0.042 0.95683 0.84281 0.0
H525 H 0.86505 0.07789 0.82525 0.0
H526 H 0.97497 0.07711 0.79892 0.0
H527 H 0.01476 0.09312 0.82809 0.0
C528 C 0.7799 0.73231 0.58132 0.0
C529 C 0.7825 0.76322 0.58195 0.0
N530 N 0.76025 0.77588 0.57644 0.0
N531 N 0.75623 0.72518 0.57539 0.0
C532 C 0.7445 0.75223 0.57258 0.0
H533 H 0.7941 0.71601 0.58512 0.0
Co534 Co 0.74381 0.68533 0.57272 0.0
C535 C 0.72462 0.68414 0.5514 0.0
O536 O 0.73331 0.65575 0.55093 0.0
N537 N 0.73063 0.6447 0.57042 0.0
C538 C 0.69813 0.60671 0.56797 0.0
C539 C 0.70119 0.63747 0.56899 0.0
C540 C 0.74495 0.61744 0.5703 0.0
N541 N 0.72568 0.59395 0.56878 0.0
O542 O 0.70648 0.69296 0.57962 0.0
H543 H 0.68286 0.65364 0.56862 0.0
H544 H 0.76901 0.61461 0.5712 0.0
O545 O 0.72681 0.69866 0.5597 0.0
C546 C 0.71057 0.69152 0.58908 0.0
O547 O 0.73825 0.6875 0.59243 0.0
N548 N 0.782 0.67813 0.56697 0.0
C549 C 0.84441 0.6841 0.56435 0.0
C550 C 0.82415 0.69708 0.55749 0.0
C551 C 0.79306 0.69416 0.559 0.0
C552 C 0.8014 0.66373 0.57333 0.0
C553 C 0.83267 0.66589 0.57204 0.0
H554 H 0.7785 0.70792 0.55444 0.0
H555 H 0.7927 0.65308 0.58005 0.0
H556 H 0.7248 0.7545 0.56781 0.0
H557 H 0.79903 0.77539 0.58639 0.0
H558 H 0.67699 0.59473 0.56692 0.0
H559 H 0.83202 0.71208 0.55161 0.0
H560 H 0.84743 0.6554 0.57752 0.0
C561 C 0.5059 0.51915 0.83872 0.0
C562 C 0.47597 0.51238 0.84031 0.0
N563 N 0.46585 0.49584 0.8325 0.0
N564 N 0.51497 0.50689 0.82996 0.0
C565 C 0.49008 0.49253 0.82636 0.0
H566 H 0.51981 0.53348 0.84342 0.0
Co567 Co 0.55382 0.51372 0.82458 0.0
C568 C 0.53411 0.50798 0.80285 0.0
O569 O 0.53369 0.53736 0.80152 0.0
N570 N 0.59368 0.51996 0.8194 0.0
C571 C 0.63274 0.53382 0.80984 0.0
C572 C 0.60178 0.53298 0.81061 0.0
C573 C 0.62055 0.51303 0.8238 0.0
N574 N 0.64464 0.52127 0.81814 0.0
O575 O 0.56565 0.47436 0.82929 0.0
H576 H 0.5865 0.54238 0.80518 0.0
H577 H 0.62259 0.50278 0.83112 0.0
O578 O 0.54171 0.49642 0.81132 0.0
C579 C 0.57157 0.47758 0.8386 0.0
O580 O 0.57111 0.50495 0.84246 0.0
N581 N 0.54212 0.554 0.82125 0.0
C582 C 0.52552 0.61454 0.81867 0.0
C583 C 0.50481 0.59127 0.81677 0.0
C584 C 0.51332 0.5613 0.81831 0.0
C585 C 0.56186 0.57662 0.82376 0.0
C586 C 0.5543 0.60699 0.82229 0.0
H587 H 0.49691 0.54391 0.81666 0.0
H588 H 0.58352 0.5713 0.82708 0.0
H589 H 0.48933 0.48114 0.81918 0.0
H590 H 0.46223 0.52067 0.84644 0.0
H591 H 0.64549 0.54297 0.8036 0.0
H592 H 0.48226 0.59611 0.81401 0.0
H593 H 0.57054 0.62441 0.82425 0.0
C594 C 0.75972 0.26441 0.0879 0.0
C595 C 0.76806 0.23471 0.08686 0.0
N596 N 0.75985 0.2253 0.07767 0.0
N597 N 0.74659 0.27432 0.07935 0.0
C598 C 0.74702 0.24972 0.07323 0.0
H599 H 0.76163 0.2772 0.09475 0.0
Co600 Co 0.72792 0.31274 0.07835 0.0
C601 C 0.72719 0.33027 0.05704 0.0
O602 O 0.70056 0.34244 0.05872 0.0
N603 N 0.70933 0.3519 0.07789 0.0
C604 C 0.67729 0.39086 0.07873 0.0
C605 C 0.68019 0.35995 0.07953 0.0
C606 C 0.72364 0.37871 0.07625 0.0
N607 N 0.70466 0.4027 0.0767 0.0
O608 O 0.76441 0.33134 0.0833 0.0
H609 H 0.66184 0.34476 0.08125 0.0
H610 H 0.74759 0.3806 0.07466 0.0
O611 O 0.74142 0.3171 0.06422 0.0
C612 C 0.76073 0.33633 0.09265 0.0
O613 O 0.73418 0.3303 0.09663 0.0
N614 N 0.69164 0.29314 0.07464 0.0
C615 C 0.63778 0.26049 0.07258 0.0
C616 C 0.65746 0.26414 0.06442 0.0
C617 C 0.6844 0.28021 0.06563 0.0
C618 C 0.67368 0.28821 0.08278 0.0
C619 C 0.64635 0.27263 0.08189 0.0
H620 H 0.69973 0.28074 0.05937 0.0
H621 H 0.68046 0.29703 0.09002 0.0
H622 H 0.73738 0.24924 0.06579 0.0
H623 H 0.77749 0.22049 0.0927 0.0
H624 H 0.6567 0.4037 0.07983 0.0
H625 H 0.65256 0.25397 0.05721 0.0
H626 H 0.63202 0.27044 0.08844 0.0
C627 C 0.99594 0.50176 0.34072 0.0
C628 C 0.0268 0.50287 0.34199 0.0
N629 N 0.03954 0.51094 0.33321 0.0
N630 N 0.98898 0.50945 0.3312 0.0
C631 C 0.01611 0.51479 0.3268 0.0
H632 H 0.97977 0.49449 0.3463 0.0
Co633 Co 0.94998 0.5078 0.32563 0.0
C634 C 0.95644 0.54549 0.30741 0.0
O635 O 0.93464 0.56351 0.31046 0.0
N636 N 0.91084 0.50539 0.31994 0.0
C637 C 0.87446 0.49461 0.30897 0.0
C638 C 0.90508 0.4949 0.31062 0.0
C639 C 0.88308 0.51115 0.32383 0.0
N640 N 0.86046 0.50488 0.31727 0.0
O641 O 0.94152 0.54745 0.33092 0.0
H642 H 0.92212 0.48735 0.30536 0.0
H643 H 0.87945 0.51967 0.33133 0.0
O644 O 0.96507 0.52381 0.31304 0.0
C645 C 0.93161 0.54317 0.3398 0.0
O646 O 0.9276 0.51508 0.3428 0.0
N647 N 0.95752 0.46833 0.32157 0.0
C648 C 0.96685 0.40695 0.31835 0.0
C649 C 0.98128 0.42847 0.31228 0.0
C650 C 0.97662 0.45925 0.31411 0.0
C651 C 0.94311 0.4477 0.32746 0.0
C652 C 0.94748 0.41681 0.32599 0.0
H653 H 0.9889 0.47553 0.30969 0.0
H654 H 0.92845 0.45542 0.33343 0.0
H655 H 0.01878 0.52067 0.31897 0.0
H656 H 0.03897 0.49676 0.34874 0.0
H657 H 0.86346 0.48655 0.30222 0.0
H658 H 0.99682 0.42157 0.30642 0.0
H659 H 0.93599 0.40077 0.33083 0.0
C660 C 0.73912 0.27796 0.9208 0.0
C661 C 0.73088 0.24816 0.92181 0.0
N662 N 0.74043 0.23823 0.93082 0.0
N663 N 0.75356 0.2873 0.92916 0.0
C664 C 0.75393 0.26247 0.93518 0.0
H665 H 0.73627 0.29142 0.9141 0.0
Co666 Co 0.77269 0.32532 0.92965 0.0
C667 C 0.77999 0.34306 0.95081 0.0
O668 O 0.80615 0.35469 0.94813 0.0
N669 N 0.79165 0.36434 0.92952 0.0
C670 C 0.8225 0.40346 0.92677 0.0
C671 C 0.81929 0.37255 0.92611 0.0
C672 C 0.77848 0.39103 0.9321 0.0
N673 N 0.79677 0.41518 0.93053 0.0
O674 O 0.73502 0.34414 0.92599 0.0
H675 H 0.83614 0.35751 0.92307 0.0
H676 H 0.75577 0.39265 0.93508 0.0
O677 O 0.7635 0.32975 0.94419 0.0
C678 C 0.73552 0.35347 0.91693 0.0
O679 O 0.76048 0.35046 0.91168 0.0
N680 N 0.80964 0.3054 0.93218 0.0
C681 C 0.86234 0.27044 0.93263 0.0
C682 C 0.84493 0.27455 0.94131 0.0
C683 C 0.81857 0.29182 0.94092 0.0
C684 C 0.82539 0.30026 0.92357 0.0
C685 C 0.85216 0.28355 0.92365 0.0
H686 H 0.80486 0.29259 0.94758 0.0
H687 H 0.81706 0.30941 0.91656 0.0
H688 H 0.7647 0.26173 0.94245 0.0
H689 H 0.72053 0.2343 0.91605 0.0
H690 H 0.84199 0.41636 0.92433 0.0
H691 H 0.85101 0.26371 0.94832 0.0
H692 H 0.86469 0.28104 0.91672 0.0
C693 C 0.97258 0.54418 0.17353 0.0
C694 C 0.00353 0.54384 0.17255 0.0
N695 N 0.01472 0.52364 0.17914 0.0
N696 N 0.9643 0.52409 0.18064 0.0
C697 C 0.99053 0.512 0.18398 0.0
H698 H 0.95698 0.55785 0.16922 0.0
Co699 Co 0.92435 0.51491 0.18381 0.0
C700 C 0.92354 0.49955 0.20534 0.0
O701 O 0.89746 0.51375 0.20587 0.0
N702 N 0.88358 0.50466 0.18658 0.0
C703 C 0.84472 0.47501 0.19081 0.0
C704 C 0.87558 0.47685 0.18996 0.0
C705 C 0.85676 0.51882 0.185 0.0
N706 N 0.83296 0.50137 0.18767 0.0
O707 O 0.9283 0.47689 0.17705 0.0
H708 H 0.89133 0.45883 0.19166 0.0
H709 H 0.8543 0.54114 0.18183 0.0
O710 O 0.93732 0.49753 0.19689 0.0
C711 C 0.92434 0.48159 0.1677 0.0
O712 O 0.91973 0.50953 0.16466 0.0
N713 N 0.92077 0.55386 0.18945 0.0
C714 C 0.92758 0.61581 0.19321 0.0
C715 C 0.94233 0.59428 0.19917 0.0
C716 C 0.93915 0.5636 0.19705 0.0
C717 C 0.90599 0.57448 0.18362 0.0
C718 C 0.90852 0.60552 0.1855 0.0
H719 H 0.95407 0.54827 0.20089 0.0
H720 H 0.89445 0.5671 0.17691 0.0
H721 H 0.9919 0.49442 0.18962 0.0
H722 H 0.01685 0.55743 0.16743 0.0
H723 H 0.83181 0.45544 0.1932 0.0
H724 H 0.95847 0.60103 0.20487 0.0
H725 H 0.89713 0.62131 0.18056 0.0
C726 C 0.70425 0.72889 0.42173 0.0
C727 C 0.7014 0.75978 0.42101 0.0
N728 N 0.72217 0.7727 0.42706 0.0
N729 N 0.72665 0.72221 0.42822 0.0
C730 C 0.73721 0.74938 0.43136 0.0
H731 H 0.6909 0.71225 0.41774 0.0
Co732 Co 0.73864 0.6827 0.431 0.0
C733 C 0.7621 0.68265 0.45185 0.0
O734 O 0.75174 0.65491 0.45281 0.0
N735 N 0.75119 0.64214 0.43331 0.0
C736 C 0.7825 0.6032 0.43574 0.0
C737 C 0.78032 0.63415 0.43497 0.0
C738 C 0.73629 0.61529 0.43281 0.0
N739 N 0.75478 0.59135 0.43435 0.0
O740 O 0.77446 0.68884 0.42314 0.0
H741 H 0.79896 0.64994 0.43558 0.0
H742 H 0.71246 0.6129 0.43129 0.0
O743 O 0.75912 0.69656 0.44346 0.0
C744 C 0.76841 0.68253 0.41402 0.0
O745 O 0.74061 0.67421 0.41182 0.0
N746 N 0.70171 0.6771 0.43783 0.0
C747 C 0.64101 0.68019 0.44371 0.0
C748 C 0.66362 0.69471 0.4493 0.0
C749 C 0.69362 0.69339 0.44613 0.0
C750 C 0.68003 0.66255 0.43237 0.0
C751 C 0.64968 0.66318 0.43529 0.0
H752 H 0.70941 0.7081 0.44983 0.0
H753 H 0.68592 0.65236 0.42526 0.0
H754 H 0.75594 0.75203 0.43652 0.0
H755 H 0.68508 0.77178 0.41644 0.0
H756 H 0.80305 0.59035 0.43694 0.0
H757 H 0.65798 0.70932 0.45555 0.0
H758 H 0.63299 0.65196 0.43065 0.0
C759 C 0.5408 0.46372 0.66912 0.0
C760 C 0.5098 0.46225 0.66889 0.0
N761 N 0.49898 0.47945 0.67641 0.0
N762 N 0.54952 0.48197 0.6767 0.0
C763 C 0.52349 0.49113 0.68108 0.0
H764 H 0.55612 0.45249 0.66401 0.0
Co765 Co 0.58979 0.49178 0.67911 0.0
C766 C 0.59649 0.49926 0.70088 0.0
O767 O 0.62263 0.48547 0.69982 0.0
N768 N 0.63086 0.50264 0.68115 0.0
C769 C 0.66942 0.53217 0.68573 0.0
C770 C 0.63867 0.53047 0.68454 0.0
C771 C 0.65772 0.4881 0.68006 0.0
N772 N 0.68136 0.50552 0.68293 0.0
O773 O 0.58264 0.53179 0.67393 0.0
H774 H 0.62282 0.54828 0.68637 0.0
H775 H 0.66023 0.46502 0.67755 0.0
O776 O 0.5801 0.50442 0.69309 0.0
C777 C 0.58234 0.53141 0.66437 0.0
O778 O 0.58622 0.50546 0.65973 0.0
N779 N 0.59583 0.45131 0.68322 0.0
C780 C 0.59088 0.38838 0.68499 0.0
C781 C 0.5772 0.4076 0.692 0.0
C782 C 0.5793 0.43882 0.69085 0.0
C783 C 0.60962 0.43295 0.67638 0.0
C784 C 0.60788 0.4014 0.67721 0.0
H785 H 0.56492 0.4525 0.69554 0.0
H786 H 0.61993 0.44274 0.66977 0.0
H787 H 0.52242 0.5066 0.68737 0.0
H788 H 0.49618 0.44942 0.66363 0.0
H789 H 0.68207 0.55148 0.68848 0.0
H790 H 0.56254 0.39875 0.69782 0.0
H791 H 0.61827 0.38743 0.67149 0.0
C792 C 0.29253 0.27823 0.42071 0.0
C793 C 0.29922 0.24814 0.42201 0.0
N794 N 0.2849 0.23817 0.43029 0.0
N795 N 0.27429 0.28763 0.4282 0.0
C796 C 0.27001 0.26262 0.43394 0.0
H797 H 0.29935 0.29189 0.41439 0.0
Co798 Co 0.25595 0.32591 0.42855 0.0
C799 C 0.25215 0.34478 0.45008 0.0
O800 O 0.22979 0.36321 0.44792 0.0
N801 N 0.23743 0.365 0.42839 0.0
C802 C 0.20523 0.40312 0.42596 0.0
C803 C 0.20913 0.37231 0.4254 0.0
C804 C 0.25041 0.39216 0.43053 0.0
N805 N 0.23118 0.41571 0.42923 0.0
O806 O 0.29422 0.34435 0.42548 0.0
H807 H 0.19214 0.35659 0.42283 0.0
H808 H 0.27339 0.39449 0.43323 0.0
O809 O 0.26411 0.32856 0.44315 0.0
C810 C 0.29444 0.35328 0.41638 0.0
O811 O 0.27006 0.34949 0.41087 0.0
N812 N 0.21846 0.30697 0.4305 0.0
C813 C 0.16169 0.27955 0.42993 0.0
C814 C 0.17587 0.28568 0.43913 0.0
C815 C 0.2044 0.29922 0.43926 0.0
C816 C 0.20593 0.29929 0.42152 0.0
C817 C 0.17738 0.28595 0.42104 0.0
H818 H 0.21496 0.30268 0.44643 0.0
H819 H 0.21783 0.30471 0.41466 0.0
H820 H 0.2555 0.26207 0.44047 0.0
H821 H 0.31213 0.23423 0.41687 0.0
H822 H 0.18492 0.4153 0.42389 0.0
H823 H 0.16505 0.28002 0.44617 0.0
H824 H 0.16736 0.28166 0.41376 0.0
C825 C 0.47162 0.46195 0.16977 0.0
C826 C 0.50261 0.46096 0.16883 0.0
N827 N 0.51454 0.48175 0.17507 0.0
N828 N 0.46412 0.48343 0.17652 0.0
C829 C 0.4908 0.49503 0.17967 0.0
H830 H 0.4555 0.44851 0.16559 0.0
Co831 Co 0.42492 0.4961 0.17939 0.0
C832 C 0.42437 0.51122 0.20097 0.0
O833 O 0.39675 0.50025 0.20138 0.0
N834 N 0.38509 0.50997 0.182 0.0
C835 C 0.34894 0.54257 0.18646 0.0
C836 C 0.3794 0.53879 0.18493 0.0
C837 C 0.35727 0.49704 0.18146 0.0
N838 N 0.33513 0.51631 0.18426 0.0
O839 O 0.43299 0.53387 0.17279 0.0
H840 H 0.39654 0.55592 0.18612 0.0
H841 H 0.3529 0.47396 0.17926 0.0
O842 O 0.43866 0.5116 0.1926 0.0
C843 C 0.42965 0.52928 0.16341 0.0
O844 O 0.42298 0.50173 0.16039 0.0
N845 N 0.41711 0.45752 0.18477 0.0
C846 C 0.41433 0.39526 0.18842 0.0
C847 C 0.43116 0.41439 0.1947 0.0
C848 C 0.43275 0.4453 0.19264 0.0
C849 C 0.40084 0.43921 0.17855 0.0
C850 C 0.3985 0.40818 0.18037 0.0
H851 H 0.44869 0.4586 0.19687 0.0
H852 H 0.39118 0.44843 0.17175 0.0
H853 H 0.49279 0.51372 0.18488 0.0
H854 H 0.5154 0.44634 0.16389 0.0
H855 H 0.33773 0.56305 0.18893 0.0
H856 H 0.44496 0.40531 0.20071 0.0
H857 H 0.38563 0.39427 0.17521 0.0
C858 C 0.25436 0.73642 0.91573 0.0
C859 C 0.25158 0.76716 0.91448 0.0
N860 N 0.24749 0.77983 0.92356 0.0
N861 N 0.2516 0.72947 0.92555 0.0
C862 C 0.24749 0.75653 0.93014 0.0
H863 H 0.25959 0.72048 0.90985 0.0
Co864 Co 0.25746 0.69082 0.93101 0.0
C865 C 0.2174 0.68902 0.94856 0.0
O866 O 0.20446 0.66437 0.94506 0.0
N867 N 0.26408 0.65192 0.9365 0.0
C868 C 0.27829 0.61575 0.94715 0.0
C869 C 0.27547 0.64642 0.94574 0.0
C870 C 0.2601 0.62403 0.93246 0.0
N871 N 0.2686 0.60166 0.9388 0.0
O872 O 0.21999 0.67781 0.92504 0.0
H873 H 0.28134 0.66366 0.95116 0.0
H874 H 0.25165 0.62001 0.92498 0.0
O875 O 0.23717 0.70265 0.94326 0.0
C876 C 0.22372 0.66835 0.91609 0.0
O877 O 0.25149 0.66565 0.91266 0.0
N878 N 0.29479 0.7036 0.93607 0.0
C879 C 0.35285 0.72255 0.94119 0.0
C880 C 0.32775 0.73245 0.9467 0.0
C881 C 0.29886 0.72272 0.94402 0.0
C882 C 0.31893 0.69347 0.93069 0.0
C883 C 0.34827 0.70253 0.93316 0.0
H884 H 0.27997 0.73115 0.94827 0.0
H885 H 0.31524 0.67861 0.92435 0.0
H886 H 0.24542 0.75932 0.93817 0.0
H887 H 0.25419 0.77942 0.9075 0.0
H888 H 0.28645 0.60467 0.95387 0.0
H889 H 0.33038 0.74775 0.95299 0.0
H890 H 0.36705 0.69469 0.92864 0.0
C891 C 0.04822 0.49102 0.67176 0.0
C892 C 0.01765 0.49218 0.66987 0.0
N893 N 0.00293 0.48303 0.67819 0.0
N894 N 0.05274 0.48116 0.6812 0.0
C895 C 0.02473 0.4765 0.68496 0.0
H896 H 0.06615 0.49648 0.66653 0.0
Co897 Co 0.09089 0.4735 0.68629 0.0
C898 C 0.08556 0.47035 0.70823 0.0
O899 O 0.11114 0.48552 0.70859 0.0
N900 N 0.13048 0.46455 0.69106 0.0
C901 C 0.1683 0.43795 0.69782 0.0
C902 C 0.13757 0.4392 0.69627 0.0
C903 C 0.15765 0.47772 0.68926 0.0
N904 N 0.18086 0.46217 0.69335 0.0
O905 O 0.08709 0.4325 0.68172 0.0
H906 H 0.12136 0.42226 0.69862 0.0
H907 H 0.16092 0.49777 0.6848 0.0
O908 O 0.07383 0.4635 0.6997 0.0
C909 C 0.10257 0.42902 0.67373 0.0
O910 O 0.1193 0.45164 0.67052 0.0
N911 N 0.09407 0.51484 0.68964 0.0
C912 C 0.09483 0.57808 0.69125 0.0
C913 C 0.0752 0.56055 0.69716 0.0
C914 C 0.0748 0.52913 0.69612 0.0
C915 C 0.11181 0.53161 0.6834 0.0
C916 C 0.11345 0.56305 0.68431 0.0
H917 H 0.0576 0.51669 0.70012 0.0
H918 H 0.12367 0.5207 0.67731 0.0
H919 H 0.02034 0.46765 0.69239 0.0
H920 H 0.00707 0.49927 0.66294 0.0
H921 H 0.18057 0.41993 0.70152 0.0
H922 H 0.05899 0.57099 0.70216 0.0
H923 H 0.12852 0.57539 0.67939 0.0
C924 C 0.25263 0.72455 0.08541 0.0
C925 C 0.25566 0.75536 0.08628 0.0
N926 N 0.25193 0.76771 0.07714 0.0
N927 N 0.24742 0.71715 0.07573 0.0
C928 C 0.2469 0.74415 0.07089 0.0
H929 H 0.25304 0.70889 0.09162 0.0
Co930 Co 0.23872 0.67786 0.07103 0.0
C931 C 0.27899 0.69909 0.05377 0.0
O932 O 0.29804 0.7164 0.05871 0.0
N933 N 0.22951 0.63848 0.06626 0.0
C934 C 0.2131 0.60187 0.05609 0.0
C935 C 0.21681 0.63254 0.05724 0.0
C936 C 0.2334 0.61072 0.07042 0.0
N937 N 0.2236 0.58815 0.06439 0.0
O938 O 0.27608 0.66369 0.07677 0.0
H939 H 0.21079 0.64943 0.05173 0.0
H940 H 0.24297 0.60679 0.07775 0.0
O941 O 0.25776 0.68537 0.05834 0.0
C942 C 0.27118 0.65386 0.08562 0.0
O943 O 0.24305 0.65307 0.08885 0.0
N944 N 0.20149 0.69173 0.06623 0.0
C945 C 0.14362 0.71262 0.06186 0.0
C946 C 0.1677 0.71867 0.05534 0.0
C947 C 0.19654 0.70783 0.05762 0.0
C948 C 0.17828 0.68538 0.07259 0.0
C949 C 0.14904 0.69545 0.07053 0.0
H950 H 0.21472 0.71292 0.05249 0.0
H951 H 0.18269 0.67276 0.0794 0.0
H952 H 0.24259 0.74666 0.06296 0.0
H953 H 0.25885 0.76782 0.0932 0.0
H954 H 0.20399 0.59053 0.04955 0.0
H955 H 0.16428 0.73172 0.04855 0.0
H956 H 0.13104 0.69061 0.07581 0.0
C957 C 0.00949 0.46596 0.83843 0.0
C958 C 0.97865 0.46293 0.83925 0.0
N959 N 0.96541 0.48044 0.83224 0.0
N960 N 0.01612 0.48525 0.83089 0.0
C961 C 0.98868 0.49384 0.82731 0.0
H962 H 0.02596 0.45524 0.84325 0.0
Co963 Co 0.0556 0.49756 0.82714 0.0
C964 C 0.03063 0.53197 0.80896 0.0
O965 O 0.02962 0.55944 0.81273 0.0
N966 N 0.09478 0.50989 0.82352 0.0
C967 C 0.13293 0.53783 0.81782 0.0
C968 C 0.10206 0.53574 0.8187 0.0
C969 C 0.1218 0.49676 0.82559 0.0
N970 N 0.14548 0.51334 0.82218 0.0
O971 O 0.04881 0.53659 0.833 0.0
H972 H 0.08611 0.55255 0.81618 0.0
H973 H 0.12409 0.47589 0.82977 0.0
O974 O 0.0402 0.50985 0.8142 0.0
C975 C 0.05136 0.5348 0.84251 0.0
O976 O 0.05628 0.50818 0.84658 0.0
N977 N 0.06349 0.45872 0.82216 0.0
C978 C 0.07021 0.39776 0.81741 0.0
C979 C 0.06475 0.41913 0.80985 0.0
C980 C 0.06172 0.44967 0.81237 0.0
C981 C 0.07153 0.43865 0.82944 0.0
C982 C 0.07478 0.40799 0.82725 0.0
H983 H 0.05741 0.46557 0.80642 0.0
H984 H 0.07463 0.44646 0.83706 0.0
H985 H 0.98574 0.5097 0.82122 0.0
H986 H 0.96698 0.44944 0.84482 0.0
H987 H 0.14513 0.55611 0.81423 0.0
H988 H 0.06141 0.41222 0.80213 0.0
H989 H 0.07997 0.39232 0.83327 0.0
C990 C 0.25971 0.28043 0.58668 0.0
C991 C 0.25711 0.25088 0.58984 0.0
N992 N 0.23328 0.23829 0.58513 0.0
N993 N 0.23793 0.28645 0.57986 0.0
C994 C 0.22152 0.26056 0.57936 0.0
H995 H 0.27681 0.29643 0.58906 0.0
Co996 Co 0.23271 0.32442 0.57366 0.0
C997 C 0.22383 0.28264 0.55502 0.0
O998 O 0.23159 0.25654 0.55895 0.0
N999 N 0.22758 0.36295 0.56772 0.0
C1000 C 0.23322 0.40099 0.55694 0.0
C1001 C 0.2359 0.37031 0.55829 0.0
C1002 C 0.22015 0.38979 0.57199 0.0
N1003 N 0.22344 0.41343 0.56558 0.0
O1004 O 0.19103 0.32357 0.57749 0.0
H1005 H 0.24559 0.35475 0.55292 0.0
H1006 H 0.2138 0.39212 0.57978 0.0
O1007 O 0.2238 0.30667 0.5604 0.0
C1008 C 0.18957 0.33393 0.5864 0.0
O1009 O 0.21457 0.34324 0.59076 0.0
N1010 N 0.27423 0.32627 0.57068 0.0
C1011 C 0.33676 0.33155 0.56816 0.0
C1012 C 0.32096 0.30638 0.56438 0.0
C1013 C 0.28975 0.3042 0.56572 0.0
C1014 C 0.28922 0.3506 0.57457 0.0
C1015 C 0.32031 0.35403 0.57321 0.0
H1016 H 0.27852 0.28402 0.56319 0.0
H1017 H 0.27702 0.36739 0.57886 0.0
H1018 H 0.20145 0.25792 0.57479 0.0
H1019 H 0.27236 0.23916 0.59487 0.0
H1020 H 0.24002 0.4133 0.55029 0.0
H1021 H 0.33267 0.28781 0.56078 0.0
H1022 H 0.3313 0.37395 0.57624 0.0
C1023 C 0.49358 0.54094 0.33313 0.0
C1024 C 0.52407 0.54057 0.33518 0.0
N1025 N 0.53747 0.52091 0.32886 0.0
N1026 N 0.4876 0.52142 0.32561 0.0
C1027 C 0.51484 0.50953 0.32315 0.0
H1028 H 0.47687 0.55519 0.33671 0.0
Co1029 Co 0.44905 0.51609 0.32003 0.0
C1030 C 0.46121 0.47271 0.30346 0.0
O1031 O 0.44146 0.45309 0.30695 0.0
N1032 N 0.41011 0.51119 0.31455 0.0
C1033 C 0.3714 0.51195 0.30391 0.0
C1034 C 0.40227 0.51438 0.30482 0.0
C1035 C 0.38351 0.50719 0.31942 0.0
N1036 N 0.35948 0.50749 0.3131 0.0
O1037 O 0.44524 0.47846 0.32711 0.0
H1038 H 0.41789 0.51942 0.2988 0.0
H1039 H 0.38179 0.50478 0.32747 0.0
O1040 O 0.46643 0.49697 0.30833 0.0
C1041 C 0.43855 0.48441 0.3362 0.0
O1042 O 0.43391 0.51274 0.33878 0.0
N1043 N 0.45248 0.55383 0.31382 0.0
C1044 C 0.45948 0.61338 0.30725 0.0
C1045 C 0.48063 0.59104 0.30463 0.0
C1046 C 0.4767 0.5614 0.30798 0.0
C1047 C 0.43135 0.57498 0.3163 0.0
C1048 C 0.4341 0.60477 0.31294 0.0
H1049 H 0.4941 0.54502 0.30635 0.0
H1050 H 0.41267 0.56891 0.32114 0.0
H1051 H 0.51815 0.49324 0.31718 0.0
H1052 H 0.53565 0.55465 0.34061 0.0
H1053 H 0.35868 0.5147 0.29703 0.0
H1054 H 0.50099 0.59659 0.3005 0.0
H1055 H 0.41693 0.62104 0.31505 0.0
C1056 C 0.13918 0.17758 0.09361 0.0
C1057 C 0.16948 0.18319 0.09619 0.0
C1058 C 0.11763 0.17195 0.10115 0.0
C1059 C 0.10872 0.1688 0.12943 0.0
H1060 H 0.06081 0.09779 0.12326 0.0
C1061 C 0.07472 0.05018 0.14916 0.0
C1062 C 0.06954 0.05926 0.15911 0.0
C1063 C 0.07698 0.0714 0.14147 0.0
C1064 C 0.07413 0.11758 0.12516 0.0
H1065 H 0.20039 0.19017 0.10861 0.0
H1066 H 0.16384 0.17976 0.12153 0.0
H1067 H 0.08392 0.12618 0.10974 0.0
H1068 H 0.06116 0.09793 0.16872 0.0
H1069 H 0.06449 0.13539 0.15515 0.0
H1070 H 0.10152 0.15828 0.1449 0.0
C1071 C 0.15599 0.17991 0.11384 0.0
C1072 C 0.087 0.13432 0.11733 0.0
C1073 C 0.17725 0.18559 0.10637 0.0
C1074 C 0.0653 0.09022 0.16113 0.0
C1075 C 0.06739 0.11166 0.15335 0.0
C1076 C 0.09644 0.15162 0.13727 0.0
C1077 C 0.12609 0.17182 0.11138 0.0
C1078 C 0.10584 0.15927 0.11938 0.0
C1079 C 0.07381 0.10253 0.14342 0.0
C1080 C 0.0803 0.12484 0.13525 0.0
H1081 H 0.13255 0.17564 0.08581 0.0
H1082 H 0.09471 0.16641 0.09894 0.0
H1083 H 0.12209 0.18855 0.13133 0.0
H1084 H 0.07804 0.02654 0.14728 0.0
H1085 H 0.08266 0.06323 0.13405 0.0
C1086 C 0.09889 0.91035 0.34689 0.0
C1087 C 0.11481 0.93762 0.34558 0.0
C1088 C 0.10891 0.88894 0.35393 0.0
C1089 C 0.17566 0.86569 0.36869 0.0
H1090 H 0.11892 0.8431 0.3896 0.0
C1091 C 0.18459 0.83469 0.41267 0.0
C1092 C 0.21098 0.81707 0.4122 0.0
C1093 C 0.16837 0.84123 0.40387 0.0
C1094 C 0.13497 0.84904 0.38379 0.0
H1095 H 0.15419 0.96339 0.35013 0.0
H1096 H 0.17216 0.92587 0.36212 0.0
H1097 H 0.10085 0.87023 0.3747 0.0
H1098 H 0.23933 0.78981 0.40252 0.0
H1099 H 0.21052 0.80011 0.38732 0.0
H1100 H 0.21004 0.84614 0.37784 0.0
C1101 C 0.15191 0.92095 0.35783 0.0
C1102 C 0.12459 0.86429 0.37522 0.0
C1103 C 0.14162 0.94246 0.35098 0.0
C1104 C 0.21915 0.80367 0.40305 0.0
C1105 C 0.20279 0.8098 0.39433 0.0
C1106 C 0.18598 0.85037 0.37717 0.0
C1107 C 0.13533 0.89429 0.35957 0.0
C1108 C 0.14502 0.87351 0.36772 0.0
C1109 C 0.17821 0.82998 0.39453 0.0
C1110 C 0.16594 0.84246 0.38496 0.0
H1111 H 0.07791 0.90637 0.34289 0.0
H1112 H 0.09577 0.86853 0.35512 0.0
H1113 H 0.19189 0.8724 0.36301 0.0
H1114 H 0.17801 0.84552 0.41963 0.0
H1115 H 0.1496 0.85692 0.4043 0.0
C1116 C 0.3285 0.83772 0.60038 0.0
C1117 C 0.30174 0.82297 0.60328 0.0
C1118 C 0.35139 0.84327 0.60746 0.0
C1119 C 0.35824 0.85286 0.63494 0.0
H1120 H 0.44357 0.86287 0.62908 0.0
C1121 C 0.4362 0.90606 0.6643 0.0
C1122 C 0.45246 0.93089 0.66051 0.0
C1123 C 0.42355 0.88472 0.65773 0.0
C1124 C 0.41981 0.86004 0.63085 0.0
H1125 H 0.27895 0.80002 0.61549 0.0
H1126 H 0.31916 0.80833 0.62765 0.0
H1127 H 0.41012 0.84048 0.61646 0.0
H1128 H 0.4709 0.95115 0.64701 0.0
H1129 H 0.44905 0.91415 0.63562 0.0
H1130 H 0.36753 0.87319 0.64914 0.0
C1131 C 0.32221 0.8168 0.62009 0.0
C1132 C 0.40061 0.84733 0.6236 0.0
C1133 C 0.29924 0.81179 0.6131 0.0
C1134 C 0.4583 0.93234 0.65015 0.0
C1135 C 0.44586 0.91098 0.64361 0.0
C1136 C 0.37739 0.86538 0.64217 0.0
C1137 C 0.348 0.83378 0.61751 0.0
C1138 C 0.36943 0.84412 0.62548 0.0
C1139 C 0.42715 0.88773 0.64727 0.0
C1140 C 0.40829 0.86976 0.64015 0.0
H1141 H 0.33085 0.84675 0.59287 0.0
H1142 H 0.37082 0.85655 0.60519 0.0
H1143 H 0.33432 0.85145 0.63664 0.0
H1144 H 0.4313 0.90433 0.67224 0.0
H1145 H 0.40965 0.86675 0.6608 0.0
C1146 C 0.45471 0.09151 0.85558 0.0
C1147 C 0.44758 0.09605 0.84543 0.0
C1148 C 0.44899 0.11397 0.86267 0.0
C1149 C 0.39364 0.17333 0.86671 0.0
H1150 H 0.43617 0.18233 0.89201 0.0
C1151 C 0.33145 0.22427 0.89994 0.0
C1152 C 0.33326 0.20695 0.90875 0.0
C1153 C 0.35284 0.22076 0.89232 0.0
C1154 C 0.42401 0.18013 0.88499 0.0
H1155 H 0.43085 0.12835 0.83456 0.0
H1156 H 0.42055 0.16805 0.84704 0.0
H1157 H 0.46151 0.15832 0.87778 0.0
H1158 H 0.35982 0.17391 0.91685 0.0
H1159 H 0.39695 0.16699 0.90344 0.0
H1160 H 0.35564 0.19342 0.87396 0.0
C1161 C 0.43057 0.14695 0.8495 0.0
C1162 C 0.43857 0.16646 0.87682 0.0
C1163 C 0.43668 0.1244 0.84235 0.0
C1164 C 0.35824 0.18786 0.91018 0.0
C1165 C 0.37945 0.18389 0.90246 0.0
C1166 C 0.3791 0.1869 0.87486 0.0
C1167 C 0.43565 0.14151 0.8598 0.0
C1168 C 0.42317 0.16195 0.86768 0.0
C1169 C 0.37611 0.19922 0.89323 0.0
C1170 C 0.39373 0.18964 0.88421 0.0
H1171 H 0.46322 0.06982 0.85814 0.0
H1172 H 0.45294 0.10876 0.8705 0.0
H1173 H 0.38086 0.16985 0.85987 0.0
H1174 H 0.31233 0.23917 0.89868 0.0
H1175 H 0.35001 0.23359 0.88546 0.0
C1176 C 0.89727 0.96344 0.85793 0.0
C1177 C 0.91241 0.95396 0.84923 0.0
C1178 C 0.88983 0.94278 0.86544 0.0
C1179 C 0.87857 0.86163 0.87081 0.0
H1180 H 0.88237 0.89112 0.89819 0.0
C1181 C 0.83958 0.83037 0.91443 0.0
C1182 C 0.8102 0.82056 0.91205 0.0
C1183 C 0.85953 0.83914 0.90677 0.0
C1184 C 0.88178 0.88205 0.89065 0.0
H1185 H 0.93101 0.91514 0.84143 0.0
H1186 H 0.91812 0.87873 0.85467 0.0
H1187 H 0.90252 0.9219 0.8847 0.0
H1188 H 0.77974 0.80928 0.89985 0.0
H1189 H 0.81385 0.82487 0.88665 0.0
H1190 H 0.85784 0.82169 0.8768 0.0
C1191 C 0.91186 0.90226 0.85563 0.0
C1192 C 0.89287 0.90003 0.88286 0.0
C1193 C 0.91918 0.92306 0.84804 0.0
C1194 C 0.80216 0.81705 0.90192 0.0
C1195 C 0.82194 0.82579 0.89431 0.0
C1196 C 0.8677 0.84346 0.87864 0.0
C1197 C 0.89758 0.91203 0.86451 0.0
C1198 C 0.89025 0.89063 0.87281 0.0
C1199 C 0.8504 0.83822 0.89662 0.0
C1200 C 0.86803 0.85398 0.88862 0.0
H1201 H 0.89141 0.98704 0.85902 0.0
H1202 H 0.87796 0.951 0.872 0.0
H1203 H 0.87635 0.85357 0.86318 0.0
H1204 H 0.84641 0.83325 0.92217 0.0
H1205 H 0.88152 0.84804 0.90882 0.0
C1206 C 0.89862 0.05245 0.66424 0.0
C1207 C 0.92816 0.04192 0.66255 0.0
C1208 C 0.88377 0.0696 0.65689 0.0
C1209 C 0.88474 0.08109 0.62948 0.0
H1210 H 0.82744 0.14498 0.6354 0.0
C1211 C 0.81384 0.14362 0.59877 0.0
C1212 C 0.78324 0.14786 0.60128 0.0
C1213 C 0.83439 0.13299 0.60601 0.0
C1214 C 0.84332 0.12709 0.63363 0.0
H1215 H 0.96608 0.04285 0.65222 0.0
H1216 H 0.94047 0.07313 0.63955 0.0
H1217 H 0.85809 0.12372 0.64889 0.0
H1218 H 0.75004 0.14306 0.61321 0.0
H1219 H 0.78539 0.12453 0.6256 0.0
H1220 H 0.86946 0.08407 0.61424 0.0
C1221 C 0.92844 0.06757 0.64639 0.0
C1222 C 0.86084 0.1149 0.64137 0.0
C1223 C 0.94317 0.05039 0.65369 0.0
C1224 C 0.77352 0.14049 0.61102 0.0
C1225 C 0.79386 0.13004 0.61819 0.0
C1226 C 0.8672 0.0933 0.62173 0.0
C1227 C 0.89825 0.07659 0.64775 0.0
C1228 C 0.88139 0.09139 0.63942 0.0
C1229 C 0.8246 0.12658 0.61585 0.0
C1230 C 0.84583 0.11599 0.62376 0.0
H1231 H 0.88641 0.04605 0.67096 0.0
H1232 H 0.86043 0.07603 0.65815 0.0
H1233 H 0.90011 0.06273 0.62772 0.0
H1234 H 0.82197 0.14912 0.59132 0.0
H1235 H 0.85798 0.13045 0.60398 0.0
C1236 C 0.60501 0.09325 0.3502 0.0
C1237 C 0.57894 0.07682 0.34771 0.0
C1238 C 0.60578 0.11093 0.35889 0.0
C1239 C 0.60049 0.15195 0.37708 0.0
H1240 H 0.57965 0.10194 0.39999 0.0
C1241 C 0.64776 0.18173 0.4156 0.0
C1242 C 0.66477 0.15745 0.41938 0.0
C1243 C 0.62555 0.17666 0.40828 0.0
C1244 C 0.58518 0.11643 0.3937 0.0
H1245 H 0.53293 0.0664 0.35205 0.0
H1246 H 0.53423 0.09729 0.36737 0.0
H1247 H 0.56333 0.08684 0.38322 0.0
H1248 H 0.6707 0.10888 0.41912 0.0
H1249 H 0.63158 0.09978 0.40661 0.0
H1250 H 0.62411 0.18042 0.38743 0.0
C1251 C 0.55392 0.09691 0.36253 0.0
C1252 C 0.57563 0.10792 0.38408 0.0
C1253 C 0.55303 0.07956 0.35372 0.0
C1254 C 0.65731 0.12785 0.41649 0.0
C1255 C 0.63495 0.12272 0.40927 0.0
C1256 C 0.60987 0.16056 0.38669 0.0
C1257 C 0.58069 0.11194 0.36538 0.0
C1258 C 0.58432 0.12488 0.37562 0.0
C1259 C 0.62003 0.1472 0.40466 0.0
C1260 C 0.60346 0.1422 0.39506 0.0
H1261 H 0.62545 0.09081 0.34578 0.0
H1262 H 0.62689 0.12183 0.36092 0.0
H1263 H 0.6073 0.16563 0.37073 0.0
H1264 H 0.65372 0.20482 0.41754 0.0
H1265 H 0.61428 0.19596 0.40494 0.0
C1266 C 0.59364 0.9085 0.16684 0.0
C1267 C 0.61125 0.93495 0.16743 0.0
C1268 C 0.60158 0.88537 0.1601 0.0
C1269 C 0.61357 0.85691 0.13902 0.0
H1270 H 0.69721 0.83193 0.13617 0.0
C1271 C 0.66977 0.82014 0.1017 0.0
C1272 C 0.69494 0.80082 0.10222 0.0
C1273 C 0.65412 0.8281 0.11047 0.0
C1274 C 0.67359 0.83806 0.13692 0.0
H1275 H 0.65145 0.95754 0.16193 0.0
H1276 H 0.6659 0.91694 0.15052 0.0
H1277 H 0.68206 0.86147 0.1507 0.0
H1278 H 0.72132 0.77192 0.112 0.0
H1279 H 0.69344 0.78479 0.12718 0.0
H1280 H 0.60543 0.8345 0.12496 0.0
C1281 C 0.64589 0.91401 0.15512 0.0
C1282 C 0.665 0.85523 0.14523 0.0
C1283 C 0.63763 0.93726 0.16164 0.0
C1284 C 0.70209 0.78705 0.11142 0.0
C1285 C 0.6863 0.79465 0.12012 0.0
C1286 C 0.62223 0.83985 0.13061 0.0
C1287 C 0.6276 0.88815 0.15409 0.0
C1288 C 0.63512 0.86551 0.14625 0.0
C1289 C 0.66331 0.81662 0.11986 0.0
C1290 C 0.65252 0.83079 0.12936 0.0
H1291 H 0.57292 0.90649 0.17113 0.0
H1292 H 0.58713 0.86564 0.15945 0.0
H1293 H 0.5904 0.86474 0.13958 0.0
H1294 H 0.66396 0.83129 0.09473 0.0
H1295 H 0.63655 0.84513 0.10999 0.0
C1296 C 0.69079 0.69514 0.60648 0.0
C1297 C 0.6852 0.68947 0.59628 0.0
C1298 C 0.66972 0.6868 0.61378 0.0
C1299 C 0.61357 0.62761 0.61738 0.0
H1300 H 0.6045 0.66488 0.64356 0.0
C1301 C 0.56377 0.55839 0.64931 0.0
C1302 C 0.58043 0.55914 0.65826 0.0
C1303 C 0.56753 0.58092 0.64208 0.0
C1304 C 0.6068 0.65416 0.63629 0.0
H1305 H 0.65212 0.67288 0.58561 0.0
H1306 H 0.615 0.65829 0.5984 0.0
H1307 H 0.62692 0.69377 0.62977 0.0
H1308 H 0.61268 0.58482 0.66703 0.0
H1309 H 0.6202 0.62391 0.65424 0.0
H1310 H 0.59512 0.58759 0.62389 0.0
C1311 C 0.63591 0.66895 0.60076 0.0
C1312 C 0.61955 0.67075 0.62838 0.0
C1313 C 0.65702 0.67753 0.59343 0.0
C1314 C 0.59933 0.58399 0.66021 0.0
C1315 C 0.60359 0.60635 0.65286 0.0
C1316 C 0.60095 0.61105 0.62526 0.0
C1317 C 0.64257 0.67241 0.61104 0.0
C1318 C 0.62384 0.65736 0.6189 0.0
C1319 C 0.58871 0.60432 0.64352 0.0
C1320 C 0.59807 0.62379 0.6349 0.0
H1321 H 0.71226 0.70451 0.6089 0.0
H1322 H 0.67579 0.68965 0.62159 0.0
H1323 H 0.61701 0.61632 0.61025 0.0
H1324 H 0.54892 0.53946 0.64768 0.0
H1325 H 0.555 0.57906 0.63512 0.0
C1326 C 0.68529 0.34453 0.9091 0.0
C1327 C 0.70844 0.36473 0.91179 0.0
C1328 C 0.66402 0.35272 0.90178 0.0
C1329 C 0.63048 0.41699 0.88834 0.0
H1330 H 0.62827 0.36422 0.86504 0.0
C1331 C 0.60414 0.43483 0.84444 0.0
C1332 C 0.57773 0.45218 0.84541 0.0
C1333 C 0.61489 0.41801 0.85264 0.0
C1334 C 0.62851 0.37902 0.87152 0.0
H1335 H 0.72717 0.4094 0.90939 0.0
H1336 H 0.68919 0.42435 0.89698 0.0
H1337 H 0.65584 0.34841 0.88016 0.0
H1338 H 0.54055 0.46392 0.85522 0.0
H1339 H 0.55879 0.43416 0.8694 0.0
H1340 H 0.60397 0.44795 0.87972 0.0
C1341 C 0.68746 0.4022 0.90043 0.0
C1342 C 0.64403 0.3699 0.88019 0.0
C1343 C 0.70906 0.39377 0.90755 0.0
C1344 C 0.5609 0.45049 0.85431 0.0
C1345 C 0.57149 0.43372 0.86244 0.0
C1346 C 0.61465 0.42587 0.87977 0.0
C1347 C 0.66538 0.3814 0.89722 0.0
C1348 C 0.64563 0.3891 0.8886 0.0
C1349 C 0.59934 0.41855 0.86187 0.0
C1350 C 0.61387 0.40723 0.8712 0.0
H1351 H 0.6849 0.32175 0.91212 0.0
H1352 H 0.64715 0.33635 0.89945 0.0
H1353 H 0.63141 0.43221 0.89471 0.0
H1354 H 0.61777 0.43637 0.8377 0.0
H1355 H 0.63651 0.40663 0.85201 0.0
C1356 C 0.78651 0.32982 0.10896 0.0
C1357 C 0.78616 0.34332 0.09943 0.0
C1358 C 0.80806 0.33813 0.11606 0.0
C1359 C 0.87934 0.38117 0.12033 0.0
H1360 H 0.84405 0.39277 0.1467 0.0
C1361 C 0.92552 0.46315 0.15013 0.0
C1362 C 0.92084 0.45685 0.16035 0.0
C1363 C 0.91577 0.44295 0.14277 0.0
C1364 C 0.85458 0.38901 0.13947 0.0
H1365 H 0.80887 0.37508 0.08962 0.0
H1366 H 0.84631 0.39075 0.10226 0.0
H1367 H 0.81382 0.37076 0.13343 0.0
H1368 H 0.90455 0.42343 0.17094 0.0
H1369 H 0.88744 0.38777 0.15801 0.0
H1370 H 0.91983 0.40081 0.12641 0.0
C1371 C 0.83017 0.3732 0.10417 0.0
C1372 C 0.83717 0.37642 0.13181 0.0
C1373 C 0.80874 0.36438 0.09694 0.0
C1374 C 0.90846 0.4288 0.16311 0.0
C1375 C 0.89844 0.40857 0.15571 0.0
C1376 C 0.89681 0.39394 0.12803 0.0
C1377 C 0.82949 0.36072 0.11391 0.0
C1378 C 0.84915 0.37261 0.1221 0.0
C1379 C 0.9009 0.41603 0.14546 0.0
C1380 C 0.88445 0.39839 0.13766 0.0
H1381 H 0.76969 0.31305 0.11101 0.0
H1382 H 0.80738 0.32733 0.12335 0.0
H1383 H 0.88939 0.37823 0.11299 0.0
H1384 H 0.93522 0.48457 0.1478 0.0
H1385 H 0.9179 0.44955 0.13498 0.0
C1386 C 0.92014 0.56078 0.35704 0.0
C1387 C 0.9245 0.56804 0.34688 0.0
C1388 C 0.91119 0.58271 0.36391 0.0
C1389 C 0.86952 0.65404 0.3654 0.0
H1390 H 0.88942 0.64382 0.39354 0.0
C1391 C 0.82271 0.68594 0.40816 0.0
C1392 C 0.7918 0.68198 0.40605 0.0
C1393 C 0.84445 0.68197 0.40059 0.0
C1394 C 0.88394 0.64774 0.38573 0.0
H1395 H 0.92397 0.6045 0.33602 0.0
H1396 H 0.90811 0.64343 0.34815 0.0
H1397 H 0.92007 0.61915 0.38086 0.0
H1398 H 0.75944 0.67239 0.3942 0.0
H1399 H 0.79675 0.66461 0.38128 0.0
H1400 H 0.83342 0.68273 0.37027 0.0
C1401 C 0.91154 0.62044 0.35074 0.0
C1402 C 0.90133 0.63316 0.37843 0.0
C1403 C 0.92071 0.59824 0.3438 0.0
C1404 C 0.78306 0.67545 0.39614 0.0
C1405 C 0.80461 0.67135 0.38864 0.0
C1406 C 0.85238 0.66904 0.3727 0.0
C1407 C 0.90636 0.61278 0.36088 0.0
C1408 C 0.89327 0.63468 0.36822 0.0
C1409 C 0.83568 0.67389 0.39076 0.0
C1410 C 0.8583 0.66468 0.383 0.0
H1411 H 0.92304 0.53781 0.35973 0.0
H1412 H 0.90683 0.57562 0.37155 0.0
H1413 H 0.86272 0.65597 0.35762 0.0
H1414 H 0.83016 0.69116 0.41571 0.0
H1415 H 0.86814 0.68453 0.40249 0.0
C1416 C 0.31865 0.39537 0.40727 0.0
C1417 C 0.32122 0.36663 0.41163 0.0
C1418 C 0.34025 0.40545 0.40041 0.0
C1419 C 0.38927 0.37551 0.38106 0.0
H1420 H 0.41554 0.45906 0.37908 0.0
C1421 C 0.45365 0.46672 0.353 0.0
C1422 C 0.43758 0.46126 0.34411 0.0
C1423 C 0.44738 0.45011 0.36165 0.0
C1424 C 0.40896 0.43547 0.37955 0.0
H1425 H 0.34845 0.32603 0.41256 0.0
H1426 H 0.38644 0.34358 0.40039 0.0
H1427 H 0.39118 0.44145 0.39436 0.0
H1428 H 0.40372 0.43317 0.33699 0.0
H1429 H 0.39209 0.40422 0.35223 0.0
H1430 H 0.40621 0.36987 0.36608 0.0
C1431 C 0.3679 0.35844 0.40238 0.0
C1432 C 0.39476 0.42548 0.3883 0.0
C1433 C 0.34646 0.34857 0.40942 0.0
C1434 C 0.41665 0.43741 0.34375 0.0
C1435 C 0.41002 0.42093 0.35249 0.0
C1436 C 0.40338 0.38557 0.37225 0.0
C1437 C 0.36451 0.38667 0.39761 0.0
C1438 C 0.38411 0.39563 0.38906 0.0
C1439 C 0.4244 0.42808 0.36164 0.0
C1440 C 0.41284 0.41586 0.37132 0.0
H1441 H 0.29899 0.40935 0.40875 0.0
H1442 H 0.33681 0.42715 0.39679 0.0
H1443 H 0.38103 0.35242 0.3814 0.0
H1444 H 0.46994 0.48505 0.35341 0.0
H1445 H 0.45938 0.4557 0.36849 0.0
C1446 C 0.43423 0.54665 0.14581 0.0
C1447 C 0.42916 0.55394 0.15593 0.0
C1448 C 0.42645 0.56689 0.13822 0.0
C1449 C 0.40897 0.61272 0.12256 0.0
H1450 H 0.32831 0.64285 0.12798 0.0
C1451 C 0.32549 0.65663 0.0915 0.0
C1452 C 0.29575 0.64582 0.09267 0.0
C1453 C 0.34709 0.65193 0.0991 0.0
C1454 C 0.35089 0.63468 0.12633 0.0
H1455 H 0.41484 0.58929 0.16612 0.0
H1456 H 0.40155 0.62522 0.1528 0.0
H1457 H 0.35941 0.62512 0.14175 0.0
H1458 H 0.26583 0.6202 0.10241 0.0
H1459 H 0.30316 0.61165 0.11539 0.0
H1460 H 0.39917 0.62029 0.10698 0.0
C1461 C 0.41104 0.6035 0.15073 0.0
C1462 C 0.369 0.62493 0.13428 0.0
C1463 C 0.41891 0.58309 0.15837 0.0
C1464 C 0.28842 0.62921 0.10132 0.0
C1465 C 0.30978 0.62454 0.10883 0.0
C1466 C 0.39068 0.62233 0.11457 0.0
C1467 C 0.41334 0.59502 0.14054 0.0
C1468 C 0.39778 0.61252 0.13247 0.0
C1469 C 0.33915 0.63645 0.10796 0.0
C1470 C 0.36091 0.63208 0.11636 0.0
H1471 H 0.4424 0.5244 0.14371 0.0
H1472 H 0.42845 0.55928 0.13053 0.0
H1473 H 0.43129 0.60393 0.1209 0.0
H1474 H 0.33172 0.66962 0.08492 0.0
H1475 H 0.36962 0.66119 0.09818 0.0
C1476 C 0.04047 0.56129 0.85845 0.0
C1477 C 0.05429 0.56163 0.84898 0.0
C1478 C 0.05014 0.58102 0.86599 0.0
C1479 C 0.10422 0.64442 0.87174 0.0
H1480 H 0.11439 0.59978 0.89659 0.0
C1481 C 0.20302 0.66322 0.89883 0.0
C1482 C 0.19801 0.66249 0.90924 0.0
C1483 C 0.17962 0.65706 0.89212 0.0
C1484 C 0.11121 0.61287 0.8898 0.0
H1485 H 0.08765 0.5839 0.83968 0.0
H1486 H 0.10538 0.61784 0.85289 0.0
H1487 H 0.08293 0.57892 0.88335 0.0
H1488 H 0.16433 0.65527 0.9208 0.0
H1489 H 0.12318 0.6435 0.90896 0.0
H1490 H 0.13433 0.67741 0.87807 0.0
C1491 C 0.08648 0.60301 0.85451 0.0
C1492 C 0.09304 0.60097 0.88217 0.0
C1493 C 0.07629 0.58363 0.84689 0.0
C1494 C 0.16882 0.65593 0.91281 0.0
C1495 C 0.14536 0.6492 0.90606 0.0
C1496 C 0.12268 0.65616 0.87935 0.0
C1497 C 0.0745 0.60093 0.8643 0.0
C1498 C 0.0899 0.61617 0.87292 0.0
C1499 C 0.15062 0.64962 0.89563 0.0
C1500 C 0.12701 0.64008 0.88834 0.0
H1501 H 0.02347 0.5444 0.86022 0.0
H1502 H 0.03969 0.57936 0.87332 0.0
H1503 H 0.10192 0.6571 0.86483 0.0
H1504 H 0.22519 0.66847 0.89582 0.0
H1505 H 0.18453 0.65714 0.88416 0.0
C1506 C 0.15096 0.36187 0.59599 0.0
C1507 C 0.16159 0.3341 0.59233 0.0
C1508 C 0.1317 0.36281 0.60428 0.0
C1509 C 0.0885 0.36 0.6219 0.0
H1510 H 0.12845 0.31563 0.64323 0.0
C1511 C 0.07159 0.3947 0.66299 0.0
C1512 C 0.09968 0.40225 0.66724 0.0
C1513 C 0.0703 0.37638 0.65439 0.0
C1514 C 0.11665 0.32781 0.63736 0.0
H1515 H 0.15952 0.28545 0.59405 0.0
H1516 H 0.12568 0.28693 0.60865 0.0
H1517 H 0.13981 0.30357 0.62579 0.0
H1518 H 0.14801 0.39509 0.66644 0.0
H1519 H 0.14585 0.36248 0.65174 0.0
H1520 H 0.06711 0.38581 0.6335 0.0
C1521 C 0.13195 0.30801 0.60504 0.0
C1522 C 0.12295 0.32073 0.62734 0.0
C1523 C 0.15097 0.3071 0.59662 0.0
C1524 C 0.12608 0.38916 0.66336 0.0
C1525 C 0.12477 0.37047 0.65493 0.0
C1526 C 0.08208 0.36698 0.63192 0.0
C1527 C 0.1232 0.33595 0.60923 0.0
C1528 C 0.11009 0.33776 0.61951 0.0
C1529 C 0.09705 0.36503 0.65006 0.0
C1530 C 0.09724 0.35196 0.63976 0.0
H1531 H 0.15947 0.38296 0.59292 0.0
H1532 H 0.1258 0.38473 0.60736 0.0
H1533 H 0.07796 0.3733 0.61604 0.0
H1534 H 0.051 0.40509 0.66575 0.0
H1535 H 0.04862 0.37251 0.65082 0.0
C1536 C 0.26226 0.22733 0.96342 0.0
C1537 C 0.27808 0.20032 0.9615 0.0
C1538 C 0.25607 0.23616 0.97333 0.0
C1539 C 0.27637 0.22484 0.99989 0.0
H1540 H 0.19007 0.22257 0.00523 0.0
C1541 C 0.20208 0.1783 0.03346 0.0
C1542 C 0.21391 0.19367 0.04182 0.0
C1543 C 0.20689 0.18927 0.02376 0.0
C1544 C 0.2142 0.22388 0.00384 0.0
H1545 H 0.30195 0.16284 0.96835 0.0
H1546 H 0.29251 0.17903 0.98558 0.0
H1547 H 0.20826 0.22422 0.98787 0.0
H1548 H 0.2385 0.23361 0.04662 0.0
H1549 H 0.248 0.25224 0.02954 0.0
H1550 H 0.28233 0.22327 0.01585 0.0
C1551 C 0.28442 0.19309 0.97948 0.0
C1552 C 0.22461 0.22495 0.99392 0.0
C1553 C 0.28983 0.18382 0.96962 0.0
C1554 C 0.22897 0.22137 0.04032 0.0
C1555 C 0.23457 0.23194 0.03056 0.0
C1556 C 0.26595 0.22442 0.00981 0.0
C1557 C 0.26647 0.21865 0.98144 0.0
C1558 C 0.2558 0.22434 0.99184 0.0
C1559 C 0.2243 0.21548 0.02219 0.0
C1560 C 0.23479 0.22283 0.01188 0.0
H1561 H 0.25274 0.24036 0.9573 0.0
H1562 H 0.2422 0.25598 0.97465 0.0
H1563 H 0.30051 0.22427 0.99849 0.0
H1564 H 0.19052 0.15683 0.03441 0.0
H1565 H 0.19888 0.176 0.01746 0.0
C1566 C 0.0816 0.95144 0.28841 0.0
C1567 C 0.0662 0.96615 0.29625 0.0
C1568 C 0.07575 0.95915 0.27838 0.0
C1569 C 0.04793 0.97276 0.25748 0.0
H1570 H 0.0536 0.05908 0.25227 0.0
C1571 C 0.0396 0.02131 0.21731 0.0
C1572 C 0.06696 0.0356 0.2147 0.0
C1573 C 0.03271 0.01574 0.22743 0.0
C1574 C 0.05154 0.03497 0.25363 0.0
H1575 H 0.03086 0.99884 0.29959 0.0
H1576 H 0.02135 0.01261 0.2822 0.0
H1577 H 0.05507 0.04045 0.26956 0.0
H1578 H 0.10628 0.05894 0.2206 0.0
H1579 H 0.09346 0.05069 0.23816 0.0
H1580 H 0.04499 0.96731 0.24151 0.0
C1581 C 0.03813 0.99539 0.28381 0.0
C1582 C 0.05235 0.02429 0.26351 0.0
C1583 C 0.04365 0.98745 0.29378 0.0
C1584 C 0.08515 0.04768 0.22238 0.0
C1585 C 0.07786 0.04286 0.23245 0.0
C1586 C 0.04656 0.9835 0.24759 0.0
C1587 C 0.05459 0.98187 0.27601 0.0
C1588 C 0.05115 0.99303 0.26553 0.0
C1589 C 0.05246 0.02545 0.23506 0.0
C1590 C 0.04896 0.01468 0.24556 0.0
H1591 H 0.09903 0.93491 0.29003 0.0
H1592 H 0.08882 0.94837 0.2725 0.0
H1593 H 0.04681 0.94858 0.25882 0.0
H1594 H 0.02493 0.01196 0.21159 0.0
H1595 H 0.01275 0.0026 0.22926 0.0
C1596 C 0.24895 0.78373 0.54749 0.0
C1597 C 0.25996 0.81287 0.54968 0.0
C1598 C 0.24736 0.77371 0.53751 0.0
C1599 C 0.27409 0.78548 0.51178 0.0
H1600 H 0.19003 0.78263 0.50338 0.0
C1601 C 0.21125 0.82821 0.47562 0.0
C1602 C 0.22597 0.81266 0.46783 0.0
C1603 C 0.21257 0.81746 0.48546 0.0
C1604 C 0.21359 0.78265 0.50563 0.0
H1605 H 0.28042 0.85316 0.54339 0.0
H1606 H 0.27933 0.83498 0.52608 0.0
H1607 H 0.20255 0.78258 0.52131 0.0
H1608 H 0.25134 0.77214 0.46411 0.0
H1609 H 0.25489 0.75412 0.48148 0.0
H1610 H 0.28509 0.7868 0.49612 0.0
C1611 C 0.27134 0.82016 0.53199 0.0
C1612 C 0.22077 0.78251 0.51587 0.0
C1613 C 0.27203 0.83053 0.54189 0.0
C1614 C 0.23989 0.78473 0.46996 0.0
C1615 C 0.24203 0.77444 0.47989 0.0
C1616 C 0.26695 0.78488 0.50155 0.0
C1617 C 0.2578 0.79226 0.52966 0.0
C1618 C 0.25102 0.78505 0.51903 0.0
C1619 C 0.22921 0.79129 0.48776 0.0
C1620 C 0.23659 0.78459 0.49839 0.0
H1621 H 0.23932 0.76972 0.55334 0.0
H1622 H 0.2368 0.75211 0.53587 0.0
H1623 H 0.29755 0.78768 0.51404 0.0
H1624 H 0.2003 0.84974 0.47419 0.0
H1625 H 0.20258 0.83095 0.49139 0.0
C1626 C 0.49188 0.02535 0.7928 0.0
C1627 C 0.47983 0.05405 0.79498 0.0
C1628 C 0.49548 0.0158 0.78288 0.0
C1629 C 0.47601 0.9935 0.76241 0.0
H1630 H 0.49934 0.04533 0.74024 0.0
C1631 C 0.43614 0.97521 0.72187 0.0
C1632 C 0.45567 0.98204 0.71388 0.0
C1633 C 0.44519 0.97991 0.73178 0.0
C1634 C 0.49323 0.03039 0.74636 0.0
H1635 H 0.46403 0.0961 0.78847 0.0
H1636 H 0.47019 0.07942 0.77106 0.0
H1637 H 0.50468 0.06364 0.75749 0.0
H1638 H 0.50072 0.99754 0.71 0.0
H1639 H 0.51656 0.00614 0.72743 0.0
H1640 H 0.46387 0.96056 0.75132 0.0
C1641 C 0.47693 0.06426 0.77704 0.0
C1642 C 0.49594 0.04103 0.75624 0.0
C1643 C 0.47336 0.07384 0.78701 0.0
C1644 C 0.48526 0.99186 0.71602 0.0
C1645 C 0.49419 0.99711 0.72598 0.0
C1646 C 0.47312 0.98298 0.75256 0.0
C1647 C 0.48717 0.03475 0.77486 0.0
C1648 C 0.48692 0.02287 0.76438 0.0
C1649 C 0.4739 0.99198 0.73395 0.0
C1650 C 0.48116 1.00148 0.74441 0.0
H1651 H 0.49783 0.00985 0.79878 0.0
H1652 H 0.50413 0.99324 0.78149 0.0
H1653 H 0.46852 0.97897 0.76847 0.0
H1654 H 0.41317 0.96774 0.72044 0.0
H1655 H 0.42892 0.97589 0.73772 0.0
C1656 C 0.76582 0.78117 0.96825 0.0
C1657 C 0.77945 0.80975 0.96703 0.0
C1658 C 0.76065 0.76954 0.97789 0.0
C1659 C 0.7282 0.77478 0.99849 0.0
H1660 H 0.785 0.7757 0.02069 0.0
C1661 C 0.70343 0.8155 0.0385 0.0
C1662 C 0.71638 0.80008 0.04666 0.0
C1663 C 0.70822 0.80546 0.02869 0.0
C1664 C 0.76891 0.77468 0.01456 0.0
H1665 H 0.80137 0.84684 0.9748 0.0
H1666 H 0.79369 0.82588 0.99155 0.0
H1667 H 0.80383 0.7785 1.00343 0.0
H1668 H 0.74188 0.76017 0.05099 0.0
H1669 H 0.75138 0.74339 0.03375 0.0
H1670 H 0.69319 0.77364 0.00965 0.0
C1671 C 0.78634 0.81282 0.98511 0.0
C1672 C 0.77969 0.77643 0.0047 0.0
C1673 C 0.79073 0.82483 0.97552 0.0
C1674 C 0.73184 0.77275 0.04486 0.0
C1675 C 0.73738 0.76316 0.035 0.0
C1676 C 0.7174 0.77367 0.00836 0.0
C1677 C 0.77003 0.78579 0.98641 0.0
C1678 C 0.7594 0.77734 0.99659 0.0
C1679 C 0.72652 0.78008 0.02683 0.0
C1680 C 0.73763 0.77447 0.01649 0.0
H1681 H 0.75692 0.76898 0.96184 0.0
H1682 H 0.74812 0.74859 0.97871 0.0
H1683 H 0.71205 0.7758 0.99238 0.0
H1684 H 0.69124 0.8365 0.03965 0.0
H1685 H 0.69964 0.81899 0.02253 0.0
C1686 C 0.95513 0.97553 0.79272 0.0
C1687 C 0.93463 0.95838 0.79847 0.0
C1688 C 0.95273 0.97655 0.78228 0.0
C1689 C 0.91961 0.93749 0.76034 0.0
H1690 H 0.92821 0.01608 0.74761 0.0
C1691 C 0.89391 0.95311 0.71842 0.0
C1692 C 0.91469 0.97021 0.71279 0.0
C1693 C 0.89475 0.95344 0.72889 0.0
C1694 C 0.92602 0.99393 0.75103 0.0
H1695 H 0.89629 0.9278 0.79768 0.0
H1696 H 0.89215 0.92946 0.7794 0.0
H1697 H 0.93393 0.01158 0.76576 0.0
H1698 H 0.9518 0.00223 0.71376 0.0
H1699 H 0.95346 0.00269 0.73209 0.0
H1700 H 0.91195 0.91975 0.74563 0.0
C1701 C 0.91013 0.94214 0.783 0.0
C1702 C 0.92933 0.99132 0.76144 0.0
C1703 C 0.9125 0.94115 0.79348 0.0
C1704 C 0.93534 0.98896 0.71788 0.0
C1705 C 0.93629 0.98917 0.7284 0.0
C1706 C 0.91636 0.94008 0.74993 0.0
C1707 C 0.92984 0.96035 0.77729 0.0
C1708 C 0.92623 0.96305 0.76622 0.0
C1709 C 0.91653 0.97075 0.73402 0.0
C1710 C 0.9195 0.96833 0.74514 0.0
H1711 H 0.97278 0.9887 0.79631 0.0
H1712 H 0.96873 0.99024 0.77811 0.0
H1713 H 0.91749 0.91532 0.76375 0.0
H1714 H 0.87752 0.93864 0.71473 0.0
H1715 H 0.87867 0.9396 0.73297 0.0
C1716 C 0.7334 0.14847 0.54048 0.0
C1717 C 0.74306 0.16927 0.54781 0.0
C1718 C 0.7349 0.15569 0.53031 0.0
C1719 C 0.76975 0.20433 0.5114 0.0
H1720 H 0.69494 0.19012 0.49685 0.0
C1721 C 0.76109 0.23418 0.46958 0.0
C1722 C 0.74689 0.21272 0.46339 0.0
C1723 C 0.7579 0.23279 0.48 0.0
C1724 C 0.7161 0.19399 0.50075 0.0
H1725 H 0.76377 0.21323 0.55015 0.0
H1726 H 0.76707 0.22563 0.53221 0.0
H1727 H 0.69764 0.17884 0.51473 0.0
H1728 H 0.71706 0.17384 0.46315 0.0
H1729 H 0.71188 0.17085 0.48136 0.0
H1730 H 0.78868 0.21839 0.4974 0.0
C1731 C 0.75803 0.20383 0.53443 0.0
C1732 C 0.71762 0.18759 0.51101 0.0
C1733 C 0.75634 0.19666 0.54469 0.0
C1734 C 0.72786 0.19095 0.46775 0.0
C1735 C 0.72503 0.18924 0.47821 0.0
C1736 C 0.76836 0.21042 0.5011 0.0
C1737 C 0.74631 0.1838 0.52718 0.0
C1738 C 0.74455 0.19234 0.51642 0.0
C1739 C 0.74088 0.20953 0.48449 0.0
C1740 C 0.74158 0.20506 0.4956 0.0
H1741 H 0.72335 0.12703 0.54262 0.0
H1742 H 0.72638 0.13951 0.52489 0.0
H1743 H 0.79084 0.20803 0.51536 0.0
H1744 H 0.77585 0.25125 0.46639 0.0
H1745 H 0.76971 0.24936 0.48454 0.0
C1746 C 0.54722 0.05997 0.29002 0.0
C1747 C 0.54075 0.03887 0.29761 0.0
C1748 C 0.54616 0.05127 0.2799 0.0
C1749 C 0.55378 0.98227 0.26448 0.0
H1750 H 0.52822 0.03422 0.24263 0.0
C1751 C 0.53821 0.98022 0.21842 0.0
C1752 C 0.5665 0.96835 0.21559 0.0
C1753 C 0.53194 0.98675 0.22848 0.0
C1754 C 0.53514 0.01928 0.24865 0.0
H1755 H 0.52557 0.99298 0.30054 0.0
H1756 H 0.52335 0.97804 0.28299 0.0
H1757 H 0.52159 0.05108 0.25995 0.0
H1758 H 0.60966 0.95231 0.22124 0.0
H1759 H 0.59863 0.9634 0.23876 0.0
H1760 H 0.56738 0.9505 0.25321 0.0
C1761 C 0.5301 1.00099 0.2848 0.0
C1762 C 0.53165 0.02911 0.25858 0.0
C1763 C 0.53123 0.00962 0.29487 0.0
C1764 C 0.58761 0.96135 0.22313 0.0
C1765 C 0.58129 0.96777 0.2332 0.0
C1766 C 0.55737 0.97251 0.25457 0.0
C1767 C 0.53849 0.02137 0.2772 0.0
C1768 C 0.54104 0.01076 0.26661 0.0
C1769 C 0.55369 0.98131 0.23596 0.0
C1770 C 0.54829 0.99095 0.24653 0.0
H1771 H 0.55474 0.08262 0.29191 0.0
H1772 H 0.55283 0.06753 0.27423 0.0
H1773 H 0.56165 0.96769 0.27047 0.0
H1774 H 0.52118 0.98531 0.21283 0.0
H1775 H 0.51021 0.99653 0.23038 0.0
C1776 C 0.70783 0.68443 0.53361 0.0
C1777 C 0.72019 0.70025 0.54178 0.0
C1778 C 0.71097 0.69554 0.52386 0.0
C1779 C 0.76743 0.73039 0.50916 0.0
H1780 H 0.70707 0.73071 0.48802 0.0
C1781 C 0.75647 0.72824 0.46292 0.0
C1782 C 0.76879 0.69932 0.46122 0.0
C1783 C 0.75354 0.73933 0.47274 0.0
C1784 C 0.72417 0.73139 0.49385 0.0
H1785 H 0.74346 0.74137 0.54624 0.0
H1786 H 0.75028 0.7601 0.52904 0.0
H1787 H 0.69102 0.7303 0.50562 0.0
H1788 H 0.79105 0.66114 0.46824 0.0
H1789 H 0.78757 0.68123 0.48525 0.0
H1790 H 0.80053 0.72851 0.49738 0.0
C1791 C 0.73774 0.73933 0.53026 0.0
C1792 C 0.71497 0.73103 0.5039 0.0
C1793 C 0.73374 0.72864 0.54008 0.0
C1794 C 0.78145 0.68347 0.46934 0.0
C1795 C 0.7794 0.69495 0.47908 0.0
C1796 C 0.77662 0.73004 0.4991 0.0
C1797 C 0.72719 0.72235 0.52205 0.0
C1798 C 0.73651 0.72968 0.51164 0.0
C1799 C 0.76403 0.7222 0.48093 0.0
C1800 C 0.75505 0.72969 0.49136 0.0
H1801 H 0.69732 0.66249 0.53471 0.0
H1802 H 0.70276 0.68192 0.51766 0.0
H1803 H 0.78448 0.72895 0.51498 0.0
H1804 H 0.74661 0.74106 0.45681 0.0
H1805 H 0.7417 0.76047 0.47399 0.0
C1806 C 0.60419 0.49841 0.71933 0.0
C1807 C 0.58421 0.50174 0.71119 0.0
C1808 C 0.59325 0.49443 0.72904 0.0
C1809 C 0.53046 0.50674 0.74599 0.0
H1810 H 0.56643 0.44003 0.76075 0.0
C1811 C 0.50529 0.49365 0.78774 0.0
C1812 C 0.53112 0.48964 0.79372 0.0
C1813 C 0.50625 0.48756 0.77746 0.0
C1814 C 0.55619 0.4588 0.75677 0.0
H1815 H 0.53694 0.50531 0.70698 0.0
H1816 H 0.51769 0.49924 0.72419 0.0
H1817 H 0.57896 0.44744 0.74309 0.0
H1818 H 0.57756 0.47439 0.79387 0.0
H1819 H 0.57964 0.46401 0.77593 0.0
H1820 H 0.50905 0.5193 0.75973 0.0
C1821 C 0.5419 0.49928 0.72291 0.0
C1822 C 0.56331 0.46298 0.74664 0.0
C1823 C 0.55291 0.50298 0.71309 0.0
C1824 C 0.55712 0.47686 0.78945 0.0
C1825 C 0.55828 0.47117 0.77912 0.0
C1826 C 0.52359 0.50279 0.75616 0.0
C1827 C 0.56204 0.49397 0.73091 0.0
C1828 C 0.55113 0.48744 0.74122 0.0
C1829 C 0.53334 0.478 0.7729 0.0
C1830 C 0.53695 0.47918 0.76176 0.0
H1831 H 0.62844 0.49768 0.71816 0.0
H1832 H 0.60931 0.49118 0.73509 0.0
H1833 H 0.52088 0.52584 0.742 0.0
H1834 H 0.48512 0.50392 0.79087 0.0
H1835 H 0.48635 0.49229 0.77298 0.0
C1836 C 0.74719 0.32671 0.96541 0.0
C1837 C 0.77326 0.3411 0.9617 0.0
C1838 C 0.74266 0.32384 0.97581 0.0
C1839 C 0.77041 0.35473 1.00032 0.0
H1840 H 0.73381 0.28212 0.01128 0.0
C1841 C 0.76556 0.33108 0.04309 0.0
C1842 C 0.73601 0.32563 0.04649 0.0
C1843 C 0.77196 0.3303 0.03277 0.0
C1844 C 0.74417 0.30247 0.0083 0.0
H1845 H 0.81494 0.3638 0.96606 0.0
H1846 H 0.8076 0.35798 0.98385 0.0
H1847 H 0.7396 0.28726 0.99312 0.0
H1848 H 0.69049 0.31331 0.04196 0.0
H1849 H 0.70181 0.31117 0.0241 0.0
H1850 H 0.77528 0.36967 0.01553 0.0
C1851 C 0.79012 0.34957 0.97888 0.0
C1852 C 0.7472 0.30559 0.9979 0.0
C1853 C 0.79444 0.3527 0.96859 0.0
C1854 C 0.71346 0.31781 0.03951 0.0
C1855 C 0.71995 0.31639 0.0293 0.0
C1856 C 0.76777 0.35139 0.01071 0.0
C1857 C 0.76422 0.33514 0.98268 0.0
C1858 C 0.76027 0.33184 0.99375 0.0
C1859 C 0.74905 0.32331 0.02578 0.0
C1860 C 0.75447 0.32533 0.01481 0.0
H1861 H 0.73046 0.31749 0.96031 0.0
H1862 H 0.72222 0.3129 0.97845 0.0
H1863 H 0.77999 0.37557 0.99745 0.0
H1864 H 0.78325 0.33723 0.04834 0.0
H1865 H 0.79464 0.33562 0.03024 0.0
C1866 C 0.94889 0.56125 0.28946 0.0
C1867 C 0.96556 0.54508 0.29668 0.0
C1868 C 0.95346 0.55597 0.27921 0.0
C1869 C 0.97738 0.54632 0.25757 0.0
H1870 H 0.9649 0.46154 0.25104 0.0
C1871 C 0.96868 0.50365 0.21661 0.0
C1872 C 0.93906 0.49319 0.21491 0.0
C1873 C 0.97958 0.50677 0.22645 0.0
C1874 C 0.96898 0.48518 0.25276 0.0
H1875 H 0.00244 0.51323 0.29871 0.0
H1876 H 0.00945 0.50318 0.28086 0.0
H1877 H 0.97039 0.47698 0.26861 0.0
H1878 H 0.89885 0.47498 0.22197 0.0
H1879 H 0.91853 0.47872 0.23905 0.0
H1880 H 0.9752 0.55455 0.24172 0.0
C1881 C 0.99267 0.51966 0.28316 0.0
C1882 C 0.97215 0.49403 0.26279 0.0
C1883 C 0.98848 0.52532 0.29339 0.0
C1884 C 0.92182 0.48296 0.22309 0.0
C1885 C 0.93303 0.48519 0.23285 0.0
C1886 C 0.97487 0.53737 0.24753 0.0
C1887 C 0.97459 0.53426 0.27599 0.0
C1888 C 0.97556 0.52478 0.26531 0.0
C1889 C 0.96141 0.49843 0.23465 0.0
C1890 C 0.96985 0.50682 0.24505 0.0
H1891 H 0.93114 0.57673 0.29171 0.0
H1892 H 0.93918 0.56754 0.27383 0.0
H1893 H 0.98001 0.57014 0.25932 0.0
H1894 H 0.98242 0.51181 0.21045 0.0
H1895 H 0.0016 0.51693 0.22766 0.0
C1896 C 0.23502 0.26266 0.5378 0.0
C1897 C 0.22313 0.28571 0.54394 0.0
C1898 C 0.23938 0.26749 0.52753 0.0
C1899 C 0.25268 0.32981 0.50984 0.0
H1900 H 0.23537 0.2703 0.48923 0.0
C1901 C 0.24923 0.35995 0.468 0.0
C1902 C 0.25789 0.3384 0.46081 0.0
C1903 C 0.24889 0.35269 0.47818 0.0
C1904 C 0.24089 0.28695 0.49491 0.0
H1905 H 0.20386 0.33085 0.54388 0.0
H1906 H 0.21172 0.3394 0.52598 0.0
H1907 H 0.22412 0.25868 0.50676 0.0
H1908 H 0.27445 0.29266 0.45868 0.0
H1909 H 0.27431 0.27995 0.4766 0.0
H1910 H 0.26948 0.35809 0.49807 0.0
C1911 C 0.21839 0.31785 0.52918 0.0
C1912 C 0.23425 0.28035 0.50495 0.0
C1913 C 0.21385 0.31294 0.53943 0.0
C1914 C 0.26784 0.30981 0.46406 0.0
C1915 C 0.26738 0.30243 0.4743 0.0
C1916 C 0.25948 0.33633 0.49984 0.0
C1917 C 0.23197 0.29549 0.52316 0.0
C1918 C 0.23961 0.30192 0.5125 0.0
C1919 C 0.25721 0.32361 0.48146 0.0
C1920 C 0.25321 0.31521 0.49221 0.0
H1921 H 0.24237 0.24134 0.541 0.0
H1922 H 0.24986 0.24981 0.5231 0.0
H1923 H 0.25778 0.34663 0.51551 0.0
H1924 H 0.24147 0.3822 0.46573 0.0
H1925 H 0.24062 0.36949 0.48342 0.0
C1926 C 0.4692 0.50381 0.21222 0.0
C1927 C 0.44021 0.51597 0.21059 0.0
C1928 C 0.48042 0.50072 0.22202 0.0
C1929 C 0.47153 0.52577 0.24816 0.0
H1930 H 0.48472 0.44185 0.25565 0.0
C1931 C 0.4561 0.45258 0.28589 0.0
C1932 C 0.471 0.47147 0.29281 0.0
C1933 C 0.46043 0.45654 0.27556 0.0
C1934 C 0.48142 0.4654 0.25365 0.0
H1935 H 0.40139 0.53666 0.21774 0.0
H1936 H 0.42156 0.53268 0.23473 0.0
H1937 H 0.47832 0.45536 0.23792 0.0
H1938 H 0.50459 0.50707 0.29429 0.0
H1939 H 0.51163 0.51428 0.27632 0.0
H1940 H 0.47367 0.5358 0.26386 0.0
C1941 C 0.43538 0.52502 0.22851 0.0
C1942 C 0.47802 0.47316 0.24352 0.0
C1943 C 0.42386 0.52735 0.21879 0.0
C1944 C 0.4922 0.49261 0.28918 0.0
C1945 C 0.49628 0.49676 0.27888 0.0
C1946 C 0.47545 0.51811 0.25826 0.0
C1947 C 0.4632 0.5106 0.23026 0.0
C1948 C 0.47225 0.50332 0.24071 0.0
C1949 C 0.47963 0.47953 0.27195 0.0
C1950 C 0.47967 0.48774 0.26114 0.0
H1951 H 0.48217 0.49465 0.20603 0.0
H1952 H 0.502 0.48964 0.22318 0.0
H1953 H 0.46701 0.54915 0.2462 0.0
H1954 H 0.43964 0.43605 0.28841 0.0
H1955 H 0.44724 0.44293 0.27039 0.0
C1956 C 0.26475 0.67435 0.03769 0.0
C1957 C 0.27793 0.6991 0.04267 0.0
C1958 C 0.25796 0.67593 0.02749 0.0
C1959 C 0.2728 0.71694 0.00392 0.0
H1960 H 0.19361 0.68567 0.99671 0.0
C1961 C 0.22871 0.72291 0.96319 0.0
C1962 C 0.21627 0.69583 0.95945 0.0
C1963 C 0.23377 0.72663 0.97348 0.0
C1964 C 0.21585 0.69434 0.99857 0.0
H1965 H 0.29592 0.74438 0.04075 0.0
H1966 H 0.28425 0.74712 0.02276 0.0
H1967 H 0.20974 0.68495 0.01418 0.0
H1968 H 0.19751 0.65226 0.96368 0.0
H1969 H 0.20619 0.65874 0.98157 0.0
H1970 H 0.2791 0.72582 0.98826 0.0
C1971 C 0.27912 0.72647 0.02681 0.0
C1972 C 0.22514 0.69389 0.00859 0.0
C1973 C 0.28595 0.72487 0.03708 0.0
C1974 C 0.20701 0.67346 0.96629 0.0
C1975 C 0.21205 0.67719 0.97658 0.0
C1976 C 0.26352 0.71732 0.99387 0.0
C1977 C 0.26417 0.70233 0.02198 0.0
C1978 C 0.25392 0.70469 0.01137 0.0
C1979 C 0.22635 0.70343 0.98027 0.0
C1980 C 0.23509 0.70559 0.99105 0.0
H1981 H 0.25885 0.65396 0.04176 0.0
H1982 H 0.24727 0.65659 0.02395 0.0
H1983 H 0.29514 0.72531 0.00581 0.0
H1984 H 0.23557 0.74083 0.95813 0.0
H1985 H 0.24416 0.74742 0.97609 0.0
C1986 C 0.0302 0.54712 0.79079 0.0
C1987 C 0.02299 0.52611 0.79833 0.0
C1988 C 0.0281 0.5389 0.78065 0.0
C1989 C 0.0325 0.46987 0.76522 0.0
H1990 H 0.01555 0.52474 0.74322 0.0
C1991 C 0.03895 0.47537 0.71882 0.0
C1992 C 0.06918 0.46608 0.71775 0.0
C1993 C 0.02638 0.47894 0.72842 0.0
C1994 C 0.01983 0.50894 0.74927 0.0
H1995 H 0.00511 0.48124 0.80121 0.0
H1996 H 1.00098 0.46709 0.7836 0.0
H1997 H 0.0051 0.5406 0.76047 0.0
H1998 H 0.10929 0.45143 0.72569 0.0
H1999 H 0.08728 0.45662 0.74233 0.0
H2000 H 0.04794 0.43855 0.75408 0.0
C2001 C 0.00918 0.48953 0.78545 0.0
C2002 C 0.01421 0.51818 0.75917 0.0
C2003 C 0.01146 0.49767 0.79555 0.0
C2004 C 0.08584 0.45835 0.72633 0.0
C2005 C 0.07319 0.46135 0.73586 0.0
C2006 C 0.03821 0.46073 0.75537 0.0
C2007 C 0.01853 0.5096 0.77787 0.0
C2008 C 0.02107 0.49897 0.76728 0.0
C2009 C 0.04369 0.47268 0.73706 0.0
C2010 C 0.03266 0.48041 0.74729 0.0
H2011 H 0.03921 0.56918 0.79273 0.0
H2012 H 0.03563 0.55491 0.77502 0.0
H2013 H 0.03841 0.45454 0.77125 0.0
H2014 H 0.02582 0.48192 0.71231 0.0
H2015 H 0.00352 0.48755 0.72912 0.0
C2016 C 0.26759 0.82029 0.0806 0.0
C2017 C 0.25056 0.79962 0.07491 0.0
C2018 C 0.26417 0.85143 0.07921 0.0
C2019 C 0.23361 0.90992 0.06196 0.0
H2020 H 0.23091 0.95809 0.08627 0.0
C2021 C 0.19535 0.03578 0.06278 0.0
C2022 C 0.21215 0.05555 0.0689 0.0
C2023 C 0.20066 0.00453 0.06303 0.0
C2024 C 0.23194 0.94505 0.0794 0.0
H2025 H 0.21718 0.79541 0.06308 0.0
H2026 H 0.21094 0.84994 0.06068 0.0
H2027 H 0.23951 0.90381 0.08739 0.0
H2028 H 0.24762 0.05783 0.08014 0.0
H2029 H 0.25711 0.00357 0.08048 0.0
H2030 H 0.22567 0.95138 0.05399 0.0
C2031 C 0.22725 0.84203 0.06615 0.0
C2032 C 0.23693 0.91389 0.08003 0.0
C2033 C 0.23081 0.81078 0.06752 0.0
C2034 C 0.23449 0.04336 0.07524 0.0
C2035 C 0.2397 0.01217 0.07552 0.0
C2036 C 0.22851 0.94117 0.06132 0.0
C2037 C 0.24347 0.86273 0.07213 0.0
C2038 C 0.23802 0.89593 0.07133 0.0
C2039 C 0.22275 0.99236 0.06946 0.0
C2040 C 0.22778 0.9591 0.07004 0.0
H2041 H 0.28338 0.81234 0.08623 0.0
H2042 H 0.2776 0.86668 0.08376 0.0
H2043 H 0.23457 0.89682 0.0551 0.0
H2044 H 0.1782 0.04446 0.05775 0.0
H2045 H 0.18707 0.98986 0.05832 0.0
C2046 C 0.43043 0.97289 0.33461 0.0
C2047 C 0.4501 0.99236 0.32938 0.0
C2048 C 0.39929 0.97278 0.33259 0.0
C2049 C 0.33895 0.02216 0.32306 0.0
H2050 H 0.29148 0.94841 0.32145 0.0
C2051 C 0.21137 0.028 0.31478 0.0
C2052 C 0.19209 0.00812 0.31995 0.0
C2053 C 0.24273 0.02378 0.31489 0.0
C2054 C 0.30427 0.96927 0.32199 0.0
H2055 H 0.45236 0.02671 0.31779 0.0
H2056 H 0.39799 0.02671 0.31431 0.0
H2057 H 0.34634 0.94543 0.32366 0.0
H2058 H 0.19043 0.96768 0.32908 0.0
H2059 H 0.24539 0.9605 0.32953 0.0
H2060 H 0.2972 0.04616 0.32177 0.0
C2061 C 0.40671 0.01149 0.31999 0.0
C2062 C 0.33579 0.96752 0.32322 0.0
C2063 C 0.43791 0.01131 0.32192 0.0
C2064 C 0.20478 0.98313 0.32493 0.0
C2065 C 0.23632 0.9791 0.32518 0.0
C2066 C 0.3075 0.02393 0.32194 0.0
C2067 C 0.38695 0.99242 0.32537 0.0
C2068 C 0.35352 0.99398 0.32376 0.0
C2069 C 0.25584 0.99981 0.32034 0.0
C2070 C 0.2896 0.99753 0.32136 0.0
H2071 H 0.43912 0.95778 0.34032 0.0
H2072 H 0.38475 0.95794 0.33691 0.0
H2073 H 0.3518 0.043 0.32364 0.0
H2074 H 0.20211 0.04729 0.31081 0.0
H2075 H 0.25672 0.03972 0.31081 0.0
C2076 C 0.2274 0.18929 0.59387 0.0
C2077 C 0.22588 0.20647 0.58502 0.0
C2078 C 0.22413 0.15774 0.59359 0.0
C2079 C 0.20434 0.09276 0.57629 0.0
H2080 H 0.25228 0.04698 0.59537 0.0
C2081 C 0.2469 0.96915 0.57089 0.0
C2082 C 0.23987 0.94868 0.57862 0.0
C2083 C 0.24061 1.00004 0.57194 0.0
C2084 C 0.23854 0.05949 0.59006 0.0
H2085 H 0.21938 0.20417 0.56897 0.0
H2086 H 0.21519 0.14933 0.56831 0.0
H2087 H 0.25009 0.1019 0.5967 0.0
H2088 H 0.22077 0.94433 0.59349 0.0
H2089 H 0.21077 0.99885 0.59552 0.0
H2090 H 0.19472 0.04997 0.56929 0.0
C2091 C 0.21771 0.15993 0.57558 0.0
C2092 C 0.23703 0.09109 0.59084 0.0
C2093 C 0.22022 0.19154 0.57592 0.0
C2094 C 0.22614 0.95966 0.58741 0.0
C2095 C 0.22058 0.99075 0.58857 0.0
C2096 C 0.2065 0.06121 0.57537 0.0
C2097 C 0.22011 0.14238 0.5844 0.0
C2098 C 0.22008 0.10836 0.58392 0.0
C2099 C 0.22787 0.01121 0.58086 0.0
C2100 C 0.22373 0.04432 0.58222 0.0
H2101 H 0.23155 0.20033 0.60099 0.0
H2102 H 0.22521 0.14544 0.6006 0.0
H2103 H 0.19042 0.10483 0.57094 0.0
H2104 H 0.25743 0.96116 0.56405 0.0
H2105 H 0.2466 0.01537 0.56591 0.0
C2106 C 0.30497 0.04467 0.81238 0.0
C2107 C 0.32654 0.02998 0.81847 0.0
C2108 C 0.27428 0.03693 0.81285 0.0
C2109 C 0.21778 0.99863 0.8293 0.0
H2110 H 0.16714 0.00339 0.80558 0.0
C2111 C 0.09297 0.95973 0.82979 0.0
C2112 C 0.07156 0.97933 0.82542 0.0
C2113 C 0.12402 0.96425 0.82835 0.0
C2114 C 0.18093 0.00216 0.81228 0.0
H2115 H 0.33206 0.99485 0.82971 0.0
H2116 H 0.27883 0.98071 0.83028 0.0
H2117 H 0.22131 0.01346 0.80423 0.0
H2118 H 0.06646 0.01861 0.81579 0.0
H2119 H 0.12069 0.02618 0.81315 0.0
H2120 H 0.17738 0.98704 0.83732 0.0
C2121 C 0.28564 0.99883 0.82529 0.0
C2122 C 0.21206 0.00801 0.81153 0.0
C2123 C 0.3164 0.00672 0.82487 0.0
C2124 C 0.08213 0.00285 0.8192 0.0
C2125 C 0.1133 0.00726 0.81771 0.0
C2126 C 0.18674 0.99253 0.83003 0.0
C2127 C 0.26404 0.014 0.81935 0.0
C2128 C 0.23097 0.00654 0.82005 0.0
C2129 C 0.13465 0.98838 0.82244 0.0
C2130 C 0.16785 0.99434 0.82155 0.0
H2131 H 0.31163 0.06232 0.80721 0.0
H2132 H 0.2585 0.04948 0.80823 0.0
H2133 H 0.23129 0.99782 0.83608 0.0
H2134 H 0.08576 0.94101 0.83445 0.0
H2135 H 0.13977 0.94889 0.83194 0.0
C2136 C 0.30664 0.18673 0.43139 0.0
C2137 C 0.28288 0.20694 0.43348 0.0
C2138 C 0.3035 0.15573 0.43324 0.0
C2139 C 0.25754 0.09807 0.44667 0.0
H2140 H 0.28589 0.0453 0.4254 0.0
C2141 C 0.22483 0.97104 0.44435 0.0
C2142 C 0.24639 0.9503 0.4407 0.0
C2143 C 0.23055 0.00222 0.44423 0.0
C2144 C 0.27826 0.05958 0.4315 0.0
H2145 H 0.23752 0.21037 0.43956 0.0
H2146 H 0.232 0.15613 0.44283 0.0
H2147 H 0.2935 0.0997 0.42406 0.0
H2148 H 0.29128 0.94653 0.43424 0.0
H2149 H 0.30154 1.00074 0.43426 0.0
H2150 H 0.24212 0.05784 0.45409 0.0
C2151 C 0.25319 0.16437 0.43979 0.0
C2152 C 0.2826 0.09088 0.43073 0.0
C2153 C 0.25636 0.1955 0.43793 0.0
C2154 C 0.27417 0.96165 0.43716 0.0
C2155 C 0.27992 0.99287 0.43706 0.0
C2156 C 0.25325 0.06669 0.44747 0.0
C2157 C 0.27649 0.144 0.43724 0.0
C2158 C 0.27227 0.11058 0.43828 0.0
C2159 C 0.25806 0.01362 0.44049 0.0
C2160 C 0.26347 0.04701 0.43987 0.0
H2161 H 0.32757 0.19486 0.42814 0.0
H2162 H 0.32219 0.14086 0.43141 0.0
H2163 H 0.24959 0.11252 0.45268 0.0
H2164 H 0.20336 0.96324 0.44727 0.0
H2165 H 0.21304 0.01742 0.44686 0.0
C2166 C 0.08089 0.97817 0.68312 0.0
C2167 C 0.06674 0.00556 0.68577 0.0
C2168 C 0.11243 0.97635 0.68236 0.0
C2169 C 0.1822 0.02283 0.67968 0.0
H2170 H 0.22107 0.95126 0.6905 0.0
C2171 C 0.31307 0.01139 0.68469 0.0
C2172 C 0.32567 0.98274 0.68276 0.0
C2173 C 0.28154 0.01548 0.68459 0.0
C2174 C 0.21062 0.97126 0.68733 0.0
H2175 H 0.07494 0.05275 0.6894 0.0
H2176 H 0.1299 0.04944 0.68825 0.0
H2177 H 0.16626 0.95567 0.69115 0.0
H2178 H 0.31511 0.93649 0.67857 0.0
H2179 H 0.26059 0.94357 0.67832 0.0
H2180 H 0.2268 0.03841 0.6759 0.0
C2181 C 0.11656 0.02939 0.68669 0.0
C2182 C 0.1791 0.97378 0.68769 0.0
C2183 C 0.085 0.0312 0.68747 0.0
C2184 C 0.30615 0.95866 0.68034 0.0
C2185 C 0.27482 0.96273 0.68021 0.0
C2186 C 0.21383 0.02031 0.67931 0.0
C2187 C 0.13073 0.00186 0.68422 0.0
C2188 C 0.16442 0.9995 0.68383 0.0
C2189 C 0.26201 0.991 0.68253 0.0
C2190 C 0.22843 0.99437 0.68307 0.0
H2191 H 0.06768 0.95789 0.68184 0.0
H2192 H 0.1225 0.95487 0.68031 0.0
H2193 H 0.17166 0.04285 0.67655 0.0
H2194 H 0.32748 0.03034 0.68663 0.0
H2195 H 0.27246 0.03754 0.68645 0.0
C2196 C 0.23462 0.83221 0.91883 0.0
C2197 C 0.24756 0.81182 0.92568 0.0
C2198 C 0.23756 0.86343 0.9202 0.0
C2199 C 0.25975 0.92285 0.93871 0.0
H2200 H 0.27413 0.96983 0.91459 0.0
C2201 C 0.30079 0.04808 0.93905 0.0
C2202 C 0.28613 0.06791 0.93238 0.0
C2203 C 0.29534 0.01685 0.93863 0.0
C2204 C 0.26987 0.9571 0.92139 0.0
H2205 H 0.27313 0.80813 0.93948 0.0
H2206 H 0.27885 0.86274 0.94183 0.0
H2207 H 0.26541 0.91559 0.9133 0.0
H2208 H 0.25456 0.07038 0.91995 0.0
H2209 H 0.24508 0.01601 0.91922 0.0
H2210 H 0.26494 0.9646 0.94678 0.0
C2211 C 0.2659 0.85466 0.93547 0.0
C2212 C 0.26473 0.92595 0.92066 0.0
C2213 C 0.26264 0.82334 0.93414 0.0
C2214 C 0.26598 0.05579 0.92526 0.0
C2215 C 0.26076 0.0246 0.92478 0.0
C2216 C 0.26516 0.95405 0.93944 0.0
C2217 C 0.2539 0.87512 0.92841 0.0
C2218 C 0.25939 0.90839 0.9293 0.0
C2219 C 0.27538 0.00475 0.93145 0.0
C2220 C 0.27011 0.97153 0.93078 0.0
H2221 H 0.22253 0.82391 0.91232 0.0
H2222 H 0.22728 0.87841 0.91475 0.0
H2223 H 0.25542 0.91018 0.94552 0.0
H2224 H 0.31622 0.05675 0.94467 0.0
H2225 H 0.3071 0.00211 0.94383 0.0
C2226 C 0.207 0.9834 0.18051 0.0
C2227 C 0.19683 0.00862 0.18598 0.0
C2228 C 0.23785 0.97598 0.18031 0.0
C2229 C 0.31029 0.98739 0.19371 0.0
H2230 H 0.34708 0.97599 0.16759 0.0
C2231 C 0.43979 0.99468 0.18771 0.0
C2232 C 0.45309 0.97709 0.18012 0.0
C2233 C 0.40831 0.99506 0.18896 0.0
C2234 C 0.33723 0.9785 0.17498 0.0
H2235 H 0.21072 0.04493 0.19589 0.0
H2236 H 0.26438 0.03188 0.19563 0.0
H2237 H 0.29243 0.9819 0.1689 0.0
H2238 H 0.444 0.94498 0.16823 0.0
H2239 H 0.38926 0.94487 0.17056 0.0
H2240 H 0.35495 0.98393 0.19982 0.0
C2241 C 0.24864 0.01792 0.19145 0.0
C2242 C 0.30582 0.98196 0.17571 0.0
C2243 C 0.21795 0.02557 0.19153 0.0
C2244 C 0.43433 0.95908 0.17405 0.0
C2245 C 0.40292 0.95917 0.17536 0.0
C2246 C 0.34168 0.98359 0.19299 0.0
C2247 C 0.25904 0.99333 0.18572 0.0
C2248 C 0.29204 0.9869 0.18507 0.0
C2249 C 0.38937 0.97759 0.18272 0.0
C2250 C 0.35568 0.97955 0.1836 0.0
H2251 H 0.19124 0.97006 0.17612 0.0
H2252 H 0.24518 0.95679 0.17587 0.0
H2253 H 0.30027 0.99081 0.20104 0.0
H2254 H 0.4536 0.00911 0.19243 0.0
H2255 H 0.39883 0.00991 0.19461 0.0
C2256 C 0.7909 0.96912 0.94476 0.0
C2257 C 0.77031 0.94905 0.94018 0.0
C2258 C 0.78577 1.00042 0.94472 0.0
C2259 C 0.74342 0.05971 0.93091 0.0
H2260 H 0.7657 0.11035 0.95352 0.0
C2261 C 0.7173 0.18729 0.93085 0.0
C2262 C 0.74044 0.20695 0.93403 0.0
C2263 C 0.71923 0.15612 0.93258 0.0
C2264 C 0.75957 0.09656 0.94712 0.0
H2265 H 0.72779 0.94662 0.93208 0.0
H2266 H 0.71852 1.001 0.9322 0.0
H2267 H 0.77193 0.05546 0.95463 0.0
H2268 H 0.78327 0.20926 0.9419 0.0
H2269 H 0.78672 0.1547 0.94496 0.0
H2270 H 0.73127 0.10068 0.92337 0.0
C2271 C 0.73894 0.99253 0.93571 0.0
C2272 C 0.76315 0.06505 0.94774 0.0
C2273 C 0.74409 0.9612 0.93574 0.0
C2274 C 0.76491 0.1948 0.93944 0.0
C2275 C 0.7669 0.16348 0.94117 0.0
C2276 C 0.73978 0.09114 0.9303 0.0
C2277 C 0.75986 0.01263 0.94011 0.0
C2278 C 0.7552 0.04617 0.93963 0.0
C2279 C 0.74443 0.14364 0.93752 0.0
C2280 C 0.74783 0.11004 0.93838 0.0
H2281 H 0.81112 0.96071 0.94838 0.0
H2282 H 0.80255 0.01509 0.94811 0.0
H2283 H 0.73762 0.04609 0.92444 0.0
H2284 H 0.69792 0.19599 0.9268 0.0
H2285 H 0.70112 0.1417 0.92989 0.0
C2286 C 0.80809 0.93283 0.679 0.0
C2287 C 0.82839 0.95734 0.67845 0.0
C2288 C 0.77693 0.93771 0.67998 0.0
C2289 C 0.72018 0.99621 0.68709 0.0
H2290 H 0.66482 0.94443 0.67239 0.0
C2291 C 0.59419 0.02614 0.68104 0.0
C2292 C 0.57255 0.00276 0.68129 0.0
C2293 C 0.6251 0.01971 0.68165 0.0
C2294 C 0.67991 0.95882 0.67667 0.0
H2295 H 0.83161 0.0063 0.67843 0.0
H2296 H 0.77724 0.01491 0.68001 0.0
H2297 H 0.71913 0.9354 0.67134 0.0
H2298 H 0.56652 0.95426 0.68264 0.0
H2299 H 0.62073 0.9429 0.68376 0.0
H2300 H 0.68089 0.01996 0.69226 0.0
C2301 C 0.78547 0.99182 0.67988 0.0
C2302 C 0.71114 0.95366 0.67606 0.0
C2303 C 0.81669 0.98691 0.67895 0.0
C2304 C 0.5826 0.97277 0.68247 0.0
C2305 C 0.61365 0.96628 0.68301 0.0
C2306 C 0.68896 1.00143 0.68766 0.0
C2307 C 0.76512 0.96727 0.68038 0.0
C2308 C 0.73175 0.9724 0.68122 0.0
C2309 C 0.63531 0.98967 0.68249 0.0
C2310 C 0.66842 0.98294 0.6824 0.0
H2311 H 0.8163 0.90975 0.67884 0.0
H2312 H 0.76213 0.91822 0.68053 0.0
H2313 H 0.73525 0.01076 0.69132 0.0
H2314 H 0.5872 0.04951 0.68026 0.0
H2315 H 0.64106 0.03828 0.68115 0.0
C2316 C 0.74038 0.04966 0.42991 0.0
C2317 C 0.74911 0.06199 0.43921 0.0
C2318 C 0.73735 0.01829 0.4287 0.0
C2319 C 0.76217 0.94547 0.43963 0.0
H2320 H 0.6948 0.91224 0.42459 0.0
C2321 C 0.73771 0.8163 0.43761 0.0
C2322 C 0.72703 0.80477 0.42844 0.0
C2323 C 0.7408 0.84761 0.43904 0.0
C2324 C 0.71399 0.92111 0.42871 0.0
H2325 H 0.76044 0.05067 0.45461 0.0
H2326 H 0.7554 0.99621 0.45246 0.0
H2327 H 0.69902 0.96687 0.42676 0.0
H2328 H 0.71258 0.81706 0.41344 0.0
H2329 H 0.7183 0.87132 0.41586 0.0
H2330 H 0.77731 0.89974 0.44151 0.0
C2331 C 0.75139 0.01078 0.44606 0.0
C2332 C 0.71636 0.95248 0.42996 0.0
C2333 C 0.75429 0.0421 0.44728 0.0
C2334 C 0.72025 0.82519 0.42067 0.0
C2335 C 0.72348 0.85637 0.42207 0.0
C2336 C 0.75988 0.91408 0.43834 0.0
C2337 C 0.74305 0.99846 0.43674 0.0
C2338 C 0.74049 0.96506 0.43543 0.0
C2339 C 0.73344 0.86807 0.43131 0.0
C2340 C 0.73579 0.90148 0.43284 0.0
H2341 H 0.73655 0.06411 0.42348 0.0
H2342 H 0.73118 0.00952 0.42139 0.0
H2343 H 0.78127 0.95444 0.44378 0.0
H2344 H 0.74286 0.80118 0.44377 0.0
H2345 H 0.74827 0.85579 0.44629 0.0
C2346 C 0.93017 0.96834 0.1835 0.0
C2347 C 0.95065 0.99203 0.18548 0.0
C2348 C 0.89921 0.97192 0.1852 0.0
C2349 C 0.84008 0.03086 0.18806 0.0
H2350 H 0.79129 0.96228 0.19642 0.0
C2351 C 0.71139 0.03946 0.19679 0.0
C2352 C 0.69282 0.01624 0.19298 0.0
C2353 C 0.74296 0.03734 0.19621 0.0
C2354 C 0.80456 0.98159 0.194 0.0
H2355 H 0.95438 0.0379 0.19113 0.0
H2356 H 0.9002 0.04396 0.19436 0.0
H2357 H 0.8461 0.95721 0.19551 0.0
H2358 H 0.69302 0.97255 0.18557 0.0
H2359 H 0.74812 0.96882 0.18456 0.0
H2360 H 0.7983 0.05524 0.18667 0.0
C2361 C 0.90818 0.02273 0.19128 0.0
C2362 C 0.83605 0.97871 0.19347 0.0
C2363 C 0.93933 0.01915 0.18954 0.0
C2364 C 0.70662 0.99093 0.18851 0.0
C2365 C 0.7382 0.98866 0.18802 0.0
C2366 C 0.80854 0.0338 0.18868 0.0
C2367 C 0.88765 0.99923 0.18903 0.0
C2368 C 0.85426 0.00315 0.19035 0.0
C2369 C 0.75677 0.01179 0.1919 0.0
C2370 C 0.79038 0.00908 0.19154 0.0
H2371 H 0.938 0.94691 0.18055 0.0
H2372 H 0.88425 0.9534 0.18325 0.0
H2373 H 0.85322 0.05007 0.1855 0.0
H2374 H 0.7015 0.05939 0.20019 0.0
H2375 H 0.75659 0.05547 0.19931 0.0
C2376 C 0.77801 0.82905 0.57669 0.0
C2377 C 0.75439 0.80798 0.57543 0.0
C2378 C 0.77232 0.86017 0.57654 0.0
C2379 C 0.71685 0.91847 0.56874 0.0
H2380 H 0.75713 0.96686 0.58903 0.0
C2381 C 0.68631 0.04442 0.57592 0.0
C2382 C 0.70989 0.06464 0.57833 0.0
C2383 C 0.69163 0.01323 0.57522 0.0
C2384 C 0.746 0.95384 0.58322 0.0
H2385 H 0.70624 0.80347 0.5727 0.0
H2386 H 0.69625 0.85799 0.57238 0.0
H2387 H 0.76628 0.91257 0.58827 0.0
H2388 H 0.75775 0.06745 0.58185 0.0
H2389 H 0.76717 0.01331 0.5804 0.0
H2390 H 0.69664 0.95983 0.56366 0.0
C2391 C 0.71928 0.85027 0.57347 0.0
C2392 C 0.75122 0.92261 0.58279 0.0
C2393 C 0.72499 0.81899 0.57364 0.0
C2394 C 0.73904 0.05275 0.57991 0.0
C2395 C 0.74438 0.02155 0.5792 0.0
C2396 C 0.7117 0.94978 0.56914 0.0
C2397 C 0.74283 0.87124 0.57509 0.0
C2398 C 0.7368 0.9045 0.57553 0.0
C2399 C 0.72072 1.00131 0.57689 0.0
C2400 C 0.72625 0.96793 0.57638 0.0
H2401 H 0.80105 0.8215 0.57784 0.0
H2402 H 0.79113 0.87561 0.57756 0.0
H2403 H 0.70562 0.90528 0.56298 0.0
H2404 H 0.66364 0.05263 0.57452 0.0
H2405 H 0.67276 0.99842 0.57354 0.0
C2406 C 0.71427 0.02538 0.31375 0.0
C2407 C 0.69328 0.01145 0.32023 0.0
C2408 C 0.74516 0.01871 0.31433 0.0
C2409 C 0.8029 0.9869 0.33167 0.0
H2410 H 0.85335 0.9881 0.30786 0.0
C2411 C 0.92953 0.95492 0.33308 0.0
C2412 C 0.9499 0.97426 0.32808 0.0
C2413 C 0.89829 0.95754 0.33163 0.0
C2414 C 0.83961 0.9879 0.31459 0.0
H2415 H 0.6888 0.97869 0.33226 0.0
H2416 H 0.74254 0.96633 0.33308 0.0
H2417 H 0.79877 0.995 0.30627 0.0
H2418 H 0.95297 0.01101 0.31732 0.0
H2419 H 0.89839 0.01529 0.31468 0.0
H2420 H 0.84379 0.97958 0.33996 0.0
C2421 C 0.73509 0.98305 0.32767 0.0
C2422 C 0.80825 0.99191 0.31369 0.0
C2423 C 0.7041 0.98987 0.32712 0.0
C2424 C 0.93811 0.99555 0.32125 0.0
C2425 C 0.90676 0.99805 0.31975 0.0
C2426 C 0.8342 0.98265 0.33255 0.0
C2427 C 0.75614 0.99764 0.32135 0.0
C2428 C 0.78943 0.99173 0.32223 0.0
C2429 C 0.88644 0.97942 0.32507 0.0
C2430 C 0.853 0.98328 0.32403 0.0
H2431 H 0.70697 0.04169 0.3082 0.0
H2432 H 0.7605 0.03073 0.3094 0.0
H2433 H 0.78939 0.98716 0.33845 0.0
H2434 H 0.93768 0.93779 0.33821 0.0
H2435 H 0.88337 0.94239 0.33568 0.0
C2436 C 0.70652 0.95578 0.06903 0.0
C2437 C 0.72856 0.93633 0.07312 0.0
C2438 C 0.71177 0.98698 0.06829 0.0
C2439 C 0.75817 0.04784 0.07951 0.0
H2440 H 0.73053 0.09509 0.05675 0.0
C2441 C 0.78382 0.17499 0.0773 0.0
C2442 C 0.76001 0.19415 0.07441 0.0
C2443 C 0.78185 0.1437 0.07586 0.0
C2444 C 0.73819 0.08228 0.06319 0.0
H2445 H 0.77366 0.93476 0.07951 0.0
H2446 H 0.78299 0.98902 0.0781 0.0
H2447 H 0.72357 0.04014 0.0568 0.0
H2448 H 0.71598 0.19568 0.06731 0.0
H2449 H 0.71226 0.14083 0.06484 0.0
H2450 H 0.7723 0.08976 0.08601 0.0
C2451 C 0.76145 0.98014 0.07556 0.0
C2452 C 0.7342 0.05074 0.06322 0.0
C2453 C 0.75623 0.94891 0.07627 0.0
C2454 C 0.73482 0.18149 0.06951 0.0
C2455 C 0.73271 0.15003 0.06813 0.0
C2456 C 0.76209 0.07927 0.07949 0.0
C2457 C 0.73919 0.99964 0.07164 0.0
C2458 C 0.74411 0.03312 0.0714 0.0
C2459 C 0.75583 0.13064 0.07157 0.0
C2460 C 0.75218 0.09698 0.07134 0.0
H2461 H 0.6851 0.94691 0.0664 0.0
H2462 H 0.694 1.00128 0.06532 0.0
H2463 H 0.76552 0.03516 0.08602 0.0
H2464 H 0.80363 0.1842 0.08099 0.0
H2465 H 0.80047 0.12966 0.07836 0.0
C2466 C 0.81603 0.99914 0.82525 0.0
C2467 C 0.8303 0.02519 0.82144 0.0
C2468 C 0.78433 0.99656 0.82513 0.0
C2469 C 0.715 0.04462 0.82329 0.0
H2470 H 0.67402 0.96758 0.82011 0.0
C2471 C 0.58399 0.03574 0.82146 0.0
C2472 C 0.5708 0.01278 0.82733 0.0
C2473 C 0.6154 0.03648 0.81989 0.0
C2474 C 0.68512 0.98927 0.82106 0.0
H2475 H 0.82256 0.06805 0.81399 0.0
H2476 H 0.76769 0.06334 0.81352 0.0
H2477 H 0.72911 0.96991 0.81889 0.0
H2478 H 0.58031 0.97185 0.83574 0.0
H2479 H 0.63482 0.97318 0.83303 0.0
H2480 H 0.67102 0.06395 0.82546 0.0
C2481 C 0.78069 0.04528 0.81693 0.0
C2482 C 0.71679 0.99061 0.82039 0.0
C2483 C 0.81224 0.04795 0.81714 0.0
C2484 C 0.5897 0.99009 0.8313 0.0
C2485 C 0.62099 0.99067 0.82965 0.0
C2486 C 0.68337 0.04331 0.82389 0.0
C2487 C 0.76615 0.01986 0.82111 0.0
C2488 C 0.73226 0.01829 0.82155 0.0
C2489 C 0.63435 0.01408 0.82404 0.0
C2490 C 0.66799 0.0156 0.82285 0.0
H2491 H 0.82928 0.98134 0.8287 0.0
H2492 H 0.77409 0.97675 0.8285 0.0
H2493 H 0.72594 0.0663 0.82444 0.0
H2494 H 0.57014 0.05361 0.81833 0.0
H2495 H 0.62488 0.05469 0.81543 0.0
C2496 C 0.73772 0.31641 0.57015 0.0
C2497 C 0.7633 0.30419 0.57496 0.0
C2498 C 0.73559 0.34769 0.56836 0.0
C2499 C 0.76476 0.42008 0.57833 0.0
H2500 H 0.7304 0.45504 0.55422 0.0
C2501 C 0.75888 0.55004 0.5728 0.0
C2502 C 0.73246 0.56184 0.56838 0.0
C2503 C 0.7644 0.51875 0.57284 0.0
C2504 C 0.73977 0.44569 0.56106 0.0
H2505 H 0.80754 0.31511 0.581 0.0
H2506 H 0.80383 0.36934 0.57792 0.0
H2507 H 0.73629 0.40018 0.5555 0.0
H2508 H 0.69183 0.54952 0.56016 0.0
H2509 H 0.70088 0.49541 0.56054 0.0
H2510 H 0.76763 0.46528 0.58402 0.0
C2511 C 0.78511 0.35494 0.57573 0.0
C2512 C 0.74319 0.41418 0.56177 0.0
C2513 C 0.78725 0.3238 0.57748 0.0
C2514 C 0.71215 0.54146 0.5638 0.0
C2515 C 0.71759 0.51025 0.56389 0.0
C2516 C 0.76117 0.45151 0.57765 0.0
C2517 C 0.75898 0.36742 0.57136 0.0
C2518 C 0.75571 0.40097 0.57043 0.0
C2519 C 0.74365 0.49835 0.56849 0.0
C2520 C 0.74854 0.46482 0.56902 0.0
H2521 H 0.71874 0.30206 0.56818 0.0
H2522 H 0.71508 0.35655 0.56502 0.0
H2523 H 0.774 0.41068 0.58518 0.0
H2524 H 0.77503 0.56483 0.57643 0.0
H2525 H 0.78497 0.51056 0.57632 0.0
C2526 C 0.69773 0.5385 0.81644 0.0
C2527 C 0.67651 0.51788 0.82037 0.0
C2528 C 0.72873 0.53462 0.81811 0.0
C2529 C 0.78563 0.47635 0.82416 0.0
H2530 H 0.8372 0.54539 0.82982 0.0
C2531 C 0.91244 0.46249 0.83412 0.0
C2532 C 0.93317 0.48435 0.83064 0.0
C2533 C 0.88123 0.46655 0.83294 0.0
C2534 C 0.82325 0.52589 0.82811 0.0
H2535 H 0.67142 0.47712 0.82925 0.0
H2536 H 0.72574 0.47031 0.83221 0.0
H2537 H 0.78276 0.55257 0.82803 0.0
H2538 H 0.93676 0.52764 0.82303 0.0
H2539 H 0.88246 0.53432 0.82072 0.0
H2540 H 0.82607 0.44969 0.82409 0.0
C2541 C 0.71827 0.48944 0.82778 0.0
C2542 C 0.79195 0.53001 0.82712 0.0
C2543 C 0.68713 0.49348 0.82617 0.0
C2544 C 0.92168 0.5102 0.82577 0.0
C2545 C 0.89039 0.51421 0.82456 0.0
C2546 C 0.81695 0.47224 0.8251 0.0
C2547 C 0.73948 0.5099 0.82372 0.0
C2548 C 0.77272 0.50531 0.82512 0.0
C2549 C 0.86969 0.49251 0.82817 0.0
C2550 C 0.83625 0.49695 0.82708 0.0
H2551 H 0.69036 0.55775 0.81205 0.0
H2552 H 0.74436 0.55069 0.81481 0.0
H2553 H 0.77158 0.4569 0.82246 0.0
H2554 H 0.92023 0.44206 0.83777 0.0
H2555 H 0.86614 0.44946 0.83593 0.0
C2556 C 0.77828 0.66922 0.08243 0.0
C2557 C 0.75924 0.69091 0.07789 0.0
C2558 C 0.77243 0.63821 0.08152 0.0
C2559 C 0.71167 0.58312 0.07691 0.0
H2560 H 0.7778 0.52778 0.07149 0.0
C2561 C 0.69038 0.4548 0.07178 0.0
C2562 C 0.71186 0.4345 0.07568 0.0
C2563 C 0.69644 0.48589 0.07132 0.0
C2564 C 0.75908 0.54279 0.07314 0.0
H2565 H 0.71876 0.69598 0.06878 0.0
H2566 H 0.70833 0.64188 0.0674 0.0
H2567 H 0.78737 0.58214 0.07209 0.0
H2568 H 0.7567 0.431 0.08212 0.0
H2569 H 0.76716 0.48529 0.08157 0.0
H2570 H 0.68349 0.54393 0.07826 0.0
C2571 C 0.72789 0.6492 0.07166 0.0
C2572 C 0.76459 0.57403 0.07344 0.0
C2573 C 0.73391 0.68035 0.07248 0.0
C2574 C 0.73983 0.446 0.07897 0.0
C2575 C 0.74579 0.4772 0.07862 0.0
C2576 C 0.70621 0.55185 0.07671 0.0
C2577 C 0.74718 0.62776 0.07614 0.0
C2578 C 0.74099 0.5946 0.07538 0.0
C2579 C 0.72407 0.49768 0.07487 0.0
C2580 C 0.72985 0.53116 0.07486 0.0
H2581 H 0.79771 0.67591 0.08682 0.0
H2582 H 0.78747 0.62237 0.08521 0.0
H2583 H 0.69307 0.59829 0.07855 0.0
H2584 H 0.66882 0.4466 0.06904 0.0
H2585 H 0.67939 0.50067 0.06815 0.0
C2586 C 0.81539 0.50797 0.32844 0.0
C2587 C 0.82808 0.50743 0.31875 0.0
C2588 C 0.78391 0.50918 0.32975 0.0
C2589 C 0.71233 0.52709 0.31606 0.0
H2590 H 0.67482 0.48093 0.33746 0.0
C2591 C 0.58271 0.51036 0.31847 0.0
C2592 C 0.5696 0.51576 0.3279 0.0
C2593 C 0.6142 0.50818 0.31746 0.0
C2594 C 0.68499 0.49407 0.33148 0.0
H2595 H 0.81711 0.50874 0.30287 0.0
H2596 H 0.76283 0.50968 0.30515 0.0
H2597 H 0.72981 0.48049 0.33562 0.0
H2598 H 0.5791 0.52177 0.34372 0.0
H2599 H 0.634 0.51776 0.34198 0.0
H2600 H 0.66744 0.54027 0.31184 0.0
C2601 C 0.77706 0.5096 0.31176 0.0
C2602 C 0.71655 0.49397 0.33045 0.0
C2603 C 0.8084 0.5086 0.31045 0.0
C2604 C 0.58858 0.51788 0.33634 0.0
C2605 C 0.62 0.51536 0.33536 0.0
C2606 C 0.68081 0.52695 0.31704 0.0
C2607 C 0.76429 0.50983 0.32142 0.0
C2608 C 0.73068 0.51045 0.32271 0.0
C2609 C 0.63322 0.51098 0.32588 0.0
C2610 C 0.66675 0.51045 0.32475 0.0
H2611 H 0.82966 0.50693 0.33502 0.0
H2612 H 0.77498 0.50974 0.33731 0.0
H2613 H 0.7223 0.54058 0.31014 0.0
H2614 H 0.56873 0.50887 0.31181 0.0
H2615 H 0.62369 0.5045 0.31006 0.0
C2616 C 0.81353 0.46805 0.93349 0.0
C2617 C 0.79004 0.44698 0.93197 0.0
C2618 C 0.80737 0.49903 0.93437 0.0
C2619 C 0.74924 0.55636 0.92797 0.0
H2620 H 0.79476 0.60728 0.94627 0.0
C2621 C 0.71904 0.68232 0.93367 0.0
C2622 C 0.74296 0.70334 0.93423 0.0
C2623 C 0.72461 0.65116 0.93401 0.0
C2624 C 0.78204 0.59346 0.94105 0.0
H2625 H 0.74145 0.44229 0.9303 0.0
H2626 H 0.73061 0.49625 0.93202 0.0
H2627 H 0.80425 0.55283 0.94585 0.0
H2628 H 0.79158 0.70772 0.93581 0.0
H2629 H 0.80137 0.65325 0.93639 0.0
H2630 H 0.72714 0.59692 0.92312 0.0
C2631 C 0.75393 0.4888 0.93241 0.0
C2632 C 0.78747 0.56217 0.94081 0.0
C2633 C 0.7601 0.45774 0.93155 0.0
C2634 C 0.77259 0.69227 0.93544 0.0
C2635 C 0.77819 0.66098 0.93577 0.0
C2636 C 0.7438 0.5876 0.92821 0.0
C2637 C 0.77752 0.50992 0.93375 0.0
C2638 C 0.77118 0.54318 0.93425 0.0
C2639 C 0.75428 0.63999 0.93492 0.0
C2640 C 0.76013 0.60662 0.93475 0.0
H2641 H 0.83682 0.46062 0.93398 0.0
H2642 H 0.82617 0.51453 0.9353 0.0
H2643 H 0.73664 0.54264 0.92268 0.0
H2644 H 0.69587 0.68993 0.93297 0.0
H2645 H 0.70555 0.63577 0.93357 0.0
C2646 C 0.78973 0.5198 0.17768 0.0
C2647 C 0.80126 0.50788 0.18666 0.0
C2648 C 0.75842 0.5221 0.17623 0.0
C2649 C 0.6851 0.52654 0.18869 0.0
H2650 H 0.65447 0.47813 0.16666 0.0
C2651 C 0.5585 0.49443 0.18568 0.0
C2652 C 0.54603 0.48923 0.17616 0.0
C2653 C 0.58951 0.50015 0.18675 0.0
C2654 C 0.66241 0.4924 0.17271 0.0
H2655 H 0.78964 0.49054 0.20133 0.0
H2656 H 0.73484 0.49555 0.19896 0.0
H2657 H 0.70877 0.4843 0.1688 0.0
H2658 H 0.55552 0.4874 0.16027 0.0
H2659 H 0.60918 0.49897 0.16199 0.0
H2660 H 0.63897 0.53532 0.19254 0.0
C2661 C 0.74993 0.50274 0.19301 0.0
C2662 C 0.69364 0.49576 0.17395 0.0
C2663 C 0.78114 0.49977 0.19435 0.0
C2664 C 0.56481 0.49085 0.1677 0.0
C2665 C 0.59562 0.4973 0.16873 0.0
C2666 C 0.65381 0.52376 0.18734 0.0
C2667 C 0.73828 0.51323 0.18385 0.0
C2668 C 0.70525 0.51247 0.18203 0.0
C2669 C 0.6086 0.50151 0.17828 0.0
C2670 C 0.64196 0.50622 0.17941 0.0
H2671 H 0.80489 0.52591 0.17162 0.0
H2672 H 0.74989 0.53024 0.1691 0.0
H2673 H 0.6936 0.53962 0.19497 0.0
H2674 H 0.5444 0.49308 0.19231 0.0
H2675 H 0.59852 0.50269 0.19426 0.0
C2676 C 0.73444 0.31566 0.43471 0.0
C2677 C 0.72062 0.30261 0.42626 0.0
C2678 C 0.73447 0.34712 0.43605 0.0
C2679 C 0.72505 0.4186 0.4215 0.0
H2680 H 0.72621 0.45525 0.44793 0.0
C2681 C 0.72477 0.54867 0.4275 0.0
C2682 C 0.74708 0.55959 0.4341 0.0
C2683 C 0.71867 0.51759 0.42686 0.0
C2684 C 0.72597 0.44531 0.4405 0.0
H2685 H 0.69471 0.31209 0.41285 0.0
H2686 H 0.69371 0.36684 0.41532 0.0
H2687 H 0.71973 0.40057 0.44632 0.0
H2688 H 0.77969 0.54663 0.44545 0.0
H2689 H 0.76885 0.49241 0.44442 0.0
H2690 H 0.73099 0.46351 0.41572 0.0
C2691 C 0.70547 0.353 0.42077 0.0
C2692 C 0.7224 0.41391 0.43956 0.0
C2693 C 0.70582 0.32159 0.41938 0.0
C2694 C 0.76257 0.53885 0.44023 0.0
C2695 C 0.75618 0.50785 0.43971 0.0
C2696 C 0.72823 0.45 0.42244 0.0
C2697 C 0.72034 0.36632 0.42902 0.0
C2698 C 0.72226 0.40002 0.43005 0.0
C2699 C 0.73442 0.49682 0.43293 0.0
C2700 C 0.72909 0.46367 0.43195 0.0
H2701 H 0.74642 0.30166 0.44007 0.0
H2702 H 0.74659 0.35638 0.44241 0.0
H2703 H 0.72569 0.40886 0.41405 0.0
H2704 H 0.71263 0.56408 0.42263 0.0
H2705 H 0.70167 0.50977 0.42161 0.0
C2706 C 0.72661 0.4814 0.67553 0.0
C2707 C 0.71288 0.49754 0.68337 0.0
C2708 C 0.75795 0.47649 0.67556 0.0
C2709 C 0.82816 0.50758 0.68713 0.0
H2710 H 0.86553 0.43685 0.67518 0.0
C2711 C 0.9571 0.48677 0.68875 0.0
C2712 C 0.97065 0.48052 0.67944 0.0
C2713 C 0.92558 0.48615 0.68977 0.0
C2714 C 0.85534 0.45673 0.67853 0.0
H2715 H 0.72047 0.51941 0.69767 0.0
H2716 H 0.7747 0.50987 0.69799 0.0
H2717 H 0.81038 0.44014 0.6761 0.0
H2718 H 0.96198 0.46738 0.66405 0.0
H2719 H 0.90695 0.46603 0.66584 0.0
H2720 H 0.87315 0.52394 0.68965 0.0
C2721 C 0.7618 0.50206 0.69158 0.0
C2722 C 0.82375 0.45873 0.67902 0.0
C2723 C 0.73069 0.50739 0.69145 0.0
C2724 C 0.95212 0.47265 0.67127 0.0
C2725 C 0.92067 0.4716 0.67232 0.0
C2726 C 0.85966 0.50538 0.68676 0.0
C2727 C 0.77605 0.48723 0.68352 0.0
C2728 C 0.8097 0.4843 0.68327 0.0
C2729 C 0.90705 0.47878 0.68154 0.0
C2730 C 0.87359 0.48006 0.6824 0.0
H2731 H 0.7133 0.47374 0.6692 0.0
H2732 H 0.76805 0.46524 0.66917 0.0
H2733 H 0.81833 0.52798 0.69024 0.0
H2734 H 0.97084 0.49302 0.69515 0.0
H2735 H 0.91566 0.49161 0.69697 0.0
C2736 C 0.29994 0.68438 0.43649 0.0
C2737 C 0.27534 0.70461 0.43665 0.0
C2738 C 0.29527 0.65309 0.4365 0.0
C2739 C 0.23923 0.59295 0.44195 0.0
H2740 H 0.28755 0.54622 0.42324 0.0
C2741 C 0.21261 0.46765 0.43268 0.0
C2742 C 0.23681 0.44763 0.4309 0.0
C2743 C 0.21769 0.49868 0.43395 0.0
C2744 C 0.27417 0.55877 0.42862 0.0
H2745 H 0.22641 0.70748 0.43728 0.0
H2746 H 0.21819 0.65264 0.43736 0.0
H2747 H 0.29522 0.60067 0.42455 0.0
H2748 H 0.28553 0.4449 0.4292 0.0
H2749 H 0.29451 0.49892 0.43167 0.0
H2750 H 0.21823 0.551 0.44604 0.0
C2751 C 0.24118 0.66116 0.43725 0.0
C2752 C 0.27853 0.59008 0.42936 0.0
C2753 C 0.24588 0.69262 0.43722 0.0
C2754 C 0.26635 0.45951 0.43062 0.0
C2755 C 0.27145 0.49062 0.43192 0.0
C2756 C 0.23496 0.56156 0.44125 0.0
C2757 C 0.26584 0.64102 0.4367 0.0
C2758 C 0.2611 0.60761 0.43602 0.0
C2759 C 0.24715 0.51068 0.43353 0.0
C2760 C 0.25231 0.54402 0.43455 0.0
H2761 H 0.32297 0.69273 0.43631 0.0
H2762 H 0.3148 0.63829 0.43632 0.0
H2763 H 0.22569 0.60569 0.44724 0.0
H2764 H 0.18959 0.4594 0.43311 0.0
H2765 H 0.19834 0.51335 0.43507 0.0
C2766 C 0.05826 0.51313 0.19019 0.0
C2767 C 0.04606 0.51608 0.18052 0.0
C2768 C 0.08937 0.50856 0.19149 0.0
C2769 C 0.1582 0.48073 0.17967 0.0
H2770 H 0.20003 0.54456 0.19404 0.0
C2771 C 0.28789 0.49654 0.17691 0.0
C2772 C 0.30321 0.51047 0.18488 0.0
C2773 C 0.25634 0.49364 0.17713 0.0
C2774 C 0.18888 0.52603 0.19022 0.0
H2775 H 0.05617 0.5151 0.16464 0.0
H2776 H 0.11049 0.50616 0.16689 0.0
H2777 H 0.14506 0.54452 0.19337 0.0
H2778 H 0.2983 0.53059 0.19956 0.0
H2779 H 0.24359 0.524 0.20031 0.0
H2780 H 0.20175 0.46173 0.17666 0.0
C2781 C 0.0961 0.50779 0.17345 0.0
C2782 C 0.1573 0.5262 0.1898 0.0
C2783 C 0.06519 0.51309 0.17216 0.0
C2784 C 0.28677 0.52016 0.19327 0.0
C2785 C 0.25538 0.51658 0.19363 0.0
C2786 C 0.18983 0.48014 0.18028 0.0
C2787 C 0.10855 0.50607 0.18312 0.0
C2788 C 0.14173 0.50385 0.18439 0.0
C2789 C 0.23954 0.50399 0.18545 0.0
C2790 C 0.2057 0.5031 0.18541 0.0
H2791 H 0.0439 0.51553 0.19673 0.0
H2792 H 0.09854 0.50732 0.19902 0.0
H2793 H 0.14659 0.46318 0.17549 0.0
H2794 H 0.30022 0.48914 0.17033 0.0
H2795 H 0.24515 0.48426 0.17061 0.0
C2796 C 0.22428 0.33127 0.92541 0.0
C2797 C 0.24751 0.31135 0.92838 0.0
C2798 C 0.22744 0.36255 0.92656 0.0
C2799 C 0.26753 0.42133 0.94075 0.0
H2800 H 0.24647 0.47272 0.9182 0.0
C2801 C 0.28911 0.55032 0.94163 0.0
C2802 C 0.26756 0.5694 0.93713 0.0
C2803 C 0.28757 0.51892 0.94038 0.0
C2804 C 0.25206 0.45881 0.92463 0.0
H2805 H 0.29214 0.30927 0.93518 0.0
H2806 H 0.29728 0.36395 0.93739 0.0
H2807 H 0.24184 0.41791 0.91667 0.0
H2808 H 0.22748 0.57046 0.9278 0.0
H2809 H 0.22424 0.5156 0.92578 0.0
H2810 H 0.27705 0.4621 0.94882 0.0
C2811 C 0.27667 0.35509 0.9341 0.0
C2812 C 0.24951 0.42735 0.92373 0.0
C2813 C 0.27365 0.32369 0.93285 0.0
C2814 C 0.24459 0.55637 0.93126 0.0
C2815 C 0.24283 0.52488 0.9301 0.0
C2816 C 0.26979 0.45284 0.9417 0.0
C2817 C 0.25374 0.37486 0.93084 0.0
C2818 C 0.25715 0.40826 0.93178 0.0
C2819 C 0.26422 0.50568 0.93469 0.0
C2820 C 0.26205 0.47205 0.93365 0.0
H2821 H 0.20347 0.32282 0.92218 0.0
H2822 H 0.20912 0.37715 0.92416 0.0
H2823 H 0.27326 0.40722 0.94712 0.0
H2824 H 0.30737 0.55973 0.94606 0.0
H2825 H 0.30487 0.50506 0.94384 0.0
C2826 C 0.45707 0.48254 0.68862 0.0
C2827 C 0.46758 0.48416 0.6787 0.0
C2828 C 0.42595 0.48334 0.69063 0.0
C2829 C 0.35253 0.47004 0.67764 0.0
H2830 H 0.318 0.50347 0.70197 0.0
C2831 C 0.22401 0.48091 0.68335 0.0
C2832 C 0.2127 0.46837 0.69228 0.0
C2833 C 0.2551 0.48519 0.68206 0.0
C2834 C 0.32743 0.49398 0.69516 0.0
H2835 H 0.45441 0.49005 0.6632 0.0
H2836 H 0.4004 0.49296 0.66666 0.0
H2837 H 0.37248 0.5078 0.69897 0.0
H2838 H 0.22487 0.4515 0.707 0.0
H2839 H 0.27942 0.45934 0.70479 0.0
H2840 H 0.30743 0.45677 0.67376 0.0
C2841 C 0.41577 0.48966 0.6729 0.0
C2842 C 0.35864 0.49633 0.69345 0.0
C2843 C 0.44671 0.48826 0.67089 0.0
C2844 C 0.23305 0.46099 0.70001 0.0
C2845 C 0.26416 0.46569 0.69878 0.0
C2846 C 0.32141 0.46813 0.67928 0.0
C2847 C 0.40484 0.48628 0.68275 0.0
C2848 C 0.37161 0.48439 0.68465 0.0
C2849 C 0.27549 0.47739 0.68973 0.0
C2850 C 0.30854 0.48004 0.68805 0.0
H2851 H 0.47285 0.4792 0.69474 0.0
H2852 H 0.41846 0.48045 0.6983 0.0
H2853 H 0.36163 0.45977 0.67091 0.0
H2854 H 0.20892 0.48652 0.67723 0.0
H2855 H 0.26325 0.49439 0.67503 0.0
C2856 C 0.22055 0.31077 0.07135 0.0
C2857 C 0.24671 0.29866 0.07586 0.0
C2858 C 0.2173 0.3421 0.07012 0.0
C2859 C 0.24403 0.41486 0.0803 0.0
H2860 H 0.21578 0.44833 0.05511 0.0
C2861 C 0.24829 0.54334 0.07196 0.0
C2862 C 0.22482 0.55598 0.06622 0.0
C2863 C 0.25021 0.51196 0.0733 0.0
C2864 C 0.22325 0.4394 0.06225 0.0
H2865 H 0.29039 0.31047 0.08227 0.0
H2866 H 0.28439 0.36479 0.08027 0.0
H2867 H 0.22016 0.39359 0.05703 0.0
H2868 H 0.18435 0.54571 0.05769 0.0
H2869 H 0.18723 0.49114 0.06018 0.0
H2870 H 0.24681 0.4605 0.08561 0.0
C2871 C 0.26625 0.35002 0.07782 0.0
C2872 C 0.22584 0.40799 0.06333 0.0
C2873 C 0.26963 0.31877 0.07897 0.0
C2874 C 0.20297 0.53661 0.06202 0.0
C2875 C 0.20471 0.50529 0.06343 0.0
C2876 C 0.24121 0.44625 0.07926 0.0
C2877 C 0.24001 0.36207 0.07342 0.0
C2878 C 0.23644 0.39539 0.07235 0.0
C2879 C 0.22852 0.49248 0.069 0.0
C2880 C 0.23094 0.45898 0.0702 0.0
H2881 H 0.20226 0.2962 0.06895 0.0
H2882 H 0.19671 0.35075 0.06677 0.0
H2883 H 0.25186 0.40579 0.0874 0.0
H2884 H 0.26568 0.55763 0.07518 0.0
H2885 H 0.26913 0.50296 0.07752 0.0
C2886 C 0.41452 0.48355 0.83865 0.0
C2887 C 0.43454 0.48825 0.8306 0.0
C2888 C 0.38338 0.48066 0.83702 0.0
C2889 C 0.32509 0.50378 0.81883 0.0
H2890 H 0.27235 0.45515 0.83563 0.0
C2891 C 0.19862 0.53103 0.82286 0.0
C2892 C 0.17754 0.50713 0.8231 0.0
C2893 C 0.22969 0.52534 0.82326 0.0
C2894 C 0.28673 0.46863 0.83079 0.0
H2895 H 0.43751 0.49212 0.81442 0.0
H2896 H 0.38314 0.48657 0.81152 0.0
H2897 H 0.32721 0.44912 0.83687 0.0
H2898 H 0.17293 0.45836 0.82413 0.0
H2899 H 0.22743 0.44836 0.82488 0.0
H2900 H 0.28475 0.52335 0.81276 0.0
C2901 C 0.39154 0.48556 0.81915 0.0
C2902 C 0.31822 0.46539 0.83156 0.0
C2903 C 0.42278 0.48838 0.82079 0.0
C2904 C 0.18846 0.47731 0.82399 0.0
C2905 C 0.21972 0.47159 0.82441 0.0
C2906 C 0.29368 0.50705 0.81807 0.0
C2907 C 0.37135 0.4824 0.82726 0.0
C2908 C 0.33785 0.4833 0.82571 0.0
C2909 C 0.24073 0.49556 0.82392 0.0
C2910 C 0.27407 0.48997 0.82417 0.0
H2911 H 0.42288 0.48298 0.84628 0.0
H2912 H 0.36864 0.47849 0.84347 0.0
H2913 H 0.33937 0.51819 0.81426 0.0
H2914 H 0.19117 0.55432 0.82244 0.0
H2915 H 0.2451 0.54443 0.82314 0.0
C2916 C 0.21793 0.46649 0.55977 0.0
C2917 C 0.22113 0.44555 0.56768 0.0
C2918 C 0.21838 0.49767 0.5616 0.0
C2919 C 0.20722 0.55532 0.58122 0.0
H2920 H 0.2568 0.60586 0.56398 0.0
C2921 C 0.22735 0.681 0.59053 0.0
C2922 C 0.2279 0.70201 0.58261 0.0
C2923 C 0.22764 0.64989 0.58863 0.0
C2924 C 0.24251 0.59222 0.56879 0.0
H2925 H 0.22646 0.44154 0.58381 0.0
H2926 H 0.22661 0.49596 0.587 0.0
H2927 H 0.25383 0.55147 0.5609 0.0
H2928 H 0.22983 0.70687 0.56648 0.0
H2929 H 0.22972 0.65236 0.56307 0.0
H2930 H 0.19536 0.59592 0.58901 0.0
C2931 C 0.22386 0.48806 0.57936 0.0
C2932 C 0.24087 0.56097 0.56704 0.0
C2933 C 0.22367 0.45678 0.57753 0.0
C2934 C 0.22963 0.69118 0.57272 0.0
C2935 C 0.22958 0.65992 0.57079 0.0
C2936 C 0.20863 0.58657 0.58293 0.0
C2937 C 0.2217 0.50887 0.5714 0.0
C2938 C 0.22328 0.54213 0.57325 0.0
C2939 C 0.22812 0.63883 0.57873 0.0
C2940 C 0.22643 0.60549 0.57677 0.0
H2941 H 0.21523 0.45884 0.55211 0.0
H2942 H 0.21603 0.51306 0.55532 0.0
H2943 H 0.19312 0.54153 0.58605 0.0
H2944 H 0.22658 0.68868 0.59824 0.0
H2945 H 0.22739 0.63451 0.59495 0.0
C2946 C 0.08266 0.50561 0.32142 0.0
C2947 C 0.07158 0.51235 0.33105 0.0
C2948 C 0.11387 0.50516 0.31954 0.0
C2949 C 0.18761 0.5322 0.32939 0.0
H2950 H 0.22049 0.46635 0.31355 0.0
C2951 C 0.31695 0.51409 0.32512 0.0
C2952 C 0.3276 0.50585 0.31555 0.0
C2953 C 0.28585 0.51419 0.32722 0.0
C2954 C 0.21171 0.48511 0.3179 0.0
H2955 H 0.08469 0.52486 0.34616 0.0
H2956 H 0.13898 0.52392 0.34292 0.0
H2957 H 0.16612 0.46908 0.3165 0.0
H2958 H 0.31361 0.49015 0.30084 0.0
H2959 H 0.25974 0.49104 0.3044 0.0
H2960 H 0.23313 0.5484 0.33072 0.0
C2961 C 0.12359 0.51902 0.3368 0.0
C2962 C 0.18048 0.48667 0.31958 0.0
C2963 C 0.09244 0.51928 0.33869 0.0
C2964 C 0.30634 0.49707 0.30824 0.0
C2965 C 0.27533 0.49721 0.31033 0.0
C2966 C 0.21885 0.53071 0.32767 0.0
C2967 C 0.13474 0.51165 0.32723 0.0
C2968 C 0.168 0.51024 0.32534 0.0
C2969 C 0.26459 0.50601 0.31982 0.0
C2970 C 0.23135 0.50717 0.32189 0.0
H2971 H 0.06729 0.4999 0.31538 0.0
H2972 H 0.12166 0.49972 0.31205 0.0
H2973 H 0.17875 0.55087 0.33376 0.0
H2974 H 0.33252 0.52117 0.33093 0.0
H2975 H 0.27848 0.5207 0.33466 0.0
C2976 C 0.59159 0.24697 0.0625 0.0
C2977 C 0.60859 0.24412 0.07139 0.0
C2978 C 0.56339 0.23293 0.0616 0.0
C2979 C 0.49976 0.21145 0.07677 0.0
H2980 H 0.47354 0.1631 0.05407 0.0
C2981 C 0.38006 0.16348 0.07595 0.0
C2982 C 0.36418 0.16426 0.06679 0.0
C2983 C 0.4112 0.16827 0.07624 0.0
C2984 C 0.4804 0.17682 0.06041 0.0
H2985 H 0.60975 0.22285 0.08609 0.0
H2986 H 0.55995 0.19942 0.08461 0.0
H2987 H 0.5259 0.18114 0.05492 0.0
H2988 H 0.36946 0.16908 0.05067 0.0
H2989 H 0.42348 0.17954 0.05127 0.0
H2990 H 0.45441 0.20886 0.08208 0.0
C2991 C 0.56864 0.21256 0.07837 0.0
C2992 C 0.51038 0.18696 0.0609 0.0
C2993 C 0.59701 0.22621 0.07924 0.0
C2994 C 0.38068 0.16892 0.05789 0.0
C2995 C 0.41186 0.17445 0.05822 0.0
C2996 C 0.46979 0.20183 0.0762 0.0
C2997 C 0.55146 0.21612 0.0696 0.0
C2998 C 0.52024 0.20429 0.06911 0.0
C2999 C 0.42736 0.17492 0.06744 0.0
C3000 C 0.45967 0.18429 0.06804 0.0
H3001 H 0.59957 0.26088 0.05636 0.0
H3002 H 0.55036 0.23624 0.0548 0.0
H3003 H 0.50673 0.22528 0.08308 0.0
H3004 H 0.36846 0.16051 0.08303 0.0
H3005 H 0.42243 0.1676 0.08346 0.0
C3006 C 0.97066 0.36045 0.30768 0.0
C3007 C 0.97318 0.37438 0.31712 0.0
C3008 C 0.97655 0.3295 0.30664 0.0
C3009 C 0.97138 0.25991 0.30961 0.0
H3010 H 0.04665 0.22893 0.32056 0.0
C3011 C 0.9952 0.13379 0.31884 0.0
C3012 C 0.02365 0.12253 0.31599 0.0
C3013 C 0.98837 0.16445 0.31758 0.0
C3014 C 0.02567 0.23731 0.31739 0.0
H3015 H 0.98423 0.36742 0.33279 0.0
H3016 H 0.99506 0.31346 0.33092 0.0
H3017 H 0.03636 0.28324 0.32112 0.0
H3018 H 0.06707 0.13425 0.30945 0.0
H3019 H 0.05518 0.18783 0.30732 0.0
H3020 H 0.96038 0.21372 0.30615 0.0
C3021 C 0.98829 0.32635 0.32438 0.0
C3022 C 0.01973 0.26827 0.31777 0.0
C3023 C 0.98193 0.35707 0.32545 0.0
C3024 C 0.04486 0.14228 0.31163 0.0
C3025 C 0.03817 0.17292 0.31048 0.0
C3026 C 0.97714 0.22879 0.30937 0.0
C3027 C 0.98561 0.31232 0.31497 0.0
C3028 C 0.99247 0.27978 0.31396 0.0
C3029 C 0.01005 0.18434 0.31357 0.0
C3030 C 0.00428 0.21726 0.31331 0.0
H3031 H 0.96384 0.37343 0.30116 0.0
H3032 H 0.97446 0.31909 0.29931 0.0
H3033 H 0.95013 0.26835 0.30668 0.0
H3034 H 0.97843 0.11896 0.32217 0.0
H3035 H 0.9666 0.17282 0.32008 0.0
C3036 C 0.08609 0.80822 0.57878 0.0
C3037 C 0.10379 0.81576 0.57038 0.0
C3038 C 0.05705 0.79629 0.57756 0.0
C3039 C 0.01281 0.75203 0.55962 0.0
H3040 H 0.94574 0.77209 0.57714 0.0
C3041 C 0.89235 0.7003 0.5556 0.0
C3042 C 0.87652 0.69423 0.56454 0.0
C3043 C 0.92046 0.7149 0.55586 0.0
C3044 C 0.96437 0.76597 0.57227 0.0
H3045 H 0.10407 0.81848 0.55412 0.0
H3046 H 0.05332 0.7974 0.55201 0.0
H3047 H 0.99271 0.80082 0.57831 0.0
H3048 H 0.87861 0.69782 0.58079 0.0
H3049 H 0.92786 0.72194 0.58123 0.0
H3050 H 0.98462 0.7168 0.5537 0.0
C3051 C 0.06217 0.80037 0.55952 0.0
C3052 C 0.99119 0.78255 0.57291 0.0
C3053 C 0.09117 0.8125 0.56074 0.0
C3054 C 0.89021 0.70166 0.57375 0.0
C3055 C 0.91828 0.71608 0.574 0.0
C3056 C 0.98597 0.73534 0.55901 0.0
C3057 C 0.04512 0.7915 0.56792 0.0
C3058 C 0.01581 0.77556 0.56667 0.0
C3059 C 0.93331 0.72369 0.56507 0.0
C3060 C 0.96159 0.74187 0.56542 0.0
H3061 H 0.09523 0.8099 0.5863 0.0
H3062 H 0.04457 0.78939 0.58417 0.0
H3063 H 0.03156 0.74587 0.55481 0.0
H3064 H 0.88257 0.69465 0.54839 0.0
H3065 H 0.93149 0.72043 0.54884 0.0
C3066 C 0.43968 0.87818 0.80849 0.0
C3067 C 0.44974 0.89487 0.81683 0.0
C3068 C 0.44766 0.84769 0.80743 0.0
C3069 C 0.45421 0.77924 0.81078 0.0
H3070 H 0.53617 0.75636 0.81798 0.0
C3071 C 0.48817 0.65684 0.82016 0.0
C3072 C 0.51678 0.64652 0.8171 0.0
C3073 C 0.47993 0.68702 0.81877 0.0
C3074 C 0.51334 0.76237 0.8158 0.0
H3075 H 0.47626 0.89278 0.83054 0.0
H3076 H 0.48941 0.83973 0.82882 0.0
H3077 H 0.52195 0.80956 0.8179 0.0
H3078 H 0.55891 0.65944 0.80994 0.0
H3079 H 0.54451 0.71231 0.80749 0.0
H3080 H 0.44565 0.73192 0.80868 0.0
C3081 C 0.47565 0.85015 0.82305 0.0
C3082 C 0.50509 0.79282 0.81587 0.0
C3083 C 0.46769 0.88045 0.82411 0.0
C3084 C 0.53688 0.66691 0.81251 0.0
C3085 C 0.52861 0.69711 0.81109 0.0
C3086 C 0.46248 0.74871 0.8107 0.0
C3087 C 0.46602 0.83353 0.81466 0.0
C3088 C 0.47529 0.8015 0.81357 0.0
C3089 C 0.50011 0.70752 0.81426 0.0
C3090 C 0.49198 0.73994 0.81339 0.0
H3091 H 0.42572 0.88868 0.80279 0.0
H3092 H 0.43998 0.83538 0.80088 0.0
H3093 H 0.43107 0.78529 0.809 0.0
H3094 H 0.47236 0.64172 0.82385 0.0
H3095 H 0.45805 0.69447 0.82147 0.0
C3096 C 0.58902 0.69337 0.43768 0.0
C3097 C 0.60867 0.68715 0.44572 0.0
C3098 C 0.5602 0.70505 0.43943 0.0
C3099 C 0.51997 0.75203 0.45748 0.0
H3100 H 0.4506 0.73138 0.44102 0.0
C3101 C 0.40201 0.81151 0.4598 0.0
C3102 C 0.38814 0.81741 0.45049 0.0
C3103 C 0.42893 0.79484 0.46027 0.0
C3104 C 0.46984 0.7375 0.44564 0.0
H3105 H 0.61259 0.68653 0.46195 0.0
H3106 H 0.56215 0.70737 0.46499 0.0
H3107 H 0.49607 0.70031 0.44018 0.0
H3108 H 0.39243 0.81122 0.43438 0.0
H3109 H 0.43949 0.78329 0.43521 0.0
H3110 H 0.49381 0.78971 0.46276 0.0
C3111 C 0.56934 0.70341 0.45734 0.0
C3112 C 0.4958 0.71964 0.44518 0.0
C3113 C 0.59816 0.69147 0.45558 0.0
C3114 C 0.40261 0.80764 0.44167 0.0
C3115 C 0.42935 0.79106 0.44215 0.0
C3116 C 0.49391 0.76995 0.45794 0.0
C3117 C 0.55036 0.71096 0.44926 0.0
C3118 C 0.52141 0.72715 0.4509 0.0
C3119 C 0.44229 0.78367 0.45145 0.0
C3120 C 0.46891 0.76331 0.45181 0.0
H3121 H 0.59644 0.69098 0.42998 0.0
H3122 H 0.54628 0.71102 0.43304 0.0
H3123 H 0.53949 0.75853 0.46191 0.0
H3124 H 0.3915 0.81885 0.46672 0.0
H3125 H 0.43853 0.78957 0.46754 0.0
C3126 C 0.46286 0.14454 0.67856 0.0
C3127 C 0.4552 0.13111 0.6878 0.0
C3128 C 0.47654 0.17303 0.67826 0.0
C3129 C 0.52607 0.2206 0.69332 0.0
H3130 H 0.50598 0.28327 0.67407 0.0
C3131 C 0.57939 0.34004 0.69414 0.0
C3132 C 0.583 0.35567 0.68502 0.0
C3133 C 0.56569 0.31155 0.69435 0.0
C3134 C 0.51226 0.26579 0.67937 0.0
H3135 H 0.45401 0.13819 0.7039 0.0
H3136 H 0.47838 0.18786 0.70335 0.0
H3137 H 0.47527 0.23745 0.67488 0.0
H3138 H 0.5769 0.35255 0.66889 0.0
H3139 H 0.55433 0.30231 0.66922 0.0
H3140 H 0.56337 0.24853 0.6977 0.0
C3141 C 0.47403 0.17604 0.69637 0.0
C3142 C 0.49447 0.23967 0.67988 0.0
C3143 C 0.46004 0.14765 0.69668 0.0
C3144 C 0.57469 0.34113 0.67605 0.0
C3145 C 0.56121 0.31251 0.67625 0.0
C3146 C 0.54404 0.24659 0.69275 0.0
C3147 C 0.48311 0.18861 0.68717 0.0
C3148 C 0.50115 0.21688 0.68688 0.0
C3149 C 0.55553 0.29787 0.68543 0.0
C3150 C 0.53734 0.26954 0.68578 0.0
H3151 H 0.46005 0.13234 0.67158 0.0
H3152 H 0.48349 0.1821 0.67106 0.0
H3153 H 0.53205 0.20311 0.69866 0.0
H3154 H 0.5859 0.35047 0.70117 0.0
H3155 H 0.56166 0.30101 0.70156 0.0
C3156 C 0.90959 0.25323 0.94145 0.0
C3157 C 0.89069 0.25233 0.93294 0.0
C3158 C 0.93675 0.23712 0.94162 0.0
C3159 C 0.99601 0.21347 0.92518 0.0
H3160 H 0.02264 0.16183 0.94701 0.0
C3161 C 0.11649 0.16772 0.92515 0.0
C3162 C 0.13219 0.16806 0.93434 0.0
C3163 C 0.08514 0.17094 0.92486 0.0
C3164 C 0.01568 0.1764 0.94089 0.0
H3165 H 0.88514 0.23255 0.91812 0.0
H3166 H 0.93336 0.20565 0.9183 0.0
H3167 H 0.9709 0.18152 0.94692 0.0
H3168 H 0.12633 0.16972 0.95052 0.0
H3169 H 0.07207 0.1778 0.94997 0.0
H3170 H 0.04081 0.21046 0.91944 0.0
C3171 C 0.92683 0.21874 0.92482 0.0
C3172 C 0.98603 0.18746 0.94083 0.0
C3173 C 0.89941 0.23442 0.9247 0.0
C3174 C 0.11529 0.17019 0.94327 0.0
C3175 C 0.08393 0.17427 0.94296 0.0
C3176 C 0.02573 0.20298 0.92534 0.0
C3177 C 0.94579 0.22019 0.93325 0.0
C3178 C 0.97611 0.20625 0.933 0.0
C3179 C 0.06857 0.17559 0.93372 0.0
C3180 C 0.0361 0.18449 0.93324 0.0
H3181 H 0.90392 0.2671 0.94787 0.0
H3182 H 0.95128 0.23889 0.94815 0.0
H3183 H 0.98896 0.22834 0.91915 0.0
H3184 H 0.12833 0.16649 0.91806 0.0
H3185 H 0.07406 0.17088 0.91761 0.0
C3186 C 0.94285 0.66106 0.20347 0.0
C3187 C 0.93617 0.64826 0.19406 0.0
C3188 C 0.9564 0.68958 0.20413 0.0
C3189 C 0.97532 0.75562 0.20385 0.0
H3190 H 0.0354 0.77378 0.1835 0.0
C3191 C 0.02719 0.87407 0.19944 0.0
C3192 C 0.05742 0.87691 0.19629 0.0
C3193 C 0.0133 0.84578 0.19987 0.0
C3194 C 0.01904 0.76891 0.18933 0.0
H3195 H 0.93701 0.65635 0.17799 0.0
H3196 H 0.95906 0.70658 0.17919 0.0
H3197 H 0.00793 0.72614 0.18281 0.0
H3198 H 0.09701 0.85229 0.1913 0.0
H3199 H 0.07291 0.8024 0.19229 0.0
H3200 H 0.9872 0.79796 0.21056 0.0
C3201 C 0.95477 0.69415 0.18605 0.0
C3202 C 0.00284 0.7418 0.18883 0.0
C3203 C 0.94153 0.66552 0.18537 0.0
C3204 C 0.07368 0.85071 0.19375 0.0
C3205 C 0.05981 0.82224 0.19427 0.0
C3206 C 0.99174 0.78261 0.2044 0.0
C3207 C 0.96328 0.70611 0.19541 0.0
C3208 C 0.98053 0.73497 0.19602 0.0
C3209 C 0.02931 0.81951 0.19722 0.0
C3210 C 0.01356 0.78976 0.19708 0.0
H3211 H 0.93865 0.64853 0.21032 0.0
H3212 H 0.96267 0.69802 0.21147 0.0
H3213 H 0.95823 0.75119 0.20948 0.0
H3214 H 0.01377 0.8939 0.20119 0.0
H3215 H 0.98963 0.84471 0.20195 0.0
C3216 C 0.38803 0.76517 0.94536 0.0
C3217 C 0.38349 0.73416 0.94353 0.0
C3218 C 0.41713 0.77655 0.94692 0.0
C3219 C 0.4961 0.75861 0.94096 0.0
H3220 H 0.51401 0.82478 0.95918 0.0
C3221 C 0.60799 0.82661 0.95572 0.0
C3222 C 0.62284 0.82978 0.94644 0.0
C3223 C 0.57796 0.81656 0.95612 0.0
C3224 C 0.50937 0.80616 0.95411 0.0
H3225 H 0.40558 0.69051 0.94235 0.0
H3226 H 0.45648 0.71029 0.94517 0.0
H3227 H 0.46345 0.8021 0.95912 0.0
H3228 H 0.61718 0.82579 0.93029 0.0
H3229 H 0.56491 0.80964 0.931 0.0
H3230 H 0.5419 0.76224 0.93603 0.0
C3231 C 0.4376 0.72592 0.9452 0.0
C3232 C 0.4804 0.79335 0.95402 0.0
C3233 C 0.40851 0.71458 0.94359 0.0
C3234 C 0.60651 0.82413 0.93758 0.0
C3235 C 0.5766 0.81431 0.93797 0.0
C3236 C 0.52494 0.77134 0.94106 0.0
C3237 C 0.44229 0.75711 0.94671 0.0
C3238 C 0.47341 0.7696 0.94737 0.0
C3239 C 0.56229 0.8095 0.94724 0.0
C3240 C 0.53179 0.79553 0.94753 0.0
H3241 H 0.36918 0.78085 0.94524 0.0
H3242 H 0.42 0.80073 0.94791 0.0
H3243 H 0.49141 0.74061 0.93565 0.0
H3244 H 0.61983 0.83105 0.96268 0.0
H3245 H 0.56748 0.8131 0.96337 0.0
C3246 C 0.09746 0.62916 0.68289 0.0
C3247 C 0.09351 0.6118 0.69165 0.0
C3248 C 0.09327 0.66047 0.68306 0.0
C3249 C 0.08096 0.72673 0.70013 0.0
H3250 H 0.04082 0.75923 0.6766 0.0
C3251 C 0.01127 0.83841 0.69839 0.0
C3252 C 0.01703 0.85742 0.69013 0.0
C3253 C 0.02534 0.81015 0.69913 0.0
C3254 C 0.05233 0.75052 0.68317 0.0
H3255 H 0.08377 0.61444 0.7076 0.0
H3256 H 0.07446 0.66857 0.70772 0.0
H3257 H 0.05648 0.70657 0.67676 0.0
H3258 H 0.04388 0.86242 0.67657 0.0
H3259 H 0.06738 0.81263 0.6777 0.0
H3260 H 0.07495 0.77077 0.70668 0.0
C3261 C 0.0815 0.65813 0.70076 0.0
C3262 C 0.06154 0.72035 0.68326 0.0
C3263 C 0.08634 0.62686 0.70065 0.0
C3264 C 0.03819 0.84804 0.68288 0.0
C3265 C 0.05187 0.81966 0.68355 0.0
C3266 C 0.07118 0.75686 0.7001 0.0
C3267 C 0.08429 0.67527 0.69191 0.0
C3268 C 0.07595 0.70796 0.69174 0.0
C3269 C 0.04515 0.80028 0.69158 0.0
C3270 C 0.05678 0.76894 0.69162 0.0
H3271 H 0.10264 0.6186 0.67578 0.0
H3272 H 0.09643 0.67295 0.67614 0.0
H3273 H 0.09237 0.71819 0.70674 0.0
H3274 H 0.99497 0.84478 0.70407 0.0
H3275 H 0.01966 0.79543 0.70536 0.0
C3276 C 0.90042 0.18661 0.42997 0.0
C3277 C 0.87959 0.20715 0.42586 0.0
C3278 C 0.93143 0.19257 0.42954 0.0
C3279 C 0.98385 0.25684 0.42728 0.0
H3280 H 0.04444 0.19406 0.42409 0.0
C3281 C 0.1212 0.24682 0.4223 0.0
C3282 C 0.13019 0.26796 0.4296 0.0
C3283 C 0.09096 0.23781 0.42156 0.0
C3284 C 0.02778 0.21187 0.42491 0.0
H3285 H 0.87477 0.24909 0.41756 0.0
H3286 H 0.92895 0.25934 0.41667 0.0
H3287 H 0.99087 0.18129 0.42245 0.0
H3288 H 0.11453 0.29578 0.44198 0.0
H3289 H 0.06214 0.27936 0.4409 0.0
H3290 H 0.02058 0.28753 0.42954 0.0
C3291 C 0.92134 0.23901 0.42046 0.0
C3292 C 0.99711 0.20451 0.42406 0.0
C3293 C 0.89035 0.23315 0.42095 0.0
C3294 C 0.10847 0.27923 0.43633 0.0
C3295 C 0.07833 0.27015 0.43562 0.0
C3296 C 0.01442 0.26419 0.42809 0.0
C3297 C 0.94219 0.21911 0.42493 0.0
C3298 C 0.97482 0.22691 0.4253 0.0
C3299 C 0.06914 0.24975 0.42812 0.0
C3300 C 0.03672 0.24176 0.42701 0.0
H3301 H 0.89269 0.16652 0.43388 0.0
H3302 H 0.94686 0.17697 0.43317 0.0
H3303 H 0.96727 0.27457 0.42841 0.0
H3304 H 0.13748 0.23741 0.41708 0.0
H3305 H 0.08456 0.22215 0.41567 0.0
C3306 C 0.51095 0.13891 0.20013 0.0
C3307 C 0.51616 0.12485 0.19082 0.0
C3308 C 0.49575 0.16659 0.20064 0.0
C3309 C 0.44515 0.21677 0.18596 0.0
H3310 H 0.47572 0.27928 0.20372 0.0
C3311 C 0.42064 0.34365 0.18089 0.0
C3312 C 0.41695 0.36186 0.18946 0.0
C3313 C 0.42756 0.31297 0.18182 0.0
C3314 C 0.46654 0.26188 0.19886 0.0
H3315 H 0.50925 0.1288 0.17476 0.0
H3316 H 0.48366 0.17751 0.17562 0.0
H3317 H 0.49908 0.22934 0.20382 0.0
H3318 H 0.41578 0.36159 0.20573 0.0
H3319 H 0.4283 0.30789 0.20735 0.0
H3320 H 0.41324 0.24976 0.18078 0.0
C3321 C 0.49086 0.1669 0.18254 0.0
C3322 C 0.47995 0.23326 0.1989 0.0
C3323 C 0.50598 0.1392 0.18204 0.0
C3324 C 0.41894 0.34829 0.19899 0.0
C3325 C 0.42607 0.31758 0.19992 0.0
C3326 C 0.43182 0.24544 0.18589 0.0
C3327 C 0.48547 0.18087 0.19185 0.0
C3328 C 0.46975 0.21054 0.19233 0.0
C3329 C 0.43114 0.2998 0.19134 0.0
C3330 C 0.44271 0.26843 0.19223 0.0
H3331 H 0.51874 0.12859 0.20703 0.0
H3332 H 0.49178 0.17665 0.20793 0.0
H3333 H 0.43634 0.19957 0.18096 0.0
H3334 H 0.41986 0.35337 0.17344 0.0
H3335 H 0.43173 0.29995 0.17507 0.0
C3336 C 0.60923 0.27823 0.56602 0.0
C3337 C 0.61266 0.25333 0.57248 0.0
C3338 C 0.58133 0.29301 0.56527 0.0
C3339 C 0.50832 0.30128 0.57875 0.0
H3340 H 0.47735 0.32579 0.55278 0.0
C3341 C 0.38576 0.32018 0.55932 0.0
C3342 C 0.37036 0.33293 0.56753 0.0
C3343 C 0.41723 0.31746 0.55942 0.0
C3344 C 0.48564 0.31902 0.56009 0.0
H3345 H 0.58965 0.22369 0.58295 0.0
H3346 H 0.54096 0.24882 0.5815 0.0
H3347 H 0.52858 0.3057 0.5541 0.0
H3348 H 0.37655 0.35485 0.58199 0.0
H3349 H 0.43123 0.35184 0.58187 0.0
H3350 H 0.46502 0.31241 0.58467 0.0
C3351 C 0.55988 0.25771 0.57725 0.0
C3352 C 0.51516 0.30785 0.56086 0.0
C3353 C 0.58772 0.24319 0.57806 0.0
C3354 C 0.38743 0.34499 0.57549 0.0
C3355 C 0.41892 0.34282 0.57551 0.0
C3356 C 0.4788 0.31204 0.57796 0.0
C3357 C 0.55638 0.28296 0.57092 0.0
C3358 C 0.52651 0.29813 0.57017 0.0
C3359 C 0.43413 0.32794 0.56767 0.0
C3360 C 0.46682 0.32045 0.56859 0.0
H3361 H 0.62824 0.28658 0.56169 0.0
H3362 H 0.57943 0.31251 0.56039 0.0
H3363 H 0.5166 0.29465 0.58607 0.0
H3364 H 0.37347 0.31137 0.55292 0.0
H3365 H 0.42806 0.30575 0.55326 0.0
C3366 C 0.57007 0.86619 0.30442 0.0
C3367 C 0.55872 0.88104 0.31297 0.0
C3368 C 0.55788 0.83837 0.30139 0.0
C3369 C 0.48915 0.79126 0.30448 0.0
H3370 H 0.54165 0.72348 0.29827 0.0
C3371 C 0.45805 0.66823 0.31205 0.0
C3372 C 0.46557 0.6458 0.30499 0.0
C3373 C 0.46669 0.69823 0.31055 0.0
C3374 C 0.52668 0.74237 0.29977 0.0
H3375 H 0.52548 0.87842 0.32494 0.0
H3376 H 0.50513 0.82987 0.31988 0.0
H3377 H 0.56343 0.774 0.30045 0.0
H3378 H 0.48689 0.63789 0.29053 0.0
H3379 H 0.50302 0.69042 0.28815 0.0
H3380 H 0.45266 0.75936 0.30436 0.0
C3381 C 0.52308 0.83978 0.31542 0.0
C3382 C 0.53913 0.77125 0.30103 0.0
C3383 C 0.53518 0.8674 0.31843 0.0
C3384 C 0.48117 0.65443 0.29622 0.0
C3385 C 0.49028 0.68447 0.29481 0.0
C3386 C 0.47679 0.76245 0.3033 0.0
C3387 C 0.534 0.82511 0.3068 0.0
C3388 C 0.52059 0.79574 0.30376 0.0
C3389 C 0.48341 0.70651 0.30204 0.0
C3390 C 0.49556 0.7376 0.30127 0.0
H3391 H 0.58826 0.8761 0.30008 0.0
H3392 H 0.56676 0.82751 0.29472 0.0
H3393 H 0.4742 0.80987 0.30634 0.0
H3394 H 0.44673 0.66252 0.319 0.0
H3395 H 0.46155 0.71472 0.31633 0.0
C3396 C 0.10957 0.75599 0.05759 0.0
C3397 C 0.11318 0.72517 0.05992 0.0
C3398 C 0.08065 0.76854 0.0568 0.0
C3399 C 0.00357 0.75462 0.06603 0.0
H3400 H 0.98149 0.81965 0.04788 0.0
C3401 C 0.88851 0.8218 0.05427 0.0
C3402 C 0.87585 0.82453 0.06392 0.0
C3403 C 0.91858 0.81254 0.05306 0.0
C3404 C 0.98731 0.80138 0.05295 0.0
H3405 H 0.08968 0.68288 0.06259 0.0
H3406 H 0.03916 0.70454 0.061 0.0
H3407 H 0.03117 0.79555 0.04634 0.0
H3408 H 0.88585 0.8212 0.07987 0.0
H3409 H 0.93813 0.80683 0.07774 0.0
H3410 H 0.95977 0.75974 0.07249 0.0
C3411 C 0.05858 0.71926 0.06007 0.0
C3412 C 0.0158 0.78775 0.05212 0.0
C3413 C 0.08745 0.70681 0.06096 0.0
C3414 C 0.89462 0.8198 0.07231 0.0
C3415 C 0.92462 0.81095 0.07109 0.0
C3416 C 0.97522 0.76809 0.06682 0.0
C3417 C 0.05483 0.75043 0.05826 0.0
C3418 C 0.02425 0.76427 0.05869 0.0
C3419 C 0.9366 0.80603 0.06148 0.0
C3420 C 0.96684 0.79184 0.06038 0.0
H3421 H 0.12911 0.77066 0.05682 0.0
H3422 H 0.07858 0.79266 0.0555 0.0
H3423 H 0.00945 0.73695 0.07132 0.0
H3424 H 0.87489 0.82575 0.04764 0.0
H3425 H 0.92721 0.80906 0.04554 0.0
C3426 C 0.05143 0.34621 0.82174 0.0
C3427 C 0.0681 0.36493 0.81526 0.0
C3428 C 0.04655 0.31591 0.81938 0.0
C3429 C 0.07368 0.25134 0.80511 0.0
H3430 H 0.99085 0.224 0.80852 0.0
C3431 C 0.99243 0.13735 0.80339 0.0
C3432 C 0.01006 0.11788 0.80934 0.0
C3433 C 0.00224 0.16676 0.80137 0.0
C3434 C 0.014 0.23126 0.80733 0.0
H3435 H 0.09368 0.36632 0.80138 0.0
H3436 H 0.08513 0.31279 0.79725 0.0
H3437 H 0.00289 0.27727 0.81061 0.0
H3438 H 0.05305 0.11306 0.81704 0.0
H3439 H 0.06969 0.16478 0.81382 0.0
H3440 H 0.08483 0.20495 0.80207 0.0
C3441 C 0.07586 0.32186 0.80414 0.0
C3442 C 0.02092 0.26174 0.80865 0.0
C3443 C 0.08059 0.35242 0.80648 0.0
C3444 C 0.03868 0.12775 0.81261 0.0
C3445 C 0.04841 0.15725 0.81064 0.0
C3446 C 0.06676 0.22064 0.80383 0.0
C3447 C 0.05823 0.30358 0.81049 0.0
C3448 C 0.0509 0.27193 0.80782 0.0
C3449 C 0.02975 0.17741 0.80532 0.0
C3450 C 0.03691 0.21022 0.80514 0.0
H3451 H 0.04117 0.35523 0.82849 0.0
H3452 H 0.03322 0.30216 0.82447 0.0
H3453 H 0.09698 0.25873 0.80442 0.0
H3454 H 0.97023 0.13057 0.80077 0.0
H3455 H 0.98759 0.18165 0.79711 0.0
loop_
_geom_bond_atom_site_label_1
_geom_bond_atom_site_label_2
_geom_bond_distance
_geom_bond_site_symmetry_2
_ccdc_geom_bond_type
C0 C1 1.351 . S
C0 N3 1.368 . S
C0 H5 0.931 . S
C1 C0 1.351 . S
C1 N2 1.373 . S
C1 H29 0.930 . S
N2 C1 1.373 . S
N2 C4 1.340 . S
N3 C0 1.368 . S
N3 C4 1.321 . S
N3 Co6 2.135 . S
C4 N2 1.340 . S
C4 N3 1.321 . S
C4 H28 0.930 . S
H5 C0 0.931 . S
Co6 N3 2.135 . S
Co6 N9 2.121 . S
Co6 O14 2.055 . S
Co6 O17 2.039 . S
Co6 N20 2.140 . S
C7 O8 1.227 . S
C7 O17 1.265 . S
O8 C7 1.227 . S
N9 Co6 2.121 . S
N9 C11 1.375 . S
N9 C12 1.313 . S
C10 C11 1.338 . S
C10 N13 1.377 . S
C10 H30 0.930 . S
C11 N9 1.375 . S
C11 C10 1.338 . S
C11 H15 0.931 . S
C12 N9 1.313 . S
C12 N13 1.344 . S
C12 H16 0.930 . S
N13 C10 1.377 . S
N13 C12 1.344 . S
O14 Co6 2.055 . S
O14 C18 1.253 . S
H15 C11 0.931 . S
H16 C12 0.930 . S
O17 Co6 2.039 . S
O17 C7 1.265 . S
C18 O14 1.253 . S
C18 O19 1.227 . S
O19 C18 1.227 . S
N20 Co6 2.140 . S
N20 C23 1.346 . S
N20 C24 1.345 . S
C21 C22 1.387 . S
C21 C25 1.391 . S
C22 C21 1.387 . S
C22 C23 1.369 . S
C22 H31 0.929 . S
C23 N20 1.346 . S
C23 C22 1.369 . S
C23 H26 0.928 . S
C24 N20 1.345 . S
C24 C25 1.371 . S
C24 H27 0.931 . S
C25 C21 1.391 . S
C25 C24 1.371 . S
C25 H32 0.930 . S
H26 C23 0.928 . S
H27 C24 0.931 . S
H28 C4 0.930 . S
H29 C1 0.930 . S
H30 C10 0.930 . S
H31 C22 0.929 . S
H32 C25 0.930 . S
C33 C34 1.351 . S
C33 N36 1.356 1_655 S
C33 H38 0.929 1_655 S
C34 C33 1.351 . S
C34 N35 1.373 . S
C34 H62 0.930 . S
N35 C34 1.373 . S
N35 C37 1.340 . S
N36 C33 1.356 1_455 S
N36 C37 1.297 1_455 S
N36 Co39 2.159 1_565 S
C37 N35 1.340 . S
C37 N36 1.297 1_655 S
C37 H61 0.930 . S
H38 C33 0.929 1_455 S
Co39 N36 2.159 1_545 S
Co39 N42 2.128 . S
Co39 O47 2.026 1_545 S
Co39 O50 2.023 1_545 S
Co39 N53 2.176 . S
C40 O41 1.227 1_565 S
C40 O50 1.265 . S
O41 C40 1.227 1_545 S
N42 Co39 2.128 . S
N42 C44 1.375 . S
N42 C45 1.313 . S
C43 C44 1.338 . S
C43 N46 1.377 . S
C43 H63 0.930 . S
C44 N42 1.375 . S
C44 C43 1.338 . S
C44 H48 0.931 . S
C45 N42 1.313 . S
C45 N46 1.344 . S
C45 H49 0.930 1_545 S
N46 C43 1.377 . S
N46 C45 1.344 . S
O47 Co39 2.026 1_565 S
O47 C51 1.253 . S
H48 C44 0.931 . S
H49 C45 0.930 1_565 S
O50 Co39 2.023 1_565 S
O50 C40 1.265 . S
C51 O47 1.253 . S
C51 O52 1.227 1_565 S
O52 C51 1.227 1_545 S
N53 Co39 2.176 . S
N53 C56 1.346 . S
N53 C57 1.345 . S
C54 C55 1.387 . S
C54 C58 1.391 . S
C55 C54 1.387 . S
C55 C56 1.369 . S
C55 H64 0.929 1_455 S
C56 N53 1.346 . S
C56 C55 1.369 . S
C56 H59 0.928 . S
C57 N53 1.345 . S
C57 C58 1.371 . S
C57 H60 0.931 . S
C58 C54 1.391 . S
C58 C57 1.371 . S
C58 H65 0.930 . S
H59 C56 0.928 . S
H60 C57 0.931 . S
H61 C37 0.930 . S
H62 C34 0.930 . S
H63 C43 0.930 . S
H64 C55 0.929 1_655 S
H65 C58 0.930 . S
C66 C67 1.351 . S
C66 N69 1.368 . S
C66 H71 0.931 . S
C67 C66 1.351 . S
C67 N68 1.373 . S
C67 H95 0.930 . S
N68 C67 1.373 . S
N68 C70 1.340 . S
N69 C66 1.368 . S
N69 C70 1.321 . S
N69 Co72 2.135 . S
C70 N68 1.340 . S
C70 N69 1.321 . S
C70 H94 0.930 . S
H71 C66 0.931 . S
Co72 N69 2.135 . S
Co72 N75 2.121 . S
Co72 O80 2.055 . S
Co72 O83 2.039 . S
Co72 N86 2.140 . S
C73 O74 1.227 . S
C73 O83 1.265 . S
O74 C73 1.227 . S
N75 Co72 2.121 . S
N75 C77 1.375 . S
N75 C78 1.313 . S
C76 C77 1.338 . S
C76 N79 1.377 . S
C76 H96 0.930 . S
C77 N75 1.375 . S
C77 C76 1.338 . S
C77 H81 0.931 . S
C78 N75 1.313 . S
C78 N79 1.344 . S
C78 H82 0.930 . S
N79 C76 1.377 . S
N79 C78 1.344 . S
O80 Co72 2.055 . S
O80 C84 1.253 . S
H81 C77 0.931 . S
H82 C78 0.930 . S
O83 Co72 2.039 . S
O83 C73 1.265 . S
C84 O80 1.253 . S
C84 O85 1.227 . S
O85 C84 1.227 . S
N86 Co72 2.140 . S
N86 C89 1.346 . S
N86 C90 1.345 . S
C87 C88 1.387 . S
C87 C91 1.391 . S
C88 C87 1.387 . S
C88 C89 1.369 . S
C88 H97 0.929 . S
C89 N86 1.346 . S
C89 C88 1.369 . S
C89 H92 0.928 . S
C90 N86 1.345 . S
C90 C91 1.371 . S
C90 H93 0.931 . S
C91 C87 1.391 . S
C91 C90 1.371 . S
C91 H98 0.930 . S
H92 C89 0.928 . S
H93 C90 0.931 . S
H94 C70 0.930 . S
H95 C67 0.930 . S
H96 C76 0.930 . S
H97 C88 0.929 . S
H98 C91 0.930 . S
C99 C100 1.351 . S
C99 N102 1.368 . S
C99 H104 0.931 . S
C100 C99 1.351 . S
C100 N101 1.373 . S
C100 H128 0.930 . S
N101 C100 1.373 . S
N101 C103 1.340 . S
N102 C99 1.368 . S
N102 C103 1.321 . S
N102 Co105 2.129 1_545 S
C103 N101 1.340 . S
C103 N102 1.321 . S
C103 H127 0.930 . S
H104 C99 0.931 . S
Co105 N102 2.129 1_565 S
Co105 N108 2.128 . S
Co105 O113 2.026 1_565 S
Co105 O116 2.023 1_565 S
Co105 N119 2.176 . S
C106 O107 1.227 1_545 S
C106 O116 1.265 . S
O107 C106 1.227 1_565 S
N108 Co105 2.128 . S
N108 C110 1.375 . S
N108 C111 1.313 . S
C109 C110 1.338 . S
C109 N112 1.377 . S
C109 H129 0.930 . S
C110 N108 1.375 . S
C110 C109 1.338 . S
C110 H114 0.931 . S
C111 N108 1.313 . S
C111 N112 1.344 . S
C111 H115 0.930 1_565 S
N112 C109 1.377 . S
N112 C111 1.344 . S
O113 Co105 2.026 1_545 S
O113 C117 1.253 . S
H114 C110 0.931 . S
H115 C111 0.930 1_545 S
O116 Co105 2.023 1_545 S
O116 C106 1.265 . S
C117 O113 1.253 . S
C117 O118 1.227 1_545 S
O118 C117 1.227 1_565 S
N119 Co105 2.176 . S
N119 C122 1.346 . S
N119 C123 1.345 . S
C120 C121 1.387 . S
C120 C124 1.391 . S
C121 C120 1.387 . S
C121 C122 1.369 . S
C121 H130 0.929 . S
C122 N119 1.346 . S
C122 C121 1.369 . S
C122 H125 0.928 . S
C123 N119 1.345 . S
C123 C124 1.371 . S
C123 H126 0.931 . S
C124 C120 1.391 . S
C124 C123 1.371 . S
C124 H131 0.930 . S
H125 C122 0.928 . S
H126 C123 0.931 . S
H127 C103 0.930 . S
H128 C100 0.930 . S
H129 C109 0.930 . S
H130 C121 0.929 . S
H131 C124 0.930 . S
C132 C133 1.351 . S
C132 N135 1.368 . S
C132 H137 0.931 . S
C133 C132 1.351 . S
C133 N134 1.373 . S
C133 H161 0.930 . S
N134 C133 1.373 . S
N134 C136 1.340 . S
N135 C132 1.368 . S
N135 C136 1.321 . S
N135 Co138 2.135 . S
C136 N134 1.340 . S
C136 N135 1.321 . S
C136 H160 0.930 . S
H137 C132 0.931 . S
Co138 N135 2.135 . S
Co138 N141 2.121 . S
Co138 O146 2.055 . S
Co138 O149 2.039 . S
Co138 N152 2.140 . S
C139 O140 1.227 . S
C139 O149 1.265 . S
O140 C139 1.227 . S
N141 Co138 2.121 . S
N141 C143 1.375 . S
N141 C144 1.313 . S
C142 C143 1.338 . S
C142 N145 1.377 . S
C142 H162 0.930 . S
C143 N141 1.375 . S
C143 C142 1.338 . S
C143 H147 0.931 . S
C144 N141 1.313 . S
C144 N145 1.344 . S
C144 H148 0.930 . S
N145 C142 1.377 . S
N145 C144 1.344 . S
O146 Co138 2.055 . S
O146 C150 1.253 . S
H147 C143 0.931 . S
H148 C144 0.930 . S
O149 Co138 2.039 . S
O149 C139 1.265 . S
C150 O146 1.253 . S
C150 O151 1.227 . S
O151 C150 1.227 . S
N152 Co138 2.140 . S
N152 C155 1.346 . S
N152 C156 1.345 . S
C153 C154 1.387 . S
C153 C157 1.391 . S
C154 C153 1.387 . S
C154 C155 1.369 . S
C154 H163 0.929 . S
C155 N152 1.346 . S
C155 C154 1.369 . S
C155 H158 0.928 . S
C156 N152 1.345 . S
C156 C157 1.371 . S
C156 H159 0.931 . S
C157 C153 1.391 . S
C157 C156 1.371 . S
C157 H164 0.930 . S
H158 C155 0.928 . S
H159 C156 0.931 . S
H160 C136 0.930 . S
H161 C133 0.930 . S
H162 C142 0.930 . S
H163 C154 0.929 . S
H164 C157 0.930 . S
C165 C166 1.351 . S
C165 N168 1.368 . S
C165 H170 0.931 . S
C166 C165 1.351 . S
C166 N167 1.373 . S
C166 H194 0.930 . S
N167 C166 1.373 . S
N167 C169 1.340 . S
N168 C165 1.368 . S
N168 C169 1.321 . S
N168 Co171 2.129 1_565 S
C169 N167 1.340 . S
C169 N168 1.321 . S
C169 H193 0.930 . S
H170 C165 0.931 . S
Co171 N168 2.129 1_545 S
Co171 N174 2.128 . S
Co171 O179 2.026 1_545 S
Co171 O182 2.023 1_545 S
Co171 N185 2.176 . S
C172 O173 1.227 1_565 S
C172 O182 1.265 . S
O173 C172 1.227 1_545 S
N174 Co171 2.128 . S
N174 C176 1.375 . S
N174 C177 1.313 . S
C175 C176 1.338 . S
C175 N178 1.377 . S
C175 H195 0.930 . S
C176 N174 1.375 . S
C176 C175 1.338 . S
C176 H180 0.931 . S
C177 N174 1.313 . S
C177 N178 1.344 . S
C177 H181 0.930 1_545 S
N178 C175 1.377 . S
N178 C177 1.344 . S
O179 Co171 2.026 1_565 S
O179 C183 1.253 . S
H180 C176 0.931 . S
H181 C177 0.930 1_565 S
O182 Co171 2.023 1_565 S
O182 C172 1.265 . S
C183 O179 1.253 . S
C183 O184 1.227 1_565 S
O184 C183 1.227 1_545 S
N185 Co171 2.176 . S
N185 C188 1.346 . S
N185 C189 1.345 . S
C186 C187 1.387 . S
C186 C190 1.391 . S
C187 C186 1.387 . S
C187 C188 1.369 . S
C187 H196 0.929 . S
C188 N185 1.346 . S
C188 C187 1.369 . S
C188 H191 0.928 . S
C189 N185 1.345 . S
C189 C190 1.371 . S
C189 H192 0.931 . S
C190 C186 1.391 . S
C190 C189 1.371 . S
C190 H197 0.930 . S
H191 C188 0.928 . S
H192 C189 0.931 . S
H193 C169 0.930 . S
H194 C166 0.930 . S
H195 C175 0.930 . S
H196 C187 0.929 . S
H197 C190 0.930 . S
C198 C199 1.351 . S
C198 N201 1.368 . S
C198 H203 0.931 . S
C199 C198 1.351 . S
C199 N200 1.373 . S
C199 H227 0.930 . S
N200 C199 1.373 . S
N200 C202 1.340 . S
N201 C198 1.368 . S
N201 C202 1.321 . S
N201 Co204 2.135 . S
C202 N200 1.340 . S
C202 N201 1.321 . S
C202 H226 0.930 . S
H203 C198 0.931 . S
Co204 N201 2.135 . S
Co204 N207 2.121 . S
Co204 O212 2.055 . S
Co204 O215 2.039 . S
Co204 N218 2.140 . S
C205 O206 1.227 . S
C205 O215 1.265 . S
O206 C205 1.227 . S
N207 Co204 2.121 . S
N207 C209 1.375 . S
N207 C210 1.313 . S
C208 C209 1.338 . S
C208 N211 1.377 . S
C208 H228 0.930 . S
C209 N207 1.375 . S
C209 C208 1.338 . S
C209 H213 0.931 . S
C210 N207 1.313 . S
C210 N211 1.344 . S
C210 H214 0.930 . S
N211 C208 1.377 . S
N211 C210 1.344 . S
O212 Co204 2.055 . S
O212 C216 1.253 . S
H213 C209 0.931 . S
H214 C210 0.930 . S
O215 Co204 2.039 . S
O215 C205 1.265 . S
C216 O212 1.253 . S
C216 O217 1.227 . S
O217 C216 1.227 . S
N218 Co204 2.140 . S
N218 C221 1.346 . S
N218 C222 1.345 . S
C219 C220 1.387 . S
C219 C223 1.391 . S
C220 C219 1.387 . S
C220 C221 1.369 . S
C220 H229 0.929 . S
C221 N218 1.346 . S
C221 C220 1.369 . S
C221 H224 0.928 . S
C222 N218 1.345 . S
C222 C223 1.371 . S
C222 H225 0.931 . S
C223 C219 1.391 . S
C223 C222 1.371 . S
C223 H230 0.930 . S
H224 C221 0.928 . S
H225 C222 0.931 . S
H226 C202 0.930 . S
H227 C199 0.930 . S
H228 C208 0.930 . S
H229 C220 0.929 . S
H230 C223 0.930 . S
C231 C232 1.351 . S
C231 N234 1.356 1_655 S
C231 H236 0.929 1_655 S
C232 C231 1.351 . S
C232 N233 1.373 . S
C232 H260 0.930 . S
N233 C232 1.373 . S
N233 C235 1.340 . S
N234 C231 1.356 1_455 S
N234 C235 1.297 1_455 S
N234 Co237 2.159 1_545 S
C235 N233 1.340 . S
C235 N234 1.297 1_655 S
C235 H259 0.930 . S
H236 C231 0.929 1_455 S
Co237 N234 2.159 1_565 S
Co237 N240 2.128 . S
Co237 O245 2.026 1_565 S
Co237 O248 2.023 1_565 S
Co237 N251 2.176 . S
C238 O239 1.227 1_545 S
C238 O248 1.265 . S
O239 C238 1.227 1_565 S
N240 Co237 2.128 . S
N240 C242 1.375 . S
N240 C243 1.313 . S
C241 C242 1.338 . S
C241 N244 1.377 . S
C241 H261 0.930 . S
C242 N240 1.375 . S
C242 C241 1.338 . S
C242 H246 0.931 . S
C243 N240 1.313 . S
C243 N244 1.344 . S
C243 H247 0.930 1_565 S
N244 C241 1.377 . S
N244 C243 1.344 . S
O245 Co237 2.026 1_545 S
O245 C249 1.253 . S
H246 C242 0.931 . S
H247 C243 0.930 1_545 S
O248 Co237 2.023 1_545 S
O248 C238 1.265 . S
C249 O245 1.253 . S
C249 O250 1.227 1_545 S
O250 C249 1.227 1_565 S
N251 Co237 2.176 . S
N251 C254 1.346 . S
N251 C255 1.345 . S
C252 C253 1.387 . S
C252 C256 1.391 . S
C253 C252 1.387 . S
C253 C254 1.369 . S
C253 H262 0.929 1_455 S
C254 N251 1.346 . S
C254 C253 1.369 . S
C254 H257 0.928 . S
C255 N251 1.345 . S
C255 C256 1.371 . S
C255 H258 0.931 . S
C256 C252 1.391 . S
C256 C255 1.371 . S
C256 H263 0.930 . S
H257 C254 0.928 . S
H258 C255 0.931 . S
H259 C235 0.930 . S
H260 C232 0.930 . S
H261 C241 0.930 . S
H262 C253 0.929 1_655 S
H263 C256 0.930 . S
C264 C265 1.351 . S
C264 N267 1.368 . S
C264 H269 0.931 . S
C265 C264 1.351 . S
C265 N266 1.373 . S
C265 H293 0.930 . S
N266 C265 1.373 . S
N266 C268 1.340 . S
N267 C264 1.368 . S
N267 C268 1.321 . S
N267 Co270 2.135 . S
C268 N266 1.340 . S
C268 N267 1.321 . S
C268 H292 0.930 . S
H269 C264 0.931 . S
Co270 N267 2.135 . S
Co270 N273 2.121 . S
Co270 O278 2.055 . S
Co270 O281 2.039 . S
Co270 N284 2.140 . S
C271 O272 1.227 . S
C271 O281 1.265 . S
O272 C271 1.227 . S
N273 Co270 2.121 . S
N273 C275 1.375 . S
N273 C276 1.313 . S
C274 C275 1.338 . S
C274 N277 1.377 . S
C274 H294 0.930 . S
C275 N273 1.375 . S
C275 C274 1.338 . S
C275 H279 0.931 . S
C276 N273 1.313 . S
C276 N277 1.344 . S
C276 H280 0.930 . S
N277 C274 1.377 . S
N277 C276 1.344 . S
O278 Co270 2.055 . S
O278 C282 1.253 . S
H279 C275 0.931 . S
H280 C276 0.930 . S
O281 Co270 2.039 . S
O281 C271 1.265 . S
C282 O278 1.253 . S
C282 O283 1.227 . S
O283 C282 1.227 . S
N284 Co270 2.140 . S
N284 C287 1.346 . S
N284 C288 1.345 . S
C285 C286 1.387 . S
C285 C289 1.391 . S
C286 C285 1.387 . S
C286 C287 1.369 . S
C286 H295 0.929 . S
C287 N284 1.346 . S
C287 C286 1.369 . S
C287 H290 0.928 . S
C288 N284 1.345 . S
C288 C289 1.371 . S
C288 H291 0.931 . S
C289 C285 1.391 . S
C289 C288 1.371 . S
C289 H296 0.930 . S
H290 C287 0.928 . S
H291 C288 0.931 . S
H292 C268 0.930 . S
H293 C265 0.930 . S
H294 C274 0.930 . S
H295 C286 0.929 . S
H296 C289 0.930 . S
C297 C298 1.351 . S
C297 N300 1.356 1_455 S
C297 H302 0.929 1_455 S
C298 C297 1.351 . S
C298 N299 1.373 . S
C298 H326 0.930 . S
N299 C298 1.373 . S
N299 C301 1.340 . S
N300 C297 1.356 1_655 S
N300 C301 1.297 1_655 S
N300 Co303 2.159 1_545 S
C301 N299 1.340 . S
C301 N300 1.297 1_455 S
C301 H325 0.930 . S
H302 C297 0.929 1_655 S
Co303 N300 2.159 1_565 S
Co303 N306 2.128 . S
Co303 O311 2.026 1_565 S
Co303 O314 2.023 1_565 S
Co303 N317 2.176 . S
C304 O305 1.227 1_545 S
C304 O314 1.265 . S
O305 C304 1.227 1_565 S
N306 Co303 2.128 . S
N306 C308 1.375 . S
N306 C309 1.313 . S
C307 C308 1.338 . S
C307 N310 1.377 . S
C307 H327 0.930 . S
C308 N306 1.375 . S
C308 C307 1.338 . S
C308 H312 0.931 . S
C309 N306 1.313 . S
C309 N310 1.344 . S
C309 H313 0.930 1_565 S
N310 C307 1.377 . S
N310 C309 1.344 . S
O311 Co303 2.026 1_545 S
O311 C315 1.253 . S
H312 C308 0.931 . S
H313 C309 0.930 1_545 S
O314 Co303 2.023 1_545 S
O314 C304 1.265 . S
C315 O311 1.253 . S
C315 O316 1.227 1_545 S
O316 C315 1.227 1_565 S
N317 Co303 2.176 . S
N317 C320 1.346 . S
N317 C321 1.345 . S
C318 C319 1.387 . S
C318 C322 1.391 . S
C319 C318 1.387 . S
C319 C320 1.369 . S
C319 H328 0.929 1_655 S
C320 N317 1.346 . S
C320 C319 1.369 . S
C320 H323 0.928 . S
C321 N317 1.345 . S
C321 C322 1.371 . S
C321 H324 0.931 . S
C322 C318 1.391 . S
C322 C321 1.371 . S
C322 H329 0.930 . S
H323 C320 0.928 . S
H324 C321 0.931 . S
H325 C301 0.930 . S
H326 C298 0.930 . S
H327 C307 0.930 . S
H328 C319 0.929 1_455 S
H329 C322 0.930 . S
C330 C331 1.351 . S
C330 N333 1.368 . S
C330 H335 0.931 . S
C331 C330 1.351 . S
C331 N332 1.373 . S
C331 H359 0.930 . S
N332 C331 1.373 . S
N332 C334 1.340 . S
N333 C330 1.368 . S
N333 C334 1.321 . S
N333 Co336 2.135 . S
C334 N332 1.340 . S
C334 N333 1.321 . S
C334 H358 0.930 . S
H335 C330 0.931 . S
Co336 N333 2.135 . S
Co336 N339 2.121 . S
Co336 O344 2.055 . S
Co336 O347 2.039 . S
Co336 N350 2.140 . S
C337 O338 1.227 . S
C337 O347 1.265 . S
O338 C337 1.227 . S
N339 Co336 2.121 . S
N339 C341 1.375 . S
N339 C342 1.313 . S
C340 C341 1.338 . S
C340 N343 1.377 . S
C340 H360 0.930 . S
C341 N339 1.375 . S
C341 C340 1.338 . S
C341 H345 0.931 . S
C342 N339 1.313 . S
C342 N343 1.344 . S
C342 H346 0.930 . S
N343 C340 1.377 . S
N343 C342 1.344 . S
O344 Co336 2.055 . S
O344 C348 1.253 . S
H345 C341 0.931 . S
H346 C342 0.930 . S
O347 Co336 2.039 . S
O347 C337 1.265 . S
C348 O344 1.253 . S
C348 O349 1.227 . S
O349 C348 1.227 . S
N350 Co336 2.140 . S
N350 C353 1.346 . S
N350 C354 1.345 . S
C351 C352 1.387 . S
C351 C355 1.391 . S
C352 C351 1.387 . S
C352 C353 1.369 . S
C352 H361 0.929 . S
C353 N350 1.346 . S
C353 C352 1.369 . S
C353 H356 0.928 . S
C354 N350 1.345 . S
C354 C355 1.371 . S
C354 H357 0.931 . S
C355 C351 1.391 . S
C355 C354 1.371 . S
C355 H362 0.930 . S
H356 C353 0.928 . S
H357 C354 0.931 . S
H358 C334 0.930 . S
H359 C331 0.930 . S
H360 C340 0.930 . S
H361 C352 0.929 . S
H362 C355 0.930 . S
C363 C364 1.351 . S
C363 N366 1.368 . S
C363 H368 0.931 . S
C364 C363 1.351 . S
C364 N365 1.373 . S
C364 H392 0.930 . S
N365 C364 1.373 . S
N365 C367 1.340 . S
N366 C363 1.368 . S
N366 C367 1.321 . S
N366 Co369 2.129 1_565 S
C367 N365 1.340 . S
C367 N366 1.321 . S
C367 H391 0.930 . S
H368 C363 0.931 . S
Co369 N366 2.129 1_545 S
Co369 N372 2.128 . S
Co369 O377 2.026 1_545 S
Co369 O380 2.023 1_545 S
Co369 N383 2.176 . S
C370 O371 1.227 1_565 S
C370 O380 1.265 . S
O371 C370 1.227 1_545 S
N372 Co369 2.128 . S
N372 C374 1.375 . S
N372 C375 1.313 . S
C373 C374 1.338 . S
C373 N376 1.377 . S
C373 H393 0.930 . S
C374 N372 1.375 . S
C374 C373 1.338 . S
C374 H378 0.931 . S
C375 N372 1.313 . S
C375 N376 1.344 . S
C375 H379 0.930 1_545 S
N376 C373 1.377 . S
N376 C375 1.344 . S
O377 Co369 2.026 1_565 S
O377 C381 1.253 . S
H378 C374 0.931 . S
H379 C375 0.930 1_565 S
O380 Co369 2.023 1_565 S
O380 C370 1.265 . S
C381 O377 1.253 . S
C381 O382 1.227 1_565 S
O382 C381 1.227 1_545 S
N383 Co369 2.176 . S
N383 C386 1.346 . S
N383 C387 1.345 . S
C384 C385 1.387 . S
C384 C388 1.391 . S
C385 C384 1.387 . S
C385 C386 1.369 . S
C385 H394 0.929 . S
C386 N383 1.346 . S
C386 C385 1.369 . S
C386 H389 0.928 . S
C387 N383 1.345 . S
C387 C388 1.371 . S
C387 H390 0.931 . S
C388 C384 1.391 . S
C388 C387 1.371 . S
C388 H395 0.930 . S
H389 C386 0.928 . S
H390 C387 0.931 . S
H391 C367 0.930 . S
H392 C364 0.930 . S
H393 C373 0.930 . S
H394 C385 0.929 . S
H395 C388 0.930 . S
C396 C397 1.351 . S
C396 N399 1.368 . S
C396 H401 0.931 . S
C397 C396 1.351 . S
C397 N398 1.373 . S
C397 H425 0.930 . S
N398 C397 1.373 . S
N398 C400 1.340 . S
N399 C396 1.368 . S
N399 C400 1.321 . S
N399 Co402 2.135 . S
C400 N398 1.340 . S
C400 N399 1.321 . S
C400 H424 0.930 . S
H401 C396 0.931 . S
Co402 N399 2.135 . S
Co402 N405 2.121 . S
Co402 O410 2.055 . S
Co402 O413 2.039 . S
Co402 N416 2.140 . S
C403 O404 1.227 . S
C403 O413 1.265 . S
O404 C403 1.227 . S
N405 Co402 2.121 . S
N405 C407 1.375 . S
N405 C408 1.313 . S
C406 C407 1.338 . S
C406 N409 1.377 . S
C406 H426 0.930 . S
C407 N405 1.375 . S
C407 C406 1.338 . S
C407 H411 0.931 . S
C408 N405 1.313 . S
C408 N409 1.344 . S
C408 H412 0.930 . S
N409 C406 1.377 . S
N409 C408 1.344 . S
O410 Co402 2.055 . S
O410 C414 1.253 . S
H411 C407 0.931 . S
H412 C408 0.930 . S
O413 Co402 2.039 . S
O413 C403 1.265 . S
C414 O410 1.253 . S
C414 O415 1.227 . S
O415 C414 1.227 . S
N416 Co402 2.140 . S
N416 C419 1.346 . S
N416 C420 1.345 . S
C417 C418 1.387 . S
C417 C421 1.391 . S
C418 C417 1.387 . S
C418 C419 1.369 . S
C418 H427 0.929 . S
C419 N416 1.346 . S
C419 C418 1.369 . S
C419 H422 0.928 . S
C420 N416 1.345 . S
C420 C421 1.371 . S
C420 H423 0.931 . S
C421 C417 1.391 . S
C421 C420 1.371 . S
C421 H428 0.930 . S
H422 C419 0.928 . S
H423 C420 0.931 . S
H424 C400 0.930 . S
H425 C397 0.930 . S
H426 C406 0.930 . S
H427 C418 0.929 . S
H428 C421 0.930 . S
C429 C430 1.351 . S
C429 N432 1.368 . S
C429 H434 0.931 . S
C430 C429 1.351 . S
C430 N431 1.373 . S
C430 H458 0.930 . S
N431 C430 1.373 . S
N431 C433 1.340 . S
N432 C429 1.368 . S
N432 C433 1.321 . S
N432 Co435 2.129 1_545 S
C433 N431 1.340 . S
C433 N432 1.321 . S
C433 H457 0.930 . S
H434 C429 0.931 . S
Co435 N432 2.129 1_565 S
Co435 N438 2.128 . S
Co435 O443 2.026 1_565 S
Co435 O446 2.023 1_565 S
Co435 N449 2.176 . S
C436 O437 1.227 1_545 S
C436 O446 1.265 . S
O437 C436 1.227 1_565 S
N438 Co435 2.128 . S
N438 C440 1.375 . S
N438 C441 1.313 . S
C439 C440 1.338 . S
C439 N442 1.377 . S
C439 H459 0.930 . S
C440 N438 1.375 . S
C440 C439 1.338 . S
C440 H444 0.931 . S
C441 N438 1.313 . S
C441 N442 1.344 . S
C441 H445 0.930 1_565 S
N442 C439 1.377 . S
N442 C441 1.344 . S
O443 Co435 2.026 1_545 S
O443 C447 1.253 . S
H444 C440 0.931 . S
H445 C441 0.930 1_545 S
O446 Co435 2.023 1_545 S
O446 C436 1.265 . S
C447 O443 1.253 . S
C447 O448 1.227 1_545 S
O448 C447 1.227 1_565 S
N449 Co435 2.176 . S
N449 C452 1.346 . S
N449 C453 1.345 . S
C450 C451 1.387 . S
C450 C454 1.391 . S
C451 C450 1.387 . S
C451 C452 1.369 . S
C451 H460 0.929 . S
C452 N449 1.346 . S
C452 C451 1.369 . S
C452 H455 0.928 . S
C453 N449 1.345 . S
C453 C454 1.371 . S
C453 H456 0.931 . S
C454 C450 1.391 . S
C454 C453 1.371 . S
C454 H461 0.930 . S
H455 C452 0.928 . S
H456 C453 0.931 . S
H457 C433 0.930 . S
H458 C430 0.930 . S
H459 C439 0.930 . S
H460 C451 0.929 . S
H461 C454 0.930 . S
C462 C463 1.351 . S
C462 N465 1.368 . S
C462 H467 0.931 . S
C463 C462 1.351 . S
C463 N464 1.373 . S
C463 H491 0.930 . S
N464 C463 1.373 . S
N464 C466 1.340 . S
N465 C462 1.368 . S
N465 C466 1.321 . S
N465 Co468 2.135 . S
C466 N464 1.340 . S
C466 N465 1.321 . S
C466 H490 0.930 . S
H467 C462 0.931 . S
Co468 N465 2.135 . S
Co468 N471 2.121 . S
Co468 O476 2.055 . S
Co468 O479 2.039 . S
Co468 N482 2.140 . S
C469 O470 1.227 . S
C469 O479 1.265 . S
O470 C469 1.227 . S
N471 Co468 2.121 . S
N471 C473 1.375 . S
N471 C474 1.313 . S
C472 C473 1.338 . S
C472 N475 1.377 . S
C472 H492 0.930 . S
C473 N471 1.375 . S
C473 C472 1.338 . S
C473 H477 0.931 . S
C474 N471 1.313 . S
C474 N475 1.344 . S
C474 H478 0.930 . S
N475 C472 1.377 . S
N475 C474 1.344 . S
O476 Co468 2.055 . S
O476 C480 1.253 . S
H477 C473 0.931 . S
H478 C474 0.930 . S
O479 Co468 2.039 . S
O479 C469 1.265 . S
C480 O476 1.253 . S
C480 O481 1.227 . S
O481 C480 1.227 . S
N482 Co468 2.140 . S
N482 C485 1.346 . S
N482 C486 1.345 . S
C483 C484 1.387 . S
C483 C487 1.391 . S
C484 C483 1.387 . S
C484 C485 1.369 . S
C484 H493 0.929 . S
C485 N482 1.346 . S
C485 C484 1.369 . S
C485 H488 0.928 . S
C486 N482 1.345 . S
C486 C487 1.371 . S
C486 H489 0.931 . S
C487 C483 1.391 . S
C487 C486 1.371 . S
C487 H494 0.930 . S
H488 C485 0.928 . S
H489 C486 0.931 . S
H490 C466 0.930 . S
H491 C463 0.930 . S
H492 C472 0.930 . S
H493 C484 0.929 . S
H494 C487 0.930 . S
C495 C496 1.351 . S
C495 N498 1.356 1_455 S
C495 H500 0.929 1_455 S
C496 C495 1.351 . S
C496 N497 1.373 . S
C496 H524 0.930 . S
N497 C496 1.373 . S
N497 C499 1.340 . S
N498 C495 1.356 1_655 S
N498 C499 1.297 1_655 S
N498 Co501 2.159 1_565 S
C499 N497 1.340 . S
C499 N498 1.297 1_455 S
C499 H523 0.930 . S
H500 C495 0.929 1_655 S
Co501 N498 2.159 1_545 S
Co501 N504 2.128 . S
Co501 O509 2.026 1_545 S
Co501 O512 2.023 1_545 S
Co501 N515 2.176 . S
C502 O503 1.227 1_565 S
C502 O512 1.265 . S
O503 C502 1.227 1_545 S
N504 Co501 2.128 . S
N504 C506 1.375 . S
N504 C507 1.313 . S
C505 C506 1.338 . S
C505 N508 1.377 . S
C505 H525 0.930 . S
C506 N504 1.375 . S
C506 C505 1.338 . S
C506 H510 0.931 . S
C507 N504 1.313 . S
C507 N508 1.344 . S
C507 H511 0.930 1_545 S
N508 C505 1.377 . S
N508 C507 1.344 . S
O509 Co501 2.026 1_565 S
O509 C513 1.253 . S
H510 C506 0.931 . S
H511 C507 0.930 1_565 S
O512 Co501 2.023 1_565 S
O512 C502 1.265 . S
C513 O509 1.253 . S
C513 O514 1.227 1_565 S
O514 C513 1.227 1_545 S
N515 Co501 2.176 . S
N515 C518 1.346 . S
N515 C519 1.345 . S
C516 C517 1.387 . S
C516 C520 1.391 . S
C517 C516 1.387 . S
C517 C518 1.369 . S
C517 H526 0.929 1_655 S
C518 N515 1.346 . S
C518 C517 1.369 . S
C518 H521 0.928 . S
C519 N515 1.345 . S
C519 C520 1.371 . S
C519 H522 0.931 . S
C520 C516 1.391 . S
C520 C519 1.371 . S
C520 H527 0.930 . S
H521 C518 0.928 . S
H522 C519 0.931 . S
H523 C499 0.930 . S
H524 C496 0.930 . S
H525 C505 0.930 . S
H526 C517 0.929 1_455 S
H527 C520 0.930 . S
C528 C529 1.351 . S
C528 N531 1.368 . S
C528 H533 0.931 . S
C529 C528 1.351 . S
C529 N530 1.373 . S
C529 H557 0.930 . S
N530 C529 1.373 . S
N530 C532 1.340 . S
N531 C528 1.368 . S
N531 C532 1.321 . S
N531 Co534 2.135 . S
C532 N530 1.340 . S
C532 N531 1.321 . S
C532 H556 0.930 . S
H533 C528 0.931 . S
Co534 N531 2.135 . S
Co534 N537 2.121 . S
Co534 O542 2.055 . S
Co534 O545 2.039 . S
Co534 N548 2.140 . S
C535 O536 1.227 . S
C535 O545 1.265 . S
O536 C535 1.227 . S
N537 Co534 2.121 . S
N537 C539 1.375 . S
N537 C540 1.313 . S
C538 C539 1.338 . S
C538 N541 1.377 . S
C538 H558 0.930 . S
C539 N537 1.375 . S
C539 C538 1.338 . S
C539 H543 0.931 . S
C540 N537 1.313 . S
C540 N541 1.344 . S
C540 H544 0.930 . S
N541 C538 1.377 . S
N541 C540 1.344 . S
O542 Co534 2.055 . S
O542 C546 1.253 . S
H543 C539 0.931 . S
H544 C540 0.930 . S
O545 Co534 2.039 . S
O545 C535 1.265 . S
C546 O542 1.253 . S
C546 O547 1.227 . S
O547 C546 1.227 . S
N548 Co534 2.140 . S
N548 C551 1.346 . S
N548 C552 1.345 . S
C549 C550 1.387 . S
C549 C553 1.391 . S
C550 C549 1.387 . S
C550 C551 1.369 . S
C550 H559 0.929 . S
C551 N548 1.346 . S
C551 C550 1.369 . S
C551 H554 0.928 . S
C552 N548 1.345 . S
C552 C553 1.371 . S
C552 H555 0.931 . S
C553 C549 1.391 . S
C553 C552 1.371 . S
C553 H560 0.930 . S
H554 C551 0.928 . S
H555 C552 0.931 . S
H556 C532 0.930 . S
H557 C529 0.930 . S
H558 C538 0.930 . S
H559 C550 0.929 . S
H560 C553 0.930 . S
C561 C562 1.351 . S
C561 N564 1.368 . S
C561 H566 0.931 . S
C562 C561 1.351 . S
C562 N563 1.373 . S
C562 H590 0.930 . S
N563 C562 1.373 . S
N563 C565 1.340 . S
N564 C561 1.368 . S
N564 C565 1.321 . S
N564 Co567 2.135 . S
C565 N563 1.340 . S
C565 N564 1.321 . S
C565 H589 0.930 . S
H566 C561 0.931 . S
Co567 N564 2.135 . S
Co567 N570 2.121 . S
Co567 O575 2.055 . S
Co567 O578 2.039 . S
Co567 N581 2.140 . S
C568 O569 1.227 . S
C568 O578 1.265 . S
O569 C568 1.227 . S
N570 Co567 2.121 . S
N570 C572 1.375 . S
N570 C573 1.313 . S
C571 C572 1.338 . S
C571 N574 1.377 . S
C571 H591 0.930 . S
C572 N570 1.375 . S
C572 C571 1.338 . S
C572 H576 0.931 . S
C573 N570 1.313 . S
C573 N574 1.344 . S
C573 H577 0.930 . S
N574 C571 1.377 . S
N574 C573 1.344 . S
O575 Co567 2.055 . S
O575 C579 1.253 . S
H576 C572 0.931 . S
H577 C573 0.930 . S
O578 Co567 2.039 . S
O578 C568 1.265 . S
C579 O575 1.253 . S
C579 O580 1.227 . S
O580 C579 1.227 . S
N581 Co567 2.140 . S
N581 C584 1.346 . S
N581 C585 1.345 . S
C582 C583 1.387 . S
C582 C586 1.391 . S
C583 C582 1.387 . S
C583 C584 1.369 . S
C583 H592 0.929 . S
C584 N581 1.346 . S
C584 C583 1.369 . S
C584 H587 0.928 . S
C585 N581 1.345 . S
C585 C586 1.371 . S
C585 H588 0.931 . S
C586 C582 1.391 . S
C586 C585 1.371 . S
C586 H593 0.930 . S
H587 C584 0.928 . S
H588 C585 0.931 . S
H589 C565 0.930 . S
H590 C562 0.930 . S
H591 C571 0.930 . S
H592 C583 0.929 . S
H593 C586 0.930 . S
C594 C595 1.351 . S
C594 N597 1.368 . S
C594 H599 0.931 . S
C595 C594 1.351 . S
C595 N596 1.373 . S
C595 H623 0.930 . S
N596 C595 1.373 . S
N596 C598 1.340 . S
N597 C594 1.368 . S
N597 C598 1.321 . S
N597 Co600 2.135 . S
C598 N596 1.340 . S
C598 N597 1.321 . S
C598 H622 0.930 . S
H599 C594 0.931 . S
Co600 N597 2.135 . S
Co600 N603 2.121 . S
Co600 O608 2.055 . S
Co600 O611 2.039 . S
Co600 N614 2.140 . S
C601 O602 1.227 . S
C601 O611 1.265 . S
O602 C601 1.227 . S
N603 Co600 2.121 . S
N603 C605 1.375 . S
N603 C606 1.313 . S
C604 C605 1.338 . S
C604 N607 1.377 . S
C604 H624 0.930 . S
C605 N603 1.375 . S
C605 C604 1.338 . S
C605 H609 0.931 . S
C606 N603 1.313 . S
C606 N607 1.344 . S
C606 H610 0.930 . S
N607 C604 1.377 . S
N607 C606 1.344 . S
O608 Co600 2.055 . S
O608 C612 1.253 . S
H609 C605 0.931 . S
H610 C606 0.930 . S
O611 Co600 2.039 . S
O611 C601 1.265 . S
C612 O608 1.253 . S
C612 O613 1.227 . S
O613 C612 1.227 . S
N614 Co600 2.140 . S
N614 C617 1.346 . S
N614 C618 1.345 . S
C615 C616 1.387 . S
C615 C619 1.391 . S
C616 C615 1.387 . S
C616 C617 1.369 . S
C616 H625 0.929 . S
C617 N614 1.346 . S
C617 C616 1.369 . S
C617 H620 0.928 . S
C618 N614 1.345 . S
C618 C619 1.371 . S
C618 H621 0.931 . S
C619 C615 1.391 . S
C619 C618 1.371 . S
C619 H626 0.930 . S
H620 C617 0.928 . S
H621 C618 0.931 . S
H622 C598 0.930 . S
H623 C595 0.930 . S
H624 C604 0.930 . S
H625 C616 0.929 . S
H626 C619 0.930 . S
C627 C628 1.351 . S
C627 N630 1.356 1_455 S
C627 H632 0.929 1_455 S
C628 C627 1.351 . S
C628 N629 1.373 . S
C628 H656 0.930 . S
N629 C628 1.373 . S
N629 C631 1.340 . S
N630 C627 1.356 1_655 S
N630 C631 1.297 1_655 S
N630 Co633 2.165 . S
C631 N629 1.340 . S
C631 N630 1.297 1_455 S
C631 H655 0.930 . S
H632 C627 0.929 1_655 S
Co633 N630 2.165 . S
Co633 N636 2.121 . S
Co633 O641 2.055 . S
Co633 O644 2.039 . S
Co633 N647 2.140 . S
C634 O635 1.227 . S
C634 O644 1.265 . S
O635 C634 1.227 . S
N636 Co633 2.121 . S
N636 C638 1.375 . S
N636 C639 1.313 . S
C637 C638 1.338 . S
C637 N640 1.377 . S
C637 H657 0.930 . S
C638 N636 1.375 . S
C638 C637 1.338 . S
C638 H642 0.931 . S
C639 N636 1.313 . S
C639 N640 1.344 . S
C639 H643 0.930 . S
N640 C637 1.377 . S
N640 C639 1.344 . S
O641 Co633 2.055 . S
O641 C645 1.253 . S
H642 C638 0.931 . S
H643 C639 0.930 . S
O644 Co633 2.039 . S
O644 C634 1.265 . S
C645 O641 1.253 . S
C645 O646 1.227 . S
O646 C645 1.227 . S
N647 Co633 2.140 . S
N647 C650 1.346 . S
N647 C651 1.345 . S
C648 C649 1.387 . S
C648 C652 1.391 . S
C649 C648 1.387 . S
C649 C650 1.369 . S
C649 H658 0.929 1_655 S
C650 N647 1.346 . S
C650 C649 1.369 . S
C650 H653 0.928 . S
C651 N647 1.345 . S
C651 C652 1.371 . S
C651 H654 0.931 . S
C652 C648 1.391 . S
C652 C651 1.371 . S
C652 H659 0.930 . S
H653 C650 0.928 . S
H654 C651 0.931 . S
H655 C631 0.930 . S
H656 C628 0.930 . S
H657 C637 0.930 . S
H658 C649 0.929 1_455 S
H659 C652 0.930 . S
C660 C661 1.351 . S
C660 N663 1.368 . S
C660 H665 0.931 . S
C661 C660 1.351 . S
C661 N662 1.373 . S
C661 H689 0.930 . S
N662 C661 1.373 . S
N662 C664 1.340 . S
N663 C660 1.368 . S
N663 C664 1.321 . S
N663 Co666 2.135 . S
C664 N662 1.340 . S
C664 N663 1.321 . S
C664 H688 0.930 . S
H665 C660 0.931 . S
Co666 N663 2.135 . S
Co666 N669 2.121 . S
Co666 O674 2.055 . S
Co666 O677 2.039 . S
Co666 N680 2.140 . S
C667 O668 1.227 . S
C667 O677 1.265 . S
O668 C667 1.227 . S
N669 Co666 2.121 . S
N669 C671 1.375 . S
N669 C672 1.313 . S
C670 C671 1.338 . S
C670 N673 1.377 . S
C670 H690 0.930 . S
C671 N669 1.375 . S
C671 C670 1.338 . S
C671 H675 0.931 . S
C672 N669 1.313 . S
C672 N673 1.344 . S
C672 H676 0.930 . S
N673 C670 1.377 . S
N673 C672 1.344 . S
O674 Co666 2.055 . S
O674 C678 1.253 . S
H675 C671 0.931 . S
H676 C672 0.930 . S
O677 Co666 2.039 . S
O677 C667 1.265 . S
C678 O674 1.253 . S
C678 O679 1.227 . S
O679 C678 1.227 . S
N680 Co666 2.140 . S
N680 C683 1.346 . S
N680 C684 1.345 . S
C681 C682 1.387 . S
C681 C685 1.391 . S
C682 C681 1.387 . S
C682 C683 1.369 . S
C682 H691 0.929 . S
C683 N680 1.346 . S
C683 C682 1.369 . S
C683 H686 0.928 . S
C684 N680 1.345 . S
C684 C685 1.371 . S
C684 H687 0.931 . S
C685 C681 1.391 . S
C685 C684 1.371 . S
C685 H692 0.930 . S
H686 C683 0.928 . S
H687 C684 0.931 . S
H688 C664 0.930 . S
H689 C661 0.930 . S
H690 C670 0.930 . S
H691 C682 0.929 . S
H692 C685 0.930 . S
C693 C694 1.351 . S
C693 N696 1.356 1_455 S
C693 H698 0.929 1_455 S
C694 C693 1.351 . S
C694 N695 1.373 . S
C694 H722 0.930 . S
N695 C694 1.373 . S
N695 C697 1.340 . S
N696 C693 1.356 1_655 S
N696 C697 1.297 1_655 S
N696 Co699 2.165 . S
C697 N695 1.340 . S
C697 N696 1.297 1_455 S
C697 H721 0.930 . S
H698 C693 0.929 1_655 S
Co699 N696 2.165 . S
Co699 N702 2.121 . S
Co699 O707 2.055 . S
Co699 O710 2.039 . S
Co699 N713 2.140 . S
C700 O701 1.227 . S
C700 O710 1.265 . S
O701 C700 1.227 . S
N702 Co699 2.121 . S
N702 C704 1.375 . S
N702 C705 1.313 . S
C703 C704 1.338 . S
C703 N706 1.377 . S
C703 H723 0.930 . S
C704 N702 1.375 . S
C704 C703 1.338 . S
C704 H708 0.931 . S
C705 N702 1.313 . S
C705 N706 1.344 . S
C705 H709 0.930 . S
N706 C703 1.377 . S
N706 C705 1.344 . S
O707 Co699 2.055 . S
O707 C711 1.253 . S
H708 C704 0.931 . S
H709 C705 0.930 . S
O710 Co699 2.039 . S
O710 C700 1.265 . S
C711 O707 1.253 . S
C711 O712 1.227 . S
O712 C711 1.227 . S
N713 Co699 2.140 . S
N713 C716 1.346 . S
N713 C717 1.345 . S
C714 C715 1.387 . S
C714 C718 1.391 . S
C715 C714 1.387 . S
C715 C716 1.369 . S
C715 H724 0.929 1_655 S
C716 N713 1.346 . S
C716 C715 1.369 . S
C716 H719 0.928 . S
C717 N713 1.345 . S
C717 C718 1.371 . S
C717 H720 0.931 . S
C718 C714 1.391 . S
C718 C717 1.371 . S
C718 H725 0.930 . S
H719 C716 0.928 . S
H720 C717 0.931 . S
H721 C697 0.930 . S
H722 C694 0.930 . S
H723 C703 0.930 . S
H724 C715 0.929 1_455 S
H725 C718 0.930 . S
C726 C727 1.351 . S
C726 N729 1.368 . S
C726 H731 0.931 . S
C727 C726 1.351 . S
C727 N728 1.373 . S
C727 H755 0.930 . S
N728 C727 1.373 . S
N728 C730 1.340 . S
N729 C726 1.368 . S
N729 C730 1.321 . S
N729 Co732 2.135 . S
C730 N728 1.340 . S
C730 N729 1.321 . S
C730 H754 0.930 . S
H731 C726 0.931 . S
Co732 N729 2.135 . S
Co732 N735 2.121 . S
Co732 O740 2.055 . S
Co732 O743 2.039 . S
Co732 N746 2.140 . S
C733 O734 1.227 . S
C733 O743 1.265 . S
O734 C733 1.227 . S
N735 Co732 2.121 . S
N735 C737 1.375 . S
N735 C738 1.313 . S
C736 C737 1.338 . S
C736 N739 1.377 . S
C736 H756 0.930 . S
C737 N735 1.375 . S
C737 C736 1.338 . S
C737 H741 0.931 . S
C738 N735 1.313 . S
C738 N739 1.344 . S
C738 H742 0.930 . S
N739 C736 1.377 . S
N739 C738 1.344 . S
O740 Co732 2.055 . S
O740 C744 1.253 . S
H741 C737 0.931 . S
H742 C738 0.930 . S
O743 Co732 2.039 . S
O743 C733 1.265 . S
C744 O740 1.253 . S
C744 O745 1.227 . S
O745 C744 1.227 . S
N746 Co732 2.140 . S
N746 C749 1.346 . S
N746 C750 1.345 . S
C747 C748 1.387 . S
C747 C751 1.391 . S
C748 C747 1.387 . S
C748 C749 1.369 . S
C748 H757 0.929 . S
C749 N746 1.346 . S
C749 C748 1.369 . S
C749 H752 0.928 . S
C750 N746 1.345 . S
C750 C751 1.371 . S
C750 H753 0.931 . S
C751 C747 1.391 . S
C751 C750 1.371 . S
C751 H758 0.930 . S
H752 C749 0.928 . S
H753 C750 0.931 . S
H754 C730 0.930 . S
H755 C727 0.930 . S
H756 C736 0.930 . S
H757 C748 0.929 . S
H758 C751 0.930 . S
C759 C760 1.351 . S
C759 N762 1.368 . S
C759 H764 0.931 . S
C760 C759 1.351 . S
C760 N761 1.373 . S
C760 H788 0.930 . S
N761 C760 1.373 . S
N761 C763 1.340 . S
N762 C759 1.368 . S
N762 C763 1.321 . S
N762 Co765 2.135 . S
C763 N761 1.340 . S
C763 N762 1.321 . S
C763 H787 0.930 . S
H764 C759 0.931 . S
Co765 N762 2.135 . S
Co765 N768 2.121 . S
Co765 O773 2.055 . S
Co765 O776 2.039 . S
Co765 N779 2.140 . S
C766 O767 1.227 . S
C766 O776 1.265 . S
O767 C766 1.227 . S
N768 Co765 2.121 . S
N768 C770 1.375 . S
N768 C771 1.313 . S
C769 C770 1.338 . S
C769 N772 1.377 . S
C769 H789 0.930 . S
C770 N768 1.375 . S
C770 C769 1.338 . S
C770 H774 0.931 . S
C771 N768 1.313 . S
C771 N772 1.344 . S
C771 H775 0.930 . S
N772 C769 1.377 . S
N772 C771 1.344 . S
O773 Co765 2.055 . S
O773 C777 1.253 . S
H774 C770 0.931 . S
H775 C771 0.930 . S
O776 Co765 2.039 . S
O776 C766 1.265 . S
C777 O773 1.253 . S
C777 O778 1.227 . S
O778 C777 1.227 . S
N779 Co765 2.140 . S
N779 C782 1.346 . S
N779 C783 1.345 . S
C780 C781 1.387 . S
C780 C784 1.391 . S
C781 C780 1.387 . S
C781 C782 1.369 . S
C781 H790 0.929 . S
C782 N779 1.346 . S
C782 C781 1.369 . S
C782 H785 0.928 . S
C783 N779 1.345 . S
C783 C784 1.371 . S
C783 H786 0.931 . S
C784 C780 1.391 . S
C784 C783 1.371 . S
C784 H791 0.930 . S
H785 C782 0.928 . S
H786 C783 0.931 . S
H787 C763 0.930 . S
H788 C760 0.930 . S
H789 C769 0.930 . S
H790 C781 0.929 . S
H791 C784 0.930 . S
C792 C793 1.351 . S
C792 N795 1.368 . S
C792 H797 0.931 . S
C793 C792 1.351 . S
C793 N794 1.373 . S
C793 H821 0.930 . S
N794 C793 1.373 . S
N794 C796 1.340 . S
N795 C792 1.368 . S
N795 C796 1.321 . S
N795 Co798 2.135 . S
C796 N794 1.340 . S
C796 N795 1.321 . S
C796 H820 0.930 . S
H797 C792 0.931 . S
Co798 N795 2.135 . S
Co798 N801 2.121 . S
Co798 O806 2.055 . S
Co798 O809 2.039 . S
Co798 N812 2.140 . S
C799 O800 1.227 . S
C799 O809 1.265 . S
O800 C799 1.227 . S
N801 Co798 2.121 . S
N801 C803 1.375 . S
N801 C804 1.313 . S
C802 C803 1.338 . S
C802 N805 1.377 . S
C802 H822 0.930 . S
C803 N801 1.375 . S
C803 C802 1.338 . S
C803 H807 0.931 . S
C804 N801 1.313 . S
C804 N805 1.344 . S
C804 H808 0.930 . S
N805 C802 1.377 . S
N805 C804 1.344 . S
O806 Co798 2.055 . S
O806 C810 1.253 . S
H807 C803 0.931 . S
H808 C804 0.930 . S
O809 Co798 2.039 . S
O809 C799 1.265 . S
C810 O806 1.253 . S
C810 O811 1.227 . S
O811 C810 1.227 . S
N812 Co798 2.140 . S
N812 C815 1.346 . S
N812 C816 1.345 . S
C813 C814 1.387 . S
C813 C817 1.391 . S
C814 C813 1.387 . S
C814 C815 1.369 . S
C814 H823 0.929 . S
C815 N812 1.346 . S
C815 C814 1.369 . S
C815 H818 0.928 . S
C816 N812 1.345 . S
C816 C817 1.371 . S
C816 H819 0.931 . S
C817 C813 1.391 . S
C817 C816 1.371 . S
C817 H824 0.930 . S
H818 C815 0.928 . S
H819 C816 0.931 . S
H820 C796 0.930 . S
H821 C793 0.930 . S
H822 C802 0.930 . S
H823 C814 0.929 . S
H824 C817 0.930 . S
C825 C826 1.351 . S
C825 N828 1.368 . S
C825 H830 0.931 . S
C826 C825 1.351 . S
C826 N827 1.373 . S
C826 H854 0.930 . S
N827 C826 1.373 . S
N827 C829 1.340 . S
N828 C825 1.368 . S
N828 C829 1.321 . S
N828 Co831 2.135 . S
C829 N827 1.340 . S
C829 N828 1.321 . S
C829 H853 0.930 . S
H830 C825 0.931 . S
Co831 N828 2.135 . S
Co831 N834 2.121 . S
Co831 O839 2.055 . S
Co831 O842 2.039 . S
Co831 N845 2.140 . S
C832 O833 1.227 . S
C832 O842 1.265 . S
O833 C832 1.227 . S
N834 Co831 2.121 . S
N834 C836 1.375 . S
N834 C837 1.313 . S
C835 C836 1.338 . S
C835 N838 1.377 . S
C835 H855 0.930 . S
C836 N834 1.375 . S
C836 C835 1.338 . S
C836 H840 0.931 . S
C837 N834 1.313 . S
C837 N838 1.344 . S
C837 H841 0.930 . S
N838 C835 1.377 . S
N838 C837 1.344 . S
O839 Co831 2.055 . S
O839 C843 1.253 . S
H840 C836 0.931 . S
H841 C837 0.930 . S
O842 Co831 2.039 . S
O842 C832 1.265 . S
C843 O839 1.253 . S
C843 O844 1.227 . S
O844 C843 1.227 . S
N845 Co831 2.140 . S
N845 C848 1.346 . S
N845 C849 1.345 . S
C846 C847 1.387 . S
C846 C850 1.391 . S
C847 C846 1.387 . S
C847 C848 1.369 . S
C847 H856 0.929 . S
C848 N845 1.346 . S
C848 C847 1.369 . S
C848 H851 0.928 . S
C849 N845 1.345 . S
C849 C850 1.371 . S
C849 H852 0.931 . S
C850 C846 1.391 . S
C850 C849 1.371 . S
C850 H857 0.930 . S
H851 C848 0.928 . S
H852 C849 0.931 . S
H853 C829 0.930 . S
H854 C826 0.930 . S
H855 C835 0.930 . S
H856 C847 0.929 . S
H857 C850 0.930 . S
C858 C859 1.351 . S
C858 N861 1.368 . S
C858 H863 0.931 . S
C859 C858 1.351 . S
C859 N860 1.373 . S
C859 H887 0.930 . S
N860 C859 1.373 . S
N860 C862 1.340 . S
N861 C858 1.368 . S
N861 C862 1.321 . S
N861 Co864 2.135 . S
C862 N860 1.340 . S
C862 N861 1.321 . S
C862 H886 0.930 . S
H863 C858 0.931 . S
Co864 N861 2.135 . S
Co864 N867 2.121 . S
Co864 O872 2.055 . S
Co864 O875 2.039 . S
Co864 N878 2.140 . S
C865 O866 1.227 . S
C865 O875 1.265 . S
O866 C865 1.227 . S
N867 Co864 2.121 . S
N867 C869 1.375 . S
N867 C870 1.313 . S
C868 C869 1.338 . S
C868 N871 1.377 . S
C868 H888 0.930 . S
C869 N867 1.375 . S
C869 C868 1.338 . S
C869 H873 0.931 . S
C870 N867 1.313 . S
C870 N871 1.344 . S
C870 H874 0.930 . S
N871 C868 1.377 . S
N871 C870 1.344 . S
O872 Co864 2.055 . S
O872 C876 1.253 . S
H873 C869 0.931 . S
H874 C870 0.930 . S
O875 Co864 2.039 . S
O875 C865 1.265 . S
C876 O872 1.253 . S
C876 O877 1.227 . S
O877 C876 1.227 . S
N878 Co864 2.140 . S
N878 C881 1.346 . S
N878 C882 1.345 . S
C879 C880 1.387 . S
C879 C883 1.391 . S
C880 C879 1.387 . S
C880 C881 1.369 . S
C880 H889 0.929 . S
C881 N878 1.346 . S
C881 C880 1.369 . S
C881 H884 0.928 . S
C882 N878 1.345 . S
C882 C883 1.371 . S
C882 H885 0.931 . S
C883 C879 1.391 . S
C883 C882 1.371 . S
C883 H890 0.930 . S
H884 C881 0.928 . S
H885 C882 0.931 . S
H886 C862 0.930 . S
H887 C859 0.930 . S
H888 C868 0.930 . S
H889 C880 0.929 . S
H890 C883 0.930 . S
C891 C892 1.351 . S
C891 N894 1.356 1_655 S
C891 H896 0.929 1_655 S
C892 C891 1.351 . S
C892 N893 1.373 . S
C892 H920 0.930 . S
N893 C892 1.373 . S
N893 C895 1.340 . S
N894 C891 1.356 1_455 S
N894 C895 1.297 1_455 S
N894 Co897 2.165 . S
C895 N893 1.340 . S
C895 N894 1.297 1_655 S
C895 H919 0.930 . S
H896 C891 0.929 1_455 S
Co897 N894 2.165 . S
Co897 N900 2.121 . S
Co897 O905 2.055 . S
Co897 O908 2.039 . S
Co897 N911 2.140 . S
C898 O899 1.227 . S
C898 O908 1.265 . S
O899 C898 1.227 . S
N900 Co897 2.121 . S
N900 C902 1.375 . S
N900 C903 1.313 . S
C901 C902 1.338 . S
C901 N904 1.377 . S
C901 H921 0.930 . S
C902 N900 1.375 . S
C902 C901 1.338 . S
C902 H906 0.931 . S
C903 N900 1.313 . S
C903 N904 1.344 . S
C903 H907 0.930 . S
N904 C901 1.377 . S
N904 C903 1.344 . S
O905 Co897 2.055 . S
O905 C909 1.253 . S
H906 C902 0.931 . S
H907 C903 0.930 . S
O908 Co897 2.039 . S
O908 C898 1.265 . S
C909 O905 1.253 . S
C909 O910 1.227 . S
O910 C909 1.227 . S
N911 Co897 2.140 . S
N911 C914 1.346 . S
N911 C915 1.345 . S
C912 C913 1.387 . S
C912 C916 1.391 . S
C913 C912 1.387 . S
C913 C914 1.369 . S
C913 H922 0.929 1_455 S
C914 N911 1.346 . S
C914 C913 1.369 . S
C914 H917 0.928 . S
C915 N911 1.345 . S
C915 C916 1.371 . S
C915 H918 0.931 . S
C916 C912 1.391 . S
C916 C915 1.371 . S
C916 H923 0.930 . S
H917 C914 0.928 . S
H918 C915 0.931 . S
H919 C895 0.930 . S
H920 C892 0.930 . S
H921 C901 0.930 . S
H922 C913 0.929 1_655 S
H923 C916 0.930 . S
C924 C925 1.351 . S
C924 N927 1.368 . S
C924 H929 0.931 . S
C925 C924 1.351 . S
C925 N926 1.373 . S
C925 H953 0.930 . S
N926 C925 1.373 . S
N926 C928 1.340 . S
N927 C924 1.368 . S
N927 C928 1.321 . S
N927 Co930 2.135 . S
C928 N926 1.340 . S
C928 N927 1.321 . S
C928 H952 0.930 . S
H929 C924 0.931 . S
Co930 N927 2.135 . S
Co930 N933 2.121 . S
Co930 O938 2.055 . S
Co930 O941 2.039 . S
Co930 N944 2.140 . S
C931 O932 1.227 . S
C931 O941 1.265 . S
O932 C931 1.227 . S
N933 Co930 2.121 . S
N933 C935 1.375 . S
N933 C936 1.313 . S
C934 C935 1.338 . S
C934 N937 1.377 . S
C934 H954 0.930 . S
C935 N933 1.375 . S
C935 C934 1.338 . S
C935 H939 0.931 . S
C936 N933 1.313 . S
C936 N937 1.344 . S
C936 H940 0.930 . S
N937 C934 1.377 . S
N937 C936 1.344 . S
O938 Co930 2.055 . S
O938 C942 1.253 . S
H939 C935 0.931 . S
H940 C936 0.930 . S
O941 Co930 2.039 . S
O941 C931 1.265 . S
C942 O938 1.253 . S
C942 O943 1.227 . S
O943 C942 1.227 . S
N944 Co930 2.140 . S
N944 C947 1.346 . S
N944 C948 1.345 . S
C945 C946 1.387 . S
C945 C949 1.391 . S
C946 C945 1.387 . S
C946 C947 1.369 . S
C946 H955 0.929 . S
C947 N944 1.346 . S
C947 C946 1.369 . S
C947 H950 0.928 . S
C948 N944 1.345 . S
C948 C949 1.371 . S
C948 H951 0.931 . S
C949 C945 1.391 . S
C949 C948 1.371 . S
C949 H956 0.930 . S
H950 C947 0.928 . S
H951 C948 0.931 . S
H952 C928 0.930 . S
H953 C925 0.930 . S
H954 C934 0.930 . S
H955 C946 0.929 . S
H956 C949 0.930 . S
C957 C958 1.351 . S
C957 N960 1.356 1_655 S
C957 H962 0.929 1_655 S
C958 C957 1.351 . S
C958 N959 1.373 . S
C958 H986 0.930 . S
N959 C958 1.373 . S
N959 C961 1.340 . S
N960 C957 1.356 1_455 S
N960 C961 1.297 1_455 S
N960 Co963 2.165 . S
C961 N959 1.340 . S
C961 N960 1.297 1_655 S
C961 H985 0.930 . S
H962 C957 0.929 1_455 S
Co963 N960 2.165 . S
Co963 N966 2.121 . S
Co963 O971 2.055 . S
Co963 O974 2.039 . S
Co963 N977 2.140 . S
C964 O965 1.227 . S
C964 O974 1.265 . S
O965 C964 1.227 . S
N966 Co963 2.121 . S
N966 C968 1.375 . S
N966 C969 1.313 . S
C967 C968 1.338 . S
C967 N970 1.377 . S
C967 H987 0.930 . S
C968 N966 1.375 . S
C968 C967 1.338 . S
C968 H972 0.931 . S
C969 N966 1.313 . S
C969 N970 1.344 . S
C969 H973 0.930 . S
N970 C967 1.377 . S
N970 C969 1.344 . S
O971 Co963 2.055 . S
O971 C975 1.253 . S
H972 C968 0.931 . S
H973 C969 0.930 . S
O974 Co963 2.039 . S
O974 C964 1.265 . S
C975 O971 1.253 . S
C975 O976 1.227 . S
O976 C975 1.227 . S
N977 Co963 2.140 . S
N977 C980 1.346 . S
N977 C981 1.345 . S
C978 C979 1.387 . S
C978 C982 1.391 . S
C979 C978 1.387 . S
C979 C980 1.369 . S
C979 H988 0.929 1_455 S
C980 N977 1.346 . S
C980 C979 1.369 . S
C980 H983 0.928 . S
C981 N977 1.345 . S
C981 C982 1.371 . S
C981 H984 0.931 . S
C982 C978 1.391 . S
C982 C981 1.371 . S
C982 H989 0.930 . S
H983 C980 0.928 . S
H984 C981 0.931 . S
H985 C961 0.930 . S
H986 C958 0.930 . S
H987 C967 0.930 . S
H988 C979 0.929 1_655 S
H989 C982 0.930 . S
C990 C991 1.351 . S
C990 N993 1.368 . S
C990 H995 0.931 . S
C991 C990 1.351 . S
C991 N992 1.373 . S
C991 H1019 0.930 . S
N992 C991 1.373 . S
N992 C994 1.340 . S
N993 C990 1.368 . S
N993 C994 1.321 . S
N993 Co996 2.135 . S
C994 N992 1.340 . S
C994 N993 1.321 . S
C994 H1018 0.930 . S
H995 C990 0.931 . S
Co996 N993 2.135 . S
Co996 N999 2.121 . S
Co996 O1004 2.055 . S
Co996 O1007 2.039 . S
Co996 N1010 2.140 . S
C997 O998 1.227 . S
C997 O1007 1.265 . S
O998 C997 1.227 . S
N999 Co996 2.121 . S
N999 C1001 1.375 . S
N999 C1002 1.313 . S
C1000 C1001 1.338 . S
C1000 N1003 1.377 . S
C1000 H1020 0.930 . S
C1001 N999 1.375 . S
C1001 C1000 1.338 . S
C1001 H1005 0.931 . S
C1002 N999 1.313 . S
C1002 N1003 1.344 . S
C1002 H1006 0.930 . S
N1003 C1000 1.377 . S
N1003 C1002 1.344 . S
O1004 Co996 2.055 . S
O1004 C1008 1.253 . S
H1005 C1001 0.931 . S
H1006 C1002 0.930 . S
O1007 Co996 2.039 . S
O1007 C997 1.265 . S
C1008 O1004 1.253 . S
C1008 O1009 1.227 . S
O1009 C1008 1.227 . S
N1010 Co996 2.140 . S
N1010 C1013 1.346 . S
N1010 C1014 1.345 . S
C1011 C1012 1.387 . S
C1011 C1015 1.391 . S
C1012 C1011 1.387 . S
C1012 C1013 1.369 . S
C1012 H1021 0.929 . S
C1013 N1010 1.346 . S
C1013 C1012 1.369 . S
C1013 H1016 0.928 . S
C1014 N1010 1.345 . S
C1014 C1015 1.371 . S
C1014 H1017 0.931 . S
C1015 C1011 1.391 . S
C1015 C1014 1.371 . S
C1015 H1022 0.930 . S
H1016 C1013 0.928 . S
H1017 C1014 0.931 . S
H1018 C994 0.930 . S
H1019 C991 0.930 . S
H1020 C1000 0.930 . S
H1021 C1012 0.929 . S
H1022 C1015 0.930 . S
C1023 C1024 1.351 . S
C1023 N1026 1.368 . S
C1023 H1028 0.931 . S
C1024 C1023 1.351 . S
C1024 N1025 1.373 . S
C1024 H1052 0.930 . S
N1025 C1024 1.373 . S
N1025 C1027 1.340 . S
N1026 C1023 1.368 . S
N1026 C1027 1.321 . S
N1026 Co1029 2.135 . S
C1027 N1025 1.340 . S
C1027 N1026 1.321 . S
C1027 H1051 0.930 . S
H1028 C1023 0.931 . S
Co1029 N1026 2.135 . S
Co1029 N1032 2.121 . S
Co1029 O1037 2.055 . S
Co1029 O1040 2.039 . S
Co1029 N1043 2.140 . S
C1030 O1031 1.227 . S
C1030 O1040 1.265 . S
O1031 C1030 1.227 . S
N1032 Co1029 2.121 . S
N1032 C1034 1.375 . S
N1032 C1035 1.313 . S
C1033 C1034 1.338 . S
C1033 N1036 1.377 . S
C1033 H1053 0.930 . S
C1034 N1032 1.375 . S
C1034 C1033 1.338 . S
C1034 H1038 0.931 . S
C1035 N1032 1.313 . S
C1035 N1036 1.344 . S
C1035 H1039 0.930 . S
N1036 C1033 1.377 . S
N1036 C1035 1.344 . S
O1037 Co1029 2.055 . S
O1037 C1041 1.253 . S
H1038 C1034 0.931 . S
H1039 C1035 0.930 . S
O1040 Co1029 2.039 . S
O1040 C1030 1.265 . S
C1041 O1037 1.253 . S
C1041 O1042 1.227 . S
O1042 C1041 1.227 . S
N1043 Co1029 2.140 . S
N1043 C1046 1.346 . S
N1043 C1047 1.345 . S
C1044 C1045 1.387 . S
C1044 C1048 1.391 . S
C1045 C1044 1.387 . S
C1045 C1046 1.369 . S
C1045 H1054 0.929 . S
C1046 N1043 1.346 . S
C1046 C1045 1.369 . S
C1046 H1049 0.928 . S
C1047 N1043 1.345 . S
C1047 C1048 1.371 . S
C1047 H1050 0.931 . S
C1048 C1044 1.391 . S
C1048 C1047 1.371 . S
C1048 H1055 0.930 . S
H1049 C1046 0.928 . S
H1050 C1047 0.931 . S
H1051 C1027 0.930 . S
H1052 C1024 0.930 . S
H1053 C1033 0.930 . S
H1054 C1045 0.929 . S
H1055 C1048 0.930 . S
C1056 C1057 1.349 . S
C1056 C1058 1.327 . S
C1056 H1081 0.950 . S
C1057 C1056 1.349 . S
C1057 C1073 1.349 . S
C1058 C1056 1.327 . S
C1058 C1077 1.429 . S
C1058 H1082 0.950 . S
C1059 C1076 1.574 . S
C1059 C1078 1.368 . S
C1059 H1083 0.949 . S
H1060 C1064 0.949 . S
C1061 C1062 1.349 . S
C1061 C1063 1.327 . S
C1061 H1084 0.950 . S
C1062 C1061 1.349 . S
C1062 C1074 1.349 . S
C1063 C1061 1.327 . S
C1063 C1079 1.429 . S
C1063 H1085 0.950 . S
C1064 H1060 0.949 . S
C1064 C1072 1.574 . S
C1064 C1080 1.368 . S
H1065 C1073 0.950 . S
H1066 C1071 0.950 . S
H1067 C1072 0.949 . S
H1068 C1074 0.950 . S
H1069 C1075 0.950 . S
H1070 C1076 0.949 . S
C1071 H1066 0.950 . S
C1071 C1073 1.327 . S
C1071 C1077 1.429 . S
C1072 C1064 1.574 . S
C1072 H1067 0.949 . S
C1072 C1078 1.368 . S
C1073 C1057 1.349 . S
C1073 H1065 0.950 . S
C1073 C1071 1.327 . S
C1074 C1062 1.349 . S
C1074 H1068 0.950 . S
C1074 C1075 1.327 . S
C1075 H1069 0.950 . S
C1075 C1074 1.327 . S
C1075 C1079 1.429 . S
C1076 C1059 1.574 . S
C1076 H1070 0.949 . S
C1076 C1080 1.368 . S
C1077 C1058 1.429 . S
C1077 C1071 1.429 . S
C1077 C1078 1.523 . S
C1078 C1059 1.368 . S
C1078 C1072 1.368 . S
C1078 C1077 1.523 . S
C1079 C1063 1.429 . S
C1079 C1075 1.429 . S
C1079 C1080 1.523 . S
C1080 C1064 1.368 . S
C1080 C1076 1.368 . S
C1080 C1079 1.523 . S
H1081 C1056 0.950 . S
H1082 C1058 0.950 . S
H1083 C1059 0.949 . S
H1084 C1061 0.950 . S
H1085 C1063 0.950 . S
C1086 C1087 1.349 . S
C1086 C1088 1.327 . S
C1086 H1111 0.950 . S
C1087 C1086 1.349 . S
C1087 C1103 1.349 . S
C1088 C1086 1.327 . S
C1088 C1107 1.429 . S
C1088 H1112 0.950 . S
C1089 C1106 1.574 . S
C1089 C1108 1.368 . S
C1089 H1113 0.949 . S
H1090 C1094 0.949 . S
C1091 C1092 1.349 . S
C1091 C1093 1.327 . S
C1091 H1114 0.950 . S
C1092 C1091 1.349 . S
C1092 C1104 1.349 . S
C1093 C1091 1.327 . S
C1093 C1109 1.429 . S
C1093 H1115 0.950 . S
C1094 H1090 0.949 . S
C1094 C1102 1.574 . S
C1094 C1110 1.368 . S
H1095 C1103 0.950 . S
H1096 C1101 0.950 . S
H1097 C1102 0.949 . S
H1098 C1104 0.950 . S
H1099 C1105 0.950 . S
H1100 C1106 0.949 . S
C1101 H1096 0.950 . S
C1101 C1103 1.327 . S
C1101 C1107 1.429 . S
C1102 C1094 1.574 . S
C1102 H1097 0.949 . S
C1102 C1108 1.368 . S
C1103 C1087 1.349 . S
C1103 H1095 0.950 . S
C1103 C1101 1.327 . S
C1104 C1092 1.349 . S
C1104 H1098 0.950 . S
C1104 C1105 1.327 . S
C1105 H1099 0.950 . S
C1105 C1104 1.327 . S
C1105 C1109 1.429 . S
C1106 C1089 1.574 . S
C1106 H1100 0.949 . S
C1106 C1110 1.368 . S
C1107 C1088 1.429 . S
C1107 C1101 1.429 . S
C1107 C1108 1.523 . S
C1108 C1089 1.368 . S
C1108 C1102 1.368 . S
C1108 C1107 1.523 . S
C1109 C1093 1.429 . S
C1109 C1105 1.429 . S
C1109 C1110 1.523 . S
C1110 C1094 1.368 . S
C1110 C1106 1.368 . S
C1110 C1109 1.523 . S
H1111 C1086 0.950 . S
H1112 C1088 0.950 . S
H1113 C1089 0.949 . S
H1114 C1091 0.950 . S
H1115 C1093 0.950 . S
C1116 C1117 1.349 . S
C1116 C1118 1.327 . S
C1116 H1141 0.950 . S
C1117 C1116 1.349 . S
C1117 C1133 1.349 . S
C1118 C1116 1.327 . S
C1118 C1137 1.429 . S
C1118 H1142 0.950 . S
C1119 C1136 1.574 . S
C1119 C1138 1.368 . S
C1119 H1143 0.949 . S
H1120 C1124 0.949 . S
C1121 C1122 1.349 . S
C1121 C1123 1.327 . S
C1121 H1144 0.950 . S
C1122 C1121 1.349 . S
C1122 C1134 1.349 . S
C1123 C1121 1.327 . S
C1123 C1139 1.429 . S
C1123 H1145 0.950 . S
C1124 H1120 0.949 . S
C1124 C1132 1.574 . S
C1124 C1140 1.368 . S
H1125 C1133 0.950 . S
H1126 C1131 0.950 . S
H1127 C1132 0.949 . S
H1128 C1134 0.950 . S
H1129 C1135 0.950 . S
H1130 C1136 0.949 . S
C1131 H1126 0.950 . S
C1131 C1133 1.327 . S
C1131 C1137 1.429 . S
C1132 C1124 1.574 . S
C1132 H1127 0.949 . S
C1132 C1138 1.368 . S
C1133 C1117 1.349 . S
C1133 H1125 0.950 . S
C1133 C1131 1.327 . S
C1134 C1122 1.349 . S
C1134 H1128 0.950 . S
C1134 C1135 1.327 . S
C1135 H1129 0.950 . S
C1135 C1134 1.327 . S
C1135 C1139 1.429 . S
C1136 C1119 1.574 . S
C1136 H1130 0.949 . S
C1136 C1140 1.368 . S
C1137 C1118 1.429 . S
C1137 C1131 1.429 . S
C1137 C1138 1.523 . S
C1138 C1119 1.368 . S
C1138 C1132 1.368 . S
C1138 C1137 1.523 . S
C1139 C1123 1.429 . S
C1139 C1135 1.429 . S
C1139 C1140 1.523 . S
C1140 C1124 1.368 . S
C1140 C1136 1.368 . S
C1140 C1139 1.523 . S
H1141 C1116 0.950 . S
H1142 C1118 0.950 . S
H1143 C1119 0.949 . S
H1144 C1121 0.950 . S
H1145 C1123 0.950 . S
C1146 C1147 1.349 . S
C1146 C1148 1.327 . S
C1146 H1171 0.950 . S
C1147 C1146 1.349 . S
C1147 C1163 1.349 . S
C1148 C1146 1.327 . S
C1148 C1167 1.429 . S
C1148 H1172 0.950 . S
C1149 C1166 1.574 . S
C1149 C1168 1.368 . S
C1149 H1173 0.949 . S
H1150 C1154 0.949 . S
C1151 C1152 1.349 . S
C1151 C1153 1.327 . S
C1151 H1174 0.950 . S
C1152 C1151 1.349 . S
C1152 C1164 1.349 . S
C1153 C1151 1.327 . S
C1153 C1169 1.429 . S
C1153 H1175 0.950 . S
C1154 H1150 0.949 . S
C1154 C1162 1.574 . S
C1154 C1170 1.368 . S
H1155 C1163 0.950 . S
H1156 C1161 0.950 . S
H1157 C1162 0.949 . S
H1158 C1164 0.950 . S
H1159 C1165 0.950 . S
H1160 C1166 0.949 . S
C1161 H1156 0.950 . S
C1161 C1163 1.327 . S
C1161 C1167 1.429 . S
C1162 C1154 1.574 . S
C1162 H1157 0.949 . S
C1162 C1168 1.368 . S
C1163 C1147 1.349 . S
C1163 H1155 0.950 . S
C1163 C1161 1.327 . S
C1164 C1152 1.349 . S
C1164 H1158 0.950 . S
C1164 C1165 1.327 . S
C1165 H1159 0.950 . S
C1165 C1164 1.327 . S
C1165 C1169 1.429 . S
C1166 C1149 1.574 . S
C1166 H1160 0.949 . S
C1166 C1170 1.368 . S
C1167 C1148 1.429 . S
C1167 C1161 1.429 . S
C1167 C1168 1.523 . S
C1168 C1149 1.368 . S
C1168 C1162 1.368 . S
C1168 C1167 1.523 . S
C1169 C1153 1.429 . S
C1169 C1165 1.429 . S
C1169 C1170 1.523 . S
C1170 C1154 1.368 . S
C1170 C1166 1.368 . S
C1170 C1169 1.523 . S
H1171 C1146 0.950 . S
H1172 C1148 0.950 . S
H1173 C1149 0.949 . S
H1174 C1151 0.950 . S
H1175 C1153 0.950 . S
C1176 C1177 1.349 . S
C1176 C1178 1.327 . S
C1176 H1201 0.950 . S
C1177 C1176 1.349 . S
C1177 C1193 1.349 . S
C1178 C1176 1.327 . S
C1178 C1197 1.429 . S
C1178 H1202 0.950 . S
C1179 C1196 1.574 . S
C1179 C1198 1.368 . S
C1179 H1203 0.949 . S
H1180 C1184 0.949 . S
C1181 C1182 1.349 . S
C1181 C1183 1.327 . S
C1181 H1204 0.950 . S
C1182 C1181 1.349 . S
C1182 C1194 1.349 . S
C1183 C1181 1.327 . S
C1183 C1199 1.429 . S
C1183 H1205 0.950 . S
C1184 H1180 0.949 . S
C1184 C1192 1.574 . S
C1184 C1200 1.368 . S
H1185 C1193 0.950 . S
H1186 C1191 0.950 . S
H1187 C1192 0.949 . S
H1188 C1194 0.950 . S
H1189 C1195 0.950 . S
H1190 C1196 0.949 . S
C1191 H1186 0.950 . S
C1191 C1193 1.327 . S
C1191 C1197 1.429 . S
C1192 C1184 1.574 . S
C1192 H1187 0.949 . S
C1192 C1198 1.368 . S
C1193 C1177 1.349 . S
C1193 H1185 0.950 . S
C1193 C1191 1.327 . S
C1194 C1182 1.349 . S
C1194 H1188 0.950 . S
C1194 C1195 1.327 . S
C1195 H1189 0.950 . S
C1195 C1194 1.327 . S
C1195 C1199 1.429 . S
C1196 C1179 1.574 . S
C1196 H1190 0.949 . S
C1196 C1200 1.368 . S
C1197 C1178 1.429 . S
C1197 C1191 1.429 . S
C1197 C1198 1.523 . S
C1198 C1179 1.368 . S
C1198 C1192 1.368 . S
C1198 C1197 1.523 . S
C1199 C1183 1.429 . S
C1199 C1195 1.429 . S
C1199 C1200 1.523 . S
C1200 C1184 1.368 . S
C1200 C1196 1.368 . S
C1200 C1199 1.523 . S
H1201 C1176 0.950 . S
H1202 C1178 0.950 . S
H1203 C1179 0.949 . S
H1204 C1181 0.950 . S
H1205 C1183 0.950 . S
C1206 C1207 1.349 . S
C1206 C1208 1.327 . S
C1206 H1231 0.950 . S
C1207 C1206 1.349 . S
C1207 C1223 1.349 . S
C1208 C1206 1.327 . S
C1208 C1227 1.429 . S
C1208 H1232 0.950 . S
C1209 C1226 1.574 . S
C1209 C1228 1.368 . S
C1209 H1233 0.949 . S
H1210 C1214 0.949 . S
C1211 C1212 1.349 . S
C1211 C1213 1.327 . S
C1211 H1234 0.950 . S
C1212 C1211 1.349 . S
C1212 C1224 1.349 . S
C1213 C1211 1.327 . S
C1213 C1229 1.429 . S
C1213 H1235 0.950 . S
C1214 H1210 0.949 . S
C1214 C1222 1.574 . S
C1214 C1230 1.368 . S
H1215 C1223 0.950 . S
H1216 C1221 0.950 . S
H1217 C1222 0.949 . S
H1218 C1224 0.950 . S
H1219 C1225 0.950 . S
H1220 C1226 0.949 . S
C1221 H1216 0.950 . S
C1221 C1223 1.327 . S
C1221 C1227 1.429 . S
C1222 C1214 1.574 . S
C1222 H1217 0.949 . S
C1222 C1228 1.368 . S
C1223 C1207 1.349 . S
C1223 H1215 0.950 . S
C1223 C1221 1.327 . S
C1224 C1212 1.349 . S
C1224 H1218 0.950 . S
C1224 C1225 1.327 . S
C1225 H1219 0.950 . S
C1225 C1224 1.327 . S
C1225 C1229 1.429 . S
C1226 C1209 1.574 . S
C1226 H1220 0.949 . S
C1226 C1230 1.368 . S
C1227 C1208 1.429 . S
C1227 C1221 1.429 . S
C1227 C1228 1.523 . S
C1228 C1209 1.368 . S
C1228 C1222 1.368 . S
C1228 C1227 1.523 . S
C1229 C1213 1.429 . S
C1229 C1225 1.429 . S
C1229 C1230 1.523 . S
C1230 C1214 1.368 . S
C1230 C1226 1.368 . S
C1230 C1229 1.523 . S
H1231 C1206 0.950 . S
H1232 C1208 0.950 . S
H1233 C1209 0.949 . S
H1234 C1211 0.950 . S
H1235 C1213 0.950 . S
C1236 C1237 1.349 . S
C1236 C1238 1.327 . S
C1236 H1261 0.950 . S
C1237 C1236 1.349 . S
C1237 C1253 1.349 . S
C1238 C1236 1.327 . S
C1238 C1257 1.429 . S
C1238 H1262 0.950 . S
C1239 C1256 1.574 . S
C1239 C1258 1.368 . S
C1239 H1263 0.949 . S
H1240 C1244 0.949 . S
C1241 C1242 1.349 . S
C1241 C1243 1.327 . S
C1241 H1264 0.950 . S
C1242 C1241 1.349 . S
C1242 C1254 1.349 . S
C1243 C1241 1.327 . S
C1243 C1259 1.429 . S
C1243 H1265 0.950 . S
C1244 H1240 0.949 . S
C1244 C1252 1.574 . S
C1244 C1260 1.368 . S
H1245 C1253 0.950 . S
H1246 C1251 0.950 . S
H1247 C1252 0.949 . S
H1248 C1254 0.950 . S
H1249 C1255 0.950 . S
H1250 C1256 0.949 . S
C1251 H1246 0.950 . S
C1251 C1253 1.327 . S
C1251 C1257 1.429 . S
C1252 C1244 1.574 . S
C1252 H1247 0.949 . S
C1252 C1258 1.368 . S
C1253 C1237 1.349 . S
C1253 H1245 0.950 . S
C1253 C1251 1.327 . S
C1254 C1242 1.349 . S
C1254 H1248 0.950 . S
C1254 C1255 1.327 . S
C1255 H1249 0.950 . S
C1255 C1254 1.327 . S
C1255 C1259 1.429 . S
C1256 C1239 1.574 . S
C1256 H1250 0.949 . S
C1256 C1260 1.368 . S
C1257 C1238 1.429 . S
C1257 C1251 1.429 . S
C1257 C1258 1.523 . S
C1258 C1239 1.368 . S
C1258 C1252 1.368 . S
C1258 C1257 1.523 . S
C1259 C1243 1.429 . S
C1259 C1255 1.429 . S
C1259 C1260 1.523 . S
C1260 C1244 1.368 . S
C1260 C1256 1.368 . S
C1260 C1259 1.523 . S
H1261 C1236 0.950 . S
H1262 C1238 0.950 . S
H1263 C1239 0.949 . S
H1264 C1241 0.950 . S
H1265 C1243 0.950 . S
C1266 C1267 1.349 . S
C1266 C1268 1.327 . S
C1266 H1291 0.950 . S
C1267 C1266 1.349 . S
C1267 C1283 1.349 . S
C1268 C1266 1.327 . S
C1268 C1287 1.429 . S
C1268 H1292 0.950 . S
C1269 C1286 1.574 . S
C1269 C1288 1.368 . S
C1269 H1293 0.949 . S
H1270 C1274 0.949 . S
C1271 C1272 1.349 . S
C1271 C1273 1.327 . S
C1271 H1294 0.950 . S
C1272 C1271 1.349 . S
C1272 C1284 1.349 . S
C1273 C1271 1.327 . S
C1273 C1289 1.429 . S
C1273 H1295 0.950 . S
C1274 H1270 0.949 . S
C1274 C1282 1.574 . S
C1274 C1290 1.368 . S
H1275 C1283 0.950 . S
H1276 C1281 0.950 . S
H1277 C1282 0.949 . S
H1278 C1284 0.950 . S
H1279 C1285 0.950 . S
H1280 C1286 0.949 . S
C1281 H1276 0.950 . S
C1281 C1283 1.327 . S
C1281 C1287 1.429 . S
C1282 C1274 1.574 . S
C1282 H1277 0.949 . S
C1282 C1288 1.368 . S
C1283 C1267 1.349 . S
C1283 H1275 0.950 . S
C1283 C1281 1.327 . S
C1284 C1272 1.349 . S
C1284 H1278 0.950 . S
C1284 C1285 1.327 . S
C1285 H1279 0.950 . S
C1285 C1284 1.327 . S
C1285 C1289 1.429 . S
C1286 C1269 1.574 . S
C1286 H1280 0.949 . S
C1286 C1290 1.368 . S
C1287 C1268 1.429 . S
C1287 C1281 1.429 . S
C1287 C1288 1.523 . S
C1288 C1269 1.368 . S
C1288 C1282 1.368 . S
C1288 C1287 1.523 . S
C1289 C1273 1.429 . S
C1289 C1285 1.429 . S
C1289 C1290 1.523 . S
C1290 C1274 1.368 . S
C1290 C1286 1.368 . S
C1290 C1289 1.523 . S
H1291 C1266 0.950 . S
H1292 C1268 0.950 . S
H1293 C1269 0.949 . S
H1294 C1271 0.950 . S
H1295 C1273 0.950 . S
C1296 C1297 1.349 . S
C1296 C1298 1.327 . S
C1296 H1321 0.950 . S
C1297 C1296 1.349 . S
C1297 C1313 1.349 . S
C1298 C1296 1.327 . S
C1298 C1317 1.429 . S
C1298 H1322 0.950 . S
C1299 C1316 1.574 . S
C1299 C1318 1.368 . S
C1299 H1323 0.949 . S
H1300 C1304 0.949 . S
C1301 C1302 1.349 . S
C1301 C1303 1.327 . S
C1301 H1324 0.950 . S
C1302 C1301 1.349 . S
C1302 C1314 1.349 . S
C1303 C1301 1.327 . S
C1303 C1319 1.429 . S
C1303 H1325 0.950 . S
C1304 H1300 0.949 . S
C1304 C1312 1.574 . S
C1304 C1320 1.368 . S
H1305 C1313 0.950 . S
H1306 C1311 0.950 . S
H1307 C1312 0.949 . S
H1308 C1314 0.950 . S
H1309 C1315 0.950 . S
H1310 C1316 0.949 . S
C1311 H1306 0.950 . S
C1311 C1313 1.327 . S
C1311 C1317 1.429 . S
C1312 C1304 1.574 . S
C1312 H1307 0.949 . S
C1312 C1318 1.368 . S
C1313 C1297 1.349 . S
C1313 H1305 0.950 . S
C1313 C1311 1.327 . S
C1314 C1302 1.349 . S
C1314 H1308 0.950 . S
C1314 C1315 1.327 . S
C1315 H1309 0.950 . S
C1315 C1314 1.327 . S
C1315 C1319 1.429 . S
C1316 C1299 1.574 . S
C1316 H1310 0.949 . S
C1316 C1320 1.368 . S
C1317 C1298 1.429 . S
C1317 C1311 1.429 . S
C1317 C1318 1.523 . S
C1318 C1299 1.368 . S
C1318 C1312 1.368 . S
C1318 C1317 1.523 . S
C1319 C1303 1.429 . S
C1319 C1315 1.429 . S
C1319 C1320 1.523 . S
C1320 C1304 1.368 . S
C1320 C1316 1.368 . S
C1320 C1319 1.523 . S
H1321 C1296 0.950 . S
H1322 C1298 0.950 . S
H1323 C1299 0.949 . S
H1324 C1301 0.950 . S
H1325 C1303 0.950 . S
C1326 C1327 1.349 . S
C1326 C1328 1.327 . S
C1326 H1351 0.950 . S
C1327 C1326 1.349 . S
C1327 C1343 1.349 . S
C1328 C1326 1.327 . S
C1328 C1347 1.429 . S
C1328 H1352 0.950 . S
C1329 C1346 1.574 . S
C1329 C1348 1.368 . S
C1329 H1353 0.949 . S
H1330 C1334 0.949 . S
C1331 C1332 1.349 . S
C1331 C1333 1.327 . S
C1331 H1354 0.950 . S
C1332 C1331 1.349 . S
C1332 C1344 1.349 . S
C1333 C1331 1.327 . S
C1333 C1349 1.429 . S
C1333 H1355 0.950 . S
C1334 H1330 0.949 . S
C1334 C1342 1.574 . S
C1334 C1350 1.368 . S
H1335 C1343 0.950 . S
H1336 C1341 0.950 . S
H1337 C1342 0.949 . S
H1338 C1344 0.950 . S
H1339 C1345 0.950 . S
H1340 C1346 0.949 . S
C1341 H1336 0.950 . S
C1341 C1343 1.327 . S
C1341 C1347 1.429 . S
C1342 C1334 1.574 . S
C1342 H1337 0.949 . S
C1342 C1348 1.368 . S
C1343 C1327 1.349 . S
C1343 H1335 0.950 . S
C1343 C1341 1.327 . S
C1344 C1332 1.349 . S
C1344 H1338 0.950 . S
C1344 C1345 1.327 . S
C1345 H1339 0.950 . S
C1345 C1344 1.327 . S
C1345 C1349 1.429 . S
C1346 C1329 1.574 . S
C1346 H1340 0.949 . S
C1346 C1350 1.368 . S
C1347 C1328 1.429 . S
C1347 C1341 1.429 . S
C1347 C1348 1.523 . S
C1348 C1329 1.368 . S
C1348 C1342 1.368 . S
C1348 C1347 1.523 . S
C1349 C1333 1.429 . S
C1349 C1345 1.429 . S
C1349 C1350 1.523 . S
C1350 C1334 1.368 . S
C1350 C1346 1.368 . S
C1350 C1349 1.523 . S
H1351 C1326 0.950 . S
H1352 C1328 0.950 . S
H1353 C1329 0.949 . S
H1354 C1331 0.950 . S
H1355 C1333 0.950 . S
C1356 C1357 1.349 . S
C1356 C1358 1.327 . S
C1356 H1381 0.950 . S
C1357 C1356 1.349 . S
C1357 C1373 1.349 . S
C1358 C1356 1.327 . S
C1358 C1377 1.429 . S
C1358 H1382 0.950 . S
C1359 C1376 1.574 . S
C1359 C1378 1.368 . S
C1359 H1383 0.949 . S
H1360 C1364 0.949 . S
C1361 C1362 1.349 . S
C1361 C1363 1.327 . S
C1361 H1384 0.950 . S
C1362 C1361 1.349 . S
C1362 C1374 1.349 . S
C1363 C1361 1.327 . S
C1363 C1379 1.429 . S
C1363 H1385 0.950 . S
C1364 H1360 0.949 . S
C1364 C1372 1.574 . S
C1364 C1380 1.368 . S
H1365 C1373 0.950 . S
H1366 C1371 0.950 . S
H1367 C1372 0.949 . S
H1368 C1374 0.950 . S
H1369 C1375 0.950 . S
H1370 C1376 0.949 . S
C1371 H1366 0.950 . S
C1371 C1373 1.327 . S
C1371 C1377 1.429 . S
C1372 C1364 1.574 . S
C1372 H1367 0.949 . S
C1372 C1378 1.368 . S
C1373 C1357 1.349 . S
C1373 H1365 0.950 . S
C1373 C1371 1.327 . S
C1374 C1362 1.349 . S
C1374 H1368 0.950 . S
C1374 C1375 1.327 . S
C1375 H1369 0.950 . S
C1375 C1374 1.327 . S
C1375 C1379 1.429 . S
C1376 C1359 1.574 . S
C1376 H1370 0.949 . S
C1376 C1380 1.368 . S
C1377 C1358 1.429 . S
C1377 C1371 1.429 . S
C1377 C1378 1.523 . S
C1378 C1359 1.368 . S
C1378 C1372 1.368 . S
C1378 C1377 1.523 . S
C1379 C1363 1.429 . S
C1379 C1375 1.429 . S
C1379 C1380 1.523 . S
C1380 C1364 1.368 . S
C1380 C1376 1.368 . S
C1380 C1379 1.523 . S
H1381 C1356 0.950 . S
H1382 C1358 0.950 . S
H1383 C1359 0.949 . S
H1384 C1361 0.950 . S
H1385 C1363 0.950 . S
C1386 C1387 1.349 . S
C1386 C1388 1.327 . S
C1386 H1411 0.950 . S
C1387 C1386 1.349 . S
C1387 C1403 1.349 . S
C1388 C1386 1.327 . S
C1388 C1407 1.429 . S
C1388 H1412 0.950 . S
C1389 C1406 1.574 . S
C1389 C1408 1.368 . S
C1389 H1413 0.949 . S
H1390 C1394 0.949 . S
C1391 C1392 1.349 . S
C1391 C1393 1.327 . S
C1391 H1414 0.950 . S
C1392 C1391 1.349 . S
C1392 C1404 1.349 . S
C1393 C1391 1.327 . S
C1393 C1409 1.429 . S
C1393 H1415 0.950 . S
C1394 H1390 0.949 . S
C1394 C1402 1.574 . S
C1394 C1410 1.368 . S
H1395 C1403 0.950 . S
H1396 C1401 0.950 . S
H1397 C1402 0.949 . S
H1398 C1404 0.950 . S
H1399 C1405 0.950 . S
H1400 C1406 0.949 . S
C1401 H1396 0.950 . S
C1401 C1403 1.327 . S
C1401 C1407 1.429 . S
C1402 C1394 1.574 . S
C1402 H1397 0.949 . S
C1402 C1408 1.368 . S
C1403 C1387 1.349 . S
C1403 H1395 0.950 . S
C1403 C1401 1.327 . S
C1404 C1392 1.349 . S
C1404 H1398 0.950 . S
C1404 C1405 1.327 . S
C1405 H1399 0.950 . S
C1405 C1404 1.327 . S
C1405 C1409 1.429 . S
C1406 C1389 1.574 . S
C1406 H1400 0.949 . S
C1406 C1410 1.368 . S
C1407 C1388 1.429 . S
C1407 C1401 1.429 . S
C1407 C1408 1.523 . S
C1408 C1389 1.368 . S
C1408 C1402 1.368 . S
C1408 C1407 1.523 . S
C1409 C1393 1.429 . S
C1409 C1405 1.429 . S
C1409 C1410 1.523 . S
C1410 C1394 1.368 . S
C1410 C1406 1.368 . S
C1410 C1409 1.523 . S
H1411 C1386 0.950 . S
H1412 C1388 0.950 . S
H1413 C1389 0.949 . S
H1414 C1391 0.950 . S
H1415 C1393 0.950 . S
C1416 C1417 1.349 . S
C1416 C1418 1.327 . S
C1416 H1441 0.950 . S
C1417 C1416 1.349 . S
C1417 C1433 1.349 . S
C1418 C1416 1.327 . S
C1418 C1437 1.429 . S
C1418 H1442 0.950 . S
C1419 C1436 1.574 . S
C1419 C1438 1.368 . S
C1419 H1443 0.949 . S
H1420 C1424 0.949 . S
C1421 C1422 1.349 . S
C1421 C1423 1.327 . S
C1421 H1444 0.950 . S
C1422 C1421 1.349 . S
C1422 C1434 1.349 . S
C1423 C1421 1.327 . S
C1423 C1439 1.429 . S
C1423 H1445 0.950 . S
C1424 H1420 0.949 . S
C1424 C1432 1.574 . S
C1424 C1440 1.368 . S
H1425 C1433 0.950 . S
H1426 C1431 0.950 . S
H1427 C1432 0.949 . S
H1428 C1434 0.950 . S
H1429 C1435 0.950 . S
H1430 C1436 0.949 . S
C1431 H1426 0.950 . S
C1431 C1433 1.327 . S
C1431 C1437 1.429 . S
C1432 C1424 1.574 . S
C1432 H1427 0.949 . S
C1432 C1438 1.368 . S
C1433 C1417 1.349 . S
C1433 H1425 0.950 . S
C1433 C1431 1.327 . S
C1434 C1422 1.349 . S
C1434 H1428 0.950 . S
C1434 C1435 1.327 . S
C1435 H1429 0.950 . S
C1435 C1434 1.327 . S
C1435 C1439 1.429 . S
C1436 C1419 1.574 . S
C1436 H1430 0.949 . S
C1436 C1440 1.368 . S
C1437 C1418 1.429 . S
C1437 C1431 1.429 . S
C1437 C1438 1.523 . S
C1438 C1419 1.368 . S
C1438 C1432 1.368 . S
C1438 C1437 1.523 . S
C1439 C1423 1.429 . S
C1439 C1435 1.429 . S
C1439 C1440 1.523 . S
C1440 C1424 1.368 . S
C1440 C1436 1.368 . S
C1440 C1439 1.523 . S
H1441 C1416 0.950 . S
H1442 C1418 0.950 . S
H1443 C1419 0.949 . S
H1444 C1421 0.950 . S
H1445 C1423 0.950 . S
C1446 C1447 1.349 . S
C1446 C1448 1.327 . S
C1446 H1471 0.950 . S
C1447 C1446 1.349 . S
C1447 C1463 1.349 . S
C1448 C1446 1.327 . S
C1448 C1467 1.429 . S
C1448 H1472 0.950 . S
C1449 C1466 1.574 . S
C1449 C1468 1.368 . S
C1449 H1473 0.949 . S
H1450 C1454 0.949 . S
C1451 C1452 1.349 . S
C1451 C1453 1.327 . S
C1451 H1474 0.950 . S
C1452 C1451 1.349 . S
C1452 C1464 1.349 . S
C1453 C1451 1.327 . S
C1453 C1469 1.429 . S
C1453 H1475 0.950 . S
C1454 H1450 0.949 . S
C1454 C1462 1.574 . S
C1454 C1470 1.368 . S
H1455 C1463 0.950 . S
H1456 C1461 0.950 . S
H1457 C1462 0.949 . S
H1458 C1464 0.950 . S
H1459 C1465 0.950 . S
H1460 C1466 0.949 . S
C1461 H1456 0.950 . S
C1461 C1463 1.327 . S
C1461 C1467 1.429 . S
C1462 C1454 1.574 . S
C1462 H1457 0.949 . S
C1462 C1468 1.368 . S
C1463 C1447 1.349 . S
C1463 H1455 0.950 . S
C1463 C1461 1.327 . S
C1464 C1452 1.349 . S
C1464 H1458 0.950 . S
C1464 C1465 1.327 . S
C1465 H1459 0.950 . S
C1465 C1464 1.327 . S
C1465 C1469 1.429 . S
C1466 C1449 1.574 . S
C1466 H1460 0.949 . S
C1466 C1470 1.368 . S
C1467 C1448 1.429 . S
C1467 C1461 1.429 . S
C1467 C1468 1.523 . S
C1468 C1449 1.368 . S
C1468 C1462 1.368 . S
C1468 C1467 1.523 . S
C1469 C1453 1.429 . S
C1469 C1465 1.429 . S
C1469 C1470 1.523 . S
C1470 C1454 1.368 . S
C1470 C1466 1.368 . S
C1470 C1469 1.523 . S
H1471 C1446 0.950 . S
H1472 C1448 0.950 . S
H1473 C1449 0.949 . S
H1474 C1451 0.950 . S
H1475 C1453 0.950 . S
C1476 C1477 1.349 . S
C1476 C1478 1.327 . S
C1476 H1501 0.950 . S
C1477 C1476 1.349 . S
C1477 C1493 1.349 . S
C1478 C1476 1.327 . S
C1478 C1497 1.429 . S
C1478 H1502 0.950 . S
C1479 C1496 1.574 . S
C1479 C1498 1.368 . S
C1479 H1503 0.949 . S
H1480 C1484 0.949 . S
C1481 C1482 1.349 . S
C1481 C1483 1.327 . S
C1481 H1504 0.950 . S
C1482 C1481 1.349 . S
C1482 C1494 1.349 . S
C1483 C1481 1.327 . S
C1483 C1499 1.429 . S
C1483 H1505 0.950 . S
C1484 H1480 0.949 . S
C1484 C1492 1.574 . S
C1484 C1500 1.368 . S
H1485 C1493 0.950 . S
H1486 C1491 0.950 . S
H1487 C1492 0.949 . S
H1488 C1494 0.950 . S
H1489 C1495 0.950 . S
H1490 C1496 0.949 . S
C1491 H1486 0.950 . S
C1491 C1493 1.327 . S
C1491 C1497 1.429 . S
C1492 C1484 1.574 . S
C1492 H1487 0.949 . S
C1492 C1498 1.368 . S
C1493 C1477 1.349 . S
C1493 H1485 0.950 . S
C1493 C1491 1.327 . S
C1494 C1482 1.349 . S
C1494 H1488 0.950 . S
C1494 C1495 1.327 . S
C1495 H1489 0.950 . S
C1495 C1494 1.327 . S
C1495 C1499 1.429 . S
C1496 C1479 1.574 . S
C1496 H1490 0.949 . S
C1496 C1500 1.368 . S
C1497 C1478 1.429 . S
C1497 C1491 1.429 . S
C1497 C1498 1.523 . S
C1498 C1479 1.368 . S
C1498 C1492 1.368 . S
C1498 C1497 1.523 . S
C1499 C1483 1.429 . S
C1499 C1495 1.429 . S
C1499 C1500 1.523 . S
C1500 C1484 1.368 . S
C1500 C1496 1.368 . S
C1500 C1499 1.523 . S
H1501 C1476 0.950 . S
H1502 C1478 0.950 . S
H1503 C1479 0.949 . S
H1504 C1481 0.950 . S
H1505 C1483 0.950 . S
C1506 C1507 1.349 . S
C1506 C1508 1.327 . S
C1506 H1531 0.950 . S
C1507 C1506 1.349 . S
C1507 C1523 1.349 . S
C1508 C1506 1.327 . S
C1508 C1527 1.429 . S
C1508 H1532 0.950 . S
C1509 C1526 1.574 . S
C1509 C1528 1.368 . S
C1509 H1533 0.949 . S
H1510 C1514 0.949 . S
C1511 C1512 1.349 . S
C1511 C1513 1.327 . S
C1511 H1534 0.950 . S
C1512 C1511 1.349 . S
C1512 C1524 1.349 . S
C1513 C1511 1.327 . S
C1513 C1529 1.429 . S
C1513 H1535 0.950 . S
C1514 H1510 0.949 . S
C1514 C1522 1.574 . S
C1514 C1530 1.368 . S
H1515 C1523 0.950 . S
H1516 C1521 0.950 . S
H1517 C1522 0.949 . S
H1518 C1524 0.950 . S
H1519 C1525 0.950 . S
H1520 C1526 0.949 . S
C1521 H1516 0.950 . S
C1521 C1523 1.327 . S
C1521 C1527 1.429 . S
C1522 C1514 1.574 . S
C1522 H1517 0.949 . S
C1522 C1528 1.368 . S
C1523 C1507 1.349 . S
C1523 H1515 0.950 . S
C1523 C1521 1.327 . S
C1524 C1512 1.349 . S
C1524 H1518 0.950 . S
C1524 C1525 1.327 . S
C1525 H1519 0.950 . S
C1525 C1524 1.327 . S
C1525 C1529 1.429 . S
C1526 C1509 1.574 . S
C1526 H1520 0.949 . S
C1526 C1530 1.368 . S
C1527 C1508 1.429 . S
C1527 C1521 1.429 . S
C1527 C1528 1.523 . S
C1528 C1509 1.368 . S
C1528 C1522 1.368 . S
C1528 C1527 1.523 . S
C1529 C1513 1.429 . S
C1529 C1525 1.429 . S
C1529 C1530 1.523 . S
C1530 C1514 1.368 . S
C1530 C1526 1.368 . S
C1530 C1529 1.523 . S
H1531 C1506 0.950 . S
H1532 C1508 0.950 . S
H1533 C1509 0.949 . S
H1534 C1511 0.950 . S
H1535 C1513 0.950 . S
C1536 C1537 1.349 . S
C1536 C1538 1.327 . S
C1536 H1561 0.950 . S
C1537 C1536 1.349 . S
C1537 C1553 1.349 . S
C1538 C1536 1.327 . S
C1538 C1557 1.429 . S
C1538 H1562 0.950 . S
C1539 C1556 1.574 1_556 S
C1539 C1558 1.368 . S
C1539 H1563 0.949 . S
H1540 C1544 0.949 . S
C1541 C1542 1.349 . S
C1541 C1543 1.327 . S
C1541 H1564 0.950 . S
C1542 C1541 1.349 . S
C1542 C1554 1.349 . S
C1543 C1541 1.327 . S
C1543 C1559 1.429 . S
C1543 H1565 0.950 . S
C1544 H1540 0.949 . S
C1544 C1552 1.574 1_554 S
C1544 C1560 1.368 . S
H1545 C1553 0.950 . S
H1546 C1551 0.950 . S
H1547 C1552 0.949 . S
H1548 C1554 0.950 . S
H1549 C1555 0.950 . S
H1550 C1556 0.949 . S
C1551 H1546 0.950 . S
C1551 C1553 1.327 . S
C1551 C1557 1.429 . S
C1552 C1544 1.574 1_556 S
C1552 H1547 0.949 . S
C1552 C1558 1.368 . S
C1553 C1537 1.349 . S
C1553 H1545 0.950 . S
C1553 C1551 1.327 . S
C1554 C1542 1.349 . S
C1554 H1548 0.950 . S
C1554 C1555 1.327 . S
C1555 H1549 0.950 . S
C1555 C1554 1.327 . S
C1555 C1559 1.429 . S
C1556 C1539 1.574 1_554 S
C1556 H1550 0.949 . S
C1556 C1560 1.368 . S
C1557 C1538 1.429 . S
C1557 C1551 1.429 . S
C1557 C1558 1.523 . S
C1558 C1539 1.368 . S
C1558 C1552 1.368 . S
C1558 C1557 1.523 . S
C1559 C1543 1.429 . S
C1559 C1555 1.429 . S
C1559 C1560 1.523 . S
C1560 C1544 1.368 . S
C1560 C1556 1.368 . S
C1560 C1559 1.523 . S
H1561 C1536 0.950 . S
H1562 C1538 0.950 . S
H1563 C1539 0.949 . S
H1564 C1541 0.950 . S
H1565 C1543 0.950 . S
C1566 C1567 1.349 1_545 S
C1566 C1568 1.327 . S
C1566 H1591 0.950 . S
C1567 C1566 1.349 1_565 S
C1567 C1583 1.349 . S
C1568 C1566 1.327 . S
C1568 C1587 1.429 1_545 S
C1568 H1592 0.950 . S
C1569 C1586 1.574 . S
C1569 C1588 1.368 . S
C1569 H1593 0.949 . S
H1570 C1574 0.949 . S
C1571 C1572 1.349 1_565 S
C1571 C1573 1.327 . S
C1571 H1594 0.950 . S
C1572 C1571 1.349 1_545 S
C1572 C1584 1.349 . S
C1573 C1571 1.327 . S
C1573 C1589 1.429 1_565 S
C1573 H1595 0.950 . S
C1574 H1570 0.949 . S
C1574 C1582 1.574 . S
C1574 C1590 1.368 . S
H1575 C1583 0.950 . S
H1576 C1581 0.950 . S
H1577 C1582 0.949 . S
H1578 C1584 0.950 . S
H1579 C1585 0.950 . S
H1580 C1586 0.949 . S
C1581 H1576 0.950 . S
C1581 C1583 1.327 . S
C1581 C1587 1.429 . S
C1582 C1574 1.574 . S
C1582 H1577 0.949 . S
C1582 C1588 1.368 1_545 S
C1583 C1567 1.349 . S
C1583 H1575 0.950 . S
C1583 C1581 1.327 . S
C1584 C1572 1.349 . S
C1584 H1578 0.950 . S
C1584 C1585 1.327 . S
C1585 H1579 0.950 . S
C1585 C1584 1.327 . S
C1585 C1589 1.429 . S
C1586 C1569 1.574 . S
C1586 H1580 0.949 . S
C1586 C1590 1.368 1_565 S
C1587 C1568 1.429 1_565 S
C1587 C1581 1.429 . S
C1587 C1588 1.523 . S
C1588 C1569 1.368 . S
C1588 C1582 1.368 1_565 S
C1588 C1587 1.523 . S
C1589 C1573 1.429 1_545 S
C1589 C1585 1.429 . S
C1589 C1590 1.523 . S
C1590 C1574 1.368 . S
C1590 C1586 1.368 1_545 S
C1590 C1589 1.523 . S
H1591 C1566 0.950 . S
H1592 C1568 0.950 . S
H1593 C1569 0.949 . S
H1594 C1571 0.950 . S
H1595 C1573 0.950 . S
C1596 C1597 1.349 . S
C1596 C1598 1.327 . S
C1596 H1621 0.950 . S
C1597 C1596 1.349 . S
C1597 C1613 1.349 . S
C1598 C1596 1.327 . S
C1598 C1617 1.429 . S
C1598 H1622 0.950 . S
C1599 C1616 1.574 . S
C1599 C1618 1.368 . S
C1599 H1623 0.949 . S
H1600 C1604 0.949 . S
C1601 C1602 1.349 . S
C1601 C1603 1.327 . S
C1601 H1624 0.950 . S
C1602 C1601 1.349 . S
C1602 C1614 1.349 . S
C1603 C1601 1.327 . S
C1603 C1619 1.429 . S
C1603 H1625 0.950 . S
C1604 H1600 0.949 . S
C1604 C1612 1.574 . S
C1604 C1620 1.368 . S
H1605 C1613 0.950 . S
H1606 C1611 0.950 . S
H1607 C1612 0.949 . S
H1608 C1614 0.950 . S
H1609 C1615 0.950 . S
H1610 C1616 0.949 . S
C1611 H1606 0.950 . S
C1611 C1613 1.327 . S
C1611 C1617 1.429 . S
C1612 C1604 1.574 . S
C1612 H1607 0.949 . S
C1612 C1618 1.368 . S
C1613 C1597 1.349 . S
C1613 H1605 0.950 . S
C1613 C1611 1.327 . S
C1614 C1602 1.349 . S
C1614 H1608 0.950 . S
C1614 C1615 1.327 . S
C1615 H1609 0.950 . S
C1615 C1614 1.327 . S
C1615 C1619 1.429 . S
C1616 C1599 1.574 . S
C1616 H1610 0.949 . S
C1616 C1620 1.368 . S
C1617 C1598 1.429 . S
C1617 C1611 1.429 . S
C1617 C1618 1.523 . S
C1618 C1599 1.368 . S
C1618 C1612 1.368 . S
C1618 C1617 1.523 . S
C1619 C1603 1.429 . S
C1619 C1615 1.429 . S
C1619 C1620 1.523 . S
C1620 C1604 1.368 . S
C1620 C1616 1.368 . S
C1620 C1619 1.523 . S
H1621 C1596 0.950 . S
H1622 C1598 0.950 . S
H1623 C1599 0.949 . S
H1624 C1601 0.950 . S
H1625 C1603 0.950 . S
C1626 C1627 1.349 . S
C1626 C1628 1.327 . S
C1626 H1651 0.950 . S
C1627 C1626 1.349 . S
C1627 C1643 1.349 1_545 S
C1628 C1626 1.327 . S
C1628 C1647 1.429 . S
C1628 H1652 0.950 . S
C1629 C1646 1.574 . S
C1629 C1648 1.368 1_565 S
C1629 H1653 0.949 . S
H1630 C1634 0.949 . S
C1631 C1632 1.349 . S
C1631 C1633 1.327 . S
C1631 H1654 0.950 . S
C1632 C1631 1.349 . S
C1632 C1644 1.349 1_565 S
C1633 C1631 1.327 . S
C1633 C1649 1.429 . S
C1633 H1655 0.950 . S
C1634 H1630 0.949 . S
C1634 C1642 1.574 . S
C1634 C1650 1.368 1_545 S
H1635 C1643 0.950 . S
H1636 C1641 0.950 . S
H1637 C1642 0.949 . S
H1638 C1644 0.950 . S
H1639 C1645 0.950 . S
H1640 C1646 0.949 . S
C1641 H1636 0.950 . S
C1641 C1643 1.327 . S
C1641 C1647 1.429 1_565 S
C1642 C1634 1.574 . S
C1642 H1637 0.949 . S
C1642 C1648 1.368 . S
C1643 C1627 1.349 1_565 S
C1643 H1635 0.950 . S
C1643 C1641 1.327 . S
C1644 C1632 1.349 1_545 S
C1644 H1638 0.950 . S
C1644 C1645 1.327 . S
C1645 H1639 0.950 . S
C1645 C1644 1.327 . S
C1645 C1649 1.429 1_545 S
C1646 C1629 1.574 . S
C1646 H1640 0.949 . S
C1646 C1650 1.368 . S
C1647 C1628 1.429 . S
C1647 C1641 1.429 1_545 S
C1647 C1648 1.523 . S
C1648 C1629 1.368 1_545 S
C1648 C1642 1.368 . S
C1648 C1647 1.523 . S
C1649 C1633 1.429 . S
C1649 C1645 1.429 1_565 S
C1649 C1650 1.523 . S
C1650 C1634 1.368 1_565 S
C1650 C1646 1.368 . S
C1650 C1649 1.523 . S
H1651 C1626 0.950 . S
H1652 C1628 0.950 . S
H1653 C1629 0.949 . S
H1654 C1631 0.950 . S
H1655 C1633 0.950 . S
C1656 C1657 1.349 . S
C1656 C1658 1.327 . S
C1656 H1681 0.950 . S
C1657 C1656 1.349 . S
C1657 C1673 1.349 . S
C1658 C1656 1.327 . S
C1658 C1677 1.429 . S
C1658 H1682 0.950 . S
C1659 C1676 1.574 1_556 S
C1659 C1678 1.368 . S
C1659 H1683 0.949 . S
H1660 C1664 0.949 . S
C1661 C1662 1.349 . S
C1661 C1663 1.327 . S
C1661 H1684 0.950 . S
C1662 C1661 1.349 . S
C1662 C1674 1.349 . S
C1663 C1661 1.327 . S
C1663 C1679 1.429 . S
C1663 H1685 0.950 . S
C1664 H1660 0.949 . S
C1664 C1672 1.574 1_554 S
C1664 C1680 1.368 . S
H1665 C1673 0.950 . S
H1666 C1671 0.950 . S
H1667 C1672 0.949 . S
H1668 C1674 0.950 . S
H1669 C1675 0.950 . S
H1670 C1676 0.949 . S
C1671 H1666 0.950 . S
C1671 C1673 1.327 . S
C1671 C1677 1.429 . S
C1672 C1664 1.574 1_556 S
C1672 H1667 0.949 . S
C1672 C1678 1.368 . S
C1673 C1657 1.349 . S
C1673 H1665 0.950 . S
C1673 C1671 1.327 . S
C1674 C1662 1.349 . S
C1674 H1668 0.950 . S
C1674 C1675 1.327 . S
C1675 H1669 0.950 . S
C1675 C1674 1.327 . S
C1675 C1679 1.429 . S
C1676 C1659 1.574 1_554 S
C1676 H1670 0.949 . S
C1676 C1680 1.368 . S
C1677 C1658 1.429 . S
C1677 C1671 1.429 . S
C1677 C1678 1.523 . S
C1678 C1659 1.368 . S
C1678 C1672 1.368 . S
C1678 C1677 1.523 . S
C1679 C1663 1.429 . S
C1679 C1675 1.429 . S
C1679 C1680 1.523 . S
C1680 C1664 1.368 . S
C1680 C1676 1.368 . S
C1680 C1679 1.523 . S
H1681 C1656 0.950 . S
H1682 C1658 0.950 . S
H1683 C1659 0.949 . S
H1684 C1661 0.950 . S
H1685 C1663 0.950 . S
C1686 C1687 1.349 1_545 S
C1686 C1688 1.327 . S
C1686 H1711 0.950 . S
C1687 C1686 1.349 1_565 S
C1687 C1703 1.349 . S
C1688 C1686 1.327 . S
C1688 C1707 1.429 1_545 S
C1688 H1712 0.950 . S
C1689 C1706 1.574 . S
C1689 C1708 1.368 . S
C1689 H1713 0.949 . S
H1690 C1694 0.949 . S
C1691 C1692 1.349 1_565 S
C1691 C1693 1.327 . S
C1691 H1714 0.950 . S
C1692 C1691 1.349 1_545 S
C1692 C1704 1.349 . S
C1693 C1691 1.327 . S
C1693 C1709 1.429 1_565 S
C1693 H1715 0.950 . S
C1694 H1690 0.949 . S
C1694 C1702 1.574 . S
C1694 C1710 1.368 . S
H1695 C1703 0.950 . S
H1696 C1701 0.950 . S
H1697 C1702 0.949 . S
H1698 C1704 0.950 . S
H1699 C1705 0.950 . S
H1700 C1706 0.949 . S
C1701 H1696 0.950 . S
C1701 C1703 1.327 . S
C1701 C1707 1.429 . S
C1702 C1694 1.574 . S
C1702 H1697 0.949 . S
C1702 C1708 1.368 1_545 S
C1703 C1687 1.349 . S
C1703 H1695 0.950 . S
C1703 C1701 1.327 . S
C1704 C1692 1.349 . S
C1704 H1698 0.950 . S
C1704 C1705 1.327 . S
C1705 H1699 0.950 . S
C1705 C1704 1.327 . S
C1705 C1709 1.429 . S
C1706 C1689 1.574 . S
C1706 H1700 0.949 . S
C1706 C1710 1.368 1_565 S
C1707 C1688 1.429 1_565 S
C1707 C1701 1.429 . S
C1707 C1708 1.523 . S
C1708 C1689 1.368 . S
C1708 C1702 1.368 1_565 S
C1708 C1707 1.523 . S
C1709 C1693 1.429 1_545 S
C1709 C1705 1.429 . S
C1709 C1710 1.523 . S
C1710 C1694 1.368 . S
C1710 C1706 1.368 1_545 S
C1710 C1709 1.523 . S
H1711 C1686 0.950 . S
H1712 C1688 0.950 . S
H1713 C1689 0.949 . S
H1714 C1691 0.950 . S
H1715 C1693 0.950 . S
C1716 C1717 1.349 . S
C1716 C1718 1.327 . S
C1716 H1741 0.950 . S
C1717 C1716 1.349 . S
C1717 C1733 1.349 . S
C1718 C1716 1.327 . S
C1718 C1737 1.429 . S
C1718 H1742 0.950 . S
C1719 C1736 1.574 . S
C1719 C1738 1.368 . S
C1719 H1743 0.949 . S
H1720 C1724 0.949 . S
C1721 C1722 1.349 . S
C1721 C1723 1.327 . S
C1721 H1744 0.950 . S
C1722 C1721 1.349 . S
C1722 C1734 1.349 . S
C1723 C1721 1.327 . S
C1723 C1739 1.429 . S
C1723 H1745 0.950 . S
C1724 H1720 0.949 . S
C1724 C1732 1.574 . S
C1724 C1740 1.368 . S
H1725 C1733 0.950 . S
H1726 C1731 0.950 . S
H1727 C1732 0.949 . S
H1728 C1734 0.950 . S
H1729 C1735 0.950 . S
H1730 C1736 0.949 . S
C1731 H1726 0.950 . S
C1731 C1733 1.327 . S
C1731 C1737 1.429 . S
C1732 C1724 1.574 . S
C1732 H1727 0.949 . S
C1732 C1738 1.368 . S
C1733 C1717 1.349 . S
C1733 H1725 0.950 . S
C1733 C1731 1.327 . S
C1734 C1722 1.349 . S
C1734 H1728 0.950 . S
C1734 C1735 1.327 . S
C1735 H1729 0.950 . S
C1735 C1734 1.327 . S
C1735 C1739 1.429 . S
C1736 C1719 1.574 . S
C1736 H1730 0.949 . S
C1736 C1740 1.368 . S
C1737 C1718 1.429 . S
C1737 C1731 1.429 . S
C1737 C1738 1.523 . S
C1738 C1719 1.368 . S
C1738 C1732 1.368 . S
C1738 C1737 1.523 . S
C1739 C1723 1.429 . S
C1739 C1735 1.429 . S
C1739 C1740 1.523 . S
C1740 C1724 1.368 . S
C1740 C1736 1.368 . S
C1740 C1739 1.523 . S
H1741 C1716 0.950 . S
H1742 C1718 0.950 . S
H1743 C1719 0.949 . S
H1744 C1721 0.950 . S
H1745 C1723 0.950 . S
C1746 C1747 1.349 . S
C1746 C1748 1.327 . S
C1746 H1771 0.950 . S
C1747 C1746 1.349 . S
C1747 C1763 1.349 1_545 S
C1748 C1746 1.327 . S
C1748 C1767 1.429 . S
C1748 H1772 0.950 . S
C1749 C1766 1.574 . S
C1749 C1768 1.368 1_565 S
C1749 H1773 0.949 . S
H1750 C1754 0.949 . S
C1751 C1752 1.349 . S
C1751 C1753 1.327 . S
C1751 H1774 0.950 . S
C1752 C1751 1.349 . S
C1752 C1764 1.349 1_565 S
C1753 C1751 1.327 . S
C1753 C1769 1.429 . S
C1753 H1775 0.950 . S
C1754 H1750 0.949 . S
C1754 C1762 1.574 . S
C1754 C1770 1.368 1_545 S
H1755 C1763 0.950 . S
H1756 C1761 0.950 . S
H1757 C1762 0.949 . S
H1758 C1764 0.950 . S
H1759 C1765 0.950 . S
H1760 C1766 0.949 . S
C1761 H1756 0.950 . S
C1761 C1763 1.327 . S
C1761 C1767 1.429 1_565 S
C1762 C1754 1.574 . S
C1762 H1757 0.949 . S
C1762 C1768 1.368 . S
C1763 C1747 1.349 1_565 S
C1763 H1755 0.950 . S
C1763 C1761 1.327 . S
C1764 C1752 1.349 1_545 S
C1764 H1758 0.950 . S
C1764 C1765 1.327 . S
C1765 H1759 0.950 . S
C1765 C1764 1.327 . S
C1765 C1769 1.429 1_545 S
C1766 C1749 1.574 . S
C1766 H1760 0.949 . S
C1766 C1770 1.368 . S
C1767 C1748 1.429 . S
C1767 C1761 1.429 1_545 S
C1767 C1768 1.523 . S
C1768 C1749 1.368 1_545 S
C1768 C1762 1.368 . S
C1768 C1767 1.523 . S
C1769 C1753 1.429 . S
C1769 C1765 1.429 1_565 S
C1769 C1770 1.523 . S
C1770 C1754 1.368 1_565 S
C1770 C1766 1.368 . S
C1770 C1769 1.523 . S
H1771 C1746 0.950 . S
H1772 C1748 0.950 . S
H1773 C1749 0.949 . S
H1774 C1751 0.950 . S
H1775 C1753 0.950 . S
C1776 C1777 1.349 . S
C1776 C1778 1.327 . S
C1776 H1801 0.950 . S
C1777 C1776 1.349 . S
C1777 C1793 1.349 . S
C1778 C1776 1.327 . S
C1778 C1797 1.429 . S
C1778 H1802 0.950 . S
C1779 C1796 1.574 . S
C1779 C1798 1.368 . S
C1779 H1803 0.949 . S
H1780 C1784 0.949 . S
C1781 C1782 1.349 . S
C1781 C1783 1.327 . S
C1781 H1804 0.950 . S
C1782 C1781 1.349 . S
C1782 C1794 1.349 . S
C1783 C1781 1.327 . S
C1783 C1799 1.429 . S
C1783 H1805 0.950 . S
C1784 H1780 0.949 . S
C1784 C1792 1.574 . S
C1784 C1800 1.368 . S
H1785 C1793 0.950 . S
H1786 C1791 0.950 . S
H1787 C1792 0.949 . S
H1788 C1794 0.950 . S
H1789 C1795 0.950 . S
H1790 C1796 0.949 . S
C1791 H1786 0.950 . S
C1791 C1793 1.327 . S
C1791 C1797 1.429 . S
C1792 C1784 1.574 . S
C1792 H1787 0.949 . S
C1792 C1798 1.368 . S
C1793 C1777 1.349 . S
C1793 H1785 0.950 . S
C1793 C1791 1.327 . S
C1794 C1782 1.349 . S
C1794 H1788 0.950 . S
C1794 C1795 1.327 . S
C1795 H1789 0.950 . S
C1795 C1794 1.327 . S
C1795 C1799 1.429 . S
C1796 C1779 1.574 . S
C1796 H1790 0.949 . S
C1796 C1800 1.368 . S
C1797 C1778 1.429 . S
C1797 C1791 1.429 . S
C1797 C1798 1.523 . S
C1798 C1779 1.368 . S
C1798 C1792 1.368 . S
C1798 C1797 1.523 . S
C1799 C1783 1.429 . S
C1799 C1795 1.429 . S
C1799 C1800 1.523 . S
C1800 C1784 1.368 . S
C1800 C1796 1.368 . S
C1800 C1799 1.523 . S
H1801 C1776 0.950 . S
H1802 C1778 0.950 . S
H1803 C1779 0.949 . S
H1804 C1781 0.950 . S
H1805 C1783 0.950 . S
C1806 C1807 1.349 . S
C1806 C1808 1.327 . S
C1806 H1831 0.950 . S
C1807 C1806 1.349 . S
C1807 C1823 1.349 . S
C1808 C1806 1.327 . S
C1808 C1827 1.429 . S
C1808 H1832 0.950 . S
C1809 C1826 1.574 . S
C1809 C1828 1.368 . S
C1809 H1833 0.949 . S
H1810 C1814 0.949 . S
C1811 C1812 1.349 . S
C1811 C1813 1.327 . S
C1811 H1834 0.950 . S
C1812 C1811 1.349 . S
C1812 C1824 1.349 . S
C1813 C1811 1.327 . S
C1813 C1829 1.429 . S
C1813 H1835 0.950 . S
C1814 H1810 0.949 . S
C1814 C1822 1.574 . S
C1814 C1830 1.368 . S
H1815 C1823 0.950 . S
H1816 C1821 0.950 . S
H1817 C1822 0.949 . S
H1818 C1824 0.950 . S
H1819 C1825 0.950 . S
H1820 C1826 0.949 . S
C1821 H1816 0.950 . S
C1821 C1823 1.327 . S
C1821 C1827 1.429 . S
C1822 C1814 1.574 . S
C1822 H1817 0.949 . S
C1822 C1828 1.368 . S
C1823 C1807 1.349 . S
C1823 H1815 0.950 . S
C1823 C1821 1.327 . S
C1824 C1812 1.349 . S
C1824 H1818 0.950 . S
C1824 C1825 1.327 . S
C1825 H1819 0.950 . S
C1825 C1824 1.327 . S
C1825 C1829 1.429 . S
C1826 C1809 1.574 . S
C1826 H1820 0.949 . S
C1826 C1830 1.368 . S
C1827 C1808 1.429 . S
C1827 C1821 1.429 . S
C1827 C1828 1.523 . S
C1828 C1809 1.368 . S
C1828 C1822 1.368 . S
C1828 C1827 1.523 . S
C1829 C1813 1.429 . S
C1829 C1825 1.429 . S
C1829 C1830 1.523 . S
C1830 C1814 1.368 . S
C1830 C1826 1.368 . S
C1830 C1829 1.523 . S
H1831 C1806 0.950 . S
H1832 C1808 0.950 . S
H1833 C1809 0.949 . S
H1834 C1811 0.950 . S
H1835 C1813 0.950 . S
C1836 C1837 1.349 . S
C1836 C1838 1.327 . S
C1836 H1861 0.950 . S
C1837 C1836 1.349 . S
C1837 C1853 1.349 . S
C1838 C1836 1.327 . S
C1838 C1857 1.429 . S
C1838 H1862 0.950 . S
C1839 C1856 1.574 1_556 S
C1839 C1858 1.368 . S
C1839 H1863 0.949 . S
H1840 C1844 0.949 . S
C1841 C1842 1.349 . S
C1841 C1843 1.327 . S
C1841 H1864 0.950 . S
C1842 C1841 1.349 . S
C1842 C1854 1.349 . S
C1843 C1841 1.327 . S
C1843 C1859 1.429 . S
C1843 H1865 0.950 . S
C1844 H1840 0.949 . S
C1844 C1852 1.574 1_554 S
C1844 C1860 1.368 . S
H1845 C1853 0.950 . S
H1846 C1851 0.950 . S
H1847 C1852 0.949 . S
H1848 C1854 0.950 . S
H1849 C1855 0.950 . S
H1850 C1856 0.949 . S
C1851 H1846 0.950 . S
C1851 C1853 1.327 . S
C1851 C1857 1.429 . S
C1852 C1844 1.574 1_556 S
C1852 H1847 0.949 . S
C1852 C1858 1.368 . S
C1853 C1837 1.349 . S
C1853 H1845 0.950 . S
C1853 C1851 1.327 . S
C1854 C1842 1.349 . S
C1854 H1848 0.950 . S
C1854 C1855 1.327 . S
C1855 H1849 0.950 . S
C1855 C1854 1.327 . S
C1855 C1859 1.429 . S
C1856 C1839 1.574 1_554 S
C1856 H1850 0.949 . S
C1856 C1860 1.368 . S
C1857 C1838 1.429 . S
C1857 C1851 1.429 . S
C1857 C1858 1.523 . S
C1858 C1839 1.368 . S
C1858 C1852 1.368 . S
C1858 C1857 1.523 . S
C1859 C1843 1.429 . S
C1859 C1855 1.429 . S
C1859 C1860 1.523 . S
C1860 C1844 1.368 . S
C1860 C1856 1.368 . S
C1860 C1859 1.523 . S
H1861 C1836 0.950 . S
H1862 C1838 0.950 . S
H1863 C1839 0.949 . S
H1864 C1841 0.950 . S
H1865 C1843 0.950 . S
C1866 C1867 1.349 . S
C1866 C1868 1.327 . S
C1866 H1891 0.950 . S
C1867 C1866 1.349 . S
C1867 C1883 1.349 . S
C1868 C1866 1.327 . S
C1868 C1887 1.429 . S
C1868 H1892 0.950 . S
C1869 C1886 1.574 . S
C1869 C1888 1.368 . S
C1869 H1893 0.949 . S
H1870 C1874 0.949 . S
C1871 C1872 1.349 . S
C1871 C1873 1.327 . S
C1871 H1894 0.950 . S
C1872 C1871 1.349 . S
C1872 C1884 1.349 . S
C1873 C1871 1.327 . S
C1873 C1889 1.429 . S
C1873 H1895 0.950 . S
C1874 H1870 0.949 . S
C1874 C1882 1.574 . S
C1874 C1890 1.368 . S
H1875 C1883 0.950 . S
H1876 C1881 0.950 . S
H1877 C1882 0.949 . S
H1878 C1884 0.950 . S
H1879 C1885 0.950 . S
H1880 C1886 0.949 . S
C1881 H1876 0.950 . S
C1881 C1883 1.327 . S
C1881 C1887 1.429 . S
C1882 C1874 1.574 . S
C1882 H1877 0.949 . S
C1882 C1888 1.368 . S
C1883 C1867 1.349 . S
C1883 H1875 0.950 . S
C1883 C1881 1.327 . S
C1884 C1872 1.349 . S
C1884 H1878 0.950 . S
C1884 C1885 1.327 . S
C1885 H1879 0.950 . S
C1885 C1884 1.327 . S
C1885 C1889 1.429 . S
C1886 C1869 1.574 . S
C1886 H1880 0.949 . S
C1886 C1890 1.368 . S
C1887 C1868 1.429 . S
C1887 C1881 1.429 . S
C1887 C1888 1.523 . S
C1888 C1869 1.368 . S
C1888 C1882 1.368 . S
C1888 C1887 1.523 . S
C1889 C1873 1.429 . S
C1889 C1885 1.429 . S
C1889 C1890 1.523 . S
C1890 C1874 1.368 . S
C1890 C1886 1.368 . S
C1890 C1889 1.523 . S
H1891 C1866 0.950 . S
H1892 C1868 0.950 . S
H1893 C1869 0.949 . S
H1894 C1871 0.950 . S
H1895 C1873 0.950 . S
C1896 C1897 1.349 . S
C1896 C1898 1.327 . S
C1896 H1921 0.950 . S
C1897 C1896 1.349 . S
C1897 C1913 1.349 . S
C1898 C1896 1.327 . S
C1898 C1917 1.429 . S
C1898 H1922 0.950 . S
C1899 C1916 1.574 . S
C1899 C1918 1.368 . S
C1899 H1923 0.949 . S
H1900 C1904 0.949 . S
C1901 C1902 1.349 . S
C1901 C1903 1.327 . S
C1901 H1924 0.950 . S
C1902 C1901 1.349 . S
C1902 C1914 1.349 . S
C1903 C1901 1.327 . S
C1903 C1919 1.429 . S
C1903 H1925 0.950 . S
C1904 H1900 0.949 . S
C1904 C1912 1.574 . S
C1904 C1920 1.368 . S
H1905 C1913 0.950 . S
H1906 C1911 0.950 . S
H1907 C1912 0.949 . S
H1908 C1914 0.950 . S
H1909 C1915 0.950 . S
H1910 C1916 0.949 . S
C1911 H1906 0.950 . S
C1911 C1913 1.327 . S
C1911 C1917 1.429 . S
C1912 C1904 1.574 . S
C1912 H1907 0.949 . S
C1912 C1918 1.368 . S
C1913 C1897 1.349 . S
C1913 H1905 0.950 . S
C1913 C1911 1.327 . S
C1914 C1902 1.349 . S
C1914 H1908 0.950 . S
C1914 C1915 1.327 . S
C1915 H1909 0.950 . S
C1915 C1914 1.327 . S
C1915 C1919 1.429 . S
C1916 C1899 1.574 . S
C1916 H1910 0.949 . S
C1916 C1920 1.368 . S
C1917 C1898 1.429 . S
C1917 C1911 1.429 . S
C1917 C1918 1.523 . S
C1918 C1899 1.368 . S
C1918 C1912 1.368 . S
C1918 C1917 1.523 . S
C1919 C1903 1.429 . S
C1919 C1915 1.429 . S
C1919 C1920 1.523 . S
C1920 C1904 1.368 . S
C1920 C1916 1.368 . S
C1920 C1919 1.523 . S
H1921 C1896 0.950 . S
H1922 C1898 0.950 . S
H1923 C1899 0.949 . S
H1924 C1901 0.950 . S
H1925 C1903 0.950 . S
C1926 C1927 1.349 . S
C1926 C1928 1.327 . S
C1926 H1951 0.950 . S
C1927 C1926 1.349 . S
C1927 C1943 1.349 . S
C1928 C1926 1.327 . S
C1928 C1947 1.429 . S
C1928 H1952 0.950 . S
C1929 C1946 1.574 . S
C1929 C1948 1.368 . S
C1929 H1953 0.949 . S
H1930 C1934 0.949 . S
C1931 C1932 1.349 . S
C1931 C1933 1.327 . S
C1931 H1954 0.950 . S
C1932 C1931 1.349 . S
C1932 C1944 1.349 . S
C1933 C1931 1.327 . S
C1933 C1949 1.429 . S
C1933 H1955 0.950 . S
C1934 H1930 0.949 . S
C1934 C1942 1.574 . S
C1934 C1950 1.368 . S
H1935 C1943 0.950 . S
H1936 C1941 0.950 . S
H1937 C1942 0.949 . S
H1938 C1944 0.950 . S
H1939 C1945 0.950 . S
H1940 C1946 0.949 . S
C1941 H1936 0.950 . S
C1941 C1943 1.327 . S
C1941 C1947 1.429 . S
C1942 C1934 1.574 . S
C1942 H1937 0.949 . S
C1942 C1948 1.368 . S
C1943 C1927 1.349 . S
C1943 H1935 0.950 . S
C1943 C1941 1.327 . S
C1944 C1932 1.349 . S
C1944 H1938 0.950 . S
C1944 C1945 1.327 . S
C1945 H1939 0.950 . S
C1945 C1944 1.327 . S
C1945 C1949 1.429 . S
C1946 C1929 1.574 . S
C1946 H1940 0.949 . S
C1946 C1950 1.368 . S
C1947 C1928 1.429 . S
C1947 C1941 1.429 . S
C1947 C1948 1.523 . S
C1948 C1929 1.368 . S
C1948 C1942 1.368 . S
C1948 C1947 1.523 . S
C1949 C1933 1.429 . S
C1949 C1945 1.429 . S
C1949 C1950 1.523 . S
C1950 C1934 1.368 . S
C1950 C1946 1.368 . S
C1950 C1949 1.523 . S
H1951 C1926 0.950 . S
H1952 C1928 0.950 . S
H1953 C1929 0.949 . S
H1954 C1931 0.950 . S
H1955 C1933 0.950 . S
C1956 C1957 1.349 . S
C1956 C1958 1.327 . S
C1956 H1981 0.950 . S
C1957 C1956 1.349 . S
C1957 C1973 1.349 . S
C1958 C1956 1.327 . S
C1958 C1977 1.429 . S
C1958 H1982 0.950 . S
C1959 C1976 1.574 1_554 S
C1959 C1978 1.368 . S
C1959 H1983 0.949 . S
H1960 C1964 0.949 . S
C1961 C1962 1.349 . S
C1961 C1963 1.327 . S
C1961 H1984 0.950 . S
C1962 C1961 1.349 . S
C1962 C1974 1.349 . S
C1963 C1961 1.327 . S
C1963 C1979 1.429 . S
C1963 H1985 0.950 . S
C1964 H1960 0.949 . S
C1964 C1972 1.574 1_556 S
C1964 C1980 1.368 . S
H1965 C1973 0.950 . S
H1966 C1971 0.950 . S
H1967 C1972 0.949 . S
H1968 C1974 0.950 . S
H1969 C1975 0.950 . S
H1970 C1976 0.949 . S
C1971 H1966 0.950 . S
C1971 C1973 1.327 . S
C1971 C1977 1.429 . S
C1972 C1964 1.574 1_554 S
C1972 H1967 0.949 . S
C1972 C1978 1.368 . S
C1973 C1957 1.349 . S
C1973 H1965 0.950 . S
C1973 C1971 1.327 . S
C1974 C1962 1.349 . S
C1974 H1968 0.950 . S
C1974 C1975 1.327 . S
C1975 H1969 0.950 . S
C1975 C1974 1.327 . S
C1975 C1979 1.429 . S
C1976 C1959 1.574 1_556 S
C1976 H1970 0.949 . S
C1976 C1980 1.368 . S
C1977 C1958 1.429 . S
C1977 C1971 1.429 . S
C1977 C1978 1.523 . S
C1978 C1959 1.368 . S
C1978 C1972 1.368 . S
C1978 C1977 1.523 . S
C1979 C1963 1.429 . S
C1979 C1975 1.429 . S
C1979 C1980 1.523 . S
C1980 C1964 1.368 . S
C1980 C1976 1.368 . S
C1980 C1979 1.523 . S
H1981 C1956 0.950 . S
H1982 C1958 0.950 . S
H1983 C1959 0.949 . S
H1984 C1961 0.950 . S
H1985 C1963 0.950 . S
C1986 C1987 1.349 . S
C1986 C1988 1.327 . S
C1986 H2011 0.950 . S
C1987 C1986 1.349 . S
C1987 C2003 1.349 . S
C1988 C1986 1.327 . S
C1988 C2007 1.429 . S
C1988 H2012 0.950 . S
C1989 C2006 1.574 . S
C1989 C2008 1.368 . S
C1989 H2013 0.968 . S
H1990 C1994 0.949 . S
C1991 C1992 1.349 . S
C1991 C1993 1.327 . S
C1991 H2014 0.950 . S
C1992 C1991 1.349 . S
C1992 C2004 1.349 . S
C1993 C1991 1.327 . S
C1993 C2009 1.429 . S
C1993 H2015 0.950 . S
C1994 H1990 0.949 . S
C1994 C2002 1.574 . S
C1994 C2010 1.368 . S
H1995 C2003 0.950 . S
H1996 C2001 0.950 . S
H1997 C2002 0.949 . S
H1998 C2004 0.950 . S
H1999 C2005 0.950 . S
H2000 C2006 0.968 . S
C2001 H1996 0.950 . S
C2001 C2003 1.327 . S
C2001 C2007 1.429 . S
C2002 C1994 1.574 . S
C2002 H1997 0.949 . S
C2002 C2008 1.368 . S
C2003 C1987 1.349 . S
C2003 H1995 0.950 . S
C2003 C2001 1.327 . S
C2004 C1992 1.349 . S
C2004 H1998 0.950 . S
C2004 C2005 1.327 . S
C2005 H1999 0.950 . S
C2005 C2004 1.327 . S
C2005 C2009 1.429 . S
C2006 C1989 1.574 . S
C2006 H2000 0.968 . S
C2006 C2010 1.368 . S
C2007 C1988 1.429 . S
C2007 C2001 1.429 . S
C2007 C2008 1.523 . S
C2008 C1989 1.368 . S
C2008 C2002 1.368 . S
C2008 C2007 1.523 . S
C2009 C1993 1.429 . S
C2009 C2005 1.429 . S
C2009 C2010 1.523 . S
C2010 C1994 1.368 . S
C2010 C2006 1.368 . S
C2010 C2009 1.523 . S
H2011 C1986 0.950 . S
H2012 C1988 0.950 . S
H2013 C1989 0.968 . S
H2014 C1991 0.950 . S
H2015 C1993 0.950 . S
C2016 C2017 1.349 . S
C2016 C2018 1.327 . S
C2016 H2041 0.950 . S
C2017 C2016 1.349 . S
C2017 C2033 1.349 . S
C2018 C2016 1.327 . S
C2018 C2037 1.429 . S
C2018 H2042 0.950 . S
C2019 C2036 1.574 . S
C2019 C2038 1.368 . S
C2019 H2043 0.949 . S
H2020 C2024 0.949 . S
C2021 C2022 1.349 . S
C2021 C2023 1.327 . S
C2021 H2044 0.950 . S
C2022 C2021 1.349 . S
C2022 C2034 1.349 . S
C2023 C2021 1.327 . S
C2023 C2039 1.429 . S
C2023 H2045 0.950 . S
C2024 H2020 0.949 . S
C2024 C2032 1.574 . S
C2024 C2040 1.368 . S
H2025 C2033 0.950 . S
H2026 C2031 0.950 . S
H2027 C2032 0.949 . S
H2028 C2034 0.950 . S
H2029 C2035 0.950 . S
H2030 C2036 0.949 . S
C2031 H2026 0.950 . S
C2031 C2033 1.327 . S
C2031 C2037 1.429 . S
C2032 C2024 1.574 . S
C2032 H2027 0.949 . S
C2032 C2038 1.368 . S
C2033 C2017 1.349 . S
C2033 H2025 0.950 . S
C2033 C2031 1.327 . S
C2034 C2022 1.349 . S
C2034 H2028 0.950 . S
C2034 C2035 1.327 . S
C2035 H2029 0.950 . S
C2035 C2034 1.327 . S
C2035 C2039 1.429 . S
C2036 C2019 1.574 . S
C2036 H2030 0.949 . S
C2036 C2040 1.368 . S
C2037 C2018 1.429 . S
C2037 C2031 1.429 . S
C2037 C2038 1.523 . S
C2038 C2019 1.368 . S
C2038 C2032 1.368 . S
C2038 C2037 1.523 . S
C2039 C2023 1.429 . S
C2039 C2035 1.429 . S
C2039 C2040 1.523 1_545 S
C2040 C2024 1.368 . S
C2040 C2036 1.368 . S
C2040 C2039 1.523 1_565 S
H2041 C2016 0.950 . S
H2042 C2018 0.950 . S
H2043 C2019 0.949 . S
H2044 C2021 0.950 . S
H2045 C2023 0.950 . S
C2046 C2047 1.349 1_565 S
C2046 C2048 1.327 . S
C2046 H2071 0.950 . S
C2047 C2046 1.349 1_545 S
C2047 C2063 1.349 . S
C2048 C2046 1.327 . S
C2048 C2067 1.429 1_565 S
C2048 H2072 0.950 . S
C2049 C2066 1.574 . S
C2049 C2068 1.368 . S
C2049 H2073 0.949 . S
H2050 C2054 0.949 . S
C2051 C2052 1.349 . S
C2051 C2053 1.327 . S
C2051 H2074 0.950 . S
C2052 C2051 1.349 . S
C2052 C2064 1.349 1_545 S
C2053 C2051 1.327 . S
C2053 C2069 1.429 . S
C2053 H2075 0.950 . S
C2054 H2050 0.949 . S
C2054 C2062 1.574 . S
C2054 C2070 1.368 1_565 S
H2055 C2063 0.950 . S
H2056 C2061 0.950 . S
H2057 C2062 0.949 . S
H2058 C2064 0.950 . S
H2059 C2065 0.950 . S
H2060 C2066 0.949 . S
C2061 H2056 0.950 . S
C2061 C2063 1.327 . S
C2061 C2067 1.429 . S
C2062 C2054 1.574 . S
C2062 H2057 0.949 . S
C2062 C2068 1.368 1_565 S
C2063 C2047 1.349 . S
C2063 H2055 0.950 . S
C2063 C2061 1.327 . S
C2064 C2052 1.349 1_565 S
C2064 H2058 0.950 . S
C2064 C2065 1.327 . S
C2065 H2059 0.950 . S
C2065 C2064 1.327 . S
C2065 C2069 1.429 1_565 S
C2066 C2049 1.574 . S
C2066 H2060 0.949 . S
C2066 C2070 1.368 . S
C2067 C2048 1.429 1_545 S
C2067 C2061 1.429 . S
C2067 C2068 1.523 . S
C2068 C2049 1.368 . S
C2068 C2062 1.368 1_545 S
C2068 C2067 1.523 . S
C2069 C2053 1.429 . S
C2069 C2065 1.429 1_545 S
C2069 C2070 1.523 . S
C2070 C2054 1.368 1_545 S
C2070 C2066 1.368 . S
C2070 C2069 1.523 . S
H2071 C2046 0.950 . S
H2072 C2048 0.950 . S
H2073 C2049 0.949 . S
H2074 C2051 0.950 . S
H2075 C2053 0.950 . S
C2076 C2077 1.349 . S
C2076 C2078 1.327 . S
C2076 H2101 0.950 . S
C2077 C2076 1.349 . S
C2077 C2093 1.349 . S
C2078 C2076 1.327 . S
C2078 C2097 1.429 . S
C2078 H2102 0.950 . S
C2079 C2096 1.574 . S
C2079 C2098 1.368 . S
C2079 H2103 0.949 . S
H2080 C2084 0.949 . S
C2081 C2082 1.349 . S
C2081 C2083 1.327 . S
C2081 H2104 0.950 . S
C2082 C2081 1.349 . S
C2082 C2094 1.349 . S
C2083 C2081 1.327 . S
C2083 C2099 1.429 . S
C2083 H2105 0.950 . S
C2084 H2080 0.949 . S
C2084 C2092 1.574 . S
C2084 C2100 1.368 . S
H2085 C2093 0.950 . S
H2086 C2091 0.950 . S
H2087 C2092 0.949 . S
H2088 C2094 0.950 . S
H2089 C2095 0.950 . S
H2090 C2096 0.949 . S
C2091 H2086 0.950 . S
C2091 C2093 1.327 . S
C2091 C2097 1.429 . S
C2092 C2084 1.574 . S
C2092 H2087 0.949 . S
C2092 C2098 1.368 . S
C2093 C2077 1.349 . S
C2093 H2085 0.950 . S
C2093 C2091 1.327 . S
C2094 C2082 1.349 . S
C2094 H2088 0.950 . S
C2094 C2095 1.327 . S
C2095 H2089 0.950 . S
C2095 C2094 1.327 . S
C2095 C2099 1.429 . S
C2096 C2079 1.574 . S
C2096 H2090 0.949 . S
C2096 C2100 1.368 . S
C2097 C2078 1.429 . S
C2097 C2091 1.429 . S
C2097 C2098 1.523 . S
C2098 C2079 1.368 . S
C2098 C2092 1.368 . S
C2098 C2097 1.523 . S
C2099 C2083 1.429 . S
C2099 C2095 1.429 . S
C2099 C2100 1.523 1_565 S
C2100 C2084 1.368 . S
C2100 C2096 1.368 . S
C2100 C2099 1.523 1_545 S
H2101 C2076 0.950 . S
H2102 C2078 0.950 . S
H2103 C2079 0.949 . S
H2104 C2081 0.950 . S
H2105 C2083 0.950 . S
C2106 C2107 1.349 . S
C2106 C2108 1.327 . S
C2106 H2131 0.950 . S
C2107 C2106 1.349 . S
C2107 C2123 1.349 . S
C2108 C2106 1.327 . S
C2108 C2127 1.429 . S
C2108 H2132 0.950 . S
C2109 C2126 1.574 . S
C2109 C2128 1.368 . S
C2109 H2133 0.949 . S
H2110 C2114 0.949 . S
C2111 C2112 1.349 . S
C2111 C2113 1.327 . S
C2111 H2134 0.950 . S
C2112 C2111 1.349 . S
C2112 C2124 1.349 . S
C2113 C2111 1.327 . S
C2113 C2129 1.429 . S
C2113 H2135 0.950 . S
C2114 H2110 0.949 . S
C2114 C2122 1.574 . S
C2114 C2130 1.368 . S
H2115 C2123 0.950 . S
H2116 C2121 0.950 . S
H2117 C2122 0.949 . S
H2118 C2124 0.950 . S
H2119 C2125 0.950 . S
H2120 C2126 0.949 . S
C2121 H2116 0.950 . S
C2121 C2123 1.327 . S
C2121 C2127 1.429 . S
C2122 C2114 1.574 . S
C2122 H2117 0.949 . S
C2122 C2128 1.368 . S
C2123 C2107 1.349 . S
C2123 H2115 0.950 . S
C2123 C2121 1.327 . S
C2124 C2112 1.349 . S
C2124 H2118 0.950 . S
C2124 C2125 1.327 . S
C2125 H2119 0.950 . S
C2125 C2124 1.327 . S
C2125 C2129 1.429 . S
C2126 C2109 1.574 . S
C2126 H2120 0.949 . S
C2126 C2130 1.368 . S
C2127 C2108 1.429 . S
C2127 C2121 1.429 . S
C2127 C2128 1.523 . S
C2128 C2109 1.368 . S
C2128 C2122 1.368 . S
C2128 C2127 1.523 . S
C2129 C2113 1.429 . S
C2129 C2125 1.429 . S
C2129 C2130 1.523 . S
C2130 C2114 1.368 . S
C2130 C2126 1.368 . S
C2130 C2129 1.523 . S
H2131 C2106 0.950 . S
H2132 C2108 0.950 . S
H2133 C2109 0.949 . S
H2134 C2111 0.950 . S
H2135 C2113 0.950 . S
C2136 C2137 1.349 . S
C2136 C2138 1.327 . S
C2136 H2161 0.950 . S
C2137 C2136 1.349 . S
C2137 C2153 1.349 . S
C2138 C2136 1.327 . S
C2138 C2157 1.429 . S
C2138 H2162 0.950 . S
C2139 C2156 1.574 . S
C2139 C2158 1.368 . S
C2139 H2163 0.949 . S
H2140 C2144 0.949 . S
C2141 C2142 1.349 . S
C2141 C2143 1.327 . S
C2141 H2164 0.950 . S
C2142 C2141 1.349 . S
C2142 C2154 1.349 . S
C2143 C2141 1.327 . S
C2143 C2159 1.429 . S
C2143 H2165 0.950 . S
C2144 H2140 0.949 . S
C2144 C2152 1.574 . S
C2144 C2160 1.368 . S
H2145 C2153 0.950 . S
H2146 C2151 0.950 . S
H2147 C2152 0.949 . S
H2148 C2154 0.950 . S
H2149 C2155 0.950 . S
H2150 C2156 0.949 . S
C2151 H2146 0.950 . S
C2151 C2153 1.327 . S
C2151 C2157 1.429 . S
C2152 C2144 1.574 . S
C2152 H2147 0.949 . S
C2152 C2158 1.368 . S
C2153 C2137 1.349 . S
C2153 H2145 0.950 . S
C2153 C2151 1.327 . S
C2154 C2142 1.349 . S
C2154 H2148 0.950 . S
C2154 C2155 1.327 . S
C2155 H2149 0.950 . S
C2155 C2154 1.327 . S
C2155 C2159 1.429 . S
C2156 C2139 1.574 . S
C2156 H2150 0.949 . S
C2156 C2160 1.368 . S
C2157 C2138 1.429 . S
C2157 C2151 1.429 . S
C2157 C2158 1.523 . S
C2158 C2139 1.368 . S
C2158 C2152 1.368 . S
C2158 C2157 1.523 . S
C2159 C2143 1.429 . S
C2159 C2155 1.429 . S
C2159 C2160 1.523 1_565 S
C2160 C2144 1.368 . S
C2160 C2156 1.368 . S
C2160 C2159 1.523 1_545 S
H2161 C2136 0.950 . S
H2162 C2138 0.950 . S
H2163 C2139 0.949 . S
H2164 C2141 0.950 . S
H2165 C2143 0.950 . S
C2166 C2167 1.349 1_565 S
C2166 C2168 1.327 . S
C2166 H2191 0.950 . S
C2167 C2166 1.349 1_545 S
C2167 C2183 1.349 . S
C2168 C2166 1.327 . S
C2168 C2187 1.429 1_565 S
C2168 H2192 0.950 . S
C2169 C2186 1.574 . S
C2169 C2188 1.368 . S
C2169 H2193 0.949 . S
H2170 C2174 0.949 . S
C2171 C2172 1.349 . S
C2171 C2173 1.327 . S
C2171 H2194 0.950 . S
C2172 C2171 1.349 . S
C2172 C2184 1.349 1_545 S
C2173 C2171 1.327 . S
C2173 C2189 1.429 . S
C2173 H2195 0.950 . S
C2174 H2170 0.949 . S
C2174 C2182 1.574 . S
C2174 C2190 1.368 1_565 S
H2175 C2183 0.950 . S
H2176 C2181 0.950 . S
H2177 C2182 0.949 . S
H2178 C2184 0.950 . S
H2179 C2185 0.950 . S
H2180 C2186 0.949 . S
C2181 H2176 0.950 . S
C2181 C2183 1.327 . S
C2181 C2187 1.429 . S
C2182 C2174 1.574 . S
C2182 H2177 0.949 . S
C2182 C2188 1.368 1_565 S
C2183 C2167 1.349 . S
C2183 H2175 0.950 . S
C2183 C2181 1.327 . S
C2184 C2172 1.349 1_565 S
C2184 H2178 0.950 . S
C2184 C2185 1.327 . S
C2185 H2179 0.950 . S
C2185 C2184 1.327 . S
C2185 C2189 1.429 1_565 S
C2186 C2169 1.574 . S
C2186 H2180 0.949 . S
C2186 C2190 1.368 . S
C2187 C2168 1.429 1_545 S
C2187 C2181 1.429 . S
C2187 C2188 1.523 . S
C2188 C2169 1.368 . S
C2188 C2182 1.368 1_545 S
C2188 C2187 1.523 . S
C2189 C2173 1.429 . S
C2189 C2185 1.429 1_545 S
C2189 C2190 1.523 . S
C2190 C2174 1.368 1_545 S
C2190 C2186 1.368 . S
C2190 C2189 1.523 . S
H2191 C2166 0.950 . S
H2192 C2168 0.950 . S
H2193 C2169 0.949 . S
H2194 C2171 0.950 . S
H2195 C2173 0.950 . S
C2196 C2197 1.349 . S
C2196 C2198 1.327 . S
C2196 H2221 0.950 . S
C2197 C2196 1.349 . S
C2197 C2213 1.349 . S
C2198 C2196 1.327 . S
C2198 C2217 1.429 . S
C2198 H2222 0.950 . S
C2199 C2216 1.574 . S
C2199 C2218 1.368 . S
C2199 H2223 0.949 . S
H2200 C2204 0.949 . S
C2201 C2202 1.349 . S
C2201 C2203 1.327 . S
C2201 H2224 0.950 . S
C2202 C2201 1.349 . S
C2202 C2214 1.349 . S
C2203 C2201 1.327 . S
C2203 C2219 1.429 . S
C2203 H2225 0.950 . S
C2204 H2200 0.949 . S
C2204 C2212 1.574 . S
C2204 C2220 1.368 . S
H2205 C2213 0.950 . S
H2206 C2211 0.950 . S
H2207 C2212 0.949 . S
H2208 C2214 0.950 . S
H2209 C2215 0.950 . S
H2210 C2216 0.949 . S
C2211 H2206 0.950 . S
C2211 C2213 1.327 . S
C2211 C2217 1.429 . S
C2212 C2204 1.574 . S
C2212 H2207 0.949 . S
C2212 C2218 1.368 . S
C2213 C2197 1.349 . S
C2213 H2205 0.950 . S
C2213 C2211 1.327 . S
C2214 C2202 1.349 . S
C2214 H2208 0.950 . S
C2214 C2215 1.327 . S
C2215 H2209 0.950 . S
C2215 C2214 1.327 . S
C2215 C2219 1.429 . S
C2216 C2199 1.574 . S
C2216 H2210 0.949 . S
C2216 C2220 1.368 . S
C2217 C2198 1.429 . S
C2217 C2211 1.429 . S
C2217 C2218 1.523 . S
C2218 C2199 1.368 . S
C2218 C2212 1.368 . S
C2218 C2217 1.523 . S
C2219 C2203 1.429 . S
C2219 C2215 1.429 . S
C2219 C2220 1.523 1_545 S
C2220 C2204 1.368 . S
C2220 C2216 1.368 . S
C2220 C2219 1.523 1_565 S
H2221 C2196 0.950 . S
H2222 C2198 0.950 . S
H2223 C2199 0.949 . S
H2224 C2201 0.950 . S
H2225 C2203 0.950 . S
C2226 C2227 1.349 . S
C2226 C2228 1.327 . S
C2226 H2251 0.950 . S
C2227 C2226 1.349 . S
C2227 C2243 1.349 . S
C2228 C2226 1.327 . S
C2228 C2247 1.429 . S
C2228 H2252 0.950 . S
C2229 C2246 1.574 . S
C2229 C2248 1.368 . S
C2229 H2253 0.949 . S
H2230 C2234 0.949 . S
C2231 C2232 1.349 . S
C2231 C2233 1.327 . S
C2231 H2254 0.950 . S
C2232 C2231 1.349 . S
C2232 C2244 1.349 . S
C2233 C2231 1.327 . S
C2233 C2249 1.429 . S
C2233 H2255 0.950 . S
C2234 H2230 0.949 . S
C2234 C2242 1.574 . S
C2234 C2250 1.368 . S
H2235 C2243 0.950 . S
H2236 C2241 0.950 . S
H2237 C2242 0.949 . S
H2238 C2244 0.950 . S
H2239 C2245 0.950 . S
H2240 C2246 0.949 . S
C2241 H2236 0.950 . S
C2241 C2243 1.327 . S
C2241 C2247 1.429 . S
C2242 C2234 1.574 . S
C2242 H2237 0.949 . S
C2242 C2248 1.368 . S
C2243 C2227 1.349 . S
C2243 H2235 0.950 . S
C2243 C2241 1.327 . S
C2244 C2232 1.349 . S
C2244 H2238 0.950 . S
C2244 C2245 1.327 . S
C2245 H2239 0.950 . S
C2245 C2244 1.327 . S
C2245 C2249 1.429 . S
C2246 C2229 1.574 . S
C2246 H2240 0.949 . S
C2246 C2250 1.368 . S
C2247 C2228 1.429 . S
C2247 C2241 1.429 . S
C2247 C2248 1.523 . S
C2248 C2229 1.368 . S
C2248 C2242 1.368 . S
C2248 C2247 1.523 . S
C2249 C2233 1.429 . S
C2249 C2245 1.429 . S
C2249 C2250 1.523 . S
C2250 C2234 1.368 . S
C2250 C2246 1.368 . S
C2250 C2249 1.523 . S
H2251 C2226 0.950 . S
H2252 C2228 0.950 . S
H2253 C2229 0.949 . S
H2254 C2231 0.950 . S
H2255 C2233 0.950 . S
C2256 C2257 1.349 . S
C2256 C2258 1.327 . S
C2256 H2281 0.950 . S
C2257 C2256 1.349 . S
C2257 C2273 1.349 . S
C2258 C2256 1.327 . S
C2258 C2277 1.429 . S
C2258 H2282 0.950 . S
C2259 C2276 1.574 . S
C2259 C2278 1.368 . S
C2259 H2283 0.949 . S
H2260 C2264 0.949 . S
C2261 C2262 1.349 . S
C2261 C2263 1.327 . S
C2261 H2284 0.950 . S
C2262 C2261 1.349 . S
C2262 C2274 1.349 . S
C2263 C2261 1.327 . S
C2263 C2279 1.429 . S
C2263 H2285 0.950 . S
C2264 H2260 0.949 . S
C2264 C2272 1.574 . S
C2264 C2280 1.368 . S
H2265 C2273 0.950 . S
H2266 C2271 0.950 . S
H2267 C2272 0.949 . S
H2268 C2274 0.950 . S
H2269 C2275 0.950 . S
H2270 C2276 0.949 . S
C2271 H2266 0.950 . S
C2271 C2273 1.327 . S
C2271 C2277 1.429 . S
C2272 C2264 1.574 . S
C2272 H2267 0.949 . S
C2272 C2278 1.368 . S
C2273 C2257 1.349 . S
C2273 H2265 0.950 . S
C2273 C2271 1.327 . S
C2274 C2262 1.349 . S
C2274 H2268 0.950 . S
C2274 C2275 1.327 . S
C2275 H2269 0.950 . S
C2275 C2274 1.327 . S
C2275 C2279 1.429 . S
C2276 C2259 1.574 . S
C2276 H2270 0.949 . S
C2276 C2280 1.368 . S
C2277 C2258 1.429 . S
C2277 C2271 1.429 . S
C2277 C2278 1.523 1_565 S
C2278 C2259 1.368 . S
C2278 C2272 1.368 . S
C2278 C2277 1.523 1_545 S
C2279 C2263 1.429 . S
C2279 C2275 1.429 . S
C2279 C2280 1.523 . S
C2280 C2264 1.368 . S
C2280 C2276 1.368 . S
C2280 C2279 1.523 . S
H2281 C2256 0.950 . S
H2282 C2258 0.950 . S
H2283 C2259 0.949 . S
H2284 C2261 0.950 . S
H2285 C2263 0.950 . S
C2286 C2287 1.349 . S
C2286 C2288 1.327 . S
C2286 H2311 0.950 . S
C2287 C2286 1.349 . S
C2287 C2303 1.349 1_565 S
C2288 C2286 1.327 . S
C2288 C2307 1.429 . S
C2288 H2312 0.950 . S
C2289 C2306 1.574 . S
C2289 C2308 1.368 1_545 S
C2289 H2313 0.949 . S
H2290 C2294 0.949 . S
C2291 C2292 1.349 1_545 S
C2291 C2293 1.327 . S
C2291 H2314 0.950 . S
C2292 C2291 1.349 1_565 S
C2292 C2304 1.349 . S
C2293 C2291 1.327 . S
C2293 C2309 1.429 1_545 S
C2293 H2315 0.950 . S
C2294 H2290 0.949 . S
C2294 C2302 1.574 . S
C2294 C2310 1.368 . S
H2295 C2303 0.950 . S
H2296 C2301 0.950 . S
H2297 C2302 0.949 . S
H2298 C2304 0.950 . S
H2299 C2305 0.950 . S
H2300 C2306 0.949 . S
C2301 H2296 0.950 . S
C2301 C2303 1.327 . S
C2301 C2307 1.429 1_545 S
C2302 C2294 1.574 . S
C2302 H2297 0.949 . S
C2302 C2308 1.368 . S
C2303 C2287 1.349 1_545 S
C2303 H2295 0.950 . S
C2303 C2301 1.327 . S
C2304 C2292 1.349 . S
C2304 H2298 0.950 . S
C2304 C2305 1.327 . S
C2305 H2299 0.950 . S
C2305 C2304 1.327 . S
C2305 C2309 1.429 . S
C2306 C2289 1.574 . S
C2306 H2300 0.949 . S
C2306 C2310 1.368 1_545 S
C2307 C2288 1.429 . S
C2307 C2301 1.429 1_565 S
C2307 C2308 1.523 . S
C2308 C2289 1.368 1_565 S
C2308 C2302 1.368 . S
C2308 C2307 1.523 . S
C2309 C2293 1.429 1_565 S
C2309 C2305 1.429 . S
C2309 C2310 1.523 . S
C2310 C2294 1.368 . S
C2310 C2306 1.368 1_565 S
C2310 C2309 1.523 . S
H2311 C2286 0.950 . S
H2312 C2288 0.950 . S
H2313 C2289 0.949 . S
H2314 C2291 0.950 . S
H2315 C2293 0.950 . S
C2316 C2317 1.349 . S
C2316 C2318 1.327 . S
C2316 H2341 0.950 . S
C2317 C2316 1.349 . S
C2317 C2333 1.349 . S
C2318 C2316 1.327 . S
C2318 C2337 1.429 . S
C2318 H2342 0.950 . S
C2319 C2336 1.574 . S
C2319 C2338 1.368 . S
C2319 H2343 0.949 . S
H2320 C2324 0.949 . S
C2321 C2322 1.349 . S
C2321 C2323 1.327 . S
C2321 H2344 0.950 . S
C2322 C2321 1.349 . S
C2322 C2334 1.349 . S
C2323 C2321 1.327 . S
C2323 C2339 1.429 . S
C2323 H2345 0.950 . S
C2324 H2320 0.949 . S
C2324 C2332 1.574 . S
C2324 C2340 1.368 . S
H2325 C2333 0.950 . S
H2326 C2331 0.950 . S
H2327 C2332 0.949 . S
H2328 C2334 0.950 . S
H2329 C2335 0.950 . S
H2330 C2336 0.949 . S
C2331 H2326 0.950 . S
C2331 C2333 1.327 . S
C2331 C2337 1.429 . S
C2332 C2324 1.574 . S
C2332 H2327 0.949 . S
C2332 C2338 1.368 . S
C2333 C2317 1.349 . S
C2333 H2325 0.950 . S
C2333 C2331 1.327 . S
C2334 C2322 1.349 . S
C2334 H2328 0.950 . S
C2334 C2335 1.327 . S
C2335 H2329 0.950 . S
C2335 C2334 1.327 . S
C2335 C2339 1.429 . S
C2336 C2319 1.574 . S
C2336 H2330 0.949 . S
C2336 C2340 1.368 . S
C2337 C2318 1.429 . S
C2337 C2331 1.429 . S
C2337 C2338 1.523 1_545 S
C2338 C2319 1.368 . S
C2338 C2332 1.368 . S
C2338 C2337 1.523 1_565 S
C2339 C2323 1.429 . S
C2339 C2335 1.429 . S
C2339 C2340 1.523 . S
C2340 C2324 1.368 . S
C2340 C2336 1.368 . S
C2340 C2339 1.523 . S
H2341 C2316 0.950 . S
H2342 C2318 0.950 . S
H2343 C2319 0.949 . S
H2344 C2321 0.950 . S
H2345 C2323 0.950 . S
C2346 C2347 1.349 1_565 S
C2346 C2348 1.327 . S
C2346 H2371 0.950 . S
C2347 C2346 1.349 1_545 S
C2347 C2363 1.349 . S
C2348 C2346 1.327 . S
C2348 C2367 1.429 1_565 S
C2348 H2372 0.950 . S
C2349 C2366 1.574 . S
C2349 C2368 1.368 . S
C2349 H2373 0.949 . S
H2350 C2354 0.949 . S
C2351 C2352 1.349 . S
C2351 C2353 1.327 . S
C2351 H2374 0.950 . S
C2352 C2351 1.349 . S
C2352 C2364 1.349 1_545 S
C2353 C2351 1.327 . S
C2353 C2369 1.429 . S
C2353 H2375 0.950 . S
C2354 H2350 0.949 . S
C2354 C2362 1.574 . S
C2354 C2370 1.368 1_565 S
H2355 C2363 0.950 . S
H2356 C2361 0.950 . S
H2357 C2362 0.949 . S
H2358 C2364 0.950 . S
H2359 C2365 0.950 . S
H2360 C2366 0.949 . S
C2361 H2356 0.950 . S
C2361 C2363 1.327 . S
C2361 C2367 1.429 . S
C2362 C2354 1.574 . S
C2362 H2357 0.949 . S
C2362 C2368 1.368 1_565 S
C2363 C2347 1.349 . S
C2363 H2355 0.950 . S
C2363 C2361 1.327 . S
C2364 C2352 1.349 1_565 S
C2364 H2358 0.950 . S
C2364 C2365 1.327 . S
C2365 H2359 0.950 . S
C2365 C2364 1.327 . S
C2365 C2369 1.429 1_565 S
C2366 C2349 1.574 . S
C2366 H2360 0.949 . S
C2366 C2370 1.368 . S
C2367 C2348 1.429 1_545 S
C2367 C2361 1.429 . S
C2367 C2368 1.523 . S
C2368 C2349 1.368 . S
C2368 C2362 1.368 1_545 S
C2368 C2367 1.523 . S
C2369 C2353 1.429 . S
C2369 C2365 1.429 1_545 S
C2369 C2370 1.523 . S
C2370 C2354 1.368 1_545 S
C2370 C2366 1.368 . S
C2370 C2369 1.523 . S
H2371 C2346 0.950 . S
H2372 C2348 0.950 . S
H2373 C2349 0.949 . S
H2374 C2351 0.950 . S
H2375 C2353 0.950 . S
C2376 C2377 1.349 . S
C2376 C2378 1.327 . S
C2376 H2401 0.950 . S
C2377 C2376 1.349 . S
C2377 C2393 1.349 . S
C2378 C2376 1.327 . S
C2378 C2397 1.429 . S
C2378 H2402 0.950 . S
C2379 C2396 1.574 . S
C2379 C2398 1.368 . S
C2379 H2403 0.949 . S
H2380 C2384 0.949 . S
C2381 C2382 1.349 . S
C2381 C2383 1.327 . S
C2381 H2404 0.950 . S
C2382 C2381 1.349 . S
C2382 C2394 1.349 . S
C2383 C2381 1.327 . S
C2383 C2399 1.429 . S
C2383 H2405 0.950 . S
C2384 H2380 0.949 . S
C2384 C2392 1.574 . S
C2384 C2400 1.368 . S
H2385 C2393 0.950 . S
H2386 C2391 0.950 . S
H2387 C2392 0.949 . S
H2388 C2394 0.950 . S
H2389 C2395 0.950 . S
H2390 C2396 0.949 . S
C2391 H2386 0.950 . S
C2391 C2393 1.327 . S
C2391 C2397 1.429 . S
C2392 C2384 1.574 . S
C2392 H2387 0.949 . S
C2392 C2398 1.368 . S
C2393 C2377 1.349 . S
C2393 H2385 0.950 . S
C2393 C2391 1.327 . S
C2394 C2382 1.349 . S
C2394 H2388 0.950 . S
C2394 C2395 1.327 . S
C2395 H2389 0.950 . S
C2395 C2394 1.327 . S
C2395 C2399 1.429 . S
C2396 C2379 1.574 . S
C2396 H2390 0.949 . S
C2396 C2400 1.368 . S
C2397 C2378 1.429 . S
C2397 C2391 1.429 . S
C2397 C2398 1.523 . S
C2398 C2379 1.368 . S
C2398 C2392 1.368 . S
C2398 C2397 1.523 . S
C2399 C2383 1.429 . S
C2399 C2395 1.429 . S
C2399 C2400 1.523 1_545 S
C2400 C2384 1.368 . S
C2400 C2396 1.368 . S
C2400 C2399 1.523 1_565 S
H2401 C2376 0.950 . S
H2402 C2378 0.950 . S
H2403 C2379 0.949 . S
H2404 C2381 0.950 . S
H2405 C2383 0.950 . S
C2406 C2407 1.328 1_545 S
C2406 C2408 1.329 . S
C2406 H2431 0.970 . S
C2407 C2406 1.328 1_565 S
C2407 C2423 1.349 . S
C2408 C2406 1.329 . S
C2408 C2427 1.429 1_545 S
C2408 H2432 0.950 . S
C2409 C2426 1.574 . S
C2409 C2428 1.368 . S
C2409 H2433 0.949 . S
H2410 C2414 0.949 . S
C2411 C2412 1.349 . S
C2411 C2413 1.327 . S
C2411 H2434 0.950 . S
C2412 C2411 1.349 . S
C2412 C2424 1.349 1_565 S
C2413 C2411 1.327 . S
C2413 C2429 1.429 . S
C2413 H2435 0.950 . S
C2414 H2410 0.949 . S
C2414 C2422 1.574 . S
C2414 C2430 1.368 1_545 S
H2415 C2423 0.950 . S
H2416 C2421 0.950 . S
H2417 C2422 0.949 . S
H2418 C2424 0.950 . S
H2419 C2425 0.950 . S
H2420 C2426 0.949 . S
C2421 H2416 0.950 . S
C2421 C2423 1.327 . S
C2421 C2427 1.429 . S
C2422 C2414 1.574 . S
C2422 H2417 0.949 . S
C2422 C2428 1.368 1_545 S
C2423 C2407 1.349 . S
C2423 H2415 0.950 . S
C2423 C2421 1.327 . S
C2424 C2412 1.349 1_545 S
C2424 H2418 0.950 . S
C2424 C2425 1.327 . S
C2425 H2419 0.950 . S
C2425 C2424 1.327 . S
C2425 C2429 1.429 1_545 S
C2426 C2409 1.574 . S
C2426 H2420 0.949 . S
C2426 C2430 1.368 . S
C2427 C2408 1.429 1_565 S
C2427 C2421 1.429 . S
C2427 C2428 1.523 . S
C2428 C2409 1.368 . S
C2428 C2422 1.368 1_565 S
C2428 C2427 1.523 . S
C2429 C2413 1.429 . S
C2429 C2425 1.429 1_565 S
C2429 C2430 1.523 . S
C2430 C2414 1.368 1_565 S
C2430 C2426 1.368 . S
C2430 C2429 1.523 . S
H2431 C2406 0.970 . S
H2432 C2408 0.950 . S
H2433 C2409 0.949 . S
H2434 C2411 0.950 . S
H2435 C2413 0.950 . S
C2436 C2437 1.349 . S
C2436 C2438 1.327 . S
C2436 H2461 0.950 . S
C2437 C2436 1.349 . S
C2437 C2453 1.349 . S
C2438 C2436 1.327 . S
C2438 C2457 1.429 . S
C2438 H2462 0.950 . S
C2439 C2456 1.574 . S
C2439 C2458 1.368 . S
C2439 H2463 0.949 . S
H2440 C2444 0.949 . S
C2441 C2442 1.349 . S
C2441 C2443 1.327 . S
C2441 H2464 0.950 . S
C2442 C2441 1.349 . S
C2442 C2454 1.349 . S
C2443 C2441 1.327 . S
C2443 C2459 1.429 . S
C2443 H2465 0.950 . S
C2444 H2440 0.949 . S
C2444 C2452 1.574 . S
C2444 C2460 1.368 . S
H2445 C2453 0.950 . S
H2446 C2451 0.950 . S
H2447 C2452 0.949 . S
H2448 C2454 0.950 . S
H2449 C2455 0.950 . S
H2450 C2456 0.949 . S
C2451 H2446 0.950 . S
C2451 C2453 1.327 . S
C2451 C2457 1.429 . S
C2452 C2444 1.574 . S
C2452 H2447 0.949 . S
C2452 C2458 1.368 . S
C2453 C2437 1.349 . S
C2453 H2445 0.950 . S
C2453 C2451 1.327 . S
C2454 C2442 1.349 . S
C2454 H2448 0.950 . S
C2454 C2455 1.327 . S
C2455 H2449 0.950 . S
C2455 C2454 1.327 . S
C2455 C2459 1.429 . S
C2456 C2439 1.574 . S
C2456 H2450 0.949 . S
C2456 C2460 1.368 . S
C2457 C2438 1.429 . S
C2457 C2451 1.429 . S
C2457 C2458 1.523 1_565 S
C2458 C2439 1.368 . S
C2458 C2452 1.368 . S
C2458 C2457 1.523 1_545 S
C2459 C2443 1.429 . S
C2459 C2455 1.429 . S
C2459 C2460 1.523 . S
C2460 C2444 1.368 . S
C2460 C2456 1.368 . S
C2460 C2459 1.523 . S
H2461 C2436 0.950 . S
H2462 C2438 0.950 . S
H2463 C2439 0.949 . S
H2464 C2441 0.950 . S
H2465 C2443 0.950 . S
C2466 C2467 1.349 1_565 S
C2466 C2468 1.327 . S
C2466 H2491 0.950 . S
C2467 C2466 1.349 1_545 S
C2467 C2483 1.349 . S
C2468 C2466 1.327 . S
C2468 C2487 1.429 1_565 S
C2468 H2492 0.950 . S
C2469 C2486 1.574 . S
C2469 C2488 1.368 . S
C2469 H2493 0.949 . S
H2470 C2474 0.949 . S
C2471 C2472 1.349 . S
C2471 C2473 1.327 . S
C2471 H2494 0.950 . S
C2472 C2471 1.349 . S
C2472 C2484 1.349 1_545 S
C2473 C2471 1.327 . S
C2473 C2489 1.429 . S
C2473 H2495 0.950 . S
C2474 H2470 0.949 . S
C2474 C2482 1.574 . S
C2474 C2490 1.368 1_565 S
H2475 C2483 0.950 . S
H2476 C2481 0.950 . S
H2477 C2482 0.949 . S
H2478 C2484 0.950 . S
H2479 C2485 0.950 . S
H2480 C2486 0.949 . S
C2481 H2476 0.950 . S
C2481 C2483 1.327 . S
C2481 C2487 1.429 . S
C2482 C2474 1.574 . S
C2482 H2477 0.949 . S
C2482 C2488 1.368 1_565 S
C2483 C2467 1.349 . S
C2483 H2475 0.950 . S
C2483 C2481 1.327 . S
C2484 C2472 1.349 1_565 S
C2484 H2478 0.950 . S
C2484 C2485 1.327 . S
C2485 H2479 0.950 . S
C2485 C2484 1.327 . S
C2485 C2489 1.429 1_565 S
C2486 C2469 1.574 . S
C2486 H2480 0.949 . S
C2486 C2490 1.368 . S
C2487 C2468 1.429 1_545 S
C2487 C2481 1.429 . S
C2487 C2488 1.523 . S
C2488 C2469 1.368 . S
C2488 C2482 1.368 1_545 S
C2488 C2487 1.523 . S
C2489 C2473 1.429 . S
C2489 C2485 1.429 1_545 S
C2489 C2490 1.523 . S
C2490 C2474 1.368 1_545 S
C2490 C2486 1.368 . S
C2490 C2489 1.523 . S
H2491 C2466 0.950 . S
H2492 C2468 0.950 . S
H2493 C2469 0.949 . S
H2494 C2471 0.950 . S
H2495 C2473 0.950 . S
C2496 C2497 1.349 . S
C2496 C2498 1.327 . S
C2496 H2521 0.950 . S
C2497 C2496 1.349 . S
C2497 C2513 1.349 . S
C2498 C2496 1.327 . S
C2498 C2517 1.429 . S
C2498 H2522 0.950 . S
C2499 C2516 1.574 . S
C2499 C2518 1.368 . S
C2499 H2523 0.949 . S
H2500 C2504 0.949 . S
C2501 C2502 1.349 . S
C2501 C2503 1.327 . S
C2501 H2524 0.950 . S
C2502 C2501 1.349 . S
C2502 C2514 1.349 . S
C2503 C2501 1.327 . S
C2503 C2519 1.429 . S
C2503 H2525 0.950 . S
C2504 H2500 0.949 . S
C2504 C2512 1.574 . S
C2504 C2520 1.368 . S
H2505 C2513 0.950 . S
H2506 C2511 0.950 . S
H2507 C2512 0.949 . S
H2508 C2514 0.950 . S
H2509 C2515 0.950 . S
H2510 C2516 0.949 . S
C2511 H2506 0.950 . S
C2511 C2513 1.327 . S
C2511 C2517 1.429 . S
C2512 C2504 1.574 . S
C2512 H2507 0.949 . S
C2512 C2518 1.368 . S
C2513 C2497 1.349 . S
C2513 H2505 0.950 . S
C2513 C2511 1.327 . S
C2514 C2502 1.349 . S
C2514 H2508 0.950 . S
C2514 C2515 1.327 . S
C2515 H2509 0.950 . S
C2515 C2514 1.327 . S
C2515 C2519 1.429 . S
C2516 C2499 1.574 . S
C2516 H2510 0.949 . S
C2516 C2520 1.368 . S
C2517 C2498 1.429 . S
C2517 C2511 1.429 . S
C2517 C2518 1.523 . S
C2518 C2499 1.368 . S
C2518 C2512 1.368 . S
C2518 C2517 1.523 . S
C2519 C2503 1.429 . S
C2519 C2515 1.429 . S
C2519 C2520 1.523 . S
C2520 C2504 1.368 . S
C2520 C2516 1.368 . S
C2520 C2519 1.523 . S
H2521 C2496 0.950 . S
H2522 C2498 0.950 . S
H2523 C2499 0.949 . S
H2524 C2501 0.950 . S
H2525 C2503 0.950 . S
C2526 C2527 1.349 . S
C2526 C2528 1.327 . S
C2526 H2551 0.950 . S
C2527 C2526 1.349 . S
C2527 C2543 1.349 . S
C2528 C2526 1.327 . S
C2528 C2547 1.429 . S
C2528 H2552 0.950 . S
C2529 C2546 1.574 . S
C2529 C2548 1.368 . S
C2529 H2553 0.949 . S
H2530 C2534 0.949 . S
C2531 C2532 1.349 . S
C2531 C2533 1.327 . S
C2531 H2554 0.950 . S
C2532 C2531 1.349 . S
C2532 C2544 1.349 . S
C2533 C2531 1.327 . S
C2533 C2549 1.429 . S
C2533 H2555 0.950 . S
C2534 H2530 0.949 . S
C2534 C2542 1.574 . S
C2534 C2550 1.368 . S
H2535 C2543 0.950 . S
H2536 C2541 0.950 . S
H2537 C2542 0.949 . S
H2538 C2544 0.950 . S
H2539 C2545 0.950 . S
H2540 C2546 0.949 . S
C2541 H2536 0.950 . S
C2541 C2543 1.327 . S
C2541 C2547 1.429 . S
C2542 C2534 1.574 . S
C2542 H2537 0.949 . S
C2542 C2548 1.368 . S
C2543 C2527 1.349 . S
C2543 H2535 0.950 . S
C2543 C2541 1.327 . S
C2544 C2532 1.349 . S
C2544 H2538 0.950 . S
C2544 C2545 1.327 . S
C2545 H2539 0.950 . S
C2545 C2544 1.327 . S
C2545 C2549 1.429 . S
C2546 C2529 1.574 . S
C2546 H2540 0.949 . S
C2546 C2550 1.368 . S
C2547 C2528 1.429 . S
C2547 C2541 1.429 . S
C2547 C2548 1.523 . S
C2548 C2529 1.368 . S
C2548 C2542 1.368 . S
C2548 C2547 1.523 . S
C2549 C2533 1.429 . S
C2549 C2545 1.429 . S
C2549 C2550 1.523 . S
C2550 C2534 1.368 . S
C2550 C2546 1.368 . S
C2550 C2549 1.523 . S
H2551 C2526 0.950 . S
H2552 C2528 0.950 . S
H2553 C2529 0.949 . S
H2554 C2531 0.950 . S
H2555 C2533 0.950 . S
C2556 C2557 1.349 . S
C2556 C2558 1.327 . S
C2556 H2581 0.950 . S
C2557 C2556 1.349 . S
C2557 C2573 1.349 . S
C2558 C2556 1.327 . S
C2558 C2577 1.429 . S
C2558 H2582 0.950 . S
C2559 C2576 1.574 . S
C2559 C2578 1.368 . S
C2559 H2583 0.949 . S
H2560 C2564 0.949 . S
C2561 C2562 1.349 . S
C2561 C2563 1.327 . S
C2561 H2584 0.950 . S
C2562 C2561 1.349 . S
C2562 C2574 1.349 . S
C2563 C2561 1.327 . S
C2563 C2579 1.429 . S
C2563 H2585 0.950 . S
C2564 H2560 0.949 . S
C2564 C2572 1.574 . S
C2564 C2580 1.368 . S
H2565 C2573 0.950 . S
H2566 C2571 0.950 . S
H2567 C2572 0.949 . S
H2568 C2574 0.950 . S
H2569 C2575 0.950 . S
H2570 C2576 0.949 . S
C2571 H2566 0.950 . S
C2571 C2573 1.327 . S
C2571 C2577 1.429 . S
C2572 C2564 1.574 . S
C2572 H2567 0.949 . S
C2572 C2578 1.368 . S
C2573 C2557 1.349 . S
C2573 H2565 0.950 . S
C2573 C2571 1.327 . S
C2574 C2562 1.349 . S
C2574 H2568 0.950 . S
C2574 C2575 1.327 . S
C2575 H2569 0.950 . S
C2575 C2574 1.327 . S
C2575 C2579 1.429 . S
C2576 C2559 1.574 . S
C2576 H2570 0.949 . S
C2576 C2580 1.368 . S
C2577 C2558 1.429 . S
C2577 C2571 1.429 . S
C2577 C2578 1.523 . S
C2578 C2559 1.368 . S
C2578 C2572 1.368 . S
C2578 C2577 1.523 . S
C2579 C2563 1.429 . S
C2579 C2575 1.429 . S
C2579 C2580 1.523 . S
C2580 C2564 1.368 . S
C2580 C2576 1.368 . S
C2580 C2579 1.523 . S
H2581 C2556 0.950 . S
H2582 C2558 0.950 . S
H2583 C2559 0.949 . S
H2584 C2561 0.950 . S
H2585 C2563 0.950 . S
C2586 C2587 1.349 . S
C2586 C2588 1.327 . S
C2586 H2611 0.950 . S
C2587 C2586 1.349 . S
C2587 C2603 1.349 . S
C2588 C2586 1.327 . S
C2588 C2607 1.429 . S
C2588 H2612 0.950 . S
C2589 C2606 1.574 . S
C2589 C2608 1.368 . S
C2589 H2613 0.949 . S
H2590 C2594 0.949 . S
C2591 C2592 1.349 . S
C2591 C2593 1.327 . S
C2591 H2614 0.950 . S
C2592 C2591 1.349 . S
C2592 C2604 1.349 . S
C2593 C2591 1.327 . S
C2593 C2609 1.429 . S
C2593 H2615 0.950 . S
C2594 H2590 0.949 . S
C2594 C2602 1.574 . S
C2594 C2610 1.368 . S
H2595 C2603 0.950 . S
H2596 C2601 0.950 . S
H2597 C2602 0.949 . S
H2598 C2604 0.950 . S
H2599 C2605 0.950 . S
H2600 C2606 0.949 . S
C2601 H2596 0.950 . S
C2601 C2603 1.327 . S
C2601 C2607 1.429 . S
C2602 C2594 1.574 . S
C2602 H2597 0.949 . S
C2602 C2608 1.368 . S
C2603 C2587 1.349 . S
C2603 H2595 0.950 . S
C2603 C2601 1.327 . S
C2604 C2592 1.349 . S
C2604 H2598 0.950 . S
C2604 C2605 1.327 . S
C2605 H2599 0.950 . S
C2605 C2604 1.327 . S
C2605 C2609 1.429 . S
C2606 C2589 1.574 . S
C2606 H2600 0.949 . S
C2606 C2610 1.368 . S
C2607 C2588 1.429 . S
C2607 C2601 1.429 . S
C2607 C2608 1.523 . S
C2608 C2589 1.368 . S
C2608 C2602 1.368 . S
C2608 C2607 1.523 . S
C2609 C2593 1.429 . S
C2609 C2605 1.429 . S
C2609 C2610 1.523 . S
C2610 C2594 1.368 . S
C2610 C2606 1.368 . S
C2610 C2609 1.523 . S
H2611 C2586 0.950 . S
H2612 C2588 0.950 . S
H2613 C2589 0.949 . S
H2614 C2591 0.950 . S
H2615 C2593 0.950 . S
C2616 C2617 1.349 . S
C2616 C2618 1.327 . S
C2616 H2641 0.950 . S
C2617 C2616 1.349 . S
C2617 C2633 1.349 . S
C2618 C2616 1.327 . S
C2618 C2637 1.429 . S
C2618 H2642 0.950 . S
C2619 C2636 1.574 . S
C2619 C2638 1.368 . S
C2619 H2643 0.949 . S
H2620 C2624 0.949 . S
C2621 C2622 1.349 . S
C2621 C2623 1.327 . S
C2621 H2644 0.950 . S
C2622 C2621 1.349 . S
C2622 C2634 1.349 . S
C2623 C2621 1.327 . S
C2623 C2639 1.429 . S
C2623 H2645 0.950 . S
C2624 H2620 0.949 . S
C2624 C2632 1.574 . S
C2624 C2640 1.368 . S
H2625 C2633 0.950 . S
H2626 C2631 0.950 . S
H2627 C2632 0.949 . S
H2628 C2634 0.950 . S
H2629 C2635 0.950 . S
H2630 C2636 0.949 . S
C2631 H2626 0.950 . S
C2631 C2633 1.327 . S
C2631 C2637 1.429 . S
C2632 C2624 1.574 . S
C2632 H2627 0.949 . S
C2632 C2638 1.368 . S
C2633 C2617 1.349 . S
C2633 H2625 0.950 . S
C2633 C2631 1.327 . S
C2634 C2622 1.349 . S
C2634 H2628 0.950 . S
C2634 C2635 1.327 . S
C2635 H2629 0.950 . S
C2635 C2634 1.327 . S
C2635 C2639 1.429 . S
C2636 C2619 1.574 . S
C2636 H2630 0.949 . S
C2636 C2640 1.368 . S
C2637 C2618 1.429 . S
C2637 C2631 1.429 . S
C2637 C2638 1.523 . S
C2638 C2619 1.368 . S
C2638 C2632 1.368 . S
C2638 C2637 1.523 . S
C2639 C2623 1.429 . S
C2639 C2635 1.429 . S
C2639 C2640 1.523 . S
C2640 C2624 1.368 . S
C2640 C2636 1.368 . S
C2640 C2639 1.523 . S
H2641 C2616 0.950 . S
H2642 C2618 0.950 . S
H2643 C2619 0.949 . S
H2644 C2621 0.950 . S
H2645 C2623 0.950 . S
C2646 C2647 1.349 . S
C2646 C2648 1.327 . S
C2646 H2671 0.950 . S
C2647 C2646 1.349 . S
C2647 C2663 1.349 . S
C2648 C2646 1.327 . S
C2648 C2667 1.429 . S
C2648 H2672 0.950 . S
C2649 C2666 1.574 . S
C2649 C2668 1.368 . S
C2649 H2673 0.949 . S
H2650 C2654 0.949 . S
C2651 C2652 1.349 . S
C2651 C2653 1.327 . S
C2651 H2674 0.950 . S
C2652 C2651 1.349 . S
C2652 C2664 1.349 . S
C2653 C2651 1.327 . S
C2653 C2669 1.429 . S
C2653 H2675 0.950 . S
C2654 H2650 0.949 . S
C2654 C2662 1.574 . S
C2654 C2670 1.368 . S
H2655 C2663 0.950 . S
H2656 C2661 0.950 . S
H2657 C2662 0.949 . S
H2658 C2664 0.950 . S
H2659 C2665 0.950 . S
H2660 C2666 0.949 . S
C2661 H2656 0.950 . S
C2661 C2663 1.327 . S
C2661 C2667 1.429 . S
C2662 C2654 1.574 . S
C2662 H2657 0.949 . S
C2662 C2668 1.368 . S
C2663 C2647 1.349 . S
C2663 H2655 0.950 . S
C2663 C2661 1.327 . S
C2664 C2652 1.349 . S
C2664 H2658 0.950 . S
C2664 C2665 1.327 . S
C2665 H2659 0.950 . S
C2665 C2664 1.327 . S
C2665 C2669 1.429 . S
C2666 C2649 1.574 . S
C2666 H2660 0.949 . S
C2666 C2670 1.368 . S
C2667 C2648 1.429 . S
C2667 C2661 1.429 . S
C2667 C2668 1.523 . S
C2668 C2649 1.368 . S
C2668 C2662 1.368 . S
C2668 C2667 1.523 . S
C2669 C2653 1.429 . S
C2669 C2665 1.429 . S
C2669 C2670 1.523 . S
C2670 C2654 1.368 . S
C2670 C2666 1.368 . S
C2670 C2669 1.523 . S
H2671 C2646 0.950 . S
H2672 C2648 0.950 . S
H2673 C2649 0.949 . S
H2674 C2651 0.950 . S
H2675 C2653 0.950 . S
C2676 C2677 1.349 . S
C2676 C2678 1.327 . S
C2676 H2701 0.950 . S
C2677 C2676 1.349 . S
C2677 C2693 1.349 . S
C2678 C2676 1.327 . S
C2678 C2697 1.429 . S
C2678 H2702 0.950 . S
C2679 C2696 1.574 . S
C2679 C2698 1.368 . S
C2679 H2703 0.949 . S
H2680 C2684 0.949 . S
C2681 C2682 1.349 . S
C2681 C2683 1.327 . S
C2681 H2704 0.950 . S
C2682 C2681 1.349 . S
C2682 C2694 1.349 . S
C2683 C2681 1.327 . S
C2683 C2699 1.429 . S
C2683 H2705 0.950 . S
C2684 H2680 0.949 . S
C2684 C2692 1.574 . S
C2684 C2700 1.368 . S
H2685 C2693 0.950 . S
H2686 C2691 0.950 . S
H2687 C2692 0.949 . S
H2688 C2694 0.950 . S
H2689 C2695 0.950 . S
H2690 C2696 0.949 . S
C2691 H2686 0.950 . S
C2691 C2693 1.327 . S
C2691 C2697 1.429 . S
C2692 C2684 1.574 . S
C2692 H2687 0.949 . S
C2692 C2698 1.368 . S
C2693 C2677 1.349 . S
C2693 H2685 0.950 . S
C2693 C2691 1.327 . S
C2694 C2682 1.349 . S
C2694 H2688 0.950 . S
C2694 C2695 1.327 . S
C2695 H2689 0.950 . S
C2695 C2694 1.327 . S
C2695 C2699 1.429 . S
C2696 C2679 1.574 . S
C2696 H2690 0.949 . S
C2696 C2700 1.368 . S
C2697 C2678 1.429 . S
C2697 C2691 1.429 . S
C2697 C2698 1.523 . S
C2698 C2679 1.368 . S
C2698 C2692 1.368 . S
C2698 C2697 1.523 . S
C2699 C2683 1.429 . S
C2699 C2695 1.429 . S
C2699 C2700 1.523 . S
C2700 C2684 1.368 . S
C2700 C2696 1.368 . S
C2700 C2699 1.523 . S
H2701 C2676 0.950 . S
H2702 C2678 0.950 . S
H2703 C2679 0.949 . S
H2704 C2681 0.950 . S
H2705 C2683 0.950 . S
C2706 C2707 1.349 . S
C2706 C2708 1.327 . S
C2706 H2731 0.950 . S
C2707 C2706 1.349 . S
C2707 C2723 1.349 . S
C2708 C2706 1.327 . S
C2708 C2727 1.429 . S
C2708 H2732 0.950 . S
C2709 C2726 1.574 . S
C2709 C2728 1.368 . S
C2709 H2733 0.949 . S
H2710 C2714 0.949 . S
C2711 C2712 1.349 . S
C2711 C2713 1.327 . S
C2711 H2734 0.950 . S
C2712 C2711 1.349 . S
C2712 C2724 1.349 . S
C2713 C2711 1.327 . S
C2713 C2729 1.429 . S
C2713 H2735 0.950 . S
C2714 H2710 0.949 . S
C2714 C2722 1.574 . S
C2714 C2730 1.368 . S
H2715 C2723 0.950 . S
H2716 C2721 0.950 . S
H2717 C2722 0.949 . S
H2718 C2724 0.950 . S
H2719 C2725 0.950 . S
H2720 C2726 0.949 . S
C2721 H2716 0.950 . S
C2721 C2723 1.327 . S
C2721 C2727 1.429 . S
C2722 C2714 1.574 . S
C2722 H2717 0.949 . S
C2722 C2728 1.368 . S
C2723 C2707 1.349 . S
C2723 H2715 0.950 . S
C2723 C2721 1.327 . S
C2724 C2712 1.349 . S
C2724 H2718 0.950 . S
C2724 C2725 1.327 . S
C2725 H2719 0.950 . S
C2725 C2724 1.327 . S
C2725 C2729 1.429 . S
C2726 C2709 1.574 . S
C2726 H2720 0.949 . S
C2726 C2730 1.368 . S
C2727 C2708 1.429 . S
C2727 C2721 1.429 . S
C2727 C2728 1.523 . S
C2728 C2709 1.368 . S
C2728 C2722 1.368 . S
C2728 C2727 1.523 . S
C2729 C2713 1.429 . S
C2729 C2725 1.429 . S
C2729 C2730 1.523 . S
C2730 C2714 1.368 . S
C2730 C2726 1.368 . S
C2730 C2729 1.523 . S
H2731 C2706 0.950 . S
H2732 C2708 0.950 . S
H2733 C2709 0.949 . S
H2734 C2711 0.950 . S
H2735 C2713 0.950 . S
C2736 C2737 1.349 . S
C2736 C2738 1.327 . S
C2736 H2761 0.950 . S
C2737 C2736 1.349 . S
C2737 C2753 1.349 . S
C2738 C2736 1.327 . S
C2738 C2757 1.429 . S
C2738 H2762 0.950 . S
C2739 C2756 1.574 . S
C2739 C2758 1.368 . S
C2739 H2763 0.949 . S
H2740 C2744 0.949 . S
C2741 C2742 1.349 . S
C2741 C2743 1.327 . S
C2741 H2764 0.950 . S
C2742 C2741 1.349 . S
C2742 C2754 1.349 . S
C2743 C2741 1.327 . S
C2743 C2759 1.429 . S
C2743 H2765 0.950 . S
C2744 H2740 0.949 . S
C2744 C2752 1.574 . S
C2744 C2760 1.368 . S
H2745 C2753 0.950 . S
H2746 C2751 0.950 . S
H2747 C2752 0.949 . S
H2748 C2754 0.950 . S
H2749 C2755 0.950 . S
H2750 C2756 0.949 . S
C2751 H2746 0.950 . S
C2751 C2753 1.327 . S
C2751 C2757 1.429 . S
C2752 C2744 1.574 . S
C2752 H2747 0.949 . S
C2752 C2758 1.368 . S
C2753 C2737 1.349 . S
C2753 H2745 0.950 . S
C2753 C2751 1.327 . S
C2754 C2742 1.349 . S
C2754 H2748 0.950 . S
C2754 C2755 1.327 . S
C2755 H2749 0.950 . S
C2755 C2754 1.327 . S
C2755 C2759 1.429 . S
C2756 C2739 1.574 . S
C2756 H2750 0.949 . S
C2756 C2760 1.368 . S
C2757 C2738 1.429 . S
C2757 C2751 1.429 . S
C2757 C2758 1.523 . S
C2758 C2739 1.368 . S
C2758 C2752 1.368 . S
C2758 C2757 1.523 . S
C2759 C2743 1.429 . S
C2759 C2755 1.429 . S
C2759 C2760 1.523 . S
C2760 C2744 1.368 . S
C2760 C2756 1.368 . S
C2760 C2759 1.523 . S
H2761 C2736 0.950 . S
H2762 C2738 0.950 . S
H2763 C2739 0.949 . S
H2764 C2741 0.950 . S
H2765 C2743 0.950 . S
C2766 C2767 1.349 . S
C2766 C2768 1.327 . S
C2766 H2791 0.950 . S
C2767 C2766 1.349 . S
C2767 C2783 1.349 . S
C2768 C2766 1.327 . S
C2768 C2787 1.429 . S
C2768 H2792 0.950 . S
C2769 C2786 1.574 . S
C2769 C2788 1.368 . S
C2769 H2793 0.949 . S
H2770 C2774 0.949 . S
C2771 C2772 1.349 . S
C2771 C2773 1.327 . S
C2771 H2794 0.950 . S
C2772 C2771 1.349 . S
C2772 C2784 1.349 . S
C2773 C2771 1.327 . S
C2773 C2789 1.429 . S
C2773 H2795 0.950 . S
C2774 H2770 0.949 . S
C2774 C2782 1.574 . S
C2774 C2790 1.368 . S
H2775 C2783 0.950 . S
H2776 C2781 0.950 . S
H2777 C2782 0.949 . S
H2778 C2784 0.950 . S
H2779 C2785 0.950 . S
H2780 C2786 0.949 . S
C2781 H2776 0.950 . S
C2781 C2783 1.327 . S
C2781 C2787 1.429 . S
C2782 C2774 1.574 . S
C2782 H2777 0.949 . S
C2782 C2788 1.368 . S
C2783 C2767 1.349 . S
C2783 H2775 0.950 . S
C2783 C2781 1.327 . S
C2784 C2772 1.349 . S
C2784 H2778 0.950 . S
C2784 C2785 1.327 . S
C2785 H2779 0.950 . S
C2785 C2784 1.327 . S
C2785 C2789 1.429 . S
C2786 C2769 1.574 . S
C2786 H2780 0.949 . S
C2786 C2790 1.368 . S
C2787 C2768 1.429 . S
C2787 C2781 1.429 . S
C2787 C2788 1.523 . S
C2788 C2769 1.368 . S
C2788 C2782 1.368 . S
C2788 C2787 1.523 . S
C2789 C2773 1.429 . S
C2789 C2785 1.429 . S
C2789 C2790 1.523 . S
C2790 C2774 1.368 . S
C2790 C2786 1.368 . S
C2790 C2789 1.523 . S
H2791 C2766 0.950 . S
H2792 C2768 0.950 . S
H2793 C2769 0.949 . S
H2794 C2771 0.950 . S
H2795 C2773 0.950 . S
C2796 C2797 1.349 . S
C2796 C2798 1.327 . S
C2796 H2821 0.950 . S
C2797 C2796 1.349 . S
C2797 C2813 1.349 . S
C2798 C2796 1.327 . S
C2798 C2817 1.429 . S
C2798 H2822 0.950 . S
C2799 C2816 1.574 . S
C2799 C2818 1.368 . S
C2799 H2823 0.949 . S
H2800 C2804 0.949 . S
C2801 C2802 1.349 . S
C2801 C2803 1.327 . S
C2801 H2824 0.950 . S
C2802 C2801 1.349 . S
C2802 C2814 1.349 . S
C2803 C2801 1.327 . S
C2803 C2819 1.429 . S
C2803 H2825 0.950 . S
C2804 H2800 0.949 . S
C2804 C2812 1.574 . S
C2804 C2820 1.368 . S
H2805 C2813 0.950 . S
H2806 C2811 0.950 . S
H2807 C2812 0.949 . S
H2808 C2814 0.950 . S
H2809 C2815 0.950 . S
H2810 C2816 0.949 . S
C2811 H2806 0.950 . S
C2811 C2813 1.327 . S
C2811 C2817 1.429 . S
C2812 C2804 1.574 . S
C2812 H2807 0.949 . S
C2812 C2818 1.368 . S
C2813 C2797 1.349 . S
C2813 H2805 0.950 . S
C2813 C2811 1.327 . S
C2814 C2802 1.349 . S
C2814 H2808 0.950 . S
C2814 C2815 1.327 . S
C2815 H2809 0.950 . S
C2815 C2814 1.327 . S
C2815 C2819 1.429 . S
C2816 C2799 1.574 . S
C2816 H2810 0.949 . S
C2816 C2820 1.368 . S
C2817 C2798 1.429 . S
C2817 C2811 1.429 . S
C2817 C2818 1.523 . S
C2818 C2799 1.368 . S
C2818 C2812 1.368 . S
C2818 C2817 1.523 . S
C2819 C2803 1.429 . S
C2819 C2815 1.429 . S
C2819 C2820 1.523 . S
C2820 C2804 1.368 . S
C2820 C2816 1.368 . S
C2820 C2819 1.523 . S
H2821 C2796 0.950 . S
H2822 C2798 0.950 . S
H2823 C2799 0.949 . S
H2824 C2801 0.950 . S
H2825 C2803 0.950 . S
C2826 C2827 1.349 . S
C2826 C2828 1.327 . S
C2826 H2851 0.950 . S
C2827 C2826 1.349 . S
C2827 C2843 1.349 . S
C2828 C2826 1.327 . S
C2828 C2847 1.429 . S
C2828 H2852 0.950 . S
C2829 C2846 1.574 . S
C2829 C2848 1.368 . S
C2829 H2853 0.949 . S
H2830 C2834 0.949 . S
C2831 C2832 1.349 . S
C2831 C2833 1.327 . S
C2831 H2854 0.950 . S
C2832 C2831 1.349 . S
C2832 C2844 1.349 . S
C2833 C2831 1.327 . S
C2833 C2849 1.429 . S
C2833 H2855 0.950 . S
C2834 H2830 0.949 . S
C2834 C2842 1.574 . S
C2834 C2850 1.368 . S
H2835 C2843 0.950 . S
H2836 C2841 0.950 . S
H2837 C2842 0.949 . S
H2838 C2844 0.950 . S
H2839 C2845 0.950 . S
H2840 C2846 0.949 . S
C2841 H2836 0.950 . S
C2841 C2843 1.327 . S
C2841 C2847 1.429 . S
C2842 C2834 1.574 . S
C2842 H2837 0.949 . S
C2842 C2848 1.368 . S
C2843 C2827 1.349 . S
C2843 H2835 0.950 . S
C2843 C2841 1.327 . S
C2844 C2832 1.349 . S
C2844 H2838 0.950 . S
C2844 C2845 1.327 . S
C2845 H2839 0.950 . S
C2845 C2844 1.327 . S
C2845 C2849 1.429 . S
C2846 C2829 1.574 . S
C2846 H2840 0.949 . S
C2846 C2850 1.368 . S
C2847 C2828 1.429 . S
C2847 C2841 1.429 . S
C2847 C2848 1.523 . S
C2848 C2829 1.368 . S
C2848 C2842 1.368 . S
C2848 C2847 1.523 . S
C2849 C2833 1.429 . S
C2849 C2845 1.429 . S
C2849 C2850 1.523 . S
C2850 C2834 1.368 . S
C2850 C2846 1.368 . S
C2850 C2849 1.523 . S
H2851 C2826 0.950 . S
H2852 C2828 0.950 . S
H2853 C2829 0.949 . S
H2854 C2831 0.950 . S
H2855 C2833 0.950 . S
C2856 C2857 1.349 . S
C2856 C2858 1.327 . S
C2856 H2881 0.950 . S
C2857 C2856 1.349 . S
C2857 C2873 1.349 . S
C2858 C2856 1.327 . S
C2858 C2877 1.429 . S
C2858 H2882 0.950 . S
C2859 C2876 1.574 . S
C2859 C2878 1.368 . S
C2859 H2883 0.949 . S
H2860 C2864 0.949 . S
C2861 C2862 1.349 . S
C2861 C2863 1.327 . S
C2861 H2884 0.950 . S
C2862 C2861 1.349 . S
C2862 C2874 1.349 . S
C2863 C2861 1.327 . S
C2863 C2879 1.429 . S
C2863 H2885 0.950 . S
C2864 H2860 0.949 . S
C2864 C2872 1.574 . S
C2864 C2880 1.368 . S
H2865 C2873 0.950 . S
H2866 C2871 0.950 . S
H2867 C2872 0.949 . S
H2868 C2874 0.950 . S
H2869 C2875 0.950 . S
H2870 C2876 0.949 . S
C2871 H2866 0.950 . S
C2871 C2873 1.327 . S
C2871 C2877 1.429 . S
C2872 C2864 1.574 . S
C2872 H2867 0.949 . S
C2872 C2878 1.368 . S
C2873 C2857 1.349 . S
C2873 H2865 0.950 . S
C2873 C2871 1.327 . S
C2874 C2862 1.349 . S
C2874 H2868 0.950 . S
C2874 C2875 1.327 . S
C2875 H2869 0.950 . S
C2875 C2874 1.327 . S
C2875 C2879 1.429 . S
C2876 C2859 1.574 . S
C2876 H2870 0.949 . S
C2876 C2880 1.368 . S
C2877 C2858 1.429 . S
C2877 C2871 1.429 . S
C2877 C2878 1.523 . S
C2878 C2859 1.368 . S
C2878 C2872 1.368 . S
C2878 C2877 1.523 . S
C2879 C2863 1.429 . S
C2879 C2875 1.429 . S
C2879 C2880 1.523 . S
C2880 C2864 1.368 . S
C2880 C2876 1.368 . S
C2880 C2879 1.523 . S
H2881 C2856 0.950 . S
H2882 C2858 0.950 . S
H2883 C2859 0.949 . S
H2884 C2861 0.950 . S
H2885 C2863 0.950 . S
C2886 C2887 1.349 . S
C2886 C2888 1.327 . S
C2886 H2911 0.950 . S
C2887 C2886 1.349 . S
C2887 C2903 1.349 . S
C2888 C2886 1.327 . S
C2888 C2907 1.429 . S
C2888 H2912 0.950 . S
C2889 C2906 1.574 . S
C2889 C2908 1.368 . S
C2889 H2913 0.949 . S
H2890 C2894 0.949 . S
C2891 C2892 1.349 . S
C2891 C2893 1.327 . S
C2891 H2914 0.950 . S
C2892 C2891 1.349 . S
C2892 C2904 1.349 . S
C2893 C2891 1.327 . S
C2893 C2909 1.429 . S
C2893 H2915 0.950 . S
C2894 H2890 0.949 . S
C2894 C2902 1.574 . S
C2894 C2910 1.368 . S
H2895 C2903 0.950 . S
H2896 C2901 0.950 . S
H2897 C2902 0.949 . S
H2898 C2904 0.950 . S
H2899 C2905 0.950 . S
H2900 C2906 0.949 . S
C2901 H2896 0.950 . S
C2901 C2903 1.327 . S
C2901 C2907 1.429 . S
C2902 C2894 1.574 . S
C2902 H2897 0.949 . S
C2902 C2908 1.368 . S
C2903 C2887 1.349 . S
C2903 H2895 0.950 . S
C2903 C2901 1.327 . S
C2904 C2892 1.349 . S
C2904 H2898 0.950 . S
C2904 C2905 1.327 . S
C2905 H2899 0.950 . S
C2905 C2904 1.327 . S
C2905 C2909 1.429 . S
C2906 C2889 1.574 . S
C2906 H2900 0.949 . S
C2906 C2910 1.368 . S
C2907 C2888 1.429 . S
C2907 C2901 1.429 . S
C2907 C2908 1.523 . S
C2908 C2889 1.368 . S
C2908 C2902 1.368 . S
C2908 C2907 1.523 . S
C2909 C2893 1.429 . S
C2909 C2905 1.429 . S
C2909 C2910 1.523 . S
C2910 C2894 1.368 . S
C2910 C2906 1.368 . S
C2910 C2909 1.523 . S
H2911 C2886 0.950 . S
H2912 C2888 0.950 . S
H2913 C2889 0.949 . S
H2914 C2891 0.950 . S
H2915 C2893 0.950 . S
C2916 C2917 1.349 . S
C2916 C2918 1.327 . S
C2916 H2941 0.950 . S
C2917 C2916 1.349 . S
C2917 C2933 1.349 . S
C2918 C2916 1.327 . S
C2918 C2937 1.429 . S
C2918 H2942 0.950 . S
C2919 C2936 1.574 . S
C2919 C2938 1.368 . S
C2919 H2943 0.949 . S
H2920 C2924 0.949 . S
C2921 C2922 1.349 . S
C2921 C2923 1.327 . S
C2921 H2944 0.950 . S
C2922 C2921 1.349 . S
C2922 C2934 1.349 . S
C2923 C2921 1.327 . S
C2923 C2939 1.429 . S
C2923 H2945 0.950 . S
C2924 H2920 0.949 . S
C2924 C2932 1.574 . S
C2924 C2940 1.368 . S
H2925 C2933 0.950 . S
H2926 C2931 0.950 . S
H2927 C2932 0.949 . S
H2928 C2934 0.950 . S
H2929 C2935 0.950 . S
H2930 C2936 0.949 . S
C2931 H2926 0.950 . S
C2931 C2933 1.327 . S
C2931 C2937 1.429 . S
C2932 C2924 1.574 . S
C2932 H2927 0.949 . S
C2932 C2938 1.368 . S
C2933 C2917 1.349 . S
C2933 H2925 0.950 . S
C2933 C2931 1.327 . S
C2934 C2922 1.349 . S
C2934 H2928 0.950 . S
C2934 C2935 1.327 . S
C2935 H2929 0.950 . S
C2935 C2934 1.327 . S
C2935 C2939 1.429 . S
C2936 C2919 1.574 . S
C2936 H2930 0.949 . S
C2936 C2940 1.368 . S
C2937 C2918 1.429 . S
C2937 C2931 1.429 . S
C2937 C2938 1.523 . S
C2938 C2919 1.368 . S
C2938 C2932 1.368 . S
C2938 C2937 1.523 . S
C2939 C2923 1.429 . S
C2939 C2935 1.429 . S
C2939 C2940 1.523 . S
C2940 C2924 1.368 . S
C2940 C2936 1.368 . S
C2940 C2939 1.523 . S
H2941 C2916 0.950 . S
H2942 C2918 0.950 . S
H2943 C2919 0.949 . S
H2944 C2921 0.950 . S
H2945 C2923 0.950 . S
C2946 C2947 1.349 . S
C2946 C2948 1.327 . S
C2946 H2971 0.950 . S
C2947 C2946 1.349 . S
C2947 C2963 1.349 . S
C2948 C2946 1.327 . S
C2948 C2967 1.429 . S
C2948 H2972 0.950 . S
C2949 C2966 1.574 . S
C2949 C2968 1.368 . S
C2949 H2973 0.949 . S
H2950 C2954 0.949 . S
C2951 C2952 1.349 . S
C2951 C2953 1.327 . S
C2951 H2974 0.950 . S
C2952 C2951 1.349 . S
C2952 C2964 1.349 . S
C2953 C2951 1.327 . S
C2953 C2969 1.429 . S
C2953 H2975 0.950 . S
C2954 H2950 0.949 . S
C2954 C2962 1.574 . S
C2954 C2970 1.368 . S
H2955 C2963 0.950 . S
H2956 C2961 0.950 . S
H2957 C2962 0.949 . S
H2958 C2964 0.950 . S
H2959 C2965 0.950 . S
H2960 C2966 0.949 . S
C2961 H2956 0.950 . S
C2961 C2963 1.327 . S
C2961 C2967 1.429 . S
C2962 C2954 1.574 . S
C2962 H2957 0.949 . S
C2962 C2968 1.368 . S
C2963 C2947 1.349 . S
C2963 H2955 0.950 . S
C2963 C2961 1.327 . S
C2964 C2952 1.349 . S
C2964 H2958 0.950 . S
C2964 C2965 1.327 . S
C2965 H2959 0.950 . S
C2965 C2964 1.327 . S
C2965 C2969 1.429 . S
C2966 C2949 1.574 . S
C2966 H2960 0.949 . S
C2966 C2970 1.368 . S
C2967 C2948 1.429 . S
C2967 C2961 1.429 . S
C2967 C2968 1.523 . S
C2968 C2949 1.368 . S
C2968 C2962 1.368 . S
C2968 C2967 1.523 . S
C2969 C2953 1.429 . S
C2969 C2965 1.429 . S
C2969 C2970 1.523 . S
C2970 C2954 1.368 . S
C2970 C2966 1.368 . S
C2970 C2969 1.523 . S
H2971 C2946 0.950 . S
H2972 C2948 0.950 . S
H2973 C2949 0.949 . S
H2974 C2951 0.950 . S
H2975 C2953 0.950 . S
C2976 C2977 1.349 . S
C2976 C2978 1.327 . S
C2976 H3001 0.950 . S
C2977 C2976 1.349 . S
C2977 C2993 1.349 . S
C2978 C2976 1.327 . S
C2978 C2997 1.429 . S
C2978 H3002 0.950 . S
C2979 C2996 1.574 . S
C2979 C2998 1.368 . S
C2979 H3003 0.949 . S
H2980 C2984 0.949 . S
C2981 C2982 1.349 . S
C2981 C2983 1.327 . S
C2981 H3004 0.950 . S
C2982 C2981 1.349 . S
C2982 C2994 1.349 . S
C2983 C2981 1.327 . S
C2983 C2999 1.429 . S
C2983 H3005 0.950 . S
C2984 H2980 0.949 . S
C2984 C2992 1.574 . S
C2984 C3000 1.368 . S
H2985 C2993 0.950 . S
H2986 C2991 0.950 . S
H2987 C2992 0.949 . S
H2988 C2994 0.950 . S
H2989 C2995 0.950 . S
H2990 C2996 0.949 . S
C2991 H2986 0.950 . S
C2991 C2993 1.327 . S
C2991 C2997 1.429 . S
C2992 C2984 1.574 . S
C2992 H2987 0.949 . S
C2992 C2998 1.368 . S
C2993 C2977 1.349 . S
C2993 H2985 0.950 . S
C2993 C2991 1.327 . S
C2994 C2982 1.349 . S
C2994 H2988 0.950 . S
C2994 C2995 1.327 . S
C2995 H2989 0.950 . S
C2995 C2994 1.327 . S
C2995 C2999 1.429 . S
C2996 C2979 1.574 . S
C2996 H2990 0.949 . S
C2996 C3000 1.368 . S
C2997 C2978 1.429 . S
C2997 C2991 1.429 . S
C2997 C2998 1.523 . S
C2998 C2979 1.368 . S
C2998 C2992 1.368 . S
C2998 C2997 1.523 . S
C2999 C2983 1.429 . S
C2999 C2995 1.429 . S
C2999 C3000 1.523 . S
C3000 C2984 1.368 . S
C3000 C2996 1.368 . S
C3000 C2999 1.523 . S
H3001 C2976 0.950 . S
H3002 C2978 0.950 . S
H3003 C2979 0.949 . S
H3004 C2981 0.950 . S
H3005 C2983 0.950 . S
C3006 C3007 1.349 . S
C3006 C3008 1.327 . S
C3006 H3031 0.950 . S
C3007 C3006 1.349 . S
C3007 C3023 1.349 . S
C3008 C3006 1.327 . S
C3008 C3027 1.429 . S
C3008 H3032 0.950 1_655 S
C3009 C3026 1.574 . S
C3009 C3028 1.368 . S
C3009 H3033 0.949 . S
H3010 C3014 0.949 . S
C3011 C3012 1.349 . S
C3011 C3013 1.327 . S
C3011 H3034 0.950 . S
C3012 C3011 1.349 . S
C3012 C3024 1.349 . S
C3013 C3011 1.327 . S
C3013 C3029 1.429 . S
C3013 H3035 0.950 1_455 S
C3014 H3010 0.949 . S
C3014 C3022 1.574 . S
C3014 C3030 1.368 . S
H3015 C3023 0.950 . S
H3016 C3021 0.950 . S
H3017 C3022 0.949 . S
H3018 C3024 0.950 . S
H3019 C3025 0.950 . S
H3020 C3026 0.949 . S
C3021 H3016 0.950 . S
C3021 C3023 1.327 . S
C3021 C3027 1.429 . S
C3022 C3014 1.574 . S
C3022 H3017 0.949 . S
C3022 C3028 1.368 1_455 S
C3023 C3007 1.349 . S
C3023 H3015 0.950 . S
C3023 C3021 1.327 . S
C3024 C3012 1.349 . S
C3024 H3018 0.950 . S
C3024 C3025 1.327 . S
C3025 H3019 0.950 . S
C3025 C3024 1.327 . S
C3025 C3029 1.429 . S
C3026 C3009 1.574 . S
C3026 H3020 0.949 . S
C3026 C3030 1.368 1_655 S
C3027 C3008 1.429 . S
C3027 C3021 1.429 . S
C3027 C3028 1.523 . S
C3028 C3009 1.368 . S
C3028 C3022 1.368 1_655 S
C3028 C3027 1.523 . S
C3029 C3013 1.429 . S
C3029 C3025 1.429 . S
C3029 C3030 1.523 . S
C3030 C3014 1.368 . S
C3030 C3026 1.368 1_455 S
C3030 C3029 1.523 . S
H3031 C3006 0.950 . S
H3032 C3008 0.950 1_455 S
H3033 C3009 0.949 . S
H3034 C3011 0.950 . S
H3035 C3013 0.950 1_655 S
C3036 C3037 1.349 . S
C3036 C3038 1.327 . S
C3036 H3061 0.950 . S
C3037 C3036 1.349 . S
C3037 C3053 1.349 . S
C3038 C3036 1.327 . S
C3038 C3057 1.429 . S
C3038 H3062 0.950 . S
C3039 C3056 1.574 1_455 S
C3039 C3058 1.368 . S
C3039 H3063 0.949 . S
H3040 C3044 0.949 . S
C3041 C3042 1.349 . S
C3041 C3043 1.327 . S
C3041 H3064 0.950 . S
C3042 C3041 1.349 . S
C3042 C3054 1.349 . S
C3043 C3041 1.327 . S
C3043 C3059 1.429 . S
C3043 H3065 0.950 . S
C3044 H3040 0.949 . S
C3044 C3052 1.574 1_655 S
C3044 C3060 1.368 . S
H3045 C3053 0.950 . S
H3046 C3051 0.950 . S
H3047 C3052 0.949 . S
H3048 C3054 0.950 . S
H3049 C3055 0.950 . S
H3050 C3056 0.949 . S
C3051 H3046 0.950 . S
C3051 C3053 1.327 . S
C3051 C3057 1.429 . S
C3052 C3044 1.574 1_455 S
C3052 H3047 0.949 . S
C3052 C3058 1.368 . S
C3053 C3037 1.349 . S
C3053 H3045 0.950 . S
C3053 C3051 1.327 . S
C3054 C3042 1.349 . S
C3054 H3048 0.950 . S
C3054 C3055 1.327 . S
C3055 H3049 0.950 . S
C3055 C3054 1.327 . S
C3055 C3059 1.429 . S
C3056 C3039 1.574 1_655 S
C3056 H3050 0.949 . S
C3056 C3060 1.368 . S
C3057 C3038 1.429 . S
C3057 C3051 1.429 . S
C3057 C3058 1.523 . S
C3058 C3039 1.368 . S
C3058 C3052 1.368 . S
C3058 C3057 1.523 . S
C3059 C3043 1.429 . S
C3059 C3055 1.429 . S
C3059 C3060 1.523 . S
C3060 C3044 1.368 . S
C3060 C3056 1.368 . S
C3060 C3059 1.523 . S
H3061 C3036 0.950 . S
H3062 C3038 0.950 . S
H3063 C3039 0.949 . S
H3064 C3041 0.950 . S
H3065 C3043 0.950 . S
C3066 C3067 1.349 . S
C3066 C3068 1.327 . S
C3066 H3091 0.950 . S
C3067 C3066 1.349 . S
C3067 C3083 1.349 . S
C3068 C3066 1.327 . S
C3068 C3087 1.429 . S
C3068 H3092 0.950 . S
C3069 C3086 1.574 . S
C3069 C3088 1.368 . S
C3069 H3093 0.949 . S
H3070 C3074 0.949 . S
C3071 C3072 1.349 . S
C3071 C3073 1.327 . S
C3071 H3094 0.950 . S
C3072 C3071 1.349 . S
C3072 C3084 1.349 . S
C3073 C3071 1.327 . S
C3073 C3089 1.429 . S
C3073 H3095 0.950 . S
C3074 H3070 0.949 . S
C3074 C3082 1.574 . S
C3074 C3090 1.368 . S
H3075 C3083 0.950 . S
H3076 C3081 0.950 . S
H3077 C3082 0.949 . S
H3078 C3084 0.950 . S
H3079 C3085 0.950 . S
H3080 C3086 0.949 . S
C3081 H3076 0.950 . S
C3081 C3083 1.327 . S
C3081 C3087 1.429 . S
C3082 C3074 1.574 . S
C3082 H3077 0.949 . S
C3082 C3088 1.368 . S
C3083 C3067 1.349 . S
C3083 H3075 0.950 . S
C3083 C3081 1.327 . S
C3084 C3072 1.349 . S
C3084 H3078 0.950 . S
C3084 C3085 1.327 . S
C3085 H3079 0.950 . S
C3085 C3084 1.327 . S
C3085 C3089 1.429 . S
C3086 C3069 1.574 . S
C3086 H3080 0.949 . S
C3086 C3090 1.368 . S
C3087 C3068 1.429 . S
C3087 C3081 1.429 . S
C3087 C3088 1.523 . S
C3088 C3069 1.368 . S
C3088 C3082 1.368 . S
C3088 C3087 1.523 . S
C3089 C3073 1.429 . S
C3089 C3085 1.429 . S
C3089 C3090 1.523 . S
C3090 C3074 1.368 . S
C3090 C3086 1.368 . S
C3090 C3089 1.523 . S
H3091 C3066 0.950 . S
H3092 C3068 0.950 . S
H3093 C3069 0.949 . S
H3094 C3071 0.950 . S
H3095 C3073 0.950 . S
C3096 C3097 1.349 . S
C3096 C3098 1.327 . S
C3096 H3121 0.950 . S
C3097 C3096 1.349 . S
C3097 C3113 1.349 . S
C3098 C3096 1.327 . S
C3098 C3117 1.429 . S
C3098 H3122 0.950 . S
C3099 C3116 1.574 . S
C3099 C3118 1.368 . S
C3099 H3123 0.949 . S
H3100 C3104 0.949 . S
C3101 C3102 1.349 . S
C3101 C3103 1.327 . S
C3101 H3124 0.950 . S
C3102 C3101 1.349 . S
C3102 C3114 1.349 . S
C3103 C3101 1.327 . S
C3103 C3119 1.429 . S
C3103 H3125 0.950 . S
C3104 H3100 0.949 . S
C3104 C3112 1.574 . S
C3104 C3120 1.368 . S
H3105 C3113 0.950 . S
H3106 C3111 0.950 . S
H3107 C3112 0.949 . S
H3108 C3114 0.950 . S
H3109 C3115 0.950 . S
H3110 C3116 0.949 . S
C3111 H3106 0.950 . S
C3111 C3113 1.327 . S
C3111 C3117 1.429 . S
C3112 C3104 1.574 . S
C3112 H3107 0.949 . S
C3112 C3118 1.368 . S
C3113 C3097 1.349 . S
C3113 H3105 0.950 . S
C3113 C3111 1.327 . S
C3114 C3102 1.349 . S
C3114 H3108 0.950 . S
C3114 C3115 1.327 . S
C3115 H3109 0.950 . S
C3115 C3114 1.327 . S
C3115 C3119 1.429 . S
C3116 C3099 1.574 . S
C3116 H3110 0.949 . S
C3116 C3120 1.368 . S
C3117 C3098 1.429 . S
C3117 C3111 1.429 . S
C3117 C3118 1.523 . S
C3118 C3099 1.368 . S
C3118 C3112 1.368 . S
C3118 C3117 1.523 . S
C3119 C3103 1.429 . S
C3119 C3115 1.429 . S
C3119 C3120 1.523 . S
C3120 C3104 1.368 . S
C3120 C3116 1.368 . S
C3120 C3119 1.523 . S
H3121 C3096 0.950 . S
H3122 C3098 0.950 . S
H3123 C3099 0.949 . S
H3124 C3101 0.950 . S
H3125 C3103 0.950 . S
C3126 C3127 1.349 . S
C3126 C3128 1.327 . S
C3126 H3151 0.950 . S
C3127 C3126 1.349 . S
C3127 C3143 1.349 . S
C3128 C3126 1.327 . S
C3128 C3147 1.429 . S
C3128 H3152 0.950 . S
C3129 C3146 1.574 . S
C3129 C3148 1.368 . S
C3129 H3153 0.949 . S
H3130 C3134 0.949 . S
C3131 C3132 1.349 . S
C3131 C3133 1.327 . S
C3131 H3154 0.950 . S
C3132 C3131 1.349 . S
C3132 C3144 1.349 . S
C3133 C3131 1.327 . S
C3133 C3149 1.429 . S
C3133 H3155 0.950 . S
C3134 H3130 0.949 . S
C3134 C3142 1.574 . S
C3134 C3150 1.368 . S
H3135 C3143 0.950 . S
H3136 C3141 0.950 . S
H3137 C3142 0.949 . S
H3138 C3144 0.950 . S
H3139 C3145 0.950 . S
H3140 C3146 0.949 . S
C3141 H3136 0.950 . S
C3141 C3143 1.327 . S
C3141 C3147 1.429 . S
C3142 C3134 1.574 . S
C3142 H3137 0.949 . S
C3142 C3148 1.368 . S
C3143 C3127 1.349 . S
C3143 H3135 0.950 . S
C3143 C3141 1.327 . S
C3144 C3132 1.349 . S
C3144 H3138 0.950 . S
C3144 C3145 1.327 . S
C3145 H3139 0.950 . S
C3145 C3144 1.327 . S
C3145 C3149 1.429 . S
C3146 C3129 1.574 . S
C3146 H3140 0.949 . S
C3146 C3150 1.368 . S
C3147 C3128 1.429 . S
C3147 C3141 1.429 . S
C3147 C3148 1.523 . S
C3148 C3129 1.368 . S
C3148 C3142 1.368 . S
C3148 C3147 1.523 . S
C3149 C3133 1.429 . S
C3149 C3145 1.429 . S
C3149 C3150 1.523 . S
C3150 C3134 1.368 . S
C3150 C3146 1.368 . S
C3150 C3149 1.523 . S
H3151 C3126 0.950 . S
H3152 C3128 0.950 . S
H3153 C3129 0.949 . S
H3154 C3131 0.950 . S
H3155 C3133 0.950 . S
C3156 C3157 1.349 . S
C3156 C3158 1.327 . S
C3156 H3181 0.950 . S
C3157 C3156 1.349 . S
C3157 C3173 1.349 . S
C3158 C3156 1.327 . S
C3158 C3177 1.429 . S
C3158 H3182 0.950 . S
C3159 C3176 1.574 1_655 S
C3159 C3178 1.368 . S
C3159 H3183 0.949 . S
H3160 C3164 0.949 . S
C3161 C3162 1.349 . S
C3161 C3163 1.327 . S
C3161 H3184 0.950 . S
C3162 C3161 1.349 . S
C3162 C3174 1.349 . S
C3163 C3161 1.327 . S
C3163 C3179 1.429 . S
C3163 H3185 0.950 . S
C3164 H3160 0.949 . S
C3164 C3172 1.574 1_455 S
C3164 C3180 1.368 . S
H3165 C3173 0.950 . S
H3166 C3171 0.950 . S
H3167 C3172 0.949 . S
H3168 C3174 0.950 . S
H3169 C3175 0.950 . S
H3170 C3176 0.949 . S
C3171 H3166 0.950 . S
C3171 C3173 1.327 . S
C3171 C3177 1.429 . S
C3172 C3164 1.574 1_655 S
C3172 H3167 0.949 . S
C3172 C3178 1.368 . S
C3173 C3157 1.349 . S
C3173 H3165 0.950 . S
C3173 C3171 1.327 . S
C3174 C3162 1.349 . S
C3174 H3168 0.950 . S
C3174 C3175 1.327 . S
C3175 H3169 0.950 . S
C3175 C3174 1.327 . S
C3175 C3179 1.429 . S
C3176 C3159 1.574 1_455 S
C3176 H3170 0.949 . S
C3176 C3180 1.368 . S
C3177 C3158 1.429 . S
C3177 C3171 1.429 . S
C3177 C3178 1.523 . S
C3178 C3159 1.368 . S
C3178 C3172 1.368 . S
C3178 C3177 1.523 . S
C3179 C3163 1.429 . S
C3179 C3175 1.429 . S
C3179 C3180 1.523 . S
C3180 C3164 1.368 . S
C3180 C3176 1.368 . S
C3180 C3179 1.523 . S
H3181 C3156 0.950 . S
H3182 C3158 0.950 . S
H3183 C3159 0.949 . S
H3184 C3161 0.950 . S
H3185 C3163 0.950 . S
C3186 C3187 1.349 . S
C3186 C3188 1.327 . S
C3186 H3211 0.950 . S
C3187 C3186 1.349 . S
C3187 C3203 1.349 . S
C3188 C3186 1.327 . S
C3188 C3207 1.429 . S
C3188 H3212 0.950 1_655 S
C3189 C3206 1.574 . S
C3189 C3208 1.368 . S
C3189 H3213 0.949 . S
H3190 C3194 0.949 . S
C3191 C3192 1.349 . S
C3191 C3193 1.327 . S
C3191 H3214 0.950 . S
C3192 C3191 1.349 . S
C3192 C3204 1.349 . S
C3193 C3191 1.327 . S
C3193 C3209 1.429 . S
C3193 H3215 0.950 1_455 S
C3194 H3190 0.949 . S
C3194 C3202 1.574 . S
C3194 C3210 1.368 . S
H3195 C3203 0.950 . S
H3196 C3201 0.950 . S
H3197 C3202 0.949 . S
H3198 C3204 0.950 . S
H3199 C3205 0.950 . S
H3200 C3206 0.949 . S
C3201 H3196 0.950 . S
C3201 C3203 1.327 . S
C3201 C3207 1.429 . S
C3202 C3194 1.574 . S
C3202 H3197 0.949 . S
C3202 C3208 1.368 1_455 S
C3203 C3187 1.349 . S
C3203 H3195 0.950 . S
C3203 C3201 1.327 . S
C3204 C3192 1.349 . S
C3204 H3198 0.950 . S
C3204 C3205 1.327 . S
C3205 H3199 0.950 . S
C3205 C3204 1.327 . S
C3205 C3209 1.429 . S
C3206 C3189 1.574 . S
C3206 H3200 0.949 . S
C3206 C3210 1.368 1_655 S
C3207 C3188 1.429 . S
C3207 C3201 1.429 . S
C3207 C3208 1.523 . S
C3208 C3189 1.368 . S
C3208 C3202 1.368 1_655 S
C3208 C3207 1.523 . S
C3209 C3193 1.429 . S
C3209 C3205 1.429 . S
C3209 C3210 1.523 . S
C3210 C3194 1.368 . S
C3210 C3206 1.368 1_455 S
C3210 C3209 1.523 . S
H3211 C3186 0.950 . S
H3212 C3188 0.950 1_455 S
H3213 C3189 0.949 . S
H3214 C3191 0.950 . S
H3215 C3193 0.950 1_655 S
C3216 C3217 1.349 . S
C3216 C3218 1.327 . S
C3216 H3241 0.950 . S
C3217 C3216 1.349 . S
C3217 C3233 1.349 . S
C3218 C3216 1.327 . S
C3218 C3237 1.429 . S
C3218 H3242 0.950 . S
C3219 C3236 1.574 . S
C3219 C3238 1.368 . S
C3219 H3243 0.949 . S
H3220 C3224 0.949 . S
C3221 C3222 1.349 . S
C3221 C3223 1.327 . S
C3221 H3244 0.950 . S
C3222 C3221 1.349 . S
C3222 C3234 1.349 . S
C3223 C3221 1.327 . S
C3223 C3239 1.429 . S
C3223 H3245 0.950 . S
C3224 H3220 0.949 . S
C3224 C3232 1.574 . S
C3224 C3240 1.368 . S
H3225 C3233 0.950 . S
H3226 C3231 0.950 . S
H3227 C3232 0.949 . S
H3228 C3234 0.950 . S
H3229 C3235 0.950 . S
H3230 C3236 0.949 . S
C3231 H3226 0.950 . S
C3231 C3233 1.327 . S
C3231 C3237 1.429 . S
C3232 C3224 1.574 . S
C3232 H3227 0.949 . S
C3232 C3238 1.368 . S
C3233 C3217 1.349 . S
C3233 H3225 0.950 . S
C3233 C3231 1.327 . S
C3234 C3222 1.349 . S
C3234 H3228 0.950 . S
C3234 C3235 1.327 . S
C3235 H3229 0.950 . S
C3235 C3234 1.327 . S
C3235 C3239 1.429 . S
C3236 C3219 1.574 . S
C3236 H3230 0.949 . S
C3236 C3240 1.368 . S
C3237 C3218 1.429 . S
C3237 C3231 1.429 . S
C3237 C3238 1.523 . S
C3238 C3219 1.368 . S
C3238 C3232 1.368 . S
C3238 C3237 1.523 . S
C3239 C3223 1.429 . S
C3239 C3235 1.429 . S
C3239 C3240 1.523 . S
C3240 C3224 1.368 . S
C3240 C3236 1.368 . S
C3240 C3239 1.523 . S
H3241 C3216 0.950 . S
H3242 C3218 0.950 . S
H3243 C3219 0.949 . S
H3244 C3221 0.950 . S
H3245 C3223 0.950 . S
C3246 C3247 1.349 . S
C3246 C3248 1.327 . S
C3246 H3271 0.950 . S
C3247 C3246 1.349 . S
C3247 C3263 1.349 . S
C3248 C3246 1.327 . S
C3248 C3267 1.429 . S
C3248 H3272 0.950 1_455 S
C3249 C3266 1.574 . S
C3249 C3268 1.368 . S
C3249 H3273 0.949 . S
H3250 C3254 0.949 . S
C3251 C3252 1.349 . S
C3251 C3253 1.327 . S
C3251 H3274 0.950 . S
C3252 C3251 1.349 . S
C3252 C3264 1.349 . S
C3253 C3251 1.327 . S
C3253 C3269 1.429 . S
C3253 H3275 0.950 1_655 S
C3254 H3250 0.949 . S
C3254 C3262 1.574 . S
C3254 C3270 1.368 . S
H3255 C3263 0.950 . S
H3256 C3261 0.950 . S
H3257 C3262 0.949 . S
H3258 C3264 0.950 . S
H3259 C3265 0.950 . S
H3260 C3266 0.949 . S
C3261 H3256 0.950 . S
C3261 C3263 1.327 . S
C3261 C3267 1.429 . S
C3262 C3254 1.574 . S
C3262 H3257 0.949 . S
C3262 C3268 1.368 1_655 S
C3263 C3247 1.349 . S
C3263 H3255 0.950 . S
C3263 C3261 1.327 . S
C3264 C3252 1.349 . S
C3264 H3258 0.950 . S
C3264 C3265 1.327 . S
C3265 H3259 0.950 . S
C3265 C3264 1.327 . S
C3265 C3269 1.429 . S
C3266 C3249 1.574 . S
C3266 H3260 0.949 . S
C3266 C3270 1.368 1_455 S
C3267 C3248 1.429 . S
C3267 C3261 1.429 . S
C3267 C3268 1.523 . S
C3268 C3249 1.368 . S
C3268 C3262 1.368 1_455 S
C3268 C3267 1.523 . S
C3269 C3253 1.429 . S
C3269 C3265 1.429 . S
C3269 C3270 1.523 . S
C3270 C3254 1.368 . S
C3270 C3266 1.368 1_655 S
C3270 C3269 1.523 . S
H3271 C3246 0.950 . S
H3272 C3248 0.950 1_655 S
H3273 C3249 0.949 . S
H3274 C3251 0.950 . S
H3275 C3253 0.950 1_455 S
C3276 C3277 1.349 . S
C3276 C3278 1.327 . S
C3276 H3301 0.950 . S
C3277 C3276 1.349 . S
C3277 C3293 1.349 . S
C3278 C3276 1.327 . S
C3278 C3297 1.429 . S
C3278 H3302 0.950 . S
C3279 C3296 1.574 1_655 S
C3279 C3298 1.368 . S
C3279 H3303 0.949 . S
H3280 C3284 0.949 . S
C3281 C3282 1.349 . S
C3281 C3283 1.327 . S
C3281 H3304 0.950 . S
C3282 C3281 1.349 . S
C3282 C3294 1.349 . S
C3283 C3281 1.327 . S
C3283 C3299 1.429 . S
C3283 H3305 0.950 . S
C3284 H3280 0.949 . S
C3284 C3292 1.574 1_455 S
C3284 C3300 1.368 . S
H3285 C3293 0.950 . S
H3286 C3291 0.950 . S
H3287 C3292 0.949 . S
H3288 C3294 0.950 . S
H3289 C3295 0.950 . S
H3290 C3296 0.949 . S
C3291 H3286 0.950 . S
C3291 C3293 1.327 . S
C3291 C3297 1.429 . S
C3292 C3284 1.574 1_655 S
C3292 H3287 0.949 . S
C3292 C3298 1.368 . S
C3293 C3277 1.349 . S
C3293 H3285 0.950 . S
C3293 C3291 1.327 . S
C3294 C3282 1.349 . S
C3294 H3288 0.950 . S
C3294 C3295 1.327 . S
C3295 H3289 0.950 . S
C3295 C3294 1.327 . S
C3295 C3299 1.429 . S
C3296 C3279 1.574 1_455 S
C3296 H3290 0.949 . S
C3296 C3300 1.368 . S
C3297 C3278 1.429 . S
C3297 C3291 1.429 . S
C3297 C3298 1.523 . S
C3298 C3279 1.368 . S
C3298 C3292 1.368 . S
C3298 C3297 1.523 . S
C3299 C3283 1.429 . S
C3299 C3295 1.429 . S
C3299 C3300 1.523 . S
C3300 C3284 1.368 . S
C3300 C3296 1.368 . S
C3300 C3299 1.523 . S
H3301 C3276 0.950 . S
H3302 C3278 0.950 . S
H3303 C3279 0.949 . S
H3304 C3281 0.950 . S
H3305 C3283 0.950 . S
C3306 C3307 1.349 . S
C3306 C3308 1.327 . S
C3306 H3331 0.950 . S
C3307 C3306 1.349 . S
C3307 C3323 1.349 . S
C3308 C3306 1.327 . S
C3308 C3327 1.429 . S
C3308 H3332 0.950 . S
C3309 C3326 1.574 . S
C3309 C3328 1.368 . S
C3309 H3333 0.949 . S
H3310 C3314 0.949 . S
C3311 C3312 1.349 . S
C3311 C3313 1.327 . S
C3311 H3334 0.950 . S
C3312 C3311 1.349 . S
C3312 C3324 1.349 . S
C3313 C3311 1.327 . S
C3313 C3329 1.429 . S
C3313 H3335 0.950 . S
C3314 H3310 0.949 . S
C3314 C3322 1.574 . S
C3314 C3330 1.368 . S
H3315 C3323 0.950 . S
H3316 C3321 0.950 . S
H3317 C3322 0.949 . S
H3318 C3324 0.950 . S
H3319 C3325 0.950 . S
H3320 C3326 0.949 . S
C3321 H3316 0.950 . S
C3321 C3323 1.327 . S
C3321 C3327 1.429 . S
C3322 C3314 1.574 . S
C3322 H3317 0.949 . S
C3322 C3328 1.368 . S
C3323 C3307 1.349 . S
C3323 H3315 0.950 . S
C3323 C3321 1.327 . S
C3324 C3312 1.349 . S
C3324 H3318 0.950 . S
C3324 C3325 1.327 . S
C3325 H3319 0.950 . S
C3325 C3324 1.327 . S
C3325 C3329 1.429 . S
C3326 C3309 1.574 . S
C3326 H3320 0.949 . S
C3326 C3330 1.368 . S
C3327 C3308 1.429 . S
C3327 C3321 1.429 . S
C3327 C3328 1.523 . S
C3328 C3309 1.368 . S
C3328 C3322 1.368 . S
C3328 C3327 1.523 . S
C3329 C3313 1.429 . S
C3329 C3325 1.429 . S
C3329 C3330 1.523 . S
C3330 C3314 1.368 . S
C3330 C3326 1.368 . S
C3330 C3329 1.523 . S
H3331 C3306 0.950 . S
H3332 C3308 0.950 . S
H3333 C3309 0.949 . S
H3334 C3311 0.950 . S
H3335 C3313 0.950 . S
C3336 C3337 1.349 . S
C3336 C3338 1.327 . S
C3336 H3361 0.950 . S
C3337 C3336 1.349 . S
C3337 C3353 1.349 . S
C3338 C3336 1.327 . S
C3338 C3357 1.429 . S
C3338 H3362 0.950 . S
C3339 C3356 1.574 . S
C3339 C3358 1.368 . S
C3339 H3363 0.949 . S
H3340 C3344 0.949 . S
C3341 C3342 1.349 . S
C3341 C3343 1.327 . S
C3341 H3364 0.950 . S
C3342 C3341 1.349 . S
C3342 C3354 1.349 . S
C3343 C3341 1.327 . S
C3343 C3359 1.429 . S
C3343 H3365 0.950 . S
C3344 H3340 0.949 . S
C3344 C3352 1.574 . S
C3344 C3360 1.368 . S
H3345 C3353 0.950 . S
H3346 C3351 0.950 . S
H3347 C3352 0.949 . S
H3348 C3354 0.950 . S
H3349 C3355 0.950 . S
H3350 C3356 0.949 . S
C3351 H3346 0.950 . S
C3351 C3353 1.327 . S
C3351 C3357 1.429 . S
C3352 C3344 1.574 . S
C3352 H3347 0.949 . S
C3352 C3358 1.368 . S
C3353 C3337 1.349 . S
C3353 H3345 0.950 . S
C3353 C3351 1.327 . S
C3354 C3342 1.349 . S
C3354 H3348 0.950 . S
C3354 C3355 1.327 . S
C3355 H3349 0.950 . S
C3355 C3354 1.327 . S
C3355 C3359 1.429 . S
C3356 C3339 1.574 . S
C3356 H3350 0.949 . S
C3356 C3360 1.368 . S
C3357 C3338 1.429 . S
C3357 C3351 1.429 . S
C3357 C3358 1.523 . S
C3358 C3339 1.368 . S
C3358 C3352 1.368 . S
C3358 C3357 1.523 . S
C3359 C3343 1.429 . S
C3359 C3355 1.429 . S
C3359 C3360 1.523 . S
C3360 C3344 1.368 . S
C3360 C3356 1.368 . S
C3360 C3359 1.523 . S
H3361 C3336 0.950 . S
H3362 C3338 0.950 . S
H3363 C3339 0.949 . S
H3364 C3341 0.950 . S
H3365 C3343 0.950 . S
C3366 C3367 1.349 . S
C3366 C3368 1.327 . S
C3366 H3391 0.950 . S
C3367 C3366 1.349 . S
C3367 C3383 1.349 . S
C3368 C3366 1.327 . S
C3368 C3387 1.429 . S
C3368 H3392 0.950 . S
C3369 C3386 1.574 . S
C3369 C3388 1.368 . S
C3369 H3393 0.949 . S
H3370 C3374 0.949 . S
C3371 C3372 1.349 . S
C3371 C3373 1.327 . S
C3371 H3394 0.950 . S
C3372 C3371 1.349 . S
C3372 C3384 1.349 . S
C3373 C3371 1.327 . S
C3373 C3389 1.429 . S
C3373 H3395 0.950 . S
C3374 H3370 0.949 . S
C3374 C3382 1.574 . S
C3374 C3390 1.368 . S
H3375 C3383 0.950 . S
H3376 C3381 0.950 . S
H3377 C3382 0.949 . S
H3378 C3384 0.950 . S
H3379 C3385 0.950 . S
H3380 C3386 0.949 . S
C3381 H3376 0.950 . S
C3381 C3383 1.327 . S
C3381 C3387 1.429 . S
C3382 C3374 1.574 . S
C3382 H3377 0.949 . S
C3382 C3388 1.368 . S
C3383 C3367 1.349 . S
C3383 H3375 0.950 . S
C3383 C3381 1.327 . S
C3384 C3372 1.349 . S
C3384 H3378 0.950 . S
C3384 C3385 1.327 . S
C3385 H3379 0.950 . S
C3385 C3384 1.327 . S
C3385 C3389 1.429 . S
C3386 C3369 1.574 . S
C3386 H3380 0.949 . S
C3386 C3390 1.368 . S
C3387 C3368 1.429 . S
C3387 C3381 1.429 . S
C3387 C3388 1.523 . S
C3388 C3369 1.368 . S
C3388 C3382 1.368 . S
C3388 C3387 1.523 . S
C3389 C3373 1.429 . S
C3389 C3385 1.429 . S
C3389 C3390 1.523 . S
C3390 C3374 1.368 . S
C3390 C3386 1.368 . S
C3390 C3389 1.523 . S
H3391 C3366 0.950 . S
H3392 C3368 0.950 . S
H3393 C3369 0.949 . S
H3394 C3371 0.950 . S
H3395 C3373 0.950 . S
C3396 C3397 1.349 . S
C3396 C3398 1.327 . S
C3396 H3421 0.950 . S
C3397 C3396 1.349 . S
C3397 C3413 1.349 . S
C3398 C3396 1.327 . S
C3398 C3417 1.429 . S
C3398 H3422 0.950 . S
C3399 C3416 1.574 1_455 S
C3399 C3418 1.368 . S
C3399 H3423 0.949 . S
H3400 C3404 0.949 . S
C3401 C3402 1.349 . S
C3401 C3403 1.327 . S
C3401 H3424 0.950 . S
C3402 C3401 1.349 . S
C3402 C3414 1.349 . S
C3403 C3401 1.327 . S
C3403 C3419 1.429 . S
C3403 H3425 0.950 . S
C3404 H3400 0.949 . S
C3404 C3412 1.574 1_655 S
C3404 C3420 1.368 . S
H3405 C3413 0.950 . S
H3406 C3411 0.950 . S
H3407 C3412 0.949 . S
H3408 C3414 0.950 . S
H3409 C3415 0.950 . S
H3410 C3416 0.949 . S
C3411 H3406 0.950 . S
C3411 C3413 1.327 . S
C3411 C3417 1.429 . S
C3412 C3404 1.574 1_455 S
C3412 H3407 0.949 . S
C3412 C3418 1.368 . S
C3413 C3397 1.349 . S
C3413 H3405 0.950 . S
C3413 C3411 1.327 . S
C3414 C3402 1.349 . S
C3414 H3408 0.950 . S
C3414 C3415 1.327 . S
C3415 H3409 0.950 . S
C3415 C3414 1.327 . S
C3415 C3419 1.429 . S
C3416 C3399 1.574 1_655 S
C3416 H3410 0.949 . S
C3416 C3420 1.368 . S
C3417 C3398 1.429 . S
C3417 C3411 1.429 . S
C3417 C3418 1.523 . S
C3418 C3399 1.368 . S
C3418 C3412 1.368 . S
C3418 C3417 1.523 . S
C3419 C3403 1.429 . S
C3419 C3415 1.429 . S
C3419 C3420 1.523 . S
C3420 C3404 1.368 . S
C3420 C3416 1.368 . S
C3420 C3419 1.523 . S
H3421 C3396 0.950 . S
H3422 C3398 0.950 . S
H3423 C3399 0.949 . S
H3424 C3401 0.950 . S
H3425 C3403 0.950 . S
C3426 C3427 1.349 . S
C3426 C3428 1.327 . S
C3426 H3451 0.950 . S
C3427 C3426 1.349 . S
C3427 C3443 1.349 . S
C3428 C3426 1.327 . S
C3428 C3447 1.429 . S
C3428 H3452 0.950 1_455 S
C3429 C3446 1.574 . S
C3429 C3448 1.368 . S
C3429 H3453 0.949 . S
H3430 C3434 0.949 . S
C3431 C3432 1.349 . S
C3431 C3433 1.327 . S
C3431 H3454 0.950 . S
C3432 C3431 1.349 . S
C3432 C3444 1.349 . S
C3433 C3431 1.327 . S
C3433 C3449 1.429 . S
C3433 H3455 0.950 1_655 S
C3434 H3430 0.949 . S
C3434 C3442 1.574 . S
C3434 C3450 1.368 . S
H3435 C3443 0.950 . S
H3436 C3441 0.950 . S
H3437 C3442 0.949 . S
H3438 C3444 0.950 . S
H3439 C3445 0.950 . S
H3440 C3446 0.949 . S
C3441 H3436 0.950 . S
C3441 C3443 1.327 . S
C3441 C3447 1.429 . S
C3442 C3434 1.574 . S
C3442 H3437 0.949 . S
C3442 C3448 1.368 1_655 S
C3443 C3427 1.349 . S
C3443 H3435 0.950 . S
C3443 C3441 1.327 . S
C3444 C3432 1.349 . S
C3444 H3438 0.950 . S
C3444 C3445 1.327 . S
C3445 H3439 0.950 . S
C3445 C3444 1.327 . S
C3445 C3449 1.429 . S
C3446 C3429 1.574 . S
C3446 H3440 0.949 . S
C3446 C3450 1.368 1_455 S
C3447 C3428 1.429 . S
C3447 C3441 1.429 . S
C3447 C3448 1.523 . S
C3448 C3429 1.368 . S
C3448 C3442 1.368 1_455 S
C3448 C3447 1.523 . S
C3449 C3433 1.429 . S
C3449 C3445 1.429 . S
C3449 C3450 1.523 . S
C3450 C3434 1.368 . S
C3450 C3446 1.368 1_655 S
C3450 C3449 1.523 . S
H3451 C3426 0.950 . S
H3452 C3428 0.950 1_655 S
H3453 C3429 0.949 . S
H3454 C3431 0.950 . S
H3455 C3433 0.950 1_455 S
C1057 C18 1.305 . S
C1062 C249 1.305 . S
C1087 C51 1.306 . S
C1092 C150 1.306 . S
C1117 C84 1.306 . S
C1122 C183 1.306 . S
C1147 C117 1.305 . S
C1152 C216 1.305 . S
C1177 C513 1.305 . S
C1182 C282 1.305 . S
C1207 C315 1.306 . S
C1212 C414 1.306 . S
C1237 C447 1.306 . S
C1242 C348 1.306 . S
C1267 C381 1.305 . S
C1272 C480 1.305 . S
C1297 C546 1.305 . S
C1302 C777 1.305 . S
C1327 C678 1.305 . S
C1332 C579 1.305 . S
C1357 C612 1.305 . S
C1362 C711 1.305 . S
C1387 C645 1.306 . S
C1392 C744 1.306 . S
C1417 C810 1.305 . S
C1422 C1041 1.305 . S
C1447 C843 1.305 . S
C1452 C942 1.305 . S
C1477 C975 1.305 . S
C1482 C876 1.305 . S
C1507 C1008 1.306 . S
C1512 C909 1.306 . S
C1537 C205 1.488 . S
C1542 C7 1.488 . S
C1567 C40 1.488 . S
C1572 C238 1.488 . S
C1597 C73 1.488 . S
C1602 C139 1.488 . S
C1627 C106 1.488 . S
C1632 C172 1.488 . S
C1657 C271 1.488 . S
C1662 C469 1.488 . S
C1687 C502 1.488 . S
C1692 C304 1.488 . S
C1717 C403 1.488 . S
C1722 C337 1.488 . S
C1747 C436 1.488 . S
C1752 C370 1.488 . S
C1777 C535 1.488 . S
C1782 C733 1.488 . S
C1807 C766 1.488 . S
C1812 C568 1.488 . S
C1837 C667 1.488 . S
C1842 C601 1.488 . S
C1867 C634 1.488 . S
C1872 C700 1.488 . S
C1897 C997 1.488 . S
C1902 C799 1.488 . S
C1927 C832 1.488 . S
C1932 C1030 1.488 . S
C1957 C931 1.488 . S
C1962 C865 1.488 . S
C1987 C964 1.488 . S
C1992 C898 1.488 . S
C2017 N926 1.266 . S
C2022 N13 1.268 . S
C2047 N431 1.266 . S
C2052 N46 1.268 . S
C2077 N992 1.266 . S
C2082 N79 1.268 . S
C2107 N112 1.268 . S
C2112 N497 1.266 . S
C2137 N794 1.266 . S
C2142 N145 1.268 . S
C2167 N299 1.266 . S
C2172 N178 1.268 . S
C2197 N860 1.266 . S
C2202 N211 1.268 . S
C2227 N244 1.268 . S
C2232 N365 1.266 . S
C2257 N277 1.268 . S
C2262 N662 1.266 . S
C2287 N310 1.268 . S
C2292 N167 1.266 . S
C2317 N343 1.268 . S
C2322 N728 1.266 . S
C2347 N233 1.266 . S
C2352 N376 1.268 . S
C2377 N530 1.266 . S
C2382 N409 1.268 . S
C2407 N442 1.268 . S
C2412 N35 1.266 . S
C2437 N475 1.268 . S
C2442 N596 1.266 . S
C2467 N508 1.268 . S
C2472 N101 1.266 . S
C2497 N398 1.266 . S
C2502 N541 1.268 . S
C2527 N574 1.268 . S
C2532 N959 1.266 . S
C2557 N464 1.266 . S
C2562 N607 1.268 . S
C2587 N640 1.268 . S
C2592 N1025 1.266 . S
C2617 N673 1.268 . S
C2622 N266 1.266 . S
C2647 N706 1.268 . S
C2652 N827 1.266 . S
C2677 N332 1.266 . S
C2682 N739 1.268 . S
C2707 N772 1.268 . S
C2712 N893 1.266 . S
C2737 N134 1.266 . S
C2742 N805 1.268 . S
C2767 N695 1.266 . S
C2772 N838 1.268 . S
C2797 N200 1.266 . S
C2802 N871 1.268 . S
C2827 N761 1.266 . S
C2832 N904 1.268 . S
C2857 N2 1.266 . S
C2862 N937 1.268 . S
C2887 N563 1.266 . S
C2892 N970 1.268 . S
C2917 N1003 1.268 . S
C2922 N68 1.266 . S
C2947 N629 1.266 . S
C2952 N1036 1.268 . S
C2977 C615 0.740 . S
C2982 C21 0.740 . S
C3007 C648 0.740 . S
C3012 C54 0.740 . S
C3037 C87 0.740 . S
C3042 C549 0.740 . S
C3067 C120 0.740 . S
C3072 C582 0.740 . S
C3097 C747 0.740 . S
C3102 C153 0.740 . S
C3127 C186 0.740 . S
C3132 C780 0.740 . S
C3157 C681 0.740 . S
C3162 C219 0.740 . S
C3187 C714 0.740 . S
C3192 C252 0.740 . S
C3217 C879 0.740 . S
C3222 C285 0.740 . S
C3247 C912 0.740 . S
C3252 C318 0.740 . S
C3277 C351 0.740 . S
C3282 C813 0.740 . S
C3307 C384 0.740 . S
C3312 C846 0.740 . S
C3337 C417 0.740 . S
C3342 C1011 0.740 . S
C3367 C450 0.740 . S
C3372 C1044 0.740 . S
C3397 C945 0.740 . S
C3402 C483 0.740 . S
C3427 C978 0.740 . S
C3432 C516 0.740 . S
