# Generated by pormake.
# Topology fnh, (5)-cn, num edge types: 1
# Building blocks:
#     Node 0, Type 0, BuildingBlock: XOMCOT_clean_sbu_1, # of connection points: 5
#     Node 1, Type 0, BuildingBlock: XOMCOT_clean_sbu_1, # of connection points: 5
#     Node 2, Type 0, BuildingBlock: XOMCOT_clean_sbu_1, # of connection points: 5
#     Node 3, Type 0, BuildingBlock: XOMCOT_clean_sbu_1, # of connection points: 5
#     Node 4, Type 0, BuildingBlock: XOMCOT_clean_sbu_1, # of connection points: 5
#     Node 5, Type 0, BuildingBlock: XOMCOT_clean_sbu_1, # of connection points: 5
#     Node 6, Type 0, BuildingBlock: XOMCOT_clean_sbu_1, # of connection points: 5
#     Node 7, Type 0, BuildingBlock: XOMCOT_clean_sbu_1, # of connection points: 5
#     Node 8, Type 0, BuildingBlock: XOMCOT_clean_sbu_1, # of connection points: 5
#     Node 9, Type 0, BuildingBlock: XOMCOT_clean_sbu_1, # of connection points: 5
#     Node 10, Type 0, BuildingBlock: XOMCOT_clean_sbu_1, # of connection points: 5
#     Node 11, Type 0, BuildingBlock: XOMCOT_clean_sbu_1, # of connection points: 5
#     Node 12, Type 0, BuildingBlock: XOMCOT_clean_sbu_1, # of connection points: 5
#     Node 13, Type 0, BuildingBlock: XOMCOT_clean_sbu_1, # of connection points: 5
#     Node 14, Type 0, BuildingBlock: XOMCOT_clean_sbu_1, # of connection points: 5
#     Node 15, Type 0, BuildingBlock: XOMCOT_clean_sbu_1, # of connection points: 5
#     Node 16, Type 0, BuildingBlock: XOMCOT_clean_sbu_1, # of connection points: 5
#     Node 17, Type 0, BuildingBlock: XOMCOT_clean_sbu_1, # of connection points: 5
#     Edge 18, Type (0, 0), None
#     Edge 19, Type (0, 0), None
#     Edge 20, Type (0, 0), None
#     Edge 21, Type (0, 0), None
#     Edge 22, Type (0, 0), None
#     Edge 23, Type (0, 0), None
#     Edge 24, Type (0, 0), None
#     Edge 25, Type (0, 0), None
#     Edge 26, Type (0, 0), None
#     Edge 27, Type (0, 0), None
#     Edge 28, Type (0, 0), None
#     Edge 29, Type (0, 0), None
#     Edge 30, Type (0, 0), None
#     Edge 31, Type (0, 0), None
#     Edge 32, Type (0, 0), None
#     Edge 33, Type (0, 0), None
#     Edge 34, Type (0, 0), None
#     Edge 35, Type (0, 0), None
#     Edge 36, Type (0, 0), None
#     Edge 37, Type (0, 0), None
#     Edge 38, Type (0, 0), None
#     Edge 39, Type (0, 0), None
#     Edge 40, Type (0, 0), None
#     Edge 41, Type (0, 0), None
#     Edge 42, Type (0, 0), None
#     Edge 43, Type (0, 0), None
#     Edge 44, Type (0, 0), None
#     Edge 45, Type (0, 0), None
#     Edge 46, Type (0, 0), None
#     Edge 47, Type (0, 0), None
#     Edge 48, Type (0, 0), None
#     Edge 49, Type (0, 0), None
#     Edge 50, Type (0, 0), None
#     Edge 51, Type (0, 0), None
#     Edge 52, Type (0, 0), None
#     Edge 53, Type (0, 0), None
#     Edge 54, Type (0, 0), None
#     Edge 55, Type (0, 0), None
#     Edge 56, Type (0, 0), None
#     Edge 57, Type (0, 0), None
#     Edge 58, Type (0, 0), None
#     Edge 59, Type (0, 0), None
#     Edge 60, Type (0, 0), None
#     Edge 61, Type (0, 0), None
#     Edge 62, Type (0, 0), None
# Relax obj value: 0.285
# Max RMSD: 0.169
# Mean RMSD: 0.169
data_MOF--net-fnh--node1-XOMCOT_clean_sbu_1--edge1-none
_symmetry_space_group_name_H-M    P1
_symmetry_Int_Tables_number       1
_symmetry_cell_setting            triclinic
loop_
_symmetry_equiv_pos_as_xyz
'x, y, z'
_cell_length_a     33.988533
_cell_length_b     33.989027
_cell_length_c     11.596681
_cell_angle_alpha  89.992623
_cell_angle_beta   90.015058
_cell_angle_gamma 119.99776
loop_
_atom_site_label
_atom_site_type_symbol
_atom_site_fract_x
_atom_site_fract_y
_atom_site_fract_z
_atom_type_partial_charge
C0 C 0.09863 0.24338 0.31505 0.0
C1 C 0.08314 0.24942 0.41915 0.0
N2 N 0.07967 0.2163 0.48859 0.0
N3 N 0.10688 0.20845 0.32489 0.0
C4 C 0.09056 0.19012 0.42649 0.0
H5 H 0.10941 0.26705 0.24401 0.0
Co6 Co 0.15617 0.20833 0.2676 0.0
C7 C 0.16927 0.1679 0.52286 0.0
O8 O 0.1577 0.18953 0.59685 0.0
N9 N 0.20642 0.21231 0.20926 0.0
C10 C 0.28062 0.24052 0.19581 0.0
C11 C 0.24301 0.21499 0.26258 0.0
C12 C 0.22316 0.23846 0.11656 0.0
N13 N 0.26744 0.2532 0.09969 0.0
O14 O 0.11153 0.14919 0.1803 0.0
H15 H 0.24341 0.20141 0.34629 0.0
H16 H 0.20206 0.24365 0.05572 0.0
O17 O 0.167 0.17441 0.41195 0.0
C18 C 0.1022 0.14366 0.06991 0.0
O19 O 0.13416 0.16948 0.99665 0.0
N20 N 0.19464 0.26765 0.32889 0.0
C21 C 0.25062 0.36116 0.36684 0.0
C22 C 0.24661 0.32917 0.45044 0.0
C23 C 0.21883 0.28232 0.42906 0.0
C24 C 0.19875 0.29864 0.24757 0.0
C25 C 0.22654 0.34509 0.26411 0.0
H26 H 0.21747 0.25847 0.49205 0.0
H27 H 0.17994 0.28699 0.16779 0.0
H28 H 0.09209 0.16136 0.45909 0.0
H29 H 1.07909 0.27781 0.44462 0.0
H30 H 0.31364 0.24366 0.20823 0.0
H31 H 0.26489 0.34029 0.53127 0.0
H32 H 0.22784 0.3683 0.19816 0.0
C33 C 0.88855 0.88163 0.31503 0.0
C34 C 0.88251 0.8601 0.41914 0.0
N35 N 0.91562 0.88975 0.48859 0.0
N36 N 0.92348 0.92481 0.32487 0.0
C37 C 0.94181 0.92682 0.42649 0.0
H38 H 0.86488 0.86875 0.24397 0.0
Co39 Co 0.92359 0.97422 0.26754 0.0
C40 C 0.96405 1.02776 0.52276 0.0
O41 O 0.94244 0.99457 0.59678 0.0
N42 N 0.9196 1.02048 0.20914 0.0
C43 C 0.8914 0.06648 0.19558 0.0
C44 C 0.91693 0.05439 0.26241 0.0
C45 C 0.89346 1.01107 0.11643 0.0
N46 N 0.87873 1.04063 0.09948 0.0
O47 O 0.98273 0.9887 0.18026 0.0
H48 H 0.93051 0.06838 0.34612 0.0
H49 H 0.88826 0.98478 0.05562 0.0
O50 O 0.95752 1.01897 0.41186 0.0
C51 C 0.98825 0.9849 0.06987 0.0
O52 O 0.96242 0.99102 0.99658 0.0
N53 N 0.86428 0.95337 0.32883 0.0
C54 C 0.77077 0.91584 0.36683 0.0
C55 C 0.80278 0.94382 0.4504 0.0
C56 C 0.84963 0.96289 0.429 0.0
C57 C 0.83328 0.92649 0.24753 0.0
C58 C 0.78682 0.90782 0.26409 0.0
H59 H 0.87348 0.98537 0.49197 0.0
H60 H 0.84491 0.91933 0.16774 0.0
H61 H 0.97057 0.9571 0.45909 0.0
H62 H 0.85412 0.82766 0.4446 0.0
H63 H 0.88827 0.09637 0.20795 0.0
H64 H 0.79167 0.95098 0.53124 0.0
H65 H 0.76361 0.88592 0.19817 0.0
C66 C 0.25031 1.03332 0.31525 0.0
C67 C 0.27183 1.04879 0.41938 0.0
N68 N 0.24218 1.05226 0.4888 0.0
N69 N 0.20713 1.02508 0.32504 0.0
C70 C 0.20511 1.04138 0.42666 0.0
H71 H 0.2632 1.02255 0.24421 0.0
Co72 Co 0.15772 0.97579 0.26768 0.0
C73 C 0.10418 0.96267 0.52289 0.0
O74 O 0.13737 0.97424 0.59693 0.0
N75 N 0.11145 0.92555 0.20928 0.0
C76 C 1.06548 0.85134 0.1958 0.0
C77 C 1.07755 0.88896 0.26256 0.0
C78 C 0.12086 0.90881 0.11659 0.0
N79 N 0.09132 0.86452 0.0997 0.0
O80 O 0.14323 1.02044 0.18039 0.0
H81 H 1.06357 0.88855 0.34626 0.0
H82 H 0.14714 0.92991 0.05576 0.0
O83 O 0.11297 0.96495 0.41199 0.0
C84 C 0.14702 1.02977 0.07 0.0
O85 O 0.14087 0.99781 0.99673 0.0
N86 N 0.17857 0.93731 0.32896 0.0
C87 C 0.21609 0.88132 0.36685 0.0
C88 C 0.18812 0.88533 0.45045 0.0
C89 C 0.16906 0.91312 0.4291 0.0
C90 C 0.20544 0.93321 0.24764 0.0
C91 C 0.22411 0.90542 0.26415 0.0
H92 H 0.14658 0.91448 0.49209 0.0
H93 H 0.21261 0.95203 0.16788 0.0
H94 H 0.17483 1.03985 0.45923 0.0
H95 H 0.30427 0.05284 0.44488 0.0
H96 H 1.0356 0.81832 0.20819 0.0
H97 H 0.18096 0.86704 0.53127 0.0
H98 H 0.24601 0.90412 0.19821 0.0
C99 C 0.26871 0.07288 0.78328 0.0
C100 C 0.27517 0.05715 0.68005 0.0
N101 N 0.24274 0.05416 0.60874 0.0
N102 N 0.23426 0.08175 0.77105 0.0
C103 C 0.21648 0.06548 0.66894 0.0
H104 H 0.29191 0.08349 0.85533 0.0
Co105 Co 0.23509 0.13189 0.82562 0.0
C106 C 0.19385 0.14387 0.57026 0.0
O107 O 0.21549 0.13238 0.4961 0.0
N108 N 0.23999 0.18298 0.88126 0.0
C109 C 0.26474 0.25654 0.89546 0.0
C110 C 0.24058 0.21867 0.82842 0.0
C111 C 0.26653 0.20074 0.97296 0.0
N112 N 0.2785 0.24426 0.99126 0.0
O113 O 0.17628 0.08843 0.91537 0.0
H114 H 0.22595 0.21822 0.74564 0.0
H115 H 0.27289 0.18044 1.03373 0.0
O116 O 0.2007 0.14195 0.68113 0.0
C117 C 0.17325 0.07867 1.02543 0.0
O118 O 0.20348 0.10887 0.09569 0.0
N119 N 0.29415 0.16933 0.7623 0.0
C120 C 0.38767 0.22443 0.7231 0.0
C121 C 0.35567 0.22042 0.63952 0.0
C122 C 0.30879 0.19312 0.66159 0.0
C123 C 0.32515 0.17342 0.84352 0.0
C124 C 0.37161 0.20074 0.82634 0.0
H125 H 0.28493 0.19188 0.59881 0.0
H126 H 0.31352 0.15508 0.92393 0.0
H127 H 0.18812 0.06731 0.63464 0.0
H128 H 0.30347 1.05266 0.65639 0.0
H129 H 0.26565 0.28861 0.88412 0.0
H130 H 0.36679 0.23843 0.55833 0.0
H131 H 0.39481 0.20207 0.89236 0.0
C132 C 1.05907 0.22221 0.78306 0.0
C133 C 1.07479 0.2444 0.67981 0.0
N134 N 1.07777 0.21496 0.60853 0.0
N135 N 1.05021 0.1789 0.77088 0.0
C136 C 1.06646 0.17738 0.66877 0.0
H137 H 1.04847 0.23481 0.8551 0.0
Co138 Co 1.00008 0.12959 0.82547 0.0
C139 C 0.98807 0.07637 0.57012 0.0
O140 O 0.99954 0.1095 0.49595 0.0
N141 N 0.94899 0.08339 0.88112 0.0
C142 C 0.87542 1.03459 0.89524 0.0
C143 C 0.9133 1.0483 0.82826 0.0
C144 C 0.93123 0.09216 0.97279 0.0
N145 N 0.88769 0.06062 0.99103 0.0
O146 O 1.04355 0.11424 0.91524 0.0
H147 H 0.91375 1.03412 0.74548 0.0
H148 H 0.95153 0.11881 1.03357 0.0
O149 O 0.99001 0.08514 0.68099 0.0
C150 C 1.05331 0.12096 1.0253 0.0
O151 O 1.02309 0.12095 0.09554 0.0
N152 N 0.96262 0.1512 0.76216 0.0
C153 C 0.90751 0.18963 0.72306 0.0
C154 C 0.9115 0.16164 0.63945 0.0
C155 C 0.93881 0.14207 0.66147 0.0
C156 C 0.95856 0.17811 0.8434 0.0
C157 C 0.93122 0.19724 0.82627 0.0
H158 H 0.94005 0.11945 0.59867 0.0
H159 H 0.97691 0.1848 0.92379 0.0
H160 H 1.06464 0.1472 0.63449 0.0
H161 H 0.07927 0.27718 0.65613 0.0
H162 H 0.84335 1.00345 0.88387 0.0
H163 H 0.89347 0.15476 0.55827 0.0
H164 H 0.9299 0.2191 0.89231 0.0
C165 C 0.90972 0.86323 0.78308 0.0
C166 C 0.88753 0.85676 0.67981 0.0
N167 N 0.91696 0.88919 0.60853 0.0
N168 N 0.95303 0.89767 0.7709 0.0
C169 C 0.95455 0.91545 0.66878 0.0
H170 H 0.89713 0.84003 0.85511 0.0
Co171 Co 1.00234 0.89685 0.82553 0.0
C172 C 1.05557 0.93809 0.57022 0.0
O173 O 1.02244 0.91645 0.49602 0.0
N174 N 1.04854 0.89196 0.88123 0.0
C175 C 0.09735 0.86721 0.89547 0.0
C176 C 0.08363 0.89137 0.82842 0.0
C177 C 1.03977 0.86543 0.97292 0.0
N178 N 1.07133 0.85346 0.99125 0.0
O179 O 1.01768 0.95567 0.91528 0.0
H180 H 0.09781 0.90599 0.74565 0.0
H181 H 1.01311 0.85907 1.03367 0.0
O182 O 1.04679 0.93124 0.68108 0.0
C183 C 1.01096 0.9587 1.02533 0.0
O184 O 1.01096 0.92849 0.09561 0.0
N185 N 0.98073 0.83779 0.76222 0.0
C186 C 0.94231 0.74427 0.72308 0.0
C187 C 0.9703 0.77626 0.63949 0.0
C188 C 0.98987 0.82314 0.66153 0.0
C189 C 0.95383 0.80681 0.84345 0.0
C190 C 0.9347 0.76035 0.82629 0.0
H191 H 1.01248 0.84699 0.59875 0.0
H192 H 0.94713 0.81845 0.92383 0.0
H193 H 0.98473 0.94381 0.63451 0.0
H194 H 0.85475 0.82846 0.65611 0.0
H195 H 0.12851 0.8663 0.88415 0.0
H196 H 0.97717 0.76512 0.55831 0.0
H197 H 0.91284 0.73716 0.89231 0.0
C198 C 0.76529 0.57672 0.64838 0.0
C199 C 0.74981 0.58275 0.75247 0.0
N200 N 0.74634 0.54963 0.82192 0.0
N201 N 0.77354 0.54178 0.65822 0.0
C202 C 0.75723 0.52345 0.75982 0.0
H203 H 0.77607 0.60038 0.57734 0.0
Co204 Co 0.82284 0.54167 0.60093 0.0
C205 C 0.83594 0.50123 0.85619 0.0
O206 O 0.82437 0.52286 0.93018 0.0
N207 N 0.87308 0.54565 0.54259 0.0
C208 C 0.94729 0.57385 0.52915 0.0
C209 C 0.90967 0.54832 0.59591 0.0
C210 C 0.88983 0.5718 0.4499 0.0
N211 N 0.93411 0.58653 0.43303 0.0
O212 O 0.7782 0.48253 0.51363 0.0
H213 H 0.91008 0.53474 0.67962 0.0
H214 H 0.86873 0.57699 0.38906 0.0
O215 O 0.83366 0.50775 0.74528 0.0
C216 C 0.76887 0.477 0.40323 0.0
O217 O 0.80083 0.50282 0.32998 0.0
N218 N 0.86131 0.60099 0.66223 0.0
C219 C 0.91728 0.69449 0.70018 0.0
C220 C 0.91327 0.6625 0.78377 0.0
C221 C 0.88549 0.61565 0.76239 0.0
C222 C 0.86541 0.63197 0.58091 0.0
C223 C 0.8932 0.67843 0.59745 0.0
H224 H 0.88414 0.59181 0.82537 0.0
H225 H 0.84661 0.62033 0.50112 0.0
H226 H 0.75875 0.49469 0.79242 0.0
H227 H 0.74575 0.61114 0.77794 0.0
H228 H 0.98031 0.57699 0.54156 0.0
H229 H 0.93156 0.67362 0.86461 0.0
H230 H 0.8945 0.70163 0.5315 0.0
C231 C 0.55521 0.21496 0.64836 0.0
C232 C 0.54918 0.19344 0.75246 0.0
N233 N 0.58229 0.22308 0.82192 0.0
N234 N 0.59015 0.25814 0.6582 0.0
C235 C 0.60848 0.26015 0.75982 0.0
H236 H 0.53155 0.20208 0.57729 0.0
Co237 Co 0.59026 0.30755 0.60087 0.0
C238 C 0.63072 0.3611 0.85609 0.0
O239 O 0.60911 0.3279 0.93011 0.0
N240 N 0.58627 0.35381 0.54248 0.0
C241 C 0.55807 0.39981 0.52892 0.0
C242 C 0.58359 0.38772 0.59574 0.0
C243 C 0.56012 0.3444 0.44976 0.0
N244 N 0.5454 0.37396 0.43281 0.0
O245 O 0.64939 0.32204 0.51359 0.0
H246 H 0.59717 0.40171 0.67945 0.0
H247 H 0.55493 0.31811 0.38895 0.0
O248 O 0.62419 0.3523 0.74519 0.0
C249 C 0.65492 0.31823 0.4032 0.0
O250 O 0.62908 0.32435 0.32991 0.0
N251 N 0.53094 0.28671 0.66216 0.0
C252 C 0.43744 0.24917 0.70018 0.0
C253 C 0.46945 0.27715 0.78374 0.0
C254 C 0.5163 0.29622 0.76233 0.0
C255 C 0.49995 0.25983 0.58087 0.0
C256 C 0.45349 0.24115 0.59743 0.0
H257 H 0.54015 0.31871 0.8253 0.0
H258 H 0.51157 0.25266 0.50108 0.0
H259 H 0.63723 0.29044 0.79243 0.0
H260 H 0.52078 0.16099 0.77793 0.0
H261 H 0.55494 0.4297 0.54128 0.0
H262 H 0.45834 0.28432 0.86458 0.0
H263 H 0.43027 0.21925 0.53151 0.0
C264 C 0.91698 0.36666 0.64858 0.0
C265 C 0.9385 0.38213 0.75271 0.0
N266 N 0.90885 0.38559 0.82213 0.0
N267 N 0.8738 0.35841 0.65837 0.0
C268 C 0.87178 0.37471 0.75999 0.0
H269 H 0.92986 0.35589 0.57754 0.0
Co270 Co 0.82438 0.30912 0.60102 0.0
C271 C 0.77084 0.296 0.85622 0.0
O272 O 0.80404 0.30757 0.93026 0.0
N273 N 0.77812 0.25888 0.54261 0.0
C274 C 0.73214 0.18468 0.52913 0.0
C275 C 0.74422 0.22229 0.59589 0.0
C276 C 0.78753 0.24214 0.44992 0.0
N277 N 0.75799 0.19785 0.43303 0.0
O278 O 0.80989 0.35378 0.51372 0.0
H279 H 0.73023 0.22188 0.67959 0.0
H280 H 0.81381 0.26324 0.3891 0.0
O281 O 0.77964 0.29829 0.74532 0.0
C282 C 0.81369 0.3631 0.40333 0.0
O283 O 0.80754 0.33114 0.33006 0.0
N284 N 0.84523 0.27064 0.6623 0.0
C285 C 0.88276 0.21466 0.7002 0.0
C286 C 0.85479 0.21867 0.78379 0.0
C287 C 0.83572 0.24645 0.76243 0.0
C288 C 0.87211 0.26655 0.58098 0.0
C289 C 0.89078 0.23875 0.59749 0.0
H290 H 0.81324 0.24781 0.82542 0.0
H291 H 0.87927 0.28536 0.50122 0.0
H292 H 0.84149 0.37319 0.79256 0.0
H293 H 0.97094 0.38618 0.77821 0.0
H294 H 0.70227 0.15165 0.54152 0.0
H295 H 0.84762 0.20037 0.8646 0.0
H296 H 0.91268 0.23745 0.53155 0.0
C297 C 0.93538 0.40622 0.11661 0.0
C298 C 0.94183 0.39048 1.01337 0.0
N299 N 0.90941 0.38749 0.94207 0.0
N300 N 0.90093 0.41508 0.10438 0.0
C301 C 0.88314 0.39881 1.00228 0.0
H302 H 0.95858 0.41683 0.18865 0.0
Co303 Co 0.90176 0.46522 0.15895 0.0
C304 C 0.86052 0.47721 0.90359 0.0
O305 O 0.88216 0.46571 0.82944 0.0
N306 N 0.90666 0.51631 0.21459 0.0
C307 C 0.93141 0.58988 0.22879 0.0
C308 C 0.90725 0.552 0.16176 0.0
C309 C 0.93319 0.53407 0.30629 0.0
N310 N 0.94517 0.5776 0.32459 0.0
O311 O 0.84295 0.42176 0.2487 0.0
H312 H 0.89262 0.55155 0.07897 0.0
H313 H 0.93956 0.51377 0.36706 0.0
O314 O 0.86737 0.47528 1.01446 0.0
C315 C 0.83991 0.412 0.35875 0.0
O316 O 0.87014 0.44221 0.42903 0.0
N317 N 0.96082 0.50266 0.09563 0.0
C318 C 1.05434 0.55776 0.05643 0.0
C319 C 1.02233 0.55376 0.97286 0.0
C320 C 0.97546 0.52645 0.99492 0.0
C321 C 0.99182 0.50675 0.17686 0.0
C322 C 1.03828 0.53407 0.15967 0.0
H323 H 0.95159 0.52521 0.93214 0.0
H324 H 0.98018 0.48842 0.25726 0.0
H325 H 0.85479 0.40064 0.96797 0.0
H326 H 0.97013 0.386 0.98971 0.0
H327 H 0.93232 0.62194 0.21745 0.0
H328 H 1.03346 0.57177 0.89166 0.0
H329 H 1.06147 0.5354 0.22569 0.0
C330 C 0.72574 0.55554 0.11639 0.0
C331 C 0.74146 0.57773 1.01314 0.0
N332 N 0.74444 0.54829 0.94186 0.0
N333 N 0.71688 0.51224 0.10421 0.0
C334 C 0.73313 0.51071 1.0021 0.0
H335 H 0.71514 0.56814 0.18843 0.0
Co336 Co 0.66675 0.46292 0.1588 0.0
C337 C 0.65473 0.4097 0.90345 0.0
O338 O 0.66621 0.44283 0.82928 0.0
N339 N 0.61566 0.41672 0.21445 0.0
C340 C 0.54209 0.36793 0.22857 0.0
C341 C 0.57997 0.38164 0.16159 0.0
C342 C 0.5979 0.42549 0.30613 0.0
N343 N 0.55436 0.39395 0.32436 0.0
O344 O 0.71022 0.44757 0.24857 0.0
H345 H 0.58042 0.36746 0.07881 0.0
H346 H 0.61819 0.45215 0.36691 0.0
O347 O 0.65667 0.41848 1.01432 0.0
C348 C 0.71997 0.45429 0.35863 0.0
O349 O 0.68975 0.45428 0.42887 0.0
N350 N 0.62929 0.48454 0.09549 0.0
C351 C 0.57418 0.52296 0.0564 0.0
C352 C 0.57816 0.49497 0.97279 0.0
C353 C 0.60548 0.4754 0.9948 0.0
C354 C 0.62522 0.51144 0.17674 0.0
C355 C 0.59789 0.53057 0.15961 0.0
H356 H 0.60672 0.45279 0.932 0.0
H357 H 0.64357 0.51813 0.25712 0.0
H358 H 0.7313 0.48053 0.96782 0.0
H359 H 0.74594 0.61051 0.98945 0.0
H360 H 0.51002 0.33678 0.2172 0.0
H361 H 0.56014 0.4881 0.89161 0.0
H362 H 0.59657 0.55243 0.22565 0.0
C363 C 0.57638 0.19656 0.1164 0.0
C364 C 0.55419 0.19009 1.01313 0.0
N365 N 0.58363 0.22252 0.94186 0.0
N366 N 0.61969 0.231 0.10423 0.0
C367 C 0.62121 0.24879 1.00211 0.0
H368 H 0.56379 0.17336 0.18844 0.0
Co369 Co 0.66901 0.23019 0.15886 0.0
C370 C 0.72224 0.27142 0.90355 0.0
O371 O 0.68911 0.24978 0.82935 0.0
N372 N 0.7152 0.2253 0.21456 0.0
C373 C 0.76402 0.20054 0.2288 0.0
C374 C 0.7503 0.22471 0.16175 0.0
C375 C 0.70644 0.19877 0.30626 0.0
N376 N 0.73799 0.18679 0.32458 0.0
O377 O 0.68435 0.289 0.24861 0.0
H378 H 0.76448 0.23933 0.07898 0.0
H379 H 0.67978 0.19241 0.36701 0.0
O380 O 0.71346 0.26457 1.01441 0.0
C381 C 0.67763 0.29204 0.35866 0.0
O382 O 0.67763 0.26183 0.42894 0.0
N383 N 0.6474 0.17113 0.09555 0.0
C384 C 0.60898 0.0776 0.05641 0.0
C385 C 0.63697 0.10959 0.97282 0.0
C386 C 0.65654 0.15647 0.99487 0.0
C387 C 0.62049 0.14014 0.17678 0.0
C388 C 0.60137 0.09368 0.15963 0.0
H389 H 0.67915 0.18033 0.93208 0.0
H390 H 0.6138 0.15179 0.25717 0.0
H391 H 0.65139 0.27714 0.96784 0.0
H392 H 0.52141 0.16179 0.98943 0.0
H393 H 0.79517 0.19963 0.21748 0.0
H394 H 0.64384 0.09845 0.89165 0.0
H395 H 0.57951 0.07049 0.22565 0.0
C396 C 0.43196 0.91005 0.98172 0.0
C397 C 0.41647 0.91608 0.08581 0.0
N398 N 0.413 0.88297 0.15525 0.0
N399 N 0.44021 0.87512 0.99155 0.0
C400 C 0.42389 0.85678 0.09316 0.0
H401 H 0.44274 0.93371 0.91067 0.0
Co402 Co 0.48951 0.875 0.93427 0.0
C403 C 0.50261 0.83456 0.18952 0.0
O404 O 0.49104 0.85619 0.26352 0.0
N405 N 0.53975 0.87898 0.87593 0.0
C406 C 0.61396 0.90719 0.86248 0.0
C407 C 0.57634 0.88166 0.92924 0.0
C408 C 0.55649 0.90513 0.78323 0.0
N409 N 0.60078 0.91986 0.76636 0.0
O410 O 0.44486 0.81586 0.84697 0.0
H411 H 0.57675 0.86807 1.01295 0.0
H412 H 0.5354 0.91032 0.72239 0.0
O413 O 0.50033 0.84108 0.07861 0.0
C414 C 0.43554 0.81033 0.73657 0.0
O415 O 0.46749 0.83615 0.66331 0.0
N416 N 0.52798 0.93432 0.99556 0.0
C417 C 0.58395 1.02782 1.03352 0.0
C418 C 0.57994 0.99583 0.11711 0.0
C419 C 0.55216 0.94898 0.09572 0.0
C420 C 0.53208 0.9653 0.91424 0.0
C421 C 0.55987 1.01176 0.93078 0.0
H422 H 0.55081 0.92514 0.15871 0.0
H423 H 0.51328 0.95366 0.83445 0.0
H424 H 0.42542 0.82802 0.12576 0.0
H425 H 0.41242 0.94448 0.11128 0.0
H426 H 0.64698 0.91032 0.8749 0.0
H427 H 0.59823 1.00695 0.19794 0.0
H428 H 0.56117 1.03497 0.86484 0.0
C429 C 0.22188 0.54829 0.98169 0.0
C430 C 0.21584 0.52677 0.0858 0.0
N431 N 0.24896 0.55641 0.15526 0.0
N432 N 0.25681 0.59147 0.99153 0.0
C433 C 0.27514 0.59349 0.09316 0.0
H434 H 0.19822 0.53542 0.91063 0.0
Co435 Co 0.25693 0.64088 0.93421 0.0
C436 C 0.29739 0.69443 0.18943 0.0
O437 O 0.27578 0.66124 0.26345 0.0
N438 N 0.25294 0.68714 0.87581 0.0
C439 C 0.22474 0.73315 0.86225 0.0
C440 C 0.25026 0.72105 0.92907 0.0
C441 C 0.22679 0.67773 0.7831 0.0
N442 N 0.21207 0.70729 0.76615 0.0
O443 O 0.31606 0.65537 0.84692 0.0
H444 H 0.26384 0.73504 1.01278 0.0
H445 H 0.2216 0.65144 0.72229 0.0
O446 O 0.29086 0.68563 0.07852 0.0
C447 C 0.32159 0.65157 0.73654 0.0
O448 O 0.29575 0.65769 0.66324 0.0
N449 N 0.19761 0.62004 0.9955 0.0
C450 C 0.10411 0.5825 1.03351 0.0
C451 C 0.13612 0.61049 0.11708 0.0
C452 C 0.18296 0.62956 0.09566 0.0
C453 C 0.16661 0.59316 0.9142 0.0
C454 C 0.12016 0.57449 0.93077 0.0
H455 H 0.20682 0.65204 0.15863 0.0
H456 H 0.17824 0.586 0.83441 0.0
H457 H 0.3039 0.62377 0.12576 0.0
H458 H 0.18745 0.49433 0.11127 0.0
H459 H 0.22161 0.76303 0.87461 0.0
H460 H 0.12501 0.61766 0.19791 0.0
H461 H 0.09694 0.55259 0.86484 0.0
C462 C 0.58364 0.69999 0.98192 0.0
C463 C 0.60516 0.71546 0.08605 0.0
N464 N 0.57551 0.71892 0.15546 0.0
N465 N 0.54046 0.69174 0.99171 0.0
C466 C 0.53844 0.70805 0.09333 0.0
H467 H 0.59653 0.68922 0.91087 0.0
Co468 Co 0.49105 0.64245 0.93435 0.0
C469 C 0.43751 0.62934 0.18955 0.0
O470 O 0.4707 0.6409 0.26359 0.0
N471 N 0.44478 0.59222 0.87594 0.0
C472 C 0.39881 0.51801 0.86246 0.0
C473 C 0.41089 0.55563 0.92923 0.0
C474 C 0.45419 0.57548 0.78325 0.0
N475 N 0.42465 0.53119 0.76636 0.0
O476 O 0.47656 0.68711 0.84706 0.0
H477 H 0.3969 0.55521 1.01293 0.0
H478 H 0.48048 0.59657 0.72243 0.0
O479 O 0.44631 0.63162 0.07865 0.0
C480 C 0.48036 0.69644 0.73666 0.0
O481 O 0.4742 0.66447 0.66339 0.0
N482 N 0.5119 0.60398 0.99563 0.0
C483 C 0.54943 0.54799 1.03353 0.0
C484 C 0.52146 0.552 0.11712 0.0
C485 C 0.50239 0.57979 0.09577 0.0
C486 C 0.53878 0.59988 0.91431 0.0
C487 C 0.55744 0.57208 0.93082 0.0
H488 H 0.4799 0.58114 0.15875 0.0
H489 H 0.54594 0.61869 0.83455 0.0
H490 H 0.50816 0.70652 0.12589 0.0
H491 H 0.63761 0.71951 0.11154 0.0
H492 H 0.36893 0.48498 0.87486 0.0
H493 H 0.51429 0.5337 0.19794 0.0
H494 H 0.57934 0.57078 0.86488 0.0
C495 C 0.60204 0.73955 0.44995 0.0
C496 C 0.6085 0.72381 0.34671 0.0
N497 N 0.57607 0.72082 0.2754 0.0
N498 N 0.5676 0.74841 0.43772 0.0
C499 C 0.54981 0.73215 0.33561 0.0
H500 H 0.62524 0.75016 0.52199 0.0
Co501 Co 0.56843 0.79855 0.49228 0.0
C502 C 0.52718 0.81054 0.23692 0.0
O503 O 0.54883 0.79904 0.16277 0.0
N504 N 0.57333 0.84965 0.54793 0.0
C505 C 0.59808 0.92321 0.56212 0.0
C506 C 0.57391 0.88533 0.49509 0.0
C507 C 0.59986 0.8674 0.63963 0.0
N508 N 0.61183 0.91093 0.65792 0.0
O509 O 0.50962 0.7551 0.58204 0.0
H510 H 0.55929 0.88489 0.41231 0.0
H511 H 0.60622 0.8471 0.70039 0.0
O512 O 0.53403 0.80862 0.34779 0.0
C513 C 0.50658 0.74533 0.69209 0.0
O514 O 0.53681 0.77554 0.76236 0.0
N515 N 0.62748 0.836 0.42896 0.0
C516 C 0.721 0.89109 0.38976 0.0
C517 C 0.689 0.88709 0.30618 0.0
C518 C 0.64212 0.85979 0.32826 0.0
C519 C 0.65848 0.84008 0.51018 0.0
C520 C 0.70494 0.8674 0.493 0.0
H521 H 0.61826 0.85854 0.26548 0.0
H522 H 0.64685 0.82175 0.59059 0.0
H523 H 0.52145 0.73397 0.3013 0.0
H524 H 0.6368 0.71933 0.32305 0.0
H525 H 0.59899 0.95527 0.55079 0.0
H526 H 0.70012 0.9051 0.22499 0.0
H527 H 0.72814 0.86874 0.55902 0.0
C528 C 0.39241 0.88888 0.44973 0.0
C529 C 0.40812 0.91106 0.34647 0.0
N530 N 0.41111 0.88163 0.27519 0.0
N531 N 0.38354 0.84557 0.43754 0.0
C532 C 0.39979 0.84404 0.33543 0.0
H533 H 0.38181 0.90147 0.52176 0.0
Co534 Co 0.33341 0.79626 0.49213 0.0
C535 C 0.3214 0.74303 0.23679 0.0
O536 O 0.33287 0.77617 0.16262 0.0
N537 N 0.28232 0.75006 0.54779 0.0
C538 C 0.20875 0.70126 0.56191 0.0
C539 C 0.24664 0.71497 0.49492 0.0
C540 C 0.26457 0.75883 0.63946 0.0
N541 N 0.22103 0.72729 0.6577 0.0
O542 O 0.37688 0.78091 0.58191 0.0
H543 H 0.24708 0.70079 0.41215 0.0
H544 H 0.28486 0.78548 0.70024 0.0
O545 O 0.32334 0.75181 0.34766 0.0
C546 C 0.38664 0.78762 0.69196 0.0
O547 O 0.35642 0.78761 0.76221 0.0
N548 N 0.29596 0.81787 0.42882 0.0
C549 C 0.24085 0.85629 0.38972 0.0
C550 C 0.24483 0.8283 0.30612 0.0
C551 C 0.27214 0.80873 0.32814 0.0
C552 C 0.29189 0.84478 0.51006 0.0
C553 C 0.26456 0.86391 0.49293 0.0
H554 H 0.27338 0.78612 0.26534 0.0
H555 H 0.31024 0.85147 0.59045 0.0
H556 H 0.39797 0.81386 0.30115 0.0
H557 H 0.41261 0.94385 0.32279 0.0
H558 H 0.17669 0.67012 0.55054 0.0
H559 H 0.2268 0.82143 0.22494 0.0
H560 H 0.26324 0.88577 0.55897 0.0
C561 C 0.24305 0.52989 0.44974 0.0
C562 C 0.22086 0.52343 0.34647 0.0
N563 N 0.2503 0.55585 0.2752 0.0
N564 N 0.28636 0.56434 0.43756 0.0
C565 C 0.28788 0.58212 0.33545 0.0
H566 H 0.23046 0.50669 0.52178 0.0
Co567 Co 0.33567 0.56352 0.4922 0.0
C568 C 0.38891 0.60476 0.23688 0.0
O569 O 0.35577 0.58311 0.16268 0.0
N570 N 0.38187 0.55863 0.5479 0.0
C571 C 0.43069 0.53387 0.56213 0.0
C572 C 0.41697 0.55804 0.49509 0.0
C573 C 0.3731 0.5321 0.63959 0.0
N574 N 0.40466 0.52013 0.65791 0.0
O575 O 0.35102 0.62233 0.58195 0.0
H576 H 0.43114 0.57266 0.41232 0.0
H577 H 0.34644 0.52574 0.70034 0.0
O578 O 0.38013 0.59791 0.34774 0.0
C579 C 0.34429 0.62537 0.69199 0.0
O580 O 0.3443 0.59516 0.76227 0.0
N581 N 0.31407 0.50446 0.42889 0.0
C582 C 0.27564 0.41093 0.38973 0.0
C583 C 0.30364 0.44292 0.30615 0.0
C584 C 0.32321 0.4898 0.3282 0.0
C585 C 0.28716 0.47347 0.51011 0.0
C586 C 0.26803 0.42701 0.49295 0.0
H587 H 0.34582 0.51366 0.26542 0.0
H588 H 0.28047 0.48512 0.5905 0.0
H589 H 0.31806 0.61047 0.30118 0.0
H590 H 0.18808 0.49513 0.32277 0.0
H591 H 0.46184 0.53296 0.55082 0.0
H592 H 0.31051 0.43179 0.22498 0.0
H593 H 0.24617 0.40383 0.55897 0.0
loop_
_geom_bond_atom_site_label_1
_geom_bond_atom_site_label_2
_geom_bond_distance
_geom_bond_site_symmetry_2
_ccdc_geom_bond_type
C0 C1 1.351 1_455 S
C0 N3 1.368 . S
C0 H5 0.931 . S
C1 C0 1.351 1_655 S
C1 N2 1.383 . S
C1 H29 0.930 . S
N2 C1 1.383 . S
N2 C4 1.325 1_655 S
N3 C0 1.368 . S
N3 C4 1.321 . S
N3 Co6 2.135 . S
C4 N2 1.325 1_455 S
C4 N3 1.321 . S
C4 H28 0.930 . S
H5 C0 0.931 . S
Co6 N3 2.135 . S
Co6 N9 2.121 . S
Co6 O14 2.055 . S
Co6 O17 2.039 . S
Co6 N20 2.140 . S
C7 O8 1.227 . S
C7 O17 1.265 . S
O8 C7 1.227 . S
N9 Co6 2.121 . S
N9 C11 1.375 . S
N9 C12 1.313 . S
C10 C11 1.338 . S
C10 N13 1.377 . S
C10 H30 0.930 . S
C11 N9 1.375 . S
C11 C10 1.338 . S
C11 H15 0.931 . S
C12 N9 1.313 . S
C12 N13 1.344 . S
C12 H16 0.930 . S
N13 C10 1.377 . S
N13 C12 1.344 . S
O14 Co6 2.055 . S
O14 C18 1.253 . S
H15 C11 0.931 . S
H16 C12 0.930 . S
O17 Co6 2.039 . S
O17 C7 1.265 . S
C18 O14 1.253 . S
C18 O19 1.227 . S
O19 C18 1.227 . S
N20 Co6 2.140 . S
N20 C23 1.346 . S
N20 C24 1.345 . S
C21 C22 1.387 . S
C21 C25 1.391 . S
C22 C21 1.387 . S
C22 C23 1.369 . S
C22 H31 0.929 . S
C23 N20 1.346 . S
C23 C22 1.369 . S
C23 H26 0.928 . S
C24 N20 1.345 . S
C24 C25 1.371 . S
C24 H27 0.931 . S
C25 C21 1.391 . S
C25 C24 1.371 . S
C25 H32 0.930 . S
H26 C23 0.928 . S
H27 C24 0.931 . S
H28 C4 0.930 . S
H29 C1 0.930 . S
H30 C10 0.930 . S
H31 C22 0.929 . S
H32 C25 0.930 . S
C33 C34 1.351 . S
C33 N36 1.368 . S
C33 H38 0.931 . S
C34 C33 1.351 . S
C34 N35 1.373 . S
C34 H62 0.930 . S
N35 C34 1.373 . S
N35 C37 1.340 . S
N36 C33 1.368 . S
N36 C37 1.321 . S
N36 Co39 2.135 . S
C37 N35 1.340 . S
C37 N36 1.321 . S
C37 H61 0.930 . S
H38 C33 0.931 . S
Co39 N36 2.135 . S
Co39 N42 2.121 . S
Co39 O47 2.055 . S
Co39 O50 2.039 . S
Co39 N53 2.140 . S
C40 O41 1.227 . S
C40 O50 1.265 . S
O41 C40 1.227 . S
N42 Co39 2.121 . S
N42 C44 1.375 . S
N42 C45 1.313 . S
C43 C44 1.338 1_545 S
C43 N46 1.377 1_545 S
C43 H63 0.930 . S
C44 N42 1.375 . S
C44 C43 1.338 1_565 S
C44 H48 0.931 . S
C45 N42 1.313 . S
C45 N46 1.344 . S
C45 H49 0.930 . S
N46 C43 1.377 1_565 S
N46 C45 1.344 . S
O47 Co39 2.055 . S
O47 C51 1.253 . S
H48 C44 0.931 . S
H49 C45 0.930 . S
O50 Co39 2.039 . S
O50 C40 1.265 . S
C51 O47 1.253 . S
C51 O52 1.227 . S
O52 C51 1.227 . S
N53 Co39 2.140 . S
N53 C56 1.346 . S
N53 C57 1.345 . S
C54 C55 1.387 . S
C54 C58 1.391 . S
C55 C54 1.387 . S
C55 C56 1.369 . S
C55 H64 0.929 . S
C56 N53 1.346 . S
C56 C55 1.369 . S
C56 H59 0.928 . S
C57 N53 1.345 . S
C57 C58 1.371 . S
C57 H60 0.931 . S
C58 C54 1.391 . S
C58 C57 1.371 . S
C58 H65 0.930 . S
H59 C56 0.928 . S
H60 C57 0.931 . S
H61 C37 0.930 . S
H62 C34 0.930 . S
H63 C43 0.930 . S
H64 C55 0.929 . S
H65 C58 0.930 . S
C66 C67 1.351 1_565 S
C66 N69 1.368 . S
C66 H71 0.931 . S
C67 C66 1.351 1_545 S
C67 N68 1.374 . S
C67 H95 0.930 . S
N68 C67 1.374 . S
N68 C70 1.335 1_545 S
N69 C66 1.368 . S
N69 C70 1.321 . S
N69 Co72 2.135 . S
C70 N68 1.335 1_565 S
C70 N69 1.321 . S
C70 H94 0.930 . S
H71 C66 0.931 . S
Co72 N69 2.135 . S
Co72 N75 2.121 . S
Co72 O80 2.055 . S
Co72 O83 2.039 . S
Co72 N86 2.140 . S
C73 O74 1.227 . S
C73 O83 1.265 . S
O74 C73 1.227 . S
N75 Co72 2.121 . S
N75 C77 1.375 . S
N75 C78 1.313 . S
C76 C77 1.338 1_655 S
C76 N79 1.377 1_655 S
C76 H96 0.930 . S
C77 N75 1.375 . S
C77 C76 1.338 1_455 S
C77 H81 0.931 . S
C78 N75 1.313 . S
C78 N79 1.344 . S
C78 H82 0.930 . S
N79 C76 1.377 1_455 S
N79 C78 1.344 . S
O80 Co72 2.055 . S
O80 C84 1.253 . S
H81 C77 0.931 . S
H82 C78 0.930 . S
O83 Co72 2.039 . S
O83 C73 1.265 . S
C84 O80 1.253 . S
C84 O85 1.227 . S
O85 C84 1.227 . S
N86 Co72 2.140 . S
N86 C89 1.346 . S
N86 C90 1.345 . S
C87 C88 1.387 . S
C87 C91 1.391 . S
C88 C87 1.387 . S
C88 C89 1.369 . S
C88 H97 0.929 . S
C89 N86 1.346 . S
C89 C88 1.369 . S
C89 H92 0.928 . S
C90 N86 1.345 . S
C90 C91 1.371 . S
C90 H93 0.931 . S
C91 C87 1.391 . S
C91 C90 1.371 . S
C91 H98 0.930 . S
H92 C89 0.928 . S
H93 C90 0.931 . S
H94 C70 0.930 . S
H95 C67 0.930 . S
H96 C76 0.930 . S
H97 C88 0.929 . S
H98 C91 0.930 . S
C99 C100 1.351 1_545 S
C99 N102 1.368 . S
C99 H104 0.931 . S
C100 C99 1.351 1_565 S
C100 N101 1.383 . S
C100 H128 0.930 . S
N101 C100 1.383 . S
N101 C103 1.325 1_565 S
N102 C99 1.368 . S
N102 C103 1.321 . S
N102 Co105 2.135 . S
C103 N101 1.325 1_545 S
C103 N102 1.321 . S
C103 H127 0.930 . S
H104 C99 0.931 . S
Co105 N102 2.135 . S
Co105 N108 2.121 . S
Co105 O113 2.055 . S
Co105 O116 2.039 . S
Co105 N119 2.140 . S
C106 O107 1.227 . S
C106 O116 1.265 . S
O107 C106 1.227 . S
N108 Co105 2.121 . S
N108 C110 1.375 . S
N108 C111 1.313 . S
C109 C110 1.338 . S
C109 N112 1.377 . S
C109 H129 0.930 . S
C110 N108 1.375 . S
C110 C109 1.338 . S
C110 H114 0.931 . S
C111 N108 1.313 . S
C111 N112 1.344 . S
C111 H115 0.930 . S
N112 C109 1.377 . S
N112 C111 1.344 . S
O113 Co105 2.055 . S
O113 C117 1.253 . S
H114 C110 0.931 . S
H115 C111 0.930 . S
O116 Co105 2.039 . S
O116 C106 1.265 . S
C117 O113 1.253 . S
C117 O118 1.227 . S
O118 C117 1.227 . S
N119 Co105 2.140 . S
N119 C122 1.346 . S
N119 C123 1.345 . S
C120 C121 1.387 . S
C120 C124 1.391 . S
C121 C120 1.387 . S
C121 C122 1.369 . S
C121 H130 0.929 . S
C122 N119 1.346 . S
C122 C121 1.369 . S
C122 H125 0.928 . S
C123 N119 1.345 . S
C123 C124 1.371 . S
C123 H126 0.931 . S
C124 C120 1.391 . S
C124 C123 1.371 . S
C124 H131 0.930 . S
H125 C122 0.928 . S
H126 C123 0.931 . S
H127 C103 0.930 . S
H128 C100 0.930 . S
H129 C109 0.930 . S
H130 C121 0.929 . S
H131 C124 0.930 . S
C132 C133 1.351 1_655 S
C132 N135 1.368 . S
C132 H137 0.931 . S
C133 C132 1.351 1_455 S
C133 N134 1.374 . S
C133 H161 0.930 . S
N134 C133 1.374 . S
N134 C136 1.335 1_455 S
N135 C132 1.368 . S
N135 C136 1.321 . S
N135 Co138 2.135 . S
C136 N134 1.335 1_655 S
C136 N135 1.321 . S
C136 H160 0.930 . S
H137 C132 0.931 . S
Co138 N135 2.135 . S
Co138 N141 2.121 . S
Co138 O146 2.055 . S
Co138 O149 2.039 . S
Co138 N152 2.140 . S
C139 O140 1.227 . S
C139 O149 1.265 . S
O140 C139 1.227 . S
N141 Co138 2.121 . S
N141 C143 1.375 . S
N141 C144 1.313 . S
C142 C143 1.338 1_565 S
C142 N145 1.377 1_565 S
C142 H162 0.930 . S
C143 N141 1.375 . S
C143 C142 1.338 1_545 S
C143 H147 0.931 . S
C144 N141 1.313 . S
C144 N145 1.344 . S
C144 H148 0.930 . S
N145 C142 1.377 1_545 S
N145 C144 1.344 . S
O146 Co138 2.055 . S
O146 C150 1.253 . S
H147 C143 0.931 . S
H148 C144 0.930 . S
O149 Co138 2.039 . S
O149 C139 1.265 . S
C150 O146 1.253 . S
C150 O151 1.227 . S
O151 C150 1.227 . S
N152 Co138 2.140 . S
N152 C155 1.346 . S
N152 C156 1.345 . S
C153 C154 1.387 . S
C153 C157 1.391 . S
C154 C153 1.387 . S
C154 C155 1.369 . S
C154 H163 0.929 . S
C155 N152 1.346 . S
C155 C154 1.369 . S
C155 H158 0.928 . S
C156 N152 1.345 . S
C156 C157 1.371 . S
C156 H159 0.931 . S
C157 C153 1.391 . S
C157 C156 1.371 . S
C157 H164 0.930 . S
H158 C155 0.928 . S
H159 C156 0.931 . S
H160 C136 0.930 . S
H161 C133 0.930 . S
H162 C142 0.930 . S
H163 C154 0.929 . S
H164 C157 0.930 . S
C165 C166 1.351 . S
C165 N168 1.368 . S
C165 H170 0.931 . S
C166 C165 1.351 . S
C166 N167 1.373 . S
C166 H194 0.930 . S
N167 C166 1.373 . S
N167 C169 1.340 . S
N168 C165 1.368 . S
N168 C169 1.321 . S
N168 Co171 2.135 . S
C169 N167 1.340 . S
C169 N168 1.321 . S
C169 H193 0.930 . S
H170 C165 0.931 . S
Co171 N168 2.135 . S
Co171 N174 2.121 . S
Co171 O179 2.055 . S
Co171 O182 2.039 . S
Co171 N185 2.140 . S
C172 O173 1.227 . S
C172 O182 1.265 . S
O173 C172 1.227 . S
N174 Co171 2.121 . S
N174 C176 1.375 . S
N174 C177 1.313 . S
C175 C176 1.338 1_455 S
C175 N178 1.377 1_455 S
C175 H195 0.930 . S
C176 N174 1.375 . S
C176 C175 1.338 1_655 S
C176 H180 0.931 . S
C177 N174 1.313 . S
C177 N178 1.344 . S
C177 H181 0.930 . S
N178 C175 1.377 1_655 S
N178 C177 1.344 . S
O179 Co171 2.055 . S
O179 C183 1.253 . S
H180 C176 0.931 . S
H181 C177 0.930 . S
O182 Co171 2.039 . S
O182 C172 1.265 . S
C183 O179 1.253 . S
C183 O184 1.227 . S
O184 C183 1.227 . S
N185 Co171 2.140 . S
N185 C188 1.346 . S
N185 C189 1.345 . S
C186 C187 1.387 . S
C186 C190 1.391 . S
C187 C186 1.387 . S
C187 C188 1.369 . S
C187 H196 0.929 . S
C188 N185 1.346 . S
C188 C187 1.369 . S
C188 H191 0.928 . S
C189 N185 1.345 . S
C189 C190 1.371 . S
C189 H192 0.931 . S
C190 C186 1.391 . S
C190 C189 1.371 . S
C190 H197 0.930 . S
H191 C188 0.928 . S
H192 C189 0.931 . S
H193 C169 0.930 . S
H194 C166 0.930 . S
H195 C175 0.930 . S
H196 C187 0.929 . S
H197 C190 0.930 . S
C198 C199 1.351 . S
C198 N201 1.368 . S
C198 H203 0.931 . S
C199 C198 1.351 . S
C199 N200 1.373 . S
C199 H227 0.930 . S
N200 C199 1.373 . S
N200 C202 1.340 . S
N201 C198 1.368 . S
N201 C202 1.321 . S
N201 Co204 2.135 . S
C202 N200 1.340 . S
C202 N201 1.321 . S
C202 H226 0.930 . S
H203 C198 0.931 . S
Co204 N201 2.135 . S
Co204 N207 2.121 . S
Co204 O212 2.055 . S
Co204 O215 2.039 . S
Co204 N218 2.140 . S
C205 O206 1.227 . S
C205 O215 1.265 . S
O206 C205 1.227 . S
N207 Co204 2.121 . S
N207 C209 1.375 . S
N207 C210 1.313 . S
C208 C209 1.338 . S
C208 N211 1.377 . S
C208 H228 0.930 . S
C209 N207 1.375 . S
C209 C208 1.338 . S
C209 H213 0.931 . S
C210 N207 1.313 . S
C210 N211 1.344 . S
C210 H214 0.930 . S
N211 C208 1.377 . S
N211 C210 1.344 . S
O212 Co204 2.055 . S
O212 C216 1.253 . S
H213 C209 0.931 . S
H214 C210 0.930 . S
O215 Co204 2.039 . S
O215 C205 1.265 . S
C216 O212 1.253 . S
C216 O217 1.227 . S
O217 C216 1.227 . S
N218 Co204 2.140 . S
N218 C221 1.346 . S
N218 C222 1.345 . S
C219 C220 1.387 . S
C219 C223 1.391 . S
C220 C219 1.387 . S
C220 C221 1.369 . S
C220 H229 0.929 . S
C221 N218 1.346 . S
C221 C220 1.369 . S
C221 H224 0.928 . S
C222 N218 1.345 . S
C222 C223 1.371 . S
C222 H225 0.931 . S
C223 C219 1.391 . S
C223 C222 1.371 . S
C223 H230 0.930 . S
H224 C221 0.928 . S
H225 C222 0.931 . S
H226 C202 0.930 . S
H227 C199 0.930 . S
H228 C208 0.930 . S
H229 C220 0.929 . S
H230 C223 0.930 . S
C231 C232 1.351 . S
C231 N234 1.368 . S
C231 H236 0.931 . S
C232 C231 1.351 . S
C232 N233 1.373 . S
C232 H260 0.930 . S
N233 C232 1.373 . S
N233 C235 1.340 . S
N234 C231 1.368 . S
N234 C235 1.321 . S
N234 Co237 2.135 . S
C235 N233 1.340 . S
C235 N234 1.321 . S
C235 H259 0.930 . S
H236 C231 0.931 . S
Co237 N234 2.135 . S
Co237 N240 2.121 . S
Co237 O245 2.055 . S
Co237 O248 2.039 . S
Co237 N251 2.140 . S
C238 O239 1.227 . S
C238 O248 1.265 . S
O239 C238 1.227 . S
N240 Co237 2.121 . S
N240 C242 1.375 . S
N240 C243 1.313 . S
C241 C242 1.338 . S
C241 N244 1.377 . S
C241 H261 0.930 . S
C242 N240 1.375 . S
C242 C241 1.338 . S
C242 H246 0.931 . S
C243 N240 1.313 . S
C243 N244 1.344 . S
C243 H247 0.930 . S
N244 C241 1.377 . S
N244 C243 1.344 . S
O245 Co237 2.055 . S
O245 C249 1.253 . S
H246 C242 0.931 . S
H247 C243 0.930 . S
O248 Co237 2.039 . S
O248 C238 1.265 . S
C249 O245 1.253 . S
C249 O250 1.227 . S
O250 C249 1.227 . S
N251 Co237 2.140 . S
N251 C254 1.346 . S
N251 C255 1.345 . S
C252 C253 1.387 . S
C252 C256 1.391 . S
C253 C252 1.387 . S
C253 C254 1.369 . S
C253 H262 0.929 . S
C254 N251 1.346 . S
C254 C253 1.369 . S
C254 H257 0.928 . S
C255 N251 1.345 . S
C255 C256 1.371 . S
C255 H258 0.931 . S
C256 C252 1.391 . S
C256 C255 1.371 . S
C256 H263 0.930 . S
H257 C254 0.928 . S
H258 C255 0.931 . S
H259 C235 0.930 . S
H260 C232 0.930 . S
H261 C241 0.930 . S
H262 C253 0.929 . S
H263 C256 0.930 . S
C264 C265 1.351 . S
C264 N267 1.368 . S
C264 H269 0.931 . S
C265 C264 1.351 . S
C265 N266 1.373 . S
C265 H293 0.930 . S
N266 C265 1.373 . S
N266 C268 1.340 . S
N267 C264 1.368 . S
N267 C268 1.321 . S
N267 Co270 2.135 . S
C268 N266 1.340 . S
C268 N267 1.321 . S
C268 H292 0.930 . S
H269 C264 0.931 . S
Co270 N267 2.135 . S
Co270 N273 2.121 . S
Co270 O278 2.055 . S
Co270 O281 2.039 . S
Co270 N284 2.140 . S
C271 O272 1.227 . S
C271 O281 1.265 . S
O272 C271 1.227 . S
N273 Co270 2.121 . S
N273 C275 1.375 . S
N273 C276 1.313 . S
C274 C275 1.338 . S
C274 N277 1.377 . S
C274 H294 0.930 . S
C275 N273 1.375 . S
C275 C274 1.338 . S
C275 H279 0.931 . S
C276 N273 1.313 . S
C276 N277 1.344 . S
C276 H280 0.930 . S
N277 C274 1.377 . S
N277 C276 1.344 . S
O278 Co270 2.055 . S
O278 C282 1.253 . S
H279 C275 0.931 . S
H280 C276 0.930 . S
O281 Co270 2.039 . S
O281 C271 1.265 . S
C282 O278 1.253 . S
C282 O283 1.227 . S
O283 C282 1.227 . S
N284 Co270 2.140 . S
N284 C287 1.346 . S
N284 C288 1.345 . S
C285 C286 1.387 . S
C285 C289 1.391 . S
C286 C285 1.387 . S
C286 C287 1.369 . S
C286 H295 0.929 . S
C287 N284 1.346 . S
C287 C286 1.369 . S
C287 H290 0.928 . S
C288 N284 1.345 . S
C288 C289 1.371 . S
C288 H291 0.931 . S
C289 C285 1.391 . S
C289 C288 1.371 . S
C289 H296 0.930 . S
H290 C287 0.928 . S
H291 C288 0.931 . S
H292 C268 0.930 . S
H293 C265 0.930 . S
H294 C274 0.930 . S
H295 C286 0.929 . S
H296 C289 0.930 . S
C297 C298 1.351 1_554 S
C297 N300 1.368 1_554 S
C297 H302 0.931 . S
C298 C297 1.351 1_556 S
C298 N299 1.373 . S
C298 H326 0.930 . S
N299 C298 1.373 . S
N299 C301 1.340 . S
N300 C297 1.368 1_556 S
N300 C301 1.321 . S
N300 Co303 2.135 1_556 S
C301 N299 1.340 . S
C301 N300 1.321 . S
C301 H325 0.930 . S
H302 C297 0.931 . S
Co303 N300 2.135 1_554 S
Co303 N306 2.121 . S
Co303 O311 2.055 . S
Co303 O314 2.039 1_554 S
Co303 N317 2.140 . S
C304 O305 1.227 . S
C304 O314 1.265 . S
O305 C304 1.227 . S
N306 Co303 2.121 . S
N306 C308 1.375 . S
N306 C309 1.313 . S
C307 C308 1.338 . S
C307 N310 1.377 . S
C307 H327 0.930 . S
C308 N306 1.375 . S
C308 C307 1.338 . S
C308 H312 0.931 . S
C309 N306 1.313 . S
C309 N310 1.344 . S
C309 H313 0.930 . S
N310 C307 1.377 . S
N310 C309 1.344 . S
O311 Co303 2.055 . S
O311 C315 1.253 . S
H312 C308 0.931 . S
H313 C309 0.930 . S
O314 Co303 2.039 1_556 S
O314 C304 1.265 . S
C315 O311 1.253 . S
C315 O316 1.227 . S
O316 C315 1.227 . S
N317 Co303 2.140 . S
N317 C320 1.346 1_554 S
N317 C321 1.345 . S
C318 C319 1.387 1_554 S
C318 C322 1.391 . S
C319 C318 1.387 1_556 S
C319 C320 1.369 . S
C319 H328 0.929 . S
C320 N317 1.346 1_556 S
C320 C319 1.369 . S
C320 H323 0.928 . S
C321 N317 1.345 . S
C321 C322 1.371 . S
C321 H324 0.931 . S
C322 C318 1.391 . S
C322 C321 1.371 . S
C322 H329 0.930 . S
H323 C320 0.928 . S
H324 C321 0.931 . S
H325 C301 0.930 . S
H326 C298 0.930 . S
H327 C307 0.930 . S
H328 C319 0.929 . S
H329 C322 0.930 . S
C330 C331 1.351 1_554 S
C330 N333 1.368 1_554 S
C330 H335 0.931 . S
C331 C330 1.351 1_556 S
C331 N332 1.373 . S
C331 H359 0.930 . S
N332 C331 1.373 . S
N332 C334 1.340 . S
N333 C330 1.368 1_556 S
N333 C334 1.321 . S
N333 Co336 2.135 1_556 S
C334 N332 1.340 . S
C334 N333 1.321 . S
C334 H358 0.930 . S
H335 C330 0.931 . S
Co336 N333 2.135 1_554 S
Co336 N339 2.121 . S
Co336 O344 2.055 . S
Co336 O347 2.039 1_554 S
Co336 N350 2.140 . S
C337 O338 1.227 . S
C337 O347 1.265 . S
O338 C337 1.227 . S
N339 Co336 2.121 . S
N339 C341 1.375 . S
N339 C342 1.313 . S
C340 C341 1.338 . S
C340 N343 1.377 . S
C340 H360 0.930 . S
C341 N339 1.375 . S
C341 C340 1.338 . S
C341 H345 0.931 . S
C342 N339 1.313 . S
C342 N343 1.344 . S
C342 H346 0.930 . S
N343 C340 1.377 . S
N343 C342 1.344 . S
O344 Co336 2.055 . S
O344 C348 1.253 . S
H345 C341 0.931 . S
H346 C342 0.930 . S
O347 Co336 2.039 1_556 S
O347 C337 1.265 . S
C348 O344 1.253 . S
C348 O349 1.227 . S
O349 C348 1.227 . S
N350 Co336 2.140 . S
N350 C353 1.346 1_554 S
N350 C354 1.345 . S
C351 C352 1.387 1_554 S
C351 C355 1.391 . S
C352 C351 1.387 1_556 S
C352 C353 1.369 . S
C352 H361 0.929 . S
C353 N350 1.346 1_556 S
C353 C352 1.369 . S
C353 H356 0.928 . S
C354 N350 1.345 . S
C354 C355 1.371 . S
C354 H357 0.931 . S
C355 C351 1.391 . S
C355 C354 1.371 . S
C355 H362 0.930 . S
H356 C353 0.928 . S
H357 C354 0.931 . S
H358 C334 0.930 . S
H359 C331 0.930 . S
H360 C340 0.930 . S
H361 C352 0.929 . S
H362 C355 0.930 . S
C363 C364 1.351 1_554 S
C363 N366 1.368 1_554 S
C363 H368 0.931 . S
C364 C363 1.351 1_556 S
C364 N365 1.373 . S
C364 H392 0.930 . S
N365 C364 1.373 . S
N365 C367 1.340 . S
N366 C363 1.368 1_556 S
N366 C367 1.321 . S
N366 Co369 2.135 1_556 S
C367 N365 1.340 . S
C367 N366 1.321 . S
C367 H391 0.930 . S
H368 C363 0.931 . S
Co369 N366 2.135 1_554 S
Co369 N372 2.121 . S
Co369 O377 2.055 . S
Co369 O380 2.039 1_554 S
Co369 N383 2.140 . S
C370 O371 1.227 . S
C370 O380 1.265 . S
O371 C370 1.227 . S
N372 Co369 2.121 . S
N372 C374 1.375 . S
N372 C375 1.313 . S
C373 C374 1.338 . S
C373 N376 1.377 . S
C373 H393 0.930 . S
C374 N372 1.375 . S
C374 C373 1.338 . S
C374 H378 0.931 . S
C375 N372 1.313 . S
C375 N376 1.344 . S
C375 H379 0.930 . S
N376 C373 1.377 . S
N376 C375 1.344 . S
O377 Co369 2.055 . S
O377 C381 1.253 . S
H378 C374 0.931 . S
H379 C375 0.930 . S
O380 Co369 2.039 1_556 S
O380 C370 1.265 . S
C381 O377 1.253 . S
C381 O382 1.227 . S
O382 C381 1.227 . S
N383 Co369 2.140 . S
N383 C386 1.346 1_554 S
N383 C387 1.345 . S
C384 C385 1.387 1_554 S
C384 C388 1.391 . S
C385 C384 1.387 1_556 S
C385 C386 1.369 . S
C385 H394 0.929 . S
C386 N383 1.346 1_556 S
C386 C385 1.369 . S
C386 H389 0.928 . S
C387 N383 1.345 . S
C387 C388 1.371 . S
C387 H390 0.931 . S
C388 C384 1.391 . S
C388 C387 1.371 . S
C388 H395 0.930 . S
H389 C386 0.928 . S
H390 C387 0.931 . S
H391 C367 0.930 . S
H392 C364 0.930 . S
H393 C373 0.930 . S
H394 C385 0.929 . S
H395 C388 0.930 . S
C396 C397 1.351 1_556 S
C396 N399 1.368 1_556 S
C396 H401 0.931 . S
C397 C396 1.351 1_554 S
C397 N398 1.373 . S
C397 H425 0.930 . S
N398 C397 1.373 . S
N398 C400 1.340 . S
N399 C396 1.368 1_554 S
N399 C400 1.321 . S
N399 Co402 2.135 1_554 S
C400 N398 1.340 . S
C400 N399 1.321 . S
C400 H424 0.930 . S
H401 C396 0.931 . S
Co402 N399 2.135 1_556 S
Co402 N405 2.121 . S
Co402 O410 2.055 . S
Co402 O413 2.039 1_556 S
Co402 N416 2.140 . S
C403 O404 1.227 . S
C403 O413 1.265 . S
O404 C403 1.227 . S
N405 Co402 2.121 . S
N405 C407 1.375 . S
N405 C408 1.313 . S
C406 C407 1.338 . S
C406 N409 1.377 . S
C406 H426 0.930 . S
C407 N405 1.375 . S
C407 C406 1.338 . S
C407 H411 0.931 . S
C408 N405 1.313 . S
C408 N409 1.344 . S
C408 H412 0.930 . S
N409 C406 1.377 . S
N409 C408 1.344 . S
O410 Co402 2.055 . S
O410 C414 1.253 . S
H411 C407 0.931 . S
H412 C408 0.930 . S
O413 Co402 2.039 1_554 S
O413 C403 1.265 . S
C414 O410 1.253 . S
C414 O415 1.227 . S
O415 C414 1.227 . S
N416 Co402 2.140 . S
N416 C419 1.346 1_556 S
N416 C420 1.345 . S
C417 C418 1.387 1_556 S
C417 C421 1.391 . S
C418 C417 1.387 1_554 S
C418 C419 1.369 . S
C418 H427 0.929 . S
C419 N416 1.346 1_554 S
C419 C418 1.369 . S
C419 H422 0.928 . S
C420 N416 1.345 . S
C420 C421 1.371 . S
C420 H423 0.931 . S
C421 C417 1.391 . S
C421 C420 1.371 . S
C421 H428 0.930 . S
H422 C419 0.928 . S
H423 C420 0.931 . S
H424 C400 0.930 . S
H425 C397 0.930 . S
H426 C406 0.930 . S
H427 C418 0.929 . S
H428 C421 0.930 . S
C429 C430 1.351 1_556 S
C429 N432 1.368 1_556 S
C429 H434 0.931 . S
C430 C429 1.351 1_554 S
C430 N431 1.373 . S
C430 H458 0.930 . S
N431 C430 1.373 . S
N431 C433 1.340 . S
N432 C429 1.368 1_554 S
N432 C433 1.321 . S
N432 Co435 2.135 1_554 S
C433 N431 1.340 . S
C433 N432 1.321 . S
C433 H457 0.930 . S
H434 C429 0.931 . S
Co435 N432 2.135 1_556 S
Co435 N438 2.121 . S
Co435 O443 2.055 . S
Co435 O446 2.039 1_556 S
Co435 N449 2.140 . S
C436 O437 1.227 . S
C436 O446 1.265 . S
O437 C436 1.227 . S
N438 Co435 2.121 . S
N438 C440 1.375 . S
N438 C441 1.313 . S
C439 C440 1.338 . S
C439 N442 1.377 . S
C439 H459 0.930 . S
C440 N438 1.375 . S
C440 C439 1.338 . S
C440 H444 0.931 . S
C441 N438 1.313 . S
C441 N442 1.344 . S
C441 H445 0.930 . S
N442 C439 1.377 . S
N442 C441 1.344 . S
O443 Co435 2.055 . S
O443 C447 1.253 . S
H444 C440 0.931 . S
H445 C441 0.930 . S
O446 Co435 2.039 1_554 S
O446 C436 1.265 . S
C447 O443 1.253 . S
C447 O448 1.227 . S
O448 C447 1.227 . S
N449 Co435 2.140 . S
N449 C452 1.346 1_556 S
N449 C453 1.345 . S
C450 C451 1.387 1_556 S
C450 C454 1.391 . S
C451 C450 1.387 1_554 S
C451 C452 1.369 . S
C451 H460 0.929 . S
C452 N449 1.346 1_554 S
C452 C451 1.369 . S
C452 H455 0.928 . S
C453 N449 1.345 . S
C453 C454 1.371 . S
C453 H456 0.931 . S
C454 C450 1.391 . S
C454 C453 1.371 . S
C454 H461 0.930 . S
H455 C452 0.928 . S
H456 C453 0.931 . S
H457 C433 0.930 . S
H458 C430 0.930 . S
H459 C439 0.930 . S
H460 C451 0.929 . S
H461 C454 0.930 . S
C462 C463 1.351 1_556 S
C462 N465 1.368 1_556 S
C462 H467 0.931 . S
C463 C462 1.351 1_554 S
C463 N464 1.373 . S
C463 H491 0.930 . S
N464 C463 1.373 . S
N464 C466 1.340 . S
N465 C462 1.368 1_554 S
N465 C466 1.321 . S
N465 Co468 2.135 1_554 S
C466 N464 1.340 . S
C466 N465 1.321 . S
C466 H490 0.930 . S
H467 C462 0.931 . S
Co468 N465 2.135 1_556 S
Co468 N471 2.121 . S
Co468 O476 2.055 . S
Co468 O479 2.039 1_556 S
Co468 N482 2.140 . S
C469 O470 1.227 . S
C469 O479 1.265 . S
O470 C469 1.227 . S
N471 Co468 2.121 . S
N471 C473 1.375 . S
N471 C474 1.313 . S
C472 C473 1.338 . S
C472 N475 1.377 . S
C472 H492 0.930 . S
C473 N471 1.375 . S
C473 C472 1.338 . S
C473 H477 0.931 . S
C474 N471 1.313 . S
C474 N475 1.344 . S
C474 H478 0.930 . S
N475 C472 1.377 . S
N475 C474 1.344 . S
O476 Co468 2.055 . S
O476 C480 1.253 . S
H477 C473 0.931 . S
H478 C474 0.930 . S
O479 Co468 2.039 1_554 S
O479 C469 1.265 . S
C480 O476 1.253 . S
C480 O481 1.227 . S
O481 C480 1.227 . S
N482 Co468 2.140 . S
N482 C485 1.346 1_556 S
N482 C486 1.345 . S
C483 C484 1.387 1_556 S
C483 C487 1.391 . S
C484 C483 1.387 1_554 S
C484 C485 1.369 . S
C484 H493 0.929 . S
C485 N482 1.346 1_554 S
C485 C484 1.369 . S
C485 H488 0.928 . S
C486 N482 1.345 . S
C486 C487 1.371 . S
C486 H489 0.931 . S
C487 C483 1.391 . S
C487 C486 1.371 . S
C487 H494 0.930 . S
H488 C485 0.928 . S
H489 C486 0.931 . S
H490 C466 0.930 . S
H491 C463 0.930 . S
H492 C472 0.930 . S
H493 C484 0.929 . S
H494 C487 0.930 . S
C495 C496 1.351 . S
C495 N498 1.368 . S
C495 H500 0.931 . S
C496 C495 1.351 . S
C496 N497 1.373 . S
C496 H524 0.930 . S
N497 C496 1.373 . S
N497 C499 1.340 . S
N498 C495 1.368 . S
N498 C499 1.321 . S
N498 Co501 2.135 . S
C499 N497 1.340 . S
C499 N498 1.321 . S
C499 H523 0.930 . S
H500 C495 0.931 . S
Co501 N498 2.135 . S
Co501 N504 2.121 . S
Co501 O509 2.055 . S
Co501 O512 2.039 . S
Co501 N515 2.140 . S
C502 O503 1.227 . S
C502 O512 1.265 . S
O503 C502 1.227 . S
N504 Co501 2.121 . S
N504 C506 1.375 . S
N504 C507 1.313 . S
C505 C506 1.338 . S
C505 N508 1.377 . S
C505 H525 0.930 . S
C506 N504 1.375 . S
C506 C505 1.338 . S
C506 H510 0.931 . S
C507 N504 1.313 . S
C507 N508 1.344 . S
C507 H511 0.930 . S
N508 C505 1.377 . S
N508 C507 1.344 . S
O509 Co501 2.055 . S
O509 C513 1.253 . S
H510 C506 0.931 . S
H511 C507 0.930 . S
O512 Co501 2.039 . S
O512 C502 1.265 . S
C513 O509 1.253 . S
C513 O514 1.227 . S
O514 C513 1.227 . S
N515 Co501 2.140 . S
N515 C518 1.346 . S
N515 C519 1.345 . S
C516 C517 1.387 . S
C516 C520 1.391 . S
C517 C516 1.387 . S
C517 C518 1.369 . S
C517 H526 0.929 . S
C518 N515 1.346 . S
C518 C517 1.369 . S
C518 H521 0.928 . S
C519 N515 1.345 . S
C519 C520 1.371 . S
C519 H522 0.931 . S
C520 C516 1.391 . S
C520 C519 1.371 . S
C520 H527 0.930 . S
H521 C518 0.928 . S
H522 C519 0.931 . S
H523 C499 0.930 . S
H524 C496 0.930 . S
H525 C505 0.930 . S
H526 C517 0.929 . S
H527 C520 0.930 . S
C528 C529 1.351 . S
C528 N531 1.368 . S
C528 H533 0.931 . S
C529 C528 1.351 . S
C529 N530 1.373 . S
C529 H557 0.930 . S
N530 C529 1.373 . S
N530 C532 1.340 . S
N531 C528 1.368 . S
N531 C532 1.321 . S
N531 Co534 2.135 . S
C532 N530 1.340 . S
C532 N531 1.321 . S
C532 H556 0.930 . S
H533 C528 0.931 . S
Co534 N531 2.135 . S
Co534 N537 2.121 . S
Co534 O542 2.055 . S
Co534 O545 2.039 . S
Co534 N548 2.140 . S
C535 O536 1.227 . S
C535 O545 1.265 . S
O536 C535 1.227 . S
N537 Co534 2.121 . S
N537 C539 1.375 . S
N537 C540 1.313 . S
C538 C539 1.338 . S
C538 N541 1.377 . S
C538 H558 0.930 . S
C539 N537 1.375 . S
C539 C538 1.338 . S
C539 H543 0.931 . S
C540 N537 1.313 . S
C540 N541 1.344 . S
C540 H544 0.930 . S
N541 C538 1.377 . S
N541 C540 1.344 . S
O542 Co534 2.055 . S
O542 C546 1.253 . S
H543 C539 0.931 . S
H544 C540 0.930 . S
O545 Co534 2.039 . S
O545 C535 1.265 . S
C546 O542 1.253 . S
C546 O547 1.227 . S
O547 C546 1.227 . S
N548 Co534 2.140 . S
N548 C551 1.346 . S
N548 C552 1.345 . S
C549 C550 1.387 . S
C549 C553 1.391 . S
C550 C549 1.387 . S
C550 C551 1.369 . S
C550 H559 0.929 . S
C551 N548 1.346 . S
C551 C550 1.369 . S
C551 H554 0.928 . S
C552 N548 1.345 . S
C552 C553 1.371 . S
C552 H555 0.931 . S
C553 C549 1.391 . S
C553 C552 1.371 . S
C553 H560 0.930 . S
H554 C551 0.928 . S
H555 C552 0.931 . S
H556 C532 0.930 . S
H557 C529 0.930 . S
H558 C538 0.930 . S
H559 C550 0.929 . S
H560 C553 0.930 . S
C561 C562 1.351 . S
C561 N564 1.368 . S
C561 H566 0.931 . S
C562 C561 1.351 . S
C562 N563 1.373 . S
C562 H590 0.930 . S
N563 C562 1.373 . S
N563 C565 1.340 . S
N564 C561 1.368 . S
N564 C565 1.321 . S
N564 Co567 2.135 . S
C565 N563 1.340 . S
C565 N564 1.321 . S
C565 H589 0.930 . S
H566 C561 0.931 . S
Co567 N564 2.135 . S
Co567 N570 2.121 . S
Co567 O575 2.055 . S
Co567 O578 2.039 . S
Co567 N581 2.140 . S
C568 O569 1.227 . S
C568 O578 1.265 . S
O569 C568 1.227 . S
N570 Co567 2.121 . S
N570 C572 1.375 . S
N570 C573 1.313 . S
C571 C572 1.338 . S
C571 N574 1.377 . S
C571 H591 0.930 . S
C572 N570 1.375 . S
C572 C571 1.338 . S
C572 H576 0.931 . S
C573 N570 1.313 . S
C573 N574 1.344 . S
C573 H577 0.930 . S
N574 C571 1.377 . S
N574 C573 1.344 . S
O575 Co567 2.055 . S
O575 C579 1.253 . S
H576 C572 0.931 . S
H577 C573 0.930 . S
O578 Co567 2.039 . S
O578 C568 1.265 . S
C579 O575 1.253 . S
C579 O580 1.227 . S
O580 C579 1.227 . S
N581 Co567 2.140 . S
N581 C584 1.346 . S
N581 C585 1.345 . S
C582 C583 1.387 . S
C582 C586 1.391 . S
C583 C582 1.387 . S
C583 C584 1.369 . S
C583 H592 0.929 . S
C584 N581 1.346 . S
C584 C583 1.369 . S
C584 H587 0.928 . S
C585 N581 1.345 . S
C585 C586 1.371 . S
C585 H588 0.931 . S
C586 C582 1.391 . S
C586 C585 1.371 . S
C586 H593 0.930 . S
H587 C584 0.928 . S
H588 C585 0.931 . S
H589 C565 0.930 . S
H590 C562 0.930 . S
H591 C571 0.930 . S
H592 C583 0.929 . S
H593 C586 0.930 . S
N112 N13 0.605 1_556 S
N145 N46 0.605 1_546 S
N79 N178 0.605 1_454 S
C51 C183 2.942 1_554 S
C117 C84 2.942 1_546 S
C150 C18 2.942 1_656 S
N211 N310 0.605 . S
N343 N244 0.605 . S
N277 N376 0.605 . S
C381 C249 2.942 . S
C315 C282 2.942 . S
C348 C216 2.942 . S
N508 N409 0.605 . S
N442 N541 0.605 . S
N574 N475 0.605 . S
C447 C579 2.942 . S
C513 C480 2.942 . S
C414 C546 2.942 . S
C582 C21 1.553 . S
C54 C516 1.553 . S
C549 C87 1.553 . S
C252 C120 1.553 . S
C153 C285 1.553 . S
C186 C219 1.553 . S
C450 C318 1.553 1_456 S
C483 C351 1.553 1_556 S
C384 C417 1.553 1_544 S
C7 C106 2.698 . S
C139 C40 2.698 1_545 S
C73 C172 2.698 1_455 S
N167 N35 0.115 . S
N68 N101 0.112 1_545 S
N134 N2 0.112 1_455 S
C205 C304 2.698 . S
C337 C238 2.698 . S
C370 C271 2.698 . S
N365 N233 0.115 . S
N299 N266 0.115 . S
N332 N200 0.115 . S
C502 C403 2.698 . S
C535 C436 2.698 . S
C568 C469 2.698 . S
N563 N431 0.115 . S
N497 N464 0.115 . S
N530 N398 0.115 . S
