# Generated by pormake.
# Topology ukr, (4)-cn, num edge types: 1
# Building blocks:
#     Node 0, Type 0, BuildingBlock: AZAVOO_clean_sbu_0, # of connection points: 4
#     Node 1, Type 0, BuildingBlock: AZAVOO_clean_sbu_0, # of connection points: 4
#     Node 2, Type 0, BuildingBlock: AZAVOO_clean_sbu_0, # of connection points: 4
#     Node 3, Type 0, BuildingBlock: AZAVOO_clean_sbu_0, # of connection points: 4
#     Node 4, Type 0, BuildingBlock: AZAVOO_clean_sbu_0, # of connection points: 4
#     Node 5, Type 0, BuildingBlock: AZAVOO_clean_sbu_0, # of connection points: 4
#     Node 6, Type 0, BuildingBlock: AZAVOO_clean_sbu_0, # of connection points: 4
#     Node 7, Type 0, BuildingBlock: AZAVOO_clean_sbu_0, # of connection points: 4
#     Node 8, Type 0, BuildingBlock: AZAVOO_clean_sbu_0, # of connection points: 4
#     Node 9, Type 0, BuildingBlock: AZAVOO_clean_sbu_0, # of connection points: 4
#     Node 10, Type 0, BuildingBlock: AZAVOO_clean_sbu_0, # of connection points: 4
#     Node 11, Type 0, BuildingBlock: AZAVOO_clean_sbu_0, # of connection points: 4
#     Node 12, Type 0, BuildingBlock: AZAVOO_clean_sbu_0, # of connection points: 4
#     Node 13, Type 0, BuildingBlock: AZAVOO_clean_sbu_0, # of connection points: 4
#     Node 14, Type 0, BuildingBlock: AZAVOO_clean_sbu_0, # of connection points: 4
#     Node 15, Type 0, BuildingBlock: AZAVOO_clean_sbu_0, # of connection points: 4
#     Node 16, Type 0, BuildingBlock: AZAVOO_clean_sbu_0, # of connection points: 4
#     Node 17, Type 0, BuildingBlock: AZAVOO_clean_sbu_0, # of connection points: 4
#     Node 18, Type 0, BuildingBlock: AZAVOO_clean_sbu_0, # of connection points: 4
#     Node 19, Type 0, BuildingBlock: AZAVOO_clean_sbu_0, # of connection points: 4
#     Node 20, Type 0, BuildingBlock: AZAVOO_clean_sbu_0, # of connection points: 4
#     Node 21, Type 0, BuildingBlock: AZAVOO_clean_sbu_0, # of connection points: 4
#     Node 22, Type 0, BuildingBlock: AZAVOO_clean_sbu_0, # of connection points: 4
#     Node 23, Type 0, BuildingBlock: AZAVOO_clean_sbu_0, # of connection points: 4
#     Node 24, Type 0, BuildingBlock: AZAVOO_clean_sbu_0, # of connection points: 4
#     Node 25, Type 0, BuildingBlock: AZAVOO_clean_sbu_0, # of connection points: 4
#     Node 26, Type 0, BuildingBlock: AZAVOO_clean_sbu_0, # of connection points: 4
#     Node 27, Type 0, BuildingBlock: AZAVOO_clean_sbu_0, # of connection points: 4
#     Node 28, Type 0, BuildingBlock: AZAVOO_clean_sbu_0, # of connection points: 4
#     Node 29, Type 0, BuildingBlock: AZAVOO_clean_sbu_0, # of connection points: 4
#     Node 30, Type 0, BuildingBlock: AZAVOO_clean_sbu_0, # of connection points: 4
#     Node 31, Type 0, BuildingBlock: AZAVOO_clean_sbu_0, # of connection points: 4
#     Node 32, Type 0, BuildingBlock: AZAVOO_clean_sbu_0, # of connection points: 4
#     Node 33, Type 0, BuildingBlock: AZAVOO_clean_sbu_0, # of connection points: 4
#     Node 34, Type 0, BuildingBlock: AZAVOO_clean_sbu_0, # of connection points: 4
#     Node 35, Type 0, BuildingBlock: AZAVOO_clean_sbu_0, # of connection points: 4
#     Node 36, Type 0, BuildingBlock: AZAVOO_clean_sbu_0, # of connection points: 4
#     Node 37, Type 0, BuildingBlock: AZAVOO_clean_sbu_0, # of connection points: 4
#     Node 38, Type 0, BuildingBlock: AZAVOO_clean_sbu_0, # of connection points: 4
#     Node 39, Type 0, BuildingBlock: AZAVOO_clean_sbu_0, # of connection points: 4
#     Node 40, Type 0, BuildingBlock: AZAVOO_clean_sbu_0, # of connection points: 4
#     Node 41, Type 0, BuildingBlock: AZAVOO_clean_sbu_0, # of connection points: 4
#     Node 42, Type 0, BuildingBlock: AZAVOO_clean_sbu_0, # of connection points: 4
#     Node 43, Type 0, BuildingBlock: AZAVOO_clean_sbu_0, # of connection points: 4
#     Node 44, Type 0, BuildingBlock: AZAVOO_clean_sbu_0, # of connection points: 4
#     Node 45, Type 0, BuildingBlock: AZAVOO_clean_sbu_0, # of connection points: 4
#     Node 46, Type 0, BuildingBlock: AZAVOO_clean_sbu_0, # of connection points: 4
#     Node 47, Type 0, BuildingBlock: AZAVOO_clean_sbu_0, # of connection points: 4
#     Edge 48, Type (0, 0), BuildingBlock: XIVTED_clean_linker_0, # of connection points: 2
#     Edge 49, Type (0, 0), BuildingBlock: XIVTED_clean_linker_0, # of connection points: 2
#     Edge 50, Type (0, 0), BuildingBlock: XIVTED_clean_linker_0, # of connection points: 2
#     Edge 51, Type (0, 0), BuildingBlock: XIVTED_clean_linker_0, # of connection points: 2
#     Edge 52, Type (0, 0), BuildingBlock: XIVTED_clean_linker_0, # of connection points: 2
#     Edge 53, Type (0, 0), BuildingBlock: XIVTED_clean_linker_0, # of connection points: 2
#     Edge 54, Type (0, 0), BuildingBlock: XIVTED_clean_linker_0, # of connection points: 2
#     Edge 55, Type (0, 0), BuildingBlock: XIVTED_clean_linker_0, # of connection points: 2
#     Edge 56, Type (0, 0), BuildingBlock: XIVTED_clean_linker_0, # of connection points: 2
#     Edge 57, Type (0, 0), BuildingBlock: XIVTED_clean_linker_0, # of connection points: 2
#     Edge 58, Type (0, 0), BuildingBlock: XIVTED_clean_linker_0, # of connection points: 2
#     Edge 59, Type (0, 0), BuildingBlock: XIVTED_clean_linker_0, # of connection points: 2
#     Edge 60, Type (0, 0), BuildingBlock: XIVTED_clean_linker_0, # of connection points: 2
#     Edge 61, Type (0, 0), BuildingBlock: XIVTED_clean_linker_0, # of connection points: 2
#     Edge 62, Type (0, 0), BuildingBlock: XIVTED_clean_linker_0, # of connection points: 2
#     Edge 63, Type (0, 0), BuildingBlock: XIVTED_clean_linker_0, # of connection points: 2
#     Edge 64, Type (0, 0), BuildingBlock: XIVTED_clean_linker_0, # of connection points: 2
#     Edge 65, Type (0, 0), BuildingBlock: XIVTED_clean_linker_0, # of connection points: 2
#     Edge 66, Type (0, 0), BuildingBlock: XIVTED_clean_linker_0, # of connection points: 2
#     Edge 67, Type (0, 0), BuildingBlock: XIVTED_clean_linker_0, # of connection points: 2
#     Edge 68, Type (0, 0), BuildingBlock: XIVTED_clean_linker_0, # of connection points: 2
#     Edge 69, Type (0, 0), BuildingBlock: XIVTED_clean_linker_0, # of connection points: 2
#     Edge 70, Type (0, 0), BuildingBlock: XIVTED_clean_linker_0, # of connection points: 2
#     Edge 71, Type (0, 0), BuildingBlock: XIVTED_clean_linker_0, # of connection points: 2
#     Edge 72, Type (0, 0), BuildingBlock: XIVTED_clean_linker_0, # of connection points: 2
#     Edge 73, Type (0, 0), BuildingBlock: XIVTED_clean_linker_0, # of connection points: 2
#     Edge 74, Type (0, 0), BuildingBlock: XIVTED_clean_linker_0, # of connection points: 2
#     Edge 75, Type (0, 0), BuildingBlock: XIVTED_clean_linker_0, # of connection points: 2
#     Edge 76, Type (0, 0), BuildingBlock: XIVTED_clean_linker_0, # of connection points: 2
#     Edge 77, Type (0, 0), BuildingBlock: XIVTED_clean_linker_0, # of connection points: 2
#     Edge 78, Type (0, 0), BuildingBlock: XIVTED_clean_linker_0, # of connection points: 2
#     Edge 79, Type (0, 0), BuildingBlock: XIVTED_clean_linker_0, # of connection points: 2
#     Edge 80, Type (0, 0), BuildingBlock: XIVTED_clean_linker_0, # of connection points: 2
#     Edge 81, Type (0, 0), BuildingBlock: XIVTED_clean_linker_0, # of connection points: 2
#     Edge 82, Type (0, 0), BuildingBlock: XIVTED_clean_linker_0, # of connection points: 2
#     Edge 83, Type (0, 0), BuildingBlock: XIVTED_clean_linker_0, # of connection points: 2
#     Edge 84, Type (0, 0), BuildingBlock: XIVTED_clean_linker_0, # of connection points: 2
#     Edge 85, Type (0, 0), BuildingBlock: XIVTED_clean_linker_0, # of connection points: 2
#     Edge 86, Type (0, 0), BuildingBlock: XIVTED_clean_linker_0, # of connection points: 2
#     Edge 87, Type (0, 0), BuildingBlock: XIVTED_clean_linker_0, # of connection points: 2
#     Edge 88, Type (0, 0), BuildingBlock: XIVTED_clean_linker_0, # of connection points: 2
#     Edge 89, Type (0, 0), BuildingBlock: XIVTED_clean_linker_0, # of connection points: 2
#     Edge 90, Type (0, 0), BuildingBlock: XIVTED_clean_linker_0, # of connection points: 2
#     Edge 91, Type (0, 0), BuildingBlock: XIVTED_clean_linker_0, # of connection points: 2
#     Edge 92, Type (0, 0), BuildingBlock: XIVTED_clean_linker_0, # of connection points: 2
#     Edge 93, Type (0, 0), BuildingBlock: XIVTED_clean_linker_0, # of connection points: 2
#     Edge 94, Type (0, 0), BuildingBlock: XIVTED_clean_linker_0, # of connection points: 2
#     Edge 95, Type (0, 0), BuildingBlock: XIVTED_clean_linker_0, # of connection points: 2
#     Edge 96, Type (0, 0), BuildingBlock: XIVTED_clean_linker_0, # of connection points: 2
#     Edge 97, Type (0, 0), BuildingBlock: XIVTED_clean_linker_0, # of connection points: 2
#     Edge 98, Type (0, 0), BuildingBlock: XIVTED_clean_linker_0, # of connection points: 2
#     Edge 99, Type (0, 0), BuildingBlock: XIVTED_clean_linker_0, # of connection points: 2
#     Edge 100, Type (0, 0), BuildingBlock: XIVTED_clean_linker_0, # of connection points: 2
#     Edge 101, Type (0, 0), BuildingBlock: XIVTED_clean_linker_0, # of connection points: 2
#     Edge 102, Type (0, 0), BuildingBlock: XIVTED_clean_linker_0, # of connection points: 2
#     Edge 103, Type (0, 0), BuildingBlock: XIVTED_clean_linker_0, # of connection points: 2
#     Edge 104, Type (0, 0), BuildingBlock: XIVTED_clean_linker_0, # of connection points: 2
#     Edge 105, Type (0, 0), BuildingBlock: XIVTED_clean_linker_0, # of connection points: 2
#     Edge 106, Type (0, 0), BuildingBlock: XIVTED_clean_linker_0, # of connection points: 2
#     Edge 107, Type (0, 0), BuildingBlock: XIVTED_clean_linker_0, # of connection points: 2
#     Edge 108, Type (0, 0), BuildingBlock: XIVTED_clean_linker_0, # of connection points: 2
#     Edge 109, Type (0, 0), BuildingBlock: XIVTED_clean_linker_0, # of connection points: 2
#     Edge 110, Type (0, 0), BuildingBlock: XIVTED_clean_linker_0, # of connection points: 2
#     Edge 111, Type (0, 0), BuildingBlock: XIVTED_clean_linker_0, # of connection points: 2
#     Edge 112, Type (0, 0), BuildingBlock: XIVTED_clean_linker_0, # of connection points: 2
#     Edge 113, Type (0, 0), BuildingBlock: XIVTED_clean_linker_0, # of connection points: 2
#     Edge 114, Type (0, 0), BuildingBlock: XIVTED_clean_linker_0, # of connection points: 2
#     Edge 115, Type (0, 0), BuildingBlock: XIVTED_clean_linker_0, # of connection points: 2
#     Edge 116, Type (0, 0), BuildingBlock: XIVTED_clean_linker_0, # of connection points: 2
#     Edge 117, Type (0, 0), BuildingBlock: XIVTED_clean_linker_0, # of connection points: 2
#     Edge 118, Type (0, 0), BuildingBlock: XIVTED_clean_linker_0, # of connection points: 2
#     Edge 119, Type (0, 0), BuildingBlock: XIVTED_clean_linker_0, # of connection points: 2
#     Edge 120, Type (0, 0), BuildingBlock: XIVTED_clean_linker_0, # of connection points: 2
#     Edge 121, Type (0, 0), BuildingBlock: XIVTED_clean_linker_0, # of connection points: 2
#     Edge 122, Type (0, 0), BuildingBlock: XIVTED_clean_linker_0, # of connection points: 2
#     Edge 123, Type (0, 0), BuildingBlock: XIVTED_clean_linker_0, # of connection points: 2
#     Edge 124, Type (0, 0), BuildingBlock: XIVTED_clean_linker_0, # of connection points: 2
#     Edge 125, Type (0, 0), BuildingBlock: XIVTED_clean_linker_0, # of connection points: 2
#     Edge 126, Type (0, 0), BuildingBlock: XIVTED_clean_linker_0, # of connection points: 2
#     Edge 127, Type (0, 0), BuildingBlock: XIVTED_clean_linker_0, # of connection points: 2
#     Edge 128, Type (0, 0), BuildingBlock: XIVTED_clean_linker_0, # of connection points: 2
#     Edge 129, Type (0, 0), BuildingBlock: XIVTED_clean_linker_0, # of connection points: 2
#     Edge 130, Type (0, 0), BuildingBlock: XIVTED_clean_linker_0, # of connection points: 2
#     Edge 131, Type (0, 0), BuildingBlock: XIVTED_clean_linker_0, # of connection points: 2
#     Edge 132, Type (0, 0), BuildingBlock: XIVTED_clean_linker_0, # of connection points: 2
#     Edge 133, Type (0, 0), BuildingBlock: XIVTED_clean_linker_0, # of connection points: 2
#     Edge 134, Type (0, 0), BuildingBlock: XIVTED_clean_linker_0, # of connection points: 2
#     Edge 135, Type (0, 0), BuildingBlock: XIVTED_clean_linker_0, # of connection points: 2
#     Edge 136, Type (0, 0), BuildingBlock: XIVTED_clean_linker_0, # of connection points: 2
#     Edge 137, Type (0, 0), BuildingBlock: XIVTED_clean_linker_0, # of connection points: 2
#     Edge 138, Type (0, 0), BuildingBlock: XIVTED_clean_linker_0, # of connection points: 2
#     Edge 139, Type (0, 0), BuildingBlock: XIVTED_clean_linker_0, # of connection points: 2
#     Edge 140, Type (0, 0), BuildingBlock: XIVTED_clean_linker_0, # of connection points: 2
#     Edge 141, Type (0, 0), BuildingBlock: XIVTED_clean_linker_0, # of connection points: 2
#     Edge 142, Type (0, 0), BuildingBlock: XIVTED_clean_linker_0, # of connection points: 2
#     Edge 143, Type (0, 0), BuildingBlock: XIVTED_clean_linker_0, # of connection points: 2
# Relax obj value: 0.367
# Max RMSD: 0.200
# Mean RMSD: 0.200
data_MOF--net-ukr--node1-AZAVOO_clean_sbu_0--edge1-XIVTED_clean_linker_0
_symmetry_space_group_name_H-M    P1
_symmetry_Int_Tables_number       1
_symmetry_cell_setting            triclinic
loop_
_symmetry_equiv_pos_as_xyz
'x, y, z'
_cell_length_a     68.056465
_cell_length_b     68.053884
_cell_length_c     68.040381
_cell_angle_alpha  89.983577
_cell_angle_beta   89.992492
_cell_angle_gamma 89.996586
loop_
_atom_site_label
_atom_site_type_symbol
_atom_site_fract_x
_atom_site_fract_y
_atom_site_fract_z
_atom_type_partial_charge
Mg0 Mg 0.1176 0.29282 0.1557 0.0
O1 O 0.12312 0.26756 0.17736 0.0
O2 O 0.15544 0.26599 0.18321 0.0
Mg3 Mg 0.17011 0.29222 0.16788 0.0
C4 C 0.13799 0.25942 0.18539 0.0
C5 C 0.07565 0.2734 0.15837 0.0
O6 O 0.0858 0.25768 0.15362 0.0
O7 O 0.11993 0.31488 0.1811 0.0
O8 O 0.15242 0.31411 0.18626 0.0
O9 O 0.12555 0.27194 0.13111 0.0
O10 O 0.14662 0.29148 0.14606 0.0
C11 C 0.13534 0.32092 0.18997 0.0
C12 C 0.14356 0.27734 0.13396 0.0
O13 O 0.08453 0.2897 0.16044 0.0
Mg14 Mg 0.20695 0.61869 0.65678 0.0
O15 O 0.23227 0.62433 0.67826 0.0
O16 O 0.23574 0.65686 0.68172 0.0
Mg17 Mg 0.21006 0.67171 0.6657 0.0
C18 C 0.24131 0.63925 0.68514 0.0
C19 C 0.22476 0.57654 0.66123 0.0
O20 O 0.24049 0.58625 0.65564 0.0
O21 O 0.18505 0.62356 0.68185 0.0
O22 O 0.18766 0.65613 0.68562 0.0
O23 O 0.2287 0.6236 0.63261 0.0
O24 O 0.21006 0.64703 0.64518 0.0
C25 C 0.18005 0.6396 0.69023 0.0
C26 C 0.22462 0.64211 0.63422 0.0
O27 O 0.20869 0.58581 0.66343 0.0
Mg28 Mg 0.88317 0.711 0.15303 0.0
O29 O 0.87796 0.73615 0.17489 0.0
O30 O 0.8454 0.74002 0.17801 0.0
Mg31 Mg 0.83013 0.71496 0.16148 0.0
C32 C 0.86304 0.74527 0.18173 0.0
C33 C 0.92683 0.7114 0.14393 0.0
O34 O 0.91821 0.71033 0.12668 0.0
O35 O 0.87774 0.6889 0.17783 0.0
O36 O 0.84516 0.69205 0.18119 0.0
O37 O 0.87885 0.73317 0.12912 0.0
O38 O 0.85501 0.71481 0.14132 0.0
C39 C 0.86149 0.68409 0.18591 0.0
C40 C 0.86027 0.72938 0.13053 0.0
O41 O 0.91614 0.71194 0.15924 0.0
Mg42 Mg 0.79111 0.38485 0.65048 0.0
O43 O 0.76725 0.37764 0.67319 0.0
O44 O 0.76395 0.34493 0.6747 0.0
Mg45 Mg 0.78869 0.33138 0.65624 0.0
C46 C 0.75865 0.36225 0.67962 0.0
C47 C 0.77346 0.42634 0.65931 0.0
O48 O 0.7573 0.41669 0.65502 0.0
O49 O 0.81451 0.37854 0.67372 0.0
O50 O 0.81206 0.34583 0.6759 0.0
O51 O 0.76787 0.38142 0.62753 0.0
O52 O 0.78732 0.35733 0.63737 0.0
C53 C 0.81993 0.3621 0.68097 0.0
C54 C 0.77204 0.36287 0.62775 0.0
O55 O 0.78977 0.41722 0.65921 0.0
Mg56 Mg 0.11703 0.71288 0.84728 0.0
O57 O 0.12418 0.73692 0.82488 0.0
O58 O 0.15647 0.73577 0.8187 0.0
Mg59 Mg 0.16996 0.7112 0.83744 0.0
C60 C 0.13946 0.74327 0.81604 0.0
C61 C 0.07284 0.70238 0.83933 0.0
O62 O 0.08009 0.68454 0.84073 0.0
O63 O 0.12006 0.68975 0.82285 0.0
O64 O 0.15274 0.68874 0.81928 0.0
O65 O 0.12368 0.73507 0.87047 0.0
O66 O 0.14564 0.71449 0.85823 0.0
C67 C 0.13555 0.68262 0.81497 0.0
C68 C 0.14186 0.72979 0.86865 0.0
O69 O 0.08433 0.717 0.84099 0.0
Mg70 Mg 0.79082 0.61586 0.34449 0.0
O71 O 0.76495 0.62137 0.32362 0.0
O72 O 0.76066 0.65386 0.32085 0.0
Mg73 Mg 0.78623 0.66898 0.33681 0.0
C74 C 0.75544 0.6362 0.31718 0.0
C75 C 0.77389 0.57348 0.33946 0.0
O76 O 0.75802 0.5828 0.3453 0.0
O77 O 0.81209 0.62184 0.3191 0.0
O78 O 0.80867 0.65443 0.31622 0.0
O79 O 0.76946 0.61979 0.36922 0.0
O80 O 0.78736 0.64383 0.35671 0.0
C81 C 0.81658 0.63821 0.31108 0.0
C82 C 0.77318 0.6384 0.36792 0.0
O83 O 0.78975 0.5831 0.33724 0.0
Mg84 Mg 0.884 0.29412 0.84209 0.0
O85 O 0.87838 0.2674 0.82237 0.0
O86 O 0.84603 0.26548 0.81671 0.0
Mg87 Mg 0.83144 0.29274 0.8302 0.0
C88 C 0.86348 0.25876 0.81495 0.0
C89 C 0.92612 0.27471 0.84055 0.0
O90 O 0.91614 0.25917 0.84616 0.0
O91 O 0.88158 0.31403 0.81497 0.0
O92 O 0.84908 0.31295 0.80989 0.0
O93 O 0.87612 0.27516 0.86822 0.0
O94 O 0.85505 0.29357 0.85187 0.0
C95 C 0.8662 0.3193 0.80559 0.0
C96 C 0.85811 0.28041 0.86502 0.0
O97 O 0.91706 0.29077 0.83754 0.0
Mg98 Mg 0.21022 0.38195 0.34549 0.0
O99 O 0.23444 0.37606 0.3228 0.0
O100 O 0.23571 0.34365 0.31733 0.0
Mg101 Mg 0.21007 0.32929 0.33393 0.0
C102 C 0.24218 0.36107 0.31462 0.0
C103 C 0.22974 0.42372 0.34155 0.0
O104 O 0.24554 0.41346 0.34575 0.0
O105 O 0.18712 0.37943 0.32104 0.0
O106 O 0.18758 0.34689 0.31616 0.0
O107 O 0.23211 0.37417 0.36926 0.0
O108 O 0.21185 0.35304 0.35541 0.0
C109 C 0.18069 0.36397 0.31255 0.0
C110 C 0.22649 0.35615 0.36687 0.0
O111 O 0.21329 0.41497 0.34024 0.0
Mg112 Mg 0.15505 0.11738 0.28851 0.0
O113 O 0.17842 0.12384 0.26502 0.0
O114 O 0.18123 0.15653 0.26235 0.0
Mg115 Mg 0.16306 0.17057 0.28702 0.0
C116 C 0.18553 0.13913 0.25677 0.0
C117 C 0.16191 0.07517 0.27118 0.0
O118 O 0.15734 0.08447 0.25489 0.0
O119 O 0.17804 0.12236 0.31242 0.0
O120 O 0.18162 0.15499 0.31062 0.0
O121 O 0.13265 0.12209 0.26492 0.0
O122 O 0.14316 0.14549 0.28485 0.0
C123 C 0.18583 0.13838 0.31831 0.0
C124 C 0.13352 0.14056 0.26938 0.0
O125 O 0.16258 0.08472 0.28722 0.0
Mg126 Mg 0.38412 0.65019 0.78818 0.0
O127 O 0.37829 0.67386 0.76498 0.0
O128 O 0.34607 0.68046 0.76501 0.0
Mg129 Mg 0.33133 0.66075 0.78812 0.0
C130 C 0.36342 0.68318 0.75837 0.0
C131 C 0.42606 0.65628 0.76998 0.0
O132 O 0.41618 0.65272 0.75378 0.0
O133 O 0.38041 0.67317 0.81262 0.0
O134 O 0.34778 0.67723 0.81237 0.0
O135 O 0.37803 0.62822 0.76451 0.0
O136 O 0.3555 0.63977 0.78489 0.0
C137 C 0.36473 0.68084 0.81955 0.0
C138 C 0.3597 0.62994 0.76932 0.0
O139 O 0.417 0.65645 0.78632 0.0
Mg140 Mg 0.84455 0.88583 0.28672 0.0
O141 O 0.82199 0.88077 0.26224 0.0
O142 O 0.81542 0.84854 0.26132 0.0
Mg143 Mg 0.83424 0.83303 0.28462 0.0
C144 C 0.81293 0.86605 0.25498 0.0
C145 C 0.84069 0.92839 0.26963 0.0
O146 O 0.84581 0.91895 0.25358 0.0
O147 O 0.82027 0.88133 0.30979 0.0
O148 O 0.81657 0.84866 0.30857 0.0
O149 O 0.86779 0.88051 0.26408 0.0
O150 O 0.85519 0.85734 0.28305 0.0
C151 C 0.81244 0.8654 0.31595 0.0
C152 C 0.86586 0.86203 0.26819 0.0
O153 O 0.83859 0.91881 0.28554 0.0
Mg154 Mg 0.61809 0.34659 0.78858 0.0
O155 O 0.62235 0.3218 0.76609 0.0
O156 O 0.65437 0.31419 0.76622 0.0
Mg157 Mg 0.67045 0.33422 0.78804 0.0
C158 C 0.63689 0.31171 0.75982 0.0
C159 C 0.57516 0.3545 0.7982 0.0
O160 O 0.58482 0.36804 0.80801 0.0
O161 O 0.62142 0.32444 0.81387 0.0
O162 O 0.65393 0.31951 0.8134 0.0
O163 O 0.62435 0.36756 0.76405 0.0
O164 O 0.64698 0.35577 0.78416 0.0
C165 C 0.63699 0.3167 0.82097 0.0
C166 C 0.64274 0.36534 0.76844 0.0
O167 O 0.58485 0.34223 0.788 0.0
Mg168 Mg 0.15904 0.88702 0.71102 0.0
O169 O 0.1827 0.88263 0.73473 0.0
O170 O 0.19254 0.85129 0.73267 0.0
Mg171 Mg 0.17449 0.83548 0.70903 0.0
C172 C 0.19352 0.86837 0.74041 0.0
C173 C 0.14604 0.93017 0.71159 0.0
O174 O 0.12955 0.92071 0.70821 0.0
O175 O 0.18283 0.88654 0.68696 0.0
O176 O 0.18912 0.85429 0.68551 0.0
O177 O 0.13647 0.87769 0.73337 0.0
O178 O 0.15142 0.85748 0.71293 0.0
C179 C 0.19145 0.87178 0.67918 0.0
C180 C 0.14012 0.85984 0.72787 0.0
O181 O 0.16171 0.9203 0.71393 0.0
Mg182 Mg 0.61546 0.65295 0.21378 0.0
O183 O 0.62241 0.67554 0.23788 0.0
O184 O 0.65512 0.67699 0.24117 0.0
Mg185 Mg 0.66892 0.65863 0.21649 0.0
C186 C 0.6378 0.68186 0.24656 0.0
C187 C 0.57356 0.6611 0.23086 0.0
O188 O 0.58284 0.65622 0.24707 0.0
O189 O 0.62192 0.67615 0.19032 0.0
O190 O 0.65465 0.67804 0.19282 0.0
O191 O 0.61878 0.62996 0.23704 0.0
O192 O 0.64295 0.63983 0.2177 0.0
C193 C 0.63845 0.68316 0.18484 0.0
C194 C 0.63736 0.63019 0.23294 0.0
O195 O 0.58306 0.66164 0.21477 0.0
Mg196 Mg 0.84845 0.11671 0.71192 0.0
O197 O 0.82447 0.12364 0.7346 0.0
O198 O 0.81979 0.1562 0.73443 0.0
Mg199 Mg 0.84074 0.16999 0.71189 0.0
C200 C 0.81587 0.13904 0.74098 0.0
C201 C 0.84106 0.0748 0.72962 0.0
O202 O 0.84497 0.08444 0.74588 0.0
O203 O 0.82624 0.12168 0.68697 0.0
O204 O 0.82392 0.15448 0.68725 0.0
O205 O 0.87014 0.12152 0.73613 0.0
O206 O 0.86025 0.14473 0.71566 0.0
C207 C 0.81956 0.13776 0.67993 0.0
C208 C 0.86947 0.13994 0.73143 0.0
O209 O 0.84085 0.08406 0.71338 0.0
Mg210 Mg 0.38404 0.34543 0.20908 0.0
O211 O 0.37898 0.32205 0.23276 0.0
O212 O 0.34688 0.31482 0.233 0.0
Mg213 Mg 0.33149 0.33374 0.20972 0.0
C214 C 0.36433 0.31253 0.23957 0.0
C215 C 0.42629 0.34123 0.22699 0.0
O216 O 0.41638 0.34511 0.24311 0.0
O217 O 0.3807 0.32175 0.18527 0.0
O218 O 0.34816 0.31697 0.18578 0.0
O219 O 0.37769 0.36776 0.23233 0.0
O220 O 0.35518 0.35528 0.21252 0.0
C221 C 0.36517 0.31353 0.17865 0.0
C222 C 0.35934 0.3655 0.22785 0.0
O223 O 0.41713 0.34011 0.21075 0.0
Mg224 Mg 0.29131 0.15785 0.11543 0.0
O225 O 0.26676 0.18043 0.11989 0.0
O226 O 0.266 0.18819 0.15186 0.0
Mg227 Mg 0.28964 0.17018 0.16781 0.0
C228 C 0.25951 0.18996 0.13432 0.0
C229 C 0.27395 0.16109 0.07278 0.0
O230 O 0.25776 0.15669 0.08235 0.0
O231 O 0.31434 0.18231 0.11878 0.0
O232 O 0.31339 0.18736 0.15127 0.0
O233 O 0.26879 0.13477 0.1218 0.0
O234 O 0.28789 0.14825 0.14435 0.0
C235 C 0.3206 0.19082 0.1343 0.0
C236 C 0.27303 0.13737 0.14017 0.0
O237 O 0.28994 0.16282 0.08228 0.0
Mg238 Mg 0.29677 0.83997 0.882 0.0
O239 O 0.27096 0.81893 0.87702 0.0
O240 O 0.26896 0.81251 0.84481 0.0
Mg241 Mg 0.29547 0.82689 0.82969 0.0
C242 C 0.26253 0.81081 0.86237 0.0
C243 C 0.27732 0.83873 0.92392 0.0
O244 O 0.26183 0.84375 0.91354 0.0
O245 O 0.31795 0.81379 0.88001 0.0
O246 O 0.31684 0.80805 0.84762 0.0
O247 O 0.27666 0.86511 0.87377 0.0
O248 O 0.29547 0.84915 0.85278 0.0
C249 C 0.32358 0.80441 0.86474 0.0
C250 C 0.28182 0.86182 0.85575 0.0
O251 O 0.2936 0.83595 0.91519 0.0
Mg252 Mg 0.65804 0.78877 0.38465 0.0
O253 O 0.67965 0.76351 0.37888 0.0
O254 O 0.6825 0.76001 0.34628 0.0
Mg255 Mg 0.66595 0.78537 0.33147 0.0
C256 C 0.68629 0.75449 0.36382 0.0
C257 C 0.66244 0.77196 0.4273 0.0
O258 O 0.65621 0.75612 0.41819 0.0
O259 O 0.68276 0.81091 0.37909 0.0
O260 O 0.68581 0.80821 0.34644 0.0
O261 O 0.63396 0.76675 0.38034 0.0
O262 O 0.64599 0.78533 0.35657 0.0
C263 C 0.69067 0.81597 0.36283 0.0
C264 C 0.63521 0.77074 0.36178 0.0
O265 O 0.66515 0.78761 0.41745 0.0
Mg266 Mg 0.7094 0.16212 0.88364 0.0
O267 O 0.73435 0.18461 0.88059 0.0
O268 O 0.73346 0.19581 0.84965 0.0
Mg269 Mg 0.70936 0.17955 0.83265 0.0
C270 C 0.74085 0.1957 0.86692 0.0
C271 C 0.72729 0.15947 0.92645 0.0
O272 O 0.7429 0.15375 0.91663 0.0
O273 O 0.68668 0.18727 0.88347 0.0
O274 O 0.68621 0.19483 0.85145 0.0
O275 O 0.73068 0.13866 0.87382 0.0
O276 O 0.71152 0.15546 0.85384 0.0
C277 C 0.6797 0.19687 0.86891 0.0
C278 C 0.72572 0.14321 0.85602 0.0
O279 O 0.71174 0.16388 0.91708 0.0
Mg280 Mg 0.34446 0.20621 0.381 0.0
O281 O 0.32279 0.23194 0.3781 0.0
O282 O 0.312 0.23187 0.347 0.0
Mg283 Mg 0.32762 0.20744 0.32984 0.0
C284 C 0.31211 0.239 0.36437 0.0
C285 C 0.34259 0.22287 0.42505 0.0
O286 O 0.34379 0.24021 0.41664 0.0
O287 O 0.31852 0.18453 0.38024 0.0
O288 O 0.31112 0.18477 0.34817 0.0
O289 O 0.36868 0.22691 0.37161 0.0
O290 O 0.35138 0.20843 0.35141 0.0
C291 C 0.30869 0.17818 0.36555 0.0
C292 C 0.36407 0.22217 0.35376 0.0
O293 O 0.34259 0.20749 0.41445 0.0
Mg294 Mg 0.70708 0.84181 0.11608 0.0
O295 O 0.73346 0.82136 0.12075 0.0
O296 O 0.73626 0.81548 0.15301 0.0
Mg297 Mg 0.70983 0.82953 0.16854 0.0
C298 C 0.74237 0.81365 0.13535 0.0
C299 C 0.72517 0.84135 0.07353 0.0
O300 O 0.74058 0.84772 0.08325 0.0
O301 O 0.68646 0.81525 0.11897 0.0
O302 O 0.68851 0.81001 0.15141 0.0
O303 O 0.72695 0.86736 0.12353 0.0
O304 O 0.70881 0.85139 0.1451 0.0
C305 C 0.68143 0.80599 0.13452 0.0
C306 C 0.72226 0.86417 0.14169 0.0
O307 O 0.70949 0.83744 0.08289 0.0
Mg308 Mg 0.6608 0.20857 0.61749 0.0
O309 O 0.68129 0.23508 0.62114 0.0
O310 O 0.68903 0.23756 0.65302 0.0
Mg311 Mg 0.67597 0.21101 0.66918 0.0
C312 C 0.68979 0.24388 0.63535 0.0
C313 C 0.65956 0.19609 0.5739 0.0
O314 O 0.65462 0.17976 0.58297 0.0
O315 O 0.68751 0.18796 0.61873 0.0
O316 O 0.69442 0.18965 0.65088 0.0
O317 O 0.6355 0.22814 0.62645 0.0
O318 O 0.65279 0.21007 0.64704 0.0
C319 C 0.69753 0.18272 0.63372 0.0
C320 C 0.63965 0.22334 0.64439 0.0
O321 O 0.66332 0.21126 0.58412 0.0
Mg322 Mg 0.34193 0.79147 0.61838 0.0
O323 O 0.3188 0.76735 0.62323 0.0
O324 O 0.31214 0.76617 0.65543 0.0
Mg325 Mg 0.32837 0.79153 0.67056 0.0
C326 C 0.31005 0.75967 0.63794 0.0
C327 C 0.33908 0.77253 0.5762 0.0
O328 O 0.34272 0.75648 0.58631 0.0
O329 O 0.31785 0.81498 0.62012 0.0
O330 O 0.31183 0.81459 0.65246 0.0
O331 O 0.36515 0.76929 0.6267 0.0
O332 O 0.35079 0.78937 0.64768 0.0
C333 C 0.309 0.82161 0.63529 0.0
C334 C 0.36216 0.7746 0.64473 0.0
O335 O 0.33778 0.78885 0.58519 0.0
Mg336 Mg 0.8831 0.70812 0.84685 0.0
O337 O 0.87864 0.73421 0.82589 0.0
O338 O 0.84624 0.73933 0.8231 0.0
Mg339 Mg 0.83024 0.71424 0.83892 0.0
C340 C 0.86403 0.7441 0.81946 0.0
C341 C 0.92696 0.72234 0.84072 0.0
O342 O 0.91935 0.73943 0.84549 0.0
O343 O 0.87657 0.6872 0.82146 0.0
O344 O 0.84414 0.69155 0.81809 0.0
O345 O 0.87986 0.72961 0.87155 0.0
O346 O 0.85528 0.71255 0.85891 0.0
C347 C 0.86023 0.68327 0.81312 0.0
C348 C 0.86114 0.72651 0.87018 0.0
O349 O 0.91584 0.70736 0.8397 0.0
Mg350 Mg 0.79045 0.38386 0.34287 0.0
O351 O 0.76502 0.3788 0.32138 0.0
O352 O 0.76113 0.34638 0.31746 0.0
Mg353 Mg 0.7866 0.33099 0.33335 0.0
C354 C 0.75579 0.3641 0.31429 0.0
C355 C 0.77312 0.42618 0.33867 0.0
O356 O 0.75723 0.41651 0.34387 0.0
O357 O 0.81225 0.37897 0.31772 0.0
O358 O 0.80928 0.34646 0.31365 0.0
O359 O 0.76875 0.37893 0.36711 0.0
O360 O 0.78703 0.35544 0.35413 0.0
C361 C 0.81709 0.36296 0.30922 0.0
C362 C 0.77264 0.3604 0.36531 0.0
O363 O 0.78916 0.41682 0.33662 0.0
Mg364 Mg 0.11534 0.28929 0.85062 0.0
O365 O 0.12201 0.26585 0.82732 0.0
O366 O 0.1547 0.26303 0.82473 0.0
Mg367 Mg 0.16865 0.28752 0.84321 0.0
C368 C 0.1373 0.25757 0.82027 0.0
C369 C 0.07335 0.27174 0.84397 0.0
O370 O 0.08282 0.25569 0.84901 0.0
O371 O 0.12071 0.31316 0.82758 0.0
O372 O 0.15339 0.31114 0.82452 0.0
O373 O 0.11974 0.26569 0.87306 0.0
O374 O 0.1433 0.28556 0.86279 0.0
C375 C 0.13691 0.31893 0.82003 0.0
C376 C 0.13824 0.27006 0.87232 0.0
O377 O 0.08274 0.28786 0.84284 0.0
Mg378 Mg 0.21594 0.61315 0.34949 0.0
O379 O 0.23951 0.62048 0.3264 0.0
O380 O 0.24244 0.65325 0.32533 0.0
Mg381 Mg 0.21814 0.66671 0.34439 0.0
C382 C 0.24788 0.63605 0.3201 0.0
C383 C 0.23268 0.57096 0.34192 0.0
O384 O 0.24885 0.57993 0.34746 0.0
O385 O 0.19192 0.61974 0.32687 0.0
O386 O 0.19418 0.6525 0.32536 0.0
O387 O 0.23966 0.6164 0.37202 0.0
O388 O 0.21997 0.64053 0.3628 0.0
C389 C 0.18618 0.63632 0.3202 0.0
C390 C 0.23545 0.63495 0.37206 0.0
O391 O 0.21684 0.58078 0.34063 0.0
Mg392 Mg 0.88578 0.28905 0.15452 0.0
O393 O 0.87984 0.26504 0.17739 0.0
O394 O 0.84744 0.26475 0.18319 0.0
Mg395 Mg 0.83275 0.28808 0.1638 0.0
C396 C 0.86477 0.25817 0.18621 0.0
C397 C 0.92828 0.27169 0.15911 0.0
O398 O 0.91894 0.25564 0.15385 0.0
O399 O 0.88123 0.31247 0.17841 0.0
O400 O 0.84851 0.31182 0.18165 0.0
O401 O 0.88055 0.2661 0.13159 0.0
O402 O 0.85744 0.28564 0.14338 0.0
C403 C 0.86531 0.31893 0.186 0.0
C404 C 0.86211 0.2705 0.13311 0.0
O405 O 0.91865 0.28758 0.16108 0.0
Mg406 Mg 0.2063 0.38663 0.66191 0.0
O407 O 0.23233 0.38144 0.68273 0.0
O408 O 0.23479 0.34904 0.68796 0.0
Mg409 Mg 0.20843 0.33399 0.67332 0.0
C410 C 0.24101 0.3666 0.69025 0.0
C411 C 0.22446 0.42917 0.6637 0.0
O412 O 0.24015 0.41955 0.65786 0.0
O413 O 0.18534 0.38346 0.68812 0.0
O414 O 0.18703 0.35095 0.69296 0.0
O415 O 0.22658 0.37963 0.63659 0.0
O416 O 0.20812 0.35779 0.65183 0.0
C417 C 0.18008 0.36786 0.69715 0.0
C418 C 0.22185 0.36142 0.63941 0.0
O419 O 0.20865 0.41974 0.66685 0.0
Mg420 Mg 0.11734 0.70898 0.1635 0.0
O421 O 0.12114 0.73581 0.18361 0.0
O422 O 0.1532 0.73859 0.19051 0.0
Mg423 Mg 0.16931 0.71201 0.17756 0.0
C424 C 0.13552 0.74482 0.19162 0.0
C425 C 0.07436 0.71083 0.15024 0.0
O426 O 0.08407 0.70909 0.13364 0.0
O427 O 0.11923 0.68872 0.19045 0.0
O428 O 0.1515 0.69082 0.19663 0.0
O429 O 0.12561 0.72835 0.13782 0.0
O430 O 0.14671 0.71066 0.1549 0.0
C431 C 0.13449 0.68377 0.2002 0.0
C432 C 0.14367 0.72379 0.1417 0.0
O433 O 0.08398 0.71144 0.16623 0.0
Mg434 Mg 0.79101 0.61539 0.65357 0.0
O435 O 0.76548 0.62178 0.67462 0.0
O436 O 0.76167 0.6544 0.67669 0.0
Mg437 Mg 0.78739 0.6687 0.66024 0.0
C438 C 0.75628 0.6369 0.68083 0.0
C439 C 0.7736 0.57332 0.6606 0.0
O440 O 0.75744 0.58263 0.6556 0.0
O441 O 0.81239 0.62149 0.67871 0.0
O442 O 0.80941 0.65414 0.68131 0.0
O443 O 0.76946 0.61908 0.62902 0.0
O444 O 0.78781 0.64314 0.64083 0.0
C445 C 0.81702 0.63784 0.68666 0.0
C446 C 0.77339 0.63766 0.62994 0.0
O447 O 0.78965 0.58283 0.66152 0.0
Mg448 Mg 0.85001 0.88541 0.71482 0.0
O449 O 0.82611 0.87963 0.73783 0.0
O450 O 0.82026 0.84727 0.7384 0.0
Mg451 Mg 0.84067 0.83239 0.71602 0.0
C452 C 0.81702 0.86469 0.74461 0.0
C453 C 0.84292 0.92762 0.73193 0.0
O454 O 0.84626 0.91808 0.74838 0.0
O455 O 0.82747 0.88057 0.69015 0.0
O456 O 0.82421 0.84786 0.6911 0.0
O457 O 0.87183 0.88039 0.73891 0.0
O458 O 0.86101 0.85711 0.719 0.0
C459 C 0.82029 0.86455 0.68347 0.0
C460 C 0.87058 0.86191 0.73456 0.0
O461 O 0.84314 0.91824 0.71577 0.0
Mg462 Mg 0.61593 0.34876 0.21026 0.0
O463 O 0.62174 0.3264 0.23486 0.0
O464 O 0.6543 0.32375 0.23873 0.0
Mg465 Mg 0.66911 0.34118 0.21395 0.0
C466 C 0.63672 0.31963 0.24389 0.0
C467 C 0.5736 0.34257 0.22701 0.0
O468 O 0.58287 0.34761 0.24318 0.0
O469 O 0.6219 0.32486 0.18737 0.0
O470 O 0.65451 0.32187 0.19043 0.0
O471 O 0.6198 0.3721 0.23309 0.0
O472 O 0.64384 0.36095 0.21431 0.0
C473 C 0.63825 0.31717 0.18229 0.0
C474 C 0.6384 0.37114 0.22923 0.0
O475 O 0.58324 0.34125 0.21106 0.0
Mg476 Mg 0.15649 0.12114 0.70957 0.0
O477 O 0.17934 0.1261 0.73398 0.0
O478 O 0.18274 0.15865 0.73756 0.0
Mg479 Mg 0.16544 0.1741 0.71313 0.0
C480 C 0.18652 0.14103 0.74282 0.0
C481 C 0.14686 0.07778 0.70868 0.0
O482 O 0.12991 0.08681 0.70663 0.0
O483 O 0.1802 0.12639 0.68622 0.0
O484 O 0.18373 0.15896 0.68911 0.0
O485 O 0.13356 0.12547 0.73266 0.0
O486 O 0.1451 0.14938 0.71395 0.0
C487 C 0.18798 0.14262 0.68088 0.0
C488 C 0.13494 0.14407 0.72896 0.0
O489 O 0.16233 0.08813 0.71024 0.0
Mg490 Mg 0.38422 0.65987 0.21083 0.0
O491 O 0.37913 0.68101 0.23655 0.0
O492 O 0.3467 0.6845 0.24075 0.0
Mg493 Mg 0.33128 0.66876 0.21521 0.0
C494 C 0.36442 0.6878 0.24599 0.0
C495 C 0.42648 0.66462 0.22806 0.0
O496 O 0.41684 0.65953 0.244 0.0
O497 O 0.37889 0.68516 0.1893 0.0
O498 O 0.34635 0.6888 0.19254 0.0
O499 O 0.37976 0.63536 0.23232 0.0
O500 O 0.35596 0.64826 0.21438 0.0
C501 C 0.36273 0.6935 0.18464 0.0
C502 C 0.36118 0.637 0.22861 0.0
O503 O 0.41712 0.66643 0.21198 0.0
Mg504 Mg 0.83972 0.11794 0.29282 0.0
O505 O 0.81797 0.12259 0.26747 0.0
O506 O 0.80863 0.15412 0.26835 0.0
Mg507 Mg 0.82527 0.16983 0.29308 0.0
C508 C 0.80787 0.13694 0.26082 0.0
C509 C 0.83904 0.07576 0.27373 0.0
O510 O 0.84384 0.0859 0.25801 0.0
O511 O 0.81405 0.11926 0.31487 0.0
O512 O 0.80821 0.15164 0.31545 0.0
O513 O 0.86409 0.12665 0.27211 0.0
O514 O 0.84808 0.14728 0.2913 0.0
C515 C 0.80502 0.13426 0.32169 0.0
C516 C 0.86041 0.1446 0.27726 0.0
O517 O 0.83628 0.08473 0.28988 0.0
Mg518 Mg 0.38399 0.34834 0.79238 0.0
O519 O 0.37878 0.32565 0.76804 0.0
O520 O 0.34657 0.31886 0.7678 0.0
Mg521 Mg 0.33129 0.33745 0.79138 0.0
C522 C 0.36396 0.31645 0.76112 0.0
C523 C 0.42754 0.35538 0.80018 0.0
O524 O 0.41871 0.3695 0.80996 0.0
O525 O 0.38029 0.32398 0.81546 0.0
O526 O 0.34767 0.31981 0.81486 0.0
O527 O 0.37804 0.37145 0.7698 0.0
O528 O 0.35532 0.35862 0.78916 0.0
C529 C 0.36462 0.31586 0.82187 0.0
C530 C 0.35966 0.36932 0.7742 0.0
O531 O 0.41706 0.34312 0.79077 0.0
Mg532 Mg 0.1566 0.88636 0.28999 0.0
O533 O 0.17721 0.87969 0.26416 0.0
O534 O 0.17887 0.84704 0.26049 0.0
Mg535 Mg 0.16253 0.83294 0.2864 0.0
C536 C 0.18311 0.86447 0.25492 0.0
C537 C 0.16313 0.92804 0.27199 0.0
O538 O 0.15758 0.91834 0.25625 0.0
O539 O 0.18188 0.87998 0.31125 0.0
O540 O 0.18373 0.84725 0.30843 0.0
O541 O 0.1317 0.88288 0.2688 0.0
O542 O 0.14346 0.85873 0.28706 0.0
C543 C 0.18944 0.86345 0.31599 0.0
C544 C 0.13242 0.8643 0.27279 0.0
O545 O 0.16473 0.91888 0.28821 0.0
Mg546 Mg 0.61552 0.6541 0.78676 0.0
O547 O 0.62156 0.6782 0.76394 0.0
O548 O 0.654 0.68372 0.76384 0.0
Mg549 Mg 0.6686 0.66301 0.78609 0.0
C550 C 0.63668 0.68721 0.75745 0.0
C551 C 0.57324 0.66017 0.76966 0.0
O552 O 0.58273 0.65613 0.75333 0.0
O553 O 0.62031 0.67641 0.81165 0.0
O554 O 0.65306 0.67932 0.81105 0.0
O555 O 0.62048 0.63244 0.76256 0.0
O556 O 0.64375 0.64295 0.78264 0.0
C557 C 0.63635 0.68334 0.81855 0.0
C558 C 0.63895 0.63356 0.76698 0.0
O559 O 0.58273 0.66093 0.78573 0.0
Mg560 Mg 0.7089 0.84006 0.88333 0.0
O561 O 0.735 0.81905 0.87952 0.0
O562 O 0.73763 0.81192 0.84751 0.0
Mg563 Mg 0.71144 0.82574 0.8314 0.0
C564 C 0.74378 0.8107 0.8652 0.0
C565 C 0.72692 0.84057 0.92595 0.0
O566 O 0.74252 0.84623 0.91607 0.0
O567 O 0.68771 0.81386 0.88145 0.0
O568 O 0.68955 0.80743 0.84921 0.0
O569 O 0.72916 0.86502 0.875 0.0
O570 O 0.71089 0.84856 0.85394 0.0
C571 C 0.68239 0.8042 0.86625 0.0
C572 C 0.7245 0.86126 0.85694 0.0
O573 O 0.71115 0.83681 0.91667 0.0
Mg574 Mg 0.70865 0.15839 0.11647 0.0
O575 O 0.7348 0.17905 0.12153 0.0
O576 O 0.73681 0.18515 0.1538 0.0
Mg577 Mg 0.7101 0.17112 0.16886 0.0
C578 C 0.74332 0.1869 0.13628 0.0
C579 C 0.72727 0.15759 0.0741 0.0
O580 O 0.74223 0.15049 0.08405 0.0
O581 O 0.68787 0.18491 0.11863 0.0
O582 O 0.68912 0.19044 0.15106 0.0
O583 O 0.7285 0.13301 0.12462 0.0
O584 O 0.70977 0.14908 0.1456 0.0
C585 C 0.68244 0.1943 0.13397 0.0
C586 C 0.72336 0.13635 0.14264 0.0
O587 O 0.71173 0.16243 0.08328 0.0
Mg588 Mg 0.34322 0.21587 0.61617 0.0
O589 O 0.32089 0.24047 0.62195 0.0
O590 O 0.3116 0.23793 0.65341 0.0
Mg591 Mg 0.32892 0.21301 0.66805 0.0
C592 C 0.31062 0.2462 0.63657 0.0
C593 C 0.34088 0.20588 0.57172 0.0
O594 O 0.34329 0.18831 0.57937 0.0
O595 O 0.31796 0.19321 0.61656 0.0
O596 O 0.31241 0.19105 0.64894 0.0
O597 O 0.36712 0.23667 0.6257 0.0
O598 O 0.35163 0.21628 0.64557 0.0
C599 C 0.30923 0.1855 0.63132 0.0
C600 C 0.3636 0.23072 0.64343 0.0
O601 O 0.33995 0.22063 0.58312 0.0
Mg602 Mg 0.28725 0.84687 0.11383 0.0
O603 O 0.26333 0.82398 0.12002 0.0
O604 O 0.26299 0.81865 0.15251 0.0
Mg605 Mg 0.28621 0.83832 0.167 0.0
C606 C 0.25646 0.81536 0.13521 0.0
C607 C 0.27022 0.84159 0.07117 0.0
O608 O 0.25402 0.84692 0.08023 0.0
O609 O 0.3108 0.82318 0.11879 0.0
O610 O 0.31009 0.8204 0.15157 0.0
O611 O 0.26413 0.86975 0.11878 0.0
O612 O 0.28378 0.85834 0.142 0.0
C613 C 0.31727 0.81586 0.13484 0.0
C614 C 0.26859 0.86849 0.13724 0.0
O615 O 0.28599 0.83985 0.08103 0.0
Mg616 Mg 0.66352 0.79254 0.61706 0.0
O617 O 0.68392 0.76603 0.62116 0.0
O618 O 0.69076 0.76323 0.65321 0.0
Mg619 Mg 0.67735 0.78975 0.66913 0.0
C620 C 0.69199 0.75706 0.63552 0.0
C621 C 0.66386 0.77395 0.57478 0.0
O622 O 0.65863 0.75839 0.58495 0.0
O623 O 0.69018 0.81314 0.61914 0.0
O624 O 0.6963 0.81119 0.65143 0.0
O625 O 0.63805 0.77285 0.62521 0.0
O626 O 0.65472 0.79079 0.6464 0.0
C627 C 0.69984 0.81825 0.63441 0.0
C628 C 0.64175 0.77746 0.6433 0.0
O629 O 0.66704 0.79002 0.58375 0.0
Mg630 Mg 0.29123 0.15742 0.88305 0.0
O631 O 0.26585 0.179 0.87812 0.0
O632 O 0.26225 0.18351 0.84573 0.0
Mg633 Mg 0.28789 0.1679 0.83033 0.0
C634 C 0.25675 0.18636 0.86346 0.0
C635 C 0.27352 0.16118 0.92535 0.0
O636 O 0.2576 0.15634 0.91558 0.0
O637 O 0.31306 0.18263 0.87883 0.0
O638 O 0.3104 0.18734 0.84637 0.0
O639 O 0.26958 0.13328 0.87748 0.0
O640 O 0.28811 0.14668 0.85442 0.0
C641 C 0.31805 0.19145 0.86302 0.0
C642 C 0.27369 0.1354 0.85903 0.0
O643 O 0.28963 0.16313 0.91608 0.0
Mg644 Mg 0.3462 0.78894 0.38644 0.0
O645 O 0.32541 0.76304 0.3808 0.0
O646 O 0.32297 0.75867 0.34829 0.0
Mg647 Mg 0.33906 0.78421 0.33325 0.0
C648 C 0.31914 0.75349 0.36593 0.0
C649 C 0.34064 0.77207 0.42883 0.0
O650 O 0.34636 0.7561 0.41962 0.0
O651 O 0.32089 0.81022 0.38013 0.0
O652 O 0.31833 0.8067 0.34751 0.0
O653 O 0.37093 0.76755 0.38282 0.0
O654 O 0.3587 0.78542 0.3586 0.0
C655 C 0.31303 0.81466 0.36367 0.0
C656 C 0.3698 0.77121 0.36418 0.0
O657 O 0.33867 0.78793 0.41914 0.0
Mg658 Mg 0.65239 0.21383 0.38394 0.0
O659 O 0.67575 0.23755 0.37804 0.0
O660 O 0.67853 0.24049 0.34535 0.0
Mg661 Mg 0.66036 0.21618 0.33075 0.0
C662 C 0.68282 0.24595 0.3628 0.0
C663 C 0.6553 0.19888 0.42637 0.0
O664 O 0.64809 0.18371 0.41684 0.0
O665 O 0.6754 0.1899 0.37853 0.0
O666 O 0.67862 0.19213 0.34588 0.0
O667 O 0.62997 0.23748 0.37961 0.0
O668 O 0.64056 0.21797 0.3559 0.0
C669 C 0.68293 0.18415 0.36232 0.0
C670 C 0.6309 0.23335 0.36106 0.0
O671 O 0.6594 0.21438 0.41676 0.0
H672 H 0.95232 0.30247 0.16897 0.0
H673 H 0.05175 0.24127 0.15386 0.0
H674 H 0.95366 0.24078 0.15423 0.0
H675 H 0.05014 0.3032 0.16752 0.0
H676 H 0.0159 0.2403 0.15585 0.0
H677 H 0.98817 0.30249 0.17051 0.0
C678 C 0.96014 0.28889 0.16616 0.0
C679 C 0.94994 0.27162 0.16135 0.0
C680 C 0.02339 0.25409 0.15849 0.0
C681 C 0.99107 0.27157 0.16302 0.0
C682 C 0.04388 0.25465 0.15736 0.0
C683 C 0.054 0.27237 0.16042 0.0
C684 C 0.0129 0.27137 0.1627 0.0
C685 C 0.04299 0.28922 0.16497 0.0
C686 C 0.98063 0.28892 0.16702 0.0
C687 C 0.96088 0.25446 0.15792 0.0
N688 N 0.02306 0.28832 0.16589 0.0
N689 N 0.98084 0.2549 0.15873 0.0
H690 H 0.25639 0.55212 0.65641 0.0
H691 H 0.19435 0.45371 0.67439 0.0
H692 H 0.19481 0.55163 0.67163 0.0
H693 H 0.25539 0.45414 0.65707 0.0
H694 H 0.19483 0.48958 0.67559 0.0
H695 H 0.25687 0.5163 0.65873 0.0
C696 C 0.24298 0.5445 0.66034 0.0
C697 C 0.2255 0.55492 0.66372 0.0
C698 C 0.20814 0.48183 0.6716 0.0
C699 C 0.22595 0.51384 0.66636 0.0
C700 C 0.20789 0.46133 0.67093 0.0
C701 C 0.22484 0.45087 0.66552 0.0
C702 C 0.22545 0.49201 0.66682 0.0
C703 C 0.24195 0.46157 0.66124 0.0
C704 C 0.24327 0.52403 0.66165 0.0
C705 C 0.2086 0.54423 0.66882 0.0
N706 N 0.2418 0.48154 0.66191 0.0
N707 N 0.20923 0.52429 0.6699 0.0
H708 H 0.04906 0.71309 0.18176 0.0
H709 H 0.95304 0.71089 0.11364 0.0
H710 H 0.05002 0.71039 0.11838 0.0
H711 H 0.95019 0.71294 0.177 0.0
H712 H 0.98872 0.71132 0.11551 0.0
H713 H 0.01303 0.71371 0.18074 0.0
C714 C 0.04172 0.71267 0.16765 0.0
C715 C 0.0526 0.71165 0.15013 0.0
C716 C 0.98035 0.71169 0.12905 0.0
C717 C 0.01145 0.71234 0.14887 0.0
C718 C 0.95992 0.71144 0.12799 0.0
C719 C 0.94856 0.71184 0.1452 0.0
C720 C 0.98965 0.71234 0.14746 0.0
C721 C 0.95836 0.71259 0.16335 0.0
C722 C 0.02116 0.71301 0.16708 0.0
C723 C 0.0423 0.71114 0.13227 0.0
N724 N 0.97837 0.7128 0.16402 0.0
N725 N 0.02236 0.71147 0.13212 0.0
H726 H 0.74129 0.45051 0.65924 0.0
H727 H 0.80468 0.54911 0.66915 0.0
H728 H 0.80426 0.45123 0.66686 0.0
H729 H 0.74211 0.54831 0.65873 0.0
H730 H 0.80437 0.51329 0.67148 0.0
H731 H 0.74089 0.48627 0.66216 0.0
C732 C 0.75503 0.45816 0.66166 0.0
C733 C 0.77286 0.44784 0.66264 0.0
C734 C 0.79068 0.52095 0.6688 0.0
C735 C 0.77251 0.48886 0.66593 0.0
C736 C 0.79084 0.54143 0.66749 0.0
C737 C 0.77341 0.55176 0.66357 0.0
C738 C 0.77297 0.51068 0.66617 0.0
C739 C 0.75592 0.54098 0.66164 0.0
C740 C 0.75479 0.47861 0.66331 0.0
C741 C 0.79018 0.45857 0.66589 0.0
N742 N 0.75617 0.52105 0.66284 0.0
N743 N 0.78958 0.47849 0.6673 0.0
H744 H 0.95533 0.75096 0.84231 0.0
H745 H 0.04431 0.67448 0.83422 0.0
H746 H 0.94762 0.68867 0.83303 0.0
H747 H 0.05247 0.73717 0.83937 0.0
H748 H 0.00885 0.67962 0.83247 0.0
H749 H 0.99091 0.74648 0.83995 0.0
C750 C 0.96109 0.73636 0.83966 0.0
C751 C 0.94844 0.72015 0.838 0.0
C752 C 0.01839 0.69227 0.83388 0.0
C753 C 0.98919 0.71491 0.83536 0.0
C754 C 0.03866 0.68934 0.83489 0.0
C755 C 0.05141 0.7054 0.83706 0.0
C756 C 0.01073 0.71141 0.83514 0.0
C757 C 0.04321 0.72434 0.83776 0.0
C758 C 0.98142 0.73381 0.83832 0.0
C759 C 0.95678 0.70159 0.8345 0.0
N760 N 0.0234 0.72681 0.83693 0.0
N761 N 0.9766 0.69947 0.83342 0.0
H762 H 0.8044 0.5492 0.32914 0.0
H763 H 0.74148 0.45067 0.34288 0.0
H764 H 0.74271 0.54844 0.34392 0.0
H765 H 0.8035 0.45109 0.32953 0.0
H766 H 0.74123 0.4865 0.3411 0.0
H767 H 0.80392 0.51334 0.32698 0.0
C768 C 0.79072 0.54152 0.33182 0.0
C769 C 0.77359 0.55187 0.33683 0.0
C770 C 0.75488 0.47877 0.33847 0.0
C771 C 0.77296 0.51078 0.33444 0.0
C772 C 0.75504 0.45828 0.33947 0.0
C773 C 0.77257 0.44783 0.33646 0.0
C774 C 0.77238 0.48895 0.33446 0.0
C775 C 0.78966 0.45852 0.33203 0.0
C776 C 0.79046 0.52103 0.33061 0.0
C777 C 0.75629 0.54111 0.34009 0.0
N778 N 0.78915 0.47849 0.33126 0.0
N779 N 0.75644 0.52117 0.33893 0.0
H780 H 0.04846 0.24027 0.84737 0.0
H781 H 0.95128 0.30441 0.83024 0.0
H782 H 0.04901 0.30229 0.83403 0.0
H783 H 0.95045 0.24317 0.84679 0.0
H784 H 0.98711 0.30323 0.82906 0.0
H785 H 0.01266 0.24039 0.84466 0.0
C786 C 0.04108 0.2539 0.84375 0.0
C787 C 0.05178 0.27133 0.84105 0.0
C788 C 0.9791 0.29002 0.83287 0.0
C789 C 0.01073 0.27157 0.83798 0.0
C790 C 0.95861 0.29068 0.83355 0.0
C791 C 0.9478 0.27389 0.83875 0.0
C792 C 0.98892 0.27246 0.83744 0.0
C793 C 0.95815 0.2565 0.84279 0.0
C794 C 0.02061 0.25395 0.84224 0.0
C795 C 0.04138 0.28852 0.83634 0.0
N796 N 0.97812 0.25626 0.84214 0.0
N797 N 0.02145 0.28822 0.83504 0.0
H798 H 0.26223 0.44732 0.3447 0.0
H799 H 0.20149 0.54738 0.3321 0.0
H800 H 0.19986 0.44948 0.33332 0.0
H801 H 0.26352 0.54528 0.34525 0.0
H802 H 0.20112 0.51155 0.32998 0.0
H803 H 0.26346 0.48315 0.34259 0.0
C804 C 0.2488 0.45531 0.34167 0.0
C805 C 0.23089 0.44535 0.33931 0.0
C806 C 0.21484 0.51892 0.33323 0.0
C807 C 0.23219 0.48644 0.33689 0.0
C808 C 0.21507 0.53941 0.33441 0.0
C809 C 0.23254 0.54938 0.33899 0.0
C810 C 0.23219 0.50828 0.33668 0.0
C811 C 0.24969 0.53824 0.34177 0.0
C812 C 0.24952 0.47578 0.34046 0.0
C813 C 0.21398 0.45651 0.33533 0.0
N814 N 0.24905 0.5183 0.34068 0.0
N815 N 0.21504 0.47644 0.33434 0.0
H816 H 0.16041 0.9521 0.23985 0.0
H817 H 0.17098 0.0512 0.3023 0.0
H818 H 0.17191 0.95324 0.30224 0.0
H819 H 0.1596 0.04992 0.23989 0.0
H820 H 0.17368 0.01541 0.30217 0.0
H821 H 0.16242 0.98792 0.23919 0.0
C822 C 0.16349 0.95986 0.2534 0.0
C823 C 0.16586 0.94963 0.27116 0.0
C824 C 0.1707 0.02296 0.28848 0.0
C825 C 0.16809 0.99072 0.27051 0.0
C826 C 0.16916 0.04342 0.28854 0.0
C827 C 0.16491 0.05361 0.2711 0.0
C828 C 0.16793 0.01255 0.27087 0.0
C829 C 0.16279 0.04271 0.25371 0.0
C830 C 0.16462 0.98034 0.25301 0.0
C831 C 0.1699 0.9605 0.28823 0.0
N832 N 0.16421 0.02278 0.25406 0.0
N833 N 0.17076 0.98045 0.2875 0.0
H834 H 0.54885 0.66728 0.80093 0.0
H835 H 0.45024 0.65562 0.73777 0.0
H836 H 0.5482 0.65771 0.73821 0.0
H837 H 0.45108 0.66338 0.80074 0.0
H838 H 0.48601 0.65867 0.7373 0.0
H839 H 0.51298 0.66832 0.80078 0.0
C840 C 0.54118 0.66551 0.7871 0.0
C841 C 0.55158 0.66227 0.76957 0.0
C842 C 0.47837 0.65979 0.75121 0.0
C843 C 0.51044 0.66337 0.76931 0.0
C844 C 0.45792 0.65805 0.75149 0.0
C845 C 0.44763 0.65912 0.76934 0.0
C846 C 0.48863 0.66261 0.7689 0.0
C847 C 0.45839 0.66237 0.78665 0.0
C848 C 0.52068 0.66609 0.78703 0.0
C849 C 0.54082 0.66016 0.75209 0.0
N850 N 0.47829 0.66391 0.786 0.0
N851 N 0.52085 0.66064 0.75242 0.0
H852 H 0.82959 0.05039 0.30354 0.0
H853 H 0.84554 0.95357 0.23856 0.0
H854 H 0.84511 0.05162 0.24202 0.0
H855 H 0.83113 0.95264 0.30035 0.0
H856 H 0.84373 0.98943 0.23906 0.0
H857 H 0.82843 0.01458 0.30218 0.0
C858 C 0.8327 0.04315 0.28972 0.0
C859 C 0.83755 0.05406 0.27289 0.0
C860 C 0.84089 0.98138 0.25249 0.0
C861 C 0.83627 0.01296 0.27123 0.0
C862 C 0.8419 0.96088 0.25222 0.0
C863 C 0.83858 0.95005 0.26947 0.0
C864 C 0.83653 0.99115 0.27015 0.0
C865 C 0.83388 0.96036 0.28671 0.0
C866 C 0.83204 0.02266 0.28895 0.0
C867 C 0.84137 0.04383 0.25538 0.0
N868 N 0.83307 0.98031 0.28663 0.0
N869 N 0.84071 0.02386 0.25503 0.0
H870 H 0.55073 0.379 0.81845 0.0
H871 H 0.4511 0.32876 0.78086 0.0
H872 H 0.54997 0.32895 0.77948 0.0
H873 H 0.45355 0.3794 0.81898 0.0
H874 H 0.48712 0.32783 0.78051 0.0
H875 H 0.51499 0.37862 0.81916 0.0
C876 C 0.54305 0.36788 0.81004 0.0
C877 C 0.55341 0.354 0.79886 0.0
C878 C 0.47974 0.33911 0.78896 0.0
C879 C 0.51226 0.35348 0.7996 0.0
C880 C 0.45918 0.33965 0.78918 0.0
C881 C 0.44927 0.3542 0.79995 0.0
C882 C 0.49043 0.35323 0.79959 0.0
C883 C 0.46052 0.36793 0.81045 0.0
C884 C 0.52259 0.36767 0.81045 0.0
C885 C 0.54259 0.33994 0.78829 0.0
N886 N 0.48044 0.3671 0.80998 0.0
N887 N 0.52259 0.34006 0.7889 0.0
H888 H 0.17907 0.05372 0.71349 0.0
H889 H 0.11489 0.95512 0.70758 0.0
H890 H 0.11616 0.05226 0.7055 0.0
H891 H 0.17774 0.95485 0.71625 0.0
H892 H 0.11542 0.99088 0.70716 0.0
H893 H 0.17927 0.01768 0.71476 0.0
C894 C 0.16532 0.04585 0.71199 0.0
C895 C 0.14757 0.05604 0.70937 0.0
C896 C 0.12912 0.98305 0.70919 0.0
C897 C 0.1477 0.01489 0.71083 0.0
C898 C 0.12883 0.96258 0.70944 0.0
C899 C 0.1463 0.95193 0.71193 0.0
C900 C 0.14703 0.99308 0.7114 0.0
C901 C 0.16391 0.96246 0.71429 0.0
C902 C 0.16545 0.02529 0.71273 0.0
C903 C 0.1302 0.04508 0.70753 0.0
N904 N 0.16383 0.98247 0.71393 0.0
N905 N 0.13072 0.02516 0.70829 0.0
H906 H 0.4514 0.67312 0.1975 0.0
H907 H 0.54865 0.65982 0.26244 0.0
H908 H 0.45094 0.66114 0.25981 0.0
H909 H 0.54937 0.66978 0.19977 0.0
H910 H 0.51292 0.66293 0.26215 0.0
H911 H 0.48729 0.67458 0.19844 0.0
C912 C 0.45882 0.67092 0.2114 0.0
C913 C 0.44812 0.66687 0.22858 0.0
C914 C 0.52089 0.66454 0.24847 0.0
C915 C 0.48924 0.66847 0.22975 0.0
C916 C 0.54132 0.66279 0.24862 0.0
C917 C 0.55205 0.6644 0.23108 0.0
C918 C 0.51104 0.66791 0.23064 0.0
C919 C 0.54172 0.66832 0.21364 0.0
C920 C 0.47933 0.67173 0.21193 0.0
C921 C 0.45856 0.6642 0.24618 0.0
N922 N 0.52179 0.66983 0.21385 0.0
N923 N 0.47851 0.66495 0.24629 0.0
H924 H 0.83434 0.05003 0.69855 0.0
H925 H 0.84265 0.95234 0.7637 0.0
H926 H 0.84207 0.05023 0.76153 0.0
H927 H 0.83679 0.95216 0.70052 0.0
H928 H 0.83992 0.98814 0.76346 0.0
H929 H 0.8326 0.01418 0.69927 0.0
C930 C 0.83555 0.04256 0.71255 0.0
C931 C 0.8385 0.05318 0.72999 0.0
C932 C 0.83914 0.98027 0.74965 0.0
C933 C 0.83658 0.01207 0.73091 0.0
C934 C 0.84069 0.9598 0.74978 0.0
C935 C 0.84009 0.94921 0.73209 0.0
C936 C 0.83699 0.99026 0.73171 0.0
C937 C 0.83743 0.9597 0.71451 0.0
C938 C 0.83457 0.02206 0.71295 0.0
C939 C 0.83988 0.04267 0.7477 0.0
N940 N 0.83608 0.97963 0.71476 0.0
N941 N 0.83902 0.02272 0.74769 0.0
H942 H 0.54946 0.33371 0.19596 0.0
H943 H 0.45056 0.34396 0.259 0.0
H944 H 0.54844 0.34542 0.25831 0.0
H945 H 0.45146 0.33402 0.19634 0.0
H946 H 0.48641 0.34234 0.25939 0.0
H947 H 0.51362 0.3315 0.19619 0.0
C948 C 0.54172 0.3357 0.20973 0.0
C949 C 0.55199 0.33988 0.22712 0.0
C950 C 0.47877 0.34043 0.24556 0.0
C951 C 0.5109 0.33743 0.22747 0.0
C952 C 0.45827 0.34134 0.24533 0.0
C953 C 0.44796 0.33924 0.22759 0.0
C954 C 0.48908 0.33739 0.22793 0.0
C955 C 0.45878 0.33581 0.21035 0.0
C956 C 0.52124 0.33446 0.20984 0.0
C957 C 0.54116 0.34226 0.24452 0.0
N958 N 0.47873 0.33508 0.21094 0.0
N959 N 0.52122 0.3411 0.24423 0.0
H960 H 0.30482 0.16966 0.04835 0.0
H961 H 0.24173 0.15736 0.94976 0.0
H962 H 0.24264 0.15709 0.04775 0.0
H963 H 0.30398 0.16954 0.95039 0.0
H964 H 0.24142 0.15897 0.98562 0.0
H965 H 0.30445 0.1714 0.0125 0.0
C966 C 0.29106 0.16734 0.0407 0.0
C967 C 0.27375 0.16311 0.0511 0.0
C968 C 0.25514 0.16137 0.97792 0.0
C969 C 0.27324 0.16505 0.00998 0.0
C970 C 0.25533 0.16046 0.95742 0.0
C971 C 0.27293 0.16321 0.94702 0.0
C972 C 0.27269 0.16502 0.98815 0.0
C973 C 0.29008 0.16725 0.95777 0.0
C974 C 0.29087 0.16833 0.02021 0.0
C975 C 0.25636 0.16031 0.04036 0.0
N976 N 0.28954 0.16795 0.97773 0.0
N977 N 0.25657 0.16125 0.0204 0.0
H978 H 0.23958 0.8457 0.04533 0.0
H979 H 0.30661 0.8293 0.94992 0.0
H980 H 0.30141 0.8317 0.04766 0.0
H981 H 0.24509 0.84457 0.9474 0.0
H982 H 0.30449 0.8282 0.98574 0.0
H983 H 0.2408 0.84337 0.00951 0.0
C984 C 0.2534 0.84203 0.03834 0.0
C985 C 0.27045 0.83901 0.04955 0.0
C986 C 0.29143 0.83172 0.97736 0.0
C987 C 0.27196 0.83637 0.00848 0.0
C988 C 0.29263 0.83235 0.95688 0.0
C989 C 0.27603 0.83714 0.94561 0.0
C990 C 0.2735 0.83593 0.98669 0.0
C991 C 0.25829 0.84089 0.95548 0.0
C992 C 0.25409 0.84072 0.01786 0.0
C993 C 0.28791 0.83424 0.03964 0.0
N994 N 0.25752 0.84028 0.97544 0.0
N995 N 0.28823 0.83316 0.01969 0.0
H996 H 0.65746 0.74215 0.55091 0.0
H997 H 0.67371 0.8025 0.45108 0.0
H998 H 0.6736 0.80348 0.54911 0.0
H999 H 0.65656 0.74145 0.45292 0.0
H1000 H 0.67558 0.80265 0.48694 0.0
H1001 H 0.65878 0.74116 0.51504 0.0
C1002 C 0.66135 0.7554 0.54299 0.0
C1003 C 0.66534 0.77295 0.55307 0.0
C1004 C 0.67149 0.7892 0.4795 0.0
C1005 C 0.66685 0.77192 0.51192 0.0
C1006 C 0.67044 0.78909 0.459 0.0
C1007 C 0.66487 0.77196 0.44894 0.0
C1008 C 0.66691 0.77206 0.49008 0.0
C1009 C 0.66085 0.75502 0.46003 0.0
C1010 C 0.6621 0.75482 0.52248 0.0
C1011 C 0.67034 0.78964 0.54199 0.0
N1012 N 0.66187 0.75553 0.47998 0.0
N1013 N 0.67089 0.78872 0.52203 0.0
H1014 H 0.75776 0.14765 0.04968 0.0
H1015 H 0.69786 0.1715 0.95114 0.0
H1016 H 0.6987 0.1708 0.04897 0.0
H1017 H 0.75734 0.14943 0.95142 0.0
H1018 H 0.69828 0.17206 0.987 0.0
H1019 H 0.75829 0.14897 0.01377 0.0
C1020 C 0.74493 0.15308 0.04199 0.0
C1021 C 0.72813 0.15906 0.05239 0.0
C1022 C 0.71127 0.16713 0.97924 0.0
C1023 C 0.72863 0.16056 0.01123 0.0
C1024 C 0.71104 0.1668 0.95873 0.0
C1025 C 0.72758 0.16035 0.94821 0.0
C1026 C 0.72814 0.16093 0.98939 0.0
C1027 C 0.74424 0.15448 0.95889 0.0
C1028 C 0.74524 0.15382 0.02147 0.0
C1029 C 0.71195 0.16598 0.04161 0.0
N1030 N 0.74407 0.15487 0.97888 0.0
N1031 N 0.71259 0.16648 0.02165 0.0
H1032 H 0.34094 0.17726 0.54354 0.0
H1033 H 0.34196 0.25229 0.45276 0.0
H1034 H 0.33892 0.24027 0.55061 0.0
H1035 H 0.34074 0.18914 0.4468 0.0
H1036 H 0.34066 0.24848 0.48854 0.0
H1037 H 0.34062 0.18159 0.50798 0.0
C1038 C 0.34038 0.19202 0.53763 0.0
C1039 C 0.34001 0.20842 0.55011 0.0
C1040 C 0.34064 0.23548 0.47938 0.0
C1041 C 0.33969 0.21352 0.50926 0.0
C1042 C 0.34139 0.23764 0.45894 0.0
C1043 C 0.34151 0.22102 0.44672 0.0
C1044 C 0.34004 0.21655 0.48764 0.0
C1045 C 0.34072 0.20239 0.45559 0.0
C1046 C 0.34019 0.19449 0.51728 0.0
C1047 C 0.33924 0.2272 0.54155 0.0
N1048 N 0.34006 0.20068 0.47546 0.0
N1049 N 0.33917 0.22924 0.52166 0.0
H1050 H 0.69576 0.82928 0.04881 0.0
H1051 H 0.75779 0.84863 0.95057 0.0
H1052 H 0.75588 0.84952 0.04872 0.0
H1053 H 0.69725 0.82966 0.95093 0.0
H1054 H 0.7579 0.8476 0.98648 0.0
H1055 H 0.69658 0.82786 0.01296 0.0
C1056 C 0.70917 0.83336 0.04127 0.0
C1057 C 0.72575 0.83961 0.05182 0.0
C1058 C 0.74461 0.84361 0.9787 0.0
C1059 C 0.72678 0.83805 0.01069 0.0
C1060 C 0.74453 0.84418 0.95818 0.0
C1061 C 0.72745 0.8393 0.94768 0.0
C1062 C 0.72749 0.83811 0.98885 0.0
C1063 C 0.71074 0.83361 0.95837 0.0
C1064 C 0.70962 0.83256 0.02077 0.0
C1065 C 0.74272 0.84467 0.04122 0.0
N1066 N 0.71116 0.83323 0.97834 0.0
N1067 N 0.74277 0.84383 0.02125 0.0
H1068 H 0.66924 0.22728 0.55008 0.0
H1069 H 0.64825 0.16775 0.4507 0.0
H1070 H 0.65144 0.16643 0.54808 0.0
H1071 H 0.66719 0.22829 0.45145 0.0
H1072 H 0.65031 0.16699 0.48643 0.0
H1073 H 0.66946 0.22797 0.51408 0.0
C1074 C 0.66542 0.21406 0.5421 0.0
C1075 C 0.66026 0.19678 0.55215 0.0
C1076 C 0.65409 0.18044 0.47882 0.0
C1077 C 0.66047 0.19748 0.51096 0.0
C1078 C 0.65292 0.18089 0.45837 0.0
C1079 C 0.65749 0.19814 0.44802 0.0
C1080 C 0.65983 0.19738 0.48912 0.0
C1081 C 0.6635 0.21468 0.45881 0.0
C1082 C 0.66556 0.21446 0.52154 0.0
C1083 C 0.65548 0.18009 0.54101 0.0
N1084 N 0.66443 0.21391 0.47878 0.0
N1085 N 0.65566 0.18088 0.52106 0.0
H1086 H 0.33082 0.80288 0.4529 0.0
H1087 H 0.34249 0.74043 0.55208 0.0
H1088 H 0.34444 0.74092 0.45407 0.0
H1089 H 0.33163 0.80293 0.55083 0.0
H1090 H 0.34095 0.73985 0.5162 0.0
H1091 H 0.32865 0.80267 0.48874 0.0
C1092 C 0.33324 0.7892 0.46067 0.0
C1093 C 0.33794 0.77191 0.45044 0.0
C1094 C 0.33883 0.75368 0.52378 0.0
C1095 C 0.33554 0.7716 0.49154 0.0
C1096 C 0.33971 0.75403 0.54429 0.0
C1097 C 0.33731 0.77178 0.55451 0.0
C1098 C 0.33553 0.77122 0.51338 0.0
C1099 C 0.33367 0.78891 0.54359 0.0
C1100 C 0.33203 0.7891 0.48116 0.0
C1101 C 0.34087 0.75462 0.46133 0.0
N1102 N 0.33296 0.78821 0.52364 0.0
N1103 N 0.33971 0.75493 0.48127 0.0
H1104 H 0.14896 0.34057 0.30708 0.0
H1105 H 0.1579 0.35318 0.19562 0.0
H1106 H 0.17963 0.38989 0.28185 0.0
H1107 H 0.11027 0.32036 0.22134 0.0
H1108 H 0.16205 0.37095 0.2265 0.0
H1109 H 0.1304 0.33682 0.27662 0.0
C1110 C 0.15134 0.35097 0.29525 0.0
C1111 C 0.16595 0.36541 0.29679 0.0
C1112 C 0.15028 0.36031 0.2253 0.0
C1113 C 0.14529 0.36083 0.26169 0.0
C1114 C 0.14792 0.35017 0.20767 0.0
C1115 C 0.13387 0.33521 0.20611 0.0
C1116 C 0.13894 0.35493 0.24168 0.0
C1117 C 0.12129 0.33181 0.22204 0.0
C1118 C 0.14074 0.34885 0.27786 0.0
C1119 C 0.16849 0.37855 0.28115 0.0
N1120 N 0.12448 0.34122 0.2394 0.0
N1121 N 0.15865 0.3756 0.26399 0.0
H1122 H 0.10996 0.68406 0.78411 0.0
H1123 H 0.17796 0.61284 0.72018 0.0
H1124 H 0.15848 0.65076 0.80756 0.0
H1125 H 0.15142 0.66615 0.69855 0.0
H1126 H 0.16043 0.61733 0.75147 0.0
H1127 H 0.11468 0.66768 0.75227 0.0
C1128 C 0.12107 0.67273 0.78277 0.0
C1129 C 0.13401 0.66886 0.79832 0.0
C1130 C 0.15805 0.62771 0.73963 0.0
C1131 C 0.13947 0.65023 0.7622 0.0
C1132 C 0.16794 0.62511 0.7218 0.0
C1133 C 0.16627 0.6393 0.70695 0.0
C1134 C 0.1462 0.6444 0.74238 0.0
C1135 C 0.15326 0.65503 0.70979 0.0
C1136 C 0.12385 0.66353 0.7646 0.0
C1137 C 0.14834 0.65425 0.79581 0.0
N1138 N 0.14384 0.65727 0.72724 0.0
N1139 N 0.15085 0.64561 0.77799 0.0
H1140 H 0.84555 0.6647 0.30409 0.0
H1141 H 0.83531 0.65477 0.19265 0.0
H1142 H 0.81759 0.61353 0.27941 0.0
H1143 H 0.88643 0.68281 0.21734 0.0
H1144 H 0.83005 0.63756 0.22377 0.0
H1145 H 0.86256 0.67013 0.2729 0.0
C1146 C 0.8434 0.65433 0.2922 0.0
C1147 C 0.83011 0.63872 0.29419 0.0
C1148 C 0.84274 0.64704 0.22225 0.0
C1149 C 0.849 0.64516 0.25836 0.0
C1150 C 0.84572 0.65687 0.20452 0.0
C1151 C 0.86125 0.67025 0.20256 0.0
C1152 C 0.85499 0.65117 0.23831 0.0
C1153 C 0.87431 0.67255 0.21832 0.0
C1154 C 0.85313 0.6574 0.27443 0.0
C1155 C 0.82777 0.62571 0.2784 0.0
N1156 N 0.87058 0.6635 0.23577 0.0
N1157 N 0.83673 0.62951 0.26092 0.0
H1158 H 0.88992 0.31441 0.77364 0.0
H1159 H 0.82512 0.38909 0.71031 0.0
H1160 H 0.84512 0.35212 0.79771 0.0
H1161 H 0.84696 0.33365 0.68875 0.0
H1162 H 0.84344 0.38387 0.74098 0.0
H1163 H 0.8851 0.33001 0.74136 0.0
C1164 C 0.87964 0.32649 0.77227 0.0
C1165 C 0.86778 0.33198 0.78817 0.0
C1166 C 0.84461 0.37314 0.72928 0.0
C1167 C 0.86222 0.34972 0.75165 0.0
C1168 C 0.83426 0.37614 0.71179 0.0
C1169 C 0.83432 0.36161 0.69718 0.0
C1170 C 0.85528 0.35567 0.73194 0.0
C1171 C 0.84631 0.34505 0.69984 0.0
C1172 C 0.8768 0.33526 0.75389 0.0
C1173 C 0.85444 0.34747 0.78568 0.0
N1174 N 0.85616 0.34241 0.71699 0.0
N1175 N 0.85186 0.3557 0.76769 0.0
H1176 H 0.27757 0.18264 0.39025 0.0
H1177 H 0.21392 0.11013 0.3238 0.0
H1178 H 0.3016 0.14417 0.34609 0.0
H1179 H 0.1938 0.16586 0.34625 0.0
H1180 H 0.24412 0.11369 0.34327 0.0
H1181 H 0.24532 0.16708 0.38568 0.0
C1182 C 0.27624 0.17029 0.38029 0.0
C1183 C 0.2921 0.16468 0.36842 0.0
C1184 C 0.23281 0.12484 0.34433 0.0
C1185 C 0.25551 0.14711 0.36298 0.0
C1186 C 0.21559 0.12279 0.3333 0.0
C1187 C 0.20158 0.13791 0.3332 0.0
C1188 C 0.23578 0.14195 0.35549 0.0
C1189 C 0.20444 0.15405 0.34569 0.0
C1190 C 0.25784 0.16157 0.37754 0.0
C1191 C 0.28961 0.14889 0.35543 0.0
N1192 N 0.22133 0.15576 0.35618 0.0
N1193 N 0.27156 0.14081 0.35283 0.0
H1194 H 0.35625 0.79775 0.84306 0.0
H1195 H 0.33972 0.68677 0.8501 0.0
H1196 H 0.32105 0.77286 0.88943 0.0
H1197 H 0.39162 0.71052 0.82265 0.0
H1198 H 0.33595 0.71718 0.86874 0.0
H1199 H 0.37304 0.76627 0.8392 0.0
C1200 C 0.35252 0.78574 0.85285 0.0
C1201 C 0.33723 0.78775 0.86648 0.0
C1202 C 0.34852 0.71559 0.85911 0.0
C1203 C 0.35579 0.75151 0.86169 0.0
C1204 C 0.35066 0.69822 0.84846 0.0
C1205 C 0.36586 0.6963 0.83468 0.0
C1206 C 0.3613 0.73136 0.85544 0.0
C1207 C 0.37967 0.71149 0.83311 0.0
C1208 C 0.36209 0.76777 0.85065 0.0
C1209 C 0.33282 0.77183 0.87877 0.0
N1210 N 0.37675 0.72865 0.84296 0.0
N1211 N 0.34169 0.75416 0.87572 0.0
H1212 H 0.72158 0.81855 0.38841 0.0
H1213 H 0.7807 0.8899 0.31621 0.0
H1214 H 0.6972 0.84506 0.33629 0.0
H1215 H 0.80687 0.8413 0.34728 0.0
H1216 H 0.74963 0.88369 0.33357 0.0
H1217 H 0.75217 0.83704 0.38294 0.0
C1218 C 0.72245 0.82874 0.37621 0.0
C1219 C 0.70704 0.83016 0.36262 0.0
C1220 C 0.76239 0.87482 0.33702 0.0
C1221 C 0.74163 0.85133 0.35644 0.0
C1222 C 0.78012 0.87846 0.32727 0.0
C1223 C 0.79621 0.86596 0.33026 0.0
C1224 C 0.76099 0.8588 0.34999 0.0
C1225 C 0.79468 0.85114 0.34451 0.0
C1226 C 0.73988 0.83919 0.37306 0.0
C1227 C 0.7089 0.84343 0.34695 0.0
N1228 N 0.77728 0.84781 0.35371 0.0
N1229 N 0.72596 0.85339 0.34418 0.0
H1230 H 0.64493 0.20142 0.85014 0.0
H1231 H 0.66181 0.31249 0.85191 0.0
H1232 H 0.68254 0.2286 0.89315 0.0
H1233 H 0.60998 0.28731 0.82568 0.0
H1234 H 0.66552 0.28316 0.8722 0.0
H1235 H 0.6274 0.23247 0.84613 0.0
C1236 C 0.64896 0.2138 0.85931 0.0
C1237 C 0.66519 0.21258 0.87191 0.0
C1238 C 0.65298 0.2842 0.86247 0.0
C1239 C 0.64588 0.24838 0.86678 0.0
C1240 C 0.65087 0.30097 0.85088 0.0
C1241 C 0.63573 0.30214 0.83697 0.0
C1242 C 0.64023 0.26822 0.85963 0.0
C1243 C 0.6219 0.2869 0.83622 0.0
C1244 C 0.63902 0.23157 0.85697 0.0
C1245 C 0.67003 0.22901 0.88332 0.0
N1246 N 0.6248 0.27028 0.84698 0.0
N1247 N 0.66077 0.24644 0.88007 0.0
H1248 H 0.27946 0.8245 0.60812 0.0
H1249 H 0.22248 0.89713 0.67964 0.0
H1250 H 0.30428 0.85345 0.65868 0.0
H1251 H 0.19534 0.85153 0.64512 0.0
H1252 H 0.25312 0.89222 0.66125 0.0
H1253 H 0.24997 0.84513 0.61135 0.0
C1254 C 0.27898 0.83569 0.61943 0.0
C1255 C 0.29405 0.83713 0.63338 0.0
C1256 C 0.24023 0.88381 0.65721 0.0
C1257 C 0.26067 0.86062 0.63713 0.0
C1258 C 0.22272 0.88674 0.66757 0.0
C1259 C 0.20657 0.87451 0.66399 0.0
C1260 C 0.24139 0.86862 0.64324 0.0
C1261 C 0.20764 0.86108 0.6484 0.0
C1262 C 0.26216 0.84738 0.62132 0.0
C1263 C 0.29275 0.85174 0.64784 0.0
N1264 N 0.22489 0.85822 0.63881 0.0
N1265 N 0.27622 0.86275 0.64952 0.0
H1266 H 0.64808 0.80027 0.15538 0.0
H1267 H 0.66669 0.68911 0.15722 0.0
H1268 H 0.68557 0.77287 0.11237 0.0
H1269 H 0.6123 0.7132 0.17902 0.0
H1270 H 0.67168 0.71876 0.13763 0.0
H1271 H 0.63196 0.76869 0.16114 0.0
C1272 C 0.65242 0.78766 0.14667 0.0
C1273 C 0.66812 0.78904 0.13342 0.0
C1274 C 0.65839 0.7174 0.14628 0.0
C1275 C 0.65039 0.75278 0.14047 0.0
C1276 C 0.65559 0.70051 0.15753 0.0
C1277 C 0.6392 0.69887 0.16992 0.0
C1278 C 0.64501 0.73302 0.14791 0.0
C1279 C 0.62517 0.71396 0.1697 0.0
C1280 C 0.64327 0.76964 0.14998 0.0
C1281 C 0.67341 0.77234 0.12263 0.0
N1282 N 0.62865 0.73067 0.15926 0.0
N1283 N 0.66491 0.75472 0.12677 0.0
H1284 H 0.81481 0.16378 0.65 0.0
H1285 H 0.70305 0.14884 0.65371 0.0
H1286 H 0.78918 0.11179 0.67554 0.0
H1287 H 0.72985 0.1862 0.61022 0.0
H1288 H 0.73418 0.13145 0.65769 0.0
H1289 H 0.78487 0.16889 0.63092 0.0
C1290 C 0.80304 0.15312 0.65114 0.0
C1291 C 0.80431 0.1375 0.66453 0.0
C1292 C 0.7332 0.14303 0.64682 0.0
C1293 C 0.76977 0.14357 0.64323 0.0
C1294 C 0.71541 0.15292 0.64454 0.0
C1295 C 0.71403 0.16894 0.63168 0.0
C1296 C 0.74989 0.14971 0.63668 0.0
C1297 C 0.7304 0.17384 0.62023 0.0
C1298 C 0.78594 0.15603 0.64024 0.0
C1299 C 0.78873 0.12406 0.66542 0.0
N1300 N 0.74786 0.16459 0.62337 0.0
N1301 N 0.77185 0.1277 0.65532 0.0
H1302 H 0.32139 0.22091 0.10774 0.0
H1303 H 0.39173 0.28348 0.17763 0.0
H1304 H 0.35166 0.19783 0.15837 0.0
H1305 H 0.34111 0.30674 0.1475 0.0
H1306 H 0.38736 0.25228 0.15999 0.0
H1307 H 0.33906 0.25214 0.11195 0.0
C1308 C 0.33232 0.22217 0.11924 0.0
C1309 C 0.33497 0.20695 0.13288 0.0
C1310 C 0.37763 0.26447 0.15679 0.0
C1311 C 0.35509 0.24236 0.13774 0.0
C1312 C 0.3802 0.28227 0.16672 0.0
C1313 C 0.36661 0.29753 0.16412 0.0
C1314 C 0.36154 0.26213 0.14405 0.0
C1315 C 0.35176 0.29519 0.15002 0.0
C1316 C 0.34228 0.23998 0.12172 0.0
C1317 C 0.3491 0.20935 0.14769 0.0
N1318 N 0.34946 0.27771 0.14067 0.0
N1319 N 0.35848 0.22682 0.14988 0.0
H1320 H 0.81684 0.61266 0.71788 0.0
H1321 H 0.88629 0.68171 0.78265 0.0
H1322 H 0.84574 0.66427 0.69517 0.0
H1323 H 0.83273 0.65568 0.80427 0.0
H1324 H 0.88101 0.66518 0.75093 0.0
H1325 H 0.83257 0.61846 0.7499 0.0
C1326 C 0.82703 0.62479 0.71946 0.0
C1327 C 0.82993 0.63814 0.70403 0.0
C1328 C 0.87075 0.66271 0.76285 0.0
C1329 C 0.84793 0.64468 0.74025 0.0
C1330 C 0.87379 0.67201 0.78091 0.0
C1331 C 0.8598 0.67013 0.79592 0.0
C1332 C 0.85387 0.65118 0.76007 0.0
C1333 C 0.84373 0.6576 0.79293 0.0
C1334 C 0.83586 0.62814 0.7377 0.0
C1335 C 0.84305 0.65377 0.70683 0.0
N1336 N 0.84112 0.64866 0.77528 0.0
N1337 N 0.85149 0.65672 0.72467 0.0
H1338 H 0.89032 0.31907 0.21733 0.0
H1339 H 0.81905 0.38923 0.27886 0.0
H1340 H 0.84092 0.34991 0.19242 0.0
H1341 H 0.84625 0.33678 0.30172 0.0
H1342 H 0.83718 0.38461 0.2479 0.0
H1343 H 0.88437 0.33581 0.24877 0.0
C1344 C 0.87875 0.32996 0.21826 0.0
C1345 C 0.86595 0.33303 0.20241 0.0
C1346 C 0.83956 0.37447 0.25994 0.0
C1347 C 0.85909 0.35206 0.23808 0.0
C1348 C 0.82933 0.37714 0.27758 0.0
C1349 C 0.83106 0.36322 0.29267 0.0
C1350 C 0.85181 0.358 0.25766 0.0
C1351 C 0.84439 0.34769 0.29028 0.0
C1352 C 0.87526 0.33936 0.2362 0.0
C1353 C 0.85099 0.34707 0.20441 0.0
N1354 N 0.85416 0.3454 0.27303 0.0
N1355 N 0.8478 0.35591 0.22202 0.0
H1356 H 0.10998 0.32346 0.79054 0.0
H1357 H 0.18301 0.39184 0.72914 0.0
H1358 H 0.16413 0.34736 0.81313 0.0
H1359 H 0.14787 0.34551 0.70409 0.0
H1360 H 0.16678 0.38634 0.76098 0.0
H1361 H 0.11482 0.34241 0.76016 0.0
C1362 C 0.12252 0.3332 0.78936 0.0
C1363 C 0.13685 0.33368 0.80416 0.0
C1364 C 0.16221 0.37785 0.74832 0.0
C1365 C 0.14235 0.35533 0.76975 0.0
C1366 C 0.17133 0.38107 0.73018 0.0
C1367 C 0.1668 0.36898 0.71416 0.0
C1368 C 0.14835 0.36264 0.7502 0.0
C1369 C 0.1518 0.35502 0.71624 0.0
C1370 C 0.12531 0.3439 0.77204 0.0
C1371 C 0.15291 0.34641 0.8019 0.0
N1372 N 0.14323 0.35207 0.73401 0.0
N1373 N 0.15535 0.35659 0.7849 0.0
H1374 H 0.17972 0.61038 0.29011 0.0
H1375 H 0.11243 0.68803 0.23338 0.0
H1376 H 0.15848 0.66465 0.315 0.0
H1377 H 0.15431 0.64972 0.20536 0.0
H1378 H 0.11843 0.67098 0.2647 0.0
H1379 H 0.15966 0.61655 0.26071 0.0
C1380 C 0.17038 0.62326 0.28963 0.0
C1381 C 0.17097 0.63721 0.30478 0.0
C1382 C 0.1258 0.66591 0.25153 0.0
C1383 C 0.14805 0.64425 0.27147 0.0
C1384 C 0.12225 0.6755 0.23369 0.0
C1385 C 0.13298 0.67023 0.21694 0.0
C1386 C 0.14002 0.65094 0.25241 0.0
C1387 C 0.14583 0.65418 0.21807 0.0
C1388 C 0.15903 0.62681 0.27287 0.0
C1389 C 0.15866 0.6537 0.30345 0.0
N1390 N 0.14918 0.64521 0.23557 0.0
N1391 N 0.14786 0.65689 0.28697 0.0
H1392 H 0.79036 0.89096 0.67877 0.0
H1393 H 0.73198 0.81558 0.61052 0.0
H1394 H 0.8153 0.83841 0.65369 0.0
H1395 H 0.70568 0.8513 0.65569 0.0
H1396 H 0.76324 0.83306 0.6155 0.0
H1397 H 0.76045 0.88552 0.65932 0.0
C1398 C 0.78982 0.87871 0.66862 0.0
C1399 C 0.80512 0.86493 0.668 0.0
C1400 C 0.75043 0.83748 0.62385 0.0
C1401 C 0.77116 0.85863 0.64588 0.0
C1402 C 0.73262 0.82762 0.62091 0.0
C1403 C 0.71643 0.83199 0.63284 0.0
C1404 C 0.75182 0.85185 0.63863 0.0
C1405 C 0.71797 0.84749 0.64632 0.0
C1406 C 0.77274 0.87554 0.65765 0.0
C1407 C 0.80366 0.8492 0.65475 0.0
N1408 N 0.73544 0.85673 0.64902 0.0
N1409 N 0.78685 0.84632 0.6444 0.0
H1410 H 0.61152 0.28755 0.17712 0.0
H1411 H 0.68648 0.22653 0.11047 0.0
H1412 H 0.66635 0.31014 0.15478 0.0
H1413 H 0.64926 0.20099 0.15489 0.0
H1414 H 0.67026 0.25839 0.11581 0.0
H1415 H 0.61681 0.25726 0.15815 0.0
C1416 C 0.62434 0.28638 0.16774 0.0
C1417 C 0.63869 0.30115 0.1677 0.0
C1418 C 0.66523 0.24563 0.1239 0.0
C1419 C 0.6447 0.26686 0.146 0.0
C1420 C 0.67435 0.22748 0.12074 0.0
C1421 C 0.6692 0.21129 0.13236 0.0
C1422 C 0.6508 0.24737 0.13858 0.0
C1423 C 0.65365 0.21325 0.14573 0.0
C1424 C 0.62738 0.26911 0.15702 0.0
C1425 C 0.6551 0.29891 0.15541 0.0
N1426 N 0.64511 0.23105 0.14865 0.0
N1427 N 0.65777 0.28198 0.1452 0.0
H1428 H 0.30438 0.15031 0.64927 0.0
H1429 H 0.19348 0.17025 0.65264 0.0
H1430 H 0.2766 0.19004 0.60859 0.0
H1431 H 0.21767 0.11607 0.67481 0.0
H1432 H 0.22269 0.17473 0.63233 0.0
H1433 H 0.2729 0.13383 0.65436 0.0
C1434 C 0.29174 0.15502 0.64081 0.0
C1435 C 0.29297 0.17155 0.62856 0.0
C1436 C 0.22147 0.16158 0.64123 0.0
C1437 C 0.25676 0.15343 0.63498 0.0
C1438 C 0.20482 0.15907 0.65288 0.0
C1439 C 0.20334 0.14291 0.66558 0.0
C1440 C 0.23706 0.14815 0.64275 0.0
C1441 C 0.21832 0.12877 0.66525 0.0
C1442 C 0.27374 0.1457 0.64379 0.0
C1443 C 0.27621 0.17728 0.61809 0.0
N1444 N 0.23483 0.13198 0.6544 0.0
N1445 N 0.25862 0.16859 0.62197 0.0
H1446 H 0.31774 0.78414 0.11034 0.0
H1447 H 0.38851 0.72426 0.18247 0.0
H1448 H 0.34824 0.8101 0.1594 0.0
H1449 H 0.3363 0.70053 0.15561 0.0
H1450 H 0.38346 0.755 0.16407 0.0
H1451 H 0.33473 0.75295 0.11685 0.0
C1452 C 0.32861 0.78348 0.12196 0.0
C1453 C 0.33152 0.79956 0.13449 0.0
C1454 C 0.37346 0.74282 0.16183 0.0
C1455 C 0.35083 0.76418 0.14199 0.0
C1456 C 0.37637 0.72532 0.17223 0.0
C1457 C 0.36265 0.71003 0.17066 0.0
C1458 C 0.35696 0.74477 0.14957 0.0
C1459 C 0.34706 0.71212 0.15735 0.0
C1460 C 0.33815 0.76569 0.12576 0.0
C1461 C 0.34553 0.79792 0.14953 0.0
N1462 N 0.34454 0.72924 0.14741 0.0
N1463 N 0.35452 0.78045 0.15302 0.0
H1464 H 0.68907 0.15601 0.33468 0.0
H1465 H 0.79941 0.15336 0.35615 0.0
H1466 H 0.712 0.17798 0.38949 0.0
H1467 H 0.77256 0.1113 0.31724 0.0
H1468 H 0.76766 0.15857 0.37208 0.0
H1469 H 0.71843 0.13579 0.33079 0.0
C1470 C 0.70015 0.15622 0.34611 0.0
C1471 C 0.69829 0.16886 0.36228 0.0
C1472 C 0.76877 0.14768 0.36053 0.0
C1473 C 0.73216 0.14613 0.35772 0.0
C1474 C 0.78692 0.14465 0.35151 0.0
C1475 C 0.78849 0.13193 0.33539 0.0
C1476 C 0.75198 0.13846 0.35285 0.0
C1477 C 0.7719 0.12116 0.32972 0.0
C1478 C 0.71688 0.14462 0.34394 0.0
C1479 C 0.71295 0.16849 0.37676 0.0
N1480 N 0.75416 0.12509 0.33807 0.0
N1481 N 0.72955 0.1577 0.37388 0.0
H1482 H 0.31991 0.22103 0.89016 0.0
H1483 H 0.39015 0.28497 0.82116 0.0
H1484 H 0.34718 0.19983 0.83705 0.0
H1485 H 0.3408 0.30856 0.85309 0.0
H1486 H 0.38477 0.25311 0.83727 0.0
H1487 H 0.33784 0.2522 0.88638 0.0
C1488 C 0.33016 0.22271 0.87809 0.0
C1489 C 0.33195 0.20804 0.86374 0.0
C1490 C 0.37557 0.26547 0.84121 0.0
C1491 C 0.35248 0.24329 0.85948 0.0
C1492 C 0.37872 0.28366 0.83218 0.0
C1493 C 0.36576 0.29927 0.83573 0.0
C1494 C 0.35954 0.2631 0.85402 0.0
C1495 C 0.35099 0.29677 0.84989 0.0
C1496 C 0.34029 0.24047 0.87591 0.0
C1497 C 0.34526 0.21094 0.84828 0.0
N1498 N 0.34811 0.27893 0.85837 0.0
N1499 N 0.35491 0.22831 0.84645 0.0
H1500 H 0.28135 0.81616 0.38831 0.0
H1501 H 0.22152 0.8876 0.31663 0.0
H1502 H 0.30627 0.8434 0.33682 0.0
H1503 H 0.19619 0.83699 0.34511 0.0
H1504 H 0.25273 0.88098 0.33365 0.0
H1505 H 0.25029 0.83355 0.38191 0.0
C1506 C 0.28046 0.82629 0.37606 0.0
C1507 C 0.29622 0.82827 0.36294 0.0
C1508 C 0.24013 0.87169 0.33654 0.0
C1509 C 0.2611 0.84815 0.35569 0.0
C1510 C 0.22235 0.87551 0.32696 0.0
C1511 C 0.20642 0.86268 0.32939 0.0
C1512 C 0.24173 0.85519 0.34886 0.0
C1513 C 0.20826 0.84709 0.34275 0.0
C1514 C 0.26277 0.83608 0.37236 0.0
C1515 C 0.29433 0.84138 0.34714 0.0
N1516 N 0.22566 0.84367 0.35189 0.0
N1517 N 0.27702 0.85074 0.34386 0.0
H1518 H 0.66196 0.68749 0.84888 0.0
H1519 H 0.64892 0.7993 0.84542 0.0
H1520 H 0.61062 0.7139 0.82287 0.0
H1521 H 0.68469 0.7718 0.88981 0.0
H1522 H 0.63105 0.7685 0.84103 0.0
H1523 H 0.66714 0.71722 0.86827 0.0
C1524 C 0.65144 0.69939 0.84771 0.0
C1525 C 0.63599 0.6984 0.83411 0.0
C1526 C 0.64237 0.76927 0.85218 0.0
C1527 C 0.64216 0.7327 0.85575 0.0
C1528 C 0.65255 0.78687 0.85469 0.0
C1529 C 0.66828 0.78794 0.86792 0.0
C1530 C 0.64849 0.75246 0.86247 0.0
C1531 C 0.67257 0.77148 0.8795 0.0
C1532 C 0.65439 0.71637 0.85879 0.0
C1533 C 0.62274 0.71414 0.83317 0.0
N1534 N 0.66307 0.7542 0.87614 0.0
N1535 N 0.62644 0.7309 0.84343 0.0
H1536 H 0.10662 0.24975 0.20863 0.0
H1537 H 0.1423 0.14061 0.23041 0.0
H1538 H 0.16234 0.22773 0.18792 0.0
H1539 H 0.11564 0.17572 0.27589 0.0
H1540 H 0.14159 0.16926 0.20841 0.0
H1541 H 0.10221 0.21934 0.22775 0.0
C1542 C 0.11785 0.23848 0.20805 0.0
C1543 C 0.13498 0.24128 0.19691 0.0
C1544 C 0.13548 0.17049 0.22306 0.0
C1545 C 0.12971 0.20649 0.21805 0.0
C1546 C 0.13564 0.15415 0.23549 0.0
C1547 C 0.1288 0.15585 0.25485 0.0
C1548 C 0.12801 0.18843 0.22996 0.0
C1549 C 0.12087 0.17386 0.26097 0.0
C1550 C 0.11532 0.22122 0.21891 0.0
C1551 C 0.14907 0.22623 0.19656 0.0
N1552 N 0.12065 0.18951 0.24854 0.0
N1553 N 0.14607 0.20939 0.20689 0.0
H1554 H 0.32382 0.61432 0.77715 0.0
H1555 H 0.27423 0.66203 0.68568 0.0
H1556 H 0.3593 0.63744 0.73005 0.0
H1557 H 0.24969 0.60893 0.71015 0.0
H1558 H 0.3045 0.65617 0.70437 0.0
H1559 H 0.29527 0.61413 0.75507 0.0
C1560 C 0.32566 0.61885 0.76199 0.0
C1561 C 0.3439 0.62562 0.75524 0.0
C1562 C 0.2925 0.64578 0.70554 0.0
C1563 C 0.31134 0.62632 0.73037 0.0
C1564 C 0.2752 0.64921 0.69509 0.0
C1565 C 0.25943 0.63602 0.69657 0.0
C1566 C 0.29383 0.62933 0.71791 0.0
C1567 C 0.26153 0.61946 0.70869 0.0
C1568 C 0.30941 0.61882 0.74948 0.0
C1569 C 0.34553 0.63175 0.73564 0.0
N1570 N 0.27833 0.61672 0.71917 0.0
N1571 N 0.32932 0.63235 0.72396 0.0
H1572 H 0.86248 0.86349 0.22835 0.0
H1573 H 0.89174 0.75187 0.20907 0.0
H1574 H 0.87995 0.82545 0.27593 0.0
H1575 H 0.84188 0.77918 0.18104 0.0
H1576 H 0.89623 0.78166 0.22911 0.0
H1577 H 0.86423 0.83535 0.20577 0.0
C1578 C 0.86733 0.84936 0.23388 0.0
C1579 C 0.87121 0.8467 0.25394 0.0
C1580 C 0.88442 0.78108 0.21846 0.0
C1581 C 0.87318 0.81473 0.22838 0.0
C1582 C 0.88185 0.76419 0.20707 0.0
C1583 C 0.86627 0.76307 0.19363 0.0
C1584 C 0.8717 0.7971 0.21586 0.0
C1585 C 0.85388 0.7794 0.19149 0.0
C1586 C 0.86809 0.83334 0.22108 0.0
C1587 C 0.87695 0.82803 0.26051 0.0
N1588 N 0.85692 0.79582 0.20243 0.0
N1589 N 0.87777 0.81269 0.24775 0.0
H1590 H 0.64136 0.36054 0.72869 0.0
H1591 H 0.75234 0.39024 0.70773 0.0
H1592 H 0.67982 0.37827 0.77581 0.0
H1593 H 0.72535 0.34003 0.68002 0.0
H1594 H 0.72306 0.3939 0.72864 0.0
H1595 H 0.66945 0.36142 0.70598 0.0
C1596 C 0.6556 0.36517 0.7341 0.0
C1597 C 0.65836 0.36946 0.75406 0.0
C1598 C 0.72361 0.38215 0.71791 0.0
C1599 C 0.69028 0.37049 0.72835 0.0
C1600 C 0.74023 0.38005 0.70604 0.0
C1601 C 0.74129 0.36465 0.69238 0.0
C1602 C 0.70778 0.36916 0.71561 0.0
C1603 C 0.72519 0.35189 0.69063 0.0
C1604 C 0.67159 0.36544 0.72123 0.0
C1605 C 0.67716 0.37494 0.76048 0.0
N1606 N 0.709 0.3545 0.70203 0.0
N1607 N 0.69246 0.37535 0.74763 0.0
H1608 H 0.16091 0.7507 0.78307 0.0
H1609 H 0.1262 0.85922 0.76593 0.0
H1610 H 0.11354 0.77395 0.81823 0.0
H1611 H 0.14219 0.82121 0.71773 0.0
H1612 H 0.12362 0.83014 0.78729 0.0
H1613 H 0.15773 0.77883 0.76087 0.0
C1614 C 0.14985 0.76175 0.7861 0.0
C1615 C 0.13744 0.76002 0.80243 0.0
C1616 C 0.12748 0.82827 0.77196 0.0
C1617 C 0.1339 0.79227 0.77732 0.0
C1618 C 0.12889 0.8448 0.75977 0.0
C1619 C 0.1349 0.84268 0.74014 0.0
C1620 C 0.13241 0.80969 0.76446 0.0
C1621 C 0.13814 0.82363 0.73292 0.0
C1622 C 0.14796 0.77769 0.77339 0.0
C1623 C 0.12329 0.77471 0.80568 0.0
N1624 N 0.13723 0.80792 0.74514 0.0
N1625 N 0.12204 0.79041 0.79334 0.0
H1626 H 0.63663 0.63863 0.27199 0.0
H1627 H 0.7471 0.6055 0.29264 0.0
H1628 H 0.67232 0.61182 0.22706 0.0
H1629 H 0.72233 0.65881 0.3164 0.0
H1630 H 0.71669 0.60026 0.27385 0.0
H1631 H 0.66499 0.63805 0.29432 0.0
C1632 C 0.65022 0.63191 0.26712 0.0
C1633 C 0.65219 0.62505 0.24779 0.0
C1634 C 0.71796 0.61303 0.28328 0.0
C1635 C 0.68448 0.62449 0.27303 0.0
C1636 C 0.73523 0.61604 0.29395 0.0
C1637 C 0.73728 0.63276 0.30584 0.0
C1638 C 0.70248 0.62654 0.28498 0.0
C1639 C 0.72145 0.64591 0.30713 0.0
C1640 C 0.66641 0.63185 0.27973 0.0
C1641 C 0.67025 0.61707 0.24194 0.0
N1642 N 0.70465 0.64248 0.29688 0.0
N1643 N 0.68577 0.61701 0.25451 0.0
H1644 H 0.83884 0.2272 0.81329 0.0
H1645 H 0.88743 0.17491 0.7244 0.0
H1646 H 0.895 0.24799 0.79248 0.0
H1647 H 0.86074 0.14051 0.77042 0.0
H1648 H 0.88862 0.20323 0.74676 0.0
H1649 H 0.84392 0.1965 0.79508 0.0
C1650 C 0.85221 0.22529 0.80485 0.0
C1651 C 0.86649 0.24014 0.80425 0.0
C1652 C 0.88293 0.18934 0.75206 0.0
C1653 C 0.87224 0.20531 0.78336 0.0
C1654 C 0.88231 0.17323 0.73939 0.0
C1655 C 0.87425 0.15538 0.74575 0.0
C1656 C 0.87472 0.18772 0.7709 0.0
C1657 C 0.86741 0.15396 0.76514 0.0
C1658 C 0.85517 0.20775 0.79466 0.0
C1659 C 0.88366 0.23687 0.79329 0.0
N1660 N 0.8674 0.17009 0.77695 0.0
N1661 N 0.88593 0.2199 0.78297 0.0
H1662 H 0.36012 0.35975 0.26741 0.0
H1663 H 0.2501 0.39132 0.28936 0.0
H1664 H 0.32271 0.37971 0.22033 0.0
H1665 H 0.27439 0.33744 0.31228 0.0
H1666 H 0.27975 0.39551 0.26901 0.0
H1667 H 0.3317 0.36041 0.28972 0.0
C1668 C 0.34607 0.36489 0.26196 0.0
C1669 C 0.34368 0.36986 0.24211 0.0
C1670 C 0.27852 0.38286 0.27859 0.0
C1671 C 0.31141 0.37064 0.26738 0.0
C1672 C 0.26171 0.38045 0.29015 0.0
C1673 C 0.25979 0.36389 0.30229 0.0
C1674 C 0.29371 0.36897 0.27977 0.0
C1675 C 0.27523 0.35025 0.30288 0.0
C1676 C 0.32989 0.36503 0.27459 0.0
C1677 C 0.32508 0.3759 0.2356 0.0
N1678 N 0.29165 0.35317 0.29189 0.0
N1679 N 0.3096 0.37619 0.24823 0.0
H1680 H 0.23317 0.14052 0.13901 0.0
H1681 H 0.21346 0.11095 0.25027 0.0
H1682 H 0.28115 0.12438 0.17711 0.0
H1683 H 0.18573 0.16126 0.22349 0.0
H1684 H 0.23411 0.1072 0.22076 0.0
H1685 H 0.21075 0.13899 0.16731 0.0
C1686 C 0.23884 0.13603 0.1532 0.0
C1687 C 0.25895 0.13242 0.15581 0.0
C1688 C 0.22343 0.11898 0.22141 0.0
C1689 C 0.23357 0.13066 0.18796 0.0
C1690 C 0.21171 0.12113 0.23815 0.0
C1691 C 0.19814 0.1366 0.23933 0.0
C1692 C 0.221 0.13197 0.20559 0.0
C1693 C 0.19628 0.14936 0.22324 0.0
C1694 C 0.22613 0.13539 0.16931 0.0
C1695 C 0.26569 0.12716 0.17457 0.0
N1696 N 0.2075 0.14668 0.20694 0.0
N1697 N 0.25301 0.12639 0.18999 0.0
H1698 H 0.36229 0.78482 0.68335 0.0
H1699 H 0.38965 0.68064 0.728 0.0
H1700 H 0.37515 0.73615 0.64477 0.0
H1701 H 0.34357 0.71728 0.75152 0.0
H1702 H 0.39296 0.70344 0.70007 0.0
H1703 H 0.36483 0.76279 0.71151 0.0
C1704 C 0.36584 0.76952 0.68078 0.0
C1705 C 0.36797 0.76219 0.66162 0.0
C1706 C 0.38225 0.70646 0.71145 0.0
C1707 C 0.37134 0.73707 0.69389 0.0
C1708 C 0.3804 0.69359 0.72738 0.0
C1709 C 0.36628 0.69714 0.74202 0.0
C1710 C 0.37029 0.72321 0.71056 0.0
C1711 C 0.35455 0.71398 0.74048 0.0
C1712 C 0.3673 0.75701 0.69688 0.0
C1713 C 0.37321 0.74237 0.65928 0.0
N1714 N 0.35692 0.72648 0.7251 0.0
N1715 N 0.37458 0.73038 0.67528 0.0
H1716 H 0.81604 0.89257 0.22485 0.0
H1717 H 0.71167 0.86586 0.18004 0.0
H1718 H 0.77865 0.84683 0.24782 0.0
H1719 H 0.76039 0.87808 0.14132 0.0
H1720 H 0.73355 0.86932 0.20821 0.0
H1721 H 0.79331 0.89654 0.1969 0.0
C1722 C 0.80296 0.88354 0.22409 0.0
C1723 C 0.79917 0.8693 0.23856 0.0
C1724 C 0.73936 0.87153 0.19356 0.0
C1725 C 0.77317 0.8741 0.20718 0.0
C1726 C 0.72692 0.86962 0.17747 0.0
C1727 C 0.73434 0.87123 0.1583 0.0
C1728 C 0.75933 0.87541 0.19052 0.0
C1729 C 0.75413 0.87658 0.15587 0.0
C1730 C 0.79012 0.88577 0.20818 0.0
C1731 C 0.78214 0.85787 0.2369 0.0
N1732 N 0.76608 0.87828 0.17186 0.0
N1733 N 0.76969 0.86062 0.22156 0.0
H1734 H 0.65618 0.27717 0.75414 0.0
H1735 H 0.62361 0.26061 0.64498 0.0
H1736 H 0.61065 0.31363 0.72934 0.0
H1737 H 0.64072 0.21266 0.6828 0.0
H1738 H 0.61939 0.28146 0.67425 0.0
H1739 H 0.65252 0.25446 0.72656 0.0
C1740 C 0.64532 0.2803 0.74292 0.0
C1741 C 0.63368 0.29724 0.744 0.0
C1742 C 0.62375 0.26626 0.67606 0.0
C1743 C 0.62964 0.27154 0.71225 0.0
C1744 C 0.62608 0.25436 0.65941 0.0
C1745 C 0.63292 0.235 0.66146 0.0
C1746 C 0.62855 0.25874 0.6947 0.0
C1747 C 0.63591 0.22765 0.6805 0.0
C1748 C 0.64317 0.26732 0.72725 0.0
C1749 C 0.6198 0.30062 0.72908 0.0
N1750 N 0.63408 0.2396 0.69632 0.0
N1751 N 0.61835 0.28802 0.7136 0.0
H1752 H 0.18943 0.89277 0.77227 0.0
H1753 H 0.29325 0.8629 0.81758 0.0
H1754 H 0.22894 0.85072 0.74602 0.0
H1755 H 0.2441 0.87682 0.85515 0.0
H1756 H 0.27238 0.86782 0.78889 0.0
H1757 H 0.21181 0.89545 0.80061 0.0
C1758 C 0.20292 0.88433 0.77236 0.0
C1759 C 0.20735 0.87143 0.75686 0.0
C1760 C 0.26622 0.87003 0.80341 0.0
C1761 C 0.23294 0.8747 0.78884 0.0
C1762 C 0.2781 0.86725 0.8198 0.0
C1763 C 0.27027 0.86901 0.8388 0.0
C1764 C 0.24636 0.87484 0.80594 0.0
C1765 C 0.25067 0.87517 0.84076 0.0
C1766 C 0.21557 0.88581 0.78852 0.0
C1767 C 0.22491 0.86071 0.75773 0.0
N1768 N 0.23925 0.87767 0.82447 0.0
N1769 N 0.23709 0.86265 0.77341 0.0
H1770 H 0.6611 0.68254 0.27911 0.0
H1771 H 0.61864 0.77792 0.32616 0.0
H1772 H 0.60894 0.70879 0.2544 0.0
H1773 H 0.64073 0.73116 0.36274 0.0
H1774 H 0.61671 0.75487 0.29845 0.0
H1775 H 0.6567 0.70258 0.30873 0.0
C1776 C 0.6488 0.69263 0.27988 0.0
C1777 C 0.63546 0.6942 0.26425 0.0
C1778 C 0.62153 0.74958 0.31267 0.0
C1779 C 0.63041 0.71708 0.29795 0.0
C1780 C 0.62253 0.76265 0.32845 0.0
C1781 C 0.62954 0.75628 0.34675 0.0
C1782 C 0.6283 0.73026 0.31509 0.0
C1783 C 0.63486 0.7365 0.34893 0.0
C1784 C 0.64619 0.70386 0.29684 0.0
C1785 C 0.61958 0.70723 0.26613 0.0
N1786 N 0.63454 0.72424 0.33315 0.0
N1787 N 0.61764 0.71842 0.28259 0.0
H1788 H 0.7837 0.16188 0.74771 0.0
H1789 H 0.76258 0.12633 0.85536 0.0
H1790 H 0.81532 0.11203 0.77084 0.0
H1791 H 0.71638 0.14736 0.81733 0.0
H1792 H 0.78395 0.12262 0.82641 0.0
H1793 H 0.76067 0.15956 0.77524 0.0
C1794 C 0.78573 0.15041 0.75857 0.0
C1795 C 0.80136 0.1371 0.75701 0.0
C1796 C 0.76904 0.12784 0.82449 0.0
C1797 C 0.77533 0.13457 0.78865 0.0
C1798 C 0.75684 0.12992 0.84096 0.0
C1799 C 0.73782 0.13763 0.83882 0.0
C1800 C 0.76219 0.1338 0.80595 0.0
C1801 C 0.73113 0.14196 0.81978 0.0
C1802 C 0.77256 0.14903 0.77419 0.0
C1803 C 0.80334 0.12248 0.77147 0.0
N1804 N 0.74339 0.14034 0.80416 0.0
N1805 N 0.7906 0.12175 0.78689 0.0
H1806 H 0.39139 0.31499 0.26928 0.0
H1807 H 0.36197 0.21172 0.31535 0.0
H1808 H 0.34451 0.2786 0.247 0.0
H1809 H 0.37937 0.25977 0.3529 0.0
H1810 H 0.36473 0.23331 0.2869 0.0
H1811 H 0.39526 0.29219 0.29715 0.0
C1812 C 0.38207 0.30211 0.27016 0.0
C1813 C 0.36755 0.29864 0.2559 0.0
C1814 C 0.36815 0.23906 0.30135 0.0
C1815 C 0.37218 0.27257 0.28727 0.0
C1816 C 0.3666 0.22678 0.31761 0.0
C1817 C 0.36996 0.23411 0.33658 0.0
C1818 C 0.3734 0.25877 0.30399 0.0
C1819 C 0.37647 0.25359 0.33853 0.0
C1820 C 0.38425 0.28923 0.28605 0.0
C1821 C 0.35577 0.28186 0.25775 0.0
N1822 N 0.37781 0.26539 0.32239 0.0
N1823 N 0.35843 0.26939 0.27309 0.0
H1824 H 0.22928 0.18514 0.10821 0.0
H1825 H 0.18158 0.28899 0.13173 0.0
H1826 H 0.25161 0.22474 0.15237 0.0
H1827 H 0.14432 0.2387 0.12152 0.0
H1828 H 0.21038 0.26787 0.12888 0.0
H1829 H 0.20065 0.2069 0.10377 0.0
C1830 C 0.22824 0.19851 0.11679 0.0
C1831 C 0.24274 0.2032 0.13072 0.0
C1832 C 0.1959 0.26153 0.12698 0.0
C1833 C 0.21056 0.22809 0.12539 0.0
C1834 C 0.17945 0.27353 0.12856 0.0
C1835 C 0.16051 0.26549 0.12733 0.0
C1836 C 0.19347 0.24136 0.12381 0.0
C1837 C 0.15867 0.24546 0.12271 0.0
C1838 C 0.21194 0.21079 0.1143 0.0
C1839 C 0.2407 0.22056 0.14157 0.0
N1840 N 0.17501 0.23395 0.12132 0.0
N1841 N 0.22497 0.23246 0.13858 0.0
H1842 H 0.25371 0.78684 0.8934 0.0
H1843 H 0.14254 0.76932 0.86305 0.0
H1844 H 0.22987 0.80972 0.83929 0.0
H1845 H 0.17804 0.7209 0.88327 0.0
H1846 H 0.1718 0.79047 0.86356 0.0
H1847 H 0.22314 0.76811 0.89844 0.0
C1848 C 0.24199 0.78799 0.88268 0.0
C1849 C 0.2443 0.79962 0.8658 0.0
C1850 C 0.17301 0.77532 0.86831 0.0
C1851 C 0.20939 0.77896 0.87182 0.0
C1852 C 0.15635 0.76335 0.86826 0.0
C1853 C 0.15796 0.74344 0.8733 0.0
C1854 C 0.1912 0.76739 0.87389 0.0
C1855 C 0.17627 0.73624 0.87942 0.0
C1856 C 0.22466 0.77735 0.88556 0.0
C1857 C 0.22872 0.80069 0.85235 0.0
N1858 N 0.19225 0.74823 0.87958 0.0
N1859 N 0.21183 0.79059 0.85572 0.0
H1860 H 0.68681 0.72174 0.34081 0.0
H1861 H 0.78028 0.67362 0.38528 0.0
H1862 H 0.7118 0.74604 0.39376 0.0
H1863 H 0.73365 0.63745 0.36234 0.0
H1864 H 0.75733 0.7014 0.38719 0.0
H1865 H 0.70603 0.6917 0.34598 0.0
C1866 C 0.69642 0.72077 0.35347 0.0
C1867 C 0.69791 0.73642 0.36679 0.0
C1868 C 0.75202 0.68724 0.38222 0.0
C1869 C 0.71987 0.70226 0.37271 0.0
C1870 C 0.76504 0.67141 0.38124 0.0
C1871 C 0.75869 0.65323 0.37396 0.0
C1872 C 0.7328 0.68498 0.37514 0.0
C1873 C 0.73895 0.65116 0.36842 0.0
C1874 C 0.70718 0.70358 0.35652 0.0
C1875 C 0.71032 0.7343 0.38313 0.0
N1876 N 0.72677 0.66701 0.3687 0.0
N1877 N 0.7211 0.71763 0.38549 0.0
H1878 H 0.77206 0.1892 0.89163 0.0
H1879 H 0.82058 0.29317 0.8681 0.0
H1880 H 0.7479 0.2318 0.85136 0.0
H1881 H 0.85679 0.24221 0.87869 0.0
H1882 H 0.79133 0.27297 0.87245 0.0
H1883 H 0.80097 0.21058 0.89618 0.0
C1884 C 0.77274 0.20314 0.88396 0.0
C1885 C 0.75768 0.20875 0.871 0.0
C1886 C 0.80568 0.26627 0.87414 0.0
C1887 C 0.79022 0.23319 0.87646 0.0
C1888 C 0.82238 0.27777 0.87174 0.0
C1889 C 0.84112 0.26926 0.87266 0.0
C1890 C 0.80766 0.24608 0.87765 0.0
C1891 C 0.84258 0.24931 0.87776 0.0
C1892 C 0.78921 0.21522 0.88652 0.0
C1893 C 0.75927 0.22686 0.86134 0.0
N1894 N 0.82599 0.23826 0.87982 0.0
N1895 N 0.7752 0.23846 0.86433 0.0
H1896 H 0.31922 0.26997 0.38923 0.0
H1897 H 0.2145 0.31838 0.37053 0.0
H1898 H 0.27609 0.24672 0.34902 0.0
H1899 H 0.26568 0.35515 0.3775 0.0
H1900 H 0.23533 0.28936 0.37324 0.0
H1901 H 0.29811 0.299 0.39437 0.0
C1902 C 0.30524 0.27089 0.38167 0.0
C1903 C 0.29937 0.25603 0.3686 0.0
C1904 C 0.24195 0.30378 0.37447 0.0
C1905 C 0.27523 0.28866 0.37475 0.0
C1906 C 0.23011 0.32036 0.37297 0.0
C1907 C 0.23844 0.33921 0.37335 0.0
C1908 C 0.26229 0.306 0.37664 0.0
C1909 C 0.25869 0.34087 0.377 0.0
C1910 C 0.29332 0.28742 0.38456 0.0
C1911 C 0.28122 0.25792 0.35909 0.0
N1912 N 0.27005 0.3244 0.37828 0.0
N1913 N 0.26974 0.27388 0.36245 0.0
H1914 H 0.75141 0.7904 0.10384 0.0
H1915 H 0.86126 0.76865 0.13756 0.0
H1916 H 0.775 0.81214 0.15851 0.0
H1917 H 0.82498 0.72296 0.11295 0.0
H1918 H 0.83302 0.79114 0.13643 0.0
H1919 H 0.78179 0.77144 0.09877 0.0
C1920 C 0.76304 0.79129 0.11467 0.0
C1921 C 0.76068 0.80262 0.13173 0.0
C1922 C 0.83146 0.77633 0.1308 0.0
C1923 C 0.79541 0.78163 0.12572 0.0
C1924 C 0.84756 0.76362 0.1312 0.0
C1925 C 0.84538 0.74406 0.12512 0.0
C1926 C 0.81329 0.7695 0.12386 0.0
C1927 C 0.82719 0.73802 0.11758 0.0
C1928 C 0.78028 0.78051 0.11176 0.0
C1929 C 0.77618 0.80334 0.14531 0.0
N1930 N 0.81177 0.75071 0.11714 0.0
N1931 N 0.79296 0.79305 0.14196 0.0
H1932 H 0.73318 0.36329 0.63683 0.0
H1933 H 0.71128 0.25352 0.60276 0.0
H1934 H 0.77782 0.32814 0.60883 0.0
H1935 H 0.69204 0.27632 0.6587 0.0
H1936 H 0.72943 0.28427 0.59696 0.0
H1937 H 0.71102 0.3348 0.63637 0.0
C1938 C 0.73801 0.34981 0.62987 0.0
C1939 C 0.75722 0.34801 0.62266 0.0
C1940 C 0.72107 0.28251 0.61039 0.0
C1941 C 0.73215 0.3156 0.62219 0.0
C1942 C 0.71076 0.26506 0.61371 0.0
C1943 C 0.70038 0.26237 0.63133 0.0
C1944 C 0.72043 0.29751 0.62451 0.0
C1945 C 0.70012 0.27774 0.64506 0.0
C1946 C 0.72549 0.33355 0.62986 0.0
C1947 C 0.76302 0.33007 0.61436 0.0
N1948 N 0.70993 0.29473 0.64132 0.0
N1949 N 0.75053 0.31449 0.61435 0.0
H1950 H 0.264 0.64143 0.64065 0.0
H1951 H 0.28614 0.75095 0.60674 0.0
H1952 H 0.21758 0.67769 0.61735 0.0
H1953 H 0.30723 0.72776 0.66185 0.0
H1954 H 0.26644 0.7209 0.60218 0.0
H1955 H 0.28623 0.66986 0.6395 0.0
C1956 C 0.25873 0.65518 0.63458 0.0
C1957 C 0.23906 0.65728 0.62886 0.0
C1958 C 0.27549 0.72245 0.61518 0.0
C1959 C 0.26423 0.6896 0.62757 0.0
C1960 C 0.28667 0.7395 0.6178 0.0
C1961 C 0.29808 0.74186 0.63482 0.0
C1962 C 0.27635 0.70749 0.62934 0.0
C1963 C 0.29838 0.7266 0.64868 0.0
C1964 C 0.27131 0.67139 0.63417 0.0
C1965 C 0.23274 0.67554 0.6217 0.0
N1966 N 0.28778 0.70997 0.64557 0.0
N1967 N 0.24531 0.69107 0.62122 0.0
H1968 H 0.86474 0.86294 0.77415 0.0
H1969 H 0.89392 0.75116 0.79349 0.0
H1970 H 0.88578 0.82566 0.72746 0.0
H1971 H 0.84302 0.77816 0.81995 0.0
H1972 H 0.89931 0.78128 0.77419 0.0
H1973 H 0.86558 0.83463 0.79658 0.0
C1974 C 0.87017 0.84896 0.76882 0.0
C1975 C 0.87533 0.84655 0.74902 0.0
C1976 C 0.88707 0.78056 0.78434 0.0
C1977 C 0.87625 0.81436 0.77441 0.0
C1978 C 0.88398 0.76347 0.79531 0.0
C1979 C 0.86784 0.76215 0.80807 0.0
C1980 C 0.87427 0.79656 0.78666 0.0
C1981 C 0.85544 0.7785 0.81 0.0
C1982 C 0.87041 0.83282 0.78152 0.0
C1983 C 0.88178 0.82804 0.74268 0.0
N1984 N 0.85896 0.7951 0.79946 0.0
N1985 N 0.88206 0.81259 0.75534 0.0
H1986 H 0.63727 0.36321 0.26837 0.0
H1987 H 0.74783 0.39508 0.28997 0.0
H1988 H 0.67371 0.38881 0.22332 0.0
H1989 H 0.72264 0.34163 0.31294 0.0
H1990 H 0.71764 0.40062 0.27088 0.0
H1991 H 0.6655 0.36358 0.29088 0.0
C1992 C 0.651 0.36962 0.2635 0.0
C1993 C 0.65322 0.37621 0.2441 0.0
C1994 C 0.71877 0.38776 0.28021 0.0
C1995 C 0.68535 0.37653 0.26954 0.0
C1996 C 0.73592 0.38458 0.29104 0.0
C1997 C 0.73777 0.36773 0.30278 0.0
C1998 C 0.70322 0.3743 0.28164 0.0
C1999 C 0.72189 0.35462 0.30378 0.0
C2000 C 0.66711 0.36957 0.27621 0.0
C2001 C 0.67146 0.38379 0.23826 0.0
N2002 N 0.70521 0.35823 0.2934 0.0
N2003 N 0.68689 0.38376 0.25094 0.0
H2004 H 0.14098 0.14167 0.76839 0.0
H2005 H 0.10831 0.25114 0.7932 0.0
H2006 H 0.11932 0.18041 0.72318 0.0
H2007 H 0.16019 0.22479 0.81836 0.0
H2008 H 0.10447 0.22218 0.77189 0.0
H2009 H 0.13977 0.16905 0.79189 0.0
C2010 C 0.13532 0.15577 0.76361 0.0
C2011 C 0.13003 0.15885 0.74394 0.0
C2012 C 0.11662 0.2228 0.78215 0.0
C2013 C 0.1287 0.18999 0.77054 0.0
C2014 C 0.11883 0.23923 0.79425 0.0
C2015 C 0.13474 0.2404 0.80731 0.0
C2016 C 0.13007 0.20724 0.78362 0.0
C2017 C 0.14792 0.22457 0.80824 0.0
C2018 C 0.13488 0.17138 0.77692 0.0
C2019 C 0.12336 0.1775 0.7383 0.0
N2020 N 0.14522 0.20855 0.79662 0.0
N2021 N 0.12284 0.19243 0.75156 0.0
H2022 H 0.32506 0.62162 0.22128 0.0
H2023 H 0.28049 0.65919 0.31972 0.0
H2024 H 0.36294 0.64041 0.26842 0.0
H2025 H 0.25499 0.60831 0.2918 0.0
H2026 H 0.30959 0.65564 0.29876 0.0
H2027 H 0.29783 0.6187 0.24481 0.0
C2028 C 0.32772 0.62461 0.23669 0.0
C2029 C 0.34625 0.63096 0.24304 0.0
C2030 C 0.29765 0.64522 0.29732 0.0
C2031 C 0.31517 0.62857 0.26967 0.0
C2032 C 0.28099 0.64735 0.30908 0.0
C2033 C 0.26529 0.63411 0.30731 0.0
C2034 C 0.29837 0.63007 0.28337 0.0
C2035 C 0.26679 0.61883 0.29354 0.0
C2036 C 0.31222 0.62302 0.25004 0.0
C2037 C 0.34894 0.63509 0.26305 0.0
N2038 N 0.28295 0.61739 0.28184 0.0
N2039 N 0.33343 0.63422 0.27563 0.0
H2040 H 0.85929 0.18316 0.28757 0.0
H2041 H 0.89143 0.22804 0.18462 0.0
H2042 H 0.876 0.14493 0.23981 0.0
H2043 H 0.84396 0.25127 0.21964 0.0
H2044 H 0.89425 0.20025 0.20768 0.0
H2045 H 0.86297 0.21142 0.26585 0.0
C2046 C 0.86392 0.1807 0.27255 0.0
C2047 C 0.8668 0.16161 0.26533 0.0
C2048 C 0.88334 0.21154 0.21029 0.0
C2049 C 0.87141 0.19397 0.24055 0.0
C2050 C 0.88177 0.22738 0.19726 0.0
C2051 C 0.86738 0.24187 0.20026 0.0
C2052 C 0.87083 0.21062 0.22664 0.0
C2053 C 0.85514 0.24032 0.21674 0.0
C2054 C 0.86603 0.19685 0.2602 0.0
C2055 C 0.87344 0.15939 0.2459 0.0
N2056 N 0.85723 0.22504 0.22939 0.0
N2057 N 0.87536 0.17544 0.23405 0.0
H2058 H 0.24951 0.39676 0.71539 0.0
H2059 H 0.3602 0.36483 0.73448 0.0
H2060 H 0.27388 0.34382 0.69048 0.0
H2061 H 0.32339 0.38403 0.78233 0.0
H2062 H 0.33165 0.36648 0.71239 0.0
H2063 H 0.27979 0.40104 0.73477 0.0
C2064 C 0.2613 0.38616 0.7139 0.0
C2065 C 0.25921 0.36979 0.70155 0.0
C2066 C 0.33001 0.37075 0.72764 0.0
C2067 C 0.29378 0.37496 0.72298 0.0
C2068 C 0.34626 0.37004 0.74015 0.0
C2069 C 0.34406 0.37446 0.76015 0.0
C2070 C 0.31165 0.37637 0.73516 0.0
C2071 C 0.32561 0.38063 0.76695 0.0
C2072 C 0.27846 0.38861 0.72491 0.0
C2073 C 0.27487 0.35648 0.70007 0.0
N2074 N 0.31005 0.38144 0.75445 0.0
N2075 N 0.29159 0.35941 0.71058 0.0
H2076 H 0.13844 0.86471 0.23335 0.0
H2077 H 0.10392 0.75444 0.21458 0.0
H2078 H 0.11384 0.82968 0.28005 0.0
H2079 H 0.15841 0.77759 0.19193 0.0
H2080 H 0.09878 0.78541 0.2326 0.0
H2081 H 0.13644 0.83614 0.21139 0.0
C2082 C 0.13185 0.85124 0.23871 0.0
C2083 C 0.12609 0.84949 0.25841 0.0
C2084 C 0.11173 0.78368 0.22351 0.0
C2085 C 0.12387 0.81699 0.23357 0.0
C2086 C 0.11467 0.76611 0.21327 0.0
C2087 C 0.13173 0.76346 0.20199 0.0
C2088 C 0.12562 0.79882 0.22188 0.0
C2089 C 0.14522 0.77899 0.20072 0.0
C2090 C 0.13097 0.83494 0.22629 0.0
C2091 C 0.11825 0.83157 0.26487 0.0
N2092 N 0.14184 0.79607 0.21048 0.0
N2093 N 0.11738 0.81593 0.25247 0.0
H2094 H 0.74872 0.60774 0.70739 0.0
H2095 H 0.63793 0.63952 0.72741 0.0
H2096 H 0.72298 0.65918 0.6807 0.0
H2097 H 0.67514 0.61821 0.77405 0.0
H2098 H 0.66615 0.63831 0.70489 0.0
H2099 H 0.71877 0.60353 0.72717 0.0
C2100 C 0.73672 0.61806 0.70564 0.0
C2101 C 0.73835 0.63398 0.69264 0.0
C2102 C 0.66796 0.63352 0.71996 0.0
C2103 C 0.70409 0.6289 0.71463 0.0
C2104 C 0.65188 0.63398 0.73271 0.0
C2105 C 0.65429 0.62882 0.75251 0.0
C2106 C 0.68636 0.62746 0.72703 0.0
C2107 C 0.67275 0.62221 0.75883 0.0
C2108 C 0.71972 0.61565 0.71689 0.0
C2109 C 0.72239 0.64691 0.69082 0.0
N2110 N 0.68814 0.6217 0.74611 0.0
N2111 N 0.70584 0.64403 0.70164 0.0
H2112 H 0.71459 0.86062 0.8183 0.0
H2113 H 0.81827 0.89159 0.77449 0.0
H2114 H 0.76212 0.87652 0.85716 0.0
H2115 H 0.78333 0.84413 0.75118 0.0
H2116 H 0.79492 0.89471 0.802 0.0
H2117 H 0.73669 0.86409 0.7903 0.0
C2118 C 0.72963 0.86509 0.82094 0.0
C2119 C 0.73666 0.86779 0.84014 0.0
C2120 C 0.79239 0.88375 0.79074 0.0
C2121 C 0.76189 0.87211 0.80807 0.0
C2122 C 0.80558 0.88201 0.77506 0.0
C2123 C 0.80268 0.86754 0.76062 0.0
C2124 C 0.77598 0.87132 0.79157 0.0
C2125 C 0.78613 0.85538 0.76207 0.0
C2126 C 0.7422 0.86705 0.80494 0.0
C2127 C 0.75615 0.87414 0.84261 0.0
N2128 N 0.77333 0.85764 0.77721 0.0
N2129 N 0.76822 0.87592 0.8267 0.0
H2130 H 0.60673 0.29391 0.25138 0.0
H2131 H 0.63881 0.27252 0.36197 0.0
H2132 H 0.65927 0.31846 0.27698 0.0
H2133 H 0.61397 0.22717 0.3254 0.0
H2134 H 0.63839 0.29499 0.3337 0.0
H2135 H 0.60186 0.27424 0.28132 0.0
C2136 C 0.61719 0.29518 0.26332 0.0
C2137 C 0.63358 0.30757 0.26165 0.0
C2138 C 0.63261 0.28025 0.33205 0.0
C2139 C 0.62775 0.28573 0.29594 0.0
C2140 C 0.63259 0.26755 0.34818 0.0
C2141 C 0.6262 0.2481 0.34597 0.0
C2142 C 0.6258 0.27351 0.31378 0.0
C2143 C 0.61885 0.24214 0.32766 0.0
C2144 C 0.61439 0.28401 0.28033 0.0
C2145 C 0.64663 0.3088 0.27757 0.0
N2146 N 0.61883 0.25482 0.31221 0.0
N2147 N 0.64338 0.29809 0.29412 0.0
H2148 H 0.18666 0.16307 0.77613 0.0
H2149 H 0.28165 0.12034 0.82291 0.0
H2150 H 0.21313 0.11168 0.75012 0.0
H2151 H 0.23399 0.1399 0.85973 0.0
H2152 H 0.25893 0.11882 0.79489 0.0
H2153 H 0.20626 0.15767 0.80588 0.0
C2154 C 0.1967 0.15071 0.77667 0.0
C2155 C 0.19847 0.13789 0.76063 0.0
C2156 C 0.25338 0.12298 0.80922 0.0
C2157 C 0.22087 0.13172 0.79446 0.0
C2158 C 0.26627 0.12376 0.82516 0.0
C2159 C 0.25954 0.12996 0.84362 0.0
C2160 C 0.23388 0.12917 0.81167 0.0
C2161 C 0.23961 0.13468 0.84579 0.0
C2162 C 0.20767 0.14753 0.79368 0.0
C2163 C 0.21143 0.12191 0.76218 0.0
N2164 N 0.22753 0.1346 0.82987 0.0
N2165 N 0.22241 0.11944 0.77872 0.0
H2166 H 0.36328 0.73185 0.36517 0.0
H2167 H 0.39517 0.71235 0.25414 0.0
H2168 H 0.38785 0.77783 0.32919 0.0
H2169 H 0.34223 0.68823 0.27935 0.0
H2170 H 0.40071 0.73093 0.28465 0.0
H2171 H 0.36434 0.70961 0.33675 0.0
C2172 C 0.36967 0.73698 0.35151 0.0
C2173 C 0.37571 0.75657 0.34946 0.0
C2174 C 0.38797 0.72146 0.28346 0.0
C2175 C 0.37679 0.73143 0.31712 0.0
C2176 C 0.38479 0.71092 0.26613 0.0
C2177 C 0.36806 0.69902 0.26418 0.0
C2178 C 0.37466 0.71956 0.29909 0.0
C2179 C 0.35511 0.69754 0.28016 0.0
C2180 C 0.36999 0.72441 0.33529 0.0
C2181 C 0.38326 0.76274 0.33131 0.0
N2182 N 0.35872 0.70764 0.29701 0.0
N2183 N 0.38357 0.75021 0.31576 0.0
H2184 H 0.7618 0.12335 0.14342 0.0
H2185 H 0.77313 0.15503 0.25311 0.0
H2186 H 0.71167 0.13444 0.18063 0.0
H2187 H 0.81295 0.11149 0.22993 0.0
H2188 H 0.7519 0.15032 0.22455 0.0
H2189 H 0.78237 0.12008 0.17305 0.0
C2190 C 0.75503 0.1246 0.15778 0.0
C2191 C 0.73508 0.12953 0.1596 0.0
C2192 C 0.76522 0.14168 0.22577 0.0
C2193 C 0.75845 0.12634 0.1932 0.0
C2194 C 0.77738 0.14446 0.24198 0.0
C2195 C 0.79478 0.13364 0.24384 0.0
C2196 C 0.77071 0.12834 0.21103 0.0
C2197 C 0.79957 0.12004 0.22903 0.0
C2198 C 0.76677 0.12284 0.17462 0.0
C2199 C 0.72708 0.13107 0.17854 0.0
N2200 N 0.78771 0.11795 0.21303 0.0
N2201 N 0.73884 0.1299 0.19457 0.0
H2202 H 0.34394 0.28268 0.75367 0.0
H2203 H 0.37834 0.26843 0.64496 0.0
H2204 H 0.39045 0.31927 0.73093 0.0
H2205 H 0.36245 0.21923 0.68172 0.0
H2206 H 0.38161 0.28883 0.67462 0.0
H2207 H 0.34795 0.26072 0.7255 0.0
C2208 C 0.35503 0.28604 0.74275 0.0
C2209 C 0.3669 0.30275 0.74459 0.0
C2210 C 0.37769 0.27348 0.6761 0.0
C2211 C 0.37136 0.27791 0.71225 0.0
C2212 C 0.37587 0.26183 0.65923 0.0
C2213 C 0.36963 0.24223 0.66085 0.0
C2214 C 0.37292 0.26547 0.69453 0.0
C2215 C 0.36669 0.23442 0.67972 0.0
C2216 C 0.35739 0.27347 0.72677 0.0
C2217 C 0.38111 0.30642 0.73006 0.0
N2218 N 0.36797 0.24615 0.69578 0.0
N2219 N 0.38278 0.29423 0.71428 0.0
H2220 H 0.18263 0.84149 0.2221 0.0
H2221 H 0.27638 0.88487 0.17279 0.0
H2222 H 0.20922 0.89375 0.24619 0.0
H2223 H 0.22906 0.86243 0.13719 0.0
H2224 H 0.25392 0.88655 0.20098 0.0
H2225 H 0.20164 0.84624 0.19184 0.0
C2226 C 0.19254 0.8539 0.22103 0.0
C2227 C 0.19454 0.86715 0.23669 0.0
C2228 C 0.24837 0.88169 0.18688 0.0
C2229 C 0.21627 0.87258 0.20229 0.0
C2230 C 0.26111 0.88081 0.17083 0.0
C2231 C 0.25441 0.87377 0.15268 0.0
C2232 C 0.22905 0.87479 0.18487 0.0
C2233 C 0.23464 0.86828 0.1509 0.0
C2234 C 0.20319 0.85671 0.20373 0.0
C2235 C 0.20734 0.88318 0.23445 0.0
N2236 N 0.2227 0.86851 0.16694 0.0
N2237 N 0.21799 0.88529 0.21766 0.0
H2238 H 0.62577 0.74016 0.64295 0.0
H2239 H 0.65786 0.72059 0.75149 0.0
H2240 H 0.64224 0.78736 0.68195 0.0
H2241 H 0.61025 0.6866 0.72709 0.0
H2242 H 0.65492 0.74368 0.72408 0.0
H2243 H 0.62125 0.71869 0.67176 0.0
C2244 C 0.62805 0.74611 0.65753 0.0
C2245 C 0.6348 0.76545 0.66005 0.0
C2246 C 0.645 0.73126 0.72482 0.0
C2247 C 0.63014 0.741 0.69273 0.0
C2248 C 0.64674 0.71806 0.74038 0.0
C2249 C 0.63425 0.70174 0.74153 0.0
C2250 C 0.63104 0.72785 0.71002 0.0
C2251 C 0.62006 0.69912 0.72676 0.0
C2252 C 0.62555 0.73386 0.67391 0.0
C2253 C 0.63754 0.77241 0.67928 0.0
N2254 N 0.61901 0.71191 0.71138 0.0
N2255 N 0.63559 0.76011 0.69483 0.0
H2256 H 0.8626 0.76575 0.86316 0.0
H2257 H 0.75298 0.78839 0.89739 0.0
H2258 H 0.82642 0.72065 0.88901 0.0
H2259 H 0.77635 0.80867 0.84205 0.0
H2260 H 0.78349 0.76971 0.90292 0.0
H2261 H 0.83456 0.78848 0.86455 0.0
C2262 C 0.849 0.76092 0.8699 0.0
C2263 C 0.84676 0.74145 0.8762 0.0
C2264 C 0.78191 0.77842 0.88969 0.0
C2265 C 0.81488 0.76714 0.87772 0.0
C2266 C 0.76459 0.78902 0.88652 0.0
C2267 C 0.76212 0.79982 0.86912 0.0
C2268 C 0.797 0.77923 0.87567 0.0
C2269 C 0.7776 0.80025 0.85551 0.0
C2270 C 0.833 0.77377 0.87043 0.0
C2271 C 0.82868 0.73565 0.88421 0.0
N2272 N 0.79445 0.79016 0.85911 0.0
N2273 N 0.81336 0.74846 0.88473 0.0
H2274 H 0.86256 0.23097 0.13895 0.0
H2275 H 0.75246 0.21099 0.10544 0.0
H2276 H 0.82629 0.27808 0.11708 0.0
H2277 H 0.77581 0.18777 0.15962 0.0
H2278 H 0.78288 0.2301 0.10102 0.0
H2279 H 0.83403 0.20885 0.13744 0.0
C2280 C 0.84877 0.23644 0.13318 0.0
C2281 C 0.8467 0.25626 0.12796 0.0
C2282 C 0.78131 0.22067 0.11376 0.0
C2283 C 0.8143 0.23123 0.12623 0.0
C2284 C 0.76406 0.20981 0.11629 0.0
C2285 C 0.76163 0.19801 0.13303 0.0
C2286 C 0.79638 0.21915 0.12773 0.0
C2287 C 0.77705 0.19693 0.14666 0.0
C2288 C 0.83252 0.22392 0.13255 0.0
C2289 C 0.82841 0.26282 0.12109 0.0
N2290 N 0.79386 0.20728 0.14366 0.0
N2291 N 0.81285 0.25031 0.12039 0.0
H2292 H 0.26025 0.36225 0.62634 0.0
H2293 H 0.27573 0.25208 0.6551 0.0
H2294 H 0.2116 0.323 0.637 0.0
H2295 H 0.31456 0.2782 0.61231 0.0
H2296 H 0.25347 0.28 0.65142 0.0
H2297 H 0.28188 0.33349 0.62242 0.0
C2298 C 0.25403 0.34763 0.62739 0.0
C2299 C 0.23418 0.34498 0.63237 0.0
C2300 C 0.2668 0.27956 0.64272 0.0
C2301 C 0.25877 0.31235 0.62843 0.0
C2302 C 0.27956 0.26372 0.64492 0.0
C2303 C 0.29698 0.26287 0.63399 0.0
C2304 C 0.2717 0.29494 0.62987 0.0
C2305 C 0.30119 0.27831 0.62092 0.0
C2306 C 0.26638 0.33128 0.62526 0.0
C2307 C 0.2269 0.32573 0.63363 0.0
N2308 N 0.28874 0.29392 0.6194 0.0
N2309 N 0.23925 0.31018 0.63208 0.0
H2310 H 0.22627 0.81648 0.10857 0.0
H2311 H 0.18223 0.7137 0.14227 0.0
H2312 H 0.24973 0.78219 0.15646 0.0
H2313 H 0.14345 0.76093 0.12531 0.0
H2314 H 0.21028 0.73555 0.1379 0.0
H2315 H 0.19858 0.79325 0.10609 0.0
C2316 C 0.22568 0.80397 0.1184 0.0
C2317 C 0.24022 0.80122 0.1328 0.0
C2318 C 0.19564 0.74104 0.1349 0.0
C2319 C 0.20909 0.77465 0.12973 0.0
C2320 C 0.17962 0.72862 0.13737 0.0
C2321 C 0.16044 0.73566 0.13463 0.0
C2322 C 0.19255 0.76061 0.12934 0.0
C2323 C 0.158 0.75497 0.12774 0.0
C2324 C 0.20991 0.79085 0.11701 0.0
C2325 C 0.23876 0.7849 0.14526 0.0
N2326 N 0.17392 0.76692 0.1255 0.0
N2327 N 0.22354 0.77215 0.14335 0.0
H2328 H 0.73416 0.63724 0.63713 0.0
H2329 H 0.71407 0.74743 0.60332 0.0
H2330 H 0.7801 0.67237 0.6113 0.0
H2331 H 0.69346 0.72447 0.65871 0.0
H2332 H 0.73207 0.71654 0.59772 0.0
H2333 H 0.71219 0.66587 0.636 0.0
C2334 C 0.73933 0.65075 0.63046 0.0
C2335 C 0.75884 0.6525 0.62409 0.0
C2336 C 0.72344 0.71831 0.61099 0.0
C2337 C 0.73399 0.68506 0.62285 0.0
C2338 C 0.71324 0.73584 0.6142 0.0
C2339 C 0.70253 0.73852 0.63162 0.0
C2340 C 0.72235 0.70322 0.625 0.0
C2341 C 0.70182 0.72306 0.64524 0.0
C2342 C 0.72691 0.66708 0.63007 0.0
C2343 C 0.76507 0.67047 0.61616 0.0
N2344 N 0.71153 0.706 0.6416 0.0
N2345 N 0.75267 0.68613 0.61577 0.0
H2346 H 0.1378 0.23116 0.86329 0.0
H2347 H 0.24853 0.21013 0.89479 0.0
H2348 H 0.17364 0.27614 0.88979 0.0
H2349 H 0.22376 0.18806 0.84076 0.0
H2350 H 0.2182 0.22893 0.90052 0.0
H2351 H 0.16639 0.20911 0.863 0.0
C2352 C 0.1515 0.2361 0.86974 0.0
C2353 C 0.15342 0.25535 0.87679 0.0
C2354 C 0.21946 0.21988 0.88748 0.0
C2355 C 0.18596 0.23043 0.87638 0.0
C2356 C 0.23669 0.20921 0.8842 0.0
C2357 C 0.2387 0.19779 0.86715 0.0
C2358 C 0.20398 0.2186 0.87393 0.0
C2359 C 0.2229 0.19697 0.85392 0.0
C2360 C 0.16781 0.22365 0.86931 0.0
C2361 C 0.17161 0.26131 0.88441 0.0
N2362 N 0.20613 0.20717 0.85764 0.0
N2363 N 0.18724 0.24887 0.88402 0.0
H2364 H 0.29456 0.74499 0.39657 0.0
H2365 H 0.27439 0.6345 0.3631 0.0
H2366 H 0.31857 0.7204 0.34328 0.0
H2367 H 0.22961 0.66977 0.39071 0.0
H2368 H 0.29658 0.66297 0.36361 0.0
H2369 H 0.27595 0.71448 0.40178 0.0
C2370 C 0.29595 0.73315 0.38603 0.0
C2371 C 0.30786 0.73527 0.36933 0.0
C2372 C 0.28205 0.66428 0.36999 0.0
C2373 C 0.28719 0.70034 0.37551 0.0
C2374 C 0.26953 0.64802 0.36996 0.0
C2375 C 0.25028 0.64984 0.37708 0.0
C2376 C 0.27535 0.68227 0.37754 0.0
C2377 C 0.24443 0.66782 0.38525 0.0
C2378 C 0.28538 0.71581 0.38902 0.0
C2379 C 0.30926 0.71946 0.35617 0.0
N2380 N 0.25692 0.6834 0.38526 0.0
N2381 N 0.29911 0.7026 0.35958 0.0
H2382 H 0.78014 0.32423 0.38054 0.0
H2383 H 0.68338 0.27885 0.34013 0.0
H2384 H 0.7329 0.36174 0.36126 0.0
H2385 H 0.71021 0.25307 0.39146 0.0
H2386 H 0.70379 0.30819 0.34463 0.0
H2387 H 0.75692 0.29667 0.38271 0.0
C2388 C 0.76476 0.32674 0.3773 0.0
C2389 C 0.75829 0.34526 0.37101 0.0
C2390 C 0.70511 0.29614 0.35495 0.0
C2391 C 0.73203 0.31381 0.37255 0.0
C2392 C 0.69367 0.27935 0.35228 0.0
C2393 C 0.69529 0.2635 0.36536 0.0
C2394 C 0.71862 0.29686 0.37049 0.0
C2395 C 0.7086 0.26499 0.38105 0.0
C2396 C 0.75158 0.31106 0.37845 0.0
C2397 C 0.73833 0.34775 0.36654 0.0
N2398 N 0.72002 0.28129 0.38302 0.0
N2399 N 0.72595 0.33207 0.36699 0.0
loop_
_geom_bond_atom_site_label_1
_geom_bond_atom_site_label_2
_geom_bond_distance
_geom_bond_site_symmetry_2
_ccdc_geom_bond_type
Mg0 O1 2.028 . S
Mg0 O7 1.986 . S
Mg0 O9 2.114 . S
Mg0 O10 2.251 . S
Mg0 O13 2.010 . S
O1 Mg0 2.028 . S
O1 C4 1.250 . S
O2 Mg3 2.028 . S
O2 C4 1.248 . S
Mg3 O2 2.028 . S
Mg3 O8 2.032 . S
Mg3 O10 2.079 . S
C4 O1 1.250 . S
C4 O2 1.248 . S
C5 O6 1.264 . S
C5 O13 1.249 . S
O6 C5 1.264 . S
O7 Mg0 1.986 . S
O7 C11 1.246 . S
O8 Mg3 2.032 . S
O8 C11 1.259 . S
O9 Mg0 2.114 . S
O9 C12 1.252 . S
O10 Mg0 2.251 . S
O10 Mg3 2.079 . S
O10 C12 1.273 . S
C11 O7 1.246 . S
C11 O8 1.259 . S
C12 O9 1.252 . S
C12 O10 1.273 . S
O13 Mg0 2.010 . S
O13 C5 1.249 . S
Mg14 O15 2.028 . S
Mg14 O21 1.986 . S
Mg14 O23 2.114 . S
Mg14 O24 2.251 . S
Mg14 O27 2.010 . S
O15 Mg14 2.028 . S
O15 C18 1.250 . S
O16 Mg17 2.028 . S
O16 C18 1.248 . S
Mg17 O16 2.028 . S
Mg17 O22 2.032 . S
Mg17 O24 2.079 . S
C18 O15 1.250 . S
C18 O16 1.248 . S
C19 O20 1.264 . S
C19 O27 1.249 . S
O20 C19 1.264 . S
O21 Mg14 1.986 . S
O21 C25 1.246 . S
O22 Mg17 2.032 . S
O22 C25 1.259 . S
O23 Mg14 2.114 . S
O23 C26 1.252 . S
O24 Mg14 2.251 . S
O24 Mg17 2.079 . S
O24 C26 1.273 . S
C25 O21 1.246 . S
C25 O22 1.259 . S
C26 O23 1.252 . S
C26 O24 1.273 . S
O27 Mg14 2.010 . S
O27 C19 1.249 . S
Mg28 O29 2.028 . S
Mg28 O35 1.986 . S
Mg28 O37 2.114 . S
Mg28 O38 2.251 . S
Mg28 O41 2.010 . S
O29 Mg28 2.028 . S
O29 C32 1.250 . S
O30 Mg31 2.028 . S
O30 C32 1.248 . S
Mg31 O30 2.028 . S
Mg31 O36 2.032 . S
Mg31 O38 2.079 . S
C32 O29 1.250 . S
C32 O30 1.248 . S
C33 O34 1.264 . S
C33 O41 1.249 . S
O34 C33 1.264 . S
O35 Mg28 1.986 . S
O35 C39 1.246 . S
O36 Mg31 2.032 . S
O36 C39 1.259 . S
O37 Mg28 2.114 . S
O37 C40 1.252 . S
O38 Mg28 2.251 . S
O38 Mg31 2.079 . S
O38 C40 1.273 . S
C39 O35 1.246 . S
C39 O36 1.259 . S
C40 O37 1.252 . S
C40 O38 1.273 . S
O41 Mg28 2.010 . S
O41 C33 1.249 . S
Mg42 O43 2.028 . S
Mg42 O49 1.986 . S
Mg42 O51 2.114 . S
Mg42 O52 2.251 . S
Mg42 O55 2.010 . S
O43 Mg42 2.028 . S
O43 C46 1.250 . S
O44 Mg45 2.028 . S
O44 C46 1.248 . S
Mg45 O44 2.028 . S
Mg45 O50 2.032 . S
Mg45 O52 2.079 . S
C46 O43 1.250 . S
C46 O44 1.248 . S
C47 O48 1.264 . S
C47 O55 1.249 . S
O48 C47 1.264 . S
O49 Mg42 1.986 . S
O49 C53 1.246 . S
O50 Mg45 2.032 . S
O50 C53 1.259 . S
O51 Mg42 2.114 . S
O51 C54 1.252 . S
O52 Mg42 2.251 . S
O52 Mg45 2.079 . S
O52 C54 1.273 . S
C53 O49 1.246 . S
C53 O50 1.259 . S
C54 O51 1.252 . S
C54 O52 1.273 . S
O55 Mg42 2.010 . S
O55 C47 1.249 . S
Mg56 O57 2.028 . S
Mg56 O63 1.986 . S
Mg56 O65 2.114 . S
Mg56 O66 2.251 . S
Mg56 O69 2.010 . S
O57 Mg56 2.028 . S
O57 C60 1.250 . S
O58 Mg59 2.028 . S
O58 C60 1.248 . S
Mg59 O58 2.028 . S
Mg59 O64 2.032 . S
Mg59 O66 2.079 . S
C60 O57 1.250 . S
C60 O58 1.248 . S
C61 O62 1.264 . S
C61 O69 1.249 . S
O62 C61 1.264 . S
O63 Mg56 1.986 . S
O63 C67 1.246 . S
O64 Mg59 2.032 . S
O64 C67 1.259 . S
O65 Mg56 2.114 . S
O65 C68 1.252 . S
O66 Mg56 2.251 . S
O66 Mg59 2.079 . S
O66 C68 1.273 . S
C67 O63 1.246 . S
C67 O64 1.259 . S
C68 O65 1.252 . S
C68 O66 1.273 . S
O69 Mg56 2.010 . S
O69 C61 1.249 . S
Mg70 O71 2.028 . S
Mg70 O77 1.986 . S
Mg70 O79 2.114 . S
Mg70 O80 2.251 . S
Mg70 O83 2.010 . S
O71 Mg70 2.028 . S
O71 C74 1.250 . S
O72 Mg73 2.028 . S
O72 C74 1.248 . S
Mg73 O72 2.028 . S
Mg73 O78 2.032 . S
Mg73 O80 2.079 . S
C74 O71 1.250 . S
C74 O72 1.248 . S
C75 O76 1.264 . S
C75 O83 1.249 . S
O76 C75 1.264 . S
O77 Mg70 1.986 . S
O77 C81 1.246 . S
O78 Mg73 2.032 . S
O78 C81 1.259 . S
O79 Mg70 2.114 . S
O79 C82 1.252 . S
O80 Mg70 2.251 . S
O80 Mg73 2.079 . S
O80 C82 1.273 . S
C81 O77 1.246 . S
C81 O78 1.259 . S
C82 O79 1.252 . S
C82 O80 1.273 . S
O83 Mg70 2.010 . S
O83 C75 1.249 . S
Mg84 O85 2.028 . S
Mg84 O91 1.986 . S
Mg84 O93 2.114 . S
Mg84 O94 2.251 . S
Mg84 O97 2.010 . S
O85 Mg84 2.028 . S
O85 C88 1.250 . S
O86 Mg87 2.028 . S
O86 C88 1.248 . S
Mg87 O86 2.028 . S
Mg87 O92 2.032 . S
Mg87 O94 2.079 . S
C88 O85 1.250 . S
C88 O86 1.248 . S
C89 O90 1.264 . S
C89 O97 1.249 . S
O90 C89 1.264 . S
O91 Mg84 1.986 . S
O91 C95 1.246 . S
O92 Mg87 2.032 . S
O92 C95 1.259 . S
O93 Mg84 2.114 . S
O93 C96 1.252 . S
O94 Mg84 2.251 . S
O94 Mg87 2.079 . S
O94 C96 1.273 . S
C95 O91 1.246 . S
C95 O92 1.259 . S
C96 O93 1.252 . S
C96 O94 1.273 . S
O97 Mg84 2.010 . S
O97 C89 1.249 . S
Mg98 O99 2.028 . S
Mg98 O105 1.986 . S
Mg98 O107 2.114 . S
Mg98 O108 2.251 . S
Mg98 O111 2.010 . S
O99 Mg98 2.028 . S
O99 C102 1.250 . S
O100 Mg101 2.028 . S
O100 C102 1.248 . S
Mg101 O100 2.028 . S
Mg101 O106 2.032 . S
Mg101 O108 2.079 . S
C102 O99 1.250 . S
C102 O100 1.248 . S
C103 O104 1.264 . S
C103 O111 1.249 . S
O104 C103 1.264 . S
O105 Mg98 1.986 . S
O105 C109 1.246 . S
O106 Mg101 2.032 . S
O106 C109 1.259 . S
O107 Mg98 2.114 . S
O107 C110 1.252 . S
O108 Mg98 2.251 . S
O108 Mg101 2.079 . S
O108 C110 1.273 . S
C109 O105 1.246 . S
C109 O106 1.259 . S
C110 O107 1.252 . S
C110 O108 1.273 . S
O111 Mg98 2.010 . S
O111 C103 1.249 . S
Mg112 O113 2.028 . S
Mg112 O119 1.986 . S
Mg112 O121 2.114 . S
Mg112 O122 2.251 . S
Mg112 O125 2.010 . S
O113 Mg112 2.028 . S
O113 C116 1.250 . S
O114 Mg115 2.028 . S
O114 C116 1.248 . S
Mg115 O114 2.028 . S
Mg115 O120 2.032 . S
Mg115 O122 2.079 . S
C116 O113 1.250 . S
C116 O114 1.248 . S
C117 O118 1.264 . S
C117 O125 1.249 . S
O118 C117 1.264 . S
O119 Mg112 1.986 . S
O119 C123 1.246 . S
O120 Mg115 2.032 . S
O120 C123 1.259 . S
O121 Mg112 2.114 . S
O121 C124 1.252 . S
O122 Mg112 2.251 . S
O122 Mg115 2.079 . S
O122 C124 1.273 . S
C123 O119 1.246 . S
C123 O120 1.259 . S
C124 O121 1.252 . S
C124 O122 1.273 . S
O125 Mg112 2.010 . S
O125 C117 1.249 . S
Mg126 O127 2.028 . S
Mg126 O133 1.986 . S
Mg126 O135 2.114 . S
Mg126 O136 2.251 . S
Mg126 O139 2.010 . S
O127 Mg126 2.028 . S
O127 C130 1.250 . S
O128 Mg129 2.028 . S
O128 C130 1.248 . S
Mg129 O128 2.028 . S
Mg129 O134 2.032 . S
Mg129 O136 2.079 . S
C130 O127 1.250 . S
C130 O128 1.248 . S
C131 O132 1.264 . S
C131 O139 1.249 . S
O132 C131 1.264 . S
O133 Mg126 1.986 . S
O133 C137 1.246 . S
O134 Mg129 2.032 . S
O134 C137 1.259 . S
O135 Mg126 2.114 . S
O135 C138 1.252 . S
O136 Mg126 2.251 . S
O136 Mg129 2.079 . S
O136 C138 1.273 . S
C137 O133 1.246 . S
C137 O134 1.259 . S
C138 O135 1.252 . S
C138 O136 1.273 . S
O139 Mg126 2.010 . S
O139 C131 1.249 . S
Mg140 O141 2.028 . S
Mg140 O147 1.986 . S
Mg140 O149 2.114 . S
Mg140 O150 2.251 . S
Mg140 O153 2.010 . S
O141 Mg140 2.028 . S
O141 C144 1.250 . S
O142 Mg143 2.028 . S
O142 C144 1.248 . S
Mg143 O142 2.028 . S
Mg143 O148 2.032 . S
Mg143 O150 2.079 . S
C144 O141 1.250 . S
C144 O142 1.248 . S
C145 O146 1.264 . S
C145 O153 1.249 . S
O146 C145 1.264 . S
O147 Mg140 1.986 . S
O147 C151 1.246 . S
O148 Mg143 2.032 . S
O148 C151 1.259 . S
O149 Mg140 2.114 . S
O149 C152 1.252 . S
O150 Mg140 2.251 . S
O150 Mg143 2.079 . S
O150 C152 1.273 . S
C151 O147 1.246 . S
C151 O148 1.259 . S
C152 O149 1.252 . S
C152 O150 1.273 . S
O153 Mg140 2.010 . S
O153 C145 1.249 . S
Mg154 O155 2.028 . S
Mg154 O161 1.986 . S
Mg154 O163 2.114 . S
Mg154 O164 2.251 . S
Mg154 O167 2.010 . S
O155 Mg154 2.028 . S
O155 C158 1.250 . S
O156 Mg157 2.028 . S
O156 C158 1.248 . S
Mg157 O156 2.028 . S
Mg157 O162 2.032 . S
Mg157 O164 2.079 . S
C158 O155 1.250 . S
C158 O156 1.248 . S
C159 O160 1.264 . S
C159 O167 1.249 . S
O160 C159 1.264 . S
O161 Mg154 1.986 . S
O161 C165 1.246 . S
O162 Mg157 2.032 . S
O162 C165 1.259 . S
O163 Mg154 2.114 . S
O163 C166 1.252 . S
O164 Mg154 2.251 . S
O164 Mg157 2.079 . S
O164 C166 1.273 . S
C165 O161 1.246 . S
C165 O162 1.259 . S
C166 O163 1.252 . S
C166 O164 1.273 . S
O167 Mg154 2.010 . S
O167 C159 1.249 . S
Mg168 O169 2.028 . S
Mg168 O175 1.986 . S
Mg168 O177 2.114 . S
Mg168 O178 2.251 . S
Mg168 O181 2.010 . S
O169 Mg168 2.028 . S
O169 C172 1.250 . S
O170 Mg171 2.028 . S
O170 C172 1.248 . S
Mg171 O170 2.028 . S
Mg171 O176 2.032 . S
Mg171 O178 2.079 . S
C172 O169 1.250 . S
C172 O170 1.248 . S
C173 O174 1.264 . S
C173 O181 1.249 . S
O174 C173 1.264 . S
O175 Mg168 1.986 . S
O175 C179 1.246 . S
O176 Mg171 2.032 . S
O176 C179 1.259 . S
O177 Mg168 2.114 . S
O177 C180 1.252 . S
O178 Mg168 2.251 . S
O178 Mg171 2.079 . S
O178 C180 1.273 . S
C179 O175 1.246 . S
C179 O176 1.259 . S
C180 O177 1.252 . S
C180 O178 1.273 . S
O181 Mg168 2.010 . S
O181 C173 1.249 . S
Mg182 O183 2.028 . S
Mg182 O189 1.986 . S
Mg182 O191 2.114 . S
Mg182 O192 2.251 . S
Mg182 O195 2.010 . S
O183 Mg182 2.028 . S
O183 C186 1.250 . S
O184 Mg185 2.028 . S
O184 C186 1.248 . S
Mg185 O184 2.028 . S
Mg185 O190 2.032 . S
Mg185 O192 2.079 . S
C186 O183 1.250 . S
C186 O184 1.248 . S
C187 O188 1.264 . S
C187 O195 1.249 . S
O188 C187 1.264 . S
O189 Mg182 1.986 . S
O189 C193 1.246 . S
O190 Mg185 2.032 . S
O190 C193 1.259 . S
O191 Mg182 2.114 . S
O191 C194 1.252 . S
O192 Mg182 2.251 . S
O192 Mg185 2.079 . S
O192 C194 1.273 . S
C193 O189 1.246 . S
C193 O190 1.259 . S
C194 O191 1.252 . S
C194 O192 1.273 . S
O195 Mg182 2.010 . S
O195 C187 1.249 . S
Mg196 O197 2.028 . S
Mg196 O203 1.986 . S
Mg196 O205 2.114 . S
Mg196 O206 2.251 . S
Mg196 O209 2.010 . S
O197 Mg196 2.028 . S
O197 C200 1.250 . S
O198 Mg199 2.028 . S
O198 C200 1.248 . S
Mg199 O198 2.028 . S
Mg199 O204 2.032 . S
Mg199 O206 2.079 . S
C200 O197 1.250 . S
C200 O198 1.248 . S
C201 O202 1.264 . S
C201 O209 1.249 . S
O202 C201 1.264 . S
O203 Mg196 1.986 . S
O203 C207 1.246 . S
O204 Mg199 2.032 . S
O204 C207 1.259 . S
O205 Mg196 2.114 . S
O205 C208 1.252 . S
O206 Mg196 2.251 . S
O206 Mg199 2.079 . S
O206 C208 1.273 . S
C207 O203 1.246 . S
C207 O204 1.259 . S
C208 O205 1.252 . S
C208 O206 1.273 . S
O209 Mg196 2.010 . S
O209 C201 1.249 . S
Mg210 O211 2.028 . S
Mg210 O217 1.986 . S
Mg210 O219 2.114 . S
Mg210 O220 2.251 . S
Mg210 O223 2.010 . S
O211 Mg210 2.028 . S
O211 C214 1.250 . S
O212 Mg213 2.028 . S
O212 C214 1.248 . S
Mg213 O212 2.028 . S
Mg213 O218 2.032 . S
Mg213 O220 2.079 . S
C214 O211 1.250 . S
C214 O212 1.248 . S
C215 O216 1.264 . S
C215 O223 1.249 . S
O216 C215 1.264 . S
O217 Mg210 1.986 . S
O217 C221 1.246 . S
O218 Mg213 2.032 . S
O218 C221 1.259 . S
O219 Mg210 2.114 . S
O219 C222 1.252 . S
O220 Mg210 2.251 . S
O220 Mg213 2.079 . S
O220 C222 1.273 . S
C221 O217 1.246 . S
C221 O218 1.259 . S
C222 O219 1.252 . S
C222 O220 1.273 . S
O223 Mg210 2.010 . S
O223 C215 1.249 . S
Mg224 O225 2.028 . S
Mg224 O231 1.986 . S
Mg224 O233 2.114 . S
Mg224 O234 2.251 . S
Mg224 O237 2.010 . S
O225 Mg224 2.028 . S
O225 C228 1.250 . S
O226 Mg227 2.028 . S
O226 C228 1.248 . S
Mg227 O226 2.028 . S
Mg227 O232 2.032 . S
Mg227 O234 2.079 . S
C228 O225 1.250 . S
C228 O226 1.248 . S
C229 O230 1.264 . S
C229 O237 1.249 . S
O230 C229 1.264 . S
O231 Mg224 1.986 . S
O231 C235 1.246 . S
O232 Mg227 2.032 . S
O232 C235 1.259 . S
O233 Mg224 2.114 . S
O233 C236 1.252 . S
O234 Mg224 2.251 . S
O234 Mg227 2.079 . S
O234 C236 1.273 . S
C235 O231 1.246 . S
C235 O232 1.259 . S
C236 O233 1.252 . S
C236 O234 1.273 . S
O237 Mg224 2.010 . S
O237 C229 1.249 . S
Mg238 O239 2.028 . S
Mg238 O245 1.986 . S
Mg238 O247 2.114 . S
Mg238 O248 2.251 . S
Mg238 O251 2.010 . S
O239 Mg238 2.028 . S
O239 C242 1.250 . S
O240 Mg241 2.028 . S
O240 C242 1.248 . S
Mg241 O240 2.028 . S
Mg241 O246 2.032 . S
Mg241 O248 2.079 . S
C242 O239 1.250 . S
C242 O240 1.248 . S
C243 O244 1.264 . S
C243 O251 1.249 . S
O244 C243 1.264 . S
O245 Mg238 1.986 . S
O245 C249 1.246 . S
O246 Mg241 2.032 . S
O246 C249 1.259 . S
O247 Mg238 2.114 . S
O247 C250 1.252 . S
O248 Mg238 2.251 . S
O248 Mg241 2.079 . S
O248 C250 1.273 . S
C249 O245 1.246 . S
C249 O246 1.259 . S
C250 O247 1.252 . S
C250 O248 1.273 . S
O251 Mg238 2.010 . S
O251 C243 1.249 . S
Mg252 O253 2.028 . S
Mg252 O259 1.986 . S
Mg252 O261 2.114 . S
Mg252 O262 2.251 . S
Mg252 O265 2.010 . S
O253 Mg252 2.028 . S
O253 C256 1.250 . S
O254 Mg255 2.028 . S
O254 C256 1.248 . S
Mg255 O254 2.028 . S
Mg255 O260 2.032 . S
Mg255 O262 2.079 . S
C256 O253 1.250 . S
C256 O254 1.248 . S
C257 O258 1.264 . S
C257 O265 1.249 . S
O258 C257 1.264 . S
O259 Mg252 1.986 . S
O259 C263 1.246 . S
O260 Mg255 2.032 . S
O260 C263 1.259 . S
O261 Mg252 2.114 . S
O261 C264 1.252 . S
O262 Mg252 2.251 . S
O262 Mg255 2.079 . S
O262 C264 1.273 . S
C263 O259 1.246 . S
C263 O260 1.259 . S
C264 O261 1.252 . S
C264 O262 1.273 . S
O265 Mg252 2.010 . S
O265 C257 1.249 . S
Mg266 O267 2.028 . S
Mg266 O273 1.986 . S
Mg266 O275 2.114 . S
Mg266 O276 2.251 . S
Mg266 O279 2.010 . S
O267 Mg266 2.028 . S
O267 C270 1.250 . S
O268 Mg269 2.028 . S
O268 C270 1.248 . S
Mg269 O268 2.028 . S
Mg269 O274 2.032 . S
Mg269 O276 2.079 . S
C270 O267 1.250 . S
C270 O268 1.248 . S
C271 O272 1.264 . S
C271 O279 1.249 . S
O272 C271 1.264 . S
O273 Mg266 1.986 . S
O273 C277 1.246 . S
O274 Mg269 2.032 . S
O274 C277 1.259 . S
O275 Mg266 2.114 . S
O275 C278 1.252 . S
O276 Mg266 2.251 . S
O276 Mg269 2.079 . S
O276 C278 1.273 . S
C277 O273 1.246 . S
C277 O274 1.259 . S
C278 O275 1.252 . S
C278 O276 1.273 . S
O279 Mg266 2.010 . S
O279 C271 1.249 . S
Mg280 O281 2.028 . S
Mg280 O287 1.986 . S
Mg280 O289 2.114 . S
Mg280 O290 2.251 . S
Mg280 O293 2.010 . S
O281 Mg280 2.028 . S
O281 C284 1.250 . S
O282 Mg283 2.028 . S
O282 C284 1.248 . S
Mg283 O282 2.028 . S
Mg283 O288 2.032 . S
Mg283 O290 2.079 . S
C284 O281 1.250 . S
C284 O282 1.248 . S
C285 O286 1.264 . S
C285 O293 1.249 . S
O286 C285 1.264 . S
O287 Mg280 1.986 . S
O287 C291 1.246 . S
O288 Mg283 2.032 . S
O288 C291 1.259 . S
O289 Mg280 2.114 . S
O289 C292 1.252 . S
O290 Mg280 2.251 . S
O290 Mg283 2.079 . S
O290 C292 1.273 . S
C291 O287 1.246 . S
C291 O288 1.259 . S
C292 O289 1.252 . S
C292 O290 1.273 . S
O293 Mg280 2.010 . S
O293 C285 1.249 . S
Mg294 O295 2.028 . S
Mg294 O301 1.986 . S
Mg294 O303 2.114 . S
Mg294 O304 2.251 . S
Mg294 O307 2.010 . S
O295 Mg294 2.028 . S
O295 C298 1.250 . S
O296 Mg297 2.028 . S
O296 C298 1.248 . S
Mg297 O296 2.028 . S
Mg297 O302 2.032 . S
Mg297 O304 2.079 . S
C298 O295 1.250 . S
C298 O296 1.248 . S
C299 O300 1.264 . S
C299 O307 1.249 . S
O300 C299 1.264 . S
O301 Mg294 1.986 . S
O301 C305 1.246 . S
O302 Mg297 2.032 . S
O302 C305 1.259 . S
O303 Mg294 2.114 . S
O303 C306 1.252 . S
O304 Mg294 2.251 . S
O304 Mg297 2.079 . S
O304 C306 1.273 . S
C305 O301 1.246 . S
C305 O302 1.259 . S
C306 O303 1.252 . S
C306 O304 1.273 . S
O307 Mg294 2.010 . S
O307 C299 1.249 . S
Mg308 O309 2.028 . S
Mg308 O315 1.986 . S
Mg308 O317 2.114 . S
Mg308 O318 2.251 . S
Mg308 O321 2.010 . S
O309 Mg308 2.028 . S
O309 C312 1.250 . S
O310 Mg311 2.028 . S
O310 C312 1.248 . S
Mg311 O310 2.028 . S
Mg311 O316 2.032 . S
Mg311 O318 2.079 . S
C312 O309 1.250 . S
C312 O310 1.248 . S
C313 O314 1.264 . S
C313 O321 1.249 . S
O314 C313 1.264 . S
O315 Mg308 1.986 . S
O315 C319 1.246 . S
O316 Mg311 2.032 . S
O316 C319 1.259 . S
O317 Mg308 2.114 . S
O317 C320 1.252 . S
O318 Mg308 2.251 . S
O318 Mg311 2.079 . S
O318 C320 1.273 . S
C319 O315 1.246 . S
C319 O316 1.259 . S
C320 O317 1.252 . S
C320 O318 1.273 . S
O321 Mg308 2.010 . S
O321 C313 1.249 . S
Mg322 O323 2.028 . S
Mg322 O329 1.986 . S
Mg322 O331 2.114 . S
Mg322 O332 2.251 . S
Mg322 O335 2.010 . S
O323 Mg322 2.028 . S
O323 C326 1.250 . S
O324 Mg325 2.028 . S
O324 C326 1.248 . S
Mg325 O324 2.028 . S
Mg325 O330 2.032 . S
Mg325 O332 2.079 . S
C326 O323 1.250 . S
C326 O324 1.248 . S
C327 O328 1.264 . S
C327 O335 1.249 . S
O328 C327 1.264 . S
O329 Mg322 1.986 . S
O329 C333 1.246 . S
O330 Mg325 2.032 . S
O330 C333 1.259 . S
O331 Mg322 2.114 . S
O331 C334 1.252 . S
O332 Mg322 2.251 . S
O332 Mg325 2.079 . S
O332 C334 1.273 . S
C333 O329 1.246 . S
C333 O330 1.259 . S
C334 O331 1.252 . S
C334 O332 1.273 . S
O335 Mg322 2.010 . S
O335 C327 1.249 . S
Mg336 O337 2.028 . S
Mg336 O343 1.986 . S
Mg336 O345 2.114 . S
Mg336 O346 2.251 . S
Mg336 O349 2.010 . S
O337 Mg336 2.028 . S
O337 C340 1.250 . S
O338 Mg339 2.028 . S
O338 C340 1.248 . S
Mg339 O338 2.028 . S
Mg339 O344 2.032 . S
Mg339 O346 2.079 . S
C340 O337 1.250 . S
C340 O338 1.248 . S
C341 O342 1.264 . S
C341 O349 1.249 . S
O342 C341 1.264 . S
O343 Mg336 1.986 . S
O343 C347 1.246 . S
O344 Mg339 2.032 . S
O344 C347 1.259 . S
O345 Mg336 2.114 . S
O345 C348 1.252 . S
O346 Mg336 2.251 . S
O346 Mg339 2.079 . S
O346 C348 1.273 . S
C347 O343 1.246 . S
C347 O344 1.259 . S
C348 O345 1.252 . S
C348 O346 1.273 . S
O349 Mg336 2.010 . S
O349 C341 1.249 . S
Mg350 O351 2.028 . S
Mg350 O357 1.986 . S
Mg350 O359 2.114 . S
Mg350 O360 2.251 . S
Mg350 O363 2.010 . S
O351 Mg350 2.028 . S
O351 C354 1.250 . S
O352 Mg353 2.028 . S
O352 C354 1.248 . S
Mg353 O352 2.028 . S
Mg353 O358 2.032 . S
Mg353 O360 2.079 . S
C354 O351 1.250 . S
C354 O352 1.248 . S
C355 O356 1.264 . S
C355 O363 1.249 . S
O356 C355 1.264 . S
O357 Mg350 1.986 . S
O357 C361 1.246 . S
O358 Mg353 2.032 . S
O358 C361 1.259 . S
O359 Mg350 2.114 . S
O359 C362 1.252 . S
O360 Mg350 2.251 . S
O360 Mg353 2.079 . S
O360 C362 1.273 . S
C361 O357 1.246 . S
C361 O358 1.259 . S
C362 O359 1.252 . S
C362 O360 1.273 . S
O363 Mg350 2.010 . S
O363 C355 1.249 . S
Mg364 O365 2.028 . S
Mg364 O371 1.986 . S
Mg364 O373 2.114 . S
Mg364 O374 2.251 . S
Mg364 O377 2.010 . S
O365 Mg364 2.028 . S
O365 C368 1.250 . S
O366 Mg367 2.028 . S
O366 C368 1.248 . S
Mg367 O366 2.028 . S
Mg367 O372 2.032 . S
Mg367 O374 2.079 . S
C368 O365 1.250 . S
C368 O366 1.248 . S
C369 O370 1.264 . S
C369 O377 1.249 . S
O370 C369 1.264 . S
O371 Mg364 1.986 . S
O371 C375 1.246 . S
O372 Mg367 2.032 . S
O372 C375 1.259 . S
O373 Mg364 2.114 . S
O373 C376 1.252 . S
O374 Mg364 2.251 . S
O374 Mg367 2.079 . S
O374 C376 1.273 . S
C375 O371 1.246 . S
C375 O372 1.259 . S
C376 O373 1.252 . S
C376 O374 1.273 . S
O377 Mg364 2.010 . S
O377 C369 1.249 . S
Mg378 O379 2.028 . S
Mg378 O385 1.986 . S
Mg378 O387 2.114 . S
Mg378 O388 2.251 . S
Mg378 O391 2.010 . S
O379 Mg378 2.028 . S
O379 C382 1.250 . S
O380 Mg381 2.028 . S
O380 C382 1.248 . S
Mg381 O380 2.028 . S
Mg381 O386 2.032 . S
Mg381 O388 2.079 . S
C382 O379 1.250 . S
C382 O380 1.248 . S
C383 O384 1.264 . S
C383 O391 1.249 . S
O384 C383 1.264 . S
O385 Mg378 1.986 . S
O385 C389 1.246 . S
O386 Mg381 2.032 . S
O386 C389 1.259 . S
O387 Mg378 2.114 . S
O387 C390 1.252 . S
O388 Mg378 2.251 . S
O388 Mg381 2.079 . S
O388 C390 1.273 . S
C389 O385 1.246 . S
C389 O386 1.259 . S
C390 O387 1.252 . S
C390 O388 1.273 . S
O391 Mg378 2.010 . S
O391 C383 1.249 . S
Mg392 O393 2.028 . S
Mg392 O399 1.986 . S
Mg392 O401 2.114 . S
Mg392 O402 2.251 . S
Mg392 O405 2.010 . S
O393 Mg392 2.028 . S
O393 C396 1.250 . S
O394 Mg395 2.028 . S
O394 C396 1.248 . S
Mg395 O394 2.028 . S
Mg395 O400 2.032 . S
Mg395 O402 2.079 . S
C396 O393 1.250 . S
C396 O394 1.248 . S
C397 O398 1.264 . S
C397 O405 1.249 . S
O398 C397 1.264 . S
O399 Mg392 1.986 . S
O399 C403 1.246 . S
O400 Mg395 2.032 . S
O400 C403 1.259 . S
O401 Mg392 2.114 . S
O401 C404 1.252 . S
O402 Mg392 2.251 . S
O402 Mg395 2.079 . S
O402 C404 1.273 . S
C403 O399 1.246 . S
C403 O400 1.259 . S
C404 O401 1.252 . S
C404 O402 1.273 . S
O405 Mg392 2.010 . S
O405 C397 1.249 . S
Mg406 O407 2.028 . S
Mg406 O413 1.986 . S
Mg406 O415 2.114 . S
Mg406 O416 2.251 . S
Mg406 O419 2.010 . S
O407 Mg406 2.028 . S
O407 C410 1.250 . S
O408 Mg409 2.028 . S
O408 C410 1.248 . S
Mg409 O408 2.028 . S
Mg409 O414 2.032 . S
Mg409 O416 2.079 . S
C410 O407 1.250 . S
C410 O408 1.248 . S
C411 O412 1.264 . S
C411 O419 1.249 . S
O412 C411 1.264 . S
O413 Mg406 1.986 . S
O413 C417 1.246 . S
O414 Mg409 2.032 . S
O414 C417 1.259 . S
O415 Mg406 2.114 . S
O415 C418 1.252 . S
O416 Mg406 2.251 . S
O416 Mg409 2.079 . S
O416 C418 1.273 . S
C417 O413 1.246 . S
C417 O414 1.259 . S
C418 O415 1.252 . S
C418 O416 1.273 . S
O419 Mg406 2.010 . S
O419 C411 1.249 . S
Mg420 O421 2.028 . S
Mg420 O427 1.986 . S
Mg420 O429 2.114 . S
Mg420 O430 2.251 . S
Mg420 O433 2.010 . S
O421 Mg420 2.028 . S
O421 C424 1.250 . S
O422 Mg423 2.028 . S
O422 C424 1.248 . S
Mg423 O422 2.028 . S
Mg423 O428 2.032 . S
Mg423 O430 2.079 . S
C424 O421 1.250 . S
C424 O422 1.248 . S
C425 O426 1.264 . S
C425 O433 1.249 . S
O426 C425 1.264 . S
O427 Mg420 1.986 . S
O427 C431 1.246 . S
O428 Mg423 2.032 . S
O428 C431 1.259 . S
O429 Mg420 2.114 . S
O429 C432 1.252 . S
O430 Mg420 2.251 . S
O430 Mg423 2.079 . S
O430 C432 1.273 . S
C431 O427 1.246 . S
C431 O428 1.259 . S
C432 O429 1.252 . S
C432 O430 1.273 . S
O433 Mg420 2.010 . S
O433 C425 1.249 . S
Mg434 O435 2.028 . S
Mg434 O441 1.986 . S
Mg434 O443 2.114 . S
Mg434 O444 2.251 . S
Mg434 O447 2.010 . S
O435 Mg434 2.028 . S
O435 C438 1.250 . S
O436 Mg437 2.028 . S
O436 C438 1.248 . S
Mg437 O436 2.028 . S
Mg437 O442 2.032 . S
Mg437 O444 2.079 . S
C438 O435 1.250 . S
C438 O436 1.248 . S
C439 O440 1.264 . S
C439 O447 1.249 . S
O440 C439 1.264 . S
O441 Mg434 1.986 . S
O441 C445 1.246 . S
O442 Mg437 2.032 . S
O442 C445 1.259 . S
O443 Mg434 2.114 . S
O443 C446 1.252 . S
O444 Mg434 2.251 . S
O444 Mg437 2.079 . S
O444 C446 1.273 . S
C445 O441 1.246 . S
C445 O442 1.259 . S
C446 O443 1.252 . S
C446 O444 1.273 . S
O447 Mg434 2.010 . S
O447 C439 1.249 . S
Mg448 O449 2.028 . S
Mg448 O455 1.986 . S
Mg448 O457 2.114 . S
Mg448 O458 2.251 . S
Mg448 O461 2.010 . S
O449 Mg448 2.028 . S
O449 C452 1.250 . S
O450 Mg451 2.028 . S
O450 C452 1.248 . S
Mg451 O450 2.028 . S
Mg451 O456 2.032 . S
Mg451 O458 2.079 . S
C452 O449 1.250 . S
C452 O450 1.248 . S
C453 O454 1.264 . S
C453 O461 1.249 . S
O454 C453 1.264 . S
O455 Mg448 1.986 . S
O455 C459 1.246 . S
O456 Mg451 2.032 . S
O456 C459 1.259 . S
O457 Mg448 2.114 . S
O457 C460 1.252 . S
O458 Mg448 2.251 . S
O458 Mg451 2.079 . S
O458 C460 1.273 . S
C459 O455 1.246 . S
C459 O456 1.259 . S
C460 O457 1.252 . S
C460 O458 1.273 . S
O461 Mg448 2.010 . S
O461 C453 1.249 . S
Mg462 O463 2.028 . S
Mg462 O469 1.986 . S
Mg462 O471 2.114 . S
Mg462 O472 2.251 . S
Mg462 O475 2.010 . S
O463 Mg462 2.028 . S
O463 C466 1.250 . S
O464 Mg465 2.028 . S
O464 C466 1.248 . S
Mg465 O464 2.028 . S
Mg465 O470 2.032 . S
Mg465 O472 2.079 . S
C466 O463 1.250 . S
C466 O464 1.248 . S
C467 O468 1.264 . S
C467 O475 1.249 . S
O468 C467 1.264 . S
O469 Mg462 1.986 . S
O469 C473 1.246 . S
O470 Mg465 2.032 . S
O470 C473 1.259 . S
O471 Mg462 2.114 . S
O471 C474 1.252 . S
O472 Mg462 2.251 . S
O472 Mg465 2.079 . S
O472 C474 1.273 . S
C473 O469 1.246 . S
C473 O470 1.259 . S
C474 O471 1.252 . S
C474 O472 1.273 . S
O475 Mg462 2.010 . S
O475 C467 1.249 . S
Mg476 O477 2.028 . S
Mg476 O483 1.986 . S
Mg476 O485 2.114 . S
Mg476 O486 2.251 . S
Mg476 O489 2.010 . S
O477 Mg476 2.028 . S
O477 C480 1.250 . S
O478 Mg479 2.028 . S
O478 C480 1.248 . S
Mg479 O478 2.028 . S
Mg479 O484 2.032 . S
Mg479 O486 2.079 . S
C480 O477 1.250 . S
C480 O478 1.248 . S
C481 O482 1.264 . S
C481 O489 1.249 . S
O482 C481 1.264 . S
O483 Mg476 1.986 . S
O483 C487 1.246 . S
O484 Mg479 2.032 . S
O484 C487 1.259 . S
O485 Mg476 2.114 . S
O485 C488 1.252 . S
O486 Mg476 2.251 . S
O486 Mg479 2.079 . S
O486 C488 1.273 . S
C487 O483 1.246 . S
C487 O484 1.259 . S
C488 O485 1.252 . S
C488 O486 1.273 . S
O489 Mg476 2.010 . S
O489 C481 1.249 . S
Mg490 O491 2.028 . S
Mg490 O497 1.986 . S
Mg490 O499 2.114 . S
Mg490 O500 2.251 . S
Mg490 O503 2.010 . S
O491 Mg490 2.028 . S
O491 C494 1.250 . S
O492 Mg493 2.028 . S
O492 C494 1.248 . S
Mg493 O492 2.028 . S
Mg493 O498 2.032 . S
Mg493 O500 2.079 . S
C494 O491 1.250 . S
C494 O492 1.248 . S
C495 O496 1.264 . S
C495 O503 1.249 . S
O496 C495 1.264 . S
O497 Mg490 1.986 . S
O497 C501 1.246 . S
O498 Mg493 2.032 . S
O498 C501 1.259 . S
O499 Mg490 2.114 . S
O499 C502 1.252 . S
O500 Mg490 2.251 . S
O500 Mg493 2.079 . S
O500 C502 1.273 . S
C501 O497 1.246 . S
C501 O498 1.259 . S
C502 O499 1.252 . S
C502 O500 1.273 . S
O503 Mg490 2.010 . S
O503 C495 1.249 . S
Mg504 O505 2.028 . S
Mg504 O511 1.986 . S
Mg504 O513 2.114 . S
Mg504 O514 2.251 . S
Mg504 O517 2.010 . S
O505 Mg504 2.028 . S
O505 C508 1.250 . S
O506 Mg507 2.028 . S
O506 C508 1.248 . S
Mg507 O506 2.028 . S
Mg507 O512 2.032 . S
Mg507 O514 2.079 . S
C508 O505 1.250 . S
C508 O506 1.248 . S
C509 O510 1.264 . S
C509 O517 1.249 . S
O510 C509 1.264 . S
O511 Mg504 1.986 . S
O511 C515 1.246 . S
O512 Mg507 2.032 . S
O512 C515 1.259 . S
O513 Mg504 2.114 . S
O513 C516 1.252 . S
O514 Mg504 2.251 . S
O514 Mg507 2.079 . S
O514 C516 1.273 . S
C515 O511 1.246 . S
C515 O512 1.259 . S
C516 O513 1.252 . S
C516 O514 1.273 . S
O517 Mg504 2.010 . S
O517 C509 1.249 . S
Mg518 O519 2.028 . S
Mg518 O525 1.986 . S
Mg518 O527 2.114 . S
Mg518 O528 2.251 . S
Mg518 O531 2.010 . S
O519 Mg518 2.028 . S
O519 C522 1.250 . S
O520 Mg521 2.028 . S
O520 C522 1.248 . S
Mg521 O520 2.028 . S
Mg521 O526 2.032 . S
Mg521 O528 2.079 . S
C522 O519 1.250 . S
C522 O520 1.248 . S
C523 O524 1.264 . S
C523 O531 1.249 . S
O524 C523 1.264 . S
O525 Mg518 1.986 . S
O525 C529 1.246 . S
O526 Mg521 2.032 . S
O526 C529 1.259 . S
O527 Mg518 2.114 . S
O527 C530 1.252 . S
O528 Mg518 2.251 . S
O528 Mg521 2.079 . S
O528 C530 1.273 . S
C529 O525 1.246 . S
C529 O526 1.259 . S
C530 O527 1.252 . S
C530 O528 1.273 . S
O531 Mg518 2.010 . S
O531 C523 1.249 . S
Mg532 O533 2.028 . S
Mg532 O539 1.986 . S
Mg532 O541 2.114 . S
Mg532 O542 2.251 . S
Mg532 O545 2.010 . S
O533 Mg532 2.028 . S
O533 C536 1.250 . S
O534 Mg535 2.028 . S
O534 C536 1.248 . S
Mg535 O534 2.028 . S
Mg535 O540 2.032 . S
Mg535 O542 2.079 . S
C536 O533 1.250 . S
C536 O534 1.248 . S
C537 O538 1.264 . S
C537 O545 1.249 . S
O538 C537 1.264 . S
O539 Mg532 1.986 . S
O539 C543 1.246 . S
O540 Mg535 2.032 . S
O540 C543 1.259 . S
O541 Mg532 2.114 . S
O541 C544 1.252 . S
O542 Mg532 2.251 . S
O542 Mg535 2.079 . S
O542 C544 1.273 . S
C543 O539 1.246 . S
C543 O540 1.259 . S
C544 O541 1.252 . S
C544 O542 1.273 . S
O545 Mg532 2.010 . S
O545 C537 1.249 . S
Mg546 O547 2.028 . S
Mg546 O553 1.986 . S
Mg546 O555 2.114 . S
Mg546 O556 2.251 . S
Mg546 O559 2.010 . S
O547 Mg546 2.028 . S
O547 C550 1.250 . S
O548 Mg549 2.028 . S
O548 C550 1.248 . S
Mg549 O548 2.028 . S
Mg549 O554 2.032 . S
Mg549 O556 2.079 . S
C550 O547 1.250 . S
C550 O548 1.248 . S
C551 O552 1.264 . S
C551 O559 1.249 . S
O552 C551 1.264 . S
O553 Mg546 1.986 . S
O553 C557 1.246 . S
O554 Mg549 2.032 . S
O554 C557 1.259 . S
O555 Mg546 2.114 . S
O555 C558 1.252 . S
O556 Mg546 2.251 . S
O556 Mg549 2.079 . S
O556 C558 1.273 . S
C557 O553 1.246 . S
C557 O554 1.259 . S
C558 O555 1.252 . S
C558 O556 1.273 . S
O559 Mg546 2.010 . S
O559 C551 1.249 . S
Mg560 O561 2.028 . S
Mg560 O567 1.986 . S
Mg560 O569 2.114 . S
Mg560 O570 2.251 . S
Mg560 O573 2.010 . S
O561 Mg560 2.028 . S
O561 C564 1.250 . S
O562 Mg563 2.028 . S
O562 C564 1.248 . S
Mg563 O562 2.028 . S
Mg563 O568 2.032 . S
Mg563 O570 2.079 . S
C564 O561 1.250 . S
C564 O562 1.248 . S
C565 O566 1.264 . S
C565 O573 1.249 . S
O566 C565 1.264 . S
O567 Mg560 1.986 . S
O567 C571 1.246 . S
O568 Mg563 2.032 . S
O568 C571 1.259 . S
O569 Mg560 2.114 . S
O569 C572 1.252 . S
O570 Mg560 2.251 . S
O570 Mg563 2.079 . S
O570 C572 1.273 . S
C571 O567 1.246 . S
C571 O568 1.259 . S
C572 O569 1.252 . S
C572 O570 1.273 . S
O573 Mg560 2.010 . S
O573 C565 1.249 . S
Mg574 O575 2.028 . S
Mg574 O581 1.986 . S
Mg574 O583 2.114 . S
Mg574 O584 2.251 . S
Mg574 O587 2.010 . S
O575 Mg574 2.028 . S
O575 C578 1.250 . S
O576 Mg577 2.028 . S
O576 C578 1.248 . S
Mg577 O576 2.028 . S
Mg577 O582 2.032 . S
Mg577 O584 2.079 . S
C578 O575 1.250 . S
C578 O576 1.248 . S
C579 O580 1.264 . S
C579 O587 1.249 . S
O580 C579 1.264 . S
O581 Mg574 1.986 . S
O581 C585 1.246 . S
O582 Mg577 2.032 . S
O582 C585 1.259 . S
O583 Mg574 2.114 . S
O583 C586 1.252 . S
O584 Mg574 2.251 . S
O584 Mg577 2.079 . S
O584 C586 1.273 . S
C585 O581 1.246 . S
C585 O582 1.259 . S
C586 O583 1.252 . S
C586 O584 1.273 . S
O587 Mg574 2.010 . S
O587 C579 1.249 . S
Mg588 O589 2.028 . S
Mg588 O595 1.986 . S
Mg588 O597 2.114 . S
Mg588 O598 2.251 . S
Mg588 O601 2.010 . S
O589 Mg588 2.028 . S
O589 C592 1.250 . S
O590 Mg591 2.028 . S
O590 C592 1.248 . S
Mg591 O590 2.028 . S
Mg591 O596 2.032 . S
Mg591 O598 2.079 . S
C592 O589 1.250 . S
C592 O590 1.248 . S
C593 O594 1.264 . S
C593 O601 1.249 . S
O594 C593 1.264 . S
O595 Mg588 1.986 . S
O595 C599 1.246 . S
O596 Mg591 2.032 . S
O596 C599 1.259 . S
O597 Mg588 2.114 . S
O597 C600 1.252 . S
O598 Mg588 2.251 . S
O598 Mg591 2.079 . S
O598 C600 1.273 . S
C599 O595 1.246 . S
C599 O596 1.259 . S
C600 O597 1.252 . S
C600 O598 1.273 . S
O601 Mg588 2.010 . S
O601 C593 1.249 . S
Mg602 O603 2.028 . S
Mg602 O609 1.986 . S
Mg602 O611 2.114 . S
Mg602 O612 2.251 . S
Mg602 O615 2.010 . S
O603 Mg602 2.028 . S
O603 C606 1.250 . S
O604 Mg605 2.028 . S
O604 C606 1.248 . S
Mg605 O604 2.028 . S
Mg605 O610 2.032 . S
Mg605 O612 2.079 . S
C606 O603 1.250 . S
C606 O604 1.248 . S
C607 O608 1.264 . S
C607 O615 1.249 . S
O608 C607 1.264 . S
O609 Mg602 1.986 . S
O609 C613 1.246 . S
O610 Mg605 2.032 . S
O610 C613 1.259 . S
O611 Mg602 2.114 . S
O611 C614 1.252 . S
O612 Mg602 2.251 . S
O612 Mg605 2.079 . S
O612 C614 1.273 . S
C613 O609 1.246 . S
C613 O610 1.259 . S
C614 O611 1.252 . S
C614 O612 1.273 . S
O615 Mg602 2.010 . S
O615 C607 1.249 . S
Mg616 O617 2.028 . S
Mg616 O623 1.986 . S
Mg616 O625 2.114 . S
Mg616 O626 2.251 . S
Mg616 O629 2.010 . S
O617 Mg616 2.028 . S
O617 C620 1.250 . S
O618 Mg619 2.028 . S
O618 C620 1.248 . S
Mg619 O618 2.028 . S
Mg619 O624 2.032 . S
Mg619 O626 2.079 . S
C620 O617 1.250 . S
C620 O618 1.248 . S
C621 O622 1.264 . S
C621 O629 1.249 . S
O622 C621 1.264 . S
O623 Mg616 1.986 . S
O623 C627 1.246 . S
O624 Mg619 2.032 . S
O624 C627 1.259 . S
O625 Mg616 2.114 . S
O625 C628 1.252 . S
O626 Mg616 2.251 . S
O626 Mg619 2.079 . S
O626 C628 1.273 . S
C627 O623 1.246 . S
C627 O624 1.259 . S
C628 O625 1.252 . S
C628 O626 1.273 . S
O629 Mg616 2.010 . S
O629 C621 1.249 . S
Mg630 O631 2.028 . S
Mg630 O637 1.986 . S
Mg630 O639 2.114 . S
Mg630 O640 2.251 . S
Mg630 O643 2.010 . S
O631 Mg630 2.028 . S
O631 C634 1.250 . S
O632 Mg633 2.028 . S
O632 C634 1.248 . S
Mg633 O632 2.028 . S
Mg633 O638 2.032 . S
Mg633 O640 2.079 . S
C634 O631 1.250 . S
C634 O632 1.248 . S
C635 O636 1.264 . S
C635 O643 1.249 . S
O636 C635 1.264 . S
O637 Mg630 1.986 . S
O637 C641 1.246 . S
O638 Mg633 2.032 . S
O638 C641 1.259 . S
O639 Mg630 2.114 . S
O639 C642 1.252 . S
O640 Mg630 2.251 . S
O640 Mg633 2.079 . S
O640 C642 1.273 . S
C641 O637 1.246 . S
C641 O638 1.259 . S
C642 O639 1.252 . S
C642 O640 1.273 . S
O643 Mg630 2.010 . S
O643 C635 1.249 . S
Mg644 O645 2.028 . S
Mg644 O651 1.986 . S
Mg644 O653 2.114 . S
Mg644 O654 2.251 . S
Mg644 O657 2.010 . S
O645 Mg644 2.028 . S
O645 C648 1.250 . S
O646 Mg647 2.028 . S
O646 C648 1.248 . S
Mg647 O646 2.028 . S
Mg647 O652 2.032 . S
Mg647 O654 2.079 . S
C648 O645 1.250 . S
C648 O646 1.248 . S
C649 O650 1.264 . S
C649 O657 1.249 . S
O650 C649 1.264 . S
O651 Mg644 1.986 . S
O651 C655 1.246 . S
O652 Mg647 2.032 . S
O652 C655 1.259 . S
O653 Mg644 2.114 . S
O653 C656 1.252 . S
O654 Mg644 2.251 . S
O654 Mg647 2.079 . S
O654 C656 1.273 . S
C655 O651 1.246 . S
C655 O652 1.259 . S
C656 O653 1.252 . S
C656 O654 1.273 . S
O657 Mg644 2.010 . S
O657 C649 1.249 . S
Mg658 O659 2.028 . S
Mg658 O665 1.986 . S
Mg658 O667 2.114 . S
Mg658 O668 2.251 . S
Mg658 O671 2.010 . S
O659 Mg658 2.028 . S
O659 C662 1.250 . S
O660 Mg661 2.028 . S
O660 C662 1.248 . S
Mg661 O660 2.028 . S
Mg661 O666 2.032 . S
Mg661 O668 2.079 . S
C662 O659 1.250 . S
C662 O660 1.248 . S
C663 O664 1.264 . S
C663 O671 1.249 . S
O664 C663 1.264 . S
O665 Mg658 1.986 . S
O665 C669 1.246 . S
O666 Mg661 2.032 . S
O666 C669 1.259 . S
O667 Mg658 2.114 . S
O667 C670 1.252 . S
O668 Mg658 2.251 . S
O668 Mg661 2.079 . S
O668 C670 1.273 . S
C669 O665 1.246 . S
C669 O666 1.259 . S
C670 O667 1.252 . S
C670 O668 1.273 . S
O671 Mg658 2.010 . S
O671 C663 1.249 . S
H672 C678 0.930 . S
H673 C682 0.930 . S
H674 C687 0.929 . S
H675 C685 0.929 . S
H676 C680 0.929 . S
H677 C686 0.929 . S
C678 H672 0.930 . S
C678 C679 1.367 . S
C678 C686 1.378 . S
C679 C678 1.367 . S
C679 C687 1.433 . S
C680 H676 0.929 . S
C680 C682 1.378 . S
C680 C684 1.350 . S
C681 C684 1.463 1_655 S
C681 C686 1.350 . S
C681 N689 1.427 . S
C682 H673 0.930 . S
C682 C680 1.378 . S
C682 C683 1.367 . S
C683 C682 1.367 . S
C683 C685 1.433 . S
C684 C680 1.350 . S
C684 C681 1.463 1_455 S
C684 N688 1.427 . S
C685 H675 0.929 . S
C685 C683 1.433 . S
C685 N688 1.384 . S
C686 H677 0.929 . S
C686 C678 1.378 . S
C686 C681 1.350 . S
C687 H674 0.929 . S
C687 C679 1.433 . S
C687 N689 1.384 . S
N688 C684 1.427 . S
N688 C685 1.384 . S
N689 C681 1.427 . S
N689 C687 1.384 . S
H690 C696 0.930 . S
H691 C700 0.930 . S
H692 C705 0.929 . S
H693 C703 0.929 . S
H694 C698 0.929 . S
H695 C704 0.929 . S
C696 H690 0.930 . S
C696 C697 1.367 . S
C696 C704 1.378 . S
C697 C696 1.367 . S
C697 C705 1.433 . S
C698 H694 0.929 . S
C698 C700 1.378 . S
C698 C702 1.350 . S
C699 C702 1.463 . S
C699 C704 1.350 . S
C699 N707 1.427 . S
C700 H691 0.930 . S
C700 C698 1.378 . S
C700 C701 1.367 . S
C701 C700 1.367 . S
C701 C703 1.433 . S
C702 C698 1.350 . S
C702 C699 1.463 . S
C702 N706 1.427 . S
C703 H693 0.929 . S
C703 C701 1.433 . S
C703 N706 1.384 . S
C704 H695 0.929 . S
C704 C696 1.378 . S
C704 C699 1.350 . S
C705 H692 0.929 . S
C705 C697 1.433 . S
C705 N707 1.384 . S
N706 C702 1.427 . S
N706 C703 1.384 . S
N707 C699 1.427 . S
N707 C705 1.384 . S
H708 C714 0.930 . S
H709 C718 0.930 . S
H710 C723 0.929 . S
H711 C721 0.929 . S
H712 C716 0.929 . S
H713 C722 0.929 . S
C714 H708 0.930 . S
C714 C715 1.367 . S
C714 C722 1.378 . S
C715 C714 1.367 . S
C715 C723 1.433 . S
C716 H712 0.929 . S
C716 C718 1.378 . S
C716 C720 1.350 . S
C717 C720 1.463 1_455 S
C717 C722 1.350 . S
C717 N725 1.427 . S
C718 H709 0.930 . S
C718 C716 1.378 . S
C718 C719 1.367 . S
C719 C718 1.367 . S
C719 C721 1.433 . S
C720 C716 1.350 . S
C720 C717 1.463 1_655 S
C720 N724 1.427 . S
C721 H711 0.929 . S
C721 C719 1.433 . S
C721 N724 1.384 . S
C722 H713 0.929 . S
C722 C714 1.378 . S
C722 C717 1.350 . S
C723 H710 0.929 . S
C723 C715 1.433 . S
C723 N725 1.384 . S
N724 C720 1.427 . S
N724 C721 1.384 . S
N725 C717 1.427 . S
N725 C723 1.384 . S
H726 C732 0.930 . S
H727 C736 0.930 . S
H728 C741 0.929 . S
H729 C739 0.929 . S
H730 C734 0.929 . S
H731 C740 0.929 . S
C732 H726 0.930 . S
C732 C733 1.367 . S
C732 C740 1.378 . S
C733 C732 1.367 . S
C733 C741 1.433 . S
C734 H730 0.929 . S
C734 C736 1.378 . S
C734 C738 1.350 . S
C735 C738 1.463 . S
C735 C740 1.350 . S
C735 N743 1.427 . S
C736 H727 0.930 . S
C736 C734 1.378 . S
C736 C737 1.367 . S
C737 C736 1.367 . S
C737 C739 1.433 . S
C738 C734 1.350 . S
C738 C735 1.463 . S
C738 N742 1.427 . S
C739 H729 0.929 . S
C739 C737 1.433 . S
C739 N742 1.384 . S
C740 H731 0.929 . S
C740 C732 1.378 . S
C740 C735 1.350 . S
C741 H728 0.929 . S
C741 C733 1.433 . S
C741 N743 1.384 . S
N742 C738 1.427 . S
N742 C739 1.384 . S
N743 C735 1.427 . S
N743 C741 1.384 . S
H744 C750 0.930 . S
H745 C754 0.930 . S
H746 C759 0.929 . S
H747 C757 0.929 . S
H748 C752 0.929 . S
H749 C758 0.929 . S
C750 H744 0.930 . S
C750 C751 1.367 . S
C750 C758 1.378 . S
C751 C750 1.367 . S
C751 C759 1.433 . S
C752 H748 0.929 . S
C752 C754 1.378 . S
C752 C756 1.350 . S
C753 C756 1.463 1_655 S
C753 C758 1.350 . S
C753 N761 1.427 . S
C754 H745 0.930 . S
C754 C752 1.378 . S
C754 C755 1.367 . S
C755 C754 1.367 . S
C755 C757 1.433 . S
C756 C752 1.350 . S
C756 C753 1.463 1_455 S
C756 N760 1.427 . S
C757 H747 0.929 . S
C757 C755 1.433 . S
C757 N760 1.384 . S
C758 H749 0.929 . S
C758 C750 1.378 . S
C758 C753 1.350 . S
C759 H746 0.929 . S
C759 C751 1.433 . S
C759 N761 1.384 . S
N760 C756 1.427 . S
N760 C757 1.384 . S
N761 C753 1.427 . S
N761 C759 1.384 . S
H762 C768 0.930 . S
H763 C772 0.930 . S
H764 C777 0.929 . S
H765 C775 0.929 . S
H766 C770 0.929 . S
H767 C776 0.929 . S
C768 H762 0.930 . S
C768 C769 1.367 . S
C768 C776 1.378 . S
C769 C768 1.367 . S
C769 C777 1.433 . S
C770 H766 0.929 . S
C770 C772 1.378 . S
C770 C774 1.350 . S
C771 C774 1.463 . S
C771 C776 1.350 . S
C771 N779 1.427 . S
C772 H763 0.930 . S
C772 C770 1.378 . S
C772 C773 1.367 . S
C773 C772 1.367 . S
C773 C775 1.433 . S
C774 C770 1.350 . S
C774 C771 1.463 . S
C774 N778 1.427 . S
C775 H765 0.929 . S
C775 C773 1.433 . S
C775 N778 1.384 . S
C776 H767 0.929 . S
C776 C768 1.378 . S
C776 C771 1.350 . S
C777 H764 0.929 . S
C777 C769 1.433 . S
C777 N779 1.384 . S
N778 C774 1.427 . S
N778 C775 1.384 . S
N779 C771 1.427 . S
N779 C777 1.384 . S
H780 C786 0.930 . S
H781 C790 0.930 . S
H782 C795 0.929 . S
H783 C793 0.929 . S
H784 C788 0.929 . S
H785 C794 0.929 . S
C786 H780 0.930 . S
C786 C787 1.367 . S
C786 C794 1.378 . S
C787 C786 1.367 . S
C787 C795 1.433 . S
C788 H784 0.929 . S
C788 C790 1.378 . S
C788 C792 1.350 . S
C789 C792 1.463 1_455 S
C789 C794 1.350 . S
C789 N797 1.427 . S
C790 H781 0.930 . S
C790 C788 1.378 . S
C790 C791 1.367 . S
C791 C790 1.367 . S
C791 C793 1.433 . S
C792 C788 1.350 . S
C792 C789 1.463 1_655 S
C792 N796 1.427 . S
C793 H783 0.929 . S
C793 C791 1.433 . S
C793 N796 1.384 . S
C794 H785 0.929 . S
C794 C786 1.378 . S
C794 C789 1.350 . S
C795 H782 0.929 . S
C795 C787 1.433 . S
C795 N797 1.384 . S
N796 C792 1.427 . S
N796 C793 1.384 . S
N797 C789 1.427 . S
N797 C795 1.384 . S
H798 C804 0.930 . S
H799 C808 0.930 . S
H800 C813 0.929 . S
H801 C811 0.929 . S
H802 C806 0.929 . S
H803 C812 0.929 . S
C804 H798 0.930 . S
C804 C805 1.367 . S
C804 C812 1.378 . S
C805 C804 1.367 . S
C805 C813 1.433 . S
C806 H802 0.929 . S
C806 C808 1.378 . S
C806 C810 1.350 . S
C807 C810 1.463 . S
C807 C812 1.350 . S
C807 N815 1.427 . S
C808 H799 0.930 . S
C808 C806 1.378 . S
C808 C809 1.367 . S
C809 C808 1.367 . S
C809 C811 1.433 . S
C810 C806 1.350 . S
C810 C807 1.463 . S
C810 N814 1.427 . S
C811 H801 0.929 . S
C811 C809 1.433 . S
C811 N814 1.384 . S
C812 H803 0.929 . S
C812 C804 1.378 . S
C812 C807 1.350 . S
C813 H800 0.929 . S
C813 C805 1.433 . S
C813 N815 1.384 . S
N814 C810 1.427 . S
N814 C811 1.384 . S
N815 C807 1.427 . S
N815 C813 1.384 . S
H816 C822 0.930 . S
H817 C826 0.930 . S
H818 C831 0.929 . S
H819 C829 0.929 . S
H820 C824 0.929 . S
H821 C830 0.929 . S
C822 H816 0.930 . S
C822 C823 1.367 . S
C822 C830 1.378 . S
C823 C822 1.367 . S
C823 C831 1.433 . S
C824 H820 0.929 . S
C824 C826 1.378 . S
C824 C828 1.350 . S
C825 C828 1.463 1_565 S
C825 C830 1.350 . S
C825 N833 1.427 . S
C826 H817 0.930 . S
C826 C824 1.378 . S
C826 C827 1.367 . S
C827 C826 1.367 . S
C827 C829 1.433 . S
C828 C824 1.350 . S
C828 C825 1.463 1_545 S
C828 N832 1.427 . S
C829 H819 0.929 . S
C829 C827 1.433 . S
C829 N832 1.384 . S
C830 H821 0.929 . S
C830 C822 1.378 . S
C830 C825 1.350 . S
C831 H818 0.929 . S
C831 C823 1.433 . S
C831 N833 1.384 . S
N832 C828 1.427 . S
N832 C829 1.384 . S
N833 C825 1.427 . S
N833 C831 1.384 . S
H834 C840 0.930 . S
H835 C844 0.930 . S
H836 C849 0.929 . S
H837 C847 0.929 . S
H838 C842 0.929 . S
H839 C848 0.929 . S
C840 H834 0.930 . S
C840 C841 1.367 . S
C840 C848 1.378 . S
C841 C840 1.367 . S
C841 C849 1.433 . S
C842 H838 0.929 . S
C842 C844 1.378 . S
C842 C846 1.350 . S
C843 C846 1.463 . S
C843 C848 1.350 . S
C843 N851 1.427 . S
C844 H835 0.930 . S
C844 C842 1.378 . S
C844 C845 1.367 . S
C845 C844 1.367 . S
C845 C847 1.433 . S
C846 C842 1.350 . S
C846 C843 1.463 . S
C846 N850 1.427 . S
C847 H837 0.929 . S
C847 C845 1.433 . S
C847 N850 1.384 . S
C848 H839 0.929 . S
C848 C840 1.378 . S
C848 C843 1.350 . S
C849 H836 0.929 . S
C849 C841 1.433 . S
C849 N851 1.384 . S
N850 C846 1.427 . S
N850 C847 1.384 . S
N851 C843 1.427 . S
N851 C849 1.384 . S
H852 C858 0.930 . S
H853 C862 0.930 . S
H854 C867 0.929 . S
H855 C865 0.929 . S
H856 C860 0.929 . S
H857 C866 0.929 . S
C858 H852 0.930 . S
C858 C859 1.367 . S
C858 C866 1.378 . S
C859 C858 1.367 . S
C859 C867 1.433 . S
C860 H856 0.929 . S
C860 C862 1.378 . S
C860 C864 1.350 . S
C861 C864 1.463 1_545 S
C861 C866 1.350 . S
C861 N869 1.427 . S
C862 H853 0.930 . S
C862 C860 1.378 . S
C862 C863 1.367 . S
C863 C862 1.367 . S
C863 C865 1.433 . S
C864 C860 1.350 . S
C864 C861 1.463 1_565 S
C864 N868 1.427 . S
C865 H855 0.929 . S
C865 C863 1.433 . S
C865 N868 1.384 . S
C866 H857 0.929 . S
C866 C858 1.378 . S
C866 C861 1.350 . S
C867 H854 0.929 . S
C867 C859 1.433 . S
C867 N869 1.384 . S
N868 C864 1.427 . S
N868 C865 1.384 . S
N869 C861 1.427 . S
N869 C867 1.384 . S
H870 C876 0.930 . S
H871 C880 0.930 . S
H872 C885 0.929 . S
H873 C883 0.929 . S
H874 C878 0.929 . S
H875 C884 0.929 . S
C876 H870 0.930 . S
C876 C877 1.367 . S
C876 C884 1.378 . S
C877 C876 1.367 . S
C877 C885 1.433 . S
C878 H874 0.929 . S
C878 C880 1.378 . S
C878 C882 1.350 . S
C879 C882 1.463 . S
C879 C884 1.350 . S
C879 N887 1.427 . S
C880 H871 0.930 . S
C880 C878 1.378 . S
C880 C881 1.367 . S
C881 C880 1.367 . S
C881 C883 1.433 . S
C882 C878 1.350 . S
C882 C879 1.463 . S
C882 N886 1.427 . S
C883 H873 0.929 . S
C883 C881 1.433 . S
C883 N886 1.384 . S
C884 H875 0.929 . S
C884 C876 1.378 . S
C884 C879 1.350 . S
C885 H872 0.929 . S
C885 C877 1.433 . S
C885 N887 1.384 . S
N886 C882 1.427 . S
N886 C883 1.384 . S
N887 C879 1.427 . S
N887 C885 1.384 . S
H888 C894 0.930 . S
H889 C898 0.930 . S
H890 C903 0.929 . S
H891 C901 0.929 . S
H892 C896 0.929 . S
H893 C902 0.929 . S
C894 H888 0.930 . S
C894 C895 1.367 . S
C894 C902 1.378 . S
C895 C894 1.367 . S
C895 C903 1.433 . S
C896 H892 0.929 . S
C896 C898 1.378 . S
C896 C900 1.350 . S
C897 C900 1.463 1_545 S
C897 C902 1.350 . S
C897 N905 1.427 . S
C898 H889 0.930 . S
C898 C896 1.378 . S
C898 C899 1.367 . S
C899 C898 1.367 . S
C899 C901 1.433 . S
C900 C896 1.350 . S
C900 C897 1.463 1_565 S
C900 N904 1.427 . S
C901 H891 0.929 . S
C901 C899 1.433 . S
C901 N904 1.384 . S
C902 H893 0.929 . S
C902 C894 1.378 . S
C902 C897 1.350 . S
C903 H890 0.929 . S
C903 C895 1.433 . S
C903 N905 1.384 . S
N904 C900 1.427 . S
N904 C901 1.384 . S
N905 C897 1.427 . S
N905 C903 1.384 . S
H906 C912 0.930 . S
H907 C916 0.930 . S
H908 C921 0.929 . S
H909 C919 0.929 . S
H910 C914 0.929 . S
H911 C920 0.929 . S
C912 H906 0.930 . S
C912 C913 1.367 . S
C912 C920 1.378 . S
C913 C912 1.367 . S
C913 C921 1.433 . S
C914 H910 0.929 . S
C914 C916 1.378 . S
C914 C918 1.350 . S
C915 C918 1.463 . S
C915 C920 1.350 . S
C915 N923 1.427 . S
C916 H907 0.930 . S
C916 C914 1.378 . S
C916 C917 1.367 . S
C917 C916 1.367 . S
C917 C919 1.433 . S
C918 C914 1.350 . S
C918 C915 1.463 . S
C918 N922 1.427 . S
C919 H909 0.929 . S
C919 C917 1.433 . S
C919 N922 1.384 . S
C920 H911 0.929 . S
C920 C912 1.378 . S
C920 C915 1.350 . S
C921 H908 0.929 . S
C921 C913 1.433 . S
C921 N923 1.384 . S
N922 C918 1.427 . S
N922 C919 1.384 . S
N923 C915 1.427 . S
N923 C921 1.384 . S
H924 C930 0.930 . S
H925 C934 0.930 . S
H926 C939 0.929 . S
H927 C937 0.929 . S
H928 C932 0.929 . S
H929 C938 0.929 . S
C930 H924 0.930 . S
C930 C931 1.367 . S
C930 C938 1.378 . S
C931 C930 1.367 . S
C931 C939 1.433 . S
C932 H928 0.929 . S
C932 C934 1.378 . S
C932 C936 1.350 . S
C933 C936 1.463 1_545 S
C933 C938 1.350 . S
C933 N941 1.427 . S
C934 H925 0.930 . S
C934 C932 1.378 . S
C934 C935 1.367 . S
C935 C934 1.367 . S
C935 C937 1.433 . S
C936 C932 1.350 . S
C936 C933 1.463 1_565 S
C936 N940 1.427 . S
C937 H927 0.929 . S
C937 C935 1.433 . S
C937 N940 1.384 . S
C938 H929 0.929 . S
C938 C930 1.378 . S
C938 C933 1.350 . S
C939 H926 0.929 . S
C939 C931 1.433 . S
C939 N941 1.384 . S
N940 C936 1.427 . S
N940 C937 1.384 . S
N941 C933 1.427 . S
N941 C939 1.384 . S
H942 C948 0.930 . S
H943 C952 0.930 . S
H944 C957 0.929 . S
H945 C955 0.929 . S
H946 C950 0.929 . S
H947 C956 0.929 . S
C948 H942 0.930 . S
C948 C949 1.367 . S
C948 C956 1.378 . S
C949 C948 1.367 . S
C949 C957 1.433 . S
C950 H946 0.929 . S
C950 C952 1.378 . S
C950 C954 1.350 . S
C951 C954 1.463 . S
C951 C956 1.350 . S
C951 N959 1.427 . S
C952 H943 0.930 . S
C952 C950 1.378 . S
C952 C953 1.367 . S
C953 C952 1.367 . S
C953 C955 1.433 . S
C954 C950 1.350 . S
C954 C951 1.463 . S
C954 N958 1.427 . S
C955 H945 0.929 . S
C955 C953 1.433 . S
C955 N958 1.384 . S
C956 H947 0.929 . S
C956 C948 1.378 . S
C956 C951 1.350 . S
C957 H944 0.929 . S
C957 C949 1.433 . S
C957 N959 1.384 . S
N958 C954 1.427 . S
N958 C955 1.384 . S
N959 C951 1.427 . S
N959 C957 1.384 . S
H960 C966 0.930 . S
H961 C970 0.930 . S
H962 C975 0.929 . S
H963 C973 0.929 . S
H964 C968 0.929 . S
H965 C974 0.929 . S
C966 H960 0.930 . S
C966 C967 1.367 . S
C966 C974 1.378 . S
C967 C966 1.367 . S
C967 C975 1.433 . S
C968 H964 0.929 . S
C968 C970 1.378 . S
C968 C972 1.350 . S
C969 C972 1.463 1_554 S
C969 C974 1.350 . S
C969 N977 1.427 . S
C970 H961 0.930 . S
C970 C968 1.378 . S
C970 C971 1.367 . S
C971 C970 1.367 . S
C971 C973 1.433 . S
C972 C968 1.350 . S
C972 C969 1.463 1_556 S
C972 N976 1.427 . S
C973 H963 0.929 . S
C973 C971 1.433 . S
C973 N976 1.384 . S
C974 H965 0.929 . S
C974 C966 1.378 . S
C974 C969 1.350 . S
C975 H962 0.929 . S
C975 C967 1.433 . S
C975 N977 1.384 . S
N976 C972 1.427 . S
N976 C973 1.384 . S
N977 C969 1.427 . S
N977 C975 1.384 . S
H978 C984 0.930 . S
H979 C988 0.930 . S
H980 C993 0.929 . S
H981 C991 0.929 . S
H982 C986 0.929 . S
H983 C992 0.929 . S
C984 H978 0.930 . S
C984 C985 1.367 . S
C984 C992 1.378 . S
C985 C984 1.367 . S
C985 C993 1.433 . S
C986 H982 0.929 . S
C986 C988 1.378 . S
C986 C990 1.350 . S
C987 C990 1.463 1_554 S
C987 C992 1.350 . S
C987 N995 1.427 . S
C988 H979 0.930 . S
C988 C986 1.378 . S
C988 C989 1.367 . S
C989 C988 1.367 . S
C989 C991 1.433 . S
C990 C986 1.350 . S
C990 C987 1.463 1_556 S
C990 N994 1.427 . S
C991 H981 0.929 . S
C991 C989 1.433 . S
C991 N994 1.384 . S
C992 H983 0.929 . S
C992 C984 1.378 . S
C992 C987 1.350 . S
C993 H980 0.929 . S
C993 C985 1.433 . S
C993 N995 1.384 . S
N994 C990 1.427 . S
N994 C991 1.384 . S
N995 C987 1.427 . S
N995 C993 1.384 . S
H996 C1002 0.930 . S
H997 C1006 0.930 . S
H998 C1011 0.929 . S
H999 C1009 0.929 . S
H1000 C1004 0.929 . S
H1001 C1010 0.929 . S
C1002 H996 0.930 . S
C1002 C1003 1.367 . S
C1002 C1010 1.378 . S
C1003 C1002 1.367 . S
C1003 C1011 1.433 . S
C1004 H1000 0.929 . S
C1004 C1006 1.378 . S
C1004 C1008 1.350 . S
C1005 C1008 1.463 . S
C1005 C1010 1.350 . S
C1005 N1013 1.427 . S
C1006 H997 0.930 . S
C1006 C1004 1.378 . S
C1006 C1007 1.367 . S
C1007 C1006 1.367 . S
C1007 C1009 1.433 . S
C1008 C1004 1.350 . S
C1008 C1005 1.463 . S
C1008 N1012 1.427 . S
C1009 H999 0.929 . S
C1009 C1007 1.433 . S
C1009 N1012 1.384 . S
C1010 H1001 0.929 . S
C1010 C1002 1.378 . S
C1010 C1005 1.350 . S
C1011 H998 0.929 . S
C1011 C1003 1.433 . S
C1011 N1013 1.384 . S
N1012 C1008 1.427 . S
N1012 C1009 1.384 . S
N1013 C1005 1.427 . S
N1013 C1011 1.384 . S
H1014 C1020 0.930 . S
H1015 C1024 0.930 . S
H1016 C1029 0.929 . S
H1017 C1027 0.929 . S
H1018 C1022 0.929 . S
H1019 C1028 0.929 . S
C1020 H1014 0.930 . S
C1020 C1021 1.367 . S
C1020 C1028 1.378 . S
C1021 C1020 1.367 . S
C1021 C1029 1.433 . S
C1022 H1018 0.929 . S
C1022 C1024 1.378 . S
C1022 C1026 1.350 . S
C1023 C1026 1.463 1_554 S
C1023 C1028 1.350 . S
C1023 N1031 1.427 . S
C1024 H1015 0.930 . S
C1024 C1022 1.378 . S
C1024 C1025 1.367 . S
C1025 C1024 1.367 . S
C1025 C1027 1.433 . S
C1026 C1022 1.350 . S
C1026 C1023 1.463 1_556 S
C1026 N1030 1.427 . S
C1027 H1017 0.929 . S
C1027 C1025 1.433 . S
C1027 N1030 1.384 . S
C1028 H1019 0.929 . S
C1028 C1020 1.378 . S
C1028 C1023 1.350 . S
C1029 H1016 0.929 . S
C1029 C1021 1.433 . S
C1029 N1031 1.384 . S
N1030 C1026 1.427 . S
N1030 C1027 1.384 . S
N1031 C1023 1.427 . S
N1031 C1029 1.384 . S
H1032 C1038 0.930 . S
H1033 C1042 0.930 . S
H1034 C1047 0.929 . S
H1035 C1045 0.929 . S
H1036 C1040 0.929 . S
H1037 C1046 0.929 . S
C1038 H1032 0.930 . S
C1038 C1039 1.367 . S
C1038 C1046 1.378 . S
C1039 C1038 1.367 . S
C1039 C1047 1.433 . S
C1040 H1036 0.929 . S
C1040 C1042 1.378 . S
C1040 C1044 1.350 . S
C1041 C1044 1.463 . S
C1041 C1046 1.350 . S
C1041 N1049 1.427 . S
C1042 H1033 0.930 . S
C1042 C1040 1.378 . S
C1042 C1043 1.367 . S
C1043 C1042 1.367 . S
C1043 C1045 1.433 . S
C1044 C1040 1.350 . S
C1044 C1041 1.463 . S
C1044 N1048 1.427 . S
C1045 H1035 0.929 . S
C1045 C1043 1.433 . S
C1045 N1048 1.384 . S
C1046 H1037 0.929 . S
C1046 C1038 1.378 . S
C1046 C1041 1.350 . S
C1047 H1034 0.929 . S
C1047 C1039 1.433 . S
C1047 N1049 1.384 . S
N1048 C1044 1.427 . S
N1048 C1045 1.384 . S
N1049 C1041 1.427 . S
N1049 C1047 1.384 . S
H1050 C1056 0.930 . S
H1051 C1060 0.930 . S
H1052 C1065 0.929 . S
H1053 C1063 0.929 . S
H1054 C1058 0.929 . S
H1055 C1064 0.929 . S
C1056 H1050 0.930 . S
C1056 C1057 1.367 . S
C1056 C1064 1.378 . S
C1057 C1056 1.367 . S
C1057 C1065 1.433 . S
C1058 H1054 0.929 . S
C1058 C1060 1.378 . S
C1058 C1062 1.350 . S
C1059 C1062 1.463 1_554 S
C1059 C1064 1.350 . S
C1059 N1067 1.427 . S
C1060 H1051 0.930 . S
C1060 C1058 1.378 . S
C1060 C1061 1.367 . S
C1061 C1060 1.367 . S
C1061 C1063 1.433 . S
C1062 C1058 1.350 . S
C1062 C1059 1.463 1_556 S
C1062 N1066 1.427 . S
C1063 H1053 0.929 . S
C1063 C1061 1.433 . S
C1063 N1066 1.384 . S
C1064 H1055 0.929 . S
C1064 C1056 1.378 . S
C1064 C1059 1.350 . S
C1065 H1052 0.929 . S
C1065 C1057 1.433 . S
C1065 N1067 1.384 . S
N1066 C1062 1.427 . S
N1066 C1063 1.384 . S
N1067 C1059 1.427 . S
N1067 C1065 1.384 . S
H1068 C1074 0.930 . S
H1069 C1078 0.930 . S
H1070 C1083 0.929 . S
H1071 C1081 0.929 . S
H1072 C1076 0.929 . S
H1073 C1082 0.929 . S
C1074 H1068 0.930 . S
C1074 C1075 1.367 . S
C1074 C1082 1.378 . S
C1075 C1074 1.367 . S
C1075 C1083 1.433 . S
C1076 H1072 0.929 . S
C1076 C1078 1.378 . S
C1076 C1080 1.350 . S
C1077 C1080 1.463 . S
C1077 C1082 1.350 . S
C1077 N1085 1.427 . S
C1078 H1069 0.930 . S
C1078 C1076 1.378 . S
C1078 C1079 1.367 . S
C1079 C1078 1.367 . S
C1079 C1081 1.433 . S
C1080 C1076 1.350 . S
C1080 C1077 1.463 . S
C1080 N1084 1.427 . S
C1081 H1071 0.929 . S
C1081 C1079 1.433 . S
C1081 N1084 1.384 . S
C1082 H1073 0.929 . S
C1082 C1074 1.378 . S
C1082 C1077 1.350 . S
C1083 H1070 0.929 . S
C1083 C1075 1.433 . S
C1083 N1085 1.384 . S
N1084 C1080 1.427 . S
N1084 C1081 1.384 . S
N1085 C1077 1.427 . S
N1085 C1083 1.384 . S
H1086 C1092 0.930 . S
H1087 C1096 0.930 . S
H1088 C1101 0.929 . S
H1089 C1099 0.929 . S
H1090 C1094 0.929 . S
H1091 C1100 0.929 . S
C1092 H1086 0.930 . S
C1092 C1093 1.367 . S
C1092 C1100 1.378 . S
C1093 C1092 1.367 . S
C1093 C1101 1.433 . S
C1094 H1090 0.929 . S
C1094 C1096 1.378 . S
C1094 C1098 1.350 . S
C1095 C1098 1.463 . S
C1095 C1100 1.350 . S
C1095 N1103 1.427 . S
C1096 H1087 0.930 . S
C1096 C1094 1.378 . S
C1096 C1097 1.367 . S
C1097 C1096 1.367 . S
C1097 C1099 1.433 . S
C1098 C1094 1.350 . S
C1098 C1095 1.463 . S
C1098 N1102 1.427 . S
C1099 H1089 0.929 . S
C1099 C1097 1.433 . S
C1099 N1102 1.384 . S
C1100 H1091 0.929 . S
C1100 C1092 1.378 . S
C1100 C1095 1.350 . S
C1101 H1088 0.929 . S
C1101 C1093 1.433 . S
C1101 N1103 1.384 . S
N1102 C1098 1.427 . S
N1102 C1099 1.384 . S
N1103 C1095 1.427 . S
N1103 C1101 1.384 . S
H1104 C1110 0.930 . S
H1105 C1114 0.930 . S
H1106 C1119 0.929 . S
H1107 C1117 0.929 . S
H1108 C1112 0.929 . S
H1109 C1118 0.929 . S
C1110 H1104 0.930 . S
C1110 C1111 1.367 . S
C1110 C1118 1.378 . S
C1111 C1110 1.367 . S
C1111 C1119 1.433 . S
C1112 H1108 0.929 . S
C1112 C1114 1.378 . S
C1112 C1116 1.350 . S
C1113 C1116 1.463 . S
C1113 C1118 1.350 . S
C1113 N1121 1.427 . S
C1114 H1105 0.930 . S
C1114 C1112 1.378 . S
C1114 C1115 1.367 . S
C1115 C1114 1.367 . S
C1115 C1117 1.433 . S
C1116 C1112 1.350 . S
C1116 C1113 1.463 . S
C1116 N1120 1.427 . S
C1117 H1107 0.929 . S
C1117 C1115 1.433 . S
C1117 N1120 1.384 . S
C1118 H1109 0.929 . S
C1118 C1110 1.378 . S
C1118 C1113 1.350 . S
C1119 H1106 0.929 . S
C1119 C1111 1.433 . S
C1119 N1121 1.384 . S
N1120 C1116 1.427 . S
N1120 C1117 1.384 . S
N1121 C1113 1.427 . S
N1121 C1119 1.384 . S
H1122 C1128 0.930 . S
H1123 C1132 0.930 . S
H1124 C1137 0.929 . S
H1125 C1135 0.929 . S
H1126 C1130 0.929 . S
H1127 C1136 0.929 . S
C1128 H1122 0.930 . S
C1128 C1129 1.367 . S
C1128 C1136 1.378 . S
C1129 C1128 1.367 . S
C1129 C1137 1.433 . S
C1130 H1126 0.929 . S
C1130 C1132 1.378 . S
C1130 C1134 1.350 . S
C1131 C1134 1.463 . S
C1131 C1136 1.350 . S
C1131 N1139 1.427 . S
C1132 H1123 0.930 . S
C1132 C1130 1.378 . S
C1132 C1133 1.367 . S
C1133 C1132 1.367 . S
C1133 C1135 1.433 . S
C1134 C1130 1.350 . S
C1134 C1131 1.463 . S
C1134 N1138 1.427 . S
C1135 H1125 0.929 . S
C1135 C1133 1.433 . S
C1135 N1138 1.384 . S
C1136 H1127 0.929 . S
C1136 C1128 1.378 . S
C1136 C1131 1.350 . S
C1137 H1124 0.929 . S
C1137 C1129 1.433 . S
C1137 N1139 1.384 . S
N1138 C1134 1.427 . S
N1138 C1135 1.384 . S
N1139 C1131 1.427 . S
N1139 C1137 1.384 . S
H1140 C1146 0.930 . S
H1141 C1150 0.930 . S
H1142 C1155 0.929 . S
H1143 C1153 0.929 . S
H1144 C1148 0.929 . S
H1145 C1154 0.929 . S
C1146 H1140 0.930 . S
C1146 C1147 1.367 . S
C1146 C1154 1.378 . S
C1147 C1146 1.367 . S
C1147 C1155 1.433 . S
C1148 H1144 0.929 . S
C1148 C1150 1.378 . S
C1148 C1152 1.350 . S
C1149 C1152 1.463 . S
C1149 C1154 1.350 . S
C1149 N1157 1.427 . S
C1150 H1141 0.930 . S
C1150 C1148 1.378 . S
C1150 C1151 1.367 . S
C1151 C1150 1.367 . S
C1151 C1153 1.433 . S
C1152 C1148 1.350 . S
C1152 C1149 1.463 . S
C1152 N1156 1.427 . S
C1153 H1143 0.929 . S
C1153 C1151 1.433 . S
C1153 N1156 1.384 . S
C1154 H1145 0.929 . S
C1154 C1146 1.378 . S
C1154 C1149 1.350 . S
C1155 H1142 0.929 . S
C1155 C1147 1.433 . S
C1155 N1157 1.384 . S
N1156 C1152 1.427 . S
N1156 C1153 1.384 . S
N1157 C1149 1.427 . S
N1157 C1155 1.384 . S
H1158 C1164 0.930 . S
H1159 C1168 0.930 . S
H1160 C1173 0.929 . S
H1161 C1171 0.929 . S
H1162 C1166 0.929 . S
H1163 C1172 0.929 . S
C1164 H1158 0.930 . S
C1164 C1165 1.367 . S
C1164 C1172 1.378 . S
C1165 C1164 1.367 . S
C1165 C1173 1.433 . S
C1166 H1162 0.929 . S
C1166 C1168 1.378 . S
C1166 C1170 1.350 . S
C1167 C1170 1.463 . S
C1167 C1172 1.350 . S
C1167 N1175 1.427 . S
C1168 H1159 0.930 . S
C1168 C1166 1.378 . S
C1168 C1169 1.367 . S
C1169 C1168 1.367 . S
C1169 C1171 1.433 . S
C1170 C1166 1.350 . S
C1170 C1167 1.463 . S
C1170 N1174 1.427 . S
C1171 H1161 0.929 . S
C1171 C1169 1.433 . S
C1171 N1174 1.384 . S
C1172 H1163 0.929 . S
C1172 C1164 1.378 . S
C1172 C1167 1.350 . S
C1173 H1160 0.929 . S
C1173 C1165 1.433 . S
C1173 N1175 1.384 . S
N1174 C1170 1.427 . S
N1174 C1171 1.384 . S
N1175 C1167 1.427 . S
N1175 C1173 1.384 . S
H1176 C1182 0.930 . S
H1177 C1186 0.930 . S
H1178 C1191 0.929 . S
H1179 C1189 0.929 . S
H1180 C1184 0.929 . S
H1181 C1190 0.929 . S
C1182 H1176 0.930 . S
C1182 C1183 1.367 . S
C1182 C1190 1.378 . S
C1183 C1182 1.367 . S
C1183 C1191 1.433 . S
C1184 H1180 0.929 . S
C1184 C1186 1.378 . S
C1184 C1188 1.350 . S
C1185 C1188 1.463 . S
C1185 C1190 1.350 . S
C1185 N1193 1.427 . S
C1186 H1177 0.930 . S
C1186 C1184 1.378 . S
C1186 C1187 1.367 . S
C1187 C1186 1.367 . S
C1187 C1189 1.433 . S
C1188 C1184 1.350 . S
C1188 C1185 1.463 . S
C1188 N1192 1.427 . S
C1189 H1179 0.929 . S
C1189 C1187 1.433 . S
C1189 N1192 1.384 . S
C1190 H1181 0.929 . S
C1190 C1182 1.378 . S
C1190 C1185 1.350 . S
C1191 H1178 0.929 . S
C1191 C1183 1.433 . S
C1191 N1193 1.384 . S
N1192 C1188 1.427 . S
N1192 C1189 1.384 . S
N1193 C1185 1.427 . S
N1193 C1191 1.384 . S
H1194 C1200 0.930 . S
H1195 C1204 0.930 . S
H1196 C1209 0.929 . S
H1197 C1207 0.929 . S
H1198 C1202 0.929 . S
H1199 C1208 0.929 . S
C1200 H1194 0.930 . S
C1200 C1201 1.367 . S
C1200 C1208 1.378 . S
C1201 C1200 1.367 . S
C1201 C1209 1.433 . S
C1202 H1198 0.929 . S
C1202 C1204 1.378 . S
C1202 C1206 1.350 . S
C1203 C1206 1.463 . S
C1203 C1208 1.350 . S
C1203 N1211 1.427 . S
C1204 H1195 0.930 . S
C1204 C1202 1.378 . S
C1204 C1205 1.367 . S
C1205 C1204 1.367 . S
C1205 C1207 1.433 . S
C1206 C1202 1.350 . S
C1206 C1203 1.463 . S
C1206 N1210 1.427 . S
C1207 H1197 0.929 . S
C1207 C1205 1.433 . S
C1207 N1210 1.384 . S
C1208 H1199 0.929 . S
C1208 C1200 1.378 . S
C1208 C1203 1.350 . S
C1209 H1196 0.929 . S
C1209 C1201 1.433 . S
C1209 N1211 1.384 . S
N1210 C1206 1.427 . S
N1210 C1207 1.384 . S
N1211 C1203 1.427 . S
N1211 C1209 1.384 . S
H1212 C1218 0.930 . S
H1213 C1222 0.930 . S
H1214 C1227 0.929 . S
H1215 C1225 0.929 . S
H1216 C1220 0.929 . S
H1217 C1226 0.929 . S
C1218 H1212 0.930 . S
C1218 C1219 1.367 . S
C1218 C1226 1.378 . S
C1219 C1218 1.367 . S
C1219 C1227 1.433 . S
C1220 H1216 0.929 . S
C1220 C1222 1.378 . S
C1220 C1224 1.350 . S
C1221 C1224 1.463 . S
C1221 C1226 1.350 . S
C1221 N1229 1.427 . S
C1222 H1213 0.930 . S
C1222 C1220 1.378 . S
C1222 C1223 1.367 . S
C1223 C1222 1.367 . S
C1223 C1225 1.433 . S
C1224 C1220 1.350 . S
C1224 C1221 1.463 . S
C1224 N1228 1.427 . S
C1225 H1215 0.929 . S
C1225 C1223 1.433 . S
C1225 N1228 1.384 . S
C1226 H1217 0.929 . S
C1226 C1218 1.378 . S
C1226 C1221 1.350 . S
C1227 H1214 0.929 . S
C1227 C1219 1.433 . S
C1227 N1229 1.384 . S
N1228 C1224 1.427 . S
N1228 C1225 1.384 . S
N1229 C1221 1.427 . S
N1229 C1227 1.384 . S
H1230 C1236 0.930 . S
H1231 C1240 0.930 . S
H1232 C1245 0.929 . S
H1233 C1243 0.929 . S
H1234 C1238 0.929 . S
H1235 C1244 0.929 . S
C1236 H1230 0.930 . S
C1236 C1237 1.367 . S
C1236 C1244 1.378 . S
C1237 C1236 1.367 . S
C1237 C1245 1.433 . S
C1238 H1234 0.929 . S
C1238 C1240 1.378 . S
C1238 C1242 1.350 . S
C1239 C1242 1.463 . S
C1239 C1244 1.350 . S
C1239 N1247 1.427 . S
C1240 H1231 0.930 . S
C1240 C1238 1.378 . S
C1240 C1241 1.367 . S
C1241 C1240 1.367 . S
C1241 C1243 1.433 . S
C1242 C1238 1.350 . S
C1242 C1239 1.463 . S
C1242 N1246 1.427 . S
C1243 H1233 0.929 . S
C1243 C1241 1.433 . S
C1243 N1246 1.384 . S
C1244 H1235 0.929 . S
C1244 C1236 1.378 . S
C1244 C1239 1.350 . S
C1245 H1232 0.929 . S
C1245 C1237 1.433 . S
C1245 N1247 1.384 . S
N1246 C1242 1.427 . S
N1246 C1243 1.384 . S
N1247 C1239 1.427 . S
N1247 C1245 1.384 . S
H1248 C1254 0.930 . S
H1249 C1258 0.930 . S
H1250 C1263 0.929 . S
H1251 C1261 0.929 . S
H1252 C1256 0.929 . S
H1253 C1262 0.929 . S
C1254 H1248 0.930 . S
C1254 C1255 1.367 . S
C1254 C1262 1.378 . S
C1255 C1254 1.367 . S
C1255 C1263 1.433 . S
C1256 H1252 0.929 . S
C1256 C1258 1.378 . S
C1256 C1260 1.350 . S
C1257 C1260 1.463 . S
C1257 C1262 1.350 . S
C1257 N1265 1.427 . S
C1258 H1249 0.930 . S
C1258 C1256 1.378 . S
C1258 C1259 1.367 . S
C1259 C1258 1.367 . S
C1259 C1261 1.433 . S
C1260 C1256 1.350 . S
C1260 C1257 1.463 . S
C1260 N1264 1.427 . S
C1261 H1251 0.929 . S
C1261 C1259 1.433 . S
C1261 N1264 1.384 . S
C1262 H1253 0.929 . S
C1262 C1254 1.378 . S
C1262 C1257 1.350 . S
C1263 H1250 0.929 . S
C1263 C1255 1.433 . S
C1263 N1265 1.384 . S
N1264 C1260 1.427 . S
N1264 C1261 1.384 . S
N1265 C1257 1.427 . S
N1265 C1263 1.384 . S
H1266 C1272 0.930 . S
H1267 C1276 0.930 . S
H1268 C1281 0.929 . S
H1269 C1279 0.929 . S
H1270 C1274 0.929 . S
H1271 C1280 0.929 . S
C1272 H1266 0.930 . S
C1272 C1273 1.367 . S
C1272 C1280 1.378 . S
C1273 C1272 1.367 . S
C1273 C1281 1.433 . S
C1274 H1270 0.929 . S
C1274 C1276 1.378 . S
C1274 C1278 1.350 . S
C1275 C1278 1.463 . S
C1275 C1280 1.350 . S
C1275 N1283 1.427 . S
C1276 H1267 0.930 . S
C1276 C1274 1.378 . S
C1276 C1277 1.367 . S
C1277 C1276 1.367 . S
C1277 C1279 1.433 . S
C1278 C1274 1.350 . S
C1278 C1275 1.463 . S
C1278 N1282 1.427 . S
C1279 H1269 0.929 . S
C1279 C1277 1.433 . S
C1279 N1282 1.384 . S
C1280 H1271 0.929 . S
C1280 C1272 1.378 . S
C1280 C1275 1.350 . S
C1281 H1268 0.929 . S
C1281 C1273 1.433 . S
C1281 N1283 1.384 . S
N1282 C1278 1.427 . S
N1282 C1279 1.384 . S
N1283 C1275 1.427 . S
N1283 C1281 1.384 . S
H1284 C1290 0.930 . S
H1285 C1294 0.930 . S
H1286 C1299 0.929 . S
H1287 C1297 0.929 . S
H1288 C1292 0.929 . S
H1289 C1298 0.929 . S
C1290 H1284 0.930 . S
C1290 C1291 1.367 . S
C1290 C1298 1.378 . S
C1291 C1290 1.367 . S
C1291 C1299 1.433 . S
C1292 H1288 0.929 . S
C1292 C1294 1.378 . S
C1292 C1296 1.350 . S
C1293 C1296 1.463 . S
C1293 C1298 1.350 . S
C1293 N1301 1.427 . S
C1294 H1285 0.930 . S
C1294 C1292 1.378 . S
C1294 C1295 1.367 . S
C1295 C1294 1.367 . S
C1295 C1297 1.433 . S
C1296 C1292 1.350 . S
C1296 C1293 1.463 . S
C1296 N1300 1.427 . S
C1297 H1287 0.929 . S
C1297 C1295 1.433 . S
C1297 N1300 1.384 . S
C1298 H1289 0.929 . S
C1298 C1290 1.378 . S
C1298 C1293 1.350 . S
C1299 H1286 0.929 . S
C1299 C1291 1.433 . S
C1299 N1301 1.384 . S
N1300 C1296 1.427 . S
N1300 C1297 1.384 . S
N1301 C1293 1.427 . S
N1301 C1299 1.384 . S
H1302 C1308 0.930 . S
H1303 C1312 0.930 . S
H1304 C1317 0.929 . S
H1305 C1315 0.929 . S
H1306 C1310 0.929 . S
H1307 C1316 0.929 . S
C1308 H1302 0.930 . S
C1308 C1309 1.367 . S
C1308 C1316 1.378 . S
C1309 C1308 1.367 . S
C1309 C1317 1.433 . S
C1310 H1306 0.929 . S
C1310 C1312 1.378 . S
C1310 C1314 1.350 . S
C1311 C1314 1.463 . S
C1311 C1316 1.350 . S
C1311 N1319 1.427 . S
C1312 H1303 0.930 . S
C1312 C1310 1.378 . S
C1312 C1313 1.367 . S
C1313 C1312 1.367 . S
C1313 C1315 1.433 . S
C1314 C1310 1.350 . S
C1314 C1311 1.463 . S
C1314 N1318 1.427 . S
C1315 H1305 0.929 . S
C1315 C1313 1.433 . S
C1315 N1318 1.384 . S
C1316 H1307 0.929 . S
C1316 C1308 1.378 . S
C1316 C1311 1.350 . S
C1317 H1304 0.929 . S
C1317 C1309 1.433 . S
C1317 N1319 1.384 . S
N1318 C1314 1.427 . S
N1318 C1315 1.384 . S
N1319 C1311 1.427 . S
N1319 C1317 1.384 . S
H1320 C1326 0.930 . S
H1321 C1330 0.930 . S
H1322 C1335 0.929 . S
H1323 C1333 0.929 . S
H1324 C1328 0.929 . S
H1325 C1334 0.929 . S
C1326 H1320 0.930 . S
C1326 C1327 1.367 . S
C1326 C1334 1.378 . S
C1327 C1326 1.367 . S
C1327 C1335 1.433 . S
C1328 H1324 0.929 . S
C1328 C1330 1.378 . S
C1328 C1332 1.350 . S
C1329 C1332 1.463 . S
C1329 C1334 1.350 . S
C1329 N1337 1.427 . S
C1330 H1321 0.930 . S
C1330 C1328 1.378 . S
C1330 C1331 1.367 . S
C1331 C1330 1.367 . S
C1331 C1333 1.433 . S
C1332 C1328 1.350 . S
C1332 C1329 1.463 . S
C1332 N1336 1.427 . S
C1333 H1323 0.929 . S
C1333 C1331 1.433 . S
C1333 N1336 1.384 . S
C1334 H1325 0.929 . S
C1334 C1326 1.378 . S
C1334 C1329 1.350 . S
C1335 H1322 0.929 . S
C1335 C1327 1.433 . S
C1335 N1337 1.384 . S
N1336 C1332 1.427 . S
N1336 C1333 1.384 . S
N1337 C1329 1.427 . S
N1337 C1335 1.384 . S
H1338 C1344 0.930 . S
H1339 C1348 0.930 . S
H1340 C1353 0.929 . S
H1341 C1351 0.929 . S
H1342 C1346 0.929 . S
H1343 C1352 0.929 . S
C1344 H1338 0.930 . S
C1344 C1345 1.367 . S
C1344 C1352 1.378 . S
C1345 C1344 1.367 . S
C1345 C1353 1.433 . S
C1346 H1342 0.929 . S
C1346 C1348 1.378 . S
C1346 C1350 1.350 . S
C1347 C1350 1.463 . S
C1347 C1352 1.350 . S
C1347 N1355 1.427 . S
C1348 H1339 0.930 . S
C1348 C1346 1.378 . S
C1348 C1349 1.367 . S
C1349 C1348 1.367 . S
C1349 C1351 1.433 . S
C1350 C1346 1.350 . S
C1350 C1347 1.463 . S
C1350 N1354 1.427 . S
C1351 H1341 0.929 . S
C1351 C1349 1.433 . S
C1351 N1354 1.384 . S
C1352 H1343 0.929 . S
C1352 C1344 1.378 . S
C1352 C1347 1.350 . S
C1353 H1340 0.929 . S
C1353 C1345 1.433 . S
C1353 N1355 1.384 . S
N1354 C1350 1.427 . S
N1354 C1351 1.384 . S
N1355 C1347 1.427 . S
N1355 C1353 1.384 . S
H1356 C1362 0.930 . S
H1357 C1366 0.930 . S
H1358 C1371 0.929 . S
H1359 C1369 0.929 . S
H1360 C1364 0.929 . S
H1361 C1370 0.929 . S
C1362 H1356 0.930 . S
C1362 C1363 1.367 . S
C1362 C1370 1.378 . S
C1363 C1362 1.367 . S
C1363 C1371 1.433 . S
C1364 H1360 0.929 . S
C1364 C1366 1.378 . S
C1364 C1368 1.350 . S
C1365 C1368 1.463 . S
C1365 C1370 1.350 . S
C1365 N1373 1.427 . S
C1366 H1357 0.930 . S
C1366 C1364 1.378 . S
C1366 C1367 1.367 . S
C1367 C1366 1.367 . S
C1367 C1369 1.433 . S
C1368 C1364 1.350 . S
C1368 C1365 1.463 . S
C1368 N1372 1.427 . S
C1369 H1359 0.929 . S
C1369 C1367 1.433 . S
C1369 N1372 1.384 . S
C1370 H1361 0.929 . S
C1370 C1362 1.378 . S
C1370 C1365 1.350 . S
C1371 H1358 0.929 . S
C1371 C1363 1.433 . S
C1371 N1373 1.384 . S
N1372 C1368 1.427 . S
N1372 C1369 1.384 . S
N1373 C1365 1.427 . S
N1373 C1371 1.384 . S
H1374 C1380 0.930 . S
H1375 C1384 0.930 . S
H1376 C1389 0.929 . S
H1377 C1387 0.929 . S
H1378 C1382 0.929 . S
H1379 C1388 0.929 . S
C1380 H1374 0.930 . S
C1380 C1381 1.367 . S
C1380 C1388 1.378 . S
C1381 C1380 1.367 . S
C1381 C1389 1.433 . S
C1382 H1378 0.929 . S
C1382 C1384 1.378 . S
C1382 C1386 1.350 . S
C1383 C1386 1.463 . S
C1383 C1388 1.350 . S
C1383 N1391 1.427 . S
C1384 H1375 0.930 . S
C1384 C1382 1.378 . S
C1384 C1385 1.367 . S
C1385 C1384 1.367 . S
C1385 C1387 1.433 . S
C1386 C1382 1.350 . S
C1386 C1383 1.463 . S
C1386 N1390 1.427 . S
C1387 H1377 0.929 . S
C1387 C1385 1.433 . S
C1387 N1390 1.384 . S
C1388 H1379 0.929 . S
C1388 C1380 1.378 . S
C1388 C1383 1.350 . S
C1389 H1376 0.929 . S
C1389 C1381 1.433 . S
C1389 N1391 1.384 . S
N1390 C1386 1.427 . S
N1390 C1387 1.384 . S
N1391 C1383 1.427 . S
N1391 C1389 1.384 . S
H1392 C1398 0.930 . S
H1393 C1402 0.930 . S
H1394 C1407 0.929 . S
H1395 C1405 0.929 . S
H1396 C1400 0.929 . S
H1397 C1406 0.929 . S
C1398 H1392 0.930 . S
C1398 C1399 1.367 . S
C1398 C1406 1.378 . S
C1399 C1398 1.367 . S
C1399 C1407 1.433 . S
C1400 H1396 0.929 . S
C1400 C1402 1.378 . S
C1400 C1404 1.350 . S
C1401 C1404 1.463 . S
C1401 C1406 1.350 . S
C1401 N1409 1.427 . S
C1402 H1393 0.930 . S
C1402 C1400 1.378 . S
C1402 C1403 1.367 . S
C1403 C1402 1.367 . S
C1403 C1405 1.433 . S
C1404 C1400 1.350 . S
C1404 C1401 1.463 . S
C1404 N1408 1.427 . S
C1405 H1395 0.929 . S
C1405 C1403 1.433 . S
C1405 N1408 1.384 . S
C1406 H1397 0.929 . S
C1406 C1398 1.378 . S
C1406 C1401 1.350 . S
C1407 H1394 0.929 . S
C1407 C1399 1.433 . S
C1407 N1409 1.384 . S
N1408 C1404 1.427 . S
N1408 C1405 1.384 . S
N1409 C1401 1.427 . S
N1409 C1407 1.384 . S
H1410 C1416 0.930 . S
H1411 C1420 0.930 . S
H1412 C1425 0.929 . S
H1413 C1423 0.929 . S
H1414 C1418 0.929 . S
H1415 C1424 0.929 . S
C1416 H1410 0.930 . S
C1416 C1417 1.367 . S
C1416 C1424 1.378 . S
C1417 C1416 1.367 . S
C1417 C1425 1.433 . S
C1418 H1414 0.929 . S
C1418 C1420 1.378 . S
C1418 C1422 1.350 . S
C1419 C1422 1.463 . S
C1419 C1424 1.350 . S
C1419 N1427 1.427 . S
C1420 H1411 0.930 . S
C1420 C1418 1.378 . S
C1420 C1421 1.367 . S
C1421 C1420 1.367 . S
C1421 C1423 1.433 . S
C1422 C1418 1.350 . S
C1422 C1419 1.463 . S
C1422 N1426 1.427 . S
C1423 H1413 0.929 . S
C1423 C1421 1.433 . S
C1423 N1426 1.384 . S
C1424 H1415 0.929 . S
C1424 C1416 1.378 . S
C1424 C1419 1.350 . S
C1425 H1412 0.929 . S
C1425 C1417 1.433 . S
C1425 N1427 1.384 . S
N1426 C1422 1.427 . S
N1426 C1423 1.384 . S
N1427 C1419 1.427 . S
N1427 C1425 1.384 . S
H1428 C1434 0.930 . S
H1429 C1438 0.930 . S
H1430 C1443 0.929 . S
H1431 C1441 0.929 . S
H1432 C1436 0.929 . S
H1433 C1442 0.929 . S
C1434 H1428 0.930 . S
C1434 C1435 1.367 . S
C1434 C1442 1.378 . S
C1435 C1434 1.367 . S
C1435 C1443 1.433 . S
C1436 H1432 0.929 . S
C1436 C1438 1.378 . S
C1436 C1440 1.350 . S
C1437 C1440 1.463 . S
C1437 C1442 1.350 . S
C1437 N1445 1.427 . S
C1438 H1429 0.930 . S
C1438 C1436 1.378 . S
C1438 C1439 1.367 . S
C1439 C1438 1.367 . S
C1439 C1441 1.433 . S
C1440 C1436 1.350 . S
C1440 C1437 1.463 . S
C1440 N1444 1.427 . S
C1441 H1431 0.929 . S
C1441 C1439 1.433 . S
C1441 N1444 1.384 . S
C1442 H1433 0.929 . S
C1442 C1434 1.378 . S
C1442 C1437 1.350 . S
C1443 H1430 0.929 . S
C1443 C1435 1.433 . S
C1443 N1445 1.384 . S
N1444 C1440 1.427 . S
N1444 C1441 1.384 . S
N1445 C1437 1.427 . S
N1445 C1443 1.384 . S
H1446 C1452 0.930 . S
H1447 C1456 0.930 . S
H1448 C1461 0.929 . S
H1449 C1459 0.929 . S
H1450 C1454 0.929 . S
H1451 C1460 0.929 . S
C1452 H1446 0.930 . S
C1452 C1453 1.367 . S
C1452 C1460 1.378 . S
C1453 C1452 1.367 . S
C1453 C1461 1.433 . S
C1454 H1450 0.929 . S
C1454 C1456 1.378 . S
C1454 C1458 1.350 . S
C1455 C1458 1.463 . S
C1455 C1460 1.350 . S
C1455 N1463 1.427 . S
C1456 H1447 0.930 . S
C1456 C1454 1.378 . S
C1456 C1457 1.367 . S
C1457 C1456 1.367 . S
C1457 C1459 1.433 . S
C1458 C1454 1.350 . S
C1458 C1455 1.463 . S
C1458 N1462 1.427 . S
C1459 H1449 0.929 . S
C1459 C1457 1.433 . S
C1459 N1462 1.384 . S
C1460 H1451 0.929 . S
C1460 C1452 1.378 . S
C1460 C1455 1.350 . S
C1461 H1448 0.929 . S
C1461 C1453 1.433 . S
C1461 N1463 1.384 . S
N1462 C1458 1.427 . S
N1462 C1459 1.384 . S
N1463 C1455 1.427 . S
N1463 C1461 1.384 . S
H1464 C1470 0.930 . S
H1465 C1474 0.930 . S
H1466 C1479 0.929 . S
H1467 C1477 0.929 . S
H1468 C1472 0.929 . S
H1469 C1478 0.929 . S
C1470 H1464 0.930 . S
C1470 C1471 1.367 . S
C1470 C1478 1.378 . S
C1471 C1470 1.367 . S
C1471 C1479 1.433 . S
C1472 H1468 0.929 . S
C1472 C1474 1.378 . S
C1472 C1476 1.350 . S
C1473 C1476 1.463 . S
C1473 C1478 1.350 . S
C1473 N1481 1.427 . S
C1474 H1465 0.930 . S
C1474 C1472 1.378 . S
C1474 C1475 1.367 . S
C1475 C1474 1.367 . S
C1475 C1477 1.433 . S
C1476 C1472 1.350 . S
C1476 C1473 1.463 . S
C1476 N1480 1.427 . S
C1477 H1467 0.929 . S
C1477 C1475 1.433 . S
C1477 N1480 1.384 . S
C1478 H1469 0.929 . S
C1478 C1470 1.378 . S
C1478 C1473 1.350 . S
C1479 H1466 0.929 . S
C1479 C1471 1.433 . S
C1479 N1481 1.384 . S
N1480 C1476 1.427 . S
N1480 C1477 1.384 . S
N1481 C1473 1.427 . S
N1481 C1479 1.384 . S
H1482 C1488 0.930 . S
H1483 C1492 0.930 . S
H1484 C1497 0.929 . S
H1485 C1495 0.929 . S
H1486 C1490 0.929 . S
H1487 C1496 0.929 . S
C1488 H1482 0.930 . S
C1488 C1489 1.367 . S
C1488 C1496 1.378 . S
C1489 C1488 1.367 . S
C1489 C1497 1.433 . S
C1490 H1486 0.929 . S
C1490 C1492 1.378 . S
C1490 C1494 1.350 . S
C1491 C1494 1.463 . S
C1491 C1496 1.350 . S
C1491 N1499 1.427 . S
C1492 H1483 0.930 . S
C1492 C1490 1.378 . S
C1492 C1493 1.367 . S
C1493 C1492 1.367 . S
C1493 C1495 1.433 . S
C1494 C1490 1.350 . S
C1494 C1491 1.463 . S
C1494 N1498 1.427 . S
C1495 H1485 0.929 . S
C1495 C1493 1.433 . S
C1495 N1498 1.384 . S
C1496 H1487 0.929 . S
C1496 C1488 1.378 . S
C1496 C1491 1.350 . S
C1497 H1484 0.929 . S
C1497 C1489 1.433 . S
C1497 N1499 1.384 . S
N1498 C1494 1.427 . S
N1498 C1495 1.384 . S
N1499 C1491 1.427 . S
N1499 C1497 1.384 . S
H1500 C1506 0.930 . S
H1501 C1510 0.930 . S
H1502 C1515 0.929 . S
H1503 C1513 0.929 . S
H1504 C1508 0.929 . S
H1505 C1514 0.929 . S
C1506 H1500 0.930 . S
C1506 C1507 1.367 . S
C1506 C1514 1.378 . S
C1507 C1506 1.367 . S
C1507 C1515 1.433 . S
C1508 H1504 0.929 . S
C1508 C1510 1.378 . S
C1508 C1512 1.350 . S
C1509 C1512 1.463 . S
C1509 C1514 1.350 . S
C1509 N1517 1.427 . S
C1510 H1501 0.930 . S
C1510 C1508 1.378 . S
C1510 C1511 1.367 . S
C1511 C1510 1.367 . S
C1511 C1513 1.433 . S
C1512 C1508 1.350 . S
C1512 C1509 1.463 . S
C1512 N1516 1.427 . S
C1513 H1503 0.929 . S
C1513 C1511 1.433 . S
C1513 N1516 1.384 . S
C1514 H1505 0.929 . S
C1514 C1506 1.378 . S
C1514 C1509 1.350 . S
C1515 H1502 0.929 . S
C1515 C1507 1.433 . S
C1515 N1517 1.384 . S
N1516 C1512 1.427 . S
N1516 C1513 1.384 . S
N1517 C1509 1.427 . S
N1517 C1515 1.384 . S
H1518 C1524 0.930 . S
H1519 C1528 0.930 . S
H1520 C1533 0.929 . S
H1521 C1531 0.929 . S
H1522 C1526 0.929 . S
H1523 C1532 0.929 . S
C1524 H1518 0.930 . S
C1524 C1525 1.367 . S
C1524 C1532 1.378 . S
C1525 C1524 1.367 . S
C1525 C1533 1.433 . S
C1526 H1522 0.929 . S
C1526 C1528 1.378 . S
C1526 C1530 1.350 . S
C1527 C1530 1.463 . S
C1527 C1532 1.350 . S
C1527 N1535 1.427 . S
C1528 H1519 0.930 . S
C1528 C1526 1.378 . S
C1528 C1529 1.367 . S
C1529 C1528 1.367 . S
C1529 C1531 1.433 . S
C1530 C1526 1.350 . S
C1530 C1527 1.463 . S
C1530 N1534 1.427 . S
C1531 H1521 0.929 . S
C1531 C1529 1.433 . S
C1531 N1534 1.384 . S
C1532 H1523 0.929 . S
C1532 C1524 1.378 . S
C1532 C1527 1.350 . S
C1533 H1520 0.929 . S
C1533 C1525 1.433 . S
C1533 N1535 1.384 . S
N1534 C1530 1.427 . S
N1534 C1531 1.384 . S
N1535 C1527 1.427 . S
N1535 C1533 1.384 . S
H1536 C1542 0.930 . S
H1537 C1546 0.930 . S
H1538 C1551 0.929 . S
H1539 C1549 0.929 . S
H1540 C1544 0.929 . S
H1541 C1550 0.929 . S
C1542 H1536 0.930 . S
C1542 C1543 1.367 . S
C1542 C1550 1.378 . S
C1543 C1542 1.367 . S
C1543 C1551 1.433 . S
C1544 H1540 0.929 . S
C1544 C1546 1.378 . S
C1544 C1548 1.350 . S
C1545 C1548 1.463 . S
C1545 C1550 1.350 . S
C1545 N1553 1.427 . S
C1546 H1537 0.930 . S
C1546 C1544 1.378 . S
C1546 C1547 1.367 . S
C1547 C1546 1.367 . S
C1547 C1549 1.433 . S
C1548 C1544 1.350 . S
C1548 C1545 1.463 . S
C1548 N1552 1.427 . S
C1549 H1539 0.929 . S
C1549 C1547 1.433 . S
C1549 N1552 1.384 . S
C1550 H1541 0.929 . S
C1550 C1542 1.378 . S
C1550 C1545 1.350 . S
C1551 H1538 0.929 . S
C1551 C1543 1.433 . S
C1551 N1553 1.384 . S
N1552 C1548 1.427 . S
N1552 C1549 1.384 . S
N1553 C1545 1.427 . S
N1553 C1551 1.384 . S
H1554 C1560 0.930 . S
H1555 C1564 0.930 . S
H1556 C1569 0.929 . S
H1557 C1567 0.929 . S
H1558 C1562 0.929 . S
H1559 C1568 0.929 . S
C1560 H1554 0.930 . S
C1560 C1561 1.367 . S
C1560 C1568 1.378 . S
C1561 C1560 1.367 . S
C1561 C1569 1.433 . S
C1562 H1558 0.929 . S
C1562 C1564 1.378 . S
C1562 C1566 1.350 . S
C1563 C1566 1.463 . S
C1563 C1568 1.350 . S
C1563 N1571 1.427 . S
C1564 H1555 0.930 . S
C1564 C1562 1.378 . S
C1564 C1565 1.367 . S
C1565 C1564 1.367 . S
C1565 C1567 1.433 . S
C1566 C1562 1.350 . S
C1566 C1563 1.463 . S
C1566 N1570 1.427 . S
C1567 H1557 0.929 . S
C1567 C1565 1.433 . S
C1567 N1570 1.384 . S
C1568 H1559 0.929 . S
C1568 C1560 1.378 . S
C1568 C1563 1.350 . S
C1569 H1556 0.929 . S
C1569 C1561 1.433 . S
C1569 N1571 1.384 . S
N1570 C1566 1.427 . S
N1570 C1567 1.384 . S
N1571 C1563 1.427 . S
N1571 C1569 1.384 . S
H1572 C1578 0.930 . S
H1573 C1582 0.930 . S
H1574 C1587 0.929 . S
H1575 C1585 0.929 . S
H1576 C1580 0.929 . S
H1577 C1586 0.929 . S
C1578 H1572 0.930 . S
C1578 C1579 1.367 . S
C1578 C1586 1.378 . S
C1579 C1578 1.367 . S
C1579 C1587 1.433 . S
C1580 H1576 0.929 . S
C1580 C1582 1.378 . S
C1580 C1584 1.350 . S
C1581 C1584 1.463 . S
C1581 C1586 1.350 . S
C1581 N1589 1.427 . S
C1582 H1573 0.930 . S
C1582 C1580 1.378 . S
C1582 C1583 1.367 . S
C1583 C1582 1.367 . S
C1583 C1585 1.433 . S
C1584 C1580 1.350 . S
C1584 C1581 1.463 . S
C1584 N1588 1.427 . S
C1585 H1575 0.929 . S
C1585 C1583 1.433 . S
C1585 N1588 1.384 . S
C1586 H1577 0.929 . S
C1586 C1578 1.378 . S
C1586 C1581 1.350 . S
C1587 H1574 0.929 . S
C1587 C1579 1.433 . S
C1587 N1589 1.384 . S
N1588 C1584 1.427 . S
N1588 C1585 1.384 . S
N1589 C1581 1.427 . S
N1589 C1587 1.384 . S
H1590 C1596 0.930 . S
H1591 C1600 0.930 . S
H1592 C1605 0.929 . S
H1593 C1603 0.929 . S
H1594 C1598 0.929 . S
H1595 C1604 0.929 . S
C1596 H1590 0.930 . S
C1596 C1597 1.367 . S
C1596 C1604 1.378 . S
C1597 C1596 1.367 . S
C1597 C1605 1.433 . S
C1598 H1594 0.929 . S
C1598 C1600 1.378 . S
C1598 C1602 1.350 . S
C1599 C1602 1.463 . S
C1599 C1604 1.350 . S
C1599 N1607 1.427 . S
C1600 H1591 0.930 . S
C1600 C1598 1.378 . S
C1600 C1601 1.367 . S
C1601 C1600 1.367 . S
C1601 C1603 1.433 . S
C1602 C1598 1.350 . S
C1602 C1599 1.463 . S
C1602 N1606 1.427 . S
C1603 H1593 0.929 . S
C1603 C1601 1.433 . S
C1603 N1606 1.384 . S
C1604 H1595 0.929 . S
C1604 C1596 1.378 . S
C1604 C1599 1.350 . S
C1605 H1592 0.929 . S
C1605 C1597 1.433 . S
C1605 N1607 1.384 . S
N1606 C1602 1.427 . S
N1606 C1603 1.384 . S
N1607 C1599 1.427 . S
N1607 C1605 1.384 . S
H1608 C1614 0.930 . S
H1609 C1618 0.930 . S
H1610 C1623 0.929 . S
H1611 C1621 0.929 . S
H1612 C1616 0.929 . S
H1613 C1622 0.929 . S
C1614 H1608 0.930 . S
C1614 C1615 1.367 . S
C1614 C1622 1.378 . S
C1615 C1614 1.367 . S
C1615 C1623 1.433 . S
C1616 H1612 0.929 . S
C1616 C1618 1.378 . S
C1616 C1620 1.350 . S
C1617 C1620 1.463 . S
C1617 C1622 1.350 . S
C1617 N1625 1.427 . S
C1618 H1609 0.930 . S
C1618 C1616 1.378 . S
C1618 C1619 1.367 . S
C1619 C1618 1.367 . S
C1619 C1621 1.433 . S
C1620 C1616 1.350 . S
C1620 C1617 1.463 . S
C1620 N1624 1.427 . S
C1621 H1611 0.929 . S
C1621 C1619 1.433 . S
C1621 N1624 1.384 . S
C1622 H1613 0.929 . S
C1622 C1614 1.378 . S
C1622 C1617 1.350 . S
C1623 H1610 0.929 . S
C1623 C1615 1.433 . S
C1623 N1625 1.384 . S
N1624 C1620 1.427 . S
N1624 C1621 1.384 . S
N1625 C1617 1.427 . S
N1625 C1623 1.384 . S
H1626 C1632 0.930 . S
H1627 C1636 0.930 . S
H1628 C1641 0.929 . S
H1629 C1639 0.929 . S
H1630 C1634 0.929 . S
H1631 C1640 0.929 . S
C1632 H1626 0.930 . S
C1632 C1633 1.367 . S
C1632 C1640 1.378 . S
C1633 C1632 1.367 . S
C1633 C1641 1.433 . S
C1634 H1630 0.929 . S
C1634 C1636 1.378 . S
C1634 C1638 1.350 . S
C1635 C1638 1.463 . S
C1635 C1640 1.350 . S
C1635 N1643 1.427 . S
C1636 H1627 0.930 . S
C1636 C1634 1.378 . S
C1636 C1637 1.367 . S
C1637 C1636 1.367 . S
C1637 C1639 1.433 . S
C1638 C1634 1.350 . S
C1638 C1635 1.463 . S
C1638 N1642 1.427 . S
C1639 H1629 0.929 . S
C1639 C1637 1.433 . S
C1639 N1642 1.384 . S
C1640 H1631 0.929 . S
C1640 C1632 1.378 . S
C1640 C1635 1.350 . S
C1641 H1628 0.929 . S
C1641 C1633 1.433 . S
C1641 N1643 1.384 . S
N1642 C1638 1.427 . S
N1642 C1639 1.384 . S
N1643 C1635 1.427 . S
N1643 C1641 1.384 . S
H1644 C1650 0.930 . S
H1645 C1654 0.930 . S
H1646 C1659 0.929 . S
H1647 C1657 0.929 . S
H1648 C1652 0.929 . S
H1649 C1658 0.929 . S
C1650 H1644 0.930 . S
C1650 C1651 1.367 . S
C1650 C1658 1.378 . S
C1651 C1650 1.367 . S
C1651 C1659 1.433 . S
C1652 H1648 0.929 . S
C1652 C1654 1.378 . S
C1652 C1656 1.350 . S
C1653 C1656 1.463 . S
C1653 C1658 1.350 . S
C1653 N1661 1.427 . S
C1654 H1645 0.930 . S
C1654 C1652 1.378 . S
C1654 C1655 1.367 . S
C1655 C1654 1.367 . S
C1655 C1657 1.433 . S
C1656 C1652 1.350 . S
C1656 C1653 1.463 . S
C1656 N1660 1.427 . S
C1657 H1647 0.929 . S
C1657 C1655 1.433 . S
C1657 N1660 1.384 . S
C1658 H1649 0.929 . S
C1658 C1650 1.378 . S
C1658 C1653 1.350 . S
C1659 H1646 0.929 . S
C1659 C1651 1.433 . S
C1659 N1661 1.384 . S
N1660 C1656 1.427 . S
N1660 C1657 1.384 . S
N1661 C1653 1.427 . S
N1661 C1659 1.384 . S
H1662 C1668 0.930 . S
H1663 C1672 0.930 . S
H1664 C1677 0.929 . S
H1665 C1675 0.929 . S
H1666 C1670 0.929 . S
H1667 C1676 0.929 . S
C1668 H1662 0.930 . S
C1668 C1669 1.367 . S
C1668 C1676 1.378 . S
C1669 C1668 1.367 . S
C1669 C1677 1.433 . S
C1670 H1666 0.929 . S
C1670 C1672 1.378 . S
C1670 C1674 1.350 . S
C1671 C1674 1.463 . S
C1671 C1676 1.350 . S
C1671 N1679 1.427 . S
C1672 H1663 0.930 . S
C1672 C1670 1.378 . S
C1672 C1673 1.367 . S
C1673 C1672 1.367 . S
C1673 C1675 1.433 . S
C1674 C1670 1.350 . S
C1674 C1671 1.463 . S
C1674 N1678 1.427 . S
C1675 H1665 0.929 . S
C1675 C1673 1.433 . S
C1675 N1678 1.384 . S
C1676 H1667 0.929 . S
C1676 C1668 1.378 . S
C1676 C1671 1.350 . S
C1677 H1664 0.929 . S
C1677 C1669 1.433 . S
C1677 N1679 1.384 . S
N1678 C1674 1.427 . S
N1678 C1675 1.384 . S
N1679 C1671 1.427 . S
N1679 C1677 1.384 . S
H1680 C1686 0.930 . S
H1681 C1690 0.930 . S
H1682 C1695 0.929 . S
H1683 C1693 0.929 . S
H1684 C1688 0.929 . S
H1685 C1694 0.929 . S
C1686 H1680 0.930 . S
C1686 C1687 1.367 . S
C1686 C1694 1.378 . S
C1687 C1686 1.367 . S
C1687 C1695 1.433 . S
C1688 H1684 0.929 . S
C1688 C1690 1.378 . S
C1688 C1692 1.350 . S
C1689 C1692 1.463 . S
C1689 C1694 1.350 . S
C1689 N1697 1.427 . S
C1690 H1681 0.930 . S
C1690 C1688 1.378 . S
C1690 C1691 1.367 . S
C1691 C1690 1.367 . S
C1691 C1693 1.433 . S
C1692 C1688 1.350 . S
C1692 C1689 1.463 . S
C1692 N1696 1.427 . S
C1693 H1683 0.929 . S
C1693 C1691 1.433 . S
C1693 N1696 1.384 . S
C1694 H1685 0.929 . S
C1694 C1686 1.378 . S
C1694 C1689 1.350 . S
C1695 H1682 0.929 . S
C1695 C1687 1.433 . S
C1695 N1697 1.384 . S
N1696 C1692 1.427 . S
N1696 C1693 1.384 . S
N1697 C1689 1.427 . S
N1697 C1695 1.384 . S
H1698 C1704 0.930 . S
H1699 C1708 0.930 . S
H1700 C1713 0.929 . S
H1701 C1711 0.929 . S
H1702 C1706 0.929 . S
H1703 C1712 0.929 . S
C1704 H1698 0.930 . S
C1704 C1705 1.367 . S
C1704 C1712 1.378 . S
C1705 C1704 1.367 . S
C1705 C1713 1.433 . S
C1706 H1702 0.929 . S
C1706 C1708 1.378 . S
C1706 C1710 1.350 . S
C1707 C1710 1.463 . S
C1707 C1712 1.350 . S
C1707 N1715 1.427 . S
C1708 H1699 0.930 . S
C1708 C1706 1.378 . S
C1708 C1709 1.367 . S
C1709 C1708 1.367 . S
C1709 C1711 1.433 . S
C1710 C1706 1.350 . S
C1710 C1707 1.463 . S
C1710 N1714 1.427 . S
C1711 H1701 0.929 . S
C1711 C1709 1.433 . S
C1711 N1714 1.384 . S
C1712 H1703 0.929 . S
C1712 C1704 1.378 . S
C1712 C1707 1.350 . S
C1713 H1700 0.929 . S
C1713 C1705 1.433 . S
C1713 N1715 1.384 . S
N1714 C1710 1.427 . S
N1714 C1711 1.384 . S
N1715 C1707 1.427 . S
N1715 C1713 1.384 . S
H1716 C1722 0.930 . S
H1717 C1726 0.930 . S
H1718 C1731 0.929 . S
H1719 C1729 0.929 . S
H1720 C1724 0.929 . S
H1721 C1730 0.929 . S
C1722 H1716 0.930 . S
C1722 C1723 1.367 . S
C1722 C1730 1.378 . S
C1723 C1722 1.367 . S
C1723 C1731 1.433 . S
C1724 H1720 0.929 . S
C1724 C1726 1.378 . S
C1724 C1728 1.350 . S
C1725 C1728 1.463 . S
C1725 C1730 1.350 . S
C1725 N1733 1.427 . S
C1726 H1717 0.930 . S
C1726 C1724 1.378 . S
C1726 C1727 1.367 . S
C1727 C1726 1.367 . S
C1727 C1729 1.433 . S
C1728 C1724 1.350 . S
C1728 C1725 1.463 . S
C1728 N1732 1.427 . S
C1729 H1719 0.929 . S
C1729 C1727 1.433 . S
C1729 N1732 1.384 . S
C1730 H1721 0.929 . S
C1730 C1722 1.378 . S
C1730 C1725 1.350 . S
C1731 H1718 0.929 . S
C1731 C1723 1.433 . S
C1731 N1733 1.384 . S
N1732 C1728 1.427 . S
N1732 C1729 1.384 . S
N1733 C1725 1.427 . S
N1733 C1731 1.384 . S
H1734 C1740 0.930 . S
H1735 C1744 0.930 . S
H1736 C1749 0.929 . S
H1737 C1747 0.929 . S
H1738 C1742 0.929 . S
H1739 C1748 0.929 . S
C1740 H1734 0.930 . S
C1740 C1741 1.367 . S
C1740 C1748 1.378 . S
C1741 C1740 1.367 . S
C1741 C1749 1.433 . S
C1742 H1738 0.929 . S
C1742 C1744 1.378 . S
C1742 C1746 1.350 . S
C1743 C1746 1.463 . S
C1743 C1748 1.350 . S
C1743 N1751 1.427 . S
C1744 H1735 0.930 . S
C1744 C1742 1.378 . S
C1744 C1745 1.367 . S
C1745 C1744 1.367 . S
C1745 C1747 1.433 . S
C1746 C1742 1.350 . S
C1746 C1743 1.463 . S
C1746 N1750 1.427 . S
C1747 H1737 0.929 . S
C1747 C1745 1.433 . S
C1747 N1750 1.384 . S
C1748 H1739 0.929 . S
C1748 C1740 1.378 . S
C1748 C1743 1.350 . S
C1749 H1736 0.929 . S
C1749 C1741 1.433 . S
C1749 N1751 1.384 . S
N1750 C1746 1.427 . S
N1750 C1747 1.384 . S
N1751 C1743 1.427 . S
N1751 C1749 1.384 . S
H1752 C1758 0.930 . S
H1753 C1762 0.930 . S
H1754 C1767 0.929 . S
H1755 C1765 0.929 . S
H1756 C1760 0.929 . S
H1757 C1766 0.929 . S
C1758 H1752 0.930 . S
C1758 C1759 1.367 . S
C1758 C1766 1.378 . S
C1759 C1758 1.367 . S
C1759 C1767 1.433 . S
C1760 H1756 0.929 . S
C1760 C1762 1.378 . S
C1760 C1764 1.350 . S
C1761 C1764 1.463 . S
C1761 C1766 1.350 . S
C1761 N1769 1.427 . S
C1762 H1753 0.930 . S
C1762 C1760 1.378 . S
C1762 C1763 1.367 . S
C1763 C1762 1.367 . S
C1763 C1765 1.433 . S
C1764 C1760 1.350 . S
C1764 C1761 1.463 . S
C1764 N1768 1.427 . S
C1765 H1755 0.929 . S
C1765 C1763 1.433 . S
C1765 N1768 1.384 . S
C1766 H1757 0.929 . S
C1766 C1758 1.378 . S
C1766 C1761 1.350 . S
C1767 H1754 0.929 . S
C1767 C1759 1.433 . S
C1767 N1769 1.384 . S
N1768 C1764 1.427 . S
N1768 C1765 1.384 . S
N1769 C1761 1.427 . S
N1769 C1767 1.384 . S
H1770 C1776 0.930 . S
H1771 C1780 0.930 . S
H1772 C1785 0.929 . S
H1773 C1783 0.929 . S
H1774 C1778 0.929 . S
H1775 C1784 0.929 . S
C1776 H1770 0.930 . S
C1776 C1777 1.367 . S
C1776 C1784 1.378 . S
C1777 C1776 1.367 . S
C1777 C1785 1.433 . S
C1778 H1774 0.929 . S
C1778 C1780 1.378 . S
C1778 C1782 1.350 . S
C1779 C1782 1.463 . S
C1779 C1784 1.350 . S
C1779 N1787 1.427 . S
C1780 H1771 0.930 . S
C1780 C1778 1.378 . S
C1780 C1781 1.367 . S
C1781 C1780 1.367 . S
C1781 C1783 1.433 . S
C1782 C1778 1.350 . S
C1782 C1779 1.463 . S
C1782 N1786 1.427 . S
C1783 H1773 0.929 . S
C1783 C1781 1.433 . S
C1783 N1786 1.384 . S
C1784 H1775 0.929 . S
C1784 C1776 1.378 . S
C1784 C1779 1.350 . S
C1785 H1772 0.929 . S
C1785 C1777 1.433 . S
C1785 N1787 1.384 . S
N1786 C1782 1.427 . S
N1786 C1783 1.384 . S
N1787 C1779 1.427 . S
N1787 C1785 1.384 . S
H1788 C1794 0.930 . S
H1789 C1798 0.930 . S
H1790 C1803 0.929 . S
H1791 C1801 0.929 . S
H1792 C1796 0.929 . S
H1793 C1802 0.929 . S
C1794 H1788 0.930 . S
C1794 C1795 1.367 . S
C1794 C1802 1.378 . S
C1795 C1794 1.367 . S
C1795 C1803 1.433 . S
C1796 H1792 0.929 . S
C1796 C1798 1.378 . S
C1796 C1800 1.350 . S
C1797 C1800 1.463 . S
C1797 C1802 1.350 . S
C1797 N1805 1.427 . S
C1798 H1789 0.930 . S
C1798 C1796 1.378 . S
C1798 C1799 1.367 . S
C1799 C1798 1.367 . S
C1799 C1801 1.433 . S
C1800 C1796 1.350 . S
C1800 C1797 1.463 . S
C1800 N1804 1.427 . S
C1801 H1791 0.929 . S
C1801 C1799 1.433 . S
C1801 N1804 1.384 . S
C1802 H1793 0.929 . S
C1802 C1794 1.378 . S
C1802 C1797 1.350 . S
C1803 H1790 0.929 . S
C1803 C1795 1.433 . S
C1803 N1805 1.384 . S
N1804 C1800 1.427 . S
N1804 C1801 1.384 . S
N1805 C1797 1.427 . S
N1805 C1803 1.384 . S
H1806 C1812 0.930 . S
H1807 C1816 0.930 . S
H1808 C1821 0.929 . S
H1809 C1819 0.929 . S
H1810 C1814 0.929 . S
H1811 C1820 0.929 . S
C1812 H1806 0.930 . S
C1812 C1813 1.367 . S
C1812 C1820 1.378 . S
C1813 C1812 1.367 . S
C1813 C1821 1.433 . S
C1814 H1810 0.929 . S
C1814 C1816 1.378 . S
C1814 C1818 1.350 . S
C1815 C1818 1.463 . S
C1815 C1820 1.350 . S
C1815 N1823 1.427 . S
C1816 H1807 0.930 . S
C1816 C1814 1.378 . S
C1816 C1817 1.367 . S
C1817 C1816 1.367 . S
C1817 C1819 1.433 . S
C1818 C1814 1.350 . S
C1818 C1815 1.463 . S
C1818 N1822 1.427 . S
C1819 H1809 0.929 . S
C1819 C1817 1.433 . S
C1819 N1822 1.384 . S
C1820 H1811 0.929 . S
C1820 C1812 1.378 . S
C1820 C1815 1.350 . S
C1821 H1808 0.929 . S
C1821 C1813 1.433 . S
C1821 N1823 1.384 . S
N1822 C1818 1.427 . S
N1822 C1819 1.384 . S
N1823 C1815 1.427 . S
N1823 C1821 1.384 . S
H1824 C1830 0.930 . S
H1825 C1834 0.930 . S
H1826 C1839 0.929 . S
H1827 C1837 0.929 . S
H1828 C1832 0.929 . S
H1829 C1838 0.929 . S
C1830 H1824 0.930 . S
C1830 C1831 1.367 . S
C1830 C1838 1.378 . S
C1831 C1830 1.367 . S
C1831 C1839 1.433 . S
C1832 H1828 0.929 . S
C1832 C1834 1.378 . S
C1832 C1836 1.350 . S
C1833 C1836 1.463 . S
C1833 C1838 1.350 . S
C1833 N1841 1.427 . S
C1834 H1825 0.930 . S
C1834 C1832 1.378 . S
C1834 C1835 1.367 . S
C1835 C1834 1.367 . S
C1835 C1837 1.433 . S
C1836 C1832 1.350 . S
C1836 C1833 1.463 . S
C1836 N1840 1.427 . S
C1837 H1827 0.929 . S
C1837 C1835 1.433 . S
C1837 N1840 1.384 . S
C1838 H1829 0.929 . S
C1838 C1830 1.378 . S
C1838 C1833 1.350 . S
C1839 H1826 0.929 . S
C1839 C1831 1.433 . S
C1839 N1841 1.384 . S
N1840 C1836 1.427 . S
N1840 C1837 1.384 . S
N1841 C1833 1.427 . S
N1841 C1839 1.384 . S
H1842 C1848 0.930 . S
H1843 C1852 0.930 . S
H1844 C1857 0.929 . S
H1845 C1855 0.929 . S
H1846 C1850 0.929 . S
H1847 C1856 0.929 . S
C1848 H1842 0.930 . S
C1848 C1849 1.367 . S
C1848 C1856 1.378 . S
C1849 C1848 1.367 . S
C1849 C1857 1.433 . S
C1850 H1846 0.929 . S
C1850 C1852 1.378 . S
C1850 C1854 1.350 . S
C1851 C1854 1.463 . S
C1851 C1856 1.350 . S
C1851 N1859 1.427 . S
C1852 H1843 0.930 . S
C1852 C1850 1.378 . S
C1852 C1853 1.367 . S
C1853 C1852 1.367 . S
C1853 C1855 1.433 . S
C1854 C1850 1.350 . S
C1854 C1851 1.463 . S
C1854 N1858 1.427 . S
C1855 H1845 0.929 . S
C1855 C1853 1.433 . S
C1855 N1858 1.384 . S
C1856 H1847 0.929 . S
C1856 C1848 1.378 . S
C1856 C1851 1.350 . S
C1857 H1844 0.929 . S
C1857 C1849 1.433 . S
C1857 N1859 1.384 . S
N1858 C1854 1.427 . S
N1858 C1855 1.384 . S
N1859 C1851 1.427 . S
N1859 C1857 1.384 . S
H1860 C1866 0.930 . S
H1861 C1870 0.930 . S
H1862 C1875 0.929 . S
H1863 C1873 0.929 . S
H1864 C1868 0.929 . S
H1865 C1874 0.929 . S
C1866 H1860 0.930 . S
C1866 C1867 1.367 . S
C1866 C1874 1.378 . S
C1867 C1866 1.367 . S
C1867 C1875 1.433 . S
C1868 H1864 0.929 . S
C1868 C1870 1.378 . S
C1868 C1872 1.350 . S
C1869 C1872 1.463 . S
C1869 C1874 1.350 . S
C1869 N1877 1.427 . S
C1870 H1861 0.930 . S
C1870 C1868 1.378 . S
C1870 C1871 1.367 . S
C1871 C1870 1.367 . S
C1871 C1873 1.433 . S
C1872 C1868 1.350 . S
C1872 C1869 1.463 . S
C1872 N1876 1.427 . S
C1873 H1863 0.929 . S
C1873 C1871 1.433 . S
C1873 N1876 1.384 . S
C1874 H1865 0.929 . S
C1874 C1866 1.378 . S
C1874 C1869 1.350 . S
C1875 H1862 0.929 . S
C1875 C1867 1.433 . S
C1875 N1877 1.384 . S
N1876 C1872 1.427 . S
N1876 C1873 1.384 . S
N1877 C1869 1.427 . S
N1877 C1875 1.384 . S
H1878 C1884 0.930 . S
H1879 C1888 0.930 . S
H1880 C1893 0.929 . S
H1881 C1891 0.929 . S
H1882 C1886 0.929 . S
H1883 C1892 0.929 . S
C1884 H1878 0.930 . S
C1884 C1885 1.367 . S
C1884 C1892 1.378 . S
C1885 C1884 1.367 . S
C1885 C1893 1.433 . S
C1886 H1882 0.929 . S
C1886 C1888 1.378 . S
C1886 C1890 1.350 . S
C1887 C1890 1.463 . S
C1887 C1892 1.350 . S
C1887 N1895 1.427 . S
C1888 H1879 0.930 . S
C1888 C1886 1.378 . S
C1888 C1889 1.367 . S
C1889 C1888 1.367 . S
C1889 C1891 1.433 . S
C1890 C1886 1.350 . S
C1890 C1887 1.463 . S
C1890 N1894 1.427 . S
C1891 H1881 0.929 . S
C1891 C1889 1.433 . S
C1891 N1894 1.384 . S
C1892 H1883 0.929 . S
C1892 C1884 1.378 . S
C1892 C1887 1.350 . S
C1893 H1880 0.929 . S
C1893 C1885 1.433 . S
C1893 N1895 1.384 . S
N1894 C1890 1.427 . S
N1894 C1891 1.384 . S
N1895 C1887 1.427 . S
N1895 C1893 1.384 . S
H1896 C1902 0.930 . S
H1897 C1906 0.930 . S
H1898 C1911 0.929 . S
H1899 C1909 0.929 . S
H1900 C1904 0.929 . S
H1901 C1910 0.929 . S
C1902 H1896 0.930 . S
C1902 C1903 1.367 . S
C1902 C1910 1.378 . S
C1903 C1902 1.367 . S
C1903 C1911 1.433 . S
C1904 H1900 0.929 . S
C1904 C1906 1.378 . S
C1904 C1908 1.350 . S
C1905 C1908 1.463 . S
C1905 C1910 1.350 . S
C1905 N1913 1.427 . S
C1906 H1897 0.930 . S
C1906 C1904 1.378 . S
C1906 C1907 1.367 . S
C1907 C1906 1.367 . S
C1907 C1909 1.433 . S
C1908 C1904 1.350 . S
C1908 C1905 1.463 . S
C1908 N1912 1.427 . S
C1909 H1899 0.929 . S
C1909 C1907 1.433 . S
C1909 N1912 1.384 . S
C1910 H1901 0.929 . S
C1910 C1902 1.378 . S
C1910 C1905 1.350 . S
C1911 H1898 0.929 . S
C1911 C1903 1.433 . S
C1911 N1913 1.384 . S
N1912 C1908 1.427 . S
N1912 C1909 1.384 . S
N1913 C1905 1.427 . S
N1913 C1911 1.384 . S
H1914 C1920 0.930 . S
H1915 C1924 0.930 . S
H1916 C1929 0.929 . S
H1917 C1927 0.929 . S
H1918 C1922 0.929 . S
H1919 C1928 0.929 . S
C1920 H1914 0.930 . S
C1920 C1921 1.367 . S
C1920 C1928 1.378 . S
C1921 C1920 1.367 . S
C1921 C1929 1.433 . S
C1922 H1918 0.929 . S
C1922 C1924 1.378 . S
C1922 C1926 1.350 . S
C1923 C1926 1.463 . S
C1923 C1928 1.350 . S
C1923 N1931 1.427 . S
C1924 H1915 0.930 . S
C1924 C1922 1.378 . S
C1924 C1925 1.367 . S
C1925 C1924 1.367 . S
C1925 C1927 1.433 . S
C1926 C1922 1.350 . S
C1926 C1923 1.463 . S
C1926 N1930 1.427 . S
C1927 H1917 0.929 . S
C1927 C1925 1.433 . S
C1927 N1930 1.384 . S
C1928 H1919 0.929 . S
C1928 C1920 1.378 . S
C1928 C1923 1.350 . S
C1929 H1916 0.929 . S
C1929 C1921 1.433 . S
C1929 N1931 1.384 . S
N1930 C1926 1.427 . S
N1930 C1927 1.384 . S
N1931 C1923 1.427 . S
N1931 C1929 1.384 . S
H1932 C1938 0.930 . S
H1933 C1942 0.930 . S
H1934 C1947 0.929 . S
H1935 C1945 0.929 . S
H1936 C1940 0.929 . S
H1937 C1946 0.929 . S
C1938 H1932 0.930 . S
C1938 C1939 1.367 . S
C1938 C1946 1.378 . S
C1939 C1938 1.367 . S
C1939 C1947 1.433 . S
C1940 H1936 0.929 . S
C1940 C1942 1.378 . S
C1940 C1944 1.350 . S
C1941 C1944 1.463 . S
C1941 C1946 1.350 . S
C1941 N1949 1.427 . S
C1942 H1933 0.930 . S
C1942 C1940 1.378 . S
C1942 C1943 1.367 . S
C1943 C1942 1.367 . S
C1943 C1945 1.433 . S
C1944 C1940 1.350 . S
C1944 C1941 1.463 . S
C1944 N1948 1.427 . S
C1945 H1935 0.929 . S
C1945 C1943 1.433 . S
C1945 N1948 1.384 . S
C1946 H1937 0.929 . S
C1946 C1938 1.378 . S
C1946 C1941 1.350 . S
C1947 H1934 0.929 . S
C1947 C1939 1.433 . S
C1947 N1949 1.384 . S
N1948 C1944 1.427 . S
N1948 C1945 1.384 . S
N1949 C1941 1.427 . S
N1949 C1947 1.384 . S
H1950 C1956 0.930 . S
H1951 C1960 0.930 . S
H1952 C1965 0.929 . S
H1953 C1963 0.929 . S
H1954 C1958 0.929 . S
H1955 C1964 0.929 . S
C1956 H1950 0.930 . S
C1956 C1957 1.367 . S
C1956 C1964 1.378 . S
C1957 C1956 1.367 . S
C1957 C1965 1.433 . S
C1958 H1954 0.929 . S
C1958 C1960 1.378 . S
C1958 C1962 1.350 . S
C1959 C1962 1.463 . S
C1959 C1964 1.350 . S
C1959 N1967 1.427 . S
C1960 H1951 0.930 . S
C1960 C1958 1.378 . S
C1960 C1961 1.367 . S
C1961 C1960 1.367 . S
C1961 C1963 1.433 . S
C1962 C1958 1.350 . S
C1962 C1959 1.463 . S
C1962 N1966 1.427 . S
C1963 H1953 0.929 . S
C1963 C1961 1.433 . S
C1963 N1966 1.384 . S
C1964 H1955 0.929 . S
C1964 C1956 1.378 . S
C1964 C1959 1.350 . S
C1965 H1952 0.929 . S
C1965 C1957 1.433 . S
C1965 N1967 1.384 . S
N1966 C1962 1.427 . S
N1966 C1963 1.384 . S
N1967 C1959 1.427 . S
N1967 C1965 1.384 . S
H1968 C1974 0.930 . S
H1969 C1978 0.930 . S
H1970 C1983 0.929 . S
H1971 C1981 0.929 . S
H1972 C1976 0.929 . S
H1973 C1982 0.929 . S
C1974 H1968 0.930 . S
C1974 C1975 1.367 . S
C1974 C1982 1.378 . S
C1975 C1974 1.367 . S
C1975 C1983 1.433 . S
C1976 H1972 0.929 . S
C1976 C1978 1.378 . S
C1976 C1980 1.350 . S
C1977 C1980 1.463 . S
C1977 C1982 1.350 . S
C1977 N1985 1.427 . S
C1978 H1969 0.930 . S
C1978 C1976 1.378 . S
C1978 C1979 1.367 . S
C1979 C1978 1.367 . S
C1979 C1981 1.433 . S
C1980 C1976 1.350 . S
C1980 C1977 1.463 . S
C1980 N1984 1.427 . S
C1981 H1971 0.929 . S
C1981 C1979 1.433 . S
C1981 N1984 1.384 . S
C1982 H1973 0.929 . S
C1982 C1974 1.378 . S
C1982 C1977 1.350 . S
C1983 H1970 0.929 . S
C1983 C1975 1.433 . S
C1983 N1985 1.384 . S
N1984 C1980 1.427 . S
N1984 C1981 1.384 . S
N1985 C1977 1.427 . S
N1985 C1983 1.384 . S
H1986 C1992 0.930 . S
H1987 C1996 0.930 . S
H1988 C2001 0.929 . S
H1989 C1999 0.929 . S
H1990 C1994 0.929 . S
H1991 C2000 0.929 . S
C1992 H1986 0.930 . S
C1992 C1993 1.367 . S
C1992 C2000 1.378 . S
C1993 C1992 1.367 . S
C1993 C2001 1.433 . S
C1994 H1990 0.929 . S
C1994 C1996 1.378 . S
C1994 C1998 1.350 . S
C1995 C1998 1.463 . S
C1995 C2000 1.350 . S
C1995 N2003 1.427 . S
C1996 H1987 0.930 . S
C1996 C1994 1.378 . S
C1996 C1997 1.367 . S
C1997 C1996 1.367 . S
C1997 C1999 1.433 . S
C1998 C1994 1.350 . S
C1998 C1995 1.463 . S
C1998 N2002 1.427 . S
C1999 H1989 0.929 . S
C1999 C1997 1.433 . S
C1999 N2002 1.384 . S
C2000 H1991 0.929 . S
C2000 C1992 1.378 . S
C2000 C1995 1.350 . S
C2001 H1988 0.929 . S
C2001 C1993 1.433 . S
C2001 N2003 1.384 . S
N2002 C1998 1.427 . S
N2002 C1999 1.384 . S
N2003 C1995 1.427 . S
N2003 C2001 1.384 . S
H2004 C2010 0.930 . S
H2005 C2014 0.930 . S
H2006 C2019 0.929 . S
H2007 C2017 0.929 . S
H2008 C2012 0.929 . S
H2009 C2018 0.929 . S
C2010 H2004 0.930 . S
C2010 C2011 1.367 . S
C2010 C2018 1.378 . S
C2011 C2010 1.367 . S
C2011 C2019 1.433 . S
C2012 H2008 0.929 . S
C2012 C2014 1.378 . S
C2012 C2016 1.350 . S
C2013 C2016 1.463 . S
C2013 C2018 1.350 . S
C2013 N2021 1.427 . S
C2014 H2005 0.930 . S
C2014 C2012 1.378 . S
C2014 C2015 1.367 . S
C2015 C2014 1.367 . S
C2015 C2017 1.433 . S
C2016 C2012 1.350 . S
C2016 C2013 1.463 . S
C2016 N2020 1.427 . S
C2017 H2007 0.929 . S
C2017 C2015 1.433 . S
C2017 N2020 1.384 . S
C2018 H2009 0.929 . S
C2018 C2010 1.378 . S
C2018 C2013 1.350 . S
C2019 H2006 0.929 . S
C2019 C2011 1.433 . S
C2019 N2021 1.384 . S
N2020 C2016 1.427 . S
N2020 C2017 1.384 . S
N2021 C2013 1.427 . S
N2021 C2019 1.384 . S
H2022 C2028 0.930 . S
H2023 C2032 0.930 . S
H2024 C2037 0.929 . S
H2025 C2035 0.929 . S
H2026 C2030 0.929 . S
H2027 C2036 0.929 . S
C2028 H2022 0.930 . S
C2028 C2029 1.367 . S
C2028 C2036 1.378 . S
C2029 C2028 1.367 . S
C2029 C2037 1.433 . S
C2030 H2026 0.929 . S
C2030 C2032 1.378 . S
C2030 C2034 1.350 . S
C2031 C2034 1.463 . S
C2031 C2036 1.350 . S
C2031 N2039 1.427 . S
C2032 H2023 0.930 . S
C2032 C2030 1.378 . S
C2032 C2033 1.367 . S
C2033 C2032 1.367 . S
C2033 C2035 1.433 . S
C2034 C2030 1.350 . S
C2034 C2031 1.463 . S
C2034 N2038 1.427 . S
C2035 H2025 0.929 . S
C2035 C2033 1.433 . S
C2035 N2038 1.384 . S
C2036 H2027 0.929 . S
C2036 C2028 1.378 . S
C2036 C2031 1.350 . S
C2037 H2024 0.929 . S
C2037 C2029 1.433 . S
C2037 N2039 1.384 . S
N2038 C2034 1.427 . S
N2038 C2035 1.384 . S
N2039 C2031 1.427 . S
N2039 C2037 1.384 . S
H2040 C2046 0.930 . S
H2041 C2050 0.930 . S
H2042 C2055 0.929 . S
H2043 C2053 0.929 . S
H2044 C2048 0.929 . S
H2045 C2054 0.929 . S
C2046 H2040 0.930 . S
C2046 C2047 1.367 . S
C2046 C2054 1.378 . S
C2047 C2046 1.367 . S
C2047 C2055 1.433 . S
C2048 H2044 0.929 . S
C2048 C2050 1.378 . S
C2048 C2052 1.350 . S
C2049 C2052 1.463 . S
C2049 C2054 1.350 . S
C2049 N2057 1.427 . S
C2050 H2041 0.930 . S
C2050 C2048 1.378 . S
C2050 C2051 1.367 . S
C2051 C2050 1.367 . S
C2051 C2053 1.433 . S
C2052 C2048 1.350 . S
C2052 C2049 1.463 . S
C2052 N2056 1.427 . S
C2053 H2043 0.929 . S
C2053 C2051 1.433 . S
C2053 N2056 1.384 . S
C2054 H2045 0.929 . S
C2054 C2046 1.378 . S
C2054 C2049 1.350 . S
C2055 H2042 0.929 . S
C2055 C2047 1.433 . S
C2055 N2057 1.384 . S
N2056 C2052 1.427 . S
N2056 C2053 1.384 . S
N2057 C2049 1.427 . S
N2057 C2055 1.384 . S
H2058 C2064 0.930 . S
H2059 C2068 0.930 . S
H2060 C2073 0.929 . S
H2061 C2071 0.929 . S
H2062 C2066 0.929 . S
H2063 C2072 0.929 . S
C2064 H2058 0.930 . S
C2064 C2065 1.367 . S
C2064 C2072 1.378 . S
C2065 C2064 1.367 . S
C2065 C2073 1.433 . S
C2066 H2062 0.929 . S
C2066 C2068 1.378 . S
C2066 C2070 1.350 . S
C2067 C2070 1.463 . S
C2067 C2072 1.350 . S
C2067 N2075 1.427 . S
C2068 H2059 0.930 . S
C2068 C2066 1.378 . S
C2068 C2069 1.367 . S
C2069 C2068 1.367 . S
C2069 C2071 1.433 . S
C2070 C2066 1.350 . S
C2070 C2067 1.463 . S
C2070 N2074 1.427 . S
C2071 H2061 0.929 . S
C2071 C2069 1.433 . S
C2071 N2074 1.384 . S
C2072 H2063 0.929 . S
C2072 C2064 1.378 . S
C2072 C2067 1.350 . S
C2073 H2060 0.929 . S
C2073 C2065 1.433 . S
C2073 N2075 1.384 . S
N2074 C2070 1.427 . S
N2074 C2071 1.384 . S
N2075 C2067 1.427 . S
N2075 C2073 1.384 . S
H2076 C2082 0.930 . S
H2077 C2086 0.930 . S
H2078 C2091 0.929 . S
H2079 C2089 0.929 . S
H2080 C2084 0.929 . S
H2081 C2090 0.929 . S
C2082 H2076 0.930 . S
C2082 C2083 1.367 . S
C2082 C2090 1.378 . S
C2083 C2082 1.367 . S
C2083 C2091 1.433 . S
C2084 H2080 0.929 . S
C2084 C2086 1.378 . S
C2084 C2088 1.350 . S
C2085 C2088 1.463 . S
C2085 C2090 1.350 . S
C2085 N2093 1.427 . S
C2086 H2077 0.930 . S
C2086 C2084 1.378 . S
C2086 C2087 1.367 . S
C2087 C2086 1.367 . S
C2087 C2089 1.433 . S
C2088 C2084 1.350 . S
C2088 C2085 1.463 . S
C2088 N2092 1.427 . S
C2089 H2079 0.929 . S
C2089 C2087 1.433 . S
C2089 N2092 1.384 . S
C2090 H2081 0.929 . S
C2090 C2082 1.378 . S
C2090 C2085 1.350 . S
C2091 H2078 0.929 . S
C2091 C2083 1.433 . S
C2091 N2093 1.384 . S
N2092 C2088 1.427 . S
N2092 C2089 1.384 . S
N2093 C2085 1.427 . S
N2093 C2091 1.384 . S
H2094 C2100 0.930 . S
H2095 C2104 0.930 . S
H2096 C2109 0.929 . S
H2097 C2107 0.929 . S
H2098 C2102 0.929 . S
H2099 C2108 0.929 . S
C2100 H2094 0.930 . S
C2100 C2101 1.367 . S
C2100 C2108 1.378 . S
C2101 C2100 1.367 . S
C2101 C2109 1.433 . S
C2102 H2098 0.929 . S
C2102 C2104 1.378 . S
C2102 C2106 1.350 . S
C2103 C2106 1.463 . S
C2103 C2108 1.350 . S
C2103 N2111 1.427 . S
C2104 H2095 0.930 . S
C2104 C2102 1.378 . S
C2104 C2105 1.367 . S
C2105 C2104 1.367 . S
C2105 C2107 1.433 . S
C2106 C2102 1.350 . S
C2106 C2103 1.463 . S
C2106 N2110 1.427 . S
C2107 H2097 0.929 . S
C2107 C2105 1.433 . S
C2107 N2110 1.384 . S
C2108 H2099 0.929 . S
C2108 C2100 1.378 . S
C2108 C2103 1.350 . S
C2109 H2096 0.929 . S
C2109 C2101 1.433 . S
C2109 N2111 1.384 . S
N2110 C2106 1.427 . S
N2110 C2107 1.384 . S
N2111 C2103 1.427 . S
N2111 C2109 1.384 . S
H2112 C2118 0.930 . S
H2113 C2122 0.930 . S
H2114 C2127 0.929 . S
H2115 C2125 0.929 . S
H2116 C2120 0.929 . S
H2117 C2126 0.929 . S
C2118 H2112 0.930 . S
C2118 C2119 1.367 . S
C2118 C2126 1.378 . S
C2119 C2118 1.367 . S
C2119 C2127 1.433 . S
C2120 H2116 0.929 . S
C2120 C2122 1.378 . S
C2120 C2124 1.350 . S
C2121 C2124 1.463 . S
C2121 C2126 1.350 . S
C2121 N2129 1.427 . S
C2122 H2113 0.930 . S
C2122 C2120 1.378 . S
C2122 C2123 1.367 . S
C2123 C2122 1.367 . S
C2123 C2125 1.433 . S
C2124 C2120 1.350 . S
C2124 C2121 1.463 . S
C2124 N2128 1.427 . S
C2125 H2115 0.929 . S
C2125 C2123 1.433 . S
C2125 N2128 1.384 . S
C2126 H2117 0.929 . S
C2126 C2118 1.378 . S
C2126 C2121 1.350 . S
C2127 H2114 0.929 . S
C2127 C2119 1.433 . S
C2127 N2129 1.384 . S
N2128 C2124 1.427 . S
N2128 C2125 1.384 . S
N2129 C2121 1.427 . S
N2129 C2127 1.384 . S
H2130 C2136 0.930 . S
H2131 C2140 0.930 . S
H2132 C2145 0.929 . S
H2133 C2143 0.929 . S
H2134 C2138 0.929 . S
H2135 C2144 0.929 . S
C2136 H2130 0.930 . S
C2136 C2137 1.367 . S
C2136 C2144 1.378 . S
C2137 C2136 1.367 . S
C2137 C2145 1.433 . S
C2138 H2134 0.929 . S
C2138 C2140 1.378 . S
C2138 C2142 1.350 . S
C2139 C2142 1.463 . S
C2139 C2144 1.350 . S
C2139 N2147 1.427 . S
C2140 H2131 0.930 . S
C2140 C2138 1.378 . S
C2140 C2141 1.367 . S
C2141 C2140 1.367 . S
C2141 C2143 1.433 . S
C2142 C2138 1.350 . S
C2142 C2139 1.463 . S
C2142 N2146 1.427 . S
C2143 H2133 0.929 . S
C2143 C2141 1.433 . S
C2143 N2146 1.384 . S
C2144 H2135 0.929 . S
C2144 C2136 1.378 . S
C2144 C2139 1.350 . S
C2145 H2132 0.929 . S
C2145 C2137 1.433 . S
C2145 N2147 1.384 . S
N2146 C2142 1.427 . S
N2146 C2143 1.384 . S
N2147 C2139 1.427 . S
N2147 C2145 1.384 . S
H2148 C2154 0.930 . S
H2149 C2158 0.930 . S
H2150 C2163 0.929 . S
H2151 C2161 0.929 . S
H2152 C2156 0.929 . S
H2153 C2162 0.929 . S
C2154 H2148 0.930 . S
C2154 C2155 1.367 . S
C2154 C2162 1.378 . S
C2155 C2154 1.367 . S
C2155 C2163 1.433 . S
C2156 H2152 0.929 . S
C2156 C2158 1.378 . S
C2156 C2160 1.350 . S
C2157 C2160 1.463 . S
C2157 C2162 1.350 . S
C2157 N2165 1.427 . S
C2158 H2149 0.930 . S
C2158 C2156 1.378 . S
C2158 C2159 1.367 . S
C2159 C2158 1.367 . S
C2159 C2161 1.433 . S
C2160 C2156 1.350 . S
C2160 C2157 1.463 . S
C2160 N2164 1.427 . S
C2161 H2151 0.929 . S
C2161 C2159 1.433 . S
C2161 N2164 1.384 . S
C2162 H2153 0.929 . S
C2162 C2154 1.378 . S
C2162 C2157 1.350 . S
C2163 H2150 0.929 . S
C2163 C2155 1.433 . S
C2163 N2165 1.384 . S
N2164 C2160 1.427 . S
N2164 C2161 1.384 . S
N2165 C2157 1.427 . S
N2165 C2163 1.384 . S
H2166 C2172 0.930 . S
H2167 C2176 0.930 . S
H2168 C2181 0.929 . S
H2169 C2179 0.929 . S
H2170 C2174 0.929 . S
H2171 C2180 0.929 . S
C2172 H2166 0.930 . S
C2172 C2173 1.367 . S
C2172 C2180 1.378 . S
C2173 C2172 1.367 . S
C2173 C2181 1.433 . S
C2174 H2170 0.929 . S
C2174 C2176 1.378 . S
C2174 C2178 1.350 . S
C2175 C2178 1.463 . S
C2175 C2180 1.350 . S
C2175 N2183 1.427 . S
C2176 H2167 0.930 . S
C2176 C2174 1.378 . S
C2176 C2177 1.367 . S
C2177 C2176 1.367 . S
C2177 C2179 1.433 . S
C2178 C2174 1.350 . S
C2178 C2175 1.463 . S
C2178 N2182 1.427 . S
C2179 H2169 0.929 . S
C2179 C2177 1.433 . S
C2179 N2182 1.384 . S
C2180 H2171 0.929 . S
C2180 C2172 1.378 . S
C2180 C2175 1.350 . S
C2181 H2168 0.929 . S
C2181 C2173 1.433 . S
C2181 N2183 1.384 . S
N2182 C2178 1.427 . S
N2182 C2179 1.384 . S
N2183 C2175 1.427 . S
N2183 C2181 1.384 . S
H2184 C2190 0.930 . S
H2185 C2194 0.930 . S
H2186 C2199 0.929 . S
H2187 C2197 0.929 . S
H2188 C2192 0.929 . S
H2189 C2198 0.929 . S
C2190 H2184 0.930 . S
C2190 C2191 1.367 . S
C2190 C2198 1.378 . S
C2191 C2190 1.367 . S
C2191 C2199 1.433 . S
C2192 H2188 0.929 . S
C2192 C2194 1.378 . S
C2192 C2196 1.350 . S
C2193 C2196 1.463 . S
C2193 C2198 1.350 . S
C2193 N2201 1.427 . S
C2194 H2185 0.930 . S
C2194 C2192 1.378 . S
C2194 C2195 1.367 . S
C2195 C2194 1.367 . S
C2195 C2197 1.433 . S
C2196 C2192 1.350 . S
C2196 C2193 1.463 . S
C2196 N2200 1.427 . S
C2197 H2187 0.929 . S
C2197 C2195 1.433 . S
C2197 N2200 1.384 . S
C2198 H2189 0.929 . S
C2198 C2190 1.378 . S
C2198 C2193 1.350 . S
C2199 H2186 0.929 . S
C2199 C2191 1.433 . S
C2199 N2201 1.384 . S
N2200 C2196 1.427 . S
N2200 C2197 1.384 . S
N2201 C2193 1.427 . S
N2201 C2199 1.384 . S
H2202 C2208 0.930 . S
H2203 C2212 0.930 . S
H2204 C2217 0.929 . S
H2205 C2215 0.929 . S
H2206 C2210 0.929 . S
H2207 C2216 0.929 . S
C2208 H2202 0.930 . S
C2208 C2209 1.367 . S
C2208 C2216 1.378 . S
C2209 C2208 1.367 . S
C2209 C2217 1.433 . S
C2210 H2206 0.929 . S
C2210 C2212 1.378 . S
C2210 C2214 1.350 . S
C2211 C2214 1.463 . S
C2211 C2216 1.350 . S
C2211 N2219 1.427 . S
C2212 H2203 0.930 . S
C2212 C2210 1.378 . S
C2212 C2213 1.367 . S
C2213 C2212 1.367 . S
C2213 C2215 1.433 . S
C2214 C2210 1.350 . S
C2214 C2211 1.463 . S
C2214 N2218 1.427 . S
C2215 H2205 0.929 . S
C2215 C2213 1.433 . S
C2215 N2218 1.384 . S
C2216 H2207 0.929 . S
C2216 C2208 1.378 . S
C2216 C2211 1.350 . S
C2217 H2204 0.929 . S
C2217 C2209 1.433 . S
C2217 N2219 1.384 . S
N2218 C2214 1.427 . S
N2218 C2215 1.384 . S
N2219 C2211 1.427 . S
N2219 C2217 1.384 . S
H2220 C2226 0.930 . S
H2221 C2230 0.930 . S
H2222 C2235 0.929 . S
H2223 C2233 0.929 . S
H2224 C2228 0.929 . S
H2225 C2234 0.929 . S
C2226 H2220 0.930 . S
C2226 C2227 1.367 . S
C2226 C2234 1.378 . S
C2227 C2226 1.367 . S
C2227 C2235 1.433 . S
C2228 H2224 0.929 . S
C2228 C2230 1.378 . S
C2228 C2232 1.350 . S
C2229 C2232 1.463 . S
C2229 C2234 1.350 . S
C2229 N2237 1.427 . S
C2230 H2221 0.930 . S
C2230 C2228 1.378 . S
C2230 C2231 1.367 . S
C2231 C2230 1.367 . S
C2231 C2233 1.433 . S
C2232 C2228 1.350 . S
C2232 C2229 1.463 . S
C2232 N2236 1.427 . S
C2233 H2223 0.929 . S
C2233 C2231 1.433 . S
C2233 N2236 1.384 . S
C2234 H2225 0.929 . S
C2234 C2226 1.378 . S
C2234 C2229 1.350 . S
C2235 H2222 0.929 . S
C2235 C2227 1.433 . S
C2235 N2237 1.384 . S
N2236 C2232 1.427 . S
N2236 C2233 1.384 . S
N2237 C2229 1.427 . S
N2237 C2235 1.384 . S
H2238 C2244 0.930 . S
H2239 C2248 0.930 . S
H2240 C2253 0.929 . S
H2241 C2251 0.929 . S
H2242 C2246 0.929 . S
H2243 C2252 0.929 . S
C2244 H2238 0.930 . S
C2244 C2245 1.367 . S
C2244 C2252 1.378 . S
C2245 C2244 1.367 . S
C2245 C2253 1.433 . S
C2246 H2242 0.929 . S
C2246 C2248 1.378 . S
C2246 C2250 1.350 . S
C2247 C2250 1.463 . S
C2247 C2252 1.350 . S
C2247 N2255 1.427 . S
C2248 H2239 0.930 . S
C2248 C2246 1.378 . S
C2248 C2249 1.367 . S
C2249 C2248 1.367 . S
C2249 C2251 1.433 . S
C2250 C2246 1.350 . S
C2250 C2247 1.463 . S
C2250 N2254 1.427 . S
C2251 H2241 0.929 . S
C2251 C2249 1.433 . S
C2251 N2254 1.384 . S
C2252 H2243 0.929 . S
C2252 C2244 1.378 . S
C2252 C2247 1.350 . S
C2253 H2240 0.929 . S
C2253 C2245 1.433 . S
C2253 N2255 1.384 . S
N2254 C2250 1.427 . S
N2254 C2251 1.384 . S
N2255 C2247 1.427 . S
N2255 C2253 1.384 . S
H2256 C2262 0.930 . S
H2257 C2266 0.930 . S
H2258 C2271 0.929 . S
H2259 C2269 0.929 . S
H2260 C2264 0.929 . S
H2261 C2270 0.929 . S
C2262 H2256 0.930 . S
C2262 C2263 1.367 . S
C2262 C2270 1.378 . S
C2263 C2262 1.367 . S
C2263 C2271 1.433 . S
C2264 H2260 0.929 . S
C2264 C2266 1.378 . S
C2264 C2268 1.350 . S
C2265 C2268 1.463 . S
C2265 C2270 1.350 . S
C2265 N2273 1.427 . S
C2266 H2257 0.930 . S
C2266 C2264 1.378 . S
C2266 C2267 1.367 . S
C2267 C2266 1.367 . S
C2267 C2269 1.433 . S
C2268 C2264 1.350 . S
C2268 C2265 1.463 . S
C2268 N2272 1.427 . S
C2269 H2259 0.929 . S
C2269 C2267 1.433 . S
C2269 N2272 1.384 . S
C2270 H2261 0.929 . S
C2270 C2262 1.378 . S
C2270 C2265 1.350 . S
C2271 H2258 0.929 . S
C2271 C2263 1.433 . S
C2271 N2273 1.384 . S
N2272 C2268 1.427 . S
N2272 C2269 1.384 . S
N2273 C2265 1.427 . S
N2273 C2271 1.384 . S
H2274 C2280 0.930 . S
H2275 C2284 0.930 . S
H2276 C2289 0.929 . S
H2277 C2287 0.929 . S
H2278 C2282 0.929 . S
H2279 C2288 0.929 . S
C2280 H2274 0.930 . S
C2280 C2281 1.367 . S
C2280 C2288 1.378 . S
C2281 C2280 1.367 . S
C2281 C2289 1.433 . S
C2282 H2278 0.929 . S
C2282 C2284 1.378 . S
C2282 C2286 1.350 . S
C2283 C2286 1.463 . S
C2283 C2288 1.350 . S
C2283 N2291 1.427 . S
C2284 H2275 0.930 . S
C2284 C2282 1.378 . S
C2284 C2285 1.367 . S
C2285 C2284 1.367 . S
C2285 C2287 1.433 . S
C2286 C2282 1.350 . S
C2286 C2283 1.463 . S
C2286 N2290 1.427 . S
C2287 H2277 0.929 . S
C2287 C2285 1.433 . S
C2287 N2290 1.384 . S
C2288 H2279 0.929 . S
C2288 C2280 1.378 . S
C2288 C2283 1.350 . S
C2289 H2276 0.929 . S
C2289 C2281 1.433 . S
C2289 N2291 1.384 . S
N2290 C2286 1.427 . S
N2290 C2287 1.384 . S
N2291 C2283 1.427 . S
N2291 C2289 1.384 . S
H2292 C2298 0.930 . S
H2293 C2302 0.930 . S
H2294 C2307 0.929 . S
H2295 C2305 0.929 . S
H2296 C2300 0.929 . S
H2297 C2306 0.929 . S
C2298 H2292 0.930 . S
C2298 C2299 1.367 . S
C2298 C2306 1.378 . S
C2299 C2298 1.367 . S
C2299 C2307 1.433 . S
C2300 H2296 0.929 . S
C2300 C2302 1.378 . S
C2300 C2304 1.350 . S
C2301 C2304 1.463 . S
C2301 C2306 1.350 . S
C2301 N2309 1.427 . S
C2302 H2293 0.930 . S
C2302 C2300 1.378 . S
C2302 C2303 1.367 . S
C2303 C2302 1.367 . S
C2303 C2305 1.433 . S
C2304 C2300 1.350 . S
C2304 C2301 1.463 . S
C2304 N2308 1.427 . S
C2305 H2295 0.929 . S
C2305 C2303 1.433 . S
C2305 N2308 1.384 . S
C2306 H2297 0.929 . S
C2306 C2298 1.378 . S
C2306 C2301 1.350 . S
C2307 H2294 0.929 . S
C2307 C2299 1.433 . S
C2307 N2309 1.384 . S
N2308 C2304 1.427 . S
N2308 C2305 1.384 . S
N2309 C2301 1.427 . S
N2309 C2307 1.384 . S
H2310 C2316 0.930 . S
H2311 C2320 0.930 . S
H2312 C2325 0.929 . S
H2313 C2323 0.929 . S
H2314 C2318 0.929 . S
H2315 C2324 0.929 . S
C2316 H2310 0.930 . S
C2316 C2317 1.367 . S
C2316 C2324 1.378 . S
C2317 C2316 1.367 . S
C2317 C2325 1.433 . S
C2318 H2314 0.929 . S
C2318 C2320 1.378 . S
C2318 C2322 1.350 . S
C2319 C2322 1.463 . S
C2319 C2324 1.350 . S
C2319 N2327 1.427 . S
C2320 H2311 0.930 . S
C2320 C2318 1.378 . S
C2320 C2321 1.367 . S
C2321 C2320 1.367 . S
C2321 C2323 1.433 . S
C2322 C2318 1.350 . S
C2322 C2319 1.463 . S
C2322 N2326 1.427 . S
C2323 H2313 0.929 . S
C2323 C2321 1.433 . S
C2323 N2326 1.384 . S
C2324 H2315 0.929 . S
C2324 C2316 1.378 . S
C2324 C2319 1.350 . S
C2325 H2312 0.929 . S
C2325 C2317 1.433 . S
C2325 N2327 1.384 . S
N2326 C2322 1.427 . S
N2326 C2323 1.384 . S
N2327 C2319 1.427 . S
N2327 C2325 1.384 . S
H2328 C2334 0.930 . S
H2329 C2338 0.930 . S
H2330 C2343 0.929 . S
H2331 C2341 0.929 . S
H2332 C2336 0.929 . S
H2333 C2342 0.929 . S
C2334 H2328 0.930 . S
C2334 C2335 1.367 . S
C2334 C2342 1.378 . S
C2335 C2334 1.367 . S
C2335 C2343 1.433 . S
C2336 H2332 0.929 . S
C2336 C2338 1.378 . S
C2336 C2340 1.350 . S
C2337 C2340 1.463 . S
C2337 C2342 1.350 . S
C2337 N2345 1.427 . S
C2338 H2329 0.930 . S
C2338 C2336 1.378 . S
C2338 C2339 1.367 . S
C2339 C2338 1.367 . S
C2339 C2341 1.433 . S
C2340 C2336 1.350 . S
C2340 C2337 1.463 . S
C2340 N2344 1.427 . S
C2341 H2331 0.929 . S
C2341 C2339 1.433 . S
C2341 N2344 1.384 . S
C2342 H2333 0.929 . S
C2342 C2334 1.378 . S
C2342 C2337 1.350 . S
C2343 H2330 0.929 . S
C2343 C2335 1.433 . S
C2343 N2345 1.384 . S
N2344 C2340 1.427 . S
N2344 C2341 1.384 . S
N2345 C2337 1.427 . S
N2345 C2343 1.384 . S
H2346 C2352 0.930 . S
H2347 C2356 0.930 . S
H2348 C2361 0.929 . S
H2349 C2359 0.929 . S
H2350 C2354 0.929 . S
H2351 C2360 0.929 . S
C2352 H2346 0.930 . S
C2352 C2353 1.367 . S
C2352 C2360 1.378 . S
C2353 C2352 1.367 . S
C2353 C2361 1.433 . S
C2354 H2350 0.929 . S
C2354 C2356 1.378 . S
C2354 C2358 1.350 . S
C2355 C2358 1.463 . S
C2355 C2360 1.350 . S
C2355 N2363 1.427 . S
C2356 H2347 0.930 . S
C2356 C2354 1.378 . S
C2356 C2357 1.367 . S
C2357 C2356 1.367 . S
C2357 C2359 1.433 . S
C2358 C2354 1.350 . S
C2358 C2355 1.463 . S
C2358 N2362 1.427 . S
C2359 H2349 0.929 . S
C2359 C2357 1.433 . S
C2359 N2362 1.384 . S
C2360 H2351 0.929 . S
C2360 C2352 1.378 . S
C2360 C2355 1.350 . S
C2361 H2348 0.929 . S
C2361 C2353 1.433 . S
C2361 N2363 1.384 . S
N2362 C2358 1.427 . S
N2362 C2359 1.384 . S
N2363 C2355 1.427 . S
N2363 C2361 1.384 . S
H2364 C2370 0.930 . S
H2365 C2374 0.930 . S
H2366 C2379 0.929 . S
H2367 C2377 0.929 . S
H2368 C2372 0.929 . S
H2369 C2378 0.929 . S
C2370 H2364 0.930 . S
C2370 C2371 1.367 . S
C2370 C2378 1.378 . S
C2371 C2370 1.367 . S
C2371 C2379 1.433 . S
C2372 H2368 0.929 . S
C2372 C2374 1.378 . S
C2372 C2376 1.350 . S
C2373 C2376 1.463 . S
C2373 C2378 1.350 . S
C2373 N2381 1.427 . S
C2374 H2365 0.930 . S
C2374 C2372 1.378 . S
C2374 C2375 1.367 . S
C2375 C2374 1.367 . S
C2375 C2377 1.433 . S
C2376 C2372 1.350 . S
C2376 C2373 1.463 . S
C2376 N2380 1.427 . S
C2377 H2367 0.929 . S
C2377 C2375 1.433 . S
C2377 N2380 1.384 . S
C2378 H2369 0.929 . S
C2378 C2370 1.378 . S
C2378 C2373 1.350 . S
C2379 H2366 0.929 . S
C2379 C2371 1.433 . S
C2379 N2381 1.384 . S
N2380 C2376 1.427 . S
N2380 C2377 1.384 . S
N2381 C2373 1.427 . S
N2381 C2379 1.384 . S
H2382 C2388 0.930 . S
H2383 C2392 0.930 . S
H2384 C2397 0.929 . S
H2385 C2395 0.929 . S
H2386 C2390 0.929 . S
H2387 C2396 0.929 . S
C2388 H2382 0.930 . S
C2388 C2389 1.367 . S
C2388 C2396 1.378 . S
C2389 C2388 1.367 . S
C2389 C2397 1.433 . S
C2390 H2386 0.929 . S
C2390 C2392 1.378 . S
C2390 C2394 1.350 . S
C2391 C2394 1.463 . S
C2391 C2396 1.350 . S
C2391 N2399 1.427 . S
C2392 H2383 0.930 . S
C2392 C2390 1.378 . S
C2392 C2393 1.367 . S
C2393 C2392 1.367 . S
C2393 C2395 1.433 . S
C2394 C2390 1.350 . S
C2394 C2391 1.463 . S
C2394 N2398 1.427 . S
C2395 H2385 0.929 . S
C2395 C2393 1.433 . S
C2395 N2398 1.384 . S
C2396 H2387 0.929 . S
C2396 C2388 1.378 . S
C2396 C2391 1.350 . S
C2397 H2384 0.929 . S
C2397 C2389 1.433 . S
C2397 N2399 1.384 . S
N2398 C2394 1.427 . S
N2398 C2395 1.384 . S
N2399 C2391 1.427 . S
N2399 C2397 1.384 . S
C679 C397 1.001 . S
C683 C5 1.029 . S
C697 C19 1.009 . S
C701 C411 1.021 . S
C715 C425 1.029 . S
C719 C33 1.000 . S
C733 C47 1.025 . S
C737 C439 1.005 . S
C751 C341 1.032 . S
C755 C61 0.998 . S
C769 C75 1.024 . S
C773 C355 1.005 . S
C787 C369 1.022 . S
C791 C89 1.008 . S
C805 C103 1.009 . S
C809 C383 1.021 . S
C823 C537 1.022 . S
C827 C117 1.007 . S
C841 C551 1.020 . S
C845 C131 1.010 . S
C859 C509 1.020 . S
C863 C145 1.009 . S
C877 C159 0.998 . S
C881 C523 1.032 . S
C895 C481 1.031 . S
C899 C173 0.998 . S
C913 C495 1.020 . S
C917 C187 1.010 . S
C931 C201 0.999 . S
C935 C453 1.030 . S
C949 C467 1.024 . S
C953 C215 1.006 . S
C967 C229 1.012 . S
C971 C635 1.018 . S
C985 C607 1.031 . S
C989 C243 0.999 . S
C1003 C621 1.020 . S
C1007 C257 1.010 . S
C1021 C579 1.004 . S
C1025 C271 1.025 . S
C1039 C593 0.998 . S
C1043 C285 1.031 . S
C1057 C299 1.016 . S
C1061 C565 1.014 . S
C1075 C313 1.032 . S
C1079 C663 0.998 . S
C1093 C649 1.005 . S
C1097 C327 1.024 . S
C1111 C109 1.456 . S
C1115 C11 1.467 . S
C1129 C67 1.457 . S
C1133 C25 1.461 . S
C1147 C81 1.464 . S
C1151 C39 1.459 . S
C1165 C95 1.452 . S
C1169 C53 1.469 . S
C1183 C291 1.465 . S
C1187 C123 1.454 . S
C1201 C249 1.463 . S
C1205 C137 1.460 . S
C1219 C263 1.468 . S
C1223 C151 1.452 . S
C1237 C277 1.460 . S
C1241 C165 1.463 . S
C1255 C333 1.464 . S
C1259 C179 1.455 . S
C1273 C305 1.468 . S
C1277 C193 1.454 . S
C1291 C207 1.465 . S
C1295 C319 1.458 . S
C1309 C235 1.460 . S
C1313 C221 1.458 . S
C1327 C445 1.468 . S
C1331 C347 1.452 . S
C1345 C403 1.453 . S
C1349 C361 1.467 . S
C1363 C375 1.454 . S
C1367 C417 1.466 . S
C1381 C389 1.463 . S
C1385 C431 1.456 . S
C1399 C459 1.468 . S
C1403 C627 1.452 . S
C1417 C473 1.461 . S
C1421 C585 1.458 . S
C1435 C599 1.454 . S
C1439 C487 1.468 . S
C1453 C613 1.468 . S
C1457 C501 1.452 . S
C1471 C669 1.452 . S
C1475 C515 1.468 . S
C1489 C641 1.461 . S
C1493 C529 1.458 . S
C1507 C655 1.469 . S
C1511 C543 1.452 . S
C1525 C557 1.460 . S
C1529 C571 1.463 . S
C1543 C4 0.967 . S
C1547 C124 0.942 . S
C1561 C138 0.962 . S
C1565 C18 0.956 . S
C1579 C152 0.942 . S
C1583 C32 0.967 . S
C1597 C166 0.936 . S
C1601 C46 0.975 . S
C1615 C60 0.956 . S
C1619 C180 0.955 . S
C1633 C194 0.937 . S
C1637 C74 0.976 . S
C1651 C88 0.959 . S
C1655 C208 0.960 . S
C1669 C222 0.941 . S
C1673 C102 0.968 . S
C1687 C236 0.938 . S
C1691 C116 0.971 . S
C1705 C334 0.945 . S
C1709 C130 0.972 . S
C1723 C144 0.971 . S
C1727 C306 0.946 . S
C1741 C158 0.956 . S
C1745 C320 0.954 . S
C1759 C172 0.971 . S
C1763 C250 0.945 . S
C1777 C186 0.954 . S
C1781 C264 0.964 . S
C1795 C200 0.952 . S
C1799 C278 0.962 . S
C1813 C214 0.969 . S
C1817 C292 0.948 . S
C1831 C228 0.969 . S
C1835 C12 0.949 . S
C1849 C242 0.968 . S
C1853 C68 0.941 . S
C1867 C256 0.951 . S
C1871 C82 0.963 . S
C1885 C270 0.972 . S
C1889 C96 0.945 . S
C1903 C284 0.971 . S
C1907 C110 0.945 . S
C1921 C298 0.969 . S
C1925 C40 0.940 . S
C1939 C54 0.936 . S
C1943 C312 0.974 . S
C1957 C26 0.937 . S
C1961 C326 0.973 . S
C1975 C460 0.954 . S
C1979 C340 0.957 . S
C1993 C474 0.936 . S
C1997 C354 0.975 . S
C2011 C488 0.940 . S
C2015 C368 0.969 . S
C2029 C502 0.965 . S
C2033 C382 0.953 . S
C2047 C516 0.943 . S
C2051 C396 0.973 . S
C2065 C410 0.976 . S
C2069 C530 0.937 . S
C2083 C544 0.945 . S
C2087 C424 0.965 . S
C2101 C438 0.955 . S
C2105 C558 0.956 . S
C2119 C572 0.942 . S
C2123 C452 0.973 . S
C2137 C466 0.966 . S
C2141 C670 0.943 . S
C2155 C480 0.953 . S
C2159 C642 0.965 . S
C2173 C656 0.937 . S
C2177 C494 0.973 . S
C2191 C586 0.962 . S
C2195 C508 0.952 . S
C2209 C522 0.961 . S
C2213 C600 0.949 . S
C2227 C536 0.953 . S
C2231 C614 0.964 . S
C2245 C628 0.959 . S
C2249 C550 0.953 . S
C2263 C348 0.937 . S
C2267 C564 0.972 . S
C2281 C404 0.937 . S
C2285 C578 0.973 . S
C2299 C418 0.961 . S
C2303 C592 0.952 . S
C2317 C606 0.975 . S
C2321 C432 0.939 . S
C2335 C446 0.938 . S
C2339 C620 0.972 . S
C2353 C376 0.937 . S
C2357 C634 0.976 . S
C2371 C648 0.975 . S
C2375 C390 0.936 . S
C2389 C362 0.964 . S
C2393 C662 0.951 . S
