# Generated by pormake.
# Topology kag, (6)-cn, num edge types: 1
# Building blocks:
#     Node 0, Type 0, BuildingBlock: KUMBUR_clean_sbu_1, # of connection points: 6
#     Node 1, Type 0, BuildingBlock: KUMBUR_clean_sbu_1, # of connection points: 6
#     Node 2, Type 0, BuildingBlock: KUMBUR_clean_sbu_1, # of connection points: 6
#     Edge 3, Type (0, 0), BuildingBlock: FUNLAD_clean_linker_1, # of connection points: 2
#     Edge 4, Type (0, 0), BuildingBlock: FUNLAD_clean_linker_1, # of connection points: 2
#     Edge 5, Type (0, 0), BuildingBlock: FUNLAD_clean_linker_1, # of connection points: 2
#     Edge 6, Type (0, 0), BuildingBlock: FUNLAD_clean_linker_1, # of connection points: 2
#     Edge 7, Type (0, 0), BuildingBlock: FUNLAD_clean_linker_1, # of connection points: 2
#     Edge 8, Type (0, 0), BuildingBlock: FUNLAD_clean_linker_1, # of connection points: 2
#     Edge 9, Type (0, 0), BuildingBlock: FUNLAD_clean_linker_1, # of connection points: 2
#     Edge 10, Type (0, 0), BuildingBlock: FUNLAD_clean_linker_1, # of connection points: 2
#     Edge 11, Type (0, 0), BuildingBlock: FUNLAD_clean_linker_1, # of connection points: 2
# Relax obj value: 0.091
# Max RMSD: 0.180
# Mean RMSD: 0.123
data_MOF--net-kag--node1-KUMBUR_clean_sbu_1--edge1-FUNLAD_clean_linker_1
_symmetry_space_group_name_H-M    P1
_symmetry_Int_Tables_number       1
_symmetry_cell_setting            triclinic
loop_
_symmetry_equiv_pos_as_xyz
'x, y, z'
_cell_length_a     32.539239
_cell_length_b     41.636536
_cell_length_c     15.700415
_cell_angle_alpha  109.52181
_cell_angle_beta   97.207933
_cell_angle_gamma 99.476149
loop_
_atom_site_label
_atom_site_type_symbol
_atom_site_fract_x
_atom_site_fract_y
_atom_site_fract_z
_atom_type_partial_charge
Tb0 Tb 0.05732 0.5514 0.05668 0.0
C1 C 0.07494 0.40128 0.85465 0.0
N2 N 0.04771 0.41938 0.8286 0.0
C3 C 0.05311 0.39226 0.67079 0.0
C4 C 0.09279 0.37826 0.78916 0.0
C5 C 0.03639 0.41503 0.73804 0.0
C6 C 0.08142 0.37382 0.69636 0.0
C7 C 0.11423 0.38835 0.97673 0.0
C8 C 0.08524 0.40613 0.94771 0.0
C9 C 0.13191 0.36534 0.91148 0.0
C10 C 0.12105 0.36017 0.81799 0.0
Tb11 Tb 1.01615 0.44932 0.94201 0.0
N12 N 0.06688 0.4282 0.00935 0.0
C13 C 0.1242 0.3938 0.07038 0.0
C14 C 0.07533 0.43221 0.10018 0.0
C15 C 0.10457 0.41574 0.13224 0.0
H16 H 1.01295 0.42778 0.71685 0.0
H17 H 0.11114 0.41931 0.20453 0.0
H18 H 0.06563 0.57569 0.28539 0.0
H19 H 0.97595 0.59635 0.81039 0.0
H20 H 0.05873 0.44671 0.14826 0.0
H21 H 0.14636 0.38068 0.09537 0.0
H22 H 1.02446 0.56463 0.8631 0.0
H23 H 0.04359 0.38834 0.59898 0.0
H24 H 0.15386 0.35123 0.93259 0.0
H25 H 0.13477 0.34214 0.76847 0.0
H26 H 0.03779 0.61645 0.40674 0.0
H27 H 0.09403 0.35603 0.64384 0.0
H28 H 0.94083 0.6344 0.92116 0.0
N29 N 1.03079 0.58537 0.17586 0.0
C30 C 1.00496 0.60516 0.1534 0.0
C31 C 1.02756 0.61261 0.33536 0.0
C32 C 0.98844 0.62861 0.22095 0.0
C33 C 0.04271 0.58921 0.26602 0.0
C34 C 0.99995 0.63203 0.31271 0.0
N35 N 1.01303 0.58018 0.99955 0.0
C36 C 1.00745 0.57903 0.91083 0.0
C37 C 0.96923 0.62261 0.03633 0.0
C38 C 0.99588 0.6026 0.0625 0.0
C39 C 0.96117 0.61953 0.94407 0.0
C40 C 0.98074 0.59791 0.88125 0.0
H41 H 0.98851 0.65017 0.36685 0.0
H42 H 0.94884 0.66662 0.24637 0.0
H43 H 0.93158 0.66102 0.08432 0.0
O44 O 0.09987 0.58188 0.00674 0.0
O45 O 0.98647 0.53363 0.02072 0.0
O46 O 0.96062 0.47345 0.96856 0.0
O47 O 0.10114 0.59466 0.15387 0.0
O48 O 0.0622 0.52536 0.91247 0.0
O49 O 1.00552 0.47801 0.84788 0.0
O50 O 0.99034 0.40326 0.9622 0.0
O51 O 0.08318 0.47194 0.93973 0.0
O52 O 0.10627 0.52078 0.0708 0.0
O53 O 0.97008 0.41079 0.83578 0.0
O54 O 1.00679 0.47392 0.08434 0.0
O55 O 0.061 0.52309 0.15257 0.0
C56 C 0.95472 0.50579 0.9947 0.0
C57 C 0.15298 0.63273 0.11367 0.0
C58 C 0.20377 0.66985 0.06721 0.0
C59 C 0.22553 0.68614 0.1589 0.0
C60 C 0.17439 0.64995 0.20571 0.0
C61 C 0.2105 0.67654 0.228 0.0
C62 C 0.16739 0.6432 0.04431 0.0
C63 C 1.03434 0.50279 0.84058 0.0
C64 C 0.11754 0.60264 0.09053 0.0
C65 C 0.96177 0.64851 0.19528 0.0
C66 C 0.95202 0.64538 0.10308 0.0
C67 C 0.11459 0.49507 0.0035 0.0
C68 C 0.92136 0.37199 0.87552 0.0
C69 C 0.86786 0.3429 0.93663 0.0
C70 C 0.83965 0.33214 0.85212 0.0
C71 C 0.89283 0.36035 0.7908 0.0
C72 C 0.90889 0.36267 0.94847 0.0
C73 C 0.85222 0.34061 0.77942 0.0
C74 C 1.03025 0.49942 0.15808 0.0
C75 C 0.96514 0.39014 0.88193 0.0
H76 H 0.25372 0.70683 0.17716 0.0
H77 H 0.16375 0.64241 0.26037 0.0
H78 H 0.22706 0.68955 0.29882 0.0
H79 H 0.15091 0.63051 0.97317 0.0
H80 H 0.80833 0.31596 0.84135 0.0
H81 H 0.90222 0.36594 0.73253 0.0
H82 H 0.93094 0.37005 0.01311 0.0
H83 H 0.83069 0.33133 0.71358 0.0
Tb84 Tb 0.46877 0.98549 0.9567 0.0
C85 C 0.67799 0.98926 0.12577 0.0
N86 N 0.65161 0.01078 0.15676 0.0
C87 C 0.68147 0.01979 0.31296 0.0
C88 C 0.70627 0.9812 0.18731 0.0
C89 C 0.65432 0.02727 0.24924 0.0
C90 C 0.70721 0.99631 0.28185 0.0
C91 C 0.70468 0.95393 0.99697 0.0
C92 C 0.67726 0.97583 0.03196 0.0
C93 C 0.7324 0.94531 0.05778 0.0
C94 C 0.73311 0.95883 0.1527 0.0
Tb95 Tb 0.60774 0.01998 0.04582 0.0
N96 N 0.64924 0.98404 0.97499 0.0
C97 C 0.70352 0.94147 0.90197 0.0
C98 C 0.64851 0.97242 0.88233 0.0
C99 C 0.67552 0.95097 0.84457 0.0
H100 H 0.63556 0.04629 0.27456 0.0
H101 H 0.67473 0.94178 0.77111 0.0
H102 H 0.44042 0.95774 0.72825 0.0
H103 H 0.39205 0.05545 0.22561 0.0
H104 H 0.62739 0.97953 0.83675 0.0
H105 H 0.72428 0.92475 0.87238 0.0
H106 H 0.43971 0.01804 0.16111 0.0
H107 H 0.68272 0.03234 0.38604 0.0
H108 H 0.75359 0.92838 0.03216 0.0
H109 H 0.75489 0.95218 0.19886 0.0
H110 H 0.39351 0.97143 0.61532 0.0
H111 H 0.72835 0.99068 0.33138 0.0
H112 H 0.34589 0.07536 0.12524 0.0
N113 N 0.42262 0.99231 0.84481 0.0
C114 C 0.39604 0.01372 0.8747 0.0
C115 C 0.39408 0.9837 0.6882 0.0
C116 C 0.36843 0.02209 0.81267 0.0
C117 C 0.42084 0.97618 0.75261 0.0
C118 C 0.36821 0.00718 0.71842 0.0
N119 N 0.42238 0.01712 0.02443 0.0
C120 C 0.4205 0.02663 0.11584 0.0
C121 C 0.36772 0.04792 0.002 0.0
C122 C 0.39566 0.02639 0.96773 0.0
C123 C 0.36698 0.05889 0.09614 0.0
C124 C 0.39306 0.04776 0.15301 0.0
H125 H 0.34757 0.01301 0.66845 0.0
H126 H 0.32047 0.05164 0.80016 0.0
H127 H 0.31982 0.07425 0.96624 0.0
O128 O 0.4389 0.94947 0.00843 0.0
O129 O 0.48536 0.04333 0.99578 0.0
O130 O 0.54737 0.03434 0.02994 0.0
O131 O 0.44054 0.93462 0.86366 0.0
O132 O 0.49672 0.99715 0.10234 0.0
O133 O 0.57148 0.01806 0.15572 0.0
O134 O 0.65031 0.05206 0.00193 0.0
O135 O 0.59042 0.96266 0.00914 0.0
O136 O 0.53007 0.97293 0.96943 0.0
O137 O 0.6369 0.07036 0.14133 0.0
O138 O 0.57969 0.01347 0.90326 0.0
O139 O 0.50544 0.9887 0.84778 0.0
C140 C 0.52589 0.05757 0.02381 0.0
C141 C 0.38366 0.90352 0.90673 0.0
C142 C 0.33056 0.86808 0.95303 0.0
C143 C 0.30433 0.85807 0.86642 0.0
C144 C 0.35735 0.89303 0.81968 0.0
C145 C 0.31783 0.87031 0.79985 0.0
C146 C 0.37029 0.89056 0.97295 0.0
C147 C 0.53195 0.00808 0.16657 0.0
C148 C 0.42674 0.92491 0.92746 0.0
C149 C 0.34156 0.04455 0.84658 0.0
C150 C 0.34117 0.05741 0.94111 0.0
C151 C 0.55007 0.94921 0.97878 0.0
C152 C 0.68834 0.11012 0.10393 0.0
C153 C 0.73424 0.14906 0.05325 0.0
C154 C 0.75426 0.16839 0.14512 0.0
C155 C 0.70761 0.13028 0.19589 0.0
C156 C 0.70116 0.12 0.03246 0.0
C157 C 0.74052 0.15934 0.2162 0.0
C158 C 0.54446 1.00138 0.8384 0.0
C159 C 0.6586 0.07687 0.08254 0.0
H160 H 0.27401 0.83978 0.84931 0.0
H161 H 0.36749 0.90185 0.76658 0.0
H162 H 0.29787 0.86177 0.73235 0.0
H163 H 0.39098 0.89742 0.03916 0.0
H164 H 0.78037 0.19069 0.16175 0.0
H165 H 0.69835 0.12284 0.25176 0.0
H166 H 0.68639 0.10473 0.96117 0.0
H167 H 0.75592 0.17448 0.28696 0.0
Tb168 Tb 0.51537 0.45094 0.94669 0.0
C169 C 0.64395 0.59633 0.17609 0.0
N170 N 0.60482 0.58265 0.18725 0.0
C171 C 0.62878 0.60703 0.35156 0.0
C172 C 0.6771 0.61547 0.25246 0.0
C173 C 0.59652 0.58889 0.27398 0.0
C174 C 0.66929 0.62007 0.34079 0.0
C175 C 0.68952 0.60792 0.07348 0.0
C176 C 0.65038 0.59237 0.08769 0.0
C177 C 0.72264 0.62672 0.14936 0.0
C178 C 0.71654 0.63028 0.23855 0.0
Tb179 Tb 0.5551 0.55592 0.05321 0.0
N180 N 0.61807 0.57311 0.01539 0.0
C181 C 0.69398 0.60438 0.98345 0.0
C182 C 0.6216 0.57095 0.92824 0.0
C183 C 0.6597 0.58607 0.91058 0.0
H184 H 0.56483 0.58122 0.28446 0.0
H185 H 0.66238 0.58411 0.84109 0.0
H186 H 0.50484 0.42769 0.71531 0.0
H187 H 0.41177 0.41741 0.15744 0.0
H188 H 0.59469 0.55835 0.87317 0.0
H189 H 0.7234 0.61621 0.9697 0.0
H190 H 0.47676 0.44828 0.1273 0.0
H191 H 0.62224 0.61189 0.41999 0.0
H192 H 0.75299 0.63881 0.13988 0.0
H193 H 0.74229 0.64512 0.29651 0.0
H194 H 0.44732 0.39732 0.58041 0.0
H195 H 0.69392 0.63458 0.40123 0.0
H196 H 0.35177 0.3831 0.02805 0.0
N197 N 0.46544 0.42521 0.81303 0.0
C198 C 0.42667 0.41085 0.82438 0.0
C199 C 0.44105 0.40153 0.64884 0.0
C200 C 0.39366 0.39128 0.74802 0.0
C201 C 0.47337 0.41964 0.72624 0.0
C202 C 0.40098 0.38752 0.65974 0.0
N203 N 0.45284 0.43365 0.98525 0.0
C204 C 0.45005 0.43485 0.07202 0.0
C205 C 0.38281 0.39631 0.92636 0.0
C206 C 0.42073 0.41407 0.9128 0.0
C207 C 0.37984 0.39735 0.01533 0.0
C208 C 0.4136 0.41677 0.08856 0.0
H209 H 0.3764 0.37278 0.59936 0.0
H210 H 0.32941 0.35976 0.70381 0.0
H211 H 0.32031 0.36348 0.85974 0.0
O212 O 0.53129 0.41727 0.01665 0.0
O213 O 0.46325 0.48163 0.96539 0.0
O214 O 0.48997 0.53823 0.07333 0.0
O215 O 0.51558 0.39874 0.86928 0.0
O216 O 0.55054 0.47934 0.08992 0.0
O217 O 0.53266 0.53217 0.15104 0.0
O218 O 0.53572 0.58808 0.98114 0.0
O219 O 0.60735 0.52575 0.03076 0.0
O220 O 0.58173 0.46742 0.93227 0.0
O221 O 0.55564 0.60843 0.12803 0.0
O222 O 0.52034 0.52697 0.91003 0.0
O223 O 0.53913 0.47459 0.84994 0.0
C224 C 0.45764 0.51198 0.02199 0.0
C225 C 0.54794 0.36168 0.93317 0.0
C226 C 0.55677 0.30766 0.96141 0.0
C227 C 0.58514 0.30305 0.8998 0.0
C228 C 0.57649 0.35588 0.87265 0.0
C229 C 0.59477 0.32683 0.8562 0.0
C230 C 0.53797 0.33721 0.97712 0.0
C231 C 0.53989 0.50281 0.15837 0.0
C232 C 0.52418 0.39011 0.94081 0.0
C233 C 0.35501 0.37499 0.76177 0.0
C234 C 0.34979 0.37713 0.85056 0.0
C235 C 0.61345 0.49484 0.97902 0.0
C236 C 0.52149 0.6448 0.06537 0.0
C237 C 0.51357 0.69917 0.03866 0.0
C238 C 0.48719 0.70499 0.10438 0.0
C239 C 0.49488 0.65171 0.12992 0.0
C240 C 0.5309 0.66885 0.02006 0.0
C241 C 0.47803 0.68154 0.14914 0.0
C242 C 0.53214 0.50398 0.84253 0.0
C243 C 0.54461 0.61593 0.05569 0.0
H244 H 0.5987 0.28017 0.88173 0.0
H245 H 0.58379 0.3733 0.83587 0.0
H246 H 0.61586 0.32221 0.8074 0.0
H247 H 0.51476 0.34063 0.02137 0.0
H248 H 0.47497 0.72852 0.12471 0.0
H249 H 0.48819 0.63462 0.16785 0.0
H250 H 0.55272 0.66454 0.97271 0.0
H251 H 0.45855 0.68706 0.20109 0.0
H252 H 0.07206 0.51878 0.74848 0.0
C253 C 0.04098 0.50454 0.74906 0.0
H254 H 0.98014 0.47839 0.66811 0.0
H255 H 0.0682 0.5752 0.44167 0.0
H256 H 0.06397 0.62532 0.57273 0.0
H257 H 0.03822 0.61732 0.70702 0.0
H258 H 1.01792 0.55933 0.7119 0.0
C259 C 1.01159 0.49265 0.67022 0.0
C260 C 1.02187 0.49766 0.58294 0.0
C261 C 1.03191 0.53153 0.57809 0.0
C262 C 0.04414 0.53602 0.49749 0.0
C263 C 0.05647 0.57032 0.49843 0.0
C264 C 0.0546 0.59927 0.5736 0.0
C265 C 0.04038 0.59479 0.64948 0.0
C266 C 1.02921 0.56141 0.65197 0.0
H267 H 0.99328 0.48156 0.24917 0.0
C268 C 1.02338 0.49745 0.24943 0.0
H269 H 0.0829 0.52711 0.33121 0.0
H270 H 1.00284 0.42922 0.56402 0.0
H271 H 1.00951 0.37958 0.43505 0.0
H272 H 1.03355 0.38767 0.29932 0.0
H273 H 0.04983 0.44525 0.29077 0.0
C274 C 0.05238 0.51148 0.32946 0.0
C275 C 0.04357 0.50664 0.41793 0.0
C276 C 1.03465 0.47288 0.4237 0.0
C277 C 1.0229 0.46839 0.50471 0.0
C278 C 1.01318 0.43422 0.50606 0.0
C279 C 1.01673 0.40549 0.43231 0.0
C280 C 1.03003 0.41002 0.35567 0.0
C281 C 0.03883 0.4432 0.35107 0.0
H282 H 0.49338 0.01118 0.27444 0.0
C283 C 0.5249 0.00959 0.25981 0.0
H284 H 0.58514 0.00328 0.30975 0.0
H285 H 0.5729 0.06314 0.73276 0.0
H286 H 0.62418 0.11044 0.72369 0.0
H287 H 0.64004 0.11017 0.57396 0.0
H288 H 0.60411 0.06274 0.43202 0.0
C289 C 0.55385 0.00593 0.32345 0.0
C290 C 0.54449 0.00532 0.41456 0.0
C291 C 0.56663 0.03263 0.49769 0.0
C292 C 0.55845 0.03221 0.58476 0.0
C293 C 0.57921 0.06111 0.66541 0.0
C294 C 0.60845 0.08872 0.66113 0.0
C295 C 0.61731 0.08861 0.57681 0.0
C296 C 0.59654 0.06112 0.49584 0.0
H297 H 0.58316 1.00223 0.73269 0.0
C298 C 0.55107 1.00129 0.74595 0.0
H299 H 0.48873 0.00243 0.69325 0.0
H300 H 0.49884 0.94707 0.27059 0.0
H301 H 0.44775 0.89959 0.27951 0.0
H302 H 0.43327 0.89899 0.42948 0.0
H303 H 0.47006 0.94584 0.5717 0.0
C304 C 0.52071 0.00257 0.68087 0.0
C305 C 0.52921 0.0037 0.58952 0.0
C306 C 0.50693 0.97645 0.50625 0.0
C307 C 0.5148 0.97707 0.41914 0.0
C308 C 0.49326 0.94864 0.33814 0.0
C309 C 0.46403 0.92098 0.34228 0.0
C310 C 0.45592 0.92063 0.42674 0.0
C311 C 0.47718 0.94781 0.50792 0.0
H312 H 0.51212 0.52882 0.74408 0.0
C313 C 0.52868 0.50894 0.75109 0.0
H314 H 0.56282 0.47213 0.68565 0.0
H315 H 0.48628 0.45025 0.27309 0.0
H316 H 0.4627 0.39288 0.27821 0.0
H317 H 0.47667 0.38258 0.42388 0.0
H318 H 0.51318 0.42987 0.56513 0.0
C319 C 0.54609 0.49199 0.67933 0.0
C320 C 0.54166 0.49812 0.58811 0.0
C321 C 0.52267 0.46992 0.50384 0.0
C322 C 0.5167 0.47543 0.41793 0.0
C323 C 0.49406 0.44716 0.33805 0.0
C324 C 0.47984 0.41413 0.34047 0.0
C325 C 0.4875 0.40839 0.42253 0.0
C326 C 0.50845 0.43585 0.50334 0.0
H327 H 0.56058 0.47801 0.25647 0.0
C328 C 0.54405 0.49797 0.25001 0.0
H329 H 0.51045 0.53501 0.31665 0.0
H330 H 0.58723 0.55668 0.72861 0.0
H331 H 0.61067 0.61413 0.72375 0.0
H332 H 0.59655 0.62449 0.5782 0.0
H333 H 0.56008 0.57716 0.43681 0.0
C334 C 0.52714 0.51508 0.3225 0.0
C335 C 0.53183 0.50889 0.41366 0.0
C336 C 0.55081 0.53709 0.49798 0.0
C337 C 0.55681 0.53156 0.58385 0.0
C338 C 0.57943 0.55982 0.66375 0.0
C339 C 0.59356 0.59288 0.66145 0.0
C340 C 0.58582 0.59865 0.57944 0.0
C341 C 0.56493 0.57118 0.49858 0.0
H342 H 0.16214 0.4668 0.93998 0.0
C343 C 0.1599 0.49066 0.99354 0.0
H344 H 0.19599 0.53857 0.09163 0.0
H345 H 0.35795 0.46035 0.07578 0.0
H346 H 0.3175 0.42279 0.14024 0.0
H347 H 0.24263 0.42366 0.149 0.0
H348 H 0.20779 0.46269 0.09628 0.0
C349 C 0.19749 0.5138 0.04085 0.0
C350 C 0.24213 0.50867 0.02205 0.0
C351 C 0.26249 0.48505 0.05034 0.0
C352 C 0.30607 0.48362 0.04239 0.0
C353 C 0.325 0.46109 0.07633 0.0
C354 C 0.30224 0.43976 0.11419 0.0
C355 C 0.26009 0.4404 0.11961 0.0
C356 C 0.24042 0.4629 0.08891 0.0
H357 H 0.41205 0.53818 0.10046 0.0
C358 C 0.41297 0.51703 0.03789 0.0
H359 H 0.37451 0.47782 0.91767 0.0
H360 H 0.21646 0.55741 0.96169 0.0
H361 H 0.25687 0.59408 0.8957 0.0
H362 H 0.32998 0.58976 0.87598 0.0
H363 H 0.3639 0.54907 0.92399 0.0
C364 C 0.37447 0.49869 0.98152 0.0
C365 C 0.33032 0.50467 0.0028 0.0
C366 C 0.30982 0.52811 0.97379 0.0
C367 C 0.26669 0.53045 0.9846 0.0
C368 C 0.24858 0.55463 0.9557 0.0
C369 C 0.27139 0.57574 0.91731 0.0
C370 C 0.3126 0.57328 0.90617 0.0
C371 C 0.33169 0.5498 0.9338 0.0
H372 H 0.78178 0.15889 0.97519 0.0
C373 C 0.74905 0.1601 0.98106 0.0
H374 H 0.70144 0.1878 0.9726 0.0
H375 H 0.85257 0.31874 0.18191 0.0
H376 H 0.80864 0.32019 0.29721 0.0
H377 H 0.7426 0.27541 0.26183 0.0
H378 H 0.72076 0.22866 0.11309 0.0
C379 C 0.73324 0.18511 0.96166 0.0
C380 C 0.76441 0.21678 0.97018 0.0
C381 C 0.77495 0.24532 0.05565 0.0
C382 C 0.81197 0.27188 0.07486 0.0
C383 C 0.82381 0.29863 0.16313 0.0
C384 C 0.79906 0.29964 0.22989 0.0
C385 C 0.76198 0.27438 0.21012 0.0
C386 C 0.74987 0.24754 0.12422 0.0
H387 H 0.82222 0.33159 0.01761 0.0
C388 C 0.85423 0.32962 0.00656 0.0
H389 H 0.89982 0.29922 0.00123 0.0
H390 H 0.75002 0.16753 0.79754 0.0
H391 H 0.79356 0.16603 0.68163 0.0
H392 H 0.85749 0.2125 0.71345 0.0
H393 H 0.8781 0.2606 0.85977 0.0
C394 C 0.86885 0.30262 0.01689 0.0
C395 C 0.8367 0.2711 0.00649 0.0
C396 C 0.82573 0.24278 0.92033 0.0
C397 C 0.78928 0.21574 0.90209 0.0
C398 C 0.77808 0.18824 0.81506 0.0
C399 C 0.80258 0.18721 0.74793 0.0
C400 C 0.83849 0.21341 0.76576 0.0
C401 C 0.84997 0.24099 0.85049 0.0
H402 H 0.497 0.90401 0.95947 0.0
C403 C 0.53101 0.91251 0.96878 0.0
H404 H 0.5903 0.89896 0.98537 0.0
H405 H 0.55125 0.78315 0.15113 0.0
H406 H 0.59207 0.83168 0.28436 0.0
H407 H 0.60964 0.89093 0.27994 0.0
H408 H 0.58642 0.90193 0.14175 0.0
C409 C 0.55607 0.88992 0.97421 0.0
C410 C 0.54083 0.85408 0.97737 0.0
C411 C 0.55475 0.84759 0.0584 0.0
C412 C 0.54452 0.81318 0.06098 0.0
C413 C 0.55831 0.8083 0.14414 0.0
C414 C 0.58175 0.83606 0.22167 0.0
C415 C 0.59168 0.8694 0.21915 0.0
C416 C 0.57832 0.87528 0.13897 0.0
H417 H 0.55928 0.73075 0.98631 0.0
C418 C 0.52724 0.72704 0.99981 0.0
H419 H 0.47035 0.7454 0.99899 0.0
H420 H 0.5118 0.8557 0.80837 0.0
H421 H 0.47132 0.80687 0.67377 0.0
H422 H 0.45242 0.74781 0.67904 0.0
H423 H 0.47435 0.73702 0.81914 0.0
C424 C 0.50322 0.75007 0.99112 0.0
C425 C 0.52019 0.78471 0.98241 0.0
C426 C 0.50655 0.79113 0.90103 0.0
C427 C 0.51711 0.82557 0.89822 0.0
C428 C 0.50413 0.83046 0.81484 0.0
C429 C 0.48096 0.8026 0.73697 0.0
C430 C 0.47031 0.76932 0.73997 0.0
C431 C 0.48289 0.7635 0.82079 0.0
H432 H 0.90686 0.53916 0.00453 0.0
C433 C 0.9098 0.5127 0.99602 0.0
H434 H 0.87625 0.46332 0.98683 0.0
H435 H 0.72232 0.51465 0.171 0.0
H436 H 0.76869 0.51608 0.30597 0.0
H437 H 0.84216 0.50898 0.30112 0.0
H438 H 0.87026 0.5008 0.16108 0.0
C439 C 0.87355 0.48944 0.99114 0.0
C440 C 0.82906 0.49785 0.99644 0.0
C441 C 0.81211 0.50271 0.07827 0.0
C442 C 0.76897 0.50687 0.08114 0.0
C443 C 0.75435 0.51169 0.16474 0.0
C444 C 0.78062 0.51243 0.24281 0.0
C445 C 0.82202 0.50839 0.24002 0.0
C446 C 0.83771 0.50362 0.15911 0.0
H447 H 0.66025 0.46367 0.92297 0.0
C448 C 0.65839 0.48947 0.96778 0.0
H449 H 0.69512 0.53846 0.05789 0.0
H450 H 0.84772 0.48818 0.82746 0.0
H451 H 0.80143 0.48686 0.69205 0.0
H452 H 0.72833 0.49496 0.69733 0.0
H453 H 0.70042 0.50402 0.83785 0.0
C454 C 0.69622 0.51317 0.00949 0.0
C455 C 0.74103 0.50568 0.00187 0.0
C456 C 0.75799 0.50091 0.91992 0.0
C457 C 0.80128 0.49687 0.91723 0.0
C458 C 0.81584 0.49163 0.83359 0.0
C459 C 0.78959 0.49086 0.75541 0.0
C460 C 0.74836 0.49539 0.7584 0.0
C461 C 0.73265 0.50047 0.83942 0.0
H462 H 0.25139 0.68035 0.98957 0.0
C463 C 0.21924 0.68271 0.9984 0.0
H464 H 0.17437 0.71366 0.00146 0.0
H465 H 0.3298 0.84131 0.20443 0.0
H466 H 0.2905 0.84144 0.32693 0.0
H467 H 0.2254 0.79633 0.29753 0.0
H468 H 0.19987 0.7506 0.14761 0.0
C469 C 0.20525 0.70966 0.9863 0.0
C470 C 0.2378 0.74069 0.99606 0.0
C471 C 0.25084 0.76822 0.08347 0.0
C472 C 0.28733 0.7949 0.09979 0.0
C473 C 0.30134 0.82111 0.18854 0.0
C474 C 0.27928 0.82134 0.2592 0.0
C475 C 0.24273 0.79587 0.24276 0.0
C476 C 0.2285 0.76961 0.15614 0.0
H477 H 0.28384 0.85002 0.02392 0.0
C478 C 0.31697 0.85176 0.01729 0.0
H479 H 0.36869 0.82744 0.01945 0.0
H480 H 0.21897 0.69329 0.81986 0.0
H481 H 0.25877 0.6933 0.6985 0.0
H482 H 0.32299 0.73926 0.72782 0.0
H483 H 0.34736 0.78562 0.87736 0.0
C484 C 0.33679 0.82794 0.03304 0.0
C485 C 0.30913 0.79508 0.02761 0.0
C486 C 0.29675 0.7672 0.941 0.0
C487 C 0.2605 0.74027 0.92472 0.0
C488 C 0.24713 0.71381 0.83618 0.0
C489 C 0.26949 0.71365 0.76598 0.0
C490 C 0.30555 0.73959 0.78235 0.0
C491 C 0.31911 0.76615 0.86857 0.0
H492 H 0.51029 0.2744 0.00804 0.0
C493 C 0.54295 0.27931 0.99876 0.0
H494 H 0.60122 0.26321 0.00754 0.0
H495 H 0.55738 0.15203 0.19557 0.0
H496 H 0.59211 0.20192 0.33352 0.0
H497 H 0.60921 0.26117 0.32878 0.0
H498 H 0.59119 0.27111 0.18584 0.0
C499 C 0.5679 0.25734 0.01137 0.0
C500 C 0.55174 0.22226 0.01875 0.0
C501 C 0.56318 0.21634 0.10189 0.0
C502 C 0.55367 0.18178 0.10449 0.0
C503 C 0.56434 0.17737 0.18941 0.0
C504 C 0.58422 0.20582 0.26913 0.0
C505 C 0.59386 0.23921 0.26643 0.0
C506 C 0.58355 0.24456 0.18402 0.0
H507 H 0.57833 0.10362 0.04733 0.0
C508 C 0.5441 0.09463 0.03494 0.0
H509 H 0.4843 0.10666 0.01127 0.0
H510 H 0.52564 0.22275 0.84664 0.0
H511 H 0.4904 0.17318 0.70999 0.0
H512 H 0.47459 0.11381 0.71412 0.0
H513 H 0.49402 0.10369 0.85544 0.0
C514 C 0.5185 0.11653 0.02607 0.0
C515 C 0.53322 0.15263 0.02352 0.0
C516 C 0.52153 0.15863 0.94066 0.0
C517 C 0.53072 0.19314 0.93822 0.0
C518 C 0.51924 0.19752 0.8534 0.0
C519 C 0.499 0.16918 0.77398 0.0
C520 C 0.49006 0.13577 0.77634 0.0
C521 C 0.50121 0.13038 0.85824 0.0
loop_
_geom_bond_atom_site_label_1
_geom_bond_atom_site_label_2
_geom_bond_distance
_geom_bond_site_symmetry_2
_ccdc_geom_bond_type
Tb0 N29 2.617 1_455 S
Tb0 N35 2.572 1_455 S
Tb0 O44 2.465 1_554 S
Tb0 O45 2.387 1_455 S
Tb0 O47 2.428 . S
Tb0 O48 2.307 1_454 S
Tb0 O52 2.349 . S
Tb0 O55 2.393 . S
Tb0 C64 2.802 . S
C1 N2 1.379 . S
C1 C4 1.416 . S
C1 C8 1.424 . S
N2 C1 1.379 . S
N2 C5 1.334 1_455 S
N2 Tb11 2.617 1_455 S
C3 C5 1.390 1_455 S
C3 C6 1.339 . S
C3 H23 0.930 . S
C4 C1 1.416 . S
C4 C6 1.416 . S
C4 C10 1.448 . S
C5 N2 1.334 1_655 S
C5 C3 1.390 1_655 S
C5 H16 0.930 . S
C6 C3 1.339 . S
C6 C4 1.416 . S
C6 H27 0.930 . S
C7 C8 1.413 . S
C7 C9 1.427 . S
C7 C13 1.416 1_556 S
C8 C1 1.424 . S
C8 C7 1.413 . S
C8 N12 1.361 . S
C9 C7 1.427 . S
C9 C10 1.328 . S
C9 H24 0.929 . S
C10 C4 1.448 . S
C10 C9 1.328 . S
C10 H25 0.930 . S
Tb11 N2 2.617 1_655 S
Tb11 N12 2.572 1_655 S
Tb11 O46 2.349 . S
Tb11 O49 2.393 . S
Tb11 O50 2.465 1_556 S
Tb11 O51 2.387 1_655 S
Tb11 O53 2.428 . S
Tb11 O54 2.308 1_656 S
Tb11 C75 2.802 . S
N12 C8 1.361 . S
N12 Tb11 2.572 1_455 S
N12 C14 1.340 1_556 S
C13 C7 1.416 1_554 S
C13 C15 1.332 . S
C13 H21 0.931 . S
C14 N12 1.340 1_554 S
C14 C15 1.407 . S
C14 H20 0.930 . S
C15 C13 1.332 . S
C15 C14 1.407 . S
C15 H17 0.929 . S
H16 C5 0.930 . S
H17 C15 0.929 . S
H18 C33 0.930 . S
H19 C40 0.929 . S
H20 C14 0.930 . S
H21 C13 0.931 . S
H22 C36 0.930 . S
H23 C3 0.930 . S
H24 C9 0.929 . S
H25 C10 0.930 . S
H26 C31 0.930 . S
H27 C6 0.930 . S
H28 C39 0.931 . S
N29 Tb0 2.617 1_655 S
N29 C30 1.379 . S
N29 C33 1.334 1_655 S
C30 N29 1.379 . S
C30 C32 1.416 . S
C30 C38 1.424 . S
C31 H26 0.930 . S
C31 C33 1.390 1_655 S
C31 C34 1.339 . S
C32 C30 1.416 . S
C32 C34 1.416 . S
C32 C65 1.448 . S
C33 H18 0.930 . S
C33 N29 1.334 1_455 S
C33 C31 1.390 1_455 S
C34 C31 1.339 . S
C34 C32 1.416 . S
C34 H41 0.930 . S
N35 Tb0 2.572 1_655 S
N35 C36 1.340 1_554 S
N35 C38 1.361 . S
C36 H22 0.930 . S
C36 N35 1.340 1_556 S
C36 C40 1.407 . S
C37 C38 1.413 . S
C37 C39 1.416 1_554 S
C37 C66 1.427 . S
C38 C30 1.424 . S
C38 N35 1.361 . S
C38 C37 1.413 . S
C39 H28 0.931 . S
C39 C37 1.416 1_556 S
C39 C40 1.332 . S
C40 H19 0.929 . S
C40 C36 1.407 . S
C40 C39 1.332 . S
H41 C34 0.930 . S
H42 C65 0.930 . S
H43 C66 0.929 . S
O44 Tb0 2.465 1_556 S
O44 C64 1.264 1_556 S
O45 Tb0 2.387 1_655 S
O45 C56 1.264 1_554 S
O46 Tb11 2.349 . S
O46 C56 1.243 . S
O47 Tb0 2.428 . S
O47 C64 1.256 . S
O48 Tb0 2.307 1_656 S
O48 C63 1.264 . S
O49 Tb11 2.393 . S
O49 C63 1.248 . S
O50 Tb11 2.465 1_554 S
O50 C75 1.264 1_554 S
O51 Tb11 2.387 1_455 S
O51 C67 1.264 1_556 S
O52 Tb0 2.349 . S
O52 C67 1.243 . S
O53 Tb11 2.428 . S
O53 C75 1.256 . S
O54 Tb11 2.308 1_454 S
O54 C74 1.266 . S
O55 Tb0 2.393 . S
O55 C74 1.248 . S
C56 O45 1.264 1_556 S
C56 O46 1.243 . S
C57 C60 1.399 . S
C57 C62 1.383 . S
C57 C64 1.496 . S
C58 C59 1.399 . S
C58 C62 1.389 . S
C59 C58 1.399 . S
C59 C61 1.380 . S
C59 H76 0.929 . S
C60 C57 1.399 . S
C60 C61 1.392 . S
C60 H77 0.929 . S
C61 C59 1.380 . S
C61 C60 1.392 . S
C61 H78 0.929 . S
C62 C57 1.383 . S
C62 C58 1.389 . S
C62 H79 0.931 1_554 S
C63 O48 1.264 . S
C63 O49 1.248 . S
C64 Tb0 2.802 . S
C64 O44 1.264 1_554 S
C64 O47 1.256 . S
C64 C57 1.496 . S
C65 C32 1.448 . S
C65 H42 0.930 . S
C65 C66 1.328 . S
C66 C37 1.427 . S
C66 H43 0.929 . S
C66 C65 1.328 . S
C67 O51 1.264 1_554 S
C67 O52 1.243 . S
C68 C71 1.399 . S
C68 C72 1.383 . S
C68 C75 1.496 . S
C69 C70 1.399 . S
C69 C72 1.389 . S
C70 C69 1.399 . S
C70 C73 1.380 . S
C70 H80 0.929 . S
C71 C68 1.399 . S
C71 C73 1.392 . S
C71 H81 0.929 . S
C72 C68 1.383 . S
C72 C69 1.389 . S
C72 H82 0.931 1_556 S
C73 C70 1.380 . S
C73 C71 1.392 . S
C73 H83 0.929 . S
C74 O54 1.266 . S
C74 O55 1.248 . S
C75 Tb11 2.802 . S
C75 O50 1.264 1_556 S
C75 O53 1.256 . S
C75 C68 1.496 . S
H76 C59 0.929 . S
H77 C60 0.929 . S
H78 C61 0.929 . S
H79 C62 0.931 1_556 S
H80 C70 0.929 . S
H81 C71 0.929 . S
H82 C72 0.931 1_554 S
H83 C73 0.929 . S
Tb84 N113 2.617 . S
Tb84 N119 2.572 1_566 S
Tb84 O128 2.465 1_556 S
Tb84 O129 2.387 1_565 S
Tb84 O131 2.428 . S
Tb84 O132 2.308 1_566 S
Tb84 O136 2.349 . S
Tb84 O139 2.393 . S
Tb84 C148 2.802 . S
C85 N86 1.379 1_565 S
C85 C88 1.416 . S
C85 C92 1.424 . S
N86 C85 1.379 1_545 S
N86 C89 1.334 . S
N86 Tb95 2.617 . S
C87 C89 1.390 . S
C87 C90 1.339 1_545 S
C87 H107 0.930 . S
C88 C85 1.416 . S
C88 C90 1.416 . S
C88 C94 1.448 . S
C89 N86 1.334 . S
C89 C87 1.390 . S
C89 H100 0.930 . S
C90 C87 1.339 1_565 S
C90 C88 1.416 . S
C90 H111 0.930 . S
C91 C92 1.413 1_556 S
C91 C93 1.427 1_556 S
C91 C97 1.416 . S
C92 C85 1.424 . S
C92 C91 1.413 1_554 S
C92 N96 1.361 1_554 S
C93 C91 1.427 1_554 S
C93 C94 1.328 . S
C93 H108 0.929 . S
C94 C88 1.448 . S
C94 C93 1.328 . S
C94 H109 0.930 . S
Tb95 N86 2.617 . S
Tb95 N96 2.572 1_544 S
Tb95 O130 2.349 . S
Tb95 O133 2.393 . S
Tb95 O134 2.465 1_554 S
Tb95 O135 2.387 1_545 S
Tb95 O137 2.428 . S
Tb95 O138 2.308 1_544 S
Tb95 C159 2.802 . S
N96 C92 1.361 1_556 S
N96 Tb95 2.572 1_566 S
N96 C98 1.340 . S
C97 C91 1.416 . S
C97 C99 1.332 . S
C97 H105 0.931 . S
C98 N96 1.340 . S
C98 C99 1.407 . S
C98 H104 0.930 . S
C99 C97 1.332 . S
C99 C98 1.407 . S
C99 H101 0.929 . S
H100 C89 0.930 . S
H101 C99 0.929 . S
H102 C117 0.930 . S
H103 C124 0.929 . S
H104 C98 0.930 . S
H105 C97 0.931 . S
H106 C120 0.930 . S
H107 C87 0.930 . S
H108 C93 0.929 . S
H109 C94 0.930 . S
H110 C115 0.930 . S
H111 C90 0.930 . S
H112 C123 0.931 . S
N113 Tb84 2.617 . S
N113 C114 1.379 1_565 S
N113 C117 1.334 . S
C114 N113 1.379 1_545 S
C114 C116 1.416 . S
C114 C122 1.424 . S
C115 H110 0.930 . S
C115 C117 1.390 . S
C115 C118 1.339 1_565 S
C116 C114 1.416 . S
C116 C118 1.416 . S
C116 C149 1.448 . S
C117 H102 0.930 . S
C117 N113 1.334 . S
C117 C115 1.390 . S
C118 C115 1.339 1_545 S
C118 C116 1.416 . S
C118 H125 0.930 . S
N119 Tb84 2.572 1_544 S
N119 C120 1.340 . S
N119 C122 1.361 1_554 S
C120 H106 0.930 . S
C120 N119 1.340 . S
C120 C124 1.407 . S
C121 C122 1.413 1_554 S
C121 C123 1.416 . S
C121 C150 1.427 1_554 S
C122 C114 1.424 . S
C122 N119 1.361 1_556 S
C122 C121 1.413 1_556 S
C123 H112 0.931 . S
C123 C121 1.416 . S
C123 C124 1.332 . S
C124 H103 0.929 . S
C124 C120 1.407 . S
C124 C123 1.332 . S
H125 C118 0.930 . S
H126 C149 0.930 . S
H127 C150 0.929 . S
O128 Tb84 2.465 1_554 S
O128 C148 1.264 1_554 S
O129 Tb84 2.387 1_545 S
O129 C140 1.264 1_556 S
O130 Tb95 2.349 . S
O130 C140 1.243 . S
O131 Tb84 2.428 . S
O131 C148 1.256 . S
O132 Tb84 2.308 1_544 S
O132 C147 1.266 . S
O133 Tb95 2.393 . S
O133 C147 1.248 . S
O134 Tb95 2.465 1_556 S
O134 C159 1.264 1_556 S
O135 Tb95 2.387 1_565 S
O135 C151 1.264 1_554 S
O136 Tb84 2.349 . S
O136 C151 1.243 . S
O137 Tb95 2.428 . S
O137 C159 1.256 . S
O138 Tb95 2.308 1_566 S
O138 C158 1.264 . S
O139 Tb84 2.393 . S
O139 C158 1.248 . S
C140 O129 1.264 1_554 S
C140 O130 1.243 . S
C141 C144 1.399 . S
C141 C146 1.383 1_556 S
C141 C148 1.496 . S
C142 C143 1.399 1_554 S
C142 C146 1.389 . S
C143 C142 1.399 1_556 S
C143 C145 1.380 . S
C143 H160 0.929 . S
C144 C141 1.399 . S
C144 C145 1.392 . S
C144 H161 0.929 . S
C145 C143 1.380 . S
C145 C144 1.392 . S
C145 H162 0.929 . S
C146 C141 1.383 1_554 S
C146 C142 1.389 . S
C146 H163 0.931 . S
C147 O132 1.266 . S
C147 O133 1.248 . S
C148 Tb84 2.802 . S
C148 O128 1.264 1_556 S
C148 O131 1.256 . S
C148 C141 1.496 . S
C149 C116 1.448 . S
C149 H126 0.930 . S
C149 C150 1.328 . S
C150 C121 1.427 1_556 S
C150 H127 0.929 . S
C150 C149 1.328 . S
C151 O135 1.264 1_556 S
C151 O136 1.243 . S
C152 C155 1.399 . S
C152 C156 1.383 1_554 S
C152 C159 1.496 . S
C153 C154 1.399 1_556 S
C153 C156 1.389 . S
C154 C153 1.399 1_554 S
C154 C157 1.380 . S
C154 H164 0.929 . S
C155 C152 1.399 . S
C155 C157 1.392 . S
C155 H165 0.929 . S
C156 C152 1.383 1_556 S
C156 C153 1.389 . S
C156 H166 0.931 . S
C157 C154 1.380 . S
C157 C155 1.392 . S
C157 H167 0.929 . S
C158 O138 1.264 . S
C158 O139 1.248 . S
C159 Tb95 2.802 . S
C159 O134 1.264 1_554 S
C159 O137 1.256 . S
C159 C152 1.496 . S
H160 C143 0.929 . S
H161 C144 0.929 . S
H162 C145 0.929 . S
H163 C146 0.931 . S
H164 C154 0.929 . S
H165 C155 0.929 . S
H166 C156 0.931 . S
H167 C157 0.929 . S
Tb168 N197 2.617 . S
Tb168 N203 2.572 . S
Tb168 O212 2.465 1_556 S
Tb168 O213 2.387 . S
Tb168 O215 2.428 . S
Tb168 O216 2.308 1_556 S
Tb168 O220 2.349 . S
Tb168 O223 2.393 . S
Tb168 C232 2.802 . S
C169 N170 1.379 . S
C169 C172 1.416 . S
C169 C176 1.424 . S
N170 C169 1.379 . S
N170 C173 1.334 . S
N170 Tb179 2.617 . S
C171 C173 1.390 . S
C171 C174 1.339 . S
C171 H191 0.930 . S
C172 C169 1.416 . S
C172 C174 1.416 . S
C172 C178 1.448 . S
C173 N170 1.334 . S
C173 C171 1.390 . S
C173 H184 0.930 . S
C174 C171 1.339 . S
C174 C172 1.416 . S
C174 H195 0.930 . S
C175 C176 1.413 . S
C175 C177 1.427 . S
C175 C181 1.416 1_554 S
C176 C169 1.424 . S
C176 C175 1.413 . S
C176 N180 1.361 . S
C177 C175 1.427 . S
C177 C178 1.328 . S
C177 H192 0.929 . S
C178 C172 1.448 . S
C178 C177 1.328 . S
C178 H193 0.930 . S
Tb179 N170 2.617 . S
Tb179 N180 2.572 . S
Tb179 O214 2.349 . S
Tb179 O217 2.393 . S
Tb179 O218 2.465 1_554 S
Tb179 O219 2.387 . S
Tb179 O221 2.428 . S
Tb179 O222 2.308 1_554 S
Tb179 C243 2.802 . S
N180 C176 1.361 . S
N180 Tb179 2.572 . S
N180 C182 1.340 1_554 S
C181 C175 1.416 1_556 S
C181 C183 1.332 . S
C181 H189 0.931 . S
C182 N180 1.340 1_556 S
C182 C183 1.407 . S
C182 H188 0.930 . S
C183 C181 1.332 . S
C183 C182 1.407 . S
C183 H185 0.929 . S
H184 C173 0.930 . S
H185 C183 0.929 . S
H186 C201 0.930 . S
H187 C208 0.929 . S
H188 C182 0.930 . S
H189 C181 0.931 . S
H190 C204 0.930 . S
H191 C171 0.930 . S
H192 C177 0.929 . S
H193 C178 0.930 . S
H194 C199 0.930 . S
H195 C174 0.930 . S
H196 C207 0.931 . S
N197 Tb168 2.617 . S
N197 C198 1.379 . S
N197 C201 1.334 . S
C198 N197 1.379 . S
C198 C200 1.416 . S
C198 C206 1.424 . S
C199 H194 0.930 . S
C199 C201 1.390 . S
C199 C202 1.339 . S
C200 C198 1.416 . S
C200 C202 1.416 . S
C200 C233 1.448 . S
C201 H186 0.930 . S
C201 N197 1.334 . S
C201 C199 1.390 . S
C202 C199 1.339 . S
C202 C200 1.416 . S
C202 H209 0.930 . S
N203 Tb168 2.572 . S
N203 C204 1.340 1_556 S
N203 C206 1.361 . S
C204 H190 0.930 . S
C204 N203 1.340 1_554 S
C204 C208 1.407 . S
C205 C206 1.413 . S
C205 C207 1.416 1_556 S
C205 C234 1.427 . S
C206 C198 1.424 . S
C206 N203 1.361 . S
C206 C205 1.413 . S
C207 H196 0.931 . S
C207 C205 1.416 1_554 S
C207 C208 1.332 . S
C208 H187 0.929 . S
C208 C204 1.407 . S
C208 C207 1.332 . S
H209 C202 0.930 . S
H210 C233 0.930 . S
H211 C234 0.929 . S
O212 Tb168 2.465 1_554 S
O212 C232 1.264 1_554 S
O213 Tb168 2.387 . S
O213 C224 1.264 . S
O214 Tb179 2.349 . S
O214 C224 1.243 1_554 S
O215 Tb168 2.428 . S
O215 C232 1.256 . S
O216 Tb168 2.308 1_554 S
O216 C231 1.266 . S
O217 Tb179 2.393 . S
O217 C231 1.248 . S
O218 Tb179 2.465 1_556 S
O218 C243 1.264 1_556 S
O219 Tb179 2.387 . S
O219 C235 1.264 . S
O220 Tb168 2.349 . S
O220 C235 1.243 1_556 S
O221 Tb179 2.428 . S
O221 C243 1.256 . S
O222 Tb179 2.308 1_556 S
O222 C242 1.266 . S
O223 Tb168 2.393 . S
O223 C242 1.248 . S
C224 O213 1.264 . S
C224 O214 1.243 1_556 S
C225 C228 1.399 . S
C225 C230 1.375 1_556 S
C225 C232 1.496 . S
C226 C227 1.399 . S
C226 C230 1.391 1_556 S
C227 C226 1.399 . S
C227 C229 1.380 . S
C227 H244 0.929 . S
C228 C225 1.399 . S
C228 C229 1.392 . S
C228 H245 0.929 . S
C229 C227 1.380 . S
C229 C228 1.392 . S
C229 H246 0.929 . S
C230 C225 1.375 1_554 S
C230 C226 1.391 1_554 S
C230 H247 0.937 . S
C231 O216 1.266 . S
C231 O217 1.248 . S
C232 Tb168 2.802 . S
C232 O212 1.264 1_556 S
C232 O215 1.256 . S
C232 C225 1.496 . S
C233 C200 1.448 . S
C233 H210 0.930 . S
C233 C234 1.328 . S
C234 C205 1.427 . S
C234 H211 0.929 . S
C234 C233 1.328 . S
C235 O219 1.264 . S
C235 O220 1.243 1_554 S
C236 C239 1.399 . S
C236 C240 1.390 . S
C236 C243 1.496 . S
C237 C238 1.399 . S
C237 C240 1.388 . S
C238 C237 1.399 . S
C238 C241 1.380 . S
C238 H248 0.929 . S
C239 C236 1.399 . S
C239 C241 1.392 . S
C239 H249 0.929 . S
C240 C236 1.390 . S
C240 C237 1.388 . S
C240 H250 0.925 1_554 S
C241 C238 1.380 . S
C241 C239 1.392 . S
C241 H251 0.929 . S
C242 O222 1.266 . S
C242 O223 1.248 . S
C243 Tb179 2.802 . S
C243 O218 1.264 1_554 S
C243 O221 1.256 . S
C243 C236 1.496 . S
H244 C227 0.929 . S
H245 C228 0.929 . S
H246 C229 0.929 . S
H247 C230 0.937 . S
H248 C238 0.929 . S
H249 C239 0.929 . S
H250 C240 0.925 1_556 S
H251 C241 0.929 . S
H252 C253 0.951 . S
C253 H252 0.951 . S
C253 C259 1.265 1_455 S
H254 C259 0.950 . S
H255 C263 0.949 . S
H256 C264 0.950 . S
H257 C265 0.951 . S
H258 C266 0.951 . S
C259 C253 1.265 1_655 S
C259 H254 0.950 . S
C259 C260 1.478 . S
C260 C259 1.478 . S
C260 C261 1.397 . S
C260 C277 1.394 . S
C261 C260 1.397 . S
C261 C262 1.438 1_655 S
C261 C266 1.429 . S
C262 C261 1.438 1_455 S
C262 C263 1.428 . S
C262 C275 1.394 . S
C263 H255 0.949 . S
C263 C262 1.428 . S
C263 C264 1.345 . S
C264 H256 0.950 . S
C264 C263 1.345 . S
C264 C265 1.424 1_455 S
C265 H257 0.951 . S
C265 C264 1.424 1_655 S
C265 C266 1.347 . S
C266 H258 0.951 . S
C266 C261 1.429 . S
C266 C265 1.347 . S
H267 C268 0.951 . S
C268 H267 0.951 . S
C268 C274 1.265 1_655 S
H269 C274 0.950 . S
H270 C278 0.949 . S
H271 C279 0.950 . S
H272 C280 0.951 . S
H273 C281 0.951 . S
C274 C268 1.265 1_455 S
C274 H269 0.950 . S
C274 C275 1.478 . S
C275 C262 1.394 . S
C275 C274 1.478 . S
C275 C276 1.397 . S
C276 C275 1.397 . S
C276 C277 1.438 1_455 S
C276 C281 1.429 . S
C277 C260 1.394 . S
C277 C276 1.438 1_655 S
C277 C278 1.428 . S
C278 H270 0.949 . S
C278 C277 1.428 . S
C278 C279 1.345 . S
C279 H271 0.950 . S
C279 C278 1.345 . S
C279 C280 1.424 1_655 S
C280 H272 0.951 . S
C280 C279 1.424 1_455 S
C280 C281 1.347 . S
C281 H273 0.951 . S
C281 C276 1.429 . S
C281 C280 1.347 . S
H282 C283 0.951 . S
C283 H282 0.951 . S
C283 C289 1.265 . S
H284 C289 0.950 . S
H285 C293 0.949 . S
H286 C294 0.950 . S
H287 C295 0.951 . S
H288 C296 0.951 . S
C289 C283 1.265 . S
C289 H284 0.950 . S
C289 C290 1.478 . S
C290 C289 1.478 . S
C290 C291 1.397 . S
C290 C307 1.394 1_545 S
C291 C290 1.397 . S
C291 C292 1.438 . S
C291 C296 1.429 . S
C292 C291 1.438 . S
C292 C293 1.428 . S
C292 C305 1.373 1_545 S
C293 H285 0.949 . S
C293 C292 1.428 . S
C293 C294 1.345 . S
C294 H286 0.950 . S
C294 C293 1.345 . S
C294 C295 1.424 . S
C295 H287 0.951 . S
C295 C294 1.424 . S
C295 C296 1.347 . S
C296 H288 0.951 . S
C296 C291 1.429 . S
C296 C295 1.347 . S
H297 C298 0.951 . S
C298 H297 0.951 . S
C298 C304 1.265 . S
H299 C304 0.950 . S
H300 C308 0.949 . S
H301 C309 0.950 . S
H302 C310 0.951 . S
H303 C311 0.951 . S
C304 C298 1.265 . S
C304 H299 0.950 . S
C304 C305 1.488 . S
C305 C292 1.373 1_565 S
C305 C304 1.488 . S
C305 C306 1.409 . S
C306 C305 1.409 . S
C306 C307 1.438 . S
C306 C311 1.429 . S
C307 C290 1.394 1_565 S
C307 C306 1.438 . S
C307 C308 1.428 . S
C308 H300 0.949 . S
C308 C307 1.428 . S
C308 C309 1.345 . S
C309 H301 0.950 . S
C309 C308 1.345 . S
C309 C310 1.424 . S
C310 H302 0.951 . S
C310 C309 1.424 . S
C310 C311 1.347 . S
C311 H303 0.951 . S
C311 C306 1.429 . S
C311 C310 1.347 . S
H312 C313 0.951 . S
C313 H312 0.951 . S
C313 C319 1.265 . S
H314 C319 0.950 . S
H315 C323 0.949 . S
H316 C324 0.950 . S
H317 C325 0.951 . S
H318 C326 0.951 . S
C319 C313 1.265 . S
C319 H314 0.950 . S
C319 C320 1.478 . S
C320 C319 1.478 . S
C320 C321 1.397 . S
C320 C337 1.394 . S
C321 C320 1.397 . S
C321 C322 1.438 . S
C321 C326 1.429 . S
C322 C321 1.438 . S
C322 C323 1.428 . S
C322 C335 1.394 . S
C323 H315 0.949 . S
C323 C322 1.428 . S
C323 C324 1.345 . S
C324 H316 0.950 . S
C324 C323 1.345 . S
C324 C325 1.424 . S
C325 H317 0.951 . S
C325 C324 1.424 . S
C325 C326 1.347 . S
C326 H318 0.951 . S
C326 C321 1.429 . S
C326 C325 1.347 . S
H327 C328 0.951 . S
C328 H327 0.951 . S
C328 C334 1.265 . S
H329 C334 0.950 . S
H330 C338 0.949 . S
H331 C339 0.950 . S
H332 C340 0.951 . S
H333 C341 0.951 . S
C334 C328 1.265 . S
C334 H329 0.950 . S
C334 C335 1.478 . S
C335 C322 1.394 . S
C335 C334 1.478 . S
C335 C336 1.397 . S
C336 C335 1.397 . S
C336 C337 1.438 . S
C336 C341 1.429 . S
C337 C320 1.394 . S
C337 C336 1.438 . S
C337 C338 1.428 . S
C338 H330 0.949 . S
C338 C337 1.428 . S
C338 C339 1.345 . S
C339 H331 0.950 . S
C339 C338 1.345 . S
C339 C340 1.424 . S
C340 H332 0.951 . S
C340 C339 1.424 . S
C340 C341 1.347 . S
C341 H333 0.951 . S
C341 C336 1.429 . S
C341 C340 1.347 . S
H342 C343 0.951 . S
C343 H342 0.951 . S
C343 C349 1.265 1_556 S
H344 C349 0.950 . S
H345 C353 0.949 . S
H346 C354 0.950 . S
H347 C355 0.951 . S
H348 C356 0.951 . S
C349 C343 1.265 1_554 S
C349 H344 0.950 . S
C349 C350 1.478 . S
C350 C349 1.478 . S
C350 C351 1.397 . S
C350 C367 1.394 1_554 S
C351 C350 1.397 . S
C351 C352 1.438 . S
C351 C356 1.429 . S
C352 C351 1.438 . S
C352 C353 1.428 . S
C352 C365 1.394 1_554 S
C353 H345 0.949 . S
C353 C352 1.428 . S
C353 C354 1.345 . S
C354 H346 0.950 . S
C354 C353 1.345 . S
C354 C355 1.424 . S
C355 H347 0.951 . S
C355 C354 1.424 . S
C355 C356 1.347 . S
C356 H348 0.951 . S
C356 C351 1.429 . S
C356 C355 1.347 . S
H357 C358 0.951 . S
C358 H357 0.951 . S
C358 C364 1.265 1_554 S
H359 C364 0.950 . S
H360 C368 0.949 . S
H361 C369 0.950 . S
H362 C370 0.951 . S
H363 C371 0.951 . S
C364 C358 1.265 1_556 S
C364 H359 0.950 . S
C364 C365 1.478 . S
C365 C352 1.394 1_556 S
C365 C364 1.478 . S
C365 C366 1.397 . S
C366 C365 1.397 . S
C366 C367 1.438 . S
C366 C371 1.429 . S
C367 C350 1.394 1_556 S
C367 C366 1.438 . S
C367 C368 1.428 . S
C368 H360 0.949 . S
C368 C367 1.428 . S
C368 C369 1.345 . S
C369 H361 0.950 . S
C369 C368 1.345 . S
C369 C370 1.424 . S
C370 H362 0.951 . S
C370 C369 1.424 . S
C370 C371 1.347 . S
C371 H363 0.951 . S
C371 C366 1.429 . S
C371 C370 1.347 . S
H372 C373 0.951 . S
C373 H372 0.951 . S
C373 C379 1.265 . S
H374 C379 0.950 . S
H375 C383 0.949 . S
H376 C384 0.950 . S
H377 C385 0.951 . S
H378 C386 0.951 . S
C379 C373 1.265 . S
C379 H374 0.950 . S
C379 C380 1.478 . S
C380 C379 1.478 . S
C380 C381 1.397 1_556 S
C380 C397 1.394 . S
C381 C380 1.397 1_554 S
C381 C382 1.438 . S
C381 C386 1.429 . S
C382 C381 1.438 . S
C382 C383 1.428 . S
C382 C395 1.393 1_554 S
C383 H375 0.949 . S
C383 C382 1.428 . S
C383 C384 1.345 . S
C384 H376 0.950 . S
C384 C383 1.345 . S
C384 C385 1.424 . S
C385 H377 0.951 . S
C385 C384 1.424 . S
C385 C386 1.347 . S
C386 H378 0.951 . S
C386 C381 1.429 . S
C386 C385 1.347 . S
H387 C388 0.951 . S
C388 H387 0.951 . S
C388 C394 1.265 . S
H389 C394 0.950 . S
H390 C398 0.949 . S
H391 C399 0.950 . S
H392 C400 0.951 . S
H393 C401 0.951 . S
C394 C388 1.265 . S
C394 H389 0.950 . S
C394 C395 1.479 1_554 S
C395 C382 1.393 1_556 S
C395 C394 1.479 1_556 S
C395 C396 1.398 . S
C396 C395 1.398 . S
C396 C397 1.438 . S
C396 C401 1.429 . S
C397 C380 1.394 . S
C397 C396 1.438 . S
C397 C398 1.428 . S
C398 H390 0.949 . S
C398 C397 1.428 . S
C398 C399 1.345 . S
C399 H391 0.950 . S
C399 C398 1.345 . S
C399 C400 1.424 . S
C400 H392 0.951 . S
C400 C399 1.424 . S
C400 C401 1.347 . S
C401 H393 0.951 . S
C401 C396 1.429 . S
C401 C400 1.347 . S
H402 C403 0.951 . S
C403 H402 0.951 . S
C403 C409 1.265 . S
H404 C409 0.950 . S
H405 C413 0.949 . S
H406 C414 0.950 . S
H407 C415 0.951 . S
H408 C416 0.951 . S
C409 C403 1.265 . S
C409 H404 0.950 . S
C409 C410 1.478 . S
C410 C409 1.478 . S
C410 C411 1.397 1_556 S
C410 C427 1.394 . S
C411 C410 1.397 1_554 S
C411 C412 1.438 . S
C411 C416 1.429 . S
C412 C411 1.438 . S
C412 C413 1.428 . S
C412 C425 1.394 1_554 S
C413 H405 0.949 . S
C413 C412 1.428 . S
C413 C414 1.345 . S
C414 H406 0.950 . S
C414 C413 1.345 . S
C414 C415 1.424 . S
C415 H407 0.951 . S
C415 C414 1.424 . S
C415 C416 1.347 . S
C416 H408 0.951 . S
C416 C411 1.429 . S
C416 C415 1.347 . S
H417 C418 0.951 . S
C418 H417 0.951 . S
C418 C424 1.265 . S
H419 C424 0.950 . S
H420 C428 0.949 . S
H421 C429 0.950 . S
H422 C430 0.951 . S
H423 C431 0.951 . S
C424 C418 1.265 . S
C424 H419 0.950 . S
C424 C425 1.478 . S
C425 C412 1.394 1_556 S
C425 C424 1.478 . S
C425 C426 1.397 . S
C426 C425 1.397 . S
C426 C427 1.438 . S
C426 C431 1.429 . S
C427 C410 1.394 . S
C427 C426 1.438 . S
C427 C428 1.428 . S
C428 H420 0.949 . S
C428 C427 1.428 . S
C428 C429 1.345 . S
C429 H421 0.950 . S
C429 C428 1.345 . S
C429 C430 1.424 . S
C430 H422 0.951 . S
C430 C429 1.424 . S
C430 C431 1.347 . S
C431 H423 0.951 . S
C431 C426 1.429 . S
C431 C430 1.347 . S
H432 C433 0.951 . S
C433 H432 0.951 . S
C433 C439 1.265 1_556 S
H434 C439 0.950 . S
H435 C443 0.949 . S
H436 C444 0.950 . S
H437 C445 0.951 . S
H438 C446 0.951 . S
C439 C433 1.265 1_554 S
C439 H434 0.950 . S
C439 C440 1.478 . S
C440 C439 1.478 . S
C440 C441 1.397 . S
C440 C457 1.394 1_554 S
C441 C440 1.397 . S
C441 C442 1.438 . S
C441 C446 1.429 . S
C442 C441 1.438 . S
C442 C443 1.428 . S
C442 C455 1.394 1_554 S
C443 H435 0.949 . S
C443 C442 1.428 . S
C443 C444 1.345 . S
C444 H436 0.950 . S
C444 C443 1.345 . S
C444 C445 1.424 . S
C445 H437 0.951 . S
C445 C444 1.424 . S
C445 C446 1.347 . S
C446 H438 0.951 . S
C446 C441 1.429 . S
C446 C445 1.347 . S
H447 C448 0.951 . S
C448 H447 0.951 . S
C448 C454 1.265 1_554 S
H449 C454 0.950 . S
H450 C458 0.949 . S
H451 C459 0.950 . S
H452 C460 0.951 . S
H453 C461 0.951 . S
C454 C448 1.265 1_556 S
C454 H449 0.950 . S
C454 C455 1.478 . S
C455 C442 1.394 1_556 S
C455 C454 1.478 . S
C455 C456 1.397 . S
C456 C455 1.397 . S
C456 C457 1.438 . S
C456 C461 1.429 . S
C457 C440 1.394 1_556 S
C457 C456 1.438 . S
C457 C458 1.428 . S
C458 H450 0.949 . S
C458 C457 1.428 . S
C458 C459 1.345 . S
C459 H451 0.950 . S
C459 C458 1.345 . S
C459 C460 1.424 . S
C460 H452 0.951 . S
C460 C459 1.424 . S
C460 C461 1.347 . S
C461 H453 0.951 . S
C461 C456 1.429 . S
C461 C460 1.347 . S
H462 C463 0.951 . S
C463 H462 0.951 . S
C463 C469 1.265 . S
H464 C469 0.950 1_554 S
H465 C473 0.949 . S
H466 C474 0.950 . S
H467 C475 0.951 . S
H468 C476 0.951 . S
C469 C463 1.265 . S
C469 H464 0.950 1_556 S
C469 C470 1.478 1_556 S
C470 C469 1.478 1_554 S
C470 C471 1.397 . S
C470 C487 1.394 1_554 S
C471 C470 1.397 . S
C471 C472 1.438 . S
C471 C476 1.429 . S
C472 C471 1.438 . S
C472 C473 1.428 . S
C472 C485 1.394 . S
C473 H465 0.949 . S
C473 C472 1.428 . S
C473 C474 1.345 . S
C474 H466 0.950 . S
C474 C473 1.345 . S
C474 C475 1.424 . S
C475 H467 0.951 . S
C475 C474 1.424 . S
C475 C476 1.347 . S
C476 H468 0.951 . S
C476 C471 1.429 . S
C476 C475 1.347 . S
H477 C478 0.951 . S
C478 H477 0.951 . S
C478 C484 1.265 . S
H479 C484 0.950 . S
H480 C488 0.949 . S
H481 C489 0.950 . S
H482 C490 0.951 . S
H483 C491 0.951 . S
C484 C478 1.265 . S
C484 H479 0.950 . S
C484 C485 1.478 . S
C485 C472 1.394 . S
C485 C484 1.478 . S
C485 C486 1.397 1_554 S
C486 C485 1.397 1_556 S
C486 C487 1.438 . S
C486 C491 1.429 . S
C487 C470 1.394 1_556 S
C487 C486 1.438 . S
C487 C488 1.428 . S
C488 H480 0.949 . S
C488 C487 1.428 . S
C488 C489 1.345 . S
C489 H481 0.950 . S
C489 C488 1.345 . S
C489 C490 1.424 . S
C490 H482 0.951 . S
C490 C489 1.424 . S
C490 C491 1.347 . S
C491 H483 0.951 . S
C491 C486 1.429 . S
C491 C490 1.347 . S
H492 C493 0.951 . S
C493 H492 0.951 . S
C493 C499 1.265 . S
H494 C499 0.950 . S
H495 C503 0.949 . S
H496 C504 0.950 . S
H497 C505 0.951 . S
H498 C506 0.951 . S
C499 C493 1.265 . S
C499 H494 0.950 . S
C499 C500 1.478 . S
C500 C499 1.478 . S
C500 C501 1.397 . S
C500 C517 1.394 1_554 S
C501 C500 1.397 . S
C501 C502 1.438 . S
C501 C506 1.429 . S
C502 C501 1.438 . S
C502 C503 1.428 . S
C502 C515 1.394 . S
C503 H495 0.949 . S
C503 C502 1.428 . S
C503 C504 1.345 . S
C504 H496 0.950 . S
C504 C503 1.345 . S
C504 C505 1.424 . S
C505 H497 0.951 . S
C505 C504 1.424 . S
C505 C506 1.347 . S
C506 H498 0.951 . S
C506 C501 1.429 . S
C506 C505 1.347 . S
H507 C508 0.951 . S
C508 H507 0.951 . S
C508 C514 1.265 . S
H509 C514 0.950 . S
H510 C518 0.949 . S
H511 C519 0.950 . S
H512 C520 0.951 . S
H513 C521 0.951 . S
C514 C508 1.265 . S
C514 H509 0.950 . S
C514 C515 1.478 . S
C515 C502 1.394 . S
C515 C514 1.478 . S
C515 C516 1.397 1_554 S
C516 C515 1.397 1_556 S
C516 C517 1.438 . S
C516 C521 1.429 . S
C517 C500 1.394 1_556 S
C517 C516 1.438 . S
C517 C518 1.428 . S
C518 H510 0.949 . S
C518 C517 1.428 . S
C518 C519 1.345 . S
C519 H511 0.950 . S
C519 C518 1.345 . S
C519 C520 1.424 . S
C520 H512 0.951 . S
C520 C519 1.424 . S
C520 C521 1.347 . S
C521 H513 0.951 . S
C521 C516 1.429 . S
C521 C520 1.347 . S
C253 C63 1.487 1_455 S
C268 C74 1.487 1_655 S
C283 C147 1.534 . S
C298 C158 1.534 . S
C313 C242 1.506 . S
C328 C231 1.506 . S
C343 C67 2.271 1_556 S
C358 C224 2.304 1_554 S
C373 C153 0.787 . S
C388 C69 0.798 1_554 S
C403 C151 1.565 . S
C418 C237 1.445 1_556 S
C433 C56 2.297 . S
C448 C235 2.307 . S
C463 C58 0.812 1_556 S
C478 C142 0.802 . S
C493 C226 1.439 1_554 S
C508 C140 1.567 . S
