# Generated by pormake.
# Topology sod-e, (6)-cn, num edge types: 1
# Building blocks:
#     Node 0, Type 0, BuildingBlock: OJICUG_clean_sbu_0, # of connection points: 6
#     Node 1, Type 0, BuildingBlock: OJICUG_clean_sbu_0, # of connection points: 6
#     Node 2, Type 0, BuildingBlock: OJICUG_clean_sbu_0, # of connection points: 6
#     Node 3, Type 0, BuildingBlock: OJICUG_clean_sbu_0, # of connection points: 6
#     Node 4, Type 0, BuildingBlock: OJICUG_clean_sbu_0, # of connection points: 6
#     Node 5, Type 0, BuildingBlock: OJICUG_clean_sbu_0, # of connection points: 6
#     Node 6, Type 0, BuildingBlock: OJICUG_clean_sbu_0, # of connection points: 6
#     Node 7, Type 0, BuildingBlock: OJICUG_clean_sbu_0, # of connection points: 6
#     Node 8, Type 0, BuildingBlock: OJICUG_clean_sbu_0, # of connection points: 6
#     Node 9, Type 0, BuildingBlock: OJICUG_clean_sbu_0, # of connection points: 6
#     Node 10, Type 0, BuildingBlock: OJICUG_clean_sbu_0, # of connection points: 6
#     Node 11, Type 0, BuildingBlock: OJICUG_clean_sbu_0, # of connection points: 6
#     Node 12, Type 0, BuildingBlock: OJICUG_clean_sbu_0, # of connection points: 6
#     Node 13, Type 0, BuildingBlock: OJICUG_clean_sbu_0, # of connection points: 6
#     Node 14, Type 0, BuildingBlock: OJICUG_clean_sbu_0, # of connection points: 6
#     Node 15, Type 0, BuildingBlock: OJICUG_clean_sbu_0, # of connection points: 6
#     Node 16, Type 0, BuildingBlock: OJICUG_clean_sbu_0, # of connection points: 6
#     Node 17, Type 0, BuildingBlock: OJICUG_clean_sbu_0, # of connection points: 6
#     Node 18, Type 0, BuildingBlock: OJICUG_clean_sbu_0, # of connection points: 6
#     Node 19, Type 0, BuildingBlock: OJICUG_clean_sbu_0, # of connection points: 6
#     Node 20, Type 0, BuildingBlock: OJICUG_clean_sbu_0, # of connection points: 6
#     Node 21, Type 0, BuildingBlock: OJICUG_clean_sbu_0, # of connection points: 6
#     Node 22, Type 0, BuildingBlock: OJICUG_clean_sbu_0, # of connection points: 6
#     Node 23, Type 0, BuildingBlock: OJICUG_clean_sbu_0, # of connection points: 6
#     Edge 24, Type (0, 0), BuildingBlock: EZIPEK_clean_linker_0, # of connection points: 2
#     Edge 25, Type (0, 0), BuildingBlock: EZIPEK_clean_linker_0, # of connection points: 2
#     Edge 26, Type (0, 0), BuildingBlock: EZIPEK_clean_linker_0, # of connection points: 2
#     Edge 27, Type (0, 0), BuildingBlock: EZIPEK_clean_linker_0, # of connection points: 2
#     Edge 28, Type (0, 0), BuildingBlock: EZIPEK_clean_linker_0, # of connection points: 2
#     Edge 29, Type (0, 0), BuildingBlock: EZIPEK_clean_linker_0, # of connection points: 2
#     Edge 30, Type (0, 0), BuildingBlock: EZIPEK_clean_linker_0, # of connection points: 2
#     Edge 31, Type (0, 0), BuildingBlock: EZIPEK_clean_linker_0, # of connection points: 2
#     Edge 32, Type (0, 0), BuildingBlock: EZIPEK_clean_linker_0, # of connection points: 2
#     Edge 33, Type (0, 0), BuildingBlock: EZIPEK_clean_linker_0, # of connection points: 2
#     Edge 34, Type (0, 0), BuildingBlock: EZIPEK_clean_linker_0, # of connection points: 2
#     Edge 35, Type (0, 0), BuildingBlock: EZIPEK_clean_linker_0, # of connection points: 2
#     Edge 36, Type (0, 0), BuildingBlock: EZIPEK_clean_linker_0, # of connection points: 2
#     Edge 37, Type (0, 0), BuildingBlock: EZIPEK_clean_linker_0, # of connection points: 2
#     Edge 38, Type (0, 0), BuildingBlock: EZIPEK_clean_linker_0, # of connection points: 2
#     Edge 39, Type (0, 0), BuildingBlock: EZIPEK_clean_linker_0, # of connection points: 2
#     Edge 40, Type (0, 0), BuildingBlock: EZIPEK_clean_linker_0, # of connection points: 2
#     Edge 41, Type (0, 0), BuildingBlock: EZIPEK_clean_linker_0, # of connection points: 2
#     Edge 42, Type (0, 0), BuildingBlock: EZIPEK_clean_linker_0, # of connection points: 2
#     Edge 43, Type (0, 0), BuildingBlock: EZIPEK_clean_linker_0, # of connection points: 2
#     Edge 44, Type (0, 0), BuildingBlock: EZIPEK_clean_linker_0, # of connection points: 2
#     Edge 45, Type (0, 0), BuildingBlock: EZIPEK_clean_linker_0, # of connection points: 2
#     Edge 46, Type (0, 0), BuildingBlock: EZIPEK_clean_linker_0, # of connection points: 2
#     Edge 47, Type (0, 0), BuildingBlock: EZIPEK_clean_linker_0, # of connection points: 2
#     Edge 48, Type (0, 0), BuildingBlock: EZIPEK_clean_linker_0, # of connection points: 2
#     Edge 49, Type (0, 0), BuildingBlock: EZIPEK_clean_linker_0, # of connection points: 2
#     Edge 50, Type (0, 0), BuildingBlock: EZIPEK_clean_linker_0, # of connection points: 2
#     Edge 51, Type (0, 0), BuildingBlock: EZIPEK_clean_linker_0, # of connection points: 2
#     Edge 52, Type (0, 0), BuildingBlock: EZIPEK_clean_linker_0, # of connection points: 2
#     Edge 53, Type (0, 0), BuildingBlock: EZIPEK_clean_linker_0, # of connection points: 2
#     Edge 54, Type (0, 0), BuildingBlock: EZIPEK_clean_linker_0, # of connection points: 2
#     Edge 55, Type (0, 0), BuildingBlock: EZIPEK_clean_linker_0, # of connection points: 2
#     Edge 56, Type (0, 0), BuildingBlock: EZIPEK_clean_linker_0, # of connection points: 2
#     Edge 57, Type (0, 0), BuildingBlock: EZIPEK_clean_linker_0, # of connection points: 2
#     Edge 58, Type (0, 0), BuildingBlock: EZIPEK_clean_linker_0, # of connection points: 2
#     Edge 59, Type (0, 0), BuildingBlock: EZIPEK_clean_linker_0, # of connection points: 2
#     Edge 60, Type (0, 0), BuildingBlock: EZIPEK_clean_linker_0, # of connection points: 2
#     Edge 61, Type (0, 0), BuildingBlock: EZIPEK_clean_linker_0, # of connection points: 2
#     Edge 62, Type (0, 0), BuildingBlock: EZIPEK_clean_linker_0, # of connection points: 2
#     Edge 63, Type (0, 0), BuildingBlock: EZIPEK_clean_linker_0, # of connection points: 2
#     Edge 64, Type (0, 0), BuildingBlock: EZIPEK_clean_linker_0, # of connection points: 2
#     Edge 65, Type (0, 0), BuildingBlock: EZIPEK_clean_linker_0, # of connection points: 2
#     Edge 66, Type (0, 0), BuildingBlock: EZIPEK_clean_linker_0, # of connection points: 2
#     Edge 67, Type (0, 0), BuildingBlock: EZIPEK_clean_linker_0, # of connection points: 2
#     Edge 68, Type (0, 0), BuildingBlock: EZIPEK_clean_linker_0, # of connection points: 2
#     Edge 69, Type (0, 0), BuildingBlock: EZIPEK_clean_linker_0, # of connection points: 2
#     Edge 70, Type (0, 0), BuildingBlock: EZIPEK_clean_linker_0, # of connection points: 2
#     Edge 71, Type (0, 0), BuildingBlock: EZIPEK_clean_linker_0, # of connection points: 2
#     Edge 72, Type (0, 0), BuildingBlock: EZIPEK_clean_linker_0, # of connection points: 2
#     Edge 73, Type (0, 0), BuildingBlock: EZIPEK_clean_linker_0, # of connection points: 2
#     Edge 74, Type (0, 0), BuildingBlock: EZIPEK_clean_linker_0, # of connection points: 2
#     Edge 75, Type (0, 0), BuildingBlock: EZIPEK_clean_linker_0, # of connection points: 2
#     Edge 76, Type (0, 0), BuildingBlock: EZIPEK_clean_linker_0, # of connection points: 2
#     Edge 77, Type (0, 0), BuildingBlock: EZIPEK_clean_linker_0, # of connection points: 2
#     Edge 78, Type (0, 0), BuildingBlock: EZIPEK_clean_linker_0, # of connection points: 2
#     Edge 79, Type (0, 0), BuildingBlock: EZIPEK_clean_linker_0, # of connection points: 2
#     Edge 80, Type (0, 0), BuildingBlock: EZIPEK_clean_linker_0, # of connection points: 2
#     Edge 81, Type (0, 0), BuildingBlock: EZIPEK_clean_linker_0, # of connection points: 2
#     Edge 82, Type (0, 0), BuildingBlock: EZIPEK_clean_linker_0, # of connection points: 2
#     Edge 83, Type (0, 0), BuildingBlock: EZIPEK_clean_linker_0, # of connection points: 2
#     Edge 84, Type (0, 0), BuildingBlock: EZIPEK_clean_linker_0, # of connection points: 2
#     Edge 85, Type (0, 0), BuildingBlock: EZIPEK_clean_linker_0, # of connection points: 2
#     Edge 86, Type (0, 0), BuildingBlock: EZIPEK_clean_linker_0, # of connection points: 2
#     Edge 87, Type (0, 0), BuildingBlock: EZIPEK_clean_linker_0, # of connection points: 2
#     Edge 88, Type (0, 0), BuildingBlock: EZIPEK_clean_linker_0, # of connection points: 2
#     Edge 89, Type (0, 0), BuildingBlock: EZIPEK_clean_linker_0, # of connection points: 2
#     Edge 90, Type (0, 0), BuildingBlock: EZIPEK_clean_linker_0, # of connection points: 2
#     Edge 91, Type (0, 0), BuildingBlock: EZIPEK_clean_linker_0, # of connection points: 2
#     Edge 92, Type (0, 0), BuildingBlock: EZIPEK_clean_linker_0, # of connection points: 2
#     Edge 93, Type (0, 0), BuildingBlock: EZIPEK_clean_linker_0, # of connection points: 2
#     Edge 94, Type (0, 0), BuildingBlock: EZIPEK_clean_linker_0, # of connection points: 2
#     Edge 95, Type (0, 0), BuildingBlock: EZIPEK_clean_linker_0, # of connection points: 2
# Relax obj value: 0.275
# Max RMSD: 0.220
# Mean RMSD: 0.220
data_MOF--net-sod-e--node1-OJICUG_clean_sbu_0--edge1-EZIPEK_clean_linker_0
_symmetry_space_group_name_H-M    P1
_symmetry_Int_Tables_number       1
_symmetry_cell_setting            triclinic
loop_
_symmetry_equiv_pos_as_xyz
'x, y, z'
_cell_length_a     39.397261
_cell_length_b     39.253134
_cell_length_c     39.166711
_cell_angle_alpha  89.999292
_cell_angle_beta   90.351244
_cell_angle_gamma 90.003757
loop_
_atom_site_label
_atom_site_type_symbol
_atom_site_fract_x
_atom_site_fract_y
_atom_site_fract_z
_atom_type_partial_charge
Sc0 Sc 0.01172 0.30328 0.31774 0.0
Sc1 Sc 0.0646 0.35085 0.37066 0.0
Sc2 Sc 0.97977 0.37181 0.36433 0.0
O3 O 0.01834 0.34153 0.35129 0.0
C4 C 0.96228 0.36201 0.28839 0.0
C5 C 0.07889 0.33672 0.29469 0.0
C6 C 0.04118 0.42342 0.35709 0.0
C7 C 0.06591 0.27312 0.3725 0.0
C8 C 0.94617 0.29823 0.35984 0.0
C9 C 0.01612 0.36795 0.43328 0.0
O10 O 0.97362 0.33149 0.28784 0.0
O11 O 0.08973 0.33445 0.32508 0.0
O12 O 0.01105 0.41671 0.36633 0.0
O13 O 0.04891 0.27053 0.34463 0.0
O14 O 0.94463 0.33028 0.3639 0.0
O15 O 0.04539 0.36783 0.41969 0.0
O16 O 0.97175 0.28247 0.34793 0.0
O17 O 0.06758 0.30087 0.38901 0.0
O18 O -0.0111 0.36304 0.41673 0.0
O19 O 0.0499 0.32551 0.28587 0.0
O20 O 0.96774 0.38248 0.31276 0.0
O21 O 0.06359 0.40107 0.35164 0.0
Sc22 Sc 0.67616 -0.01129 0.25867 0.0
Sc23 Sc 0.64222 0.94767 0.32836 0.0
Sc24 Sc 0.61737 0.02929 0.30957 0.0
O25 O 0.64588 -0.01102 0.29955 0.0
C26 C 0.69031 0.05745 0.29488 0.0
C27 C 0.71689 0.94444 0.31436 0.0
C28 C 0.63191 0.00875 0.38317 0.0
C29 C 0.63932 0.91941 0.25488 0.0
C30 C 0.61387 0.03366 0.23305 0.0
C31 C 0.56788 0.96685 0.32266 0.0
O32 O 0.70309 0.03035 0.28218 0.0
O33 O 0.69512 0.9496 0.33753 0.0
O34 O 0.63346 0.03249 0.36134 0.0
O35 O 0.64611 0.94682 0.23864 0.0
O36 O 0.59768 0.02728 0.25984 0.0
O37 O 0.58978 0.94391 0.31801 0.0
O38 O 0.64489 0.02514 0.22943 0.0
O39 O 0.65019 0.91445 0.28511 0.0
O40 O 0.5748 -0.00151 0.32399 0.0
O41 O 0.71189 0.95303 0.2832 0.0
O42 O 0.65844 0.06318 0.29533 0.0
O43 O 0.6321 0.97723 0.37476 0.0
Sc44 Sc 0.02722 0.68481 0.31139 0.0
Sc45 Sc -0.00437 0.6156 0.35679 0.0
Sc46 Sc 0.08144 0.63524 0.36288 0.0
O47 O 0.03454 0.64535 0.34366 0.0
C48 C 0.09594 0.65259 0.28674 0.0
C49 C 0.97625 0.62851 0.28031 0.0
C50 C 0.05772 0.56332 0.34764 0.0
C51 C 0.96169 0.68902 0.35659 0.0
C52 C 0.07788 0.71319 0.36926 0.0
C53 C 0.03424 0.61654 0.42534 0.0
O54 O 0.06693 0.66484 0.27964 0.0
O55 O 0.97981 0.60867 0.30565 0.0
O56 O 0.08125 0.58486 0.34423 0.0
O57 O 0.98566 0.70442 0.34123 0.0
O58 O 0.08375 0.68461 0.38283 0.0
O59 O 0.00682 0.62079 0.40912 0.0
O60 O 0.06181 0.71726 0.34109 0.0
O61 O 0.96105 0.65717 0.36186 0.0
O62 O 0.06335 0.61775 0.41176 0.0
O63 O -0.0091 0.65744 0.27879 0.0
O64 O 0.1069 0.65073 0.31717 0.0
O65 O 0.02692 0.57091 0.35377 0.0
Sc66 Sc 0.36679 0.90868 0.38176 0.0
Sc67 Sc 0.37153 -0.00353 0.38374 0.0
Sc68 Sc 0.31376 0.9576 0.32924 0.0
O69 O 0.35077 0.95402 0.3639 0.0
C70 C 0.36082 0.89515 0.30285 0.0
C71 C 0.43255 0.95259 0.36627 0.0
C72 C 0.35508 0.02285 0.30914 0.0
C73 C 0.36891 0.95141 0.44707 0.0
C74 C 0.28832 0.89505 0.37507 0.0
C75 C 0.29523 0.01183 0.38901 0.0
O76 O 0.37271 0.88836 0.33222 0.0
O77 O 0.41789 0.98115 0.36295 0.0
O78 O 0.34101 -0.0047 0.29946 0.0
O79 O 0.35708 0.92543 0.43242 0.0
O80 O 0.28254 0.9207 0.35602 0.0
O81 O 0.32389 0.01045 0.40407 0.0
O82 O 0.31799 0.88732 0.38461 0.0
O83 O 0.38683 0.97174 0.4301 0.0
O84 O 0.28867 -0.00265 0.36021 0.0
O85 O 0.41875 0.9262 0.37924 0.0
O86 O 0.33859 0.91854 0.29747 0.0
O87 O 0.36207 0.02873 0.3402 0.0
Sc88 Sc 0.01221 0.61332 0.63431 0.0
Sc89 Sc 0.92973 0.59559 0.61121 0.0
Sc90 Sc 0.94847 0.66214 0.66738 0.0
O91 O 0.96276 0.62421 0.63688 0.0
C92 C 0.00698 0.62976 0.70897 0.0
C93 C 0.98064 0.54454 0.6489 0.0
C94 C 0.89024 0.60655 0.67924 0.0
C95 C -0.0108 0.59563 0.56067 0.0
C96 C 0.01586 0.68833 0.62841 0.0
C97 C 0.90092 0.67182 0.60272 0.0
O98 O 0.02382 0.63589 0.68252 0.0
O99 O 0.95711 0.54963 0.62672 0.0
O100 O 0.90277 0.63601 0.6848 0.0
O101 O 0.00969 0.58993 0.58495 0.0
O102 O -0.00652 0.69205 0.65187 0.0
O103 O 0.89996 0.63984 0.59653 0.0
O104 O 0.01986 0.6608 0.61201 0.0
O105 O 0.95807 0.60183 0.56545 0.0
O106 O 0.9197 0.68507 0.62597 0.0
O107 O 0.00203 0.56682 0.65808 0.0
O108 O 0.97559 0.63731 0.70973 0.0
O109 O 0.89924 0.58801 0.65452 0.0
Sc110 Sc 0.33001 0.9592 0.61994 0.0
Sc111 Sc 0.32797 0.04628 0.62191 0.0
Sc112 Sc 0.31231 0.00132 0.69616 0.0
O113 O 0.32386 0.00173 0.64658 0.0
C114 C 0.26979 0.93966 0.67023 0.0
C115 C 0.30071 -0.0002 0.56221 0.0
C116 C 0.26414 0.05878 0.66194 0.0
C117 C 0.39094 0.00853 0.59808 0.0
C118 C 0.36396 0.93784 0.68824 0.0
C119 C 0.35914 0.06397 0.69213 0.0
O120 O 0.28994 0.93408 0.64569 0.0
O121 O 0.31605 0.02616 0.57258 0.0
O122 O 0.27666 0.04457 0.68879 0.0
O123 O 0.3734 0.98139 0.59354 0.0
O124 O 0.3461 0.95811 0.7064 0.0
O125 O 0.34215 0.07412 0.66665 0.0
O126 O 0.36371 0.93759 0.65592 0.0
O127 O 0.37956 0.03528 0.61221 0.0
O128 O 0.35453 0.03501 0.70578 0.0
O129 O 0.29365 0.97657 0.58322 0.0
O130 O 0.27089 0.96618 0.6889 0.0
O131 O 0.2767 0.05553 0.63237 0.0
Sc132 Sc 0.96707 0.28934 0.65751 0.0
Sc133 Sc 0.02055 0.35546 0.63753 0.0
Sc134 Sc 0.93412 0.36725 0.6314 0.0
O135 O 0.9734 0.3369 0.64114 0.0
C136 C 0.91073 0.29556 0.60116 0.0
C137 C 0.03436 0.28677 0.60926 0.0
C138 C 0.98428 0.38586 0.57446 0.0
C139 C 0.02425 0.31719 0.70383 0.0
C140 C 0.90606 0.32873 0.69363 0.0
C141 C 0.98483 0.41286 0.67463 0.0
O142 O 0.93563 0.27806 0.61311 0.0
O143 O 0.03254 0.31805 0.6015 0.0
O144 O 0.95429 0.37728 0.58218 0.0
O145 O -0.00487 0.30325 0.7037 0.0
O146 O 0.91219 0.3571 0.67952 0.0
O147 O 0.00918 0.39195 0.67527 0.0
O148 O 0.92098 0.30105 0.68567 0.0
O149 O 0.03954 0.32222 0.67614 0.0
O150 O 0.95967 0.40996 0.65417 0.0
O151 O 0.0138 0.27289 0.63055 0.0
O152 O 0.90525 0.32654 0.60893 0.0
O153 O 0.00723 0.39008 0.59693 0.0
Sc154 Sc 0.59929 0.04821 0.59958 0.0
Sc155 Sc 0.60309 0.96177 0.58096 0.0
Sc156 Sc 0.66003 -0.00395 0.64083 0.0
O157 O 0.62073 0.00204 0.6077 0.0
C158 C 0.67788 0.06401 0.60104 0.0
C159 C 0.6077 0.01728 0.52512 0.0
C160 C 0.68013 0.94146 0.58495 0.0
C161 C 0.53531 0.00406 0.59061 0.0
C162 C 0.61497 0.05143 0.67941 0.0
C163 C 0.61 0.93319 0.65539 0.0
O164 O 0.64759 0.07043 0.59226 0.0
O165 O 0.61406 0.9871 0.53469 0.0
O166 O 0.68905 0.96436 0.60607 0.0
O167 O 0.54885 0.02939 0.60536 0.0
O168 O 0.63686 0.02761 0.67965 0.0
O169 O 0.59357 0.93514 0.62729 0.0
O170 O 0.5995 0.06131 0.6527 0.0
O171 O 0.55217 0.97989 0.57795 0.0
O172 O 0.63521 0.95222 0.66323 0.0
O173 O 0.59717 0.04064 0.54492 0.0
O174 O 0.68676 0.03899 0.61975 0.0
O175 O 0.64974 0.93609 0.57664 0.0
Sc176 Sc 0.35574 0.34786 0.95148 0.0
Sc177 Sc 0.32664 0.34801 0.03334 0.0
Sc178 Sc 0.28677 0.29741 0.97359 0.0
O179 O 0.32327 0.33075 0.98565 0.0
C180 C 0.28467 0.34825 0.91157 0.0
C181 C 0.35143 0.41255 -0.00716 0.0
C182 C 0.25167 0.35175 0.02288 0.0
C183 C 0.40025 0.33399 0.01986 0.0
C184 C 0.34937 0.27308 0.92751 0.0
C185 C 0.30974 0.27312 0.0443 0.0
O186 O 0.3169 0.35189 0.91186 0.0
O187 O 0.35055 0.39556 0.02028 0.0
O188 O 0.25138 0.32227 0.00888 0.0
O189 O 0.39693 0.34534 -0.01068 0.0
O190 O 0.31844 0.27003 0.93667 0.0
O191 O 0.30313 0.30318 0.05362 0.0
O192 O 0.36788 0.29799 0.93625 0.0
O193 O 0.37543 0.32633 0.03888 0.0
O194 O 0.30584 0.26403 0.01333 0.0
O195 O 0.34529 0.39931 0.96412 0.0
O196 O 0.26875 0.33102 0.934 0.0
O197 O 0.27838 0.36948 0.02617 0.0
Sc198 Sc 0.30478 0.65933 0.95714 0.0
Sc199 Sc 0.36971 0.60836 0.92439 0.0
Sc200 Sc 0.36258 0.62081 0.00995 0.0
O201 O 0.34527 0.62952 0.96293 0.0
C202 C 0.33981 0.69349 0.01846 0.0
C203 C 0.35246 0.68073 0.89545 0.0
C204 C 0.42616 0.64131 0.97433 0.0
C205 C 0.29142 0.60143 0.90252 0.0
C206 C 0.28889 0.60716 0.01813 0.0
C207 C 0.37914 0.55242 0.97764 0.0
O208 O 0.32962 0.69841 0.98807 0.0
O209 O 0.37212 0.65533 0.89828 0.0
O210 O 0.40558 0.64908 -0.0022 0.0
O211 O 0.28026 0.62244 0.9246 0.0
O212 O 0.3181 0.59366 0.01847 0.0
O213 O 0.36679 0.55966 0.94867 0.0
O214 O 0.28122 0.63417 0.00123 0.0
O215 O 0.32289 0.5952 0.89799 0.0
O216 O 0.3899 0.57529 -0.00257 0.0
O217 O 0.32564 0.68483 0.91299 0.0
O218 O 0.33825 0.66426 0.0314 0.0
O219 O 0.4185 0.62189 0.94897 0.0
Sc220 Sc 0.65769 0.31216 0.02759 0.0
Sc221 Sc 0.60861 0.36357 0.08 0.0
Sc222 Sc 0.5924 0.36 -0.00711 0.0
O223 O 0.61993 0.34595 0.03312 0.0
C224 C 0.66884 0.35872 0.96493 0.0
C225 C 0.68593 0.36434 0.08349 0.0
C226 C 0.59396 0.42768 0.03297 0.0
C227 C 0.61906 0.28679 0.09152 0.0
C228 C 0.60577 0.28679 0.97025 0.0
C229 C 0.53734 0.34814 0.05119 0.0
O230 O 0.68247 0.34469 -0.00893 0.0
O231 O 0.65895 0.38183 0.08515 0.0
O232 O 0.59867 0.41185 0.00532 0.0
O233 O 0.62993 0.27944 0.06185 0.0
O234 O 0.58396 0.30937 0.97695 0.0
O235 O 0.55777 0.34538 0.07616 0.0
O236 O 0.63466 0.28534 0.98477 0.0
O237 O 0.62338 0.31636 0.10364 0.0
O238 O 0.54596 0.357 0.0212 0.0
O239 O 0.6876 0.33543 0.06867 0.0
O240 O 0.63692 0.36307 0.96138 0.0
O241 O 0.59324 0.41342 0.06208 0.0
Sc242 Sc 0.62422 0.63621 0.0345 0.0
Sc243 Sc 0.61881 0.62483 0.94745 0.0
Sc244 Sc 0.68887 0.66638 0.9835 0.0
O245 O 0.64459 0.64155 0.98805 0.0
C246 C 0.65218 0.70781 0.03853 0.0
C247 C 0.56308 0.66139 -0.00745 0.0
C248 C 0.64651 0.69323 0.91852 0.0
C249 C 0.60215 0.56814 -0.00092 0.0
C250 C 0.69706 0.61844 0.05118 0.0
C251 C 0.696 0.60767 0.93021 0.0
O252 O 0.64956 0.67997 0.05416 0.0
O253 O 0.57144 0.64203 0.96791 0.0
O254 O 0.67376 0.69262 0.93636 0.0
O255 O 0.59783 0.58983 0.02261 0.0
O256 O 0.70802 0.64197 0.03115 0.0
O257 O 0.66433 0.60732 0.92382 0.0
O258 O 0.66669 0.60763 0.05042 0.0
O259 O 0.61313 0.57588 0.96978 0.0
O260 O 0.70992 0.62525 0.95388 0.0
O261 O 0.58171 0.66597 0.0187 0.0
O262 O 0.6671 0.70939 0.01003 0.0
O263 O 0.62256 0.67216 0.92227 0.0
Sc264 Sc 0.50464 0.79452 0.78912 0.0
Sc265 Sc 0.54278 0.86146 0.83441 0.0
Sc266 Sc 0.45659 0.84867 0.84035 0.0
O267 O 0.50169 0.83422 0.82139 0.0
C268 C 0.44523 0.84512 0.76237 0.0
C269 C 0.55871 0.84503 0.7572 0.0
C270 C 0.49122 0.9195 0.83474 0.0
C271 C 0.56876 0.78503 0.83933 0.0
C272 C 0.44159 0.77086 0.83087 0.0
C273 C 0.50057 0.85005 0.90381 0.0
O274 O 0.4645 0.81899 0.75771 0.0
O275 O 0.56209 0.86318 0.78373 0.0
O276 O 0.4695 0.90048 0.84836 0.0
O277 O 0.5456 0.77207 0.8201 0.0
O278 O 0.43285 0.80101 0.83685 0.0
O279 O 0.52571 0.86268 0.8875 0.0
O280 O 0.46966 0.76316 0.81742 0.0
O281 O 0.57137 0.81676 0.84497 0.0
O282 O 0.47419 0.83785 0.88972 0.0
O283 O 0.54008 0.81882 0.75574 0.0
O284 O 0.44053 0.85949 0.7909 0.0
O285 O 0.51847 0.90841 0.82228 0.0
Sc286 Sc 0.1437 0.47493 0.79368 0.0
Sc287 Sc 0.11019 0.42955 0.86149 0.0
Sc288 Sc 0.10414 0.51783 0.86094 0.0
O289 O 0.11945 0.47452 0.83866 0.0
C290 C 0.17958 0.53402 0.83643 0.0
C291 C 0.18378 0.4195 0.83959 0.0
C292 C 0.11694 0.47703 0.92646 0.0
C293 C 0.09935 0.41008 0.785 0.0
C294 C 0.09101 0.53706 0.78408 0.0
C295 C 0.04082 0.46632 0.86384 0.0
O296 O 0.18082 0.51042 0.81405 0.0
O297 O 0.1631 0.42002 0.8644 0.0
O298 O 0.12233 0.50362 0.90947 0.0
O299 O 0.10719 0.43899 0.77257 0.0
O300 O 0.08454 0.53914 0.81548 0.0
O301 O 0.05758 0.43953 0.85712 0.0
O302 O 0.11263 0.5162 0.77183 0.0
O303 O 0.10767 0.40122 0.81491 0.0
O304 O 0.05429 0.49542 0.87004 0.0
O305 O 0.17782 0.43375 0.81073 0.0
O306 O 0.15309 0.54126 0.85347 0.0
O307 O 0.10965 0.44868 0.91296 0.0
Sc308 Sc 0.50391 0.1858 0.80333 0.0
Sc309 Sc 0.44239 0.13286 0.8365 0.0
Sc310 Sc 0.52521 0.12178 0.86132 0.0
O311 O 0.49093 0.14723 0.83403 0.0
C312 C 0.56074 0.13095 0.78915 0.0
C313 C 0.4518 0.14115 0.76005 0.0
C314 C 0.47882 0.06266 0.84417 0.0
C315 C 0.43546 0.21122 0.83148 0.0
C316 C 0.55104 0.19641 0.86945 0.0
C317 C 0.46137 0.13222 0.91183 0.0
O318 O 0.54051 0.15383 0.77821 0.0
O319 O 0.44518 0.12078 0.78425 0.0
O320 O 0.50814 0.0751 0.84177 0.0
O321 O 0.46691 0.21751 0.82831 0.0
O322 O 0.5452 0.16723 0.88182 0.0
O323 O 0.44149 0.1448 0.88944 0.0
O324 O 0.54089 0.20591 0.83992 0.0
O325 O 0.42334 0.18247 0.82341 0.0
O326 O 0.49018 0.11897 0.90457 0.0
O327 O 0.46749 0.16937 0.7642 0.0
O328 O 0.56155 0.12085 0.82006 0.0
O329 O 0.45265 0.08056 0.84919 0.0
Sc330 Sc 0.82864 0.42162 0.86214 0.0
Sc331 Sc 0.83444 0.50506 0.83908 0.0
Sc332 Sc 0.7776 0.45375 0.79782 0.0
O333 O 0.81336 0.45993 0.83347 0.0
C334 C 0.82313 0.39 0.78906 0.0
C335 C 0.89677 0.45602 0.85116 0.0
C336 C 0.82807 0.50895 0.76494 0.0
C337 C 0.82829 0.48518 0.9129 0.0
C338 C 0.75284 0.40772 0.8595 0.0
C339 C 0.75797 0.51924 0.83372 0.0
O340 O 0.82099 0.38547 0.82109 0.0
O341 O 0.88313 0.4852 0.85358 0.0
O342 O 0.79837 0.49564 0.76576 0.0
O343 O 0.83663 0.45463 0.90565 0.0
O344 O 0.75162 0.41403 0.82746 0.0
O345 O 0.78725 0.52937 0.82534 0.0
O346 O 0.77839 0.41428 0.87804 0.0
O347 O 0.81976 0.50713 0.89078 0.0
O348 O 0.74699 0.49008 0.82488 0.0
O349 O 0.88004 0.42874 0.84723 0.0
O350 O 0.81051 0.4163 0.77429 0.0
O351 O 0.84971 0.50165 0.78758 0.0
Sc352 Sc 0.48707 0.12987 0.10856 0.0
Sc353 Sc 0.40139 0.1206 0.12472 0.0
Sc354 Sc 0.45322 0.1704 0.17759 0.0
O355 O 0.4467 0.1404 0.13687 0.0
C356 C 0.51716 0.12575 0.18161 0.0
C357 C 0.45341 0.0597 0.11797 0.0
C358 C 0.39875 0.1168 0.20442 0.0
C359 C 0.42943 0.13205 0.05206 0.0
C360 C 0.50532 0.20166 0.12227 0.0
C361 C 0.38773 0.19796 0.14097 0.0
O362 O 0.52177 0.13313 0.15063 0.0
O363 O 0.42354 0.07153 0.11379 0.0
O364 O 0.41431 0.14507 0.20794 0.0
O365 O 0.4589 0.12432 0.06249 0.0
O366 O 0.49454 0.19863 0.15288 0.0
O367 O 0.37668 0.16793 0.13572 0.0
O368 O 0.49443 0.18271 0.0984 0.0
O369 O 0.40478 0.13702 0.07213 0.0
O370 O 0.41606 0.20453 0.15564 0.0
O371 O 0.48007 0.07776 0.11954 0.0
O372 O 0.49053 0.13474 0.19762 0.0
O373 O 0.39439 0.10273 0.17563 0.0
Sc374 Sc 0.87331 0.46274 0.11738 0.0
Sc375 Sc 0.86167 0.55032 0.11968 0.0
Sc376 Sc 0.82715 0.49922 0.18406 0.0
O377 O 0.85368 0.50407 0.14061 0.0
C378 C 0.79996 0.43901 0.13544 0.0
C379 C 0.85049 0.50783 0.05465 0.0
C380 C 0.78626 0.55777 0.14561 0.0
C381 C 0.93226 0.51477 0.11621 0.0
C382 C 0.88226 0.441 0.19445 0.0
C383 C 0.87455 0.56461 0.1976 0.0
O384 O 0.82426 0.44048 0.11427 0.0
O385 O 0.84128 0.53339 0.07196 0.0
O386 O 0.78643 0.53144 0.16462 0.0
O387 O 0.92216 0.48475 0.12254 0.0
O388 O 0.86568 0.46603 0.20679 0.0
O389 O 0.88165 0.56943 0.16643 0.0
O390 O 0.88257 0.43438 0.16291 0.0
O391 O 0.91276 0.53829 0.10574 0.0
O392 O 0.85324 0.54232 0.20776 0.0
O393 O 0.86787 0.48361 0.06703 0.0
O394 O 0.79886 0.45614 0.16318 0.0
O395 O 0.81251 0.56875 0.13088 0.0
Sc396 Sc 0.4868 0.78945 0.15573 0.0
Sc397 Sc 0.52433 0.85801 0.11333 0.0
Sc398 Sc 0.43695 0.84966 0.11291 0.0
O399 O 0.48279 0.83203 0.12733 0.0
C400 C 0.4264 0.76998 0.10668 0.0
C401 C 0.5493 0.78414 0.10329 0.0
C402 C 0.47837 0.85841 0.04697 0.0
C403 C 0.54365 0.83579 0.18865 0.0
C404 C 0.4241 0.83008 0.1885 0.0
C405 C 0.47731 0.91783 0.12695 0.0
O406 O 0.45444 0.76127 0.12058 0.0
O407 O 0.54658 0.81425 0.09231 0.0
O408 O 0.4513 0.84774 0.0607 0.0
O409 O 0.51912 0.81511 0.19304 0.0
O410 O 0.42164 0.85201 0.16478 0.0
O411 O 0.50535 0.90397 0.1341 0.0
O412 O 0.44285 0.80358 0.18653 0.0
O413 O 0.54995 0.84999 0.16042 0.0
O414 O 0.45183 0.90182 0.11546 0.0
O415 O 0.5315 0.77188 0.12759 0.0
O416 O 0.41539 0.80027 0.10696 0.0
O417 O 0.50418 0.86855 0.06362 0.0
Sc418 Sc 0.13908 0.54434 0.132 0.0
Sc419 Sc 0.11776 0.45953 0.13692 0.0
Sc420 Sc 0.19202 0.48821 0.17511 0.0
O421 O 0.14933 0.49733 0.14867 0.0
C422 C 0.21468 0.54024 0.1184 0.0
C423 C 0.11635 0.49956 0.06952 0.0
C424 C 0.18862 0.42665 0.12452 0.0
C425 C 0.0685 0.52267 0.15126 0.0
C426 C 0.16807 0.55701 0.20555 0.0
C427 C 0.13821 0.43732 0.20877 0.0
O428 O 0.18523 0.54439 0.10645 0.0
O429 O 0.12108 0.47128 0.08431 0.0
O430 O 0.20623 0.45112 0.13674 0.0
O431 O 0.09131 0.54481 0.15661 0.0
O432 O 0.17624 0.52619 0.21214 0.0
O433 O 0.11426 0.44549 0.18855 0.0
O434 O 0.16335 0.56768 0.17536 0.0
O435 O 0.07459 0.49238 0.14156 0.0
O436 O 0.16832 0.44888 0.20611 0.0
O437 O 0.11509 0.52779 0.08521 0.0
O438 O 0.22109 0.52572 0.14678 0.0
O439 O 0.1573 0.42284 0.13045 0.0
Sc440 Sc 0.86979 0.85522 0.42836 0.0
Sc441 Sc 0.84913 0.85231 0.5148 0.0
Sc442 Sc 0.80051 0.80597 0.45534 0.0
O443 O 0.83969 0.83773 0.46627 0.0
C444 C 0.79847 0.8552 0.39162 0.0
C445 C 0.85674 0.92082 0.47052 0.0
C446 C 0.76926 0.85447 0.51233 0.0
C447 C 0.92272 0.84873 0.48915 0.0
C448 C 0.86333 0.77827 0.41127 0.0
C449 C 0.83149 0.77312 0.52338 0.0
O450 O 0.83032 0.8586 0.39115 0.0
O451 O 0.85557 0.90512 0.4991 0.0
O452 O 0.76526 0.83316 0.4881 0.0
O453 O 0.91502 0.85624 0.45871 0.0
O454 O 0.83281 0.77555 0.42188 0.0
O455 O 0.84454 0.80096 0.53373 0.0
O456 O 0.88116 0.80497 0.41394 0.0
O457 O 0.9014 0.84263 0.51208 0.0
O458 O 0.81431 0.77106 0.49586 0.0
O459 O 0.85919 0.90611 0.44186 0.0
O460 O 0.78289 0.83885 0.41468 0.0
O461 O 0.79782 0.86346 0.52389 0.0
Sc462 Sc 0.84781 0.13039 0.41258 0.0
Sc463 Sc 0.84632 0.13613 0.5012 0.0
Sc464 Sc 0.78738 0.18366 0.45268 0.0
O465 O 0.82683 0.15002 0.4555 0.0
C466 C 0.84083 0.20896 0.39773 0.0
C467 C 0.91303 0.14026 0.4592 0.0
C468 C 0.82958 0.2135 0.51585 0.0
C469 C 0.84589 0.06629 0.45988 0.0
C470 C 0.77097 0.13513 0.38946 0.0
C471 C 0.76684 0.13593 0.51394 0.0
O472 O 0.85538 0.1804 0.39385 0.0
O473 O 0.89724 0.14571 0.48662 0.0
O474 O 0.80724 0.21688 0.49251 0.0
O475 O 0.84124 0.07919 0.43044 0.0
O476 O 0.76117 0.15469 0.4133 0.0
O477 O 0.79692 0.12624 0.52038 0.0
O478 O 0.80134 0.1258 0.38589 0.0
O479 O 0.85048 0.08377 0.48676 0.0
O480 O 0.75855 0.15609 0.48989 0.0
O481 O 0.89878 0.13148 0.43158 0.0
O482 O 0.81483 0.21396 0.41626 0.0
O483 O 0.84562 0.18611 0.52084 0.0
Sc484 Sc 0.17663 0.80426 0.53999 0.0
Sc485 Sc 0.11762 0.85262 0.58432 0.0
Sc486 Sc 0.13248 0.86734 0.4991 0.0
O487 O 0.14191 0.84124 0.54134 0.0
C488 C 0.20522 0.85927 0.48653 0.0
C489 C 0.19308 0.84262 0.6075 0.0
C490 C 0.12479 0.92399 0.55566 0.0
C491 C 0.12067 0.77529 0.58992 0.0
C492 C 0.13883 0.79235 0.47245 0.0
C493 C 0.0612 0.85708 0.52694 0.0
O494 O 0.20463 0.8291 0.49874 0.0
O495 O 0.16179 0.84221 0.61503 0.0
O496 O 0.12155 0.91308 0.52547 0.0
O497 O 0.15082 0.77351 0.5784 0.0
O498 O 0.14065 0.82405 0.46679 0.0
O499 O 0.0709 0.86232 0.5575 0.0
O500 O 0.14745 0.77877 0.50079 0.0
O501 O 0.10274 0.80188 0.5889 0.0
O502 O 0.08088 0.85356 0.50176 0.0
O503 O 0.20444 0.83204 0.57888 0.0
O504 O 0.18453 0.88154 0.49672 0.0
O505 O 0.13043 0.90517 0.58134 0.0
Sc506 Sc 0.10573 0.13932 0.54825 0.0
Sc507 Sc 0.12653 0.10758 0.46787 0.0
Sc508 Sc 0.18311 0.15997 0.51248 0.0
O509 O 0.1386 0.13489 0.50948 0.0
C510 C 0.13326 0.21026 0.55146 0.0
C511 C 0.05471 0.13663 0.48583 0.0
C512 C 0.15326 0.17873 0.43945 0.0
C513 C 0.10439 0.06213 0.53178 0.0
C514 C 0.17752 0.12865 0.58484 0.0
C515 C 0.20446 0.09624 0.46591 0.0
O516 O 0.10774 0.19253 0.54369 0.0
O517 O 0.07614 0.12642 0.46438 0.0
O518 O 0.16805 0.18751 0.4673 0.0
O519 O 0.10151 0.08619 0.55297 0.0
O520 O 0.1957 0.13152 0.55802 0.0
O521 O 0.17486 0.08413 0.4643 0.0
O522 O 0.14639 0.13742 0.58585 0.0
O523 O 0.11185 0.06587 0.50032 0.0
O524 O 0.2113 0.12438 0.4805 0.0
O525 O 0.06117 0.14069 0.51719 0.0
O526 O 0.16344 0.20044 0.54565 0.0
O527 O 0.14093 0.149 0.43463 0.0
C528 C 0.01738 0.40457 0.48544 0.0
C529 C 0.01306 0.37201 0.47028 0.0
C530 C -0.00961 0.34895 0.5232 0.0
C531 C -0.0052 0.3815 0.53873 0.0
N532 N 0.01663 0.43888 0.53702 0.0
N533 N 0.00156 0.31203 0.47499 0.0
C534 C 0.00987 0.40885 0.52064 0.0
C535 C 0.00123 0.34388 0.48927 0.0
N536 N 0.02674 0.4317 0.46568 0.0
N537 N 0.97607 0.32266 0.54097 0.0
H538 H 0.00917 0.30754 0.44996 0.0
H539 H -0.00321 0.28961 0.48828 0.0
H540 H 0.973 0.32266 0.56734 0.0
H541 H 0.96701 0.30044 0.52963 0.0
H542 H 0.02667 0.45685 0.47407 0.0
H543 H 0.03282 0.42936 0.43992 0.0
H544 H 0.03118 0.45833 0.52655 0.0
H545 H 0.00922 0.44379 0.56206 0.0
C546 C 0.59158 0.0048 0.43181 0.0
C547 C 0.62233 0.01797 0.41858 0.0
C548 C 0.63463 0.04387 0.47421 0.0
C549 C 0.60869 0.02344 0.48837 0.0
N550 N 0.56014 0.98668 0.48123 0.0
N551 N 0.67016 0.05588 0.42543 0.0
C552 C 0.58631 0.00475 0.46729 0.0
C553 C 0.64276 0.03979 0.43913 0.0
N554 N 0.56623 -0.0051 0.41023 0.0
N555 N 0.6511 0.06719 0.4942 0.0
H556 H 0.67466 0.05631 0.39941 0.0
H557 H 0.68847 0.06875 0.43965 0.0
H558 H 0.64612 0.07011 0.52012 0.0
H559 H 0.66733 0.08574 0.48464 0.0
H560 H 0.54191 -0.01157 0.41823 0.0
H561 H 0.56819 -0.00196 0.3841 0.0
H562 H 0.54605 0.9687 0.46763 0.0
H563 H 0.55337 -0.01129 0.50687 0.0
C564 C 0.01888 0.57289 0.50926 0.0
C565 C 0.00349 0.60056 0.52659 0.0
C566 C 0.02038 0.6396 0.4813 0.0
C567 C 0.03119 0.61145 0.462 0.0
N568 N 0.03914 0.55101 0.45517 0.0
N569 N -0.01352 0.65981 0.52786 0.0
C570 C 0.03055 0.57797 0.47545 0.0
C571 C 0.00341 0.63382 0.51231 0.0
N572 N 0.02168 0.54181 0.52477 0.0
N573 N 0.0268 0.67191 0.46992 0.0
H574 H 0.97687 0.65826 0.55251 0.0
H575 H 0.98039 0.68248 0.51539 0.0
H576 H 0.04005 0.6767 0.44742 0.0
H577 H 0.02175 0.69376 0.48403 0.0
H578 H 0.03601 0.52186 0.5149 0.0
H579 H 0.01123 0.53646 0.54858 0.0
H580 H 0.0355 0.52564 0.46199 0.0
H581 H 0.04823 0.55416 0.43044 0.0
C582 C 0.35284 -0.00143 0.48707 0.0
C583 C 0.35266 0.9632 0.47921 0.0
C584 C 0.30396 0.95541 0.51706 0.0
C585 C 0.306 -0.00985 0.52597 0.0
N586 N 0.31924 0.04637 0.50599 0.0
N587 N 0.3344 0.90667 0.49558 0.0
C588 C 0.32583 0.01226 0.506 0.0
C589 C 0.32969 0.94114 0.49643 0.0
N590 N 0.38028 0.01848 0.47976 0.0
N591 N 0.27685 0.93663 0.52761 0.0
H592 H 0.35582 0.8956 0.48466 0.0
H593 H 0.31981 0.88961 0.50961 0.0
H594 H 0.25686 0.94785 0.54093 0.0
H595 H 0.27229 0.91171 0.51962 0.0
H596 H 0.38174 0.04415 0.4864 0.0
H597 H 0.40356 0.00825 0.4725 0.0
H598 H 0.3314 0.06341 0.48971 0.0
H599 H 0.29886 0.05653 0.51955 0.0
C600 C 0.47296 0.96142 0.31921 0.0
C601 C 0.46686 0.95003 0.35301 0.0
C602 C 0.52691 0.93867 0.36126 0.0
C603 C 0.53335 0.95651 0.33037 0.0
N604 N 0.51286 0.98766 0.28105 0.0
N605 N 0.4881 0.93196 0.40817 0.0
C606 C 0.5065 0.96845 0.30944 0.0
C607 C 0.4937 0.93906 0.37445 0.0
N608 N 0.44682 0.96514 0.29637 0.0
N609 N 0.55247 0.92282 0.37893 0.0
H610 H 0.46432 0.93338 0.41956 0.0
H611 H 0.50758 0.92789 0.42581 0.0
H612 H 0.57798 0.92417 0.37243 0.0
H613 H 0.54796 0.90622 0.39917 0.0
H614 H 0.45052 0.96964 0.27043 0.0
H615 H 0.42149 0.9607 0.30258 0.0
H616 H 0.49394 0.0003 0.26732 0.0
H617 H 0.53724 -0.00695 0.27246 0.0
C618 C 0.08123 0.50954 0.37103 0.0
C619 C 0.0654 0.52738 0.34397 0.0
C620 C 0.03524 0.47735 0.32528 0.0
C621 C 0.05052 0.45884 0.35226 0.0
N622 N 0.09249 0.45493 0.39761 0.0
N623 N 0.04082 0.52598 0.28837 0.0
C624 C 0.07545 0.47402 0.37386 0.0
C625 C 0.04699 0.51029 0.31869 0.0
N626 N 0.09991 0.52684 0.39487 0.0
N627 N 0.00892 0.46424 0.30659 0.0
H628 H 0.0498 0.55054 0.28361 0.0
H629 H 0.03104 0.51303 0.26733 0.0
H630 H -0.00061 0.4398 0.31006 0.0
H631 H -0.00482 0.47865 0.2889 0.0
H632 H 0.1086 0.51612 0.4176 0.0
H633 H 0.10555 0.55268 0.39249 0.0
H634 H 0.11325 0.46389 0.41149 0.0
H635 H 0.08701 0.4294 0.40241 0.0
C636 C 0.44626 0.98242 0.61228 0.0
C637 C 0.42769 0.00644 0.59288 0.0
C638 C 0.48049 0.0287 0.56957 0.0
C639 C 0.49831 0.00272 0.58755 0.0
N640 N 0.49617 0.94772 0.61572 0.0
N641 N 0.42585 0.04934 0.549 0.0
C642 C 0.48056 0.97695 0.60507 0.0
C643 C 0.44441 0.02876 0.57016 0.0
N644 N 0.43223 0.96752 0.6402 0.0
N645 N 0.49802 0.053 0.55197 0.0
H646 H 0.39936 0.04979 0.54922 0.0
H647 H 0.43642 0.06398 0.52963 0.0
H648 H 0.52427 0.05201 0.54873 0.0
H649 H 0.48677 0.07468 0.5416 0.0
H650 H 0.4457 0.95131 0.65642 0.0
H651 H 0.40934 0.97609 0.64998 0.0
H652 H 0.48266 0.92715 0.62563 0.0
H653 H 0.52164 0.94232 0.61163 0.0
C654 C 0.96005 0.46446 0.69773 0.0
C655 C -0.0102 0.44605 0.69063 0.0
C656 C 0.01574 0.4941 0.66313 0.0
C657 C 0.98406 0.51125 0.66495 0.0
N658 N 0.93021 0.51817 0.69365 0.0
N659 N 0.05047 0.44934 0.68748 0.0
C660 C 0.95736 0.49823 0.68553 0.0
C661 C 0.01942 0.46322 0.68089 0.0
N662 N 0.93386 0.44814 0.71348 0.0
N663 N 0.04132 0.50588 0.64287 0.0
H664 H 0.05302 0.42684 0.70143 0.0
H665 H 0.07315 0.4621 0.68272 0.0
H666 H 0.03906 0.52752 0.62759 0.0
H667 H 0.06362 0.49226 0.63876 0.0
H668 H 0.9098 0.4585 0.7168 0.0
H669 H 0.93674 0.42331 0.72268 0.0
H670 H 0.91086 0.51075 0.71 0.0
H671 H 0.92884 0.54362 0.68653 0.0
C672 C 0.34897 0.47164 0.0165 0.0
C673 C 0.36362 0.44783 -0.00622 0.0
C674 C 0.39655 0.49272 0.96649 0.0
C675 C 0.38075 0.51661 0.98821 0.0
N676 N 0.35338 0.52735 0.04239 0.0
N677 N 0.41039 0.43355 0.95672 0.0
C678 C 0.36097 0.50559 0.01629 0.0
C679 C 0.3903 0.45766 0.97166 0.0
N680 N 0.32233 0.46253 0.03676 0.0
N681 N 0.4172 0.50364 0.94081 0.0
H682 H 0.40764 0.40756 0.9614 0.0
H683 H 0.43201 0.43939 0.94273 0.0
H684 H 0.42465 0.52905 0.93834 0.0
H685 H 0.42589 0.4878 0.92141 0.0
H686 H 0.30963 0.47958 0.05243 0.0
H687 H 0.31088 0.43862 0.03606 0.0
H688 H 0.34138 0.51969 0.06472 0.0
H689 H 0.36277 0.55203 0.04403 0.0
C690 C 0.45755 0.3079 0.02633 0.0
C691 C 0.43419 0.3337 0.03529 0.0
C692 C 0.47865 0.36482 0.06585 0.0
C693 C 0.50176 0.33935 0.05583 0.0
N694 N 0.51153 0.28145 0.03942 0.0
N695 N 0.41991 0.38172 0.07137 0.0
C696 C 0.49046 0.30894 0.04059 0.0
C697 C 0.44379 0.3604 0.05796 0.0
N698 N 0.44906 0.28365 0.00283 0.0
N699 N 0.49035 0.39388 0.08107 0.0
H700 H 0.39413 0.3796 0.0659 0.0
H701 H 0.42528 0.39966 0.09022 0.0
H702 H 0.51568 0.39683 0.08847 0.0
H703 H 0.47546 0.41543 0.08498 0.0
H704 H 0.46649 0.26627 -0.00692 0.0
H705 H 0.42524 0.28276 -0.00884 0.0
H706 H 0.50324 0.25742 0.03187 0.0
H707 H 0.53596 0.28209 0.04994 0.0
C708 C 0.56503 0.48392 0.02815 0.0
C709 C 0.59529 0.46471 0.03093 0.0
C710 C 0.6288 0.51187 0.00944 0.0
C711 C 0.59896 0.53212 0.00821 0.0
N712 N 0.53919 0.53943 0.01961 0.0
N713 N 0.65618 0.46212 0.03307 0.0
C714 C 0.56718 0.51884 0.01886 0.0
C715 C 0.62724 0.47932 0.02434 0.0
N716 N 0.5344 0.46837 0.03306 0.0
N717 N 0.65861 0.52327 -0.00411 0.0
H718 H 0.65568 0.43828 0.04479 0.0
H719 H 0.68033 0.4728 0.03195 0.0
H720 H 0.66241 0.54795 0.98706 0.0
H721 H 0.67933 0.50738 -0.00841 0.0
H722 H 0.51113 0.47982 0.02775 0.0
H723 H 0.53237 0.44309 0.04106 0.0
H724 H 0.51625 0.53233 0.03055 0.0
H725 H 0.5393 0.56443 0.01054 0.0
C726 C 0.51234 0.68185 0.96139 0.0
C727 C 0.52768 0.67292 -0.00707 0.0
C728 C 0.47658 0.64559 0.01212 0.0
C729 C 0.4612 0.65241 0.97991 0.0
N730 N 0.46038 0.68564 0.92797 0.0
N731 N 0.51842 0.66473 0.05303 0.0
C732 C 0.47773 0.67347 0.9557 0.0
C733 C 0.50768 0.66122 0.02004 0.0
N734 N 0.53156 0.69694 0.93677 0.0
N735 N 0.46265 0.62279 0.03439 0.0
H736 H 0.54007 0.67865 0.05946 0.0
H737 H 0.50332 0.6582 0.0738 0.0
H738 H 0.44093 0.60864 0.02881 0.0
H739 H 0.47489 0.61518 0.0568 0.0
H740 H 0.5233 0.70099 0.9118 0.0
H741 H 0.55652 0.70463 0.94162 0.0
H742 H 0.47054 0.70307 0.9108 0.0
H743 H 0.43483 0.68023 0.9235 0.0
C744 C 0.49598 0.82254 0.96007 0.0
C745 C 0.49915 0.85289 0.94091 0.0
C746 C 0.48728 0.88726 -0.00856 0.0
C747 C 0.4818 0.8568 0.00993 0.0
N748 N 0.47525 0.79557 0.01109 0.0
N749 N 0.49172 0.91386 0.9361 0.0
C750 C 0.48441 0.82446 -0.00596 0.0
C751 C 0.49353 0.88529 0.95599 0.0
N752 N 0.50458 0.7919 0.94585 0.0
N753 N 0.48596 0.91806 0.00772 0.0
H754 H 0.49546 0.91345 0.90987 0.0
H755 H 0.48386 0.93756 0.94498 0.0
H756 H 0.47767 0.92073 0.03282 0.0
H757 H 0.49434 0.94074 -0.00314 0.0
H758 H 0.50687 0.76937 0.95969 0.0
H759 H 0.51194 0.78935 0.92048 0.0
H760 H 0.4723 0.77208 -0.00087 0.0
H761 H 0.46825 0.79521 0.03666 0.0
C762 C 0.14147 0.50895 0.01272 0.0
C763 C 0.11316 0.49906 0.0324 0.0
C764 C 0.08538 0.47657 0.98152 0.0
C765 C 0.11628 0.48091 0.96354 0.0
N766 N 0.17571 0.49523 0.96379 0.0
N767 N 0.05829 0.47225 0.03667 0.0
C768 C 0.14495 0.49541 0.97968 0.0
C769 C 0.08513 0.48232 0.01716 0.0
N770 N 0.16497 0.53119 0.02542 0.0
N771 N 0.05597 0.4692 0.96441 0.0
H772 H 0.05615 0.47856 0.06246 0.0
H773 H 0.03903 0.4564 0.02759 0.0
H774 H 0.05481 0.46671 0.93799 0.0
H775 H 0.03222 0.46899 0.97594 0.0
H776 H 0.18478 0.54099 0.01092 0.0
H777 H 0.16213 0.54312 0.04888 0.0
H778 H 0.19817 0.50289 0.97568 0.0
H779 H 0.1792 0.48372 0.94009 0.0
C780 C 0.41894 0.11701 0.95756 0.0
C781 C 0.45008 0.13274 0.94774 0.0
C782 C 0.45339 0.16026 0.00292 0.0
C783 C 0.42709 0.13957 0.01528 0.0
N784 N 0.38455 0.09685 0.0049 0.0
N785 N 0.50242 0.15878 0.96751 0.0
C786 C 0.40919 0.11789 -0.00738 0.0
C787 C 0.46893 0.15154 0.97205 0.0
N788 N 0.39964 0.10006 0.93398 0.0
N789 N 0.46492 0.18699 0.0219 0.0
H790 H 0.51603 0.15228 0.94583 0.0
H791 H 0.51752 0.16808 0.98739 0.0
H792 H 0.45335 0.19393 0.04477 0.0
H793 H 0.48325 0.20377 0.01287 0.0
H794 H 0.37519 0.09136 0.93894 0.0
H795 H 0.40758 0.0958 0.90899 0.0
H796 H 0.37332 0.07753 -0.00947 0.0
H797 H 0.37641 0.09796 0.03017 0.0
C798 C 0.81191 0.47516 0.97249 0.0
C799 C 0.82956 0.49531 0.94869 0.0
C800 C 0.85426 0.52926 -0.00518 0.0
C801 C 0.84087 0.50553 0.0185 0.0
N802 N 0.81139 0.45238 0.02913 0.0
N803 N 0.8714 0.53872 0.93645 0.0
C804 C 0.82073 0.47763 0.0072 0.0
C805 C 0.85134 0.52209 0.95948 0.0
N806 N 0.78669 0.45356 0.96194 0.0
N807 N 0.87092 0.55779 0.00591 0.0
H808 H 0.87111 0.53365 0.91035 0.0
H809 H 0.89066 0.55553 0.94348 0.0
H810 H 0.87638 0.5627 0.03149 0.0
H811 H 0.87743 0.57782 -0.01023 0.0
H812 H 0.77038 0.4412 0.97872 0.0
H813 H 0.77994 0.45043 0.93639 0.0
H814 H 0.80065 0.42941 0.02123 0.0
H815 H 0.81673 0.45312 0.055 0.0
C816 C 0.95209 0.47314 0.82838 0.0
C817 C 0.9337 0.45461 0.85289 0.0
C818 C -0.01397 0.44084 0.88343 0.0
C819 C 0.00373 0.46357 0.86158 0.0
N820 N 0.00222 0.50528 0.81604 0.0
N821 N 0.93159 0.42446 0.90656 0.0
C822 C -0.01365 0.481 0.835 0.0
C823 C 0.95017 0.43917 0.88114 0.0
N824 N 0.93715 0.48202 0.79804 0.0
N825 N 0.00328 0.42083 0.90623 0.0
H826 H 0.9052 0.42255 0.90575 0.0
H827 H 0.94209 0.4165 0.92969 0.0
H828 H 0.02946 0.42201 0.9098 0.0
H829 H -0.00813 0.40118 0.91987 0.0
H830 H 0.95055 0.4925 0.77773 0.0
H831 H 0.91224 0.47534 0.79181 0.0
H832 H -0.01113 0.52242 0.80072 0.0
H833 H 0.02808 0.51005 0.81743 0.0
C834 C 0.49879 0.00856 0.86791 0.0
C835 C 0.47663 0.02578 0.84525 0.0
C836 C 0.45919 0.97202 0.8202 0.0
C837 C 0.48633 0.956 0.83797 0.0
N838 N 0.53438 0.95953 0.87685 0.0
N839 N 0.43796 0.02494 0.79706 0.0
C840 C 0.50697 0.97439 0.86124 0.0
C841 C 0.45701 0.00787 0.82082 0.0
N842 N 0.51126 0.02476 0.89624 0.0
N843 N 0.43548 0.95318 0.803 0.0
H844 H 0.43588 0.05139 0.7964 0.0
H845 H 0.42625 0.01293 0.77639 0.0
H846 H 0.43666 0.92678 0.80092 0.0
H847 H 0.41315 0.96365 0.79319 0.0
H848 H 0.52506 0.01236 0.91531 0.0
H849 H 0.50448 0.04967 0.90254 0.0
H850 H 0.55219 0.97331 0.89096 0.0
H851 H 0.54079 0.93395 0.87398 0.0
C852 C -0.01108 0.54258 0.10763 0.0
C853 C 0.96608 0.5244 0.12856 0.0
C854 C 0.01011 0.51498 0.17133 0.0
C855 C 0.03301 0.53285 0.15035 0.0
N856 N 0.04208 0.57322 0.10475 0.0
N857 N 0.9514 0.50552 0.18534 0.0
C858 C 0.02149 0.55039 0.12084 0.0
C859 C 0.97551 0.51473 0.16222 0.0
N860 N 0.98062 0.55011 0.07454 0.0
N861 N 0.02177 0.49676 0.19873 0.0
H862 H 0.92545 0.50793 0.18051 0.0
H863 H 0.95706 0.49759 0.21004 0.0
H864 H 0.04716 0.49707 0.20635 0.0
H865 H 0.00682 0.47974 0.21245 0.0
H866 H -0.00208 0.56002 0.05715 0.0
H867 H 0.95739 0.54364 0.06344 0.0
H868 H 0.03387 0.5885 0.08458 0.0
H869 H 0.06612 0.57961 0.1139 0.0
C870 C 0.48918 0.9734 0.10074 0.0
C871 C 0.47486 0.95463 0.12796 0.0
C872 C 0.44664 0.00523 0.14959 0.0
C873 C 0.45809 0.02305 0.12029 0.0
N874 N 0.48464 0.02334 0.06496 0.0
N875 N 0.43901 0.95066 0.17744 0.0
C876 C 0.47792 0.00697 0.09504 0.0
C877 C 0.45325 0.96996 0.15219 0.0
N878 N 0.51346 0.95921 0.08038 0.0
N879 N 0.43089 0.02228 0.17547 0.0
H880 H 0.44542 0.92517 0.18152 0.0
H881 H 0.41982 0.95934 0.1934 0.0
H882 H 0.42593 0.04826 0.17454 0.0
H883 H 0.42531 0.01148 0.19905 0.0
H884 H 0.52729 0.97305 0.06255 0.0
H885 H 0.52196 0.93423 0.08306 0.0
H886 H 0.49587 0.0115 0.04408 0.0
H887 H 0.47595 0.04788 0.05953 0.0
C888 C 0.88044 0.97676 0.45236 0.0
C889 C 0.8549 0.95818 0.46984 0.0
C890 C 0.82527 0.01099 0.48352 0.0
C891 C 0.84873 0.02914 0.46303 0.0
N892 N 0.89775 0.0297 0.42613 0.0
N893 N 0.79948 0.95662 0.49594 0.0
C894 C 0.87598 0.01212 0.44678 0.0
C895 C 0.82644 0.97498 0.48401 0.0
N896 N 0.9096 0.96086 0.44219 0.0
N897 N 0.80196 0.02804 0.50273 0.0
H898 H 0.79873 0.9301 0.49594 0.0
H899 H 0.77643 0.96762 0.50277 0.0
H900 H 0.7991 0.05437 0.50209 0.0
H901 H 0.78731 0.01628 0.52139 0.0
H902 H 0.93097 0.97377 0.43354 0.0
H903 H 0.91377 0.93481 0.44478 0.0
H904 H 0.91492 0.01796 0.40982 0.0
H905 H 0.8977 0.05612 0.42374 0.0
C906 C 0.00795 0.82462 0.52417 0.0
C907 C 0.02522 0.85583 0.52007 0.0
C908 C 0.97343 0.88354 0.50148 0.0
C909 C 0.95787 0.85105 0.49977 0.0
N910 N 0.96024 0.79001 0.50697 0.0
N911 N 0.02608 0.91506 0.50341 0.0
C912 C 0.97499 0.82134 0.51061 0.0
C913 C 0.00852 0.8854 0.50818 0.0
N914 N 0.02254 0.79852 0.54192 0.0
N915 N 0.9543 0.91248 0.49893 0.0
H916 H 0.05169 0.91778 0.5098 0.0
H917 H 0.01575 0.93628 0.49121 0.0
H918 H 0.92794 0.91184 0.49671 0.0
H919 H 0.96396 0.93686 0.50292 0.0
H920 H 0.00844 0.77785 0.55043 0.0
H921 H 0.04733 0.79935 0.5513 0.0
H922 H 0.97331 0.76725 0.51099 0.0
H923 H 0.93569 0.78674 0.49745 0.0
C924 C 0.14809 0.98117 0.54682 0.0
C925 C 0.12181 0.96045 0.55964 0.0
C926 C 0.08265 0.00851 0.55831 0.0
C927 C 0.10974 0.02867 0.54631 0.0
N928 N 0.17031 0.0378 0.54536 0.0
N929 N 0.06593 0.9548 0.58399 0.0
C930 C 0.1432 0.01626 0.54631 0.0
C931 C 0.08971 0.97443 0.5681 0.0
N932 N 0.17612 0.96762 0.53162 0.0
N933 N 0.05047 0.02141 0.55885 0.0
H934 H 0.07048 0.92952 0.5908 0.0
H935 H 0.04287 0.96426 0.59273 0.0
H936 H 0.04513 0.04666 0.55246 0.0
H937 H 0.02904 0.0068 0.56401 0.0
H938 H 0.19408 0.98264 0.51925 0.0
H939 H 0.17975 0.94157 0.52832 0.0
H940 H 0.19484 0.02899 0.55031 0.0
H941 H 0.16779 0.06423 0.54416 0.0
C942 C 0.00456 0.16719 0.46204 0.0
C943 C 0.01927 0.13703 0.47522 0.0
C944 C 0.96463 0.10815 0.4749 0.0
C945 C 0.94989 0.13819 0.46135 0.0
N946 N 0.95565 0.19303 0.43445 0.0
N947 N 0.01603 0.07669 0.48698 0.0
C948 C 0.96984 0.16678 0.45245 0.0
C949 C 0.00014 0.10677 0.47933 0.0
N950 N 0.02353 0.19624 0.45961 0.0
N951 N 0.94457 0.08137 0.48446 0.0
H952 H 0.04213 0.07471 0.49093 0.0
H953 H 0.00391 0.05312 0.48664 0.0
H954 H 0.91846 0.08071 0.48014 0.0
H955 H 0.95335 0.06061 0.49849 0.0
H956 H 0.01329 0.21999 0.45377 0.0
H957 H 0.04938 0.19693 0.46557 0.0
H958 H 0.9694 0.21352 0.42486 0.0
H959 H 0.93038 0.19265 0.42639 0.0
C960 C 0.12972 0.19848 0.38216 0.0
C961 C 0.14106 0.20598 0.4159 0.0
C962 C 0.09745 0.24811 0.42111 0.0
C963 C 0.08763 0.24486 0.38637 0.0
N964 N 0.102 0.21999 0.33112 0.0
N965 N 0.14784 0.2531 0.45483 0.0
C966 C 0.10578 0.22081 0.36578 0.0
C967 C 0.12907 0.23576 0.43134 0.0
N968 N 0.14227 0.17066 0.36566 0.0
N969 N 0.07674 0.26268 0.44467 0.0
H970 H 0.17296 0.24673 0.46048 0.0
H971 H 0.13991 0.27686 0.46363 0.0
H972 H 0.0516 0.26889 0.43902 0.0
H973 H 0.08361 0.26396 0.47041 0.0
H974 H 0.13208 0.16143 0.34284 0.0
H975 H 0.16245 0.15647 0.37561 0.0
H976 H 0.11748 0.20533 0.31542 0.0
H977 H 0.08558 0.23556 0.31743 0.0
C978 C 0.74285 0.08132 0.37256 0.0
C979 C 0.74616 0.117 0.36787 0.0
C980 C 0.71549 0.11342 0.31333 0.0
C981 C 0.7113 0.0779 0.3186 0.0
N982 N 0.71436 0.0293 0.35653 0.0
N983 N 0.73271 0.16821 0.33691 0.0
C984 C 0.72339 0.06212 0.349 0.0
C985 C 0.73133 0.13349 0.33925 0.0
N986 N 0.75868 0.0657 0.39957 0.0
N987 N 0.70549 0.12751 0.28299 0.0
H988 H 0.74474 0.1833 0.35527 0.0
H989 H 0.72005 0.1823 0.3183 0.0
H990 H 0.69453 0.11316 0.26342 0.0
H991 H 0.71021 0.15263 0.27602 0.0
H992 H 0.76171 0.03943 0.40168 0.0
H993 H 0.77048 0.07909 0.41933 0.0
H994 H 0.71937 0.01749 0.37981 0.0
H995 H 0.69861 0.01459 0.34109 0.0
C996 C 0.93458 0.71666 0.40648 0.0
C997 C 0.93376 0.70884 0.37118 0.0
C998 C 0.88024 0.73967 0.364 0.0
C999 C 0.88162 0.74825 0.39903 0.0
N1000 N 0.90481 0.73966 0.45532 0.0
N1001 N 0.90251 0.70473 0.31827 0.0
C1002 C 0.90703 0.73469 0.42086 0.0
C1003 C 0.90546 0.71777 0.35048 0.0
N1004 N 0.96231 0.70803 0.42584 0.0
N1005 N 0.8558 0.75378 0.34353 0.0
H1006 H 0.92062 0.68844 0.30793 0.0
H1007 H 0.88103 0.7077 0.30294 0.0
H1008 H 0.83617 0.76873 0.35321 0.0
H1009 H 0.85574 0.75193 0.31701 0.0
H1010 H 0.96627 0.71625 0.4508 0.0
H1011 H 0.98276 0.69425 0.41621 0.0
H1012 H 0.92057 0.7279 0.47318 0.0
H1013 H 0.88524 0.7537 0.46636 0.0
C1014 C 0.26995 0.8506 0.41603 0.0
C1015 C 0.26034 0.87714 0.39349 0.0
C1016 C 0.20802 0.88332 0.4262 0.0
C1017 C 0.22372 0.86538 0.45407 0.0
N1018 N 0.27318 0.83513 0.4753 0.0
N1019 N 0.21526 0.91328 0.37266 0.0
C1020 C 0.25556 0.84952 0.44885 0.0
C1021 C 0.22778 0.89188 0.39713 0.0
N1022 N 0.29321 0.82691 0.40615 0.0
N1023 N 0.17395 0.88997 0.42597 0.0
H1024 H 0.22494 0.91399 0.34797 0.0
H1025 H 0.19484 0.92962 0.37679 0.0
H1026 H 0.15736 0.88188 0.44474 0.0
H1027 H 0.16109 0.89998 0.40494 0.0
H1028 H 0.29959 0.80591 0.4212 0.0
H1029 H 0.30271 0.82644 0.3813 0.0
H1030 H 0.29773 0.82564 0.47249 0.0
H1031 H 0.26516 0.83637 0.50059 0.0
C1032 C 0.09479 0.74297 0.63678 0.0
C1033 C 0.1028 0.74509 0.60168 0.0
C1034 C 0.04899 0.7197 0.58647 0.0
C1035 C 0.0416 0.71452 0.62132 0.0
N1036 N 0.06015 0.71704 0.68038 0.0
N1037 N 0.09295 0.72602 0.54432 0.0
C1038 C 0.06523 0.72497 0.64689 0.0
C1039 C 0.08181 0.72977 0.577 0.0
N1040 N 0.11489 0.75931 0.66011 0.0
N1041 N 0.02403 0.7159 0.56257 0.0
H1042 H 0.11755 0.73283 0.53738 0.0
H1043 H 0.0793 0.71289 0.52561 0.0
H1044 H -0.00117 0.71196 0.56964 0.0
H1045 H 0.02751 0.72149 0.53684 0.0
H1046 H 0.10833 0.76243 0.68565 0.0
H1047 H 0.13768 0.77098 0.65321 0.0
H1048 H 0.07862 0.72035 0.69923 0.0
H1049 H 0.03801 0.70579 0.68925 0.0
C1050 C 0.20355 0.0702 0.658 0.0
C1051 C 0.23613 0.08342 0.66371 0.0
C1052 C 0.22197 0.13413 0.63029 0.0
C1053 C 0.19368 0.11624 0.61679 0.0
N1054 N 0.1541 0.06917 0.62125 0.0
N1055 N 0.27431 0.1307 0.6633 0.0
C1056 C 0.18276 0.0853 0.63242 0.0
C1057 C 0.24401 0.11701 0.65339 0.0
N1058 N 0.19363 0.0423 0.67611 0.0
N1059 N 0.2278 0.16704 0.62057 0.0
H1060 H 0.28993 0.11811 0.68076 0.0
H1061 H 0.28417 0.15348 0.65408 0.0
H1062 H 0.21193 0.17995 0.60353 0.0
H1063 H 0.24671 0.18238 0.63106 0.0
H1064 H 0.1693 0.032 0.67509 0.0
H1065 H 0.20956 0.03143 0.69455 0.0
H1066 H 0.14726 0.04463 0.62854 0.0
H1067 H 0.13757 0.07987 0.60358 0.0
C1068 C 0.84196 0.23352 0.5746 0.0
C1069 C 0.83855 0.24166 0.53939 0.0
C1070 C 0.87755 0.28959 0.54629 0.0
C1071 C 0.88432 0.27859 0.5803 0.0
N1072 N 0.86476 0.24861 0.6302 0.0
N1073 N 0.84248 0.28424 0.49533 0.0
C1074 C 0.86389 0.25317 0.59557 0.0
C1075 C 0.85282 0.27204 0.52636 0.0
N1076 N 0.8251 0.20593 0.58741 0.0
N1077 N 0.89546 0.31609 0.53272 0.0
H1078 H 0.82357 0.27266 0.48077 0.0
H1079 H 0.85 0.3076 0.48536 0.0
H1080 H 0.91158 0.33142 0.54716 0.0
H1081 H 0.89547 0.32225 0.50688 0.0
H1082 H 0.8297 0.19545 0.6114 0.0
H1083 H 0.80699 0.19268 0.57315 0.0
H1084 H 0.84815 0.23286 0.6434 0.0
H1085 H 0.8803 0.26288 0.6464 0.0
C1086 C 0.70708 0.92435 0.53029 0.0
C1087 C 0.70527 0.92089 0.56644 0.0
C1088 C 0.73546 0.86668 0.56337 0.0
C1089 C 0.74027 0.87183 0.52796 0.0
N1090 N 0.73245 0.90561 0.47723 0.0
N1091 N 0.72133 0.89162 0.61808 0.0
C1092 C 0.72617 0.90048 0.51115 0.0
C1093 C 0.72057 0.89286 0.58322 0.0
N1094 N 0.69025 0.9504 0.51432 0.0
N1095 N 0.74504 0.83638 0.57767 0.0
H1096 H 0.71136 0.91095 0.63324 0.0
H1097 H 0.73452 0.87325 0.63198 0.0
H1098 H 0.7552 0.81663 0.56308 0.0
H1099 H 0.73998 0.82956 0.6028 0.0
H1100 H 0.68682 0.95202 0.488 0.0
H1101 H 0.67839 0.97 0.52763 0.0
H1102 H 0.72707 0.92819 0.46436 0.0
H1103 H 0.74456 0.88755 0.46206 0.0
C1104 C 0.40986 0.08552 0.25928 0.0
C1105 C 0.3862 0.09804 0.23485 0.0
C1106 C 0.34079 0.06481 0.26228 0.0
C1107 C 0.36542 0.04889 0.28353 0.0
N1108 N 0.42425 0.04142 0.2996 0.0
N1109 N 0.32899 0.10022 0.21275 0.0
C1110 C 0.40009 0.05883 0.28155 0.0
C1111 C 0.35157 0.08785 0.23632 0.0
N1112 N 0.44184 0.09891 0.2614 0.0
N1113 N 0.30705 0.05902 0.26788 0.0
H1114 H 0.33514 0.1196 0.19562 0.0
H1115 H 0.3046 0.09056 0.20931 0.0
H1116 H 0.29828 0.04259 0.2868 0.0
H1117 H 0.28763 0.07244 0.25579 0.0
H1118 H 0.45854 0.0939 0.2815 0.0
H1119 H 0.45102 0.11752 0.2451 0.0
H1120 H 0.45023 0.04388 0.29555 0.0
H1121 H 0.41845 0.02212 0.31661 0.0
C1122 C 0.90545 0.38225 0.26856 0.0
C1123 C 0.93984 0.37473 0.26091 0.0
C1124 C 0.93648 0.40971 0.20953 0.0
C1125 C 0.90191 0.41769 0.21716 0.0
N1126 N 0.85115 0.40335 0.24825 0.0
N1127 N 0.98528 0.37343 0.22037 0.0
C1128 C 0.88567 0.40161 0.24509 0.0
C1129 C 0.95435 0.38578 0.23004 0.0
N1130 N 0.89186 0.37121 0.29862 0.0
N1131 N 0.95299 0.4262 0.18379 0.0
H1132 H -0.00094 0.35608 0.23508 0.0
H1133 H -0.00416 0.37769 0.19644 0.0
H1134 H 0.94129 0.44339 0.16746 0.0
H1135 H 0.97912 0.42499 0.18018 0.0
H1136 H 0.86864 0.37962 0.30798 0.0
H1137 H 0.90462 0.35454 0.31497 0.0
H1138 H 0.83751 0.3893 0.26605 0.0
H1139 H 0.8356 0.41624 0.23091 0.0
C1140 C 0.62152 0.86014 0.23668 0.0
C1141 C 0.61342 0.89521 0.24139 0.0
C1142 C 0.55374 0.88294 0.2278 0.0
C1143 C 0.56304 0.84986 0.21762 0.0
N1144 N 0.60315 0.80433 0.21612 0.0
N1145 N 0.57139 0.94027 0.24052 0.0
C1146 C 0.59613 0.83748 0.22387 0.0
C1147 C 0.57934 0.90661 0.23707 0.0
N1148 N 0.65364 0.84887 0.24352 0.0
N1149 N 0.52014 0.89162 0.22808 0.0
H1150 H 0.58818 0.95855 0.2498 0.0
H1151 H 0.54853 0.95049 0.23191 0.0
H1152 H 0.50119 0.87449 0.22076 0.0
H1153 H 0.51087 0.91418 0.2385 0.0
H1154 H 0.66081 0.82338 0.24358 0.0
H1155 H 0.67337 0.86532 0.24987 0.0
H1156 H 0.62729 0.79362 0.21654 0.0
H1157 H 0.58397 0.78736 0.20893 0.0
C1158 C 0.15118 0.63453 0.26032 0.0
C1159 C 0.11506 0.63288 0.26073 0.0
C1160 C 0.11724 0.57635 0.23499 0.0
C1161 C 0.15281 0.57889 0.23188 0.0
N1162 N 0.20383 0.61202 0.23714 0.0
N1163 N 0.06469 0.60738 0.23527 0.0
C1164 C 0.16994 0.60852 0.24332 0.0
C1165 C 0.09826 0.60543 0.24409 0.0
N1166 N 0.16736 0.66109 0.27598 0.0
N1167 N 0.10138 0.5462 0.22812 0.0
H1168 H 0.05004 0.62919 0.2379 0.0
H1169 H 0.05264 0.5891 0.22019 0.0
H1170 H 0.11449 0.52429 0.22106 0.0
H1171 H 0.07555 0.5424 0.23158 0.0
H1172 H 0.19348 0.66191 0.28013 0.0
H1173 H 0.15424 0.68206 0.28563 0.0
H1174 H 0.21725 0.63449 0.24139 0.0
H1175 H 0.21819 0.59252 0.22628 0.0
C1176 C 0.3999 0.85323 0.71874 0.0
C1177 C 0.43061 0.86444 0.73371 0.0
C1178 C 0.41767 0.9238 0.71894 0.0
C1179 C 0.38641 0.91276 0.7048 0.0
N1180 N 0.34989 0.86716 0.68519 0.0
N1181 N 0.47255 0.90821 0.74274 0.0
C1182 C 0.37834 0.87744 0.70253 0.0
C1183 C 0.44092 0.89908 0.73132 0.0
N1184 N 0.39044 0.81992 0.72216 0.0
N1185 N 0.42461 0.95791 0.7213 0.0
H1186 H 0.48942 0.89069 0.7535 0.0
H1187 H 0.4831 0.93231 0.73993 0.0
H1188 H 0.40795 0.97676 0.71278 0.0
H1189 H 0.44611 0.96808 0.73292 0.0
H1190 H 0.36644 0.81066 0.7159 0.0
H1191 H 0.40656 0.80155 0.73265 0.0
H1192 H 0.34453 0.84184 0.67938 0.0
H1193 H 0.3322 0.88413 0.67497 0.0
C1194 C 0.07398 0.32807 0.74069 0.0
C1195 C 0.03912 0.33405 0.73434 0.0
C1196 C 0.0432 0.38965 0.76292 0.0
C1197 C 0.07896 0.38523 0.76533 0.0
N1198 N 0.12909 0.3515 0.75575 0.0
N1199 N -0.01165 0.36561 0.74731 0.0
C1200 C 0.09451 0.35453 0.75444 0.0
C1201 C 0.02296 0.36329 0.74815 0.0
N1202 N 0.087 0.2966 0.73367 0.0
N1203 N 0.02894 0.41957 0.77371 0.0
H1204 H 0.9729 0.3466 0.73725 0.0
H1205 H 0.97444 0.38482 0.75894 0.0
H1206 H 0.04295 0.4391 0.78504 0.0
H1207 H 0.00366 0.42624 0.76999 0.0
H1208 H 0.11165 0.28907 0.73959 0.0
H1209 H 0.07162 0.27679 0.72477 0.0
H1210 H 0.14246 0.33107 0.74557 0.0
H1211 H 0.1449 0.37086 0.76481 0.0
C1212 C 0.57594 0.05701 0.7286 0.0
C1213 C 0.60559 0.06813 0.71181 0.0
C1214 C 0.60946 0.11769 0.74999 0.0
C1215 C 0.57735 0.10898 0.76349 0.0
N1216 N 0.528 0.07234 0.76373 0.0
N1217 N 0.65136 0.10822 0.70565 0.0
C1218 C 0.56018 0.07893 0.75255 0.0
C1219 C 0.62282 0.0981 0.72251 0.0
N1220 N 0.56287 0.0255 0.7214 0.0
N1221 N 0.62713 0.1444 0.7637 0.0
H1222 H 0.66275 0.09327 0.6869 0.0
H1223 H 0.66309 0.13171 0.70924 0.0
H1224 H 0.61753 0.1594 0.78342 0.0
H1225 H 0.65201 0.15039 0.75726 0.0
H1226 H 0.54317 0.01432 0.73499 0.0
H1227 H 0.57388 0.00905 0.7037 0.0
H1228 H 0.51305 0.05231 0.7549 0.0
H1229 H 0.51468 0.08889 0.77952 0.0
C1230 C 0.84009 0.56944 0.6893 0.0
C1231 C 0.86593 0.5907 0.70326 0.0
C1232 C 0.85367 0.56718 0.7593 0.0
C1233 C 0.8356 0.53964 0.74383 0.0
N1234 N 0.81256 0.51443 0.69234 0.0
N1235 N 0.89922 0.60715 0.75312 0.0
C1236 C 0.82838 0.54098 0.70837 0.0
C1237 C 0.87291 0.5894 0.73876 0.0
N1238 N 0.82727 0.57628 0.65757 0.0
N1239 N 0.85227 0.57268 0.79366 0.0
H1240 H 0.91417 0.6247 0.74035 0.0
H1241 H 0.90788 0.60248 0.77791 0.0
H1242 H 0.8376 0.55809 0.8099 0.0
H1243 H 0.86237 0.59435 0.80532 0.0
H1244 H 0.80668 0.5632 0.64708 0.0
H1245 H 0.83496 0.59754 0.64357 0.0
H1246 H 0.81013 0.51284 0.66588 0.0
H1247 H 0.80433 0.49269 0.70508 0.0
C1248 C 0.20229 0.41946 0.06306 0.0
C1249 C 0.20204 0.40564 0.09662 0.0
C1250 C 0.21554 0.34934 0.07372 0.0
C1251 C 0.22244 0.3647 0.04189 0.0
N1252 N 0.21838 0.41208 0.00365 0.0
N1253 N 0.20773 0.35763 0.13453 0.0
C1254 C 0.21362 0.39898 0.03563 0.0
C1255 C 0.20799 0.37045 0.1021 0.0
N1256 N 0.19137 0.45198 0.05743 0.0
N1257 N 0.21652 0.31471 0.07664 0.0
H1258 H 0.20262 0.37271 0.15577 0.0
H1259 H 0.21504 0.33292 0.14075 0.0
H1260 H 0.22073 0.29893 0.0557 0.0
H1261 H 0.20959 0.30154 0.09858 0.0
H1262 H 0.18813 0.46238 0.03329 0.0
H1263 H 0.18478 0.46864 0.077 0.0
H1264 H 0.2171 0.43785 -0.00239 0.0
H1265 H 0.22481 0.39652 0.98303 0.0
C1266 C 0.24798 0.59952 0.85543 0.0
C1267 C 0.26619 0.58249 0.8818 0.0
C1268 C 0.23032 0.53197 0.87485 0.0
C1269 C 0.21183 0.54913 0.84873 0.0
N1270 N 0.2066 0.59558 0.80918 0.0
N1271 N 0.27927 0.53106 0.91289 0.0
C1272 C 0.22182 0.58185 0.83744 0.0
C1273 C 0.25898 0.54808 0.89008 0.0
N1274 N 0.25536 0.63277 0.84813 0.0
N1275 N 0.21938 0.5009 0.8862 0.0
H1276 H 0.2994 0.54253 0.9259 0.0
H1277 H 0.27776 0.50503 0.91758 0.0
H1278 H 0.1987 0.48806 0.87554 0.0
H1279 H 0.22975 0.4881 0.90702 0.0
H1280 H 0.24078 0.64799 0.83198 0.0
H1281 H 0.27554 0.64583 0.85951 0.0
H1282 H 0.21426 0.61817 0.79767 0.0
H1283 H 0.18783 0.5827 0.79541 0.0
C1284 C 0.37798 0.23596 0.8436 0.0
C1285 C 0.41312 0.23351 0.852 0.0
C1286 C 0.39975 0.24122 0.91157 0.0
C1287 C 0.36573 0.249 0.9036 0.0
N1288 N 0.32201 0.25518 0.8606 0.0
N1289 N 0.45625 0.25138 0.89223 0.0
C1290 C 0.35447 0.24649 0.86913 0.0
C1291 C 0.42384 0.24136 0.88542 0.0
N1292 N 0.36737 0.22861 0.81121 0.0
N1293 N 0.40922 0.23501 0.94444 0.0
H1294 H 0.47415 0.25546 0.87321 0.0
H1295 H 0.46326 0.26067 0.91622 0.0
H1296 H 0.39126 0.23368 0.96383 0.0
H1297 H 0.43384 0.22753 0.95102 0.0
H1298 H 0.34195 0.22581 0.8043 0.0
H1299 H 0.3845 0.22461 0.79141 0.0
H1300 H 0.3136 0.25819 0.83552 0.0
H1301 H 0.30358 0.26003 0.87885 0.0
C1302 C 0.6997 0.41225 0.89137 0.0
C1303 C 0.72472 0.39096 0.87721 0.0
C1304 C 0.71125 0.34639 0.91874 0.0
C1305 C 0.69018 0.37002 0.93622 0.0
N1306 N 0.66923 0.42757 0.94243 0.0
N1307 N 0.75512 0.33796 0.8763 0.0
C1308 C 0.68549 0.40351 0.92327 0.0
C1309 C 0.73039 0.35784 0.89036 0.0
N1310 N 0.69 0.44105 0.87442 0.0
N1311 N 0.7124 0.31297 0.92854 0.0
H1312 H 0.76776 0.34494 0.854 0.0
H1313 H 0.76399 0.31548 0.88729 0.0
H1314 H 0.69938 0.30339 0.9495 0.0
H1315 H 0.72421 0.29399 0.91434 0.0
H1316 H 0.66996 0.45646 0.88221 0.0
H1317 H 0.69995 0.44741 0.85063 0.0
H1318 H 0.66801 0.45321 0.93565 0.0
H1319 H 0.66017 0.42268 0.96692 0.0
C1320 C 0.63068 0.75278 0.90717 0.0
C1321 C 0.63963 0.72081 0.8938 0.0
C1322 C 0.60984 0.73532 0.8405 0.0
C1323 C 0.59379 0.7629 0.85748 0.0
N1324 N 0.5857 0.7937 0.91086 0.0
N1325 N 0.63836 0.68099 0.84708 0.0
C1326 C 0.60362 0.77086 0.89177 0.0
C1327 C 0.6297 0.71206 0.86001 0.0
N1328 N 0.64711 0.76536 0.93522 0.0
N1329 N 0.60722 0.73193 0.80588 0.0
H1330 H 0.65418 0.66418 0.86031 0.0
H1331 H 0.62853 0.67143 0.82425 0.0
H1332 H 0.59452 0.74952 0.79049 0.0
H1333 H 0.62079 0.71382 0.79212 0.0
H1334 H 0.64297 0.7899 0.9445 0.0
H1335 H 0.66747 0.75273 0.94668 0.0
H1336 H 0.59016 0.79743 0.93686 0.0
H1337 H 0.56387 0.80586 0.90223 0.0
C1338 C 0.75369 0.60981 0.13039 0.0
C1339 C 0.75423 0.57382 0.13383 0.0
C1340 C 0.7194 0.568 0.08279 0.0
C1341 C 0.71897 0.60391 0.07854 0.0
N1342 N 0.72754 0.65934 0.10423 0.0
N1343 N 0.72467 0.52135 0.12278 0.0
C1344 C 0.73363 0.62508 0.10417 0.0
C1345 C 0.73251 0.55382 0.11333 0.0
N1346 N 0.77348 0.6291 0.15162 0.0
N1347 N 0.70894 0.54732 0.05681 0.0
H1348 H 0.73282 0.51093 0.14589 0.0
H1349 H 0.70672 0.50662 0.10983 0.0
H1350 H 0.70246 0.55691 0.03286 0.0
H1351 H 0.71055 0.52089 0.05781 0.0
H1352 H 0.77787 0.65501 0.148 0.0
H1353 H 0.78652 0.61839 0.1723 0.0
H1354 H 0.73481 0.67537 0.12415 0.0
H1355 H 0.71278 0.67145 0.08573 0.0
C1356 C 0.41728 0.7332 0.05562 0.0
C1357 C 0.40518 0.74544 0.08726 0.0
C1358 C 0.34719 0.72861 0.07086 0.0
C1359 C 0.35922 0.71918 0.03814 0.0
N1360 N 0.40408 0.72081 -0.00339 0.0
N1361 N 0.35874 0.75533 0.1257 0.0
C1362 C 0.39373 0.7243 0.02962 0.0
C1363 C 0.37005 0.74321 0.09508 0.0
N1364 N 0.45125 0.72881 0.05072 0.0
N1365 N 0.31387 0.72316 0.07865 0.0
H1366 H 0.3753 0.76311 0.14509 0.0
H1367 H 0.33324 0.75838 0.13174 0.0
H1368 H 0.29613 0.71574 0.06021 0.0
H1369 H 0.3039 0.72534 0.10309 0.0
H1370 H 0.46127 0.71734 0.02905 0.0
H1371 H 0.46921 0.73315 0.06979 0.0
H1372 H 0.42816 0.72778 0.98828 0.0
H1373 H 0.38774 0.71352 0.97698 0.0
C1374 C 0.53647 0.25698 0.12766 0.0
C1375 C 0.53612 0.22269 0.11639 0.0
C1376 C 0.59626 0.22781 0.09994 0.0
C1377 C 0.59527 0.26268 0.10877 0.0
N1378 N 0.57106 0.3033 0.14824 0.0
N1379 N 0.56656 0.17438 0.09252 0.0
C1380 C 0.56741 0.27532 0.12782 0.0
C1381 C 0.56635 0.20765 0.10291 0.0
N1382 N 0.50693 0.27273 0.13675 0.0
N1383 N 0.62677 0.21368 0.09133 0.0
H1384 H 0.54709 0.15723 0.09712 0.0
H1385 H 0.58576 0.16358 0.07799 0.0
H1386 H 0.6493 0.22766 0.09212 0.0
H1387 H 0.63077 0.18785 0.08706 0.0
H1388 H 0.5053 0.29886 0.14119 0.0
H1389 H 0.48344 0.2605 0.13633 0.0
H1390 H 0.55191 0.31211 0.16422 0.0
H1391 H 0.59461 0.31405 0.15383 0.0
C1392 C 0.87749 0.69248 0.54614 0.0
C1393 C 0.87823 0.69457 0.58238 0.0
C1394 C 0.83931 0.7434 0.57989 0.0
C1395 C 0.83947 0.74174 0.54362 0.0
N1396 N 0.84587 0.70449 0.49463 0.0
N1397 N 0.85083 0.71459 0.63354 0.0
C1398 C 0.85427 0.713 0.52743 0.0
C1399 C 0.8564 0.71785 0.59927 0.0
N1400 N 0.90005 0.67229 0.52918 0.0
N1401 N 0.8227 0.76945 0.59577 0.0
H1402 H 0.86162 0.69521 0.64823 0.0
H1403 H 0.83287 0.72878 0.64677 0.0
H1404 H 0.80678 0.7862 0.5826 0.0
H1405 H 0.82542 0.77495 0.62166 0.0
H1406 H 0.90306 0.67302 0.50277 0.0
H1407 H 0.91801 0.65716 0.54143 0.0
H1408 H 0.8541 0.68208 0.48306 0.0
H1409 H 0.82735 0.71695 0.48037 0.0
C1410 C 0.21769 0.92639 0.64331 0.0
C1411 C 0.23994 0.9178 0.66984 0.0
C1412 C 0.22795 0.85742 0.65956 0.0
C1413 C 0.21315 0.86671 0.62781 0.0
N1414 N 0.20289 0.91088 0.58625 0.0
N1415 N 0.26562 0.87543 0.70566 0.0
C1416 C 0.21018 0.90143 0.61885 0.0
C1417 C 0.24429 0.88323 0.67928 0.0
N1418 N 0.20708 0.95923 0.63946 0.0
N1419 N 0.22693 0.82439 0.6703 0.0
H1420 H 0.27687 0.89451 0.72051 0.0
H1421 H 0.27293 0.85064 0.71174 0.0
H1422 H 0.2163 0.80502 0.65541 0.0
H1423 H 0.23501 0.81673 0.69449 0.0
H1424 H 0.18942 0.96652 0.62087 0.0
H1425 H 0.2138 0.97802 0.65709 0.0
H1426 H 0.20642 0.93595 0.57851 0.0
H1427 H 0.198 0.89355 0.56667 0.0
C1428 C 0.07825 0.27713 0.56424 0.0
C1429 C 0.06529 0.26868 0.5971 0.0
C1430 C 0.1151 0.23229 0.6065 0.0
C1431 C 0.12588 0.23975 0.57303 0.0
N1432 N 0.12864 0.28148 0.52935 0.0
N1433 N 0.07937 0.24745 0.65396 0.0
C1434 C 0.11139 0.26704 0.55556 0.0
C1435 C 0.08607 0.24906 0.61983 0.0
N1436 N 0.05816 0.29251 0.54041 0.0
N1437 N 0.13172 0.20765 0.62455 0.0
H1438 H 0.05928 0.25997 0.66549 0.0
H1439 H 0.0958 0.23622 0.67158 0.0
H1440 H 0.1543 0.19711 0.61562 0.0
H1441 H 0.12271 0.19723 0.64721 0.0
H1442 H 0.06626 0.2985 0.51588 0.0
H1443 H 0.03223 0.29496 0.54397 0.0
H1444 H 0.12019 0.30331 0.51673 0.0
H1445 H 0.15314 0.27326 0.5234 0.0
C1446 C 0.7314 0.08637 0.52633 0.0
C1447 C 0.74032 0.1202 0.53427 0.0
C1448 C 0.70936 0.11722 0.58795 0.0
C1449 C 0.70367 0.08213 0.58161 0.0
N1450 N 0.71191 0.0319 0.54675 0.0
N1451 N 0.73877 0.16896 0.57141 0.0
C1452 C 0.71575 0.06621 0.55149 0.0
C1453 C 0.72948 0.13608 0.56474 0.0
N1454 N 0.73676 0.07413 0.49412 0.0
N1455 N 0.69487 0.13244 0.61566 0.0
H1456 H 0.75095 0.18414 0.55337 0.0
H1457 H 0.7353 0.18091 0.59485 0.0
H1458 H 0.68136 0.11876 0.63392 0.0
H1459 H 0.69493 0.15861 0.61991 0.0
H1460 H 0.72818 0.05053 0.48555 0.0
H1461 H 0.74734 0.08901 0.47485 0.0
H1462 H 0.72339 0.01842 0.52706 0.0
H1463 H 0.69926 0.01619 0.56385 0.0
C1464 C 0.88449 0.25057 0.41446 0.0
C1465 C 0.86168 0.23828 0.38908 0.0
C1466 C 0.89345 0.26691 0.34436 0.0
C1467 C 0.91639 0.27875 0.36981 0.0
N1468 N 0.92988 0.28933 0.42912 0.0
N1469 N 0.83958 0.23908 0.33189 0.0
C1470 C 0.91043 0.27327 0.40493 0.0
C1471 C 0.86454 0.24804 0.35455 0.0
N1472 N 0.88321 0.23822 0.44711 0.0
N1473 N 0.89975 0.27322 0.31064 0.0
H1474 H 0.81815 0.22535 0.33932 0.0
H1475 H 0.83858 0.24728 0.30665 0.0
H1476 H 0.92007 0.28808 0.30245 0.0
H1477 H 0.88588 0.26265 0.2906 0.0
H1478 H 0.90186 0.24278 0.46551 0.0
H1479 H 0.8649 0.22103 0.45532 0.0
H1480 H 0.92405 0.28948 0.45502 0.0
H1481 H 0.95057 0.30469 0.42315 0.0
C1482 C 0.76537 0.93637 0.35276 0.0
C1483 C 0.74672 0.92402 0.32464 0.0
C1484 C 0.767 0.86613 0.33681 0.0
C1485 C 0.77938 0.87794 0.3687 0.0
N1486 N 0.78726 0.924 0.409 0.0
N1487 N 0.73187 0.87776 0.28705 0.0
C1488 C 0.77799 0.91308 0.37714 0.0
C1489 C 0.74862 0.88908 0.31543 0.0
N1490 N 0.77078 0.97055 0.35585 0.0
N1491 N 0.77307 0.83329 0.327 0.0
H1492 H 0.72102 0.89439 0.26939 0.0
H1493 H 0.72841 0.85212 0.28124 0.0
H1494 H 0.78553 0.81578 0.34273 0.0
H1495 H 0.76768 0.82396 0.30269 0.0
H1496 H 0.78628 0.98128 0.37463 0.0
H1497 H 0.76284 0.98746 0.33684 0.0
H1498 H 0.78387 0.94896 0.41736 0.0
H1499 H 0.79505 0.90736 0.42824 0.0
C1500 C 0.12596 0.74945 0.38691 0.0
C1501 C 0.09082 0.74226 0.3887 0.0
C1502 C 0.08805 0.76542 0.44641 0.0
C1503 C 0.12344 0.77209 0.44502 0.0
N1504 N 0.17502 0.77704 0.41243 0.0
N1505 N 0.03674 0.75025 0.41519 0.0
C1506 C 0.14208 0.76628 0.41466 0.0
C1507 C 0.07131 0.75274 0.41692 0.0
N1508 N 0.144 0.73857 0.35927 0.0
N1509 N 0.07066 0.77082 0.47605 0.0
H1510 H 0.02428 0.74135 0.39335 0.0
H1511 H 0.0204 0.75968 0.43371 0.0
H1512 H 0.08195 0.78088 0.49797 0.0
H1513 H 0.04566 0.76323 0.47985 0.0
H1514 H 0.17037 0.73903 0.35797 0.0
H1515 H 0.13224 0.72786 0.33785 0.0
H1516 H 0.18878 0.77706 0.38982 0.0
H1517 H 0.18825 0.78767 0.43299 0.0
C1518 C 0.24081 0.04491 0.46016 0.0
C1519 C 0.231 0.07714 0.44744 0.0
C1520 C 0.26218 0.06609 0.39454 0.0
C1521 C 0.2692 0.03257 0.40622 0.0
N1522 N 0.26026 -0.01221 0.44724 0.0
N1523 N 0.22828 0.11726 0.40085 0.0
C1524 C 0.25691 0.02127 0.43819 0.0
C1525 C 0.24062 0.08751 0.41414 0.0
N1526 N 0.23584 0.03763 0.49379 0.0
N1527 N 0.27711 0.07788 0.36541 0.0
H1528 H 0.21357 0.13424 0.41491 0.0
H1529 H 0.23091 0.12416 0.37533 0.0
H1530 H 0.29229 0.06267 0.34991 0.0
H1531 H 0.27623 0.10327 0.35776 0.0
H1532 H 0.24394 0.01526 0.50546 0.0
H1533 H 0.22711 0.05606 0.51078 0.0
H1534 H 0.24864 0.97724 0.46858 0.0
H1535 H 0.27196 0.96982 0.43156 0.0
C1536 C 0.60853 0.86312 0.72262 0.0
C1537 C 0.57303 0.8587 0.72559 0.0
C1538 C 0.56291 0.90494 0.68612 0.0
C1539 C 0.59818 0.90791 0.68043 0.0
N1540 N 0.65422 0.88328 0.6869 0.0
N1541 N 0.51802 0.86571 0.69885 0.0
C1542 C 0.62111 0.88505 0.69678 0.0
C1543 C 0.55074 0.87616 0.70338 0.0
N1544 N 0.63 0.84661 0.74453 0.0
N1545 N 0.54119 0.93066 0.67749 0.0
H1546 H 0.50836 0.84384 0.71026 0.0
H1547 H 0.50187 0.87692 0.68087 0.0
H1548 H 0.54951 0.95392 0.66771 0.0
H1549 H 0.51556 0.93027 0.68401 0.0
H1550 H 0.65591 0.85178 0.74599 0.0
H1551 H 0.62135 0.8288 0.76228 0.0
H1552 H 0.67111 0.86501 0.69616 0.0
H1553 H 0.66388 0.89778 0.66694 0.0
C1554 C 0.05676 0.61983 0.74747 0.0
C1555 C 0.02443 0.60885 0.73558 0.0
C1556 C 0.03934 0.54979 0.74975 0.0
C1557 C 0.07139 0.56067 0.76199 0.0
N1558 N 0.10941 0.60629 0.7772 0.0
N1559 N 0.98141 0.56527 0.73575 0.0
C1560 C 0.07976 0.59586 0.76217 0.0
C1561 C 0.01456 0.5744 0.74003 0.0
N1562 N 0.06529 0.65341 0.74444 0.0
N1563 N 0.03277 0.51572 0.74711 0.0
H1564 H 0.9625 0.5824 0.72871 0.0
H1565 H 0.97196 0.54168 0.74312 0.0
H1566 H 0.05082 0.49714 0.75301 0.0
H1567 H 0.01023 0.50585 0.73744 0.0
H1568 H 0.0897 0.66291 0.74815 0.0
H1569 H 0.04741 0.67185 0.73769 0.0
H1570 H 0.11562 0.63166 0.78173 0.0
H1571 H 0.12748 0.58918 0.7865 0.0
C1572 C 0.39946 0.14313 0.72828 0.0
C1573 C 0.43382 0.1336 0.72827 0.0
C1574 C 0.41995 0.08095 0.69824 0.0
C1575 C 0.38514 0.0872 0.70547 0.0
N1576 N 0.34162 0.12283 0.7298 0.0
N1577 N 0.47864 0.09873 0.70741 0.0
C1578 C 0.37469 0.11826 0.72056 0.0
C1579 C 0.44463 0.10437 0.71054 0.0
N1580 N 0.39094 0.17544 0.73765 0.0
N1581 N 0.42913 0.05271 0.68007 0.0
H1582 H 0.49631 0.11692 0.71555 0.0
H1583 H 0.48931 0.07678 0.69721 0.0
H1584 H 0.41168 0.03438 0.67212 0.0
H1585 H 0.4537 0.04772 0.67192 0.0
H1586 H 0.36629 0.18497 0.73634 0.0
H1587 H 0.40957 0.19352 0.74339 0.0
H1588 H 0.33307 0.14395 0.74334 0.0
H1589 H 0.32337 0.10377 0.72699 0.0
C1590 C 0.87219 0.34919 0.77817 0.0
C1591 C 0.84002 0.36325 0.76825 0.0
C1592 C 0.84666 0.33961 0.71097 0.0
C1593 C 0.87981 0.32906 0.72008 0.0
N1594 N 0.91804 0.31046 0.76409 0.0
N1595 N 0.79172 0.35929 0.73039 0.0
C1596 C 0.89033 0.3291 0.75441 0.0
C1597 C 0.82556 0.35426 0.73624 0.0
N1598 N 0.88697 0.35675 0.8089 0.0
N1599 N 0.8361 0.33685 0.67781 0.0
H1600 H 0.77549 0.36848 0.74924 0.0
H1601 H 0.77917 0.35104 0.70842 0.0
H1602 H 0.85054 0.32428 0.65942 0.0
H1603 H 0.81386 0.34783 0.66843 0.0
H1604 H 0.91251 0.35215 0.81422 0.0
H1605 H 0.87482 0.36859 0.82901 0.0
H1606 H 0.92525 0.30688 0.78947 0.0
H1607 H 0.93161 0.29553 0.74691 0.0
C1608 C 0.57673 0.11494 0.20069 0.0
C1609 C 0.54287 0.10302 0.19674 0.0
C1610 C 0.56321 0.04431 0.19892 0.0
C1611 C 0.59563 0.05597 0.20892 0.0
N1612 N 0.63428 0.1024 0.21916 0.0
N1613 N 0.50316 0.05619 0.19629 0.0
C1614 C 0.6029 0.09136 0.20916 0.0
C1615 C 0.53589 0.06761 0.19708 0.0
N1616 N 0.5838 0.14874 0.19616 0.0
N1617 N 0.55883 0.01059 0.19162 0.0
H1618 H 0.48231 0.07248 0.19498 0.0
H1619 H 0.49676 0.03078 0.2004 0.0
H1620 H 0.57921 -0.00643 0.19229 0.0
H1621 H 0.5364 0.00053 0.18162 0.0
H1622 H 0.60836 0.15839 0.1946 0.0
H1623 H 0.56492 0.16702 0.1923 0.0
H1624 H 0.63994 0.12778 0.22446 0.0
H1625 H 0.65455 0.08578 0.22303 0.0
C1626 C 0.95158 0.58019 0.24898 0.0
C1627 C 0.95279 0.61591 0.25289 0.0
C1628 C 0.89913 0.61918 0.22053 0.0
C1629 C 0.89606 0.5831 0.22254 0.0
N1630 N 0.91537 0.5311 0.24961 0.0
N1631 N 0.92607 0.67054 0.24199 0.0
C1632 C 0.92082 0.56419 0.24045 0.0
C1633 C 0.92619 0.63597 0.23838 0.0
N1634 N 0.98041 0.56152 0.2528 0.0
N1635 N 0.87623 0.63728 0.20149 0.0
H1636 H 0.94639 0.6843 0.25187 0.0
H1637 H 0.90511 0.68565 0.23609 0.0
H1638 H 0.85472 0.62604 0.1906 0.0
H1639 H 0.87927 0.66292 0.1954 0.0
H1640 H 0.98114 0.5354 0.24832 0.0
H1641 H 0.00388 0.57333 0.25615 0.0
H1642 H 0.93228 0.51774 0.26525 0.0
H1643 H 0.89278 0.51821 0.24487 0.0
C1644 C 0.37055 0.84541 0.21928 0.0
C1645 C 0.40582 0.83786 0.22046 0.0
C1646 C 0.41137 0.86875 0.27397 0.0
C1647 C 0.37572 0.8755 0.27398 0.0
N1648 N 0.32038 0.86131 0.25112 0.0
N1649 N 0.45642 0.83192 0.25523 0.0
C1650 C 0.35489 0.86126 0.24789 0.0
C1651 C 0.425 0.84578 0.24996 0.0
N1652 N 0.35207 0.83748 0.19075 0.0
N1653 N 0.43297 0.88575 0.29541 0.0
H1654 H 0.46766 0.81461 0.23873 0.0
H1655 H 0.46974 0.83454 0.27816 0.0
H1656 H 0.4251 0.9038 0.31294 0.0
H1657 H 0.45931 0.8848 0.29315 0.0
H1658 H 0.3274 0.8461 0.18651 0.0
H1659 H 0.36211 0.82333 0.17063 0.0
H1660 H 0.30416 0.84854 0.23437 0.0
H1661 H 0.30803 0.87106 0.27245 0.0
C1662 C 0.09771 0.42048 0.25247 0.0
C1663 C 0.12902 0.41392 0.23668 0.0
C1664 C 0.12967 0.35673 0.26192 0.0
C1665 C 0.09576 0.36188 0.27279 0.0
N1666 N 0.04581 0.39799 0.2745 0.0
N1667 N 0.17485 0.37486 0.2244 0.0
C1668 C 0.07922 0.39344 0.26675 0.0
C1669 C 0.14543 0.38194 0.24121 0.0
N1670 N 0.08596 0.45314 0.25423 0.0
N1671 N 0.1466 0.32772 0.27108 0.0
H1672 H 0.18813 0.3929 0.21037 0.0
H1673 H 0.18537 0.35056 0.22305 0.0
H1674 H 0.13506 0.30778 0.28427 0.0
H1675 H 0.17252 0.32426 0.26734 0.0
H1676 H 0.06341 0.45985 0.26592 0.0
H1677 H 0.10055 0.4739 0.24659 0.0
H1678 H 0.03134 0.41729 0.26341 0.0
H1679 H 0.03188 0.3816 0.28979 0.0
C1680 C 0.72123 0.59841 0.87331 0.0
C1681 C 0.71692 0.58711 0.90733 0.0
C1682 C 0.73559 0.52994 0.89217 0.0
C1683 C 0.73918 0.54085 0.85774 0.0
N1684 N 0.73208 0.58351 0.81415 0.0
N1685 N 0.72716 0.5458 0.95137 0.0
C1686 C 0.73125 0.5747 0.84794 0.0
C1687 C 0.726 0.55385 0.91741 0.0
N1688 N 0.7169 0.63218 0.86589 0.0
N1689 N 0.74079 0.49663 0.90077 0.0
H1690 H 0.72104 0.56329 0.9704 0.0
H1691 H 0.73721 0.52319 0.96096 0.0
H1692 H 0.75092 0.47869 0.88419 0.0
H1693 H 0.73271 0.48615 0.92373 0.0
H1694 H 0.72182 0.6431 0.84225 0.0
H1695 H 0.71084 0.65012 0.88456 0.0
H1696 H 0.72415 0.60692 0.80459 0.0
H1697 H 0.73839 0.56622 0.79497 0.0
C1698 C 0.73125 0.37111 0.12833 0.0
C1699 C 0.71718 0.38039 0.09623 0.0
C1700 C 0.75299 0.43075 0.0942 0.0
C1701 C 0.7697 0.41993 0.1244 0.0
N1702 N 0.77809 0.3778 0.16844 0.0
N1703 N 0.72072 0.41353 0.0446 0.0
C1704 C 0.75977 0.38951 0.14113 0.0
C1705 C 0.72996 0.40854 0.07791 0.0
N1706 N 0.71688 0.34541 0.1468 0.0
N1707 N 0.75818 0.46284 0.08178 0.0
H1708 H 0.70412 0.3973 0.03162 0.0
H1709 H 0.73197 0.43179 0.02903 0.0
H1710 H 0.7742 0.48045 0.09368 0.0
H1711 H 0.74469 0.47276 0.06113 0.0
H1712 H 0.72368 0.33985 0.17192 0.0
H1713 H 0.69662 0.33088 0.13757 0.0
H1714 H 0.77421 0.35402 0.17954 0.0
H1715 H 0.79878 0.39102 0.17862 0.0
C1716 C 0.60865 0.76222 0.1032 0.0
C1717 C 0.57625 0.76399 0.08731 0.0
C1718 C 0.60014 0.74288 0.03391 0.0
C1719 C 0.631 0.73581 0.05135 0.0
N1720 N 0.6658 0.73927 0.10187 0.0
N1721 N 0.53994 0.75386 0.03881 0.0
C1722 C 0.63566 0.746 0.08577 0.0
C1723 C 0.57176 0.75396 0.05289 0.0
N1724 N 0.61381 0.77708 0.13436 0.0
N1725 N 0.59772 0.73865 -0.00064 0.0
H1726 H 0.51862 0.76131 0.05249 0.0
H1727 H 0.53419 0.74365 0.01495 0.0
H1728 H 0.61739 0.72927 0.98455 0.0
H1729 H 0.57719 0.74724 0.98488 0.0
H1730 H 0.63761 0.77993 0.14569 0.0
H1731 H 0.59436 0.78869 0.148 0.0
H1732 H 0.6696 0.74181 0.12808 0.0
H1733 H 0.68686 0.72999 0.08875 0.0
C1734 C 0.26049 0.60923 0.07419 0.0
C1735 C 0.26541 0.59237 0.04252 0.0
C1736 C 0.24918 0.53809 0.06759 0.0
C1737 C 0.24137 0.55534 0.09811 0.0
N1738 N 0.23754 0.60659 0.13142 0.0
N1739 N 0.2609 0.54252 0.00701 0.0
C1740 C 0.24688 0.5907 0.10186 0.0
C1741 C 0.25841 0.55721 0.03859 0.0
N1742 N 0.26998 0.64248 0.07815 0.0
N1743 N 0.24714 0.50339 0.06677 0.0
H1744 H 0.26659 0.55666 0.9852 0.0
H1745 H 0.25506 0.51723 0.00174 0.0
H1746 H 0.24277 0.48925 0.0889 0.0
H1747 H 0.25188 0.48854 0.04536 0.0
H1748 H 0.27152 0.65473 0.10168 0.0
H1749 H 0.27743 0.65775 0.05784 0.0
H1750 H 0.23652 0.63293 0.13436 0.0
H1751 H 0.22956 0.59309 0.15288 0.0
C1752 C 0.3636 0.24595 0.06358 0.0
C1753 C 0.32854 0.25181 0.06907 0.0
C1754 C 0.33413 0.22873 0.12712 0.0
C1755 C 0.36948 0.22469 0.12188 0.0
N1756 N 0.41907 0.23877 0.08865 0.0
N1757 N 0.28056 0.25209 0.10699 0.0
C1758 C 0.38457 0.23634 0.09132 0.0
C1759 C 0.31387 0.24437 0.10129 0.0
N1760 N 0.37721 0.24894 0.03176 0.0
N1761 N 0.31999 0.21662 0.1565 0.0
H1762 H 0.26434 0.26062 0.08766 0.0
H1763 H 0.26928 0.25114 0.13093 0.0
H1764 H 0.33473 0.20717 0.17662 0.0
H1765 H 0.29396 0.21487 0.16051 0.0
H1766 H 0.4008 0.23866 0.02572 0.0
H1767 H 0.36429 0.25882 0.01079 0.0
H1768 H 0.43106 0.25072 0.06827 0.0
H1769 H 0.43583 0.23248 0.10821 0.0
C1770 C 0.24507 0.41638 0.85395 0.0
C1771 C 0.21492 0.39926 0.84487 0.0
C1772 C 0.2384 0.34611 0.8674 0.0
C1773 C 0.26426 0.36508 0.88424 0.0
N1774 N 0.29071 0.42005 0.89493 0.0
N1775 N 0.18309 0.34725 0.83991 0.0
C1776 C 0.26786 0.40059 0.87725 0.0
C1777 C 0.21193 0.36374 0.85017 0.0
N1778 N 0.25136 0.44803 0.84105 0.0
N1779 N 0.23936 0.31133 0.86772 0.0
H1780 H 0.16426 0.35929 0.82546 0.0
H1781 H 0.17728 0.32231 0.84679 0.0
H1782 H 0.25879 0.29777 0.87969 0.0
H1783 H 0.22292 0.2961 0.85347 0.0
H1784 H 0.27434 0.46074 0.84454 0.0
H1785 H 0.23475 0.45996 0.82399 0.0
H1786 H 0.29144 0.44653 0.89334 0.0
H1787 H 0.30689 0.41046 0.91357 0.0
C1788 C 0.61076 0.25985 0.91221 0.0
C1789 C 0.59577 0.26089 0.94512 0.0
C1790 C 0.54878 0.22649 0.92478 0.0
C1791 C 0.56569 0.22137 0.89338 0.0
N1792 N 0.61533 0.22933 0.85855 0.0
N1793 N 0.55516 0.2388 0.98481 0.0
C1794 C 0.59754 0.23691 0.88737 0.0
C1795 C 0.56624 0.2421 0.95202 0.0
N1796 N 0.63619 0.28197 0.9041 0.0
N1797 N 0.51549 0.21773 0.92819 0.0
H1798 H 0.56847 0.24875 0.00567 0.0
H1799 H 0.53492 0.22328 -0.00851 0.0
H1800 H 0.50157 0.20582 0.90886 0.0
H1801 H 0.5011 0.22493 0.94924 0.0
H1802 H 0.6458 0.28456 0.87952 0.0
H1803 H 0.6455 0.29986 0.92138 0.0
H1804 H 0.64021 0.23736 0.85462 0.0
H1805 H 0.60606 0.21293 0.83972 0.0
C1806 C 0.40005 0.72276 0.8249 0.0
C1807 C 0.41945 0.74496 0.84579 0.0
C1808 C 0.38121 0.73545 0.89324 0.0
C1809 C 0.36568 0.70878 0.8749 0.0
N1810 N 0.35968 0.67601 0.82331 0.0
N1811 N 0.43367 0.76552 0.90214 0.0
C1812 C 0.37477 0.70226 0.8405 0.0
C1813 C 0.41156 0.74915 0.88073 0.0
N1814 N 0.40512 0.72194 0.79045 0.0
N1815 N 0.36726 0.74753 0.92265 0.0
H1816 H 0.45735 0.77389 0.8939 0.0
H1817 H 0.43027 0.76683 0.92849 0.0
H1818 H 0.34397 0.73904 0.93176 0.0
H1819 H 0.37686 0.76868 0.93561 0.0
H1820 H 0.38937 0.70872 0.77359 0.0
H1821 H 0.42403 0.73615 0.77854 0.0
H1822 H 0.36777 0.66741 0.79955 0.0
H1823 H 0.33965 0.66212 0.83375 0.0
loop_
_geom_bond_atom_site_label_1
_geom_bond_atom_site_label_2
_geom_bond_distance
_geom_bond_site_symmetry_2
_ccdc_geom_bond_type
Sc0 O3 2.025 . S
Sc0 O10 2.105 1_455 S
Sc0 O13 2.105 . S
Sc0 O16 2.105 1_455 S
Sc0 O19 2.105 . S
Sc1 O3 2.025 . S
Sc1 O11 2.105 . S
Sc1 O15 2.105 . S
Sc1 O17 2.105 . S
Sc1 O21 2.105 . S
Sc2 O3 2.025 1_655 S
Sc2 O12 2.105 . S
Sc2 O14 2.105 . S
Sc2 O18 2.105 . S
Sc2 O20 2.105 . S
O3 Sc0 2.025 . S
O3 Sc1 2.025 . S
O3 Sc2 2.025 1_455 S
C4 O10 1.268 . S
C4 O20 1.268 . S
C5 O11 1.268 . S
C5 O19 1.268 . S
C6 O12 1.268 1_455 S
C6 O21 1.268 . S
C7 O13 1.268 . S
C7 O17 1.268 . S
C8 O14 1.268 . S
C8 O16 1.268 . S
C9 O15 1.268 . S
C9 O18 1.268 1_455 S
O10 Sc0 2.105 1_655 S
O10 C4 1.268 . S
O11 Sc1 2.105 . S
O11 C5 1.268 . S
O12 Sc2 2.105 . S
O12 C6 1.268 1_655 S
O13 Sc0 2.105 . S
O13 C7 1.268 . S
O14 Sc2 2.105 . S
O14 C8 1.268 . S
O15 Sc1 2.105 . S
O15 C9 1.268 . S
O16 Sc0 2.105 1_655 S
O16 C8 1.268 . S
O17 Sc1 2.105 . S
O17 C7 1.268 . S
O18 Sc2 2.105 . S
O18 C9 1.268 1_655 S
O19 Sc0 2.105 . S
O19 C5 1.268 . S
O20 Sc2 2.105 . S
O20 C4 1.268 . S
O21 Sc1 2.105 . S
O21 C6 1.268 . S
Sc22 O25 2.025 . S
Sc22 O32 2.105 . S
Sc22 O35 2.105 1_545 S
Sc22 O38 2.105 . S
Sc22 O41 2.105 1_545 S
Sc23 O25 2.025 1_565 S
Sc23 O33 2.105 . S
Sc23 O37 2.105 . S
Sc23 O39 2.105 . S
Sc23 O43 2.105 . S
Sc24 O25 2.025 . S
Sc24 O34 2.105 . S
Sc24 O36 2.105 . S
Sc24 O40 2.105 . S
Sc24 O42 2.105 . S
O25 Sc22 2.025 . S
O25 Sc23 2.025 1_545 S
O25 Sc24 2.025 . S
C26 O32 1.268 . S
C26 O42 1.268 . S
C27 O33 1.268 . S
C27 O41 1.268 . S
C28 O34 1.268 . S
C28 O43 1.268 1_545 S
C29 O35 1.268 . S
C29 O39 1.268 . S
C30 O36 1.268 . S
C30 O38 1.268 . S
C31 O37 1.268 1_545 S
C31 O40 1.268 . S
O32 Sc22 2.105 . S
O32 C26 1.268 . S
O33 Sc23 2.105 . S
O33 C27 1.268 . S
O34 Sc24 2.105 . S
O34 C28 1.268 . S
O35 Sc22 2.105 1_565 S
O35 C29 1.268 . S
O36 Sc24 2.105 . S
O36 C30 1.268 . S
O37 Sc23 2.105 . S
O37 C31 1.268 1_565 S
O38 Sc22 2.105 . S
O38 C30 1.268 . S
O39 Sc23 2.105 . S
O39 C29 1.268 . S
O40 Sc24 2.105 . S
O40 C31 1.268 . S
O41 Sc22 2.105 1_565 S
O41 C27 1.268 . S
O42 Sc24 2.105 . S
O42 C26 1.268 . S
O43 Sc23 2.105 . S
O43 C28 1.268 1_565 S
Sc44 O47 2.025 . S
Sc44 O54 2.105 . S
Sc44 O57 2.105 1_455 S
Sc44 O60 2.105 . S
Sc44 O63 2.105 1_455 S
Sc45 O47 2.025 1_655 S
Sc45 O55 2.105 . S
Sc45 O59 2.105 . S
Sc45 O61 2.105 . S
Sc45 O65 2.105 . S
Sc46 O47 2.025 . S
Sc46 O56 2.105 . S
Sc46 O58 2.105 . S
Sc46 O62 2.105 . S
Sc46 O64 2.105 . S
O47 Sc44 2.025 . S
O47 Sc45 2.025 1_455 S
O47 Sc46 2.025 . S
C48 O54 1.268 . S
C48 O64 1.268 . S
C49 O55 1.268 . S
C49 O63 1.268 . S
C50 O56 1.268 . S
C50 O65 1.268 1_455 S
C51 O57 1.268 . S
C51 O61 1.268 . S
C52 O58 1.268 . S
C52 O60 1.268 . S
C53 O59 1.268 1_455 S
C53 O62 1.268 . S
O54 Sc44 2.105 . S
O54 C48 1.268 . S
O55 Sc45 2.105 . S
O55 C49 1.268 . S
O56 Sc46 2.105 . S
O56 C50 1.268 . S
O57 Sc44 2.105 1_655 S
O57 C51 1.268 . S
O58 Sc46 2.105 . S
O58 C52 1.268 . S
O59 Sc45 2.105 . S
O59 C53 1.268 1_655 S
O60 Sc44 2.105 . S
O60 C52 1.268 . S
O61 Sc45 2.105 . S
O61 C51 1.268 . S
O62 Sc46 2.105 . S
O62 C53 1.268 . S
O63 Sc44 2.105 1_655 S
O63 C49 1.268 . S
O64 Sc46 2.105 . S
O64 C48 1.268 . S
O65 Sc45 2.105 . S
O65 C50 1.268 1_655 S
Sc66 O69 2.025 1_565 S
Sc66 O76 2.105 . S
Sc66 O79 2.105 . S
Sc66 O82 2.105 . S
Sc66 O85 2.105 . S
Sc67 O69 2.025 . S
Sc67 O77 2.105 . S
Sc67 O81 2.105 . S
Sc67 O83 2.105 . S
Sc67 O87 2.105 . S
Sc68 O69 2.025 . S
Sc68 O78 2.105 . S
Sc68 O80 2.105 1_545 S
Sc68 O84 2.105 . S
Sc68 O86 2.105 1_545 S
O69 Sc66 2.025 1_545 S
O69 Sc67 2.025 . S
O69 Sc68 2.025 . S
C70 O76 1.268 . S
C70 O86 1.268 . S
C71 O77 1.268 . S
C71 O85 1.268 1_545 S
C72 O78 1.268 . S
C72 O87 1.268 . S
C73 O79 1.268 1_545 S
C73 O83 1.268 . S
C74 O80 1.268 . S
C74 O82 1.268 . S
C75 O81 1.268 . S
C75 O84 1.268 . S
O76 Sc66 2.105 . S
O76 C70 1.268 . S
O77 Sc67 2.105 . S
O77 C71 1.268 . S
O78 Sc68 2.105 . S
O78 C72 1.268 . S
O79 Sc66 2.105 . S
O79 C73 1.268 1_565 S
O80 Sc68 2.105 1_565 S
O80 C74 1.268 . S
O81 Sc67 2.105 . S
O81 C75 1.268 . S
O82 Sc66 2.105 . S
O82 C74 1.268 . S
O83 Sc67 2.105 . S
O83 C73 1.268 . S
O84 Sc68 2.105 . S
O84 C75 1.268 . S
O85 Sc66 2.105 . S
O85 C71 1.268 1_565 S
O86 Sc68 2.105 1_565 S
O86 C70 1.268 . S
O87 Sc67 2.105 . S
O87 C72 1.268 . S
Sc88 O91 2.025 . S
Sc88 O98 2.105 . S
Sc88 O101 2.105 . S
Sc88 O104 2.105 . S
Sc88 O107 2.105 . S
Sc89 O91 2.025 1_655 S
Sc89 O99 2.105 . S
Sc89 O103 2.105 . S
Sc89 O105 2.105 . S
Sc89 O109 2.105 . S
Sc90 O91 2.025 . S
Sc90 O100 2.105 1_455 S
Sc90 O102 2.105 . S
Sc90 O106 2.105 1_455 S
Sc90 O108 2.105 . S
O91 Sc88 2.025 . S
O91 Sc89 2.025 1_455 S
O91 Sc90 2.025 . S
C92 O98 1.268 . S
C92 O108 1.268 . S
C93 O99 1.268 1_455 S
C93 O107 1.268 . S
C94 O100 1.268 . S
C94 O109 1.268 . S
C95 O101 1.268 . S
C95 O105 1.268 1_455 S
C96 O102 1.268 . S
C96 O104 1.268 . S
C97 O103 1.268 . S
C97 O106 1.268 . S
O98 Sc88 2.105 . S
O98 C92 1.268 . S
O99 Sc89 2.105 . S
O99 C93 1.268 1_655 S
O100 Sc90 2.105 1_655 S
O100 C94 1.268 . S
O101 Sc88 2.105 . S
O101 C95 1.268 . S
O102 Sc90 2.105 . S
O102 C96 1.268 . S
O103 Sc89 2.105 . S
O103 C97 1.268 . S
O104 Sc88 2.105 . S
O104 C96 1.268 . S
O105 Sc89 2.105 . S
O105 C95 1.268 1_655 S
O106 Sc90 2.105 1_655 S
O106 C97 1.268 . S
O107 Sc88 2.105 . S
O107 C93 1.268 . S
O108 Sc90 2.105 . S
O108 C92 1.268 . S
O109 Sc89 2.105 . S
O109 C94 1.268 . S
Sc110 O113 2.025 1_565 S
Sc110 O120 2.105 . S
Sc110 O123 2.105 . S
Sc110 O126 2.105 . S
Sc110 O129 2.105 . S
Sc111 O113 2.025 . S
Sc111 O121 2.105 . S
Sc111 O125 2.105 . S
Sc111 O127 2.105 . S
Sc111 O131 2.105 . S
Sc112 O113 2.025 . S
Sc112 O122 2.105 . S
Sc112 O124 2.105 1_545 S
Sc112 O128 2.105 . S
Sc112 O130 2.105 1_545 S
O113 Sc110 2.025 1_545 S
O113 Sc111 2.025 . S
O113 Sc112 2.025 . S
C114 O120 1.268 . S
C114 O130 1.268 . S
C115 O121 1.268 . S
C115 O129 1.268 1_545 S
C116 O122 1.268 . S
C116 O131 1.268 . S
C117 O123 1.268 1_545 S
C117 O127 1.268 . S
C118 O124 1.268 . S
C118 O126 1.268 . S
C119 O125 1.268 . S
C119 O128 1.268 . S
O120 Sc110 2.105 . S
O120 C114 1.268 . S
O121 Sc111 2.105 . S
O121 C115 1.268 . S
O122 Sc112 2.105 . S
O122 C116 1.268 . S
O123 Sc110 2.105 . S
O123 C117 1.268 1_565 S
O124 Sc112 2.105 1_565 S
O124 C118 1.268 . S
O125 Sc111 2.105 . S
O125 C119 1.268 . S
O126 Sc110 2.105 . S
O126 C118 1.268 . S
O127 Sc111 2.105 . S
O127 C117 1.268 . S
O128 Sc112 2.105 . S
O128 C119 1.268 . S
O129 Sc110 2.105 . S
O129 C115 1.268 1_565 S
O130 Sc112 2.105 1_565 S
O130 C114 1.268 . S
O131 Sc111 2.105 . S
O131 C116 1.268 . S
Sc132 O135 2.025 . S
Sc132 O142 2.105 1_455 S
Sc132 O145 2.105 . S
Sc132 O148 2.105 1_455 S
Sc132 O151 2.105 . S
Sc133 O135 2.025 . S
Sc133 O143 2.105 . S
Sc133 O147 2.105 . S
Sc133 O149 2.105 . S
Sc133 O153 2.105 . S
Sc134 O135 2.025 1_655 S
Sc134 O144 2.105 . S
Sc134 O146 2.105 . S
Sc134 O150 2.105 . S
Sc134 O152 2.105 . S
O135 Sc132 2.025 . S
O135 Sc133 2.025 . S
O135 Sc134 2.025 1_455 S
C136 O142 1.268 . S
C136 O152 1.268 . S
C137 O143 1.268 . S
C137 O151 1.268 . S
C138 O144 1.268 1_455 S
C138 O153 1.268 . S
C139 O145 1.268 . S
C139 O149 1.268 . S
C140 O146 1.268 . S
C140 O148 1.268 . S
C141 O147 1.268 . S
C141 O150 1.268 1_455 S
O142 Sc132 2.105 1_655 S
O142 C136 1.268 . S
O143 Sc133 2.105 . S
O143 C137 1.268 . S
O144 Sc134 2.105 . S
O144 C138 1.268 1_655 S
O145 Sc132 2.105 . S
O145 C139 1.268 . S
O146 Sc134 2.105 . S
O146 C140 1.268 . S
O147 Sc133 2.105 . S
O147 C141 1.268 . S
O148 Sc132 2.105 1_655 S
O148 C140 1.268 . S
O149 Sc133 2.105 . S
O149 C139 1.268 . S
O150 Sc134 2.105 . S
O150 C141 1.268 1_655 S
O151 Sc132 2.105 . S
O151 C137 1.268 . S
O152 Sc134 2.105 . S
O152 C136 1.268 . S
O153 Sc133 2.105 . S
O153 C138 1.268 . S
Sc154 O157 2.025 . S
Sc154 O164 2.105 . S
Sc154 O167 2.105 . S
Sc154 O170 2.105 . S
Sc154 O173 2.105 . S
Sc155 O157 2.025 1_565 S
Sc155 O165 2.105 . S
Sc155 O169 2.105 . S
Sc155 O171 2.105 . S
Sc155 O175 2.105 . S
Sc156 O157 2.025 . S
Sc156 O166 2.105 1_545 S
Sc156 O168 2.105 . S
Sc156 O172 2.105 1_545 S
Sc156 O174 2.105 . S
O157 Sc154 2.025 . S
O157 Sc155 2.025 1_545 S
O157 Sc156 2.025 . S
C158 O164 1.268 . S
C158 O174 1.268 . S
C159 O165 1.268 1_545 S
C159 O173 1.268 . S
C160 O166 1.268 . S
C160 O175 1.268 . S
C161 O167 1.268 . S
C161 O171 1.268 1_545 S
C162 O168 1.268 . S
C162 O170 1.268 . S
C163 O169 1.268 . S
C163 O172 1.268 . S
O164 Sc154 2.105 . S
O164 C158 1.268 . S
O165 Sc155 2.105 . S
O165 C159 1.268 1_565 S
O166 Sc156 2.105 1_565 S
O166 C160 1.268 . S
O167 Sc154 2.105 . S
O167 C161 1.268 . S
O168 Sc156 2.105 . S
O168 C162 1.268 . S
O169 Sc155 2.105 . S
O169 C163 1.268 . S
O170 Sc154 2.105 . S
O170 C162 1.268 . S
O171 Sc155 2.105 . S
O171 C161 1.268 1_565 S
O172 Sc156 2.105 1_565 S
O172 C163 1.268 . S
O173 Sc154 2.105 . S
O173 C159 1.268 . S
O174 Sc156 2.105 . S
O174 C158 1.268 . S
O175 Sc155 2.105 . S
O175 C160 1.268 . S
Sc176 O179 2.025 1_556 S
Sc176 O186 2.105 . S
Sc176 O189 2.105 . S
Sc176 O192 2.105 . S
Sc176 O195 2.105 . S
Sc177 O179 2.025 . S
Sc177 O187 2.105 . S
Sc177 O191 2.105 . S
Sc177 O193 2.105 . S
Sc177 O197 2.105 . S
Sc178 O179 2.025 . S
Sc178 O188 2.105 . S
Sc178 O190 2.105 1_554 S
Sc178 O194 2.105 . S
Sc178 O196 2.105 1_554 S
O179 Sc176 2.025 1_554 S
O179 Sc177 2.025 . S
O179 Sc178 2.025 . S
C180 O186 1.268 . S
C180 O196 1.268 . S
C181 O187 1.268 . S
C181 O195 1.268 1_554 S
C182 O188 1.268 . S
C182 O197 1.268 . S
C183 O189 1.268 1_554 S
C183 O193 1.268 . S
C184 O190 1.268 . S
C184 O192 1.268 . S
C185 O191 1.268 . S
C185 O194 1.268 . S
O186 Sc176 2.105 . S
O186 C180 1.268 . S
O187 Sc177 2.105 . S
O187 C181 1.268 . S
O188 Sc178 2.105 . S
O188 C182 1.268 . S
O189 Sc176 2.105 . S
O189 C183 1.268 1_556 S
O190 Sc178 2.105 1_556 S
O190 C184 1.268 . S
O191 Sc177 2.105 . S
O191 C185 1.268 . S
O192 Sc176 2.105 . S
O192 C184 1.268 . S
O193 Sc177 2.105 . S
O193 C183 1.268 . S
O194 Sc178 2.105 . S
O194 C185 1.268 . S
O195 Sc176 2.105 . S
O195 C181 1.268 1_556 S
O196 Sc178 2.105 1_556 S
O196 C180 1.268 . S
O197 Sc177 2.105 . S
O197 C182 1.268 . S
Sc198 O201 2.025 . S
Sc198 O208 2.105 . S
Sc198 O211 2.105 1_554 S
Sc198 O214 2.105 . S
Sc198 O217 2.105 1_554 S
Sc199 O201 2.025 1_556 S
Sc199 O209 2.105 . S
Sc199 O213 2.105 . S
Sc199 O215 2.105 . S
Sc199 O219 2.105 . S
Sc200 O201 2.025 . S
Sc200 O210 2.105 . S
Sc200 O212 2.105 . S
Sc200 O216 2.105 . S
Sc200 O218 2.105 . S
O201 Sc198 2.025 . S
O201 Sc199 2.025 1_554 S
O201 Sc200 2.025 . S
C202 O208 1.268 . S
C202 O218 1.268 . S
C203 O209 1.268 . S
C203 O217 1.268 . S
C204 O210 1.268 . S
C204 O219 1.268 1_554 S
C205 O211 1.268 . S
C205 O215 1.268 . S
C206 O212 1.268 . S
C206 O214 1.268 . S
C207 O213 1.268 1_554 S
C207 O216 1.268 . S
O208 Sc198 2.105 . S
O208 C202 1.268 . S
O209 Sc199 2.105 . S
O209 C203 1.268 . S
O210 Sc200 2.105 . S
O210 C204 1.268 . S
O211 Sc198 2.105 1_556 S
O211 C205 1.268 . S
O212 Sc200 2.105 . S
O212 C206 1.268 . S
O213 Sc199 2.105 . S
O213 C207 1.268 1_556 S
O214 Sc198 2.105 . S
O214 C206 1.268 . S
O215 Sc199 2.105 . S
O215 C205 1.268 . S
O216 Sc200 2.105 . S
O216 C207 1.268 . S
O217 Sc198 2.105 1_556 S
O217 C203 1.268 . S
O218 Sc200 2.105 . S
O218 C202 1.268 . S
O219 Sc199 2.105 . S
O219 C204 1.268 1_556 S
Sc220 O223 2.025 . S
Sc220 O230 2.105 1_554 S
Sc220 O233 2.105 . S
Sc220 O236 2.105 1_554 S
Sc220 O239 2.105 . S
Sc221 O223 2.025 . S
Sc221 O231 2.105 . S
Sc221 O235 2.105 . S
Sc221 O237 2.105 . S
Sc221 O241 2.105 . S
Sc222 O223 2.025 1_556 S
Sc222 O232 2.105 . S
Sc222 O234 2.105 . S
Sc222 O238 2.105 . S
Sc222 O240 2.105 . S
O223 Sc220 2.025 . S
O223 Sc221 2.025 . S
O223 Sc222 2.025 1_554 S
C224 O230 1.268 . S
C224 O240 1.268 . S
C225 O231 1.268 . S
C225 O239 1.268 . S
C226 O232 1.268 1_554 S
C226 O241 1.268 . S
C227 O233 1.268 . S
C227 O237 1.268 . S
C228 O234 1.268 . S
C228 O236 1.268 . S
C229 O235 1.268 . S
C229 O238 1.268 1_554 S
O230 Sc220 2.105 1_556 S
O230 C224 1.268 . S
O231 Sc221 2.105 . S
O231 C225 1.268 . S
O232 Sc222 2.105 . S
O232 C226 1.268 1_556 S
O233 Sc220 2.105 . S
O233 C227 1.268 . S
O234 Sc222 2.105 . S
O234 C228 1.268 . S
O235 Sc221 2.105 . S
O235 C229 1.268 . S
O236 Sc220 2.105 1_556 S
O236 C228 1.268 . S
O237 Sc221 2.105 . S
O237 C227 1.268 . S
O238 Sc222 2.105 . S
O238 C229 1.268 1_556 S
O239 Sc220 2.105 . S
O239 C225 1.268 . S
O240 Sc222 2.105 . S
O240 C224 1.268 . S
O241 Sc221 2.105 . S
O241 C226 1.268 . S
Sc242 O245 2.025 . S
Sc242 O252 2.105 . S
Sc242 O255 2.105 . S
Sc242 O258 2.105 . S
Sc242 O261 2.105 . S
Sc243 O245 2.025 1_556 S
Sc243 O253 2.105 . S
Sc243 O257 2.105 . S
Sc243 O259 2.105 . S
Sc243 O263 2.105 . S
Sc244 O245 2.025 . S
Sc244 O254 2.105 1_554 S
Sc244 O256 2.105 . S
Sc244 O260 2.105 1_554 S
Sc244 O262 2.105 . S
O245 Sc242 2.025 . S
O245 Sc243 2.025 1_554 S
O245 Sc244 2.025 . S
C246 O252 1.268 . S
C246 O262 1.268 . S
C247 O253 1.268 1_554 S
C247 O261 1.268 . S
C248 O254 1.268 . S
C248 O263 1.268 . S
C249 O255 1.268 . S
C249 O259 1.268 1_554 S
C250 O256 1.268 . S
C250 O258 1.268 . S
C251 O257 1.268 . S
C251 O260 1.268 . S
O252 Sc242 2.105 . S
O252 C246 1.268 . S
O253 Sc243 2.105 . S
O253 C247 1.268 1_556 S
O254 Sc244 2.105 1_556 S
O254 C248 1.268 . S
O255 Sc242 2.105 . S
O255 C249 1.268 . S
O256 Sc244 2.105 . S
O256 C250 1.268 . S
O257 Sc243 2.105 . S
O257 C251 1.268 . S
O258 Sc242 2.105 . S
O258 C250 1.268 . S
O259 Sc243 2.105 . S
O259 C249 1.268 1_556 S
O260 Sc244 2.105 1_556 S
O260 C251 1.268 . S
O261 Sc242 2.105 . S
O261 C247 1.268 . S
O262 Sc244 2.105 . S
O262 C246 1.268 . S
O263 Sc243 2.105 . S
O263 C248 1.268 . S
Sc264 O267 2.025 . S
Sc264 O274 2.105 . S
Sc264 O277 2.105 . S
Sc264 O280 2.105 . S
Sc264 O283 2.105 . S
Sc265 O267 2.025 . S
Sc265 O275 2.105 . S
Sc265 O279 2.105 . S
Sc265 O281 2.105 . S
Sc265 O285 2.105 . S
Sc266 O267 2.025 . S
Sc266 O276 2.105 . S
Sc266 O278 2.105 . S
Sc266 O282 2.105 . S
Sc266 O284 2.105 . S
O267 Sc264 2.025 . S
O267 Sc265 2.025 . S
O267 Sc266 2.025 . S
C268 O274 1.268 . S
C268 O284 1.268 . S
C269 O275 1.268 . S
C269 O283 1.268 . S
C270 O276 1.268 . S
C270 O285 1.268 . S
C271 O277 1.268 . S
C271 O281 1.268 . S
C272 O278 1.268 . S
C272 O280 1.268 . S
C273 O279 1.268 . S
C273 O282 1.268 . S
O274 Sc264 2.105 . S
O274 C268 1.268 . S
O275 Sc265 2.105 . S
O275 C269 1.268 . S
O276 Sc266 2.105 . S
O276 C270 1.268 . S
O277 Sc264 2.105 . S
O277 C271 1.268 . S
O278 Sc266 2.105 . S
O278 C272 1.268 . S
O279 Sc265 2.105 . S
O279 C273 1.268 . S
O280 Sc264 2.105 . S
O280 C272 1.268 . S
O281 Sc265 2.105 . S
O281 C271 1.268 . S
O282 Sc266 2.105 . S
O282 C273 1.268 . S
O283 Sc264 2.105 . S
O283 C269 1.268 . S
O284 Sc266 2.105 . S
O284 C268 1.268 . S
O285 Sc265 2.105 . S
O285 C270 1.268 . S
Sc286 O289 2.025 . S
Sc286 O296 2.105 . S
Sc286 O299 2.105 . S
Sc286 O302 2.105 . S
Sc286 O305 2.105 . S
Sc287 O289 2.025 . S
Sc287 O297 2.105 . S
Sc287 O301 2.105 . S
Sc287 O303 2.105 . S
Sc287 O307 2.105 . S
Sc288 O289 2.025 . S
Sc288 O298 2.105 . S
Sc288 O300 2.105 . S
Sc288 O304 2.105 . S
Sc288 O306 2.105 . S
O289 Sc286 2.025 . S
O289 Sc287 2.025 . S
O289 Sc288 2.025 . S
C290 O296 1.268 . S
C290 O306 1.268 . S
C291 O297 1.268 . S
C291 O305 1.268 . S
C292 O298 1.268 . S
C292 O307 1.268 . S
C293 O299 1.268 . S
C293 O303 1.268 . S
C294 O300 1.268 . S
C294 O302 1.268 . S
C295 O301 1.268 . S
C295 O304 1.268 . S
O296 Sc286 2.105 . S
O296 C290 1.268 . S
O297 Sc287 2.105 . S
O297 C291 1.268 . S
O298 Sc288 2.105 . S
O298 C292 1.268 . S
O299 Sc286 2.105 . S
O299 C293 1.268 . S
O300 Sc288 2.105 . S
O300 C294 1.268 . S
O301 Sc287 2.105 . S
O301 C295 1.268 . S
O302 Sc286 2.105 . S
O302 C294 1.268 . S
O303 Sc287 2.105 . S
O303 C293 1.268 . S
O304 Sc288 2.105 . S
O304 C295 1.268 . S
O305 Sc286 2.105 . S
O305 C291 1.268 . S
O306 Sc288 2.105 . S
O306 C290 1.268 . S
O307 Sc287 2.105 . S
O307 C292 1.268 . S
Sc308 O311 2.025 . S
Sc308 O318 2.105 . S
Sc308 O321 2.105 . S
Sc308 O324 2.105 . S
Sc308 O327 2.105 . S
Sc309 O311 2.025 . S
Sc309 O319 2.105 . S
Sc309 O323 2.105 . S
Sc309 O325 2.105 . S
Sc309 O329 2.105 . S
Sc310 O311 2.025 . S
Sc310 O320 2.105 . S
Sc310 O322 2.105 . S
Sc310 O326 2.105 . S
Sc310 O328 2.105 . S
O311 Sc308 2.025 . S
O311 Sc309 2.025 . S
O311 Sc310 2.025 . S
C312 O318 1.268 . S
C312 O328 1.268 . S
C313 O319 1.268 . S
C313 O327 1.268 . S
C314 O320 1.268 . S
C314 O329 1.268 . S
C315 O321 1.268 . S
C315 O325 1.268 . S
C316 O322 1.268 . S
C316 O324 1.268 . S
C317 O323 1.268 . S
C317 O326 1.268 . S
O318 Sc308 2.105 . S
O318 C312 1.268 . S
O319 Sc309 2.105 . S
O319 C313 1.268 . S
O320 Sc310 2.105 . S
O320 C314 1.268 . S
O321 Sc308 2.105 . S
O321 C315 1.268 . S
O322 Sc310 2.105 . S
O322 C316 1.268 . S
O323 Sc309 2.105 . S
O323 C317 1.268 . S
O324 Sc308 2.105 . S
O324 C316 1.268 . S
O325 Sc309 2.105 . S
O325 C315 1.268 . S
O326 Sc310 2.105 . S
O326 C317 1.268 . S
O327 Sc308 2.105 . S
O327 C313 1.268 . S
O328 Sc310 2.105 . S
O328 C312 1.268 . S
O329 Sc309 2.105 . S
O329 C314 1.268 . S
Sc330 O333 2.025 . S
Sc330 O340 2.105 . S
Sc330 O343 2.105 . S
Sc330 O346 2.105 . S
Sc330 O349 2.105 . S
Sc331 O333 2.025 . S
Sc331 O341 2.105 . S
Sc331 O345 2.105 . S
Sc331 O347 2.105 . S
Sc331 O351 2.105 . S
Sc332 O333 2.025 . S
Sc332 O342 2.105 . S
Sc332 O344 2.105 . S
Sc332 O348 2.105 . S
Sc332 O350 2.105 . S
O333 Sc330 2.025 . S
O333 Sc331 2.025 . S
O333 Sc332 2.025 . S
C334 O340 1.268 . S
C334 O350 1.268 . S
C335 O341 1.268 . S
C335 O349 1.268 . S
C336 O342 1.268 . S
C336 O351 1.268 . S
C337 O343 1.268 . S
C337 O347 1.268 . S
C338 O344 1.268 . S
C338 O346 1.268 . S
C339 O345 1.268 . S
C339 O348 1.268 . S
O340 Sc330 2.105 . S
O340 C334 1.268 . S
O341 Sc331 2.105 . S
O341 C335 1.268 . S
O342 Sc332 2.105 . S
O342 C336 1.268 . S
O343 Sc330 2.105 . S
O343 C337 1.268 . S
O344 Sc332 2.105 . S
O344 C338 1.268 . S
O345 Sc331 2.105 . S
O345 C339 1.268 . S
O346 Sc330 2.105 . S
O346 C338 1.268 . S
O347 Sc331 2.105 . S
O347 C337 1.268 . S
O348 Sc332 2.105 . S
O348 C339 1.268 . S
O349 Sc330 2.105 . S
O349 C335 1.268 . S
O350 Sc332 2.105 . S
O350 C334 1.268 . S
O351 Sc331 2.105 . S
O351 C336 1.268 . S
Sc352 O355 2.025 . S
Sc352 O362 2.105 . S
Sc352 O365 2.105 . S
Sc352 O368 2.105 . S
Sc352 O371 2.105 . S
Sc353 O355 2.025 . S
Sc353 O363 2.105 . S
Sc353 O367 2.105 . S
Sc353 O369 2.105 . S
Sc353 O373 2.105 . S
Sc354 O355 2.025 . S
Sc354 O364 2.105 . S
Sc354 O366 2.105 . S
Sc354 O370 2.105 . S
Sc354 O372 2.105 . S
O355 Sc352 2.025 . S
O355 Sc353 2.025 . S
O355 Sc354 2.025 . S
C356 O362 1.268 . S
C356 O372 1.268 . S
C357 O363 1.268 . S
C357 O371 1.268 . S
C358 O364 1.268 . S
C358 O373 1.268 . S
C359 O365 1.268 . S
C359 O369 1.268 . S
C360 O366 1.268 . S
C360 O368 1.268 . S
C361 O367 1.268 . S
C361 O370 1.268 . S
O362 Sc352 2.105 . S
O362 C356 1.268 . S
O363 Sc353 2.105 . S
O363 C357 1.268 . S
O364 Sc354 2.105 . S
O364 C358 1.268 . S
O365 Sc352 2.105 . S
O365 C359 1.268 . S
O366 Sc354 2.105 . S
O366 C360 1.268 . S
O367 Sc353 2.105 . S
O367 C361 1.268 . S
O368 Sc352 2.105 . S
O368 C360 1.268 . S
O369 Sc353 2.105 . S
O369 C359 1.268 . S
O370 Sc354 2.105 . S
O370 C361 1.268 . S
O371 Sc352 2.105 . S
O371 C357 1.268 . S
O372 Sc354 2.105 . S
O372 C356 1.268 . S
O373 Sc353 2.105 . S
O373 C358 1.268 . S
Sc374 O377 2.025 . S
Sc374 O384 2.105 . S
Sc374 O387 2.105 . S
Sc374 O390 2.105 . S
Sc374 O393 2.105 . S
Sc375 O377 2.025 . S
Sc375 O385 2.105 . S
Sc375 O389 2.105 . S
Sc375 O391 2.105 . S
Sc375 O395 2.105 . S
Sc376 O377 2.025 . S
Sc376 O386 2.105 . S
Sc376 O388 2.105 . S
Sc376 O392 2.105 . S
Sc376 O394 2.105 . S
O377 Sc374 2.025 . S
O377 Sc375 2.025 . S
O377 Sc376 2.025 . S
C378 O384 1.268 . S
C378 O394 1.268 . S
C379 O385 1.268 . S
C379 O393 1.268 . S
C380 O386 1.268 . S
C380 O395 1.268 . S
C381 O387 1.268 . S
C381 O391 1.268 . S
C382 O388 1.268 . S
C382 O390 1.268 . S
C383 O389 1.268 . S
C383 O392 1.268 . S
O384 Sc374 2.105 . S
O384 C378 1.268 . S
O385 Sc375 2.105 . S
O385 C379 1.268 . S
O386 Sc376 2.105 . S
O386 C380 1.268 . S
O387 Sc374 2.105 . S
O387 C381 1.268 . S
O388 Sc376 2.105 . S
O388 C382 1.268 . S
O389 Sc375 2.105 . S
O389 C383 1.268 . S
O390 Sc374 2.105 . S
O390 C382 1.268 . S
O391 Sc375 2.105 . S
O391 C381 1.268 . S
O392 Sc376 2.105 . S
O392 C383 1.268 . S
O393 Sc374 2.105 . S
O393 C379 1.268 . S
O394 Sc376 2.105 . S
O394 C378 1.268 . S
O395 Sc375 2.105 . S
O395 C380 1.268 . S
Sc396 O399 2.025 . S
Sc396 O406 2.105 . S
Sc396 O409 2.105 . S
Sc396 O412 2.105 . S
Sc396 O415 2.105 . S
Sc397 O399 2.025 . S
Sc397 O407 2.105 . S
Sc397 O411 2.105 . S
Sc397 O413 2.105 . S
Sc397 O417 2.105 . S
Sc398 O399 2.025 . S
Sc398 O408 2.105 . S
Sc398 O410 2.105 . S
Sc398 O414 2.105 . S
Sc398 O416 2.105 . S
O399 Sc396 2.025 . S
O399 Sc397 2.025 . S
O399 Sc398 2.025 . S
C400 O406 1.268 . S
C400 O416 1.268 . S
C401 O407 1.268 . S
C401 O415 1.268 . S
C402 O408 1.268 . S
C402 O417 1.268 . S
C403 O409 1.268 . S
C403 O413 1.268 . S
C404 O410 1.268 . S
C404 O412 1.268 . S
C405 O411 1.268 . S
C405 O414 1.268 . S
O406 Sc396 2.105 . S
O406 C400 1.268 . S
O407 Sc397 2.105 . S
O407 C401 1.268 . S
O408 Sc398 2.105 . S
O408 C402 1.268 . S
O409 Sc396 2.105 . S
O409 C403 1.268 . S
O410 Sc398 2.105 . S
O410 C404 1.268 . S
O411 Sc397 2.105 . S
O411 C405 1.268 . S
O412 Sc396 2.105 . S
O412 C404 1.268 . S
O413 Sc397 2.105 . S
O413 C403 1.268 . S
O414 Sc398 2.105 . S
O414 C405 1.268 . S
O415 Sc396 2.105 . S
O415 C401 1.268 . S
O416 Sc398 2.105 . S
O416 C400 1.268 . S
O417 Sc397 2.105 . S
O417 C402 1.268 . S
Sc418 O421 2.025 . S
Sc418 O428 2.105 . S
Sc418 O431 2.105 . S
Sc418 O434 2.105 . S
Sc418 O437 2.105 . S
Sc419 O421 2.025 . S
Sc419 O429 2.105 . S
Sc419 O433 2.105 . S
Sc419 O435 2.105 . S
Sc419 O439 2.105 . S
Sc420 O421 2.025 . S
Sc420 O430 2.105 . S
Sc420 O432 2.105 . S
Sc420 O436 2.105 . S
Sc420 O438 2.105 . S
O421 Sc418 2.025 . S
O421 Sc419 2.025 . S
O421 Sc420 2.025 . S
C422 O428 1.268 . S
C422 O438 1.268 . S
C423 O429 1.268 . S
C423 O437 1.268 . S
C424 O430 1.268 . S
C424 O439 1.268 . S
C425 O431 1.268 . S
C425 O435 1.268 . S
C426 O432 1.268 . S
C426 O434 1.268 . S
C427 O433 1.268 . S
C427 O436 1.268 . S
O428 Sc418 2.105 . S
O428 C422 1.268 . S
O429 Sc419 2.105 . S
O429 C423 1.268 . S
O430 Sc420 2.105 . S
O430 C424 1.268 . S
O431 Sc418 2.105 . S
O431 C425 1.268 . S
O432 Sc420 2.105 . S
O432 C426 1.268 . S
O433 Sc419 2.105 . S
O433 C427 1.268 . S
O434 Sc418 2.105 . S
O434 C426 1.268 . S
O435 Sc419 2.105 . S
O435 C425 1.268 . S
O436 Sc420 2.105 . S
O436 C427 1.268 . S
O437 Sc418 2.105 . S
O437 C423 1.268 . S
O438 Sc420 2.105 . S
O438 C422 1.268 . S
O439 Sc419 2.105 . S
O439 C424 1.268 . S
Sc440 O443 2.025 . S
Sc440 O450 2.105 . S
Sc440 O453 2.105 . S
Sc440 O456 2.105 . S
Sc440 O459 2.105 . S
Sc441 O443 2.025 . S
Sc441 O451 2.105 . S
Sc441 O455 2.105 . S
Sc441 O457 2.105 . S
Sc441 O461 2.105 . S
Sc442 O443 2.025 . S
Sc442 O452 2.105 . S
Sc442 O454 2.105 . S
Sc442 O458 2.105 . S
Sc442 O460 2.105 . S
O443 Sc440 2.025 . S
O443 Sc441 2.025 . S
O443 Sc442 2.025 . S
C444 O450 1.268 . S
C444 O460 1.268 . S
C445 O451 1.268 . S
C445 O459 1.268 . S
C446 O452 1.268 . S
C446 O461 1.268 . S
C447 O453 1.268 . S
C447 O457 1.268 . S
C448 O454 1.268 . S
C448 O456 1.268 . S
C449 O455 1.268 . S
C449 O458 1.268 . S
O450 Sc440 2.105 . S
O450 C444 1.268 . S
O451 Sc441 2.105 . S
O451 C445 1.268 . S
O452 Sc442 2.105 . S
O452 C446 1.268 . S
O453 Sc440 2.105 . S
O453 C447 1.268 . S
O454 Sc442 2.105 . S
O454 C448 1.268 . S
O455 Sc441 2.105 . S
O455 C449 1.268 . S
O456 Sc440 2.105 . S
O456 C448 1.268 . S
O457 Sc441 2.105 . S
O457 C447 1.268 . S
O458 Sc442 2.105 . S
O458 C449 1.268 . S
O459 Sc440 2.105 . S
O459 C445 1.268 . S
O460 Sc442 2.105 . S
O460 C444 1.268 . S
O461 Sc441 2.105 . S
O461 C446 1.268 . S
Sc462 O465 2.025 . S
Sc462 O472 2.105 . S
Sc462 O475 2.105 . S
Sc462 O478 2.105 . S
Sc462 O481 2.105 . S
Sc463 O465 2.025 . S
Sc463 O473 2.105 . S
Sc463 O477 2.105 . S
Sc463 O479 2.105 . S
Sc463 O483 2.105 . S
Sc464 O465 2.025 . S
Sc464 O474 2.105 . S
Sc464 O476 2.105 . S
Sc464 O480 2.105 . S
Sc464 O482 2.105 . S
O465 Sc462 2.025 . S
O465 Sc463 2.025 . S
O465 Sc464 2.025 . S
C466 O472 1.268 . S
C466 O482 1.268 . S
C467 O473 1.268 . S
C467 O481 1.268 . S
C468 O474 1.268 . S
C468 O483 1.268 . S
C469 O475 1.268 . S
C469 O479 1.268 . S
C470 O476 1.268 . S
C470 O478 1.268 . S
C471 O477 1.268 . S
C471 O480 1.268 . S
O472 Sc462 2.105 . S
O472 C466 1.268 . S
O473 Sc463 2.105 . S
O473 C467 1.268 . S
O474 Sc464 2.105 . S
O474 C468 1.268 . S
O475 Sc462 2.105 . S
O475 C469 1.268 . S
O476 Sc464 2.105 . S
O476 C470 1.268 . S
O477 Sc463 2.105 . S
O477 C471 1.268 . S
O478 Sc462 2.105 . S
O478 C470 1.268 . S
O479 Sc463 2.105 . S
O479 C469 1.268 . S
O480 Sc464 2.105 . S
O480 C471 1.268 . S
O481 Sc462 2.105 . S
O481 C467 1.268 . S
O482 Sc464 2.105 . S
O482 C466 1.268 . S
O483 Sc463 2.105 . S
O483 C468 1.268 . S
Sc484 O487 2.025 . S
Sc484 O494 2.105 . S
Sc484 O497 2.105 . S
Sc484 O500 2.105 . S
Sc484 O503 2.105 . S
Sc485 O487 2.025 . S
Sc485 O495 2.105 . S
Sc485 O499 2.105 . S
Sc485 O501 2.105 . S
Sc485 O505 2.105 . S
Sc486 O487 2.025 . S
Sc486 O496 2.105 . S
Sc486 O498 2.105 . S
Sc486 O502 2.105 . S
Sc486 O504 2.105 . S
O487 Sc484 2.025 . S
O487 Sc485 2.025 . S
O487 Sc486 2.025 . S
C488 O494 1.268 . S
C488 O504 1.268 . S
C489 O495 1.268 . S
C489 O503 1.268 . S
C490 O496 1.268 . S
C490 O505 1.268 . S
C491 O497 1.268 . S
C491 O501 1.268 . S
C492 O498 1.268 . S
C492 O500 1.268 . S
C493 O499 1.268 . S
C493 O502 1.268 . S
O494 Sc484 2.105 . S
O494 C488 1.268 . S
O495 Sc485 2.105 . S
O495 C489 1.268 . S
O496 Sc486 2.105 . S
O496 C490 1.268 . S
O497 Sc484 2.105 . S
O497 C491 1.268 . S
O498 Sc486 2.105 . S
O498 C492 1.268 . S
O499 Sc485 2.105 . S
O499 C493 1.268 . S
O500 Sc484 2.105 . S
O500 C492 1.268 . S
O501 Sc485 2.105 . S
O501 C491 1.268 . S
O502 Sc486 2.105 . S
O502 C493 1.268 . S
O503 Sc484 2.105 . S
O503 C489 1.268 . S
O504 Sc486 2.105 . S
O504 C488 1.268 . S
O505 Sc485 2.105 . S
O505 C490 1.268 . S
Sc506 O509 2.025 . S
Sc506 O516 2.105 . S
Sc506 O519 2.105 . S
Sc506 O522 2.105 . S
Sc506 O525 2.105 . S
Sc507 O509 2.025 . S
Sc507 O517 2.105 . S
Sc507 O521 2.105 . S
Sc507 O523 2.105 . S
Sc507 O527 2.105 . S
Sc508 O509 2.025 . S
Sc508 O518 2.105 . S
Sc508 O520 2.105 . S
Sc508 O524 2.105 . S
Sc508 O526 2.105 . S
O509 Sc506 2.025 . S
O509 Sc507 2.025 . S
O509 Sc508 2.025 . S
C510 O516 1.268 . S
C510 O526 1.268 . S
C511 O517 1.268 . S
C511 O525 1.268 . S
C512 O518 1.268 . S
C512 O527 1.268 . S
C513 O519 1.268 . S
C513 O523 1.268 . S
C514 O520 1.268 . S
C514 O522 1.268 . S
C515 O521 1.268 . S
C515 O524 1.268 . S
O516 Sc506 2.105 . S
O516 C510 1.268 . S
O517 Sc507 2.105 . S
O517 C511 1.268 . S
O518 Sc508 2.105 . S
O518 C512 1.268 . S
O519 Sc506 2.105 . S
O519 C513 1.268 . S
O520 Sc508 2.105 . S
O520 C514 1.268 . S
O521 Sc507 2.105 . S
O521 C515 1.268 . S
O522 Sc506 2.105 . S
O522 C514 1.268 . S
O523 Sc507 2.105 . S
O523 C513 1.268 . S
O524 Sc508 2.105 . S
O524 C515 1.268 . S
O525 Sc506 2.105 . S
O525 C511 1.268 . S
O526 Sc508 2.105 . S
O526 C510 1.268 . S
O527 Sc507 2.105 . S
O527 C512 1.268 . S
C528 C529 1.363 . S
C528 C534 1.379 . S
C528 N536 1.356 . S
C529 C528 1.363 . S
C529 C535 1.363 1_455 S
C530 C531 1.363 1_655 S
C530 C535 1.379 . S
C530 N537 1.356 . S
C531 C530 1.363 1_455 S
C531 C534 1.363 . S
N532 C534 1.356 . S
N532 H544 0.984 . S
N532 H545 0.985 . S
N533 C535 1.356 . S
N533 H538 0.984 . S
N533 H539 0.985 . S
C534 C528 1.379 . S
C534 C531 1.363 . S
C534 N532 1.356 . S
C535 C529 1.363 1_655 S
C535 C530 1.379 . S
C535 N533 1.356 . S
N536 C528 1.356 . S
N536 H542 0.984 . S
N536 H543 0.984 . S
N537 C530 1.356 . S
N537 H540 0.984 . S
N537 H541 0.985 . S
H538 N533 0.984 . S
H539 N533 0.985 . S
H540 N537 0.984 . S
H541 N537 0.985 . S
H542 N536 0.984 . S
H543 N536 0.984 . S
H544 N532 0.984 . S
H545 N532 0.985 . S
C546 C547 1.363 1_565 S
C546 C552 1.379 . S
C546 N554 1.356 . S
C547 C546 1.363 1_545 S
C547 C553 1.363 . S
C548 C549 1.363 . S
C548 C553 1.379 . S
C548 N555 1.356 . S
C549 C548 1.363 . S
C549 C552 1.363 1_545 S
N550 C552 1.356 . S
N550 H562 0.984 . S
N550 H563 0.985 . S
N551 C553 1.356 . S
N551 H556 0.984 . S
N551 H557 0.985 . S
C552 C546 1.379 . S
C552 C549 1.363 1_565 S
C552 N550 1.356 . S
C553 C547 1.363 . S
C553 C548 1.379 . S
C553 N551 1.356 . S
N554 C546 1.356 . S
N554 H560 0.984 . S
N554 H561 0.984 . S
N555 C548 1.356 . S
N555 H558 0.984 . S
N555 H559 0.985 . S
H556 N551 0.984 . S
H557 N551 0.985 . S
H558 N555 0.984 . S
H559 N555 0.985 . S
H560 N554 0.984 . S
H561 N554 0.984 . S
H562 N550 0.984 . S
H563 N550 0.985 . S
C564 C565 1.363 . S
C564 C570 1.379 . S
C564 N572 1.356 . S
C565 C564 1.363 . S
C565 C571 1.363 1_455 S
C566 C567 1.363 1_655 S
C566 C571 1.379 . S
C566 N573 1.356 . S
C567 C566 1.363 1_455 S
C567 C570 1.363 . S
N568 C570 1.356 . S
N568 H580 0.984 . S
N568 H581 0.985 . S
N569 C571 1.356 . S
N569 H574 0.984 . S
N569 H575 0.985 . S
C570 C564 1.379 . S
C570 C567 1.363 . S
C570 N568 1.356 . S
C571 C565 1.363 1_655 S
C571 C566 1.379 . S
C571 N569 1.356 . S
N572 C564 1.356 . S
N572 H578 0.984 . S
N572 H579 0.984 . S
N573 C566 1.356 . S
N573 H576 0.984 . S
N573 H577 0.985 . S
H574 N569 0.984 . S
H575 N569 0.985 . S
H576 N573 0.984 . S
H577 N573 0.985 . S
H578 N572 0.984 . S
H579 N572 0.984 . S
H580 N568 0.984 . S
H581 N568 0.985 . S
C582 C583 1.363 . S
C582 C588 1.379 . S
C582 N590 1.356 . S
C583 C582 1.363 . S
C583 C589 1.363 1_545 S
C584 C585 1.363 1_565 S
C584 C589 1.379 . S
C584 N591 1.356 . S
C585 C584 1.363 1_545 S
C585 C588 1.363 . S
N586 C588 1.356 . S
N586 H598 0.984 . S
N586 H599 0.985 . S
N587 C589 1.356 . S
N587 H592 0.984 . S
N587 H593 0.985 . S
C588 C582 1.379 . S
C588 C585 1.363 . S
C588 N586 1.356 . S
C589 C583 1.363 1_565 S
C589 C584 1.379 . S
C589 N587 1.356 . S
N590 C582 1.356 . S
N590 H596 0.984 . S
N590 H597 0.984 . S
N591 C584 1.356 . S
N591 H594 0.984 . S
N591 H595 0.985 . S
H592 N587 0.984 . S
H593 N587 0.985 . S
H594 N591 0.984 . S
H595 N591 0.985 . S
H596 N590 0.984 . S
H597 N590 0.984 . S
H598 N586 0.984 . S
H599 N586 0.985 . S
C600 C601 1.363 . S
C600 C606 1.379 . S
C600 N608 1.356 . S
C601 C600 1.363 . S
C601 C607 1.363 1_545 S
C602 C603 1.363 1_565 S
C602 C607 1.379 . S
C602 N609 1.356 . S
C603 C602 1.363 1_545 S
C603 C606 1.363 . S
N604 C606 1.356 . S
N604 H616 0.984 . S
N604 H617 0.985 . S
N605 C607 1.356 . S
N605 H610 0.984 . S
N605 H611 0.985 . S
C606 C600 1.379 . S
C606 C603 1.363 . S
C606 N604 1.356 . S
C607 C601 1.363 1_565 S
C607 C602 1.379 . S
C607 N605 1.356 . S
N608 C600 1.356 . S
N608 H614 0.984 . S
N608 H615 0.984 . S
N609 C602 1.356 . S
N609 H612 0.984 . S
N609 H613 0.985 . S
H610 N605 0.984 . S
H611 N605 0.985 . S
H612 N609 0.984 . S
H613 N609 0.985 . S
H614 N608 0.984 . S
H615 N608 0.984 . S
H616 N604 0.984 . S
H617 N604 0.985 . S
C618 C619 1.363 . S
C618 C624 1.379 . S
C618 N626 1.356 . S
C619 C618 1.363 . S
C619 C625 1.363 1_455 S
C620 C621 1.363 1_655 S
C620 C625 1.379 . S
C620 N627 1.356 . S
C621 C620 1.363 1_455 S
C621 C624 1.363 . S
N622 C624 1.356 . S
N622 H634 0.984 . S
N622 H635 0.985 . S
N623 C625 1.356 . S
N623 H628 0.984 . S
N623 H629 0.985 . S
C624 C618 1.379 . S
C624 C621 1.363 . S
C624 N622 1.356 . S
C625 C619 1.363 1_655 S
C625 C620 1.379 . S
C625 N623 1.356 . S
N626 C618 1.356 . S
N626 H632 0.984 . S
N626 H633 0.984 . S
N627 C620 1.356 . S
N627 H630 0.984 . S
N627 H631 0.985 . S
H628 N623 0.984 . S
H629 N623 0.985 . S
H630 N627 0.984 . S
H631 N627 0.985 . S
H632 N626 0.984 . S
H633 N626 0.984 . S
H634 N622 0.984 . S
H635 N622 0.985 . S
C636 C637 1.363 1_565 S
C636 C642 1.379 . S
C636 N644 1.356 . S
C637 C636 1.363 1_545 S
C637 C643 1.363 . S
C638 C639 1.363 . S
C638 C643 1.379 . S
C638 N645 1.356 . S
C639 C638 1.363 . S
C639 C642 1.363 1_545 S
N640 C642 1.356 . S
N640 H652 0.984 . S
N640 H653 0.985 . S
N641 C643 1.356 . S
N641 H646 0.984 . S
N641 H647 0.985 . S
C642 C636 1.379 . S
C642 C639 1.363 1_565 S
C642 N640 1.356 . S
C643 C637 1.363 . S
C643 C638 1.379 . S
C643 N641 1.356 . S
N644 C636 1.356 . S
N644 H650 0.984 . S
N644 H651 0.984 . S
N645 C638 1.356 . S
N645 H648 0.984 . S
N645 H649 0.985 . S
H646 N641 0.984 . S
H647 N641 0.985 . S
H648 N645 0.984 . S
H649 N645 0.985 . S
H650 N644 0.984 . S
H651 N644 0.984 . S
H652 N640 0.984 . S
H653 N640 0.985 . S
C654 C655 1.363 1_655 S
C654 C660 1.379 . S
C654 N662 1.356 . S
C655 C654 1.363 1_455 S
C655 C661 1.363 . S
C656 C657 1.363 . S
C656 C661 1.379 . S
C656 N663 1.356 . S
C657 C656 1.363 . S
C657 C660 1.363 1_455 S
N658 C660 1.356 . S
N658 H670 0.984 . S
N658 H671 0.985 . S
N659 C661 1.356 . S
N659 H664 0.984 . S
N659 H665 0.985 . S
C660 C654 1.379 . S
C660 C657 1.363 1_655 S
C660 N658 1.356 . S
C661 C655 1.363 . S
C661 C656 1.379 . S
C661 N659 1.356 . S
N662 C654 1.356 . S
N662 H668 0.984 . S
N662 H669 0.984 . S
N663 C656 1.356 . S
N663 H666 0.984 . S
N663 H667 0.985 . S
H664 N659 0.984 . S
H665 N659 0.985 . S
H666 N663 0.984 . S
H667 N663 0.985 . S
H668 N662 0.984 . S
H669 N662 0.984 . S
H670 N658 0.984 . S
H671 N658 0.985 . S
C672 C673 1.363 . S
C672 C678 1.379 . S
C672 N680 1.356 . S
C673 C672 1.363 . S
C673 C679 1.363 1_554 S
C674 C675 1.363 1_556 S
C674 C679 1.379 . S
C674 N681 1.356 . S
C675 C674 1.363 1_554 S
C675 C678 1.363 . S
N676 C678 1.356 . S
N676 H688 0.984 . S
N676 H689 0.985 . S
N677 C679 1.356 . S
N677 H682 0.984 . S
N677 H683 0.985 . S
C678 C672 1.379 . S
C678 C675 1.363 . S
C678 N676 1.356 . S
C679 C673 1.363 1_556 S
C679 C674 1.379 . S
C679 N677 1.356 . S
N680 C672 1.356 . S
N680 H686 0.984 . S
N680 H687 0.984 . S
N681 C674 1.356 . S
N681 H684 0.984 . S
N681 H685 0.985 . S
H682 N677 0.984 . S
H683 N677 0.985 . S
H684 N681 0.984 . S
H685 N681 0.985 . S
H686 N680 0.984 . S
H687 N680 0.984 . S
H688 N676 0.984 . S
H689 N676 0.985 . S
C690 C691 1.363 1_556 S
C690 C696 1.379 . S
C690 N698 1.356 . S
C691 C690 1.363 1_554 S
C691 C697 1.363 . S
C692 C693 1.363 . S
C692 C697 1.379 . S
C692 N699 1.356 . S
C693 C692 1.363 . S
C693 C696 1.363 1_554 S
N694 C696 1.356 . S
N694 H706 0.984 . S
N694 H707 0.985 . S
N695 C697 1.356 . S
N695 H700 0.984 . S
N695 H701 0.985 . S
C696 C690 1.379 . S
C696 C693 1.363 1_556 S
C696 N694 1.356 . S
C697 C691 1.363 . S
C697 C692 1.379 . S
C697 N695 1.356 . S
N698 C690 1.356 . S
N698 H704 0.984 . S
N698 H705 0.984 . S
N699 C692 1.356 . S
N699 H702 0.984 . S
N699 H703 0.985 . S
H700 N695 0.984 . S
H701 N695 0.985 . S
H702 N699 0.984 . S
H703 N699 0.985 . S
H704 N698 0.984 . S
H705 N698 0.984 . S
H706 N694 0.984 . S
H707 N694 0.985 . S
C708 C709 1.363 . S
C708 C714 1.379 . S
C708 N716 1.356 . S
C709 C708 1.363 . S
C709 C715 1.363 1_554 S
C710 C711 1.363 1_556 S
C710 C715 1.379 . S
C710 N717 1.356 . S
C711 C710 1.363 1_554 S
C711 C714 1.363 . S
N712 C714 1.356 . S
N712 H724 0.984 . S
N712 H725 0.985 . S
N713 C715 1.356 . S
N713 H718 0.984 . S
N713 H719 0.985 . S
C714 C708 1.379 . S
C714 C711 1.363 . S
C714 N712 1.356 . S
C715 C709 1.363 1_556 S
C715 C710 1.379 . S
C715 N713 1.356 . S
N716 C708 1.356 . S
N716 H722 0.984 . S
N716 H723 0.984 . S
N717 C710 1.356 . S
N717 H720 0.984 . S
N717 H721 0.985 . S
H718 N713 0.984 . S
H719 N713 0.985 . S
H720 N717 0.984 . S
H721 N717 0.985 . S
H722 N716 0.984 . S
H723 N716 0.984 . S
H724 N712 0.984 . S
H725 N712 0.985 . S
C726 C727 1.363 1_556 S
C726 C732 1.379 . S
C726 N734 1.356 . S
C727 C726 1.363 1_554 S
C727 C733 1.363 . S
C728 C729 1.363 . S
C728 C733 1.379 . S
C728 N735 1.356 . S
C729 C728 1.363 . S
C729 C732 1.363 1_554 S
N730 C732 1.356 . S
N730 H742 0.984 . S
N730 H743 0.985 . S
N731 C733 1.356 . S
N731 H736 0.984 . S
N731 H737 0.985 . S
C732 C726 1.379 . S
C732 C729 1.363 1_556 S
C732 N730 1.356 . S
C733 C727 1.363 . S
C733 C728 1.379 . S
C733 N731 1.356 . S
N734 C726 1.356 . S
N734 H740 0.984 . S
N734 H741 0.984 . S
N735 C728 1.356 . S
N735 H738 0.984 . S
N735 H739 0.985 . S
H736 N731 0.984 . S
H737 N731 0.985 . S
H738 N735 0.984 . S
H739 N735 0.985 . S
H740 N734 0.984 . S
H741 N734 0.984 . S
H742 N730 0.984 . S
H743 N730 0.985 . S
C744 C745 1.363 . S
C744 C750 1.379 1_556 S
C744 N752 1.356 . S
C745 C744 1.363 . S
C745 C751 1.363 . S
C746 C747 1.363 . S
C746 C751 1.379 1_554 S
C746 N753 1.356 . S
C747 C746 1.363 . S
C747 C750 1.363 . S
N748 C750 1.356 . S
N748 H760 0.984 . S
N748 H761 0.985 . S
N749 C751 1.356 . S
N749 H754 0.984 . S
N749 H755 0.985 . S
C750 C744 1.379 1_554 S
C750 C747 1.363 . S
C750 N748 1.356 . S
C751 C745 1.363 . S
C751 C746 1.379 1_556 S
C751 N749 1.356 . S
N752 C744 1.356 . S
N752 H758 0.984 . S
N752 H759 0.984 . S
N753 C746 1.356 . S
N753 H756 0.984 . S
N753 H757 0.985 . S
H754 N749 0.984 . S
H755 N749 0.985 . S
H756 N753 0.984 . S
H757 N753 0.985 . S
H758 N752 0.984 . S
H759 N752 0.984 . S
H760 N748 0.984 . S
H761 N748 0.985 . S
C762 C763 1.363 . S
C762 C768 1.379 1_554 S
C762 N770 1.356 . S
C763 C762 1.363 . S
C763 C769 1.363 . S
C764 C765 1.363 . S
C764 C769 1.379 1_556 S
C764 N771 1.356 . S
C765 C764 1.363 . S
C765 C768 1.363 . S
N766 C768 1.356 . S
N766 H778 0.984 . S
N766 H779 0.985 . S
N767 C769 1.356 . S
N767 H772 0.984 . S
N767 H773 0.985 . S
C768 C762 1.379 1_556 S
C768 C765 1.363 . S
C768 N766 1.356 . S
C769 C763 1.363 . S
C769 C764 1.379 1_554 S
C769 N767 1.356 . S
N770 C762 1.356 . S
N770 H776 0.984 . S
N770 H777 0.984 . S
N771 C764 1.356 . S
N771 H774 0.984 . S
N771 H775 0.985 . S
H772 N767 0.984 . S
H773 N767 0.985 . S
H774 N771 0.984 . S
H775 N771 0.985 . S
H776 N770 0.984 . S
H777 N770 0.984 . S
H778 N766 0.984 . S
H779 N766 0.985 . S
C780 C781 1.363 . S
C780 C786 1.379 1_556 S
C780 N788 1.356 . S
C781 C780 1.363 . S
C781 C787 1.363 . S
C782 C783 1.363 . S
C782 C787 1.379 1_554 S
C782 N789 1.356 . S
C783 C782 1.363 . S
C783 C786 1.363 . S
N784 C786 1.356 . S
N784 H796 0.984 . S
N784 H797 0.985 . S
N785 C787 1.356 . S
N785 H790 0.984 . S
N785 H791 0.985 . S
C786 C780 1.379 1_554 S
C786 C783 1.363 . S
C786 N784 1.356 . S
C787 C781 1.363 . S
C787 C782 1.379 1_556 S
C787 N785 1.356 . S
N788 C780 1.356 . S
N788 H794 0.984 . S
N788 H795 0.984 . S
N789 C782 1.356 . S
N789 H792 0.984 . S
N789 H793 0.985 . S
H790 N785 0.984 . S
H791 N785 0.985 . S
H792 N789 0.984 . S
H793 N789 0.985 . S
H794 N788 0.984 . S
H795 N788 0.984 . S
H796 N784 0.984 . S
H797 N784 0.985 . S
C798 C799 1.363 . S
C798 C804 1.379 1_556 S
C798 N806 1.356 . S
C799 C798 1.363 . S
C799 C805 1.363 . S
C800 C801 1.363 . S
C800 C805 1.379 1_554 S
C800 N807 1.356 . S
C801 C800 1.363 . S
C801 C804 1.363 . S
N802 C804 1.356 . S
N802 H814 0.984 . S
N802 H815 0.985 . S
N803 C805 1.356 . S
N803 H808 0.984 . S
N803 H809 0.985 . S
C804 C798 1.379 1_554 S
C804 C801 1.363 . S
C804 N802 1.356 . S
C805 C799 1.363 . S
C805 C800 1.379 1_556 S
C805 N803 1.356 . S
N806 C798 1.356 . S
N806 H812 0.984 . S
N806 H813 0.984 . S
N807 C800 1.356 . S
N807 H810 0.984 . S
N807 H811 0.985 . S
H808 N803 0.984 . S
H809 N803 0.985 . S
H810 N807 0.984 . S
H811 N807 0.985 . S
H812 N806 0.984 . S
H813 N806 0.984 . S
H814 N802 0.984 . S
H815 N802 0.985 . S
C816 C817 1.363 . S
C816 C822 1.379 1_655 S
C816 N824 1.356 . S
C817 C816 1.363 . S
C817 C823 1.363 . S
C818 C819 1.363 . S
C818 C823 1.379 1_455 S
C818 N825 1.356 . S
C819 C818 1.363 . S
C819 C822 1.363 . S
N820 C822 1.356 . S
N820 H832 0.984 . S
N820 H833 0.985 . S
N821 C823 1.356 . S
N821 H826 0.984 . S
N821 H827 0.985 . S
C822 C816 1.379 1_455 S
C822 C819 1.363 . S
C822 N820 1.356 . S
C823 C817 1.363 . S
C823 C818 1.379 1_655 S
C823 N821 1.356 . S
N824 C816 1.356 . S
N824 H830 0.984 . S
N824 H831 0.984 . S
N825 C818 1.356 . S
N825 H828 0.984 . S
N825 H829 0.985 . S
H826 N821 0.984 . S
H827 N821 0.985 . S
H828 N825 0.984 . S
H829 N825 0.985 . S
H830 N824 0.984 . S
H831 N824 0.984 . S
H832 N820 0.984 . S
H833 N820 0.985 . S
C834 C835 1.363 . S
C834 C840 1.379 1_545 S
C834 N842 1.356 . S
C835 C834 1.363 . S
C835 C841 1.363 . S
C836 C837 1.363 . S
C836 C841 1.379 1_565 S
C836 N843 1.356 . S
C837 C836 1.363 . S
C837 C840 1.363 . S
N838 C840 1.356 . S
N838 H850 0.984 . S
N838 H851 0.985 . S
N839 C841 1.356 . S
N839 H844 0.984 . S
N839 H845 0.985 . S
C840 C834 1.379 1_565 S
C840 C837 1.363 . S
C840 N838 1.356 . S
C841 C835 1.363 . S
C841 C836 1.379 1_545 S
C841 N839 1.356 . S
N842 C834 1.356 . S
N842 H848 0.984 . S
N842 H849 0.984 . S
N843 C836 1.356 . S
N843 H846 0.984 . S
N843 H847 0.985 . S
H844 N839 0.984 . S
H845 N839 0.985 . S
H846 N843 0.984 . S
H847 N843 0.985 . S
H848 N842 0.984 . S
H849 N842 0.984 . S
H850 N838 0.984 . S
H851 N838 0.985 . S
C852 C853 1.363 . S
C852 C858 1.379 1_655 S
C852 N860 1.356 . S
C853 C852 1.363 . S
C853 C859 1.363 . S
C854 C855 1.363 . S
C854 C859 1.379 1_455 S
C854 N861 1.356 . S
C855 C854 1.363 . S
C855 C858 1.363 . S
N856 C858 1.356 . S
N856 H868 0.984 . S
N856 H869 0.985 . S
N857 C859 1.356 . S
N857 H862 0.984 . S
N857 H863 0.985 . S
C858 C852 1.379 1_455 S
C858 C855 1.363 . S
C858 N856 1.356 . S
C859 C853 1.363 . S
C859 C854 1.379 1_655 S
C859 N857 1.356 . S
N860 C852 1.356 . S
N860 H866 0.984 . S
N860 H867 0.984 . S
N861 C854 1.356 . S
N861 H864 0.984 . S
N861 H865 0.985 . S
H862 N857 0.984 . S
H863 N857 0.985 . S
H864 N861 0.984 . S
H865 N861 0.985 . S
H866 N860 0.984 . S
H867 N860 0.984 . S
H868 N856 0.984 . S
H869 N856 0.985 . S
C870 C871 1.363 . S
C870 C876 1.379 1_565 S
C870 N878 1.356 . S
C871 C870 1.363 . S
C871 C877 1.363 . S
C872 C873 1.363 . S
C872 C877 1.379 1_545 S
C872 N879 1.356 . S
C873 C872 1.363 . S
C873 C876 1.363 . S
N874 C876 1.356 . S
N874 H886 0.984 . S
N874 H887 0.985 . S
N875 C877 1.356 . S
N875 H880 0.984 . S
N875 H881 0.985 . S
C876 C870 1.379 1_545 S
C876 C873 1.363 . S
C876 N874 1.356 . S
C877 C871 1.363 . S
C877 C872 1.379 1_565 S
C877 N875 1.356 . S
N878 C870 1.356 . S
N878 H884 0.984 . S
N878 H885 0.984 . S
N879 C872 1.356 . S
N879 H882 0.984 . S
N879 H883 0.985 . S
H880 N875 0.984 . S
H881 N875 0.985 . S
H882 N879 0.984 . S
H883 N879 0.985 . S
H884 N878 0.984 . S
H885 N878 0.984 . S
H886 N874 0.984 . S
H887 N874 0.985 . S
C888 C889 1.363 . S
C888 C894 1.379 1_565 S
C888 N896 1.356 . S
C889 C888 1.363 . S
C889 C895 1.363 . S
C890 C891 1.363 . S
C890 C895 1.379 1_545 S
C890 N897 1.356 . S
C891 C890 1.363 . S
C891 C894 1.363 . S
N892 C894 1.356 . S
N892 H904 0.984 . S
N892 H905 0.985 . S
N893 C895 1.356 . S
N893 H898 0.984 . S
N893 H899 0.985 . S
C894 C888 1.379 1_545 S
C894 C891 1.363 . S
C894 N892 1.356 . S
C895 C889 1.363 . S
C895 C890 1.379 1_565 S
C895 N893 1.356 . S
N896 C888 1.356 . S
N896 H902 0.984 . S
N896 H903 0.984 . S
N897 C890 1.356 . S
N897 H900 0.984 . S
N897 H901 0.985 . S
H898 N893 0.984 . S
H899 N893 0.985 . S
H900 N897 0.984 . S
H901 N897 0.985 . S
H902 N896 0.984 . S
H903 N896 0.984 . S
H904 N892 0.984 . S
H905 N892 0.985 . S
C906 C907 1.363 . S
C906 C912 1.379 1_455 S
C906 N914 1.356 . S
C907 C906 1.363 . S
C907 C913 1.363 . S
C908 C909 1.363 . S
C908 C913 1.379 1_655 S
C908 N915 1.356 . S
C909 C908 1.363 . S
C909 C912 1.363 . S
N910 C912 1.356 . S
N910 H922 0.984 . S
N910 H923 0.985 . S
N911 C913 1.356 . S
N911 H916 0.984 . S
N911 H917 0.985 . S
C912 C906 1.379 1_655 S
C912 C909 1.363 . S
C912 N910 1.356 . S
C913 C907 1.363 . S
C913 C908 1.379 1_455 S
C913 N911 1.356 . S
N914 C906 1.356 . S
N914 H920 0.984 . S
N914 H921 0.984 . S
N915 C908 1.356 . S
N915 H918 0.984 . S
N915 H919 0.985 . S
H916 N911 0.984 . S
H917 N911 0.985 . S
H918 N915 0.984 . S
H919 N915 0.985 . S
H920 N914 0.984 . S
H921 N914 0.984 . S
H922 N910 0.984 . S
H923 N910 0.985 . S
C924 C925 1.363 . S
C924 C930 1.379 1_565 S
C924 N932 1.356 . S
C925 C924 1.363 . S
C925 C931 1.363 . S
C926 C927 1.363 . S
C926 C931 1.379 1_545 S
C926 N933 1.356 . S
C927 C926 1.363 . S
C927 C930 1.363 . S
N928 C930 1.356 . S
N928 H940 0.984 . S
N928 H941 0.985 . S
N929 C931 1.356 . S
N929 H934 0.984 . S
N929 H935 0.985 . S
C930 C924 1.379 1_545 S
C930 C927 1.363 . S
C930 N928 1.356 . S
C931 C925 1.363 . S
C931 C926 1.379 1_565 S
C931 N929 1.356 . S
N932 C924 1.356 . S
N932 H938 0.984 . S
N932 H939 0.984 . S
N933 C926 1.356 . S
N933 H936 0.984 . S
N933 H937 0.985 . S
H934 N929 0.984 . S
H935 N929 0.985 . S
H936 N933 0.984 . S
H937 N933 0.985 . S
H938 N932 0.984 . S
H939 N932 0.984 . S
H940 N928 0.984 . S
H941 N928 0.985 . S
C942 C943 1.363 . S
C942 C948 1.379 1_455 S
C942 N950 1.356 . S
C943 C942 1.363 . S
C943 C949 1.363 . S
C944 C945 1.363 . S
C944 C949 1.379 1_655 S
C944 N951 1.356 . S
C945 C944 1.363 . S
C945 C948 1.363 . S
N946 C948 1.356 . S
N946 H958 0.984 . S
N946 H959 0.985 . S
N947 C949 1.356 . S
N947 H952 0.984 . S
N947 H953 0.985 . S
C948 C942 1.379 1_655 S
C948 C945 1.363 . S
C948 N946 1.356 . S
C949 C943 1.363 . S
C949 C944 1.379 1_455 S
C949 N947 1.356 . S
N950 C942 1.356 . S
N950 H956 0.984 . S
N950 H957 0.984 . S
N951 C944 1.356 . S
N951 H954 0.984 . S
N951 H955 0.985 . S
H952 N947 0.984 . S
H953 N947 0.985 . S
H954 N951 0.984 . S
H955 N951 0.985 . S
H956 N950 0.984 . S
H957 N950 0.984 . S
H958 N946 0.984 . S
H959 N946 0.985 . S
C960 C961 1.363 . S
C960 C966 1.379 . S
C960 N968 1.356 . S
C961 C960 1.363 . S
C961 C967 1.363 . S
C962 C963 1.363 . S
C962 C967 1.379 . S
C962 N969 1.356 . S
C963 C962 1.363 . S
C963 C966 1.363 . S
N964 C966 1.356 . S
N964 H976 0.984 . S
N964 H977 0.985 . S
N965 C967 1.356 . S
N965 H970 0.984 . S
N965 H971 0.985 . S
C966 C960 1.379 . S
C966 C963 1.363 . S
C966 N964 1.356 . S
C967 C961 1.363 . S
C967 C962 1.379 . S
C967 N965 1.356 . S
N968 C960 1.356 . S
N968 H974 0.984 . S
N968 H975 0.984 . S
N969 C962 1.356 . S
N969 H972 0.984 . S
N969 H973 0.985 . S
H970 N965 0.984 . S
H971 N965 0.985 . S
H972 N969 0.984 . S
H973 N969 0.985 . S
H974 N968 0.984 . S
H975 N968 0.984 . S
H976 N964 0.984 . S
H977 N964 0.985 . S
C978 C979 1.363 . S
C978 C984 1.379 . S
C978 N986 1.356 . S
C979 C978 1.363 . S
C979 C985 1.363 . S
C980 C981 1.363 . S
C980 C985 1.379 . S
C980 N987 1.356 . S
C981 C980 1.363 . S
C981 C984 1.363 . S
N982 C984 1.356 . S
N982 H994 0.984 . S
N982 H995 0.985 . S
N983 C985 1.356 . S
N983 H988 0.984 . S
N983 H989 0.985 . S
C984 C978 1.379 . S
C984 C981 1.363 . S
C984 N982 1.356 . S
C985 C979 1.363 . S
C985 C980 1.379 . S
C985 N983 1.356 . S
N986 C978 1.356 . S
N986 H992 0.984 . S
N986 H993 0.984 . S
N987 C980 1.356 . S
N987 H990 0.984 . S
N987 H991 0.985 . S
H988 N983 0.984 . S
H989 N983 0.985 . S
H990 N987 0.984 . S
H991 N987 0.985 . S
H992 N986 0.984 . S
H993 N986 0.984 . S
H994 N982 0.984 . S
H995 N982 0.985 . S
C996 C997 1.363 . S
C996 C1002 1.379 . S
C996 N1004 1.356 . S
C997 C996 1.363 . S
C997 C1003 1.363 . S
C998 C999 1.363 . S
C998 C1003 1.379 . S
C998 N1005 1.356 . S
C999 C998 1.363 . S
C999 C1002 1.363 . S
N1000 C1002 1.356 . S
N1000 H1012 0.984 . S
N1000 H1013 0.985 . S
N1001 C1003 1.356 . S
N1001 H1006 0.984 . S
N1001 H1007 0.985 . S
C1002 C996 1.379 . S
C1002 C999 1.363 . S
C1002 N1000 1.356 . S
C1003 C997 1.363 . S
C1003 C998 1.379 . S
C1003 N1001 1.356 . S
N1004 C996 1.356 . S
N1004 H1010 0.984 . S
N1004 H1011 0.984 . S
N1005 C998 1.356 . S
N1005 H1008 0.984 . S
N1005 H1009 0.985 . S
H1006 N1001 0.984 . S
H1007 N1001 0.985 . S
H1008 N1005 0.984 . S
H1009 N1005 0.985 . S
H1010 N1004 0.984 . S
H1011 N1004 0.984 . S
H1012 N1000 0.984 . S
H1013 N1000 0.985 . S
C1014 C1015 1.363 . S
C1014 C1020 1.379 . S
C1014 N1022 1.356 . S
C1015 C1014 1.363 . S
C1015 C1021 1.363 . S
C1016 C1017 1.363 . S
C1016 C1021 1.379 . S
C1016 N1023 1.356 . S
C1017 C1016 1.363 . S
C1017 C1020 1.363 . S
N1018 C1020 1.356 . S
N1018 H1030 0.984 . S
N1018 H1031 0.985 . S
N1019 C1021 1.356 . S
N1019 H1024 0.984 . S
N1019 H1025 0.985 . S
C1020 C1014 1.379 . S
C1020 C1017 1.363 . S
C1020 N1018 1.356 . S
C1021 C1015 1.363 . S
C1021 C1016 1.379 . S
C1021 N1019 1.356 . S
N1022 C1014 1.356 . S
N1022 H1028 0.984 . S
N1022 H1029 0.984 . S
N1023 C1016 1.356 . S
N1023 H1026 0.984 . S
N1023 H1027 0.985 . S
H1024 N1019 0.984 . S
H1025 N1019 0.985 . S
H1026 N1023 0.984 . S
H1027 N1023 0.985 . S
H1028 N1022 0.984 . S
H1029 N1022 0.984 . S
H1030 N1018 0.984 . S
H1031 N1018 0.985 . S
C1032 C1033 1.363 . S
C1032 C1038 1.379 . S
C1032 N1040 1.356 . S
C1033 C1032 1.363 . S
C1033 C1039 1.363 . S
C1034 C1035 1.363 . S
C1034 C1039 1.379 . S
C1034 N1041 1.356 . S
C1035 C1034 1.363 . S
C1035 C1038 1.363 . S
N1036 C1038 1.356 . S
N1036 H1048 0.984 . S
N1036 H1049 0.985 . S
N1037 C1039 1.356 . S
N1037 H1042 0.984 . S
N1037 H1043 0.985 . S
C1038 C1032 1.379 . S
C1038 C1035 1.363 . S
C1038 N1036 1.356 . S
C1039 C1033 1.363 . S
C1039 C1034 1.379 . S
C1039 N1037 1.356 . S
N1040 C1032 1.356 . S
N1040 H1046 0.984 . S
N1040 H1047 0.984 . S
N1041 C1034 1.356 . S
N1041 H1044 0.984 . S
N1041 H1045 0.985 . S
H1042 N1037 0.984 . S
H1043 N1037 0.985 . S
H1044 N1041 0.984 . S
H1045 N1041 0.985 . S
H1046 N1040 0.984 . S
H1047 N1040 0.984 . S
H1048 N1036 0.984 . S
H1049 N1036 0.985 . S
C1050 C1051 1.363 . S
C1050 C1056 1.379 . S
C1050 N1058 1.356 . S
C1051 C1050 1.363 . S
C1051 C1057 1.363 . S
C1052 C1053 1.363 . S
C1052 C1057 1.379 . S
C1052 N1059 1.356 . S
C1053 C1052 1.363 . S
C1053 C1056 1.363 . S
N1054 C1056 1.356 . S
N1054 H1066 0.984 . S
N1054 H1067 0.985 . S
N1055 C1057 1.356 . S
N1055 H1060 0.984 . S
N1055 H1061 0.985 . S
C1056 C1050 1.379 . S
C1056 C1053 1.363 . S
C1056 N1054 1.356 . S
C1057 C1051 1.363 . S
C1057 C1052 1.379 . S
C1057 N1055 1.356 . S
N1058 C1050 1.356 . S
N1058 H1064 0.984 . S
N1058 H1065 0.984 . S
N1059 C1052 1.356 . S
N1059 H1062 0.984 . S
N1059 H1063 0.985 . S
H1060 N1055 0.984 . S
H1061 N1055 0.985 . S
H1062 N1059 0.984 . S
H1063 N1059 0.985 . S
H1064 N1058 0.984 . S
H1065 N1058 0.984 . S
H1066 N1054 0.984 . S
H1067 N1054 0.985 . S
C1068 C1069 1.363 . S
C1068 C1074 1.379 . S
C1068 N1076 1.356 . S
C1069 C1068 1.363 . S
C1069 C1075 1.363 . S
C1070 C1071 1.363 . S
C1070 C1075 1.379 . S
C1070 N1077 1.356 . S
C1071 C1070 1.363 . S
C1071 C1074 1.363 . S
N1072 C1074 1.356 . S
N1072 H1084 0.984 . S
N1072 H1085 0.985 . S
N1073 C1075 1.356 . S
N1073 H1078 0.984 . S
N1073 H1079 0.985 . S
C1074 C1068 1.379 . S
C1074 C1071 1.363 . S
C1074 N1072 1.356 . S
C1075 C1069 1.363 . S
C1075 C1070 1.379 . S
C1075 N1073 1.356 . S
N1076 C1068 1.356 . S
N1076 H1082 0.984 . S
N1076 H1083 0.984 . S
N1077 C1070 1.356 . S
N1077 H1080 0.984 . S
N1077 H1081 0.985 . S
H1078 N1073 0.984 . S
H1079 N1073 0.985 . S
H1080 N1077 0.984 . S
H1081 N1077 0.985 . S
H1082 N1076 0.984 . S
H1083 N1076 0.984 . S
H1084 N1072 0.984 . S
H1085 N1072 0.985 . S
C1086 C1087 1.363 . S
C1086 C1092 1.379 . S
C1086 N1094 1.356 . S
C1087 C1086 1.363 . S
C1087 C1093 1.363 . S
C1088 C1089 1.363 . S
C1088 C1093 1.379 . S
C1088 N1095 1.356 . S
C1089 C1088 1.363 . S
C1089 C1092 1.363 . S
N1090 C1092 1.356 . S
N1090 H1102 0.984 . S
N1090 H1103 0.985 . S
N1091 C1093 1.356 . S
N1091 H1096 0.984 . S
N1091 H1097 0.985 . S
C1092 C1086 1.379 . S
C1092 C1089 1.363 . S
C1092 N1090 1.356 . S
C1093 C1087 1.363 . S
C1093 C1088 1.379 . S
C1093 N1091 1.356 . S
N1094 C1086 1.356 . S
N1094 H1100 0.984 . S
N1094 H1101 0.984 . S
N1095 C1088 1.356 . S
N1095 H1098 0.984 . S
N1095 H1099 0.985 . S
H1096 N1091 0.984 . S
H1097 N1091 0.985 . S
H1098 N1095 0.984 . S
H1099 N1095 0.985 . S
H1100 N1094 0.984 . S
H1101 N1094 0.984 . S
H1102 N1090 0.984 . S
H1103 N1090 0.985 . S
C1104 C1105 1.363 . S
C1104 C1110 1.379 . S
C1104 N1112 1.356 . S
C1105 C1104 1.363 . S
C1105 C1111 1.363 . S
C1106 C1107 1.363 . S
C1106 C1111 1.379 . S
C1106 N1113 1.356 . S
C1107 C1106 1.363 . S
C1107 C1110 1.363 . S
N1108 C1110 1.356 . S
N1108 H1120 0.984 . S
N1108 H1121 0.985 . S
N1109 C1111 1.356 . S
N1109 H1114 0.984 . S
N1109 H1115 0.985 . S
C1110 C1104 1.379 . S
C1110 C1107 1.363 . S
C1110 N1108 1.356 . S
C1111 C1105 1.363 . S
C1111 C1106 1.379 . S
C1111 N1109 1.356 . S
N1112 C1104 1.356 . S
N1112 H1118 0.984 . S
N1112 H1119 0.984 . S
N1113 C1106 1.356 . S
N1113 H1116 0.984 . S
N1113 H1117 0.985 . S
H1114 N1109 0.984 . S
H1115 N1109 0.985 . S
H1116 N1113 0.984 . S
H1117 N1113 0.985 . S
H1118 N1112 0.984 . S
H1119 N1112 0.984 . S
H1120 N1108 0.984 . S
H1121 N1108 0.985 . S
C1122 C1123 1.363 . S
C1122 C1128 1.379 . S
C1122 N1130 1.356 . S
C1123 C1122 1.363 . S
C1123 C1129 1.363 . S
C1124 C1125 1.363 . S
C1124 C1129 1.379 . S
C1124 N1131 1.356 . S
C1125 C1124 1.363 . S
C1125 C1128 1.363 . S
N1126 C1128 1.356 . S
N1126 H1138 0.984 . S
N1126 H1139 0.985 . S
N1127 C1129 1.356 . S
N1127 H1132 0.984 . S
N1127 H1133 0.985 . S
C1128 C1122 1.379 . S
C1128 C1125 1.363 . S
C1128 N1126 1.356 . S
C1129 C1123 1.363 . S
C1129 C1124 1.379 . S
C1129 N1127 1.356 . S
N1130 C1122 1.356 . S
N1130 H1136 0.984 . S
N1130 H1137 0.984 . S
N1131 C1124 1.356 . S
N1131 H1134 0.984 . S
N1131 H1135 0.985 . S
H1132 N1127 0.984 . S
H1133 N1127 0.985 . S
H1134 N1131 0.984 . S
H1135 N1131 0.985 . S
H1136 N1130 0.984 . S
H1137 N1130 0.984 . S
H1138 N1126 0.984 . S
H1139 N1126 0.985 . S
C1140 C1141 1.363 . S
C1140 C1146 1.379 . S
C1140 N1148 1.356 . S
C1141 C1140 1.363 . S
C1141 C1147 1.363 . S
C1142 C1143 1.363 . S
C1142 C1147 1.379 . S
C1142 N1149 1.356 . S
C1143 C1142 1.363 . S
C1143 C1146 1.363 . S
N1144 C1146 1.356 . S
N1144 H1156 0.984 . S
N1144 H1157 0.985 . S
N1145 C1147 1.356 . S
N1145 H1150 0.984 . S
N1145 H1151 0.985 . S
C1146 C1140 1.379 . S
C1146 C1143 1.363 . S
C1146 N1144 1.356 . S
C1147 C1141 1.363 . S
C1147 C1142 1.379 . S
C1147 N1145 1.356 . S
N1148 C1140 1.356 . S
N1148 H1154 0.984 . S
N1148 H1155 0.984 . S
N1149 C1142 1.356 . S
N1149 H1152 0.984 . S
N1149 H1153 0.985 . S
H1150 N1145 0.984 . S
H1151 N1145 0.985 . S
H1152 N1149 0.984 . S
H1153 N1149 0.985 . S
H1154 N1148 0.984 . S
H1155 N1148 0.984 . S
H1156 N1144 0.984 . S
H1157 N1144 0.985 . S
C1158 C1159 1.363 . S
C1158 C1164 1.379 . S
C1158 N1166 1.356 . S
C1159 C1158 1.363 . S
C1159 C1165 1.363 . S
C1160 C1161 1.363 . S
C1160 C1165 1.379 . S
C1160 N1167 1.356 . S
C1161 C1160 1.363 . S
C1161 C1164 1.363 . S
N1162 C1164 1.356 . S
N1162 H1174 0.984 . S
N1162 H1175 0.985 . S
N1163 C1165 1.356 . S
N1163 H1168 0.984 . S
N1163 H1169 0.985 . S
C1164 C1158 1.379 . S
C1164 C1161 1.363 . S
C1164 N1162 1.356 . S
C1165 C1159 1.363 . S
C1165 C1160 1.379 . S
C1165 N1163 1.356 . S
N1166 C1158 1.356 . S
N1166 H1172 0.984 . S
N1166 H1173 0.984 . S
N1167 C1160 1.356 . S
N1167 H1170 0.984 . S
N1167 H1171 0.985 . S
H1168 N1163 0.984 . S
H1169 N1163 0.985 . S
H1170 N1167 0.984 . S
H1171 N1167 0.985 . S
H1172 N1166 0.984 . S
H1173 N1166 0.984 . S
H1174 N1162 0.984 . S
H1175 N1162 0.985 . S
C1176 C1177 1.363 . S
C1176 C1182 1.379 . S
C1176 N1184 1.356 . S
C1177 C1176 1.363 . S
C1177 C1183 1.363 . S
C1178 C1179 1.363 . S
C1178 C1183 1.379 . S
C1178 N1185 1.356 . S
C1179 C1178 1.363 . S
C1179 C1182 1.363 . S
N1180 C1182 1.356 . S
N1180 H1192 0.984 . S
N1180 H1193 0.985 . S
N1181 C1183 1.356 . S
N1181 H1186 0.984 . S
N1181 H1187 0.985 . S
C1182 C1176 1.379 . S
C1182 C1179 1.363 . S
C1182 N1180 1.356 . S
C1183 C1177 1.363 . S
C1183 C1178 1.379 . S
C1183 N1181 1.356 . S
N1184 C1176 1.356 . S
N1184 H1190 0.984 . S
N1184 H1191 0.984 . S
N1185 C1178 1.356 . S
N1185 H1188 0.984 . S
N1185 H1189 0.985 . S
H1186 N1181 0.984 . S
H1187 N1181 0.985 . S
H1188 N1185 0.984 . S
H1189 N1185 0.985 . S
H1190 N1184 0.984 . S
H1191 N1184 0.984 . S
H1192 N1180 0.984 . S
H1193 N1180 0.985 . S
C1194 C1195 1.363 . S
C1194 C1200 1.379 . S
C1194 N1202 1.356 . S
C1195 C1194 1.363 . S
C1195 C1201 1.363 . S
C1196 C1197 1.363 . S
C1196 C1201 1.379 . S
C1196 N1203 1.356 . S
C1197 C1196 1.363 . S
C1197 C1200 1.363 . S
N1198 C1200 1.356 . S
N1198 H1210 0.984 . S
N1198 H1211 0.985 . S
N1199 C1201 1.356 . S
N1199 H1204 0.984 . S
N1199 H1205 0.985 . S
C1200 C1194 1.379 . S
C1200 C1197 1.363 . S
C1200 N1198 1.356 . S
C1201 C1195 1.363 . S
C1201 C1196 1.379 . S
C1201 N1199 1.356 . S
N1202 C1194 1.356 . S
N1202 H1208 0.984 . S
N1202 H1209 0.984 . S
N1203 C1196 1.356 . S
N1203 H1206 0.984 . S
N1203 H1207 0.985 . S
H1204 N1199 0.984 . S
H1205 N1199 0.985 . S
H1206 N1203 0.984 . S
H1207 N1203 0.985 . S
H1208 N1202 0.984 . S
H1209 N1202 0.984 . S
H1210 N1198 0.984 . S
H1211 N1198 0.985 . S
C1212 C1213 1.363 . S
C1212 C1218 1.379 . S
C1212 N1220 1.356 . S
C1213 C1212 1.363 . S
C1213 C1219 1.363 . S
C1214 C1215 1.363 . S
C1214 C1219 1.379 . S
C1214 N1221 1.356 . S
C1215 C1214 1.363 . S
C1215 C1218 1.363 . S
N1216 C1218 1.356 . S
N1216 H1228 0.984 . S
N1216 H1229 0.985 . S
N1217 C1219 1.356 . S
N1217 H1222 0.984 . S
N1217 H1223 0.985 . S
C1218 C1212 1.379 . S
C1218 C1215 1.363 . S
C1218 N1216 1.356 . S
C1219 C1213 1.363 . S
C1219 C1214 1.379 . S
C1219 N1217 1.356 . S
N1220 C1212 1.356 . S
N1220 H1226 0.984 . S
N1220 H1227 0.984 . S
N1221 C1214 1.356 . S
N1221 H1224 0.984 . S
N1221 H1225 0.985 . S
H1222 N1217 0.984 . S
H1223 N1217 0.985 . S
H1224 N1221 0.984 . S
H1225 N1221 0.985 . S
H1226 N1220 0.984 . S
H1227 N1220 0.984 . S
H1228 N1216 0.984 . S
H1229 N1216 0.985 . S
C1230 C1231 1.363 . S
C1230 C1236 1.379 . S
C1230 N1238 1.356 . S
C1231 C1230 1.363 . S
C1231 C1237 1.363 . S
C1232 C1233 1.363 . S
C1232 C1237 1.379 . S
C1232 N1239 1.356 . S
C1233 C1232 1.363 . S
C1233 C1236 1.363 . S
N1234 C1236 1.356 . S
N1234 H1246 0.984 . S
N1234 H1247 0.985 . S
N1235 C1237 1.356 . S
N1235 H1240 0.984 . S
N1235 H1241 0.985 . S
C1236 C1230 1.379 . S
C1236 C1233 1.363 . S
C1236 N1234 1.356 . S
C1237 C1231 1.363 . S
C1237 C1232 1.379 . S
C1237 N1235 1.356 . S
N1238 C1230 1.356 . S
N1238 H1244 0.984 . S
N1238 H1245 0.984 . S
N1239 C1232 1.356 . S
N1239 H1242 0.984 . S
N1239 H1243 0.985 . S
H1240 N1235 0.984 . S
H1241 N1235 0.985 . S
H1242 N1239 0.984 . S
H1243 N1239 0.985 . S
H1244 N1238 0.984 . S
H1245 N1238 0.984 . S
H1246 N1234 0.984 . S
H1247 N1234 0.985 . S
C1248 C1249 1.363 . S
C1248 C1254 1.379 . S
C1248 N1256 1.356 . S
C1249 C1248 1.363 . S
C1249 C1255 1.363 . S
C1250 C1251 1.363 . S
C1250 C1255 1.379 . S
C1250 N1257 1.356 . S
C1251 C1250 1.363 . S
C1251 C1254 1.363 . S
N1252 C1254 1.356 . S
N1252 H1264 0.984 . S
N1252 H1265 0.985 . S
N1253 C1255 1.356 . S
N1253 H1258 0.984 . S
N1253 H1259 0.985 . S
C1254 C1248 1.379 . S
C1254 C1251 1.363 . S
C1254 N1252 1.356 . S
C1255 C1249 1.363 . S
C1255 C1250 1.379 . S
C1255 N1253 1.356 . S
N1256 C1248 1.356 . S
N1256 H1262 0.984 . S
N1256 H1263 0.984 . S
N1257 C1250 1.356 . S
N1257 H1260 0.984 . S
N1257 H1261 0.985 . S
H1258 N1253 0.984 . S
H1259 N1253 0.985 . S
H1260 N1257 0.984 . S
H1261 N1257 0.985 . S
H1262 N1256 0.984 . S
H1263 N1256 0.984 . S
H1264 N1252 0.984 . S
H1265 N1252 0.985 . S
C1266 C1267 1.363 . S
C1266 C1272 1.379 . S
C1266 N1274 1.356 . S
C1267 C1266 1.363 . S
C1267 C1273 1.363 . S
C1268 C1269 1.363 . S
C1268 C1273 1.379 . S
C1268 N1275 1.356 . S
C1269 C1268 1.363 . S
C1269 C1272 1.363 . S
N1270 C1272 1.356 . S
N1270 H1282 0.984 . S
N1270 H1283 0.985 . S
N1271 C1273 1.356 . S
N1271 H1276 0.984 . S
N1271 H1277 0.985 . S
C1272 C1266 1.379 . S
C1272 C1269 1.363 . S
C1272 N1270 1.356 . S
C1273 C1267 1.363 . S
C1273 C1268 1.379 . S
C1273 N1271 1.356 . S
N1274 C1266 1.356 . S
N1274 H1280 0.984 . S
N1274 H1281 0.984 . S
N1275 C1268 1.356 . S
N1275 H1278 0.984 . S
N1275 H1279 0.985 . S
H1276 N1271 0.984 . S
H1277 N1271 0.985 . S
H1278 N1275 0.984 . S
H1279 N1275 0.985 . S
H1280 N1274 0.984 . S
H1281 N1274 0.984 . S
H1282 N1270 0.984 . S
H1283 N1270 0.985 . S
C1284 C1285 1.363 . S
C1284 C1290 1.379 . S
C1284 N1292 1.356 . S
C1285 C1284 1.363 . S
C1285 C1291 1.363 . S
C1286 C1287 1.363 . S
C1286 C1291 1.379 . S
C1286 N1293 1.356 . S
C1287 C1286 1.363 . S
C1287 C1290 1.363 . S
N1288 C1290 1.356 . S
N1288 H1300 0.984 . S
N1288 H1301 0.985 . S
N1289 C1291 1.356 . S
N1289 H1294 0.984 . S
N1289 H1295 0.985 . S
C1290 C1284 1.379 . S
C1290 C1287 1.363 . S
C1290 N1288 1.356 . S
C1291 C1285 1.363 . S
C1291 C1286 1.379 . S
C1291 N1289 1.356 . S
N1292 C1284 1.356 . S
N1292 H1298 0.984 . S
N1292 H1299 0.984 . S
N1293 C1286 1.356 . S
N1293 H1296 0.984 . S
N1293 H1297 0.985 . S
H1294 N1289 0.984 . S
H1295 N1289 0.985 . S
H1296 N1293 0.984 . S
H1297 N1293 0.985 . S
H1298 N1292 0.984 . S
H1299 N1292 0.984 . S
H1300 N1288 0.984 . S
H1301 N1288 0.985 . S
C1302 C1303 1.363 . S
C1302 C1308 1.379 . S
C1302 N1310 1.356 . S
C1303 C1302 1.363 . S
C1303 C1309 1.363 . S
C1304 C1305 1.363 . S
C1304 C1309 1.379 . S
C1304 N1311 1.356 . S
C1305 C1304 1.363 . S
C1305 C1308 1.363 . S
N1306 C1308 1.356 . S
N1306 H1318 0.984 . S
N1306 H1319 0.985 . S
N1307 C1309 1.356 . S
N1307 H1312 0.984 . S
N1307 H1313 0.985 . S
C1308 C1302 1.379 . S
C1308 C1305 1.363 . S
C1308 N1306 1.356 . S
C1309 C1303 1.363 . S
C1309 C1304 1.379 . S
C1309 N1307 1.356 . S
N1310 C1302 1.356 . S
N1310 H1316 0.984 . S
N1310 H1317 0.984 . S
N1311 C1304 1.356 . S
N1311 H1314 0.984 . S
N1311 H1315 0.985 . S
H1312 N1307 0.984 . S
H1313 N1307 0.985 . S
H1314 N1311 0.984 . S
H1315 N1311 0.985 . S
H1316 N1310 0.984 . S
H1317 N1310 0.984 . S
H1318 N1306 0.984 . S
H1319 N1306 0.985 . S
C1320 C1321 1.363 . S
C1320 C1326 1.379 . S
C1320 N1328 1.356 . S
C1321 C1320 1.363 . S
C1321 C1327 1.363 . S
C1322 C1323 1.363 . S
C1322 C1327 1.379 . S
C1322 N1329 1.356 . S
C1323 C1322 1.363 . S
C1323 C1326 1.363 . S
N1324 C1326 1.356 . S
N1324 H1336 0.984 . S
N1324 H1337 0.985 . S
N1325 C1327 1.356 . S
N1325 H1330 0.984 . S
N1325 H1331 0.985 . S
C1326 C1320 1.379 . S
C1326 C1323 1.363 . S
C1326 N1324 1.356 . S
C1327 C1321 1.363 . S
C1327 C1322 1.379 . S
C1327 N1325 1.356 . S
N1328 C1320 1.356 . S
N1328 H1334 0.984 . S
N1328 H1335 0.984 . S
N1329 C1322 1.356 . S
N1329 H1332 0.984 . S
N1329 H1333 0.985 . S
H1330 N1325 0.984 . S
H1331 N1325 0.985 . S
H1332 N1329 0.984 . S
H1333 N1329 0.985 . S
H1334 N1328 0.984 . S
H1335 N1328 0.984 . S
H1336 N1324 0.984 . S
H1337 N1324 0.985 . S
C1338 C1339 1.363 . S
C1338 C1344 1.379 . S
C1338 N1346 1.356 . S
C1339 C1338 1.363 . S
C1339 C1345 1.363 . S
C1340 C1341 1.363 . S
C1340 C1345 1.379 . S
C1340 N1347 1.356 . S
C1341 C1340 1.363 . S
C1341 C1344 1.363 . S
N1342 C1344 1.356 . S
N1342 H1354 0.984 . S
N1342 H1355 0.985 . S
N1343 C1345 1.356 . S
N1343 H1348 0.984 . S
N1343 H1349 0.985 . S
C1344 C1338 1.379 . S
C1344 C1341 1.363 . S
C1344 N1342 1.356 . S
C1345 C1339 1.363 . S
C1345 C1340 1.379 . S
C1345 N1343 1.356 . S
N1346 C1338 1.356 . S
N1346 H1352 0.984 . S
N1346 H1353 0.984 . S
N1347 C1340 1.356 . S
N1347 H1350 0.984 . S
N1347 H1351 0.985 . S
H1348 N1343 0.984 . S
H1349 N1343 0.985 . S
H1350 N1347 0.984 . S
H1351 N1347 0.985 . S
H1352 N1346 0.984 . S
H1353 N1346 0.984 . S
H1354 N1342 0.984 . S
H1355 N1342 0.985 . S
C1356 C1357 1.363 . S
C1356 C1362 1.379 . S
C1356 N1364 1.356 . S
C1357 C1356 1.363 . S
C1357 C1363 1.363 . S
C1358 C1359 1.363 . S
C1358 C1363 1.379 . S
C1358 N1365 1.356 . S
C1359 C1358 1.363 . S
C1359 C1362 1.363 . S
N1360 C1362 1.356 . S
N1360 H1372 0.984 . S
N1360 H1373 0.985 . S
N1361 C1363 1.356 . S
N1361 H1366 0.984 . S
N1361 H1367 0.985 . S
C1362 C1356 1.379 . S
C1362 C1359 1.363 . S
C1362 N1360 1.356 . S
C1363 C1357 1.363 . S
C1363 C1358 1.379 . S
C1363 N1361 1.356 . S
N1364 C1356 1.356 . S
N1364 H1370 0.984 . S
N1364 H1371 0.984 . S
N1365 C1358 1.356 . S
N1365 H1368 0.984 . S
N1365 H1369 0.985 . S
H1366 N1361 0.984 . S
H1367 N1361 0.985 . S
H1368 N1365 0.984 . S
H1369 N1365 0.985 . S
H1370 N1364 0.984 . S
H1371 N1364 0.984 . S
H1372 N1360 0.984 . S
H1373 N1360 0.985 . S
C1374 C1375 1.363 . S
C1374 C1380 1.379 . S
C1374 N1382 1.356 . S
C1375 C1374 1.363 . S
C1375 C1381 1.363 . S
C1376 C1377 1.363 . S
C1376 C1381 1.379 . S
C1376 N1383 1.356 . S
C1377 C1376 1.363 . S
C1377 C1380 1.363 . S
N1378 C1380 1.356 . S
N1378 H1390 0.984 . S
N1378 H1391 0.985 . S
N1379 C1381 1.356 . S
N1379 H1384 0.984 . S
N1379 H1385 0.985 . S
C1380 C1374 1.379 . S
C1380 C1377 1.363 . S
C1380 N1378 1.356 . S
C1381 C1375 1.363 . S
C1381 C1376 1.379 . S
C1381 N1379 1.356 . S
N1382 C1374 1.356 . S
N1382 H1388 0.984 . S
N1382 H1389 0.984 . S
N1383 C1376 1.356 . S
N1383 H1386 0.984 . S
N1383 H1387 0.985 . S
H1384 N1379 0.984 . S
H1385 N1379 0.985 . S
H1386 N1383 0.984 . S
H1387 N1383 0.985 . S
H1388 N1382 0.984 . S
H1389 N1382 0.984 . S
H1390 N1378 0.984 . S
H1391 N1378 0.985 . S
C1392 C1393 1.363 . S
C1392 C1398 1.379 . S
C1392 N1400 1.356 . S
C1393 C1392 1.363 . S
C1393 C1399 1.363 . S
C1394 C1395 1.363 . S
C1394 C1399 1.379 . S
C1394 N1401 1.356 . S
C1395 C1394 1.363 . S
C1395 C1398 1.363 . S
N1396 C1398 1.356 . S
N1396 H1408 0.984 . S
N1396 H1409 0.985 . S
N1397 C1399 1.356 . S
N1397 H1402 0.984 . S
N1397 H1403 0.985 . S
C1398 C1392 1.379 . S
C1398 C1395 1.363 . S
C1398 N1396 1.356 . S
C1399 C1393 1.363 . S
C1399 C1394 1.379 . S
C1399 N1397 1.356 . S
N1400 C1392 1.356 . S
N1400 H1406 0.984 . S
N1400 H1407 0.984 . S
N1401 C1394 1.356 . S
N1401 H1404 0.984 . S
N1401 H1405 0.985 . S
H1402 N1397 0.984 . S
H1403 N1397 0.985 . S
H1404 N1401 0.984 . S
H1405 N1401 0.985 . S
H1406 N1400 0.984 . S
H1407 N1400 0.984 . S
H1408 N1396 0.984 . S
H1409 N1396 0.985 . S
C1410 C1411 1.363 . S
C1410 C1416 1.379 . S
C1410 N1418 1.356 . S
C1411 C1410 1.363 . S
C1411 C1417 1.363 . S
C1412 C1413 1.363 . S
C1412 C1417 1.379 . S
C1412 N1419 1.356 . S
C1413 C1412 1.363 . S
C1413 C1416 1.363 . S
N1414 C1416 1.356 . S
N1414 H1426 0.984 . S
N1414 H1427 0.985 . S
N1415 C1417 1.356 . S
N1415 H1420 0.984 . S
N1415 H1421 0.985 . S
C1416 C1410 1.379 . S
C1416 C1413 1.363 . S
C1416 N1414 1.356 . S
C1417 C1411 1.363 . S
C1417 C1412 1.379 . S
C1417 N1415 1.356 . S
N1418 C1410 1.356 . S
N1418 H1424 0.984 . S
N1418 H1425 0.984 . S
N1419 C1412 1.356 . S
N1419 H1422 0.984 . S
N1419 H1423 0.985 . S
H1420 N1415 0.984 . S
H1421 N1415 0.985 . S
H1422 N1419 0.984 . S
H1423 N1419 0.985 . S
H1424 N1418 0.984 . S
H1425 N1418 0.984 . S
H1426 N1414 0.984 . S
H1427 N1414 0.985 . S
C1428 C1429 1.363 . S
C1428 C1434 1.379 . S
C1428 N1436 1.356 . S
C1429 C1428 1.363 . S
C1429 C1435 1.363 . S
C1430 C1431 1.363 . S
C1430 C1435 1.379 . S
C1430 N1437 1.356 . S
C1431 C1430 1.363 . S
C1431 C1434 1.363 . S
N1432 C1434 1.356 . S
N1432 H1444 0.984 . S
N1432 H1445 0.985 . S
N1433 C1435 1.356 . S
N1433 H1438 0.984 . S
N1433 H1439 0.985 . S
C1434 C1428 1.379 . S
C1434 C1431 1.363 . S
C1434 N1432 1.356 . S
C1435 C1429 1.363 . S
C1435 C1430 1.379 . S
C1435 N1433 1.356 . S
N1436 C1428 1.356 . S
N1436 H1442 0.984 . S
N1436 H1443 0.984 . S
N1437 C1430 1.356 . S
N1437 H1440 0.984 . S
N1437 H1441 0.985 . S
H1438 N1433 0.984 . S
H1439 N1433 0.985 . S
H1440 N1437 0.984 . S
H1441 N1437 0.985 . S
H1442 N1436 0.984 . S
H1443 N1436 0.984 . S
H1444 N1432 0.984 . S
H1445 N1432 0.985 . S
C1446 C1447 1.363 . S
C1446 C1452 1.379 . S
C1446 N1454 1.356 . S
C1447 C1446 1.363 . S
C1447 C1453 1.363 . S
C1448 C1449 1.363 . S
C1448 C1453 1.379 . S
C1448 N1455 1.356 . S
C1449 C1448 1.363 . S
C1449 C1452 1.363 . S
N1450 C1452 1.356 . S
N1450 H1462 0.984 . S
N1450 H1463 0.985 . S
N1451 C1453 1.356 . S
N1451 H1456 0.984 . S
N1451 H1457 0.985 . S
C1452 C1446 1.379 . S
C1452 C1449 1.363 . S
C1452 N1450 1.356 . S
C1453 C1447 1.363 . S
C1453 C1448 1.379 . S
C1453 N1451 1.356 . S
N1454 C1446 1.356 . S
N1454 H1460 0.984 . S
N1454 H1461 0.984 . S
N1455 C1448 1.356 . S
N1455 H1458 0.984 . S
N1455 H1459 0.985 . S
H1456 N1451 0.984 . S
H1457 N1451 0.985 . S
H1458 N1455 0.984 . S
H1459 N1455 0.985 . S
H1460 N1454 0.984 . S
H1461 N1454 0.984 . S
H1462 N1450 0.984 . S
H1463 N1450 0.985 . S
C1464 C1465 1.363 . S
C1464 C1470 1.379 . S
C1464 N1472 1.356 . S
C1465 C1464 1.363 . S
C1465 C1471 1.363 . S
C1466 C1467 1.363 . S
C1466 C1471 1.379 . S
C1466 N1473 1.356 . S
C1467 C1466 1.363 . S
C1467 C1470 1.363 . S
N1468 C1470 1.356 . S
N1468 H1480 0.984 . S
N1468 H1481 0.985 . S
N1469 C1471 1.356 . S
N1469 H1474 0.984 . S
N1469 H1475 0.985 . S
C1470 C1464 1.379 . S
C1470 C1467 1.363 . S
C1470 N1468 1.356 . S
C1471 C1465 1.363 . S
C1471 C1466 1.379 . S
C1471 N1469 1.356 . S
N1472 C1464 1.356 . S
N1472 H1478 0.984 . S
N1472 H1479 0.984 . S
N1473 C1466 1.356 . S
N1473 H1476 0.984 . S
N1473 H1477 0.985 . S
H1474 N1469 0.984 . S
H1475 N1469 0.985 . S
H1476 N1473 0.984 . S
H1477 N1473 0.985 . S
H1478 N1472 0.984 . S
H1479 N1472 0.984 . S
H1480 N1468 0.984 . S
H1481 N1468 0.985 . S
C1482 C1483 1.363 . S
C1482 C1488 1.379 . S
C1482 N1490 1.356 . S
C1483 C1482 1.363 . S
C1483 C1489 1.363 . S
C1484 C1485 1.363 . S
C1484 C1489 1.379 . S
C1484 N1491 1.356 . S
C1485 C1484 1.363 . S
C1485 C1488 1.363 . S
N1486 C1488 1.356 . S
N1486 H1498 0.984 . S
N1486 H1499 0.985 . S
N1487 C1489 1.356 . S
N1487 H1492 0.984 . S
N1487 H1493 0.985 . S
C1488 C1482 1.379 . S
C1488 C1485 1.363 . S
C1488 N1486 1.356 . S
C1489 C1483 1.363 . S
C1489 C1484 1.379 . S
C1489 N1487 1.356 . S
N1490 C1482 1.356 . S
N1490 H1496 0.984 . S
N1490 H1497 0.984 . S
N1491 C1484 1.356 . S
N1491 H1494 0.984 . S
N1491 H1495 0.985 . S
H1492 N1487 0.984 . S
H1493 N1487 0.985 . S
H1494 N1491 0.984 . S
H1495 N1491 0.985 . S
H1496 N1490 0.984 . S
H1497 N1490 0.984 . S
H1498 N1486 0.984 . S
H1499 N1486 0.985 . S
C1500 C1501 1.363 . S
C1500 C1506 1.379 . S
C1500 N1508 1.356 . S
C1501 C1500 1.363 . S
C1501 C1507 1.363 . S
C1502 C1503 1.363 . S
C1502 C1507 1.379 . S
C1502 N1509 1.356 . S
C1503 C1502 1.363 . S
C1503 C1506 1.363 . S
N1504 C1506 1.356 . S
N1504 H1516 0.984 . S
N1504 H1517 0.985 . S
N1505 C1507 1.356 . S
N1505 H1510 0.984 . S
N1505 H1511 0.985 . S
C1506 C1500 1.379 . S
C1506 C1503 1.363 . S
C1506 N1504 1.356 . S
C1507 C1501 1.363 . S
C1507 C1502 1.379 . S
C1507 N1505 1.356 . S
N1508 C1500 1.356 . S
N1508 H1514 0.984 . S
N1508 H1515 0.984 . S
N1509 C1502 1.356 . S
N1509 H1512 0.984 . S
N1509 H1513 0.985 . S
H1510 N1505 0.984 . S
H1511 N1505 0.985 . S
H1512 N1509 0.984 . S
H1513 N1509 0.985 . S
H1514 N1508 0.984 . S
H1515 N1508 0.984 . S
H1516 N1504 0.984 . S
H1517 N1504 0.985 . S
C1518 C1519 1.363 . S
C1518 C1524 1.379 . S
C1518 N1526 1.356 . S
C1519 C1518 1.363 . S
C1519 C1525 1.363 . S
C1520 C1521 1.363 . S
C1520 C1525 1.379 . S
C1520 N1527 1.356 . S
C1521 C1520 1.363 . S
C1521 C1524 1.363 . S
N1522 C1524 1.356 . S
N1522 H1534 0.984 . S
N1522 H1535 0.985 . S
N1523 C1525 1.356 . S
N1523 H1528 0.984 . S
N1523 H1529 0.985 . S
C1524 C1518 1.379 . S
C1524 C1521 1.363 . S
C1524 N1522 1.356 . S
C1525 C1519 1.363 . S
C1525 C1520 1.379 . S
C1525 N1523 1.356 . S
N1526 C1518 1.356 . S
N1526 H1532 0.984 . S
N1526 H1533 0.984 . S
N1527 C1520 1.356 . S
N1527 H1530 0.984 . S
N1527 H1531 0.985 . S
H1528 N1523 0.984 . S
H1529 N1523 0.985 . S
H1530 N1527 0.984 . S
H1531 N1527 0.985 . S
H1532 N1526 0.984 . S
H1533 N1526 0.984 . S
H1534 N1522 0.984 . S
H1535 N1522 0.985 . S
C1536 C1537 1.363 . S
C1536 C1542 1.379 . S
C1536 N1544 1.356 . S
C1537 C1536 1.363 . S
C1537 C1543 1.363 . S
C1538 C1539 1.363 . S
C1538 C1543 1.379 . S
C1538 N1545 1.356 . S
C1539 C1538 1.363 . S
C1539 C1542 1.363 . S
N1540 C1542 1.356 . S
N1540 H1552 0.984 . S
N1540 H1553 0.985 . S
N1541 C1543 1.356 . S
N1541 H1546 0.984 . S
N1541 H1547 0.985 . S
C1542 C1536 1.379 . S
C1542 C1539 1.363 . S
C1542 N1540 1.356 . S
C1543 C1537 1.363 . S
C1543 C1538 1.379 . S
C1543 N1541 1.356 . S
N1544 C1536 1.356 . S
N1544 H1550 0.984 . S
N1544 H1551 0.984 . S
N1545 C1538 1.356 . S
N1545 H1548 0.984 . S
N1545 H1549 0.985 . S
H1546 N1541 0.984 . S
H1547 N1541 0.985 . S
H1548 N1545 0.984 . S
H1549 N1545 0.985 . S
H1550 N1544 0.984 . S
H1551 N1544 0.984 . S
H1552 N1540 0.984 . S
H1553 N1540 0.985 . S
C1554 C1555 1.363 . S
C1554 C1560 1.379 . S
C1554 N1562 1.356 . S
C1555 C1554 1.363 . S
C1555 C1561 1.363 . S
C1556 C1557 1.363 . S
C1556 C1561 1.379 . S
C1556 N1563 1.356 . S
C1557 C1556 1.363 . S
C1557 C1560 1.363 . S
N1558 C1560 1.356 . S
N1558 H1570 0.984 . S
N1558 H1571 0.985 . S
N1559 C1561 1.356 . S
N1559 H1564 0.984 . S
N1559 H1565 0.985 . S
C1560 C1554 1.379 . S
C1560 C1557 1.363 . S
C1560 N1558 1.356 . S
C1561 C1555 1.363 . S
C1561 C1556 1.379 . S
C1561 N1559 1.356 . S
N1562 C1554 1.356 . S
N1562 H1568 0.984 . S
N1562 H1569 0.984 . S
N1563 C1556 1.356 . S
N1563 H1566 0.984 . S
N1563 H1567 0.985 . S
H1564 N1559 0.984 . S
H1565 N1559 0.985 . S
H1566 N1563 0.984 . S
H1567 N1563 0.985 . S
H1568 N1562 0.984 . S
H1569 N1562 0.984 . S
H1570 N1558 0.984 . S
H1571 N1558 0.985 . S
C1572 C1573 1.363 . S
C1572 C1578 1.379 . S
C1572 N1580 1.356 . S
C1573 C1572 1.363 . S
C1573 C1579 1.363 . S
C1574 C1575 1.363 . S
C1574 C1579 1.379 . S
C1574 N1581 1.356 . S
C1575 C1574 1.363 . S
C1575 C1578 1.363 . S
N1576 C1578 1.356 . S
N1576 H1588 0.984 . S
N1576 H1589 0.985 . S
N1577 C1579 1.356 . S
N1577 H1582 0.984 . S
N1577 H1583 0.985 . S
C1578 C1572 1.379 . S
C1578 C1575 1.363 . S
C1578 N1576 1.356 . S
C1579 C1573 1.363 . S
C1579 C1574 1.379 . S
C1579 N1577 1.356 . S
N1580 C1572 1.356 . S
N1580 H1586 0.984 . S
N1580 H1587 0.984 . S
N1581 C1574 1.356 . S
N1581 H1584 0.984 . S
N1581 H1585 0.985 . S
H1582 N1577 0.984 . S
H1583 N1577 0.985 . S
H1584 N1581 0.984 . S
H1585 N1581 0.985 . S
H1586 N1580 0.984 . S
H1587 N1580 0.984 . S
H1588 N1576 0.984 . S
H1589 N1576 0.985 . S
C1590 C1591 1.363 . S
C1590 C1596 1.379 . S
C1590 N1598 1.356 . S
C1591 C1590 1.363 . S
C1591 C1597 1.363 . S
C1592 C1593 1.363 . S
C1592 C1597 1.379 . S
C1592 N1599 1.356 . S
C1593 C1592 1.363 . S
C1593 C1596 1.363 . S
N1594 C1596 1.356 . S
N1594 H1606 0.984 . S
N1594 H1607 0.985 . S
N1595 C1597 1.356 . S
N1595 H1600 0.984 . S
N1595 H1601 0.985 . S
C1596 C1590 1.379 . S
C1596 C1593 1.363 . S
C1596 N1594 1.356 . S
C1597 C1591 1.363 . S
C1597 C1592 1.379 . S
C1597 N1595 1.356 . S
N1598 C1590 1.356 . S
N1598 H1604 0.984 . S
N1598 H1605 0.984 . S
N1599 C1592 1.356 . S
N1599 H1602 0.984 . S
N1599 H1603 0.985 . S
H1600 N1595 0.984 . S
H1601 N1595 0.985 . S
H1602 N1599 0.984 . S
H1603 N1599 0.985 . S
H1604 N1598 0.984 . S
H1605 N1598 0.984 . S
H1606 N1594 0.984 . S
H1607 N1594 0.985 . S
C1608 C1609 1.363 . S
C1608 C1614 1.379 . S
C1608 N1616 1.356 . S
C1609 C1608 1.363 . S
C1609 C1615 1.363 . S
C1610 C1611 1.363 . S
C1610 C1615 1.379 . S
C1610 N1617 1.356 . S
C1611 C1610 1.363 . S
C1611 C1614 1.363 . S
N1612 C1614 1.356 . S
N1612 H1624 0.984 . S
N1612 H1625 0.985 . S
N1613 C1615 1.356 . S
N1613 H1618 0.984 . S
N1613 H1619 0.985 . S
C1614 C1608 1.379 . S
C1614 C1611 1.363 . S
C1614 N1612 1.356 . S
C1615 C1609 1.363 . S
C1615 C1610 1.379 . S
C1615 N1613 1.356 . S
N1616 C1608 1.356 . S
N1616 H1622 0.984 . S
N1616 H1623 0.984 . S
N1617 C1610 1.356 . S
N1617 H1620 0.984 . S
N1617 H1621 0.985 . S
H1618 N1613 0.984 . S
H1619 N1613 0.985 . S
H1620 N1617 0.984 . S
H1621 N1617 0.985 . S
H1622 N1616 0.984 . S
H1623 N1616 0.984 . S
H1624 N1612 0.984 . S
H1625 N1612 0.985 . S
C1626 C1627 1.363 . S
C1626 C1632 1.379 . S
C1626 N1634 1.356 . S
C1627 C1626 1.363 . S
C1627 C1633 1.363 . S
C1628 C1629 1.363 . S
C1628 C1633 1.379 . S
C1628 N1635 1.356 . S
C1629 C1628 1.363 . S
C1629 C1632 1.363 . S
N1630 C1632 1.356 . S
N1630 H1642 0.984 . S
N1630 H1643 0.985 . S
N1631 C1633 1.356 . S
N1631 H1636 0.984 . S
N1631 H1637 0.985 . S
C1632 C1626 1.379 . S
C1632 C1629 1.363 . S
C1632 N1630 1.356 . S
C1633 C1627 1.363 . S
C1633 C1628 1.379 . S
C1633 N1631 1.356 . S
N1634 C1626 1.356 . S
N1634 H1640 0.984 . S
N1634 H1641 0.984 . S
N1635 C1628 1.356 . S
N1635 H1638 0.984 . S
N1635 H1639 0.985 . S
H1636 N1631 0.984 . S
H1637 N1631 0.985 . S
H1638 N1635 0.984 . S
H1639 N1635 0.985 . S
H1640 N1634 0.984 . S
H1641 N1634 0.984 . S
H1642 N1630 0.984 . S
H1643 N1630 0.985 . S
C1644 C1645 1.363 . S
C1644 C1650 1.379 . S
C1644 N1652 1.356 . S
C1645 C1644 1.363 . S
C1645 C1651 1.363 . S
C1646 C1647 1.363 . S
C1646 C1651 1.379 . S
C1646 N1653 1.356 . S
C1647 C1646 1.363 . S
C1647 C1650 1.363 . S
N1648 C1650 1.356 . S
N1648 H1660 0.984 . S
N1648 H1661 0.985 . S
N1649 C1651 1.356 . S
N1649 H1654 0.984 . S
N1649 H1655 0.985 . S
C1650 C1644 1.379 . S
C1650 C1647 1.363 . S
C1650 N1648 1.356 . S
C1651 C1645 1.363 . S
C1651 C1646 1.379 . S
C1651 N1649 1.356 . S
N1652 C1644 1.356 . S
N1652 H1658 0.984 . S
N1652 H1659 0.984 . S
N1653 C1646 1.356 . S
N1653 H1656 0.984 . S
N1653 H1657 0.985 . S
H1654 N1649 0.984 . S
H1655 N1649 0.985 . S
H1656 N1653 0.984 . S
H1657 N1653 0.985 . S
H1658 N1652 0.984 . S
H1659 N1652 0.984 . S
H1660 N1648 0.984 . S
H1661 N1648 0.985 . S
C1662 C1663 1.363 . S
C1662 C1668 1.379 . S
C1662 N1670 1.356 . S
C1663 C1662 1.363 . S
C1663 C1669 1.363 . S
C1664 C1665 1.363 . S
C1664 C1669 1.379 . S
C1664 N1671 1.356 . S
C1665 C1664 1.363 . S
C1665 C1668 1.363 . S
N1666 C1668 1.356 . S
N1666 H1678 0.984 . S
N1666 H1679 0.985 . S
N1667 C1669 1.356 . S
N1667 H1672 0.984 . S
N1667 H1673 0.985 . S
C1668 C1662 1.379 . S
C1668 C1665 1.363 . S
C1668 N1666 1.356 . S
C1669 C1663 1.363 . S
C1669 C1664 1.379 . S
C1669 N1667 1.356 . S
N1670 C1662 1.356 . S
N1670 H1676 0.984 . S
N1670 H1677 0.984 . S
N1671 C1664 1.356 . S
N1671 H1674 0.984 . S
N1671 H1675 0.985 . S
H1672 N1667 0.984 . S
H1673 N1667 0.985 . S
H1674 N1671 0.984 . S
H1675 N1671 0.985 . S
H1676 N1670 0.984 . S
H1677 N1670 0.984 . S
H1678 N1666 0.984 . S
H1679 N1666 0.985 . S
C1680 C1681 1.363 . S
C1680 C1686 1.379 . S
C1680 N1688 1.356 . S
C1681 C1680 1.363 . S
C1681 C1687 1.363 . S
C1682 C1683 1.363 . S
C1682 C1687 1.379 . S
C1682 N1689 1.356 . S
C1683 C1682 1.363 . S
C1683 C1686 1.363 . S
N1684 C1686 1.356 . S
N1684 H1696 0.984 . S
N1684 H1697 0.985 . S
N1685 C1687 1.356 . S
N1685 H1690 0.984 . S
N1685 H1691 0.985 . S
C1686 C1680 1.379 . S
C1686 C1683 1.363 . S
C1686 N1684 1.356 . S
C1687 C1681 1.363 . S
C1687 C1682 1.379 . S
C1687 N1685 1.356 . S
N1688 C1680 1.356 . S
N1688 H1694 0.984 . S
N1688 H1695 0.984 . S
N1689 C1682 1.356 . S
N1689 H1692 0.984 . S
N1689 H1693 0.985 . S
H1690 N1685 0.984 . S
H1691 N1685 0.985 . S
H1692 N1689 0.984 . S
H1693 N1689 0.985 . S
H1694 N1688 0.984 . S
H1695 N1688 0.984 . S
H1696 N1684 0.984 . S
H1697 N1684 0.985 . S
C1698 C1699 1.363 . S
C1698 C1704 1.379 . S
C1698 N1706 1.356 . S
C1699 C1698 1.363 . S
C1699 C1705 1.363 . S
C1700 C1701 1.363 . S
C1700 C1705 1.379 . S
C1700 N1707 1.356 . S
C1701 C1700 1.363 . S
C1701 C1704 1.363 . S
N1702 C1704 1.356 . S
N1702 H1714 0.984 . S
N1702 H1715 0.985 . S
N1703 C1705 1.356 . S
N1703 H1708 0.984 . S
N1703 H1709 0.985 . S
C1704 C1698 1.379 . S
C1704 C1701 1.363 . S
C1704 N1702 1.356 . S
C1705 C1699 1.363 . S
C1705 C1700 1.379 . S
C1705 N1703 1.356 . S
N1706 C1698 1.356 . S
N1706 H1712 0.984 . S
N1706 H1713 0.984 . S
N1707 C1700 1.356 . S
N1707 H1710 0.984 . S
N1707 H1711 0.985 . S
H1708 N1703 0.984 . S
H1709 N1703 0.985 . S
H1710 N1707 0.984 . S
H1711 N1707 0.985 . S
H1712 N1706 0.984 . S
H1713 N1706 0.984 . S
H1714 N1702 0.984 . S
H1715 N1702 0.985 . S
C1716 C1717 1.363 . S
C1716 C1722 1.379 . S
C1716 N1724 1.356 . S
C1717 C1716 1.363 . S
C1717 C1723 1.363 . S
C1718 C1719 1.363 . S
C1718 C1723 1.379 . S
C1718 N1725 1.356 . S
C1719 C1718 1.363 . S
C1719 C1722 1.363 . S
N1720 C1722 1.356 . S
N1720 H1732 0.984 . S
N1720 H1733 0.985 . S
N1721 C1723 1.356 . S
N1721 H1726 0.984 . S
N1721 H1727 0.985 . S
C1722 C1716 1.379 . S
C1722 C1719 1.363 . S
C1722 N1720 1.356 . S
C1723 C1717 1.363 . S
C1723 C1718 1.379 . S
C1723 N1721 1.356 . S
N1724 C1716 1.356 . S
N1724 H1730 0.984 . S
N1724 H1731 0.984 . S
N1725 C1718 1.356 . S
N1725 H1728 0.984 . S
N1725 H1729 0.985 . S
H1726 N1721 0.984 . S
H1727 N1721 0.985 . S
H1728 N1725 0.984 . S
H1729 N1725 0.985 . S
H1730 N1724 0.984 . S
H1731 N1724 0.984 . S
H1732 N1720 0.984 . S
H1733 N1720 0.985 . S
C1734 C1735 1.363 . S
C1734 C1740 1.379 . S
C1734 N1742 1.356 . S
C1735 C1734 1.363 . S
C1735 C1741 1.363 . S
C1736 C1737 1.363 . S
C1736 C1741 1.379 . S
C1736 N1743 1.356 . S
C1737 C1736 1.363 . S
C1737 C1740 1.363 . S
N1738 C1740 1.356 . S
N1738 H1750 0.984 . S
N1738 H1751 0.985 . S
N1739 C1741 1.356 . S
N1739 H1744 0.984 . S
N1739 H1745 0.985 . S
C1740 C1734 1.379 . S
C1740 C1737 1.363 . S
C1740 N1738 1.356 . S
C1741 C1735 1.363 . S
C1741 C1736 1.379 . S
C1741 N1739 1.356 . S
N1742 C1734 1.356 . S
N1742 H1748 0.984 . S
N1742 H1749 0.984 . S
N1743 C1736 1.356 . S
N1743 H1746 0.984 . S
N1743 H1747 0.985 . S
H1744 N1739 0.984 . S
H1745 N1739 0.985 . S
H1746 N1743 0.984 . S
H1747 N1743 0.985 . S
H1748 N1742 0.984 . S
H1749 N1742 0.984 . S
H1750 N1738 0.984 . S
H1751 N1738 0.985 . S
C1752 C1753 1.363 . S
C1752 C1758 1.379 . S
C1752 N1760 1.356 . S
C1753 C1752 1.363 . S
C1753 C1759 1.363 . S
C1754 C1755 1.363 . S
C1754 C1759 1.379 . S
C1754 N1761 1.356 . S
C1755 C1754 1.363 . S
C1755 C1758 1.363 . S
N1756 C1758 1.356 . S
N1756 H1768 0.984 . S
N1756 H1769 0.985 . S
N1757 C1759 1.356 . S
N1757 H1762 0.984 . S
N1757 H1763 0.985 . S
C1758 C1752 1.379 . S
C1758 C1755 1.363 . S
C1758 N1756 1.356 . S
C1759 C1753 1.363 . S
C1759 C1754 1.379 . S
C1759 N1757 1.356 . S
N1760 C1752 1.356 . S
N1760 H1766 0.984 . S
N1760 H1767 0.984 . S
N1761 C1754 1.356 . S
N1761 H1764 0.984 . S
N1761 H1765 0.985 . S
H1762 N1757 0.984 . S
H1763 N1757 0.985 . S
H1764 N1761 0.984 . S
H1765 N1761 0.985 . S
H1766 N1760 0.984 . S
H1767 N1760 0.984 . S
H1768 N1756 0.984 . S
H1769 N1756 0.985 . S
C1770 C1771 1.363 . S
C1770 C1776 1.379 . S
C1770 N1778 1.356 . S
C1771 C1770 1.363 . S
C1771 C1777 1.363 . S
C1772 C1773 1.363 . S
C1772 C1777 1.379 . S
C1772 N1779 1.356 . S
C1773 C1772 1.363 . S
C1773 C1776 1.363 . S
N1774 C1776 1.356 . S
N1774 H1786 0.984 . S
N1774 H1787 0.985 . S
N1775 C1777 1.356 . S
N1775 H1780 0.984 . S
N1775 H1781 0.985 . S
C1776 C1770 1.379 . S
C1776 C1773 1.363 . S
C1776 N1774 1.356 . S
C1777 C1771 1.363 . S
C1777 C1772 1.379 . S
C1777 N1775 1.356 . S
N1778 C1770 1.356 . S
N1778 H1784 0.984 . S
N1778 H1785 0.984 . S
N1779 C1772 1.356 . S
N1779 H1782 0.984 . S
N1779 H1783 0.985 . S
H1780 N1775 0.984 . S
H1781 N1775 0.985 . S
H1782 N1779 0.984 . S
H1783 N1779 0.985 . S
H1784 N1778 0.984 . S
H1785 N1778 0.984 . S
H1786 N1774 0.984 . S
H1787 N1774 0.985 . S
C1788 C1789 1.363 . S
C1788 C1794 1.379 . S
C1788 N1796 1.356 . S
C1789 C1788 1.363 . S
C1789 C1795 1.363 . S
C1790 C1791 1.363 . S
C1790 C1795 1.379 . S
C1790 N1797 1.356 . S
C1791 C1790 1.363 . S
C1791 C1794 1.363 . S
N1792 C1794 1.356 . S
N1792 H1804 0.984 . S
N1792 H1805 0.985 . S
N1793 C1795 1.356 . S
N1793 H1798 0.984 . S
N1793 H1799 0.985 . S
C1794 C1788 1.379 . S
C1794 C1791 1.363 . S
C1794 N1792 1.356 . S
C1795 C1789 1.363 . S
C1795 C1790 1.379 . S
C1795 N1793 1.356 . S
N1796 C1788 1.356 . S
N1796 H1802 0.984 . S
N1796 H1803 0.984 . S
N1797 C1790 1.356 . S
N1797 H1800 0.984 . S
N1797 H1801 0.985 . S
H1798 N1793 0.984 . S
H1799 N1793 0.985 . S
H1800 N1797 0.984 . S
H1801 N1797 0.985 . S
H1802 N1796 0.984 . S
H1803 N1796 0.984 . S
H1804 N1792 0.984 . S
H1805 N1792 0.985 . S
C1806 C1807 1.363 . S
C1806 C1812 1.379 . S
C1806 N1814 1.356 . S
C1807 C1806 1.363 . S
C1807 C1813 1.363 . S
C1808 C1809 1.363 . S
C1808 C1813 1.379 . S
C1808 N1815 1.356 . S
C1809 C1808 1.363 . S
C1809 C1812 1.363 . S
N1810 C1812 1.356 . S
N1810 H1822 0.984 . S
N1810 H1823 0.985 . S
N1811 C1813 1.356 . S
N1811 H1816 0.984 . S
N1811 H1817 0.985 . S
C1812 C1806 1.379 . S
C1812 C1809 1.363 . S
C1812 N1810 1.356 . S
C1813 C1807 1.363 . S
C1813 C1808 1.379 . S
C1813 N1811 1.356 . S
N1814 C1806 1.356 . S
N1814 H1820 0.984 . S
N1814 H1821 0.984 . S
N1815 C1808 1.356 . S
N1815 H1818 0.984 . S
N1815 H1819 0.985 . S
H1816 N1811 0.984 . S
H1817 N1811 0.985 . S
H1818 N1815 0.984 . S
H1819 N1815 0.985 . S
H1820 N1814 0.984 . S
H1821 N1814 0.984 . S
H1822 N1810 0.984 . S
H1823 N1810 0.985 . S
C529 C9 1.229 . S
C531 C138 1.229 . S
C547 C28 1.229 . S
C549 C159 1.229 . S
C565 C95 1.229 . S
C567 C53 1.229 . S
C583 C73 1.229 . S
C585 C115 1.229 . S
C601 C71 1.229 . S
C603 C31 1.229 . S
C619 C50 1.229 . S
C621 C6 1.229 . S
C637 C117 1.229 . S
C639 C161 1.229 . S
C655 C141 1.229 . S
C657 C93 1.229 . S
C673 C181 1.229 . S
C675 C207 1.229 . S
C691 C183 1.229 . S
C693 C229 1.229 . S
C709 C226 1.229 . S
C711 C249 1.229 . S
C727 C247 1.229 . S
C729 C204 1.229 . S
C745 C273 1.229 . S
C747 C402 1.229 . S
C763 C423 1.229 . S
C765 C292 1.229 . S
C781 C317 1.229 . S
C783 C359 1.229 . S
C799 C337 1.229 . S
C801 C379 1.229 . S
C817 C335 1.229 . S
C819 C295 1.229 . S
C835 C314 1.229 . S
C837 C270 1.229 . S
C853 C381 1.229 . S
C855 C425 1.229 . S
C871 C405 1.229 . S
C873 C357 1.229 . S
C889 C445 1.229 . S
C891 C469 1.229 . S
C907 C493 1.229 . S
C909 C447 1.229 . S
C925 C490 1.229 . S
C927 C513 1.229 . S
C943 C511 1.229 . S
C945 C467 1.229 . S
C961 C512 1.198 . S
C963 C7 1.196 . S
C979 C470 1.198 . S
C981 C26 1.196 . S
C997 C51 1.198 . S
C999 C448 1.200 . S
C1015 C74 1.198 . S
C1017 C488 1.201 . S
C1033 C491 1.198 . S
C1035 C96 1.196 . S
C1051 C116 1.198 . S
C1053 C514 1.196 . S
C1069 C468 1.198 . S
C1071 C136 1.200 . S
C1087 C160 1.198 . S
C1089 C446 1.200 . S
C1105 C358 1.198 . S
C1107 C72 1.196 . S
C1123 C4 1.198 . S
C1125 C382 1.200 . S
C1141 C29 1.198 . S
C1143 C403 1.201 . S
C1159 C48 1.198 . S
C1161 C426 1.196 . S
C1177 C268 1.198 . S
C1179 C118 1.200 . S
C1195 C139 1.198 . S
C1197 C293 1.196 . S
C1213 C162 1.198 . S
C1215 C312 1.196 . S
C1231 C94 1.198 . S
C1233 C336 1.200 . S
C1249 C424 1.198 . S
C1251 C182 1.196 . S
C1267 C205 1.198 . S
C1269 C290 1.201 . S
C1285 C315 1.198 . S
C1287 C184 1.200 . S
C1303 C338 1.198 . S
C1305 C224 1.200 . S
C1321 C248 1.198 . S
C1323 C271 1.200 . S
C1339 C380 1.198 . S
C1341 C250 1.196 . S
C1357 C400 1.198 . S
C1359 C202 1.196 . S
C1375 C360 1.198 . S
C1377 C227 1.196 . S
C1393 C97 1.198 . S
C1395 C449 1.200 . S
C1411 C114 1.198 . S
C1413 C489 1.201 . S
C1429 C137 1.198 . S
C1431 C510 1.196 . S
C1447 C471 1.198 . S
C1449 C158 1.196 . S
C1465 C466 1.198 . S
C1467 C8 1.200 . S
C1483 C27 1.198 . S
C1485 C444 1.200 . S
C1501 C52 1.198 . S
C1503 C492 1.196 . S
C1519 C515 1.198 . S
C1521 C75 1.196 . S
C1537 C269 1.198 . S
C1539 C163 1.200 . S
C1555 C92 1.198 . S
C1557 C294 1.196 . S
C1573 C313 1.198 . S
C1575 C119 1.196 . S
C1591 C334 1.198 . S
C1593 C140 1.200 . S
C1609 C356 1.198 . S
C1611 C30 1.196 . S
C1627 C49 1.198 . S
C1629 C383 1.201 . S
C1645 C404 1.198 . S
C1647 C70 1.200 . S
C1663 C427 1.198 . S
C1665 C5 1.196 . S
C1681 C251 1.198 . S
C1683 C339 1.200 . S
C1699 C225 1.198 . S
C1701 C378 1.196 . S
C1717 C401 1.198 . S
C1719 C246 1.196 . S
C1735 C206 1.198 . S
C1737 C422 1.196 . S
C1753 C185 1.198 . S
C1755 C361 1.196 . S
C1771 C291 1.198 . S
C1773 C180 1.200 . S
C1789 C228 1.198 . S
C1791 C316 1.201 . S
C1807 C272 1.198 . S
C1809 C203 1.200 . S
