# Generated by pormake.
# Topology wiv, (6)-cn, num edge types: 1
# Building blocks:
#     Node 0, Type 0, BuildingBlock: KUMBOL_clean_sbu_1, # of connection points: 6
#     Node 1, Type 0, BuildingBlock: KUMBOL_clean_sbu_1, # of connection points: 6
#     Node 2, Type 0, BuildingBlock: KUMBOL_clean_sbu_1, # of connection points: 6
#     Node 3, Type 0, BuildingBlock: KUMBOL_clean_sbu_1, # of connection points: 6
#     Node 4, Type 0, BuildingBlock: KUMBOL_clean_sbu_1, # of connection points: 6
#     Node 5, Type 0, BuildingBlock: KUMBOL_clean_sbu_1, # of connection points: 6
#     Node 6, Type 0, BuildingBlock: KUMBOL_clean_sbu_1, # of connection points: 6
#     Node 7, Type 0, BuildingBlock: KUMBOL_clean_sbu_1, # of connection points: 6
#     Node 8, Type 0, BuildingBlock: KUMBOL_clean_sbu_1, # of connection points: 6
#     Node 9, Type 0, BuildingBlock: KUMBOL_clean_sbu_1, # of connection points: 6
#     Node 10, Type 0, BuildingBlock: KUMBOL_clean_sbu_1, # of connection points: 6
#     Node 11, Type 0, BuildingBlock: KUMBOL_clean_sbu_1, # of connection points: 6
#     Node 12, Type 0, BuildingBlock: KUMBOL_clean_sbu_1, # of connection points: 6
#     Node 13, Type 0, BuildingBlock: KUMBOL_clean_sbu_1, # of connection points: 6
#     Node 14, Type 0, BuildingBlock: KUMBOL_clean_sbu_1, # of connection points: 6
#     Node 15, Type 0, BuildingBlock: KUMBOL_clean_sbu_1, # of connection points: 6
#     Edge 16, Type (0, 0), BuildingBlock: XUDNAN_clean_linker_2, # of connection points: 2
#     Edge 17, Type (0, 0), BuildingBlock: XUDNAN_clean_linker_2, # of connection points: 2
#     Edge 18, Type (0, 0), BuildingBlock: XUDNAN_clean_linker_2, # of connection points: 2
#     Edge 19, Type (0, 0), BuildingBlock: XUDNAN_clean_linker_2, # of connection points: 2
#     Edge 20, Type (0, 0), BuildingBlock: XUDNAN_clean_linker_2, # of connection points: 2
#     Edge 21, Type (0, 0), BuildingBlock: XUDNAN_clean_linker_2, # of connection points: 2
#     Edge 22, Type (0, 0), BuildingBlock: XUDNAN_clean_linker_2, # of connection points: 2
#     Edge 23, Type (0, 0), BuildingBlock: XUDNAN_clean_linker_2, # of connection points: 2
#     Edge 24, Type (0, 0), BuildingBlock: XUDNAN_clean_linker_2, # of connection points: 2
#     Edge 25, Type (0, 0), BuildingBlock: XUDNAN_clean_linker_2, # of connection points: 2
#     Edge 26, Type (0, 0), BuildingBlock: XUDNAN_clean_linker_2, # of connection points: 2
#     Edge 27, Type (0, 0), BuildingBlock: XUDNAN_clean_linker_2, # of connection points: 2
#     Edge 28, Type (0, 0), BuildingBlock: XUDNAN_clean_linker_2, # of connection points: 2
#     Edge 29, Type (0, 0), BuildingBlock: XUDNAN_clean_linker_2, # of connection points: 2
#     Edge 30, Type (0, 0), BuildingBlock: XUDNAN_clean_linker_2, # of connection points: 2
#     Edge 31, Type (0, 0), BuildingBlock: XUDNAN_clean_linker_2, # of connection points: 2
#     Edge 32, Type (0, 0), BuildingBlock: XUDNAN_clean_linker_2, # of connection points: 2
#     Edge 33, Type (0, 0), BuildingBlock: XUDNAN_clean_linker_2, # of connection points: 2
#     Edge 34, Type (0, 0), BuildingBlock: XUDNAN_clean_linker_2, # of connection points: 2
#     Edge 35, Type (0, 0), BuildingBlock: XUDNAN_clean_linker_2, # of connection points: 2
#     Edge 36, Type (0, 0), BuildingBlock: XUDNAN_clean_linker_2, # of connection points: 2
#     Edge 37, Type (0, 0), BuildingBlock: XUDNAN_clean_linker_2, # of connection points: 2
#     Edge 38, Type (0, 0), BuildingBlock: XUDNAN_clean_linker_2, # of connection points: 2
#     Edge 39, Type (0, 0), BuildingBlock: XUDNAN_clean_linker_2, # of connection points: 2
#     Edge 40, Type (0, 0), BuildingBlock: XUDNAN_clean_linker_2, # of connection points: 2
#     Edge 41, Type (0, 0), BuildingBlock: XUDNAN_clean_linker_2, # of connection points: 2
#     Edge 42, Type (0, 0), BuildingBlock: XUDNAN_clean_linker_2, # of connection points: 2
#     Edge 43, Type (0, 0), BuildingBlock: XUDNAN_clean_linker_2, # of connection points: 2
#     Edge 44, Type (0, 0), BuildingBlock: XUDNAN_clean_linker_2, # of connection points: 2
#     Edge 45, Type (0, 0), BuildingBlock: XUDNAN_clean_linker_2, # of connection points: 2
#     Edge 46, Type (0, 0), BuildingBlock: XUDNAN_clean_linker_2, # of connection points: 2
#     Edge 47, Type (0, 0), BuildingBlock: XUDNAN_clean_linker_2, # of connection points: 2
#     Edge 48, Type (0, 0), BuildingBlock: XUDNAN_clean_linker_2, # of connection points: 2
#     Edge 49, Type (0, 0), BuildingBlock: XUDNAN_clean_linker_2, # of connection points: 2
#     Edge 50, Type (0, 0), BuildingBlock: XUDNAN_clean_linker_2, # of connection points: 2
#     Edge 51, Type (0, 0), BuildingBlock: XUDNAN_clean_linker_2, # of connection points: 2
#     Edge 52, Type (0, 0), BuildingBlock: XUDNAN_clean_linker_2, # of connection points: 2
#     Edge 53, Type (0, 0), BuildingBlock: XUDNAN_clean_linker_2, # of connection points: 2
#     Edge 54, Type (0, 0), BuildingBlock: XUDNAN_clean_linker_2, # of connection points: 2
#     Edge 55, Type (0, 0), BuildingBlock: XUDNAN_clean_linker_2, # of connection points: 2
#     Edge 56, Type (0, 0), BuildingBlock: XUDNAN_clean_linker_2, # of connection points: 2
#     Edge 57, Type (0, 0), BuildingBlock: XUDNAN_clean_linker_2, # of connection points: 2
#     Edge 58, Type (0, 0), BuildingBlock: XUDNAN_clean_linker_2, # of connection points: 2
#     Edge 59, Type (0, 0), BuildingBlock: XUDNAN_clean_linker_2, # of connection points: 2
#     Edge 60, Type (0, 0), BuildingBlock: XUDNAN_clean_linker_2, # of connection points: 2
#     Edge 61, Type (0, 0), BuildingBlock: XUDNAN_clean_linker_2, # of connection points: 2
#     Edge 62, Type (0, 0), BuildingBlock: XUDNAN_clean_linker_2, # of connection points: 2
#     Edge 63, Type (0, 0), BuildingBlock: XUDNAN_clean_linker_2, # of connection points: 2
# Relax obj value: 0.147
# Max RMSD: 0.205
# Mean RMSD: 0.205
data_MOF--net-wiv--node1-KUMBOL_clean_sbu_1--edge1-XUDNAN_clean_linker_2
_symmetry_space_group_name_H-M    P1
_symmetry_Int_Tables_number       1
_symmetry_cell_setting            triclinic
loop_
_symmetry_equiv_pos_as_xyz
'x, y, z'
_cell_length_a     52.149592
_cell_length_b     52.347512
_cell_length_c     24.152945
_cell_angle_alpha  90.021386
_cell_angle_beta   90.002466
_cell_angle_gamma 89.994431
loop_
_atom_site_label
_atom_site_type_symbol
_atom_site_fract_x
_atom_site_fract_y
_atom_site_fract_z
_atom_type_partial_charge
C0 C 0.27985 0.13505 0.17892 0.0
C1 C 0.25305 0.09761 0.16488 0.0
C2 C 0.27743 0.10876 0.17192 0.0
C3 C 0.23134 0.11337 0.16141 0.0
C4 C 0.25789 0.1507 0.17887 0.0
C5 C 0.23385 0.13986 0.16781 0.0
N6 N 0.30338 0.14508 0.18939 0.0
C7 C 0.30595 0.16995 0.20568 0.0
C8 C 0.26061 0.17664 0.19186 0.0
C9 C 0.28465 0.18615 0.20666 0.0
Gd10 Gd 0.38189 0.10681 0.05872 0.0
Gd11 Gd 0.33741 0.11603 0.18627 0.0
N12 N 0.29886 0.09398 0.17391 0.0
C13 C 0.25121 0.07093 0.16237 0.0
C14 C 0.29712 0.06795 0.17473 0.0
C15 C 0.27331 0.05604 0.16808 0.0
H16 H 0.3141 0.05641 0.17971 0.0
H17 H 0.27202 0.03541 0.1674 0.0
H18 H 0.39031 0.16449 0.99624 0.0
H19 H 0.32444 0.17728 0.21826 0.0
H20 H 0.4238 0.19743 0.99021 0.0
H21 H 0.2328 0.06165 0.15709 0.0
H22 H 0.2125 0.10523 0.1547 0.0
H23 H 0.4118 0.0529 0.09153 0.0
H24 H 0.24412 0.18923 0.19266 0.0
H25 H 0.28681 0.20594 0.21883 0.0
H26 H 0.49781 0.15807 0.07196 0.0
H27 H 0.21709 0.15185 0.16521 0.0
H28 H 0.49083 0.06976 0.12346 0.0
H29 H 0.45511 0.03862 0.11974 0.0
N30 N 0.42292 0.09166 0.0813 0.0
C31 C 0.44255 0.10859 0.07926 0.0
C32 C 0.42734 0.06651 0.09309 0.0
C33 C 0.4719 0.07606 0.11099 0.0
C34 C 0.4518 0.05841 0.10898 0.0
C35 C 0.46751 0.10143 0.09518 0.0
H36 H 0.50654 0.11464 0.10638 0.0
N37 N 0.41341 0.13845 0.04246 0.0
C38 C 0.43753 0.13292 0.06002 0.0
C39 C 0.45222 0.17472 0.03216 0.0
C40 C 0.45753 0.15094 0.05593 0.0
C41 C 0.40873 0.16083 0.01506 0.0
C42 C 0.42785 0.17947 1.0106 0.0
O43 O 0.31933 0.10174 0.10252 0.0
O44 O 0.34249 0.12169 0.03534 0.0
O45 O 0.39298 0.10668 0.97153 0.0
O46 O 0.37747 0.07276 1.01002 0.0
O47 O 0.35969 0.07945 0.18891 0.0
O48 O 0.36357 0.07061 0.09677 0.0
O49 O 0.3996 0.10368 0.14472 0.0
O50 O 0.37684 0.13468 0.186 0.0
O51 O 0.34875 0.09605 0.26134 0.0
O52 O 0.32292 0.12805 0.26644 0.0
O53 O 0.36252 0.14682 0.06361 0.0
O54 O 0.35393 0.15345 0.15647 0.0
C55 C 0.32094 0.11116 0.05136 0.0
C56 C 0.36417 0.06316 0.14916 0.0
C57 C 0.36711 0.07909 0.91633 0.0
C58 C 0.35722 0.08478 0.81891 0.0
C59 C 0.33245 0.05494 0.87374 0.0
C60 C 0.34696 0.06121 0.9202 0.0
C61 C 0.33784 0.06631 0.82303 0.0
C62 C 0.37181 0.09123 0.86555 0.0
C63 C 0.38419 0.08365 0.96393 0.0
C64 C 0.48227 0.14438 0.07417 0.0
C65 C 0.48726 0.11964 0.0937 0.0
H66 H 0.46702 0.18914 0.0284 0.0
C67 C 0.39813 0.12158 0.18211 0.0
C68 C 0.35758 0.16219 0.10605 0.0
C69 C 0.35418 0.12469 0.33523 0.0
C70 C 0.36625 0.13195 0.43075 0.0
C71 C 0.38846 0.15446 0.3577 0.0
C72 C 0.37252 0.14288 0.31893 0.0
C73 C 0.38528 0.14913 0.4136 0.0
C74 C 0.35112 0.11916 0.39151 0.0
C75 C 0.33762 0.11255 0.29373 0.0
H76 H 0.31714 0.04106 0.87693 0.0
H77 H 0.34263 0.05165 0.95884 0.0
H78 H 0.32642 0.0612 0.7872 0.0
H79 H 0.38712 0.10515 0.86189 0.0
H80 H 0.40278 0.16815 0.34452 0.0
H81 H 0.37417 0.14882 0.27666 0.0
H82 H 0.39727 0.15881 0.44365 0.0
H83 H 0.33646 0.1058 0.40482 0.0
C84 C 0.09574 0.56939 0.97177 0.0
C85 C 0.13559 0.54541 0.97269 0.0
C86 C 0.12232 0.56887 0.97316 0.0
C87 C 0.12176 0.52248 0.96867 0.0
C88 C 0.08178 0.5463 0.97099 0.0
C89 C 0.09492 0.52292 0.96766 0.0
N90 N 0.08361 0.59228 0.97679 0.0
C91 C 0.05785 0.59299 0.98794 0.0
C92 C 0.0551 0.54727 0.97662 0.0
C93 C 0.04316 0.57068 0.98638 0.0
Gd94 Gd 0.11776 0.67168 0.84524 0.0
Gd95 Gd 0.11038 0.6288 0.97543 0.0
N96 N 0.13518 0.59135 0.97769 0.0
C97 C 0.16234 0.54567 0.97776 0.0
C98 C 0.16111 0.59162 0.98566 0.0
C99 C 0.17512 0.56887 0.98482 0.0
H100 H 0.17103 0.60938 0.99276 0.0
H101 H 0.19573 0.56923 0.9901 0.0
H102 H 0.06127 0.69882 0.89349 0.0
H103 H 0.0484 0.61092 0.99694 0.0
H104 H 0.03919 0.73967 0.87924 0.0
H105 H 0.17322 0.52803 0.97759 0.0
H106 H 0.13162 0.50426 0.96782 0.0
H107 H 0.18001 0.68243 0.82306 0.0
H108 H 0.0437 0.52997 0.97615 0.0
H109 H 0.02267 0.57155 0.99319 0.0
H110 H 0.10053 0.79077 0.78105 0.0
H111 H 0.08449 0.50503 0.9664 0.0
H112 H 0.18686 0.75985 0.77012 0.0
H113 H 0.20699 0.71822 0.79174 0.0
N114 N 0.14618 0.70481 0.82934 0.0
C115 C 0.13486 0.7276 0.81936 0.0
C116 C 0.17165 0.70118 0.81961 0.0
C117 C 0.17534 0.74459 0.78749 0.0
C118 C 0.1868 0.72122 0.79993 0.0
C119 C 0.14902 0.74785 0.79664 0.0
H120 H 0.14688 0.78511 0.76126 0.0
N121 N 0.09564 0.71055 0.8525 0.0
C122 C 0.10886 0.73055 0.83093 0.0
C123 C 0.07112 0.75713 0.83719 0.0
C124 C 0.09663 0.75401 0.82055 0.0
C125 C 0.07126 0.71387 0.87206 0.0
C126 C 0.05865 0.7372 0.86459 0.0
O127 O 0.12808 0.60916 0.90057 0.0
O128 O 0.10545 0.63025 0.83502 0.0
O129 O 0.10552 0.68197 0.76155 0.0
O130 O 0.13882 0.65758 0.77504 0.0
O131 O 0.14879 0.6503 0.96775 0.0
O132 O 0.15333 0.65124 0.87364 0.0
O133 O 0.12539 0.69378 0.92761 0.0
O134 O 0.0968 0.67033 0.97532 0.0
O135 O 0.12823 0.62611 0.05656 0.0
O136 O 0.08739 0.63279 0.04934 0.0
O137 O 0.0759 0.66089 0.85272 0.0
O138 O 0.0733 0.63102 0.92351 0.0
C139 C 0.11804 0.60985 0.85095 0.0
C140 C 0.1634 0.65149 0.92311 0.0
C141 C 0.13534 0.6769 0.68688 0.0
C142 C 0.13275 0.67594 0.58687 0.0
C143 C 0.17255 0.68793 0.63128 0.0
C144 C 0.16126 0.68398 0.68293 0.0
C145 C 0.15843 0.68363 0.58321 0.0
C146 C 0.12106 0.67323 0.63855 0.0
C147 C 0.12385 0.66857 0.7391 0.0
C148 C 0.1102 0.77342 0.79344 0.0
C149 C 0.13637 0.77032 0.78197 0.0
H150 H 0.06114 0.77501 0.83035 0.0
C151 C 0.11186 0.69055 0.97345 0.0
C152 C 0.06286 0.64431 0.88249 0.0
C153 C 0.10144 0.61133 0.12854 0.0
C154 C 0.09274 0.60704 0.22648 0.0
C155 C 0.09275 0.56956 0.16724 0.0
C156 C 0.09858 0.58491 0.12168 0.0
C157 C 0.08995 0.58053 0.21963 0.0
C158 C 0.09846 0.62231 0.18068 0.0
C159 C 0.10649 0.62839 0.08236 0.0
H160 H 0.19258 0.69321 0.62853 0.0
H161 H 0.17321 0.68522 0.71904 0.0
H162 H 0.1677 0.68548 0.54326 0.0
H163 H 0.10145 0.66638 0.64106 0.0
H164 H 0.0905 0.54916 0.16198 0.0
H165 H 0.10083 0.57618 0.08159 0.0
H166 H 0.08557 0.56839 0.25469 0.0
H167 H 0.10102 0.64277 0.18571 0.0
C168 C 0.73523 0.8779 0.15468 0.0
C169 C 0.75939 0.91723 0.16617 0.0
C170 C 0.73567 0.90439 0.16318 0.0
C171 C 0.78227 0.90335 0.16066 0.0
C172 C 0.75825 0.86415 0.14796 0.0
C173 C 0.78173 0.87702 0.15117 0.0
N174 N 0.71227 0.86564 0.15212 0.0
C175 C 0.71087 0.8399 0.14392 0.0
C176 C 0.75702 0.83776 0.13866 0.0
C177 C 0.73321 0.8256 0.13653 0.0
Gd178 Gd 0.63518 0.90906 0.04964 0.0
Gd179 Gd 0.67735 0.89073 0.17641 0.0
N180 N 0.71315 0.91743 0.16947 0.0
C181 C 0.75947 0.94362 0.17554 0.0
C182 C 0.71322 0.94301 0.18042 0.0
C183 C 0.7363 0.95654 0.18259 0.0
H184 H 0.69586 0.95307 0.18998 0.0
H185 H 0.73622 0.97683 0.19123 0.0
H186 H 0.60552 0.85201 0.03509 0.0
H187 H 0.69263 0.83031 0.14482 0.0
H188 H 0.56176 0.83496 0.03448 0.0
H189 H 0.77731 0.95412 0.17831 0.0
H190 H 0.80056 0.91276 0.16386 0.0
H191 H 0.62895 0.97324 0.04271 0.0
H192 H 0.77434 0.82657 0.13353 0.0
H193 H 0.73207 0.80516 0.13022 0.0
H194 H 0.50832 0.90926 0.04803 0.0
H195 H 0.79959 0.86673 0.14638 0.0
H196 H 0.54911 0.99123 0.05155 0.0
H197 H 0.59437 0.00515 0.04716 0.0
N198 N 0.60372 0.9413 0.04827 0.0
C199 C 0.57891 0.93327 0.04866 0.0
C200 C 0.60935 0.96679 0.04631 0.0
C201 C 0.56424 0.97706 0.0504 0.0
C202 C 0.58976 0.98499 0.04804 0.0
C203 C 0.55851 0.95094 0.04999 0.0
H204 H 0.51719 0.95538 0.05169 0.0
N205 N 0.59397 0.89066 0.04656 0.0
C206 C 0.57386 0.90723 0.04702 0.0
C207 C 0.54405 0.87193 0.04259 0.0
C208 C 0.54836 0.89826 0.04615 0.0
C209 C 0.58982 0.86505 0.04031 0.0
C210 C 0.56488 0.8553 0.03891 0.0
O211 O 0.69458 0.88709 0.08636 0.0
O212 O 0.67615 0.92242 0.05445 0.0
O213 O 0.6452 0.89006 0.97272 0.0
O214 O 0.63046 0.92875 0.97153 0.0
O215 O 0.65591 0.92796 0.18643 0.0
O216 O 0.65237 0.94279 0.09744 0.0
O217 O 0.61041 0.90222 0.12523 0.0
O218 O 0.63441 0.88791 0.20005 0.0
O219 O 0.68866 0.90218 0.26034 0.0
O220 O 0.68425 0.8617 0.23793 0.0
O221 O 0.64773 0.8667 0.05923 0.0
O222 O 0.65077 0.85981 0.15268 0.0
C223 C 0.6943 0.90539 0.0486 0.0
C224 C 0.65054 0.94633 0.15137 0.0
C225 C 0.62223 0.90329 0.89388 0.0
C226 C 0.61874 0.9002 0.79409 0.0
C227 C 0.58241 0.88916 0.85205 0.0
C228 C 0.59675 0.89504 0.89911 0.0
C229 C 0.59339 0.89153 0.79964 0.0
C230 C 0.63309 0.90611 0.84134 0.0
C231 C 0.63785 0.90928 0.94229 0.0
C232 C 0.52803 0.9158 0.04834 0.0
C233 C 0.53309 0.94207 0.0504 0.0
H234 H 0.52475 0.8643 0.04154 0.0
C235 C 0.6122 0.89395 0.17649 0.0
C236 C 0.64691 0.85127 0.10284 0.0
C237 C 0.69831 0.87015 0.3306 0.0
C238 C 0.69426 0.87231 0.43052 0.0
C239 C 0.72117 0.83985 0.38819 0.0
C240 C 0.71479 0.84912 0.33586 0.0
C241 C 0.71089 0.8513 0.43537 0.0
C242 C 0.68838 0.88201 0.37795 0.0
C243 C 0.69004 0.87837 0.27572 0.0
H244 H 0.56279 0.8827 0.8562 0.0
H245 H 0.58793 0.89315 0.93921 0.0
H246 H 0.58211 0.88677 0.76341 0.0
H247 H 0.65282 0.91245 0.83725 0.0
H248 H 0.73393 0.82366 0.39218 0.0
H249 H 0.72257 0.83979 0.29948 0.0
H250 H 0.71578 0.84365 0.47569 0.0
H251 H 0.67508 0.89784 0.3738 0.0
C252 C 0.94018 0.43336 0.96159 0.0
C253 C 0.91087 0.46937 0.96292 0.0
C254 C 0.91541 0.44283 0.96448 0.0
C255 C 0.9314 0.48613 0.95319 0.0
C256 C 0.96105 0.45036 0.95598 0.0
C257 C 0.95643 0.4766 0.94922 0.0
N258 N 0.94401 0.40806 0.97135 0.0
C259 C 0.96815 0.3995 0.98381 0.0
C260 C 0.98594 0.44076 0.96139 0.0
C261 C 0.98946 0.41536 0.97692 0.0
Gd262 Gd 0.89453 0.33731 0.84619 0.0
Gd263 Gd 0.90625 0.38285 0.97643 0.0
N264 N 0.89605 0.42627 0.97491 0.0
C265 C 0.88605 0.47833 0.97384 0.0
C266 C 0.87221 0.43489 0.98884 0.0
C267 C 0.8667 0.461 0.98752 0.0
H268 H 0.85756 0.42152 1.00119 0.0
H269 H 0.84764 0.46776 0.99755 0.0
H270 H 0.95481 0.33323 0.79218 0.0
H271 H 0.97126 0.38022 0.99788 0.0
H272 H 0.99081 0.30302 0.79286 0.0
H273 H 0.88181 0.49859 0.97344 0.0
H274 H 0.92826 0.50656 0.95089 0.0
H275 H 0.84202 0.30319 0.86147 0.0
H276 H 1.00247 0.45315 0.95717 0.0
H277 H 0.00857 0.40805 0.98442 0.0
H278 H 0.95385 0.22559 0.86284 0.0
H279 H 0.97221 0.48986 0.9441 0.0
H280 H 0.86255 0.22478 0.88582 0.0
H281 H 0.8292 0.25828 0.87727 0.0
N282 N 0.88185 0.2951 0.86176 0.0
C283 C 0.90028 0.27698 0.8636 0.0
C284 C 0.85654 0.28866 0.86514 0.0
C285 C 0.86816 0.24444 0.87882 0.0
C286 C 0.84928 0.26326 0.87393 0.0
C287 C 0.89403 0.25117 0.87321 0.0
H288 H 0.90928 0.2131 0.88375 0.0
N289 N 0.92957 0.30877 0.83691 0.0
C290 C 0.92513 0.28416 0.85192 0.0
C291 C 0.96897 0.27287 0.831 0.0
C292 C 0.94469 0.26556 0.84981 0.0
C293 C 0.95231 0.31505 0.8123 0.0
C294 C 0.97261 0.29759 0.81086 0.0
O295 O 0.8866 0.40225 0.90216 0.0
O296 O 0.9029 0.3794 0.82925 0.0
O297 O 0.89703 0.32827 0.75791 0.0
O298 O 0.86097 0.33927 0.79436 0.0
O299 O 0.86336 0.37722 0.9581 0.0
O300 O 0.85755 0.3514 0.88053 0.0
O301 O 0.88754 0.3205 0.93457 0.0
O302 O 0.91631 0.34072 0.99092 0.0
O303 O 0.89008 0.3677 0.05303 0.0
O304 O 0.91375 0.40141 0.05471 0.0
O305 O 0.92957 0.36301 0.84362 0.0
O306 O 0.94045 0.36277 0.93455 0.0
C307 C 0.89199 0.40024 0.84897 0.0
C308 C 0.84872 0.36546 0.92109 0.0
C309 C 0.86893 0.3548 0.70449 0.0
C310 C 0.87801 0.37107 0.61101 0.0
C311 C 0.84354 0.38949 0.6664 0.0
C312 C 0.84881 0.37254 0.70931 0.0
C313 C 0.85758 0.3885 0.61736 0.0
C314 C 0.88398 0.35491 0.65635 0.0
C315 C 0.87355 0.33566 0.74872 0.0
C316 C 0.93901 0.24008 0.86348 0.0
C317 C 0.91367 0.23291 0.87509 0.0
H318 H 0.98454 0.2592 0.82877 0.0
C319 C 0.90098 0.32117 0.98141 0.0
C320 C 0.94705 0.36544 0.88218 0.0
C321 C 0.92001 0.37234 0.1253 0.0
C322 C 0.93147 0.36318 0.22074 0.0
C323 C 0.9612 0.35314 0.14635 0.0
C324 C 0.94356 0.36214 0.10794 0.0
C325 C 0.95533 0.35382 0.20244 0.0
C326 C 0.9139 0.37288 0.18183 0.0
C327 C 0.90296 0.38361 0.08384 0.0
H328 H 0.82797 0.40303 0.67059 0.0
H329 H 0.837 0.37336 0.74614 0.0
H330 H 0.8516 0.40102 0.58428 0.0
H331 H 0.9001 0.34201 0.65492 0.0
H332 H 0.9794 0.34549 0.1326 0.0
H333 H 0.94827 0.36112 0.06453 0.0
H334 H 0.9694 0.34669 0.23158 0.0
H335 H 0.89552 0.38033 0.1952 0.0
C336 C 0.27582 0.37316 0.10549 0.0
C337 C 0.25035 0.41141 0.12018 0.0
C338 C 0.27423 0.39977 0.10988 0.0
C339 C 0.22854 0.3961 0.12789 0.0
C340 C 0.25381 0.3579 0.11197 0.0
C341 C 0.23033 0.36948 0.12439 0.0
N342 N 0.29902 0.36216 0.09654 0.0
C343 C 0.3014 0.33648 0.08924 0.0
C344 C 0.25612 0.33135 0.10642 0.0
C345 C 0.27999 0.32062 0.09435 0.0
Gd346 Gd 0.37457 0.40508 0.21838 0.0
Gd347 Gd 0.33314 0.39018 0.08826 0.0
N348 N 0.29597 0.41412 0.10493 0.0
C349 C 0.24915 0.43809 0.12314 0.0
C350 C 0.2948 0.44014 0.10657 0.0
C351 C 0.27143 0.45249 0.11591 0.0
H352 H 0.31153 0.45165 0.09978 0.0
H353 H 0.2706 0.47314 0.11733 0.0
H354 H 0.40048 0.34742 0.24134 0.0
H355 H 0.31979 0.32825 0.07896 0.0
H356 H 0.44329 0.328 0.24794 0.0
H357 H 0.23113 0.44777 0.13061 0.0
H358 H 0.21021 0.40453 0.13737 0.0
H359 H 0.38477 0.46961 0.22372 0.0
H360 H 0.23955 0.31902 0.11079 0.0
H361 H 0.28192 0.30018 0.08902 0.0
H362 H 0.50111 0.39866 0.22871 0.0
H363 H 0.21351 0.35795 0.13201 0.0
H364 H 0.46535 0.48251 0.21349 0.0
H365 H 0.42105 0.49914 0.21712 0.0
N366 N 0.40774 0.43591 0.21657 0.0
C367 C 0.43205 0.42646 0.21813 0.0
C368 C 0.40378 0.46176 0.21883 0.0
C369 C 0.44939 0.46928 0.21461 0.0
C370 C 0.42442 0.47874 0.21646 0.0
C371 C 0.4535 0.44291 0.21691 0.0
H372 H 0.49501 0.44498 0.21845 0.0
N373 N 0.4146 0.38492 0.22585 0.0
C374 C 0.43559 0.40031 0.2239 0.0
C375 C 0.46321 0.36364 0.23642 0.0
C376 C 0.46049 0.39 0.22866 0.0
C377 C 0.41712 0.35937 0.23613 0.0
C378 C 0.44141 0.34831 0.24067 0.0
O379 O 0.31618 0.38233 0.17637 0.0
O380 O 0.33237 0.41622 0.22138 0.0
O381 O 0.36587 0.38649 0.29667 0.0
O382 O 0.3796 0.42548 0.29543 0.0
O383 O 0.35241 0.42858 0.08262 0.0
O384 O 0.36005 0.44083 0.17253 0.0
O385 O 0.39858 0.39004 0.1456 0.0
O386 O 0.37457 0.40064 0.06919 0.0
O387 O 0.31789 0.40255 1.00883 0.0
O388 O 0.33711 0.36561 0.01692 0.0
O389 O 0.35971 0.36362 0.20687 0.0
O390 O 0.35833 0.35739 0.11279 0.0
C391 C 0.3148 0.39834 0.21881 0.0
C392 C 0.35957 0.44576 0.11894 0.0
C393 C 0.38844 0.40154 0.37487 0.0
C394 C 0.39149 0.40058 0.47499 0.0
C395 C 0.42907 0.39182 0.41885 0.0
C396 C 0.41458 0.39554 0.37097 0.0
C397 C 0.41758 0.39421 0.47077 0.0
C398 C 0.377 0.40419 0.42682 0.0
C399 C 0.37277 0.40624 0.32587 0.0
C400 C 0.48183 0.40626 0.22582 0.0
C401 C 0.47835 0.43263 0.21979 0.0
H402 H 0.48202 0.35501 0.24008 0.0
C403 C 0.39651 0.39385 0.09184 0.0
C404 C 0.36097 0.34841 0.16293 0.0
C405 C 0.31335 0.37282 0.93464 0.0
C406 C 0.31203 0.37313 0.83449 0.0
C407 C 0.28668 0.34235 0.88586 0.0
C408 C 0.29598 0.35239 0.93569 0.0
C409 C 0.29492 0.35247 0.83525 0.0
C410 C 0.32096 0.38337 0.88418 0.0
C411 C 0.32631 0.3821 0.98402 0.0
H412 H 0.44924 0.38717 0.41571 0.0
H413 H 0.42386 0.3939 0.33137 0.0
H414 H 0.42908 0.39134 0.5076 0.0
H415 H 0.35676 0.40883 0.42975 0.0
H416 H 0.27342 0.32646 0.88642 0.0
H417 H 0.29001 0.34401 0.97453 0.0
H418 H 0.28808 0.3442 0.79686 0.0
H419 H 0.33482 0.39885 0.88343 0.0
C420 C 0.41557 0.57314 0.79653 0.0
C421 C 0.37445 0.55162 0.79427 0.0
C422 C 0.38899 0.57435 0.7955 0.0
C423 C 0.38693 0.52787 0.79686 0.0
C424 C 0.42822 0.54933 0.79765 0.0
C425 C 0.41375 0.52673 0.79852 0.0
N426 N 0.42908 0.59533 0.79638 0.0
C427 C 0.45525 0.59505 0.79548 0.0
C428 C 0.45505 0.54894 0.7979 0.0
C429 C 0.46862 0.57192 0.79647 0.0
Gd430 Gd 0.39184 0.67264 0.92919 0.0
Gd431 Gd 0.40528 0.6334 0.7974 0.0
N432 N 0.37747 0.59767 0.79269 0.0
C433 C 0.34784 0.55337 0.78849 0.0
C434 C 0.35184 0.59918 0.78125 0.0
C435 C 0.33656 0.57724 0.78076 0.0
H436 H 0.34291 0.61701 0.77048 0.0
H437 H 0.31616 0.57874 0.77314 0.0
H438 H 0.45113 0.69619 0.90099 0.0
H439 H 0.46593 0.61266 0.7933 0.0
H440 H 0.47106 0.73807 0.88587 0.0
H441 H 0.33599 0.53637 0.78738 0.0
H442 H 0.37603 0.51025 0.7964 0.0
H443 H 0.32966 0.68397 0.95311 0.0
H444 H 0.46547 0.53104 0.79874 0.0
H445 H 0.48937 0.57183 0.79596 0.0
H446 H 0.40181 0.79729 0.90508 0.0
H447 H 0.42312 0.50827 0.79978 0.0
H448 H 0.31833 0.76496 0.94832 0.0
H449 H 0.30094 0.72137 0.96101 0.0
N450 N 0.36263 0.70624 0.93478 0.0
C451 C 0.37279 0.73 0.92897 0.0
C452 C 0.33728 0.70294 0.94665 0.0
C453 C 0.33097 0.74862 0.94465 0.0
C454 C 0.32106 0.72406 0.95166 0.0
C455 C 0.35709 0.75184 0.93306 0.0
H456 H 0.35602 0.79307 0.92798 0.0
N457 N 0.41365 0.71112 0.91326 0.0
C458 C 0.39895 0.73253 0.91795 0.0
C459 C 0.43585 0.75886 0.89765 0.0
C460 C 0.40966 0.75693 0.90956 0.0
C461 C 0.43931 0.71292 0.90295 0.0
C462 C 0.45074 0.73676 0.89459 0.0
O463 O 0.40924 0.61033 0.87625 0.0
O464 O 0.38181 0.62979 0.9373 0.0
O465 O 0.41343 0.67738 1.00591 0.0
O466 O 0.37189 0.67341 1.00706 0.0
O467 O 0.36502 0.65173 0.81027 0.0
O468 O 0.35854 0.64889 0.90329 0.0
O469 O 0.38697 0.69452 0.8434 0.0
O470 O 0.41932 0.6738 0.8038 0.0
O471 O 0.38889 0.63906 0.71566 0.0
O472 O 0.42956 0.63227 0.72495 0.0
O473 O 0.4307 0.65321 0.93014 0.0
O474 O 0.44225 0.64735 0.83902 0.0
C475 C 0.39489 0.60951 0.92088 0.0
C476 C 0.34938 0.64951 0.85328 0.0
C477 C 0.39088 0.69166 0.08599 0.0
C478 C 0.3985 0.69352 0.18469 0.0
C479 C 0.36891 0.72314 0.1421 0.0
C480 C 0.37378 0.71226 0.09034 0.0
C481 C 0.3813 0.71395 0.18923 0.0
C482 C 0.40334 0.68249 0.13317 0.0
C483 C 0.39268 0.67625 0.03593 0.0
C484 C 0.39393 0.77859 0.9127 0.0
C485 C 0.36782 0.77611 0.92504 0.0
H486 H 0.44476 0.77731 0.891 0.0
C487 C 0.4031 0.69273 0.80102 0.0
C488 C 0.44799 0.64771 0.89245 0.0
C489 C 0.41063 0.61872 0.64258 0.0
C490 C 0.41658 0.61423 0.54363 0.0
C491 C 0.40775 0.57689 0.60017 0.0
C492 C 0.40675 0.59232 0.64727 0.0
C493 C 0.41257 0.58777 0.54841 0.0
C494 C 0.41553 0.62959 0.59099 0.0
C495 C 0.41069 0.63541 0.69073 0.0
H496 H 0.35463 0.73785 0.14625 0.0
H497 H 0.36336 0.7191 0.05452 0.0
H498 H 0.37678 0.72207 0.22934 0.0
H499 H 0.41571 0.66585 0.13037 0.0
H500 H 0.40482 0.55649 0.60379 0.0
H501 H 0.40305 0.58368 0.68697 0.0
H502 H 0.41336 0.57554 0.51226 0.0
H503 H 0.41826 0.65009 0.58772 0.0
C504 C 0.73646 0.63107 0.10011 0.0
C505 C 0.76089 0.59268 0.12079 0.0
C506 C 0.73738 0.6048 0.1093 0.0
C507 C 0.78324 0.60743 0.1253 0.0
C508 C 0.7592 0.64558 0.10115 0.0
C509 C 0.78238 0.63375 0.11523 0.0
N510 N 0.71367 0.64219 0.0874 0.0
C511 C 0.71281 0.66701 0.06964 0.0
C512 C 0.75813 0.67147 0.08688 0.0
C513 C 0.73489 0.68211 0.07008 0.0
Gd514 Gd 0.63245 0.6101 0.21969 0.0
Gd515 Gd 0.67809 0.6148 0.09157 0.0
N516 N 0.7153 0.59104 0.10653 0.0
C517 C 0.76125 0.56607 0.12693 0.0
C518 C 0.71561 0.565 0.10977 0.0
C519 C 0.73857 0.55214 0.12055 0.0
H520 H 0.6981 0.55427 0.10488 0.0
H521 H 0.73875 0.53153 0.12409 0.0
H522 H 0.61 0.66834 0.25874 0.0
H523 H 0.69507 0.67534 0.0552 0.0
H524 H 0.56829 0.68998 0.26671 0.0
H525 H 0.779 0.55607 0.13551 0.0
H526 H 0.80129 0.59862 0.1361 0.0
H527 H 0.61888 0.54698 0.22322 0.0
H528 H 0.77526 0.68318 0.08706 0.0
H529 H 0.73397 0.70188 0.05717 0.0
H530 H 0.5066 0.62355 0.23631 0.0
H531 H 0.79971 0.6449 0.11767 0.0
H532 H 0.53773 0.53807 0.21457 0.0
H533 H 0.58121 0.51919 0.21551 0.0
N534 N 0.59757 0.58159 0.21981 0.0
C535 C 0.57389 0.59222 0.22351 0.0
C536 C 0.6003 0.55565 0.21929 0.0
C537 C 0.55436 0.55046 0.21637 0.0
C538 C 0.57884 0.53973 0.21656 0.0
C539 C 0.55162 0.57696 0.22103 0.0
H540 H 0.51008 0.57715 0.22228 0.0
N541 N 0.59385 0.63227 0.23682 0.0
C542 C 0.57197 0.61834 0.23202 0.0
C543 C 0.54642 0.65608 0.24882 0.0
C544 C 0.54767 0.6299 0.23756 0.0
C545 C 0.59269 0.65754 0.25108 0.0
C546 C 0.56905 0.66987 0.25641 0.0
O547 O 0.6951 0.60249 0.17737 0.0
O548 O 0.67143 0.62887 0.22974 0.0
O549 O 0.62755 0.62181 0.30492 0.0
O550 O 0.64674 0.58598 0.28594 0.0
O551 O 0.65093 0.58202 0.09109 0.0
O552 O 0.65056 0.57334 0.18281 0.0
O553 O 0.60982 0.60695 0.13961 0.0
O554 O 0.63645 0.62802 0.07825 0.0
O555 O 0.68526 0.59194 0.01766 0.0
O556 O 0.67719 0.63245 0.01093 0.0
O557 O 0.63557 0.65106 0.18569 0.0
O558 O 0.67055 0.6536 0.12671 0.0
C559 C 0.69242 0.61538 0.22412 0.0
C560 C 0.64827 0.56559 0.13087 0.0
C561 C 0.62629 0.58998 0.37315 0.0
C562 C 0.623 0.58889 0.47351 0.0
C563 C 0.59593 0.56145 0.41718 0.0
C564 C 0.60697 0.57147 0.36916 0.0
C565 C 0.60391 0.57005 0.46921 0.0
C566 C 0.63422 0.59857 0.42513 0.0
C567 C 0.63838 0.60134 0.3245 0.0
C568 C 0.52542 0.61494 0.23275 0.0
C569 C 0.5274 0.58852 0.2247 0.0
H570 H 0.52812 0.66567 0.25317 0.0
C571 C 0.6135 0.61954 0.09306 0.0
C572 C 0.65158 0.66408 0.15396 0.0
C573 C 0.69835 0.61361 0.93592 0.0
C574 C 0.7003 0.6178 0.83602 0.0
C575 C 0.73841 0.62501 0.89161 0.0
C576 C 0.72441 0.6199 0.93977 0.0
C577 C 0.72635 0.62425 0.83987 0.0
C578 C 0.68648 0.61221 0.88407 0.0
C579 C 0.68206 0.61135 0.98469 0.0
H580 H 0.58105 0.54711 0.41406 0.0
H581 H 0.60041 0.5648 0.32937 0.0
H582 H 0.59489 0.56229 0.50593 0.0
H583 H 0.64935 0.61275 0.42781 0.0
H584 H 0.75848 0.63009 0.89446 0.0
H585 H 0.73369 0.62137 0.97972 0.0
H586 H 0.73724 0.62882 0.80295 0.0
H587 H 0.66613 0.60798 0.88126 0.0
C588 C 0.604 0.44373 0.80983 0.0
C589 C 0.64472 0.46066 0.77878 0.0
C590 C 0.62875 0.43967 0.79117 0.0
C591 C 0.63549 0.48565 0.78633 0.0
C592 C 0.59439 0.46875 0.81618 0.0
C593 C 0.61036 0.48968 0.80484 0.0
N594 N 0.58917 0.42314 0.82138 0.0
C595 C 0.56396 0.42612 0.83518 0.0
C596 C 0.56894 0.47195 0.83335 0.0
C597 C 0.55359 0.45051 0.84237 0.0
Gd598 Gd 0.61538 0.33678 0.93146 0.0
Gd599 Gd 0.6072 0.38276 0.80575 0.0
N600 N 0.63679 0.41526 0.78277 0.0
C601 C 0.66924 0.45595 0.75771 0.0
C602 C 0.66006 0.41071 0.75856 0.0
C603 C 0.67682 0.43087 0.74698 0.0
H604 H 0.66577 0.39163 0.74699 0.0
H605 H 0.6954 0.42707 0.72881 0.0
H606 H 0.55424 0.3173 0.9297 0.0
H607 H 0.55174 0.40973 0.84016 0.0
H608 H 0.5305 0.27696 0.91568 0.0
H609 H 0.68213 0.47154 0.74796 0.0
H610 H 0.64752 0.502 0.77721 0.0
H611 H 0.67851 0.32128 0.93075 0.0
H612 H 0.56086 0.49085 0.8388 0.0
H613 H 0.5337 0.45275 0.85423 0.0
H614 H 0.59644 0.21451 0.8854 0.0
H615 H 0.60342 0.50905 0.80993 0.0
H616 H 0.68383 0.24157 0.89557 0.0
H617 H 0.70459 0.28276 0.91649 0.0
N618 N 0.64304 0.30255 0.91408 0.0
C619 C 0.63105 0.27973 0.90575 0.0
C620 C 0.66911 0.30378 0.91889 0.0
C621 C 0.67218 0.25855 0.90056 0.0
C622 C 0.68402 0.28186 0.91177 0.0
C623 C 0.64541 0.25719 0.89823 0.0
H624 H 0.64361 0.21656 0.885 0.0
N625 N 0.59069 0.30047 0.91537 0.0
C626 C 0.60427 0.27856 0.90719 0.0
C627 C 0.56468 0.25463 0.9023 0.0
C628 C 0.59152 0.25505 0.89992 0.0
C629 C 0.56464 0.30007 0.92011 0.0
C630 C 0.55121 0.27721 0.91276 0.0
O631 O 0.60707 0.4036 0.88898 0.0
O632 O 0.63055 0.3773 0.94639 0.0
O633 O 0.59726 0.3401 0.01279 0.0
O634 O 0.6315 0.31762 1.00307 0.0
O635 O 0.64755 0.36566 0.81621 0.0
O636 O 0.65178 0.3572 0.90947 0.0
O637 O 0.60099 0.32146 0.84469 0.0
O638 O 0.62375 0.34396 0.7816 0.0
O639 O 0.6071 0.39284 0.7182 0.0
O640 O 0.57372 0.37543 0.75622 0.0
O641 O 0.58026 0.36095 0.93834 0.0
O642 O 0.57114 0.36523 0.8466 0.0
C643 C 0.62069 0.39992 0.93423 0.0
C644 C 0.66166 0.36314 0.86132 0.0
C645 C 0.62931 0.34408 0.08168 0.0
C646 C 0.62894 0.36587 0.17122 0.0
C647 C 0.66589 0.36969 0.11082 0.0
C648 C 0.65403 0.35397 0.07191 0.0
C649 C 0.65336 0.37581 0.15997 0.0
C650 C 0.61692 0.34982 0.13205 0.0
C651 C 0.61636 0.32902 0.0379 0.0
C652 C 0.60588 0.23276 0.89106 0.0
C653 C 0.6327 0.23388 0.89047 0.0
H654 H 0.55421 0.23693 0.89685 0.0
C655 C 0.61242 0.32249 0.79526 0.0
C656 C 0.56402 0.36644 0.89916 0.0
C657 C 0.5815 0.36567 0.66255 0.0
C658 C 0.58336 0.35897 0.56282 0.0
C659 C 0.56558 0.32612 0.62312 0.0
C660 C 0.57063 0.34127 0.66911 0.0
C661 C 0.57135 0.33507 0.57034 0.0
C662 C 0.58818 0.37429 0.60943 0.0
C663 C 0.58454 0.38279 0.7103 0.0
H664 H 0.68478 0.37737 0.1026 0.0
H665 H 0.66401 0.35013 0.03344 0.0
H666 H 0.663 0.38786 0.18993 0.0
H667 H 0.59804 0.34209 0.14052 0.0
H668 H 0.55688 0.30751 0.62834 0.0
H669 H 0.56552 0.33403 0.70962 0.0
H670 H 0.56642 0.32309 0.53538 0.0
H671 H 0.59715 0.39284 0.60462 0.0
C672 C 0.77878 0.6336 0.65336 0.0
C673 C 0.7542 0.5944 0.66126 0.0
C674 C 0.77805 0.60712 0.66056 0.0
C675 C 0.73153 0.60837 0.65336 0.0
C676 C 0.75597 0.64755 0.6452 0.0
C677 C 0.73241 0.63476 0.6449 0.0
N678 N 0.8018 0.64573 0.65419 0.0
C679 C 0.80339 0.6716 0.6481 0.0
C680 C 0.75746 0.67405 0.63805 0.0
C681 C 0.7813 0.68613 0.63954 0.0
Gd682 Gd 0.87911 0.60446 0.54942 0.0
Gd683 Gd 0.83693 0.62 0.67535 0.0
N684 N 0.80037 0.594 0.66864 0.0
C685 C 0.75374 0.56808 0.67111 0.0
C686 C 0.79977 0.56857 0.68128 0.0
C687 C 0.77661 0.55517 0.68148 0.0
H688 H 0.8167 0.55851 0.69386 0.0
H689 H 0.77636 0.53498 0.69119 0.0
H690 H 0.90948 0.66285 0.55125 0.0
H691 H 0.82154 0.68113 0.65164 0.0
H692 H 0.9523 0.67934 0.57031 0.0
H693 H 0.73579 0.55768 0.6723 0.0
H694 H 0.71314 0.59901 0.654 0.0
H695 H 0.88681 0.54253 0.51948 0.0
H696 H 0.74031 0.68539 0.63195 0.0
H697 H 0.78264 0.70665 0.63497 0.0
H698 H 1.005 0.60456 0.5806 0.0
H699 H 0.71475 0.64517 0.63831 0.0
H700 H 0.96571 0.52339 0.54594 0.0
H701 H 0.92135 0.51011 0.52361 0.0
N702 N 0.91102 0.57309 0.5434 0.0
C703 C 0.93544 0.58104 0.55318 0.0
C704 C 0.90593 0.54813 0.53143 0.0
C705 C 0.95055 0.53754 0.54506 0.0
C706 C 0.92553 0.52994 0.53263 0.0
C707 C 0.95584 0.56338 0.55477 0.0
H708 H 0.99672 0.55873 0.56725 0.0
N709 N 0.91997 0.62365 0.5588 0.0
C710 C 0.94009 0.60702 0.56069 0.0
C711 C 0.96954 0.64206 0.57518 0.0
C712 C 0.96531 0.61578 0.56999 0.0
C713 C 0.92443 0.64937 0.55935 0.0
C714 C 0.94907 0.65892 0.56874 0.0
O715 O 0.82079 0.6256 0.58582 0.0
O716 O 0.83749 0.59147 0.54229 0.0
O717 O 0.86807 0.62415 0.47384 0.0
O718 O 0.89256 0.59082 0.47022 0.0
O719 O 0.85598 0.58098 0.67862 0.0
O720 O 0.86067 0.56878 0.58767 0.0
O721 O 0.89983 0.60088 0.63185 0.0
O722 O 0.87954 0.62919 0.68909 0.0
O723 O 0.83437 0.60625 0.7603 0.0
O724 O 0.8244 0.64521 0.74102 0.0
O725 O 0.86735 0.6469 0.5612 0.0
O726 O 0.86233 0.65258 0.65466 0.0
C727 C 0.81921 0.60867 0.54514 0.0
C728 C 0.86012 0.56316 0.64119 0.0
C729 C 0.8624 0.5955 0.4001 0.0
C730 C 0.84784 0.59487 0.30508 0.0
C731 C 0.83424 0.56164 0.36842 0.0
C732 C 0.84829 0.57317 0.41077 0.0
C733 C 0.83418 0.57229 0.31546 0.0
C734 C 0.86186 0.60646 0.34759 0.0
C735 C 0.8787 0.60687 0.44248 0.0
C736 C 0.98555 0.59815 0.57308 0.0
C737 C 0.98084 0.57205 0.56546 0.0
H738 H 0.98861 0.64954 0.58243 0.0
C739 C 0.89994 0.61585 0.67526 0.0
C740 C 0.86614 0.66193 0.60534 0.0
C741 C 0.84829 0.63836 0.82123 0.0
C742 C 0.86236 0.64163 0.91636 0.0
C743 C 0.88685 0.66231 0.84418 0.0
C744 C 0.86912 0.65381 0.80519 0.0
C745 C 0.88345 0.65634 0.89978 0.0
C746 C 0.84503 0.63218 0.87707 0.0
C747 C 0.82997 0.62903 0.77979 0.0
H748 H 0.82359 0.5443 0.37653 0.0
H749 H 0.84854 0.56442 0.45137 0.0
H750 H 0.82333 0.56311 0.28279 0.0
H751 H 0.87291 0.62362 0.3394 0.0
H752 H 0.90282 0.6741 0.83145 0.0
H753 H 0.87151 0.65984 0.76283 0.0
H754 H 0.89686 0.66373 0.9301 0.0
H755 H 0.82867 0.62088 0.89012 0.0
C756 C 0.58146 0.07652 0.46569 0.0
C757 C 0.61663 0.04643 0.45515 0.0
C758 C 0.60773 0.07176 0.4613 0.0
C759 C 0.59897 0.02629 0.45094 0.0
C760 C 0.56379 0.05613 0.4637 0.0
C761 C 0.57265 0.03112 0.45523 0.0
N762 N 0.57324 0.10094 0.47368 0.0
C763 C 0.54789 0.10601 0.48318 0.0
C764 C 0.5377 0.06138 0.47115 0.0
C765 C 0.52977 0.08637 0.4817 0.0
Gd766 Gd 0.62355 0.17467 0.3467 0.0
Gd767 Gd 0.60526 0.13242 0.46962 0.0
N768 N 0.62456 0.09166 0.46485 0.0
C769 C 0.64305 0.04194 0.4549 0.0
C770 C 0.65019 0.08692 0.47039 0.0
C771 C 0.65986 0.0622 0.46391 0.0
H772 H 0.66347 0.10169 0.48147 0.0
H773 H 0.68028 0.05875 0.46688 0.0
H774 H 0.5655 0.2008 0.38882 0.0
H775 H 0.54152 0.12522 0.49186 0.0
H776 H 0.54192 0.23897 0.35755 0.0
H777 H 0.65062 0.02278 0.45024 0.0
H778 H 0.60551 0.0068 0.44558 0.0
H779 H 0.68725 0.18865 0.35711 0.0
H780 H 0.52357 0.04622 0.4699 0.0
H781 H 0.50969 0.09054 0.48854 0.0
H782 H 0.60636 0.28791 0.26034 0.0
H783 H 0.55932 0.01528 0.45301 0.0
H784 H 0.6941 0.2637 0.28904 0.0
H785 H 0.71437 0.22478 0.32662 0.0
N786 N 0.65233 0.20887 0.3457 0.0
C787 C 0.64095 0.23102 0.32988 0.0
C788 C 0.67842 0.20659 0.34662 0.0
C789 C 0.68222 0.24874 0.30641 0.0
C790 C 0.69376 0.22675 0.32784 0.0
C791 C 0.65546 0.25085 0.30639 0.0
H792 H 0.65341 0.28586 0.25888 0.0
N793 N 0.60103 0.21304 0.35503 0.0
C794 C 0.6144 0.2328 0.33296 0.0
C795 C 0.57509 0.25612 0.31929 0.0
C796 C 0.60168 0.25429 0.31171 0.0
C797 C 0.57568 0.21561 0.36727 0.0
C798 C 0.56228 0.2373 0.34969 0.0
O799 O 0.60245 0.11312 0.38647 0.0
O800 O 0.63346 0.13188 0.33423 0.0
O801 O 0.6057 0.17134 0.26512 0.0
O802 O 0.64404 0.18624 0.2734 0.0
O803 O 0.64867 0.14239 0.46151 0.0
O804 O 0.6568 0.15104 0.36973 0.0
O805 O 0.62545 0.19472 0.43431 0.0
O806 O 0.59201 0.17372 0.47232 0.0
O807 O 0.61915 0.14768 0.54805 0.0
O808 O 0.59274 0.11586 0.54672 0.0
O809 O 0.58317 0.1596 0.34033 0.0
O810 O 0.56879 0.14764 0.42693 0.0
C811 C 0.61875 0.11204 0.34543 0.0
C812 C 0.66467 0.1452 0.41915 0.0
C813 C 0.63667 0.16061 0.19743 0.0
C814 C 0.64223 0.14982 0.10087 0.0
C815 C 0.66801 0.12863 0.17026 0.0
C816 C 0.65589 0.14285 0.2113 0.0
C817 C 0.66124 0.13207 0.11505 0.0
C818 C 0.62963 0.16384 0.14207 0.0
C819 C 0.62669 0.17803 0.23962 0.0
C820 C 0.61586 0.27261 0.28219 0.0
C821 C 0.64271 0.27119 0.28052 0.0
H822 H 0.56434 0.27211 0.30296 0.0
C823 C 0.60826 0.19297 0.4749 0.0
C824 C 0.56473 0.15208 0.37354 0.0
C825 C 0.58935 0.14398 0.62098 0.0
C826 C 0.58657 0.15729 0.7167 0.0
C827 C 0.54889 0.15919 0.65792 0.0
C828 C 0.56321 0.1495 0.61387 0.0
C829 C 0.56046 0.16298 0.70936 0.0
C830 C 0.60093 0.14797 0.67215 0.0
C831 C 0.60458 0.13249 0.57694 0.0
H832 H 0.68321 0.1155 0.18122 0.0
H833 H 0.66241 0.14076 0.25352 0.0
H834 H 0.6712 0.12133 0.08327 0.0
H835 H 0.61549 0.17813 0.13082 0.0
H836 H 0.52879 0.1636 0.6523 0.0
H837 H 0.55396 0.14653 0.57432 0.0
H838 H 0.54907 0.17033 0.74331 0.0
H839 H 0.62095 0.14292 0.67774 0.0
C840 C 0.23742 0.37988 0.66029 0.0
C841 C 0.25976 0.41778 0.62802 0.0
C842 C 0.23713 0.40587 0.64671 0.0
C843 C 0.28244 0.40355 0.62374 0.0
C844 C 0.26029 0.36565 0.65636 0.0
C845 C 0.28283 0.37771 0.63859 0.0
N846 N 0.21507 0.36819 0.67422 0.0
C847 C 0.21409 0.34269 0.68537 0.0
C848 C 0.25964 0.3395 0.66873 0.0
C849 C 0.23641 0.32796 0.6831 0.0
Gd850 Gd 0.13322 0.39894 0.55495 0.0
Gd851 Gd 0.17975 0.39492 0.68136 0.0
N852 N 0.21457 0.41905 0.64876 0.0
C853 C 0.25886 0.44355 0.61284 0.0
C854 C 0.21359 0.44419 0.6337 0.0
C855 C 0.23569 0.45678 0.61572 0.0
H856 H 0.19599 0.45485 0.63477 0.0
H857 H 0.2348 0.47668 0.60375 0.0
H858 H 0.10152 0.34356 0.56708 0.0
H859 H 0.19616 0.33382 0.69684 0.0
H860 H 0.05661 0.3287 0.57148 0.0
H861 H 0.27589 0.45333 0.59837 0.0
H862 H 0.29975 0.41235 0.60823 0.0
H863 H 0.13087 0.45882 0.5051 0.0
H864 H 0.27688 0.32799 0.6665 0.0
H865 H 0.23569 0.30774 0.69233 0.0
H866 H 1.00693 0.40505 0.54555 0.0
H867 H 0.30053 0.36708 0.63492 0.0
H868 H 0.05209 0.48205 0.50099 0.0
H869 H 0.09797 0.49172 0.48554 0.0
N870 N 0.10379 0.43139 0.53336 0.0
C871 C 0.07863 0.42516 0.53889 0.0
C872 C 0.11083 0.45452 0.5119 0.0
C873 C 0.06641 0.46764 0.50993 0.0
C874 C 0.09229 0.47314 0.50086 0.0
C875 C 0.05924 0.44321 0.52777 0.0
H876 H 0.01821 0.44962 0.52428 0.0
N877 N 0.09141 0.38261 0.55632 0.0
C878 C 0.07223 0.3999 0.5497 0.0
C879 C 0.04076 0.36635 0.55988 0.0
C880 C 0.04635 0.39224 0.55145 0.0
C881 C 0.08614 0.35722 0.56295 0.0
C882 C 0.06075 0.34877 0.56543 0.0
O883 O 0.19378 0.38158 0.59427 0.0
O884 O 0.17444 0.41301 0.54836 0.0
O885 O 0.12566 0.37561 0.48208 0.0
O886 O 0.14571 0.41151 0.47382 0.0
O887 O 0.16175 0.43356 0.67813 0.0
O888 O 0.13392 0.43669 0.60334 0.0
O889 O 0.10934 0.39279 0.63238 0.0
O890 O 0.13727 0.39401 0.70704 0.0
O891 O 0.19247 0.41592 0.75376 0.0
O892 O 0.18505 0.375 0.75959 0.0
O893 O 0.14776 0.35836 0.57932 0.0
O894 O 0.15441 0.36142 0.67296 0.0
C895 C 0.19306 0.39628 0.54989 0.0
C896 C 0.1449 0.44609 0.64843 0.0
C897 C 0.12116 0.39824 0.39766 0.0
C898 C 0.12 0.40054 0.29719 0.0
C899 C 0.08466 0.41743 0.35106 0.0
C900 C 0.09693 0.40981 0.39964 0.0
C901 C 0.0962 0.41298 0.2999 0.0
C902 C 0.13253 0.39343 0.34628 0.0
C903 C 0.13558 0.39217 0.44814 0.0
C904 C 0.02695 0.41052 0.54379 0.0
C905 C 0.03338 0.43594 0.53196 0.0
H906 H 0.0211 0.3597 0.5615 0.0
C907 C 0.1138 0.39276 0.68594 0.0
C908 C 0.14918 0.34781 0.62923 0.0
C909 C 0.20504 0.39496 0.83715 0.0
C910 C 0.20389 0.39177 0.93723 0.0
C911 C 0.24461 0.39553 0.88936 0.0
C912 C 0.23185 0.39631 0.83843 0.0
C913 C 0.23075 0.39299 0.93867 0.0
C914 C 0.19113 0.39285 0.88649 0.0
C915 C 0.19059 0.39599 0.78567 0.0
H916 H 0.06609 0.42661 0.35307 0.0
H917 H 0.08741 0.41297 0.43827 0.0
H918 H 0.08626 0.41861 0.26246 0.0
H919 H 0.15122 0.38436 0.34446 0.0
H920 H 0.26527 0.39689 0.89063 0.0
H921 H 0.24276 0.39801 0.80043 0.0
H922 H 0.24089 0.39196 0.97777 0.0
H923 H 0.17034 0.39173 0.88539 0.0
C924 C 0.42687 0.93498 0.46957 0.0
C925 C 0.39072 0.96341 0.48343 0.0
C926 C 0.40086 0.93853 0.47832 0.0
C927 C 0.40698 0.98461 0.47738 0.0
C928 C 0.44347 0.9562 0.46633 0.0
C929 C 0.4333 0.98101 0.46893 0.0
N930 N 0.43613 0.91073 0.46799 0.0
C931 C 0.46198 0.90648 0.4689 0.0
C932 C 0.46988 0.95184 0.46261 0.0
C933 C 0.47919 0.92687 0.46501 0.0
Gd934 Gd 0.39605 0.83178 0.34135 0.0
Gd935 Gd 0.40537 0.87776 0.46845 0.0
N936 N 0.38571 0.91763 0.48457 0.0
C937 C 0.36467 0.96623 0.49577 0.0
C938 C 0.36067 0.92032 0.50018 0.0
C939 C 0.34967 0.94458 0.50502 0.0
H940 H 0.34904 0.90375 0.50913 0.0
H941 H 0.32968 0.94654 0.51625 0.0
H942 H 0.45713 0.81185 0.34903 0.0
H943 H 0.46961 0.88743 0.47301 0.0
H944 H 0.48042 0.77153 0.36708 0.0
H945 H 0.35614 0.98502 0.49981 0.0
H946 H 0.39948 1.00386 0.48048 0.0
H947 H 0.33546 0.81482 0.30898 0.0
H948 H 0.48327 0.96762 0.46005 0.0
H949 H 0.49963 0.92332 0.46441 0.0
H950 H 0.41341 0.70904 0.38545 0.0
H951 H 0.44572 0.99754 0.46584 0.0
H952 H 0.32795 0.73462 0.33916 0.0
H953 H 0.30874 0.77586 0.3115 0.0
N954 N 0.36884 0.79615 0.33923 0.0
C955 C 0.38025 0.77338 0.35032 0.0
C956 C 0.34376 0.79707 0.32315 0.0
C957 C 0.33965 0.75172 0.33893 0.0
C958 C 0.3287 0.77499 0.32354 0.0
C959 C 0.3658 0.75062 0.35173 0.0
H960 H 0.36708 0.70987 0.36751 0.0
N961 N 0.42036 0.79464 0.35344 0.0
C962 C 0.40672 0.77257 0.35735 0.0
C963 C 0.44592 0.74896 0.37238 0.0
C964 C 0.41913 0.74918 0.36803 0.0
C965 C 0.44652 0.7944 0.35478 0.0
C966 C 0.45969 0.7716 0.36482 0.0
O967 O 0.40625 0.90026 0.38801 0.0
O968 O 0.38421 0.87373 0.32782 0.0
O969 O 0.41541 0.82174 0.2637 0.0
O970 O 0.37613 0.83562 0.26395 0.0
O971 O 0.36413 0.87591 0.43581 0.0
O972 O 0.35835 0.83887 0.38462 0.0
O973 O 0.41033 0.81537 0.4258 0.0
O974 O 0.38675 0.83907 0.48425 0.0
O975 O 0.39151 0.88094 0.55224 0.0
O976 O 0.42998 0.86662 0.53707 0.0
O977 O 0.43037 0.85729 0.33626 0.0
O978 O 0.44093 0.85914 0.42744 0.0
C979 C 0.39331 0.8965 0.34184 0.0
C980 C 0.34933 0.85927 0.40969 0.0
C981 C 0.38939 0.81407 0.18334 0.0
C982 C 0.39182 0.81399 0.08284 0.0
C983 C 0.35893 0.78943 0.12948 0.0
C984 C 0.3685 0.79723 0.18072 0.0
C985 C 0.37055 0.79765 0.0807 0.0
C986 C 0.40135 0.82196 0.1343 0.0
C987 C 0.39545 0.82801 0.23423 0.0
C988 C 0.40445 0.72689 0.37408 0.0
C989 C 0.37795 0.72747 0.36488 0.0
H990 H 0.45616 0.73139 0.38084 0.0
C991 C 0.39904 0.81774 0.47471 0.0
C992 C 0.4474 0.86134 0.37463 0.0
C993 C 0.42164 0.88741 0.62222 0.0
C994 C 0.42789 0.88898 0.72146 0.0
C995 C 0.43442 0.92705 0.66627 0.0
C996 C 0.42805 0.91338 0.61855 0.0
C997 C 0.43432 0.91491 0.71773 0.0
C998 C 0.42155 0.87525 0.67374 0.0
C999 C 0.41289 0.87307 0.57403 0.0
H1000 H 0.34185 0.77777 0.12742 0.0
H1001 H 0.35874 0.7912 0.21785 0.0
H1002 H 0.36262 0.79168 0.04134 0.0
H1003 H 0.41688 0.83575 0.13597 0.0
H1004 H 0.43922 0.94712 0.66341 0.0
H1005 H 0.42777 0.92314 0.57927 0.0
H1006 H 0.43911 0.9257 0.75459 0.0
H1007 H 0.41621 0.85526 0.67685 0.0
C1008 C 0.77818 0.87798 0.58947 0.0
C1009 C 0.75183 0.91541 0.6066 0.0
C1010 C 0.77609 0.9041 0.59936 0.0
C1011 C 0.72985 0.90002 0.60612 0.0
C1012 C 0.75591 0.86285 0.58484 0.0
C1013 C 0.73182 0.87391 0.59429 0.0
N1014 N 0.80174 0.86774 0.58041 0.0
C1015 C 0.80418 0.84311 0.56213 0.0
C1016 C 0.75843 0.8372 0.56933 0.0
C1017 C 0.78266 0.8274 0.55716 0.0
Gd1018 Gd 0.87992 0.90403 0.71954 0.0
Gd1019 Gd 0.83619 0.89625 0.59014 0.0
N1020 N 0.7977 0.91861 0.60002 0.0
C1021 C 0.75031 0.94197 0.61294 0.0
C1022 C 0.79631 0.94464 0.60309 0.0
C1023 C 0.77263 0.95667 0.61034 0.0
H1024 H 0.81349 0.95604 0.60089 0.0
H1025 H 0.7716 0.97726 0.61396 0.0
H1026 H 0.90053 0.84558 0.76366 0.0
H1027 H 0.82278 0.83551 0.55144 0.0
H1028 H 0.9413 0.82188 0.76777 0.0
H1029 H 0.73196 0.95134 0.6185 0.0
H1030 H 0.71124 0.90829 0.61395 0.0
H1031 H 0.89633 0.96606 0.72002 0.0
H1032 H 0.74174 0.82502 0.56513 0.0
H1033 H 0.78477 0.8078 0.54359 0.0
H1034 H 1.00519 0.88441 0.72265 0.0
H1035 H 0.71459 0.86251 0.59144 0.0
H1036 H 0.97763 0.97127 0.70236 0.0
H1037 H 0.93513 0.99217 0.70776 0.0
N1038 N 0.91613 0.93068 0.71704 0.0
C1039 C 0.93933 0.91896 0.71787 0.0
C1040 C 0.91452 0.95667 0.71539 0.0
C1041 C 0.96053 0.95969 0.70678 0.0
C1042 C 0.93659 0.97156 0.70959 0.0
C1043 C 0.96217 0.9331 0.71184 0.0
H1044 H 1.0036 0.93084 0.70711 0.0
N1045 N 0.91778 0.88018 0.73546 0.0
C1046 C 0.94016 0.89286 0.72677 0.0
C1047 C 0.96423 0.85414 0.7431 0.0
C1048 C 0.96397 0.88015 0.72981 0.0
C1049 C 0.91813 0.85527 0.75267 0.0
C1050 C 0.94124 0.84178 0.75561 0.0
O1051 O 0.81815 0.90975 0.67382 0.0
O1052 O 0.84085 0.88567 0.73353 0.0
O1053 O 0.8864 0.89463 0.80548 0.0
O1054 O 0.86522 0.92903 0.78383 0.0
O1055 O 0.86019 0.93154 0.58929 0.0
O1056 O 0.86222 0.94092 0.68129 0.0
O1057 O 0.90055 0.91102 0.63877 0.0
O1058 O 0.87853 0.8836 0.582 0.0
O1059 O 0.82914 0.91783 0.51484 0.0
O1060 O 0.84109 0.8782 0.51023 0.0
O1061 O 0.87772 0.86298 0.68544 0.0
O1062 O 0.84074 0.85882 0.63391 0.0
C1063 C 0.81968 0.8982 0.72266 0.0
C1064 C 0.86294 0.9483 0.62868 0.0
C1065 C 0.88587 0.9275 0.87134 0.0
C1066 C 0.89021 0.92856 0.97143 0.0
C1067 C 0.91311 0.95927 0.9144 0.0
C1068 C 0.90271 0.94824 0.8667 0.0
C1069 C 0.9069 0.94953 0.96663 0.0
C1070 C 0.87964 0.91786 0.92344 0.0
C1071 C 0.87454 0.91485 0.82343 0.0
C1072 C 0.98675 0.89391 0.72112 0.0
C1073 C 0.98585 0.92035 0.7123 0.0
H1074 H 0.98212 0.84367 0.74565 0.0
C1075 C 0.89985 0.89574 0.59577 0.0
C1076 C 0.86081 0.84898 0.65828 0.0
C1077 C 0.8189 0.89472 0.43365 0.0
C1078 C 0.81719 0.89101 0.33371 0.0
C1079 C 0.77916 0.88283 0.38861 0.0
C1080 C 0.79293 0.88803 0.43697 0.0
C1081 C 0.79129 0.88399 0.33706 0.0
C1082 C 0.83086 0.89654 0.382 0.0
C1083 C 0.83463 0.89859 0.48284 0.0
H1084 H 0.92608 0.97532 0.91089 0.0
H1085 H 0.90776 0.9559 0.82668 0.0
H1086 H 0.91536 0.95816 1.00307 0.0
H1087 H 0.86624 0.90205 0.92651 0.0
H1088 H 0.75912 0.87778 0.39113 0.0
H1089 H 0.78339 0.88667 0.47655 0.0
H1090 H 0.78052 0.87955 0.2999 0.0
H1091 H 0.85103 0.90153 0.37944 0.0
C1092 C 0.94479 0.07889 0.30017 0.0
C1093 C 0.9167 0.04206 0.2999 0.0
C1094 C 0.92046 0.06873 0.30018 0.0
C1095 C 0.93805 0.02578 0.30292 0.0
C1096 C 0.96634 0.06267 0.2986 0.0
C1097 C 0.96287 0.03608 0.30219 0.0
N1098 N 0.9472 0.10458 0.29514 0.0
C1099 C 0.97037 0.115 0.28106 0.0
C1100 C 0.99052 0.0736 0.29025 0.0
C1101 C 0.99246 0.09982 0.28006 0.0
Gd1102 Gd 0.89271 0.1764 0.42497 0.0
Gd1103 Gd 0.90916 0.12897 0.30428 0.0
N1104 N 0.90053 0.08503 0.29504 0.0
C1105 C 0.89171 0.03261 0.29431 0.0
C1106 C 0.87624 0.07593 0.28693 0.0
C1107 C 0.87141 0.04967 0.287 0.0
H1108 H 0.86052 0.08897 0.28082 0.0
H1109 H 0.85207 0.04263 0.2814 0.0
H1110 H 0.95083 0.19069 0.36066 0.0
H1111 H 0.97189 0.13533 0.27353 0.0
H1112 H 0.98359 0.22405 0.37042 0.0
H1113 H 0.88798 0.01225 0.29399 0.0
H1114 H 0.93558 0.00523 0.30355 0.0
H1115 H 0.83705 0.20404 0.45201 0.0
H1116 H 0.00761 0.06184 0.28897 0.0
H1117 H 0.01095 0.10832 0.27149 0.0
H1118 H 0.94445 0.28585 0.49044 0.0
H1119 H 0.97921 0.02329 0.30198 0.0
H1120 H 0.85344 0.27784 0.51986 0.0
H1121 H 0.82196 0.24419 0.49524 0.0
N1122 N 0.87588 0.21597 0.44843 0.0
C1123 C 0.89313 0.23457 0.45861 0.0
C1124 C 0.8505 0.21928 0.45982 0.0
C1125 C 0.85987 0.26064 0.49911 0.0
C1126 C 0.84203 0.24177 0.48513 0.0
C1127 C 0.88579 0.25716 0.48561 0.0
H1128 H 0.89953 0.29178 0.523 0.0
N1129 N 0.92409 0.20879 0.41496 0.0
C1130 C 0.91813 0.23083 0.44156 0.0
C1131 C 0.9606 0.2473 0.42479 0.0
C1132 C 0.93648 0.25015 0.44934 0.0
C1133 C 0.94669 0.20698 0.3864 0.0
C1134 C 0.96539 0.226 0.39154 0.0
O1135 O 0.88739 0.11023 0.37486 0.0
O1136 O 0.90186 0.13471 0.4464 0.0
O1137 O 0.89386 0.18592 0.51271 0.0
O1138 O 0.86267 0.16192 0.47888 0.0
O1139 O 0.86653 0.13125 0.32939 0.0
O1140 O 0.859 0.1703 0.3695 0.0
O1141 O 0.88378 0.19375 0.33953 0.0
O1142 O 0.91633 0.17233 0.29961 0.0
O1143 O 0.8895 0.12176 0.22645 0.0
O1144 O 0.92188 0.14705 0.22797 0.0
O1145 O 0.93298 0.16167 0.43293 0.0
O1146 O 0.94363 0.13214 0.36479 0.0
C1147 C 0.89198 0.11318 0.42787 0.0
C1148 C 0.85068 0.14863 0.3497 0.0
C1149 C 0.86184 0.17076 0.57766 0.0
C1150 C 0.86633 0.16545 0.67743 0.0
C1151 C 0.82402 0.16893 0.6357 0.0
C1152 C 0.83511 0.17105 0.58345 0.0
C1153 C 0.83946 0.16605 0.68239 0.0
C1154 C 0.87752 0.16828 0.62482 0.0
C1155 C 0.87306 0.17281 0.52224 0.0
C1156 C 0.92998 0.27173 0.48073 0.0
C1157 C 0.90461 0.27518 0.49895 0.0
H1158 H 0.97522 0.26184 0.42945 0.0
C1159 C 0.89869 0.1904 0.29608 0.0
C1160 C 0.94935 0.14584 0.40941 0.0
C1161 C 0.91631 0.12209 0.14828 0.0
C1162 C 0.92404 0.12132 0.0491 0.0
C1163 C 0.93758 0.08569 0.10623 0.0
C1164 C 0.92795 0.09801 0.153 0.0
C1165 C 0.93545 0.09717 0.05435 0.0
C1166 C 0.91464 0.13388 0.09627 0.0
C1167 C 0.90562 0.13485 0.19714 0.0
H1168 H 0.80337 0.16937 0.63999 0.0
H1169 H 0.82283 0.17311 0.54755 0.0
H1170 H 0.83039 0.16428 0.72256 0.0
H1171 H 0.89821 0.16766 0.6204 0.0
H1172 H 0.94638 0.06705 0.1101 0.0
H1173 H 0.92932 0.0886 0.19256 0.0
H1174 H 0.94251 0.08714 0.01816 0.0
H1175 H 0.90542 0.15237 0.09226 0.0
C1176 C 0.23964 0.12994 0.62795 0.0
C1177 C 0.26299 0.09 0.63684 0.0
C1178 C 0.23984 0.10324 0.6272 0.0
C1179 C 0.28565 0.10373 0.64711 0.0
C1180 C 0.26234 0.14371 0.63874 0.0
C1181 C 0.28533 0.13046 0.64789 0.0
N1182 N 0.21699 0.1424 0.62078 0.0
C1183 C 0.21569 0.16841 0.62298 0.0
C1184 C 0.26118 0.17043 0.64088 0.0
C1185 C 0.23774 0.18282 0.63297 0.0
Gd1186 Gd 0.13541 0.10194 0.72238 0.0
Gd1187 Gd 0.18178 0.11655 0.60024 0.0
N1188 N 0.21746 0.09029 0.61825 0.0
C1189 C 0.26274 0.06329 0.6359 0.0
C1190 C 0.21745 0.06426 0.61507 0.0
C1191 C 0.23992 0.05041 0.62462 0.0
H1192 H 0.20055 0.05385 0.60382 0.0
H1193 H 0.23968 0.02975 0.62252 0.0
H1194 H 0.11554 0.16224 0.75404 0.0
H1195 H 0.19779 0.17807 0.6154 0.0
H1196 H 0.07633 0.18777 0.74806 0.0
H1197 H 0.28013 0.05244 0.64307 0.0
H1198 H 0.30354 0.09385 0.65485 0.0
H1199 H 0.11668 0.04093 0.72705 0.0
H1200 H 0.27824 0.18165 0.64884 0.0
H1201 H 0.23668 0.20346 0.63425 0.0
H1202 H 0.01088 0.12623 0.70824 0.0
H1203 H 0.30293 0.14074 0.65622 0.0
H1204 H 0.03538 0.03799 0.70533 0.0
H1205 H 0.077 0.01582 0.7162 0.0
N1206 N 0.09813 0.07675 0.71902 0.0
C1207 C 0.07541 0.08928 0.71528 0.0
C1208 C 0.09881 0.05072 0.72051 0.0
C1209 C 0.05284 0.04906 0.70926 0.0
C1210 C 0.07628 0.03648 0.71526 0.0
C1211 C 0.05214 0.07579 0.70985 0.0
H1212 H 0.01092 0.07933 0.70153 0.0
N1213 N 0.09824 0.12789 0.72574 0.0
C1214 C 0.07547 0.11568 0.71843 0.0
C1215 C 0.05265 0.15572 0.72563 0.0
C1216 C 0.05212 0.1293 0.71724 0.0
C1217 C 0.09839 0.15316 0.73973 0.0
C1218 C 0.07585 0.1676 0.73827 0.0
O1219 O 0.19739 0.12127 0.69056 0.0
O1220 O 0.17617 0.08777 0.72381 0.0
O1221 O 0.14234 0.11835 0.80359 0.0
O1222 O 0.13077 0.07868 0.79533 0.0
O1223 O 0.16125 0.07846 0.59165 0.0
O1224 O 0.15123 0.06604 0.68062 0.0
O1225 O 0.1147 0.09989 0.63992 0.0
O1226 O 0.13922 0.12678 0.5868 0.0
O1227 O 0.18622 0.10129 0.51684 0.0
O1228 O 0.19545 0.14064 0.53365 0.0
O1229 O 0.15147 0.14326 0.71265 0.0
O1230 O 0.15673 0.14968 0.61961 0.0
C1231 C 0.19482 0.10416 0.73017 0.0
C1232 C 0.15333 0.06106 0.62709 0.0
C1233 C 0.12007 0.09958 0.87791 0.0
C1234 C 0.11838 0.10528 0.97712 0.0
C1235 C 0.07969 0.09462 0.92625 0.0
C1236 C 0.09365 0.09452 0.87687 0.0
C1237 C 0.09203 0.09975 0.97643 0.0
C1238 C 0.13224 0.10525 0.92774 0.0
C1239 C 0.13606 0.09729 0.8289 0.0
C1240 C 0.02896 0.11605 0.70978 0.0
C1241 C 0.02898 0.08935 0.70611 0.0
H1242 H 0.03515 0.16689 0.72506 0.0
C1243 C 0.11745 0.11467 0.5966 0.0
C1244 C 0.1526 0.15873 0.6691 0.0
C1245 C 0.17224 0.13224 0.45336 0.0
C1246 C 0.15781 0.13326 0.35835 0.0
C1247 C 0.13261 0.15415 0.42914 0.0
C1248 C 0.15093 0.1473 0.46832 0.0
C1249 C 0.13603 0.14717 0.37415 0.0
C1250 C 0.17567 0.12526 0.39798 0.0
C1251 C 0.19048 0.1238 0.49584 0.0
H1252 H 0.05935 0.09052 0.9257 0.0
H1253 H 0.08401 0.09009 0.83835 0.0
H1254 H 0.08103 0.09973 0.01447 0.0
H1255 H 0.15274 0.10896 0.92832 0.0
H1256 H 0.11612 0.16542 0.44119 0.0
H1257 H 0.14856 0.15426 0.50999 0.0
H1258 H 0.12213 0.1533 0.34353 0.0
H1259 H 0.19239 0.11433 0.38559 0.0
C1260 C 0.08304 0.93709 0.28735 0.0
C1261 C 0.11803 0.96772 0.28574 0.0
C1262 C 0.10914 0.94228 0.28753 0.0
C1263 C 0.10029 0.98788 0.28555 0.0
C1264 C 0.06522 0.95732 0.28362 0.0
C1265 C 0.07395 0.9827 0.28456 0.0
N1266 N 0.07521 0.91234 0.28451 0.0
C1267 C 0.05026 0.90673 0.27124 0.0
C1268 C 0.0393 0.95148 0.27561 0.0
C1269 C 0.03188 0.9261 0.2681 0.0
Gd1270 Gd 0.11719 0.83776 0.42203 0.0
Gd1271 Gd 0.10804 0.88137 0.29049 0.0
N1272 N 0.12586 0.92242 0.28614 0.0
C1273 C 0.14448 0.97212 0.28275 0.0
C1274 C 0.15159 0.92656 0.28025 0.0
C1275 C 0.16132 0.95143 0.27953 0.0
H1276 H 0.16458 0.91057 0.27684 0.0
H1277 H 0.18177 0.95462 0.27614 0.0
H1278 H 0.06135 0.80817 0.38217 0.0
H1279 H 0.04446 0.88713 0.26442 0.0
H1280 H 0.04539 0.76446 0.37491 0.0
H1281 H 0.15205 0.9914 0.28169 0.0
H1282 H 0.10675 0.00755 0.28462 0.0
H1283 H 0.17968 0.83244 0.45261 0.0
H1284 H 0.02505 0.96648 0.27247 0.0
H1285 H 0.01205 0.92145 0.25954 0.0
H1286 H 0.11817 0.71213 0.41639 0.0
H1287 H 0.06051 0.99846 0.28236 0.0
H1288 H 0.19752 0.75287 0.4607 0.0
H1289 H 0.21067 0.79795 0.47022 0.0
N1290 N 0.14912 0.80708 0.4324 0.0
C1291 C 0.14101 0.78244 0.42976 0.0
C1292 C 0.17374 0.81286 0.44694 0.0
C1293 C 0.18375 0.76792 0.45269 0.0
C1294 C 0.19137 0.79337 0.45739 0.0
C1295 C 0.15832 0.76217 0.43899 0.0
H1296 H 0.16282 0.72104 0.44134 0.0
N1297 N 0.09897 0.79724 0.40829 0.0
C1298 C 0.1153 0.77738 0.41795 0.0
C1299 C 0.08129 0.74731 0.39829 0.0
C1300 C 0.10679 0.75187 0.41324 0.0
C1301 C 0.07423 0.79281 0.39226 0.0
C1302 C 0.06502 0.76785 0.38747 0.0
O1303 O 0.12551 0.90235 0.3642 0.0
O1304 O 0.10624 0.87974 0.43327 0.0
O1305 O 0.10476 0.82301 0.50223 0.0
O1306 O 0.13484 0.85162 0.49674 0.0
O1307 O 0.14829 0.86422 0.30255 0.0
O1308 O 0.15201 0.8598 0.39704 0.0
O1309 O 0.12634 0.81849 0.33729 0.0
O1310 O 0.09743 0.83926 0.28367 0.0
O1311 O 0.12793 0.88619 0.2119 0.0
O1312 O 0.08858 0.87338 0.21318 0.0
O1313 O 0.07515 0.84747 0.41424 0.0
O1314 O 0.07265 0.87916 0.34737 0.0
C1315 C 0.11839 0.90034 0.41619 0.0
C1316 C 0.16225 0.86267 0.34813 0.0
C1317 C 0.13273 0.82878 0.57961 0.0
C1318 C 0.14423 0.83837 0.67475 0.0
C1319 C 0.1618 0.80087 0.62895 0.0
C1320 C 0.14794 0.80674 0.58112 0.0
C1321 C 0.16026 0.8168 0.67532 0.0
C1322 C 0.13076 0.84438 0.62646 0.0
C1323 C 0.12053 0.83784 0.52907 0.0
C1324 C 0.12418 0.73175 0.42136 0.0
C1325 C 0.14975 0.73685 0.43478 0.0
H1326 H 0.07411 0.72801 0.39374 0.0
C1327 C 0.11365 0.82026 0.28977 0.0
C1328 C 0.06239 0.86535 0.38772 0.0
C1329 C 0.10159 0.89812 0.13682 0.0
C1330 C 0.10557 0.9089 0.03931 0.0
C1331 C 0.07845 0.93444 0.09925 0.0
C1332 C 0.08486 0.91886 0.14377 0.0
C1333 C 0.08861 0.92946 0.04713 0.0
C1334 C 0.11203 0.89328 0.08455 0.0
C1335 C 0.10772 0.8808 0.1827 0.0
H1336 H 0.17395 0.78411 0.62994 0.0
H1337 H 0.14943 0.79439 0.54545 0.0
H1338 H 0.17168 0.81241 0.71151 0.0
H1339 H 0.1187 0.86128 0.62527 0.0
H1340 H 0.06529 0.95021 0.10503 0.0
H1341 H 0.07635 0.92296 0.18297 0.0
H1342 H 0.08276 0.94139 0.01275 0.0
H1343 H 0.12505 0.87731 0.07916 0.0
H1344 H 0.39378 0.94887 0.36491 0.0
H1345 H 0.3817 0.89515 0.23083 0.0
H1346 H 0.37409 0.93113 0.16661 0.0
H1347 H 0.34385 0.99294 0.32288 0.0
H1348 H 0.36138 0.02101 0.34375 0.0
H1349 H 0.3668 0.99106 0.37852 0.0
H1350 H 0.41537 0.99408 0.35617 0.0
H1351 H 0.40989 0.02417 0.322 0.0
H1352 H 0.42548 0.99844 0.28552 0.0
H1353 H 0.3687 0.97425 0.11497 0.0
H1354 H 0.36287 0.0192 0.08444 0.0
H1355 H 0.37602 0.04457 0.25304 0.0
C1356 C 0.38961 0.94458 0.32211 0.0
C1357 C 0.3885 0.91883 0.30341 0.0
C1358 C 0.38267 0.91447 0.24675 0.0
C1359 C 0.37837 0.93491 0.20968 0.0
C1360 C 0.37956 0.95998 0.22945 0.0
C1361 C 0.38478 0.96484 0.28463 0.0
C1362 C 0.38401 0.99349 0.29591 0.0
C1363 C 0.36275 1.0 0.33774 0.0
C1364 C 0.41025 1.00311 0.31609 0.0
C1365 C 0.37774 1.00397 0.23856 0.0
C1366 C 0.37547 0.9844 0.20055 0.0
C1367 C 0.37027 0.98963 0.14472 0.0
C1368 C 0.36703 0.01531 0.12755 0.0
C1369 C 0.36868 0.03571 0.16597 0.0
C1370 C 0.37429 0.02963 0.22224 0.0
H1371 H 0.92793 0.65745 0.7159 0.0
H1372 H 0.92617 0.57471 0.71255 0.0
H1373 H 0.96576 0.57331 0.7687 0.0
H1374 H 0.99731 0.66113 0.69935 0.0
H1375 H 1.00095 0.68905 0.74235 0.0
H1376 H 0.97143 0.68378 0.70525 0.0
H1377 H 0.94639 0.68718 0.79694 0.0
H1378 H 0.9757 0.69183 0.83512 0.0
H1379 H 0.95426 0.66621 0.8537 0.0
H1380 H 1.00521 0.58057 0.82746 0.0
H1381 H 0.04446 0.59571 0.87403 0.0
H1382 H 0.02425 0.6739 0.83417 0.0
C1383 C 0.93573 0.63909 0.72784 0.0
C1384 C 0.92348 0.6161 0.71095 0.0
C1385 C 0.93488 0.5925 0.72566 0.0
C1386 C 0.95742 0.59154 0.75765 0.0
C1387 C 0.969 0.61438 0.77391 0.0
C1388 C 0.95887 0.63777 0.75865 0.0
C1389 C 0.97646 0.65933 0.7781 0.0
C1390 C 0.98718 0.6742 0.72831 0.0
C1391 C 0.96235 0.67719 0.81837 0.0
C1392 C 0.99764 0.64445 0.80767 0.0
C1393 C 0.99269 0.61854 0.80518 0.0
C1394 C 0.00916 0.60084 0.82981 0.0
C1395 C 0.03132 0.60967 0.85711 0.0
C1396 C 0.0373 0.63607 0.85965 0.0
C1397 C 0.02013 0.65363 0.83403 0.0
H1398 H 0.67171 0.99595 0.14739 0.0
H1399 H 0.60901 0.9518 0.21542 0.0
H1400 H 0.59342 0.9897 0.26549 0.0
H1401 H 0.68476 0.03124 0.27218 0.0
H1402 H 0.69223 0.061 0.23829 0.0
H1403 H 0.69732 0.03118 0.20262 0.0
H1404 H 0.66827 0.04629 0.12173 0.0
H1405 H 0.66375 0.0762 0.15687 0.0
H1406 H 0.63634 0.05759 0.13665 0.0
H1407 H 0.58429 0.03154 0.30845 0.0
H1408 H 0.58344 0.0741 0.34919 0.0
H1409 H 0.65508 0.0928 0.26672 0.0
C1410 C 0.65437 0.99455 0.17182 0.0
C1411 C 0.6409 0.97093 0.17563 0.0
C1412 C 0.61899 0.96971 0.21004 0.0
C1413 C 0.61013 0.99119 0.23912 0.0
C1414 C 0.62372 0.01403 0.23492 0.0
C1415 C 0.64554 0.01594 0.20281 0.0
C1416 C 0.65704 0.04274 0.20876 0.0
C1417 C 0.68447 0.04145 0.23183 0.0
C1418 C 0.6563 0.05652 0.15268 0.0
C1419 C 0.63866 0.05526 0.2503 0.0
C1420 C 0.61935 0.03822 0.26342 0.0
C1421 C 0.59953 0.04489 0.29903 0.0
C1422 C 0.59943 0.06933 0.32262 0.0
C1423 C 0.6195 0.08719 0.31304 0.0
C1424 C 0.63936 0.07995 0.2754 0.0
H1425 H 0.96526 0.38791 0.78612 0.0
H1426 H 0.99147 0.35015 0.93539 0.0
H1427 H 0.03636 0.35438 0.90324 0.0
H1428 H 0.01028 0.35845 0.69271 0.0
H1429 H 0.01375 0.38695 0.65153 0.0
H1430 H 0.98448 0.38135 0.68869 0.0
H1431 H 0.99025 0.42587 0.73486 0.0
H1432 H 0.0201 0.43044 0.69856 0.0
H1433 H 0.0192 0.43253 0.77304 0.0
H1434 H 0.07912 0.36243 0.85339 0.0
H1435 H 0.11512 0.37197 0.79025 0.0
H1436 H 0.06153 0.4027 0.67016 0.0
C1437 C 0.98046 0.38073 0.8124 0.0
C1438 C 0.9746 0.36915 0.86426 0.0
C1439 C 0.99523 0.35973 0.89653 0.0
C1440 C 0.02089 0.36188 0.87823 0.0
C1441 C 0.02594 0.37335 0.82703 0.0
C1442 C 1.00624 0.38261 0.79452 0.0
C1443 C 0.01676 0.3935 0.74048 0.0
C1444 C 1.00566 0.37916 0.69042 0.0
C1445 C 0.01125 0.4223 0.73652 0.0
C1446 C 0.04545 0.3885 0.74698 0.0
C1447 C 0.05033 0.37719 0.79765 0.0
C1448 C 0.07538 0.37126 0.81371 0.0
C1449 C 0.09584 0.3769 0.77744 0.0
C1450 C 0.09151 0.38815 0.72478 0.0
C1451 C 0.06574 0.39394 0.70969 0.0
H1452 H 0.34086 0.49646 0.12429 0.0
H1453 H 0.40156 0.44959 0.05559 0.0
H1454 H 0.41728 0.48631 1.00174 0.0
H1455 H 0.32732 0.53168 1.00139 0.0
H1456 H 0.32201 0.56208 0.03455 0.0
H1457 H 0.31629 0.53289 0.0721 0.0
H1458 H 0.34748 0.54768 0.14911 0.0
H1459 H 0.35318 0.577 0.11186 0.0
H1460 H 0.37973 0.5568 0.13098 0.0
H1461 H 0.42604 0.52698 0.95243 0.0
H1462 H 0.42763 0.56939 0.91013 0.0
H1463 H 0.36045 0.59226 1.00408 0.0
C1464 C 0.35789 0.49424 0.09914 0.0
C1465 C 0.37035 0.47006 0.09533 0.0
C1466 C 0.39199 0.46784 0.06019 0.0
C1467 C 0.40103 0.48865 0.02915 0.0
C1468 C 0.38829 0.512 0.033 0.0
C1469 C 0.36727 0.51513 0.06723 0.0
C1470 C 0.3569 0.54242 0.06147 0.0
C1471 C 0.32897 0.54225 0.04117 0.0
C1472 C 0.35946 0.55683 0.11664 0.0
C1473 C 0.37489 0.55372 0.01771 0.0
C1474 C 0.39297 0.53571 1.0027 0.0
C1475 C 0.41187 0.54115 0.96374 0.0
C1476 C 0.4124 0.56545 0.93925 0.0
C1477 C 0.39384 0.58442 0.95206 0.0
C1478 C 0.37491 0.57838 0.99272 0.0
H1479 H 0.56085 0.62078 0.11609 0.0
H1480 H 0.61531 0.62879 0.98152 0.0
H1481 H 0.57958 0.63601 0.91634 0.0
H1482 H 0.51047 0.58894 0.03926 0.0
H1483 H 0.48484 0.6059 0.07331 0.0
H1484 H 0.51472 0.60055 0.10887 0.0
H1485 H 0.51896 0.64921 0.1261 0.0
H1486 H 0.48916 0.65457 0.09019 0.0
H1487 H 0.51785 0.67084 0.06812 0.0
H1488 H 0.53731 0.64158 0.86405 0.0
H1489 H 0.4928 0.64776 0.83113 0.0
H1490 H 0.46526 0.63827 0.9994 0.0
C1491 C 0.5653 0.62397 0.07296 0.0
C1492 C 0.59121 0.62405 0.05435 0.0
C1493 C 0.59587 0.62864 0.99731 0.0
C1494 C 0.57558 0.63271 0.95972 0.0
C1495 C 0.55039 0.63257 0.97931 0.0
C1496 C 0.54517 0.62858 0.03479 0.0
C1497 C 0.51637 0.63031 0.04529 0.0
C1498 C 0.50598 0.60491 0.06802 0.0
C1499 C 0.51022 0.65255 0.08476 0.0
C1500 C 0.50622 0.63555 0.98705 0.0
C1501 C 0.52618 0.63663 0.94956 0.0
C1502 C 0.52158 0.64086 0.89322 0.0
C1503 C 0.49611 0.64425 0.87472 0.0
C1504 C 0.47519 0.64355 0.91216 0.0
C1505 C 0.48061 0.6391 0.96927 0.0
H1506 H 0.63441 0.54735 0.02846 0.0
H1507 H 0.65415 0.52103 0.1933 0.0
H1508 H 0.64844 0.4762 0.16188 0.0
H1509 H 0.58665 0.49989 0.99698 0.0
H1510 H 0.59604 0.49704 0.92553 0.0
H1511 H 0.60085 0.52673 0.96162 0.0
H1512 H 0.64879 0.52561 0.93603 0.0
H1513 H 0.64485 0.49554 0.90084 0.0
H1514 H 0.66804 0.49845 0.95558 0.0
H1515 H 0.64032 0.43336 0.11023 0.0
H1516 H 0.63148 0.39806 0.04503 0.0
H1517 H 0.61965 0.45251 0.91331 0.0
C1518 C 0.63747 0.53226 0.05839 0.0
C1519 C 0.64434 0.53807 0.11407 0.0
C1520 C 0.64831 0.51741 0.15102 0.0
C1521 C 0.64527 0.49179 0.13326 0.0
C1522 C 0.63847 0.48689 0.07811 0.0
C1523 C 0.63471 0.50668 0.04127 0.0
C1524 C 0.62813 0.49657 0.98388 0.0
C1525 C 0.60132 0.5056 0.96596 0.0
C1526 C 0.64867 0.50453 0.94159 0.0
C1527 C 0.62859 0.46787 0.99384 0.0
C1528 C 0.63458 0.46265 0.04847 0.0
C1529 C 0.63592 0.43747 0.06736 0.0
C1530 C 0.63118 0.41736 0.02974 0.0
C1531 C 0.62536 0.42203 0.97331 0.0
C1532 C 0.62394 0.44789 0.95569 0.0
H1533 H 0.44907 0.3915 0.11679 0.0
H1534 H 0.39587 0.38671 0.97938 0.0
H1535 H 0.43205 0.37959 0.91547 0.0
H1536 H 0.49913 0.42537 0.03991 0.0
H1537 H 0.52484 0.40928 0.07556 0.0
H1538 H 0.49454 0.41425 0.10969 0.0
H1539 H 0.49164 0.36551 0.12849 0.0
H1540 H 0.52167 0.36061 0.09335 0.0
H1541 H 0.49346 0.34352 0.07119 0.0
H1542 H 0.47499 0.37267 0.86491 0.0
H1543 H 0.52003 0.36663 0.83432 0.0
H1544 H 0.5454 0.37623 1.00411 0.0
C1545 C 0.44492 0.38888 0.07351 0.0
C1546 C 0.41923 0.3897 0.05389 0.0
C1547 C 0.41513 0.38638 0.99614 0.0
C1548 C 0.43568 0.38223 0.95921 0.0
C1549 C 0.46066 0.38161 0.97992 0.0
C1550 C 0.46537 0.38498 0.03581 0.0
C1551 C 0.49409 0.38391 0.04725 0.0
C1552 C 0.50372 0.40973 0.06942 0.0
C1553 C 0.50059 0.36208 0.08744 0.0
C1554 C 0.50469 0.37873 0.9895 0.0
C1555 C 0.48515 0.3777 0.95103 0.0
C1556 C 0.49039 0.37345 0.89488 0.0
C1557 C 0.51611 0.37006 0.87772 0.0
C1558 C 0.53654 0.3708 0.9164 0.0
C1559 C 0.53043 0.37532 0.97309 0.0
H1560 H 0.87822 0.45141 0.87122 0.0
H1561 H 0.89703 0.40021 0.73617 0.0
H1562 H 0.88933 0.43484 0.66942 0.0
H1563 H 0.82989 0.48892 0.80408 0.0
H1564 H 0.84034 0.51917 0.8317 0.0
H1565 H 0.84627 0.49017 0.86977 0.0
H1566 H 0.89455 0.50089 0.87195 0.0
H1567 H 0.88903 0.52973 0.83365 0.0
H1568 H 0.91163 0.50636 0.80843 0.0
H1569 H 0.87691 0.47511 0.61534 0.0
H1570 H 0.86642 0.51821 0.58082 0.0
H1571 H 0.86207 0.54573 0.74988 0.0
C1572 C 0.88084 0.44745 0.8278 0.0
C1573 C 0.88777 0.42248 0.80967 0.0
C1574 C 0.89116 0.41866 0.75187 0.0
C1575 C 0.88692 0.4384 0.71326 0.0
C1576 C 0.87993 0.46255 0.7324 0.0
C1577 C 0.87752 0.46737 0.78846 0.0
C1578 C 0.87128 0.49558 0.79784 0.0
C1579 C 0.84541 0.49864 0.82762 0.0
C1580 C 0.89293 0.50893 0.82982 0.0
C1581 C 0.86997 0.50557 0.73857 0.0
C1582 C 0.87481 0.48615 0.70142 0.0
C1583 C 0.87376 0.49056 0.64435 0.0
C1584 C 0.86812 0.51539 0.62487 0.0
C1585 C 0.86442 0.53611 0.66186 0.0
C1586 C 0.86515 0.53072 0.71977 0.0
H1587 H 0.52457 0.11563 0.37886 0.0
H1588 H 0.54596 0.1874 0.30225 0.0
H1589 H 0.50553 0.18826 0.25159 0.0
H1590 H 0.4975 0.08974 0.25415 0.0
H1591 H 0.47169 0.07275 0.28737 0.0
H1592 H 0.50105 0.07876 0.32452 0.0
H1593 H 0.47538 0.10104 0.40268 0.0
H1594 H 0.44597 0.09496 0.36567 0.0
H1595 H 0.45418 0.12709 0.38564 0.0
H1596 H 0.46277 0.1822 0.20743 0.0
H1597 H 0.42202 0.16702 0.16656 0.0
H1598 H 0.42858 0.09651 0.25945 0.0
C1599 C 0.52028 0.13198 0.35321 0.0
C1600 C 0.53822 0.15241 0.34815 0.0
C1601 C 0.53234 0.17235 0.31032 0.0
C1602 C 0.50933 0.17287 0.28034 0.0
C1603 C 0.49214 0.15278 0.28638 0.0
C1604 C 0.49735 0.13243 0.32114 0.0
C1605 C 0.47625 0.11229 0.31537 0.0
C1606 C 0.48729 0.08688 0.29409 0.0
C1607 C 0.46211 0.10862 0.37064 0.0
C1608 C 0.45868 0.1246 0.27216 0.0
C1609 C 0.46814 0.14819 0.2569 0.0
C1610 C 0.45521 0.16371 0.21899 0.0
C1611 C 0.43201 0.15499 0.19603 0.0
C1612 C 0.42213 0.13065 0.20962 0.0
C1613 C 0.43576 0.1152 0.24811 0.0
H1614 H 0.15033 0.56742 0.8555 0.0
H1615 H 0.08666 0.5995 0.76308 0.0
H1616 H 0.0867 0.56186 0.70157 0.0
H1617 H 0.18322 0.54115 0.73606 0.0
H1618 H 0.19415 0.51291 0.77165 0.0
H1619 H 0.18879 0.54204 0.8097 0.0
H1620 H 0.15857 0.51787 0.87482 0.0
H1621 H 0.16253 0.48864 0.83677 0.0
H1622 H 0.13085 0.50154 0.84755 0.0
H1623 H 0.09276 0.51968 0.65066 0.0
H1624 H 0.10541 0.47759 0.61364 0.0
H1625 H 0.16688 0.47365 0.73431 0.0
C1626 C 0.13629 0.56645 0.82256 0.0
C1627 C 0.11839 0.58659 0.81455 0.0
C1628 C 0.10062 0.58454 0.77029 0.0
C1629 C 0.10044 0.56312 0.73504 0.0
C1630 C 0.11833 0.54372 0.74378 0.0
C1631 C 0.13605 0.54522 0.78629 0.0
C1632 C 0.15365 0.52199 0.78546 0.0
C1633 C 0.18161 0.53 0.77509 0.0
C1634 C 0.15121 0.50659 0.83935 0.0
C1635 C 0.14289 0.50715 0.7364 0.0
C1636 C 0.12246 0.51998 0.71305 0.0
C1637 C 0.10899 0.50969 0.66825 0.0
C1638 C 0.11652 0.48576 0.64687 0.0
C1639 C 0.13761 0.47223 0.66943 0.0
C1640 C 0.15086 0.48336 0.71508 0.0
H1641 H 0.59229 0.85603 0.24836 0.0
H1642 H 0.57452 0.92948 0.1748 0.0
H1643 H 0.53338 0.9304 0.22437 0.0
H1644 H 0.52613 0.83301 0.23267 0.0
H1645 H 0.52646 0.81406 0.29494 0.0
H1646 H 0.55584 0.81972 0.25762 0.0
H1647 H 0.57647 0.83816 0.34638 0.0
H1648 H 0.54711 0.83271 0.38396 0.0
H1649 H 0.56102 0.86423 0.38205 0.0
H1650 H 0.49378 0.92412 0.28194 0.0
H1651 H 0.45599 0.90834 0.33305 0.0
H1652 H 0.49554 0.83718 0.3663 0.0
C1653 C 0.57992 0.8725 0.24368 0.0
C1654 C 0.58745 0.89328 0.20911 0.0
C1655 C 0.5699 0.91375 0.20214 0.0
C1656 C 0.54628 0.91442 0.23015 0.0
C1657 C 0.53954 0.89401 0.26427 0.0
C1658 C 0.55548 0.87308 0.27017 0.0
C1659 C 0.54204 0.85265 0.30516 0.0
C1660 C 0.53735 0.82842 0.27055 0.0
C1661 C 0.5576 0.84658 0.35751 0.0
C1662 C 0.51664 0.86582 0.31963 0.0
C1663 C 0.51581 0.88973 0.29548 0.0
C1664 C 0.49434 0.90546 0.30119 0.0
C1665 C 0.47294 0.89641 0.33087 0.0
C1666 C 0.47279 0.87184 0.35546 0.0
C1667 C 0.49519 0.85639 0.34983 0.0
H1668 H 0.87124 0.96634 0.52274 0.0
H1669 H 0.86321 0.99314 0.69189 0.0
H1670 H 0.87074 0.03749 0.65958 0.0
H1671 H 0.9203 0.01033 0.47884 0.0
H1672 H 0.90713 0.01445 0.41049 0.0
H1673 H 0.9021 0.98494 0.44722 0.0
H1674 H 0.8531 0.98994 0.43544 0.0
H1675 H 0.8579 0.01947 0.39862 0.0
H1676 H 0.83761 0.01875 0.45899 0.0
H1677 H 0.87994 0.07977 0.60716 0.0
H1678 H 0.88746 0.1151 0.54121 0.0
H1679 H 0.88662 0.06103 0.40526 0.0
C1680 C 0.87105 0.98142 0.55343 0.0
C1681 C 0.86711 0.97574 0.61064 0.0
C1682 C 0.86684 0.99649 0.64839 0.0
C1683 C 0.87093 0.0219 0.63015 0.0
C1684 C 0.8749 0.02664 0.57365 0.0
C1685 C 0.87475 0.00688 0.53582 0.0
C1686 C 0.87877 0.01695 0.47714 0.0
C1687 C 0.90354 0.00602 0.45195 0.0
C1688 C 0.85546 0.01092 0.44039 0.0
C1689 C 0.88119 0.04557 0.48756 0.0
C1690 C 0.87914 0.05075 0.54358 0.0
C1691 C 0.8814 0.07577 0.56332 0.0
C1692 C 0.88574 0.09583 0.52531 0.0
C1693 C 0.88753 0.09122 0.46749 0.0
C1694 C 0.88513 0.06552 0.4488 0.0
H1695 H 0.08774 0.09028 0.51567 0.0
H1696 H 0.09269 0.15909 0.61488 0.0
H1697 H 0.05136 0.17385 0.57654 0.0
H1698 H 0.05925 0.12318 0.39314 0.0
H1699 H 0.03913 0.09655 0.37443 0.0
H1700 H 0.06931 0.09106 0.40893 0.0
H1701 H 0.0459 0.06582 0.48586 0.0
H1702 H 0.01568 0.07125 0.45166 0.0
H1703 H 0.01985 0.0807 0.52291 0.0
H1704 H 0.00929 0.18064 0.53169 0.0
H1705 H 0.96903 0.18075 0.48082 0.0
H1706 H 0.98933 0.10854 0.40312 0.0
C1707 C 0.08014 0.10856 0.5287 0.0
C1708 C 0.09349 0.12361 0.56852 0.0
C1709 C 0.08293 0.14736 0.58453 0.0
C1710 C 0.05941 0.15587 0.5629 0.0
C1711 C 0.04668 0.14072 0.524 0.0
C1712 C 0.05671 0.11773 0.50622 0.0
C1713 C 0.0389 0.10568 0.46292 0.0
C1714 C 0.05246 0.10401 0.40651 0.0
C1715 C 0.02953 0.07929 0.482 0.0
C1716 C 0.01687 0.125 0.46095 0.0
C1717 C 0.02216 0.14505 0.49647 0.0
C1718 C 1.00508 0.16513 0.50348 0.0
C1719 C 0.98198 0.1649 0.47395 0.0
C1720 C 0.97547 0.14474 0.4369 0.0
C1721 C 0.99352 0.12448 0.43019 0.0
H1722 H 0.1317 0.95124 0.39494 0.0
H1723 H 0.11568 0.89882 0.52952 0.0
H1724 H 0.12375 0.93329 0.59687 0.0
H1725 H 0.18153 0.98773 0.46196 0.0
H1726 H 0.17122 0.01805 0.4345 0.0
H1727 H 0.16499 0.98909 0.3965 0.0
H1728 H 0.11661 0.99989 0.39472 0.0
H1729 H 0.12271 0.0289 0.43254 0.0
H1730 H 0.09995 0.00596 0.4587 0.0
H1731 H 0.13552 0.97343 0.65091 0.0
H1732 H 0.14635 0.01629 0.68622 0.0
H1733 H 0.15034 0.04462 0.51765 0.0
C1734 C 0.12979 0.94698 0.43844 0.0
C1735 C 0.12305 0.92196 0.45634 0.0
C1736 C 0.1208 0.91755 0.51414 0.0
C1737 C 0.1254 0.93712 0.55299 0.0
C1738 C 0.1319 0.96146 0.53398 0.0
C1739 C 0.13378 0.96657 0.47799 0.0
C1740 C 0.14019 0.9947 0.46872 0.0
C1741 C 0.16602 0.99755 0.43863 0.0
C1742 C 0.11857 0.00816 0.43679 0.0
C1743 C 0.14186 1.00448 0.52813 0.0
C1744 C 0.13724 0.9849 0.5651 0.0
C1745 C 0.13861 0.98899 0.62219 0.0
C1746 C 0.14449 0.01365 0.64204 0.0
C1747 C 0.14832 0.03444 0.60534 0.0
C1748 C 0.14721 0.02945 0.54736 0.0
H1749 H 0.02793 0.83741 0.45285 0.0
H1750 H 0.03989 0.9126 0.38216 0.0
H1751 H 0.99956 0.92744 0.42399 0.0
H1752 H 0.95849 0.83542 0.4395 0.0
H1753 H 0.95331 0.82011 0.50542 0.0
H1754 H 0.9828 0.81482 0.46823 0.0
H1755 H 0.00873 0.82991 0.55365 0.0
H1756 H 0.97929 0.83524 0.59103 0.0
H1757 H 1.00212 0.86082 0.58334 0.0
H1758 H 0.95886 0.93536 0.47824 0.0
H1759 H 0.91997 0.93493 0.53699 0.0
H1760 H 0.93249 0.85485 0.57316 0.0
C1761 C 0.02187 0.8569 0.44544 0.0
C1762 C 0.03686 0.87344 0.41154 0.0
C1763 C 0.02836 0.899 0.40479 0.0
C1764 C 1.00555 0.90781 0.42949 0.0
C1765 C 0.99119 0.89104 0.46196 0.0
C1766 C 0.99897 0.86609 0.47014 0.0
C1767 C 0.9801 0.85228 0.50819 0.0
C1768 C 0.96795 0.82929 0.47855 0.0
C1769 C 0.99336 0.84407 0.56224 0.0
C1770 C 0.96031 0.87319 0.51916 0.0
C1771 C 0.96739 0.89551 0.49267 0.0
C1772 C 0.95302 0.91787 0.49851 0.0
C1773 C 0.93089 0.91747 0.53193 0.0
C1774 C 0.9228 0.89479 0.5586 0.0
C1775 C 0.9378 0.87232 0.55208 0.0
H1776 H 0.39459 0.20074 0.09702 0.0
H1777 H 0.31269 0.18779 0.10248 0.0
H1778 H 0.3059 0.23268 0.13116 0.0
H1779 H 0.40356 0.24609 0.19917 0.0
H1780 H 0.42392 0.26772 0.16122 0.0
H1781 H 0.42311 0.23433 0.14309 0.0
H1782 H 0.41091 0.24549 0.04215 0.0
H1783 H 0.4125 0.27896 0.05945 0.0
H1784 H 0.38375 0.26594 0.02917 0.0
H1785 H 0.30968 0.27643 0.17864 0.0
H1786 H 0.31958 0.32173 0.199 0.0
H1787 H 0.39637 0.31111 0.13472 0.0
C1788 C 0.37515 0.2076 0.10184 0.0
C1789 C 0.3541 0.19038 0.09949 0.0
C1790 C 0.32909 0.20032 0.10633 0.0
C1791 C 0.32508 0.2258 0.12272 0.0
C1792 C 0.34625 0.24185 0.12843 0.0
C1793 C 0.37058 0.23369 0.11414 0.0
C1794 C 0.38935 0.25604 0.11655 0.0
C1795 C 0.41129 0.25071 0.15745 0.0
C1796 C 0.39975 0.26197 0.05838 0.0
C1797 C 0.37202 0.27752 0.13741 0.0
C1798 C 0.34744 0.26854 0.14594 0.0
C1799 C 0.32862 0.2839 0.17019 0.0
C1800 C 0.33452 0.30955 0.18248 0.0
C1801 C 0.35856 0.32009 0.16796 0.0
C1802 C 0.37775 0.30362 0.14619 0.0
H1803 H 0.31125 0.61396 0.87067 0.0
H1804 H 0.32366 0.69368 0.83136 0.0
H1805 H 0.27847 0.70315 0.85587 0.0
H1806 H 0.24548 0.61319 0.80676 0.0
H1807 H 0.23387 0.58997 0.85584 0.0
H1808 H 0.26717 0.58998 0.8359 0.0
H1809 H 0.27986 0.59333 0.93927 0.0
H1810 H 0.24659 0.59424 0.95933 0.0
H1811 H 0.2679 0.61958 0.98015 0.0
H1812 H 0.23396 0.70454 0.90265 0.0
H1813 H 0.18902 0.69651 0.93105 0.0
H1814 H 0.20191 0.61506 0.91644 0.0
C1815 C 0.30416 0.63323 0.86517 0.0
C1816 C 0.32106 0.65316 0.84913 0.0
C1817 C 0.31107 0.67813 0.84301 0.0
C1818 C 0.28549 0.68371 0.85771 0.0
C1819 C 0.26967 0.66388 0.87602 0.0
C1820 C 0.27821 0.63889 0.87655 0.0
C1821 C 0.25655 0.62082 0.89277 0.0
C1822 C 0.25039 0.6024 0.84497 0.0
C1823 C 0.26314 0.60613 0.94603 0.0
C1824 C 0.2347 0.6396 0.90272 0.0
C1825 C 0.24303 0.66441 0.89508 0.0
C1826 C 0.2271 0.68514 0.90706 0.0
C1827 C 0.20165 0.6804 0.92393 0.0
C1828 C 0.19177 0.65524 0.92587 0.0
C1829 C 0.20881 0.63455 0.91607 0.0
H1830 H 0.64486 0.81629 0.18744 0.0
H1831 H 0.64312 0.82132 1.00799 0.0
H1832 H 0.64086 0.774 1.00301 0.0
H1833 H 0.68621 0.76246 0.19357 0.0
H1834 H 0.67107 0.74889 0.25386 0.0
H1835 H 0.67048 0.78292 0.24306 0.0
H1836 H 0.62091 0.78263 0.24956 0.0
H1837 H 0.62129 0.74856 0.26026 0.0
H1838 H 0.60271 0.76201 0.20448 0.0
H1839 H 0.64079 0.72597 0.01816 0.0
H1840 H 0.6444 0.68147 0.05058 0.0
H1841 H 0.64732 0.70756 0.22077 0.0
C1842 C 0.64372 0.80765 0.14678 0.0
C1843 C 0.644 0.82285 0.09785 0.0
C1844 C 0.64275 0.81035 0.04596 0.0
C1845 C 0.6415 0.78343 0.04286 0.0
C1846 C 0.64163 0.76921 0.09199 0.0
C1847 C 0.64281 0.78095 0.14297 0.0
C1848 C 0.64418 0.76143 0.18961 0.0
C1849 C 0.66949 0.76409 0.22192 0.0
C1850 C 0.62088 0.7638 0.22826 0.0
C1851 C 0.64342 0.73662 0.15708 0.0
C1852 C 0.64188 0.74163 0.10079 0.0
C1853 C 0.64184 0.72196 0.06205 0.0
C1854 C 0.64387 0.6967 0.08096 0.0
C1855 C 0.64593 0.69099 0.1382 0.0
C1856 C 0.6453 0.71127 0.17689 0.0
H1857 H 0.81152 0.33328 0.88108 0.0
H1858 H 0.82137 0.40796 0.95538 0.0
H1859 H 0.77514 0.41663 0.94173 0.0
H1860 H 0.76674 0.35163 0.77687 0.0
H1861 H 0.74809 0.32272 0.7815 0.0
H1862 H 0.78176 0.32221 0.79823 0.0
H1863 H 0.77219 0.30414 0.89681 0.0
H1864 H 0.73911 0.30302 0.87637 0.0
H1865 H 0.74821 0.31969 0.9388 0.0
H1866 H 0.72729 0.41722 0.91736 0.0
H1867 H 0.68193 0.4081 0.89412 0.0
H1868 H 0.70339 0.33285 0.83591 0.0
C1869 C 0.80404 0.35138 0.89515 0.0
C1870 C 0.82033 0.3698 0.92014 0.0
C1871 C 0.80945 0.39327 0.93747 0.0
C1872 C 0.78316 0.39847 0.92914 0.0
C1873 C 0.76785 0.37999 0.90351 0.0
C1874 C 0.77791 0.35677 0.88745 0.0
C1875 C 0.75747 0.33985 0.86168 0.0
C1876 C 0.76391 0.33375 0.80096 0.0
C1877 C 0.75403 0.31524 0.89556 0.0
C1878 C 0.7341 0.35707 0.86583 0.0
C1879 C 0.74057 0.38029 0.88954 0.0
C1880 C 0.72214 0.39917 0.89853 0.0
C1881 C 0.69646 0.39395 0.88465 0.0
C1882 C 0.68926 0.37011 0.8617 0.0
C1883 C 0.70845 0.35155 0.85166 0.0
H1884 H 0.86533 0.69671 0.69069 0.0
H1885 H 0.8728 0.69212 0.51192 0.0
H1886 H 0.87579 0.73939 0.50787 0.0
H1887 H 0.82414 0.75093 0.69031 0.0
H1888 H 0.83715 0.76425 0.75315 0.0
H1889 H 0.83787 0.73023 0.74204 0.0
H1890 H 0.88702 0.73011 0.75698 0.0
H1891 H 0.88657 0.76417 0.76792 0.0
H1892 H 0.90698 0.75063 0.71532 0.0
H1893 H 0.87657 0.78745 0.52366 0.0
H1894 H 0.87224 0.83198 0.55606 0.0
H1895 H 0.86211 0.80542 0.72449 0.0
C1896 C 0.86785 0.70546 0.65045 0.0
C1897 C 0.86902 0.6904 0.60144 0.0
C1898 C 0.87201 0.70301 0.55001 0.0
C1899 C 0.87372 0.7299 0.54741 0.0
C1900 C 0.87217 0.74402 0.59654 0.0
C1901 C 0.86907 0.73217 0.64706 0.0
C1902 C 0.86618 0.75162 0.69349 0.0
C1903 C 0.83977 0.74911 0.72138 0.0
C1904 C 0.88799 0.74897 0.73594 0.0
C1905 C 0.86833 0.77648 0.66142 0.0
C1906 C 0.87195 0.77159 0.60556 0.0
C1907 C 0.87382 0.79138 0.56725 0.0
C1908 C 0.87139 0.81665 0.58611 0.0
C1909 C 0.86701 0.82218 0.64277 0.0
C1910 C 0.86585 0.80179 0.6811 0.0
H1911 H 0.81262 0.17981 0.3918 0.0
H1912 H 0.82446 0.10433 0.32239 0.0
H1913 H 0.77896 0.09409 0.3396 0.0
H1914 H 0.77109 0.15995 0.50219 0.0
H1915 H 0.751 0.18793 0.49868 0.0
H1916 H 0.78421 0.18987 0.47848 0.0
H1917 H 0.77138 0.20714 0.38173 0.0
H1918 H 0.73836 0.20613 0.4032 0.0
H1919 H 0.74826 0.18973 0.34099 0.0
H1920 H 0.73115 0.09277 0.36204 0.0
H1921 H 0.68576 0.10082 0.385 0.0
H1922 H 0.70565 0.17549 0.44869 0.0
C1923 C 0.80582 0.16109 0.38013 0.0
C1924 C 0.82255 0.14295 0.35539 0.0
C1925 C 0.81235 0.11876 0.3407 0.0
C1926 C 0.78642 0.11268 0.35079 0.0
C1927 C 0.77076 0.13084 0.37639 0.0
C1928 C 0.78012 0.15458 0.39077 0.0
C1929 C 0.75942 0.17069 0.41815 0.0
C1930 C 0.76688 0.1775 0.47793 0.0
C1931 C 0.75403 0.19485 0.38392 0.0
C1932 C 0.73679 0.15238 0.41683 0.0
C1933 C 0.74375 0.1295 0.39234 0.0
C1934 C 0.72575 0.11031 0.38266 0.0
C1935 C 0.69999 0.11485 0.39694 0.0
C1936 C 0.69227 0.13808 0.42213 0.0
C1937 C 0.71113 0.15696 0.43261 0.0
H1938 H 0.15008 0.30473 0.55701 0.0
H1939 H 0.13996 0.3267 0.7294 0.0
H1940 H 0.14007 0.28205 0.757 0.0
H1941 H 0.10753 0.2477 0.56836 0.0
H1942 H 0.12672 0.22849 0.52232 0.0
H1943 H 0.12576 0.2627 0.51391 0.0
H1944 H 0.17528 0.26438 0.52117 0.0
H1945 H 0.17632 0.23021 0.52999 0.0
H1946 H 0.19088 0.25077 0.58092 0.0
H1947 H 0.14608 0.23542 0.76989 0.0
H1948 H 0.15074 0.18856 0.76385 0.0
H1949 H 0.15094 0.1942 0.58437 0.0
C1950 C 0.14749 0.3001 0.60033 0.0
C1951 C 0.14557 0.31977 0.64073 0.0
C1952 C 0.14208 0.3125 0.6971 0.0
C1953 C 0.14205 0.28695 0.71369 0.0
C1954 C 0.14485 0.2682 0.67368 0.0
C1955 C 0.14684 0.2742 0.61799 0.0
C1956 C 0.14888 0.24968 0.58415 0.0
C1957 C 0.12585 0.24699 0.54485 0.0
C1958 C 0.17436 0.24872 0.55216 0.0
C1959 C 0.14814 0.22945 0.62974 0.0
C1960 C 0.14616 0.24067 0.68108 0.0
C1961 C 0.14691 0.22625 0.72977 0.0
C1962 C 0.14936 0.19953 0.726 0.0
C1963 C 0.15028 0.18724 0.67388 0.0
C1964 C 0.14975 0.20269 0.62517 0.0
H1965 H 0.30996 0.82599 0.38251 0.0
H1966 H 0.32458 0.90542 0.42214 0.0
H1967 H 0.27885 0.9152 0.40718 0.0
H1968 H 0.26575 0.84138 0.2674 0.0
H1969 H 0.24636 0.81347 0.28 0.0
H1970 H 0.28013 0.813 0.29587 0.0
H1971 H 0.26955 0.79968 0.39638 0.0
H1972 H 0.23582 0.80052 0.38103 0.0
H1973 H 0.24855 0.81942 0.43736 0.0
H1974 H 0.23085 0.91606 0.38929 0.0
H1975 H 0.18492 0.90786 0.37116 0.0
H1976 H 0.20213 0.82897 0.33224 0.0
C1977 C 0.30383 0.84556 0.38687 0.0
C1978 C 0.32125 0.86484 0.40386 0.0
C1979 C 0.31179 0.89004 0.4109 0.0
C1980 C 0.28579 0.89589 0.40152 0.0
C1981 C 0.2694 0.87651 0.38355 0.0
C1982 C 0.27815 0.85189 0.37569 0.0
C1983 C 0.25676 0.83464 0.3549 0.0
C1984 C 0.2626 0.82505 0.29606 0.0
C1985 C 0.25238 0.81224 0.39485 0.0
C1986 C 0.23426 0.85312 0.35456 0.0
C1987 C 0.24209 0.87727 0.37063 0.0
C1988 C 0.22468 0.89738 0.37545 0.0
C1989 C 0.19864 0.89265 0.36431 0.0
C1990 C 0.19015 0.86817 0.34743 0.0
C1991 C 0.20827 0.84816 0.34253 0.0
H1992 H 0.24179 0.12977 0.75796 0.0
H1993 H 0.18607 0.07638 0.82418 0.0
H1994 H 0.21041 0.07397 0.91106 0.0
H1995 H 0.29515 0.09731 0.81544 0.0
H1996 H 0.31453 0.12416 0.83615 0.0
H1997 H 0.2931 0.12686 0.77768 0.0
H1998 H 0.26841 0.16428 0.81806 0.0
H1999 H 0.29111 0.16506 0.87435 0.0
H2000 H 0.25723 0.16306 0.88866 0.0
H2001 H 0.24132 0.07655 0.99355 0.0
H2002 H 0.27671 0.08236 0.06014 0.0
H2003 H 0.31513 0.1324 0.94393 0.0
C2004 C 0.23452 0.11775 0.79086 0.0
C2005 C 0.21123 0.10361 0.78314 0.0
C2006 C 0.20327 0.0878 0.82789 0.0
C2007 C 0.21716 0.08622 0.87806 0.0
C2008 C 0.23978 0.10021 0.88434 0.0
C2009 C 0.24856 0.11561 0.84183 0.0
C2010 C 0.27436 0.12741 0.85893 0.0
C2011 C 0.29557 0.11843 0.81957 0.0
C2012 C 0.27267 0.1567 0.86006 0.0
C2013 C 0.27848 0.11656 0.91756 0.0
C2014 C 0.25809 0.101 0.93128 0.0
C2015 C 0.25729 0.08879 0.98289 0.0
C2016 C 0.27759 0.09238 0.02117 0.0
C2017 C 0.29902 0.10813 1.00908 0.0
C2018 C 0.29922 0.12029 0.95569 0.0
H2019 H 0.11632 0.74577 0.98512 0.0
H2020 H 0.11111 0.67627 0.08093 0.0
H2021 H 0.1121 0.70077 0.16693 0.0
H2022 H 0.15828 0.78086 0.08566 0.0
H2023 H 0.14255 0.8112 0.07608 0.0
H2024 H 0.14321 0.78821 0.02043 0.0
H2025 H 0.09381 0.79021 0.0146 0.0
H2026 H 0.09315 0.81294 0.07065 0.0
H2027 H 0.07497 0.78374 0.07564 0.0
H2028 H 0.11582 0.73237 0.24549 0.0
H2029 H 0.1166 0.76879 0.30947 0.0
H2030 H 0.11391 0.8211 0.17104 0.0
C2031 C 0.11565 0.73568 0.02419 0.0
C2032 C 0.11378 0.7082 0.02481 0.0
C2033 C 0.11248 0.6966 0.07779 0.0
C2034 C 0.11316 0.71065 0.12762 0.0
C2035 C 0.11479 0.73721 0.12583 0.0
C2036 C 0.11573 0.74987 0.0756 0.0
C2037 C 0.11632 0.77893 0.08711 0.0
C2038 C 0.14159 0.79049 0.06604 0.0
C2039 C 0.09317 0.79224 0.06039 0.0
C2040 C 0.11494 0.78035 0.15103 0.0
C2041 C 0.11486 0.75582 0.17199 0.0
C2042 C 0.1154 0.75162 0.22918 0.0
C2043 C 0.11575 0.77268 0.26589 0.0
C2044 C 0.11454 0.79829 0.24708 0.0
C2045 C 0.11422 0.80196 0.18794 0.0
H2046 H 0.74081 0.87807 0.01895 0.0
H2047 H 0.68729 0.93457 0.9562 0.0
H2048 H 0.71197 0.93756 0.8701 0.0
H2049 H 0.79828 0.90857 0.95933 0.0
H2050 H 0.81418 0.87911 0.94173 0.0
H2051 H 0.79199 0.88008 0.99896 0.0
H2052 H 0.76587 0.84344 0.95482 0.0
H2053 H 0.78795 0.8424 0.8974 0.0
H2054 H 0.75416 0.84681 0.88496 0.0
H2055 H 0.74234 0.93509 0.78746 0.0
H2056 H 0.7766 0.92857 0.71872 0.0
H2057 H 0.81393 0.87518 0.82973 0.0
C2058 C 0.73418 0.891 0.98706 0.0
C2059 C 0.71127 0.90586 0.99583 0.0
C2060 C 0.70414 0.92266 0.95208 0.0
C2061 C 0.71827 0.92459 0.90224 0.0
C2062 C 0.74042 0.90996 0.89495 0.0
C2063 C 0.74861 0.89357 0.93628 0.0
C2064 C 0.77377 0.88068 0.91719 0.0
C2065 C 0.79586 0.88751 0.95666 0.0
C2066 C 0.77023 0.8516 0.91339 0.0
C2067 C 0.77824 0.89234 0.85916 0.0
C2068 C 0.7585 0.90906 0.84742 0.0
C2069 C 0.75785 0.92203 0.79666 0.0
C2070 C 0.7776 0.91809 0.75719 0.0
C2071 C 0.79849 0.90128 0.76709 0.0
C2072 C 0.79853 0.88824 0.81968 0.0
H2073 H 0.92018 0.31586 0.09265 0.0
H2074 H 0.87412 0.27613 0.97147 0.0
H2075 H 0.86991 0.2396 0.0346 0.0
H2076 H 0.95309 0.2622 0.15508 0.0
H2077 H 0.94973 0.27321 0.22547 0.0
H2078 H 0.9504 0.2959 0.16941 0.0
H2079 H 0.90696 0.3142 0.20215 0.0
H2080 H 0.90591 0.29131 0.25806 0.0
H2081 H 0.87982 0.29326 0.20947 0.0
H2082 H 0.87114 0.20556 0.11247 0.0
H2083 H 0.8749 0.1797 0.19778 0.0
H2084 H 0.91728 0.24097 0.27616 0.0
C2085 C 0.90937 0.29948 0.07895 0.0
C2086 C 0.89835 0.29916 0.02428 0.0
C2087 C 0.88376 0.27711 1.01069 0.0
C2088 C 0.88102 0.25607 0.0472 0.0
C2089 C 0.89231 0.25687 0.09975 0.0
C2090 C 0.90581 0.27828 0.11621 0.0
C2091 C 0.91435 0.27476 0.17687 0.0
C2092 C 0.94364 0.27663 0.182 0.0
C2093 C 0.90101 0.29458 0.21387 0.0
C2094 C 0.90479 0.24764 0.19087 0.0
C2095 C 0.89191 0.23783 0.14556 0.0
C2096 C 0.88119 0.21328 0.14792 0.0
C2097 C 0.88355 0.19849 0.19694 0.0
C2098 C 0.89659 0.20767 0.24455 0.0
C2099 C 0.90722 0.23296 0.241 0.0
H2100 H 0.29661 0.43233 0.30277 0.0
H2101 H 0.28829 0.35441 0.24485 0.0
H2102 H 0.25852 0.34548 0.32205 0.0
H2103 H 0.29208 0.41937 0.45151 0.0
H2104 H 0.27302 0.44716 0.46718 0.0
H2105 H 0.29469 0.44755 0.40901 0.0
H2106 H 0.25731 0.4597 0.34377 0.0
H2107 H 0.23558 0.45953 0.40181 0.0
H2108 H 0.22898 0.43998 0.34203 0.0
H2109 H 0.2306 0.34392 0.41194 0.0
H2110 H 0.20348 0.35158 0.4946 0.0
H2111 H 0.22441 0.43159 0.49129 0.0
C2112 C 0.28859 0.41333 0.30625 0.0
C2113 C 0.29556 0.39401 0.26668 0.0
C2114 C 0.28389 0.36966 0.27361 0.0
C2115 C 0.26679 0.36434 0.31797 0.0
C2116 C 0.26051 0.38358 0.35608 0.0
C2117 C 0.27073 0.40781 0.35006 0.0
C2118 C 0.25962 0.42537 0.39535 0.0
C2119 C 0.28113 0.43547 0.43297 0.0
C2120 C 0.24447 0.44746 0.36918 0.0
C2121 C 0.24168 0.40737 0.42768 0.0
C2122 C 0.24298 0.38317 0.40488 0.0
C2123 C 0.22931 0.36297 0.42915 0.0
C2124 C 0.21385 0.36748 0.47667 0.0
C2125 C 0.21108 0.39221 0.50008 0.0
C2126 C 0.22546 0.41243 0.47457 0.0
H2127 H 0.37819 0.74139 0.77442 0.0
H2128 H 0.43072 0.68496 0.70724 0.0
H2129 H 0.43394 0.70931 0.62148 0.0
H2130 H 0.34574 0.75715 0.64323 0.0
H2131 H 0.344 0.79108 0.65541 0.0
H2132 H 0.34451 0.76923 0.71311 0.0
H2133 H 0.38391 0.79262 0.75362 0.0
H2134 H 0.38338 0.81459 0.69613 0.0
H2135 H 0.41208 0.79676 0.71132 0.0
H2136 H 0.43271 0.73943 0.53999 0.0
H2137 H 0.4277 0.77376 0.47143 0.0
H2138 H 0.37697 0.81406 0.58357 0.0
C2139 C 0.39028 0.73406 0.74163 0.0
C2140 C 0.40378 0.71026 0.74913 0.0
C2141 C 0.41963 0.70235 0.70421 0.0
C2142 C 0.42178 0.71632 0.65446 0.0
C2143 C 0.40843 0.73922 0.64828 0.0
C2144 C 0.39311 0.74837 0.69068 0.0
C2145 C 0.38162 0.77426 0.67217 0.0
C2146 C 0.35221 0.77284 0.67093 0.0
C2147 C 0.39078 0.79583 0.71061 0.0
C2148 C 0.39259 0.77776 0.61307 0.0
C2149 C 0.40803 0.75712 0.60071 0.0
C2150 C 0.42053 0.75559 0.54948 0.0
C2151 C 0.41738 0.77533 0.50999 0.0
C2152 C 0.40161 0.79695 0.51998 0.0
C2153 C 0.3891 0.79798 0.57325 0.0
H2154 H 0.71373 0.57825 0.2974 0.0
H2155 H 0.71941 0.65813 0.2527 0.0
H2156 H 0.75165 0.66462 0.32665 0.0
H2157 H 0.71974 0.58974 0.44772 0.0
H2158 H 0.73765 0.56094 0.461 0.0
H2159 H 0.7154 0.56221 0.40391 0.0
H2160 H 0.75131 0.54859 0.33792 0.0
H2161 H 0.77449 0.54809 0.39327 0.0
H2162 H 0.77994 0.56755 0.33267 0.0
H2163 H 0.78225 0.66338 0.41125 0.0
H2164 H 0.80972 0.65399 0.49222 0.0
H2165 H 0.78731 0.57441 0.48388 0.0
C2166 C 0.72206 0.59704 0.30256 0.0
C2167 C 0.71394 0.61766 0.26748 0.0
C2168 C 0.72512 0.64194 0.27772 0.0
C2169 C 0.74355 0.64582 0.32019 0.0
C2170 C 0.75093 0.62537 0.35414 0.0
C2171 C 0.74049 0.60138 0.3459 0.0
C2172 C 0.75135 0.5829 0.38971 0.0
C2173 C 0.72975 0.57337 0.42782 0.0
C2174 C 0.76512 0.56043 0.36178 0.0
C2175 C 0.77024 0.59987 0.42229 0.0
C2176 C 0.76911 0.6245 0.4017 0.0
C2177 C 0.78333 0.64404 0.42691 0.0
C2178 C 0.799 0.63851 0.47349 0.0
C2179 C 0.80137 0.61341 0.49524 0.0
C2180 C 0.78658 0.59381 0.46847 0.0
H2181 H 0.63782 0.23827 0.50691 0.0
H2182 H 0.573 0.19225 0.55792 0.0
H2183 H 0.56893 0.21753 0.64289 0.0
H2184 H 0.66446 0.25156 0.64534 0.0
H2185 H 0.67181 0.28462 0.63181 0.0
H2186 H 0.67135 0.26188 0.57571 0.0
H2187 H 0.63929 0.29027 0.52437 0.0
H2188 H 0.63776 0.3129 0.58068 0.0
H2189 H 0.60897 0.29767 0.55587 0.0
H2190 H 0.57172 0.24762 0.72688 0.0
H2191 H 0.57845 0.28192 0.79543 0.0
H2192 H 0.63867 0.31353 0.69255 0.0
C2193 C 0.62279 0.2334 0.53592 0.0
C2194 C 0.60632 0.21181 0.52491 0.0
C2195 C 0.58671 0.20735 0.56477 0.0
C2196 C 0.58401 0.22203 0.61371 0.0
C2197 C 0.60052 0.24254 0.62373 0.0
C2198 C 0.61932 0.24866 0.58549 0.0
C2199 C 0.63335 0.27294 0.60595 0.0
C2200 C 0.66195 0.26742 0.61523 0.0
C2201 C 0.62968 0.29478 0.56427 0.0
C2202 C 0.61981 0.27908 0.66148 0.0
C2203 C 0.60106 0.26097 0.67081 0.0
C2204 C 0.58631 0.2619 0.7194 0.0
C2205 C 0.59046 0.28159 0.75895 0.0
C2206 C 0.60924 0.30095 0.75135 0.0
C2207 C 0.62406 0.29937 0.70092 0.0
H2208 H 0.3729 0.08896 0.49253 0.0
H2209 H 0.34967 0.16836 0.50107 0.0
H2210 H 0.347 0.16546 0.60314 0.0
H2211 H 0.33326 0.06516 0.60403 0.0
H2212 H 0.35748 0.04366 0.62978 0.0
H2213 H 0.35669 0.05181 0.55743 0.0
H2214 H 0.40387 0.06679 0.5632 0.0
H2215 H 0.40485 0.05921 0.63593 0.0
H2216 H 0.41277 0.09096 0.61277 0.0
H2217 H 0.35096 0.15519 0.70324 0.0
H2218 H 0.35309 0.13563 0.79636 0.0
H2219 H 0.37109 0.06236 0.72231 0.0
C2220 C 0.36682 0.10549 0.51613 0.0
C2221 C 0.3615 0.12888 0.48995 0.0
C2222 C 0.35389 0.15037 0.5213 0.0
C2223 C 0.35246 0.14893 0.57893 0.0
C2224 C 0.35884 0.12588 0.604 0.0
C2225 C 0.36542 0.10441 0.57375 0.0
C2226 C 0.37162 0.0821 0.6111 0.0
C2227 C 0.35367 0.05936 0.59994 0.0
C2228 C 0.39996 0.07431 0.60539 0.0
C2229 C 0.36656 0.0942 0.66685 0.0
C2230 C 0.36002 0.11966 0.66189 0.0
C2231 C 0.35563 0.13516 0.70779 0.0
C2232 C 0.35687 0.12395 0.76029 0.0
C2233 C 0.36149 0.09747 0.76566 0.0
C2234 C 0.36713 0.0826 0.71867 0.0
H2235 H 0.14186 0.63275 0.52991 0.0
H2236 H 0.09358 0.70003 0.53372 0.0
H2237 H 0.07395 0.68711 0.44433 0.0
H2238 H 0.15695 0.63325 0.39286 0.0
H2239 H 0.15539 0.59924 0.38159 0.0
H2240 H 0.16268 0.61145 0.44932 0.0
H2241 H 0.12454 0.58622 0.49123 0.0
H2242 H 0.11734 0.57351 0.4236 0.0
H2243 H 0.09292 0.59011 0.46223 0.0
H2244 H 0.06661 0.67149 0.34739 0.0
H2245 H 0.06595 0.64986 0.25623 0.0
H2246 H 0.11755 0.59176 0.31908 0.0
C2247 C 0.1269 0.64449 0.51196 0.0
C2248 C 0.11928 0.66746 0.53721 0.0
C2249 C 0.09954 0.68242 0.51398 0.0
C2250 C 0.08837 0.67521 0.4636 0.0
C2251 C 0.09716 0.65299 0.43806 0.0
C2252 C 0.11545 0.63745 0.46223 0.0
C2253 C 0.1222 0.61504 0.4257 0.0
C2254 C 0.151 0.61476 0.41152 0.0
C2255 C 0.11374 0.58972 0.4523 0.0
C2256 C 0.10601 0.62121 0.37579 0.0
C2257 C 0.0916 0.6431 0.38368 0.0
C2258 C 0.07704 0.65383 0.34132 0.0
C2259 C 0.07689 0.64155 0.28981 0.0
C2260 C 0.09117 0.61884 0.28158 0.0
C2261 C 0.10576 0.60857 0.32515 0.0
H2262 H 0.66804 0.84575 0.50802 0.0
H2263 H 0.69217 0.92232 0.464 0.0
H2264 H 0.67385 0.93876 0.55194 0.0
H2265 H 0.60786 0.86494 0.57513 0.0
H2266 H 0.61036 0.84019 0.6267 0.0
H2267 H 0.62374 0.83528 0.55875 0.0
H2268 H 0.66882 0.82578 0.60264 0.0
H2269 H 0.65423 0.82971 0.6696 0.0
H2270 H 0.68187 0.84839 0.65151 0.0
H2271 H 0.65867 0.94506 0.65107 0.0
H2272 H 0.64026 0.94229 0.74576 0.0
H2273 H 0.62435 0.86192 0.72023 0.0
C2274 C 0.66935 0.86599 0.51691 0.0
C2275 C 0.68178 0.88279 0.48021 0.0
C2276 C 0.68272 0.90924 0.49212 0.0
C2277 C 0.67238 0.91868 0.54172 0.0
C2278 C 0.66112 0.90134 0.57823 0.0
C2279 C 0.65909 0.87565 0.56577 0.0
C2280 C 0.64617 0.86089 0.61161 0.0
C2281 C 0.62051 0.84967 0.59185 0.0
C2282 C 0.66385 0.83997 0.63512 0.0
C2283 C 0.6421 0.88209 0.65286 0.0
C2284 C 0.65106 0.90527 0.63334 0.0
C2285 C 0.65094 0.92719 0.66617 0.0
C2286 C 0.64066 0.92543 0.71973 0.0
C2287 C 0.63047 0.90203 0.73903 0.0
C2288 C 0.63145 0.88014 0.70547 0.0
H2289 H 0.90818 0.3991 0.28892 0.0
H2290 H 0.93959 0.32218 0.28621 0.0
H2291 H 0.93216 0.31826 0.38587 0.0
H2292 H 0.93443 0.41642 0.42418 0.0
H2293 H 0.90667 0.43427 0.446 0.0
H2294 H 0.91463 0.43221 0.37348 0.0
H2295 H 0.86939 0.4143 0.35207 0.0
H2296 H 0.86121 0.41652 0.42436 0.0
H2297 H 0.85816 0.38643 0.38864 0.0
H2298 H 0.92522 0.32357 0.48266 0.0
H2299 H 0.9068 0.32991 0.57343 0.0
H2300 H 0.8806 0.40537 0.52073 0.0
C2301 C 0.91332 0.38146 0.30949 0.0
C2302 C 0.92486 0.36105 0.28003 0.0
C2303 C 0.93123 0.3382 0.30812 0.0
C2304 C 0.92718 0.33581 0.36476 0.0
C2305 C 0.91678 0.35649 0.39291 0.0
C2306 C 0.90943 0.37871 0.36667 0.0
C2307 C 0.89775 0.39736 0.40798 0.0
C2308 C 0.91436 0.4215 0.4132 0.0
C2309 C 0.86997 0.40403 0.39231 0.0
C2310 C 0.89893 0.38151 0.46064 0.0
C2311 C 0.91069 0.35851 0.45054 0.0
C2312 C 0.91482 0.34074 0.49156 0.0
C2313 C 0.90472 0.34519 0.54394 0.0
C2314 C 0.89134 0.36814 0.55618 0.0
C2315 C 0.88948 0.38703 0.51374 0.0
H2316 H 0.39309 0.3659 0.55808 0.0
H2317 H 0.36139 0.43959 0.51319 0.0
H2318 H 0.33994 0.44231 0.60454 0.0
H2319 H 0.33891 0.34199 0.62296 0.0
H2320 H 0.35575 0.32547 0.67737 0.0
H2321 H 0.37112 0.33076 0.61172 0.0
H2322 H 0.40897 0.35347 0.66004 0.0
H2323 H 0.39412 0.34814 0.72642 0.0
H2324 H 0.40283 0.38005 0.7056 0.0
H2325 H 0.32131 0.43619 0.7001 0.0
H2326 H 0.30304 0.41958 0.78793 0.0
H2327 H 0.34523 0.34902 0.76638 0.0
C2328 C 0.382 0.38279 0.56802 0.0
C2329 C 0.37916 0.40274 0.52952 0.0
C2330 C 0.36389 0.42425 0.54278 0.0
C2331 C 0.35184 0.42601 0.59449 0.0
C2332 C 0.35507 0.40595 0.63177 0.0
C2333 C 0.36957 0.38464 0.61884 0.0
C2334 C 0.36859 0.36487 0.66421 0.0
C2335 C 0.35794 0.33929 0.64278 0.0
C2336 C 0.3952 0.36144 0.69065 0.0
C2337 C 0.35023 0.37778 0.70358 0.0
C2338 C 0.34332 0.40183 0.68516 0.0
C2339 C 0.32656 0.41739 0.71493 0.0
C2340 C 0.31615 0.40782 0.76422 0.0
C2341 C 0.32238 0.38292 0.78231 0.0
C2342 C 0.33982 0.36789 0.75217 0.0
H2343 H 0.3787 0.65296 0.23825 0.0
H2344 H 0.44095 0.70765 0.24201 0.0
H2345 H 0.45607 0.68934 0.33093 0.0
H2346 H 0.36232 0.65685 0.37458 0.0
H2347 H 0.35518 0.62351 0.38509 0.0
H2348 H 0.35207 0.63727 0.31727 0.0
H2349 H 0.38323 0.60343 0.27691 0.0
H2350 H 0.38611 0.5892 0.34459 0.0
H2351 H 0.41442 0.59927 0.30783 0.0
H2352 H 0.45858 0.6714 0.42648 0.0
H2353 H 0.45298 0.64977 0.5167 0.0
H2354 H 0.38925 0.60649 0.44951 0.0
C2355 C 0.39577 0.66065 0.25765 0.0
C2356 C 0.40882 0.68156 0.23444 0.0
C2357 C 0.43095 0.69154 0.26002 0.0
C2358 C 0.43964 0.68121 0.31004 0.0
C2359 C 0.42565 0.66129 0.33361 0.0
C2360 C 0.40448 0.65075 0.30774 0.0
C2361 C 0.39184 0.63063 0.3433 0.0
C2362 C 0.3637 0.6375 0.3558 0.0
C2363 C 0.39404 0.60406 0.31654 0.0
C2364 C 0.40835 0.63248 0.3944 0.0
C2365 C 0.42781 0.65017 0.38799 0.0
C2366 C 0.44402 0.65685 0.43145 0.0
C2367 C 0.44057 0.64466 0.48248 0.0
C2368 C 0.42106 0.6261 0.48928 0.0
C2369 C 0.40484 0.61997 0.44466 0.0
H2370 H 0.67904 0.57788 0.77958 0.0
H2371 H 0.69121 0.65973 0.77368 0.0
H2372 H 0.66889 0.66171 0.68336 0.0
H2373 H 0.68982 0.5641 0.63375 0.0
H2374 H 0.66552 0.54 0.63478 0.0
H2375 H 0.68244 0.54771 0.69751 0.0
H2376 H 0.6362 0.55432 0.74028 0.0
H2377 H 0.62141 0.54941 0.6737 0.0
H2378 H 0.61564 0.57859 0.71127 0.0
H2379 H 0.64944 0.65443 0.59121 0.0
H2380 H 0.6322 0.6385 0.50262 0.0
H2381 H 0.63351 0.56104 0.56676 0.0
C2382 C 0.67684 0.59614 0.75904 0.0
C2383 C 0.68694 0.61866 0.78254 0.0
C2384 C 0.68377 0.64234 0.75542 0.0
C2385 C 0.67098 0.64363 0.7046 0.0
C2386 C 0.66183 0.62102 0.68152 0.0
C2387 C 0.66449 0.59768 0.70777 0.0
C2388 C 0.65368 0.57616 0.67278 0.0
C2389 C 0.67412 0.55587 0.65905 0.0
C2390 C 0.63034 0.56392 0.70123 0.0
C2391 C 0.64574 0.59098 0.62181 0.0
C2392 C 0.65028 0.61683 0.6281 0.0
C2393 C 0.64553 0.63427 0.58589 0.0
C2394 C 0.63595 0.62502 0.53566 0.0
C2395 C 0.63147 0.59855 0.52801 0.0
C2396 C 0.63625 0.58141 0.57188 0.0
H2397 H 0.60164 0.32889 0.48034 0.0
H2398 H 0.58242 0.40777 0.51677 0.0
H2399 H 0.5916 0.41925 0.41902 0.0
H2400 H 0.64952 0.33754 0.38602 0.0
H2401 H 0.6401 0.31385 0.33709 0.0
H2402 H 0.63279 0.30939 0.40927 0.0
H2403 H 0.58702 0.30292 0.39062 0.0
H2404 H 0.58442 0.31151 0.31831 0.0
H2405 H 0.56705 0.32902 0.36838 0.0
H2406 H 0.60287 0.42062 0.31342 0.0
H2407 H 0.61466 0.41194 0.21541 0.0
H2408 H 0.61994 0.33124 0.25155 0.0
C2409 C 0.59927 0.34867 0.46843 0.0
C2410 C 0.591 0.36727 0.50635 0.0
C2411 C 0.58885 0.39305 0.48853 0.0
C2412 C 0.59388 0.39974 0.43298 0.0
C2413 C 0.60077 0.38037 0.39611 0.0
C2414 C 0.60343 0.35547 0.41373 0.0
C2415 C 0.60839 0.33747 0.36677 0.0
C2416 C 0.63414 0.32367 0.37536 0.0
C2417 C 0.58555 0.31903 0.36082 0.0
C2418 C 0.60948 0.356 0.31917 0.0
C2419 C 0.60498 0.38079 0.33652 0.0
C2420 C 0.6061 0.40123 0.29955 0.0
C2421 C 0.61264 0.39615 0.24406 0.0
C2422 C 0.61752 0.37083 0.22616 0.0
C2423 C 0.61546 0.35058 0.26403 0.0
H2424 H 0.86893 0.59871 0.97867 0.0
H2425 H 0.8449 0.67792 0.98519 0.0
H2426 H 0.83927 0.67466 0.08657 0.0
H2427 H 0.82691 0.57361 0.07894 0.0
H2428 H 0.84957 0.55284 0.1128 0.0
H2429 H 0.85331 0.56048 0.0406 0.0
H2430 H 0.8988 0.57741 0.05559 0.0
H2431 H 0.89664 0.56902 0.12779 0.0
H2432 H 0.90477 0.60121 0.10797 0.0
H2433 H 0.83705 0.66341 0.18541 0.0
H2434 H 0.83582 0.64372 0.27837 0.0
H2435 H 0.86106 0.57165 0.20838 0.0
C2436 C 0.86223 0.61515 1.00177 0.0
C2437 C 0.85724 0.63855 0.97527 0.0
C2438 C 0.84878 0.65994 1.00577 0.0
C2439 C 0.84568 0.65828 0.06299 0.0
C2440 C 0.85123 0.63511 0.08849 0.0
C2441 C 0.85917 0.61385 0.05908 0.0
C2442 C 0.86415 0.59142 0.09705 0.0
C2443 C 0.84746 0.56826 0.08151 0.0
C2444 C 0.89279 0.58436 0.0971 0.0
C2445 C 0.85633 0.60308 0.15183 0.0
C2446 C 0.84966 0.62848 0.14604 0.0
C2447 C 0.84228 0.64356 0.19077 0.0
C2448 C 0.84158 0.63228 0.2431 0.0
C2449 C 0.84805 0.60625 0.24973 0.0
C2450 C 0.85557 0.59149 0.20372 0.0
H2451 H 0.56772 0.14098 0.81559 0.0
H2452 H 0.6333 0.17816 0.73975 0.0
H2453 H 0.65475 0.18009 0.83064 0.0
H2454 H 0.5663 0.17672 0.94062 0.0
H2455 H 0.55824 0.14979 0.98379 0.0
H2456 H 0.54845 0.15027 0.91231 0.0
H2457 H 0.57142 0.107 0.89525 0.0
H2458 H 0.58097 0.1062 0.96689 0.0
H2459 H 0.60482 0.10377 0.91315 0.0
H2460 H 0.66801 0.17996 0.92955 0.0
H2461 H 0.67425 0.17363 0.03018 0.0
H2462 H 0.59963 0.13762 0.04175 0.0
C2463 C 0.58633 0.15007 0.81847 0.0
C2464 C 0.59876 0.15981 0.77121 0.0
C2465 C 0.6235 0.17069 0.77583 0.0
C2466 C 0.63573 0.17199 0.82716 0.0
C2467 C 0.62271 0.16273 0.87326 0.0
C2468 C 0.59871 0.15173 0.86938 0.0
C2469 C 0.58929 0.14238 0.92492 0.0
C2470 C 0.56408 0.1556 0.94139 0.0
C2471 C 0.58647 0.11311 0.92503 0.0
C2472 C 0.61136 0.15078 0.96105 0.0
C2473 C 0.63053 0.16228 0.93029 0.0
C2474 C 0.65319 0.17098 0.95412 0.0
C2475 C 0.65657 0.16735 0.01092 0.0
C2476 C 0.63736 0.15523 0.04261 0.0
C2477 C 0.61437 0.14716 0.01783 0.0
H2478 H 0.12849 0.43269 0.20993 0.0
H2479 H 0.13731 0.35414 0.26375 0.0
H2480 H 0.15585 0.34288 0.17284 0.0
H2481 H 0.11337 0.41732 0.06271 0.0
H2482 H 0.13075 0.44473 0.0375 0.0
H2483 H 0.11538 0.44582 0.1043 0.0
H2484 H 0.15763 0.45945 0.14584 0.0
H2485 H 0.17557 0.45601 0.08265 0.0
H2486 H 0.18492 0.4388 0.14401 0.0
H2487 H 0.17311 0.33997 0.07788 0.0
H2488 H 0.19616 0.34703 0.98968 0.0
H2489 H 0.17812 0.42776 0.99766 0.0
C2490 C 0.13402 0.41308 0.20203 0.0
C2491 C 0.13134 0.39415 0.24318 0.0
C2492 C 0.13928 0.36881 0.23241 0.0
C2493 C 0.14953 0.36222 0.18088 0.0
C2494 C 0.15171 0.38123 0.14088 0.0
C2495 C 0.1445 0.40623 0.15093 0.0
C2496 C 0.1508 0.42334 0.1022 0.0
C2497 C 0.12611 0.43338 0.07505 0.0
C2498 C 0.16832 0.44564 0.11958 0.0
C2499 C 0.16424 0.40426 0.0648 0.0
C2500 C 0.16338 0.37991 0.08693 0.0
C2501 C 0.17406 0.35891 0.06006 0.0
C2502 C 0.18718 0.36306 1.01043 0.0
C2503 C 0.18916 0.3879 0.98825 0.0
C2504 C 0.17706 0.40867 0.01481 0.0
H2505 H 0.36622 0.83998 1.00273 0.0
H2506 H 0.44152 0.81193 0.04832 0.0
H2507 H 0.4592 0.82851 0.9601 0.0
H2508 H 0.36911 0.82609 0.85798 0.0
H2509 H 0.35226 0.8547 0.83883 0.0
H2510 H 0.34663 0.84047 0.90554 0.0
H2511 H 0.35823 0.88432 0.95089 0.0
H2512 H 0.36448 0.89763 0.88346 0.0
H2513 H 0.38893 0.89862 0.93614 0.0
H2514 H 0.46783 0.84565 0.86531 0.0
H2515 H 0.46782 0.86588 0.77242 0.0
H2516 H 0.38707 0.88346 0.79004 0.0
C2517 C 0.38643 0.83746 0.994 0.0
C2518 C 0.4026 0.82454 0.03146 0.0
C2519 C 0.42899 0.82178 0.01963 0.0
C2520 C 0.43912 0.83113 0.9699 0.0
C2521 C 0.42261 0.84355 0.93337 0.0
C2522 C 0.39688 0.84701 0.94506 0.0
C2523 C 0.38323 0.86085 0.89864 0.0
C2524 C 0.36154 0.84452 0.87387 0.0
C2525 C 0.37313 0.8869 0.91848 0.0
C2526 C 0.40515 0.86395 0.8583 0.0
C2527 C 0.42768 0.85381 0.87908 0.0
C2528 C 0.45043 0.85397 0.84885 0.0
C2529 C 0.45028 0.86536 0.79643 0.0
C2530 C 0.42755 0.87627 0.77532 0.0
C2531 C 0.40467 0.87533 0.8061 0.0
H2532 H 0.8349 0.93283 0.27859 0.0
H2533 H 0.82925 0.85034 0.26984 0.0
H2534 H 0.85124 0.85078 0.179 0.0
H2535 H 0.82268 0.94647 0.13175 0.0
H2536 H 0.84457 0.97269 0.13497 0.0
H2537 H 0.82807 0.96272 0.19671 0.0
H2538 H 0.87499 0.96033 0.23947 0.0
H2539 H 0.88931 0.96681 0.17305 0.0
H2540 H 0.89762 0.93809 0.20999 0.0
H2541 H 0.87035 0.86023 0.08753 0.0
H2542 H 0.88605 0.87811 0.99946 0.0
H2543 H 0.87803 0.95479 0.06591 0.0
C2544 C 0.8385 0.91495 0.25735 0.0
C2545 C 0.83041 0.89152 0.28018 0.0
C2546 C 0.83525 0.86838 0.25211 0.0
C2547 C 0.84783 0.86848 0.20098 0.0
C2548 C 0.85513 0.89192 0.17872 0.0
C2549 C 0.85068 0.91478 0.20582 0.0
C2550 C 0.85953 0.93735 0.17145 0.0
C2551 C 0.83736 0.95581 0.15811 0.0
C2552 C 0.88169 0.95146 0.20023 0.0
C2553 C 0.8687 0.92357 0.12011 0.0
C2554 C 0.8663 0.89739 0.12553 0.0
C2555 C 0.87252 0.88068 0.08283 0.0
C2556 C 0.88123 0.89103 0.03292 0.0
C2557 C 0.88329 0.91784 0.026 0.0
C2558 C 0.87718 0.93423 0.07045 0.0
H2559 H 0.89182 0.10361 0.97099 0.0
H2560 H 0.94734 0.16322 1.00338 0.0
H2561 H 0.94207 0.17923 0.90707 0.0
H2562 H 0.90886 0.09114 0.82933 0.0
H2563 H 0.87615 0.0863 0.80759 0.0
H2564 H 0.88547 0.07909 0.87769 0.0
H2565 H 0.85021 0.10948 0.91537 0.0
H2566 H 0.84047 0.11644 0.84554 0.0
H2567 H 0.84919 0.14211 0.89158 0.0
H2568 H 0.93011 0.18799 0.80505 0.0
H2569 H 0.90808 0.1929 0.7145 0.0
H2570 H 0.85994 0.12783 0.75305 0.0
C2571 C 0.90284 0.12002 0.95756 0.0
C2572 C 0.92011 0.13215 0.99363 0.0
C2573 C 0.93405 0.15377 0.97564 0.0
C2574 C 0.93124 0.16284 0.92116 0.0
C2575 C 0.91417 0.15019 0.886 0.0
C2576 C 0.89995 0.12947 0.90402 0.0
C2577 C 0.88182 0.11999 0.85996 0.0
C2578 C 0.88848 0.0925 0.84262 0.0
C2579 C 0.85377 0.12215 0.87927 0.0
C2580 C 0.88768 0.13874 0.8143 0.0
C2581 C 0.9067 0.15577 0.82934 0.0
C2582 C 0.91495 0.17497 0.79335 0.0
C2583 C 0.90253 0.17749 0.74189 0.0
C2584 C 0.88211 0.16094 0.72744 0.0
C2585 C 0.87525 0.14095 0.76352 0.0
H2586 H 0.11956 0.07647 0.07077 0.0
H2587 H 0.14709 0.14728 0.9992 0.0
H2588 H 0.16714 0.15887 0.08845 0.0
H2589 H 0.10166 0.09956 0.19656 0.0
H2590 H 0.1123 0.0727 0.23723 0.0
H2591 H 0.10378 0.06823 0.16583 0.0
H2592 H 0.14863 0.04866 0.14636 0.0
H2593 H 0.15722 0.05311 0.21803 0.0
H2594 H 0.17704 0.06648 0.16419 0.0
H2595 H 0.17535 0.16671 0.1869 0.0
H2596 H 0.17726 0.16804 0.28886 0.0
H2597 H 0.14622 0.09145 0.29685 0.0
C2598 C 0.13015 0.09421 0.07403 0.0
C2599 C 0.13165 0.11122 0.02903 0.0
C2600 C 0.14578 0.13416 0.03377 0.0
C2601 C 0.15728 0.14079 0.08398 0.0
C2602 C 0.15489 0.12393 0.12821 0.0
C2603 C 0.14215 0.10087 0.12354 0.0
C2604 C 0.14096 0.08704 0.17842 0.0
C2605 C 0.11302 0.08159 0.1955 0.0
C2606 C 0.15692 0.06236 0.17663 0.0
C2607 C 0.15336 0.10679 0.2154 0.0
C2608 C 0.16153 0.12778 0.18534 0.0
C2609 C 0.17039 0.14993 0.21075 0.0
C2610 C 0.17132 0.15059 0.2684 0.0
C2611 C 0.16262 0.12954 0.29956 0.0
C2612 C 0.15397 0.10722 0.27314 0.0
H2613 H 0.13095 0.8222 0.77711 0.0
H2614 H 0.14823 0.89053 0.68439 0.0
H2615 H 0.14221 0.91628 0.76972 0.0
H2616 H 0.08226 0.84864 0.8623 0.0
H2617 H 0.091 0.83073 0.92324 0.0
H2618 H 0.09682 0.81762 0.85596 0.0
H2619 H 0.14485 0.8118 0.87874 0.0
H2620 H 0.1393 0.82461 0.9469 0.0
H2621 H 0.16327 0.83877 0.90275 0.0
H2622 H 0.13439 0.93393 0.86494 0.0
H2623 H 0.12245 0.94303 0.96181 0.0
H2624 H 0.11052 0.86201 0.99055 0.0
C2625 C 0.13416 0.84229 0.77501 0.0
C2626 C 0.14088 0.85415 0.72488 0.0
C2627 C 0.14346 0.88104 0.72287 0.0
C2628 C 0.14016 0.89572 0.77099 0.0
C2629 C 0.13416 0.88309 0.82018 0.0
C2630 C 0.1309 0.85697 0.82233 0.0
C2631 C 0.12361 0.84794 0.87969 0.0
C2632 C 0.09684 0.83554 0.88023 0.0
C2633 C 0.14399 0.82971 0.90341 0.0
C2634 C 0.1234 0.87319 0.90971 0.0
C2635 C 0.12953 0.89321 0.87477 0.0
C2636 C 0.12957 0.91844 0.89271 0.0
C2637 C 0.12262 0.92341 0.94759 0.0
C2638 C 0.11549 0.90324 0.98348 0.0
C2639 C 0.11631 0.87779 0.96439 0.0
loop_
_geom_bond_atom_site_label_1
_geom_bond_atom_site_label_2
_geom_bond_distance
_geom_bond_site_symmetry_2
_ccdc_geom_bond_type
C0 C2 1.422 . S
C0 C4 1.415 . S
C0 N6 1.369 . S
C1 C2 1.421 . S
C1 C3 1.417 . S
C1 C13 1.422 . S
C2 C0 1.422 . S
C2 C1 1.421 . S
C2 N12 1.359 . S
C3 C1 1.417 . S
C3 C5 1.329 . S
C3 H22 0.930 . S
C4 C0 1.415 . S
C4 C5 1.437 . S
C4 C8 1.413 . S
C5 C3 1.329 . S
C5 C4 1.437 . S
C5 H27 0.929 . S
N6 C0 1.369 . S
N6 C7 1.338 . S
N6 Gd11 2.622 . S
C7 N6 1.338 . S
C7 C9 1.378 . S
C7 H19 0.929 . S
C8 C4 1.413 . S
C8 C9 1.348 . S
C8 H24 0.931 . S
C9 C7 1.378 . S
C9 C8 1.348 . S
C9 H25 0.930 . S
Gd10 N30 2.622 . S
Gd10 N37 2.570 . S
Gd10 O44 2.353 . S
Gd10 O45 2.468 1_554 S
Gd10 O46 2.427 1_554 S
Gd10 O48 2.388 . S
Gd10 O49 2.386 . S
Gd10 O53 2.307 . S
Gd10 C63 2.805 1_554 S
Gd11 N6 2.622 . S
Gd11 N12 2.570 . S
Gd11 O43 2.386 . S
Gd11 O47 2.307 . S
Gd11 O50 2.353 . S
Gd11 O51 2.468 . S
Gd11 O52 2.427 . S
Gd11 O54 2.388 . S
Gd11 C75 2.805 . S
N12 C2 1.359 . S
N12 Gd11 2.570 . S
N12 C14 1.343 . S
C13 C1 1.422 . S
C13 C15 1.321 . S
C13 H21 0.931 . S
C14 N12 1.343 . S
C14 C15 1.390 . S
C14 H16 0.931 . S
C15 C13 1.321 . S
C15 C14 1.390 . S
C15 H17 0.930 . S
H16 C14 0.931 . S
H17 C15 0.930 . S
H18 C41 0.931 . S
H19 C7 0.929 . S
H20 C42 0.930 . S
H21 C13 0.931 . S
H22 C3 0.930 . S
H23 C32 0.929 . S
H24 C8 0.931 . S
H25 C9 0.930 . S
H26 C64 0.930 . S
H27 C5 0.929 . S
H28 C33 0.931 . S
H29 C34 0.930 . S
N30 Gd10 2.622 . S
N30 C31 1.369 . S
N30 C32 1.338 . S
C31 N30 1.369 . S
C31 C35 1.415 . S
C31 C38 1.422 . S
C32 H23 0.929 . S
C32 N30 1.338 . S
C32 C34 1.378 . S
C33 H28 0.931 . S
C33 C34 1.348 . S
C33 C35 1.413 . S
C34 H29 0.930 . S
C34 C32 1.378 . S
C34 C33 1.348 . S
C35 C31 1.415 . S
C35 C33 1.413 . S
C35 C65 1.437 . S
H36 C65 0.929 . S
N37 Gd10 2.570 . S
N37 C38 1.359 . S
N37 C41 1.343 . S
C38 C31 1.422 . S
C38 N37 1.359 . S
C38 C40 1.421 . S
C39 C40 1.422 . S
C39 C42 1.321 . S
C39 H66 0.931 . S
C40 C38 1.421 . S
C40 C39 1.422 . S
C40 C64 1.417 . S
C41 H18 0.931 . S
C41 N37 1.343 . S
C41 C42 1.390 . S
C42 H20 0.930 . S
C42 C39 1.321 . S
C42 C41 1.390 . S
O43 Gd11 2.386 . S
O43 C55 1.265 . S
O44 Gd10 2.353 . S
O44 C55 1.242 . S
O45 Gd10 2.468 1_556 S
O45 C63 1.263 . S
O46 Gd10 2.427 1_556 S
O46 C63 1.252 . S
O47 Gd11 2.307 . S
O47 C56 1.261 . S
O48 Gd10 2.388 . S
O48 C56 1.252 . S
O49 Gd10 2.386 . S
O49 C67 1.265 . S
O50 Gd11 2.353 . S
O50 C67 1.242 . S
O51 Gd11 2.468 . S
O51 C75 1.263 . S
O52 Gd11 2.427 . S
O52 C75 1.252 . S
O53 Gd10 2.307 . S
O53 C68 1.261 . S
O54 Gd11 2.388 . S
O54 C68 1.252 . S
C55 O43 1.265 . S
C55 O44 1.242 . S
C56 O47 1.261 . S
C56 O48 1.252 . S
C57 C60 1.394 . S
C57 C62 1.370 . S
C57 C63 1.500 . S
C58 C61 1.383 . S
C58 C62 1.395 . S
C59 C60 1.396 . S
C59 C61 1.365 . S
C59 H76 0.929 . S
C60 C57 1.394 . S
C60 C59 1.396 . S
C60 H77 0.930 . S
C61 C58 1.383 . S
C61 C59 1.365 . S
C61 H78 0.931 . S
C62 C57 1.370 . S
C62 C58 1.395 . S
C62 H79 0.930 . S
C63 Gd10 2.805 1_556 S
C63 O45 1.263 . S
C63 O46 1.252 . S
C63 C57 1.500 . S
C64 H26 0.930 . S
C64 C40 1.417 . S
C64 C65 1.329 . S
C65 C35 1.437 . S
C65 H36 0.929 . S
C65 C64 1.329 . S
H66 C39 0.931 . S
C67 O49 1.265 . S
C67 O50 1.242 . S
C68 O53 1.261 . S
C68 O54 1.252 . S
C69 C72 1.394 . S
C69 C74 1.370 . S
C69 C75 1.500 . S
C70 C73 1.383 . S
C70 C74 1.395 . S
C71 C72 1.396 . S
C71 C73 1.365 . S
C71 H80 0.929 . S
C72 C69 1.394 . S
C72 C71 1.396 . S
C72 H81 0.930 . S
C73 C70 1.383 . S
C73 C71 1.365 . S
C73 H82 0.931 . S
C74 C69 1.370 . S
C74 C70 1.395 . S
C74 H83 0.930 . S
C75 Gd11 2.805 . S
C75 O51 1.263 . S
C75 O52 1.252 . S
C75 C69 1.500 . S
H76 C59 0.929 . S
H77 C60 0.930 . S
H78 C61 0.931 . S
H79 C62 0.930 . S
H80 C71 0.929 . S
H81 C72 0.930 . S
H82 C73 0.931 . S
H83 C74 0.930 . S
C84 C86 1.422 . S
C84 C88 1.415 . S
C84 N90 1.369 . S
C85 C86 1.421 . S
C85 C87 1.417 . S
C85 C97 1.422 . S
C86 C84 1.422 . S
C86 C85 1.421 . S
C86 N96 1.359 . S
C87 C85 1.417 . S
C87 C89 1.329 . S
C87 H106 0.930 . S
C88 C84 1.415 . S
C88 C89 1.437 . S
C88 C92 1.413 . S
C89 C87 1.329 . S
C89 C88 1.437 . S
C89 H111 0.929 . S
N90 C84 1.369 . S
N90 C91 1.338 . S
N90 Gd95 2.622 . S
C91 N90 1.338 . S
C91 C93 1.378 . S
C91 H103 0.929 . S
C92 C88 1.413 . S
C92 C93 1.348 . S
C92 H108 0.931 . S
C93 C91 1.378 . S
C93 C92 1.348 . S
C93 H109 0.930 . S
Gd94 N114 2.622 . S
Gd94 N121 2.570 . S
Gd94 O128 2.353 . S
Gd94 O129 2.468 . S
Gd94 O130 2.427 . S
Gd94 O132 2.388 . S
Gd94 O133 2.386 . S
Gd94 O137 2.307 . S
Gd94 C147 2.805 . S
Gd95 N90 2.622 . S
Gd95 N96 2.570 . S
Gd95 O127 2.386 . S
Gd95 O131 2.307 . S
Gd95 O134 2.353 . S
Gd95 O135 2.468 1_556 S
Gd95 O136 2.427 1_556 S
Gd95 O138 2.388 . S
Gd95 C159 2.805 1_556 S
N96 C86 1.359 . S
N96 Gd95 2.570 . S
N96 C98 1.343 . S
C97 C85 1.422 . S
C97 C99 1.321 . S
C97 H105 0.931 . S
C98 N96 1.343 . S
C98 C99 1.390 . S
C98 H100 0.931 . S
C99 C97 1.321 . S
C99 C98 1.390 . S
C99 H101 0.930 . S
H100 C98 0.931 . S
H101 C99 0.930 . S
H102 C125 0.931 . S
H103 C91 0.929 . S
H104 C126 0.930 . S
H105 C97 0.931 . S
H106 C87 0.930 . S
H107 C116 0.929 . S
H108 C92 0.931 . S
H109 C93 0.930 . S
H110 C148 0.930 . S
H111 C89 0.929 . S
H112 C117 0.931 . S
H113 C118 0.930 . S
N114 Gd94 2.622 . S
N114 C115 1.369 . S
N114 C116 1.338 . S
C115 N114 1.369 . S
C115 C119 1.415 . S
C115 C122 1.422 . S
C116 H107 0.929 . S
C116 N114 1.338 . S
C116 C118 1.378 . S
C117 H112 0.931 . S
C117 C118 1.348 . S
C117 C119 1.413 . S
C118 H113 0.930 . S
C118 C116 1.378 . S
C118 C117 1.348 . S
C119 C115 1.415 . S
C119 C117 1.413 . S
C119 C149 1.437 . S
H120 C149 0.929 . S
N121 Gd94 2.570 . S
N121 C122 1.359 . S
N121 C125 1.343 . S
C122 C115 1.422 . S
C122 N121 1.359 . S
C122 C124 1.421 . S
C123 C124 1.422 . S
C123 C126 1.321 . S
C123 H150 0.931 . S
C124 C122 1.421 . S
C124 C123 1.422 . S
C124 C148 1.417 . S
C125 H102 0.931 . S
C125 N121 1.343 . S
C125 C126 1.390 . S
C126 H104 0.930 . S
C126 C123 1.321 . S
C126 C125 1.390 . S
O127 Gd95 2.386 . S
O127 C139 1.265 . S
O128 Gd94 2.353 . S
O128 C139 1.242 . S
O129 Gd94 2.468 . S
O129 C147 1.263 . S
O130 Gd94 2.427 . S
O130 C147 1.252 . S
O131 Gd95 2.307 . S
O131 C140 1.261 . S
O132 Gd94 2.388 . S
O132 C140 1.252 . S
O133 Gd94 2.386 . S
O133 C151 1.265 . S
O134 Gd95 2.353 . S
O134 C151 1.242 . S
O135 Gd95 2.468 1_554 S
O135 C159 1.263 . S
O136 Gd95 2.427 1_554 S
O136 C159 1.252 . S
O137 Gd94 2.307 . S
O137 C152 1.261 . S
O138 Gd95 2.388 . S
O138 C152 1.252 . S
C139 O127 1.265 . S
C139 O128 1.242 . S
C140 O131 1.261 . S
C140 O132 1.252 . S
C141 C144 1.394 . S
C141 C146 1.370 . S
C141 C147 1.500 . S
C142 C145 1.383 . S
C142 C146 1.395 . S
C143 C144 1.396 . S
C143 C145 1.365 . S
C143 H160 0.929 . S
C144 C141 1.394 . S
C144 C143 1.396 . S
C144 H161 0.930 . S
C145 C142 1.383 . S
C145 C143 1.365 . S
C145 H162 0.931 . S
C146 C141 1.370 . S
C146 C142 1.395 . S
C146 H163 0.930 . S
C147 Gd94 2.805 . S
C147 O129 1.263 . S
C147 O130 1.252 . S
C147 C141 1.500 . S
C148 H110 0.930 . S
C148 C124 1.417 . S
C148 C149 1.329 . S
C149 C119 1.437 . S
C149 H120 0.929 . S
C149 C148 1.329 . S
H150 C123 0.931 . S
C151 O133 1.265 . S
C151 O134 1.242 . S
C152 O137 1.261 . S
C152 O138 1.252 . S
C153 C156 1.394 . S
C153 C158 1.370 . S
C153 C159 1.500 . S
C154 C157 1.383 . S
C154 C158 1.395 . S
C155 C156 1.396 . S
C155 C157 1.365 . S
C155 H164 0.929 . S
C156 C153 1.394 . S
C156 C155 1.396 . S
C156 H165 0.930 . S
C157 C154 1.383 . S
C157 C155 1.365 . S
C157 H166 0.931 . S
C158 C153 1.370 . S
C158 C154 1.395 . S
C158 H167 0.930 . S
C159 Gd95 2.805 1_554 S
C159 O135 1.263 . S
C159 O136 1.252 . S
C159 C153 1.500 . S
H160 C143 0.929 . S
H161 C144 0.930 . S
H162 C145 0.931 . S
H163 C146 0.930 . S
H164 C155 0.929 . S
H165 C156 0.930 . S
H166 C157 0.931 . S
H167 C158 0.930 . S
C168 C170 1.422 . S
C168 C172 1.415 . S
C168 N174 1.369 . S
C169 C170 1.421 . S
C169 C171 1.417 . S
C169 C181 1.422 . S
C170 C168 1.422 . S
C170 C169 1.421 . S
C170 N180 1.359 . S
C171 C169 1.417 . S
C171 C173 1.329 . S
C171 H190 0.930 . S
C172 C168 1.415 . S
C172 C173 1.437 . S
C172 C176 1.413 . S
C173 C171 1.329 . S
C173 C172 1.437 . S
C173 H195 0.929 . S
N174 C168 1.369 . S
N174 C175 1.338 . S
N174 Gd179 2.622 . S
C175 N174 1.338 . S
C175 C177 1.378 . S
C175 H187 0.929 . S
C176 C172 1.413 . S
C176 C177 1.348 . S
C176 H192 0.931 . S
C177 C175 1.378 . S
C177 C176 1.348 . S
C177 H193 0.930 . S
Gd178 N198 2.622 . S
Gd178 N205 2.570 . S
Gd178 O212 2.353 . S
Gd178 O213 2.468 1_554 S
Gd178 O214 2.427 1_554 S
Gd178 O216 2.388 . S
Gd178 O217 2.386 . S
Gd178 O221 2.307 . S
Gd178 C231 2.805 1_554 S
Gd179 N174 2.622 . S
Gd179 N180 2.570 . S
Gd179 O211 2.386 . S
Gd179 O215 2.307 . S
Gd179 O218 2.353 . S
Gd179 O219 2.468 . S
Gd179 O220 2.427 . S
Gd179 O222 2.388 . S
Gd179 C243 2.805 . S
N180 C170 1.359 . S
N180 Gd179 2.570 . S
N180 C182 1.343 . S
C181 C169 1.422 . S
C181 C183 1.321 . S
C181 H189 0.931 . S
C182 N180 1.343 . S
C182 C183 1.390 . S
C182 H184 0.931 . S
C183 C181 1.321 . S
C183 C182 1.390 . S
C183 H185 0.930 . S
H184 C182 0.931 . S
H185 C183 0.930 . S
H186 C209 0.931 . S
H187 C175 0.929 . S
H188 C210 0.930 . S
H189 C181 0.931 . S
H190 C171 0.930 . S
H191 C200 0.929 . S
H192 C176 0.931 . S
H193 C177 0.930 . S
H194 C232 0.930 . S
H195 C173 0.929 . S
H196 C201 0.931 . S
H197 C202 0.930 . S
N198 Gd178 2.622 . S
N198 C199 1.369 . S
N198 C200 1.338 . S
C199 N198 1.369 . S
C199 C203 1.415 . S
C199 C206 1.422 . S
C200 H191 0.929 . S
C200 N198 1.338 . S
C200 C202 1.378 . S
C201 H196 0.931 . S
C201 C202 1.348 . S
C201 C203 1.413 . S
C202 H197 0.930 . S
C202 C200 1.378 . S
C202 C201 1.348 . S
C203 C199 1.415 . S
C203 C201 1.413 . S
C203 C233 1.437 . S
H204 C233 0.929 . S
N205 Gd178 2.570 . S
N205 C206 1.359 . S
N205 C209 1.343 . S
C206 C199 1.422 . S
C206 N205 1.359 . S
C206 C208 1.421 . S
C207 C208 1.422 . S
C207 C210 1.321 . S
C207 H234 0.931 . S
C208 C206 1.421 . S
C208 C207 1.422 . S
C208 C232 1.417 . S
C209 H186 0.931 . S
C209 N205 1.343 . S
C209 C210 1.390 . S
C210 H188 0.930 . S
C210 C207 1.321 . S
C210 C209 1.390 . S
O211 Gd179 2.386 . S
O211 C223 1.265 . S
O212 Gd178 2.353 . S
O212 C223 1.242 . S
O213 Gd178 2.468 1_556 S
O213 C231 1.263 . S
O214 Gd178 2.427 1_556 S
O214 C231 1.252 . S
O215 Gd179 2.307 . S
O215 C224 1.261 . S
O216 Gd178 2.388 . S
O216 C224 1.252 . S
O217 Gd178 2.386 . S
O217 C235 1.265 . S
O218 Gd179 2.353 . S
O218 C235 1.242 . S
O219 Gd179 2.468 . S
O219 C243 1.263 . S
O220 Gd179 2.427 . S
O220 C243 1.252 . S
O221 Gd178 2.307 . S
O221 C236 1.261 . S
O222 Gd179 2.388 . S
O222 C236 1.252 . S
C223 O211 1.265 . S
C223 O212 1.242 . S
C224 O215 1.261 . S
C224 O216 1.252 . S
C225 C228 1.394 . S
C225 C230 1.370 . S
C225 C231 1.500 . S
C226 C229 1.383 . S
C226 C230 1.395 . S
C227 C228 1.396 . S
C227 C229 1.365 . S
C227 H244 0.929 . S
C228 C225 1.394 . S
C228 C227 1.396 . S
C228 H245 0.930 . S
C229 C226 1.383 . S
C229 C227 1.365 . S
C229 H246 0.931 . S
C230 C225 1.370 . S
C230 C226 1.395 . S
C230 H247 0.930 . S
C231 Gd178 2.805 1_556 S
C231 O213 1.263 . S
C231 O214 1.252 . S
C231 C225 1.500 . S
C232 H194 0.930 . S
C232 C208 1.417 . S
C232 C233 1.329 . S
C233 C203 1.437 . S
C233 H204 0.929 . S
C233 C232 1.329 . S
H234 C207 0.931 . S
C235 O217 1.265 . S
C235 O218 1.242 . S
C236 O221 1.261 . S
C236 O222 1.252 . S
C237 C240 1.394 . S
C237 C242 1.370 . S
C237 C243 1.500 . S
C238 C241 1.383 . S
C238 C242 1.395 . S
C239 C240 1.396 . S
C239 C241 1.365 . S
C239 H248 0.929 . S
C240 C237 1.394 . S
C240 C239 1.396 . S
C240 H249 0.930 . S
C241 C238 1.383 . S
C241 C239 1.365 . S
C241 H250 0.931 . S
C242 C237 1.370 . S
C242 C238 1.395 . S
C242 H251 0.930 . S
C243 Gd179 2.805 . S
C243 O219 1.263 . S
C243 O220 1.252 . S
C243 C237 1.500 . S
H244 C227 0.929 . S
H245 C228 0.930 . S
H246 C229 0.931 . S
H247 C230 0.930 . S
H248 C239 0.929 . S
H249 C240 0.930 . S
H250 C241 0.931 . S
H251 C242 0.930 . S
C252 C254 1.422 . S
C252 C256 1.415 . S
C252 N258 1.369 . S
C253 C254 1.421 . S
C253 C255 1.417 . S
C253 C265 1.422 . S
C254 C252 1.422 . S
C254 C253 1.421 . S
C254 N264 1.359 . S
C255 C253 1.417 . S
C255 C257 1.329 . S
C255 H274 0.930 . S
C256 C252 1.415 . S
C256 C257 1.437 . S
C256 C260 1.413 . S
C257 C255 1.329 . S
C257 C256 1.437 . S
C257 H279 0.929 . S
N258 C252 1.369 . S
N258 C259 1.338 . S
N258 Gd263 2.622 . S
C259 N258 1.338 . S
C259 C261 1.378 . S
C259 H271 0.929 . S
C260 C256 1.413 . S
C260 C261 1.348 . S
C260 H276 0.931 . S
C261 C259 1.378 . S
C261 C260 1.348 . S
C261 H277 0.930 . S
Gd262 N282 2.622 . S
Gd262 N289 2.570 . S
Gd262 O296 2.353 . S
Gd262 O297 2.468 . S
Gd262 O298 2.427 . S
Gd262 O300 2.388 . S
Gd262 O301 2.386 . S
Gd262 O305 2.307 . S
Gd262 C315 2.805 . S
Gd263 N258 2.622 . S
Gd263 N264 2.570 . S
Gd263 O295 2.386 . S
Gd263 O299 2.307 . S
Gd263 O302 2.353 . S
Gd263 O303 2.468 1_556 S
Gd263 O304 2.427 1_556 S
Gd263 O306 2.388 . S
Gd263 C327 2.805 1_556 S
N264 C254 1.359 . S
N264 Gd263 2.570 . S
N264 C266 1.343 . S
C265 C253 1.422 . S
C265 C267 1.321 . S
C265 H273 0.931 . S
C266 N264 1.343 . S
C266 C267 1.390 . S
C266 H268 0.931 . S
C267 C265 1.321 . S
C267 C266 1.390 . S
C267 H269 0.930 . S
H268 C266 0.931 . S
H269 C267 0.930 . S
H270 C293 0.931 . S
H271 C259 0.929 . S
H272 C294 0.930 . S
H273 C265 0.931 . S
H274 C255 0.930 . S
H275 C284 0.929 . S
H276 C260 0.931 . S
H277 C261 0.930 . S
H278 C316 0.930 . S
H279 C257 0.929 . S
H280 C285 0.931 . S
H281 C286 0.930 . S
N282 Gd262 2.622 . S
N282 C283 1.369 . S
N282 C284 1.338 . S
C283 N282 1.369 . S
C283 C287 1.415 . S
C283 C290 1.422 . S
C284 H275 0.929 . S
C284 N282 1.338 . S
C284 C286 1.378 . S
C285 H280 0.931 . S
C285 C286 1.348 . S
C285 C287 1.413 . S
C286 H281 0.930 . S
C286 C284 1.378 . S
C286 C285 1.348 . S
C287 C283 1.415 . S
C287 C285 1.413 . S
C287 C317 1.437 . S
H288 C317 0.929 . S
N289 Gd262 2.570 . S
N289 C290 1.359 . S
N289 C293 1.343 . S
C290 C283 1.422 . S
C290 N289 1.359 . S
C290 C292 1.421 . S
C291 C292 1.422 . S
C291 C294 1.321 . S
C291 H318 0.931 . S
C292 C290 1.421 . S
C292 C291 1.422 . S
C292 C316 1.417 . S
C293 H270 0.931 . S
C293 N289 1.343 . S
C293 C294 1.390 . S
C294 H272 0.930 . S
C294 C291 1.321 . S
C294 C293 1.390 . S
O295 Gd263 2.386 . S
O295 C307 1.265 . S
O296 Gd262 2.353 . S
O296 C307 1.242 . S
O297 Gd262 2.468 . S
O297 C315 1.263 . S
O298 Gd262 2.427 . S
O298 C315 1.252 . S
O299 Gd263 2.307 . S
O299 C308 1.261 . S
O300 Gd262 2.388 . S
O300 C308 1.252 . S
O301 Gd262 2.386 . S
O301 C319 1.265 . S
O302 Gd263 2.353 . S
O302 C319 1.242 . S
O303 Gd263 2.468 1_554 S
O303 C327 1.263 . S
O304 Gd263 2.427 1_554 S
O304 C327 1.252 . S
O305 Gd262 2.307 . S
O305 C320 1.261 . S
O306 Gd263 2.388 . S
O306 C320 1.252 . S
C307 O295 1.265 . S
C307 O296 1.242 . S
C308 O299 1.261 . S
C308 O300 1.252 . S
C309 C312 1.394 . S
C309 C314 1.370 . S
C309 C315 1.500 . S
C310 C313 1.383 . S
C310 C314 1.395 . S
C311 C312 1.396 . S
C311 C313 1.365 . S
C311 H328 0.929 . S
C312 C309 1.394 . S
C312 C311 1.396 . S
C312 H329 0.930 . S
C313 C310 1.383 . S
C313 C311 1.365 . S
C313 H330 0.931 . S
C314 C309 1.370 . S
C314 C310 1.395 . S
C314 H331 0.930 . S
C315 Gd262 2.805 . S
C315 O297 1.263 . S
C315 O298 1.252 . S
C315 C309 1.500 . S
C316 H278 0.930 . S
C316 C292 1.417 . S
C316 C317 1.329 . S
C317 C287 1.437 . S
C317 H288 0.929 . S
C317 C316 1.329 . S
H318 C291 0.931 . S
C319 O301 1.265 . S
C319 O302 1.242 . S
C320 O305 1.261 . S
C320 O306 1.252 . S
C321 C324 1.394 . S
C321 C326 1.370 . S
C321 C327 1.500 . S
C322 C325 1.383 . S
C322 C326 1.395 . S
C323 C324 1.396 . S
C323 C325 1.365 . S
C323 H332 0.929 . S
C324 C321 1.394 . S
C324 C323 1.396 . S
C324 H333 0.930 . S
C325 C322 1.383 . S
C325 C323 1.365 . S
C325 H334 0.931 . S
C326 C321 1.370 . S
C326 C322 1.395 . S
C326 H335 0.930 . S
C327 Gd263 2.805 1_554 S
C327 O303 1.263 . S
C327 O304 1.252 . S
C327 C321 1.500 . S
H328 C311 0.929 . S
H329 C312 0.930 . S
H330 C313 0.931 . S
H331 C314 0.930 . S
H332 C323 0.929 . S
H333 C324 0.930 . S
H334 C325 0.931 . S
H335 C326 0.930 . S
C336 C338 1.422 . S
C336 C340 1.415 . S
C336 N342 1.369 . S
C337 C338 1.421 . S
C337 C339 1.417 . S
C337 C349 1.422 . S
C338 C336 1.422 . S
C338 C337 1.421 . S
C338 N348 1.359 . S
C339 C337 1.417 . S
C339 C341 1.329 . S
C339 H358 0.930 . S
C340 C336 1.415 . S
C340 C341 1.437 . S
C340 C344 1.413 . S
C341 C339 1.329 . S
C341 C340 1.437 . S
C341 H363 0.929 . S
N342 C336 1.369 . S
N342 C343 1.338 . S
N342 Gd347 2.622 . S
C343 N342 1.338 . S
C343 C345 1.378 . S
C343 H355 0.929 . S
C344 C340 1.413 . S
C344 C345 1.348 . S
C344 H360 0.931 . S
C345 C343 1.378 . S
C345 C344 1.348 . S
C345 H361 0.930 . S
Gd346 N366 2.622 . S
Gd346 N373 2.570 . S
Gd346 O380 2.353 . S
Gd346 O381 2.468 . S
Gd346 O382 2.427 . S
Gd346 O384 2.388 . S
Gd346 O385 2.386 . S
Gd346 O389 2.307 . S
Gd346 C399 2.805 . S
Gd347 N342 2.622 . S
Gd347 N348 2.570 . S
Gd347 O379 2.386 . S
Gd347 O383 2.307 . S
Gd347 O386 2.353 . S
Gd347 O387 2.468 1_554 S
Gd347 O388 2.427 1_554 S
Gd347 O390 2.388 . S
Gd347 C411 2.805 1_554 S
N348 C338 1.359 . S
N348 Gd347 2.570 . S
N348 C350 1.343 . S
C349 C337 1.422 . S
C349 C351 1.321 . S
C349 H357 0.931 . S
C350 N348 1.343 . S
C350 C351 1.390 . S
C350 H352 0.931 . S
C351 C349 1.321 . S
C351 C350 1.390 . S
C351 H353 0.930 . S
H352 C350 0.931 . S
H353 C351 0.930 . S
H354 C377 0.931 . S
H355 C343 0.929 . S
H356 C378 0.930 . S
H357 C349 0.931 . S
H358 C339 0.930 . S
H359 C368 0.929 . S
H360 C344 0.931 . S
H361 C345 0.930 . S
H362 C400 0.930 . S
H363 C341 0.929 . S
H364 C369 0.931 . S
H365 C370 0.930 . S
N366 Gd346 2.622 . S
N366 C367 1.369 . S
N366 C368 1.338 . S
C367 N366 1.369 . S
C367 C371 1.415 . S
C367 C374 1.422 . S
C368 H359 0.929 . S
C368 N366 1.338 . S
C368 C370 1.378 . S
C369 H364 0.931 . S
C369 C370 1.348 . S
C369 C371 1.413 . S
C370 H365 0.930 . S
C370 C368 1.378 . S
C370 C369 1.348 . S
C371 C367 1.415 . S
C371 C369 1.413 . S
C371 C401 1.437 . S
H372 C401 0.929 . S
N373 Gd346 2.570 . S
N373 C374 1.359 . S
N373 C377 1.343 . S
C374 C367 1.422 . S
C374 N373 1.359 . S
C374 C376 1.421 . S
C375 C376 1.422 . S
C375 C378 1.321 . S
C375 H402 0.931 . S
C376 C374 1.421 . S
C376 C375 1.422 . S
C376 C400 1.417 . S
C377 H354 0.931 . S
C377 N373 1.343 . S
C377 C378 1.390 . S
C378 H356 0.930 . S
C378 C375 1.321 . S
C378 C377 1.390 . S
O379 Gd347 2.386 . S
O379 C391 1.265 . S
O380 Gd346 2.353 . S
O380 C391 1.242 . S
O381 Gd346 2.468 . S
O381 C399 1.263 . S
O382 Gd346 2.427 . S
O382 C399 1.252 . S
O383 Gd347 2.307 . S
O383 C392 1.261 . S
O384 Gd346 2.388 . S
O384 C392 1.252 . S
O385 Gd346 2.386 . S
O385 C403 1.265 . S
O386 Gd347 2.353 . S
O386 C403 1.242 . S
O387 Gd347 2.468 1_556 S
O387 C411 1.263 . S
O388 Gd347 2.427 1_556 S
O388 C411 1.252 . S
O389 Gd346 2.307 . S
O389 C404 1.261 . S
O390 Gd347 2.388 . S
O390 C404 1.252 . S
C391 O379 1.265 . S
C391 O380 1.242 . S
C392 O383 1.261 . S
C392 O384 1.252 . S
C393 C396 1.394 . S
C393 C398 1.370 . S
C393 C399 1.500 . S
C394 C397 1.383 . S
C394 C398 1.395 . S
C395 C396 1.396 . S
C395 C397 1.365 . S
C395 H412 0.929 . S
C396 C393 1.394 . S
C396 C395 1.396 . S
C396 H413 0.930 . S
C397 C394 1.383 . S
C397 C395 1.365 . S
C397 H414 0.931 . S
C398 C393 1.370 . S
C398 C394 1.395 . S
C398 H415 0.930 . S
C399 Gd346 2.805 . S
C399 O381 1.263 . S
C399 O382 1.252 . S
C399 C393 1.500 . S
C400 H362 0.930 . S
C400 C376 1.417 . S
C400 C401 1.329 . S
C401 C371 1.437 . S
C401 H372 0.929 . S
C401 C400 1.329 . S
H402 C375 0.931 . S
C403 O385 1.265 . S
C403 O386 1.242 . S
C404 O389 1.261 . S
C404 O390 1.252 . S
C405 C408 1.394 . S
C405 C410 1.370 . S
C405 C411 1.500 . S
C406 C409 1.383 . S
C406 C410 1.395 . S
C407 C408 1.396 . S
C407 C409 1.365 . S
C407 H416 0.929 . S
C408 C405 1.394 . S
C408 C407 1.396 . S
C408 H417 0.930 . S
C409 C406 1.383 . S
C409 C407 1.365 . S
C409 H418 0.931 . S
C410 C405 1.370 . S
C410 C406 1.395 . S
C410 H419 0.930 . S
C411 Gd347 2.805 1_556 S
C411 O387 1.263 . S
C411 O388 1.252 . S
C411 C405 1.500 . S
H412 C395 0.929 . S
H413 C396 0.930 . S
H414 C397 0.931 . S
H415 C398 0.930 . S
H416 C407 0.929 . S
H417 C408 0.930 . S
H418 C409 0.931 . S
H419 C410 0.930 . S
C420 C422 1.422 . S
C420 C424 1.415 . S
C420 N426 1.369 . S
C421 C422 1.421 . S
C421 C423 1.417 . S
C421 C433 1.422 . S
C422 C420 1.422 . S
C422 C421 1.421 . S
C422 N432 1.359 . S
C423 C421 1.417 . S
C423 C425 1.329 . S
C423 H442 0.930 . S
C424 C420 1.415 . S
C424 C425 1.437 . S
C424 C428 1.413 . S
C425 C423 1.329 . S
C425 C424 1.437 . S
C425 H447 0.929 . S
N426 C420 1.369 . S
N426 C427 1.338 . S
N426 Gd431 2.622 . S
C427 N426 1.338 . S
C427 C429 1.378 . S
C427 H439 0.929 . S
C428 C424 1.413 . S
C428 C429 1.348 . S
C428 H444 0.931 . S
C429 C427 1.378 . S
C429 C428 1.348 . S
C429 H445 0.930 . S
Gd430 N450 2.622 . S
Gd430 N457 2.570 . S
Gd430 O464 2.353 . S
Gd430 O465 2.468 1_556 S
Gd430 O466 2.427 1_556 S
Gd430 O468 2.388 . S
Gd430 O469 2.386 . S
Gd430 O473 2.307 . S
Gd430 C483 2.805 1_556 S
Gd431 N426 2.622 . S
Gd431 N432 2.570 . S
Gd431 O463 2.386 . S
Gd431 O467 2.307 . S
Gd431 O470 2.353 . S
Gd431 O471 2.468 . S
Gd431 O472 2.427 . S
Gd431 O474 2.388 . S
Gd431 C495 2.805 . S
N432 C422 1.359 . S
N432 Gd431 2.570 . S
N432 C434 1.343 . S
C433 C421 1.422 . S
C433 C435 1.321 . S
C433 H441 0.931 . S
C434 N432 1.343 . S
C434 C435 1.390 . S
C434 H436 0.931 . S
C435 C433 1.321 . S
C435 C434 1.390 . S
C435 H437 0.930 . S
H436 C434 0.931 . S
H437 C435 0.930 . S
H438 C461 0.931 . S
H439 C427 0.929 . S
H440 C462 0.930 . S
H441 C433 0.931 . S
H442 C423 0.930 . S
H443 C452 0.929 . S
H444 C428 0.931 . S
H445 C429 0.930 . S
H446 C484 0.930 . S
H447 C425 0.929 . S
H448 C453 0.931 . S
H449 C454 0.930 . S
N450 Gd430 2.622 . S
N450 C451 1.369 . S
N450 C452 1.338 . S
C451 N450 1.369 . S
C451 C455 1.415 . S
C451 C458 1.422 . S
C452 H443 0.929 . S
C452 N450 1.338 . S
C452 C454 1.378 . S
C453 H448 0.931 . S
C453 C454 1.348 . S
C453 C455 1.413 . S
C454 H449 0.930 . S
C454 C452 1.378 . S
C454 C453 1.348 . S
C455 C451 1.415 . S
C455 C453 1.413 . S
C455 C485 1.437 . S
H456 C485 0.929 . S
N457 Gd430 2.570 . S
N457 C458 1.359 . S
N457 C461 1.343 . S
C458 C451 1.422 . S
C458 N457 1.359 . S
C458 C460 1.421 . S
C459 C460 1.422 . S
C459 C462 1.321 . S
C459 H486 0.931 . S
C460 C458 1.421 . S
C460 C459 1.422 . S
C460 C484 1.417 . S
C461 H438 0.931 . S
C461 N457 1.343 . S
C461 C462 1.390 . S
C462 H440 0.930 . S
C462 C459 1.321 . S
C462 C461 1.390 . S
O463 Gd431 2.386 . S
O463 C475 1.265 . S
O464 Gd430 2.353 . S
O464 C475 1.242 . S
O465 Gd430 2.468 1_554 S
O465 C483 1.263 . S
O466 Gd430 2.427 1_554 S
O466 C483 1.252 . S
O467 Gd431 2.307 . S
O467 C476 1.261 . S
O468 Gd430 2.388 . S
O468 C476 1.252 . S
O469 Gd430 2.386 . S
O469 C487 1.265 . S
O470 Gd431 2.353 . S
O470 C487 1.242 . S
O471 Gd431 2.468 . S
O471 C495 1.263 . S
O472 Gd431 2.427 . S
O472 C495 1.252 . S
O473 Gd430 2.307 . S
O473 C488 1.261 . S
O474 Gd431 2.388 . S
O474 C488 1.252 . S
C475 O463 1.265 . S
C475 O464 1.242 . S
C476 O467 1.261 . S
C476 O468 1.252 . S
C477 C480 1.394 . S
C477 C482 1.370 . S
C477 C483 1.500 . S
C478 C481 1.383 . S
C478 C482 1.395 . S
C479 C480 1.396 . S
C479 C481 1.365 . S
C479 H496 0.929 . S
C480 C477 1.394 . S
C480 C479 1.396 . S
C480 H497 0.930 . S
C481 C478 1.383 . S
C481 C479 1.365 . S
C481 H498 0.931 . S
C482 C477 1.370 . S
C482 C478 1.395 . S
C482 H499 0.930 . S
C483 Gd430 2.805 1_554 S
C483 O465 1.263 . S
C483 O466 1.252 . S
C483 C477 1.500 . S
C484 H446 0.930 . S
C484 C460 1.417 . S
C484 C485 1.329 . S
C485 C455 1.437 . S
C485 H456 0.929 . S
C485 C484 1.329 . S
H486 C459 0.931 . S
C487 O469 1.265 . S
C487 O470 1.242 . S
C488 O473 1.261 . S
C488 O474 1.252 . S
C489 C492 1.394 . S
C489 C494 1.370 . S
C489 C495 1.500 . S
C490 C493 1.383 . S
C490 C494 1.395 . S
C491 C492 1.396 . S
C491 C493 1.365 . S
C491 H500 0.929 . S
C492 C489 1.394 . S
C492 C491 1.396 . S
C492 H501 0.930 . S
C493 C490 1.383 . S
C493 C491 1.365 . S
C493 H502 0.931 . S
C494 C489 1.370 . S
C494 C490 1.395 . S
C494 H503 0.930 . S
C495 Gd431 2.805 . S
C495 O471 1.263 . S
C495 O472 1.252 . S
C495 C489 1.500 . S
H496 C479 0.929 . S
H497 C480 0.930 . S
H498 C481 0.931 . S
H499 C482 0.930 . S
H500 C491 0.929 . S
H501 C492 0.930 . S
H502 C493 0.931 . S
H503 C494 0.930 . S
C504 C506 1.422 . S
C504 C508 1.415 . S
C504 N510 1.369 . S
C505 C506 1.421 . S
C505 C507 1.417 . S
C505 C517 1.422 . S
C506 C504 1.422 . S
C506 C505 1.421 . S
C506 N516 1.359 . S
C507 C505 1.417 . S
C507 C509 1.329 . S
C507 H526 0.930 . S
C508 C504 1.415 . S
C508 C509 1.437 . S
C508 C512 1.413 . S
C509 C507 1.329 . S
C509 C508 1.437 . S
C509 H531 0.929 . S
N510 C504 1.369 . S
N510 C511 1.338 . S
N510 Gd515 2.622 . S
C511 N510 1.338 . S
C511 C513 1.378 . S
C511 H523 0.929 . S
C512 C508 1.413 . S
C512 C513 1.348 . S
C512 H528 0.931 . S
C513 C511 1.378 . S
C513 C512 1.348 . S
C513 H529 0.930 . S
Gd514 N534 2.622 . S
Gd514 N541 2.570 . S
Gd514 O548 2.353 . S
Gd514 O549 2.468 . S
Gd514 O550 2.427 . S
Gd514 O552 2.388 . S
Gd514 O553 2.386 . S
Gd514 O557 2.307 . S
Gd514 C567 2.805 . S
Gd515 N510 2.622 . S
Gd515 N516 2.570 . S
Gd515 O547 2.386 . S
Gd515 O551 2.307 . S
Gd515 O554 2.353 . S
Gd515 O555 2.468 1_554 S
Gd515 O556 2.427 1_554 S
Gd515 O558 2.388 . S
Gd515 C579 2.805 1_554 S
N516 C506 1.359 . S
N516 Gd515 2.570 . S
N516 C518 1.343 . S
C517 C505 1.422 . S
C517 C519 1.321 . S
C517 H525 0.931 . S
C518 N516 1.343 . S
C518 C519 1.390 . S
C518 H520 0.931 . S
C519 C517 1.321 . S
C519 C518 1.390 . S
C519 H521 0.930 . S
H520 C518 0.931 . S
H521 C519 0.930 . S
H522 C545 0.931 . S
H523 C511 0.929 . S
H524 C546 0.930 . S
H525 C517 0.931 . S
H526 C507 0.930 . S
H527 C536 0.929 . S
H528 C512 0.931 . S
H529 C513 0.930 . S
H530 C568 0.930 . S
H531 C509 0.929 . S
H532 C537 0.931 . S
H533 C538 0.930 . S
N534 Gd514 2.622 . S
N534 C535 1.369 . S
N534 C536 1.338 . S
C535 N534 1.369 . S
C535 C539 1.415 . S
C535 C542 1.422 . S
C536 H527 0.929 . S
C536 N534 1.338 . S
C536 C538 1.378 . S
C537 H532 0.931 . S
C537 C538 1.348 . S
C537 C539 1.413 . S
C538 H533 0.930 . S
C538 C536 1.378 . S
C538 C537 1.348 . S
C539 C535 1.415 . S
C539 C537 1.413 . S
C539 C569 1.437 . S
H540 C569 0.929 . S
N541 Gd514 2.570 . S
N541 C542 1.359 . S
N541 C545 1.343 . S
C542 C535 1.422 . S
C542 N541 1.359 . S
C542 C544 1.421 . S
C543 C544 1.422 . S
C543 C546 1.321 . S
C543 H570 0.931 . S
C544 C542 1.421 . S
C544 C543 1.422 . S
C544 C568 1.417 . S
C545 H522 0.931 . S
C545 N541 1.343 . S
C545 C546 1.390 . S
C546 H524 0.930 . S
C546 C543 1.321 . S
C546 C545 1.390 . S
O547 Gd515 2.386 . S
O547 C559 1.265 . S
O548 Gd514 2.353 . S
O548 C559 1.242 . S
O549 Gd514 2.468 . S
O549 C567 1.263 . S
O550 Gd514 2.427 . S
O550 C567 1.252 . S
O551 Gd515 2.307 . S
O551 C560 1.261 . S
O552 Gd514 2.388 . S
O552 C560 1.252 . S
O553 Gd514 2.386 . S
O553 C571 1.265 . S
O554 Gd515 2.353 . S
O554 C571 1.242 . S
O555 Gd515 2.468 1_556 S
O555 C579 1.263 . S
O556 Gd515 2.427 1_556 S
O556 C579 1.252 . S
O557 Gd514 2.307 . S
O557 C572 1.261 . S
O558 Gd515 2.388 . S
O558 C572 1.252 . S
C559 O547 1.265 . S
C559 O548 1.242 . S
C560 O551 1.261 . S
C560 O552 1.252 . S
C561 C564 1.394 . S
C561 C566 1.370 . S
C561 C567 1.500 . S
C562 C565 1.383 . S
C562 C566 1.395 . S
C563 C564 1.396 . S
C563 C565 1.365 . S
C563 H580 0.929 . S
C564 C561 1.394 . S
C564 C563 1.396 . S
C564 H581 0.930 . S
C565 C562 1.383 . S
C565 C563 1.365 . S
C565 H582 0.931 . S
C566 C561 1.370 . S
C566 C562 1.395 . S
C566 H583 0.930 . S
C567 Gd514 2.805 . S
C567 O549 1.263 . S
C567 O550 1.252 . S
C567 C561 1.500 . S
C568 H530 0.930 . S
C568 C544 1.417 . S
C568 C569 1.329 . S
C569 C539 1.437 . S
C569 H540 0.929 . S
C569 C568 1.329 . S
H570 C543 0.931 . S
C571 O553 1.265 . S
C571 O554 1.242 . S
C572 O557 1.261 . S
C572 O558 1.252 . S
C573 C576 1.394 . S
C573 C578 1.370 . S
C573 C579 1.500 . S
C574 C577 1.383 . S
C574 C578 1.395 . S
C575 C576 1.396 . S
C575 C577 1.365 . S
C575 H584 0.929 . S
C576 C573 1.394 . S
C576 C575 1.396 . S
C576 H585 0.930 . S
C577 C574 1.383 . S
C577 C575 1.365 . S
C577 H586 0.931 . S
C578 C573 1.370 . S
C578 C574 1.395 . S
C578 H587 0.930 . S
C579 Gd515 2.805 1_556 S
C579 O555 1.263 . S
C579 O556 1.252 . S
C579 C573 1.500 . S
H580 C563 0.929 . S
H581 C564 0.930 . S
H582 C565 0.931 . S
H583 C566 0.930 . S
H584 C575 0.929 . S
H585 C576 0.930 . S
H586 C577 0.931 . S
H587 C578 0.930 . S
C588 C590 1.422 . S
C588 C592 1.415 . S
C588 N594 1.369 . S
C589 C590 1.421 . S
C589 C591 1.417 . S
C589 C601 1.422 . S
C590 C588 1.422 . S
C590 C589 1.421 . S
C590 N600 1.359 . S
C591 C589 1.417 . S
C591 C593 1.329 . S
C591 H610 0.930 . S
C592 C588 1.415 . S
C592 C593 1.437 . S
C592 C596 1.413 . S
C593 C591 1.329 . S
C593 C592 1.437 . S
C593 H615 0.929 . S
N594 C588 1.369 . S
N594 C595 1.338 . S
N594 Gd599 2.622 . S
C595 N594 1.338 . S
C595 C597 1.378 . S
C595 H607 0.929 . S
C596 C592 1.413 . S
C596 C597 1.348 . S
C596 H612 0.931 . S
C597 C595 1.378 . S
C597 C596 1.348 . S
C597 H613 0.930 . S
Gd598 N618 2.622 . S
Gd598 N625 2.570 . S
Gd598 O632 2.353 . S
Gd598 O633 2.468 1_556 S
Gd598 O634 2.427 1_556 S
Gd598 O636 2.388 . S
Gd598 O637 2.386 . S
Gd598 O641 2.307 . S
Gd598 C651 2.805 1_556 S
Gd599 N594 2.622 . S
Gd599 N600 2.570 . S
Gd599 O631 2.386 . S
Gd599 O635 2.307 . S
Gd599 O638 2.353 . S
Gd599 O639 2.468 . S
Gd599 O640 2.427 . S
Gd599 O642 2.388 . S
Gd599 C663 2.805 . S
N600 C590 1.359 . S
N600 Gd599 2.570 . S
N600 C602 1.343 . S
C601 C589 1.422 . S
C601 C603 1.321 . S
C601 H609 0.931 . S
C602 N600 1.343 . S
C602 C603 1.390 . S
C602 H604 0.931 . S
C603 C601 1.321 . S
C603 C602 1.390 . S
C603 H605 0.930 . S
H604 C602 0.931 . S
H605 C603 0.930 . S
H606 C629 0.931 . S
H607 C595 0.929 . S
H608 C630 0.930 . S
H609 C601 0.931 . S
H610 C591 0.930 . S
H611 C620 0.929 . S
H612 C596 0.931 . S
H613 C597 0.930 . S
H614 C652 0.930 . S
H615 C593 0.929 . S
H616 C621 0.931 . S
H617 C622 0.930 . S
N618 Gd598 2.622 . S
N618 C619 1.369 . S
N618 C620 1.338 . S
C619 N618 1.369 . S
C619 C623 1.415 . S
C619 C626 1.422 . S
C620 H611 0.929 . S
C620 N618 1.338 . S
C620 C622 1.378 . S
C621 H616 0.931 . S
C621 C622 1.348 . S
C621 C623 1.413 . S
C622 H617 0.930 . S
C622 C620 1.378 . S
C622 C621 1.348 . S
C623 C619 1.415 . S
C623 C621 1.413 . S
C623 C653 1.437 . S
H624 C653 0.929 . S
N625 Gd598 2.570 . S
N625 C626 1.359 . S
N625 C629 1.343 . S
C626 C619 1.422 . S
C626 N625 1.359 . S
C626 C628 1.421 . S
C627 C628 1.422 . S
C627 C630 1.321 . S
C627 H654 0.931 . S
C628 C626 1.421 . S
C628 C627 1.422 . S
C628 C652 1.417 . S
C629 H606 0.931 . S
C629 N625 1.343 . S
C629 C630 1.390 . S
C630 H608 0.930 . S
C630 C627 1.321 . S
C630 C629 1.390 . S
O631 Gd599 2.386 . S
O631 C643 1.265 . S
O632 Gd598 2.353 . S
O632 C643 1.242 . S
O633 Gd598 2.468 1_554 S
O633 C651 1.263 . S
O634 Gd598 2.427 1_554 S
O634 C651 1.252 . S
O635 Gd599 2.307 . S
O635 C644 1.261 . S
O636 Gd598 2.388 . S
O636 C644 1.252 . S
O637 Gd598 2.386 . S
O637 C655 1.265 . S
O638 Gd599 2.353 . S
O638 C655 1.242 . S
O639 Gd599 2.468 . S
O639 C663 1.263 . S
O640 Gd599 2.427 . S
O640 C663 1.252 . S
O641 Gd598 2.307 . S
O641 C656 1.261 . S
O642 Gd599 2.388 . S
O642 C656 1.252 . S
C643 O631 1.265 . S
C643 O632 1.242 . S
C644 O635 1.261 . S
C644 O636 1.252 . S
C645 C648 1.394 . S
C645 C650 1.370 . S
C645 C651 1.500 . S
C646 C649 1.383 . S
C646 C650 1.395 . S
C647 C648 1.396 . S
C647 C649 1.365 . S
C647 H664 0.929 . S
C648 C645 1.394 . S
C648 C647 1.396 . S
C648 H665 0.930 . S
C649 C646 1.383 . S
C649 C647 1.365 . S
C649 H666 0.931 . S
C650 C645 1.370 . S
C650 C646 1.395 . S
C650 H667 0.930 . S
C651 Gd598 2.805 1_554 S
C651 O633 1.263 . S
C651 O634 1.252 . S
C651 C645 1.500 . S
C652 H614 0.930 . S
C652 C628 1.417 . S
C652 C653 1.329 . S
C653 C623 1.437 . S
C653 H624 0.929 . S
C653 C652 1.329 . S
H654 C627 0.931 . S
C655 O637 1.265 . S
C655 O638 1.242 . S
C656 O641 1.261 . S
C656 O642 1.252 . S
C657 C660 1.394 . S
C657 C662 1.370 . S
C657 C663 1.500 . S
C658 C661 1.383 . S
C658 C662 1.395 . S
C659 C660 1.396 . S
C659 C661 1.365 . S
C659 H668 0.929 . S
C660 C657 1.394 . S
C660 C659 1.396 . S
C660 H669 0.930 . S
C661 C658 1.383 . S
C661 C659 1.365 . S
C661 H670 0.931 . S
C662 C657 1.370 . S
C662 C658 1.395 . S
C662 H671 0.930 . S
C663 Gd599 2.805 . S
C663 O639 1.263 . S
C663 O640 1.252 . S
C663 C657 1.500 . S
H664 C647 0.929 . S
H665 C648 0.930 . S
H666 C649 0.931 . S
H667 C650 0.930 . S
H668 C659 0.929 . S
H669 C660 0.930 . S
H670 C661 0.931 . S
H671 C662 0.930 . S
C672 C674 1.422 . S
C672 C676 1.415 . S
C672 N678 1.369 . S
C673 C674 1.421 . S
C673 C675 1.417 . S
C673 C685 1.422 . S
C674 C672 1.422 . S
C674 C673 1.421 . S
C674 N684 1.359 . S
C675 C673 1.417 . S
C675 C677 1.329 . S
C675 H694 0.930 . S
C676 C672 1.415 . S
C676 C677 1.437 . S
C676 C680 1.413 . S
C677 C675 1.329 . S
C677 C676 1.437 . S
C677 H699 0.929 . S
N678 C672 1.369 . S
N678 C679 1.338 . S
N678 Gd683 2.622 . S
C679 N678 1.338 . S
C679 C681 1.378 . S
C679 H691 0.929 . S
C680 C676 1.413 . S
C680 C681 1.348 . S
C680 H696 0.931 . S
C681 C679 1.378 . S
C681 C680 1.348 . S
C681 H697 0.930 . S
Gd682 N702 2.622 . S
Gd682 N709 2.570 . S
Gd682 O716 2.353 . S
Gd682 O717 2.468 . S
Gd682 O718 2.427 . S
Gd682 O720 2.388 . S
Gd682 O721 2.386 . S
Gd682 O725 2.307 . S
Gd682 C735 2.805 . S
Gd683 N678 2.622 . S
Gd683 N684 2.570 . S
Gd683 O715 2.386 . S
Gd683 O719 2.307 . S
Gd683 O722 2.353 . S
Gd683 O723 2.468 . S
Gd683 O724 2.427 . S
Gd683 O726 2.388 . S
Gd683 C747 2.805 . S
N684 C674 1.359 . S
N684 Gd683 2.570 . S
N684 C686 1.343 . S
C685 C673 1.422 . S
C685 C687 1.321 . S
C685 H693 0.931 . S
C686 N684 1.343 . S
C686 C687 1.390 . S
C686 H688 0.931 . S
C687 C685 1.321 . S
C687 C686 1.390 . S
C687 H689 0.930 . S
H688 C686 0.931 . S
H689 C687 0.930 . S
H690 C713 0.931 . S
H691 C679 0.929 . S
H692 C714 0.930 . S
H693 C685 0.931 . S
H694 C675 0.930 . S
H695 C704 0.929 . S
H696 C680 0.931 . S
H697 C681 0.930 . S
H698 C736 0.930 . S
H699 C677 0.929 . S
H700 C705 0.931 . S
H701 C706 0.930 . S
N702 Gd682 2.622 . S
N702 C703 1.369 . S
N702 C704 1.338 . S
C703 N702 1.369 . S
C703 C707 1.415 . S
C703 C710 1.422 . S
C704 H695 0.929 . S
C704 N702 1.338 . S
C704 C706 1.378 . S
C705 H700 0.931 . S
C705 C706 1.348 . S
C705 C707 1.413 . S
C706 H701 0.930 . S
C706 C704 1.378 . S
C706 C705 1.348 . S
C707 C703 1.415 . S
C707 C705 1.413 . S
C707 C737 1.437 . S
H708 C737 0.929 . S
N709 Gd682 2.570 . S
N709 C710 1.359 . S
N709 C713 1.343 . S
C710 C703 1.422 . S
C710 N709 1.359 . S
C710 C712 1.421 . S
C711 C712 1.422 . S
C711 C714 1.321 . S
C711 H738 0.931 . S
C712 C710 1.421 . S
C712 C711 1.422 . S
C712 C736 1.417 . S
C713 H690 0.931 . S
C713 N709 1.343 . S
C713 C714 1.390 . S
C714 H692 0.930 . S
C714 C711 1.321 . S
C714 C713 1.390 . S
O715 Gd683 2.386 . S
O715 C727 1.265 . S
O716 Gd682 2.353 . S
O716 C727 1.242 . S
O717 Gd682 2.468 . S
O717 C735 1.263 . S
O718 Gd682 2.427 . S
O718 C735 1.252 . S
O719 Gd683 2.307 . S
O719 C728 1.261 . S
O720 Gd682 2.388 . S
O720 C728 1.252 . S
O721 Gd682 2.386 . S
O721 C739 1.265 . S
O722 Gd683 2.353 . S
O722 C739 1.242 . S
O723 Gd683 2.468 . S
O723 C747 1.263 . S
O724 Gd683 2.427 . S
O724 C747 1.252 . S
O725 Gd682 2.307 . S
O725 C740 1.261 . S
O726 Gd683 2.388 . S
O726 C740 1.252 . S
C727 O715 1.265 . S
C727 O716 1.242 . S
C728 O719 1.261 . S
C728 O720 1.252 . S
C729 C732 1.394 . S
C729 C734 1.370 . S
C729 C735 1.500 . S
C730 C733 1.383 . S
C730 C734 1.395 . S
C731 C732 1.396 . S
C731 C733 1.365 . S
C731 H748 0.929 . S
C732 C729 1.394 . S
C732 C731 1.396 . S
C732 H749 0.930 . S
C733 C730 1.383 . S
C733 C731 1.365 . S
C733 H750 0.931 . S
C734 C729 1.370 . S
C734 C730 1.395 . S
C734 H751 0.930 . S
C735 Gd682 2.805 . S
C735 O717 1.263 . S
C735 O718 1.252 . S
C735 C729 1.500 . S
C736 H698 0.930 . S
C736 C712 1.417 . S
C736 C737 1.329 . S
C737 C707 1.437 . S
C737 H708 0.929 . S
C737 C736 1.329 . S
H738 C711 0.931 . S
C739 O721 1.265 . S
C739 O722 1.242 . S
C740 O725 1.261 . S
C740 O726 1.252 . S
C741 C744 1.394 . S
C741 C746 1.370 . S
C741 C747 1.500 . S
C742 C745 1.383 . S
C742 C746 1.395 . S
C743 C744 1.396 . S
C743 C745 1.365 . S
C743 H752 0.929 . S
C744 C741 1.394 . S
C744 C743 1.396 . S
C744 H753 0.930 . S
C745 C742 1.383 . S
C745 C743 1.365 . S
C745 H754 0.931 1_556 S
C746 C741 1.370 . S
C746 C742 1.395 . S
C746 H755 0.930 . S
C747 Gd683 2.805 . S
C747 O723 1.263 . S
C747 O724 1.252 . S
C747 C741 1.500 . S
H748 C731 0.929 . S
H749 C732 0.930 . S
H750 C733 0.931 . S
H751 C734 0.930 . S
H752 C743 0.929 . S
H753 C744 0.930 . S
H754 C745 0.931 1_554 S
H755 C746 0.930 . S
C756 C758 1.422 . S
C756 C760 1.415 . S
C756 N762 1.369 . S
C757 C758 1.421 . S
C757 C759 1.417 . S
C757 C769 1.422 . S
C758 C756 1.422 . S
C758 C757 1.421 . S
C758 N768 1.359 . S
C759 C757 1.417 . S
C759 C761 1.329 . S
C759 H778 0.930 . S
C760 C756 1.415 . S
C760 C761 1.437 . S
C760 C764 1.413 . S
C761 C759 1.329 . S
C761 C760 1.437 . S
C761 H783 0.929 . S
N762 C756 1.369 . S
N762 C763 1.338 . S
N762 Gd767 2.622 . S
C763 N762 1.338 . S
C763 C765 1.378 . S
C763 H775 0.929 . S
C764 C760 1.413 . S
C764 C765 1.348 . S
C764 H780 0.931 . S
C765 C763 1.378 . S
C765 C764 1.348 . S
C765 H781 0.930 . S
Gd766 N786 2.622 . S
Gd766 N793 2.570 . S
Gd766 O800 2.353 . S
Gd766 O801 2.468 . S
Gd766 O802 2.427 . S
Gd766 O804 2.388 . S
Gd766 O805 2.386 . S
Gd766 O809 2.307 . S
Gd766 C819 2.805 . S
Gd767 N762 2.622 . S
Gd767 N768 2.570 . S
Gd767 O799 2.386 . S
Gd767 O803 2.307 . S
Gd767 O806 2.353 . S
Gd767 O807 2.468 . S
Gd767 O808 2.427 . S
Gd767 O810 2.388 . S
Gd767 C831 2.805 . S
N768 C758 1.359 . S
N768 Gd767 2.570 . S
N768 C770 1.343 . S
C769 C757 1.422 . S
C769 C771 1.321 . S
C769 H777 0.931 . S
C770 N768 1.343 . S
C770 C771 1.390 . S
C770 H772 0.931 . S
C771 C769 1.321 . S
C771 C770 1.390 . S
C771 H773 0.930 . S
H772 C770 0.931 . S
H773 C771 0.930 . S
H774 C797 0.931 . S
H775 C763 0.929 . S
H776 C798 0.930 . S
H777 C769 0.931 . S
H778 C759 0.930 . S
H779 C788 0.929 . S
H780 C764 0.931 . S
H781 C765 0.930 . S
H782 C820 0.930 . S
H783 C761 0.929 . S
H784 C789 0.931 . S
H785 C790 0.930 . S
N786 Gd766 2.622 . S
N786 C787 1.369 . S
N786 C788 1.338 . S
C787 N786 1.369 . S
C787 C791 1.415 . S
C787 C794 1.422 . S
C788 H779 0.929 . S
C788 N786 1.338 . S
C788 C790 1.378 . S
C789 H784 0.931 . S
C789 C790 1.348 . S
C789 C791 1.413 . S
C790 H785 0.930 . S
C790 C788 1.378 . S
C790 C789 1.348 . S
C791 C787 1.415 . S
C791 C789 1.413 . S
C791 C821 1.437 . S
H792 C821 0.929 . S
N793 Gd766 2.570 . S
N793 C794 1.359 . S
N793 C797 1.343 . S
C794 C787 1.422 . S
C794 N793 1.359 . S
C794 C796 1.421 . S
C795 C796 1.422 . S
C795 C798 1.321 . S
C795 H822 0.931 . S
C796 C794 1.421 . S
C796 C795 1.422 . S
C796 C820 1.417 . S
C797 H774 0.931 . S
C797 N793 1.343 . S
C797 C798 1.390 . S
C798 H776 0.930 . S
C798 C795 1.321 . S
C798 C797 1.390 . S
O799 Gd767 2.386 . S
O799 C811 1.265 . S
O800 Gd766 2.353 . S
O800 C811 1.242 . S
O801 Gd766 2.468 . S
O801 C819 1.263 . S
O802 Gd766 2.427 . S
O802 C819 1.252 . S
O803 Gd767 2.307 . S
O803 C812 1.261 . S
O804 Gd766 2.388 . S
O804 C812 1.252 . S
O805 Gd766 2.386 . S
O805 C823 1.265 . S
O806 Gd767 2.353 . S
O806 C823 1.242 . S
O807 Gd767 2.468 . S
O807 C831 1.263 . S
O808 Gd767 2.427 . S
O808 C831 1.252 . S
O809 Gd766 2.307 . S
O809 C824 1.261 . S
O810 Gd767 2.388 . S
O810 C824 1.252 . S
C811 O799 1.265 . S
C811 O800 1.242 . S
C812 O803 1.261 . S
C812 O804 1.252 . S
C813 C816 1.394 . S
C813 C818 1.370 . S
C813 C819 1.500 . S
C814 C817 1.383 . S
C814 C818 1.395 . S
C815 C816 1.396 . S
C815 C817 1.365 . S
C815 H832 0.929 . S
C816 C813 1.394 . S
C816 C815 1.396 . S
C816 H833 0.930 . S
C817 C814 1.383 . S
C817 C815 1.365 . S
C817 H834 0.931 1_554 S
C818 C813 1.370 . S
C818 C814 1.395 . S
C818 H835 0.930 . S
C819 Gd766 2.805 . S
C819 O801 1.263 . S
C819 O802 1.252 . S
C819 C813 1.500 . S
C820 H782 0.930 . S
C820 C796 1.417 . S
C820 C821 1.329 . S
C821 C791 1.437 . S
C821 H792 0.929 . S
C821 C820 1.329 . S
H822 C795 0.931 . S
C823 O805 1.265 . S
C823 O806 1.242 . S
C824 O809 1.261 . S
C824 O810 1.252 . S
C825 C828 1.394 . S
C825 C830 1.370 . S
C825 C831 1.500 . S
C826 C829 1.383 . S
C826 C830 1.395 . S
C827 C828 1.396 . S
C827 C829 1.365 . S
C827 H836 0.929 . S
C828 C825 1.394 . S
C828 C827 1.396 . S
C828 H837 0.930 . S
C829 C826 1.383 . S
C829 C827 1.365 . S
C829 H838 0.931 . S
C830 C825 1.370 . S
C830 C826 1.395 . S
C830 H839 0.930 . S
C831 Gd767 2.805 . S
C831 O807 1.263 . S
C831 O808 1.252 . S
C831 C825 1.500 . S
H832 C815 0.929 . S
H833 C816 0.930 . S
H834 C817 0.931 1_556 S
H835 C818 0.930 . S
H836 C827 0.929 . S
H837 C828 0.930 . S
H838 C829 0.931 . S
H839 C830 0.930 . S
C840 C842 1.422 . S
C840 C844 1.415 . S
C840 N846 1.369 . S
C841 C842 1.421 . S
C841 C843 1.417 . S
C841 C853 1.422 . S
C842 C840 1.422 . S
C842 C841 1.421 . S
C842 N852 1.359 . S
C843 C841 1.417 . S
C843 C845 1.329 . S
C843 H862 0.930 . S
C844 C840 1.415 . S
C844 C845 1.437 . S
C844 C848 1.413 . S
C845 C843 1.329 . S
C845 C844 1.437 . S
C845 H867 0.929 . S
N846 C840 1.369 . S
N846 C847 1.338 . S
N846 Gd851 2.622 . S
C847 N846 1.338 . S
C847 C849 1.378 . S
C847 H859 0.929 . S
C848 C844 1.413 . S
C848 C849 1.348 . S
C848 H864 0.931 . S
C849 C847 1.378 . S
C849 C848 1.348 . S
C849 H865 0.930 . S
Gd850 N870 2.622 . S
Gd850 N877 2.570 . S
Gd850 O884 2.353 . S
Gd850 O885 2.468 . S
Gd850 O886 2.427 . S
Gd850 O888 2.388 . S
Gd850 O889 2.386 . S
Gd850 O893 2.307 . S
Gd850 C903 2.805 . S
Gd851 N846 2.622 . S
Gd851 N852 2.570 . S
Gd851 O883 2.386 . S
Gd851 O887 2.307 . S
Gd851 O890 2.353 . S
Gd851 O891 2.468 . S
Gd851 O892 2.427 . S
Gd851 O894 2.388 . S
Gd851 C915 2.805 . S
N852 C842 1.359 . S
N852 Gd851 2.570 . S
N852 C854 1.343 . S
C853 C841 1.422 . S
C853 C855 1.321 . S
C853 H861 0.931 . S
C854 N852 1.343 . S
C854 C855 1.390 . S
C854 H856 0.931 . S
C855 C853 1.321 . S
C855 C854 1.390 . S
C855 H857 0.930 . S
H856 C854 0.931 . S
H857 C855 0.930 . S
H858 C881 0.931 . S
H859 C847 0.929 . S
H860 C882 0.930 . S
H861 C853 0.931 . S
H862 C843 0.930 . S
H863 C872 0.929 . S
H864 C848 0.931 . S
H865 C849 0.930 . S
H866 C904 0.930 . S
H867 C845 0.929 . S
H868 C873 0.931 . S
H869 C874 0.930 . S
N870 Gd850 2.622 . S
N870 C871 1.369 . S
N870 C872 1.338 . S
C871 N870 1.369 . S
C871 C875 1.415 . S
C871 C878 1.422 . S
C872 H863 0.929 . S
C872 N870 1.338 . S
C872 C874 1.378 . S
C873 H868 0.931 . S
C873 C874 1.348 . S
C873 C875 1.413 . S
C874 H869 0.930 . S
C874 C872 1.378 . S
C874 C873 1.348 . S
C875 C871 1.415 . S
C875 C873 1.413 . S
C875 C905 1.437 . S
H876 C905 0.929 . S
N877 Gd850 2.570 . S
N877 C878 1.359 . S
N877 C881 1.343 . S
C878 C871 1.422 . S
C878 N877 1.359 . S
C878 C880 1.421 . S
C879 C880 1.422 . S
C879 C882 1.321 . S
C879 H906 0.931 . S
C880 C878 1.421 . S
C880 C879 1.422 . S
C880 C904 1.417 . S
C881 H858 0.931 . S
C881 N877 1.343 . S
C881 C882 1.390 . S
C882 H860 0.930 . S
C882 C879 1.321 . S
C882 C881 1.390 . S
O883 Gd851 2.386 . S
O883 C895 1.265 . S
O884 Gd850 2.353 . S
O884 C895 1.242 . S
O885 Gd850 2.468 . S
O885 C903 1.263 . S
O886 Gd850 2.427 . S
O886 C903 1.252 . S
O887 Gd851 2.307 . S
O887 C896 1.261 . S
O888 Gd850 2.388 . S
O888 C896 1.252 . S
O889 Gd850 2.386 . S
O889 C907 1.265 . S
O890 Gd851 2.353 . S
O890 C907 1.242 . S
O891 Gd851 2.468 . S
O891 C915 1.263 . S
O892 Gd851 2.427 . S
O892 C915 1.252 . S
O893 Gd850 2.307 . S
O893 C908 1.261 . S
O894 Gd851 2.388 . S
O894 C908 1.252 . S
C895 O883 1.265 . S
C895 O884 1.242 . S
C896 O887 1.261 . S
C896 O888 1.252 . S
C897 C900 1.394 . S
C897 C902 1.370 . S
C897 C903 1.500 . S
C898 C901 1.383 . S
C898 C902 1.395 . S
C899 C900 1.396 . S
C899 C901 1.365 . S
C899 H916 0.929 . S
C900 C897 1.394 . S
C900 C899 1.396 . S
C900 H917 0.930 . S
C901 C898 1.383 . S
C901 C899 1.365 . S
C901 H918 0.931 . S
C902 C897 1.370 . S
C902 C898 1.395 . S
C902 H919 0.930 . S
C903 Gd850 2.805 . S
C903 O885 1.263 . S
C903 O886 1.252 . S
C903 C897 1.500 . S
C904 H866 0.930 . S
C904 C880 1.417 . S
C904 C905 1.329 . S
C905 C875 1.437 . S
C905 H876 0.929 . S
C905 C904 1.329 . S
H906 C879 0.931 . S
C907 O889 1.265 . S
C907 O890 1.242 . S
C908 O893 1.261 . S
C908 O894 1.252 . S
C909 C912 1.394 . S
C909 C914 1.370 . S
C909 C915 1.500 . S
C910 C913 1.383 . S
C910 C914 1.395 . S
C911 C912 1.396 . S
C911 C913 1.365 . S
C911 H920 0.929 . S
C912 C909 1.394 . S
C912 C911 1.396 . S
C912 H921 0.930 . S
C913 C910 1.383 . S
C913 C911 1.365 . S
C913 H922 0.931 1_556 S
C914 C909 1.370 . S
C914 C910 1.395 . S
C914 H923 0.930 . S
C915 Gd851 2.805 . S
C915 O891 1.263 . S
C915 O892 1.252 . S
C915 C909 1.500 . S
H916 C899 0.929 . S
H917 C900 0.930 . S
H918 C901 0.931 . S
H919 C902 0.930 . S
H920 C911 0.929 . S
H921 C912 0.930 . S
H922 C913 0.931 1_554 S
H923 C914 0.930 . S
C924 C926 1.422 . S
C924 C928 1.415 . S
C924 N930 1.369 . S
C925 C926 1.421 . S
C925 C927 1.417 . S
C925 C937 1.422 . S
C926 C924 1.422 . S
C926 C925 1.421 . S
C926 N936 1.359 . S
C927 C925 1.417 . S
C927 C929 1.329 . S
C927 H946 0.930 . S
C928 C924 1.415 . S
C928 C929 1.437 . S
C928 C932 1.413 . S
C929 C927 1.329 . S
C929 C928 1.437 . S
C929 H951 0.929 . S
N930 C924 1.369 . S
N930 C931 1.338 . S
N930 Gd935 2.622 . S
C931 N930 1.338 . S
C931 C933 1.378 . S
C931 H943 0.929 . S
C932 C928 1.413 . S
C932 C933 1.348 . S
C932 H948 0.931 . S
C933 C931 1.378 . S
C933 C932 1.348 . S
C933 H949 0.930 . S
Gd934 N954 2.622 . S
Gd934 N961 2.570 . S
Gd934 O968 2.353 . S
Gd934 O969 2.468 . S
Gd934 O970 2.427 . S
Gd934 O972 2.388 . S
Gd934 O973 2.386 . S
Gd934 O977 2.307 . S
Gd934 C987 2.805 . S
Gd935 N930 2.622 . S
Gd935 N936 2.570 . S
Gd935 O967 2.386 . S
Gd935 O971 2.307 . S
Gd935 O974 2.353 . S
Gd935 O975 2.468 . S
Gd935 O976 2.427 . S
Gd935 O978 2.388 . S
Gd935 C999 2.805 . S
N936 C926 1.359 . S
N936 Gd935 2.570 . S
N936 C938 1.343 . S
C937 C925 1.422 . S
C937 C939 1.321 . S
C937 H945 0.931 . S
C938 N936 1.343 . S
C938 C939 1.390 . S
C938 H940 0.931 . S
C939 C937 1.321 . S
C939 C938 1.390 . S
C939 H941 0.930 . S
H940 C938 0.931 . S
H941 C939 0.930 . S
H942 C965 0.931 . S
H943 C931 0.929 . S
H944 C966 0.930 . S
H945 C937 0.931 . S
H946 C927 0.930 . S
H947 C956 0.929 . S
H948 C932 0.931 . S
H949 C933 0.930 . S
H950 C988 0.930 . S
H951 C929 0.929 . S
H952 C957 0.931 . S
H953 C958 0.930 . S
N954 Gd934 2.622 . S
N954 C955 1.369 . S
N954 C956 1.338 . S
C955 N954 1.369 . S
C955 C959 1.415 . S
C955 C962 1.422 . S
C956 H947 0.929 . S
C956 N954 1.338 . S
C956 C958 1.378 . S
C957 H952 0.931 . S
C957 C958 1.348 . S
C957 C959 1.413 . S
C958 H953 0.930 . S
C958 C956 1.378 . S
C958 C957 1.348 . S
C959 C955 1.415 . S
C959 C957 1.413 . S
C959 C989 1.437 . S
H960 C989 0.929 . S
N961 Gd934 2.570 . S
N961 C962 1.359 . S
N961 C965 1.343 . S
C962 C955 1.422 . S
C962 N961 1.359 . S
C962 C964 1.421 . S
C963 C964 1.422 . S
C963 C966 1.321 . S
C963 H990 0.931 . S
C964 C962 1.421 . S
C964 C963 1.422 . S
C964 C988 1.417 . S
C965 H942 0.931 . S
C965 N961 1.343 . S
C965 C966 1.390 . S
C966 H944 0.930 . S
C966 C963 1.321 . S
C966 C965 1.390 . S
O967 Gd935 2.386 . S
O967 C979 1.265 . S
O968 Gd934 2.353 . S
O968 C979 1.242 . S
O969 Gd934 2.468 . S
O969 C987 1.263 . S
O970 Gd934 2.427 . S
O970 C987 1.252 . S
O971 Gd935 2.307 . S
O971 C980 1.261 . S
O972 Gd934 2.388 . S
O972 C980 1.252 . S
O973 Gd934 2.386 . S
O973 C991 1.265 . S
O974 Gd935 2.353 . S
O974 C991 1.242 . S
O975 Gd935 2.468 . S
O975 C999 1.263 . S
O976 Gd935 2.427 . S
O976 C999 1.252 . S
O977 Gd934 2.307 . S
O977 C992 1.261 . S
O978 Gd935 2.388 . S
O978 C992 1.252 . S
C979 O967 1.265 . S
C979 O968 1.242 . S
C980 O971 1.261 . S
C980 O972 1.252 . S
C981 C984 1.394 . S
C981 C986 1.370 . S
C981 C987 1.500 . S
C982 C985 1.383 . S
C982 C986 1.395 . S
C983 C984 1.396 . S
C983 C985 1.365 . S
C983 H1000 0.929 . S
C984 C981 1.394 . S
C984 C983 1.396 . S
C984 H1001 0.930 . S
C985 C982 1.383 . S
C985 C983 1.365 . S
C985 H1002 0.931 1_554 S
C986 C981 1.370 . S
C986 C982 1.395 . S
C986 H1003 0.930 . S
C987 Gd934 2.805 . S
C987 O969 1.263 . S
C987 O970 1.252 . S
C987 C981 1.500 . S
C988 H950 0.930 . S
C988 C964 1.417 . S
C988 C989 1.329 . S
C989 C959 1.437 . S
C989 H960 0.929 . S
C989 C988 1.329 . S
H990 C963 0.931 . S
C991 O973 1.265 . S
C991 O974 1.242 . S
C992 O977 1.261 . S
C992 O978 1.252 . S
C993 C996 1.394 . S
C993 C998 1.370 . S
C993 C999 1.500 . S
C994 C997 1.383 . S
C994 C998 1.395 . S
C995 C996 1.396 . S
C995 C997 1.365 . S
C995 H1004 0.929 . S
C996 C993 1.394 . S
C996 C995 1.396 . S
C996 H1005 0.930 . S
C997 C994 1.383 . S
C997 C995 1.365 . S
C997 H1006 0.931 . S
C998 C993 1.370 . S
C998 C994 1.395 . S
C998 H1007 0.930 . S
C999 Gd935 2.805 . S
C999 O975 1.263 . S
C999 O976 1.252 . S
C999 C993 1.500 . S
H1000 C983 0.929 . S
H1001 C984 0.930 . S
H1002 C985 0.931 1_556 S
H1003 C986 0.930 . S
H1004 C995 0.929 . S
H1005 C996 0.930 . S
H1006 C997 0.931 . S
H1007 C998 0.930 . S
C1008 C1010 1.422 . S
C1008 C1012 1.415 . S
C1008 N1014 1.369 . S
C1009 C1010 1.421 . S
C1009 C1011 1.417 . S
C1009 C1021 1.422 . S
C1010 C1008 1.422 . S
C1010 C1009 1.421 . S
C1010 N1020 1.359 . S
C1011 C1009 1.417 . S
C1011 C1013 1.329 . S
C1011 H1030 0.930 . S
C1012 C1008 1.415 . S
C1012 C1013 1.437 . S
C1012 C1016 1.413 . S
C1013 C1011 1.329 . S
C1013 C1012 1.437 . S
C1013 H1035 0.929 . S
N1014 C1008 1.369 . S
N1014 C1015 1.338 . S
N1014 Gd1019 2.622 . S
C1015 N1014 1.338 . S
C1015 C1017 1.378 . S
C1015 H1027 0.929 . S
C1016 C1012 1.413 . S
C1016 C1017 1.348 . S
C1016 H1032 0.931 . S
C1017 C1015 1.378 . S
C1017 C1016 1.348 . S
C1017 H1033 0.930 . S
Gd1018 N1038 2.622 . S
Gd1018 N1045 2.570 . S
Gd1018 O1052 2.353 . S
Gd1018 O1053 2.468 . S
Gd1018 O1054 2.427 . S
Gd1018 O1056 2.388 . S
Gd1018 O1057 2.386 . S
Gd1018 O1061 2.307 . S
Gd1018 C1071 2.805 . S
Gd1019 N1014 2.622 . S
Gd1019 N1020 2.570 . S
Gd1019 O1051 2.386 . S
Gd1019 O1055 2.307 . S
Gd1019 O1058 2.353 . S
Gd1019 O1059 2.468 . S
Gd1019 O1060 2.427 . S
Gd1019 O1062 2.388 . S
Gd1019 C1083 2.805 . S
N1020 C1010 1.359 . S
N1020 Gd1019 2.570 . S
N1020 C1022 1.343 . S
C1021 C1009 1.422 . S
C1021 C1023 1.321 . S
C1021 H1029 0.931 . S
C1022 N1020 1.343 . S
C1022 C1023 1.390 . S
C1022 H1024 0.931 . S
C1023 C1021 1.321 . S
C1023 C1022 1.390 . S
C1023 H1025 0.930 . S
H1024 C1022 0.931 . S
H1025 C1023 0.930 . S
H1026 C1049 0.931 . S
H1027 C1015 0.929 . S
H1028 C1050 0.930 . S
H1029 C1021 0.931 . S
H1030 C1011 0.930 . S
H1031 C1040 0.929 . S
H1032 C1016 0.931 . S
H1033 C1017 0.930 . S
H1034 C1072 0.930 . S
H1035 C1013 0.929 . S
H1036 C1041 0.931 . S
H1037 C1042 0.930 . S
N1038 Gd1018 2.622 . S
N1038 C1039 1.369 . S
N1038 C1040 1.338 . S
C1039 N1038 1.369 . S
C1039 C1043 1.415 . S
C1039 C1046 1.422 . S
C1040 H1031 0.929 . S
C1040 N1038 1.338 . S
C1040 C1042 1.378 . S
C1041 H1036 0.931 . S
C1041 C1042 1.348 . S
C1041 C1043 1.413 . S
C1042 H1037 0.930 . S
C1042 C1040 1.378 . S
C1042 C1041 1.348 . S
C1043 C1039 1.415 . S
C1043 C1041 1.413 . S
C1043 C1073 1.437 . S
H1044 C1073 0.929 . S
N1045 Gd1018 2.570 . S
N1045 C1046 1.359 . S
N1045 C1049 1.343 . S
C1046 C1039 1.422 . S
C1046 N1045 1.359 . S
C1046 C1048 1.421 . S
C1047 C1048 1.422 . S
C1047 C1050 1.321 . S
C1047 H1074 0.931 . S
C1048 C1046 1.421 . S
C1048 C1047 1.422 . S
C1048 C1072 1.417 . S
C1049 H1026 0.931 . S
C1049 N1045 1.343 . S
C1049 C1050 1.390 . S
C1050 H1028 0.930 . S
C1050 C1047 1.321 . S
C1050 C1049 1.390 . S
O1051 Gd1019 2.386 . S
O1051 C1063 1.265 . S
O1052 Gd1018 2.353 . S
O1052 C1063 1.242 . S
O1053 Gd1018 2.468 . S
O1053 C1071 1.263 . S
O1054 Gd1018 2.427 . S
O1054 C1071 1.252 . S
O1055 Gd1019 2.307 . S
O1055 C1064 1.261 . S
O1056 Gd1018 2.388 . S
O1056 C1064 1.252 . S
O1057 Gd1018 2.386 . S
O1057 C1075 1.265 . S
O1058 Gd1019 2.353 . S
O1058 C1075 1.242 . S
O1059 Gd1019 2.468 . S
O1059 C1083 1.263 . S
O1060 Gd1019 2.427 . S
O1060 C1083 1.252 . S
O1061 Gd1018 2.307 . S
O1061 C1076 1.261 . S
O1062 Gd1019 2.388 . S
O1062 C1076 1.252 . S
C1063 O1051 1.265 . S
C1063 O1052 1.242 . S
C1064 O1055 1.261 . S
C1064 O1056 1.252 . S
C1065 C1068 1.394 . S
C1065 C1070 1.370 . S
C1065 C1071 1.500 . S
C1066 C1069 1.383 . S
C1066 C1070 1.395 . S
C1067 C1068 1.396 . S
C1067 C1069 1.365 . S
C1067 H1084 0.929 . S
C1068 C1065 1.394 . S
C1068 C1067 1.396 . S
C1068 H1085 0.930 . S
C1069 C1066 1.383 . S
C1069 C1067 1.365 . S
C1069 H1086 0.931 1_556 S
C1070 C1065 1.370 . S
C1070 C1066 1.395 . S
C1070 H1087 0.930 . S
C1071 Gd1018 2.805 . S
C1071 O1053 1.263 . S
C1071 O1054 1.252 . S
C1071 C1065 1.500 . S
C1072 H1034 0.930 . S
C1072 C1048 1.417 . S
C1072 C1073 1.329 . S
C1073 C1043 1.437 . S
C1073 H1044 0.929 . S
C1073 C1072 1.329 . S
H1074 C1047 0.931 . S
C1075 O1057 1.265 . S
C1075 O1058 1.242 . S
C1076 O1061 1.261 . S
C1076 O1062 1.252 . S
C1077 C1080 1.394 . S
C1077 C1082 1.370 . S
C1077 C1083 1.500 . S
C1078 C1081 1.383 . S
C1078 C1082 1.395 . S
C1079 C1080 1.396 . S
C1079 C1081 1.365 . S
C1079 H1088 0.929 . S
C1080 C1077 1.394 . S
C1080 C1079 1.396 . S
C1080 H1089 0.930 . S
C1081 C1078 1.383 . S
C1081 C1079 1.365 . S
C1081 H1090 0.931 . S
C1082 C1077 1.370 . S
C1082 C1078 1.395 . S
C1082 H1091 0.930 . S
C1083 Gd1019 2.805 . S
C1083 O1059 1.263 . S
C1083 O1060 1.252 . S
C1083 C1077 1.500 . S
H1084 C1067 0.929 . S
H1085 C1068 0.930 . S
H1086 C1069 0.931 1_554 S
H1087 C1070 0.930 . S
H1088 C1079 0.929 . S
H1089 C1080 0.930 . S
H1090 C1081 0.931 . S
H1091 C1082 0.930 . S
C1092 C1094 1.422 . S
C1092 C1096 1.415 . S
C1092 N1098 1.369 . S
C1093 C1094 1.421 . S
C1093 C1095 1.417 . S
C1093 C1105 1.422 . S
C1094 C1092 1.422 . S
C1094 C1093 1.421 . S
C1094 N1104 1.359 . S
C1095 C1093 1.417 . S
C1095 C1097 1.329 . S
C1095 H1114 0.930 . S
C1096 C1092 1.415 . S
C1096 C1097 1.437 . S
C1096 C1100 1.413 . S
C1097 C1095 1.329 . S
C1097 C1096 1.437 . S
C1097 H1119 0.929 . S
N1098 C1092 1.369 . S
N1098 C1099 1.338 . S
N1098 Gd1103 2.622 . S
C1099 N1098 1.338 . S
C1099 C1101 1.378 . S
C1099 H1111 0.929 . S
C1100 C1096 1.413 . S
C1100 C1101 1.348 . S
C1100 H1116 0.931 . S
C1101 C1099 1.378 . S
C1101 C1100 1.348 . S
C1101 H1117 0.930 . S
Gd1102 N1122 2.622 . S
Gd1102 N1129 2.570 . S
Gd1102 O1136 2.353 . S
Gd1102 O1137 2.468 . S
Gd1102 O1138 2.427 . S
Gd1102 O1140 2.388 . S
Gd1102 O1141 2.386 . S
Gd1102 O1145 2.307 . S
Gd1102 C1155 2.805 . S
Gd1103 N1098 2.622 . S
Gd1103 N1104 2.570 . S
Gd1103 O1135 2.386 . S
Gd1103 O1139 2.307 . S
Gd1103 O1142 2.353 . S
Gd1103 O1143 2.468 . S
Gd1103 O1144 2.427 . S
Gd1103 O1146 2.388 . S
Gd1103 C1167 2.805 . S
N1104 C1094 1.359 . S
N1104 Gd1103 2.570 . S
N1104 C1106 1.343 . S
C1105 C1093 1.422 . S
C1105 C1107 1.321 . S
C1105 H1113 0.931 . S
C1106 N1104 1.343 . S
C1106 C1107 1.390 . S
C1106 H1108 0.931 . S
C1107 C1105 1.321 . S
C1107 C1106 1.390 . S
C1107 H1109 0.930 . S
H1108 C1106 0.931 . S
H1109 C1107 0.930 . S
H1110 C1133 0.931 . S
H1111 C1099 0.929 . S
H1112 C1134 0.930 . S
H1113 C1105 0.931 . S
H1114 C1095 0.930 . S
H1115 C1124 0.929 . S
H1116 C1100 0.931 . S
H1117 C1101 0.930 . S
H1118 C1156 0.930 . S
H1119 C1097 0.929 . S
H1120 C1125 0.931 . S
H1121 C1126 0.930 . S
N1122 Gd1102 2.622 . S
N1122 C1123 1.369 . S
N1122 C1124 1.338 . S
C1123 N1122 1.369 . S
C1123 C1127 1.415 . S
C1123 C1130 1.422 . S
C1124 H1115 0.929 . S
C1124 N1122 1.338 . S
C1124 C1126 1.378 . S
C1125 H1120 0.931 . S
C1125 C1126 1.348 . S
C1125 C1127 1.413 . S
C1126 H1121 0.930 . S
C1126 C1124 1.378 . S
C1126 C1125 1.348 . S
C1127 C1123 1.415 . S
C1127 C1125 1.413 . S
C1127 C1157 1.437 . S
H1128 C1157 0.929 . S
N1129 Gd1102 2.570 . S
N1129 C1130 1.359 . S
N1129 C1133 1.343 . S
C1130 C1123 1.422 . S
C1130 N1129 1.359 . S
C1130 C1132 1.421 . S
C1131 C1132 1.422 . S
C1131 C1134 1.321 . S
C1131 H1158 0.931 . S
C1132 C1130 1.421 . S
C1132 C1131 1.422 . S
C1132 C1156 1.417 . S
C1133 H1110 0.931 . S
C1133 N1129 1.343 . S
C1133 C1134 1.390 . S
C1134 H1112 0.930 . S
C1134 C1131 1.321 . S
C1134 C1133 1.390 . S
O1135 Gd1103 2.386 . S
O1135 C1147 1.265 . S
O1136 Gd1102 2.353 . S
O1136 C1147 1.242 . S
O1137 Gd1102 2.468 . S
O1137 C1155 1.263 . S
O1138 Gd1102 2.427 . S
O1138 C1155 1.252 . S
O1139 Gd1103 2.307 . S
O1139 C1148 1.261 . S
O1140 Gd1102 2.388 . S
O1140 C1148 1.252 . S
O1141 Gd1102 2.386 . S
O1141 C1159 1.265 . S
O1142 Gd1103 2.353 . S
O1142 C1159 1.242 . S
O1143 Gd1103 2.468 . S
O1143 C1167 1.263 . S
O1144 Gd1103 2.427 . S
O1144 C1167 1.252 . S
O1145 Gd1102 2.307 . S
O1145 C1160 1.261 . S
O1146 Gd1103 2.388 . S
O1146 C1160 1.252 . S
C1147 O1135 1.265 . S
C1147 O1136 1.242 . S
C1148 O1139 1.261 . S
C1148 O1140 1.252 . S
C1149 C1152 1.394 . S
C1149 C1154 1.370 . S
C1149 C1155 1.500 . S
C1150 C1153 1.383 . S
C1150 C1154 1.395 . S
C1151 C1152 1.396 . S
C1151 C1153 1.365 . S
C1151 H1168 0.929 . S
C1152 C1149 1.394 . S
C1152 C1151 1.396 . S
C1152 H1169 0.930 . S
C1153 C1150 1.383 . S
C1153 C1151 1.365 . S
C1153 H1170 0.931 . S
C1154 C1149 1.370 . S
C1154 C1150 1.395 . S
C1154 H1171 0.930 . S
C1155 Gd1102 2.805 . S
C1155 O1137 1.263 . S
C1155 O1138 1.252 . S
C1155 C1149 1.500 . S
C1156 H1118 0.930 . S
C1156 C1132 1.417 . S
C1156 C1157 1.329 . S
C1157 C1127 1.437 . S
C1157 H1128 0.929 . S
C1157 C1156 1.329 . S
H1158 C1131 0.931 . S
C1159 O1141 1.265 . S
C1159 O1142 1.242 . S
C1160 O1145 1.261 . S
C1160 O1146 1.252 . S
C1161 C1164 1.394 . S
C1161 C1166 1.370 . S
C1161 C1167 1.500 . S
C1162 C1165 1.383 . S
C1162 C1166 1.395 . S
C1163 C1164 1.396 . S
C1163 C1165 1.365 . S
C1163 H1172 0.929 . S
C1164 C1161 1.394 . S
C1164 C1163 1.396 . S
C1164 H1173 0.930 . S
C1165 C1162 1.383 . S
C1165 C1163 1.365 . S
C1165 H1174 0.931 1_554 S
C1166 C1161 1.370 . S
C1166 C1162 1.395 . S
C1166 H1175 0.930 . S
C1167 Gd1103 2.805 . S
C1167 O1143 1.263 . S
C1167 O1144 1.252 . S
C1167 C1161 1.500 . S
H1168 C1151 0.929 . S
H1169 C1152 0.930 . S
H1170 C1153 0.931 . S
H1171 C1154 0.930 . S
H1172 C1163 0.929 . S
H1173 C1164 0.930 . S
H1174 C1165 0.931 1_556 S
H1175 C1166 0.930 . S
C1176 C1178 1.422 . S
C1176 C1180 1.415 . S
C1176 N1182 1.369 . S
C1177 C1178 1.421 . S
C1177 C1179 1.417 . S
C1177 C1189 1.422 . S
C1178 C1176 1.422 . S
C1178 C1177 1.421 . S
C1178 N1188 1.359 . S
C1179 C1177 1.417 . S
C1179 C1181 1.329 . S
C1179 H1198 0.930 . S
C1180 C1176 1.415 . S
C1180 C1181 1.437 . S
C1180 C1184 1.413 . S
C1181 C1179 1.329 . S
C1181 C1180 1.437 . S
C1181 H1203 0.929 . S
N1182 C1176 1.369 . S
N1182 C1183 1.338 . S
N1182 Gd1187 2.622 . S
C1183 N1182 1.338 . S
C1183 C1185 1.378 . S
C1183 H1195 0.929 . S
C1184 C1180 1.413 . S
C1184 C1185 1.348 . S
C1184 H1200 0.931 . S
C1185 C1183 1.378 . S
C1185 C1184 1.348 . S
C1185 H1201 0.930 . S
Gd1186 N1206 2.622 . S
Gd1186 N1213 2.570 . S
Gd1186 O1220 2.353 . S
Gd1186 O1221 2.468 . S
Gd1186 O1222 2.427 . S
Gd1186 O1224 2.388 . S
Gd1186 O1225 2.386 . S
Gd1186 O1229 2.307 . S
Gd1186 C1239 2.805 . S
Gd1187 N1182 2.622 . S
Gd1187 N1188 2.570 . S
Gd1187 O1219 2.386 . S
Gd1187 O1223 2.307 . S
Gd1187 O1226 2.353 . S
Gd1187 O1227 2.468 . S
Gd1187 O1228 2.427 . S
Gd1187 O1230 2.388 . S
Gd1187 C1251 2.805 . S
N1188 C1178 1.359 . S
N1188 Gd1187 2.570 . S
N1188 C1190 1.343 . S
C1189 C1177 1.422 . S
C1189 C1191 1.321 . S
C1189 H1197 0.931 . S
C1190 N1188 1.343 . S
C1190 C1191 1.390 . S
C1190 H1192 0.931 . S
C1191 C1189 1.321 . S
C1191 C1190 1.390 . S
C1191 H1193 0.930 . S
H1192 C1190 0.931 . S
H1193 C1191 0.930 . S
H1194 C1217 0.931 . S
H1195 C1183 0.929 . S
H1196 C1218 0.930 . S
H1197 C1189 0.931 . S
H1198 C1179 0.930 . S
H1199 C1208 0.929 . S
H1200 C1184 0.931 . S
H1201 C1185 0.930 . S
H1202 C1240 0.930 . S
H1203 C1181 0.929 . S
H1204 C1209 0.931 . S
H1205 C1210 0.930 . S
N1206 Gd1186 2.622 . S
N1206 C1207 1.369 . S
N1206 C1208 1.338 . S
C1207 N1206 1.369 . S
C1207 C1211 1.415 . S
C1207 C1214 1.422 . S
C1208 H1199 0.929 . S
C1208 N1206 1.338 . S
C1208 C1210 1.378 . S
C1209 H1204 0.931 . S
C1209 C1210 1.348 . S
C1209 C1211 1.413 . S
C1210 H1205 0.930 . S
C1210 C1208 1.378 . S
C1210 C1209 1.348 . S
C1211 C1207 1.415 . S
C1211 C1209 1.413 . S
C1211 C1241 1.437 . S
H1212 C1241 0.929 . S
N1213 Gd1186 2.570 . S
N1213 C1214 1.359 . S
N1213 C1217 1.343 . S
C1214 C1207 1.422 . S
C1214 N1213 1.359 . S
C1214 C1216 1.421 . S
C1215 C1216 1.422 . S
C1215 C1218 1.321 . S
C1215 H1242 0.931 . S
C1216 C1214 1.421 . S
C1216 C1215 1.422 . S
C1216 C1240 1.417 . S
C1217 H1194 0.931 . S
C1217 N1213 1.343 . S
C1217 C1218 1.390 . S
C1218 H1196 0.930 . S
C1218 C1215 1.321 . S
C1218 C1217 1.390 . S
O1219 Gd1187 2.386 . S
O1219 C1231 1.265 . S
O1220 Gd1186 2.353 . S
O1220 C1231 1.242 . S
O1221 Gd1186 2.468 . S
O1221 C1239 1.263 . S
O1222 Gd1186 2.427 . S
O1222 C1239 1.252 . S
O1223 Gd1187 2.307 . S
O1223 C1232 1.261 . S
O1224 Gd1186 2.388 . S
O1224 C1232 1.252 . S
O1225 Gd1186 2.386 . S
O1225 C1243 1.265 . S
O1226 Gd1187 2.353 . S
O1226 C1243 1.242 . S
O1227 Gd1187 2.468 . S
O1227 C1251 1.263 . S
O1228 Gd1187 2.427 . S
O1228 C1251 1.252 . S
O1229 Gd1186 2.307 . S
O1229 C1244 1.261 . S
O1230 Gd1187 2.388 . S
O1230 C1244 1.252 . S
C1231 O1219 1.265 . S
C1231 O1220 1.242 . S
C1232 O1223 1.261 . S
C1232 O1224 1.252 . S
C1233 C1236 1.394 . S
C1233 C1238 1.370 . S
C1233 C1239 1.500 . S
C1234 C1237 1.383 . S
C1234 C1238 1.395 . S
C1235 C1236 1.396 . S
C1235 C1237 1.365 . S
C1235 H1252 0.929 . S
C1236 C1233 1.394 . S
C1236 C1235 1.396 . S
C1236 H1253 0.930 . S
C1237 C1234 1.383 . S
C1237 C1235 1.365 . S
C1237 H1254 0.931 1_556 S
C1238 C1233 1.370 . S
C1238 C1234 1.395 . S
C1238 H1255 0.930 . S
C1239 Gd1186 2.805 . S
C1239 O1221 1.263 . S
C1239 O1222 1.252 . S
C1239 C1233 1.500 . S
C1240 H1202 0.930 . S
C1240 C1216 1.417 . S
C1240 C1241 1.329 . S
C1241 C1211 1.437 . S
C1241 H1212 0.929 . S
C1241 C1240 1.329 . S
H1242 C1215 0.931 . S
C1243 O1225 1.265 . S
C1243 O1226 1.242 . S
C1244 O1229 1.261 . S
C1244 O1230 1.252 . S
C1245 C1248 1.394 . S
C1245 C1250 1.370 . S
C1245 C1251 1.500 . S
C1246 C1249 1.383 . S
C1246 C1250 1.395 . S
C1247 C1248 1.396 . S
C1247 C1249 1.365 . S
C1247 H1256 0.929 . S
C1248 C1245 1.394 . S
C1248 C1247 1.396 . S
C1248 H1257 0.930 . S
C1249 C1246 1.383 . S
C1249 C1247 1.365 . S
C1249 H1258 0.931 . S
C1250 C1245 1.370 . S
C1250 C1246 1.395 . S
C1250 H1259 0.930 . S
C1251 Gd1187 2.805 . S
C1251 O1227 1.263 . S
C1251 O1228 1.252 . S
C1251 C1245 1.500 . S
H1252 C1235 0.929 . S
H1253 C1236 0.930 . S
H1254 C1237 0.931 1_554 S
H1255 C1238 0.930 . S
H1256 C1247 0.929 . S
H1257 C1248 0.930 . S
H1258 C1249 0.931 . S
H1259 C1250 0.930 . S
C1260 C1262 1.422 . S
C1260 C1264 1.415 . S
C1260 N1266 1.369 . S
C1261 C1262 1.421 . S
C1261 C1263 1.417 . S
C1261 C1273 1.422 . S
C1262 C1260 1.422 . S
C1262 C1261 1.421 . S
C1262 N1272 1.359 . S
C1263 C1261 1.417 . S
C1263 C1265 1.329 . S
C1263 H1282 0.930 . S
C1264 C1260 1.415 . S
C1264 C1265 1.437 . S
C1264 C1268 1.413 . S
C1265 C1263 1.329 . S
C1265 C1264 1.437 . S
C1265 H1287 0.929 . S
N1266 C1260 1.369 . S
N1266 C1267 1.338 . S
N1266 Gd1271 2.622 . S
C1267 N1266 1.338 . S
C1267 C1269 1.378 . S
C1267 H1279 0.929 . S
C1268 C1264 1.413 . S
C1268 C1269 1.348 . S
C1268 H1284 0.931 . S
C1269 C1267 1.378 . S
C1269 C1268 1.348 . S
C1269 H1285 0.930 . S
Gd1270 N1290 2.622 . S
Gd1270 N1297 2.570 . S
Gd1270 O1304 2.353 . S
Gd1270 O1305 2.468 . S
Gd1270 O1306 2.427 . S
Gd1270 O1308 2.388 . S
Gd1270 O1309 2.386 . S
Gd1270 O1313 2.307 . S
Gd1270 C1323 2.805 . S
Gd1271 N1266 2.622 . S
Gd1271 N1272 2.570 . S
Gd1271 O1303 2.386 . S
Gd1271 O1307 2.307 . S
Gd1271 O1310 2.353 . S
Gd1271 O1311 2.468 . S
Gd1271 O1312 2.427 . S
Gd1271 O1314 2.388 . S
Gd1271 C1335 2.805 . S
N1272 C1262 1.359 . S
N1272 Gd1271 2.570 . S
N1272 C1274 1.343 . S
C1273 C1261 1.422 . S
C1273 C1275 1.321 . S
C1273 H1281 0.931 . S
C1274 N1272 1.343 . S
C1274 C1275 1.390 . S
C1274 H1276 0.931 . S
C1275 C1273 1.321 . S
C1275 C1274 1.390 . S
C1275 H1277 0.930 . S
H1276 C1274 0.931 . S
H1277 C1275 0.930 . S
H1278 C1301 0.931 . S
H1279 C1267 0.929 . S
H1280 C1302 0.930 . S
H1281 C1273 0.931 . S
H1282 C1263 0.930 . S
H1283 C1292 0.929 . S
H1284 C1268 0.931 . S
H1285 C1269 0.930 . S
H1286 C1324 0.930 . S
H1287 C1265 0.929 . S
H1288 C1293 0.931 . S
H1289 C1294 0.930 . S
N1290 Gd1270 2.622 . S
N1290 C1291 1.369 . S
N1290 C1292 1.338 . S
C1291 N1290 1.369 . S
C1291 C1295 1.415 . S
C1291 C1298 1.422 . S
C1292 H1283 0.929 . S
C1292 N1290 1.338 . S
C1292 C1294 1.378 . S
C1293 H1288 0.931 . S
C1293 C1294 1.348 . S
C1293 C1295 1.413 . S
C1294 H1289 0.930 . S
C1294 C1292 1.378 . S
C1294 C1293 1.348 . S
C1295 C1291 1.415 . S
C1295 C1293 1.413 . S
C1295 C1325 1.437 . S
H1296 C1325 0.929 . S
N1297 Gd1270 2.570 . S
N1297 C1298 1.359 . S
N1297 C1301 1.343 . S
C1298 C1291 1.422 . S
C1298 N1297 1.359 . S
C1298 C1300 1.421 . S
C1299 C1300 1.422 . S
C1299 C1302 1.321 . S
C1299 H1326 0.931 . S
C1300 C1298 1.421 . S
C1300 C1299 1.422 . S
C1300 C1324 1.417 . S
C1301 H1278 0.931 . S
C1301 N1297 1.343 . S
C1301 C1302 1.390 . S
C1302 H1280 0.930 . S
C1302 C1299 1.321 . S
C1302 C1301 1.390 . S
O1303 Gd1271 2.386 . S
O1303 C1315 1.265 . S
O1304 Gd1270 2.353 . S
O1304 C1315 1.242 . S
O1305 Gd1270 2.468 . S
O1305 C1323 1.263 . S
O1306 Gd1270 2.427 . S
O1306 C1323 1.252 . S
O1307 Gd1271 2.307 . S
O1307 C1316 1.261 . S
O1308 Gd1270 2.388 . S
O1308 C1316 1.252 . S
O1309 Gd1270 2.386 . S
O1309 C1327 1.265 . S
O1310 Gd1271 2.353 . S
O1310 C1327 1.242 . S
O1311 Gd1271 2.468 . S
O1311 C1335 1.263 . S
O1312 Gd1271 2.427 . S
O1312 C1335 1.252 . S
O1313 Gd1270 2.307 . S
O1313 C1328 1.261 . S
O1314 Gd1271 2.388 . S
O1314 C1328 1.252 . S
C1315 O1303 1.265 . S
C1315 O1304 1.242 . S
C1316 O1307 1.261 . S
C1316 O1308 1.252 . S
C1317 C1320 1.394 . S
C1317 C1322 1.370 . S
C1317 C1323 1.500 . S
C1318 C1321 1.383 . S
C1318 C1322 1.395 . S
C1319 C1320 1.396 . S
C1319 C1321 1.365 . S
C1319 H1336 0.929 . S
C1320 C1317 1.394 . S
C1320 C1319 1.396 . S
C1320 H1337 0.930 . S
C1321 C1318 1.383 . S
C1321 C1319 1.365 . S
C1321 H1338 0.931 . S
C1322 C1317 1.370 . S
C1322 C1318 1.395 . S
C1322 H1339 0.930 . S
C1323 Gd1270 2.805 . S
C1323 O1305 1.263 . S
C1323 O1306 1.252 . S
C1323 C1317 1.500 . S
C1324 H1286 0.930 . S
C1324 C1300 1.417 . S
C1324 C1325 1.329 . S
C1325 C1295 1.437 . S
C1325 H1296 0.929 . S
C1325 C1324 1.329 . S
H1326 C1299 0.931 . S
C1327 O1309 1.265 . S
C1327 O1310 1.242 . S
C1328 O1313 1.261 . S
C1328 O1314 1.252 . S
C1329 C1332 1.394 . S
C1329 C1334 1.370 . S
C1329 C1335 1.500 . S
C1330 C1333 1.383 . S
C1330 C1334 1.395 . S
C1331 C1332 1.396 . S
C1331 C1333 1.365 . S
C1331 H1340 0.929 . S
C1332 C1329 1.394 . S
C1332 C1331 1.396 . S
C1332 H1341 0.930 . S
C1333 C1330 1.383 . S
C1333 C1331 1.365 . S
C1333 H1342 0.931 1_554 S
C1334 C1329 1.370 . S
C1334 C1330 1.395 . S
C1334 H1343 0.930 . S
C1335 Gd1271 2.805 . S
C1335 O1311 1.263 . S
C1335 O1312 1.252 . S
C1335 C1329 1.500 . S
H1336 C1319 0.929 . S
H1337 C1320 0.930 . S
H1338 C1321 0.931 . S
H1339 C1322 0.930 . S
H1340 C1331 0.929 . S
H1341 C1332 0.930 . S
H1342 C1333 0.931 1_556 S
H1343 C1334 0.930 . S
H1344 C1356 0.930 . S
H1345 C1358 0.930 . S
H1346 C1359 0.930 . S
H1347 C1363 0.959 . S
H1348 C1363 0.959 1_545 S
H1349 C1363 0.961 . S
H1350 C1364 0.958 1_565 S
H1351 C1364 0.964 . S
H1352 C1364 0.958 . S
H1353 C1367 0.929 . S
H1354 C1368 0.931 . S
H1355 C1370 0.930 . S
C1356 H1344 0.930 . S
C1356 C1357 1.399 . S
C1356 C1361 1.399 . S
C1357 C1356 1.399 . S
C1357 C1358 1.376 . S
C1358 H1345 0.930 . S
C1358 C1357 1.376 . S
C1358 C1359 1.388 . S
C1359 H1346 0.930 . S
C1359 C1358 1.388 . S
C1359 C1360 1.390 . S
C1360 C1359 1.390 . S
C1360 C1361 1.394 . S
C1360 C1366 1.465 . S
C1361 C1356 1.399 . S
C1361 C1360 1.394 . S
C1361 C1362 1.516 . S
C1362 C1361 1.516 . S
C1362 C1363 1.502 . S
C1362 C1364 1.560 1_565 S
C1362 C1365 1.526 1_565 S
C1363 H1347 0.959 . S
C1363 H1348 0.959 1_565 S
C1363 H1349 0.961 . S
C1363 C1362 1.502 . S
C1364 H1350 0.958 1_545 S
C1364 H1351 0.964 . S
C1364 H1352 0.958 . S
C1364 C1362 1.560 1_545 S
C1365 C1362 1.526 1_545 S
C1365 C1366 1.396 1_545 S
C1365 C1370 1.390 . S
C1366 C1360 1.465 . S
C1366 C1365 1.396 1_565 S
C1366 C1367 1.399 . S
C1367 H1353 0.929 . S
C1367 C1366 1.399 . S
C1367 C1368 1.385 1_565 S
C1368 H1354 0.931 . S
C1368 C1367 1.385 1_545 S
C1368 C1369 1.389 . S
C1369 C1368 1.389 . S
C1369 C1370 1.387 . S
C1370 H1355 0.930 . S
C1370 C1365 1.390 . S
C1370 C1369 1.387 . S
H1371 C1383 0.930 . S
H1372 C1385 0.930 . S
H1373 C1386 0.930 . S
H1374 C1390 0.959 . S
H1375 C1390 0.959 . S
H1376 C1390 0.961 . S
H1377 C1391 0.960 . S
H1378 C1391 0.961 . S
H1379 C1391 0.959 . S
H1380 C1394 0.929 . S
H1381 C1395 0.931 . S
H1382 C1397 0.930 . S
C1383 H1371 0.930 . S
C1383 C1384 1.399 . S
C1383 C1388 1.399 . S
C1384 C1383 1.399 . S
C1384 C1385 1.376 . S
C1385 H1372 0.930 . S
C1385 C1384 1.376 . S
C1385 C1386 1.388 . S
C1386 H1373 0.930 . S
C1386 C1385 1.388 . S
C1386 C1387 1.390 . S
C1387 C1386 1.390 . S
C1387 C1388 1.394 . S
C1387 C1393 1.465 . S
C1388 C1383 1.399 . S
C1388 C1387 1.394 . S
C1388 C1389 1.516 . S
C1389 C1388 1.516 . S
C1389 C1390 1.502 . S
C1389 C1391 1.561 . S
C1389 C1392 1.526 . S
C1390 H1374 0.959 . S
C1390 H1375 0.959 . S
C1390 H1376 0.961 . S
C1390 C1389 1.502 . S
C1391 H1377 0.960 . S
C1391 H1378 0.961 . S
C1391 H1379 0.959 . S
C1391 C1389 1.561 . S
C1392 C1389 1.526 . S
C1392 C1393 1.396 . S
C1392 C1397 1.390 1_655 S
C1393 C1387 1.465 . S
C1393 C1392 1.396 . S
C1393 C1394 1.399 1_655 S
C1394 H1380 0.929 . S
C1394 C1393 1.399 1_455 S
C1394 C1395 1.385 . S
C1395 H1381 0.931 . S
C1395 C1394 1.385 . S
C1395 C1396 1.389 . S
C1396 C1395 1.389 . S
C1396 C1397 1.387 . S
C1397 H1382 0.930 . S
C1397 C1392 1.390 1_455 S
C1397 C1396 1.387 . S
H1398 C1410 0.930 . S
H1399 C1412 0.930 . S
H1400 C1413 0.930 . S
H1401 C1417 0.959 . S
H1402 C1417 0.959 . S
H1403 C1417 0.961 . S
H1404 C1418 0.960 . S
H1405 C1418 0.961 . S
H1406 C1418 0.959 . S
H1407 C1421 0.929 . S
H1408 C1422 0.931 . S
H1409 C1424 0.930 . S
C1410 H1398 0.930 . S
C1410 C1411 1.399 . S
C1410 C1415 1.399 1_565 S
C1411 C1410 1.399 . S
C1411 C1412 1.376 . S
C1412 H1399 0.930 . S
C1412 C1411 1.376 . S
C1412 C1413 1.388 . S
C1413 H1400 0.930 . S
C1413 C1412 1.388 . S
C1413 C1414 1.390 1_565 S
C1414 C1413 1.390 1_545 S
C1414 C1415 1.394 . S
C1414 C1420 1.465 . S
C1415 C1410 1.399 1_545 S
C1415 C1414 1.394 . S
C1415 C1416 1.516 . S
C1416 C1415 1.516 . S
C1416 C1417 1.502 . S
C1416 C1418 1.561 . S
C1416 C1419 1.526 . S
C1417 H1401 0.959 . S
C1417 H1402 0.959 . S
C1417 H1403 0.961 . S
C1417 C1416 1.502 . S
C1418 H1404 0.960 . S
C1418 H1405 0.961 . S
C1418 H1406 0.959 . S
C1418 C1416 1.561 . S
C1419 C1416 1.526 . S
C1419 C1420 1.396 . S
C1419 C1424 1.390 . S
C1420 C1414 1.465 . S
C1420 C1419 1.396 . S
C1420 C1421 1.399 . S
C1421 H1407 0.929 . S
C1421 C1420 1.399 . S
C1421 C1422 1.385 . S
C1422 H1408 0.931 . S
C1422 C1421 1.385 . S
C1422 C1423 1.389 . S
C1423 C1422 1.389 . S
C1423 C1424 1.387 . S
C1424 H1409 0.930 . S
C1424 C1419 1.390 . S
C1424 C1423 1.387 . S
H1425 C1437 0.930 . S
H1426 C1439 0.930 . S
H1427 C1440 0.930 . S
H1428 C1444 0.959 . S
H1429 C1444 0.959 . S
H1430 C1444 0.961 1_655 S
H1431 C1445 0.960 . S
H1432 C1445 0.961 . S
H1433 C1445 0.959 . S
H1434 C1448 0.929 . S
H1435 C1449 0.931 . S
H1436 C1451 0.930 . S
C1437 H1425 0.930 . S
C1437 C1438 1.399 . S
C1437 C1442 1.415 . S
C1438 C1437 1.399 . S
C1438 C1439 1.376 . S
C1439 H1426 0.930 . S
C1439 C1438 1.376 . S
C1439 C1440 1.388 1_655 S
C1440 H1427 0.930 . S
C1440 C1439 1.388 1_455 S
C1440 C1441 1.390 . S
C1441 C1440 1.390 . S
C1441 C1442 1.385 1_455 S
C1441 C1447 1.465 . S
C1442 C1437 1.415 . S
C1442 C1441 1.385 1_655 S
C1442 C1443 1.507 1_655 S
C1443 C1442 1.507 1_455 S
C1443 C1444 1.502 . S
C1443 C1445 1.561 . S
C1443 C1446 1.526 . S
C1444 H1428 0.959 . S
C1444 H1429 0.959 . S
C1444 H1430 0.961 1_455 S
C1444 C1443 1.502 . S
C1445 H1431 0.960 . S
C1445 H1432 0.961 . S
C1445 H1433 0.959 . S
C1445 C1443 1.561 . S
C1446 C1443 1.526 . S
C1446 C1447 1.396 . S
C1446 C1451 1.390 . S
C1447 C1441 1.465 . S
C1447 C1446 1.396 . S
C1447 C1448 1.399 . S
C1448 H1434 0.929 . S
C1448 C1447 1.399 . S
C1448 C1449 1.385 . S
C1449 H1435 0.931 . S
C1449 C1448 1.385 . S
C1449 C1450 1.389 . S
C1450 C1449 1.389 . S
C1450 C1451 1.387 . S
C1451 H1436 0.930 . S
C1451 C1446 1.390 . S
C1451 C1450 1.387 . S
H1452 C1464 0.930 . S
H1453 C1466 0.930 . S
H1454 C1467 0.930 . S
H1455 C1471 0.959 . S
H1456 C1471 0.959 . S
H1457 C1471 0.961 . S
H1458 C1472 0.960 . S
H1459 C1472 0.961 . S
H1460 C1472 0.959 . S
H1461 C1475 0.929 . S
H1462 C1476 0.931 . S
H1463 C1478 0.930 . S
C1464 H1452 0.930 . S
C1464 C1465 1.399 . S
C1464 C1469 1.399 . S
C1465 C1464 1.399 . S
C1465 C1466 1.376 . S
C1466 H1453 0.930 . S
C1466 C1465 1.376 . S
C1466 C1467 1.388 1_554 S
C1467 H1454 0.930 . S
C1467 C1466 1.388 1_556 S
C1467 C1468 1.390 1_556 S
C1468 C1467 1.390 1_554 S
C1468 C1469 1.394 . S
C1468 C1474 1.465 1_554 S
C1469 C1464 1.399 . S
C1469 C1468 1.394 . S
C1469 C1470 1.516 . S
C1470 C1469 1.516 . S
C1470 C1471 1.502 . S
C1470 C1472 1.561 . S
C1470 C1473 1.526 . S
C1471 H1455 0.959 . S
C1471 H1456 0.959 . S
C1471 H1457 0.961 . S
C1471 C1470 1.502 . S
C1472 H1458 0.960 . S
C1472 H1459 0.961 . S
C1472 H1460 0.959 . S
C1472 C1470 1.561 . S
C1473 C1470 1.526 . S
C1473 C1474 1.396 1_554 S
C1473 C1478 1.390 . S
C1474 C1468 1.465 1_556 S
C1474 C1473 1.396 1_556 S
C1474 C1475 1.399 . S
C1475 H1461 0.929 . S
C1475 C1474 1.399 . S
C1475 C1476 1.385 . S
C1476 H1462 0.931 . S
C1476 C1475 1.385 . S
C1476 C1477 1.389 . S
C1477 C1476 1.389 . S
C1477 C1478 1.387 1_556 S
C1478 H1463 0.930 . S
C1478 C1473 1.390 . S
C1478 C1477 1.387 1_554 S
H1479 C1491 0.930 . S
H1480 C1493 0.930 . S
H1481 C1494 0.930 . S
H1482 C1498 0.959 . S
H1483 C1498 0.959 . S
H1484 C1498 0.961 . S
H1485 C1499 0.960 . S
H1486 C1499 0.961 . S
H1487 C1499 0.959 . S
H1488 C1502 0.929 . S
H1489 C1503 0.931 . S
H1490 C1505 0.930 1_554 S
C1491 H1479 0.930 . S
C1491 C1492 1.399 . S
C1491 C1496 1.399 . S
C1492 C1491 1.399 . S
C1492 C1493 1.376 1_554 S
C1493 H1480 0.930 . S
C1493 C1492 1.376 1_556 S
C1493 C1494 1.388 . S
C1494 H1481 0.930 . S
C1494 C1493 1.388 . S
C1494 C1495 1.390 . S
C1495 C1494 1.390 . S
C1495 C1496 1.394 1_556 S
C1495 C1501 1.465 . S
C1496 C1491 1.399 . S
C1496 C1495 1.394 1_554 S
C1496 C1497 1.516 . S
C1497 C1496 1.516 . S
C1497 C1498 1.502 . S
C1497 C1499 1.561 . S
C1497 C1500 1.526 1_554 S
C1498 H1482 0.959 . S
C1498 H1483 0.959 . S
C1498 H1484 0.961 . S
C1498 C1497 1.502 . S
C1499 H1485 0.960 . S
C1499 H1486 0.961 . S
C1499 H1487 0.959 . S
C1499 C1497 1.561 . S
C1500 C1497 1.526 1_556 S
C1500 C1501 1.396 . S
C1500 C1505 1.390 . S
C1501 C1495 1.465 . S
C1501 C1500 1.396 . S
C1501 C1502 1.399 . S
C1502 H1488 0.929 . S
C1502 C1501 1.399 . S
C1502 C1503 1.385 . S
C1503 H1489 0.931 . S
C1503 C1502 1.385 . S
C1503 C1504 1.389 . S
C1504 C1503 1.389 . S
C1504 C1505 1.387 . S
C1505 H1490 0.930 1_556 S
C1505 C1500 1.390 . S
C1505 C1504 1.387 . S
H1506 C1518 0.930 1_556 S
H1507 C1520 0.930 . S
H1508 C1521 0.930 . S
H1509 C1525 0.959 . S
H1510 C1525 0.959 . S
H1511 C1525 0.961 . S
H1512 C1526 0.960 . S
H1513 C1526 0.961 . S
H1514 C1526 0.959 . S
H1515 C1529 0.929 . S
H1516 C1530 0.931 . S
H1517 C1532 0.930 . S
C1518 H1506 0.930 1_554 S
C1518 C1519 1.399 . S
C1518 C1523 1.399 . S
C1519 C1518 1.399 . S
C1519 C1520 1.376 . S
C1520 H1507 0.930 . S
C1520 C1519 1.376 . S
C1520 C1521 1.388 . S
C1521 H1508 0.930 . S
C1521 C1520 1.388 . S
C1521 C1522 1.390 . S
C1522 C1521 1.390 . S
C1522 C1523 1.394 . S
C1522 C1528 1.465 . S
C1523 C1518 1.399 . S
C1523 C1522 1.394 . S
C1523 C1524 1.516 1_554 S
C1524 C1523 1.516 1_556 S
C1524 C1525 1.502 . S
C1524 C1526 1.561 . S
C1524 C1527 1.526 . S
C1525 H1509 0.959 . S
C1525 H1510 0.959 . S
C1525 H1511 0.961 . S
C1525 C1524 1.502 . S
C1526 H1512 0.960 . S
C1526 H1513 0.961 . S
C1526 H1514 0.959 . S
C1526 C1524 1.561 . S
C1527 C1524 1.526 . S
C1527 C1528 1.396 1_556 S
C1527 C1532 1.390 . S
C1528 C1522 1.465 . S
C1528 C1527 1.396 1_554 S
C1528 C1529 1.399 . S
C1529 H1515 0.929 . S
C1529 C1528 1.399 . S
C1529 C1530 1.385 . S
C1530 H1516 0.931 . S
C1530 C1529 1.385 . S
C1530 C1531 1.389 1_554 S
C1531 C1530 1.389 1_556 S
C1531 C1532 1.387 . S
C1532 H1517 0.930 . S
C1532 C1527 1.390 . S
C1532 C1531 1.387 . S
H1533 C1545 0.930 . S
H1534 C1547 0.930 . S
H1535 C1548 0.930 . S
H1536 C1552 0.959 . S
H1537 C1552 0.959 . S
H1538 C1552 0.961 . S
H1539 C1553 0.960 . S
H1540 C1553 0.961 . S
H1541 C1553 0.959 . S
H1542 C1556 0.929 . S
H1543 C1557 0.931 . S
H1544 C1559 0.930 . S
C1545 H1533 0.930 . S
C1545 C1546 1.399 . S
C1545 C1550 1.399 . S
C1546 C1545 1.399 . S
C1546 C1547 1.376 1_554 S
C1547 H1534 0.930 . S
C1547 C1546 1.376 1_556 S
C1547 C1548 1.388 . S
C1548 H1535 0.930 . S
C1548 C1547 1.388 . S
C1548 C1549 1.390 . S
C1549 C1548 1.390 . S
C1549 C1550 1.394 1_556 S
C1549 C1555 1.465 . S
C1550 C1545 1.399 . S
C1550 C1549 1.394 1_554 S
C1550 C1551 1.516 . S
C1551 C1550 1.516 . S
C1551 C1552 1.502 . S
C1551 C1553 1.561 . S
C1551 C1554 1.526 1_554 S
C1552 H1536 0.959 . S
C1552 H1537 0.959 . S
C1552 H1538 0.961 . S
C1552 C1551 1.502 . S
C1553 H1539 0.960 . S
C1553 H1540 0.961 . S
C1553 H1541 0.959 . S
C1553 C1551 1.561 . S
C1554 C1551 1.526 1_556 S
C1554 C1555 1.396 . S
C1554 C1559 1.390 . S
C1555 C1549 1.465 . S
C1555 C1554 1.396 . S
C1555 C1556 1.399 . S
C1556 H1542 0.929 . S
C1556 C1555 1.399 . S
C1556 C1557 1.385 . S
C1557 H1543 0.931 . S
C1557 C1556 1.385 . S
C1557 C1558 1.389 . S
C1558 C1557 1.389 . S
C1558 C1559 1.387 . S
C1559 H1544 0.930 . S
C1559 C1554 1.390 . S
C1559 C1558 1.387 . S
H1560 C1572 0.930 . S
H1561 C1574 0.930 . S
H1562 C1575 0.930 . S
H1563 C1579 0.959 . S
H1564 C1579 0.959 . S
H1565 C1579 0.961 . S
H1566 C1580 0.960 . S
H1567 C1580 0.961 . S
H1568 C1580 0.959 . S
H1569 C1583 0.929 . S
H1570 C1584 0.931 . S
H1571 C1586 0.930 . S
C1572 H1560 0.930 . S
C1572 C1573 1.399 . S
C1572 C1577 1.399 . S
C1573 C1572 1.399 . S
C1573 C1574 1.376 . S
C1574 H1561 0.930 . S
C1574 C1573 1.376 . S
C1574 C1575 1.388 . S
C1575 H1562 0.930 . S
C1575 C1574 1.388 . S
C1575 C1576 1.390 . S
C1576 C1575 1.390 . S
C1576 C1577 1.394 . S
C1576 C1582 1.465 . S
C1577 C1572 1.399 . S
C1577 C1576 1.394 . S
C1577 C1578 1.516 . S
C1578 C1577 1.516 . S
C1578 C1579 1.502 . S
C1578 C1580 1.561 . S
C1578 C1581 1.526 . S
C1579 H1563 0.959 . S
C1579 H1564 0.959 . S
C1579 H1565 0.961 . S
C1579 C1578 1.502 . S
C1580 H1566 0.960 . S
C1580 H1567 0.961 . S
C1580 H1568 0.959 . S
C1580 C1578 1.561 . S
C1581 C1578 1.526 . S
C1581 C1582 1.396 . S
C1581 C1586 1.390 . S
C1582 C1576 1.465 . S
C1582 C1581 1.396 . S
C1582 C1583 1.399 . S
C1583 H1569 0.929 . S
C1583 C1582 1.399 . S
C1583 C1584 1.385 . S
C1584 H1570 0.931 . S
C1584 C1583 1.385 . S
C1584 C1585 1.389 . S
C1585 C1584 1.389 . S
C1585 C1586 1.387 . S
C1586 H1571 0.930 . S
C1586 C1581 1.390 . S
C1586 C1585 1.387 . S
H1587 C1599 0.930 . S
H1588 C1601 0.930 . S
H1589 C1602 0.930 . S
H1590 C1606 0.959 . S
H1591 C1606 0.959 . S
H1592 C1606 0.961 . S
H1593 C1607 0.960 . S
H1594 C1607 0.961 . S
H1595 C1607 0.959 . S
H1596 C1610 0.929 . S
H1597 C1611 0.931 . S
H1598 C1613 0.930 . S
C1599 H1587 0.930 . S
C1599 C1600 1.399 . S
C1599 C1604 1.399 . S
C1600 C1599 1.399 . S
C1600 C1601 1.376 . S
C1601 H1588 0.930 . S
C1601 C1600 1.376 . S
C1601 C1602 1.388 . S
C1602 H1589 0.930 . S
C1602 C1601 1.388 . S
C1602 C1603 1.390 . S
C1603 C1602 1.390 . S
C1603 C1604 1.394 . S
C1603 C1609 1.465 . S
C1604 C1599 1.399 . S
C1604 C1603 1.394 . S
C1604 C1605 1.516 . S
C1605 C1604 1.516 . S
C1605 C1606 1.502 . S
C1605 C1607 1.561 . S
C1605 C1608 1.526 . S
C1606 H1590 0.959 . S
C1606 H1591 0.959 . S
C1606 H1592 0.961 . S
C1606 C1605 1.502 . S
C1607 H1593 0.960 . S
C1607 H1594 0.961 . S
C1607 H1595 0.959 . S
C1607 C1605 1.561 . S
C1608 C1605 1.526 . S
C1608 C1609 1.396 . S
C1608 C1613 1.390 . S
C1609 C1603 1.465 . S
C1609 C1608 1.396 . S
C1609 C1610 1.399 . S
C1610 H1596 0.929 . S
C1610 C1609 1.399 . S
C1610 C1611 1.385 . S
C1611 H1597 0.931 . S
C1611 C1610 1.385 . S
C1611 C1612 1.389 . S
C1612 C1611 1.389 . S
C1612 C1613 1.387 . S
C1613 H1598 0.930 . S
C1613 C1608 1.390 . S
C1613 C1612 1.387 . S
H1614 C1626 0.930 . S
H1615 C1628 0.930 . S
H1616 C1629 0.930 . S
H1617 C1633 0.959 . S
H1618 C1633 0.959 . S
H1619 C1633 0.961 . S
H1620 C1634 0.960 . S
H1621 C1634 0.961 . S
H1622 C1634 0.959 . S
H1623 C1637 0.929 . S
H1624 C1638 0.931 . S
H1625 C1640 0.930 . S
C1626 H1614 0.930 . S
C1626 C1627 1.399 . S
C1626 C1631 1.399 . S
C1627 C1626 1.399 . S
C1627 C1628 1.376 . S
C1628 H1615 0.930 . S
C1628 C1627 1.376 . S
C1628 C1629 1.388 . S
C1629 H1616 0.930 . S
C1629 C1628 1.388 . S
C1629 C1630 1.390 . S
C1630 C1629 1.390 . S
C1630 C1631 1.394 . S
C1630 C1636 1.465 . S
C1631 C1626 1.399 . S
C1631 C1630 1.394 . S
C1631 C1632 1.516 . S
C1632 C1631 1.516 . S
C1632 C1633 1.502 . S
C1632 C1634 1.561 . S
C1632 C1635 1.526 . S
C1633 H1617 0.959 . S
C1633 H1618 0.959 . S
C1633 H1619 0.961 . S
C1633 C1632 1.502 . S
C1634 H1620 0.960 . S
C1634 H1621 0.961 . S
C1634 H1622 0.959 . S
C1634 C1632 1.561 . S
C1635 C1632 1.526 . S
C1635 C1636 1.396 . S
C1635 C1640 1.390 . S
C1636 C1630 1.465 . S
C1636 C1635 1.396 . S
C1636 C1637 1.399 . S
C1637 H1623 0.929 . S
C1637 C1636 1.399 . S
C1637 C1638 1.385 . S
C1638 H1624 0.931 . S
C1638 C1637 1.385 . S
C1638 C1639 1.389 . S
C1639 C1638 1.389 . S
C1639 C1640 1.387 . S
C1640 H1625 0.930 . S
C1640 C1635 1.390 . S
C1640 C1639 1.387 . S
H1641 C1653 0.930 . S
H1642 C1655 0.930 . S
H1643 C1656 0.930 . S
H1644 C1660 0.959 . S
H1645 C1660 0.959 . S
H1646 C1660 0.961 . S
H1647 C1661 0.960 . S
H1648 C1661 0.961 . S
H1649 C1661 0.959 . S
H1650 C1664 0.929 . S
H1651 C1665 0.931 . S
H1652 C1667 0.930 . S
C1653 H1641 0.930 . S
C1653 C1654 1.399 . S
C1653 C1658 1.399 . S
C1654 C1653 1.399 . S
C1654 C1655 1.376 . S
C1655 H1642 0.930 . S
C1655 C1654 1.376 . S
C1655 C1656 1.388 . S
C1656 H1643 0.930 . S
C1656 C1655 1.388 . S
C1656 C1657 1.390 . S
C1657 C1656 1.390 . S
C1657 C1658 1.394 . S
C1657 C1663 1.465 . S
C1658 C1653 1.399 . S
C1658 C1657 1.394 . S
C1658 C1659 1.516 . S
C1659 C1658 1.516 . S
C1659 C1660 1.502 . S
C1659 C1661 1.561 . S
C1659 C1662 1.526 . S
C1660 H1644 0.959 . S
C1660 H1645 0.959 . S
C1660 H1646 0.961 . S
C1660 C1659 1.502 . S
C1661 H1647 0.960 . S
C1661 H1648 0.961 . S
C1661 H1649 0.959 . S
C1661 C1659 1.561 . S
C1662 C1659 1.526 . S
C1662 C1663 1.396 . S
C1662 C1667 1.390 . S
C1663 C1657 1.465 . S
C1663 C1662 1.396 . S
C1663 C1664 1.399 . S
C1664 H1650 0.929 . S
C1664 C1663 1.399 . S
C1664 C1665 1.385 . S
C1665 H1651 0.931 . S
C1665 C1664 1.385 . S
C1665 C1666 1.389 . S
C1666 C1665 1.389 . S
C1666 C1667 1.387 . S
C1667 H1652 0.930 . S
C1667 C1662 1.390 . S
C1667 C1666 1.387 . S
H1668 C1680 0.930 . S
H1669 C1682 0.930 . S
H1670 C1683 0.930 . S
H1671 C1687 0.970 . S
H1672 C1687 0.979 . S
H1673 C1687 0.919 1_565 S
H1674 C1688 0.960 1_565 S
H1675 C1688 0.961 . S
H1676 C1688 0.959 . S
H1677 C1691 0.929 . S
H1678 C1692 0.931 . S
H1679 C1694 0.930 . S
C1680 H1668 0.930 . S
C1680 C1681 1.399 . S
C1680 C1685 1.399 . S
C1681 C1680 1.399 . S
C1681 C1682 1.376 . S
C1682 H1669 0.930 . S
C1682 C1681 1.376 . S
C1682 C1683 1.388 1_565 S
C1683 H1670 0.930 . S
C1683 C1682 1.388 1_545 S
C1683 C1684 1.390 . S
C1684 C1683 1.390 . S
C1684 C1685 1.394 1_545 S
C1684 C1690 1.465 . S
C1685 C1680 1.399 . S
C1685 C1684 1.394 1_565 S
C1685 C1686 1.516 1_565 S
C1686 C1685 1.516 1_545 S
C1686 C1687 1.515 . S
C1686 C1688 1.561 . S
C1686 C1689 1.526 . S
C1687 H1671 0.970 . S
C1687 H1672 0.979 . S
C1687 H1673 0.919 1_545 S
C1687 C1686 1.515 . S
C1688 H1674 0.960 1_545 S
C1688 H1675 0.961 . S
C1688 H1676 0.959 . S
C1688 C1686 1.561 . S
C1689 C1686 1.526 . S
C1689 C1690 1.396 . S
C1689 C1694 1.390 . S
C1690 C1684 1.465 . S
C1690 C1689 1.396 . S
C1690 C1691 1.399 . S
C1691 H1677 0.929 . S
C1691 C1690 1.399 . S
C1691 C1692 1.385 . S
C1692 H1678 0.931 . S
C1692 C1691 1.385 . S
C1692 C1693 1.389 . S
C1693 C1692 1.389 . S
C1693 C1694 1.387 . S
C1694 H1679 0.930 . S
C1694 C1689 1.390 . S
C1694 C1693 1.387 . S
H1695 C1707 0.930 . S
H1696 C1709 0.930 . S
H1697 C1710 0.930 . S
H1698 C1714 0.959 . S
H1699 C1714 0.959 . S
H1700 C1714 0.961 . S
H1701 C1715 0.960 . S
H1702 C1715 0.961 . S
H1703 C1715 0.959 . S
H1704 C1718 0.929 . S
H1705 C1719 0.931 . S
H1706 C1721 0.930 . S
C1707 H1695 0.930 . S
C1707 C1708 1.399 . S
C1707 C1712 1.399 . S
C1708 C1707 1.399 . S
C1708 C1709 1.376 . S
C1709 H1696 0.930 . S
C1709 C1708 1.376 . S
C1709 C1710 1.388 . S
C1710 H1697 0.930 . S
C1710 C1709 1.388 . S
C1710 C1711 1.390 . S
C1711 C1710 1.390 . S
C1711 C1712 1.394 . S
C1711 C1717 1.465 . S
C1712 C1707 1.399 . S
C1712 C1711 1.394 . S
C1712 C1713 1.516 . S
C1713 C1712 1.516 . S
C1713 C1714 1.502 . S
C1713 C1715 1.561 . S
C1713 C1716 1.526 . S
C1714 H1698 0.959 . S
C1714 H1699 0.959 . S
C1714 H1700 0.961 . S
C1714 C1713 1.502 . S
C1715 H1701 0.960 . S
C1715 H1702 0.961 . S
C1715 H1703 0.959 . S
C1715 C1713 1.561 . S
C1716 C1713 1.526 . S
C1716 C1717 1.396 . S
C1716 C1721 1.390 1_455 S
C1717 C1711 1.465 . S
C1717 C1716 1.396 . S
C1717 C1718 1.399 1_455 S
C1718 H1704 0.929 . S
C1718 C1717 1.399 1_655 S
C1718 C1719 1.385 . S
C1719 H1705 0.931 . S
C1719 C1718 1.385 . S
C1719 C1720 1.389 . S
C1720 C1719 1.389 . S
C1720 C1721 1.387 . S
C1721 H1706 0.930 . S
C1721 C1716 1.390 1_655 S
C1721 C1720 1.387 . S
H1722 C1734 0.930 . S
H1723 C1736 0.930 . S
H1724 C1737 0.930 . S
H1725 C1741 0.959 . S
H1726 C1741 0.959 1_545 S
H1727 C1741 0.961 . S
H1728 C1742 0.963 . S
H1729 C1742 0.956 1_545 S
H1730 C1742 0.958 1_545 S
H1731 C1745 0.929 . S
H1732 C1746 0.931 . S
H1733 C1748 0.930 . S
C1734 H1722 0.930 . S
C1734 C1735 1.399 . S
C1734 C1739 1.399 . S
C1735 C1734 1.399 . S
C1735 C1736 1.376 . S
C1736 H1723 0.930 . S
C1736 C1735 1.376 . S
C1736 C1737 1.388 . S
C1737 H1724 0.930 . S
C1737 C1736 1.388 . S
C1737 C1738 1.390 . S
C1738 C1737 1.390 . S
C1738 C1739 1.394 . S
C1738 C1744 1.465 . S
C1739 C1734 1.399 . S
C1739 C1738 1.394 . S
C1739 C1740 1.516 . S
C1740 C1739 1.516 . S
C1740 C1741 1.502 . S
C1740 C1742 1.563 . S
C1740 C1743 1.526 1_565 S
C1741 H1725 0.959 . S
C1741 H1726 0.959 1_565 S
C1741 H1727 0.961 . S
C1741 C1740 1.502 . S
C1742 H1728 0.963 . S
C1742 H1729 0.956 1_565 S
C1742 H1730 0.958 1_565 S
C1742 C1740 1.563 . S
C1743 C1740 1.526 1_545 S
C1743 C1744 1.396 1_545 S
C1743 C1748 1.390 . S
C1744 C1738 1.465 . S
C1744 C1743 1.396 1_565 S
C1744 C1745 1.399 . S
C1745 H1731 0.929 . S
C1745 C1744 1.399 . S
C1745 C1746 1.385 1_565 S
C1746 H1732 0.931 . S
C1746 C1745 1.385 1_545 S
C1746 C1747 1.389 . S
C1747 C1746 1.389 . S
C1747 C1748 1.387 . S
C1748 H1733 0.930 . S
C1748 C1743 1.390 . S
C1748 C1747 1.387 . S
H1749 C1761 0.930 . S
H1750 C1763 0.930 . S
H1751 C1764 0.930 . S
H1752 C1768 0.959 . S
H1753 C1768 0.959 . S
H1754 C1768 0.961 . S
H1755 C1769 0.960 1_455 S
H1756 C1769 0.961 . S
H1757 C1769 0.959 . S
H1758 C1772 0.929 . S
H1759 C1773 0.931 . S
H1760 C1775 0.930 . S
C1761 H1749 0.930 . S
C1761 C1762 1.399 . S
C1761 C1766 1.362 1_455 S
C1762 C1761 1.399 . S
C1762 C1763 1.376 . S
C1763 H1750 0.930 . S
C1763 C1762 1.376 . S
C1763 C1764 1.388 . S
C1764 H1751 0.930 . S
C1764 C1763 1.388 . S
C1764 C1765 1.390 1_455 S
C1765 C1764 1.390 1_655 S
C1765 C1766 1.406 . S
C1765 C1771 1.465 . S
C1766 C1761 1.362 1_655 S
C1766 C1765 1.406 . S
C1766 C1767 1.546 . S
C1767 C1766 1.546 . S
C1767 C1768 1.502 . S
C1767 C1769 1.561 . S
C1767 C1770 1.526 . S
C1768 H1752 0.959 . S
C1768 H1753 0.959 . S
C1768 H1754 0.961 . S
C1768 C1767 1.502 . S
C1769 H1755 0.960 1_655 S
C1769 H1756 0.961 . S
C1769 H1757 0.959 . S
C1769 C1767 1.561 . S
C1770 C1767 1.526 . S
C1770 C1771 1.396 . S
C1770 C1775 1.390 . S
C1771 C1765 1.465 . S
C1771 C1770 1.396 . S
C1771 C1772 1.399 . S
C1772 H1758 0.929 . S
C1772 C1771 1.399 . S
C1772 C1773 1.385 . S
C1773 H1759 0.931 . S
C1773 C1772 1.385 . S
C1773 C1774 1.389 . S
C1774 C1773 1.389 . S
C1774 C1775 1.387 . S
C1775 H1760 0.930 . S
C1775 C1770 1.390 . S
C1775 C1774 1.387 . S
H1776 C1788 0.930 . S
H1777 C1790 0.930 . S
H1778 C1791 0.930 . S
H1779 C1795 0.959 . S
H1780 C1795 0.959 . S
H1781 C1795 0.961 . S
H1782 C1796 0.960 1_556 S
H1783 C1796 0.956 1_556 S
H1784 C1796 0.959 . S
H1785 C1799 0.929 . S
H1786 C1800 0.931 . S
H1787 C1802 0.930 . S
C1788 H1776 0.930 . S
C1788 C1789 1.399 . S
C1788 C1793 1.399 . S
C1789 C1788 1.399 . S
C1789 C1790 1.376 . S
C1790 H1777 0.930 . S
C1790 C1789 1.376 . S
C1790 C1791 1.388 . S
C1791 H1778 0.930 . S
C1791 C1790 1.388 . S
C1791 C1792 1.390 . S
C1792 C1791 1.390 . S
C1792 C1793 1.394 . S
C1792 C1798 1.465 . S
C1793 C1788 1.399 . S
C1793 C1792 1.394 . S
C1793 C1794 1.516 . S
C1794 C1793 1.516 . S
C1794 C1795 1.502 . S
C1794 C1796 1.561 . S
C1794 C1797 1.526 . S
C1795 H1779 0.959 . S
C1795 H1780 0.959 . S
C1795 H1781 0.961 . S
C1795 C1794 1.502 . S
C1796 H1782 0.960 1_554 S
C1796 H1783 0.956 1_554 S
C1796 H1784 0.959 . S
C1796 C1794 1.561 . S
C1797 C1794 1.526 . S
C1797 C1798 1.396 . S
C1797 C1802 1.390 . S
C1798 C1792 1.465 . S
C1798 C1797 1.396 . S
C1798 C1799 1.399 . S
C1799 H1785 0.929 . S
C1799 C1798 1.399 . S
C1799 C1800 1.385 . S
C1800 H1786 0.931 . S
C1800 C1799 1.385 . S
C1800 C1801 1.389 . S
C1801 C1800 1.389 . S
C1801 C1802 1.387 . S
C1802 H1787 0.930 . S
C1802 C1797 1.390 . S
C1802 C1801 1.387 . S
H1803 C1815 0.930 . S
H1804 C1817 0.930 . S
H1805 C1818 0.930 . S
H1806 C1822 0.959 . S
H1807 C1822 0.959 . S
H1808 C1822 0.961 . S
H1809 C1823 0.960 . S
H1810 C1823 0.961 . S
H1811 C1823 0.959 . S
H1812 C1826 0.929 . S
H1813 C1827 0.931 . S
H1814 C1829 0.930 . S
C1815 H1803 0.930 . S
C1815 C1816 1.399 . S
C1815 C1820 1.399 . S
C1816 C1815 1.399 . S
C1816 C1817 1.376 . S
C1817 H1804 0.930 . S
C1817 C1816 1.376 . S
C1817 C1818 1.388 . S
C1818 H1805 0.930 . S
C1818 C1817 1.388 . S
C1818 C1819 1.390 . S
C1819 C1818 1.390 . S
C1819 C1820 1.394 . S
C1819 C1825 1.465 . S
C1820 C1815 1.399 . S
C1820 C1819 1.394 . S
C1820 C1821 1.516 . S
C1821 C1820 1.516 . S
C1821 C1822 1.502 . S
C1821 C1823 1.561 . S
C1821 C1824 1.526 . S
C1822 H1806 0.959 . S
C1822 H1807 0.959 . S
C1822 H1808 0.961 . S
C1822 C1821 1.502 . S
C1823 H1809 0.960 . S
C1823 H1810 0.961 . S
C1823 H1811 0.959 . S
C1823 C1821 1.561 . S
C1824 C1821 1.526 . S
C1824 C1825 1.396 . S
C1824 C1829 1.390 . S
C1825 C1819 1.465 . S
C1825 C1824 1.396 . S
C1825 C1826 1.399 . S
C1826 H1812 0.929 . S
C1826 C1825 1.399 . S
C1826 C1827 1.385 . S
C1827 H1813 0.931 . S
C1827 C1826 1.385 . S
C1827 C1828 1.389 . S
C1828 C1827 1.389 . S
C1828 C1829 1.387 . S
C1829 H1814 0.930 . S
C1829 C1824 1.390 . S
C1829 C1828 1.387 . S
H1830 C1842 0.930 . S
H1831 C1844 0.930 . S
H1832 C1845 0.930 . S
H1833 C1849 0.959 . S
H1834 C1849 0.959 . S
H1835 C1849 0.961 . S
H1836 C1850 0.960 . S
H1837 C1850 0.961 . S
H1838 C1850 0.959 . S
H1839 C1853 0.929 . S
H1840 C1854 0.931 . S
H1841 C1856 0.930 . S
C1842 H1830 0.930 . S
C1842 C1843 1.399 . S
C1842 C1847 1.399 . S
C1843 C1842 1.399 . S
C1843 C1844 1.376 . S
C1844 H1831 0.930 . S
C1844 C1843 1.376 . S
C1844 C1845 1.388 . S
C1845 H1832 0.930 . S
C1845 C1844 1.388 . S
C1845 C1846 1.390 . S
C1846 C1845 1.390 . S
C1846 C1847 1.394 . S
C1846 C1852 1.465 . S
C1847 C1842 1.399 . S
C1847 C1846 1.394 . S
C1847 C1848 1.516 . S
C1848 C1847 1.516 . S
C1848 C1849 1.502 . S
C1848 C1850 1.561 . S
C1848 C1851 1.526 . S
C1849 H1833 0.959 . S
C1849 H1834 0.959 . S
C1849 H1835 0.961 . S
C1849 C1848 1.502 . S
C1850 H1836 0.960 . S
C1850 H1837 0.961 . S
C1850 H1838 0.959 . S
C1850 C1848 1.561 . S
C1851 C1848 1.526 . S
C1851 C1852 1.396 . S
C1851 C1856 1.390 . S
C1852 C1846 1.465 . S
C1852 C1851 1.396 . S
C1852 C1853 1.399 . S
C1853 H1839 0.929 . S
C1853 C1852 1.399 . S
C1853 C1854 1.385 . S
C1854 H1840 0.931 . S
C1854 C1853 1.385 . S
C1854 C1855 1.389 . S
C1855 C1854 1.389 . S
C1855 C1856 1.387 . S
C1856 H1841 0.930 . S
C1856 C1851 1.390 . S
C1856 C1855 1.387 . S
H1857 C1869 0.930 . S
H1858 C1871 0.930 . S
H1859 C1872 0.930 . S
H1860 C1876 0.959 . S
H1861 C1876 0.959 . S
H1862 C1876 0.961 . S
H1863 C1877 0.960 . S
H1864 C1877 0.961 . S
H1865 C1877 0.959 . S
H1866 C1880 0.929 . S
H1867 C1881 0.931 . S
H1868 C1883 0.930 . S
C1869 H1857 0.930 . S
C1869 C1870 1.399 . S
C1869 C1874 1.399 . S
C1870 C1869 1.399 . S
C1870 C1871 1.376 . S
C1871 H1858 0.930 . S
C1871 C1870 1.376 . S
C1871 C1872 1.388 . S
C1872 H1859 0.930 . S
C1872 C1871 1.388 . S
C1872 C1873 1.390 . S
C1873 C1872 1.390 . S
C1873 C1874 1.394 . S
C1873 C1879 1.465 . S
C1874 C1869 1.399 . S
C1874 C1873 1.394 . S
C1874 C1875 1.516 . S
C1875 C1874 1.516 . S
C1875 C1876 1.502 . S
C1875 C1877 1.561 . S
C1875 C1878 1.526 . S
C1876 H1860 0.959 . S
C1876 H1861 0.959 . S
C1876 H1862 0.961 . S
C1876 C1875 1.502 . S
C1877 H1863 0.960 . S
C1877 H1864 0.961 . S
C1877 H1865 0.959 . S
C1877 C1875 1.561 . S
C1878 C1875 1.526 . S
C1878 C1879 1.396 . S
C1878 C1883 1.390 . S
C1879 C1873 1.465 . S
C1879 C1878 1.396 . S
C1879 C1880 1.399 . S
C1880 H1866 0.929 . S
C1880 C1879 1.399 . S
C1880 C1881 1.385 . S
C1881 H1867 0.931 . S
C1881 C1880 1.385 . S
C1881 C1882 1.389 . S
C1882 C1881 1.389 . S
C1882 C1883 1.387 . S
C1883 H1868 0.930 . S
C1883 C1878 1.390 . S
C1883 C1882 1.387 . S
H1884 C1896 0.930 . S
H1885 C1898 0.930 . S
H1886 C1899 0.930 . S
H1887 C1903 0.959 . S
H1888 C1903 0.959 . S
H1889 C1903 0.961 . S
H1890 C1904 0.960 . S
H1891 C1904 0.961 . S
H1892 C1904 0.959 . S
H1893 C1907 0.929 . S
H1894 C1908 0.931 . S
H1895 C1910 0.930 . S
C1896 H1884 0.930 . S
C1896 C1897 1.399 . S
C1896 C1901 1.399 . S
C1897 C1896 1.399 . S
C1897 C1898 1.376 . S
C1898 H1885 0.930 . S
C1898 C1897 1.376 . S
C1898 C1899 1.388 . S
C1899 H1886 0.930 . S
C1899 C1898 1.388 . S
C1899 C1900 1.390 . S
C1900 C1899 1.390 . S
C1900 C1901 1.394 . S
C1900 C1906 1.465 . S
C1901 C1896 1.399 . S
C1901 C1900 1.394 . S
C1901 C1902 1.516 . S
C1902 C1901 1.516 . S
C1902 C1903 1.502 . S
C1902 C1904 1.561 . S
C1902 C1905 1.526 . S
C1903 H1887 0.959 . S
C1903 H1888 0.959 . S
C1903 H1889 0.961 . S
C1903 C1902 1.502 . S
C1904 H1890 0.960 . S
C1904 H1891 0.961 . S
C1904 H1892 0.959 . S
C1904 C1902 1.561 . S
C1905 C1902 1.526 . S
C1905 C1906 1.396 . S
C1905 C1910 1.390 . S
C1906 C1900 1.465 . S
C1906 C1905 1.396 . S
C1906 C1907 1.399 . S
C1907 H1893 0.929 . S
C1907 C1906 1.399 . S
C1907 C1908 1.385 . S
C1908 H1894 0.931 . S
C1908 C1907 1.385 . S
C1908 C1909 1.389 . S
C1909 C1908 1.389 . S
C1909 C1910 1.387 . S
C1910 H1895 0.930 . S
C1910 C1905 1.390 . S
C1910 C1909 1.387 . S
H1911 C1923 0.930 . S
H1912 C1925 0.930 . S
H1913 C1926 0.930 . S
H1914 C1930 0.959 . S
H1915 C1930 0.959 . S
H1916 C1930 0.961 . S
H1917 C1931 0.960 . S
H1918 C1931 0.961 . S
H1919 C1931 0.959 . S
H1920 C1934 0.929 . S
H1921 C1935 0.931 . S
H1922 C1937 0.930 . S
C1923 H1911 0.930 . S
C1923 C1924 1.399 . S
C1923 C1928 1.399 . S
C1924 C1923 1.399 . S
C1924 C1925 1.376 . S
C1925 H1912 0.930 . S
C1925 C1924 1.376 . S
C1925 C1926 1.388 . S
C1926 H1913 0.930 . S
C1926 C1925 1.388 . S
C1926 C1927 1.390 . S
C1927 C1926 1.390 . S
C1927 C1928 1.394 . S
C1927 C1933 1.465 . S
C1928 C1923 1.399 . S
C1928 C1927 1.394 . S
C1928 C1929 1.516 . S
C1929 C1928 1.516 . S
C1929 C1930 1.502 . S
C1929 C1931 1.561 . S
C1929 C1932 1.526 . S
C1930 H1914 0.959 . S
C1930 H1915 0.959 . S
C1930 H1916 0.961 . S
C1930 C1929 1.502 . S
C1931 H1917 0.960 . S
C1931 H1918 0.961 . S
C1931 H1919 0.959 . S
C1931 C1929 1.561 . S
C1932 C1929 1.526 . S
C1932 C1933 1.396 . S
C1932 C1937 1.390 . S
C1933 C1927 1.465 . S
C1933 C1932 1.396 . S
C1933 C1934 1.399 . S
C1934 H1920 0.929 . S
C1934 C1933 1.399 . S
C1934 C1935 1.385 . S
C1935 H1921 0.931 . S
C1935 C1934 1.385 . S
C1935 C1936 1.389 . S
C1936 C1935 1.389 . S
C1936 C1937 1.387 . S
C1937 H1922 0.930 . S
C1937 C1932 1.390 . S
C1937 C1936 1.387 . S
H1938 C1950 0.930 . S
H1939 C1952 0.930 . S
H1940 C1953 0.930 . S
H1941 C1957 0.959 . S
H1942 C1957 0.959 . S
H1943 C1957 0.961 . S
H1944 C1958 0.960 . S
H1945 C1958 0.961 . S
H1946 C1958 0.959 . S
H1947 C1961 0.929 . S
H1948 C1962 0.931 . S
H1949 C1964 0.930 . S
C1950 H1938 0.930 . S
C1950 C1951 1.399 . S
C1950 C1955 1.399 . S
C1951 C1950 1.399 . S
C1951 C1952 1.376 . S
C1952 H1939 0.930 . S
C1952 C1951 1.376 . S
C1952 C1953 1.388 . S
C1953 H1940 0.930 . S
C1953 C1952 1.388 . S
C1953 C1954 1.390 . S
C1954 C1953 1.390 . S
C1954 C1955 1.394 . S
C1954 C1960 1.465 . S
C1955 C1950 1.399 . S
C1955 C1954 1.394 . S
C1955 C1956 1.516 . S
C1956 C1955 1.516 . S
C1956 C1957 1.502 . S
C1956 C1958 1.561 . S
C1956 C1959 1.526 . S
C1957 H1941 0.959 . S
C1957 H1942 0.959 . S
C1957 H1943 0.961 . S
C1957 C1956 1.502 . S
C1958 H1944 0.960 . S
C1958 H1945 0.961 . S
C1958 H1946 0.959 . S
C1958 C1956 1.561 . S
C1959 C1956 1.526 . S
C1959 C1960 1.396 . S
C1959 C1964 1.390 . S
C1960 C1954 1.465 . S
C1960 C1959 1.396 . S
C1960 C1961 1.399 . S
C1961 H1947 0.929 . S
C1961 C1960 1.399 . S
C1961 C1962 1.385 . S
C1962 H1948 0.931 . S
C1962 C1961 1.385 . S
C1962 C1963 1.389 . S
C1963 C1962 1.389 . S
C1963 C1964 1.387 . S
C1964 H1949 0.930 . S
C1964 C1959 1.390 . S
C1964 C1963 1.387 . S
H1965 C1977 0.930 . S
H1966 C1979 0.930 . S
H1967 C1980 0.930 . S
H1968 C1984 0.959 . S
H1969 C1984 0.959 . S
H1970 C1984 0.961 . S
H1971 C1985 0.960 . S
H1972 C1985 0.961 . S
H1973 C1985 0.959 . S
H1974 C1988 0.929 . S
H1975 C1989 0.931 . S
H1976 C1991 0.930 . S
C1977 H1965 0.930 . S
C1977 C1978 1.399 . S
C1977 C1982 1.399 . S
C1978 C1977 1.399 . S
C1978 C1979 1.376 . S
C1979 H1966 0.930 . S
C1979 C1978 1.376 . S
C1979 C1980 1.388 . S
C1980 H1967 0.930 . S
C1980 C1979 1.388 . S
C1980 C1981 1.390 . S
C1981 C1980 1.390 . S
C1981 C1982 1.394 . S
C1981 C1987 1.465 . S
C1982 C1977 1.399 . S
C1982 C1981 1.394 . S
C1982 C1983 1.516 . S
C1983 C1982 1.516 . S
C1983 C1984 1.502 . S
C1983 C1985 1.561 . S
C1983 C1986 1.526 . S
C1984 H1968 0.959 . S
C1984 H1969 0.959 . S
C1984 H1970 0.961 . S
C1984 C1983 1.502 . S
C1985 H1971 0.960 . S
C1985 H1972 0.961 . S
C1985 H1973 0.959 . S
C1985 C1983 1.561 . S
C1986 C1983 1.526 . S
C1986 C1987 1.396 . S
C1986 C1991 1.390 . S
C1987 C1981 1.465 . S
C1987 C1986 1.396 . S
C1987 C1988 1.399 . S
C1988 H1974 0.929 . S
C1988 C1987 1.399 . S
C1988 C1989 1.385 . S
C1989 H1975 0.931 . S
C1989 C1988 1.385 . S
C1989 C1990 1.389 . S
C1990 C1989 1.389 . S
C1990 C1991 1.387 . S
C1991 H1976 0.930 . S
C1991 C1986 1.390 . S
C1991 C1990 1.387 . S
H1992 C2004 0.930 . S
H1993 C2006 0.930 . S
H1994 C2007 0.930 . S
H1995 C2011 0.959 . S
H1996 C2011 0.959 . S
H1997 C2011 0.961 . S
H1998 C2012 0.960 . S
H1999 C2012 0.961 . S
H2000 C2012 0.959 . S
H2001 C2015 0.929 . S
H2002 C2016 0.931 . S
H2003 C2018 0.930 . S
C2004 H1992 0.930 . S
C2004 C2005 1.399 . S
C2004 C2009 1.399 . S
C2005 C2004 1.399 . S
C2005 C2006 1.376 . S
C2006 H1993 0.930 . S
C2006 C2005 1.376 . S
C2006 C2007 1.388 . S
C2007 H1994 0.930 . S
C2007 C2006 1.388 . S
C2007 C2008 1.390 . S
C2008 C2007 1.390 . S
C2008 C2009 1.394 . S
C2008 C2014 1.465 . S
C2009 C2004 1.399 . S
C2009 C2008 1.394 . S
C2009 C2010 1.516 . S
C2010 C2009 1.516 . S
C2010 C2011 1.502 . S
C2010 C2012 1.561 . S
C2010 C2013 1.526 . S
C2011 H1995 0.959 . S
C2011 H1996 0.959 . S
C2011 H1997 0.961 . S
C2011 C2010 1.502 . S
C2012 H1998 0.960 . S
C2012 H1999 0.961 . S
C2012 H2000 0.959 . S
C2012 C2010 1.561 . S
C2013 C2010 1.526 . S
C2013 C2014 1.396 . S
C2013 C2018 1.390 . S
C2014 C2008 1.465 . S
C2014 C2013 1.396 . S
C2014 C2015 1.399 . S
C2015 H2001 0.929 . S
C2015 C2014 1.399 . S
C2015 C2016 1.385 1_556 S
C2016 H2002 0.931 . S
C2016 C2015 1.385 1_554 S
C2016 C2017 1.389 . S
C2017 C2016 1.389 . S
C2017 C2018 1.387 1_554 S
C2018 H2003 0.930 . S
C2018 C2013 1.390 . S
C2018 C2017 1.387 1_556 S
H2019 C2031 0.930 1_556 S
H2020 C2033 0.930 . S
H2021 C2034 0.930 . S
H2022 C2038 0.959 . S
H2023 C2038 0.959 . S
H2024 C2038 0.961 . S
H2025 C2039 0.960 . S
H2026 C2039 0.961 . S
H2027 C2039 0.959 . S
H2028 C2042 0.929 . S
H2029 C2043 0.931 . S
H2030 C2045 0.930 . S
C2031 H2019 0.930 1_554 S
C2031 C2032 1.399 . S
C2031 C2036 1.399 . S
C2032 C2031 1.399 . S
C2032 C2033 1.376 . S
C2033 H2020 0.930 . S
C2033 C2032 1.376 . S
C2033 C2034 1.388 . S
C2034 H2021 0.930 . S
C2034 C2033 1.388 . S
C2034 C2035 1.390 . S
C2035 C2034 1.390 . S
C2035 C2036 1.394 . S
C2035 C2041 1.465 . S
C2036 C2031 1.399 . S
C2036 C2035 1.394 . S
C2036 C2037 1.516 . S
C2037 C2036 1.516 . S
C2037 C2038 1.502 . S
C2037 C2039 1.561 . S
C2037 C2040 1.526 . S
C2038 H2022 0.959 . S
C2038 H2023 0.959 . S
C2038 H2024 0.961 . S
C2038 C2037 1.502 . S
C2039 H2025 0.960 . S
C2039 H2026 0.961 . S
C2039 H2027 0.959 . S
C2039 C2037 1.561 . S
C2040 C2037 1.526 . S
C2040 C2041 1.396 . S
C2040 C2045 1.390 . S
C2041 C2035 1.465 . S
C2041 C2040 1.396 . S
C2041 C2042 1.399 . S
C2042 H2028 0.929 . S
C2042 C2041 1.399 . S
C2042 C2043 1.385 . S
C2043 H2029 0.931 . S
C2043 C2042 1.385 . S
C2043 C2044 1.389 . S
C2044 C2043 1.389 . S
C2044 C2045 1.387 . S
C2045 H2030 0.930 . S
C2045 C2040 1.390 . S
C2045 C2044 1.387 . S
H2046 C2058 0.930 . S
H2047 C2060 0.930 . S
H2048 C2061 0.930 . S
H2049 C2065 0.959 . S
H2050 C2065 0.959 . S
H2051 C2065 0.961 . S
H2052 C2066 0.960 . S
H2053 C2066 0.961 . S
H2054 C2066 0.959 . S
H2055 C2069 0.929 . S
H2056 C2070 0.931 . S
H2057 C2072 0.930 . S
C2058 H2046 0.930 . S
C2058 C2059 1.399 . S
C2058 C2063 1.399 . S
C2059 C2058 1.399 . S
C2059 C2060 1.376 . S
C2060 H2047 0.930 . S
C2060 C2059 1.376 . S
C2060 C2061 1.388 . S
C2061 H2048 0.930 . S
C2061 C2060 1.388 . S
C2061 C2062 1.390 . S
C2062 C2061 1.390 . S
C2062 C2063 1.394 . S
C2062 C2068 1.465 . S
C2063 C2058 1.399 . S
C2063 C2062 1.394 . S
C2063 C2064 1.516 . S
C2064 C2063 1.516 . S
C2064 C2065 1.502 . S
C2064 C2066 1.561 . S
C2064 C2067 1.526 . S
C2065 H2049 0.959 . S
C2065 H2050 0.959 . S
C2065 H2051 0.961 . S
C2065 C2064 1.502 . S
C2066 H2052 0.960 . S
C2066 H2053 0.961 . S
C2066 H2054 0.959 . S
C2066 C2064 1.561 . S
C2067 C2064 1.526 . S
C2067 C2068 1.396 . S
C2067 C2072 1.390 . S
C2068 C2062 1.465 . S
C2068 C2067 1.396 . S
C2068 C2069 1.399 . S
C2069 H2055 0.929 . S
C2069 C2068 1.399 . S
C2069 C2070 1.385 . S
C2070 H2056 0.931 . S
C2070 C2069 1.385 . S
C2070 C2071 1.389 . S
C2071 C2070 1.389 . S
C2071 C2072 1.387 . S
C2072 H2057 0.930 . S
C2072 C2067 1.390 . S
C2072 C2071 1.387 . S
H2073 C2085 0.930 . S
H2074 C2087 0.930 . S
H2075 C2088 0.930 . S
H2076 C2092 0.959 . S
H2077 C2092 0.959 . S
H2078 C2092 0.961 . S
H2079 C2093 0.960 . S
H2080 C2093 0.961 . S
H2081 C2093 0.959 . S
H2082 C2096 0.929 . S
H2083 C2097 0.931 . S
H2084 C2099 0.930 . S
C2085 H2073 0.930 . S
C2085 C2086 1.387 1_554 S
C2085 C2090 1.399 . S
C2086 C2085 1.387 1_556 S
C2086 C2087 1.378 . S
C2087 H2074 0.930 . S
C2087 C2086 1.378 . S
C2087 C2088 1.388 1_556 S
C2088 H2075 0.930 . S
C2088 C2087 1.388 1_554 S
C2088 C2089 1.390 . S
C2089 C2088 1.390 . S
C2089 C2090 1.394 . S
C2089 C2095 1.465 . S
C2090 C2085 1.399 . S
C2090 C2089 1.394 . S
C2090 C2091 1.516 . S
C2091 C2090 1.516 . S
C2091 C2092 1.502 . S
C2091 C2093 1.561 . S
C2091 C2094 1.526 . S
C2092 H2076 0.959 . S
C2092 H2077 0.959 . S
C2092 H2078 0.961 . S
C2092 C2091 1.502 . S
C2093 H2079 0.960 . S
C2093 H2080 0.961 . S
C2093 H2081 0.959 . S
C2093 C2091 1.561 . S
C2094 C2091 1.526 . S
C2094 C2095 1.396 . S
C2094 C2099 1.390 . S
C2095 C2089 1.465 . S
C2095 C2094 1.396 . S
C2095 C2096 1.399 . S
C2096 H2082 0.929 . S
C2096 C2095 1.399 . S
C2096 C2097 1.385 . S
C2097 H2083 0.931 . S
C2097 C2096 1.385 . S
C2097 C2098 1.389 . S
C2098 C2097 1.389 . S
C2098 C2099 1.387 . S
C2099 H2084 0.930 . S
C2099 C2094 1.390 . S
C2099 C2098 1.387 . S
H2100 C2112 0.930 . S
H2101 C2114 0.930 . S
H2102 C2115 0.930 . S
H2103 C2119 0.959 . S
H2104 C2119 0.959 . S
H2105 C2119 0.961 . S
H2106 C2120 0.960 . S
H2107 C2120 0.961 . S
H2108 C2120 0.959 . S
H2109 C2123 0.929 . S
H2110 C2124 0.931 . S
H2111 C2126 0.930 . S
C2112 H2100 0.930 . S
C2112 C2113 1.399 . S
C2112 C2117 1.399 . S
C2113 C2112 1.399 . S
C2113 C2114 1.376 . S
C2114 H2101 0.930 . S
C2114 C2113 1.376 . S
C2114 C2115 1.388 . S
C2115 H2102 0.930 . S
C2115 C2114 1.388 . S
C2115 C2116 1.390 . S
C2116 C2115 1.390 . S
C2116 C2117 1.394 . S
C2116 C2122 1.465 . S
C2117 C2112 1.399 . S
C2117 C2116 1.394 . S
C2117 C2118 1.516 . S
C2118 C2117 1.516 . S
C2118 C2119 1.502 . S
C2118 C2120 1.561 . S
C2118 C2121 1.526 . S
C2119 H2103 0.959 . S
C2119 H2104 0.959 . S
C2119 H2105 0.961 . S
C2119 C2118 1.502 . S
C2120 H2106 0.960 . S
C2120 H2107 0.961 . S
C2120 H2108 0.959 . S
C2120 C2118 1.561 . S
C2121 C2118 1.526 . S
C2121 C2122 1.396 . S
C2121 C2126 1.390 . S
C2122 C2116 1.465 . S
C2122 C2121 1.396 . S
C2122 C2123 1.399 . S
C2123 H2109 0.929 . S
C2123 C2122 1.399 . S
C2123 C2124 1.385 . S
C2124 H2110 0.931 . S
C2124 C2123 1.385 . S
C2124 C2125 1.389 . S
C2125 C2124 1.389 . S
C2125 C2126 1.387 . S
C2126 H2111 0.930 . S
C2126 C2121 1.390 . S
C2126 C2125 1.387 . S
H2127 C2139 0.930 . S
H2128 C2141 0.930 . S
H2129 C2142 0.930 . S
H2130 C2146 0.959 . S
H2131 C2146 0.959 . S
H2132 C2146 0.961 . S
H2133 C2147 0.960 . S
H2134 C2147 0.961 . S
H2135 C2147 0.959 . S
H2136 C2150 0.929 . S
H2137 C2151 0.931 . S
H2138 C2153 0.930 . S
C2139 H2127 0.930 . S
C2139 C2140 1.399 . S
C2139 C2144 1.399 . S
C2140 C2139 1.399 . S
C2140 C2141 1.376 . S
C2141 H2128 0.930 . S
C2141 C2140 1.376 . S
C2141 C2142 1.388 . S
C2142 H2129 0.930 . S
C2142 C2141 1.388 . S
C2142 C2143 1.390 . S
C2143 C2142 1.390 . S
C2143 C2144 1.394 . S
C2143 C2149 1.465 . S
C2144 C2139 1.399 . S
C2144 C2143 1.394 . S
C2144 C2145 1.516 . S
C2145 C2144 1.516 . S
C2145 C2146 1.502 . S
C2145 C2147 1.561 . S
C2145 C2148 1.526 . S
C2146 H2130 0.959 . S
C2146 H2131 0.959 . S
C2146 H2132 0.961 . S
C2146 C2145 1.502 . S
C2147 H2133 0.960 . S
C2147 H2134 0.961 . S
C2147 H2135 0.959 . S
C2147 C2145 1.561 . S
C2148 C2145 1.526 . S
C2148 C2149 1.396 . S
C2148 C2153 1.390 . S
C2149 C2143 1.465 . S
C2149 C2148 1.396 . S
C2149 C2150 1.399 . S
C2150 H2136 0.929 . S
C2150 C2149 1.399 . S
C2150 C2151 1.385 . S
C2151 H2137 0.931 . S
C2151 C2150 1.385 . S
C2151 C2152 1.389 . S
C2152 C2151 1.389 . S
C2152 C2153 1.387 . S
C2153 H2138 0.930 . S
C2153 C2148 1.390 . S
C2153 C2152 1.387 . S
H2154 C2166 0.930 . S
H2155 C2168 0.930 . S
H2156 C2169 0.930 . S
H2157 C2173 0.959 . S
H2158 C2173 0.959 . S
H2159 C2173 0.961 . S
H2160 C2174 0.960 . S
H2161 C2174 0.961 . S
H2162 C2174 0.959 . S
H2163 C2177 0.929 . S
H2164 C2178 0.931 . S
H2165 C2180 0.930 . S
C2166 H2154 0.930 . S
C2166 C2167 1.399 . S
C2166 C2171 1.399 . S
C2167 C2166 1.399 . S
C2167 C2168 1.376 . S
C2168 H2155 0.930 . S
C2168 C2167 1.376 . S
C2168 C2169 1.388 . S
C2169 H2156 0.930 . S
C2169 C2168 1.388 . S
C2169 C2170 1.390 . S
C2170 C2169 1.390 . S
C2170 C2171 1.394 . S
C2170 C2176 1.465 . S
C2171 C2166 1.399 . S
C2171 C2170 1.394 . S
C2171 C2172 1.516 . S
C2172 C2171 1.516 . S
C2172 C2173 1.502 . S
C2172 C2174 1.561 . S
C2172 C2175 1.526 . S
C2173 H2157 0.959 . S
C2173 H2158 0.959 . S
C2173 H2159 0.961 . S
C2173 C2172 1.502 . S
C2174 H2160 0.960 . S
C2174 H2161 0.961 . S
C2174 H2162 0.959 . S
C2174 C2172 1.561 . S
C2175 C2172 1.526 . S
C2175 C2176 1.396 . S
C2175 C2180 1.390 . S
C2176 C2170 1.465 . S
C2176 C2175 1.396 . S
C2176 C2177 1.399 . S
C2177 H2163 0.929 . S
C2177 C2176 1.399 . S
C2177 C2178 1.385 . S
C2178 H2164 0.931 . S
C2178 C2177 1.385 . S
C2178 C2179 1.389 . S
C2179 C2178 1.389 . S
C2179 C2180 1.387 . S
C2180 H2165 0.930 . S
C2180 C2175 1.390 . S
C2180 C2179 1.387 . S
H2181 C2193 0.930 . S
H2182 C2195 0.930 . S
H2183 C2196 0.930 . S
H2184 C2200 0.959 . S
H2185 C2200 0.959 . S
H2186 C2200 0.961 . S
H2187 C2201 0.960 . S
H2188 C2201 0.961 . S
H2189 C2201 0.959 . S
H2190 C2204 0.929 . S
H2191 C2205 0.931 . S
H2192 C2207 0.930 . S
C2193 H2181 0.930 . S
C2193 C2194 1.399 . S
C2193 C2198 1.399 . S
C2194 C2193 1.399 . S
C2194 C2195 1.376 . S
C2195 H2182 0.930 . S
C2195 C2194 1.376 . S
C2195 C2196 1.388 . S
C2196 H2183 0.930 . S
C2196 C2195 1.388 . S
C2196 C2197 1.390 . S
C2197 C2196 1.390 . S
C2197 C2198 1.394 . S
C2197 C2203 1.465 . S
C2198 C2193 1.399 . S
C2198 C2197 1.394 . S
C2198 C2199 1.516 . S
C2199 C2198 1.516 . S
C2199 C2200 1.502 . S
C2199 C2201 1.561 . S
C2199 C2202 1.526 . S
C2200 H2184 0.959 . S
C2200 H2185 0.959 . S
C2200 H2186 0.961 . S
C2200 C2199 1.502 . S
C2201 H2187 0.960 . S
C2201 H2188 0.961 . S
C2201 H2189 0.959 . S
C2201 C2199 1.561 . S
C2202 C2199 1.526 . S
C2202 C2203 1.396 . S
C2202 C2207 1.390 . S
C2203 C2197 1.465 . S
C2203 C2202 1.396 . S
C2203 C2204 1.399 . S
C2204 H2190 0.929 . S
C2204 C2203 1.399 . S
C2204 C2205 1.385 . S
C2205 H2191 0.931 . S
C2205 C2204 1.385 . S
C2205 C2206 1.389 . S
C2206 C2205 1.389 . S
C2206 C2207 1.387 . S
C2207 H2192 0.930 . S
C2207 C2202 1.390 . S
C2207 C2206 1.387 . S
H2208 C2220 0.930 . S
H2209 C2222 0.930 . S
H2210 C2223 0.930 . S
H2211 C2227 0.959 . S
H2212 C2227 0.959 . S
H2213 C2227 0.961 . S
H2214 C2228 0.960 . S
H2215 C2228 0.961 . S
H2216 C2228 0.959 . S
H2217 C2231 0.929 . S
H2218 C2232 0.931 . S
H2219 C2234 0.930 . S
C2220 H2208 0.930 . S
C2220 C2221 1.399 . S
C2220 C2225 1.399 . S
C2221 C2220 1.399 . S
C2221 C2222 1.376 . S
C2222 H2209 0.930 . S
C2222 C2221 1.376 . S
C2222 C2223 1.388 . S
C2223 H2210 0.930 . S
C2223 C2222 1.388 . S
C2223 C2224 1.390 . S
C2224 C2223 1.390 . S
C2224 C2225 1.394 . S
C2224 C2230 1.465 . S
C2225 C2220 1.399 . S
C2225 C2224 1.394 . S
C2225 C2226 1.516 . S
C2226 C2225 1.516 . S
C2226 C2227 1.502 . S
C2226 C2228 1.561 . S
C2226 C2229 1.526 . S
C2227 H2211 0.959 . S
C2227 H2212 0.959 . S
C2227 H2213 0.961 . S
C2227 C2226 1.502 . S
C2228 H2214 0.960 . S
C2228 H2215 0.961 . S
C2228 H2216 0.959 . S
C2228 C2226 1.561 . S
C2229 C2226 1.526 . S
C2229 C2230 1.396 . S
C2229 C2234 1.390 . S
C2230 C2224 1.465 . S
C2230 C2229 1.396 . S
C2230 C2231 1.399 . S
C2231 H2217 0.929 . S
C2231 C2230 1.399 . S
C2231 C2232 1.385 . S
C2232 H2218 0.931 . S
C2232 C2231 1.385 . S
C2232 C2233 1.389 . S
C2233 C2232 1.389 . S
C2233 C2234 1.387 . S
C2234 H2219 0.930 . S
C2234 C2229 1.390 . S
C2234 C2233 1.387 . S
H2235 C2247 0.930 . S
H2236 C2249 0.930 . S
H2237 C2250 0.930 . S
H2238 C2254 0.959 . S
H2239 C2254 0.959 . S
H2240 C2254 0.961 . S
H2241 C2255 0.960 . S
H2242 C2255 0.961 . S
H2243 C2255 0.959 . S
H2244 C2258 0.929 . S
H2245 C2259 0.931 . S
H2246 C2261 0.930 . S
C2247 H2235 0.930 . S
C2247 C2248 1.399 . S
C2247 C2252 1.399 . S
C2248 C2247 1.399 . S
C2248 C2249 1.376 . S
C2249 H2236 0.930 . S
C2249 C2248 1.376 . S
C2249 C2250 1.388 . S
C2250 H2237 0.930 . S
C2250 C2249 1.388 . S
C2250 C2251 1.390 . S
C2251 C2250 1.390 . S
C2251 C2252 1.394 . S
C2251 C2257 1.465 . S
C2252 C2247 1.399 . S
C2252 C2251 1.394 . S
C2252 C2253 1.516 . S
C2253 C2252 1.516 . S
C2253 C2254 1.502 . S
C2253 C2255 1.561 . S
C2253 C2256 1.526 . S
C2254 H2238 0.959 . S
C2254 H2239 0.959 . S
C2254 H2240 0.961 . S
C2254 C2253 1.502 . S
C2255 H2241 0.960 . S
C2255 H2242 0.961 . S
C2255 H2243 0.959 . S
C2255 C2253 1.561 . S
C2256 C2253 1.526 . S
C2256 C2257 1.396 . S
C2256 C2261 1.390 . S
C2257 C2251 1.465 . S
C2257 C2256 1.396 . S
C2257 C2258 1.399 . S
C2258 H2244 0.929 . S
C2258 C2257 1.399 . S
C2258 C2259 1.385 . S
C2259 H2245 0.931 . S
C2259 C2258 1.385 . S
C2259 C2260 1.389 . S
C2260 C2259 1.389 . S
C2260 C2261 1.387 . S
C2261 H2246 0.930 . S
C2261 C2256 1.390 . S
C2261 C2260 1.387 . S
H2262 C2274 0.930 . S
H2263 C2276 0.930 . S
H2264 C2277 0.930 . S
H2265 C2281 0.959 . S
H2266 C2281 0.959 . S
H2267 C2281 0.961 . S
H2268 C2282 0.960 . S
H2269 C2282 0.961 . S
H2270 C2282 0.959 . S
H2271 C2285 0.929 . S
H2272 C2286 0.931 . S
H2273 C2288 0.930 . S
C2274 H2262 0.930 . S
C2274 C2275 1.399 . S
C2274 C2279 1.399 . S
C2275 C2274 1.399 . S
C2275 C2276 1.376 . S
C2276 H2263 0.930 . S
C2276 C2275 1.376 . S
C2276 C2277 1.388 . S
C2277 H2264 0.930 . S
C2277 C2276 1.388 . S
C2277 C2278 1.390 . S
C2278 C2277 1.390 . S
C2278 C2279 1.394 . S
C2278 C2284 1.465 . S
C2279 C2274 1.399 . S
C2279 C2278 1.394 . S
C2279 C2280 1.516 . S
C2280 C2279 1.516 . S
C2280 C2281 1.502 . S
C2280 C2282 1.561 . S
C2280 C2283 1.526 . S
C2281 H2265 0.959 . S
C2281 H2266 0.959 . S
C2281 H2267 0.961 . S
C2281 C2280 1.502 . S
C2282 H2268 0.960 . S
C2282 H2269 0.961 . S
C2282 H2270 0.959 . S
C2282 C2280 1.561 . S
C2283 C2280 1.526 . S
C2283 C2284 1.396 . S
C2283 C2288 1.390 . S
C2284 C2278 1.465 . S
C2284 C2283 1.396 . S
C2284 C2285 1.399 . S
C2285 H2271 0.929 . S
C2285 C2284 1.399 . S
C2285 C2286 1.385 . S
C2286 H2272 0.931 . S
C2286 C2285 1.385 . S
C2286 C2287 1.389 . S
C2287 C2286 1.389 . S
C2287 C2288 1.387 . S
C2288 H2273 0.930 . S
C2288 C2283 1.390 . S
C2288 C2287 1.387 . S
H2289 C2301 0.930 . S
H2290 C2303 0.930 . S
H2291 C2304 0.930 . S
H2292 C2308 0.959 . S
H2293 C2308 0.959 . S
H2294 C2308 0.961 . S
H2295 C2309 0.960 . S
H2296 C2309 0.961 . S
H2297 C2309 0.959 . S
H2298 C2312 0.929 . S
H2299 C2313 0.931 . S
H2300 C2315 0.930 . S
C2301 H2289 0.930 . S
C2301 C2302 1.399 . S
C2301 C2306 1.399 . S
C2302 C2301 1.399 . S
C2302 C2303 1.376 . S
C2303 H2290 0.930 . S
C2303 C2302 1.376 . S
C2303 C2304 1.388 . S
C2304 H2291 0.930 . S
C2304 C2303 1.388 . S
C2304 C2305 1.390 . S
C2305 C2304 1.390 . S
C2305 C2306 1.394 . S
C2305 C2311 1.465 . S
C2306 C2301 1.399 . S
C2306 C2305 1.394 . S
C2306 C2307 1.516 . S
C2307 C2306 1.516 . S
C2307 C2308 1.502 . S
C2307 C2309 1.561 . S
C2307 C2310 1.526 . S
C2308 H2292 0.959 . S
C2308 H2293 0.959 . S
C2308 H2294 0.961 . S
C2308 C2307 1.502 . S
C2309 H2295 0.960 . S
C2309 H2296 0.961 . S
C2309 H2297 0.959 . S
C2309 C2307 1.561 . S
C2310 C2307 1.526 . S
C2310 C2311 1.396 . S
C2310 C2315 1.390 . S
C2311 C2305 1.465 . S
C2311 C2310 1.396 . S
C2311 C2312 1.399 . S
C2312 H2298 0.929 . S
C2312 C2311 1.399 . S
C2312 C2313 1.385 . S
C2313 H2299 0.931 . S
C2313 C2312 1.385 . S
C2313 C2314 1.389 . S
C2314 C2313 1.389 . S
C2314 C2315 1.387 . S
C2315 H2300 0.930 . S
C2315 C2310 1.390 . S
C2315 C2314 1.387 . S
H2316 C2328 0.930 . S
H2317 C2330 0.930 . S
H2318 C2331 0.930 . S
H2319 C2335 0.959 . S
H2320 C2335 0.959 . S
H2321 C2335 0.961 . S
H2322 C2336 0.960 . S
H2323 C2336 0.961 . S
H2324 C2336 0.959 . S
H2325 C2339 0.929 . S
H2326 C2340 0.931 . S
H2327 C2342 0.930 . S
C2328 H2316 0.930 . S
C2328 C2329 1.399 . S
C2328 C2333 1.399 . S
C2329 C2328 1.399 . S
C2329 C2330 1.376 . S
C2330 H2317 0.930 . S
C2330 C2329 1.376 . S
C2330 C2331 1.388 . S
C2331 H2318 0.930 . S
C2331 C2330 1.388 . S
C2331 C2332 1.390 . S
C2332 C2331 1.390 . S
C2332 C2333 1.394 . S
C2332 C2338 1.465 . S
C2333 C2328 1.399 . S
C2333 C2332 1.394 . S
C2333 C2334 1.516 . S
C2334 C2333 1.516 . S
C2334 C2335 1.502 . S
C2334 C2336 1.561 . S
C2334 C2337 1.526 . S
C2335 H2319 0.959 . S
C2335 H2320 0.959 . S
C2335 H2321 0.961 . S
C2335 C2334 1.502 . S
C2336 H2322 0.960 . S
C2336 H2323 0.961 . S
C2336 H2324 0.959 . S
C2336 C2334 1.561 . S
C2337 C2334 1.526 . S
C2337 C2338 1.396 . S
C2337 C2342 1.390 . S
C2338 C2332 1.465 . S
C2338 C2337 1.396 . S
C2338 C2339 1.399 . S
C2339 H2325 0.929 . S
C2339 C2338 1.399 . S
C2339 C2340 1.385 . S
C2340 H2326 0.931 . S
C2340 C2339 1.385 . S
C2340 C2341 1.389 . S
C2341 C2340 1.389 . S
C2341 C2342 1.387 . S
C2342 H2327 0.930 . S
C2342 C2337 1.390 . S
C2342 C2341 1.387 . S
H2343 C2355 0.930 . S
H2344 C2357 0.930 . S
H2345 C2358 0.930 . S
H2346 C2362 0.959 . S
H2347 C2362 0.959 . S
H2348 C2362 0.961 . S
H2349 C2363 0.960 . S
H2350 C2363 0.961 . S
H2351 C2363 0.959 . S
H2352 C2366 0.929 . S
H2353 C2367 0.931 . S
H2354 C2369 0.930 . S
C2355 H2343 0.930 . S
C2355 C2356 1.399 . S
C2355 C2360 1.399 . S
C2356 C2355 1.399 . S
C2356 C2357 1.376 . S
C2357 H2344 0.930 . S
C2357 C2356 1.376 . S
C2357 C2358 1.388 . S
C2358 H2345 0.930 . S
C2358 C2357 1.388 . S
C2358 C2359 1.390 . S
C2359 C2358 1.390 . S
C2359 C2360 1.394 . S
C2359 C2365 1.465 . S
C2360 C2355 1.399 . S
C2360 C2359 1.394 . S
C2360 C2361 1.516 . S
C2361 C2360 1.516 . S
C2361 C2362 1.502 . S
C2361 C2363 1.561 . S
C2361 C2364 1.526 . S
C2362 H2346 0.959 . S
C2362 H2347 0.959 . S
C2362 H2348 0.961 . S
C2362 C2361 1.502 . S
C2363 H2349 0.960 . S
C2363 H2350 0.961 . S
C2363 H2351 0.959 . S
C2363 C2361 1.561 . S
C2364 C2361 1.526 . S
C2364 C2365 1.396 . S
C2364 C2369 1.390 . S
C2365 C2359 1.465 . S
C2365 C2364 1.396 . S
C2365 C2366 1.399 . S
C2366 H2352 0.929 . S
C2366 C2365 1.399 . S
C2366 C2367 1.385 . S
C2367 H2353 0.931 . S
C2367 C2366 1.385 . S
C2367 C2368 1.389 . S
C2368 C2367 1.389 . S
C2368 C2369 1.387 . S
C2369 H2354 0.930 . S
C2369 C2364 1.390 . S
C2369 C2368 1.387 . S
H2370 C2382 0.930 . S
H2371 C2384 0.930 . S
H2372 C2385 0.930 . S
H2373 C2389 0.959 . S
H2374 C2389 0.959 . S
H2375 C2389 0.961 . S
H2376 C2390 0.960 . S
H2377 C2390 0.961 . S
H2378 C2390 0.959 . S
H2379 C2393 0.929 . S
H2380 C2394 0.931 . S
H2381 C2396 0.930 . S
C2382 H2370 0.930 . S
C2382 C2383 1.399 . S
C2382 C2387 1.399 . S
C2383 C2382 1.399 . S
C2383 C2384 1.376 . S
C2384 H2371 0.930 . S
C2384 C2383 1.376 . S
C2384 C2385 1.388 . S
C2385 H2372 0.930 . S
C2385 C2384 1.388 . S
C2385 C2386 1.390 . S
C2386 C2385 1.390 . S
C2386 C2387 1.394 . S
C2386 C2392 1.465 . S
C2387 C2382 1.399 . S
C2387 C2386 1.394 . S
C2387 C2388 1.516 . S
C2388 C2387 1.516 . S
C2388 C2389 1.502 . S
C2388 C2390 1.561 . S
C2388 C2391 1.526 . S
C2389 H2373 0.959 . S
C2389 H2374 0.959 . S
C2389 H2375 0.961 . S
C2389 C2388 1.502 . S
C2390 H2376 0.960 . S
C2390 H2377 0.961 . S
C2390 H2378 0.959 . S
C2390 C2388 1.561 . S
C2391 C2388 1.526 . S
C2391 C2392 1.396 . S
C2391 C2396 1.390 . S
C2392 C2386 1.465 . S
C2392 C2391 1.396 . S
C2392 C2393 1.399 . S
C2393 H2379 0.929 . S
C2393 C2392 1.399 . S
C2393 C2394 1.385 . S
C2394 H2380 0.931 . S
C2394 C2393 1.385 . S
C2394 C2395 1.389 . S
C2395 C2394 1.389 . S
C2395 C2396 1.387 . S
C2396 H2381 0.930 . S
C2396 C2391 1.390 . S
C2396 C2395 1.387 . S
H2397 C2409 0.930 . S
H2398 C2411 0.930 . S
H2399 C2412 0.930 . S
H2400 C2416 0.959 . S
H2401 C2416 0.959 . S
H2402 C2416 0.961 . S
H2403 C2417 0.960 . S
H2404 C2417 0.961 . S
H2405 C2417 0.959 . S
H2406 C2420 0.929 . S
H2407 C2421 0.931 . S
H2408 C2423 0.930 . S
C2409 H2397 0.930 . S
C2409 C2410 1.399 . S
C2409 C2414 1.399 . S
C2410 C2409 1.399 . S
C2410 C2411 1.376 . S
C2411 H2398 0.930 . S
C2411 C2410 1.376 . S
C2411 C2412 1.388 . S
C2412 H2399 0.930 . S
C2412 C2411 1.388 . S
C2412 C2413 1.390 . S
C2413 C2412 1.390 . S
C2413 C2414 1.394 . S
C2413 C2419 1.465 . S
C2414 C2409 1.399 . S
C2414 C2413 1.394 . S
C2414 C2415 1.516 . S
C2415 C2414 1.516 . S
C2415 C2416 1.502 . S
C2415 C2417 1.561 . S
C2415 C2418 1.526 . S
C2416 H2400 0.959 . S
C2416 H2401 0.959 . S
C2416 H2402 0.961 . S
C2416 C2415 1.502 . S
C2417 H2403 0.960 . S
C2417 H2404 0.961 . S
C2417 H2405 0.959 . S
C2417 C2415 1.561 . S
C2418 C2415 1.526 . S
C2418 C2419 1.396 . S
C2418 C2423 1.390 . S
C2419 C2413 1.465 . S
C2419 C2418 1.396 . S
C2419 C2420 1.399 . S
C2420 H2406 0.929 . S
C2420 C2419 1.399 . S
C2420 C2421 1.385 . S
C2421 H2407 0.931 . S
C2421 C2420 1.385 . S
C2421 C2422 1.389 . S
C2422 C2421 1.389 . S
C2422 C2423 1.387 . S
C2423 H2408 0.930 . S
C2423 C2418 1.390 . S
C2423 C2422 1.387 . S
H2424 C2436 0.930 . S
H2425 C2438 0.930 . S
H2426 C2439 0.930 . S
H2427 C2443 0.959 . S
H2428 C2443 0.959 . S
H2429 C2443 0.961 . S
H2430 C2444 0.960 . S
H2431 C2444 0.961 . S
H2432 C2444 0.959 . S
H2433 C2447 0.929 . S
H2434 C2448 0.931 . S
H2435 C2450 0.930 . S
C2436 H2424 0.930 . S
C2436 C2437 1.399 1_554 S
C2436 C2441 1.399 . S
C2437 C2436 1.399 1_556 S
C2437 C2438 1.376 . S
C2438 H2425 0.930 . S
C2438 C2437 1.376 . S
C2438 C2439 1.388 1_556 S
C2439 H2426 0.930 . S
C2439 C2438 1.388 1_554 S
C2439 C2440 1.390 . S
C2440 C2439 1.390 . S
C2440 C2441 1.394 . S
C2440 C2446 1.465 . S
C2441 C2436 1.399 . S
C2441 C2440 1.394 . S
C2441 C2442 1.516 . S
C2442 C2441 1.516 . S
C2442 C2443 1.502 . S
C2442 C2444 1.561 . S
C2442 C2445 1.526 . S
C2443 H2427 0.959 . S
C2443 H2428 0.959 . S
C2443 H2429 0.961 . S
C2443 C2442 1.502 . S
C2444 H2430 0.960 . S
C2444 H2431 0.961 . S
C2444 H2432 0.959 . S
C2444 C2442 1.561 . S
C2445 C2442 1.526 . S
C2445 C2446 1.396 . S
C2445 C2450 1.390 . S
C2446 C2440 1.465 . S
C2446 C2445 1.396 . S
C2446 C2447 1.399 . S
C2447 H2433 0.929 . S
C2447 C2446 1.399 . S
C2447 C2448 1.385 . S
C2448 H2434 0.931 . S
C2448 C2447 1.385 . S
C2448 C2449 1.389 . S
C2449 C2448 1.389 . S
C2449 C2450 1.387 . S
C2450 H2435 0.930 . S
C2450 C2445 1.390 . S
C2450 C2449 1.387 . S
H2451 C2463 0.930 . S
H2452 C2465 0.930 . S
H2453 C2466 0.930 . S
H2454 C2470 0.959 . S
H2455 C2470 0.959 . S
H2456 C2470 0.961 . S
H2457 C2471 0.960 . S
H2458 C2471 0.961 . S
H2459 C2471 0.959 . S
H2460 C2474 0.929 . S
H2461 C2475 0.931 1_554 S
H2462 C2477 0.930 . S
C2463 H2451 0.930 . S
C2463 C2464 1.399 . S
C2463 C2468 1.399 . S
C2464 C2463 1.399 . S
C2464 C2465 1.376 . S
C2465 H2452 0.930 . S
C2465 C2464 1.376 . S
C2465 C2466 1.388 . S
C2466 H2453 0.930 . S
C2466 C2465 1.388 . S
C2466 C2467 1.390 . S
C2467 C2466 1.390 . S
C2467 C2468 1.394 . S
C2467 C2473 1.465 . S
C2468 C2463 1.399 . S
C2468 C2467 1.394 . S
C2468 C2469 1.516 . S
C2469 C2468 1.516 . S
C2469 C2470 1.502 . S
C2469 C2471 1.561 . S
C2469 C2472 1.526 . S
C2470 H2454 0.959 . S
C2470 H2455 0.959 . S
C2470 H2456 0.961 . S
C2470 C2469 1.502 . S
C2471 H2457 0.960 . S
C2471 H2458 0.961 . S
C2471 H2459 0.959 . S
C2471 C2469 1.561 . S
C2472 C2469 1.526 . S
C2472 C2473 1.396 . S
C2472 C2477 1.390 . S
C2473 C2467 1.465 . S
C2473 C2472 1.396 . S
C2473 C2474 1.399 . S
C2474 H2460 0.929 . S
C2474 C2473 1.399 . S
C2474 C2475 1.385 . S
C2475 H2461 0.931 1_556 S
C2475 C2474 1.385 . S
C2475 C2476 1.389 1_556 S
C2476 C2475 1.389 1_554 S
C2476 C2477 1.387 1_554 S
C2477 H2462 0.930 . S
C2477 C2472 1.390 . S
C2477 C2476 1.387 1_556 S
H2478 C2490 0.930 . S
H2479 C2492 0.930 . S
H2480 C2493 0.930 . S
H2481 C2497 0.959 . S
H2482 C2497 0.959 . S
H2483 C2497 0.961 . S
H2484 C2498 0.960 . S
H2485 C2498 0.961 . S
H2486 C2498 0.959 . S
H2487 C2501 0.929 . S
H2488 C2502 0.931 . S
H2489 C2504 0.930 . S
C2490 H2478 0.930 . S
C2490 C2491 1.399 . S
C2490 C2495 1.399 . S
C2491 C2490 1.399 . S
C2491 C2492 1.376 . S
C2492 H2479 0.930 . S
C2492 C2491 1.376 . S
C2492 C2493 1.388 . S
C2493 H2480 0.930 . S
C2493 C2492 1.388 . S
C2493 C2494 1.390 . S
C2494 C2493 1.390 . S
C2494 C2495 1.394 . S
C2494 C2500 1.465 . S
C2495 C2490 1.399 . S
C2495 C2494 1.394 . S
C2495 C2496 1.516 . S
C2496 C2495 1.516 . S
C2496 C2497 1.502 . S
C2496 C2498 1.561 . S
C2496 C2499 1.526 . S
C2497 H2481 0.959 . S
C2497 H2482 0.959 . S
C2497 H2483 0.961 . S
C2497 C2496 1.502 . S
C2498 H2484 0.960 . S
C2498 H2485 0.961 . S
C2498 H2486 0.959 . S
C2498 C2496 1.561 . S
C2499 C2496 1.526 . S
C2499 C2500 1.396 . S
C2499 C2504 1.390 . S
C2500 C2494 1.465 . S
C2500 C2499 1.396 . S
C2500 C2501 1.399 . S
C2501 H2487 0.929 . S
C2501 C2500 1.399 . S
C2501 C2502 1.385 1_554 S
C2502 H2488 0.931 . S
C2502 C2501 1.385 1_556 S
C2502 C2503 1.389 . S
C2503 C2502 1.389 . S
C2503 C2504 1.387 1_556 S
C2504 H2489 0.930 . S
C2504 C2499 1.390 . S
C2504 C2503 1.387 1_554 S
H2505 C2517 0.930 1_554 S
H2506 C2519 0.930 . S
H2507 C2520 0.930 . S
H2508 C2524 0.959 . S
H2509 C2524 0.959 . S
H2510 C2524 0.961 . S
H2511 C2525 0.960 . S
H2512 C2525 0.961 . S
H2513 C2525 0.959 . S
H2514 C2528 0.929 . S
H2515 C2529 0.931 . S
H2516 C2531 0.930 . S
C2517 H2505 0.930 1_556 S
C2517 C2518 1.399 1_556 S
C2517 C2522 1.399 . S
C2518 C2517 1.399 1_554 S
C2518 C2519 1.376 1_554 S
C2519 H2506 0.930 . S
C2519 C2518 1.376 1_556 S
C2519 C2520 1.388 . S
C2520 H2507 0.930 . S
C2520 C2519 1.388 . S
C2520 C2521 1.390 . S
C2521 C2520 1.390 . S
C2521 C2522 1.394 . S
C2521 C2527 1.465 . S
C2522 C2517 1.399 . S
C2522 C2521 1.394 . S
C2522 C2523 1.516 . S
C2523 C2522 1.516 . S
C2523 C2524 1.502 . S
C2523 C2525 1.561 . S
C2523 C2526 1.526 . S
C2524 H2508 0.959 . S
C2524 H2509 0.959 . S
C2524 H2510 0.961 . S
C2524 C2523 1.502 . S
C2525 H2511 0.960 . S
C2525 H2512 0.961 . S
C2525 H2513 0.959 . S
C2525 C2523 1.561 . S
C2526 C2523 1.526 . S
C2526 C2527 1.396 . S
C2526 C2531 1.390 . S
C2527 C2521 1.465 . S
C2527 C2526 1.396 . S
C2527 C2528 1.399 . S
C2528 H2514 0.929 . S
C2528 C2527 1.399 . S
C2528 C2529 1.385 . S
C2529 H2515 0.931 . S
C2529 C2528 1.385 . S
C2529 C2530 1.389 . S
C2530 C2529 1.389 . S
C2530 C2531 1.387 . S
C2531 H2516 0.930 . S
C2531 C2526 1.390 . S
C2531 C2530 1.387 . S
H2532 C2544 0.930 . S
H2533 C2546 0.930 . S
H2534 C2547 0.930 . S
H2535 C2551 0.959 . S
H2536 C2551 0.959 . S
H2537 C2551 0.961 . S
H2538 C2552 0.960 . S
H2539 C2552 0.961 . S
H2540 C2552 0.959 . S
H2541 C2555 0.929 . S
H2542 C2556 0.931 . S
H2543 C2558 0.930 1_556 S
C2544 H2532 0.930 . S
C2544 C2545 1.399 . S
C2544 C2549 1.399 . S
C2545 C2544 1.399 . S
C2545 C2546 1.376 . S
C2546 H2533 0.930 . S
C2546 C2545 1.376 . S
C2546 C2547 1.388 . S
C2547 H2534 0.930 . S
C2547 C2546 1.388 . S
C2547 C2548 1.390 . S
C2548 C2547 1.390 . S
C2548 C2549 1.394 . S
C2548 C2554 1.465 . S
C2549 C2544 1.399 . S
C2549 C2548 1.394 . S
C2549 C2550 1.516 . S
C2550 C2549 1.516 . S
C2550 C2551 1.502 . S
C2550 C2552 1.561 . S
C2550 C2553 1.526 . S
C2551 H2535 0.959 . S
C2551 H2536 0.959 . S
C2551 H2537 0.961 . S
C2551 C2550 1.502 . S
C2552 H2538 0.960 . S
C2552 H2539 0.961 . S
C2552 H2540 0.959 . S
C2552 C2550 1.561 . S
C2553 C2550 1.526 . S
C2553 C2554 1.396 . S
C2553 C2558 1.390 . S
C2554 C2548 1.465 . S
C2554 C2553 1.396 . S
C2554 C2555 1.399 . S
C2555 H2541 0.929 . S
C2555 C2554 1.399 . S
C2555 C2556 1.385 . S
C2556 H2542 0.931 . S
C2556 C2555 1.385 . S
C2556 C2557 1.389 1_554 S
C2557 C2556 1.389 1_556 S
C2557 C2558 1.387 1_556 S
C2558 H2543 0.930 1_554 S
C2558 C2553 1.390 . S
C2558 C2557 1.387 1_554 S
H2559 C2571 0.930 . S
H2560 C2573 0.930 1_554 S
H2561 C2574 0.930 . S
H2562 C2578 0.959 . S
H2563 C2578 0.959 . S
H2564 C2578 0.961 . S
H2565 C2579 0.960 . S
H2566 C2579 0.961 . S
H2567 C2579 0.959 . S
H2568 C2582 0.929 . S
H2569 C2583 0.931 . S
H2570 C2585 0.930 . S
C2571 H2559 0.930 . S
C2571 C2572 1.399 1_556 S
C2571 C2576 1.399 . S
C2572 C2571 1.399 1_554 S
C2572 C2573 1.376 1_554 S
C2573 H2560 0.930 1_556 S
C2573 C2572 1.376 1_556 S
C2573 C2574 1.388 . S
C2574 H2561 0.930 . S
C2574 C2573 1.388 . S
C2574 C2575 1.390 . S
C2575 C2574 1.390 . S
C2575 C2576 1.394 . S
C2575 C2581 1.465 . S
C2576 C2571 1.399 . S
C2576 C2575 1.394 . S
C2576 C2577 1.516 . S
C2577 C2576 1.516 . S
C2577 C2578 1.502 . S
C2577 C2579 1.561 . S
C2577 C2580 1.526 . S
C2578 H2562 0.959 . S
C2578 H2563 0.959 . S
C2578 H2564 0.961 . S
C2578 C2577 1.502 . S
C2579 H2565 0.960 . S
C2579 H2566 0.961 . S
C2579 H2567 0.959 . S
C2579 C2577 1.561 . S
C2580 C2577 1.526 . S
C2580 C2581 1.396 . S
C2580 C2585 1.390 . S
C2581 C2575 1.465 . S
C2581 C2580 1.396 . S
C2581 C2582 1.399 . S
C2582 H2568 0.929 . S
C2582 C2581 1.399 . S
C2582 C2583 1.385 . S
C2583 H2569 0.931 . S
C2583 C2582 1.385 . S
C2583 C2584 1.389 . S
C2584 C2583 1.389 . S
C2584 C2585 1.387 . S
C2585 H2570 0.930 . S
C2585 C2580 1.390 . S
C2585 C2584 1.387 . S
H2586 C2598 0.930 1_556 S
H2587 C2600 0.930 . S
H2588 C2601 0.930 . S
H2589 C2605 0.959 . S
H2590 C2605 0.959 . S
H2591 C2605 0.961 . S
H2592 C2606 0.960 . S
H2593 C2606 0.961 . S
H2594 C2606 0.959 . S
H2595 C2609 0.929 . S
H2596 C2610 0.931 . S
H2597 C2612 0.930 . S
C2598 H2586 0.930 1_554 S
C2598 C2599 1.399 1_554 S
C2598 C2603 1.399 . S
C2599 C2598 1.399 1_556 S
C2599 C2600 1.376 1_556 S
C2600 H2587 0.930 . S
C2600 C2599 1.376 1_554 S
C2600 C2601 1.388 . S
C2601 H2588 0.930 . S
C2601 C2600 1.388 . S
C2601 C2602 1.390 . S
C2602 C2601 1.390 . S
C2602 C2603 1.394 . S
C2602 C2608 1.465 . S
C2603 C2598 1.399 . S
C2603 C2602 1.394 . S
C2603 C2604 1.516 . S
C2604 C2603 1.516 . S
C2604 C2605 1.502 . S
C2604 C2606 1.561 . S
C2604 C2607 1.526 . S
C2605 H2589 0.959 . S
C2605 H2590 0.959 . S
C2605 H2591 0.961 . S
C2605 C2604 1.502 . S
C2606 H2592 0.960 . S
C2606 H2593 0.961 . S
C2606 H2594 0.959 . S
C2606 C2604 1.561 . S
C2607 C2604 1.526 . S
C2607 C2608 1.396 . S
C2607 C2612 1.390 . S
C2608 C2602 1.465 . S
C2608 C2607 1.396 . S
C2608 C2609 1.399 . S
C2609 H2595 0.929 . S
C2609 C2608 1.399 . S
C2609 C2610 1.385 . S
C2610 H2596 0.931 . S
C2610 C2609 1.385 . S
C2610 C2611 1.389 . S
C2611 C2610 1.389 . S
C2611 C2612 1.387 . S
C2612 H2597 0.930 . S
C2612 C2607 1.390 . S
C2612 C2611 1.387 . S
H2613 C2625 0.930 . S
H2614 C2627 0.930 . S
H2615 C2628 0.930 . S
H2616 C2632 0.959 . S
H2617 C2632 0.959 . S
H2618 C2632 0.961 . S
H2619 C2633 0.960 . S
H2620 C2633 0.961 . S
H2621 C2633 0.959 . S
H2622 C2636 0.929 . S
H2623 C2637 0.931 . S
H2624 C2639 0.930 1_554 S
C2625 H2613 0.930 . S
C2625 C2626 1.399 . S
C2625 C2630 1.399 . S
C2626 C2625 1.399 . S
C2626 C2627 1.376 . S
C2627 H2614 0.930 . S
C2627 C2626 1.376 . S
C2627 C2628 1.388 . S
C2628 H2615 0.930 . S
C2628 C2627 1.388 . S
C2628 C2629 1.390 . S
C2629 C2628 1.390 . S
C2629 C2630 1.394 . S
C2629 C2635 1.465 . S
C2630 C2625 1.399 . S
C2630 C2629 1.394 . S
C2630 C2631 1.516 . S
C2631 C2630 1.516 . S
C2631 C2632 1.502 . S
C2631 C2633 1.561 . S
C2631 C2634 1.526 . S
C2632 H2616 0.959 . S
C2632 H2617 0.959 . S
C2632 H2618 0.961 . S
C2632 C2631 1.502 . S
C2633 H2619 0.960 . S
C2633 H2620 0.961 . S
C2633 H2621 0.959 . S
C2633 C2631 1.561 . S
C2634 C2631 1.526 . S
C2634 C2635 1.396 . S
C2634 C2639 1.390 . S
C2635 C2629 1.465 . S
C2635 C2634 1.396 . S
C2635 C2636 1.399 . S
C2636 H2622 0.929 . S
C2636 C2635 1.399 . S
C2636 C2637 1.385 . S
C2637 H2623 0.931 . S
C2637 C2636 1.385 . S
C2637 C2638 1.389 1_556 S
C2638 C2637 1.389 1_554 S
C2638 C2639 1.387 1_554 S
C2639 H2624 0.930 1_556 S
C2639 C2634 1.390 . S
C2639 C2638 1.387 1_556 S
C1357 C979 1.660 . S
C1369 C56 1.639 . S
C1384 C739 1.655 . S
C1396 C152 1.648 . S
C1411 C224 1.658 . S
C1423 C811 1.649 . S
C1438 C320 1.649 . S
C1450 C907 1.669 . S
C1465 C392 1.660 . S
C1477 C475 1.650 . S
C1492 C571 1.668 . S
C1504 C488 1.639 . S
C1519 C560 1.646 . S
C1531 C643 1.669 . S
C1546 C403 1.670 . S
C1558 C656 1.646 . S
C1573 C307 1.660 . S
C1585 C728 1.639 . S
C1600 C824 1.663 . S
C1612 C67 1.662 . S
C1627 C139 1.652 . S
C1639 C896 1.644 . S
C1654 C235 1.656 . S
C1666 C992 1.646 . S
C1681 C1064 1.646 . S
C1693 C1147 1.669 . S
C1708 C1243 1.653 . S
C1720 C1160 1.669 . S
C1735 C1315 1.659 . S
C1747 C1232 1.639 . S
C1762 C1328 1.649 . S
C1774 C1075 1.654 . S
C1789 C68 1.301 . S
C1801 C404 1.380 . S
C1816 C476 1.289 . S
C1828 C140 1.365 . S
C1843 C236 1.374 . S
C1855 C572 1.270 . S
C1870 C308 1.372 . S
C1882 C644 1.290 . S
C1897 C740 1.365 . S
C1909 C1076 1.273 . S
C1924 C1148 1.360 . S
C1936 C812 1.303 . S
C1951 C908 1.295 . S
C1963 C1244 1.383 . S
C1978 C980 1.371 . S
C1990 C1316 1.291 . S
C2005 C1231 2.204 . S
C2017 C55 2.258 . S
C2032 C151 2.222 1_554 S
C2044 C1327 2.258 . S
C2059 C223 2.219 1_556 S
C2071 C1063 2.255 . S
C2086 C319 2.246 . S
C2098 C1159 2.201 . S
C2113 C391 2.237 . S
C2125 C895 2.206 . S
C2140 C487 2.226 . S
C2152 C991 2.258 . S
C2167 C559 2.240 . S
C2179 C727 2.204 . S
C2194 C823 2.229 . S
C2206 C655 2.257 . S
C2221 C70 0.980 . S
C2233 C58 1.169 . S
C2248 C142 1.089 . S
C2260 C154 1.105 . S
C2275 C238 1.167 . S
C2287 C226 0.983 . S
C2302 C322 1.159 . S
C2314 C310 1.023 . S
C2329 C394 0.980 . S
C2341 C406 1.170 . S
C2356 C478 1.134 . S
C2368 C490 1.056 . S
C2383 C574 1.023 . S
C2395 C562 1.157 . S
C2410 C658 1.004 . S
C2422 C646 1.132 . S
C2437 C742 0.981 . S
C2449 C730 1.173 . S
C2464 C826 1.174 . S
C2476 C814 0.995 . S
C2491 C898 1.175 . S
C2503 C910 0.983 . S
C2518 C982 1.175 . S
C2530 C994 0.983 . S
C2545 C1078 1.031 . S
C2557 C1066 1.152 . S
C2572 C1162 1.152 . S
C2584 C1150 1.033 . S
C2599 C1234 1.163 . S
C2611 C1246 0.985 . S
C2626 C1318 1.018 . S
C2638 C1330 1.118 . S
