# Generated by pormake.
# Topology lhb, (8)-cn, num edge types: 1
# Building blocks:
#     Node 0, Type 0, BuildingBlock: GIZVER_clean_sbu_0, # of connection points: 8
#     Node 1, Type 0, BuildingBlock: GIZVER_clean_sbu_0, # of connection points: 8
#     Node 2, Type 0, BuildingBlock: GIZVER_clean_sbu_0, # of connection points: 8
#     Node 3, Type 0, BuildingBlock: GIZVER_clean_sbu_0, # of connection points: 8
#     Node 4, Type 0, BuildingBlock: GIZVER_clean_sbu_0, # of connection points: 8
#     Node 5, Type 0, BuildingBlock: GIZVER_clean_sbu_0, # of connection points: 8
#     Node 6, Type 0, BuildingBlock: GIZVER_clean_sbu_0, # of connection points: 8
#     Node 7, Type 0, BuildingBlock: GIZVER_clean_sbu_0, # of connection points: 8
#     Edge 8, Type (0, 0), BuildingBlock: XIVTED_clean_linker_0, # of connection points: 2
#     Edge 9, Type (0, 0), BuildingBlock: XIVTED_clean_linker_0, # of connection points: 2
#     Edge 10, Type (0, 0), BuildingBlock: XIVTED_clean_linker_0, # of connection points: 2
#     Edge 11, Type (0, 0), BuildingBlock: XIVTED_clean_linker_0, # of connection points: 2
#     Edge 12, Type (0, 0), BuildingBlock: XIVTED_clean_linker_0, # of connection points: 2
#     Edge 13, Type (0, 0), BuildingBlock: XIVTED_clean_linker_0, # of connection points: 2
#     Edge 14, Type (0, 0), BuildingBlock: XIVTED_clean_linker_0, # of connection points: 2
#     Edge 15, Type (0, 0), BuildingBlock: XIVTED_clean_linker_0, # of connection points: 2
#     Edge 16, Type (0, 0), BuildingBlock: XIVTED_clean_linker_0, # of connection points: 2
#     Edge 17, Type (0, 0), BuildingBlock: XIVTED_clean_linker_0, # of connection points: 2
#     Edge 18, Type (0, 0), BuildingBlock: XIVTED_clean_linker_0, # of connection points: 2
#     Edge 19, Type (0, 0), BuildingBlock: XIVTED_clean_linker_0, # of connection points: 2
#     Edge 20, Type (0, 0), BuildingBlock: XIVTED_clean_linker_0, # of connection points: 2
#     Edge 21, Type (0, 0), BuildingBlock: XIVTED_clean_linker_0, # of connection points: 2
#     Edge 22, Type (0, 0), BuildingBlock: XIVTED_clean_linker_0, # of connection points: 2
#     Edge 23, Type (0, 0), BuildingBlock: XIVTED_clean_linker_0, # of connection points: 2
#     Edge 24, Type (0, 0), BuildingBlock: XIVTED_clean_linker_0, # of connection points: 2
#     Edge 25, Type (0, 0), BuildingBlock: XIVTED_clean_linker_0, # of connection points: 2
#     Edge 26, Type (0, 0), BuildingBlock: XIVTED_clean_linker_0, # of connection points: 2
#     Edge 27, Type (0, 0), BuildingBlock: XIVTED_clean_linker_0, # of connection points: 2
#     Edge 28, Type (0, 0), BuildingBlock: XIVTED_clean_linker_0, # of connection points: 2
#     Edge 29, Type (0, 0), BuildingBlock: XIVTED_clean_linker_0, # of connection points: 2
#     Edge 30, Type (0, 0), BuildingBlock: XIVTED_clean_linker_0, # of connection points: 2
#     Edge 31, Type (0, 0), BuildingBlock: XIVTED_clean_linker_0, # of connection points: 2
#     Edge 32, Type (0, 0), BuildingBlock: XIVTED_clean_linker_0, # of connection points: 2
#     Edge 33, Type (0, 0), BuildingBlock: XIVTED_clean_linker_0, # of connection points: 2
#     Edge 34, Type (0, 0), BuildingBlock: XIVTED_clean_linker_0, # of connection points: 2
#     Edge 35, Type (0, 0), BuildingBlock: XIVTED_clean_linker_0, # of connection points: 2
#     Edge 36, Type (0, 0), BuildingBlock: XIVTED_clean_linker_0, # of connection points: 2
#     Edge 37, Type (0, 0), BuildingBlock: XIVTED_clean_linker_0, # of connection points: 2
#     Edge 38, Type (0, 0), BuildingBlock: XIVTED_clean_linker_0, # of connection points: 2
#     Edge 39, Type (0, 0), BuildingBlock: XIVTED_clean_linker_0, # of connection points: 2
# Relax obj value: 0.096
# Max RMSD: 0.178
# Mean RMSD: 0.178
data_MOF--net-lhb--node1-GIZVER_clean_sbu_0--edge1-XIVTED_clean_linker_0
_symmetry_space_group_name_H-M    P1
_symmetry_Int_Tables_number       1
_symmetry_cell_setting            triclinic
loop_
_symmetry_equiv_pos_as_xyz
'x, y, z'
_cell_length_a     24.924131
_cell_length_b     15.294048
_cell_length_c     74.01121
_cell_angle_alpha  96.297093
_cell_angle_beta   90.124276
_cell_angle_gamma 89.995862
loop_
_atom_site_label
_atom_site_type_symbol
_atom_site_fract_x
_atom_site_fract_y
_atom_site_fract_z
_atom_type_partial_charge
Co0 Co 0.01031 0.018 1.00481 0.0
Co1 Co 0.91584 0.06411 1.01541 0.0
Co2 Co 0.98353 0.01063 0.04956 0.0
O3 O 0.96321 0.98472 1.02336 0.0
H4 H 0.94939 0.92567 1.0206 0.0
O5 O 0.00267 0.03807 0.07584 0.0
Co6 Co 0.95869 0.99231 0.0943 0.0
Co7 Co 0.05441 0.95845 0.08156 0.0
H8 H 0.01435 0.09799 0.07902 0.0
O9 O 0.8717 0.03937 0.9956 0.0
O10 O 0.95485 0.09891 0.99592 0.0
O11 O 0.90215 0.16696 1.03182 0.0
O12 O 0.96858 0.14072 0.05065 0.0
O13 O 0.9099 0.98572 0.05689 0.0
O14 O 0.91942 0.9544 0.11137 0.0
O15 O 0.96817 0.07895 0.11351 0.0
O16 O 0.93707 0.89798 0.07698 0.0
O17 O -0.00099 0.88018 0.04792 0.0
O18 O 0.06621 0.85236 0.06612 0.0
O19 O 0.02499 0.93295 0.1031 0.0
O20 O 0.10448 0.99905 0.09733 0.0
C21 C 0.03048 0.96548 0.97914 0.0
C22 C 0.06975 0.09479 1.03366 0.0
C23 C 0.935 0.19287 0.04436 0.0
C24 C 0.90871 0.08188 0.98782 0.0
C25 C 0.93501 0.02603 0.12078 0.0
C26 C 0.90342 0.91692 0.06488 0.0
C27 C 0.03261 0.82712 0.05383 0.0
C28 C 0.06977 0.97337 0.10874 0.0
O29 O 0.0528 0.03748 0.98659 0.0
O30 O -0.00828 0.92953 0.98762 0.0
O31 O 0.05816 0.03271 0.04296 0.0
O32 O 0.03943 0.11251 1.0207 0.0
Co33 Co 0.28281 0.2433 0.34439 0.0
Co34 Co 0.18834 0.2108 0.33008 0.0
Co35 Co 0.26239 0.26436 0.29938 0.0
O36 O 0.24132 0.29039 0.32546 0.0
H37 H 0.22953 0.35026 0.32864 0.0
O38 O 0.28416 0.24023 0.27332 0.0
Co39 Co 0.2376 0.2751 0.25464 0.0
Co40 Co 0.33204 0.32035 0.26592 0.0
H41 H 0.29796 0.18125 0.27049 0.0
O42 O 0.13702 0.25004 0.34535 0.0
O43 O 0.21543 0.18207 0.35177 0.0
O44 O 0.17654 0.1068 0.31397 0.0
O45 O 0.24742 0.1335 0.29741 0.0
O46 O 0.18812 0.28612 0.29215 0.0
O47 O 0.19577 0.29573 0.23625 0.0
O48 O 0.25669 0.18758 0.23736 0.0
O49 O 0.2078 0.36911 0.2706 0.0
O50 O 0.27716 0.39496 0.30084 0.0
O51 O 0.34526 0.4217 0.28279 0.0
O52 O 0.29358 0.3566 0.24634 0.0
O53 O 0.37697 0.29803 0.24627 0.0
C54 C 0.30277 0.27521 0.37132 0.0
C55 C 0.3419 0.17092 0.31547 0.0
C56 C 0.21216 0.0809 0.3025 0.0
C57 C 0.17017 0.2219 0.35701 0.0
C58 C 0.21809 0.22381 0.2288 0.0
C59 C 0.17771 0.35127 0.28358 0.0
C60 C 0.31134 0.44737 0.29496 0.0
C61 C 0.33993 0.34034 0.23841 0.0
O62 O 0.31979 0.20432 0.362 0.0
O63 O 0.27052 0.32826 0.36367 0.0
O64 O 0.3356 0.23942 0.30732 0.0
O65 O 0.30713 0.15073 0.32706 0.0
Co66 Co 0.78232 0.74953 0.34307 0.0
Co67 Co 0.68748 0.704 0.33041 0.0
Co68 Co 0.75397 0.75058 0.29776 0.0
O69 O 0.73634 0.78609 0.32395 0.0
H70 H 0.72267 0.84544 0.32637 0.0
O71 O 0.77328 0.71574 0.27177 0.0
Co72 Co 0.72448 0.73175 0.25257 0.0
Co73 Co 0.81517 0.79613 0.26212 0.0
H74 H 0.79067 0.65904 0.27012 0.0
O75 O 0.63783 0.7424 0.34622 0.0
O76 O 0.71926 0.68163 0.35182 0.0
O77 O 0.67415 0.59792 0.31502 0.0
O78 O 0.74612 0.62059 0.29869 0.0
O79 O 0.6773 0.75828 0.29158 0.0
O80 O 0.68006 0.73392 0.23392 0.0
O81 O 0.74965 0.64234 0.23693 0.0
O82 O 0.68901 0.82477 0.26686 0.0
O83 O 0.76141 0.88013 0.29633 0.0
O84 O 0.82732 0.90364 0.2772 0.0
O85 O 0.77395 0.81857 0.24218 0.0
O86 O 0.85975 0.769 0.24288 0.0
C87 C 0.80366 0.78991 0.3696 0.0
C88 C 0.84362 0.68482 0.31511 0.0
C89 C 0.71015 0.56986 0.30387 0.0
C90 C 0.67346 0.71826 0.35755 0.0
C91 C 0.70753 0.66443 0.22793 0.0
C92 C 0.65977 0.80669 0.28002 0.0
C93 C 0.79426 0.93126 0.28949 0.0
C94 C 0.82143 0.80707 0.23468 0.0
O95 O 0.82318 0.71998 0.36062 0.0
O96 O 0.76768 0.83645 0.36187 0.0
O97 O 0.82962 0.74089 0.30451 0.0
O98 O 0.80989 0.65779 0.3263 0.0
Co99 Co 0.00482 0.52262 0.50297 0.0
Co100 Co 0.91077 0.5713 0.51397 0.0
Co101 Co 0.97663 0.52076 0.54795 0.0
O102 O 0.95769 0.49058 0.52171 0.0
H103 H 0.94337 0.43181 0.51917 0.0
O104 O -0.00471 0.55309 0.57421 0.0
Co105 Co 0.95158 0.5127 0.5933 0.0
Co106 Co 0.04582 0.47114 0.57973 0.0
H107 H 0.00851 0.61252 0.5769 0.0
O108 O 0.86748 0.54907 0.49398 0.0
O109 O 0.95074 0.60879 0.49498 0.0
O110 O 0.89498 0.67199 0.53091 0.0
O111 O 0.96742 0.65098 0.54742 0.0
O112 O 0.9013 0.50677 0.55483 0.0
O113 O 0.9125 0.47911 0.61084 0.0
O114 O 0.96653 0.59754 0.61248 0.0
O115 O 0.92447 0.42285 0.57619 0.0
O116 O 0.98568 0.38993 0.54798 0.0
O117 O 0.05832 0.36601 0.56394 0.0
O118 O 0.01618 0.4455 0.60121 0.0
O119 O 0.0965 0.50879 0.59532 0.0
C120 C 0.02237 0.4725 0.47695 0.0
C121 C 0.06904 0.586 0.53116 0.0
C122 C 0.93101 0.70097 0.54209 0.0
C123 C 0.90465 0.5934 0.4867 0.0
C124 C 0.93185 0.54845 0.62012 0.0
C125 C 0.88905 0.45041 0.56561 0.0
C126 C 0.02153 0.33837 0.55302 0.0
C127 C 0.06202 0.48268 0.60677 0.0
O128 O 0.04678 0.54183 0.4847 0.0
O129 O 0.98303 0.43778 0.4854 0.0
O130 O 0.0527 0.5319 0.54172 0.0
O131 O 0.03789 0.61169 0.51915 0.0
Co132 Co 0.28159 0.72431 0.84441 0.0
Co133 Co 0.18591 0.6894 0.83166 0.0
Co134 Co 0.25654 0.74105 0.79957 0.0
O135 O 0.23746 0.7687 0.82577 0.0
H136 H 0.22563 0.82866 0.82886 0.0
O137 O 0.27663 0.7144 0.77339 0.0
Co138 Co 0.22967 0.74992 0.75496 0.0
Co139 Co 0.32461 0.79268 0.7655 0.0
H140 H 0.28973 0.655 0.7706 0.0
O141 O 0.13613 0.7305 0.84742 0.0
O142 O 0.21565 0.66452 0.85325 0.0
O143 O 0.17365 0.58321 0.81633 0.0
O144 O 0.24053 0.61051 0.79803 0.0
O145 O 0.18209 0.76547 0.79271 0.0
O146 O 0.18709 0.77209 0.73698 0.0
O147 O 0.24569 0.66028 0.73769 0.0
O148 O 0.20342 0.84598 0.77089 0.0
O149 O 0.2726 0.87115 0.8007 0.0
O150 O 0.33856 0.89634 0.7817 0.0
O151 O 0.28661 0.82719 0.74573 0.0
O152 O 0.369 0.76501 0.74602 0.0
C153 C 0.30503 0.76061 0.87087 0.0
C154 C 0.33747 0.64811 0.81528 0.0
C155 C 0.20697 0.55763 0.80403 0.0
C156 C 0.17092 0.70493 0.85886 0.0
C157 C 0.20769 0.69915 0.72936 0.0
C158 C 0.17328 0.83115 0.78407 0.0
C159 C 0.30601 0.92295 0.79424 0.0
C160 C 0.33274 0.8077 0.73788 0.0
O161 O 0.32102 0.68841 0.86177 0.0
O162 O 0.27153 0.8121 0.86332 0.0
O163 O 0.33004 0.71534 0.80687 0.0
O164 O 0.30392 0.62872 0.82732 0.0
Co165 Co 0.79079 0.25426 0.84378 0.0
Co166 Co 0.69698 0.2139 0.82942 0.0
Co167 Co 0.76755 0.26503 0.79834 0.0
O168 O 0.74818 0.29618 0.82454 0.0
H169 H 0.73501 0.35557 0.8273 0.0
O170 O 0.78711 0.23627 0.77215 0.0
Co171 Co 0.73933 0.2665 0.75337 0.0
Co172 Co 0.83339 0.31761 0.76428 0.0
H173 H 0.80191 0.17782 0.76962 0.0
O174 O 0.64539 0.25091 0.84459 0.0
O175 O 0.72536 0.18746 0.85102 0.0
O176 O 0.68515 0.10915 0.81343 0.0
O177 O 0.75833 0.13429 0.79798 0.0
O178 O 0.69155 0.27642 0.79193 0.0
O179 O 0.6969 0.28347 0.73496 0.0
O180 O 0.76191 0.18172 0.73601 0.0
O181 O 0.70572 0.35583 0.76931 0.0
O182 O 0.77703 0.39532 0.79814 0.0
O183 O 0.84825 0.4184 0.78125 0.0
O184 O 0.79204 0.35399 0.7454 0.0
O185 O 0.87604 0.29781 0.74396 0.0
C186 C 0.80964 0.28817 0.87078 0.0
C187 C 0.85411 0.19314 0.81633 0.0
C188 C 0.72232 0.08229 0.80266 0.0
C189 C 0.67927 0.2246 0.85624 0.0
C190 C 0.72199 0.21436 0.72744 0.0
C191 C 0.67521 0.33137 0.78157 0.0
C192 C 0.81281 0.44608 0.79273 0.0
C193 C 0.83763 0.34036 0.73685 0.0
O194 O 0.8289 0.2189 0.86149 0.0
O195 O 0.77563 0.33822 0.86305 0.0
O196 O 0.84263 0.2501 0.80557 0.0
O197 O 0.81805 0.16535 0.82661 0.0
Co198 Co 0.51166 0.00883 0.50481 0.0
Co199 Co 0.4171 0.05235 0.51554 0.0
Co200 Co 0.48602 0.99719 0.54936 0.0
O201 O 0.46488 0.97304 0.52321 0.0
H202 H 0.4514 0.91398 0.52028 0.0
O203 O 0.50616 0.02235 0.57555 0.0
Co204 Co 0.46361 0.97452 0.59412 0.0
Co205 Co 0.55891 0.9428 0.58059 0.0
H206 H 0.51773 0.08233 0.57889 0.0
O207 O 0.37216 0.02679 0.49602 0.0
O208 O 0.45497 0.08739 0.49582 0.0
O209 O 0.40417 0.15514 0.53203 0.0
O210 O 0.46977 0.12728 0.55107 0.0
O211 O 0.41299 0.97011 0.55686 0.0
O212 O 0.42573 0.935 0.61145 0.0
O213 O 0.47402 0.06001 0.61343 0.0
O214 O 0.44084 0.8808 0.57661 0.0
O215 O 0.50222 0.86678 0.54719 0.0
O216 O 0.57055 0.83791 0.56481 0.0
O217 O 0.53097 0.9153 0.60218 0.0
O218 O 0.60981 0.98261 0.59607 0.0
C219 C 0.53298 0.9582 0.47917 0.0
C220 C 0.56873 0.08895 0.53405 0.0
C221 C 0.43666 0.18014 0.54475 0.0
C222 C 0.4086 0.06928 0.48796 0.0
C223 C 0.44174 1.0064 0.62086 0.0
C224 C 0.40648 0.90135 0.56486 0.0
C225 C 0.53626 0.81328 0.55271 0.0
C226 C 0.57591 0.95588 0.60762 0.0
O227 O 0.55401 0.03091 0.48678 0.0
O228 O 0.49485 0.91989 0.4875 0.0
O229 O 0.56015 0.02242 0.54243 0.0
O230 O 0.53872 0.10431 0.52083 0.0
Co231 Co 0.51688 0.50326 1.00366 0.0
Co232 Co 0.424 0.55184 1.01575 0.0
Co233 Co 0.49348 0.49875 0.04874 0.0
O234 O 0.47179 0.47065 1.02271 0.0
H235 H 0.45719 0.41199 1.02018 0.0
O236 O 0.51413 0.52733 0.07492 0.0
Co237 Co 0.47122 0.48321 0.09377 0.0
Co238 Co 0.56368 0.44483 0.0799 0.0
H239 H 0.5273 0.58655 0.0779 0.0
O240 O 0.37838 0.5298 0.99636 0.0
O241 O 0.46166 0.58883 0.9962 0.0
O242 O 0.41084 0.65266 1.03292 0.0
O243 O 0.48414 0.62946 0.04886 0.0
O244 O 0.41889 0.48472 0.05621 0.0
O245 O 0.43229 0.4486 0.11114 0.0
O246 O 0.48725 0.56598 0.11324 0.0
O247 O 0.44249 0.39519 0.07642 0.0
O248 O 0.50302 0.36774 0.0481 0.0
O249 O 0.57809 0.3446 0.06277 0.0
O250 O 0.535 0.41053 0.10103 0.0
O251 O 0.6144 0.47802 0.09567 0.0
C252 C 0.53254 0.45408 0.97753 0.0
C253 C 0.58353 0.56493 1.03085 0.0
C254 C 0.44784 0.68052 0.04382 0.0
C255 C 0.41488 0.57282 0.98845 0.0
C256 C 0.45118 0.51808 0.12053 0.0
C257 C 0.40736 0.4233 0.06581 0.0
C258 C 0.5403 0.31668 0.05229 0.0
C259 C 0.58291 0.44003 0.10645 0.0
O260 O 0.55718 0.52355 0.9851 0.0
O261 O 0.49417 0.41854 0.98627 0.0
O262 O 0.5689 0.51084 0.04168 0.0
O263 O 0.55036 0.59191 1.01959 0.0
H264 H 0.07226 0.14118 0.12303 0.0
H265 H 0.22921 0.05264 0.21309 0.0
H266 H 0.09514 0.87802 0.13721 0.0
H267 H 0.15829 0.30198 0.20434 0.0
H268 H 0.18636 0.98601 0.18485 0.0
H269 H 0.10713 0.2 0.15261 0.0
C270 C 0.0834 0.09582 0.13267 0.0
C271 C 0.07946 1.00483 0.12795 0.0
C272 C 0.18027 0.05523 0.18918 0.0
C273 C 0.12212 0.07157 0.16164 0.0
C274 C 0.20518 0.0935 0.20515 0.0
C275 C 0.19751 0.18312 0.21104 0.0
C276 C 0.14814 0.10739 0.17899 0.0
C277 C 0.16538 0.2327 0.20037 0.0
C278 C 0.10377 0.12935 0.14951 0.0
C279 C 0.0962 0.94865 0.14063 0.0
N280 N 0.14215 0.19431 0.18491 0.0
N281 N 0.1174 0.98298 0.15692 0.0
H282 H -0.00499 0.0488 0.15218 0.0
H283 H 0.75346 0.87964 0.21089 0.0
H284 H 0.83266 0.02212 0.13246 0.0
H285 H 0.92135 0.83821 0.2216 0.0
H286 H 0.77901 0.95975 0.18518 0.0
H287 H 0.96535 1.00685 0.18153 0.0
C288 C 0.95286 0.03784 0.15423 0.0
C289 C 0.9164 0.03896 0.13983 0.0
C290 C 0.81016 0.93322 0.19323 0.0
C291 C 0.88206 0.98823 0.1732 0.0
C292 C 0.79558 0.88708 0.20783 0.0
C293 C 0.83521 0.85112 0.21834 0.0
C294 C 0.86473 0.94469 0.18926 0.0
C295 C 0.88925 0.8636 0.21379 0.0
C296 C 0.93593 0.01234 0.17092 0.0
C297 C 0.86208 0.02241 0.14326 0.0
N298 N 0.90234 0.90929 0.19968 0.0
N299 N 0.84663 0.99661 0.15947 0.0
H300 H 0.07813 0.55453 0.45234 0.0
H301 H 0.14429 0.1222 0.38477 0.0
H302 H 0.01232 0.30143 0.46088 0.0
H303 H 0.16441 0.38827 0.37194 0.0
H304 H 0.10671 0.18042 0.41463 0.0
H305 H 0.11944 0.48902 0.4244 0.0
C306 C 0.07197 0.48504 0.44824 0.0
C307 C 0.04151 0.43348 0.45893 0.0
C308 C 0.12014 0.22573 0.40533 0.0
C309 C 0.08962 0.35716 0.42685 0.0
C310 C 0.1422 0.19261 0.38848 0.0
C311 C 0.15853 0.25086 0.37619 0.0
C312 C 0.11475 0.3173 0.4097 0.0
C313 C 0.15324 0.3414 0.38124 0.0
C314 C 0.09575 0.4475 0.43226 0.0
C315 C 0.03504 0.34368 0.4529 0.0
N316 N 0.13202 0.37168 0.39755 0.0
N317 N 0.05922 0.30803 0.43727 0.0
H318 H 0.90535 0.78868 0.38209 0.0
H319 H 0.80493 0.6217 0.47306 0.0
H320 H 0.74261 0.82365 0.4007 0.0
H321 H 0.97267 0.66836 0.46339 0.0
H322 H 0.78186 0.69841 0.4469 0.0
H323 H 0.93228 0.75633 0.41238 0.0
C324 C 0.87547 0.79256 0.39277 0.0
C325 C 0.82132 0.80764 0.38876 0.0
C326 C 0.82371 0.69253 0.45055 0.0
C327 C 0.85151 0.76652 0.42334 0.0
C328 C 0.83706 0.64773 0.46539 0.0
C329 C 0.89098 0.63765 0.47038 0.0
C330 C 0.8645 0.72664 0.44032 0.0
C331 C 0.93063 0.67413 0.46002 0.0
C332 C 0.89082 0.77301 0.41003 0.0
C333 C 0.78439 0.81115 0.40306 0.0
N334 N 0.91663 0.71613 0.44537 0.0
N335 N 0.79984 0.78838 0.41961 0.0
H336 H 0.084 0.6464 0.62092 0.0
H337 H 0.21131 0.5273 0.71332 0.0
H338 H 0.06997 0.38269 0.63579 0.0
H339 H 0.15453 0.78627 0.70485 0.0
H340 H 0.16915 0.46883 0.68426 0.0
H341 H 0.11844 0.69541 0.65105 0.0
C342 C 0.08742 0.59905 0.63074 0.0
C343 C 0.07337 0.5108 0.62604 0.0
C344 C 0.16595 0.53829 0.68889 0.0
C345 C 0.11447 0.56598 0.66054 0.0
C346 C 0.19046 0.57182 0.7053 0.0
C347 C 0.18668 0.66188 0.71144 0.0
C348 C 0.13848 0.59575 0.67853 0.0
C349 C 0.15857 0.71649 0.70068 0.0
C350 C 0.10726 0.62698 0.64793 0.0
C351 C 0.07938 0.45168 0.63912 0.0
N352 N 0.13593 0.6827 0.68477 0.0
N353 N 0.10013 0.48022 0.65585 0.0
H354 H 0.76598 0.41095 0.71412 0.0
H355 H -0.00492 0.58361 0.65076 0.0
H356 H 0.93558 0.37472 0.72252 0.0
H357 H 0.83162 0.53842 0.63342 0.0
H358 H 0.97087 0.54471 0.68098 0.0
H359 H 0.78688 0.48935 0.68778 0.0
C360 C 0.80755 0.41945 0.71045 0.0
C361 C 0.84901 0.38519 0.72044 0.0
C362 C 0.94005 0.54526 0.67066 0.0
C363 C 0.87326 0.47667 0.69059 0.0
C364 C 0.95389 0.56841 0.65345 0.0
C365 C 0.91571 0.5626 0.63946 0.0
C366 C 0.88736 0.5177 0.67389 0.0
C367 C 0.86247 0.54311 0.64382 0.0
C368 C 0.81947 0.46452 0.69547 0.0
C369 C 0.90222 0.39878 0.71509 0.0
N370 N 0.85 0.52024 0.66053 0.0
N371 N 0.91278 0.4434 0.70057 0.0
H372 H 0.15336 0.60921 0.88794 0.0
H373 H 0.08796 0.04505 0.95445 0.0
H374 H 0.16223 0.87279 0.87273 0.0
H375 H 0.02148 0.79333 0.96371 0.0
H376 H 0.12873 0.97742 0.92652 0.0
H377 H 0.11931 0.66993 0.91815 0.0
C378 C 0.14952 0.67972 0.89117 0.0
C379 C 0.16142 0.7365 0.87808 0.0
C380 C 0.10509 0.93676 0.93459 0.0
C381 C 0.12193 0.80562 0.91204 0.0
C382 C 0.08166 0.97545 0.95055 0.0
C383 C 0.05092 0.92493 0.96139 0.0
C384 C 0.09838 0.84638 0.92937 0.0
C385 C 0.04436 0.83486 0.95562 0.0
C386 C 0.12949 0.71418 0.90822 0.0
C387 C 0.15419 0.8271 0.88259 0.0
N388 N 0.06814 0.79816 0.94 0.0
N389 N 0.13511 0.85874 0.89914 0.0
H390 H 0.91042 0.29094 0.88415 0.0
H391 H 0.80894 0.10302 0.97338 0.0
H392 H 0.7456 0.30645 0.90128 0.0
H393 H 0.97604 0.15915 0.9647 0.0
H394 H 0.78543 0.1792 0.94718 0.0
H395 H 0.93631 0.25304 0.91418 0.0
C396 C 0.87979 0.28964 0.89449 0.0
C397 C 0.82558 0.3018 0.89015 0.0
C398 C 0.82723 0.17535 0.95104 0.0
C399 C 0.85463 0.25393 0.92435 0.0
C400 C 0.84084 0.13089 0.96591 0.0
C401 C 0.89471 0.12394 0.97124 0.0
C402 C 0.86772 0.21241 0.94114 0.0
C403 C 0.93404 0.16255 0.96109 0.0
C404 C 0.89455 0.2668 0.91158 0.0
C405 C 0.78759 0.29769 0.90396 0.0
N406 N 0.91981 0.20442 0.94645 0.0
N407 N 0.80262 0.27214 0.92031 0.0
H408 H 0.73825 0.04459 0.71153 0.0
H409 H 0.57495 0.12343 0.62203 0.0
H410 H 0.66056 0.28881 0.70293 0.0
H411 H 0.60674 0.86177 0.6357 0.0
H412 H 0.61019 0.18408 0.6514 0.0
H413 H 0.69694 0.9754 0.68322 0.0
C414 C 0.71311 0.08383 0.7036 0.0
C415 C 0.70296 0.17269 0.70957 0.0
C416 C 0.60871 0.11329 0.64825 0.0
C417 C 0.65535 0.09406 0.67746 0.0
C418 C 0.58802 0.07866 0.63154 0.0
C419 C 0.58627 0.98755 0.62677 0.0
C420 C 0.62962 0.05664 0.66019 0.0
C421 C 0.60589 0.93235 0.6392 0.0
C422 C 0.68909 0.04408 0.6876 0.0
C423 C 0.66952 0.22016 0.69891 0.0
N424 N 0.62727 0.96786 0.65538 0.0
N425 N 0.64713 0.18039 0.68343 0.0
H426 H 0.33992 0.01057 0.63327 0.0
H427 H 0.43308 0.8214 0.72356 0.0
H428 H 0.50374 0.01906 0.65178 0.0
H429 H 0.26753 0.88632 0.71416 0.0
H430 H 0.45891 0.89382 0.69716 0.0
H431 H 0.31137 0.97324 0.66309 0.0
C432 C 0.36974 1.0081 0.64388 0.0
C433 C 0.42437 0.01898 0.64006 0.0
C434 C 0.41694 0.89271 0.70089 0.0
C435 C 0.3923 0.97154 0.67396 0.0
C436 C 0.40198 0.85042 0.71589 0.0
C437 C 0.34788 0.8472 0.72111 0.0
C438 C 0.37759 0.93136 0.69074 0.0
C439 C 0.30967 0.88698 0.71066 0.0
C440 C 0.35347 0.98559 0.66083 0.0
C441 C 0.46139 0.01258 0.65413 0.0
N442 N 0.32519 0.92679 0.6959 0.0
N443 N 0.44484 0.98757 0.67033 0.0
H444 H 0.52526 0.28222 0.96187 0.0
H445 H 0.66613 0.39069 0.87039 0.0
H446 H 0.58226 0.5392 0.95211 0.0
H447 H 0.66034 0.12523 0.88468 0.0
H448 H 0.62927 0.44384 0.89989 0.0
H449 H 0.56632 0.22055 0.93293 0.0
C450 C 0.54568 0.32569 0.95353 0.0
C451 C 0.55027 0.41596 0.95933 0.0
C452 C 0.63667 0.37402 0.89682 0.0
C453 C 0.59749 0.34623 0.92661 0.0
C454 C 0.6581 0.34378 0.88002 0.0
C455 C 0.66742 0.25388 0.87536 0.0
C456 C 0.62305 0.31382 0.90905 0.0
C457 C 0.65494 0.19534 0.88805 0.0
C458 C 0.56961 0.29037 0.93719 0.0
C459 C 0.5778 0.46925 0.9482 0.0
N460 N 0.63286 0.22634 0.90439 0.0
N461 N 0.60018 0.43365 0.93243 0.0
H462 H 0.31415 0.59838 0.97536 0.0
H463 H 0.40747 0.75784 0.88259 0.0
H464 H 0.48096 0.64437 0.96405 0.0
H465 H 0.2456 0.78968 0.90229 0.0
H466 H 0.4366 0.72635 0.91275 0.0
H467 H 0.28892 0.67062 0.94883 0.0
C468 C 0.34562 0.62334 0.96726 0.0
C469 C 0.39991 0.61448 0.97191 0.0
C470 C 0.39488 0.74238 0.91066 0.0
C471 C 0.37095 0.69827 0.94139 0.0
C472 C 0.37831 0.76144 0.89348 0.0
C473 C 0.3239 0.77647 0.8899 0.0
C474 C 0.35653 0.7361 0.9243 0.0
C475 C 0.28774 0.7787 0.90441 0.0
C476 C 0.33104 0.66554 0.95219 0.0
C477 C 0.43866 0.64938 0.96096 0.0
N478 N 0.30444 0.75669 0.92087 0.0
N479 N 0.42346 0.68891 0.94611 0.0
H480 H 0.68646 0.45466 0.11801 0.0
H481 H 0.60628 0.65163 0.21416 0.0
H482 H 0.52701 0.41041 0.13757 0.0
H483 H 0.76674 0.55255 0.20407 0.0
H484 H 0.57607 0.56596 0.18618 0.0
H485 H 0.71763 0.48566 0.14916 0.0
C486 C 0.65788 0.45056 0.12889 0.0
C487 C 0.60315 0.43462 0.12515 0.0
C488 C 0.61765 0.56181 0.19024 0.0
C489 C 0.63896 0.47128 0.16096 0.0
C490 C 0.63517 0.61162 0.20606 0.0
C491 C 0.68933 0.61018 0.21129 0.0
C492 C 0.65472 0.51167 0.17931 0.0
C493 C 0.72476 0.55602 0.20044 0.0
C494 C 0.67595 0.468 0.14671 0.0
C495 C 0.56885 0.42672 0.13984 0.0
N496 N 0.70703 0.51014 0.18475 0.0
N497 N 0.58689 0.4481 0.15718 0.0
H498 H 0.27169 0.40368 0.2137 0.0
H499 H 0.50719 0.57432 0.1523 0.0
H500 H 0.43993 0.37552 0.22568 0.0
H501 H 0.35001 0.49787 0.13199 0.0
H502 H 0.47841 0.54373 0.18292 0.0
H503 H 0.29623 0.47562 0.18683 0.0
C504 C 0.31373 0.41274 0.21072 0.0
C505 C 0.35375 0.38233 0.22184 0.0
C506 C 0.45012 0.53537 0.17175 0.0
C507 C 0.38212 0.46666 0.19137 0.0
C508 C 0.4664 0.55338 0.15435 0.0
C509 C 0.43162 0.53514 0.1395 0.0
C510 C 0.39825 0.50211 0.17425 0.0
C511 C 0.37858 0.51068 0.14302 0.0
C512 C 0.32772 0.45413 0.19544 0.0
C513 C 0.40768 0.39654 0.21734 0.0
N514 N 0.36375 0.49379 0.15992 0.0
N515 N 0.42027 0.43761 0.20249 0.0
H516 H 0.5859 0.04393 0.45444 0.0
H517 H 0.66863 0.62126 0.38708 0.0
H518 H 0.52963 0.78569 0.46362 0.0
H519 H 0.65135 0.88273 0.37122 0.0
H520 H 0.63483 0.67626 0.41773 0.0
H521 H 0.6269 0.98134 0.42614 0.0
C522 C 0.58194 0.97392 0.45045 0.0
C523 C 0.55388 0.92007 0.46133 0.0
C524 C 0.6391 0.72128 0.40751 0.0
C525 C 0.60161 0.84751 0.42892 0.0
C526 C 0.65895 0.69028 0.39021 0.0
C527 C 0.66332 0.74805 0.37682 0.0
C528 C 0.6245 0.8104 0.41126 0.0
C529 C 0.64892 0.83637 0.38126 0.0
C530 C 0.60547 0.93819 0.43429 0.0
C531 C 0.55031 0.82963 0.45547 0.0
N532 N 0.63042 0.86476 0.39805 0.0
N533 N 0.57417 0.79587 0.43964 0.0
H534 H 0.30825 0.08518 0.47356 0.0
H535 H 0.40396 0.28087 0.38436 0.0
H536 H 0.47411 0.14916 0.46467 0.0
H537 H 0.23943 0.2872 0.40187 0.0
H538 H 0.43144 0.24205 0.4142 0.0
H539 H 0.28286 0.16006 0.44738 0.0
C540 C 0.3395 0.11452 0.46605 0.0
C541 C 0.39357 0.11025 0.47133 0.0
C542 C 0.38939 0.25413 0.41173 0.0
C543 C 0.36438 0.19726 0.44125 0.0
C544 C 0.37372 0.27754 0.39477 0.0
C545 C 0.31922 0.28792 0.39063 0.0
C546 C 0.3501 0.23872 0.42455 0.0
C547 C 0.28169 0.2806 0.40445 0.0
C548 C 0.32479 0.15821 0.45118 0.0
C549 C 0.43199 0.15053 0.4611 0.0
N550 N 0.29766 0.25465 0.42067 0.0
N551 N 0.41671 0.19172 0.44649 0.0
H552 H 0.95319 0.74558 1.03259 0.0
H553 H 0.01219 0.27625 0.06627 0.0
H554 H 0.08874 0.69132 0.06614 0.0
H555 H 0.87877 0.32748 1.03154 0.0
H556 H 0.03825 0.43013 0.06749 0.0
H557 H 0.92585 0.5923 1.03168 0.0
C558 C 0.9779 0.70117 1.03946 0.0
C559 C 0.02318 0.73176 0.04959 0.0
C560 C 0.00298 0.40789 0.05973 0.0
C561 C -0.00857 0.55637 0.04884 0.0
C562 C 0.98766 0.3201 0.05919 0.0
C563 C 0.9434 0.28848 0.04865 0.0
C564 C 0.97387 0.46459 0.04969 0.0
C565 C 0.91334 0.34866 1.03976 0.0
C566 C 0.96188 0.61374 1.03909 0.0
C567 C 0.05343 0.67095 0.05823 0.0
N568 N 0.92944 0.43369 1.04034 0.0
N569 N 0.03673 0.58632 0.05779 0.0
H570 H 0.37381 0.58171 0.28505 0.0
H571 H 0.15014 0.94643 0.31255 0.0
H572 H 0.22728 0.5312 0.31325 0.0
H573 H 0.29642 0.99724 0.28423 0.0
H574 H 0.17668 0.79287 0.31213 0.0
H575 H 0.34762 0.7356 0.28561 0.0
C576 C 0.33661 0.60318 0.29166 0.0
C577 C 0.30255 0.54306 0.299 0.0
C578 C 0.20278 0.8375 0.30589 0.0
C579 C 0.27176 0.71881 0.29927 0.0
C580 C 0.18738 0.9251 0.30595 0.0
C581 C 0.22129 0.98525 0.29856 0.0
C582 C 0.25248 0.80977 0.29843 0.0
C583 C 0.26903 0.95351 0.29017 0.0
C584 C 0.32143 0.69095 0.2918 0.0
C585 C 0.25487 0.57493 0.30741 0.0
N586 N 0.28346 0.86813 0.29051 0.0
N587 N 0.24064 0.66043 0.30714 0.0
H588 H 0.72367 0.01634 0.31353 0.0
H589 H 0.78129 0.48539 0.28007 0.0
H590 H 0.84564 0.06319 0.27426 0.0
H591 H 0.65679 0.43765 0.31836 0.0
H592 H 0.80401 0.32983 0.27723 0.0
H593 H 0.70025 0.17161 0.31611 0.0
C594 C 0.74606 0.05944 0.30562 0.0
C595 C 0.78642 0.0266 0.29354 0.0
C596 C 0.77149 0.35328 0.28617 0.0
C597 C 0.75917 0.20391 0.29624 0.0
C598 C 0.75824 0.44198 0.2877 0.0
C599 C 0.71742 0.47459 0.29961 0.0
C600 C 0.74381 0.29698 0.29663 0.0
C601 C 0.68869 0.41534 0.30908 0.0
C602 C 0.73234 0.14797 0.30701 0.0
C603 C 0.81412 0.08556 0.2837 0.0
N604 N 0.7028 0.32929 0.3075 0.0
N605 N 0.79967 0.17141 0.28517 0.0
H606 H 0.8718 0.83151 0.52901 0.0
H607 H 0.08174 0.20586 0.56479 0.0
H608 H 0.00834 0.78884 0.56307 0.0
H609 H 0.94066 0.25325 0.53322 0.0
H610 H 0.05723 0.05104 0.56313 0.0
H611 H 0.89561 0.98678 0.53064 0.0
C612 C 0.90625 0.85494 0.53707 0.0
C613 C 0.93838 0.79685 0.54579 0.0
C614 C 0.03182 0.09525 0.55647 0.0
C615 C 0.96635 0.97398 0.54741 0.0
C616 C 0.04606 0.18356 0.55727 0.0
C617 C 0.013 0.24281 0.54925 0.0
C618 C 0.98424 0.06602 0.54759 0.0
C619 C 0.96725 0.21004 0.53968 0.0
C620 C 0.92008 0.94349 0.53787 0.0
C621 C 0.98256 0.83104 0.55604 0.0
N622 N 0.954 0.12386 0.53924 0.0
N623 N -0.00449 0.91728 0.55643 0.0
H624 H 0.36521 0.05651 0.78235 0.0
H625 H 0.14646 0.42266 0.81468 0.0
H626 H 0.22587 1.008 0.81445 0.0
H627 H 0.28907 0.47446 0.7845 0.0
H628 H 0.17288 0.26862 0.81342 0.0
H629 H 0.33867 0.21041 0.78334 0.0
C630 C 0.32959 0.07841 0.7899 0.0
C631 C 0.29761 0.01882 0.79824 0.0
C632 C 0.19818 0.31358 0.80696 0.0
C633 C 0.26633 0.19468 0.79903 0.0
C634 C 0.18283 0.40147 0.8075 0.0
C635 C 0.21574 0.46197 0.79979 0.0
C636 C 0.24685 0.28593 0.79869 0.0
C637 C 0.2624 0.43042 0.79066 0.0
C638 C 0.31416 0.16621 0.79029 0.0
C639 C 0.25184 0.05128 0.8078 0.0
N640 N 0.27682 0.34475 0.79052 0.0
N641 N 0.23729 0.13679 0.80777 0.0
H642 H 0.73813 0.5317 0.81512 0.0
H643 H 0.80076 0.9992 0.78152 0.0
H644 H 0.86846 0.57814 0.77892 0.0
H645 H 0.66591 0.9486 0.81551 0.0
H646 H 0.82599 0.84487 0.78022 0.0
H647 H 0.71398 0.68646 0.81662 0.0
C648 C 0.76224 0.57465 0.80771 0.0
C649 C 0.80508 0.54165 0.79672 0.0
C650 C 0.79065 0.86742 0.78785 0.0
C651 C 0.77696 0.7185 0.79814 0.0
C652 C 0.77592 0.9554 0.78848 0.0
C653 C 0.73136 0.98704 0.79877 0.0
C654 C 0.76068 0.81081 0.7976 0.0
C655 C 0.70067 0.92721 0.80746 0.0
C656 C 0.74808 0.6629 0.80845 0.0
C657 C 0.83496 0.60055 0.7875 0.0
N658 N 0.71622 0.842 0.80681 0.0
N659 N 0.82 0.6861 0.78829 0.0
H660 H 0.4539 0.7326 0.53278 0.0
H661 H 0.5173 0.26218 0.56533 0.0
H662 H 0.59467 0.67665 0.56372 0.0
H663 H 0.37868 0.31584 0.53313 0.0
H664 H 0.54424 0.41545 0.56592 0.0
H665 H 0.42661 0.57946 0.53224 0.0
C666 C 0.47976 0.68783 0.53913 0.0
C667 C 0.52653 0.71795 0.54844 0.0
C668 C 0.50762 0.39392 0.55888 0.0
C669 C 0.49478 0.54267 0.54817 0.0
C670 C 0.49179 0.30648 0.55872 0.0
C671 C 0.44577 0.27564 0.54904 0.0
C672 C 0.47715 0.45113 0.54937 0.0
C673 C 0.4146 0.33639 0.54068 0.0
C674 C 0.46376 0.60047 0.53898 0.0
C675 C 0.55817 0.65665 0.55646 0.0
N676 N 0.43113 0.42106 0.54091 0.0
N677 N 0.54145 0.57211 0.55628 0.0
H678 H 0.3862 0.81241 1.0324 0.0
H679 H 0.60307 0.18435 0.06297 0.0
H680 H 0.53023 0.76675 0.06263 0.0
H681 H 0.45746 0.23108 1.03369 0.0
H682 H 0.5787 0.02953 0.06192 0.0
H683 H 0.41094 0.96689 1.03321 0.0
C684 C 0.42257 0.83503 1.03947 0.0
C685 C 0.45637 0.77627 0.04734 0.0
C686 C 0.5523 0.0736 0.05561 0.0
C687 C 0.48541 0.95265 0.04799 0.0
C688 C 0.56644 0.16189 0.05605 0.0
C689 C 0.53203 0.22101 0.04855 0.0
C690 C 0.50345 0.04435 0.04762 0.0
C691 C 0.4851 0.18803 1.03974 0.0
C692 C 0.43692 0.92315 1.03978 0.0
C693 C 0.503 0.8095 0.05631 0.0
N694 N 0.47197 0.10199 1.03967 0.0
N695 N 0.51637 0.8954 0.05625 0.0
H696 H 0.3689 0.28156 0.08141 0.0
H697 H 0.10738 0.23815 1.01839 0.0
H698 H 0.32923 0.46109 0.04217 0.0
H699 H 0.13967 0.07369 0.06108 0.0
H700 H 0.1884 0.32244 1.02717 0.0
H701 H 0.28416 0.20483 0.07435 0.0
C702 C 0.34234 0.30489 0.07137 0.0
C703 C 0.35614 0.37733 0.06231 0.0
C704 C 0.17755 0.26801 1.03463 0.0
C705 C 0.25967 0.29045 0.05417 0.0
C706 C 0.13143 0.21995 1.0296 0.0
C707 C 0.11714 0.14855 1.03891 0.0
C708 C 0.20937 0.24401 0.049 0.0
C709 C 0.14942 0.12794 0.05343 0.0
C710 C 0.29403 0.26128 0.06736 0.0
C711 C 0.32029 0.4052 0.04945 0.0
N712 N 0.19419 0.17527 0.05797 0.0
N713 N 0.27376 0.36143 0.04571 0.0
H714 H 0.84648 0.92021 1.03353 0.0
H715 H 0.66382 0.51627 0.0527 0.0
H716 H 0.87396 0.76263 0.0777 0.0
H717 H 0.62754 0.6946 1.01291 0.0
H718 H 0.75112 0.58593 0.05775 0.0
H719 H 0.77744 0.81785 1.02167 0.0
C720 C 0.83809 0.86383 1.04074 0.0
C721 C 0.86494 0.85101 0.05693 0.0
C722 C 0.72426 0.60927 0.0478 0.0
C723 C 0.78572 0.73383 0.04338 0.0
C724 C 0.67433 0.56984 0.04494 0.0
C725 C 0.63795 0.60129 1.03266 0.0
C726 C 0.73767 0.6808 1.03839 0.0
C727 C 0.65406 0.66943 1.02272 0.0
C728 C 0.79876 0.8052 1.03388 0.0
C729 C 0.85337 0.77571 0.06538 0.0
N730 N 0.70264 0.70775 1.02598 0.0
N731 N 0.81389 0.72034 0.05863 0.0
H732 H 0.11553 0.33938 0.31337 0.0
H733 H 0.9225 0.73048 0.2926 0.0
H734 H 0.13944 0.49627 0.26892 0.0
H735 H 0.8867 0.54939 0.33185 0.0
H736 H 0.00866 0.65898 0.2868 0.0
H737 H 0.03873 0.42977 0.32323 0.0
C738 C 0.10468 0.39304 0.30567 0.0
C739 C 0.13334 0.4095 0.29008 0.0
C740 C 0.98211 0.63508 0.29673 0.0
C741 C 0.04536 0.51313 0.30137 0.0
C742 C 0.93281 0.67573 0.30007 0.0
C743 C 0.89703 0.64488 0.31256 0.0
C744 C -0.0042 0.563 0.30594 0.0
C745 C 0.91289 0.57463 0.32198 0.0
C746 C 0.06082 0.44466 0.31136 0.0
C747 C 0.11801 0.48074 0.28087 0.0
N748 N 0.96114 0.5355 0.31837 0.0
N749 N 0.07463 0.5297 0.28659 0.0
H750 H 0.37135 0.75317 0.57912 0.0
H751 H 0.12058 0.7021 0.51147 0.0
H752 H 0.34592 0.90874 0.53451 0.0
H753 H 0.14185 0.54961 0.5568 0.0
H754 H 0.20991 0.76448 0.51731 0.0
H755 H 0.29419 0.66201 0.56855 0.0
C756 C 0.34984 0.76764 0.56706 0.0
C757 C 0.36411 0.83974 0.55796 0.0
C758 C 0.1951 0.71691 0.5259 0.0
C759 C 0.27648 0.73667 0.54584 0.0
C760 C 0.14407 0.68164 0.5226 0.0
C761 C 0.12351 0.6218 0.53382 0.0
C762 C 0.22544 0.6924 0.54058 0.0
C763 C 0.15589 0.59649 0.54792 0.0
C764 C 0.30592 0.71578 0.56103 0.0
C765 C 0.33554 0.85504 0.54224 0.0
N766 N 0.20511 0.63256 0.551 0.0
N767 N 0.29278 0.80449 0.5368 0.0
H768 H 0.80532 0.49693 0.54497 0.0
H769 H 0.63008 0.08328 0.5644 0.0
H770 H 0.85065 0.31371 0.5828 0.0
H771 H 0.59792 0.24228 0.52081 0.0
H772 H 0.70097 0.18473 0.57538 0.0
H773 H 0.71965 0.42167 0.54021 0.0
C774 C 0.79715 0.44106 0.55236 0.0
C775 C 0.83556 0.41019 0.56402 0.0
C776 C 0.67824 0.19769 0.56347 0.0
C777 C 0.73766 0.32414 0.55861 0.0
C778 C 0.63785 0.1397 0.55714 0.0
C779 C 0.609 0.15335 0.54139 0.0
C780 C 0.68999 0.26955 0.55394 0.0
C781 C 0.61996 0.22849 0.53279 0.0
C782 C 0.74817 0.39834 0.54965 0.0
C783 C 0.82244 0.33875 0.57349 0.0
N784 N 0.66013 0.28347 0.53908 0.0
N785 N 0.77466 0.29738 0.57041 0.0
H786 H 0.89232 0.06141 0.83502 0.0
H787 H 0.15103 0.99086 0.77232 0.0
H788 H 0.93727 0.23227 0.79477 0.0
H789 H 0.10552 0.82013 0.81253 0.0
H790 H 0.08041 0.09314 0.78358 0.0
H791 H 0.97797 0.98524 0.83026 0.0
C792 C 0.92033 0.08321 0.82528 0.0
C793 C 0.90727 0.1518 0.81498 0.0
C794 C 0.08615 0.0335 0.79 0.0
C795 C 0.00492 0.06527 0.80945 0.0
C796 C 0.12623 0.97499 0.78351 0.0
C797 C 0.13319 0.89608 0.79122 0.0
C798 C 0.05274 0.01226 0.80415 0.0
C799 C 0.10085 0.87954 0.80595 0.0
C800 C 0.96923 0.03992 0.82259 0.0
C801 C 0.94533 0.17851 0.80276 0.0
N802 N 0.06158 0.93675 0.81181 0.0
N803 N -0.00776 0.13441 0.80017 0.0
H804 H 0.62317 0.44791 0.76205 0.0
H805 H 0.37607 0.50576 0.83087 0.0
H806 H 0.60452 0.2994 0.80807 0.0
H807 H 0.39639 0.6517 0.78456 0.0
H808 H 0.45421 0.41617 0.8208 0.0
H809 H 0.53463 0.51225 0.76835 0.0
C810 C 0.60044 0.42879 0.77344 0.0
C811 C 0.62142 0.3692 0.78466 0.0
C812 C 0.44116 0.46748 0.8128 0.0
C813 C 0.5204 0.44204 0.79196 0.0
C814 C 0.39666 0.51839 0.81855 0.0
C815 C 0.38058 0.5873 0.80878 0.0
C816 C 0.46936 0.48609 0.79723 0.0
C817 C 0.40812 0.60046 0.79276 0.0
C818 C 0.54986 0.46518 0.77701 0.0
C819 C 0.59007 0.34582 0.79914 0.0
N820 N 0.45144 0.55087 0.7876 0.0
N821 N 0.54124 0.38284 0.80246 0.0
H822 H 0.58609 0.77462 0.30567 0.0
H823 H 0.40157 0.17459 0.28478 0.0
H824 H 0.61245 0.93053 0.26121 0.0
H825 H 0.37307 0.01972 0.32926 0.0
H826 H 0.47178 0.07305 0.27369 0.0
H827 H 0.50143 0.85075 0.31216 0.0
C828 C 0.57395 0.82464 0.2972 0.0
C829 C 0.60678 0.84753 0.28306 0.0
C830 C 0.45007 0.06082 0.28582 0.0
C831 C 0.51 0.93469 0.29046 0.0
C832 C 0.41006 0.11906 0.29224 0.0
C833 C 0.38222 0.10647 0.30821 0.0
C834 C 0.46284 0.98995 0.29553 0.0
C835 C 0.39418 0.0324 0.31705 0.0
C836 C 0.5255 0.86783 0.3009 0.0
C837 C 0.58867 0.91167 0.27237 0.0
N838 N 0.43419 0.97725 0.31069 0.0
N839 N 0.54164 0.95375 0.27643 0.0
loop_
_geom_bond_atom_site_label_1
_geom_bond_atom_site_label_2
_geom_bond_distance
_geom_bond_site_symmetry_2
_ccdc_geom_bond_type
Co0 O3 2.045 1_455 S
Co0 O10 2.264 1_455 S
Co0 O29 2.286 . S
Co0 O30 2.069 1_545 S
Co0 O32 2.015 . S
Co1 O3 2.130 . S
Co1 O9 2.073 . S
Co1 O10 2.327 . S
Co1 O11 1.976 . S
Co2 O3 2.087 1_454 S
Co2 O5 2.087 . S
Co2 O12 2.120 1_455 S
Co2 O13 2.140 1_445 S
Co2 O17 2.103 1_545 S
Co2 O31 2.147 . S
O3 Co0 2.045 1_655 S
O3 Co1 2.130 . S
O3 Co2 2.087 1_656 S
O3 H4 0.971 1_545 S
H4 O3 0.971 1_565 S
O5 Co2 2.087 . S
O5 Co6 2.041 1_445 S
O5 Co7 2.116 1_545 S
O5 H8 0.987 . S
Co6 O5 2.041 1_665 S
Co6 O14 2.286 . S
Co6 O15 2.069 1_565 S
Co6 O16 2.015 . S
Co6 O19 2.264 1_655 S
Co7 O5 2.116 1_565 S
Co7 O18 1.976 . S
Co7 O19 2.327 . S
Co7 O20 2.073 . S
H8 O5 0.987 . S
O9 Co1 2.073 . S
O9 C24 1.245 . S
O10 Co0 2.264 1_655 S
O10 Co1 2.327 . S
O10 C24 1.257 . S
O11 Co1 1.976 . S
O11 C23 1.251 1_556 S
O12 Co2 2.120 1_655 S
O12 C23 1.274 . S
O13 Co2 2.140 1_665 S
O13 C26 1.246 . S
O14 Co6 2.286 . S
O14 C25 1.259 1_565 S
O15 Co6 2.069 1_545 S
O15 C25 1.289 . S
O16 Co6 2.015 . S
O16 C26 1.257 . S
O17 Co2 2.103 1_565 S
O17 C27 1.274 . S
O18 Co7 1.976 . S
O18 C27 1.251 . S
O19 Co6 2.264 1_455 S
O19 Co7 2.327 . S
O19 C28 1.257 . S
O20 Co7 2.073 . S
O20 C28 1.245 . S
C21 O29 1.259 1_565 S
C21 O30 1.289 . S
C22 O31 1.246 1_556 S
C22 O32 1.257 . S
C23 O11 1.251 1_554 S
C23 O12 1.274 . S
C24 O9 1.245 . S
C24 O10 1.257 . S
C25 O14 1.259 1_545 S
C25 O15 1.289 . S
C26 O13 1.246 . S
C26 O16 1.257 . S
C27 O17 1.274 . S
C27 O18 1.251 . S
C28 O19 1.257 . S
C28 O20 1.245 . S
O29 Co0 2.286 . S
O29 C21 1.259 1_545 S
O30 Co0 2.069 1_565 S
O30 C21 1.289 . S
O31 Co2 2.147 . S
O31 C22 1.246 1_554 S
O32 Co0 2.015 . S
O32 C22 1.257 . S
Co33 O36 2.042 . S
Co33 O43 2.264 . S
Co33 O62 2.286 . S
Co33 O63 2.069 . S
Co33 O65 2.015 . S
Co34 O36 2.122 . S
Co34 O42 2.073 . S
Co34 O43 2.327 . S
Co34 O44 1.976 . S
Co35 O36 2.087 . S
Co35 O38 2.087 . S
Co35 O45 2.111 . S
Co35 O46 2.143 . S
Co35 O50 2.111 . S
Co35 O64 2.143 . S
O36 Co33 2.042 . S
O36 Co34 2.122 . S
O36 Co35 2.087 . S
O36 H37 0.980 . S
H37 O36 0.980 . S
O38 Co35 2.087 . S
O38 Co39 2.042 . S
O38 Co40 2.122 . S
O38 H41 0.980 . S
Co39 O38 2.042 . S
Co39 O47 2.286 . S
Co39 O48 2.069 . S
Co39 O49 2.015 . S
Co39 O52 2.264 . S
Co40 O38 2.122 . S
Co40 O51 1.976 . S
Co40 O52 2.327 . S
Co40 O53 2.073 . S
H41 O38 0.980 . S
O42 Co34 2.073 . S
O42 C57 1.245 . S
O43 Co33 2.264 . S
O43 Co34 2.327 . S
O43 C57 1.257 . S
O44 Co34 1.976 . S
O44 C56 1.251 . S
O45 Co35 2.111 . S
O45 C56 1.274 . S
O46 Co35 2.143 . S
O46 C59 1.246 . S
O47 Co39 2.286 . S
O47 C58 1.259 . S
O48 Co39 2.069 . S
O48 C58 1.289 . S
O49 Co39 2.015 . S
O49 C59 1.257 . S
O50 Co35 2.111 . S
O50 C60 1.274 . S
O51 Co40 1.976 . S
O51 C60 1.251 . S
O52 Co39 2.264 . S
O52 Co40 2.327 . S
O52 C61 1.257 . S
O53 Co40 2.073 . S
O53 C61 1.245 . S
C54 O62 1.259 . S
C54 O63 1.289 . S
C55 O64 1.246 . S
C55 O65 1.257 . S
C56 O44 1.251 . S
C56 O45 1.274 . S
C57 O42 1.245 . S
C57 O43 1.257 . S
C58 O47 1.259 . S
C58 O48 1.289 . S
C59 O46 1.246 . S
C59 O49 1.257 . S
C60 O50 1.274 . S
C60 O51 1.251 . S
C61 O52 1.257 . S
C61 O53 1.245 . S
O62 Co33 2.286 . S
O62 C54 1.259 . S
O63 Co33 2.069 . S
O63 C54 1.289 . S
O64 Co35 2.143 . S
O64 C55 1.246 . S
O65 Co33 2.015 . S
O65 C55 1.257 . S
Co66 O69 2.042 . S
Co66 O76 2.264 . S
Co66 O95 2.286 . S
Co66 O96 2.069 . S
Co66 O98 2.015 . S
Co67 O69 2.122 . S
Co67 O75 2.073 . S
Co67 O76 2.327 . S
Co67 O77 1.976 . S
Co68 O69 2.087 . S
Co68 O71 2.087 . S
Co68 O78 2.111 . S
Co68 O79 2.143 . S
Co68 O83 2.111 . S
Co68 O97 2.143 . S
O69 Co66 2.042 . S
O69 Co67 2.122 . S
O69 Co68 2.087 . S
O69 H70 0.980 . S
H70 O69 0.980 . S
O71 Co68 2.087 . S
O71 Co72 2.042 . S
O71 Co73 2.122 . S
O71 H74 0.980 . S
Co72 O71 2.042 . S
Co72 O80 2.286 . S
Co72 O81 2.069 . S
Co72 O82 2.015 . S
Co72 O85 2.264 . S
Co73 O71 2.122 . S
Co73 O84 1.976 . S
Co73 O85 2.327 . S
Co73 O86 2.073 . S
H74 O71 0.980 . S
O75 Co67 2.073 . S
O75 C90 1.245 . S
O76 Co66 2.264 . S
O76 Co67 2.327 . S
O76 C90 1.257 . S
O77 Co67 1.976 . S
O77 C89 1.251 . S
O78 Co68 2.111 . S
O78 C89 1.274 . S
O79 Co68 2.143 . S
O79 C92 1.246 . S
O80 Co72 2.286 . S
O80 C91 1.259 . S
O81 Co72 2.069 . S
O81 C91 1.289 . S
O82 Co72 2.015 . S
O82 C92 1.257 . S
O83 Co68 2.111 . S
O83 C93 1.274 . S
O84 Co73 1.976 . S
O84 C93 1.251 . S
O85 Co72 2.264 . S
O85 Co73 2.327 . S
O85 C94 1.257 . S
O86 Co73 2.073 . S
O86 C94 1.245 . S
C87 O95 1.259 . S
C87 O96 1.289 . S
C88 O97 1.246 . S
C88 O98 1.257 . S
C89 O77 1.251 . S
C89 O78 1.274 . S
C90 O75 1.245 . S
C90 O76 1.257 . S
C91 O80 1.259 . S
C91 O81 1.289 . S
C92 O79 1.246 . S
C92 O82 1.257 . S
C93 O83 1.274 . S
C93 O84 1.251 . S
C94 O85 1.257 . S
C94 O86 1.245 . S
O95 Co66 2.286 . S
O95 C87 1.259 . S
O96 Co66 2.069 . S
O96 C87 1.289 . S
O97 Co68 2.143 . S
O97 C88 1.246 . S
O98 Co66 2.015 . S
O98 C88 1.257 . S
Co99 O102 2.042 1_455 S
Co99 O109 2.264 1_455 S
Co99 O128 2.286 . S
Co99 O129 2.069 . S
Co99 O131 2.015 . S
Co100 O102 2.122 . S
Co100 O108 2.073 . S
Co100 O109 2.327 . S
Co100 O110 1.976 . S
Co101 O102 2.087 1_455 S
Co101 O104 2.087 . S
Co101 O111 2.111 1_455 S
Co101 O112 2.143 1_455 S
Co101 O116 2.111 . S
Co101 O130 2.143 . S
O102 Co99 2.042 1_655 S
O102 Co100 2.122 . S
O102 Co101 2.087 1_655 S
O102 H103 0.980 . S
H103 O102 0.980 . S
O104 Co101 2.087 . S
O104 Co105 2.042 1_455 S
O104 Co106 2.122 . S
O104 H107 0.980 . S
Co105 O104 2.042 1_655 S
Co105 O113 2.286 . S
Co105 O114 2.069 . S
Co105 O115 2.015 . S
Co105 O118 2.264 1_655 S
Co106 O104 2.122 . S
Co106 O117 1.976 . S
Co106 O118 2.327 . S
Co106 O119 2.073 . S
H107 O104 0.980 . S
O108 Co100 2.073 . S
O108 C123 1.245 . S
O109 Co99 2.264 1_655 S
O109 Co100 2.327 . S
O109 C123 1.257 . S
O110 Co100 1.976 . S
O110 C122 1.251 . S
O111 Co101 2.111 1_655 S
O111 C122 1.274 . S
O112 Co101 2.143 1_655 S
O112 C125 1.246 . S
O113 Co105 2.286 . S
O113 C124 1.259 . S
O114 Co105 2.069 . S
O114 C124 1.289 . S
O115 Co105 2.015 . S
O115 C125 1.257 . S
O116 Co101 2.111 . S
O116 C126 1.274 . S
O117 Co106 1.976 . S
O117 C126 1.251 . S
O118 Co105 2.264 1_455 S
O118 Co106 2.327 . S
O118 C127 1.257 . S
O119 Co106 2.073 . S
O119 C127 1.245 . S
C120 O128 1.259 . S
C120 O129 1.289 . S
C121 O130 1.246 . S
C121 O131 1.257 . S
C122 O110 1.251 . S
C122 O111 1.274 . S
C123 O108 1.245 . S
C123 O109 1.257 . S
C124 O113 1.259 . S
C124 O114 1.289 . S
C125 O112 1.246 . S
C125 O115 1.257 . S
C126 O116 1.274 . S
C126 O117 1.251 . S
C127 O118 1.257 . S
C127 O119 1.245 . S
O128 Co99 2.286 . S
O128 C120 1.259 . S
O129 Co99 2.069 . S
O129 C120 1.289 . S
O130 Co101 2.143 . S
O130 C121 1.246 . S
O131 Co99 2.015 . S
O131 C121 1.257 . S
Co132 O135 2.042 . S
Co132 O142 2.264 . S
Co132 O161 2.286 . S
Co132 O162 2.069 . S
Co132 O164 2.015 . S
Co133 O135 2.122 . S
Co133 O141 2.073 . S
Co133 O142 2.327 . S
Co133 O143 1.976 . S
Co134 O135 2.087 . S
Co134 O137 2.087 . S
Co134 O144 2.111 . S
Co134 O145 2.143 . S
Co134 O149 2.111 . S
Co134 O163 2.143 . S
O135 Co132 2.042 . S
O135 Co133 2.122 . S
O135 Co134 2.087 . S
O135 H136 0.980 . S
H136 O135 0.980 . S
O137 Co134 2.087 . S
O137 Co138 2.042 . S
O137 Co139 2.122 . S
O137 H140 0.980 . S
Co138 O137 2.042 . S
Co138 O146 2.286 . S
Co138 O147 2.069 . S
Co138 O148 2.015 . S
Co138 O151 2.264 . S
Co139 O137 2.122 . S
Co139 O150 1.976 . S
Co139 O151 2.327 . S
Co139 O152 2.073 . S
H140 O137 0.980 . S
O141 Co133 2.073 . S
O141 C156 1.245 . S
O142 Co132 2.264 . S
O142 Co133 2.327 . S
O142 C156 1.257 . S
O143 Co133 1.976 . S
O143 C155 1.251 . S
O144 Co134 2.111 . S
O144 C155 1.274 . S
O145 Co134 2.143 . S
O145 C158 1.246 . S
O146 Co138 2.286 . S
O146 C157 1.259 . S
O147 Co138 2.069 . S
O147 C157 1.289 . S
O148 Co138 2.015 . S
O148 C158 1.257 . S
O149 Co134 2.111 . S
O149 C159 1.274 . S
O150 Co139 1.976 . S
O150 C159 1.251 . S
O151 Co138 2.264 . S
O151 Co139 2.327 . S
O151 C160 1.257 . S
O152 Co139 2.073 . S
O152 C160 1.245 . S
C153 O161 1.259 . S
C153 O162 1.289 . S
C154 O163 1.246 . S
C154 O164 1.257 . S
C155 O143 1.251 . S
C155 O144 1.274 . S
C156 O141 1.245 . S
C156 O142 1.257 . S
C157 O146 1.259 . S
C157 O147 1.289 . S
C158 O145 1.246 . S
C158 O148 1.257 . S
C159 O149 1.274 . S
C159 O150 1.251 . S
C160 O151 1.257 . S
C160 O152 1.245 . S
O161 Co132 2.286 . S
O161 C153 1.259 . S
O162 Co132 2.069 . S
O162 C153 1.289 . S
O163 Co134 2.143 . S
O163 C154 1.246 . S
O164 Co132 2.015 . S
O164 C154 1.257 . S
Co165 O168 2.042 . S
Co165 O175 2.264 . S
Co165 O194 2.286 . S
Co165 O195 2.069 . S
Co165 O197 2.015 . S
Co166 O168 2.122 . S
Co166 O174 2.073 . S
Co166 O175 2.327 . S
Co166 O176 1.976 . S
Co167 O168 2.087 . S
Co167 O170 2.087 . S
Co167 O177 2.111 . S
Co167 O178 2.143 . S
Co167 O182 2.111 . S
Co167 O196 2.143 . S
O168 Co165 2.042 . S
O168 Co166 2.122 . S
O168 Co167 2.087 . S
O168 H169 0.980 . S
H169 O168 0.980 . S
O170 Co167 2.087 . S
O170 Co171 2.042 . S
O170 Co172 2.122 . S
O170 H173 0.980 . S
Co171 O170 2.042 . S
Co171 O179 2.286 . S
Co171 O180 2.069 . S
Co171 O181 2.015 . S
Co171 O184 2.264 . S
Co172 O170 2.122 . S
Co172 O183 1.976 . S
Co172 O184 2.327 . S
Co172 O185 2.073 . S
H173 O170 0.980 . S
O174 Co166 2.073 . S
O174 C189 1.245 . S
O175 Co165 2.264 . S
O175 Co166 2.327 . S
O175 C189 1.257 . S
O176 Co166 1.976 . S
O176 C188 1.251 . S
O177 Co167 2.111 . S
O177 C188 1.274 . S
O178 Co167 2.143 . S
O178 C191 1.246 . S
O179 Co171 2.286 . S
O179 C190 1.259 . S
O180 Co171 2.069 . S
O180 C190 1.289 . S
O181 Co171 2.015 . S
O181 C191 1.257 . S
O182 Co167 2.111 . S
O182 C192 1.274 . S
O183 Co172 1.976 . S
O183 C192 1.251 . S
O184 Co171 2.264 . S
O184 Co172 2.327 . S
O184 C193 1.257 . S
O185 Co172 2.073 . S
O185 C193 1.245 . S
C186 O194 1.259 . S
C186 O195 1.289 . S
C187 O196 1.246 . S
C187 O197 1.257 . S
C188 O176 1.251 . S
C188 O177 1.274 . S
C189 O174 1.245 . S
C189 O175 1.257 . S
C190 O179 1.259 . S
C190 O180 1.289 . S
C191 O178 1.246 . S
C191 O181 1.257 . S
C192 O182 1.274 . S
C192 O183 1.251 . S
C193 O184 1.257 . S
C193 O185 1.245 . S
O194 Co165 2.286 . S
O194 C186 1.259 . S
O195 Co165 2.069 . S
O195 C186 1.289 . S
O196 Co167 2.143 . S
O196 C187 1.246 . S
O197 Co165 2.015 . S
O197 C187 1.257 . S
Co198 O201 2.044 . S
Co198 O208 2.264 . S
Co198 O227 2.286 . S
Co198 O228 2.069 1_545 S
Co198 O230 2.015 . S
Co199 O201 2.129 . S
Co199 O207 2.073 . S
Co199 O208 2.327 . S
Co199 O209 1.976 . S
Co200 O201 2.087 . S
Co200 O203 2.087 . S
Co200 O210 2.119 . S
Co200 O211 2.140 1_545 S
Co200 O215 2.103 1_545 S
Co200 O229 2.147 . S
O201 Co198 2.044 . S
O201 Co199 2.129 . S
O201 Co200 2.087 . S
O201 H202 0.972 1_545 S
H202 O201 0.972 1_565 S
O203 Co200 2.087 . S
O203 Co204 2.041 1_545 S
O203 Co205 2.117 1_545 S
O203 H206 0.986 . S
Co204 O203 2.041 1_565 S
Co204 O212 2.286 . S
Co204 O213 2.069 1_565 S
Co204 O214 2.015 . S
Co204 O217 2.264 . S
Co205 O203 2.117 1_565 S
Co205 O216 1.976 . S
Co205 O217 2.327 . S
Co205 O218 2.073 . S
H206 O203 0.986 . S
O207 Co199 2.073 . S
O207 C222 1.245 . S
O208 Co198 2.264 . S
O208 Co199 2.327 . S
O208 C222 1.257 . S
O209 Co199 1.976 . S
O209 C221 1.251 . S
O210 Co200 2.119 . S
O210 C221 1.274 . S
O211 Co200 2.140 1_565 S
O211 C224 1.246 . S
O212 Co204 2.286 . S
O212 C223 1.259 1_565 S
O213 Co204 2.069 1_545 S
O213 C223 1.289 . S
O214 Co204 2.015 . S
O214 C224 1.257 . S
O215 Co200 2.103 1_565 S
O215 C225 1.274 . S
O216 Co205 1.976 . S
O216 C225 1.251 . S
O217 Co204 2.264 . S
O217 Co205 2.327 . S
O217 C226 1.257 . S
O218 Co205 2.073 . S
O218 C226 1.245 . S
C219 O227 1.259 1_565 S
C219 O228 1.289 . S
C220 O229 1.246 . S
C220 O230 1.257 . S
C221 O209 1.251 . S
C221 O210 1.274 . S
C222 O207 1.245 . S
C222 O208 1.257 . S
C223 O212 1.259 1_545 S
C223 O213 1.289 . S
C224 O211 1.246 . S
C224 O214 1.257 . S
C225 O215 1.274 . S
C225 O216 1.251 . S
C226 O217 1.257 . S
C226 O218 1.245 . S
O227 Co198 2.286 . S
O227 C219 1.259 1_545 S
O228 Co198 2.069 1_565 S
O228 C219 1.289 . S
O229 Co200 2.147 . S
O229 C220 1.246 . S
O230 Co198 2.015 . S
O230 C220 1.257 . S
Co231 O234 2.042 . S
Co231 O241 2.264 . S
Co231 O260 2.286 . S
Co231 O261 2.069 . S
Co231 O263 2.015 . S
Co232 O234 2.122 . S
Co232 O240 2.073 . S
Co232 O241 2.327 . S
Co232 O242 1.976 . S
Co233 O234 2.087 1_554 S
Co233 O236 2.087 . S
Co233 O243 2.111 . S
Co233 O244 2.143 . S
Co233 O248 2.111 . S
Co233 O262 2.143 . S
O234 Co231 2.042 . S
O234 Co232 2.122 . S
O234 Co233 2.087 1_556 S
O234 H235 0.980 . S
H235 O234 0.980 . S
O236 Co233 2.087 . S
O236 Co237 2.042 . S
O236 Co238 2.122 . S
O236 H239 0.980 . S
Co237 O236 2.042 . S
Co237 O245 2.286 . S
Co237 O246 2.069 . S
Co237 O247 2.015 . S
Co237 O250 2.264 . S
Co238 O236 2.122 . S
Co238 O249 1.976 . S
Co238 O250 2.327 . S
Co238 O251 2.073 . S
H239 O236 0.980 . S
O240 Co232 2.073 . S
O240 C255 1.245 . S
O241 Co231 2.264 . S
O241 Co232 2.327 . S
O241 C255 1.257 . S
O242 Co232 1.976 . S
O242 C254 1.251 1_556 S
O243 Co233 2.111 . S
O243 C254 1.274 . S
O244 Co233 2.143 . S
O244 C257 1.246 . S
O245 Co237 2.286 . S
O245 C256 1.259 . S
O246 Co237 2.069 . S
O246 C256 1.289 . S
O247 Co237 2.015 . S
O247 C257 1.257 . S
O248 Co233 2.111 . S
O248 C258 1.274 . S
O249 Co238 1.976 . S
O249 C258 1.251 . S
O250 Co237 2.264 . S
O250 Co238 2.327 . S
O250 C259 1.257 . S
O251 Co238 2.073 . S
O251 C259 1.245 . S
C252 O260 1.259 . S
C252 O261 1.289 . S
C253 O262 1.246 1_556 S
C253 O263 1.257 . S
C254 O242 1.251 1_554 S
C254 O243 1.274 . S
C255 O240 1.245 . S
C255 O241 1.257 . S
C256 O245 1.259 . S
C256 O246 1.289 . S
C257 O244 1.246 . S
C257 O247 1.257 . S
C258 O248 1.274 . S
C258 O249 1.251 . S
C259 O250 1.257 . S
C259 O251 1.245 . S
O260 Co231 2.286 . S
O260 C252 1.259 . S
O261 Co231 2.069 . S
O261 C252 1.289 . S
O262 Co233 2.143 . S
O262 C253 1.246 1_554 S
O263 Co231 2.015 . S
O263 C253 1.257 . S
H264 C270 0.930 . S
H265 C274 0.930 . S
H266 C279 0.929 . S
H267 C277 0.929 . S
H268 C272 0.929 1_565 S
H269 C278 0.929 . S
C270 H264 0.930 . S
C270 C271 1.367 1_545 S
C270 C278 1.378 . S
C271 C270 1.367 1_565 S
C271 C279 1.433 . S
C272 H268 0.929 1_545 S
C272 C274 1.378 . S
C272 C276 1.350 . S
C273 C276 1.463 . S
C273 C278 1.350 . S
C273 N281 1.427 1_545 S
C274 H265 0.930 . S
C274 C272 1.378 . S
C274 C275 1.367 . S
C275 C274 1.367 . S
C275 C277 1.433 . S
C276 C272 1.350 . S
C276 C273 1.463 . S
C276 N280 1.427 . S
C277 H267 0.929 . S
C277 C275 1.433 . S
C277 N280 1.384 . S
C278 H269 0.929 . S
C278 C270 1.378 . S
C278 C273 1.350 . S
C279 H266 0.929 . S
C279 C271 1.433 . S
C279 N281 1.384 . S
N280 C276 1.427 . S
N280 C277 1.384 . S
N281 C273 1.427 1_565 S
N281 C279 1.384 . S
H282 C288 0.930 . S
H283 C292 0.930 . S
H284 C297 0.929 . S
H285 C295 0.929 . S
H286 C290 0.929 1_545 S
H287 C296 0.929 . S
C288 H282 0.930 . S
C288 C289 1.367 1_565 S
C288 C296 1.378 . S
C289 C288 1.367 1_545 S
C289 C297 1.433 . S
C290 H286 0.929 1_565 S
C290 C292 1.378 . S
C290 C294 1.350 . S
C291 C294 1.463 . S
C291 C296 1.350 . S
C291 N299 1.427 1_565 S
C292 H283 0.930 . S
C292 C290 1.378 . S
C292 C293 1.367 . S
C293 C292 1.367 . S
C293 C295 1.433 . S
C294 C290 1.350 . S
C294 C291 1.463 . S
C294 N298 1.427 . S
C295 H285 0.929 . S
C295 C293 1.433 . S
C295 N298 1.384 . S
C296 H287 0.929 . S
C296 C288 1.378 . S
C296 C291 1.350 . S
C297 H284 0.929 . S
C297 C289 1.433 . S
C297 N299 1.384 . S
N298 C294 1.427 . S
N298 C295 1.384 . S
N299 C291 1.427 1_545 S
N299 C297 1.384 . S
H300 C306 0.930 . S
H301 C310 0.930 . S
H302 C315 0.929 . S
H303 C313 0.929 . S
H304 C308 0.929 . S
H305 C314 0.929 . S
C306 H300 0.930 . S
C306 C307 1.367 . S
C306 C314 1.378 . S
C307 C306 1.367 . S
C307 C315 1.433 . S
C308 H304 0.929 . S
C308 C310 1.378 . S
C308 C312 1.350 . S
C309 C312 1.463 . S
C309 C314 1.350 . S
C309 N317 1.427 . S
C310 H301 0.930 . S
C310 C308 1.378 . S
C310 C311 1.367 . S
C311 C310 1.367 . S
C311 C313 1.433 . S
C312 C308 1.350 . S
C312 C309 1.463 . S
C312 N316 1.427 . S
C313 H303 0.929 . S
C313 C311 1.433 . S
C313 N316 1.384 . S
C314 H305 0.929 . S
C314 C306 1.378 . S
C314 C309 1.350 . S
C315 H302 0.929 . S
C315 C307 1.433 . S
C315 N317 1.384 . S
N316 C312 1.427 . S
N316 C313 1.384 . S
N317 C309 1.427 . S
N317 C315 1.384 . S
H318 C324 0.930 . S
H319 C328 0.930 . S
H320 C333 0.929 . S
H321 C331 0.929 1_455 S
H322 C326 0.929 . S
H323 C332 0.929 . S
C324 H318 0.930 . S
C324 C325 1.367 . S
C324 C332 1.378 . S
C325 C324 1.367 . S
C325 C333 1.433 . S
C326 H322 0.929 . S
C326 C328 1.378 . S
C326 C330 1.350 . S
C327 C330 1.463 . S
C327 C332 1.350 . S
C327 N335 1.427 . S
C328 H319 0.930 . S
C328 C326 1.378 . S
C328 C329 1.367 . S
C329 C328 1.367 . S
C329 C331 1.433 . S
C330 C326 1.350 . S
C330 C327 1.463 . S
C330 N334 1.427 . S
C331 H321 0.929 1_655 S
C331 C329 1.433 . S
C331 N334 1.384 . S
C332 H323 0.929 . S
C332 C324 1.378 . S
C332 C327 1.350 . S
C333 H320 0.929 . S
C333 C325 1.433 . S
C333 N335 1.384 . S
N334 C330 1.427 . S
N334 C331 1.384 . S
N335 C327 1.427 . S
N335 C333 1.384 . S
H336 C342 0.930 1_655 S
H337 C346 0.930 . S
H338 C351 0.929 . S
H339 C349 0.929 . S
H340 C344 0.929 . S
H341 C350 0.929 . S
C342 H336 0.930 1_455 S
C342 C343 1.367 . S
C342 C350 1.378 . S
C343 C342 1.367 . S
C343 C351 1.433 . S
C344 H340 0.929 . S
C344 C346 1.378 . S
C344 C348 1.350 . S
C345 C348 1.463 . S
C345 C350 1.350 . S
C345 N353 1.427 . S
C346 H337 0.930 . S
C346 C344 1.378 . S
C346 C347 1.367 . S
C347 C346 1.367 . S
C347 C349 1.433 . S
C348 C344 1.350 . S
C348 C345 1.463 . S
C348 N352 1.427 . S
C349 H339 0.929 . S
C349 C347 1.433 . S
C349 N352 1.384 . S
C350 H341 0.929 . S
C350 C342 1.378 . S
C350 C345 1.350 . S
C351 H338 0.929 . S
C351 C343 1.433 . S
C351 N353 1.384 . S
N352 C348 1.427 . S
N352 C349 1.384 . S
N353 C345 1.427 . S
N353 C351 1.384 . S
H354 C360 0.930 . S
H355 C364 0.930 . S
H356 C369 0.929 . S
H357 C367 0.929 . S
H358 C362 0.929 . S
H359 C368 0.929 . S
C360 H354 0.930 . S
C360 C361 1.367 . S
C360 C368 1.378 . S
C361 C360 1.367 . S
C361 C369 1.433 . S
C362 H358 0.929 . S
C362 C364 1.378 . S
C362 C366 1.350 . S
C363 C366 1.463 . S
C363 C368 1.350 . S
C363 N371 1.427 . S
C364 H355 0.930 . S
C364 C362 1.378 . S
C364 C365 1.367 . S
C365 C364 1.367 . S
C365 C367 1.433 . S
C366 C362 1.350 . S
C366 C363 1.463 . S
C366 N370 1.427 . S
C367 H357 0.929 . S
C367 C365 1.433 . S
C367 N370 1.384 . S
C368 H359 0.929 . S
C368 C360 1.378 . S
C368 C363 1.350 . S
C369 H356 0.929 . S
C369 C361 1.433 . S
C369 N371 1.384 . S
N370 C366 1.427 . S
N370 C367 1.384 . S
N371 C363 1.427 . S
N371 C369 1.384 . S
H372 C378 0.930 . S
H373 C382 0.930 1_545 S
H374 C387 0.929 . S
H375 C385 0.929 . S
H376 C380 0.929 . S
H377 C386 0.929 . S
C378 H372 0.930 . S
C378 C379 1.367 . S
C378 C386 1.378 . S
C379 C378 1.367 . S
C379 C387 1.433 . S
C380 H376 0.929 . S
C380 C382 1.378 . S
C380 C384 1.350 . S
C381 C384 1.463 . S
C381 C386 1.350 . S
C381 N389 1.427 . S
C382 H373 0.930 1_565 S
C382 C380 1.378 . S
C382 C383 1.367 . S
C383 C382 1.367 . S
C383 C385 1.433 . S
C384 C380 1.350 . S
C384 C381 1.463 . S
C384 N388 1.427 . S
C385 H375 0.929 . S
C385 C383 1.433 . S
C385 N388 1.384 . S
C386 H377 0.929 . S
C386 C378 1.378 . S
C386 C381 1.350 . S
C387 H374 0.929 . S
C387 C379 1.433 . S
C387 N389 1.384 . S
N388 C384 1.427 . S
N388 C385 1.384 . S
N389 C381 1.427 . S
N389 C387 1.384 . S
H390 C396 0.930 . S
H391 C400 0.930 . S
H392 C405 0.929 . S
H393 C403 0.929 . S
H394 C398 0.929 . S
H395 C404 0.929 . S
C396 H390 0.930 . S
C396 C397 1.367 . S
C396 C404 1.378 . S
C397 C396 1.367 . S
C397 C405 1.433 . S
C398 H394 0.929 . S
C398 C400 1.378 . S
C398 C402 1.350 . S
C399 C402 1.463 . S
C399 C404 1.350 . S
C399 N407 1.427 . S
C400 H391 0.930 . S
C400 C398 1.378 . S
C400 C401 1.367 . S
C401 C400 1.367 . S
C401 C403 1.433 . S
C402 C398 1.350 . S
C402 C399 1.463 . S
C402 N406 1.427 . S
C403 H393 0.929 . S
C403 C401 1.433 . S
C403 N406 1.384 . S
C404 H395 0.929 . S
C404 C396 1.378 . S
C404 C399 1.350 . S
C405 H392 0.929 . S
C405 C397 1.433 . S
C405 N407 1.384 . S
N406 C402 1.427 . S
N406 C403 1.384 . S
N407 C399 1.427 . S
N407 C405 1.384 . S
H408 C414 0.930 . S
H409 C418 0.930 . S
H410 C423 0.929 . S
H411 C421 0.929 . S
H412 C416 0.929 . S
H413 C422 0.929 1_565 S
C414 H408 0.930 . S
C414 C415 1.367 . S
C414 C422 1.378 . S
C415 C414 1.367 . S
C415 C423 1.433 . S
C416 H412 0.929 . S
C416 C418 1.378 . S
C416 C420 1.350 . S
C417 C420 1.463 . S
C417 C422 1.350 . S
C417 N425 1.427 . S
C418 H409 0.930 . S
C418 C416 1.378 . S
C418 C419 1.367 1_545 S
C419 C418 1.367 1_565 S
C419 C421 1.433 . S
C420 C416 1.350 . S
C420 C417 1.463 . S
C420 N424 1.427 1_545 S
C421 H411 0.929 . S
C421 C419 1.433 . S
C421 N424 1.384 . S
C422 H413 0.929 1_545 S
C422 C414 1.378 . S
C422 C417 1.350 . S
C423 H410 0.929 . S
C423 C415 1.433 . S
C423 N425 1.384 . S
N424 C420 1.427 1_565 S
N424 C421 1.384 . S
N425 C417 1.427 . S
N425 C423 1.384 . S
H426 C432 0.930 . S
H427 C436 0.930 . S
H428 C441 0.929 . S
H429 C439 0.929 . S
H430 C434 0.929 . S
H431 C440 0.929 . S
C432 H426 0.930 . S
C432 C433 1.367 . S
C432 C440 1.378 . S
C433 C432 1.367 . S
C433 C441 1.433 1_545 S
C434 H430 0.929 . S
C434 C436 1.378 . S
C434 C438 1.350 . S
C435 C438 1.463 . S
C435 C440 1.350 1_565 S
C435 N443 1.427 . S
C436 H427 0.930 . S
C436 C434 1.378 . S
C436 C437 1.367 . S
C437 C436 1.367 . S
C437 C439 1.433 . S
C438 C434 1.350 . S
C438 C435 1.463 . S
C438 N442 1.427 . S
C439 H429 0.929 . S
C439 C437 1.433 . S
C439 N442 1.384 . S
C440 H431 0.929 . S
C440 C432 1.378 . S
C440 C435 1.350 1_545 S
C441 H428 0.929 . S
C441 C433 1.433 1_565 S
C441 N443 1.384 . S
N442 C438 1.427 . S
N442 C439 1.384 . S
N443 C435 1.427 . S
N443 C441 1.384 . S
H444 C450 0.930 . S
H445 C454 0.930 . S
H446 C459 0.929 . S
H447 C457 0.929 . S
H448 C452 0.929 . S
H449 C458 0.929 . S
C450 H444 0.930 . S
C450 C451 1.367 . S
C450 C458 1.378 . S
C451 C450 1.367 . S
C451 C459 1.433 . S
C452 H448 0.929 . S
C452 C454 1.378 . S
C452 C456 1.350 . S
C453 C456 1.463 . S
C453 C458 1.350 . S
C453 N461 1.427 . S
C454 H445 0.930 . S
C454 C452 1.378 . S
C454 C455 1.367 . S
C455 C454 1.367 . S
C455 C457 1.433 . S
C456 C452 1.350 . S
C456 C453 1.463 . S
C456 N460 1.427 . S
C457 H447 0.929 . S
C457 C455 1.433 . S
C457 N460 1.384 . S
C458 H449 0.929 . S
C458 C450 1.378 . S
C458 C453 1.350 . S
C459 H446 0.929 . S
C459 C451 1.433 . S
C459 N461 1.384 . S
N460 C456 1.427 . S
N460 C457 1.384 . S
N461 C453 1.427 . S
N461 C459 1.384 . S
H462 C468 0.930 . S
H463 C472 0.930 . S
H464 C477 0.929 . S
H465 C475 0.929 . S
H466 C470 0.929 . S
H467 C476 0.929 . S
C468 H462 0.930 . S
C468 C469 1.367 . S
C468 C476 1.378 . S
C469 C468 1.367 . S
C469 C477 1.433 . S
C470 H466 0.929 . S
C470 C472 1.378 . S
C470 C474 1.350 . S
C471 C474 1.463 . S
C471 C476 1.350 . S
C471 N479 1.427 . S
C472 H463 0.930 . S
C472 C470 1.378 . S
C472 C473 1.367 . S
C473 C472 1.367 . S
C473 C475 1.433 . S
C474 C470 1.350 . S
C474 C471 1.463 . S
C474 N478 1.427 . S
C475 H465 0.929 . S
C475 C473 1.433 . S
C475 N478 1.384 . S
C476 H467 0.929 . S
C476 C468 1.378 . S
C476 C471 1.350 . S
C477 H464 0.929 . S
C477 C469 1.433 . S
C477 N479 1.384 . S
N478 C474 1.427 . S
N478 C475 1.384 . S
N479 C471 1.427 . S
N479 C477 1.384 . S
H480 C486 0.930 . S
H481 C490 0.930 . S
H482 C495 0.929 . S
H483 C493 0.929 . S
H484 C488 0.929 . S
H485 C494 0.929 . S
C486 H480 0.930 . S
C486 C487 1.367 . S
C486 C494 1.378 . S
C487 C486 1.367 . S
C487 C495 1.433 . S
C488 H484 0.929 . S
C488 C490 1.378 . S
C488 C492 1.350 . S
C489 C492 1.463 . S
C489 C494 1.350 . S
C489 N497 1.427 . S
C490 H481 0.930 . S
C490 C488 1.378 . S
C490 C491 1.367 . S
C491 C490 1.367 . S
C491 C493 1.433 . S
C492 C488 1.350 . S
C492 C489 1.463 . S
C492 N496 1.427 . S
C493 H483 0.929 . S
C493 C491 1.433 . S
C493 N496 1.384 . S
C494 H485 0.929 . S
C494 C486 1.378 . S
C494 C489 1.350 . S
C495 H482 0.929 . S
C495 C487 1.433 . S
C495 N497 1.384 . S
N496 C492 1.427 . S
N496 C493 1.384 . S
N497 C489 1.427 . S
N497 C495 1.384 . S
H498 C504 0.930 . S
H499 C508 0.930 . S
H500 C513 0.929 . S
H501 C511 0.929 . S
H502 C506 0.929 . S
H503 C512 0.929 . S
C504 H498 0.930 . S
C504 C505 1.367 . S
C504 C512 1.378 . S
C505 C504 1.367 . S
C505 C513 1.433 . S
C506 H502 0.929 . S
C506 C508 1.378 . S
C506 C510 1.350 . S
C507 C510 1.463 . S
C507 C512 1.350 . S
C507 N515 1.427 . S
C508 H499 0.930 . S
C508 C506 1.378 . S
C508 C509 1.367 . S
C509 C508 1.367 . S
C509 C511 1.433 . S
C510 C506 1.350 . S
C510 C507 1.463 . S
C510 N514 1.427 . S
C511 H501 0.929 . S
C511 C509 1.433 . S
C511 N514 1.384 . S
C512 H503 0.929 . S
C512 C504 1.378 . S
C512 C507 1.350 . S
C513 H500 0.929 . S
C513 C505 1.433 . S
C513 N515 1.384 . S
N514 C510 1.427 . S
N514 C511 1.384 . S
N515 C507 1.427 . S
N515 C513 1.384 . S
H516 C522 0.930 1_545 S
H517 C526 0.930 . S
H518 C531 0.929 . S
H519 C529 0.929 . S
H520 C524 0.929 . S
H521 C530 0.929 . S
C522 H516 0.930 1_565 S
C522 C523 1.367 . S
C522 C530 1.378 . S
C523 C522 1.367 . S
C523 C531 1.433 . S
C524 H520 0.929 . S
C524 C526 1.378 . S
C524 C528 1.350 . S
C525 C528 1.463 . S
C525 C530 1.350 . S
C525 N533 1.427 . S
C526 H517 0.930 . S
C526 C524 1.378 . S
C526 C527 1.367 . S
C527 C526 1.367 . S
C527 C529 1.433 . S
C528 C524 1.350 . S
C528 C525 1.463 . S
C528 N532 1.427 . S
C529 H519 0.929 . S
C529 C527 1.433 . S
C529 N532 1.384 . S
C530 H521 0.929 . S
C530 C522 1.378 . S
C530 C525 1.350 . S
C531 H518 0.929 . S
C531 C523 1.433 . S
C531 N533 1.384 . S
N532 C528 1.427 . S
N532 C529 1.384 . S
N533 C525 1.427 . S
N533 C531 1.384 . S
H534 C540 0.930 1_565 S
H535 C544 0.930 . S
H536 C549 0.929 . S
H537 C547 0.929 . S
H538 C542 0.929 . S
H539 C548 0.929 . S
C540 H534 0.930 1_545 S
C540 C541 1.367 . S
C540 C548 1.378 . S
C541 C540 1.367 . S
C541 C549 1.433 . S
C542 H538 0.929 . S
C542 C544 1.378 . S
C542 C546 1.350 . S
C543 C546 1.463 . S
C543 C548 1.350 . S
C543 N551 1.427 . S
C544 H535 0.930 . S
C544 C542 1.378 . S
C544 C545 1.367 . S
C545 C544 1.367 . S
C545 C547 1.433 . S
C546 C542 1.350 . S
C546 C543 1.463 . S
C546 N550 1.427 . S
C547 H537 0.929 . S
C547 C545 1.433 . S
C547 N550 1.384 . S
C548 H539 0.929 . S
C548 C540 1.378 . S
C548 C543 1.350 . S
C549 H536 0.929 . S
C549 C541 1.433 . S
C549 N551 1.384 . S
N550 C546 1.427 . S
N550 C547 1.384 . S
N551 C543 1.427 . S
N551 C549 1.384 . S
H552 C558 0.930 . S
H553 C562 0.930 . S
H554 C567 0.929 . S
H555 C565 0.929 . S
H556 C560 0.929 . S
H557 C566 0.929 . S
C558 H552 0.930 . S
C558 C559 1.367 1_556 S
C558 C566 1.378 . S
C559 C558 1.367 1_554 S
C559 C567 1.433 1_455 S
C560 H556 0.929 . S
C560 C562 1.378 . S
C560 C564 1.348 1_655 S
C561 C564 1.463 . S
C561 C566 1.350 1_554 S
C561 N569 1.427 1_455 S
C562 H553 0.930 . S
C562 C560 1.378 . S
C562 C563 1.367 1_655 S
C563 C562 1.367 1_455 S
C563 C565 1.433 1_554 S
C564 C560 1.348 1_455 S
C564 C561 1.463 . S
C564 N568 1.430 1_554 S
C565 H555 0.929 . S
C565 C563 1.433 1_556 S
C565 N568 1.384 . S
C566 H557 0.929 . S
C566 C558 1.378 . S
C566 C561 1.350 1_556 S
C567 H554 0.929 . S
C567 C559 1.433 1_655 S
C567 N569 1.384 . S
N568 C564 1.430 1_556 S
N568 C565 1.384 . S
N569 C561 1.427 1_655 S
N569 C567 1.384 . S
H570 C576 0.930 . S
H571 C580 0.930 . S
H572 C585 0.929 . S
H573 C583 0.929 . S
H574 C578 0.929 . S
H575 C584 0.929 . S
C576 H570 0.930 . S
C576 C577 1.367 . S
C576 C584 1.378 . S
C577 C576 1.367 . S
C577 C585 1.433 . S
C578 H574 0.929 . S
C578 C580 1.378 . S
C578 C582 1.350 . S
C579 C582 1.463 . S
C579 C584 1.350 . S
C579 N587 1.427 . S
C580 H571 0.930 . S
C580 C578 1.378 . S
C580 C581 1.367 . S
C581 C580 1.367 . S
C581 C583 1.433 . S
C582 C578 1.350 . S
C582 C579 1.463 . S
C582 N586 1.427 . S
C583 H573 0.929 . S
C583 C581 1.433 . S
C583 N586 1.384 . S
C584 H575 0.929 . S
C584 C576 1.378 . S
C584 C579 1.350 . S
C585 H572 0.929 . S
C585 C577 1.433 . S
C585 N587 1.384 . S
N586 C582 1.427 . S
N586 C583 1.384 . S
N587 C579 1.427 . S
N587 C585 1.384 . S
H588 C594 0.930 . S
H589 C598 0.930 . S
H590 C603 0.929 . S
H591 C601 0.929 . S
H592 C596 0.929 . S
H593 C602 0.929 . S
C594 H588 0.930 . S
C594 C595 1.367 . S
C594 C602 1.378 . S
C595 C594 1.367 . S
C595 C603 1.433 . S
C596 H592 0.929 . S
C596 C598 1.378 . S
C596 C600 1.350 . S
C597 C600 1.463 . S
C597 C602 1.350 . S
C597 N605 1.427 . S
C598 H589 0.930 . S
C598 C596 1.378 . S
C598 C599 1.367 . S
C599 C598 1.367 . S
C599 C601 1.433 . S
C600 C596 1.350 . S
C600 C597 1.463 . S
C600 N604 1.427 . S
C601 H591 0.929 . S
C601 C599 1.433 . S
C601 N604 1.384 . S
C602 H593 0.929 . S
C602 C594 1.378 . S
C602 C597 1.350 . S
C603 H590 0.929 . S
C603 C595 1.433 . S
C603 N605 1.384 . S
N604 C600 1.427 . S
N604 C601 1.384 . S
N605 C597 1.427 . S
N605 C603 1.384 . S
H606 C612 0.930 . S
H607 C616 0.930 . S
H608 C621 0.929 . S
H609 C619 0.929 . S
H610 C614 0.929 . S
H611 C620 0.929 . S
C612 H606 0.930 . S
C612 C613 1.380 . S
C612 C620 1.378 . S
C613 C612 1.380 . S
C613 C621 1.420 1_655 S
C614 H610 0.929 . S
C614 C616 1.378 . S
C614 C618 1.350 . S
C615 C618 1.462 1_665 S
C615 C620 1.358 . S
C615 N623 1.419 1_655 S
C616 H607 0.930 . S
C616 C614 1.378 . S
C616 C617 1.367 . S
C617 C616 1.367 . S
C617 C619 1.433 1_455 S
C618 C614 1.350 . S
C618 C615 1.462 1_445 S
C618 N622 1.427 1_455 S
C619 H609 0.929 . S
C619 C617 1.433 1_655 S
C619 N622 1.384 . S
C620 H611 0.929 . S
C620 C612 1.378 . S
C620 C615 1.358 . S
C621 H608 0.929 . S
C621 C613 1.420 1_455 S
C621 N623 1.384 . S
N622 C618 1.427 1_655 S
N622 C619 1.384 . S
N623 C615 1.419 1_455 S
N623 C621 1.384 . S
H624 C630 0.930 . S
H625 C634 0.930 . S
H626 C639 0.929 . S
H627 C637 0.929 . S
H628 C632 0.929 . S
H629 C638 0.929 . S
C630 H624 0.930 . S
C630 C631 1.367 . S
C630 C638 1.378 . S
C631 C630 1.367 . S
C631 C639 1.433 . S
C632 H628 0.929 . S
C632 C634 1.378 . S
C632 C636 1.350 . S
C633 C636 1.463 . S
C633 C638 1.350 . S
C633 N641 1.427 . S
C634 H625 0.930 . S
C634 C632 1.378 . S
C634 C635 1.367 . S
C635 C634 1.367 . S
C635 C637 1.433 . S
C636 C632 1.350 . S
C636 C633 1.463 . S
C636 N640 1.427 . S
C637 H627 0.929 . S
C637 C635 1.433 . S
C637 N640 1.384 . S
C638 H629 0.929 . S
C638 C630 1.378 . S
C638 C633 1.350 . S
C639 H626 0.929 . S
C639 C631 1.433 . S
C639 N641 1.384 . S
N640 C636 1.427 . S
N640 C637 1.384 . S
N641 C633 1.427 . S
N641 C639 1.384 . S
H642 C648 0.930 . S
H643 C652 0.930 . S
H644 C657 0.929 . S
H645 C655 0.929 . S
H646 C650 0.929 . S
H647 C656 0.929 . S
C648 H642 0.930 . S
C648 C649 1.367 . S
C648 C656 1.378 . S
C649 C648 1.367 . S
C649 C657 1.433 . S
C650 H646 0.929 . S
C650 C652 1.378 . S
C650 C654 1.350 . S
C651 C654 1.463 . S
C651 C656 1.350 . S
C651 N659 1.427 . S
C652 H643 0.930 . S
C652 C650 1.378 . S
C652 C653 1.367 . S
C653 C652 1.367 . S
C653 C655 1.433 . S
C654 C650 1.350 . S
C654 C651 1.463 . S
C654 N658 1.427 . S
C655 H645 0.929 . S
C655 C653 1.433 . S
C655 N658 1.384 . S
C656 H647 0.929 . S
C656 C648 1.378 . S
C656 C651 1.350 . S
C657 H644 0.929 . S
C657 C649 1.433 . S
C657 N659 1.384 . S
N658 C654 1.427 . S
N658 C655 1.384 . S
N659 C651 1.427 . S
N659 C657 1.384 . S
H660 C666 0.930 . S
H661 C670 0.930 . S
H662 C675 0.929 . S
H663 C673 0.929 . S
H664 C668 0.929 . S
H665 C674 0.929 . S
C666 H660 0.930 . S
C666 C667 1.367 . S
C666 C674 1.378 . S
C667 C666 1.367 . S
C667 C675 1.433 . S
C668 H664 0.929 . S
C668 C670 1.378 . S
C668 C672 1.350 . S
C669 C672 1.463 . S
C669 C674 1.350 . S
C669 N677 1.427 . S
C670 H661 0.930 . S
C670 C668 1.378 . S
C670 C671 1.367 . S
C671 C670 1.367 . S
C671 C673 1.433 . S
C672 C668 1.350 . S
C672 C669 1.463 . S
C672 N676 1.427 . S
C673 H663 0.929 . S
C673 C671 1.433 . S
C673 N676 1.384 . S
C674 H665 0.929 . S
C674 C666 1.378 . S
C674 C669 1.350 . S
C675 H662 0.929 . S
C675 C667 1.433 . S
C675 N677 1.384 . S
N676 C672 1.427 . S
N676 C673 1.384 . S
N677 C669 1.427 . S
N677 C675 1.384 . S
H678 C684 0.930 1_556 S
H679 C688 0.930 . S
H680 C693 0.929 . S
H681 C691 0.929 . S
H682 C686 0.929 . S
H683 C692 0.930 1_556 S
C684 H678 0.930 1_554 S
C684 C685 1.367 . S
C684 C692 1.377 . S
C685 C684 1.367 . S
C685 C693 1.433 . S
C686 H682 0.929 . S
C686 C688 1.378 . S
C686 C690 1.350 . S
C687 C690 1.463 1_565 S
C687 C692 1.349 . S
C687 N695 1.427 . S
C688 H679 0.930 . S
C688 C686 1.378 . S
C688 C689 1.367 . S
C689 C688 1.367 . S
C689 C691 1.433 1_554 S
C690 C686 1.350 . S
C690 C687 1.463 1_545 S
C690 N694 1.427 1_554 S
C691 H681 0.929 . S
C691 C689 1.433 1_556 S
C691 N694 1.384 . S
C692 H683 0.930 1_554 S
C692 C684 1.377 . S
C692 C687 1.349 . S
C693 H680 0.929 . S
C693 C685 1.433 . S
C693 N695 1.384 . S
N694 C690 1.427 1_556 S
N694 C691 1.384 . S
N695 C687 1.427 . S
N695 C693 1.384 . S
H696 C702 0.930 . S
H697 C706 0.930 . S
H698 C711 0.929 . S
H699 C709 0.929 . S
H700 C704 0.929 . S
H701 C710 0.929 . S
C702 H696 0.930 . S
C702 C703 1.367 . S
C702 C710 1.378 . S
C703 C702 1.367 . S
C703 C711 1.433 1_554 S
C704 H700 0.929 . S
C704 C706 1.378 . S
C704 C708 1.350 1_556 S
C705 C708 1.463 . S
C705 C710 1.350 . S
C705 N713 1.427 1_554 S
C706 H697 0.930 . S
C706 C704 1.378 . S
C706 C707 1.367 1_556 S
C707 C706 1.367 1_554 S
C707 C709 1.433 . S
C708 C704 1.350 1_554 S
C708 C705 1.463 . S
C708 N712 1.427 . S
C709 H699 0.929 . S
C709 C707 1.433 . S
C709 N712 1.384 . S
C710 H701 0.929 . S
C710 C702 1.378 . S
C710 C705 1.350 . S
C711 H698 0.929 . S
C711 C703 1.433 1_556 S
C711 N713 1.384 . S
N712 C708 1.427 . S
N712 C709 1.384 . S
N713 C705 1.427 1_556 S
N713 C711 1.384 . S
H714 C720 0.969 . S
H715 C724 0.930 . S
H716 C729 0.929 . S
H717 C727 0.929 . S
H718 C722 0.929 . S
H719 C728 0.929 1_556 S
C720 H714 0.969 . S
C720 C721 1.367 . S
C720 C728 1.378 . S
C721 C720 1.367 . S
C721 C729 1.433 . S
C722 H718 0.929 . S
C722 C724 1.378 . S
C722 C726 1.350 . S
C723 C726 1.463 . S
C723 C728 1.350 . S
C723 N731 1.427 . S
C724 H715 0.930 . S
C724 C722 1.378 . S
C724 C725 1.367 . S
C725 C724 1.367 . S
C725 C727 1.433 1_554 S
C726 C722 1.350 . S
C726 C723 1.463 . S
C726 N730 1.427 1_554 S
C727 H717 0.929 . S
C727 C725 1.433 1_556 S
C727 N730 1.384 . S
C728 H719 0.929 1_554 S
C728 C720 1.378 . S
C728 C723 1.350 . S
C729 H716 0.929 . S
C729 C721 1.433 . S
C729 N731 1.384 . S
N730 C726 1.427 1_556 S
N730 C727 1.384 . S
N731 C723 1.427 . S
N731 C729 1.384 . S
H732 C738 0.930 . S
H733 C742 0.930 . S
H734 C747 0.929 . S
H735 C745 0.929 . S
H736 C740 0.929 . S
H737 C746 0.929 . S
C738 H732 0.930 . S
C738 C739 1.367 . S
C738 C746 1.378 . S
C739 C738 1.367 . S
C739 C747 1.433 . S
C740 H736 0.929 . S
C740 C742 1.378 . S
C740 C744 1.350 . S
C741 C744 1.463 1_455 S
C741 C746 1.350 . S
C741 N749 1.427 . S
C742 H733 0.930 . S
C742 C740 1.378 . S
C742 C743 1.367 . S
C743 C742 1.367 . S
C743 C745 1.433 . S
C744 C740 1.350 . S
C744 C741 1.463 1_655 S
C744 N748 1.427 . S
C745 H735 0.929 . S
C745 C743 1.433 . S
C745 N748 1.384 . S
C746 H737 0.929 . S
C746 C738 1.378 . S
C746 C741 1.350 . S
C747 H734 0.929 . S
C747 C739 1.433 . S
C747 N749 1.384 . S
N748 C744 1.427 . S
N748 C745 1.384 . S
N749 C741 1.427 . S
N749 C747 1.384 . S
H750 C756 0.930 . S
H751 C760 0.930 . S
H752 C765 0.929 . S
H753 C763 0.929 . S
H754 C758 0.929 . S
H755 C764 0.929 . S
C756 H750 0.930 . S
C756 C757 1.367 . S
C756 C764 1.378 . S
C757 C756 1.367 . S
C757 C765 1.433 . S
C758 H754 0.929 . S
C758 C760 1.378 . S
C758 C762 1.350 . S
C759 C762 1.463 . S
C759 C764 1.350 . S
C759 N767 1.427 . S
C760 H751 0.930 . S
C760 C758 1.378 . S
C760 C761 1.367 . S
C761 C760 1.367 . S
C761 C763 1.433 . S
C762 C758 1.350 . S
C762 C759 1.463 . S
C762 N766 1.427 . S
C763 H753 0.929 . S
C763 C761 1.433 . S
C763 N766 1.384 . S
C764 H755 0.929 . S
C764 C756 1.378 . S
C764 C759 1.350 . S
C765 H752 0.929 . S
C765 C757 1.433 . S
C765 N767 1.384 . S
N766 C762 1.427 . S
N766 C763 1.384 . S
N767 C759 1.427 . S
N767 C765 1.384 . S
H768 C774 0.930 . S
H769 C778 0.930 . S
H770 C783 0.929 . S
H771 C781 0.929 . S
H772 C776 0.929 . S
H773 C782 0.929 . S
C774 H768 0.930 . S
C774 C775 1.367 . S
C774 C782 1.378 . S
C775 C774 1.367 . S
C775 C783 1.433 . S
C776 H772 0.929 . S
C776 C778 1.378 . S
C776 C780 1.350 . S
C777 C780 1.463 . S
C777 C782 1.350 . S
C777 N785 1.427 . S
C778 H769 0.930 . S
C778 C776 1.378 . S
C778 C779 1.367 . S
C779 C778 1.367 . S
C779 C781 1.433 . S
C780 C776 1.350 . S
C780 C777 1.463 . S
C780 N784 1.427 . S
C781 H771 0.929 . S
C781 C779 1.433 . S
C781 N784 1.384 . S
C782 H773 0.929 . S
C782 C774 1.378 . S
C782 C777 1.350 . S
C783 H770 0.929 . S
C783 C775 1.433 . S
C783 N785 1.384 . S
N784 C780 1.427 . S
N784 C781 1.384 . S
N785 C777 1.427 . S
N785 C783 1.384 . S
H786 C792 0.930 1_565 S
H787 C796 0.930 1_545 S
H788 C801 0.929 . S
H789 C799 0.929 . S
H790 C794 0.929 . S
H791 C800 0.929 . S
C792 H786 0.930 1_545 S
C792 C793 1.367 . S
C792 C800 1.378 1_545 S
C793 C792 1.367 . S
C793 C801 1.433 . S
C794 H790 0.929 . S
C794 C796 1.378 1_545 S
C794 C798 1.350 1_545 S
C795 C798 1.463 1_645 S
C795 C800 1.350 1_545 S
C795 N803 1.427 . S
C796 H787 0.930 1_565 S
C796 C794 1.378 1_565 S
C796 C797 1.367 . S
C797 C796 1.367 . S
C797 C799 1.433 . S
C798 C794 1.350 1_565 S
C798 C795 1.463 1_465 S
C798 N802 1.427 . S
C799 H789 0.929 . S
C799 C797 1.433 . S
C799 N802 1.384 . S
C800 H791 0.929 . S
C800 C792 1.378 1_565 S
C800 C795 1.350 1_565 S
C801 H788 0.929 . S
C801 C793 1.433 . S
C801 N803 1.384 . S
N802 C798 1.427 . S
N802 C799 1.384 . S
N803 C795 1.427 . S
N803 C801 1.384 . S
H804 C810 0.930 . S
H805 C814 0.930 . S
H806 C819 0.929 . S
H807 C817 0.929 . S
H808 C812 0.929 . S
H809 C818 0.929 . S
C810 H804 0.930 . S
C810 C811 1.367 . S
C810 C818 1.378 . S
C811 C810 1.367 . S
C811 C819 1.433 . S
C812 H808 0.929 . S
C812 C814 1.378 . S
C812 C816 1.350 . S
C813 C816 1.463 . S
C813 C818 1.350 . S
C813 N821 1.427 . S
C814 H805 0.930 . S
C814 C812 1.378 . S
C814 C815 1.367 . S
C815 C814 1.367 . S
C815 C817 1.433 . S
C816 C812 1.350 . S
C816 C813 1.463 . S
C816 N820 1.427 . S
C817 H807 0.929 . S
C817 C815 1.433 . S
C817 N820 1.384 . S
C818 H809 0.929 . S
C818 C810 1.378 . S
C818 C813 1.350 . S
C819 H806 0.929 . S
C819 C811 1.433 . S
C819 N821 1.384 . S
N820 C816 1.427 . S
N820 C817 1.384 . S
N821 C813 1.427 . S
N821 C819 1.384 . S
H822 C828 0.930 . S
H823 C832 0.930 . S
H824 C837 0.929 . S
H825 C835 0.929 . S
H826 C830 0.929 . S
H827 C836 0.929 . S
C828 H822 0.930 . S
C828 C829 1.367 . S
C828 C836 1.378 . S
C829 C828 1.367 . S
C829 C837 1.433 . S
C830 H826 0.929 . S
C830 C832 1.378 . S
C830 C834 1.350 . S
C831 C834 1.463 1_565 S
C831 C836 1.350 . S
C831 N839 1.427 . S
C832 H823 0.930 . S
C832 C830 1.378 . S
C832 C833 1.367 . S
C833 C832 1.367 . S
C833 C835 1.433 . S
C834 C830 1.350 . S
C834 C831 1.463 1_545 S
C834 N838 1.427 . S
C835 H825 0.929 . S
C835 C833 1.433 . S
C835 N838 1.384 . S
C836 H827 0.929 . S
C836 C828 1.378 . S
C836 C831 1.350 . S
C837 H824 0.929 . S
C837 C829 1.433 . S
C837 N839 1.384 . S
N838 C834 1.427 . S
N838 C835 1.384 . S
N839 C831 1.427 . S
N839 C837 1.384 . S
C271 C28 1.657 . S
C275 C58 1.694 . S
C289 C25 2.038 . S
C293 C94 2.053 . S
C307 C120 1.696 . S
C311 C57 1.661 . S
C325 C87 2.041 . S
C329 C123 2.054 . S
C343 C127 1.664 . S
C347 C157 1.697 . S
C361 C193 2.066 . S
C365 C124 2.053 . S
C379 C156 1.658 . S
C383 C21 1.694 . S
C397 C186 2.039 . S
C401 C24 2.052 . S
C415 C190 1.693 . S
C419 C226 1.656 . S
C433 C223 2.052 . S
C437 C160 2.064 . S
C451 C252 1.696 . S
C455 C189 1.660 . S
C469 C255 2.058 . S
C473 C153 2.046 . S
C487 C259 1.654 . S
C491 C91 1.692 . S
C505 C61 2.066 . S
C509 C256 2.052 . S
C523 C219 1.694 . S
C527 C90 1.658 . S
C541 C222 2.066 . S
C545 C54 2.053 . S
C559 C27 1.129 . S
C563 C23 1.129 1_455 S
C577 C60 1.118 . S
C581 C56 1.118 1_565 S
C595 C93 1.122 1_545 S
C599 C89 1.122 . S
C613 C122 1.114 . S
C617 C126 1.108 . S
C631 C159 1.109 1_545 S
C635 C155 1.109 . S
C649 C192 1.134 . S
C653 C188 1.134 1_565 S
C667 C225 1.134 . S
C671 C221 1.134 . S
C685 C254 1.107 . S
C689 C258 1.107 . S
C703 C257 0.808 . S
C707 C22 0.808 1_554 S
C721 C26 0.817 . S
C725 C253 0.817 1_554 S
C739 C59 0.824 . S
C743 C88 0.824 . S
C757 C224 0.811 . S
C761 C121 0.811 . S
C775 C125 0.810 . S
C779 C220 0.810 . S
C793 C187 0.826 . S
C797 C158 0.826 . S
C811 C191 0.809 . S
C815 C154 0.809 . S
C829 C92 0.826 . S
C833 C55 0.826 . S
