# Generated by pormake.
# Topology fcj, (5)-cn, num edge types: 1
# Building blocks:
#     Node 0, Type 0, BuildingBlock: XOMCOT_clean_sbu_1, # of connection points: 5
#     Node 1, Type 0, BuildingBlock: XOMCOT_clean_sbu_1, # of connection points: 5
#     Node 2, Type 0, BuildingBlock: XOMCOT_clean_sbu_1, # of connection points: 5
#     Node 3, Type 0, BuildingBlock: XOMCOT_clean_sbu_1, # of connection points: 5
#     Node 4, Type 0, BuildingBlock: XOMCOT_clean_sbu_1, # of connection points: 5
#     Node 5, Type 0, BuildingBlock: XOMCOT_clean_sbu_1, # of connection points: 5
#     Node 6, Type 0, BuildingBlock: XOMCOT_clean_sbu_1, # of connection points: 5
#     Node 7, Type 0, BuildingBlock: XOMCOT_clean_sbu_1, # of connection points: 5
#     Node 8, Type 0, BuildingBlock: XOMCOT_clean_sbu_1, # of connection points: 5
#     Node 9, Type 0, BuildingBlock: XOMCOT_clean_sbu_1, # of connection points: 5
#     Node 10, Type 0, BuildingBlock: XOMCOT_clean_sbu_1, # of connection points: 5
#     Node 11, Type 0, BuildingBlock: XOMCOT_clean_sbu_1, # of connection points: 5
#     Node 12, Type 0, BuildingBlock: XOMCOT_clean_sbu_1, # of connection points: 5
#     Node 13, Type 0, BuildingBlock: XOMCOT_clean_sbu_1, # of connection points: 5
#     Node 14, Type 0, BuildingBlock: XOMCOT_clean_sbu_1, # of connection points: 5
#     Node 15, Type 0, BuildingBlock: XOMCOT_clean_sbu_1, # of connection points: 5
#     Node 16, Type 0, BuildingBlock: XOMCOT_clean_sbu_1, # of connection points: 5
#     Node 17, Type 0, BuildingBlock: XOMCOT_clean_sbu_1, # of connection points: 5
#     Node 18, Type 0, BuildingBlock: XOMCOT_clean_sbu_1, # of connection points: 5
#     Node 19, Type 0, BuildingBlock: XOMCOT_clean_sbu_1, # of connection points: 5
#     Node 20, Type 0, BuildingBlock: XOMCOT_clean_sbu_1, # of connection points: 5
#     Node 21, Type 0, BuildingBlock: XOMCOT_clean_sbu_1, # of connection points: 5
#     Node 22, Type 0, BuildingBlock: XOMCOT_clean_sbu_1, # of connection points: 5
#     Node 23, Type 0, BuildingBlock: XOMCOT_clean_sbu_1, # of connection points: 5
#     Edge 24, Type (0, 0), BuildingBlock: OJICUG_clean_linker_0, # of connection points: 2
#     Edge 25, Type (0, 0), BuildingBlock: OJICUG_clean_linker_0, # of connection points: 2
#     Edge 26, Type (0, 0), BuildingBlock: OJICUG_clean_linker_0, # of connection points: 2
#     Edge 27, Type (0, 0), BuildingBlock: OJICUG_clean_linker_0, # of connection points: 2
#     Edge 28, Type (0, 0), BuildingBlock: OJICUG_clean_linker_0, # of connection points: 2
#     Edge 29, Type (0, 0), BuildingBlock: OJICUG_clean_linker_0, # of connection points: 2
#     Edge 30, Type (0, 0), BuildingBlock: OJICUG_clean_linker_0, # of connection points: 2
#     Edge 31, Type (0, 0), BuildingBlock: OJICUG_clean_linker_0, # of connection points: 2
#     Edge 32, Type (0, 0), BuildingBlock: OJICUG_clean_linker_0, # of connection points: 2
#     Edge 33, Type (0, 0), BuildingBlock: OJICUG_clean_linker_0, # of connection points: 2
#     Edge 34, Type (0, 0), BuildingBlock: OJICUG_clean_linker_0, # of connection points: 2
#     Edge 35, Type (0, 0), BuildingBlock: OJICUG_clean_linker_0, # of connection points: 2
#     Edge 36, Type (0, 0), BuildingBlock: OJICUG_clean_linker_0, # of connection points: 2
#     Edge 37, Type (0, 0), BuildingBlock: OJICUG_clean_linker_0, # of connection points: 2
#     Edge 38, Type (0, 0), BuildingBlock: OJICUG_clean_linker_0, # of connection points: 2
#     Edge 39, Type (0, 0), BuildingBlock: OJICUG_clean_linker_0, # of connection points: 2
#     Edge 40, Type (0, 0), BuildingBlock: OJICUG_clean_linker_0, # of connection points: 2
#     Edge 41, Type (0, 0), BuildingBlock: OJICUG_clean_linker_0, # of connection points: 2
#     Edge 42, Type (0, 0), BuildingBlock: OJICUG_clean_linker_0, # of connection points: 2
#     Edge 43, Type (0, 0), BuildingBlock: OJICUG_clean_linker_0, # of connection points: 2
#     Edge 44, Type (0, 0), BuildingBlock: OJICUG_clean_linker_0, # of connection points: 2
#     Edge 45, Type (0, 0), BuildingBlock: OJICUG_clean_linker_0, # of connection points: 2
#     Edge 46, Type (0, 0), BuildingBlock: OJICUG_clean_linker_0, # of connection points: 2
#     Edge 47, Type (0, 0), BuildingBlock: OJICUG_clean_linker_0, # of connection points: 2
#     Edge 48, Type (0, 0), BuildingBlock: OJICUG_clean_linker_0, # of connection points: 2
#     Edge 49, Type (0, 0), BuildingBlock: OJICUG_clean_linker_0, # of connection points: 2
#     Edge 50, Type (0, 0), BuildingBlock: OJICUG_clean_linker_0, # of connection points: 2
#     Edge 51, Type (0, 0), BuildingBlock: OJICUG_clean_linker_0, # of connection points: 2
#     Edge 52, Type (0, 0), BuildingBlock: OJICUG_clean_linker_0, # of connection points: 2
#     Edge 53, Type (0, 0), BuildingBlock: OJICUG_clean_linker_0, # of connection points: 2
#     Edge 54, Type (0, 0), BuildingBlock: OJICUG_clean_linker_0, # of connection points: 2
#     Edge 55, Type (0, 0), BuildingBlock: OJICUG_clean_linker_0, # of connection points: 2
#     Edge 56, Type (0, 0), BuildingBlock: OJICUG_clean_linker_0, # of connection points: 2
#     Edge 57, Type (0, 0), BuildingBlock: OJICUG_clean_linker_0, # of connection points: 2
#     Edge 58, Type (0, 0), BuildingBlock: OJICUG_clean_linker_0, # of connection points: 2
#     Edge 59, Type (0, 0), BuildingBlock: OJICUG_clean_linker_0, # of connection points: 2
#     Edge 60, Type (0, 0), BuildingBlock: OJICUG_clean_linker_0, # of connection points: 2
#     Edge 61, Type (0, 0), BuildingBlock: OJICUG_clean_linker_0, # of connection points: 2
#     Edge 62, Type (0, 0), BuildingBlock: OJICUG_clean_linker_0, # of connection points: 2
#     Edge 63, Type (0, 0), BuildingBlock: OJICUG_clean_linker_0, # of connection points: 2
#     Edge 64, Type (0, 0), BuildingBlock: OJICUG_clean_linker_0, # of connection points: 2
#     Edge 65, Type (0, 0), BuildingBlock: OJICUG_clean_linker_0, # of connection points: 2
#     Edge 66, Type (0, 0), BuildingBlock: OJICUG_clean_linker_0, # of connection points: 2
#     Edge 67, Type (0, 0), BuildingBlock: OJICUG_clean_linker_0, # of connection points: 2
#     Edge 68, Type (0, 0), BuildingBlock: OJICUG_clean_linker_0, # of connection points: 2
#     Edge 69, Type (0, 0), BuildingBlock: OJICUG_clean_linker_0, # of connection points: 2
#     Edge 70, Type (0, 0), BuildingBlock: OJICUG_clean_linker_0, # of connection points: 2
#     Edge 71, Type (0, 0), BuildingBlock: OJICUG_clean_linker_0, # of connection points: 2
#     Edge 72, Type (0, 0), BuildingBlock: OJICUG_clean_linker_0, # of connection points: 2
#     Edge 73, Type (0, 0), BuildingBlock: OJICUG_clean_linker_0, # of connection points: 2
#     Edge 74, Type (0, 0), BuildingBlock: OJICUG_clean_linker_0, # of connection points: 2
#     Edge 75, Type (0, 0), BuildingBlock: OJICUG_clean_linker_0, # of connection points: 2
#     Edge 76, Type (0, 0), BuildingBlock: OJICUG_clean_linker_0, # of connection points: 2
#     Edge 77, Type (0, 0), BuildingBlock: OJICUG_clean_linker_0, # of connection points: 2
#     Edge 78, Type (0, 0), BuildingBlock: OJICUG_clean_linker_0, # of connection points: 2
#     Edge 79, Type (0, 0), BuildingBlock: OJICUG_clean_linker_0, # of connection points: 2
#     Edge 80, Type (0, 0), BuildingBlock: OJICUG_clean_linker_0, # of connection points: 2
#     Edge 81, Type (0, 0), BuildingBlock: OJICUG_clean_linker_0, # of connection points: 2
#     Edge 82, Type (0, 0), BuildingBlock: OJICUG_clean_linker_0, # of connection points: 2
#     Edge 83, Type (0, 0), BuildingBlock: OJICUG_clean_linker_0, # of connection points: 2
# Relax obj value: 0.373
# Max RMSD: 0.198
# Mean RMSD: 0.198
data_MOF--net-fcj--node1-XOMCOT_clean_sbu_1--edge1-OJICUG_clean_linker_0
_symmetry_space_group_name_H-M    P1
_symmetry_Int_Tables_number       1
_symmetry_cell_setting            triclinic
loop_
_symmetry_equiv_pos_as_xyz
'x, y, z'
_cell_length_a     38.471679
_cell_length_b     38.46659
_cell_length_c     38.45937
_cell_angle_alpha  90.024804
_cell_angle_beta   90.017842
_cell_angle_gamma 90.096526
loop_
_atom_site_label
_atom_site_type_symbol
_atom_site_fract_x
_atom_site_fract_y
_atom_site_fract_z
_atom_type_partial_charge
C0 C 0.10234 0.22114 0.44921 0.0
C1 C 0.07511 0.23963 0.46318 0.0
N2 N 0.05908 0.25672 0.43726 0.0
N3 N 0.10389 0.2267 0.41458 0.0
C4 C 0.07719 0.24868 0.4082 0.0
H5 H 0.11881 0.20346 0.46342 0.0
Co6 Co 0.13337 0.20292 0.38356 0.0
C7 C 0.14219 0.27582 0.35114 0.0
O8 O 0.13414 0.29694 0.37672 0.0
N9 N 0.16345 0.17896 0.35178 0.0
C10 C 0.18481 0.15745 0.30216 0.0
C11 C 0.15539 0.16812 0.31917 0.0
C12 C 0.19847 0.17437 0.35348 0.0
N13 N 0.21181 0.16128 0.32387 0.0
O14 O 0.17266 0.21482 0.41217 0.0
H15 H 0.13017 0.16961 0.30705 0.0
H16 H 0.21477 0.18282 0.37467 0.0
O17 O 0.14104 0.24306 0.35541 0.0
C18 C 0.18152 0.19007 0.43234 0.0
O19 O 0.16304 0.16129 0.43174 0.0
N20 N 0.09433 0.18947 0.35725 0.0
C21 C 0.0418 0.15954 0.31724 0.0
C22 C 0.0509 0.19452 0.31267 0.0
C23 C 0.07755 0.20899 0.33272 0.0
C24 C 0.08445 0.15599 0.36332 0.0
C25 C 0.05857 0.1403 0.34322 0.0
H26 H 0.08512 0.2355 0.32763 0.0
H27 H 0.09796 0.14094 0.38285 0.0
H28 H 0.07053 0.25811 0.38263 0.0
H29 H 0.06658 0.23888 0.48998 0.0
H30 H 0.18648 0.14894 0.27537 0.0
H31 H 0.0386 0.2101 0.2927 0.0
H32 H 0.0521 0.11323 0.34757 0.0
C33 C 0.56151 0.34167 0.18767 0.0
C34 C 0.54855 0.31326 0.2052 0.0
N35 N 0.51596 0.30733 0.19395 0.0
N36 N 0.53737 0.35351 0.16519 0.0
C37 C 0.50978 0.33208 0.16986 0.0
H38 H 0.58785 0.35136 0.18927 0.0
Co39 Co 0.54745 0.38573 0.12998 0.0
C40 C 0.46872 0.38316 0.10203 0.0
O41 O 0.44478 0.3678 0.12092 0.0
N42 N 0.55818 0.41767 0.09443 0.0
C43 C 0.56211 0.44268 0.04227 0.0
C44 C 0.55183 0.41341 0.06009 0.0
C45 C 0.57362 0.44921 0.09654 0.0
N46 N 0.57579 0.46503 0.06537 0.0
O47 O 0.53527 0.42363 0.1607 0.0
H48 H 0.53968 0.39071 0.04873 0.0
H49 H 0.58284 0.4609 0.12031 0.0
O50 O 0.50005 0.38428 0.11296 0.0
C51 C 0.56084 0.43472 0.17869 0.0
O52 O 0.59086 0.41876 0.1756 0.0
N53 N 0.56163 0.34908 0.1012 0.0
C54 C 0.5912 0.29675 0.05992 0.0
C55 C 0.55588 0.29541 0.06986 0.0
C56 C 0.54148 0.32211 0.09003 0.0
C57 C 0.59599 0.35038 0.09299 0.0
C58 C 0.61099 0.32524 0.0717 0.0
H59 H 0.51434 0.32075 0.09703 0.0
H60 H 0.61176 0.37168 0.10248 0.0
H61 H 0.48698 0.33207 0.15363 0.0
H62 H 0.56269 0.29691 0.2232 0.0
H63 H 0.55982 0.44719 0.01458 0.0
H64 H 0.53928 0.27391 0.06261 0.0
H65 H 0.63787 0.32882 0.06441 0.0
C66 C 0.42897 0.81492 0.93372 0.0
C67 C 0.45601 0.79902 0.95105 0.0
N68 N 0.45511 0.76482 0.94373 0.0
N69 N 0.41103 0.79093 0.91542 0.0
C70 C 0.42708 0.76062 0.92294 0.0
H71 H 0.42453 0.84263 0.93209 0.0
Co72 Co 0.37868 0.80235 0.88047 0.0
C73 C 0.38469 0.72515 0.84743 0.0
O74 O 0.40637 0.70352 0.86243 0.0
N75 N 0.34658 0.81443 0.84551 0.0
C76 C 0.32101 0.81903 0.79373 0.0
C77 C 0.35071 0.80917 0.81098 0.0
C78 C 0.3146 0.82873 0.84838 0.0
N79 N 0.29847 0.8313 0.81738 0.0
O80 O 0.34088 0.78825 0.91024 0.0
H81 H 0.37348 0.79771 0.79915 0.0
H82 H 0.30269 0.83626 0.87265 0.0
O83 O 0.38136 0.75605 0.85937 0.0
C84 C 0.33225 0.8134 0.93009 0.0
O85 O 0.35106 0.84193 0.92886 0.0
N86 N 0.41517 0.81875 0.8528 0.0
C87 C 0.46749 0.84987 0.81273 0.0
C88 C 0.47035 0.81508 0.82405 0.0
C89 C 0.44366 0.79986 0.84359 0.0
C90 C 0.41262 0.85284 0.84376 0.0
C91 C 0.43772 0.86851 0.82292 0.0
H92 H 0.44622 0.77315 0.85186 0.0
H93 H 0.39036 0.86782 0.85212 0.0
H94 H 0.41989 0.7361 0.91191 0.0
H95 H 0.47669 0.81209 0.96502 0.0
H96 H 0.31614 0.81693 0.76607 0.0
H97 H 0.49298 0.79949 0.81833 0.0
H98 H 0.43306 0.89493 0.81467 0.0
C99 C 0.9477 0.67786 0.68813 0.0
C100 C 0.9651 0.70413 0.70502 0.0
N101 N 0.99905 0.7017 0.69711 0.0
N102 N 0.97037 0.6588 0.6694 0.0
C103 C 1.00166 0.67332 0.67641 0.0
H104 H 0.91978 0.67459 0.68715 0.0
Co105 Co 0.95397 0.62668 0.63614 0.0
C106 C 0.02586 0.63684 0.59589 0.0
O107 O 0.04061 0.66567 0.60668 0.0
N108 N 0.93671 0.59461 0.60322 0.0
C109 C 0.92257 0.57006 0.5527 0.0
C110 C 0.93474 0.59968 0.56846 0.0
C111 C 0.926 0.56136 0.60777 0.0
N112 N 0.91727 0.546 0.57744 0.0
O113 O 0.97107 0.58842 0.66372 0.0
H114 H 0.94294 0.62304 0.55513 0.0
H115 H 0.92506 0.54834 0.63261 0.0
O116 O 0.9965 0.62739 0.60832 0.0
C117 C 0.9533 0.58204 0.69098 0.0
O118 O 0.92741 0.60276 0.69894 0.0
N119 N 0.9355 0.664 0.61032 0.0
C120 C 0.90602 0.71652 0.56936 0.0
C121 C 0.94073 0.71868 0.58081 0.0
C122 C 0.95502 0.69201 0.60074 0.0
C123 C 0.90099 0.66288 0.60245 0.0
C124 C 0.88605 0.68809 0.58107 0.0
H125 H 0.98172 0.69422 0.60884 0.0
H126 H 0.8853 0.64132 0.61142 0.0
H127 H 0.02582 0.66444 0.66561 0.0
H128 H 0.95324 0.72545 0.71904 0.0
H129 H 0.91971 0.56582 0.52501 0.0
H130 H 0.95712 0.74066 0.57462 0.0
H131 H 0.85932 0.68439 0.57329 0.0
C132 C 0.58097 0.31377 0.57796 0.0
C133 C 0.55459 0.29712 0.56035 0.0
N134 N 0.5577 0.26271 0.56576 0.0
N135 N 0.60059 0.29009 0.59474 0.0
C136 C 0.58647 0.25916 0.58569 0.0
H137 H 0.5839 0.34159 0.58085 0.0
Co138 Co 0.63337 0.30291 0.62882 0.0
C139 C 0.62174 0.22809 0.66342 0.0
O140 O 0.5925 0.21439 0.65234 0.0
N141 N 0.66625 0.31623 0.66286 0.0
C142 C 0.6934 0.3199 0.71392 0.0
C143 C 0.66317 0.31039 0.6974 0.0
C144 C 0.69827 0.33047 0.65928 0.0
N145 N 0.71538 0.33246 0.68985 0.0
O146 O 0.67051 0.28744 0.59934 0.0
H147 H 0.64075 0.29868 0.70971 0.0
H148 H 0.70958 0.33813 0.63476 0.0
O149 O 0.63108 0.25819 0.65282 0.0
C150 C 0.67886 0.31227 0.57901 0.0
O151 O 0.6599 0.34066 0.57977 0.0
N152 N 0.59731 0.32054 0.6564 0.0
C153 C 0.54525 0.35187 0.69643 0.0
C154 C 0.54155 0.31756 0.68409 0.0
C155 C 0.56806 0.30225 0.66459 0.0
C156 C 0.60061 0.35438 0.66626 0.0
C157 C 0.57559 0.37013 0.68712 0.0
H158 H 0.56463 0.276 0.65533 0.0
H159 H 0.62331 0.36909 0.65853 0.0
H160 H 0.59598 0.23445 0.59459 0.0
H161 H 0.53282 0.30956 0.5476 0.0
H162 H 0.69903 0.31732 0.74138 0.0
H163 H 0.51835 0.30244 0.68894 0.0
H164 H 0.58068 0.39627 0.69609 0.0
C165 C 0.44789 0.83146 0.324 0.0
C166 C 0.46545 0.8059 0.30633 0.0
N167 N 0.49937 0.80836 0.3144 0.0
N168 N 0.47042 0.85012 0.34338 0.0
C169 C 0.50179 0.836 0.33612 0.0
H170 H 0.41997 0.83467 0.32474 0.0
Co171 Co 0.4534 0.88231 0.37608 0.0
C172 C 0.52511 0.87392 0.41708 0.0
O173 O 0.54013 0.84522 0.40644 0.0
N174 N 0.4354 0.91462 0.40836 0.0
C175 C 0.41978 0.93961 0.45821 0.0
C176 C 0.43232 0.90986 0.44309 0.0
C177 C 0.42511 0.9479 0.40325 0.0
N178 N 0.41543 0.96347 0.43311 0.0
O179 O 0.46991 0.92024 0.34795 0.0
H180 H 0.44002 0.88662 0.45689 0.0
H181 H 0.42535 0.961 0.37844 0.0
O182 O 0.49572 0.88298 0.40444 0.0
C183 C 0.44962 0.92697 0.32258 0.0
O184 O 0.42299 0.90623 0.31722 0.0
N185 N 0.43517 0.84512 0.40218 0.0
C186 C 0.40491 0.79274 0.44286 0.0
C187 C 0.44002 0.79093 0.43261 0.0
C188 C 0.45469 0.81753 0.41273 0.0
C189 C 0.40044 0.84588 0.40895 0.0
C190 C 0.38509 0.8208 0.43019 0.0
H191 H 0.48162 0.81559 0.40538 0.0
H192 H 0.38481 0.86708 0.39915 0.0
H193 H 0.5259 0.84479 0.3472 0.0
H194 H 0.45373 0.78508 0.2914 0.0
H195 H 0.41609 0.94409 0.48577 0.0
H196 H 0.45642 0.76926 0.43961 0.0
H197 H 0.35811 0.82433 0.43706 0.0
C198 C 0.9248 0.70062 0.07271 0.0
C199 C 0.95129 0.71782 0.05583 0.0
N200 N 0.95126 0.7512 0.06631 0.0
N201 N 0.90816 0.72292 0.09399 0.0
C202 C 0.92406 0.75384 0.08846 0.0
H203 H 0.9198 0.67297 0.07175 0.0
Co204 Co 0.8758 0.70798 0.12747 0.0
C205 C 0.89374 0.77632 0.16877 0.0
O206 O 0.92752 0.77907 0.16509 0.0
N207 N 0.84269 0.6934 0.16069 0.0
C208 C 0.81386 0.69054 0.21082 0.0
C209 C 0.8442 0.70067 0.1951 0.0
C210 C 0.81148 0.67765 0.15647 0.0
N211 N 0.79338 0.67619 0.18644 0.0
O212 O 0.83834 0.72514 0.09859 0.0
H213 H 0.86578 0.71338 0.20792 0.0
H214 H 0.80146 0.66849 0.13191 0.0
O215 O 0.8772 0.75145 0.1541 0.0
C216 C 0.82877 0.70144 0.07738 0.0
O217 O 0.84636 0.67218 0.07701 0.0
N218 N 0.91248 0.68797 0.15462 0.0
C219 C 0.96334 0.65489 0.19562 0.0
C220 C 0.97042 0.68633 0.17832 0.0
C221 C 0.94473 0.70242 0.15831 0.0
C222 C 0.90631 0.65583 0.16843 0.0
C223 C 0.93056 0.63964 0.18999 0.0
H224 H 0.9516 0.72593 0.14498 0.0
H225 H 0.88206 0.64255 0.16337 0.0
H226 H 0.91753 0.77748 0.10201 0.0
H227 H 0.97119 0.70589 0.03992 0.0
H228 H 0.80716 0.69371 0.23798 0.0
H229 H 0.9957 0.69855 0.17961 0.0
H230 H 0.92302 0.61552 0.20226 0.0
C231 C 0.0477 0.16431 0.81189 0.0
C232 C 0.0305 0.19228 0.79774 0.0
N233 N 0.00792 0.20447 0.82153 0.0
N234 N 0.03592 0.15854 0.84439 0.0
C235 C 0.01167 0.1834 0.84946 0.0
H236 H 0.06886 0.15036 0.79984 0.0
Co237 Co 0.05641 0.12785 0.87595 0.0
C238 C 0.98237 0.12229 0.90899 0.0
O239 O 0.95994 0.13081 0.88471 0.0
N240 N 0.07753 0.09652 0.90842 0.0
C241 C 0.102 0.0748 0.95639 0.0
C242 C 0.09153 0.10448 0.93981 0.0
C243 C 0.07911 0.06122 0.90742 0.0
N244 N 0.09431 0.04758 0.93595 0.0
O245 O 0.04317 0.08946 0.84676 0.0
H246 H 0.09302 0.13 0.9513 0.0
H247 H 0.06865 0.04538 0.88676 0.0
O248 O 0.01483 0.12247 0.90269 0.0
C249 C 0.0682 0.07965 0.82745 0.0
O250 O 0.09795 0.09636 0.82979 0.0
N251 N 0.07109 0.1661 0.9025 0.0
C252 C 0.1019 0.2181 0.94241 0.0
C253 C 0.06627 0.21113 0.94543 0.0
C254 C 0.05132 0.18472 0.92542 0.0
C255 C 0.10528 0.17407 0.8977 0.0
C256 C 0.12144 0.19953 0.91795 0.0
H257 H 0.02413 0.17901 0.92908 0.0
H258 H 0.12044 0.15927 0.87921 0.0
H259 H 0.99805 0.18691 0.87371 0.0
H260 H 0.03582 0.20395 0.7727 0.0
H261 H 0.11297 0.07326 0.98228 0.0
H262 H 0.05041 0.22502 0.96408 0.0
H263 H 0.149 0.2044 0.9148 0.0
C264 C 0.45043 0.10262 0.21866 0.0
C265 C 0.46604 0.07548 0.23591 0.0
N266 N 0.44169 0.05949 0.25507 0.0
N267 N 0.41631 0.10406 0.22703 0.0
C268 C 0.41189 0.07701 0.24919 0.0
H269 H 0.46314 0.11883 0.19967 0.0
Co270 Co 0.38325 0.13369 0.20592 0.0
C271 C 0.35222 0.13767 0.28053 0.0
O272 O 0.37754 0.12786 0.30119 0.0
N273 N 0.34975 0.16334 0.18481 0.0
C274 C 0.29782 0.18509 0.17107 0.0
C275 C 0.31549 0.15598 0.18128 0.0
C276 C 0.35195 0.19746 0.17601 0.0
N277 N 0.32071 0.21133 0.1681 0.0
O278 O 0.41085 0.17384 0.21891 0.0
H279 H 0.30315 0.13172 0.18803 0.0
H280 H 0.37538 0.2127 0.17738 0.0
O281 O 0.35661 0.13857 0.24774 0.0
C282 C 0.43357 0.18394 0.19695 0.0
O283 O 0.4363 0.16742 0.16718 0.0
N284 N 0.35741 0.09437 0.19173 0.0
C285 C 0.31623 0.0423 0.16211 0.0
C286 C 0.31489 0.04894 0.19793 0.0
C287 C 0.3355 0.07524 0.21224 0.0
C288 C 0.36025 0.08719 0.15716 0.0
C289 C 0.33965 0.0615 0.14173 0.0
H290 H 0.33261 0.08084 0.23954 0.0
H291 H 0.37765 0.10254 0.14125 0.0
H292 H 0.3872 0.06925 0.26001 0.0
H293 H 0.49257 0.06668 0.23276 0.0
H294 H 0.26997 0.18712 0.16763 0.0
H295 H 0.29695 0.03498 0.21456 0.0
H296 H 0.34175 0.05698 0.11401 0.0
C297 C 0.67557 0.68832 0.94592 0.0
C298 C 0.70306 0.70533 0.96163 0.0
N299 N 0.70407 0.69582 0.99529 0.0
N300 N 0.65928 0.66811 0.96951 0.0
C301 C 0.67682 0.67401 0.9994 0.0
H302 H 0.66965 0.68841 0.91843 0.0
Co303 Co 0.62683 0.63307 0.95825 0.0
C304 C 0.63351 0.59887 0.03478 0.0
O305 O 0.65363 0.61395 0.05789 0.0
N306 N 0.59463 0.59786 0.94645 0.0
C307 C 0.56993 0.54565 0.94121 0.0
C308 C 0.59941 0.56334 0.95107 0.0
C309 C 0.5624 0.60029 0.93253 0.0
N310 N 0.54679 0.56901 0.92957 0.0
O311 O 0.58927 0.6625 0.97365 0.0
H312 H 0.62259 0.55175 0.96195 0.0
H313 H 0.55001 0.62437 0.92535 0.0
O314 O 0.6306 0.61206 1.00437 0.0
C315 C 0.57876 0.68185 0.94887 0.0
O316 O 0.59526 0.68021 0.919 0.0
N317 N 0.66311 0.60573 0.94076 0.0
C318 C 0.7142 0.56495 0.90852 0.0
C319 C 0.71789 0.57618 0.94331 0.0
C320 C 0.6918 0.59601 0.9591 0.0
C321 C 0.6599 0.59706 0.9066 0.0
C322 C 0.68436 0.57589 0.89038 0.0
H323 H 0.6949 0.60389 0.98589 0.0
H324 H 0.63746 0.60577 0.89207 0.0
H325 H 0.67146 0.66097 0.02337 0.0
H326 H 0.72265 0.72078 0.94859 0.0
H327 H 0.56569 0.51786 0.94271 0.0
H328 H 0.74066 0.57007 0.95856 0.0
H329 H 0.67908 0.56791 0.86398 0.0
C330 C 0.07196 0.92159 0.69916 0.0
C331 C 0.0563 0.95021 0.71419 0.0
N332 N 0.06945 0.95423 0.74639 0.0
N333 N 0.09476 0.90759 0.72183 0.0
C334 C 0.092 0.92773 0.75043 0.0
H335 H 0.06913 0.91341 0.67241 0.0
Co336 Co 0.12952 0.87524 0.71065 0.0
C337 C 0.16015 0.87762 0.78873 0.0
O338 O 0.14113 0.89126 0.81356 0.0
N339 N 0.16455 0.84324 0.69904 0.0
C340 C 0.21641 0.81783 0.69486 0.0
C341 C 0.19899 0.84737 0.70487 0.0
C342 C 0.16194 0.81149 0.6842 0.0
N343 N 0.19293 0.79545 0.6819 0.0
O344 O 0.09917 0.83755 0.72384 0.0
H345 H 0.21067 0.8701 0.71665 0.0
H346 H 0.13793 0.79973 0.67574 0.0
O347 O 0.14846 0.87646 0.75763 0.0
C348 C 0.08037 0.82659 0.69882 0.0
O349 O 0.08231 0.84282 0.66881 0.0
N350 N 0.15802 0.91176 0.69551 0.0
C351 C 0.19963 0.9635 0.66512 0.0
C352 C 0.18927 0.96558 0.7003 0.0
C353 C 0.16912 0.93911 0.71516 0.0
C354 C 0.16626 0.90992 0.66117 0.0
C355 C 0.18781 0.93465 0.64583 0.0
H356 H 0.1622 0.94088 0.74229 0.0
H357 H 0.15678 0.88837 0.64574 0.0
H358 H 0.10843 0.92526 0.77278 0.0
H359 H 0.03921 0.96845 0.70129 0.0
H360 H 0.24406 0.81307 0.69704 0.0
H361 H 0.19626 0.98737 0.7166 0.0
H362 H 0.19527 0.93034 0.61913 0.0
C363 C 0.83954 0.31753 0.45503 0.0
C364 C 0.81271 0.30152 0.47257 0.0
N365 N 0.80669 0.31941 0.50202 0.0
N366 N 0.85063 0.34529 0.47341 0.0
C367 C 0.83039 0.34539 0.50217 0.0
H368 H 0.84863 0.31069 0.42936 0.0
Co369 Co 0.88191 0.37913 0.45738 0.0
C370 C 0.90599 0.40938 0.52377 0.0
O371 O 0.93599 0.39342 0.5209 0.0
N372 N 0.91324 0.41352 0.44165 0.0
C373 C 0.93897 0.46523 0.43717 0.0
C374 C 0.90932 0.44805 0.44706 0.0
C375 C 0.94536 0.4106 0.42759 0.0
N376 N 0.9616 0.44158 0.42506 0.0
O377 O 0.92032 0.34964 0.46989 0.0
H378 H 0.88684 0.45994 0.45894 0.0
H379 H 0.95769 0.38629 0.42108 0.0
O380 O 0.88183 0.40291 0.50196 0.0
C381 C 0.92879 0.32994 0.44458 0.0
O382 O 0.91016 0.33165 0.41598 0.0
N383 N 0.84445 0.40632 0.44221 0.0
C384 C 0.79232 0.44806 0.41331 0.0
C385 C 0.79258 0.44015 0.44906 0.0
C386 C 0.81915 0.4198 0.46307 0.0
C387 C 0.84382 0.41209 0.40732 0.0
C388 C 0.81866 0.4335 0.39249 0.0
H389 H 0.81926 0.41516 0.4907 0.0
H390 H 0.86384 0.40093 0.39104 0.0
H391 H 0.83149 0.36529 0.522 0.0
H392 H 0.79695 0.28024 0.46298 0.0
H393 H 0.94395 0.49284 0.43966 0.0
H394 H 0.77257 0.44947 0.46644 0.0
H395 H 0.82068 0.43902 0.36501 0.0
C396 C 0.93715 0.42192 0.8147 0.0
C397 C 0.95548 0.44996 0.8022 0.0
N398 N 0.94482 0.45635 0.76953 0.0
N399 N 0.91481 0.41056 0.79015 0.0
C400 C 0.92026 0.43211 0.76278 0.0
H401 H 0.93828 0.41216 0.841 0.0
Co402 Co 0.87992 0.37757 0.79943 0.0
C403 C 0.85319 0.38014 0.72015 0.0
O404 O 0.87247 0.39572 0.69667 0.0
N405 N 0.84483 0.34465 0.80935 0.0
C406 C 0.79321 0.31839 0.81246 0.0
C407 C 0.81049 0.34819 0.80275 0.0
C408 C 0.84746 0.31289 0.82427 0.0
N409 N 0.81663 0.29632 0.82596 0.0
O410 O 0.91154 0.34063 0.78807 0.0
H411 H 0.79876 0.37082 0.7909 0.0
H412 H 0.87137 0.3016 0.83353 0.0
O413 O 0.86355 0.37899 0.75169 0.0
C414 C 0.92877 0.33126 0.8148 0.0
O415 O 0.9234 0.34802 0.84408 0.0
N416 N 0.85035 0.41344 0.81328 0.0
C417 C 0.80909 0.46542 0.84322 0.0
C418 C 0.8193 0.46719 0.80799 0.0
C419 C 0.83949 0.44065 0.79338 0.0
C420 C 0.84173 0.41164 0.84752 0.0
C421 C 0.82042 0.43659 0.86267 0.0
H422 H 0.84693 0.4424 0.76637 0.0
H423 H 0.85109 0.3902 0.8631 0.0
H424 H 0.90443 0.43242 0.73967 0.0
H425 H 0.97363 0.46584 0.81676 0.0
H426 H 0.76561 0.31341 0.81005 0.0
H427 H 0.81235 0.48896 0.79168 0.0
H428 H 0.81284 0.43269 0.88944 0.0
C429 C 0.34246 0.19071 0.55659 0.0
C430 C 0.31482 0.20602 0.53964 0.0
N431 N 0.30915 0.18852 0.50985 0.0
N432 N 0.35419 0.16376 0.5375 0.0
C433 C 0.3338 0.16362 0.50888 0.0
H434 H 0.35172 0.19724 0.58232 0.0
Co435 Co 0.38589 0.13008 0.55235 0.0
C436 C 0.40525 0.10095 0.4838 0.0
O437 O 0.43443 0.11871 0.48327 0.0
N438 N 0.41762 0.0957 0.56675 0.0
C439 C 0.44381 0.04419 0.56988 0.0
C440 C 0.41425 0.06136 0.55984 0.0
C441 C 0.44917 0.09847 0.58204 0.0
N442 N 0.46568 0.06764 0.58378 0.0
O443 O 0.42391 0.15932 0.53742 0.0
H444 H 0.39203 0.0496 0.54726 0.0
H445 H 0.46075 0.1226 0.59043 0.0
O446 O 0.38339 0.10599 0.50819 0.0
C447 C 0.43468 0.17884 0.56198 0.0
O448 O 0.41828 0.17766 0.59193 0.0
N449 N 0.34898 0.103 0.56968 0.0
C450 C 0.29735 0.06183 0.60101 0.0
C451 C 0.29563 0.07083 0.5655 0.0
C452 C 0.32198 0.09066 0.55025 0.0
C453 C 0.35044 0.09622 0.60437 0.0
C454 C 0.32563 0.07502 0.6203 0.0
H455 H 0.32048 0.09595 0.52278 0.0
H456 H 0.37176 0.10644 0.61964 0.0
H457 H 0.33526 0.14414 0.48866 0.0
H458 H 0.29833 0.22639 0.54985 0.0
H459 H 0.44914 0.01674 0.56668 0.0
H460 H 0.27426 0.06289 0.5491 0.0
H461 H 0.32947 0.06876 0.64739 0.0
C462 C 0.57374 0.58525 0.31095 0.0
C463 C 0.55631 0.55863 0.2944 0.0
N464 N 0.5642 0.55976 0.26033 0.0
N465 N 0.59284 0.60304 0.28755 0.0
C466 C 0.58532 0.58771 0.25676 0.0
H467 H 0.57486 0.58948 0.33873 0.0
Co468 Co 0.62759 0.63517 0.30058 0.0
C469 C 0.66431 0.6181 0.22856 0.0
O470 O 0.657 0.58576 0.22052 0.0
N471 N 0.66227 0.66771 0.31348 0.0
C472 C 0.71343 0.69491 0.31524 0.0
C473 C 0.69648 0.66489 0.30588 0.0
C474 C 0.65942 0.69937 0.32862 0.0
N475 N 0.69002 0.71657 0.32942 0.0
O476 O 0.59935 0.67285 0.28354 0.0
H477 H 0.70832 0.64263 0.29346 0.0
H478 H 0.63541 0.71029 0.33803 0.0
O479 O 0.65249 0.6314 0.25661 0.0
C480 C 0.57975 0.68359 0.30805 0.0
O481 O 0.57999 0.6664 0.33759 0.0
N482 N 0.65423 0.59863 0.31993 0.0
C483 C 0.69466 0.54699 0.35193 0.0
C484 C 0.67881 0.54128 0.31941 0.0
C485 C 0.65929 0.56751 0.30371 0.0
C486 C 0.667 0.60376 0.35261 0.0
C487 C 0.6882 0.57901 0.36846 0.0
H488 H 0.64757 0.56225 0.2789 0.0
H489 H 0.6615 0.62767 0.36632 0.0
H490 H 0.59652 0.59546 0.23231 0.0
H491 H 0.54191 0.53796 0.30699 0.0
H492 H 0.74081 0.70046 0.3118 0.0
H493 H 0.68099 0.51674 0.30591 0.0
H494 H 0.69963 0.58563 0.39325 0.0
C495 C 0.16692 0.8127 0.05041 0.0
C496 C 0.19407 0.79769 0.03245 0.0
N497 N 0.20374 0.81951 0.00686 0.0
N498 N 0.15928 0.84377 0.03611 0.0
C499 C 0.18187 0.8469 0.00933 0.0
H500 H 0.15489 0.80239 0.0736 0.0
Co501 Co 0.12855 0.87675 0.05469 0.0
C502 C 0.10195 0.91029 0.99128 0.0
O503 O 0.0718 0.89476 0.99525 0.0
N504 N 0.09769 0.91061 0.07302 0.0
C505 C 0.07425 0.9629 0.08129 0.0
C506 C 0.10345 0.94528 0.07118 0.0
C507 C 0.06455 0.90808 0.08487 0.0
N508 N 0.04969 0.93947 0.08964 0.0
O509 O 0.08968 0.84792 0.04122 0.0
H510 H 0.12676 0.95729 0.06112 0.0
H511 H 0.05047 0.88406 0.0879 0.0
O512 O 0.12726 0.90252 0.01129 0.0
C513 C 0.07903 0.82818 0.06562 0.0
O514 O 0.09587 0.82874 0.09536 0.0
N515 N 0.1668 0.90321 0.07044 0.0
C516 C 0.21827 0.94518 0.10025 0.0
C517 C 0.21506 0.94234 0.064 0.0
C518 C 0.18923 0.92125 0.04961 0.0
C519 C 0.17049 0.90426 0.10566 0.0
C520 C 0.19588 0.92526 0.12116 0.0
H521 H 0.18708 0.92019 0.02174 0.0
H522 H 0.15276 0.88961 0.12186 0.0
H523 H 0.18327 0.8694 0.99259 0.0
H524 H 0.20724 0.7738 0.03925 0.0
H525 H 0.07089 0.99084 0.0812 0.0
H526 H 0.23224 0.95647 0.04674 0.0
H527 H 0.19714 0.92666 0.14924 0.0
C528 C 0.21639 0.44811 0.09912 0.0
C529 C 0.23363 0.46286 0.07144 0.0
N530 N 0.25412 0.43846 0.0571 0.0
N531 N 0.22617 0.4146 0.10254 0.0
C532 C 0.24935 0.40964 0.07662 0.0
H533 H 0.19657 0.46068 0.11446 0.0
Co534 Co 0.20541 0.3821 0.1323 0.0
C535 C 0.28038 0.35196 0.13933 0.0
O536 O 0.30181 0.37658 0.12926 0.0
N537 N 0.1843 0.34877 0.16271 0.0
C538 C 0.16455 0.29834 0.18376 0.0
C539 C 0.17404 0.31605 0.15437 0.0
C540 C 0.18074 0.3498 0.19789 0.0
N541 N 0.16879 0.31958 0.21111 0.0
O542 O 0.21624 0.41139 0.1712 0.0
H543 H 0.17476 0.30448 0.12886 0.0
H544 H 0.18872 0.37124 0.21414 0.0
O545 O 0.24769 0.35693 0.13899 0.0
C546 C 0.19053 0.43019 0.18016 0.0
O547 O 0.16144 0.42729 0.16243 0.0
N548 N 0.19304 0.35513 0.09341 0.0
C549 C 0.16532 0.31411 0.04008 0.0
C550 C 0.20067 0.31192 0.04906 0.0
C551 C 0.21394 0.33228 0.07605 0.0
C552 C 0.15921 0.35918 0.08383 0.0
C553 C 0.14466 0.33859 0.05766 0.0
H554 H 0.24085 0.32901 0.08309 0.0
H555 H 0.14303 0.37741 0.09783 0.0
H556 H 0.26169 0.38504 0.0713 0.0
H557 H 0.22967 0.48881 0.06133 0.0
H558 H 0.15609 0.27151 0.18501 0.0
H559 H 0.21806 0.29431 0.03572 0.0
H560 H 0.11718 0.34113 0.05227 0.0
C561 C 0.69678 0.0768 0.92967 0.0
C562 C 0.71392 0.05992 0.95618 0.0
N563 N 0.74804 0.06719 0.95356 0.0
N564 N 0.71989 0.09488 0.91047 0.0
C565 C 0.751 0.08746 0.92499 0.0
H566 H 0.6689 0.0782 0.92632 0.0
Co567 Co 0.70643 0.12828 0.87751 0.0
C568 C 0.78029 0.16589 0.88788 0.0
O569 O 0.79619 0.1555 0.91623 0.0
N570 N 0.69261 0.16168 0.8445 0.0
C571 C 0.68742 0.21274 0.81775 0.0
C572 C 0.69685 0.19642 0.84804 0.0
C573 C 0.67946 0.15769 0.81208 0.0
N574 N 0.67662 0.18831 0.79522 0.0
O575 O 0.72336 0.09891 0.84052 0.0
H576 H 0.70741 0.20906 0.87085 0.0
H577 H 0.67309 0.13294 0.80043 0.0
O578 O 0.75041 0.15347 0.88024 0.0
C579 C 0.69958 0.07726 0.83229 0.0
O580 O 0.67084 0.07726 0.85077 0.0
N581 N 0.68757 0.15561 0.91345 0.0
C582 C 0.65534 0.19665 0.9645 0.0
C583 C 0.68988 0.18499 0.96847 0.0
C584 C 0.70563 0.16504 0.94247 0.0
C585 C 0.65349 0.1645 0.91003 0.0
C586 C 0.63728 0.18579 0.9345 0.0
H587 H 0.73218 0.15672 0.94597 0.0
H588 H 0.639 0.1559 0.8875 0.0
H589 H 0.77532 0.0978 0.91595 0.0
H590 H 0.70184 0.04631 0.97765 0.0
H591 H 0.6887 0.24036 0.81251 0.0
H592 H 0.705 0.19083 0.99142 0.0
H593 H 0.61098 0.19395 0.92912 0.0
C594 C 0.69514 0.95262 0.66979 0.0
C595 C 0.71102 0.96767 0.69838 0.0
N596 N 0.69459 0.99772 0.70548 0.0
N597 N 0.66896 0.97318 0.65879 0.0
C598 C 0.66976 1.00052 0.68086 0.0
H599 H 0.70073 0.92714 0.65936 0.0
Co600 Co 0.63387 0.96115 0.62667 0.0
C601 C 0.60416 0.03907 0.62909 0.0
O602 O 0.62397 0.06339 0.64265 0.0
N603 N 0.59817 0.94906 0.59484 0.0
C604 C 0.54524 0.94428 0.57165 0.0
C605 C 0.56385 0.95404 0.60054 0.0
C606 C 0.59953 0.93539 0.56237 0.0
N607 N 0.56776 0.93266 0.54762 0.0
O608 O 0.66369 0.97421 0.58874 0.0
H609 H 0.55292 0.9651 0.62395 0.0
H610 H 0.62317 0.92813 0.54922 0.0
O611 O 0.61492 0.00774 0.62762 0.0
C612 C 0.68138 0.94867 0.57735 0.0
O613 O 0.67822 0.91849 0.59306 0.0
N614 N 0.60594 0.94597 0.66357 0.0
C615 C 0.56532 0.91492 0.71565 0.0
C616 C 0.57394 0.95062 0.71685 0.0
C617 C 0.59349 0.96576 0.69017 0.0
C618 C 0.59934 0.91124 0.66252 0.0
C619 C 0.57834 0.89548 0.68747 0.0
H620 H 0.59865 0.9933 0.69115 0.0
H621 H 0.60965 0.89581 0.64139 0.0
H622 H 0.65087 0.02099 0.68084 0.0
H623 H 0.73108 0.95606 0.71432 0.0
H624 H 0.51731 0.94566 0.56856 0.0
H625 H 0.56594 0.96718 0.73806 0.0
H626 H 0.57219 0.86833 0.68383 0.0
C627 C 0.81466 0.93387 0.42991 0.0
C628 C 0.79818 0.95145 0.45633 0.0
N629 N 0.7638 0.94572 0.45351 0.0
N630 N 0.79089 0.91685 0.41051 0.0
C631 C 0.76006 0.92568 0.42483 0.0
H632 H 0.84247 0.93114 0.42682 0.0
Co633 Co 0.80401 0.88285 0.37793 0.0
C634 C 0.72861 0.84819 0.38705 0.0
O635 O 0.71332 0.85959 0.41533 0.0
N636 N 0.8179 0.8492 0.34527 0.0
C637 C 0.82227 0.79851 0.31773 0.0
C638 C 0.81178 0.81467 0.34776 0.0
C639 C 0.83328 0.85319 0.31384 0.0
N640 N 0.83571 0.8228 0.29652 0.0
O641 O 0.78929 0.91245 0.34052 0.0
H642 H 0.79935 0.80213 0.36966 0.0
H643 H 0.84152 0.87786 0.30321 0.0
O644 O 0.75908 0.85897 0.3792 0.0
C645 C 0.81295 0.93452 0.3332 0.0
O646 O 0.84082 0.9353 0.35297 0.0
N647 N 0.82048 0.85489 0.41443 0.0
C648 C 0.84865 0.81358 0.46737 0.0
C649 C 0.81465 0.82686 0.46983 0.0
C650 C 0.80093 0.84695 0.44292 0.0
C651 C 0.8541 0.8441 0.41232 0.0
C652 C 0.8683 0.82263 0.43781 0.0
H653 H 0.7748 0.85672 0.4454 0.0
H654 H 0.86981 0.8515 0.3902 0.0
H655 H 0.73535 0.91644 0.41566 0.0
H656 H 0.81077 0.96433 0.47799 0.0
H657 H 0.8199 0.77111 0.3117 0.0
H658 H 0.79853 0.82226 0.49239 0.0
H659 H 0.89434 0.81298 0.4337 0.0
C660 C 0.81153 0.04 0.15693 0.0
C661 C 0.79601 0.02346 0.18471 0.0
N662 N 0.82075 0.00603 0.20213 0.0
N663 N 0.8459 0.03277 0.15652 0.0
C664 C 0.85046 0.01178 0.18438 0.0
H665 H 0.7986 0.05742 0.13914 0.0
Co666 Co 0.87958 0.05262 0.12685 0.0
C667 C 0.91013 0.97732 0.12475 0.0
O668 O 0.88736 0.95665 0.13961 0.0
N669 N 0.91407 0.07233 0.09698 0.0
C670 C 0.96665 0.08486 0.07582 0.0
C671 C 0.94845 0.07402 0.10441 0.0
C672 C 0.91244 0.08248 0.06317 0.0
N673 N 0.94401 0.08996 0.04974 0.0
O674 O 0.85136 0.04061 0.08704 0.0
H675 H 0.96041 0.06588 0.1284 0.0
H676 H 0.8892 0.08238 0.04762 0.0
O677 O 0.90434 0.00978 0.12228 0.0
C678 C 0.83227 0.06545 0.07628 0.0
O679 O 0.83367 0.09533 0.09283 0.0
N680 N 0.90588 0.06635 0.16601 0.0
C681 C 0.9466 0.09558 0.21892 0.0
C682 C 0.94744 0.05968 0.21212 0.0
C683 C 0.9274 0.04569 0.18529 0.0
C684 C 0.90341 0.10093 0.17314 0.0
C685 C 0.92381 0.11617 0.19912 0.0
H686 H 0.93009 0.01838 0.1797 0.0
H687 H 0.88648 0.11702 0.15752 0.0
H688 H 0.87518 1.00124 0.19221 0.0
H689 H 0.7691 0.02567 0.19259 0.0
H690 H 0.99461 0.08751 0.07408 0.0
H691 H 0.96381 0.04236 0.22704 0.0
H692 H 0.92242 0.14403 0.20271 0.0
C693 C 0.31263 0.57417 0.58398 0.0
C694 C 0.29703 0.55739 0.55632 0.0
N695 N 0.26305 0.56564 0.55626 0.0
N696 N 0.28861 0.59296 0.60124 0.0
C697 C 0.25862 0.58633 0.58424 0.0
H698 H 0.34024 0.5752 0.5892 0.0
Co699 Co 0.29909 0.62804 0.63363 0.0
C700 C 0.22152 0.65963 0.62886 0.0
O701 O 0.19767 0.64319 0.61075 0.0
N702 N 0.31026 0.66323 0.66594 0.0
C703 C 0.31518 0.71516 0.69124 0.0
C704 C 0.30517 0.69774 0.66164 0.0
C705 C 0.3246 0.66054 0.69797 0.0
N706 N 0.32734 0.69163 0.71398 0.0
O707 O 0.28521 0.59792 0.67093 0.0
H708 H 0.29406 0.70951 0.63865 0.0
H709 H 0.3325 0.63639 0.70981 0.0
O710 O 0.25226 0.64716 0.63078 0.0
C711 C 0.31042 0.57856 0.68008 0.0
O712 O 0.33972 0.5809 0.66265 0.0
N713 N 0.31478 0.65623 0.59722 0.0
C714 C 0.34425 0.69673 0.54429 0.0
C715 C 0.30974 0.68447 0.5419 0.0
C716 C 0.29533 0.66485 0.56889 0.0
C717 C 0.34867 0.66619 0.59939 0.0
C718 C 0.36352 0.68727 0.57396 0.0
H719 H 0.26876 0.65605 0.56666 0.0
H720 H 0.36409 0.65837 0.62157 0.0
H721 H 0.23437 0.59854 0.59021 0.0
H722 H 0.31027 0.5433 0.53588 0.0
H723 H 0.31374 0.74291 0.69572 0.0
H724 H 0.29373 0.68948 0.51938 0.0
H725 H 0.3898 0.69622 0.57823 0.0
C726 C 0.19284 0.554 0.34332 0.0
C727 C 0.20777 0.5384 0.31461 0.0
N728 N 0.18837 0.51054 0.30607 0.0
N729 N 0.16434 0.53586 0.35292 0.0
C730 C 0.16273 0.50941 0.32991 0.0
H731 H 0.20091 0.57833 0.35484 0.0
Co732 Co 0.13026 0.54995 0.38474 0.0
C733 C 0.10166 0.47204 0.38591 0.0
O734 O 0.12354 0.44871 0.37405 0.0
N735 N 0.09546 0.56409 0.41638 0.0
C736 C 0.04305 0.56932 0.44051 0.0
C737 C 0.06096 0.5593 0.41136 0.0
C738 C 0.09763 0.57787 0.44873 0.0
N739 N 0.06619 0.58084 0.464 0.0
O740 O 0.16055 0.53799 0.42268 0.0
H741 H 0.04944 0.54775 0.38846 0.0
H742 H 0.12161 0.58461 0.4616 0.0
O743 O 0.1101 0.50408 0.38668 0.0
C744 C 0.17921 0.56339 0.43292 0.0
O745 O 0.17611 0.59334 0.41679 0.0
N746 N 0.10184 0.56375 0.34755 0.0
C747 C 0.06025 0.59253 0.29505 0.0
C748 C 0.06611 0.5564 0.29692 0.0
C749 C 0.08623 0.5425 0.32379 0.0
C750 C 0.09765 0.5988 0.34563 0.0
C751 C 0.07639 0.61363 0.3203 0.0
H752 H 0.08897 0.51468 0.32536 0.0
H753 H 0.11015 0.61531 0.36471 0.0
H754 H 0.14191 0.49079 0.32893 0.0
H755 H 0.22946 0.5483 0.29966 0.0
H756 H 0.0152 0.56781 0.44432 0.0
H757 H 0.0554 0.53862 0.27797 0.0
H758 H 0.07236 0.6414 0.32131 0.0
C759 C 0.32233 0.44829 0.83491 0.0
C760 C 0.30569 0.46384 0.80721 0.0
N761 N 0.31745 0.49668 0.8045 0.0
N762 N 0.34433 0.47126 0.84979 0.0
C763 C 0.34031 0.50054 0.83085 0.0
H764 H 0.32057 0.42113 0.84189 0.0
Co765 Co 0.37864 0.45982 0.88269 0.0
C766 C 0.4091 0.5381 0.88178 0.0
O767 O 0.38989 0.56284 0.86829 0.0
N768 N 0.41306 0.44782 0.91544 0.0
C769 C 0.46436 0.44324 0.94197 0.0
C770 C 0.44768 0.45284 0.91185 0.0
C771 C 0.40956 0.434 0.9476 0.0
N772 N 0.44024 0.43145 0.96431 0.0
O773 O 0.34769 0.47201 0.91966 0.0
H774 H 0.45999 0.46403 0.88917 0.0
H775 H 0.38509 0.42677 0.95925 0.0
O776 O 0.39773 0.50684 0.88249 0.0
C777 C 0.32822 0.44639 0.92758 0.0
O778 O 0.33091 0.4178 0.90907 0.0
N779 N 0.40754 0.44536 0.84665 0.0
C780 C 0.44812 0.41547 0.79424 0.0
C781 C 0.43796 0.45067 0.79257 0.0
C782 C 0.41822 0.46529 0.81938 0.0
C783 C 0.41568 0.41101 0.84812 0.0
C784 C 0.43678 0.39588 0.823 0.0
H785 H 0.41103 0.49236 0.81785 0.0
H786 H 0.4063 0.39536 0.86954 0.0
H787 H 0.35582 0.52345 0.83424 0.0
H788 H 0.2888 0.45103 0.78866 0.0
H789 H 0.49194 0.44517 0.94726 0.0
H790 H 0.44471 0.46704 0.77076 0.0
H791 H 0.44425 0.36909 0.82678 0.0
C792 C 0.26218 0.15857 0.47833 0.0
C793 C 0.27809 0.18968 0.48894 0.0
H794 H 0.21929 0.13448 0.45268 0.0
C795 C 0.26218 0.22146 0.48044 0.0
H796 H 0.27345 0.13367 0.48496 0.0
C797 C 0.23095 0.222 0.4615 0.0
C798 C 0.21479 0.1907 0.45165 0.0
H799 H 0.27397 0.24577 0.48842 0.0
H800 H 0.21916 0.24675 0.45516 0.0
C801 C 0.23086 0.15907 0.46017 0.0
C802 C 0.52961 0.48015 0.21459 0.0
C803 C 0.55963 0.4684 0.19743 0.0
H804 H 0.50768 0.51881 0.24873 0.0
C805 C 0.58993 0.48879 0.19902 0.0
H806 H 0.50589 0.46496 0.21374 0.0
C807 C 0.59066 0.51963 0.21808 0.0
C808 C 0.56129 0.53079 0.23659 0.0
H809 H 0.61343 0.48068 0.1858 0.0
H810 H 0.61485 0.53381 0.21974 0.0
C811 C 0.5306 0.51088 0.23448 0.0
C812 C 0.27952 0.78353 0.95605 0.0
C813 C 0.29891 0.81387 0.9496 0.0
H814 H 0.23375 0.76156 0.97967 0.0
C815 C 0.28577 0.8459 0.96141 0.0
H816 H 0.28882 0.75851 0.94713 0.0
C817 C 0.25429 0.84769 0.97928 0.0
C818 C 0.2351 0.81746 0.98633 0.0
H819 H 0.29976 0.86991 0.95675 0.0
H820 H 0.24543 0.87278 0.98843 0.0
C821 C 0.24806 0.78528 0.9746 0.0
C822 C 0.95783 0.48642 0.71403 0.0
C823 C 0.95132 0.48761 0.74997 0.0
H824 H 0.96573 0.51576 0.66711 0.0
C825 C 0.94942 0.52006 0.76656 0.0
H826 H 0.95943 0.46163 0.70078 0.0
C827 C 0.95205 0.55076 0.74738 0.0
C828 C 0.95764 0.54975 0.71134 0.0
H829 H 0.94413 0.52166 0.79416 0.0
H830 H 0.94861 0.57539 0.76062 0.0
C831 C 0.96164 0.51731 0.69492 0.0
C832 C 0.75885 0.34725 0.53402 0.0
C833 C 0.776 0.31691 0.52337 0.0
H834 H 0.71485 0.36937 0.5593 0.0
C835 C 0.76131 0.28442 0.53177 0.0
H836 H 0.76915 0.37263 0.52748 0.0
C837 C 0.72996 0.28244 0.55044 0.0
C838 C 0.71242 0.31296 0.56012 0.0
H839 H 0.77407 0.26066 0.52379 0.0
H840 H 0.71911 0.25719 0.55661 0.0
C841 C 0.72741 0.3453 0.55189 0.0
C842 C 0.42708 0.99754 0.25814 0.0
C843 C 0.44519 0.02618 0.27145 0.0
H844 H 0.41545 0.94346 0.2631 0.0
C845 C 0.46723 0.02169 0.3002 0.0
H846 H 0.41052 1.00048 0.23556 0.0
C847 C 0.47004 0.98905 0.3163 0.0
C848 C 0.45113 0.96043 0.30348 0.0
H849 H 0.48149 0.04363 0.31062 0.0
H850 H 0.48603 0.98653 0.33935 0.0
C851 C 0.43018 0.96497 0.27382 0.0
C852 C 0.7748 0.67202 0.05775 0.0
C853 C 0.79492 0.70251 0.05897 0.0
H854 H 0.73022 0.64617 0.03715 0.0
C855 C 0.78335 0.73198 0.04077 0.0
H856 H 0.78294 0.64889 0.07159 0.0
C857 C 0.75303 0.7302 0.02027 0.0
C858 C 0.73338 0.69928 0.01858 0.0
H859 H 0.79846 0.75576 0.04119 0.0
H860 H 0.74514 0.75273 0.00539 0.0
C861 C 0.74434 0.67052 0.03818 0.0
C862 C 0.037 1.00451 0.77091 0.0
C863 C 0.06775 0.98492 0.76792 0.0
H864 H 0.0126 0.0499 0.79291 0.0
C865 C 0.09771 0.99647 0.7854 0.0
H866 H 0.01357 0.99618 0.75769 0.0
C867 C 0.09727 0.02696 0.80482 0.0
C868 C 0.06682 0.04673 0.80769 0.0
H869 H 0.12201 0.98253 0.78327 0.0
H870 H 0.12102 0.03512 0.81762 0.0
C871 C 0.03641 0.03503 0.79107 0.0
C872 C 0.49102 0.21332 0.19806 0.0
C873 C 0.4549 0.21532 0.20257 0.0
H874 H 0.53895 0.2413 0.19265 0.0
C875 C 0.43936 0.24806 0.20701 0.0
H876 H 0.50347 0.18836 0.19423 0.0
C877 C 0.45951 0.27842 0.20484 0.0
C878 C 0.49559 0.27639 0.19952 0.0
H879 H 0.4115 0.25032 0.21022 0.0
H880 H 0.44695 0.30352 0.20666 0.0
C881 C 0.51126 0.24352 0.19714 0.0
C882 C 0.53474 0.72003 0.97922 0.0
C883 C 0.54508 0.70038 0.95022 0.0
H884 H 0.49769 0.75671 0.99965 0.0
C885 C 0.52374 0.7 0.92058 0.0
H886 H 0.55077 0.72076 1.00237 0.0
C887 C 0.49335 0.71966 0.91932 0.0
C888 C 0.48374 0.74086 0.94746 0.0
H889 H 0.53089 0.68487 0.89791 0.0
H890 H 0.47831 0.7196 0.89553 0.0
C891 C 0.50452 0.74056 0.97764 0.0
C892 C 0.06102 0.7717 0.67053 0.0
C893 C 0.06221 0.79266 0.70046 0.0
H894 H 0.04072 0.72593 0.64634 0.0
C895 C 0.04516 0.78125 0.73067 0.0
H896 H 0.07428 0.7796 0.64695 0.0
C897 C 0.0255 0.75042 0.73014 0.0
C898 C 0.02353 0.73003 0.69977 0.0
H899 H 0.04577 0.79687 0.7541 0.0
H900 H 0.01109 0.74288 0.75311 0.0
C901 C 0.04222 0.74065 0.67028 0.0
C902 C 0.017 0.29299 0.47015 0.0
C903 C 0.02663 0.27542 0.43948 0.0
H904 H 0.97853 0.32415 0.49606 0.0
C905 C 1.00343 0.27528 0.41133 0.0
H906 H 0.0344 0.29366 0.49226 0.0
C907 C 0.97152 0.29229 0.41362 0.0
C908 C 0.96191 0.3102 0.44404 0.0
H909 H 0.00961 0.26147 0.38761 0.0
H910 H 0.95447 0.29155 0.39122 0.0
C911 C 0.985 0.31038 0.47237 0.0
C912 C 0.97757 0.25357 0.84968 0.0
C913 C 0.98757 0.23597 0.8193 0.0
H914 H 0.95163 0.29707 0.87193 0.0
C915 C 0.97817 0.25024 0.78686 0.0
H916 H 0.98466 0.24395 0.87511 0.0
C917 C 0.95913 0.28129 0.78498 0.0
C918 C 0.94944 0.2988 0.81552 0.0
H919 H 0.98524 0.23729 0.76291 0.0
H920 H 0.95213 0.29161 0.75974 0.0
C921 C 0.95887 0.28449 0.8478 0.0
C922 C 0.48991 0.19735 0.58978 0.0
C923 C 0.46846 0.19722 0.56021 0.0
H924 H 0.5353 0.21773 0.61436 0.0
C925 C 0.47873 0.21634 0.53085 0.0
H926 H 0.48276 0.18269 0.61275 0.0
C927 C 0.50896 0.23697 0.53201 0.0
C928 C 0.52982 0.23782 0.56211 0.0
H929 H 0.46259 0.2167 0.50777 0.0
H930 H 0.51562 0.25296 0.50982 0.0
C931 C 0.52032 0.2171 0.59059 0.0
C932 C 0.54511 0.73022 0.27753 0.0
C933 C 0.56271 0.71807 0.30709 0.0
H934 H 0.51054 0.76903 0.25687 0.0
C935 C 0.56237 0.73838 0.33751 0.0
H936 H 0.545 0.71508 0.25379 0.0
C937 C 0.5437 0.7694 0.33896 0.0
C938 C 0.52418 0.78057 0.31027 0.0
H939 H 0.57595 0.72983 0.36066 0.0
H940 H 0.54277 0.7835 0.36331 0.0
C941 C 0.52553 0.76101 0.2793 0.0
C942 C 1.0001 0.7777 0.03346 0.0
C943 C 0.98078 0.7743 0.06437 0.0
H944 H 0.04628 0.79823 0.00921 0.0
C945 C 0.99319 0.79043 0.09468 0.0
H946 H 0.99113 0.76533 0.0098 0.0
C947 C 0.02482 0.80816 0.09459 0.0
C948 C 0.04466 0.81085 0.06403 0.0
H949 H 0.97932 0.78783 0.11899 0.0
H950 H 0.03396 0.81951 0.11872 0.0
C951 C 0.03157 0.79635 0.03315 0.0
C952 C 0.2216 0.48175 0.2588 0.0
C953 C 0.18974 0.49052 0.27442 0.0
H954 H 0.24708 0.45517 0.21667 0.0
C955 C 0.15871 0.47968 0.25846 0.0
H956 H 0.24587 0.48985 0.27058 0.0
C957 C 0.15935 0.46042 0.22786 0.0
C958 C 0.19104 0.45119 0.21236 0.0
H959 H 0.1337 0.48656 0.26933 0.0
H960 H 0.13481 0.45249 0.21652 0.0
C961 C 0.22228 0.46189 0.22814 0.0
C962 C 0.73058 0.04393 0.78454 0.0
C963 C 0.70001 0.05767 0.79909 0.0
H964 H 0.75273 0.01322 0.74319 0.0
C965 C 0.66828 0.05201 0.78193 0.0
H966 H 0.75538 0.04787 0.79729 0.0
C967 C 0.66683 0.03287 0.75126 0.0
C968 C 0.69705 0.01842 0.73678 0.0
H969 H 0.64427 0.0625 0.79222 0.0
H970 H 0.64166 0.02868 0.73939 0.0
C971 C 0.72904 0.02404 0.75378 0.0
C972 C 0.71856 0.97983 0.53319 0.0
C973 C 0.69985 0.95025 0.54367 0.0
H974 H 0.75426 1.00137 0.4958 0.0
C975 C 0.69981 0.92074 0.52213 0.0
H976 H 0.71892 1.00291 0.54933 0.0
C977 C 0.71902 0.92022 0.49141 0.0
C978 C 0.73932 0.94897 0.4817 0.0
H979 H 0.6853 0.89767 0.52935 0.0
H980 H 0.71953 0.89653 0.47624 0.0
C981 C 0.73862 0.97898 0.50266 0.0
C982 C 0.84445 0.99174 0.25981 0.0
C983 C 0.81751 0.98903 0.23538 0.0
H984 H 0.86367 0.97758 0.30974 0.0
C985 C 0.78764 0.96973 0.24407 0.0
H986 H 0.86743 0.00703 0.2542 0.0
C987 C 0.78541 0.95247 0.2762 0.0
C988 C 0.81283 0.95473 0.30033 0.0
H989 H 0.76648 0.9673 0.22566 0.0
H990 H 0.76259 0.93695 0.28188 0.0
C991 C 0.84207 0.97503 0.29185 0.0
C992 C 0.79529 0.03368 0.03239 0.0
C993 C 0.81359 0.06358 0.04272 0.0
H994 H 0.75935 0.01159 0.9955 0.0
C995 C 0.8126 0.0932 0.02143 0.0
H996 H 0.79568 0.01052 0.0484 0.0
C997 C 0.79277 0.0935 0.99107 0.0
C998 C 0.77287 0.06439 0.98153 0.0
H999 H 0.82674 0.11652 0.02859 0.0
H1000 H 0.79151 0.11726 0.97608 0.0
C1001 C 0.77462 0.03428 1.00225 0.0
C1002 C 0.28282 0.52095 0.75561 0.0
C1003 C 0.31398 0.5193 0.77477 0.0
H1004 H 0.25676 0.54182 0.71058 0.0
C1005 C 0.34277 0.53864 0.76327 0.0
H1006 H 0.26024 0.50636 0.76397 0.0
C1007 C 0.34094 0.55815 0.73288 0.0
C1008 C 0.31019 0.55933 0.7133 0.0
H1009 H 0.36731 0.53766 0.77697 0.0
H1010 H 0.36391 0.57219 0.72452 0.0
C1011 C 0.28078 0.54124 0.72526 0.0
C1012 C 0.20039 0.59189 0.48675 0.0
C1013 C 0.19896 0.562 0.46586 0.0
H1014 H 0.22144 0.61629 0.53188 0.0
C1015 C 0.21725 0.53218 0.47632 0.0
H1016 H 0.18626 0.61515 0.47955 0.0
C1017 C 0.23798 0.53298 0.50644 0.0
C1018 C 0.23979 0.56324 0.52695 0.0
H1019 H 0.21649 0.5088 0.46063 0.0
H1020 H 0.25284 0.5102 0.51359 0.0
C1021 C 0.22027 0.59242 0.517 0.0
C1022 C 0.28676 0.47289 0.01336 0.0
C1023 C 0.27279 0.441 0.0247 0.0
H1024 H 0.31542 0.49985 0.97365 0.0
C1025 C 0.27636 0.41163 1.00335 0.0
H1026 H 0.28443 0.49596 0.02931 0.0
C1027 C 0.2936 0.41392 0.9716 0.0
C1028 C 0.30804 0.44558 0.96035 0.0
H1029 H 0.26533 0.38685 0.01086 0.0
H1030 H 0.29592 0.39055 0.95606 0.0
C1031 C 0.30444 0.47513 0.98153 0.0
C1032 C 0.17337 0.27667 0.25811 0.0
C1033 C 0.16462 0.31026 0.2471 0.0
H1034 H 0.17389 0.23995 0.29947 0.0
C1035 C 0.1506 0.33379 0.27131 0.0
H1036 H 0.185 0.25831 0.24023 0.0
C1037 C 0.14399 0.32322 0.30565 0.0
C1038 C 0.15156 0.28904 0.31618 0.0
H1039 H 0.14364 0.35986 0.26333 0.0
H1040 H 0.13207 0.34138 0.32354 0.0
C1041 C 0.16701 0.26622 0.29215 0.0
C1042 C 0.46752 0.43962 0.02162 0.0
C1043 C 0.44583 0.42033 0.99947 0.0
H1044 H 0.48958 0.44418 0.07264 0.0
C1045 C 0.42972 0.39011 0.01207 0.0
H1046 H 0.47942 0.46353 0.01266 0.0
C1047 C 0.4367 0.37833 0.04576 0.0
C1048 C 0.45953 0.3969 0.06745 0.0
H1049 H 0.41264 0.37509 0.99544 0.0
H1050 H 0.42499 0.35426 0.05454 0.0
C1051 C 0.47362 0.42839 0.05563 0.0
C1052 C 0.38502 0.69067 0.79232 0.0
C1053 C 0.36838 0.71487 0.8141 0.0
H1054 H 0.38466 0.66417 0.74319 0.0
C1055 C 0.33657 0.72914 0.80345 0.0
H1056 H 0.40935 0.67879 0.80001 0.0
C1057 C 0.32312 0.72163 0.77048 0.0
C1058 C 0.34046 0.69841 0.74829 0.0
H1059 H 0.32212 0.74608 0.82059 0.0
H1060 H 0.299 0.73364 0.76238 0.0
C1061 C 0.37102 0.6823 0.75983 0.0
C1062 C 0.03206 0.57685 0.51806 0.0
C1063 C 0.05866 0.59264 0.49866 0.0
H1064 H 1.00227 0.57708 0.56492 0.0
C1065 C 0.07689 0.62078 0.51309 0.0
H1066 H 0.01823 0.55452 0.50785 0.0
C1067 C 0.06719 0.63429 0.54543 0.0
C1068 C 0.03937 0.61958 0.56416 0.0
H1069 H 0.09761 0.63325 0.49866 0.0
H1070 H 0.08077 0.65698 0.55515 0.0
C1071 C 0.02285 0.58988 0.55067 0.0
C1072 C 0.68391 0.21723 0.7387 0.0
C1073 C 0.66548 0.19413 0.7601 0.0
H1074 H 0.68589 0.24391 0.68996 0.0
C1075 C 0.63502 0.17854 0.74748 0.0
H1076 H 0.70794 0.22889 0.74768 0.0
C1077 C 0.62167 0.18813 0.71502 0.0
C1078 C 0.63893 0.21305 0.69446 0.0
H1079 H 0.6206 0.16048 0.76356 0.0
H1080 H 0.597 0.17724 0.70686 0.0
C1081 C 0.67112 0.22603 0.70588 0.0
C1082 C 0.53139 0.93454 0.49474 0.0
C1083 C 0.5593 0.92011 0.51334 0.0
H1084 H 0.49991 0.93259 0.44898 0.0
C1085 C 0.57794 0.8925 0.49848 0.0
H1086 H 0.5171 0.95639 0.50521 0.0
C1087 C 0.56764 0.87833 0.46655 0.0
C1088 C 0.53871 0.89176 0.44859 0.0
H1089 H 0.59959 0.88095 0.51222 0.0
H1090 H 0.58176 0.85617 0.45651 0.0
C1091 C 0.52149 0.9208 0.46255 0.0
C1092 C 0.882 0.82703 0.25246 0.0
C1093 C 0.84825 0.81701 0.26188 0.0
H1094 H 0.92311 0.82205 0.21527 0.0
C1095 C 0.82786 0.79831 0.23812 0.0
H1096 H 0.89804 0.8415 0.27055 0.0
C1097 C 0.84166 0.78794 0.20618 0.0
C1098 C 0.8766 0.79502 0.19791 0.0
H1099 H 0.80157 0.79078 0.24485 0.0
H1100 H 0.82551 0.77261 0.18894 0.0
C1101 C 0.8962 0.8159 0.22082 0.0
C1102 C 0.93837 0.12296 0.95767 0.0
C1103 C 0.97089 0.1128 0.94449 0.0
H1104 H 0.90441 0.12401 1.00204 0.0
C1105 C 0.99363 0.09418 0.96614 0.0
H1106 H 0.92037 0.13748 0.94164 0.0
C1107 C 0.98457 0.0865 1.00031 0.0
C1108 C 0.95253 0.09732 0.01397 0.0
H1109 H 0.0186 0.08537 0.95668 0.0
H1110 H 1.0027 0.07176 0.01596 0.0
C1111 C 0.92926 0.11528 0.99218 0.0
C1112 C 0.2944 0.16567 0.27332 0.0
C1113 C 0.31729 0.14634 0.29422 0.0
H1114 H 0.24288 0.18538 0.26644 0.0
C1115 C 0.30553 0.13409 0.32662 0.0
H1116 H 0.30291 0.17656 0.24886 0.0
C1117 C 0.27102 0.13989 0.33704 0.0
C1118 C 0.24787 0.15757 0.31499 0.0
H1119 H 0.32257 0.11916 0.34332 0.0
H1120 H 0.262 0.12952 0.36162 0.0
C1121 C 0.26007 0.17092 0.28341 0.0
C1122 C 0.6352 0.54202 0.06582 0.0
C1123 C 0.61771 0.56495 0.04339 0.0
H1124 H 0.63523 0.49198 0.09044 0.0
C1125 C 0.58522 0.55521 0.02994 0.0
H1126 H 0.66008 0.54906 0.07703 0.0
C1127 C 0.57164 0.52213 0.03669 0.0
C1128 C 0.58962 0.49897 0.05839 0.0
H1129 H 0.57026 0.57322 0.01438 0.0
H1130 H 0.54683 0.51481 0.02553 0.0
C1131 C 0.62112 0.50942 0.07346 0.0
C1132 C 0.20736 0.83343 0.78348 0.0
C1133 C 0.19534 0.86504 0.79701 0.0
H1134 H 0.25044 0.7984 0.77855 0.0
C1135 C 0.21704 0.88441 0.81914 0.0
H1136 H 0.19035 0.81707 0.7681 0.0
C1137 C 0.25081 0.87305 0.82633 0.0
C1138 C 0.26345 0.84243 0.8111 0.0
H1139 H 0.20809 0.90863 0.83039 0.0
H1140 H 0.26739 0.88853 0.84304 0.0
C1141 C 0.24142 0.82258 0.78979 0.0
C1142 C 0.93013 0.45027 0.56876 0.0
C1143 C 0.9039 0.44179 0.54465 0.0
H1144 H 0.95442 0.49065 0.59892 0.0
C1145 C 0.87884 0.46713 0.53642 0.0
H1146 H 0.94975 0.43136 0.57575 0.0
C1147 C 0.8821 0.50102 0.54902 0.0
C1148 C 0.9097 0.51002 0.57103 0.0
H1149 H 0.85816 0.46165 0.51813 0.0
H1150 H 0.86407 0.52075 0.54023 0.0
C1151 C 0.93279 0.48408 0.58211 0.0
C1152 C 0.80656 0.33495 0.72384 0.0
C1153 C 0.81864 0.36655 0.71029 0.0
H1154 H 0.76348 0.29979 0.72873 0.0
C1155 C 0.79726 0.38534 0.68739 0.0
H1156 H 0.82332 0.31899 0.73982 0.0
C1157 C 0.76359 0.37367 0.67987 0.0
C1158 C 0.7507 0.34331 0.69549 0.0
H1159 H 0.80624 0.40953 0.67608 0.0
H1160 H 0.74717 0.38891 0.66284 0.0
C1161 C 0.77261 0.3238 0.71717 0.0
C1162 C 0.43075 0.02529 0.42652 0.0
C1163 C 0.40797 0.99954 0.4388 0.0
H1164 H 0.44775 0.07819 0.43114 0.0
C1165 C 0.38062 0.009 0.46085 0.0
H1166 H 0.45209 0.0184 0.40951 0.0
C1167 C 0.37751 0.04318 0.47256 0.0
C1168 C 0.40252 0.06833 0.46338 0.0
H1169 H 0.36269 0.98946 0.47036 0.0
H1170 H 0.35707 0.04907 0.49096 0.0
C1171 C 0.42824 0.05942 0.43896 0.0
C1172 C 0.735 0.68364 0.21089 0.0
C1173 C 0.75863 0.66375 0.19159 0.0
H1174 H 0.68544 0.68555 0.23586 0.0
C1175 C 0.74879 0.63068 0.17983 0.0
H1176 H 0.74197 0.70951 0.21961 0.0
C1177 C 0.7168 0.6165 0.18984 0.0
C1178 C 0.69407 0.63547 0.21135 0.0
H1179 H 0.76674 0.61508 0.16479 0.0
H1180 H 0.71085 0.59 0.18237 0.0
C1181 C 0.70276 0.66987 0.22018 0.0
C1182 C 0.12956 0.96779 0.97857 0.0
C1183 C 0.10357 0.94314 0.97116 0.0
H1184 H 0.14686 0.02034 0.97309 0.0
C1185 C 0.07652 0.95244 0.94837 0.0
H1186 H 0.15071 0.96181 0.99605 0.0
C1187 C 0.07439 0.9863 0.93509 0.0
C1188 C 0.09904 0.01152 0.94477 0.0
H1189 H 0.05612 0.93404 0.94208 0.0
H1190 H 0.0524 0.99323 0.91898 0.0
C1191 C 0.12719 1.00157 0.9657 0.0
C1192 C 0.33529 0.26994 0.14522 0.0
C1193 C 0.31234 0.24744 0.16274 0.0
H1194 H 0.34324 0.32101 0.12381 0.0
C1195 C 0.28049 0.26056 0.17471 0.0
H1196 H 0.36007 0.2605 0.13587 0.0
C1197 C 0.27101 0.2948 0.16803 0.0
C1198 C 0.29307 0.31699 0.14916 0.0
H1199 H 0.26272 0.24429 0.18927 0.0
H1200 H 0.24608 0.30376 0.17744 0.0
C1201 C 0.32569 0.3045 0.13841 0.0
C1202 C 0.82581 0.25163 0.8709 0.0
C1203 C 0.81002 0.26225 0.83979 0.0
H1204 H 0.82857 0.21293 0.91072 0.0
C1205 C 0.78719 0.23944 0.82271 0.0
H1206 H 0.84366 0.26875 0.88438 0.0
C1207 C 0.7794 0.20698 0.83713 0.0
C1208 C 0.79306 0.19737 0.86963 0.0
H1209 H 0.77543 0.24678 0.7982 0.0
H1210 H 0.76221 0.18965 0.82312 0.0
C1211 C 0.81721 0.21962 0.88584 0.0
C1212 C 0.51403 0.07765 0.62465 0.0
C1213 C 0.50081 0.06159 0.59465 0.0
H1214 H 0.55738 0.08252 0.65948 0.0
C1215 C 0.52241 0.03969 0.57507 0.0
H1216 H 0.4978 0.0948 0.63994 0.0
C1217 C 0.55651 0.03346 0.58565 0.0
C1218 C 0.56915 0.04793 0.61661 0.0
H1219 H 0.51302 0.02781 0.55131 0.0
H1220 H 0.57307 0.01736 0.56959 0.0
C1221 C 0.54797 0.07072 0.63568 0.0
C1222 C 0.71961 0.77318 0.32399 0.0
C1223 C 0.69646 0.75126 0.34181 0.0
H1224 H 0.7459 0.82225 0.32303 0.0
C1225 C 0.68073 0.76324 0.37245 0.0
H1226 H 0.73134 0.76485 0.29979 0.0
C1227 C 0.68991 0.7956 0.38635 0.0
C1228 C 0.71464 0.81677 0.36955 0.0
H1229 H 0.66263 0.74686 0.38649 0.0
H1230 H 0.67872 0.80331 0.41101 0.0
C1231 C 0.7281 0.80587 0.33741 0.0
C1232 C 0.9633 0.9837 0.08872 0.0
C1233 C 0.94448 0.96443 0.11337 0.0
H1234 H 0.01127 0.99076 0.06181 0.0
C1235 C 0.96002 0.93503 0.12849 0.0
H1236 H 0.9517 0.00582 0.07581 0.0
C1237 C 0.99443 0.92617 0.12017 0.0
C1238 C 0.01371 0.94675 0.09686 0.0
H1239 H 0.94612 0.91971 0.14761 0.0
H1240 H 0.00636 0.90405 0.1328 0.0
C1241 C 0.99748 0.9751 0.0807 0.0
C1242 C 0.22676 0.70458 0.67564 0.0
C1243 C 0.2132 0.69404 0.64347 0.0
H1244 H 0.23187 0.74614 0.7126 0.0
C1245 C 0.19108 0.7166 0.62519 0.0
H1246 H 0.24209 0.68684 0.69117 0.0
C1247 C 0.18398 0.74975 0.63814 0.0
C1248 C 0.19931 0.76101 0.66924 0.0
H1249 H 0.17978 0.70886 0.60057 0.0
H1250 H 0.16726 0.76698 0.62346 0.0
C1251 C 0.22058 0.73816 0.68806 0.0
C1252 C 0.0473 0.43688 0.37883 0.0
C1253 C 0.06666 0.46168 0.39741 0.0
H1254 H 0.99797 0.41114 0.37319 0.0
C1255 C 0.05171 0.47794 0.42637 0.0
H1256 H 0.05843 0.42384 0.3565 0.0
C1257 C 0.01721 0.47141 0.4353 0.0
C1258 C 0.99732 0.44762 0.41603 0.0
H1259 H 0.06676 0.49578 0.44212 0.0
H1260 H 0.00615 0.4847 0.4575 0.0
C1261 C 0.01284 0.42976 0.38822 0.0
C1262 C 0.49879 0.57813 0.8881 0.0
C1263 C 0.51193 0.56208 0.9181 0.0
H1264 H 0.45595 0.58233 0.85262 0.0
C1265 C 0.49057 0.53922 0.93691 0.0
H1266 H 0.51481 0.59601 0.87338 0.0
C1267 C 0.45671 0.53226 0.92569 0.0
C1268 C 0.4442 0.54673 0.89468 0.0
H1269 H 0.49992 0.52731 0.96064 0.0
H1270 H 0.44013 0.51588 0.94146 0.0
C1271 C 0.46525 0.57033 0.87633 0.0
C1272 C 0.96082 0.14168 0.26377 0.0
C1273 C 0.97037 0.11148 0.24533 0.0
H1274 H 0.97603 0.18069 0.30078 0.0
C1275 C 1.00342 0.09703 0.25169 0.0
H1276 H 0.93549 0.15335 0.26025 0.0
C1277 C 0.02608 0.11219 0.2757 0.0
C1278 C 0.01668 0.1426 0.29345 0.0
H1279 H 0.01237 0.07445 0.23754 0.0
H1280 H 0.05147 0.10069 0.27962 0.0
C1281 C 0.98389 0.15728 0.28725 0.0
C1282 C 0.58689 0.24853 0.0149 0.0
C1283 C 0.6073 0.2693 0.03716 0.0
H1284 H 0.58496 0.20835 0.97706 0.0
C1285 C 0.64357 0.26414 0.03666 0.0
H1286 H 0.55897 0.25132 0.01379 0.0
C1287 C 0.65895 0.24093 0.01336 0.0
C1288 C 0.63863 0.2205 0.99069 0.0
H1289 H 0.66066 0.27815 0.05404 0.0
H1290 H 0.687 0.2399 0.01299 0.0
C1291 C 0.60218 0.22409 0.99272 0.0
C1292 C 0.54089 0.86185 0.74676 0.0
C1293 C 0.54224 0.8983 0.74262 0.0
H1294 H 0.51586 0.8182 0.76955 0.0
C1295 C 0.52034 0.91849 0.76392 0.0
H1296 H 0.55794 0.84476 0.73248 0.0
C1297 C 0.49771 0.90294 0.7877 0.0
C1298 C 0.49461 0.86648 0.78997 0.0
H1299 H 0.51968 0.94648 0.76212 0.0
H1300 H 0.48246 0.92002 0.80394 0.0
C1301 C 0.51699 0.84627 0.76927 0.0
C1302 C 0.8551 0.74791 0.54163 0.0
C1303 C 0.89125 0.74297 0.54476 0.0
H1304 H 0.81342 0.77162 0.5143 0.0
C1305 C 0.91314 0.76287 0.52311 0.0
H1306 H 0.83692 0.73428 0.55816 0.0
C1307 C 0.89947 0.78661 0.49934 0.0
C1308 C 0.86331 0.7902 0.49495 0.0
H1309 H 0.94106 0.75994 0.52368 0.0
H1310 H 0.91769 0.80185 0.48432 0.0
C1311 C 0.84139 0.77046 0.51668 0.0
C1312 C 0.49291 0.41992 0.74613 0.0
C1313 C 0.47093 0.39937 0.767 0.0
H1314 H 0.53106 0.4219 0.7063 0.0
C1315 C 0.47199 0.36302 0.76233 0.0
H1316 H 0.49358 0.4479 0.74854 0.0
C1317 C 0.49581 0.34775 0.73966 0.0
C1318 C 0.51832 0.36827 0.71935 0.0
H1319 H 0.45477 0.34584 0.7764 0.0
H1320 H 0.49681 0.31968 0.73896 0.0
C1321 C 0.51553 0.40469 0.72219 0.0
C1322 C 0.33865 0.73918 0.49412 0.0
C1323 C 0.35982 0.7196 0.51667 0.0
H1324 H 0.33547 0.77484 0.45216 0.0
C1325 C 0.39614 0.72297 0.51307 0.0
H1326 H 0.31063 0.7382 0.49571 0.0
C1327 C 0.41059 0.74648 0.48947 0.0
C1328 C 0.38941 0.76632 0.46715 0.0
H1329 H 0.41393 0.70778 0.52858 0.0
H1330 H 0.43854 0.74928 0.48959 0.0
C1331 C 0.35316 0.7614 0.46931 0.0
C1332 C 0.98815 0.60265 0.22732 0.0
C1333 C 0.98958 0.63839 0.2194 0.0
H1334 H 0.00699 0.56082 0.25796 0.0
C1335 C 0.01585 0.65838 0.23536 0.0
H1336 H 0.96943 0.58561 0.21509 0.0
C1337 C 0.03947 0.64331 0.25847 0.0
C1338 C 0.03682 0.60798 0.26786 0.0
H1339 H 0.01811 0.68601 0.23078 0.0
H1340 H 0.05961 0.65985 0.26903 0.0
C1341 C 0.01077 0.58793 0.25163 0.0
C1342 C 0.12142 0.3004 0.99304 0.0
C1343 C 0.14986 0.29008 0.01369 0.0
H1344 H 0.0838 0.2856 0.9545 0.0
C1345 C 0.16275 0.25603 0.00972 0.0
H1346 H 0.11107 0.32649 0.99469 0.0
C1347 C 0.14769 0.23308 0.98592 0.0
C1348 C 0.11892 0.24329 0.96602 0.0
H1349 H 0.18395 0.24659 0.0256 0.0
H1350 H 0.15789 0.20692 0.98382 0.0
C1351 C 0.10588 0.27712 0.96976 0.0
C1352 C 0.25058 1.00207 0.1004 0.0
C1353 C 0.24403 0.9696 0.11594 0.0
H1354 H 0.27825 0.05033 0.10279 0.0
C1355 C 0.26188 0.96105 0.14672 0.0
H1356 H 0.23679 0.00996 0.07716 0.0
C1357 C 0.28552 0.98445 0.16159 0.0
C1358 C 0.29204 0.01683 0.14591 0.0
H1359 H 0.25785 0.93614 0.1592 0.0
H1360 H 0.29893 0.97709 0.18523 0.0
C1361 C 0.27436 0.0253 0.11511 0.0
C1362 C 0.76456 0.5139 0.83946 0.0
C1363 C 0.78659 0.49281 0.85964 0.0
H1364 H 0.72708 0.55428 0.83799 0.0
C1365 C 0.78615 0.49759 0.89599 0.0
H1366 H 0.76348 0.51142 0.81149 0.0
C1367 C 0.76297 0.52069 0.91166 0.0
C1368 C 0.74043 0.54137 0.89157 0.0
H1369 H 0.80345 0.48333 0.9129 0.0
H1370 H 0.76258 0.52143 0.93973 0.0
C1371 C 0.74255 0.53825 0.85506 0.0
C1372 C 0.24955 0.0163 0.59707 0.0
C1373 C 0.27068 0.03825 0.61748 0.0
H1374 H 0.20946 0.9786 0.59497 0.0
C1375 C 0.26653 0.0366 0.65388 0.0
H1376 H 0.25153 0.01571 0.56908 0.0
C1377 C 0.24384 0.01264 0.66922 0.0
C1378 C 0.223 0.99042 0.64878 0.0
H1379 H 0.28086 0.05353 0.67112 0.0
H1380 H 0.24349 0.01147 0.69726 0.0
C1381 C 0.22561 0.99365 0.61234 0.0
C1382 C 0.7346 0.4948 0.34759 0.0
C1383 C 0.71804 0.52024 0.3681 0.0
H1384 H 0.76834 0.45118 0.34546 0.0
C1385 C 0.72498 0.52031 0.4041 0.0
H1386 H 0.73089 0.49358 0.31977 0.0
C1387 C 0.74889 0.4972 0.41862 0.0
C1388 C 0.76562 0.47198 0.39803 0.0
H1389 H 0.7123 0.53832 0.4215 0.0
H1390 H 0.75455 0.49989 0.44602 0.0
C1391 C 0.75726 0.47066 0.3624 0.0
loop_
_geom_bond_atom_site_label_1
_geom_bond_atom_site_label_2
_geom_bond_distance
_geom_bond_site_symmetry_2
_ccdc_geom_bond_type
C0 C1 1.351 . S
C0 N3 1.368 . S
C0 H5 0.931 . S
C1 C0 1.351 . S
C1 N2 1.373 . S
C1 H29 0.930 . S
N2 C1 1.373 . S
N2 C4 1.340 . S
N3 C0 1.368 . S
N3 C4 1.321 . S
N3 Co6 2.135 . S
C4 N2 1.340 . S
C4 N3 1.321 . S
C4 H28 0.930 . S
H5 C0 0.931 . S
Co6 N3 2.135 . S
Co6 N9 2.121 . S
Co6 O14 2.055 . S
Co6 O17 2.039 . S
Co6 N20 2.140 . S
C7 O8 1.227 . S
C7 O17 1.265 . S
O8 C7 1.227 . S
N9 Co6 2.121 . S
N9 C11 1.375 . S
N9 C12 1.313 . S
C10 C11 1.338 . S
C10 N13 1.377 . S
C10 H30 0.930 . S
C11 N9 1.375 . S
C11 C10 1.338 . S
C11 H15 0.931 . S
C12 N9 1.313 . S
C12 N13 1.344 . S
C12 H16 0.930 . S
N13 C10 1.377 . S
N13 C12 1.344 . S
O14 Co6 2.055 . S
O14 C18 1.253 . S
H15 C11 0.931 . S
H16 C12 0.930 . S
O17 Co6 2.039 . S
O17 C7 1.265 . S
C18 O14 1.253 . S
C18 O19 1.227 . S
O19 C18 1.227 . S
N20 Co6 2.140 . S
N20 C23 1.346 . S
N20 C24 1.345 . S
C21 C22 1.387 . S
C21 C25 1.391 . S
C22 C21 1.387 . S
C22 C23 1.369 . S
C22 H31 0.929 . S
C23 N20 1.346 . S
C23 C22 1.369 . S
C23 H26 0.928 . S
C24 N20 1.345 . S
C24 C25 1.371 . S
C24 H27 0.931 . S
C25 C21 1.391 . S
C25 C24 1.371 . S
C25 H32 0.930 . S
H26 C23 0.928 . S
H27 C24 0.931 . S
H28 C4 0.930 . S
H29 C1 0.930 . S
H30 C10 0.930 . S
H31 C22 0.929 . S
H32 C25 0.930 . S
C33 C34 1.351 . S
C33 N36 1.368 . S
C33 H38 0.931 . S
C34 C33 1.351 . S
C34 N35 1.373 . S
C34 H62 0.930 . S
N35 C34 1.373 . S
N35 C37 1.340 . S
N36 C33 1.368 . S
N36 C37 1.321 . S
N36 Co39 2.135 . S
C37 N35 1.340 . S
C37 N36 1.321 . S
C37 H61 0.930 . S
H38 C33 0.931 . S
Co39 N36 2.135 . S
Co39 N42 2.121 . S
Co39 O47 2.055 . S
Co39 O50 2.039 . S
Co39 N53 2.140 . S
C40 O41 1.227 . S
C40 O50 1.265 . S
O41 C40 1.227 . S
N42 Co39 2.121 . S
N42 C44 1.375 . S
N42 C45 1.313 . S
C43 C44 1.338 . S
C43 N46 1.377 . S
C43 H63 0.930 . S
C44 N42 1.375 . S
C44 C43 1.338 . S
C44 H48 0.931 . S
C45 N42 1.313 . S
C45 N46 1.344 . S
C45 H49 0.930 . S
N46 C43 1.377 . S
N46 C45 1.344 . S
O47 Co39 2.055 . S
O47 C51 1.253 . S
H48 C44 0.931 . S
H49 C45 0.930 . S
O50 Co39 2.039 . S
O50 C40 1.265 . S
C51 O47 1.253 . S
C51 O52 1.227 . S
O52 C51 1.227 . S
N53 Co39 2.140 . S
N53 C56 1.346 . S
N53 C57 1.345 . S
C54 C55 1.387 . S
C54 C58 1.391 . S
C55 C54 1.387 . S
C55 C56 1.369 . S
C55 H64 0.929 . S
C56 N53 1.346 . S
C56 C55 1.369 . S
C56 H59 0.928 . S
C57 N53 1.345 . S
C57 C58 1.371 . S
C57 H60 0.931 . S
C58 C54 1.391 . S
C58 C57 1.371 . S
C58 H65 0.930 . S
H59 C56 0.928 . S
H60 C57 0.931 . S
H61 C37 0.930 . S
H62 C34 0.930 . S
H63 C43 0.930 . S
H64 C55 0.929 . S
H65 C58 0.930 . S
C66 C67 1.351 . S
C66 N69 1.368 . S
C66 H71 0.931 . S
C67 C66 1.351 . S
C67 N68 1.373 . S
C67 H95 0.930 . S
N68 C67 1.373 . S
N68 C70 1.340 . S
N69 C66 1.368 . S
N69 C70 1.321 . S
N69 Co72 2.135 . S
C70 N68 1.340 . S
C70 N69 1.321 . S
C70 H94 0.930 . S
H71 C66 0.931 . S
Co72 N69 2.135 . S
Co72 N75 2.121 . S
Co72 O80 2.055 . S
Co72 O83 2.039 . S
Co72 N86 2.140 . S
C73 O74 1.227 . S
C73 O83 1.265 . S
O74 C73 1.227 . S
N75 Co72 2.121 . S
N75 C77 1.375 . S
N75 C78 1.313 . S
C76 C77 1.338 . S
C76 N79 1.377 . S
C76 H96 0.930 . S
C77 N75 1.375 . S
C77 C76 1.338 . S
C77 H81 0.931 . S
C78 N75 1.313 . S
C78 N79 1.344 . S
C78 H82 0.930 . S
N79 C76 1.377 . S
N79 C78 1.344 . S
O80 Co72 2.055 . S
O80 C84 1.253 . S
H81 C77 0.931 . S
H82 C78 0.930 . S
O83 Co72 2.039 . S
O83 C73 1.265 . S
C84 O80 1.253 . S
C84 O85 1.227 . S
O85 C84 1.227 . S
N86 Co72 2.140 . S
N86 C89 1.346 . S
N86 C90 1.345 . S
C87 C88 1.387 . S
C87 C91 1.391 . S
C88 C87 1.387 . S
C88 C89 1.369 . S
C88 H97 0.929 . S
C89 N86 1.346 . S
C89 C88 1.369 . S
C89 H92 0.928 . S
C90 N86 1.345 . S
C90 C91 1.371 . S
C90 H93 0.931 . S
C91 C87 1.391 . S
C91 C90 1.371 . S
C91 H98 0.930 . S
H92 C89 0.928 . S
H93 C90 0.931 . S
H94 C70 0.930 . S
H95 C67 0.930 . S
H96 C76 0.930 . S
H97 C88 0.929 . S
H98 C91 0.930 . S
C99 C100 1.351 . S
C99 N102 1.368 . S
C99 H104 0.931 . S
C100 C99 1.351 . S
C100 N101 1.373 1_655 S
C100 H128 0.930 . S
N101 C100 1.373 1_455 S
N101 C103 1.340 . S
N102 C99 1.368 . S
N102 C103 1.321 1_655 S
N102 Co105 2.135 . S
C103 N101 1.340 . S
C103 N102 1.321 1_455 S
C103 H127 0.930 . S
H104 C99 0.931 . S
Co105 N102 2.135 . S
Co105 N108 2.121 . S
Co105 O113 2.055 . S
Co105 O116 2.039 1_655 S
Co105 N119 2.140 . S
C106 O107 1.241 . S
C106 O116 1.265 . S
O107 C106 1.241 . S
N108 Co105 2.121 . S
N108 C110 1.375 . S
N108 C111 1.313 . S
C109 C110 1.338 . S
C109 N112 1.377 . S
C109 H129 0.930 . S
C110 N108 1.375 . S
C110 C109 1.338 . S
C110 H114 0.931 . S
C111 N108 1.313 . S
C111 N112 1.344 . S
C111 H115 0.930 . S
N112 C109 1.377 . S
N112 C111 1.344 . S
O113 Co105 2.055 . S
O113 C117 1.253 . S
H114 C110 0.931 . S
H115 C111 0.930 . S
O116 Co105 2.039 1_455 S
O116 C106 1.265 . S
C117 O113 1.253 . S
C117 O118 1.227 . S
O118 C117 1.227 . S
N119 Co105 2.140 . S
N119 C122 1.346 . S
N119 C123 1.345 . S
C120 C121 1.387 . S
C120 C124 1.391 . S
C121 C120 1.387 . S
C121 C122 1.369 . S
C121 H130 0.929 . S
C122 N119 1.346 . S
C122 C121 1.369 . S
C122 H125 0.928 . S
C123 N119 1.345 . S
C123 C124 1.371 . S
C123 H126 0.931 . S
C124 C120 1.391 . S
C124 C123 1.371 . S
C124 H131 0.930 . S
H125 C122 0.928 . S
H126 C123 0.931 . S
H127 C103 0.930 . S
H128 C100 0.930 . S
H129 C109 0.930 . S
H130 C121 0.929 . S
H131 C124 0.930 . S
C132 C133 1.351 . S
C132 N135 1.368 . S
C132 H137 0.931 . S
C133 C132 1.351 . S
C133 N134 1.373 . S
C133 H161 0.930 . S
N134 C133 1.373 . S
N134 C136 1.340 . S
N135 C132 1.368 . S
N135 C136 1.321 . S
N135 Co138 2.135 . S
C136 N134 1.340 . S
C136 N135 1.321 . S
C136 H160 0.930 . S
H137 C132 0.931 . S
Co138 N135 2.135 . S
Co138 N141 2.121 . S
Co138 O146 2.055 . S
Co138 O149 2.039 . S
Co138 N152 2.140 . S
C139 O140 1.227 . S
C139 O149 1.265 . S
O140 C139 1.227 . S
N141 Co138 2.121 . S
N141 C143 1.375 . S
N141 C144 1.313 . S
C142 C143 1.338 . S
C142 N145 1.377 . S
C142 H162 0.930 . S
C143 N141 1.375 . S
C143 C142 1.338 . S
C143 H147 0.931 . S
C144 N141 1.313 . S
C144 N145 1.344 . S
C144 H148 0.930 . S
N145 C142 1.377 . S
N145 C144 1.344 . S
O146 Co138 2.055 . S
O146 C150 1.253 . S
H147 C143 0.931 . S
H148 C144 0.930 . S
O149 Co138 2.039 . S
O149 C139 1.265 . S
C150 O146 1.253 . S
C150 O151 1.227 . S
O151 C150 1.227 . S
N152 Co138 2.140 . S
N152 C155 1.346 . S
N152 C156 1.345 . S
C153 C154 1.387 . S
C153 C157 1.391 . S
C154 C153 1.387 . S
C154 C155 1.369 . S
C154 H163 0.929 . S
C155 N152 1.346 . S
C155 C154 1.369 . S
C155 H158 0.928 . S
C156 N152 1.345 . S
C156 C157 1.371 . S
C156 H159 0.931 . S
C157 C153 1.391 . S
C157 C156 1.371 . S
C157 H164 0.930 . S
H158 C155 0.928 . S
H159 C156 0.931 . S
H160 C136 0.930 . S
H161 C133 0.930 . S
H162 C142 0.930 . S
H163 C154 0.929 . S
H164 C157 0.930 . S
C165 C166 1.351 . S
C165 N168 1.368 . S
C165 H170 0.931 . S
C166 C165 1.351 . S
C166 N167 1.373 . S
C166 H194 0.930 . S
N167 C166 1.373 . S
N167 C169 1.340 . S
N168 C165 1.368 . S
N168 C169 1.321 . S
N168 Co171 2.135 . S
C169 N167 1.340 . S
C169 N168 1.321 . S
C169 H193 0.930 . S
H170 C165 0.931 . S
Co171 N168 2.135 . S
Co171 N174 2.121 . S
Co171 O179 2.055 . S
Co171 O182 2.039 . S
Co171 N185 2.140 . S
C172 O173 1.227 . S
C172 O182 1.265 . S
O173 C172 1.227 . S
N174 Co171 2.121 . S
N174 C176 1.375 . S
N174 C177 1.313 . S
C175 C176 1.338 . S
C175 N178 1.377 . S
C175 H195 0.930 . S
C176 N174 1.375 . S
C176 C175 1.338 . S
C176 H180 0.931 . S
C177 N174 1.313 . S
C177 N178 1.344 . S
C177 H181 0.930 . S
N178 C175 1.377 . S
N178 C177 1.344 . S
O179 Co171 2.055 . S
O179 C183 1.253 . S
H180 C176 0.931 . S
H181 C177 0.930 . S
O182 Co171 2.039 . S
O182 C172 1.265 . S
C183 O179 1.253 . S
C183 O184 1.227 . S
O184 C183 1.227 . S
N185 Co171 2.140 . S
N185 C188 1.346 . S
N185 C189 1.345 . S
C186 C187 1.387 . S
C186 C190 1.391 . S
C187 C186 1.387 . S
C187 C188 1.369 . S
C187 H196 0.929 . S
C188 N185 1.346 . S
C188 C187 1.369 . S
C188 H191 0.928 . S
C189 N185 1.345 . S
C189 C190 1.371 . S
C189 H192 0.931 . S
C190 C186 1.391 . S
C190 C189 1.371 . S
C190 H197 0.930 . S
H191 C188 0.928 . S
H192 C189 0.931 . S
H193 C169 0.930 . S
H194 C166 0.930 . S
H195 C175 0.930 . S
H196 C187 0.929 . S
H197 C190 0.930 . S
C198 C199 1.351 . S
C198 N201 1.368 . S
C198 H203 0.931 . S
C199 C198 1.351 . S
C199 N200 1.373 . S
C199 H227 0.930 . S
N200 C199 1.373 . S
N200 C202 1.340 . S
N201 C198 1.368 . S
N201 C202 1.321 . S
N201 Co204 2.135 . S
C202 N200 1.340 . S
C202 N201 1.321 . S
C202 H226 0.930 . S
H203 C198 0.931 . S
Co204 N201 2.135 . S
Co204 N207 2.121 . S
Co204 O212 2.055 . S
Co204 O215 2.039 . S
Co204 N218 2.140 . S
C205 O206 1.227 . S
C205 O215 1.265 . S
O206 C205 1.227 . S
N207 Co204 2.121 . S
N207 C209 1.375 . S
N207 C210 1.313 . S
C208 C209 1.338 . S
C208 N211 1.377 . S
C208 H228 0.930 . S
C209 N207 1.375 . S
C209 C208 1.338 . S
C209 H213 0.931 . S
C210 N207 1.313 . S
C210 N211 1.344 . S
C210 H214 0.930 . S
N211 C208 1.377 . S
N211 C210 1.344 . S
O212 Co204 2.055 . S
O212 C216 1.253 . S
H213 C209 0.931 . S
H214 C210 0.930 . S
O215 Co204 2.039 . S
O215 C205 1.265 . S
C216 O212 1.253 . S
C216 O217 1.227 . S
O217 C216 1.227 . S
N218 Co204 2.140 . S
N218 C221 1.346 . S
N218 C222 1.345 . S
C219 C220 1.387 . S
C219 C223 1.391 . S
C220 C219 1.387 . S
C220 C221 1.369 . S
C220 H229 0.929 . S
C221 N218 1.346 . S
C221 C220 1.369 . S
C221 H224 0.928 . S
C222 N218 1.345 . S
C222 C223 1.371 . S
C222 H225 0.931 . S
C223 C219 1.391 . S
C223 C222 1.371 . S
C223 H230 0.930 . S
H224 C221 0.928 . S
H225 C222 0.931 . S
H226 C202 0.930 . S
H227 C199 0.930 . S
H228 C208 0.930 . S
H229 C220 0.929 . S
H230 C223 0.930 . S
C231 C232 1.351 . S
C231 N234 1.368 . S
C231 H236 0.931 . S
C232 C231 1.351 . S
C232 N233 1.373 1_455 S
C232 H260 0.930 . S
N233 C232 1.373 1_655 S
N233 C235 1.340 . S
N234 C231 1.368 . S
N234 C235 1.321 1_455 S
N234 Co237 2.135 . S
C235 N233 1.340 . S
C235 N234 1.321 1_655 S
C235 H259 0.930 . S
H236 C231 0.931 . S
Co237 N234 2.135 . S
Co237 N240 2.121 . S
Co237 O245 2.055 . S
Co237 O248 2.039 1_455 S
Co237 N251 2.140 . S
C238 O239 1.241 . S
C238 O248 1.265 . S
O239 C238 1.241 . S
N240 Co237 2.121 . S
N240 C242 1.375 . S
N240 C243 1.313 . S
C241 C242 1.338 . S
C241 N244 1.377 . S
C241 H261 0.930 . S
C242 N240 1.375 . S
C242 C241 1.338 . S
C242 H246 0.931 . S
C243 N240 1.313 . S
C243 N244 1.344 . S
C243 H247 0.930 . S
N244 C241 1.377 . S
N244 C243 1.344 . S
O245 Co237 2.055 . S
O245 C249 1.253 . S
H246 C242 0.931 . S
H247 C243 0.930 . S
O248 Co237 2.039 1_655 S
O248 C238 1.265 . S
C249 O245 1.253 . S
C249 O250 1.227 . S
O250 C249 1.227 . S
N251 Co237 2.140 . S
N251 C254 1.346 . S
N251 C255 1.345 . S
C252 C253 1.387 . S
C252 C256 1.391 . S
C253 C252 1.387 . S
C253 C254 1.369 . S
C253 H262 0.929 . S
C254 N251 1.346 . S
C254 C253 1.369 . S
C254 H257 0.928 . S
C255 N251 1.345 . S
C255 C256 1.371 . S
C255 H258 0.931 . S
C256 C252 1.391 . S
C256 C255 1.371 . S
C256 H263 0.930 . S
H257 C254 0.928 . S
H258 C255 0.931 . S
H259 C235 0.930 . S
H260 C232 0.930 . S
H261 C241 0.930 . S
H262 C253 0.929 . S
H263 C256 0.930 . S
C264 C265 1.351 . S
C264 N267 1.368 . S
C264 H269 0.931 . S
C265 C264 1.351 . S
C265 N266 1.373 . S
C265 H293 0.930 . S
N266 C265 1.373 . S
N266 C268 1.340 . S
N267 C264 1.368 . S
N267 C268 1.321 . S
N267 Co270 2.135 . S
C268 N266 1.340 . S
C268 N267 1.321 . S
C268 H292 0.930 . S
H269 C264 0.931 . S
Co270 N267 2.135 . S
Co270 N273 2.121 . S
Co270 O278 2.055 . S
Co270 O281 2.039 . S
Co270 N284 2.140 . S
C271 O272 1.227 . S
C271 O281 1.265 . S
O272 C271 1.227 . S
N273 Co270 2.121 . S
N273 C275 1.375 . S
N273 C276 1.313 . S
C274 C275 1.338 . S
C274 N277 1.377 . S
C274 H294 0.930 . S
C275 N273 1.375 . S
C275 C274 1.338 . S
C275 H279 0.931 . S
C276 N273 1.313 . S
C276 N277 1.344 . S
C276 H280 0.930 . S
N277 C274 1.377 . S
N277 C276 1.344 . S
O278 Co270 2.055 . S
O278 C282 1.253 . S
H279 C275 0.931 . S
H280 C276 0.930 . S
O281 Co270 2.039 . S
O281 C271 1.265 . S
C282 O278 1.253 . S
C282 O283 1.227 . S
O283 C282 1.227 . S
N284 Co270 2.140 . S
N284 C287 1.346 . S
N284 C288 1.345 . S
C285 C286 1.387 . S
C285 C289 1.391 . S
C286 C285 1.387 . S
C286 C287 1.369 . S
C286 H295 0.929 . S
C287 N284 1.346 . S
C287 C286 1.369 . S
C287 H290 0.928 . S
C288 N284 1.345 . S
C288 C289 1.371 . S
C288 H291 0.931 . S
C289 C285 1.391 . S
C289 C288 1.371 . S
C289 H296 0.930 . S
H290 C287 0.928 . S
H291 C288 0.931 . S
H292 C268 0.930 . S
H293 C265 0.930 . S
H294 C274 0.930 . S
H295 C286 0.929 . S
H296 C289 0.930 . S
C297 C298 1.351 . S
C297 N300 1.368 . S
C297 H302 0.931 . S
C298 C297 1.351 . S
C298 N299 1.373 1_556 S
C298 H326 0.930 . S
N299 C298 1.373 1_554 S
N299 C301 1.340 . S
N300 C297 1.368 . S
N300 C301 1.321 1_556 S
N300 Co303 2.135 . S
C301 N299 1.340 . S
C301 N300 1.321 1_554 S
C301 H325 0.930 . S
H302 C297 0.931 . S
Co303 N300 2.135 . S
Co303 N306 2.121 . S
Co303 O311 2.055 . S
Co303 O314 2.039 1_556 S
Co303 N317 2.140 . S
C304 O305 1.241 . S
C304 O314 1.265 . S
O305 C304 1.241 . S
N306 Co303 2.121 . S
N306 C308 1.375 . S
N306 C309 1.313 . S
C307 C308 1.338 . S
C307 N310 1.377 . S
C307 H327 0.930 . S
C308 N306 1.375 . S
C308 C307 1.338 . S
C308 H312 0.931 . S
C309 N306 1.313 . S
C309 N310 1.344 . S
C309 H313 0.930 . S
N310 C307 1.377 . S
N310 C309 1.344 . S
O311 Co303 2.055 . S
O311 C315 1.253 . S
H312 C308 0.931 . S
H313 C309 0.930 . S
O314 Co303 2.039 1_554 S
O314 C304 1.265 . S
C315 O311 1.253 . S
C315 O316 1.227 . S
O316 C315 1.227 . S
N317 Co303 2.140 . S
N317 C320 1.346 . S
N317 C321 1.345 . S
C318 C319 1.387 . S
C318 C322 1.391 . S
C319 C318 1.387 . S
C319 C320 1.369 . S
C319 H328 0.929 . S
C320 N317 1.346 . S
C320 C319 1.369 . S
C320 H323 0.928 . S
C321 N317 1.345 . S
C321 C322 1.371 . S
C321 H324 0.931 . S
C322 C318 1.391 . S
C322 C321 1.371 . S
C322 H329 0.930 . S
H323 C320 0.928 . S
H324 C321 0.931 . S
H325 C301 0.930 . S
H326 C298 0.930 . S
H327 C307 0.930 . S
H328 C319 0.929 . S
H329 C322 0.930 . S
C330 C331 1.351 . S
C330 N333 1.368 . S
C330 H335 0.931 . S
C331 C330 1.351 . S
C331 N332 1.373 . S
C331 H359 0.930 . S
N332 C331 1.373 . S
N332 C334 1.340 . S
N333 C330 1.368 . S
N333 C334 1.321 . S
N333 Co336 2.135 . S
C334 N332 1.340 . S
C334 N333 1.321 . S
C334 H358 0.930 . S
H335 C330 0.931 . S
Co336 N333 2.135 . S
Co336 N339 2.121 . S
Co336 O344 2.055 . S
Co336 O347 2.039 . S
Co336 N350 2.140 . S
C337 O338 1.227 . S
C337 O347 1.265 . S
O338 C337 1.227 . S
N339 Co336 2.121 . S
N339 C341 1.375 . S
N339 C342 1.313 . S
C340 C341 1.338 . S
C340 N343 1.377 . S
C340 H360 0.930 . S
C341 N339 1.375 . S
C341 C340 1.338 . S
C341 H345 0.931 . S
C342 N339 1.313 . S
C342 N343 1.344 . S
C342 H346 0.930 . S
N343 C340 1.377 . S
N343 C342 1.344 . S
O344 Co336 2.055 . S
O344 C348 1.253 . S
H345 C341 0.931 . S
H346 C342 0.930 . S
O347 Co336 2.039 . S
O347 C337 1.265 . S
C348 O344 1.253 . S
C348 O349 1.227 . S
O349 C348 1.227 . S
N350 Co336 2.140 . S
N350 C353 1.346 . S
N350 C354 1.345 . S
C351 C352 1.387 . S
C351 C355 1.391 . S
C352 C351 1.387 . S
C352 C353 1.369 . S
C352 H361 0.929 . S
C353 N350 1.346 . S
C353 C352 1.369 . S
C353 H356 0.928 . S
C354 N350 1.345 . S
C354 C355 1.371 . S
C354 H357 0.931 . S
C355 C351 1.391 . S
C355 C354 1.371 . S
C355 H362 0.930 . S
H356 C353 0.928 . S
H357 C354 0.931 . S
H358 C334 0.930 . S
H359 C331 0.930 . S
H360 C340 0.930 . S
H361 C352 0.929 . S
H362 C355 0.930 . S
C363 C364 1.351 . S
C363 N366 1.368 . S
C363 H368 0.931 . S
C364 C363 1.351 . S
C364 N365 1.373 . S
C364 H392 0.930 . S
N365 C364 1.373 . S
N365 C367 1.340 . S
N366 C363 1.368 . S
N366 C367 1.321 . S
N366 Co369 2.135 . S
C367 N365 1.340 . S
C367 N366 1.321 . S
C367 H391 0.930 . S
H368 C363 0.931 . S
Co369 N366 2.135 . S
Co369 N372 2.121 . S
Co369 O377 2.055 . S
Co369 O380 2.039 . S
Co369 N383 2.140 . S
C370 O371 1.227 . S
C370 O380 1.265 . S
O371 C370 1.227 . S
N372 Co369 2.121 . S
N372 C374 1.375 . S
N372 C375 1.313 . S
C373 C374 1.338 . S
C373 N376 1.377 . S
C373 H393 0.930 . S
C374 N372 1.375 . S
C374 C373 1.338 . S
C374 H378 0.931 . S
C375 N372 1.313 . S
C375 N376 1.344 . S
C375 H379 0.930 . S
N376 C373 1.377 . S
N376 C375 1.344 . S
O377 Co369 2.055 . S
O377 C381 1.253 . S
H378 C374 0.931 . S
H379 C375 0.930 . S
O380 Co369 2.039 . S
O380 C370 1.265 . S
C381 O377 1.253 . S
C381 O382 1.227 . S
O382 C381 1.227 . S
N383 Co369 2.140 . S
N383 C386 1.346 . S
N383 C387 1.345 . S
C384 C385 1.387 . S
C384 C388 1.391 . S
C385 C384 1.387 . S
C385 C386 1.369 . S
C385 H394 0.929 . S
C386 N383 1.346 . S
C386 C385 1.369 . S
C386 H389 0.928 . S
C387 N383 1.345 . S
C387 C388 1.371 . S
C387 H390 0.931 . S
C388 C384 1.391 . S
C388 C387 1.371 . S
C388 H395 0.930 . S
H389 C386 0.928 . S
H390 C387 0.931 . S
H391 C367 0.930 . S
H392 C364 0.930 . S
H393 C373 0.930 . S
H394 C385 0.929 . S
H395 C388 0.930 . S
C396 C397 1.351 . S
C396 N399 1.368 . S
C396 H401 0.931 . S
C397 C396 1.351 . S
C397 N398 1.373 . S
C397 H425 0.930 . S
N398 C397 1.373 . S
N398 C400 1.340 . S
N399 C396 1.368 . S
N399 C400 1.321 . S
N399 Co402 2.135 . S
C400 N398 1.340 . S
C400 N399 1.321 . S
C400 H424 0.930 . S
H401 C396 0.931 . S
Co402 N399 2.135 . S
Co402 N405 2.121 . S
Co402 O410 2.055 . S
Co402 O413 2.039 . S
Co402 N416 2.140 . S
C403 O404 1.227 . S
C403 O413 1.265 . S
O404 C403 1.227 . S
N405 Co402 2.121 . S
N405 C407 1.375 . S
N405 C408 1.313 . S
C406 C407 1.338 . S
C406 N409 1.377 . S
C406 H426 0.930 . S
C407 N405 1.375 . S
C407 C406 1.338 . S
C407 H411 0.931 . S
C408 N405 1.313 . S
C408 N409 1.344 . S
C408 H412 0.930 . S
N409 C406 1.377 . S
N409 C408 1.344 . S
O410 Co402 2.055 . S
O410 C414 1.253 . S
H411 C407 0.931 . S
H412 C408 0.930 . S
O413 Co402 2.039 . S
O413 C403 1.265 . S
C414 O410 1.253 . S
C414 O415 1.227 . S
O415 C414 1.227 . S
N416 Co402 2.140 . S
N416 C419 1.346 . S
N416 C420 1.345 . S
C417 C418 1.387 . S
C417 C421 1.391 . S
C418 C417 1.387 . S
C418 C419 1.369 . S
C418 H427 0.929 . S
C419 N416 1.346 . S
C419 C418 1.369 . S
C419 H422 0.928 . S
C420 N416 1.345 . S
C420 C421 1.371 . S
C420 H423 0.931 . S
C421 C417 1.391 . S
C421 C420 1.371 . S
C421 H428 0.930 . S
H422 C419 0.928 . S
H423 C420 0.931 . S
H424 C400 0.930 . S
H425 C397 0.930 . S
H426 C406 0.930 . S
H427 C418 0.929 . S
H428 C421 0.930 . S
C429 C430 1.351 . S
C429 N432 1.368 . S
C429 H434 0.931 . S
C430 C429 1.351 . S
C430 N431 1.373 . S
C430 H458 0.930 . S
N431 C430 1.373 . S
N431 C433 1.340 . S
N432 C429 1.368 . S
N432 C433 1.321 . S
N432 Co435 2.135 . S
C433 N431 1.340 . S
C433 N432 1.321 . S
C433 H457 0.930 . S
H434 C429 0.931 . S
Co435 N432 2.135 . S
Co435 N438 2.121 . S
Co435 O443 2.055 . S
Co435 O446 2.039 . S
Co435 N449 2.140 . S
C436 O437 1.227 . S
C436 O446 1.265 . S
O437 C436 1.227 . S
N438 Co435 2.121 . S
N438 C440 1.375 . S
N438 C441 1.313 . S
C439 C440 1.338 . S
C439 N442 1.377 . S
C439 H459 0.930 . S
C440 N438 1.375 . S
C440 C439 1.338 . S
C440 H444 0.931 . S
C441 N438 1.313 . S
C441 N442 1.344 . S
C441 H445 0.930 . S
N442 C439 1.377 . S
N442 C441 1.344 . S
O443 Co435 2.055 . S
O443 C447 1.253 . S
H444 C440 0.931 . S
H445 C441 0.930 . S
O446 Co435 2.039 . S
O446 C436 1.265 . S
C447 O443 1.253 . S
C447 O448 1.227 . S
O448 C447 1.227 . S
N449 Co435 2.140 . S
N449 C452 1.346 . S
N449 C453 1.345 . S
C450 C451 1.387 . S
C450 C454 1.391 . S
C451 C450 1.387 . S
C451 C452 1.369 . S
C451 H460 0.929 . S
C452 N449 1.346 . S
C452 C451 1.369 . S
C452 H455 0.928 . S
C453 N449 1.345 . S
C453 C454 1.371 . S
C453 H456 0.931 . S
C454 C450 1.391 . S
C454 C453 1.371 . S
C454 H461 0.930 . S
H455 C452 0.928 . S
H456 C453 0.931 . S
H457 C433 0.930 . S
H458 C430 0.930 . S
H459 C439 0.930 . S
H460 C451 0.929 . S
H461 C454 0.930 . S
C462 C463 1.351 . S
C462 N465 1.368 . S
C462 H467 0.931 . S
C463 C462 1.351 . S
C463 N464 1.373 . S
C463 H491 0.930 . S
N464 C463 1.373 . S
N464 C466 1.340 . S
N465 C462 1.368 . S
N465 C466 1.321 . S
N465 Co468 2.135 . S
C466 N464 1.340 . S
C466 N465 1.321 . S
C466 H490 0.930 . S
H467 C462 0.931 . S
Co468 N465 2.135 . S
Co468 N471 2.121 . S
Co468 O476 2.055 . S
Co468 O479 2.039 . S
Co468 N482 2.140 . S
C469 O470 1.227 . S
C469 O479 1.265 . S
O470 C469 1.227 . S
N471 Co468 2.121 . S
N471 C473 1.375 . S
N471 C474 1.313 . S
C472 C473 1.338 . S
C472 N475 1.377 . S
C472 H492 0.930 . S
C473 N471 1.375 . S
C473 C472 1.338 . S
C473 H477 0.931 . S
C474 N471 1.313 . S
C474 N475 1.344 . S
C474 H478 0.930 . S
N475 C472 1.377 . S
N475 C474 1.344 . S
O476 Co468 2.055 . S
O476 C480 1.253 . S
H477 C473 0.931 . S
H478 C474 0.930 . S
O479 Co468 2.039 . S
O479 C469 1.265 . S
C480 O476 1.253 . S
C480 O481 1.227 . S
O481 C480 1.227 . S
N482 Co468 2.140 . S
N482 C485 1.346 . S
N482 C486 1.345 . S
C483 C484 1.387 . S
C483 C487 1.391 . S
C484 C483 1.387 . S
C484 C485 1.369 . S
C484 H493 0.929 . S
C485 N482 1.346 . S
C485 C484 1.369 . S
C485 H488 0.928 . S
C486 N482 1.345 . S
C486 C487 1.371 . S
C486 H489 0.931 . S
C487 C483 1.391 . S
C487 C486 1.371 . S
C487 H494 0.930 . S
H488 C485 0.928 . S
H489 C486 0.931 . S
H490 C466 0.930 . S
H491 C463 0.930 . S
H492 C472 0.930 . S
H493 C484 0.929 . S
H494 C487 0.930 . S
C495 C496 1.351 . S
C495 N498 1.368 . S
C495 H500 0.931 . S
C496 C495 1.351 . S
C496 N497 1.373 1_554 S
C496 H524 0.930 . S
N497 C496 1.373 1_556 S
N497 C499 1.340 . S
N498 C495 1.368 . S
N498 C499 1.321 1_554 S
N498 Co501 2.135 . S
C499 N497 1.340 . S
C499 N498 1.321 1_556 S
C499 H523 0.930 . S
H500 C495 0.931 . S
Co501 N498 2.135 . S
Co501 N504 2.121 . S
Co501 O509 2.055 . S
Co501 O512 2.039 1_554 S
Co501 N515 2.140 . S
C502 O503 1.241 . S
C502 O512 1.265 . S
O503 C502 1.241 . S
N504 Co501 2.121 . S
N504 C506 1.375 . S
N504 C507 1.313 . S
C505 C506 1.338 . S
C505 N508 1.377 . S
C505 H525 0.930 . S
C506 N504 1.375 . S
C506 C505 1.338 . S
C506 H510 0.931 . S
C507 N504 1.313 . S
C507 N508 1.344 . S
C507 H511 0.930 . S
N508 C505 1.377 . S
N508 C507 1.344 . S
O509 Co501 2.055 . S
O509 C513 1.253 . S
H510 C506 0.931 . S
H511 C507 0.930 . S
O512 Co501 2.039 1_556 S
O512 C502 1.265 . S
C513 O509 1.253 . S
C513 O514 1.227 . S
O514 C513 1.227 . S
N515 Co501 2.140 . S
N515 C518 1.346 . S
N515 C519 1.345 . S
C516 C517 1.387 . S
C516 C520 1.391 . S
C517 C516 1.387 . S
C517 C518 1.369 . S
C517 H526 0.929 . S
C518 N515 1.346 . S
C518 C517 1.369 . S
C518 H521 0.928 . S
C519 N515 1.345 . S
C519 C520 1.371 . S
C519 H522 0.931 . S
C520 C516 1.391 . S
C520 C519 1.371 . S
C520 H527 0.930 . S
H521 C518 0.928 . S
H522 C519 0.931 . S
H523 C499 0.930 . S
H524 C496 0.930 . S
H525 C505 0.930 . S
H526 C517 0.929 . S
H527 C520 0.930 . S
C528 C529 1.351 . S
C528 N531 1.368 . S
C528 H533 0.931 . S
C529 C528 1.351 . S
C529 N530 1.373 . S
C529 H557 0.930 . S
N530 C529 1.373 . S
N530 C532 1.340 . S
N531 C528 1.368 . S
N531 C532 1.321 . S
N531 Co534 2.135 . S
C532 N530 1.340 . S
C532 N531 1.321 . S
C532 H556 0.930 . S
H533 C528 0.931 . S
Co534 N531 2.135 . S
Co534 N537 2.121 . S
Co534 O542 2.055 . S
Co534 O545 2.039 . S
Co534 N548 2.140 . S
C535 O536 1.227 . S
C535 O545 1.265 . S
O536 C535 1.227 . S
N537 Co534 2.121 . S
N537 C539 1.375 . S
N537 C540 1.313 . S
C538 C539 1.338 . S
C538 N541 1.377 . S
C538 H558 0.930 . S
C539 N537 1.375 . S
C539 C538 1.338 . S
C539 H543 0.931 . S
C540 N537 1.313 . S
C540 N541 1.344 . S
C540 H544 0.930 . S
N541 C538 1.377 . S
N541 C540 1.344 . S
O542 Co534 2.055 . S
O542 C546 1.253 . S
H543 C539 0.931 . S
H544 C540 0.930 . S
O545 Co534 2.039 . S
O545 C535 1.265 . S
C546 O542 1.253 . S
C546 O547 1.227 . S
O547 C546 1.227 . S
N548 Co534 2.140 . S
N548 C551 1.346 . S
N548 C552 1.345 . S
C549 C550 1.387 . S
C549 C553 1.391 . S
C550 C549 1.387 . S
C550 C551 1.369 . S
C550 H559 0.929 . S
C551 N548 1.346 . S
C551 C550 1.369 . S
C551 H554 0.928 . S
C552 N548 1.345 . S
C552 C553 1.371 . S
C552 H555 0.931 . S
C553 C549 1.391 . S
C553 C552 1.371 . S
C553 H560 0.930 . S
H554 C551 0.928 . S
H555 C552 0.931 . S
H556 C532 0.930 . S
H557 C529 0.930 . S
H558 C538 0.930 . S
H559 C550 0.929 . S
H560 C553 0.930 . S
C561 C562 1.351 . S
C561 N564 1.368 . S
C561 H566 0.931 . S
C562 C561 1.351 . S
C562 N563 1.373 . S
C562 H590 0.930 . S
N563 C562 1.373 . S
N563 C565 1.340 . S
N564 C561 1.368 . S
N564 C565 1.321 . S
N564 Co567 2.135 . S
C565 N563 1.340 . S
C565 N564 1.321 . S
C565 H589 0.930 . S
H566 C561 0.931 . S
Co567 N564 2.135 . S
Co567 N570 2.121 . S
Co567 O575 2.055 . S
Co567 O578 2.039 . S
Co567 N581 2.140 . S
C568 O569 1.227 . S
C568 O578 1.265 . S
O569 C568 1.227 . S
N570 Co567 2.121 . S
N570 C572 1.375 . S
N570 C573 1.313 . S
C571 C572 1.338 . S
C571 N574 1.377 . S
C571 H591 0.930 . S
C572 N570 1.375 . S
C572 C571 1.338 . S
C572 H576 0.931 . S
C573 N570 1.313 . S
C573 N574 1.344 . S
C573 H577 0.930 . S
N574 C571 1.377 . S
N574 C573 1.344 . S
O575 Co567 2.055 . S
O575 C579 1.253 . S
H576 C572 0.931 . S
H577 C573 0.930 . S
O578 Co567 2.039 . S
O578 C568 1.265 . S
C579 O575 1.253 . S
C579 O580 1.227 . S
O580 C579 1.227 . S
N581 Co567 2.140 . S
N581 C584 1.346 . S
N581 C585 1.345 . S
C582 C583 1.387 . S
C582 C586 1.391 . S
C583 C582 1.387 . S
C583 C584 1.369 . S
C583 H592 0.929 . S
C584 N581 1.346 . S
C584 C583 1.369 . S
C584 H587 0.928 . S
C585 N581 1.345 . S
C585 C586 1.371 . S
C585 H588 0.931 . S
C586 C582 1.391 . S
C586 C585 1.371 . S
C586 H593 0.930 . S
H587 C584 0.928 . S
H588 C585 0.931 . S
H589 C565 0.930 . S
H590 C562 0.930 . S
H591 C571 0.930 . S
H592 C583 0.929 . S
H593 C586 0.930 . S
C594 C595 1.351 . S
C594 N597 1.368 . S
C594 H599 0.931 . S
C595 C594 1.351 . S
C595 N596 1.373 1_565 S
C595 H623 0.930 . S
N596 C595 1.373 1_545 S
N596 C598 1.340 . S
N597 C594 1.368 . S
N597 C598 1.321 1_565 S
N597 Co600 2.135 . S
C598 N596 1.340 . S
C598 N597 1.321 1_545 S
C598 H622 0.930 . S
H599 C594 0.931 . S
Co600 N597 2.135 . S
Co600 N603 2.121 . S
Co600 O608 2.055 . S
Co600 O611 2.039 1_565 S
Co600 N614 2.140 . S
C601 O602 1.241 . S
C601 O611 1.265 . S
O602 C601 1.241 . S
N603 Co600 2.121 . S
N603 C605 1.375 . S
N603 C606 1.313 . S
C604 C605 1.338 . S
C604 N607 1.377 . S
C604 H624 0.930 . S
C605 N603 1.375 . S
C605 C604 1.338 . S
C605 H609 0.931 . S
C606 N603 1.313 . S
C606 N607 1.344 . S
C606 H610 0.930 . S
N607 C604 1.377 . S
N607 C606 1.344 . S
O608 Co600 2.055 . S
O608 C612 1.253 . S
H609 C605 0.931 . S
H610 C606 0.930 . S
O611 Co600 2.039 1_545 S
O611 C601 1.265 . S
C612 O608 1.253 . S
C612 O613 1.227 . S
O613 C612 1.227 . S
N614 Co600 2.140 . S
N614 C617 1.346 . S
N614 C618 1.345 . S
C615 C616 1.387 . S
C615 C619 1.391 . S
C616 C615 1.387 . S
C616 C617 1.369 . S
C616 H625 0.929 . S
C617 N614 1.346 . S
C617 C616 1.369 . S
C617 H620 0.928 . S
C618 N614 1.345 . S
C618 C619 1.371 . S
C618 H621 0.931 . S
C619 C615 1.391 . S
C619 C618 1.371 . S
C619 H626 0.930 . S
H620 C617 0.928 . S
H621 C618 0.931 . S
H622 C598 0.930 . S
H623 C595 0.930 . S
H624 C604 0.930 . S
H625 C616 0.929 . S
H626 C619 0.930 . S
C627 C628 1.351 . S
C627 N630 1.368 . S
C627 H632 0.931 . S
C628 C627 1.351 . S
C628 N629 1.373 . S
C628 H656 0.930 . S
N629 C628 1.373 . S
N629 C631 1.340 . S
N630 C627 1.368 . S
N630 C631 1.321 . S
N630 Co633 2.135 . S
C631 N629 1.340 . S
C631 N630 1.321 . S
C631 H655 0.930 . S
H632 C627 0.931 . S
Co633 N630 2.135 . S
Co633 N636 2.121 . S
Co633 O641 2.055 . S
Co633 O644 2.039 . S
Co633 N647 2.140 . S
C634 O635 1.227 . S
C634 O644 1.265 . S
O635 C634 1.227 . S
N636 Co633 2.121 . S
N636 C638 1.375 . S
N636 C639 1.313 . S
C637 C638 1.338 . S
C637 N640 1.377 . S
C637 H657 0.930 . S
C638 N636 1.375 . S
C638 C637 1.338 . S
C638 H642 0.931 . S
C639 N636 1.313 . S
C639 N640 1.344 . S
C639 H643 0.930 . S
N640 C637 1.377 . S
N640 C639 1.344 . S
O641 Co633 2.055 . S
O641 C645 1.253 . S
H642 C638 0.931 . S
H643 C639 0.930 . S
O644 Co633 2.039 . S
O644 C634 1.265 . S
C645 O641 1.253 . S
C645 O646 1.227 . S
O646 C645 1.227 . S
N647 Co633 2.140 . S
N647 C650 1.346 . S
N647 C651 1.345 . S
C648 C649 1.387 . S
C648 C652 1.391 . S
C649 C648 1.387 . S
C649 C650 1.369 . S
C649 H658 0.929 . S
C650 N647 1.346 . S
C650 C649 1.369 . S
C650 H653 0.928 . S
C651 N647 1.345 . S
C651 C652 1.371 . S
C651 H654 0.931 . S
C652 C648 1.391 . S
C652 C651 1.371 . S
C652 H659 0.930 . S
H653 C650 0.928 . S
H654 C651 0.931 . S
H655 C631 0.930 . S
H656 C628 0.930 . S
H657 C637 0.930 . S
H658 C649 0.929 . S
H659 C652 0.930 . S
C660 C661 1.351 . S
C660 N663 1.368 . S
C660 H665 0.931 . S
C661 C660 1.351 . S
C661 N662 1.373 1_545 S
C661 H689 0.930 . S
N662 C661 1.373 1_565 S
N662 C664 1.340 . S
N663 C660 1.368 . S
N663 C664 1.321 1_545 S
N663 Co666 2.135 . S
C664 N662 1.340 . S
C664 N663 1.321 1_565 S
C664 H688 0.930 . S
H665 C660 0.931 . S
Co666 N663 2.135 . S
Co666 N669 2.121 . S
Co666 O674 2.055 . S
Co666 O677 2.039 1_545 S
Co666 N680 2.140 . S
C667 O668 1.241 . S
C667 O677 1.265 . S
O668 C667 1.241 . S
N669 Co666 2.121 . S
N669 C671 1.375 . S
N669 C672 1.313 . S
C670 C671 1.338 . S
C670 N673 1.377 . S
C670 H690 0.930 . S
C671 N669 1.375 . S
C671 C670 1.338 . S
C671 H675 0.931 . S
C672 N669 1.313 . S
C672 N673 1.344 . S
C672 H676 0.930 . S
N673 C670 1.377 . S
N673 C672 1.344 . S
O674 Co666 2.055 . S
O674 C678 1.253 . S
H675 C671 0.931 . S
H676 C672 0.930 . S
O677 Co666 2.039 1_565 S
O677 C667 1.265 . S
C678 O674 1.253 . S
C678 O679 1.227 . S
O679 C678 1.227 . S
N680 Co666 2.140 . S
N680 C683 1.346 . S
N680 C684 1.345 . S
C681 C682 1.387 . S
C681 C685 1.391 . S
C682 C681 1.387 . S
C682 C683 1.369 . S
C682 H691 0.929 . S
C683 N680 1.346 . S
C683 C682 1.369 . S
C683 H686 0.928 . S
C684 N680 1.345 . S
C684 C685 1.371 . S
C684 H687 0.931 . S
C685 C681 1.391 . S
C685 C684 1.371 . S
C685 H692 0.930 . S
H686 C683 0.928 . S
H687 C684 0.931 . S
H688 C664 0.930 . S
H689 C661 0.930 . S
H690 C670 0.930 . S
H691 C682 0.929 . S
H692 C685 0.930 . S
C693 C694 1.351 . S
C693 N696 1.368 . S
C693 H698 0.931 . S
C694 C693 1.351 . S
C694 N695 1.373 . S
C694 H722 0.930 . S
N695 C694 1.373 . S
N695 C697 1.340 . S
N696 C693 1.368 . S
N696 C697 1.321 . S
N696 Co699 2.135 . S
C697 N695 1.340 . S
C697 N696 1.321 . S
C697 H721 0.930 . S
H698 C693 0.931 . S
Co699 N696 2.135 . S
Co699 N702 2.121 . S
Co699 O707 2.055 . S
Co699 O710 2.039 . S
Co699 N713 2.140 . S
C700 O701 1.227 . S
C700 O710 1.265 . S
O701 C700 1.227 . S
N702 Co699 2.121 . S
N702 C704 1.375 . S
N702 C705 1.313 . S
C703 C704 1.338 . S
C703 N706 1.377 . S
C703 H723 0.930 . S
C704 N702 1.375 . S
C704 C703 1.338 . S
C704 H708 0.931 . S
C705 N702 1.313 . S
C705 N706 1.344 . S
C705 H709 0.930 . S
N706 C703 1.377 . S
N706 C705 1.344 . S
O707 Co699 2.055 . S
O707 C711 1.253 . S
H708 C704 0.931 . S
H709 C705 0.930 . S
O710 Co699 2.039 . S
O710 C700 1.265 . S
C711 O707 1.253 . S
C711 O712 1.227 . S
O712 C711 1.227 . S
N713 Co699 2.140 . S
N713 C716 1.346 . S
N713 C717 1.345 . S
C714 C715 1.387 . S
C714 C718 1.391 . S
C715 C714 1.387 . S
C715 C716 1.369 . S
C715 H724 0.929 . S
C716 N713 1.346 . S
C716 C715 1.369 . S
C716 H719 0.928 . S
C717 N713 1.345 . S
C717 C718 1.371 . S
C717 H720 0.931 . S
C718 C714 1.391 . S
C718 C717 1.371 . S
C718 H725 0.930 . S
H719 C716 0.928 . S
H720 C717 0.931 . S
H721 C697 0.930 . S
H722 C694 0.930 . S
H723 C703 0.930 . S
H724 C715 0.929 . S
H725 C718 0.930 . S
C726 C727 1.351 . S
C726 N729 1.368 . S
C726 H731 0.931 . S
C727 C726 1.351 . S
C727 N728 1.373 . S
C727 H755 0.930 . S
N728 C727 1.373 . S
N728 C730 1.340 . S
N729 C726 1.368 . S
N729 C730 1.321 . S
N729 Co732 2.135 . S
C730 N728 1.340 . S
C730 N729 1.321 . S
C730 H754 0.930 . S
H731 C726 0.931 . S
Co732 N729 2.135 . S
Co732 N735 2.121 . S
Co732 O740 2.055 . S
Co732 O743 2.039 . S
Co732 N746 2.140 . S
C733 O734 1.227 . S
C733 O743 1.265 . S
O734 C733 1.227 . S
N735 Co732 2.121 . S
N735 C737 1.375 . S
N735 C738 1.313 . S
C736 C737 1.338 . S
C736 N739 1.377 . S
C736 H756 0.930 . S
C737 N735 1.375 . S
C737 C736 1.338 . S
C737 H741 0.931 . S
C738 N735 1.313 . S
C738 N739 1.344 . S
C738 H742 0.930 . S
N739 C736 1.377 . S
N739 C738 1.344 . S
O740 Co732 2.055 . S
O740 C744 1.253 . S
H741 C737 0.931 . S
H742 C738 0.930 . S
O743 Co732 2.039 . S
O743 C733 1.265 . S
C744 O740 1.253 . S
C744 O745 1.227 . S
O745 C744 1.227 . S
N746 Co732 2.140 . S
N746 C749 1.346 . S
N746 C750 1.345 . S
C747 C748 1.387 . S
C747 C751 1.391 . S
C748 C747 1.387 . S
C748 C749 1.369 . S
C748 H757 0.929 . S
C749 N746 1.346 . S
C749 C748 1.369 . S
C749 H752 0.928 . S
C750 N746 1.345 . S
C750 C751 1.371 . S
C750 H753 0.931 . S
C751 C747 1.391 . S
C751 C750 1.371 . S
C751 H758 0.930 . S
H752 C749 0.928 . S
H753 C750 0.931 . S
H754 C730 0.930 . S
H755 C727 0.930 . S
H756 C736 0.930 . S
H757 C748 0.929 . S
H758 C751 0.930 . S
C759 C760 1.351 . S
C759 N762 1.368 . S
C759 H764 0.931 . S
C760 C759 1.351 . S
C760 N761 1.373 . S
C760 H788 0.930 . S
N761 C760 1.373 . S
N761 C763 1.340 . S
N762 C759 1.368 . S
N762 C763 1.321 . S
N762 Co765 2.135 . S
C763 N761 1.340 . S
C763 N762 1.321 . S
C763 H787 0.930 . S
H764 C759 0.931 . S
Co765 N762 2.135 . S
Co765 N768 2.121 . S
Co765 O773 2.055 . S
Co765 O776 2.039 . S
Co765 N779 2.140 . S
C766 O767 1.227 . S
C766 O776 1.265 . S
O767 C766 1.227 . S
N768 Co765 2.121 . S
N768 C770 1.375 . S
N768 C771 1.313 . S
C769 C770 1.338 . S
C769 N772 1.377 . S
C769 H789 0.930 . S
C770 N768 1.375 . S
C770 C769 1.338 . S
C770 H774 0.931 . S
C771 N768 1.313 . S
C771 N772 1.344 . S
C771 H775 0.930 . S
N772 C769 1.377 . S
N772 C771 1.344 . S
O773 Co765 2.055 . S
O773 C777 1.253 . S
H774 C770 0.931 . S
H775 C771 0.930 . S
O776 Co765 2.039 . S
O776 C766 1.265 . S
C777 O773 1.253 . S
C777 O778 1.227 . S
O778 C777 1.227 . S
N779 Co765 2.140 . S
N779 C782 1.346 . S
N779 C783 1.345 . S
C780 C781 1.387 . S
C780 C784 1.391 . S
C781 C780 1.387 . S
C781 C782 1.369 . S
C781 H790 0.929 . S
C782 N779 1.346 . S
C782 C781 1.369 . S
C782 H785 0.928 . S
C783 N779 1.345 . S
C783 C784 1.371 . S
C783 H786 0.931 . S
C784 C780 1.391 . S
C784 C783 1.371 . S
C784 H791 0.930 . S
H785 C782 0.928 . S
H786 C783 0.931 . S
H787 C763 0.930 . S
H788 C760 0.930 . S
H789 C769 0.930 . S
H790 C781 0.929 . S
H791 C784 0.930 . S
C792 C793 1.387 . S
C792 H796 0.950 . S
C792 C801 1.390 . S
C793 C792 1.387 . S
C793 C795 1.387 . S
H794 C801 0.950 . S
C795 C793 1.387 . S
C795 C797 1.390 . S
C795 H799 0.950 . S
H796 C792 0.950 . S
C797 C795 1.390 . S
C797 C798 1.387 . S
C797 H800 0.950 . S
C798 C797 1.387 . S
C798 C801 1.387 . S
H799 C795 0.950 . S
H800 C797 0.950 . S
C801 C792 1.390 . S
C801 H794 0.950 . S
C801 C798 1.387 . S
C802 C803 1.387 . S
C802 H806 0.950 . S
C802 C811 1.390 . S
C803 C802 1.387 . S
C803 C805 1.387 . S
H804 C811 0.950 . S
C805 C803 1.387 . S
C805 C807 1.390 . S
C805 H809 0.950 . S
H806 C802 0.950 . S
C807 C805 1.390 . S
C807 C808 1.387 . S
C807 H810 0.950 . S
C808 C807 1.387 . S
C808 C811 1.387 . S
H809 C805 0.950 . S
H810 C807 0.950 . S
C811 C802 1.390 . S
C811 H804 0.950 . S
C811 C808 1.387 . S
C812 C813 1.387 . S
C812 H816 0.950 . S
C812 C821 1.390 . S
C813 C812 1.387 . S
C813 C815 1.387 . S
H814 C821 0.950 . S
C815 C813 1.387 . S
C815 C817 1.390 . S
C815 H819 0.950 . S
H816 C812 0.950 . S
C817 C815 1.390 . S
C817 C818 1.387 . S
C817 H820 0.950 . S
C818 C817 1.387 . S
C818 C821 1.387 . S
H819 C815 0.950 . S
H820 C817 0.950 . S
C821 C812 1.390 . S
C821 H814 0.950 . S
C821 C818 1.387 . S
C822 C823 1.387 . S
C822 H826 0.950 . S
C822 C831 1.390 . S
C823 C822 1.387 . S
C823 C825 1.387 . S
H824 C831 0.950 . S
C825 C823 1.387 . S
C825 C827 1.390 . S
C825 H829 0.950 . S
H826 C822 0.950 . S
C827 C825 1.390 . S
C827 C828 1.387 . S
C827 H830 0.950 . S
C828 C827 1.387 . S
C828 C831 1.387 . S
H829 C825 0.950 . S
H830 C827 0.950 . S
C831 C822 1.390 . S
C831 H824 0.950 . S
C831 C828 1.387 . S
C832 C833 1.387 . S
C832 H836 0.950 . S
C832 C841 1.390 . S
C833 C832 1.387 . S
C833 C835 1.387 . S
H834 C841 0.950 . S
C835 C833 1.387 . S
C835 C837 1.390 . S
C835 H839 0.950 . S
H836 C832 0.950 . S
C837 C835 1.390 . S
C837 C838 1.387 . S
C837 H840 0.950 . S
C838 C837 1.387 . S
C838 C841 1.387 . S
H839 C835 0.950 . S
H840 C837 0.950 . S
C841 C832 1.390 . S
C841 H834 0.950 . S
C841 C838 1.387 . S
C842 C843 1.387 1_565 S
C842 H846 0.950 . S
C842 C851 1.390 . S
C843 C842 1.387 1_545 S
C843 C845 1.387 1_545 S
H844 C851 0.950 . S
C845 C843 1.387 1_565 S
C845 C847 1.390 . S
C845 H849 0.950 1_565 S
H846 C842 0.950 . S
C847 C845 1.390 . S
C847 C848 1.387 . S
C847 H850 0.950 . S
C848 C847 1.387 . S
C848 C851 1.387 . S
H849 C845 0.950 1_545 S
H850 C847 0.950 . S
C851 C842 1.390 . S
C851 H844 0.950 . S
C851 C848 1.387 . S
C852 C853 1.387 . S
C852 H856 0.950 . S
C852 C861 1.390 . S
C853 C852 1.387 . S
C853 C855 1.387 . S
H854 C861 0.950 . S
C855 C853 1.387 . S
C855 C857 1.390 . S
C855 H859 0.950 . S
H856 C852 0.950 . S
C857 C855 1.390 . S
C857 C858 1.387 . S
C857 H860 0.950 . S
C858 C857 1.387 . S
C858 C861 1.387 . S
H859 C855 0.950 . S
H860 C857 0.950 . S
C861 C852 1.390 . S
C861 H854 0.950 . S
C861 C858 1.387 . S
C862 C863 1.387 1_545 S
C862 H866 0.950 . S
C862 C871 1.390 . S
C863 C862 1.387 1_565 S
C863 C865 1.387 1_565 S
H864 C871 0.950 . S
C865 C863 1.387 1_545 S
C865 C867 1.390 . S
C865 H869 0.950 1_545 S
H866 C862 0.950 . S
C867 C865 1.390 . S
C867 C868 1.387 . S
C867 H870 0.950 . S
C868 C867 1.387 . S
C868 C871 1.387 . S
H869 C865 0.950 1_565 S
H870 C867 0.950 . S
C871 C862 1.390 . S
C871 H864 0.950 . S
C871 C868 1.387 . S
C872 C873 1.387 . S
C872 H876 0.950 . S
C872 C881 1.390 . S
C873 C872 1.387 . S
C873 C875 1.387 . S
H874 C881 0.950 . S
C875 C873 1.387 . S
C875 C877 1.390 . S
C875 H879 0.950 . S
H876 C872 0.950 . S
C877 C875 1.390 . S
C877 C878 1.387 . S
C877 H880 0.950 . S
C878 C877 1.387 . S
C878 C881 1.387 . S
H879 C875 0.950 . S
H880 C877 0.950 . S
C881 C872 1.390 . S
C881 H874 0.950 . S
C881 C878 1.387 . S
C882 C883 1.387 . S
C882 H886 0.950 . S
C882 C891 1.390 . S
C883 C882 1.387 . S
C883 C885 1.387 . S
H884 C891 0.950 . S
C885 C883 1.387 . S
C885 C887 1.390 . S
C885 H889 0.950 . S
H886 C882 0.950 . S
C887 C885 1.390 . S
C887 C888 1.387 . S
C887 H890 0.950 . S
C888 C887 1.387 . S
C888 C891 1.387 . S
H889 C885 0.950 . S
H890 C887 0.950 . S
C891 C882 1.390 . S
C891 H884 0.950 . S
C891 C888 1.387 . S
C892 C893 1.387 . S
C892 H896 0.950 . S
C892 C901 1.390 . S
C893 C892 1.387 . S
C893 C895 1.387 . S
H894 C901 0.950 . S
C895 C893 1.387 . S
C895 C897 1.390 . S
C895 H899 0.950 . S
H896 C892 0.950 . S
C897 C895 1.390 . S
C897 C898 1.387 . S
C897 H900 0.950 . S
C898 C897 1.387 . S
C898 C901 1.387 . S
H899 C895 0.950 . S
H900 C897 0.950 . S
C901 C892 1.390 . S
C901 H894 0.950 . S
C901 C898 1.387 . S
C902 C903 1.387 1_655 S
C902 H906 0.950 . S
C902 C911 1.390 . S
C903 C902 1.387 1_455 S
C903 C905 1.387 1_455 S
H904 C911 0.950 . S
C905 C903 1.387 1_655 S
C905 C907 1.390 . S
C905 H909 0.950 1_655 S
H906 C902 0.950 . S
C907 C905 1.390 . S
C907 C908 1.387 . S
C907 H910 0.950 . S
C908 C907 1.387 . S
C908 C911 1.387 . S
H909 C905 0.950 1_455 S
H910 C907 0.950 . S
C911 C902 1.390 . S
C911 H904 0.950 . S
C911 C908 1.387 . S
C912 C913 1.387 . S
C912 H916 0.950 . S
C912 C921 1.390 . S
C913 C912 1.387 . S
C913 C915 1.387 . S
H914 C921 0.950 . S
C915 C913 1.387 . S
C915 C917 1.390 . S
C915 H919 0.950 . S
H916 C912 0.950 . S
C917 C915 1.390 . S
C917 C918 1.387 . S
C917 H920 0.950 . S
C918 C917 1.387 . S
C918 C921 1.387 . S
H919 C915 0.950 . S
H920 C917 0.950 . S
C921 C912 1.390 . S
C921 H914 0.950 . S
C921 C918 1.387 . S
C922 C923 1.387 . S
C922 H926 0.950 . S
C922 C931 1.390 . S
C923 C922 1.387 . S
C923 C925 1.387 . S
H924 C931 0.950 . S
C925 C923 1.387 . S
C925 C927 1.390 . S
C925 H929 0.950 . S
H926 C922 0.950 . S
C927 C925 1.390 . S
C927 C928 1.387 . S
C927 H930 0.950 . S
C928 C927 1.387 . S
C928 C931 1.387 . S
H929 C925 0.950 . S
H930 C927 0.950 . S
C931 C922 1.390 . S
C931 H924 0.950 . S
C931 C928 1.387 . S
C932 C933 1.387 . S
C932 H936 0.950 . S
C932 C941 1.390 . S
C933 C932 1.387 . S
C933 C935 1.387 . S
H934 C941 0.950 . S
C935 C933 1.387 . S
C935 C937 1.390 . S
C935 H939 0.950 . S
H936 C932 0.950 . S
C937 C935 1.390 . S
C937 C938 1.387 . S
C937 H940 0.950 . S
C938 C937 1.387 . S
C938 C941 1.387 . S
H939 C935 0.950 . S
H940 C937 0.950 . S
C941 C932 1.390 . S
C941 H934 0.950 . S
C941 C938 1.387 . S
C942 C943 1.387 1_455 S
C942 H946 0.950 . S
C942 C951 1.390 . S
C943 C942 1.387 1_655 S
C943 C945 1.387 1_655 S
H944 C951 0.950 . S
C945 C943 1.387 1_455 S
C945 C947 1.390 . S
C945 H949 0.936 1_455 S
H946 C942 0.950 . S
C947 C945 1.390 . S
C947 C948 1.387 . S
C947 H950 0.950 . S
C948 C947 1.387 . S
C948 C951 1.387 . S
H949 C945 0.936 1_655 S
H950 C947 0.950 . S
C951 C942 1.390 . S
C951 H944 0.950 . S
C951 C948 1.387 . S
C952 C953 1.387 . S
C952 H956 0.950 . S
C952 C961 1.390 . S
C953 C952 1.387 . S
C953 C955 1.387 . S
H954 C961 0.950 . S
C955 C953 1.387 . S
C955 C957 1.390 . S
C955 H959 0.950 . S
H956 C952 0.950 . S
C957 C955 1.390 . S
C957 C958 1.387 . S
C957 H960 0.950 . S
C958 C957 1.387 . S
C958 C961 1.387 . S
H959 C955 0.950 . S
H960 C957 0.950 . S
C961 C952 1.390 . S
C961 H954 0.950 . S
C961 C958 1.387 . S
C962 C963 1.387 . S
C962 H966 0.950 . S
C962 C971 1.390 . S
C963 C962 1.387 . S
C963 C965 1.387 . S
H964 C971 0.950 . S
C965 C963 1.387 . S
C965 C967 1.390 . S
C965 H969 0.950 . S
H966 C962 0.950 . S
C967 C965 1.390 . S
C967 C968 1.387 . S
C967 H970 0.950 . S
C968 C967 1.387 . S
C968 C971 1.387 . S
H969 C965 0.950 . S
H970 C967 0.950 . S
C971 C962 1.390 . S
C971 H964 0.950 . S
C971 C968 1.387 . S
C972 C973 1.387 . S
C972 H976 0.950 . S
C972 C981 1.390 . S
C973 C972 1.387 . S
C973 C975 1.387 . S
H974 C981 0.950 . S
C975 C973 1.387 . S
C975 C977 1.390 . S
C975 H979 0.950 . S
H976 C972 0.950 . S
C977 C975 1.390 . S
C977 C978 1.387 . S
C977 H980 0.950 . S
C978 C977 1.387 . S
C978 C981 1.387 . S
H979 C975 0.950 . S
H980 C977 0.950 . S
C981 C972 1.390 . S
C981 H974 0.950 . S
C981 C978 1.387 . S
C982 C983 1.387 . S
C982 H986 0.939 1_565 S
C982 C991 1.390 . S
C983 C982 1.387 . S
C983 C985 1.387 . S
H984 C991 0.950 . S
C985 C983 1.387 . S
C985 C987 1.390 . S
C985 H989 0.950 . S
H986 C982 0.939 1_545 S
C987 C985 1.390 . S
C987 C988 1.387 . S
C987 H990 0.950 . S
C988 C987 1.387 . S
C988 C991 1.387 . S
H989 C985 0.950 . S
H990 C987 0.950 . S
C991 C982 1.390 . S
C991 H984 0.950 . S
C991 C988 1.387 . S
C992 C993 1.387 . S
C992 H996 0.950 . S
C992 C1001 1.390 . S
C993 C992 1.387 . S
C993 C995 1.387 . S
H994 C1001 0.950 1_556 S
C995 C993 1.387 . S
C995 C997 1.390 . S
C995 H999 0.950 . S
H996 C992 0.950 . S
C997 C995 1.390 . S
C997 C998 1.387 1_554 S
C997 H1000 0.950 . S
C998 C997 1.387 1_556 S
C998 C1001 1.387 1_556 S
H999 C995 0.950 . S
H1000 C997 0.950 . S
C1001 C992 1.390 . S
C1001 H994 0.950 1_554 S
C1001 C998 1.387 1_554 S
C1002 C1003 1.387 . S
C1002 H1006 0.950 . S
C1002 C1011 1.390 . S
C1003 C1002 1.387 . S
C1003 C1005 1.387 . S
H1004 C1011 0.950 . S
C1005 C1003 1.387 . S
C1005 C1007 1.390 . S
C1005 H1009 0.950 . S
H1006 C1002 0.950 . S
C1007 C1005 1.390 . S
C1007 C1008 1.387 . S
C1007 H1010 0.950 . S
C1008 C1007 1.387 . S
C1008 C1011 1.387 . S
H1009 C1005 0.950 . S
H1010 C1007 0.950 . S
C1011 C1002 1.390 . S
C1011 H1004 0.950 . S
C1011 C1008 1.387 . S
C1012 C1013 1.387 . S
C1012 H1016 0.950 . S
C1012 C1021 1.390 . S
C1013 C1012 1.387 . S
C1013 C1015 1.387 . S
H1014 C1021 0.950 . S
C1015 C1013 1.387 . S
C1015 C1017 1.390 . S
C1015 H1019 0.950 . S
H1016 C1012 0.950 . S
C1017 C1015 1.390 . S
C1017 C1018 1.387 . S
C1017 H1020 0.950 . S
C1018 C1017 1.387 . S
C1018 C1021 1.387 . S
H1019 C1015 0.950 . S
H1020 C1017 0.950 . S
C1021 C1012 1.390 . S
C1021 H1014 0.950 . S
C1021 C1018 1.387 . S
C1022 C1023 1.387 1_556 S
C1022 H1026 0.950 1_556 S
C1022 C1031 1.390 . S
C1023 C1022 1.387 1_554 S
C1023 C1025 1.387 1_554 S
H1024 C1031 0.950 . S
C1025 C1023 1.387 1_556 S
C1025 C1027 1.390 . S
C1025 H1029 0.950 . S
H1026 C1022 0.950 1_554 S
C1027 C1025 1.390 . S
C1027 C1028 1.387 . S
C1027 H1030 0.950 . S
C1028 C1027 1.387 . S
C1028 C1031 1.387 . S
H1029 C1025 0.950 . S
H1030 C1027 0.950 . S
C1031 C1022 1.390 . S
C1031 H1024 0.950 . S
C1031 C1028 1.387 . S
C1032 C1033 1.387 . S
C1032 H1036 0.950 . S
C1032 C1041 1.390 . S
C1033 C1032 1.387 . S
C1033 C1035 1.387 . S
H1034 C1041 0.950 . S
C1035 C1033 1.387 . S
C1035 C1037 1.390 . S
C1035 H1039 0.950 . S
H1036 C1032 0.950 . S
C1037 C1035 1.390 . S
C1037 C1038 1.387 . S
C1037 H1040 0.950 . S
C1038 C1037 1.387 . S
C1038 C1041 1.387 . S
H1039 C1035 0.950 . S
H1040 C1037 0.950 . S
C1041 C1032 1.390 . S
C1041 H1034 0.950 . S
C1041 C1038 1.387 . S
C1042 C1043 1.387 . S
C1042 H1046 0.950 . S
C1042 C1051 1.390 1_556 S
C1043 C1042 1.387 . S
C1043 C1045 1.387 . S
H1044 C1051 0.950 . S
C1045 C1043 1.387 . S
C1045 C1047 1.390 1_556 S
C1045 H1049 0.950 . S
H1046 C1042 0.950 . S
C1047 C1045 1.390 1_554 S
C1047 C1048 1.387 . S
C1047 H1050 0.950 . S
C1048 C1047 1.387 . S
C1048 C1051 1.387 . S
H1049 C1045 0.950 . S
H1050 C1047 0.950 . S
C1051 C1042 1.390 1_554 S
C1051 H1044 0.950 . S
C1051 C1048 1.387 . S
C1052 C1053 1.387 . S
C1052 H1056 0.950 . S
C1052 C1061 1.390 . S
C1053 C1052 1.387 . S
C1053 C1055 1.387 . S
H1054 C1061 0.950 . S
C1055 C1053 1.387 . S
C1055 C1057 1.390 . S
C1055 H1059 0.950 . S
H1056 C1052 0.950 . S
C1057 C1055 1.390 . S
C1057 C1058 1.387 . S
C1057 H1060 0.950 . S
C1058 C1057 1.387 . S
C1058 C1061 1.387 . S
H1059 C1055 0.950 . S
H1060 C1057 0.950 . S
C1061 C1052 1.390 . S
C1061 H1054 0.950 . S
C1061 C1058 1.387 . S
C1062 C1063 1.387 . S
C1062 H1066 0.950 . S
C1062 C1071 1.390 . S
C1063 C1062 1.387 . S
C1063 C1065 1.387 . S
H1064 C1071 0.950 . S
C1065 C1063 1.387 . S
C1065 C1067 1.390 . S
C1065 H1069 0.950 . S
H1066 C1062 0.950 . S
C1067 C1065 1.390 . S
C1067 C1068 1.387 . S
C1067 H1070 0.950 . S
C1068 C1067 1.387 . S
C1068 C1071 1.387 . S
H1069 C1065 0.950 . S
H1070 C1067 0.950 . S
C1071 C1062 1.390 . S
C1071 H1064 0.950 . S
C1071 C1068 1.387 . S
C1072 C1073 1.387 . S
C1072 H1076 0.950 . S
C1072 C1081 1.390 . S
C1073 C1072 1.387 . S
C1073 C1075 1.387 . S
H1074 C1081 0.950 . S
C1075 C1073 1.387 . S
C1075 C1077 1.390 . S
C1075 H1079 0.950 . S
H1076 C1072 0.950 . S
C1077 C1075 1.390 . S
C1077 C1078 1.387 . S
C1077 H1080 0.950 . S
C1078 C1077 1.387 . S
C1078 C1081 1.387 . S
H1079 C1075 0.950 . S
H1080 C1077 0.950 . S
C1081 C1072 1.390 . S
C1081 H1074 0.950 . S
C1081 C1078 1.387 . S
C1082 C1083 1.387 . S
C1082 H1086 0.950 . S
C1082 C1091 1.390 . S
C1083 C1082 1.387 . S
C1083 C1085 1.387 . S
H1084 C1091 0.950 . S
C1085 C1083 1.387 . S
C1085 C1087 1.390 . S
C1085 H1089 0.950 . S
H1086 C1082 0.950 . S
C1087 C1085 1.390 . S
C1087 C1088 1.387 . S
C1087 H1090 0.950 . S
C1088 C1087 1.387 . S
C1088 C1091 1.387 . S
H1089 C1085 0.950 . S
H1090 C1087 0.950 . S
C1091 C1082 1.390 . S
C1091 H1084 0.950 . S
C1091 C1088 1.387 . S
C1092 C1093 1.387 . S
C1092 H1096 0.950 . S
C1092 C1101 1.390 . S
C1093 C1092 1.387 . S
C1093 C1095 1.387 . S
H1094 C1101 0.950 . S
C1095 C1093 1.387 . S
C1095 C1097 1.390 . S
C1095 H1099 0.950 . S
H1096 C1092 0.950 . S
C1097 C1095 1.390 . S
C1097 C1098 1.387 . S
C1097 H1100 0.950 . S
C1098 C1097 1.387 . S
C1098 C1101 1.387 . S
H1099 C1095 0.950 . S
H1100 C1097 0.950 . S
C1101 C1092 1.390 . S
C1101 H1094 0.950 . S
C1101 C1098 1.387 . S
C1102 C1103 1.387 . S
C1102 H1106 0.950 . S
C1102 C1111 1.390 1_556 S
C1103 C1102 1.387 . S
C1103 C1105 1.387 . S
H1104 C1111 0.950 . S
C1105 C1103 1.387 . S
C1105 C1107 1.390 1_556 S
C1105 H1109 0.950 . S
H1106 C1102 0.950 . S
C1107 C1105 1.390 1_554 S
C1107 C1108 1.387 . S
C1107 H1110 0.950 . S
C1108 C1107 1.387 . S
C1108 C1111 1.387 . S
H1109 C1105 0.950 . S
H1110 C1107 0.950 . S
C1111 C1102 1.390 1_554 S
C1111 H1104 0.950 . S
C1111 C1108 1.387 . S
C1112 C1113 1.387 . S
C1112 H1116 0.950 . S
C1112 C1121 1.390 . S
C1113 C1112 1.387 . S
C1113 C1115 1.387 . S
H1114 C1121 0.950 . S
C1115 C1113 1.387 . S
C1115 C1117 1.390 . S
C1115 H1119 0.950 . S
H1116 C1112 0.950 . S
C1117 C1115 1.390 . S
C1117 C1118 1.387 . S
C1117 H1120 0.950 . S
C1118 C1117 1.387 . S
C1118 C1121 1.387 . S
H1119 C1115 0.950 . S
H1120 C1117 0.950 . S
C1121 C1112 1.390 . S
C1121 H1114 0.950 . S
C1121 C1118 1.387 . S
C1122 C1123 1.387 . S
C1122 H1126 0.950 . S
C1122 C1131 1.390 . S
C1123 C1122 1.387 . S
C1123 C1125 1.387 . S
H1124 C1131 0.950 . S
C1125 C1123 1.387 . S
C1125 C1127 1.390 . S
C1125 H1129 0.950 . S
H1126 C1122 0.950 . S
C1127 C1125 1.390 . S
C1127 C1128 1.387 . S
C1127 H1130 0.950 . S
C1128 C1127 1.387 . S
C1128 C1131 1.387 . S
H1129 C1125 0.950 . S
H1130 C1127 0.950 . S
C1131 C1122 1.390 . S
C1131 H1124 0.950 . S
C1131 C1128 1.387 . S
C1132 C1133 1.387 . S
C1132 H1136 0.950 . S
C1132 C1141 1.390 . S
C1133 C1132 1.387 . S
C1133 C1135 1.387 . S
H1134 C1141 0.950 . S
C1135 C1133 1.387 . S
C1135 C1137 1.390 . S
C1135 H1139 0.950 . S
H1136 C1132 0.950 . S
C1137 C1135 1.390 . S
C1137 C1138 1.387 . S
C1137 H1140 0.950 . S
C1138 C1137 1.387 . S
C1138 C1141 1.387 . S
H1139 C1135 0.950 . S
H1140 C1137 0.950 . S
C1141 C1132 1.390 . S
C1141 H1134 0.950 . S
C1141 C1138 1.387 . S
C1142 C1143 1.387 . S
C1142 H1146 0.950 . S
C1142 C1151 1.390 . S
C1143 C1142 1.387 . S
C1143 C1145 1.387 . S
H1144 C1151 0.950 . S
C1145 C1143 1.387 . S
C1145 C1147 1.390 . S
C1145 H1149 0.950 . S
H1146 C1142 0.950 . S
C1147 C1145 1.390 . S
C1147 C1148 1.387 . S
C1147 H1150 0.950 . S
C1148 C1147 1.387 . S
C1148 C1151 1.387 . S
H1149 C1145 0.950 . S
H1150 C1147 0.950 . S
C1151 C1142 1.390 . S
C1151 H1144 0.950 . S
C1151 C1148 1.387 . S
C1152 C1153 1.387 . S
C1152 H1156 0.950 . S
C1152 C1161 1.390 . S
C1153 C1152 1.387 . S
C1153 C1155 1.387 . S
H1154 C1161 0.950 . S
C1155 C1153 1.387 . S
C1155 C1157 1.390 . S
C1155 H1159 0.950 . S
H1156 C1152 0.950 . S
C1157 C1155 1.390 . S
C1157 C1158 1.387 . S
C1157 H1160 0.950 . S
C1158 C1157 1.387 . S
C1158 C1161 1.387 . S
H1159 C1155 0.950 . S
H1160 C1157 0.950 . S
C1161 C1152 1.390 . S
C1161 H1154 0.950 . S
C1161 C1158 1.387 . S
C1162 C1163 1.387 1_545 S
C1162 H1166 0.950 . S
C1162 C1171 1.390 . S
C1163 C1162 1.387 1_565 S
C1163 C1165 1.387 . S
H1164 C1171 0.950 . S
C1165 C1163 1.387 . S
C1165 C1167 1.390 1_565 S
C1165 H1169 0.950 . S
H1166 C1162 0.950 . S
C1167 C1165 1.390 1_545 S
C1167 C1168 1.387 . S
C1167 H1170 0.950 . S
C1168 C1167 1.387 . S
C1168 C1171 1.387 . S
H1169 C1165 0.950 . S
H1170 C1167 0.950 . S
C1171 C1162 1.390 . S
C1171 H1164 0.950 . S
C1171 C1168 1.387 . S
C1172 C1173 1.387 . S
C1172 H1176 0.950 . S
C1172 C1181 1.390 . S
C1173 C1172 1.387 . S
C1173 C1175 1.387 . S
H1174 C1181 0.950 . S
C1175 C1173 1.387 . S
C1175 C1177 1.390 . S
C1175 H1179 0.950 . S
H1176 C1172 0.950 . S
C1177 C1175 1.390 . S
C1177 C1178 1.387 . S
C1177 H1180 0.950 . S
C1178 C1177 1.387 . S
C1178 C1181 1.387 . S
H1179 C1175 0.950 . S
H1180 C1177 0.950 . S
C1181 C1172 1.390 . S
C1181 H1174 0.950 . S
C1181 C1178 1.387 . S
C1182 C1183 1.387 . S
C1182 H1186 0.950 1_556 S
C1182 C1191 1.390 1_565 S
C1183 C1182 1.387 . S
C1183 C1185 1.387 . S
H1184 C1191 0.950 . S
C1185 C1183 1.387 . S
C1185 C1187 1.390 . S
C1185 H1189 0.950 . S
H1186 C1182 0.950 1_554 S
C1187 C1185 1.390 . S
C1187 C1188 1.387 1_565 S
C1187 H1190 0.950 . S
C1188 C1187 1.387 1_545 S
C1188 C1191 1.387 . S
H1189 C1185 0.950 . S
H1190 C1187 0.950 . S
C1191 C1182 1.390 1_545 S
C1191 H1184 0.950 . S
C1191 C1188 1.387 . S
C1192 C1193 1.387 . S
C1192 H1196 0.950 . S
C1192 C1201 1.390 . S
C1193 C1192 1.387 . S
C1193 C1195 1.387 . S
H1194 C1201 0.950 . S
C1195 C1193 1.387 . S
C1195 C1197 1.390 . S
C1195 H1199 0.950 . S
H1196 C1192 0.950 . S
C1197 C1195 1.390 . S
C1197 C1198 1.387 . S
C1197 H1200 0.950 . S
C1198 C1197 1.387 . S
C1198 C1201 1.387 . S
H1199 C1195 0.950 . S
H1200 C1197 0.950 . S
C1201 C1192 1.390 . S
C1201 H1194 0.950 . S
C1201 C1198 1.387 . S
C1202 C1203 1.387 . S
C1202 H1206 0.950 . S
C1202 C1211 1.390 . S
C1203 C1202 1.387 . S
C1203 C1205 1.387 . S
H1204 C1211 0.950 . S
C1205 C1203 1.387 . S
C1205 C1207 1.390 . S
C1205 H1209 0.950 . S
H1206 C1202 0.950 . S
C1207 C1205 1.390 . S
C1207 C1208 1.387 . S
C1207 H1210 0.950 . S
C1208 C1207 1.387 . S
C1208 C1211 1.387 . S
H1209 C1205 0.950 . S
H1210 C1207 0.950 . S
C1211 C1202 1.390 . S
C1211 H1204 0.950 . S
C1211 C1208 1.387 . S
C1212 C1213 1.387 . S
C1212 H1216 0.950 . S
C1212 C1221 1.390 . S
C1213 C1212 1.387 . S
C1213 C1215 1.387 . S
H1214 C1221 0.950 . S
C1215 C1213 1.387 . S
C1215 C1217 1.390 . S
C1215 H1219 0.950 . S
H1216 C1212 0.950 . S
C1217 C1215 1.390 . S
C1217 C1218 1.387 . S
C1217 H1220 0.950 . S
C1218 C1217 1.387 . S
C1218 C1221 1.387 . S
H1219 C1215 0.950 . S
H1220 C1217 0.950 . S
C1221 C1212 1.390 . S
C1221 H1214 0.950 . S
C1221 C1218 1.387 . S
C1222 C1223 1.387 . S
C1222 H1226 0.950 . S
C1222 C1231 1.390 . S
C1223 C1222 1.387 . S
C1223 C1225 1.387 . S
H1224 C1231 0.950 . S
C1225 C1223 1.387 . S
C1225 C1227 1.390 . S
C1225 H1229 0.950 . S
H1226 C1222 0.950 . S
C1227 C1225 1.390 . S
C1227 C1228 1.387 . S
C1227 H1230 0.950 . S
C1228 C1227 1.387 . S
C1228 C1231 1.387 . S
H1229 C1225 0.950 . S
H1230 C1227 0.950 . S
C1231 C1222 1.390 . S
C1231 H1224 0.950 . S
C1231 C1228 1.387 . S
C1232 C1233 1.387 . S
C1232 H1236 0.950 . S
C1232 C1241 1.390 1_655 S
C1233 C1232 1.387 . S
C1233 C1235 1.387 . S
H1234 C1241 0.950 . S
C1235 C1233 1.387 . S
C1235 C1237 1.390 1_655 S
C1235 H1239 0.950 . S
H1236 C1232 0.950 . S
C1237 C1235 1.390 1_455 S
C1237 C1238 1.387 . S
C1237 H1240 0.950 . S
C1238 C1237 1.387 . S
C1238 C1241 1.387 . S
H1239 C1235 0.950 . S
H1240 C1237 0.950 . S
C1241 C1232 1.390 1_455 S
C1241 H1234 0.950 . S
C1241 C1238 1.387 . S
C1242 C1243 1.387 . S
C1242 H1246 0.950 . S
C1242 C1251 1.390 . S
C1243 C1242 1.387 . S
C1243 C1245 1.387 . S
H1244 C1251 0.950 . S
C1245 C1243 1.387 . S
C1245 C1247 1.390 . S
C1245 H1249 0.950 . S
H1246 C1242 0.950 . S
C1247 C1245 1.390 . S
C1247 C1248 1.387 . S
C1247 H1250 0.950 . S
C1248 C1247 1.387 . S
C1248 C1251 1.387 . S
H1249 C1245 0.950 . S
H1250 C1247 0.950 . S
C1251 C1242 1.390 . S
C1251 H1244 0.950 . S
C1251 C1248 1.387 . S
C1252 C1253 1.387 . S
C1252 H1256 0.950 . S
C1252 C1261 1.390 1_455 S
C1253 C1252 1.387 . S
C1253 C1255 1.387 . S
H1254 C1261 0.950 . S
C1255 C1253 1.387 . S
C1255 C1257 1.390 1_455 S
C1255 H1259 0.950 . S
H1256 C1252 0.950 . S
C1257 C1255 1.390 1_655 S
C1257 C1258 1.387 . S
C1257 H1260 0.950 . S
C1258 C1257 1.387 . S
C1258 C1261 1.387 . S
H1259 C1255 0.950 . S
H1260 C1257 0.950 . S
C1261 C1252 1.390 1_655 S
C1261 H1254 0.950 . S
C1261 C1258 1.387 . S
C1262 C1263 1.387 . S
C1262 H1266 0.950 . S
C1262 C1271 1.390 . S
C1263 C1262 1.387 . S
C1263 C1265 1.387 . S
H1264 C1271 0.950 . S
C1265 C1263 1.387 . S
C1265 C1267 1.390 . S
C1265 H1269 0.950 . S
H1266 C1262 0.950 . S
C1267 C1265 1.390 . S
C1267 C1268 1.387 . S
C1267 H1270 0.950 . S
C1268 C1267 1.387 . S
C1268 C1271 1.387 . S
H1269 C1265 0.950 . S
H1270 C1267 0.950 . S
C1271 C1262 1.390 . S
C1271 H1264 0.950 . S
C1271 C1268 1.387 . S
C1272 C1273 1.387 . S
C1272 H1276 0.950 . S
C1272 C1281 1.390 . S
C1273 C1272 1.387 . S
C1273 C1275 1.387 . S
H1274 C1281 0.942 1_455 S
C1275 C1273 1.387 . S
C1275 C1277 1.390 . S
C1275 H1279 0.950 . S
H1276 C1272 0.950 . S
C1277 C1275 1.390 . S
C1277 C1278 1.387 1_655 S
C1277 H1280 0.950 1_655 S
C1278 C1277 1.387 1_455 S
C1278 C1281 1.387 1_455 S
H1279 C1275 0.950 . S
H1280 C1277 0.950 1_455 S
C1281 C1272 1.390 . S
C1281 H1274 0.942 1_655 S
C1281 C1278 1.387 1_655 S
C1282 C1283 1.387 . S
C1282 H1286 0.950 . S
C1282 C1291 1.390 . S
C1283 C1282 1.387 . S
C1283 C1285 1.387 . S
H1284 C1291 0.950 . S
C1285 C1283 1.387 . S
C1285 C1287 1.390 . S
C1285 H1289 0.950 . S
H1286 C1282 0.950 . S
C1287 C1285 1.390 . S
C1287 C1288 1.387 1_554 S
C1287 H1290 0.950 1_554 S
C1288 C1287 1.387 1_556 S
C1288 C1291 1.387 1_556 S
H1289 C1285 0.950 . S
H1290 C1287 0.950 1_556 S
C1291 C1282 1.390 . S
C1291 H1284 0.950 . S
C1291 C1288 1.387 1_554 S
C1292 C1293 1.387 . S
C1292 H1296 0.950 . S
C1292 C1301 1.390 . S
C1293 C1292 1.387 . S
C1293 C1295 1.387 . S
H1294 C1301 0.950 . S
C1295 C1293 1.387 . S
C1295 C1297 1.390 . S
C1295 H1299 0.950 . S
H1296 C1292 0.950 . S
C1297 C1295 1.390 . S
C1297 C1298 1.387 . S
C1297 H1300 0.950 . S
C1298 C1297 1.387 . S
C1298 C1301 1.387 . S
H1299 C1295 0.950 . S
H1300 C1297 0.950 . S
C1301 C1292 1.390 . S
C1301 H1294 0.950 . S
C1301 C1298 1.387 . S
C1302 C1303 1.387 . S
C1302 H1306 0.950 . S
C1302 C1311 1.390 . S
C1303 C1302 1.387 . S
C1303 C1305 1.387 . S
H1304 C1311 0.950 . S
C1305 C1303 1.387 . S
C1305 C1307 1.390 . S
C1305 H1309 0.950 . S
H1306 C1302 0.950 . S
C1307 C1305 1.390 . S
C1307 C1308 1.387 . S
C1307 H1310 0.950 . S
C1308 C1307 1.387 . S
C1308 C1311 1.387 . S
H1309 C1305 0.950 . S
H1310 C1307 0.950 . S
C1311 C1302 1.390 . S
C1311 H1304 0.950 . S
C1311 C1308 1.387 . S
C1312 C1313 1.387 . S
C1312 H1316 0.950 . S
C1312 C1321 1.390 . S
C1313 C1312 1.387 . S
C1313 C1315 1.387 . S
H1314 C1321 0.950 . S
C1315 C1313 1.387 . S
C1315 C1317 1.390 . S
C1315 H1319 0.950 . S
H1316 C1312 0.950 . S
C1317 C1315 1.390 . S
C1317 C1318 1.387 . S
C1317 H1320 0.950 . S
C1318 C1317 1.387 . S
C1318 C1321 1.387 . S
H1319 C1315 0.950 . S
H1320 C1317 0.950 . S
C1321 C1312 1.390 . S
C1321 H1314 0.950 . S
C1321 C1318 1.387 . S
C1322 C1323 1.387 . S
C1322 H1326 0.950 . S
C1322 C1331 1.390 . S
C1323 C1322 1.387 . S
C1323 C1325 1.387 . S
H1324 C1331 0.950 . S
C1325 C1323 1.387 . S
C1325 C1327 1.390 . S
C1325 H1329 0.950 . S
H1326 C1322 0.950 . S
C1327 C1325 1.390 . S
C1327 C1328 1.387 . S
C1327 H1330 0.950 . S
C1328 C1327 1.387 . S
C1328 C1331 1.387 . S
H1329 C1325 0.950 . S
H1330 C1327 0.950 . S
C1331 C1322 1.390 . S
C1331 H1324 0.950 . S
C1331 C1328 1.387 . S
C1332 C1333 1.387 1_455 S
C1332 H1336 0.950 1_455 S
C1332 C1341 1.390 . S
C1333 C1332 1.387 1_655 S
C1333 C1335 1.387 1_655 S
H1334 C1341 0.950 . S
C1335 C1333 1.387 1_455 S
C1335 C1337 1.390 . S
C1335 H1339 0.950 1_455 S
H1336 C1332 0.950 1_655 S
C1337 C1335 1.390 . S
C1337 C1338 1.387 . S
C1337 H1340 0.950 . S
C1338 C1337 1.387 . S
C1338 C1341 1.387 . S
H1339 C1335 0.950 1_655 S
H1340 C1337 0.950 . S
C1341 C1332 1.390 . S
C1341 H1334 0.950 . S
C1341 C1338 1.387 . S
C1342 C1343 1.387 1_556 S
C1342 H1346 0.950 . S
C1342 C1351 1.390 . S
C1343 C1342 1.387 1_554 S
C1343 C1345 1.387 . S
H1344 C1351 0.950 . S
C1345 C1343 1.387 . S
C1345 C1347 1.390 1_554 S
C1345 H1349 0.950 . S
H1346 C1342 0.950 . S
C1347 C1345 1.390 1_556 S
C1347 C1348 1.387 . S
C1347 H1350 0.950 . S
C1348 C1347 1.387 . S
C1348 C1351 1.387 . S
H1349 C1345 0.950 . S
H1350 C1347 0.950 . S
C1351 C1342 1.390 . S
C1351 H1344 0.950 . S
C1351 C1348 1.387 . S
C1352 C1353 1.387 . S
C1352 H1356 0.950 . S
C1352 C1361 1.367 1_565 S
C1353 C1352 1.387 . S
C1353 C1355 1.387 . S
H1354 C1361 0.969 . S
C1355 C1353 1.387 . S
C1355 C1357 1.390 . S
C1355 H1359 0.950 . S
H1356 C1352 0.950 . S
C1357 C1355 1.390 . S
C1357 C1358 1.387 1_565 S
C1357 H1360 0.950 . S
C1358 C1357 1.387 1_545 S
C1358 C1361 1.392 . S
H1359 C1355 0.950 . S
H1360 C1357 0.950 . S
C1361 C1352 1.367 1_545 S
C1361 H1354 0.969 . S
C1361 C1358 1.392 . S
C1362 C1363 1.387 . S
C1362 H1366 0.950 . S
C1362 C1371 1.390 . S
C1363 C1362 1.387 . S
C1363 C1365 1.387 . S
H1364 C1371 0.950 . S
C1365 C1363 1.387 . S
C1365 C1367 1.390 . S
C1365 H1369 0.950 . S
H1366 C1362 0.950 . S
C1367 C1365 1.390 . S
C1367 C1368 1.387 . S
C1367 H1370 0.950 . S
C1368 C1367 1.387 . S
C1368 C1371 1.387 . S
H1369 C1365 0.950 . S
H1370 C1367 0.950 . S
C1371 C1362 1.390 . S
C1371 H1364 0.950 . S
C1371 C1368 1.387 . S
C1372 C1373 1.387 . S
C1372 H1376 0.950 . S
C1372 C1381 1.390 . S
C1373 C1372 1.387 . S
C1373 C1375 1.387 . S
H1374 C1381 0.950 1_565 S
C1375 C1373 1.387 . S
C1375 C1377 1.390 . S
C1375 H1379 0.950 . S
H1376 C1372 0.950 . S
C1377 C1375 1.390 . S
C1377 C1378 1.387 1_545 S
C1377 H1380 0.950 . S
C1378 C1377 1.387 1_565 S
C1378 C1381 1.387 1_565 S
H1379 C1375 0.950 . S
H1380 C1377 0.950 . S
C1381 C1372 1.390 . S
C1381 H1374 0.950 1_545 S
C1381 C1378 1.387 1_545 S
C1382 C1383 1.387 . S
C1382 H1386 0.950 . S
C1382 C1391 1.390 . S
C1383 C1382 1.387 . S
C1383 C1385 1.387 . S
H1384 C1391 0.950 . S
C1385 C1383 1.387 . S
C1385 C1387 1.390 . S
C1385 H1389 0.950 . S
H1386 C1382 0.950 . S
C1387 C1385 1.390 . S
C1387 C1388 1.387 . S
C1387 H1390 0.950 . S
C1388 C1387 1.387 . S
C1388 C1391 1.387 . S
H1389 C1385 0.950 . S
H1390 C1387 0.950 . S
C1391 C1382 1.390 . S
C1391 H1384 0.950 . S
C1391 C1388 1.387 . S
C793 N431 1.710 . S
C798 C18 1.638 . S
C803 C51 1.635 . S
C808 N464 1.709 . S
C813 C84 1.635 . S
C818 N497 1.709 . S
C823 N398 1.710 . S
C828 C117 1.637 . S
C833 N365 1.711 . S
C838 C150 1.638 . S
C843 N266 1.710 . S
C848 C183 1.636 . S
C853 C216 1.638 . S
C858 N299 1.711 . S
C863 N332 1.709 . S
C868 C249 1.635 . S
C873 C282 1.635 . S
C878 N35 1.710 . S
C883 C315 1.635 . S
C888 N68 1.709 . S
C893 C348 1.638 . S
C898 N101 1.711 . S
C903 N2 1.709 . S
C908 C381 1.635 . S
C913 N233 1.711 . S
C918 C414 1.638 . S
C923 C447 1.638 . S
C928 N134 1.710 . S
C933 C480 1.634 . S
C938 N167 1.708 . S
C943 N200 1.709 . S
C948 C513 1.635 . S
C953 N728 1.708 . S
C958 C546 1.635 . S
C963 C579 1.635 . S
C968 N596 1.708 . S
C973 C612 1.634 . S
C978 N629 1.708 . S
C983 N662 1.711 . S
C988 C645 1.637 . S
C993 C678 1.634 . S
C998 N563 1.708 . S
C1003 N761 1.709 . S
C1008 C711 1.634 . S
C1013 C744 1.638 . S
C1018 N695 1.711 . S
C1023 N530 1.709 . S
C1028 C777 1.634 . S
C1033 N541 1.146 . S
C1038 C7 1.156 . S
C1043 N772 1.144 . S
C1048 C40 1.156 . S
C1053 C73 1.152 . S
C1058 N706 1.144 . S
C1063 N739 1.143 . S
C1068 C106 1.156 . S
C1073 N574 1.143 . S
C1078 C139 1.156 . S
C1083 N607 1.144 . S
C1088 C172 1.157 . S
C1093 N640 1.147 . S
C1098 C205 1.154 . S
C1103 C238 1.152 . S
C1108 N673 1.145 . S
C1113 C271 1.157 . S
C1118 N13 1.144 . S
C1123 C304 1.152 . S
C1128 N46 1.145 . S
C1133 C337 1.157 . S
C1138 N79 1.145 . S
C1143 C370 1.153 . S
C1148 N112 1.142 . S
C1153 C403 1.157 . S
C1158 N145 1.145 . S
C1163 N178 1.142 . S
C1168 C436 1.154 . S
C1173 N211 1.142 . S
C1178 C469 1.155 . S
C1183 C502 1.154 . S
C1188 N244 1.147 . S
C1193 N277 1.145 . S
C1198 C535 1.152 . S
C1203 N409 1.146 . S
C1208 C568 1.153 . S
C1213 N442 1.144 . S
C1218 C601 1.152 . S
C1223 N475 1.143 . S
C1228 C634 1.156 . S
C1233 C667 1.156 . S
C1238 N508 1.145 . S
C1243 C700 1.156 . S
C1248 N343 1.143 . S
C1253 C733 1.152 . S
C1258 N376 1.144 . S
C1263 N310 1.144 . S
C1268 C766 1.152 . S
C1273 C681 1.434 . S
C1278 C21 1.436 . S
C1283 C54 1.436 . S
C1288 C582 1.435 . S
C1293 C615 1.434 . S
C1298 C87 1.436 . S
C1303 C120 1.435 . S
C1308 C648 1.436 . S
C1313 C780 1.436 . S
C1318 C153 1.434 . S
C1323 C714 1.435 . S
C1328 C186 1.434 . S
C1333 C219 1.434 . S
C1338 C747 1.436 . S
C1343 C549 1.436 . S
C1348 C252 1.437 . S
C1353 C516 1.435 . S
C1358 C285 1.434 . S
C1363 C417 1.436 . S
C1368 C318 1.434 . S
C1373 C450 1.435 . S
C1378 C351 1.434 . S
C1383 C483 1.436 . S
C1388 C384 1.434 . S
