# Generated by pormake.
# Topology umd, (4)-cn, num edge types: 1
# Building blocks:
#     Node 0, Type 0, BuildingBlock: CEKHIL_clean_sbu_0, # of connection points: 4
#     Node 1, Type 0, BuildingBlock: CEKHIL_clean_sbu_0, # of connection points: 4
#     Node 2, Type 0, BuildingBlock: CEKHIL_clean_sbu_0, # of connection points: 4
#     Node 3, Type 0, BuildingBlock: CEKHIL_clean_sbu_0, # of connection points: 4
#     Node 4, Type 0, BuildingBlock: CEKHIL_clean_sbu_0, # of connection points: 4
#     Node 5, Type 0, BuildingBlock: CEKHIL_clean_sbu_0, # of connection points: 4
#     Node 6, Type 0, BuildingBlock: CEKHIL_clean_sbu_0, # of connection points: 4
#     Node 7, Type 0, BuildingBlock: CEKHIL_clean_sbu_0, # of connection points: 4
#     Node 8, Type 0, BuildingBlock: CEKHIL_clean_sbu_0, # of connection points: 4
#     Node 9, Type 0, BuildingBlock: CEKHIL_clean_sbu_0, # of connection points: 4
#     Node 10, Type 0, BuildingBlock: CEKHIL_clean_sbu_0, # of connection points: 4
#     Node 11, Type 0, BuildingBlock: CEKHIL_clean_sbu_0, # of connection points: 4
#     Node 12, Type 0, BuildingBlock: CEKHIL_clean_sbu_0, # of connection points: 4
#     Node 13, Type 0, BuildingBlock: CEKHIL_clean_sbu_0, # of connection points: 4
#     Node 14, Type 0, BuildingBlock: CEKHIL_clean_sbu_0, # of connection points: 4
#     Node 15, Type 0, BuildingBlock: CEKHIL_clean_sbu_0, # of connection points: 4
#     Edge 16, Type (0, 0), BuildingBlock: EZIPEK_clean_linker_0, # of connection points: 2
#     Edge 17, Type (0, 0), BuildingBlock: EZIPEK_clean_linker_0, # of connection points: 2
#     Edge 18, Type (0, 0), BuildingBlock: EZIPEK_clean_linker_0, # of connection points: 2
#     Edge 19, Type (0, 0), BuildingBlock: EZIPEK_clean_linker_0, # of connection points: 2
#     Edge 20, Type (0, 0), BuildingBlock: EZIPEK_clean_linker_0, # of connection points: 2
#     Edge 21, Type (0, 0), BuildingBlock: EZIPEK_clean_linker_0, # of connection points: 2
#     Edge 22, Type (0, 0), BuildingBlock: EZIPEK_clean_linker_0, # of connection points: 2
#     Edge 23, Type (0, 0), BuildingBlock: EZIPEK_clean_linker_0, # of connection points: 2
#     Edge 24, Type (0, 0), BuildingBlock: EZIPEK_clean_linker_0, # of connection points: 2
#     Edge 25, Type (0, 0), BuildingBlock: EZIPEK_clean_linker_0, # of connection points: 2
#     Edge 26, Type (0, 0), BuildingBlock: EZIPEK_clean_linker_0, # of connection points: 2
#     Edge 27, Type (0, 0), BuildingBlock: EZIPEK_clean_linker_0, # of connection points: 2
#     Edge 28, Type (0, 0), BuildingBlock: EZIPEK_clean_linker_0, # of connection points: 2
#     Edge 29, Type (0, 0), BuildingBlock: EZIPEK_clean_linker_0, # of connection points: 2
#     Edge 30, Type (0, 0), BuildingBlock: EZIPEK_clean_linker_0, # of connection points: 2
#     Edge 31, Type (0, 0), BuildingBlock: EZIPEK_clean_linker_0, # of connection points: 2
#     Edge 32, Type (0, 0), BuildingBlock: EZIPEK_clean_linker_0, # of connection points: 2
#     Edge 33, Type (0, 0), BuildingBlock: EZIPEK_clean_linker_0, # of connection points: 2
#     Edge 34, Type (0, 0), BuildingBlock: EZIPEK_clean_linker_0, # of connection points: 2
#     Edge 35, Type (0, 0), BuildingBlock: EZIPEK_clean_linker_0, # of connection points: 2
#     Edge 36, Type (0, 0), BuildingBlock: EZIPEK_clean_linker_0, # of connection points: 2
#     Edge 37, Type (0, 0), BuildingBlock: EZIPEK_clean_linker_0, # of connection points: 2
#     Edge 38, Type (0, 0), BuildingBlock: EZIPEK_clean_linker_0, # of connection points: 2
#     Edge 39, Type (0, 0), BuildingBlock: EZIPEK_clean_linker_0, # of connection points: 2
#     Edge 40, Type (0, 0), BuildingBlock: EZIPEK_clean_linker_0, # of connection points: 2
#     Edge 41, Type (0, 0), BuildingBlock: EZIPEK_clean_linker_0, # of connection points: 2
#     Edge 42, Type (0, 0), BuildingBlock: EZIPEK_clean_linker_0, # of connection points: 2
#     Edge 43, Type (0, 0), BuildingBlock: EZIPEK_clean_linker_0, # of connection points: 2
#     Edge 44, Type (0, 0), BuildingBlock: EZIPEK_clean_linker_0, # of connection points: 2
#     Edge 45, Type (0, 0), BuildingBlock: EZIPEK_clean_linker_0, # of connection points: 2
#     Edge 46, Type (0, 0), BuildingBlock: EZIPEK_clean_linker_0, # of connection points: 2
#     Edge 47, Type (0, 0), BuildingBlock: EZIPEK_clean_linker_0, # of connection points: 2
# Relax obj value: 0.091
# Max RMSD: 0.226
# Mean RMSD: 0.226
data_MOF--net-umd--node1-CEKHIL_clean_sbu_0--edge1-EZIPEK_clean_linker_0
_symmetry_space_group_name_H-M    P1
_symmetry_Int_Tables_number       1
_symmetry_cell_setting            triclinic
loop_
_symmetry_equiv_pos_as_xyz
'x, y, z'
_cell_length_a     28.471316
_cell_length_b     28.462135
_cell_length_c     40.300165
_cell_angle_alpha  89.941373
_cell_angle_beta   89.911166
_cell_angle_gamma 90.027464
loop_
_atom_site_label
_atom_site_type_symbol
_atom_site_fract_x
_atom_site_fract_y
_atom_site_fract_z
_atom_type_partial_charge
Co0 Co 0.19125 0.44223 0.13973 0.0
O1 O 0.25209 0.413 0.14199 0.0
O2 O 0.18717 0.37747 0.12489 0.0
C3 C 0.19391 0.4756 0.19069 0.0
O4 O 0.12186 0.46041 0.13491 0.0
Co5 Co 0.18267 0.54951 0.13932 0.0
O6 O 0.11402 0.539 0.13773 0.0
C7 C 0.20667 0.50191 0.07732 0.0
C8 C 0.23206 0.37541 0.13069 0.0
C9 C 0.09656 0.49801 0.13503 0.0
O10 O 0.20414 0.4625 0.09272 0.0
O11 O 0.20155 0.54163 0.09163 0.0
O12 O 0.18152 0.43208 0.18697 0.0
O13 O 0.20875 0.49675 0.16412 0.0
Co14 Co 0.56025 0.19156 0.62796 0.0
O15 O 0.59198 0.25117 0.62673 0.0
O16 O 0.62479 0.18295 0.61367 0.0
C17 C 0.52661 0.20107 0.67849 0.0
O18 O 0.53919 0.12284 0.62735 0.0
Co19 Co 0.45283 0.18869 0.62696 0.0
O20 O 0.46028 0.11941 0.62752 0.0
C21 C 0.50173 0.2098 0.56563 0.0
C22 C 0.62882 0.22824 0.61702 0.0
C23 C 0.50033 0.09961 0.62723 0.0
O24 O 0.54053 0.20014 0.58028 0.0
O25 O 0.46213 0.21118 0.58046 0.0
O26 O 0.56971 0.1868 0.67558 0.0
O27 O 0.50648 0.21396 0.6511 0.0
Co28 Co 0.80273 0.56407 0.12697 0.0
O29 O 0.74345 0.59567 0.12333 0.0
O30 O 0.81181 0.62563 0.10729 0.0
C31 C 0.79386 0.53971 0.17984 0.0
O32 O 0.871 0.54139 0.1283 0.0
Co33 Co 0.80298 0.45548 0.13691 0.0
O34 O 0.8719 0.46399 0.14073 0.0
C35 C 0.78388 0.49465 0.07098 0.0
C36 C 0.7667 0.63081 0.1111 0.0
C37 C 0.89289 0.50265 0.13464 0.0
O38 O 0.79417 0.53573 0.08181 0.0
O39 O 0.78134 0.4581 0.08943 0.0
O40 O 0.80679 0.58243 0.17318 0.0
O41 O 0.78121 0.5151 0.15436 0.0
Co42 Co 0.44295 0.80093 0.62227 0.0
O43 O 0.41363 0.74004 0.62083 0.0
O44 O 0.38086 0.80617 0.60309 0.0
C45 C 0.46828 0.79512 0.67525 0.0
O46 O 0.46131 0.87032 0.62039 0.0
Co47 Co 0.55029 0.81148 0.63237 0.0
O48 O 0.53591 0.87927 0.63746 0.0
C49 C 0.51331 0.79022 0.56572 0.0
C50 C 0.37744 0.76121 0.60828 0.0
C51 C 0.49673 0.89626 0.62809 0.0
O52 O 0.47118 0.79121 0.57714 0.0
O53 O 0.54997 0.79542 0.5837 0.0
O54 O 0.4254 0.80739 0.66863 0.0
O55 O 0.49353 0.78298 0.64991 0.0
Co56 Co 0.20256 0.56315 0.38089 0.0
O57 O 0.26393 0.59155 0.38053 0.0
O58 O 0.20011 0.62453 0.40173 0.0
C59 C 0.20424 0.54074 0.32689 0.0
O60 O 0.13304 0.54602 0.38474 0.0
Co61 Co 0.19032 0.45688 0.36828 0.0
O62 O 0.122 0.47182 0.36744 0.0
C63 C 0.2229 0.4887 0.43355 0.0
C64 C 0.24446 0.62782 0.39429 0.0
C65 C 0.10608 0.51121 0.37747 0.0
O66 O 0.21523 0.53164 0.42498 0.0
O67 O 0.22135 0.45433 0.41311 0.0
O68 O 0.19265 0.58327 0.33505 0.0
O69 O 0.21794 0.51418 0.35109 0.0
Co70 Co 0.43335 0.19887 0.86661 0.0
O71 O 0.40185 0.25828 0.86935 0.0
O72 O 0.37088 0.1902 0.88501 0.0
C73 C 0.45975 0.20765 0.81418 0.0
O74 O 0.45606 0.1305 0.86598 0.0
Co75 Co 0.54219 0.19868 0.85886 0.0
O76 O 0.53414 0.12963 0.85586 0.0
C77 C 0.50041 0.2177 0.92407 0.0
C78 C 0.36609 0.23533 0.88088 0.0
C79 C 0.49524 0.10864 0.86102 0.0
O80 O 0.45972 0.20777 0.91238 0.0
O81 O 0.5377 0.21994 0.90635 0.0
O82 O 0.41691 0.19446 0.82007 0.0
O83 O 0.48337 0.22034 0.84011 0.0
Co84 Co 0.81398 0.44515 0.36769 0.0
O85 O 0.75598 0.41048 0.36833 0.0
O86 O 0.82502 0.38163 0.3835 0.0
C87 C 0.80477 0.47612 0.31629 0.0
O88 O 0.88149 0.46958 0.3694 0.0
Co89 Co 0.81205 0.55281 0.36603 0.0
O90 O 0.88151 0.5486 0.36964 0.0
C91 C 0.79071 0.50576 0.42814 0.0
C92 C 0.78023 0.37509 0.37909 0.0
C93 C 0.90298 0.50942 0.37057 0.0
O94 O 0.8028 0.46668 0.41472 0.0
O95 O 0.78734 0.54431 0.4121 0.0
O96 O 0.82105 0.43393 0.32034 0.0
O97 O 0.79007 0.49679 0.34302 0.0
Co98 Co 0.55834 0.8101 0.86407 0.0
O99 O 0.58621 0.74856 0.86523 0.0
O100 O 0.62216 0.81403 0.8808 0.0
C101 C 0.5288 0.80402 0.81221 0.0
O102 O 0.54136 0.88014 0.86506 0.0
Co103 Co 0.45126 0.81987 0.86042 0.0
O104 O 0.46268 0.8884 0.86515 0.0
C105 C 0.49316 0.79076 0.92268 0.0
C106 C 0.62375 0.76877 0.8764 0.0
C107 C 0.50389 0.9056 0.86578 0.0
O108 O 0.5337 0.80099 0.91063 0.0
O109 O 0.45555 0.79056 0.90545 0.0
O110 O 0.5723 0.8157 0.81699 0.0
O111 O 0.50548 0.79185 0.8385 0.0
Co112 Co 0.8038 0.55909 0.8685 0.0
O113 O 0.74232 0.58734 0.86842 0.0
O114 O 0.80758 0.62325 0.88442 0.0
C115 C 0.79953 0.52783 0.81684 0.0
O116 O 0.87346 0.54273 0.87081 0.0
Co117 Co 0.81436 0.45175 0.86603 0.0
O118 O 0.88291 0.46426 0.86902 0.0
C119 C 0.78643 0.4949 0.92821 0.0
C120 C 0.76258 0.62521 0.87912 0.0
C121 C 0.89935 0.5057 0.87086 0.0
O122 O 0.79416 0.53555 0.91536 0.0
O123 O 0.78709 0.45675 0.91157 0.0
O124 O 0.81073 0.57157 0.82124 0.0
O125 O 0.78657 0.50534 0.84331 0.0
Co126 Co 0.44814 0.80926 0.3664 0.0
O127 O 0.41908 0.74836 0.36934 0.0
O128 O 0.38603 0.81487 0.38594 0.0
C129 C 0.47361 0.80112 0.31356 0.0
O130 O 0.46738 0.8788 0.36681 0.0
Co131 Co 0.55569 0.81743 0.35682 0.0
O132 O 0.54228 0.88512 0.34949 0.0
C133 C 0.51763 0.79558 0.42296 0.0
C134 C 0.38317 0.76953 0.38226 0.0
C135 C 0.5035 0.90357 0.35842 0.0
O136 O 0.47596 0.80078 0.41155 0.0
O137 O 0.55471 0.79806 0.40503 0.0
O138 O 0.43076 0.81395 0.31993 0.0
O139 O 0.49859 0.78984 0.33919 0.0
Co140 Co 0.19291 0.44644 0.87019 0.0
O141 O 0.25194 0.41367 0.86939 0.0
O142 O 0.18387 0.38187 0.88421 0.0
C143 C 0.19963 0.48064 0.81963 0.0
O144 O 0.12477 0.4686 0.87316 0.0
Co145 Co 0.19127 0.55376 0.87233 0.0
O146 O 0.12206 0.54757 0.87535 0.0
C147 C 0.21035 0.50328 0.93369 0.0
C148 C 0.22884 0.37713 0.87958 0.0
C149 C 0.102 0.50764 0.87507 0.0
O150 O 0.20397 0.46477 0.91781 0.0
O151 O 0.21008 0.5436 0.91975 0.0
O152 O 0.18526 0.43764 0.82276 0.0
O153 O 0.21471 0.50047 0.84663 0.0
Co154 Co 0.57675 0.19697 0.36474 0.0
O155 O 0.6088 0.25606 0.36827 0.0
O156 O 0.6394 0.1873 0.38257 0.0
C157 C 0.54977 0.20724 0.31279 0.0
O158 O 0.55323 0.12895 0.36321 0.0
Co159 Co 0.46771 0.19859 0.35772 0.0
O160 O 0.47477 0.12938 0.3552 0.0
C161 C 0.51027 0.21473 0.42283 0.0
C162 C 0.64442 0.23255 0.37933 0.0
C163 C 0.51354 0.10765 0.35908 0.0
O164 O 0.55075 0.2044 0.41083 0.0
O165 O 0.47308 0.21881 0.40529 0.0
O166 O 0.59262 0.19355 0.31792 0.0
O167 O 0.52675 0.21977 0.33904 0.0
Co168 Co 0.80561 0.43483 0.62892 0.0
O169 O 0.74615 0.40336 0.626 0.0
O170 O 0.81431 0.37215 0.61099 0.0
C171 C 0.79609 0.46194 0.68096 0.0
O172 O 0.87409 0.45707 0.62988 0.0
Co173 Co 0.80652 0.54374 0.63597 0.0
O174 O 0.87554 0.53544 0.6381 0.0
C175 C 0.78823 0.50156 0.57095 0.0
C176 C 0.76914 0.36741 0.61484 0.0
C177 C 0.89636 0.49623 0.63393 0.0
O178 O 0.79746 0.46081 0.58291 0.0
O179 O 0.78636 0.53907 0.58836 0.0
O180 O 0.8095 0.41902 0.67565 0.0
O181 O 0.78382 0.48528 0.65479 0.0
Co182 Co 0.55952 0.80687 0.1233 0.0
O183 O 0.59097 0.74715 0.12183 0.0
O184 O 0.62238 0.81476 0.10558 0.0
C185 C 0.53144 0.79998 0.17571 0.0
O186 O 0.53882 0.87541 0.1222 0.0
Co187 Co 0.45203 0.81019 0.12829 0.0
O188 O 0.45982 0.87915 0.12191 0.0
C189 C 0.49396 0.78451 0.0655 0.0
C190 C 0.6269 0.76974 0.11009 0.0
C191 C 0.50006 0.89856 0.12098 0.0
O192 O 0.53411 0.79699 0.07707 0.0
O193 O 0.45728 0.78025 0.08353 0.0
O194 O 0.57427 0.81348 0.17023 0.0
O195 O 0.50832 0.78611 0.14982 0.0
Co196 Co 0.19484 0.55944 0.62785 0.0
O197 O 0.25539 0.58921 0.62586 0.0
O198 O 0.18956 0.62012 0.60619 0.0
C199 C 0.20063 0.53798 0.68187 0.0
O200 O 0.12559 0.54006 0.62626 0.0
Co201 Co 0.18675 0.45303 0.64133 0.0
O202 O 0.11804 0.46546 0.64392 0.0
C203 C 0.2168 0.48564 0.5755 0.0
C204 C 0.23441 0.62419 0.61159 0.0
C205 C 0.10027 0.50425 0.63428 0.0
O206 O 0.2066 0.52797 0.58389 0.0
O207 O 0.21702 0.4513 0.59605 0.0
O208 O 0.18709 0.57998 0.67367 0.0
O209 O 0.21343 0.51138 0.65746 0.0
Co210 Co 0.44199 0.19524 0.12845 0.0
O211 O 0.4134 0.25645 0.13008 0.0
O212 O 0.37673 0.19125 0.1148 0.0
C213 C 0.47624 0.19927 0.17907 0.0
O214 O 0.45914 0.12581 0.12513 0.0
Co215 Co 0.5496 0.18654 0.1276 0.0
O216 O 0.53778 0.11815 0.12214 0.0
C217 C 0.50223 0.21552 0.06726 0.0
C218 C 0.37493 0.23615 0.12068 0.0
C219 C 0.4966 0.10082 0.12241 0.0
O220 O 0.46257 0.2056 0.08093 0.0
O221 O 0.54096 0.21673 0.08319 0.0
O222 O 0.43246 0.18752 0.17599 0.0
O223 O 0.49691 0.21285 0.15205 0.0
C224 C 0.01889 0.47625 0.16059 0.0
C225 C 0.04452 0.49454 0.13322 0.0
C226 C 0.97039 0.51491 0.1054 0.0
C227 C 0.94517 0.50178 0.13443 0.0
N228 N 0.94605 0.47663 0.19168 0.0
N229 N 0.04537 0.53469 0.08042 0.0
C230 C 0.9696 0.48403 0.16252 0.0
C231 C 0.02042 0.51498 0.10591 0.0
N232 N 0.04143 0.45124 0.18478 0.0
N233 N 0.94667 0.52497 0.07677 0.0
H234 H 0.08184 0.53252 0.07856 0.0
H235 H 0.03019 0.55542 0.06204 0.0
H236 H 0.91015 0.52501 0.07511 0.0
H237 H 0.96304 0.52928 0.05384 0.0
H238 H 0.02387 0.4326 0.20326 0.0
H239 H 0.07753 0.44545 0.18491 0.0
H240 H 0.96273 0.46935 0.21408 0.0
H241 H 0.91005 0.48199 0.19437 0.0
C242 C 0.46307 0.97443 0.64484 0.0
C243 C 0.49365 0.94816 0.62427 0.0
C244 C 0.52576 0.02216 0.60209 0.0
C245 C 0.50114 0.04735 0.62705 0.0
N246 N 0.45629 0.04454 0.67786 0.0
N247 N 0.55609 0.94712 0.58349 0.0
C248 C 0.47252 0.02263 0.65002 0.0
C249 C 0.52583 0.97209 0.60305 0.0
N250 N 0.42447 0.95416 0.65897 0.0
N251 N 0.54694 0.04569 0.57653 0.0
H252 H 0.55467 0.91067 0.58117 0.0
H253 H 0.58406 0.96248 0.57079 0.0
H254 H 0.54679 0.08217 0.57441 0.0
H255 H 0.56092 0.02893 0.55579 0.0
H256 H 0.39957 0.97338 0.67224 0.0
H257 H 0.41407 0.91985 0.65396 0.0
H258 H 0.43846 0.02688 0.69675 0.0
H259 H 0.46629 0.07861 0.68397 0.0
C260 C 0.0298 0.54835 0.35956 0.0
C261 C 0.05406 0.51634 0.38034 0.0
C262 C 0.97791 0.48527 0.39941 0.0
C263 C 0.95506 0.51049 0.37368 0.0
N264 N 0.96224 0.55833 0.32441 0.0
N265 N 0.0508 0.45365 0.42062 0.0
C266 C 0.98179 0.54012 0.3525 0.0
C267 C 0.0279 0.48441 0.40035 0.0
N268 N 0.05179 0.58702 0.34683 0.0
N269 N 0.95214 0.46426 0.42396 0.0
H270 H 0.08686 0.45532 0.42444 0.0
H271 H 0.03427 0.42561 0.4325 0.0
H272 H 0.91559 0.46568 0.425 0.0
H273 H 0.96709 0.44953 0.44512 0.0
H274 H 0.0339 0.61309 0.33377 0.0
H275 H 0.08628 0.59603 0.35244 0.0
H276 H 0.98161 0.57658 0.30658 0.0
H277 H 0.92834 0.54996 0.31694 0.0
C278 C 0.51404 0.98113 0.83448 0.0
C279 C 0.50772 0.95759 0.8652 0.0
C280 C 0.48889 0.0324 0.8925 0.0
C281 C 0.49654 0.05638 0.86196 0.0
N282 N 0.52197 0.05484 0.80473 0.0
N283 N 0.49923 0.96061 0.92444 0.0
C284 C 0.51089 0.03106 0.83321 0.0
C285 C 0.49792 0.98323 0.89451 0.0
N286 N 0.52165 0.95548 0.8063 0.0
N287 N 0.47309 0.05659 0.91962 0.0
H288 H 0.50778 0.92509 0.92653 0.0
H289 H 0.4966 0.97748 0.94726 0.0
H290 H 0.46824 0.09285 0.91983 0.0
H291 H 0.46185 0.04051 0.94144 0.0
H292 H 0.52001 0.96934 0.78242 0.0
H293 H 0.52772 0.91937 0.80666 0.0
H294 H 0.53812 0.03942 0.78428 0.0
H295 H 0.51729 0.09093 0.80192 0.0
C296 C 0.97413 0.52134 0.90188 0.0
C297 C 0.95099 0.51082 0.8717 0.0
C298 C 0.02633 0.49384 0.84493 0.0
C299 C 0.04997 0.50696 0.87454 0.0
N300 N 0.04708 0.54142 0.92933 0.0
N301 N 0.95485 0.49954 0.81263 0.0
C302 C 0.02408 0.52334 0.90246 0.0
C303 C 0.97706 0.50056 0.84266 0.0
N304 N 0.94844 0.52802 0.93018 0.0
N305 N 0.05076 0.47505 0.81889 0.0
H306 H 0.91924 0.50718 0.81009 0.0
H307 H 0.97238 0.49658 0.79003 0.0
H308 H 0.0871 0.47105 0.81877 0.0
H309 H 0.03462 0.4601 0.79827 0.0
H310 H 0.96324 0.52995 0.95375 0.0
H311 H 0.91181 0.5287 0.93037 0.0
H312 H 0.03013 0.5585 0.94879 0.0
H313 H 0.08355 0.54255 0.93117 0.0
C314 C 0.48321 0.0313 0.3358 0.0
C315 C 0.51164 0.05524 0.35935 0.0
C316 C 0.5344 0.9791 0.38303 0.0
C317 C 0.50225 0.95582 0.36151 0.0
N318 N 0.43458 0.96338 0.32574 0.0
N319 N 0.55309 0.05143 0.41164 0.0
C320 C 0.47292 0.98296 0.34056 0.0
C321 C 0.53429 0.02907 0.38474 0.0
N322 N 0.46749 0.05397 0.30805 0.0
N323 N 0.56484 0.95379 0.40217 0.0
H324 H 0.55127 0.08766 0.41511 0.0
H325 H 0.56568 0.03358 0.43238 0.0
H326 H 0.56445 0.91725 0.40358 0.0
H327 H 0.59251 0.96918 0.41513 0.0
H328 H 0.4504 0.03659 0.28877 0.0
H329 H 0.47624 0.08866 0.30245 0.0
H330 H 0.41036 0.98302 0.3122 0.0
H331 H 0.42361 0.92916 0.33053 0.0
C332 C 0.97463 0.47487 0.60765 0.0
C333 C 0.94881 0.49703 0.63352 0.0
C334 C 0.02129 0.53519 0.65236 0.0
C335 C 0.04812 0.50648 0.63082 0.0
N336 N 0.05024 0.44726 0.58801 0.0
N337 N 0.95077 0.53984 0.68538 0.0
C338 C 0.02471 0.47549 0.60864 0.0
C339 C 0.97307 0.5248 0.65728 0.0
N340 N 0.95177 0.45589 0.58102 0.0
N341 N 0.04102 0.5733 0.66739 0.0
H342 H 0.91617 0.53093 0.6911 0.0
H343 H 0.9684 0.55647 0.70476 0.0
H344 H 0.07513 0.58444 0.66237 0.0
H345 H 0.02158 0.59718 0.68139 0.0
H346 H 0.96908 0.44379 0.55991 0.0
H347 H 0.91541 0.45657 0.57829 0.0
H348 H 0.0355 0.41985 0.57443 0.0
H349 H 0.08659 0.45 0.58562 0.0
C350 C 0.49627 0.02394 0.1519 0.0
C351 C 0.4927 0.04908 0.12165 0.0
C352 C 0.49407 0.97513 0.09042 0.0
C353 C 0.50152 0.95047 0.12059 0.0
N354 N 0.51805 0.95132 0.17925 0.0
N355 N 0.4901 0.05044 0.06197 0.0
C356 C 0.50509 0.97488 0.15113 0.0
C357 C 0.49198 0.02515 0.0908 0.0
N358 N 0.48986 0.0469 0.18135 0.0
N359 N 0.48876 0.95056 0.06153 0.0
H360 H 0.48532 0.08677 0.06162 0.0
H361 H 0.49489 0.036 0.0385 0.0
H362 H 0.49365 0.9143 0.06013 0.0
H363 H 0.47794 0.96551 0.03925 0.0
H364 H 0.48773 0.02998 0.20421 0.0
H365 H 0.48183 0.0826 0.18261 0.0
H366 H 0.52562 0.96784 0.20165 0.0
H367 H 0.52563 0.9155 0.17945 0.0
C368 C 0.15917 0.52606 0.27434 0.0
C369 C 0.20234 0.52438 0.29182 0.0
C370 C 0.24084 0.49134 0.24239 0.0
C371 C 0.19822 0.49619 0.22443 0.0
N372 N 0.11925 0.52595 0.22163 0.0
N373 N 0.28634 0.51344 0.29084 0.0
C374 C 0.15819 0.51596 0.23994 0.0
C375 C 0.24383 0.50911 0.27542 0.0
N376 N 0.11843 0.535 0.29099 0.0
N377 N 0.27811 0.46871 0.22818 0.0
H378 H 0.29003 0.52667 0.31482 0.0
H379 H 0.31833 0.50774 0.27895 0.0
H380 H 0.27785 0.45685 0.2037 0.0
H381 H 0.30811 0.45897 0.24124 0.0
H382 H 0.0851 0.53102 0.28075 0.0
H383 H 0.1179 0.54207 0.31617 0.0
H384 H 0.09088 0.54542 0.23041 0.0
H385 H 0.11732 0.51833 0.19659 0.0
C386 C 0.52772 0.23958 0.73484 0.0
C387 C 0.50571 0.20872 0.71193 0.0
C388 C 0.46157 0.17309 0.75719 0.0
C389 C 0.47893 0.20716 0.77976 0.0
N390 N 0.52005 0.28115 0.78691 0.0
N391 N 0.4382 0.16019 0.70082 0.0
C392 C 0.50994 0.24276 0.76789 0.0
C393 C 0.46838 0.17994 0.72287 0.0
N394 N 0.56483 0.26666 0.72497 0.0
N395 N 0.44033 0.13292 0.76822 0.0
H396 H 0.43996 0.16758 0.67571 0.0
H397 H 0.4082 0.14179 0.70812 0.0
H398 H 0.43829 0.12381 0.79323 0.0
H399 H 0.43057 0.10582 0.75224 0.0
H400 H 0.58574 0.28531 0.74158 0.0
H401 H 0.57601 0.2687 0.70035 0.0
H402 H 0.5389 0.30992 0.77802 0.0
H403 H 0.50536 0.28708 0.81018 0.0
C404 C 0.76105 0.48993 0.22714 0.0
C405 C 0.79576 0.52127 0.21443 0.0
C406 C 0.82535 0.53252 0.27067 0.0
C407 C 0.797 0.49533 0.2824 0.0
N408 N 0.73947 0.43523 0.27079 0.0
N409 N 0.87007 0.56068 0.22421 0.0
C410 C 0.76563 0.47262 0.26021 0.0
C411 C 0.83059 0.53919 0.23619 0.0
N412 N 0.72218 0.47904 0.20885 0.0
N413 N 0.84645 0.56253 0.2922 0.0
H414 H 0.87819 0.56249 0.19902 0.0
H415 H 0.8978 0.57078 0.23952 0.0
H416 H 0.84097 0.56032 0.31754 0.0
H417 H 0.86419 0.59272 0.28448 0.0
H418 H 0.69398 0.45992 0.21835 0.0
H419 H 0.7153 0.49332 0.18558 0.0
H420 H 0.72039 0.41394 0.25466 0.0
H421 H 0.73882 0.42404 0.29544 0.0
C422 C 0.52736 0.7615 0.75741 0.0
C423 C 0.51023 0.79816 0.77807 0.0
C424 C 0.47448 0.8357 0.73002 0.0
C425 C 0.48642 0.79672 0.70986 0.0
N426 N 0.51679 0.71751 0.70648 0.0
N427 N 0.45614 0.86237 0.78505 0.0
C428 C 0.51111 0.75817 0.72401 0.0
C429 C 0.48013 0.83272 0.76471 0.0
N430 N 0.55882 0.72971 0.76968 0.0
N431 N 0.46015 0.87679 0.71593 0.0
H432 H 0.45771 0.85912 0.81059 0.0
H433 H 0.43071 0.88583 0.77658 0.0
H434 H 0.45975 0.88136 0.6904 0.0
H435 H 0.45507 0.90768 0.72935 0.0
H436 H 0.57671 0.70575 0.75478 0.0
H437 H 0.56903 0.72906 0.79453 0.0
H438 H 0.53023 0.6868 0.71684 0.0
H439 H 0.50403 0.71285 0.68249 0.0
C440 C 0.76109 0.52708 0.76051 0.0
C441 C 0.79484 0.50821 0.78279 0.0
C442 C 0.83344 0.46848 0.73664 0.0
C443 C 0.79666 0.48195 0.71499 0.0
N444 N 0.71935 0.51637 0.70875 0.0
N445 N 0.8526 0.44799 0.7927 0.0
C446 C 0.75879 0.50948 0.72742 0.0
C447 C 0.82779 0.47495 0.7711 0.0
N448 N 0.73065 0.56107 0.771 0.0
N449 N 0.87466 0.45092 0.72445 0.0
H450 H 0.84596 0.44891 0.8179 0.0
H451 H 0.8746 0.4207 0.78519 0.0
H452 H 0.88183 0.44843 0.69915 0.0
H453 H 0.90381 0.44456 0.73944 0.0
H454 H 0.7093 0.58004 0.75484 0.0
H455 H 0.72851 0.57205 0.79565 0.0
H456 H 0.68902 0.53209 0.71802 0.0
H457 H 0.71482 0.50226 0.68516 0.0
C458 C 0.51641 0.7607 0.26591 0.0
C459 C 0.49153 0.80005 0.27881 0.0
C460 C 0.4827 0.83081 0.22261 0.0
C461 C 0.51321 0.79589 0.21019 0.0
N462 N 0.56371 0.72954 0.22082 0.0
N463 N 0.46451 0.87927 0.2696 0.0
C464 C 0.53177 0.76154 0.23216 0.0
C465 C 0.47858 0.83704 0.25717 0.0
N466 N 0.52308 0.72156 0.28497 0.0
N467 N 0.45659 0.85742 0.20156 0.0
H468 H 0.46553 0.88629 0.29486 0.0
H469 H 0.45839 0.90869 0.25478 0.0
H470 H 0.45611 0.85063 0.17637 0.0
H471 H 0.43122 0.88127 0.20959 0.0
H472 H 0.53678 0.69032 0.27563 0.0
H473 H 0.51088 0.71855 0.30925 0.0
H474 H 0.58246 0.70725 0.23647 0.0
H475 H 0.57337 0.72714 0.19589 0.0
C476 C 0.24301 0.48897 0.76538 0.0
C477 C 0.2046 0.50171 0.78602 0.0
C478 C 0.16233 0.53103 0.7376 0.0
C479 C 0.20204 0.52274 0.71724 0.0
N480 N 0.2843 0.50236 0.7135 0.0
N481 N 0.13434 0.54742 0.79271 0.0
C482 C 0.24367 0.50396 0.73155 0.0
C483 C 0.1664 0.52676 0.77239 0.0
N484 N 0.27856 0.46215 0.77796 0.0
N485 N 0.11977 0.54026 0.72363 0.0
H486 H 0.13873 0.54729 0.81819 0.0
H487 H 0.10756 0.5693 0.78422 0.0
H488 H 0.11496 0.53932 0.69812 0.0
H489 H 0.08866 0.54245 0.73721 0.0
H490 H 0.30463 0.44709 0.76326 0.0
H491 H 0.28041 0.45279 0.80297 0.0
H492 H 0.31667 0.49342 0.72372 0.0
H493 H 0.28664 0.51412 0.68906 0.0
C494 C 0.50202 0.24381 0.26649 0.0
C495 C 0.52894 0.20567 0.27907 0.0
C496 C 0.52996 0.17026 0.22388 0.0
C497 C 0.49773 0.20436 0.21241 0.0
N498 N 0.44859 0.27151 0.22395 0.0
N499 N 0.55729 0.12626 0.27105 0.0
C500 C 0.48209 0.24035 0.23417 0.0
C501 C 0.53969 0.16705 0.25816 0.0
N502 N 0.49781 0.28444 0.2843 0.0
N503 N 0.55238 0.14152 0.20206 0.0
H504 H 0.56237 0.1209 0.29635 0.0
H505 H 0.56122 0.09571 0.25707 0.0
H506 H 0.54777 0.14495 0.17672 0.0
H507 H 0.57936 0.11872 0.20885 0.0
H508 H 0.48263 0.31488 0.27477 0.0
H509 H 0.51362 0.28957 0.3073 0.0
H510 H 0.43181 0.29476 0.24002 0.0
H511 H 0.43554 0.27227 0.19978 0.0
C512 C 0.25094 0.51699 0.98833 0.0
C513 C 0.21111 0.50108 0.97044 0.0
C514 C 0.17095 0.48144 0.02258 0.0
C515 C 0.20926 0.50078 0.04059 0.0
N516 N 0.28436 0.53985 0.0414 0.0
N517 N 0.13054 0.47416 0.97014 0.0
C518 C 0.24886 0.51954 0.02366 0.0
C519 C 0.1706 0.48446 0.98745 0.0
N520 N 0.29129 0.52781 0.97153 0.0
N521 N 0.13447 0.46032 0.03902 0.0
H522 H 0.12837 0.47499 0.94438 0.0
H523 H 0.09799 0.46844 0.98123 0.0
H524 H 0.13009 0.46136 0.06466 0.0
H525 H 0.1095 0.43932 0.02738 0.0
H526 H 0.32315 0.53517 0.98301 0.0
H527 H 0.29394 0.52587 0.94575 0.0
H528 H 0.3116 0.559 0.03068 0.0
H529 H 0.2854 0.53966 0.06727 0.0
C530 C 0.48527 0.176 0.47544 0.0
C531 C 0.50553 0.21551 0.45929 0.0
C532 C 0.51951 0.25345 0.51302 0.0
C533 C 0.50201 0.2127 0.5291 0.0
N534 N 0.47466 0.13251 0.52664 0.0
N535 N 0.54608 0.28976 0.46171 0.0
C536 C 0.48631 0.17334 0.51059 0.0
C537 C 0.5239 0.2537 0.47782 0.0
N538 N 0.46522 0.14082 0.45713 0.0
N539 N 0.53071 0.29218 0.53144 0.0
H540 H 0.54793 0.29206 0.4359 0.0
H541 H 0.56498 0.316 0.47372 0.0
H542 H 0.52836 0.29276 0.55728 0.0
H543 H 0.53942 0.32466 0.52126 0.0
H544 H 0.44465 0.11422 0.46733 0.0
H545 H 0.46659 0.13943 0.4313 0.0
H546 H 0.46874 0.10073 0.51461 0.0
H547 H 0.47433 0.12914 0.5524 0.0
C548 C 0.74228 0.50778 0.01704 0.0
C549 C 0.78109 0.48883 0.03463 0.0
C550 C 0.82148 0.47082 0.98238 0.0
C551 C 0.78338 0.49131 0.96475 0.0
N552 N 0.7051 0.52307 0.96371 0.0
N553 N 0.85911 0.45577 0.03531 0.0
C554 C 0.74307 0.50822 0.98167 0.0
C555 C 0.82075 0.47049 0.01762 0.0
N556 N 0.70532 0.52626 0.03441 0.0
N557 N 0.85844 0.45163 0.96533 0.0
H558 H 0.85971 0.4536 0.06112 0.0
H559 H 0.89162 0.44803 0.02489 0.0
H560 H 0.86278 0.45469 0.93975 0.0
H561 H 0.88415 0.43063 0.97607 0.0
H562 H 0.67777 0.54486 0.02379 0.0
H563 H 0.70284 0.52428 0.06021 0.0
H564 H 0.67307 0.5329 0.97395 0.0
H565 H 0.70468 0.52334 0.93782 0.0
C566 C 0.5355 0.75197 0.5116 0.0
C567 C 0.5189 0.79175 0.52928 0.0
C568 C 0.5106 0.83576 0.47735 0.0
C569 C 0.52235 0.79453 0.45943 0.0
N570 N 0.54315 0.7126 0.4583 0.0
N571 N 0.48803 0.87089 0.52956 0.0
C572 C 0.53457 0.75245 0.47621 0.0
C573 C 0.50592 0.83353 0.5123 0.0
N574 N 0.55193 0.71388 0.52869 0.0
N575 N 0.505 0.87746 0.46087 0.0
H576 H 0.4868 0.87232 0.55536 0.0
H577 H 0.47184 0.89962 0.51843 0.0
H578 H 0.5066 0.88036 0.43513 0.0
H579 H 0.50239 0.90991 0.4726 0.0
H580 H 0.56877 0.68554 0.51756 0.0
H581 H 0.55138 0.71192 0.55454 0.0
H582 H 0.54729 0.67947 0.46882 0.0
H583 H 0.54348 0.71219 0.43241 0.0
C584 C 0.26492 0.50003 0.48789 0.0
C585 C 0.22835 0.47819 0.46959 0.0
C586 C 0.19307 0.44886 0.52142 0.0
C587 C 0.2255 0.47643 0.53971 0.0
N588 N 0.29829 0.51895 0.54202 0.0
N589 N 0.15732 0.43138 0.46858 0.0
C590 C 0.26339 0.49926 0.52334 0.0
C591 C 0.19311 0.45143 0.48621 0.0
N592 N 0.30066 0.5217 0.47109 0.0
N593 N 0.16202 0.42011 0.5376 0.0
H594 H 0.15678 0.42913 0.44288 0.0
H595 H 0.12645 0.41882 0.47924 0.0
H596 H 0.15836 0.4188 0.56324 0.0
H597 H 0.14214 0.39436 0.52584 0.0
H598 H 0.32756 0.54074 0.48213 0.0
H599 H 0.30372 0.52025 0.4453 0.0
H600 H 0.32789 0.53551 0.53247 0.0
H601 H 0.2986 0.51706 0.56789 0.0
C602 C 0.52552 0.18162 0.97755 0.0
C603 C 0.50496 0.22008 0.96055 0.0
C604 C 0.48197 0.25594 0.01354 0.0
C605 C 0.50441 0.21849 0.03058 0.0
N606 N 0.55233 0.14817 0.02929 0.0
N607 N 0.46932 0.29669 0.96121 0.0
C608 C 0.52793 0.18232 0.01271 0.0
C609 C 0.4847 0.25808 0.97825 0.0
N610 N 0.5401 0.14292 0.96018 0.0
N611 N 0.45782 0.28915 0.03114 0.0
H612 H 0.47096 0.29913 0.9354 0.0
H613 H 0.45803 0.32757 0.97247 0.0
H614 H 0.45751 0.29022 0.05701 0.0
H615 H 0.43609 0.31423 0.02033 0.0
H616 H 0.54905 0.11109 0.97123 0.0
H617 H 0.53998 0.14101 0.93436 0.0
H618 H 0.57566 0.12523 0.01775 0.0
H619 H 0.5515 0.14385 0.05493 0.0
C620 C 0.74786 0.48965 0.48146 0.0
C621 C 0.78789 0.50762 0.46468 0.0
C622 C 0.82732 0.52234 0.51766 0.0
C623 C 0.78665 0.50608 0.53452 0.0
N624 N 0.70658 0.47901 0.53388 0.0
N625 N 0.86341 0.54637 0.46591 0.0
C626 C 0.74637 0.49103 0.51679 0.0
C627 C 0.82682 0.52577 0.48255 0.0
N628 N 0.71172 0.47088 0.46351 0.0
N629 N 0.86732 0.53217 0.53518 0.0
H630 H 0.86614 0.54704 0.44013 0.0
H631 H 0.88985 0.56552 0.47749 0.0
H632 H 0.86902 0.53124 0.56102 0.0
H633 H 0.89994 0.53805 0.52426 0.0
H634 H 0.68353 0.45286 0.47391 0.0
H635 H 0.71102 0.47127 0.43762 0.0
H636 H 0.67453 0.47142 0.52276 0.0
H637 H 0.70477 0.47939 0.55974 0.0
C638 C 0.51268 0.74657 0.01073 0.0
C639 C 0.48866 0.78179 0.02902 0.0
C640 C 0.46552 0.8211 0.97742 0.0
C641 C 0.48889 0.78554 0.95906 0.0
N642 N 0.52751 0.71043 0.95702 0.0
N643 N 0.4349 0.84775 0.03004 0.0
C644 C 0.51045 0.74703 0.9754 0.0
C645 C 0.46248 0.81726 0.01243 0.0
N646 N 0.53773 0.71292 0.02724 0.0
N647 N 0.44884 0.86028 0.96161 0.0
H648 H 0.43422 0.84951 0.05582 0.0
H649 H 0.41008 0.86967 0.01909 0.0
H650 H 0.44944 0.86466 0.93595 0.0
H651 H 0.43773 0.89042 0.97395 0.0
H652 H 0.56021 0.68922 0.01568 0.0
H653 H 0.53761 0.70992 0.05305 0.0
H654 H 0.54006 0.67925 0.96715 0.0
H655 H 0.52613 0.70988 0.93115 0.0
C656 C 0.2714 0.30414 0.15388 0.0
C657 C 0.25988 0.332 0.12586 0.0
C658 C 0.31751 0.28934 0.09198 0.0
C659 C 0.33033 0.26291 0.1204 0.0
N660 N 0.31287 0.23628 0.17575 0.0
N661 N 0.26373 0.34563 0.06698 0.0
C662 C 0.30489 0.26737 0.15049 0.0
C663 C 0.28014 0.32254 0.09438 0.0
N664 N 0.25164 0.31419 0.184 0.0
N665 N 0.34232 0.28375 0.06319 0.0
H666 H 0.23671 0.37033 0.06822 0.0
H667 H 0.27419 0.33812 0.04282 0.0
H668 H 0.36811 0.258 0.06043 0.0
H669 H 0.3387 0.30527 0.04247 0.0
H670 H 0.26268 0.29945 0.2063 0.0
H671 H 0.22518 0.33921 0.18696 0.0
H672 H 0.29288 0.23479 0.19736 0.0
H673 H 0.33718 0.20901 0.17389 0.0
C674 C 0.70905 0.32195 0.58323 0.0
C675 C 0.74379 0.3229 0.60839 0.0
C676 C 0.71002 0.25241 0.63406 0.0
C677 C 0.67321 0.25372 0.6104 0.0
N678 N 0.64412 0.27994 0.5576 0.0
N679 N 0.78554 0.28297 0.65202 0.0
C680 C 0.675 0.28534 0.58326 0.0
C681 C 0.74725 0.2857 0.6317 0.0
N682 N 0.70789 0.35709 0.56008 0.0
N683 N 0.70762 0.22147 0.65998 0.0
H684 H 0.81281 0.30738 0.65131 0.0
H685 H 0.79238 0.2546 0.66758 0.0
H686 H 0.68157 0.19583 0.66192 0.0
H687 H 0.72994 0.22238 0.68039 0.0
H688 H 0.68058 0.36198 0.5433 0.0
H689 H 0.73425 0.38249 0.5583 0.0
H690 H 0.64524 0.29951 0.53579 0.0
H691 H 0.61957 0.25272 0.55702 0.0
C692 C 0.74304 0.71108 0.12912 0.0
C693 C 0.74213 0.67559 0.10448 0.0
C694 C 0.67671 0.71531 0.07672 0.0
C695 C 0.67186 0.74489 0.10472 0.0
N696 N 0.70082 0.77391 0.15693 0.0
N697 N 0.71193 0.64496 0.0532 0.0
C698 C 0.70585 0.74441 0.1304 0.0
C699 C 0.7105 0.67848 0.07744 0.0
N700 N 0.77893 0.71213 0.15159 0.0
N701 N 0.64899 0.72283 0.04959 0.0
H702 H 0.7382 0.61942 0.05229 0.0
H703 H 0.68678 0.64158 0.03464 0.0
H704 H 0.62482 0.75037 0.04861 0.0
H705 H 0.65258 0.70484 0.02727 0.0
H706 H 0.78401 0.73918 0.16855 0.0
H707 H 0.80621 0.68769 0.15143 0.0
H708 H 0.7207 0.77159 0.1785 0.0
H709 H 0.67507 0.79994 0.15793 0.0
C710 C 0.29441 0.66713 0.5778 0.0
C711 C 0.26107 0.66755 0.60395 0.0
C712 C 0.29702 0.73824 0.62742 0.0
C713 C 0.33306 0.73517 0.60313 0.0
N714 N 0.36147 0.70499 0.55119 0.0
N715 N 0.22197 0.70933 0.64786 0.0
C716 C 0.33006 0.70229 0.57683 0.0
C717 C 0.25934 0.70539 0.62671 0.0
N718 N 0.29212 0.63243 0.55445 0.0
N719 N 0.30053 0.77061 0.65237 0.0
H720 H 0.1943 0.68531 0.64813 0.0
H721 H 0.21616 0.73815 0.66318 0.0
H722 H 0.32671 0.7962 0.65306 0.0
H723 H 0.2789 0.77113 0.67319 0.0
H724 H 0.31714 0.62696 0.53605 0.0
H725 H 0.26429 0.60857 0.55363 0.0
H726 H 0.36054 0.68383 0.5302 0.0
H727 H 0.38732 0.73097 0.54999 0.0
C728 C 0.3009 0.74299 0.37041 0.0
C729 C 0.34076 0.74225 0.39147 0.0
C730 C 0.30971 0.67329 0.42079 0.0
C731 C 0.27163 0.67197 0.39818 0.0
N732 N 0.22388 0.71127 0.35735 0.0
N733 N 0.37822 0.71532 0.4414 0.0
C734 C 0.26469 0.70906 0.37513 0.0
C735 C 0.34344 0.71013 0.41832 0.0
N736 N 0.29924 0.77411 0.34455 0.0
N737 N 0.31391 0.63853 0.44402 0.0
H738 H 0.40283 0.74247 0.44019 0.0
H739 H 0.38079 0.6954 0.46297 0.0
H740 H 0.28778 0.61334 0.44773 0.0
H741 H 0.34315 0.6339 0.45911 0.0
H742 H 0.27439 0.77284 0.32567 0.0
H743 H 0.3244 0.80027 0.34095 0.0
H744 H 0.21454 0.73964 0.34247 0.0
H745 H 0.19724 0.68634 0.35953 0.0
C746 C 0.28608 0.25938 0.86241 0.0
C747 C 0.32151 0.26054 0.88706 0.0
C748 C 0.28346 0.3282 0.91335 0.0
C749 C 0.25368 0.33224 0.88536 0.0
N750 N 0.22389 0.30162 0.83386 0.0
N751 N 0.35268 0.292 0.93777 0.0
C752 C 0.2534 0.29714 0.86042 0.0
C753 C 0.31931 0.29337 0.91343 0.0
N754 N 0.2845 0.2227 0.84058 0.0
N755 N 0.27719 0.35779 0.93969 0.0
H756 H 0.37733 0.26495 0.93935 0.0
H757 H 0.35682 0.31778 0.95581 0.0
H758 H 0.25075 0.38318 0.94014 0.0
H759 H 0.29529 0.35498 0.96201 0.0
H760 H 0.25751 0.21749 0.82361 0.0
H761 H 0.30846 0.19502 0.8413 0.0
H762 H 0.22555 0.28065 0.81277 0.0
H763 H 0.19857 0.32801 0.83228 0.0
C764 C 0.72427 0.25804 0.36061 0.0
C765 C 0.68924 0.25731 0.38568 0.0
C766 C 0.72472 0.32589 0.41246 0.0
C767 C 0.75669 0.32952 0.38555 0.0
N768 N 0.79605 0.29344 0.33927 0.0
N769 N 0.66254 0.28112 0.43958 0.0
C770 C 0.75977 0.29332 0.36152 0.0
C771 C 0.69186 0.28816 0.41314 0.0
N772 N 0.72158 0.22694 0.33485 0.0
N773 N 0.72519 0.35945 0.43669 0.0
H774 H 0.63897 0.25302 0.44047 0.0
H775 H 0.66365 0.30043 0.46146 0.0
H776 H 0.75101 0.38546 0.43772 0.0
H777 H 0.70017 0.36217 0.45541 0.0
H778 H 0.74226 0.22881 0.31359 0.0
H779 H 0.69712 0.19966 0.33424 0.0
H780 H 0.80278 0.26625 0.32271 0.0
H781 H 0.82194 0.31937 0.33912 0.0
C782 C 0.73741 0.70408 0.85816 0.0
C783 C 0.73514 0.66909 0.88322 0.0
C784 C 0.66948 0.71061 0.90969 0.0
C785 C 0.66693 0.7408 0.88178 0.0
N786 N 0.69785 0.7679 0.82951 0.0
N787 N 0.70192 0.63946 0.93404 0.0
C788 C 0.70135 0.73865 0.85634 0.0
C789 C 0.70228 0.67281 0.9096 0.0
N790 N 0.77368 0.70377 0.83588 0.0
N791 N 0.6407 0.71865 0.93626 0.0
H792 H 0.72752 0.61334 0.93569 0.0
H793 H 0.67588 0.63666 0.95207 0.0
H794 H 0.6172 0.74677 0.93692 0.0
H795 H 0.64253 0.70028 0.95855 0.0
H796 H 0.78007 0.73068 0.81896 0.0
H797 H 0.79987 0.67819 0.83593 0.0
H798 H 0.71791 0.76445 0.80805 0.0
H799 H 0.67302 0.79475 0.82801 0.0
loop_
_geom_bond_atom_site_label_1
_geom_bond_atom_site_label_2
_geom_bond_distance
_geom_bond_site_symmetry_2
_ccdc_geom_bond_type
Co0 O1 2.216 . S
Co0 O2 2.091 . S
Co0 O4 2.004 . S
Co0 O10 2.021 . S
Co0 O12 2.137 . S
Co0 O13 2.244 . S
O1 Co0 2.216 . S
O1 C8 1.247 . S
O2 Co0 2.091 . S
O2 C8 1.261 . S
C3 O12 1.247 . S
C3 O13 1.272 . S
O4 Co0 2.004 . S
O4 C9 1.259 . S
Co5 O6 2.061 . S
Co5 O11 2.052 . S
Co5 O13 2.135 . S
O6 Co5 2.061 . S
O6 C9 1.235 . S
C7 O10 1.238 . S
C7 O11 1.241 . S
C8 O1 1.247 . S
C8 O2 1.261 . S
C9 O4 1.259 . S
C9 O6 1.235 . S
O10 Co0 2.021 . S
O10 C7 1.238 . S
O11 Co5 2.052 . S
O11 C7 1.241 . S
O12 Co0 2.137 . S
O12 C3 1.247 . S
O13 Co0 2.244 . S
O13 C3 1.272 . S
O13 Co5 2.135 . S
Co14 O15 2.216 . S
Co14 O16 2.091 . S
Co14 O18 2.004 . S
Co14 O24 2.021 . S
Co14 O26 2.137 . S
Co14 O27 2.244 . S
O15 Co14 2.216 . S
O15 C22 1.247 . S
O16 Co14 2.091 . S
O16 C22 1.261 . S
C17 O26 1.247 . S
C17 O27 1.272 . S
O18 Co14 2.004 . S
O18 C23 1.259 . S
Co19 O20 2.061 . S
Co19 O25 2.052 . S
Co19 O27 2.135 . S
O20 Co19 2.061 . S
O20 C23 1.235 . S
C21 O24 1.238 . S
C21 O25 1.241 . S
C22 O15 1.247 . S
C22 O16 1.261 . S
C23 O18 1.259 . S
C23 O20 1.235 . S
O24 Co14 2.021 . S
O24 C21 1.238 . S
O25 Co19 2.052 . S
O25 C21 1.241 . S
O26 Co14 2.137 . S
O26 C17 1.247 . S
O27 Co14 2.244 . S
O27 C17 1.272 . S
O27 Co19 2.135 . S
Co28 O29 2.216 . S
Co28 O30 2.091 . S
Co28 O32 2.004 . S
Co28 O38 2.021 . S
Co28 O40 2.137 . S
Co28 O41 2.244 . S
O29 Co28 2.216 . S
O29 C36 1.247 . S
O30 Co28 2.091 . S
O30 C36 1.261 . S
C31 O40 1.247 . S
C31 O41 1.272 . S
O32 Co28 2.004 . S
O32 C37 1.259 . S
Co33 O34 2.061 . S
Co33 O39 2.052 . S
Co33 O41 2.135 . S
O34 Co33 2.061 . S
O34 C37 1.235 . S
C35 O38 1.238 . S
C35 O39 1.241 . S
C36 O29 1.247 . S
C36 O30 1.261 . S
C37 O32 1.259 . S
C37 O34 1.235 . S
O38 Co28 2.021 . S
O38 C35 1.238 . S
O39 Co33 2.052 . S
O39 C35 1.241 . S
O40 Co28 2.137 . S
O40 C31 1.247 . S
O41 Co28 2.244 . S
O41 C31 1.272 . S
O41 Co33 2.135 . S
Co42 O43 2.216 . S
Co42 O44 2.091 . S
Co42 O46 2.004 . S
Co42 O52 2.021 . S
Co42 O54 2.137 . S
Co42 O55 2.244 . S
O43 Co42 2.216 . S
O43 C50 1.247 . S
O44 Co42 2.091 . S
O44 C50 1.261 . S
C45 O54 1.247 . S
C45 O55 1.272 . S
O46 Co42 2.004 . S
O46 C51 1.259 . S
Co47 O48 2.061 . S
Co47 O53 2.052 . S
Co47 O55 2.135 . S
O48 Co47 2.061 . S
O48 C51 1.235 . S
C49 O52 1.238 . S
C49 O53 1.241 . S
C50 O43 1.247 . S
C50 O44 1.261 . S
C51 O46 1.259 . S
C51 O48 1.235 . S
O52 Co42 2.021 . S
O52 C49 1.238 . S
O53 Co47 2.052 . S
O53 C49 1.241 . S
O54 Co42 2.137 . S
O54 C45 1.247 . S
O55 Co42 2.244 . S
O55 C45 1.272 . S
O55 Co47 2.135 . S
Co56 O57 2.216 . S
Co56 O58 2.091 . S
Co56 O60 2.004 . S
Co56 O66 2.021 . S
Co56 O68 2.137 . S
Co56 O69 2.244 . S
O57 Co56 2.216 . S
O57 C64 1.247 . S
O58 Co56 2.091 . S
O58 C64 1.261 . S
C59 O68 1.247 . S
C59 O69 1.272 . S
O60 Co56 2.004 . S
O60 C65 1.259 . S
Co61 O62 2.061 . S
Co61 O67 2.052 . S
Co61 O69 2.135 . S
O62 Co61 2.061 . S
O62 C65 1.235 . S
C63 O66 1.238 . S
C63 O67 1.241 . S
C64 O57 1.247 . S
C64 O58 1.261 . S
C65 O60 1.259 . S
C65 O62 1.235 . S
O66 Co56 2.021 . S
O66 C63 1.238 . S
O67 Co61 2.052 . S
O67 C63 1.241 . S
O68 Co56 2.137 . S
O68 C59 1.247 . S
O69 Co56 2.244 . S
O69 C59 1.272 . S
O69 Co61 2.135 . S
Co70 O71 2.216 . S
Co70 O72 2.091 . S
Co70 O74 2.004 . S
Co70 O80 2.021 . S
Co70 O82 2.137 . S
Co70 O83 2.244 . S
O71 Co70 2.216 . S
O71 C78 1.247 . S
O72 Co70 2.091 . S
O72 C78 1.261 . S
C73 O82 1.247 . S
C73 O83 1.272 . S
O74 Co70 2.004 . S
O74 C79 1.259 . S
Co75 O76 2.061 . S
Co75 O81 2.052 . S
Co75 O83 2.135 . S
O76 Co75 2.061 . S
O76 C79 1.235 . S
C77 O80 1.238 . S
C77 O81 1.241 . S
C78 O71 1.247 . S
C78 O72 1.261 . S
C79 O74 1.259 . S
C79 O76 1.235 . S
O80 Co70 2.021 . S
O80 C77 1.238 . S
O81 Co75 2.052 . S
O81 C77 1.241 . S
O82 Co70 2.137 . S
O82 C73 1.247 . S
O83 Co70 2.244 . S
O83 C73 1.272 . S
O83 Co75 2.135 . S
Co84 O85 2.216 . S
Co84 O86 2.091 . S
Co84 O88 2.004 . S
Co84 O94 2.021 . S
Co84 O96 2.137 . S
Co84 O97 2.244 . S
O85 Co84 2.216 . S
O85 C92 1.247 . S
O86 Co84 2.091 . S
O86 C92 1.261 . S
C87 O96 1.247 . S
C87 O97 1.272 . S
O88 Co84 2.004 . S
O88 C93 1.259 . S
Co89 O90 2.061 . S
Co89 O95 2.052 . S
Co89 O97 2.135 . S
O90 Co89 2.061 . S
O90 C93 1.235 . S
C91 O94 1.238 . S
C91 O95 1.241 . S
C92 O85 1.247 . S
C92 O86 1.261 . S
C93 O88 1.259 . S
C93 O90 1.235 . S
O94 Co84 2.021 . S
O94 C91 1.238 . S
O95 Co89 2.052 . S
O95 C91 1.241 . S
O96 Co84 2.137 . S
O96 C87 1.247 . S
O97 Co84 2.244 . S
O97 C87 1.272 . S
O97 Co89 2.135 . S
Co98 O99 2.216 . S
Co98 O100 2.091 . S
Co98 O102 2.004 . S
Co98 O108 2.021 . S
Co98 O110 2.137 . S
Co98 O111 2.244 . S
O99 Co98 2.216 . S
O99 C106 1.247 . S
O100 Co98 2.091 . S
O100 C106 1.261 . S
C101 O110 1.247 . S
C101 O111 1.272 . S
O102 Co98 2.004 . S
O102 C107 1.259 . S
Co103 O104 2.061 . S
Co103 O109 2.052 . S
Co103 O111 2.135 . S
O104 Co103 2.061 . S
O104 C107 1.235 . S
C105 O108 1.238 . S
C105 O109 1.241 . S
C106 O99 1.247 . S
C106 O100 1.261 . S
C107 O102 1.259 . S
C107 O104 1.235 . S
O108 Co98 2.021 . S
O108 C105 1.238 . S
O109 Co103 2.052 . S
O109 C105 1.241 . S
O110 Co98 2.137 . S
O110 C101 1.247 . S
O111 Co98 2.244 . S
O111 C101 1.272 . S
O111 Co103 2.135 . S
Co112 O113 2.216 . S
Co112 O114 2.091 . S
Co112 O116 2.004 . S
Co112 O122 2.021 . S
Co112 O124 2.137 . S
Co112 O125 2.244 . S
O113 Co112 2.216 . S
O113 C120 1.247 . S
O114 Co112 2.091 . S
O114 C120 1.261 . S
C115 O124 1.247 . S
C115 O125 1.272 . S
O116 Co112 2.004 . S
O116 C121 1.259 . S
Co117 O118 2.061 . S
Co117 O123 2.052 . S
Co117 O125 2.135 . S
O118 Co117 2.061 . S
O118 C121 1.235 . S
C119 O122 1.238 . S
C119 O123 1.241 . S
C120 O113 1.247 . S
C120 O114 1.261 . S
C121 O116 1.259 . S
C121 O118 1.235 . S
O122 Co112 2.021 . S
O122 C119 1.238 . S
O123 Co117 2.052 . S
O123 C119 1.241 . S
O124 Co112 2.137 . S
O124 C115 1.247 . S
O125 Co112 2.244 . S
O125 C115 1.272 . S
O125 Co117 2.135 . S
Co126 O127 2.216 . S
Co126 O128 2.091 . S
Co126 O130 2.004 . S
Co126 O136 2.021 . S
Co126 O138 2.137 . S
Co126 O139 2.244 . S
O127 Co126 2.216 . S
O127 C134 1.247 . S
O128 Co126 2.091 . S
O128 C134 1.261 . S
C129 O138 1.247 . S
C129 O139 1.272 . S
O130 Co126 2.004 . S
O130 C135 1.259 . S
Co131 O132 2.061 . S
Co131 O137 2.052 . S
Co131 O139 2.135 . S
O132 Co131 2.061 . S
O132 C135 1.235 . S
C133 O136 1.238 . S
C133 O137 1.241 . S
C134 O127 1.247 . S
C134 O128 1.261 . S
C135 O130 1.259 . S
C135 O132 1.235 . S
O136 Co126 2.021 . S
O136 C133 1.238 . S
O137 Co131 2.052 . S
O137 C133 1.241 . S
O138 Co126 2.137 . S
O138 C129 1.247 . S
O139 Co126 2.244 . S
O139 C129 1.272 . S
O139 Co131 2.135 . S
Co140 O141 2.216 . S
Co140 O142 2.091 . S
Co140 O144 2.004 . S
Co140 O150 2.021 . S
Co140 O152 2.137 . S
Co140 O153 2.244 . S
O141 Co140 2.216 . S
O141 C148 1.247 . S
O142 Co140 2.091 . S
O142 C148 1.261 . S
C143 O152 1.247 . S
C143 O153 1.272 . S
O144 Co140 2.004 . S
O144 C149 1.259 . S
Co145 O146 2.061 . S
Co145 O151 2.052 . S
Co145 O153 2.135 . S
O146 Co145 2.061 . S
O146 C149 1.235 . S
C147 O150 1.238 . S
C147 O151 1.241 . S
C148 O141 1.247 . S
C148 O142 1.261 . S
C149 O144 1.259 . S
C149 O146 1.235 . S
O150 Co140 2.021 . S
O150 C147 1.238 . S
O151 Co145 2.052 . S
O151 C147 1.241 . S
O152 Co140 2.137 . S
O152 C143 1.247 . S
O153 Co140 2.244 . S
O153 C143 1.272 . S
O153 Co145 2.135 . S
Co154 O155 2.216 . S
Co154 O156 2.091 . S
Co154 O158 2.004 . S
Co154 O164 2.021 . S
Co154 O166 2.137 . S
Co154 O167 2.244 . S
O155 Co154 2.216 . S
O155 C162 1.247 . S
O156 Co154 2.091 . S
O156 C162 1.261 . S
C157 O166 1.247 . S
C157 O167 1.272 . S
O158 Co154 2.004 . S
O158 C163 1.259 . S
Co159 O160 2.061 . S
Co159 O165 2.052 . S
Co159 O167 2.135 . S
O160 Co159 2.061 . S
O160 C163 1.235 . S
C161 O164 1.238 . S
C161 O165 1.241 . S
C162 O155 1.247 . S
C162 O156 1.261 . S
C163 O158 1.259 . S
C163 O160 1.235 . S
O164 Co154 2.021 . S
O164 C161 1.238 . S
O165 Co159 2.052 . S
O165 C161 1.241 . S
O166 Co154 2.137 . S
O166 C157 1.247 . S
O167 Co154 2.244 . S
O167 C157 1.272 . S
O167 Co159 2.135 . S
Co168 O169 2.216 . S
Co168 O170 2.091 . S
Co168 O172 2.004 . S
Co168 O178 2.021 . S
Co168 O180 2.137 . S
Co168 O181 2.244 . S
O169 Co168 2.216 . S
O169 C176 1.247 . S
O170 Co168 2.091 . S
O170 C176 1.261 . S
C171 O180 1.247 . S
C171 O181 1.272 . S
O172 Co168 2.004 . S
O172 C177 1.259 . S
Co173 O174 2.061 . S
Co173 O179 2.052 . S
Co173 O181 2.135 . S
O174 Co173 2.061 . S
O174 C177 1.235 . S
C175 O178 1.238 . S
C175 O179 1.241 . S
C176 O169 1.247 . S
C176 O170 1.261 . S
C177 O172 1.259 . S
C177 O174 1.235 . S
O178 Co168 2.021 . S
O178 C175 1.238 . S
O179 Co173 2.052 . S
O179 C175 1.241 . S
O180 Co168 2.137 . S
O180 C171 1.247 . S
O181 Co168 2.244 . S
O181 C171 1.272 . S
O181 Co173 2.135 . S
Co182 O183 2.216 . S
Co182 O184 2.091 . S
Co182 O186 2.004 . S
Co182 O192 2.021 . S
Co182 O194 2.137 . S
Co182 O195 2.244 . S
O183 Co182 2.216 . S
O183 C190 1.247 . S
O184 Co182 2.091 . S
O184 C190 1.261 . S
C185 O194 1.247 . S
C185 O195 1.272 . S
O186 Co182 2.004 . S
O186 C191 1.259 . S
Co187 O188 2.061 . S
Co187 O193 2.052 . S
Co187 O195 2.135 . S
O188 Co187 2.061 . S
O188 C191 1.235 . S
C189 O192 1.238 . S
C189 O193 1.241 . S
C190 O183 1.247 . S
C190 O184 1.261 . S
C191 O186 1.259 . S
C191 O188 1.235 . S
O192 Co182 2.021 . S
O192 C189 1.238 . S
O193 Co187 2.052 . S
O193 C189 1.241 . S
O194 Co182 2.137 . S
O194 C185 1.247 . S
O195 Co182 2.244 . S
O195 C185 1.272 . S
O195 Co187 2.135 . S
Co196 O197 2.216 . S
Co196 O198 2.091 . S
Co196 O200 2.004 . S
Co196 O206 2.021 . S
Co196 O208 2.137 . S
Co196 O209 2.244 . S
O197 Co196 2.216 . S
O197 C204 1.247 . S
O198 Co196 2.091 . S
O198 C204 1.261 . S
C199 O208 1.247 . S
C199 O209 1.272 . S
O200 Co196 2.004 . S
O200 C205 1.259 . S
Co201 O202 2.061 . S
Co201 O207 2.052 . S
Co201 O209 2.135 . S
O202 Co201 2.061 . S
O202 C205 1.235 . S
C203 O206 1.238 . S
C203 O207 1.241 . S
C204 O197 1.247 . S
C204 O198 1.261 . S
C205 O200 1.259 . S
C205 O202 1.235 . S
O206 Co196 2.021 . S
O206 C203 1.238 . S
O207 Co201 2.052 . S
O207 C203 1.241 . S
O208 Co196 2.137 . S
O208 C199 1.247 . S
O209 Co196 2.244 . S
O209 C199 1.272 . S
O209 Co201 2.135 . S
Co210 O211 2.216 . S
Co210 O212 2.091 . S
Co210 O214 2.004 . S
Co210 O220 2.021 . S
Co210 O222 2.137 . S
Co210 O223 2.244 . S
O211 Co210 2.216 . S
O211 C218 1.247 . S
O212 Co210 2.091 . S
O212 C218 1.261 . S
C213 O222 1.247 . S
C213 O223 1.272 . S
O214 Co210 2.004 . S
O214 C219 1.259 . S
Co215 O216 2.061 . S
Co215 O221 2.052 . S
Co215 O223 2.135 . S
O216 Co215 2.061 . S
O216 C219 1.235 . S
C217 O220 1.238 . S
C217 O221 1.241 . S
C218 O211 1.247 . S
C218 O212 1.261 . S
C219 O214 1.259 . S
C219 O216 1.235 . S
O220 Co210 2.021 . S
O220 C217 1.238 . S
O221 Co215 2.052 . S
O221 C217 1.241 . S
O222 Co210 2.137 . S
O222 C213 1.247 . S
O223 Co210 2.244 . S
O223 C213 1.272 . S
O223 Co215 2.135 . S
C224 C225 1.363 . S
C224 C230 1.379 1_455 S
C224 N232 1.356 . S
C225 C224 1.363 . S
C225 C231 1.363 . S
C226 C227 1.363 . S
C226 C231 1.379 1_655 S
C226 N233 1.356 . S
C227 C226 1.363 . S
C227 C230 1.363 . S
N228 C230 1.356 . S
N228 H240 0.984 . S
N228 H241 0.985 . S
N229 C231 1.356 . S
N229 H234 0.984 . S
N229 H235 0.985 . S
C230 C224 1.379 1_655 S
C230 C227 1.363 . S
C230 N228 1.356 . S
C231 C225 1.363 . S
C231 C226 1.379 1_455 S
C231 N229 1.356 . S
N232 C224 1.356 . S
N232 H238 0.984 . S
N232 H239 0.984 . S
N233 C226 1.356 . S
N233 H236 0.984 . S
N233 H237 0.985 . S
H234 N229 0.984 . S
H235 N229 0.985 . S
H236 N233 0.984 . S
H237 N233 0.985 . S
H238 N232 0.984 . S
H239 N232 0.984 . S
H240 N228 0.984 . S
H241 N228 0.985 . S
C242 C243 1.363 . S
C242 C248 1.379 1_565 S
C242 N250 1.356 . S
C243 C242 1.363 . S
C243 C249 1.363 . S
C244 C245 1.363 . S
C244 C249 1.379 1_545 S
C244 N251 1.356 . S
C245 C244 1.363 . S
C245 C248 1.363 . S
N246 C248 1.356 . S
N246 H258 0.984 . S
N246 H259 0.985 . S
N247 C249 1.356 . S
N247 H252 0.984 . S
N247 H253 0.985 . S
C248 C242 1.379 1_545 S
C248 C245 1.363 . S
C248 N246 1.356 . S
C249 C243 1.363 . S
C249 C244 1.379 1_565 S
C249 N247 1.356 . S
N250 C242 1.356 . S
N250 H256 0.984 . S
N250 H257 0.984 . S
N251 C244 1.356 . S
N251 H254 0.984 . S
N251 H255 0.985 . S
H252 N247 0.984 . S
H253 N247 0.985 . S
H254 N251 0.984 . S
H255 N251 0.985 . S
H256 N250 0.984 . S
H257 N250 0.984 . S
H258 N246 0.984 . S
H259 N246 0.985 . S
C260 C261 1.363 . S
C260 C266 1.379 1_455 S
C260 N268 1.356 . S
C261 C260 1.363 . S
C261 C267 1.363 . S
C262 C263 1.363 . S
C262 C267 1.379 1_655 S
C262 N269 1.356 . S
C263 C262 1.363 . S
C263 C266 1.363 . S
N264 C266 1.356 . S
N264 H276 0.984 . S
N264 H277 0.985 . S
N265 C267 1.356 . S
N265 H270 0.984 . S
N265 H271 0.985 . S
C266 C260 1.379 1_655 S
C266 C263 1.363 . S
C266 N264 1.356 . S
C267 C261 1.363 . S
C267 C262 1.379 1_455 S
C267 N265 1.356 . S
N268 C260 1.356 . S
N268 H274 0.984 . S
N268 H275 0.984 . S
N269 C262 1.356 . S
N269 H272 0.984 . S
N269 H273 0.985 . S
H270 N265 0.984 . S
H271 N265 0.985 . S
H272 N269 0.984 . S
H273 N269 0.985 . S
H274 N268 0.984 . S
H275 N268 0.984 . S
H276 N264 0.984 . S
H277 N264 0.985 . S
C278 C279 1.363 . S
C278 C284 1.379 1_565 S
C278 N286 1.356 . S
C279 C278 1.363 . S
C279 C285 1.363 . S
C280 C281 1.363 . S
C280 C285 1.379 1_545 S
C280 N287 1.356 . S
C281 C280 1.363 . S
C281 C284 1.363 . S
N282 C284 1.356 . S
N282 H294 0.984 . S
N282 H295 0.985 . S
N283 C285 1.356 . S
N283 H288 0.984 . S
N283 H289 0.985 . S
C284 C278 1.379 1_545 S
C284 C281 1.363 . S
C284 N282 1.356 . S
C285 C279 1.363 . S
C285 C280 1.379 1_565 S
C285 N283 1.356 . S
N286 C278 1.356 . S
N286 H292 0.984 . S
N286 H293 0.984 . S
N287 C280 1.356 . S
N287 H290 0.984 . S
N287 H291 0.985 . S
H288 N283 0.984 . S
H289 N283 0.985 . S
H290 N287 0.984 . S
H291 N287 0.985 . S
H292 N286 0.984 . S
H293 N286 0.984 . S
H294 N282 0.984 . S
H295 N282 0.985 . S
C296 C297 1.363 . S
C296 C302 1.379 1_655 S
C296 N304 1.356 . S
C297 C296 1.363 . S
C297 C303 1.363 . S
C298 C299 1.363 . S
C298 C303 1.379 1_455 S
C298 N305 1.356 . S
C299 C298 1.363 . S
C299 C302 1.363 . S
N300 C302 1.356 . S
N300 H312 0.984 . S
N300 H313 0.985 . S
N301 C303 1.356 . S
N301 H306 0.984 . S
N301 H307 0.985 . S
C302 C296 1.379 1_455 S
C302 C299 1.363 . S
C302 N300 1.356 . S
C303 C297 1.363 . S
C303 C298 1.379 1_655 S
C303 N301 1.356 . S
N304 C296 1.356 . S
N304 H310 0.984 . S
N304 H311 0.984 . S
N305 C298 1.356 . S
N305 H308 0.984 . S
N305 H309 0.985 . S
H306 N301 0.984 . S
H307 N301 0.985 . S
H308 N305 0.984 . S
H309 N305 0.985 . S
H310 N304 0.984 . S
H311 N304 0.984 . S
H312 N300 0.984 . S
H313 N300 0.985 . S
C314 C315 1.363 . S
C314 C320 1.379 1_545 S
C314 N322 1.356 . S
C315 C314 1.363 . S
C315 C321 1.363 . S
C316 C317 1.363 . S
C316 C321 1.379 1_565 S
C316 N323 1.356 . S
C317 C316 1.363 . S
C317 C320 1.363 . S
N318 C320 1.356 . S
N318 H330 0.984 . S
N318 H331 0.985 . S
N319 C321 1.356 . S
N319 H324 0.984 . S
N319 H325 0.985 . S
C320 C314 1.379 1_565 S
C320 C317 1.363 . S
C320 N318 1.356 . S
C321 C315 1.363 . S
C321 C316 1.379 1_545 S
C321 N319 1.356 . S
N322 C314 1.356 . S
N322 H328 0.984 . S
N322 H329 0.984 . S
N323 C316 1.356 . S
N323 H326 0.984 . S
N323 H327 0.985 . S
H324 N319 0.984 . S
H325 N319 0.985 . S
H326 N323 0.984 . S
H327 N323 0.985 . S
H328 N322 0.984 . S
H329 N322 0.984 . S
H330 N318 0.984 . S
H331 N318 0.985 . S
C332 C333 1.363 . S
C332 C338 1.379 1_655 S
C332 N340 1.356 . S
C333 C332 1.363 . S
C333 C339 1.363 . S
C334 C335 1.363 . S
C334 C339 1.379 1_455 S
C334 N341 1.356 . S
C335 C334 1.363 . S
C335 C338 1.363 . S
N336 C338 1.356 . S
N336 H348 0.984 . S
N336 H349 0.985 . S
N337 C339 1.356 . S
N337 H342 0.984 . S
N337 H343 0.985 . S
C338 C332 1.379 1_455 S
C338 C335 1.363 . S
C338 N336 1.356 . S
C339 C333 1.363 . S
C339 C334 1.379 1_655 S
C339 N337 1.356 . S
N340 C332 1.356 . S
N340 H346 0.984 . S
N340 H347 0.984 . S
N341 C334 1.356 . S
N341 H344 0.984 . S
N341 H345 0.985 . S
H342 N337 0.984 . S
H343 N337 0.985 . S
H344 N341 0.984 . S
H345 N341 0.985 . S
H346 N340 0.984 . S
H347 N340 0.984 . S
H348 N336 0.984 . S
H349 N336 0.985 . S
C350 C351 1.363 . S
C350 C356 1.379 1_545 S
C350 N358 1.356 . S
C351 C350 1.363 . S
C351 C357 1.363 . S
C352 C353 1.363 . S
C352 C357 1.379 1_565 S
C352 N359 1.356 . S
C353 C352 1.363 . S
C353 C356 1.363 . S
N354 C356 1.356 . S
N354 H366 0.984 . S
N354 H367 0.985 . S
N355 C357 1.356 . S
N355 H360 0.984 . S
N355 H361 0.985 . S
C356 C350 1.379 1_565 S
C356 C353 1.363 . S
C356 N354 1.356 . S
C357 C351 1.363 . S
C357 C352 1.379 1_545 S
C357 N355 1.356 . S
N358 C350 1.356 . S
N358 H364 0.984 . S
N358 H365 0.984 . S
N359 C352 1.356 . S
N359 H362 0.984 . S
N359 H363 0.985 . S
H360 N355 0.984 . S
H361 N355 0.985 . S
H362 N359 0.984 . S
H363 N359 0.985 . S
H364 N358 0.984 . S
H365 N358 0.984 . S
H366 N354 0.984 . S
H367 N354 0.985 . S
C368 C369 1.363 . S
C368 C374 1.379 . S
C368 N376 1.356 . S
C369 C368 1.363 . S
C369 C375 1.363 . S
C370 C371 1.363 . S
C370 C375 1.379 . S
C370 N377 1.356 . S
C371 C370 1.363 . S
C371 C374 1.363 . S
N372 C374 1.356 . S
N372 H384 0.984 . S
N372 H385 0.985 . S
N373 C375 1.356 . S
N373 H378 0.984 . S
N373 H379 0.985 . S
C374 C368 1.379 . S
C374 C371 1.363 . S
C374 N372 1.356 . S
C375 C369 1.363 . S
C375 C370 1.379 . S
C375 N373 1.356 . S
N376 C368 1.356 . S
N376 H382 0.984 . S
N376 H383 0.984 . S
N377 C370 1.356 . S
N377 H380 0.984 . S
N377 H381 0.985 . S
H378 N373 0.984 . S
H379 N373 0.985 . S
H380 N377 0.984 . S
H381 N377 0.985 . S
H382 N376 0.984 . S
H383 N376 0.984 . S
H384 N372 0.984 . S
H385 N372 0.985 . S
C386 C387 1.363 . S
C386 C392 1.379 . S
C386 N394 1.356 . S
C387 C386 1.363 . S
C387 C393 1.363 . S
C388 C389 1.363 . S
C388 C393 1.379 . S
C388 N395 1.356 . S
C389 C388 1.363 . S
C389 C392 1.363 . S
N390 C392 1.356 . S
N390 H402 0.984 . S
N390 H403 0.985 . S
N391 C393 1.356 . S
N391 H396 0.984 . S
N391 H397 0.985 . S
C392 C386 1.379 . S
C392 C389 1.363 . S
C392 N390 1.356 . S
C393 C387 1.363 . S
C393 C388 1.379 . S
C393 N391 1.356 . S
N394 C386 1.356 . S
N394 H400 0.984 . S
N394 H401 0.984 . S
N395 C388 1.356 . S
N395 H398 0.984 . S
N395 H399 0.985 . S
H396 N391 0.984 . S
H397 N391 0.985 . S
H398 N395 0.984 . S
H399 N395 0.985 . S
H400 N394 0.984 . S
H401 N394 0.984 . S
H402 N390 0.984 . S
H403 N390 0.985 . S
C404 C405 1.363 . S
C404 C410 1.379 . S
C404 N412 1.356 . S
C405 C404 1.363 . S
C405 C411 1.363 . S
C406 C407 1.363 . S
C406 C411 1.379 . S
C406 N413 1.356 . S
C407 C406 1.363 . S
C407 C410 1.363 . S
N408 C410 1.356 . S
N408 H420 0.984 . S
N408 H421 0.985 . S
N409 C411 1.356 . S
N409 H414 0.984 . S
N409 H415 0.985 . S
C410 C404 1.379 . S
C410 C407 1.363 . S
C410 N408 1.356 . S
C411 C405 1.363 . S
C411 C406 1.379 . S
C411 N409 1.356 . S
N412 C404 1.356 . S
N412 H418 0.984 . S
N412 H419 0.984 . S
N413 C406 1.356 . S
N413 H416 0.984 . S
N413 H417 0.985 . S
H414 N409 0.984 . S
H415 N409 0.985 . S
H416 N413 0.984 . S
H417 N413 0.985 . S
H418 N412 0.984 . S
H419 N412 0.984 . S
H420 N408 0.984 . S
H421 N408 0.985 . S
C422 C423 1.363 . S
C422 C428 1.379 . S
C422 N430 1.356 . S
C423 C422 1.363 . S
C423 C429 1.363 . S
C424 C425 1.363 . S
C424 C429 1.379 . S
C424 N431 1.356 . S
C425 C424 1.363 . S
C425 C428 1.363 . S
N426 C428 1.356 . S
N426 H438 0.984 . S
N426 H439 0.985 . S
N427 C429 1.356 . S
N427 H432 0.984 . S
N427 H433 0.985 . S
C428 C422 1.379 . S
C428 C425 1.363 . S
C428 N426 1.356 . S
C429 C423 1.363 . S
C429 C424 1.379 . S
C429 N427 1.356 . S
N430 C422 1.356 . S
N430 H436 0.984 . S
N430 H437 0.984 . S
N431 C424 1.356 . S
N431 H434 0.984 . S
N431 H435 0.985 . S
H432 N427 0.984 . S
H433 N427 0.985 . S
H434 N431 0.984 . S
H435 N431 0.985 . S
H436 N430 0.984 . S
H437 N430 0.984 . S
H438 N426 0.984 . S
H439 N426 0.985 . S
C440 C441 1.363 . S
C440 C446 1.379 . S
C440 N448 1.356 . S
C441 C440 1.363 . S
C441 C447 1.363 . S
C442 C443 1.363 . S
C442 C447 1.379 . S
C442 N449 1.356 . S
C443 C442 1.363 . S
C443 C446 1.363 . S
N444 C446 1.356 . S
N444 H456 0.984 . S
N444 H457 0.985 . S
N445 C447 1.356 . S
N445 H450 0.984 . S
N445 H451 0.985 . S
C446 C440 1.379 . S
C446 C443 1.363 . S
C446 N444 1.356 . S
C447 C441 1.363 . S
C447 C442 1.379 . S
C447 N445 1.356 . S
N448 C440 1.356 . S
N448 H454 0.984 . S
N448 H455 0.984 . S
N449 C442 1.356 . S
N449 H452 0.984 . S
N449 H453 0.985 . S
H450 N445 0.984 . S
H451 N445 0.985 . S
H452 N449 0.984 . S
H453 N449 0.985 . S
H454 N448 0.984 . S
H455 N448 0.984 . S
H456 N444 0.984 . S
H457 N444 0.985 . S
C458 C459 1.363 . S
C458 C464 1.379 . S
C458 N466 1.356 . S
C459 C458 1.363 . S
C459 C465 1.363 . S
C460 C461 1.363 . S
C460 C465 1.379 . S
C460 N467 1.356 . S
C461 C460 1.363 . S
C461 C464 1.363 . S
N462 C464 1.356 . S
N462 H474 0.984 . S
N462 H475 0.985 . S
N463 C465 1.356 . S
N463 H468 0.984 . S
N463 H469 0.985 . S
C464 C458 1.379 . S
C464 C461 1.363 . S
C464 N462 1.356 . S
C465 C459 1.363 . S
C465 C460 1.379 . S
C465 N463 1.356 . S
N466 C458 1.356 . S
N466 H472 0.984 . S
N466 H473 0.984 . S
N467 C460 1.356 . S
N467 H470 0.984 . S
N467 H471 0.985 . S
H468 N463 0.984 . S
H469 N463 0.985 . S
H470 N467 0.984 . S
H471 N467 0.985 . S
H472 N466 0.984 . S
H473 N466 0.984 . S
H474 N462 0.984 . S
H475 N462 0.985 . S
C476 C477 1.363 . S
C476 C482 1.379 . S
C476 N484 1.356 . S
C477 C476 1.363 . S
C477 C483 1.363 . S
C478 C479 1.363 . S
C478 C483 1.379 . S
C478 N485 1.356 . S
C479 C478 1.363 . S
C479 C482 1.363 . S
N480 C482 1.356 . S
N480 H492 0.984 . S
N480 H493 0.985 . S
N481 C483 1.356 . S
N481 H486 0.984 . S
N481 H487 0.985 . S
C482 C476 1.379 . S
C482 C479 1.363 . S
C482 N480 1.356 . S
C483 C477 1.363 . S
C483 C478 1.379 . S
C483 N481 1.356 . S
N484 C476 1.356 . S
N484 H490 0.984 . S
N484 H491 0.984 . S
N485 C478 1.356 . S
N485 H488 0.984 . S
N485 H489 0.985 . S
H486 N481 0.984 . S
H487 N481 0.985 . S
H488 N485 0.984 . S
H489 N485 0.985 . S
H490 N484 0.984 . S
H491 N484 0.984 . S
H492 N480 0.984 . S
H493 N480 0.985 . S
C494 C495 1.363 . S
C494 C500 1.379 . S
C494 N502 1.356 . S
C495 C494 1.363 . S
C495 C501 1.363 . S
C496 C497 1.363 . S
C496 C501 1.379 . S
C496 N503 1.356 . S
C497 C496 1.363 . S
C497 C500 1.363 . S
N498 C500 1.356 . S
N498 H510 0.984 . S
N498 H511 0.985 . S
N499 C501 1.356 . S
N499 H504 0.984 . S
N499 H505 0.985 . S
C500 C494 1.379 . S
C500 C497 1.363 . S
C500 N498 1.356 . S
C501 C495 1.363 . S
C501 C496 1.379 . S
C501 N499 1.356 . S
N502 C494 1.356 . S
N502 H508 0.984 . S
N502 H509 0.984 . S
N503 C496 1.356 . S
N503 H506 0.984 . S
N503 H507 0.985 . S
H504 N499 0.984 . S
H505 N499 0.985 . S
H506 N503 0.984 . S
H507 N503 0.985 . S
H508 N502 0.984 . S
H509 N502 0.984 . S
H510 N498 0.984 . S
H511 N498 0.985 . S
C512 C513 1.363 . S
C512 C518 1.379 1_556 S
C512 N520 1.356 . S
C513 C512 1.363 . S
C513 C519 1.363 . S
C514 C515 1.363 . S
C514 C519 1.379 1_554 S
C514 N521 1.356 . S
C515 C514 1.363 . S
C515 C518 1.363 . S
N516 C518 1.356 . S
N516 H528 0.984 . S
N516 H529 0.985 . S
N517 C519 1.356 . S
N517 H522 0.984 . S
N517 H523 0.985 . S
C518 C512 1.379 1_554 S
C518 C515 1.363 . S
C518 N516 1.356 . S
C519 C513 1.363 . S
C519 C514 1.379 1_556 S
C519 N517 1.356 . S
N520 C512 1.356 . S
N520 H526 0.984 . S
N520 H527 0.984 . S
N521 C514 1.356 . S
N521 H524 0.984 . S
N521 H525 0.985 . S
H522 N517 0.984 . S
H523 N517 0.985 . S
H524 N521 0.984 . S
H525 N521 0.985 . S
H526 N520 0.984 . S
H527 N520 0.984 . S
H528 N516 0.984 . S
H529 N516 0.985 . S
C530 C531 1.363 . S
C530 C536 1.379 . S
C530 N538 1.356 . S
C531 C530 1.363 . S
C531 C537 1.363 . S
C532 C533 1.363 . S
C532 C537 1.379 . S
C532 N539 1.356 . S
C533 C532 1.363 . S
C533 C536 1.363 . S
N534 C536 1.356 . S
N534 H546 0.984 . S
N534 H547 0.985 . S
N535 C537 1.356 . S
N535 H540 0.984 . S
N535 H541 0.985 . S
C536 C530 1.379 . S
C536 C533 1.363 . S
C536 N534 1.356 . S
C537 C531 1.363 . S
C537 C532 1.379 . S
C537 N535 1.356 . S
N538 C530 1.356 . S
N538 H544 0.984 . S
N538 H545 0.984 . S
N539 C532 1.356 . S
N539 H542 0.984 . S
N539 H543 0.985 . S
H540 N535 0.984 . S
H541 N535 0.985 . S
H542 N539 0.984 . S
H543 N539 0.985 . S
H544 N538 0.984 . S
H545 N538 0.984 . S
H546 N534 0.984 . S
H547 N534 0.985 . S
C548 C549 1.363 . S
C548 C554 1.379 1_554 S
C548 N556 1.356 . S
C549 C548 1.363 . S
C549 C555 1.363 . S
C550 C551 1.363 . S
C550 C555 1.379 1_556 S
C550 N557 1.356 . S
C551 C550 1.363 . S
C551 C554 1.363 . S
N552 C554 1.356 . S
N552 H564 0.984 . S
N552 H565 0.985 . S
N553 C555 1.356 . S
N553 H558 0.984 . S
N553 H559 0.985 . S
C554 C548 1.379 1_556 S
C554 C551 1.363 . S
C554 N552 1.356 . S
C555 C549 1.363 . S
C555 C550 1.379 1_554 S
C555 N553 1.356 . S
N556 C548 1.356 . S
N556 H562 0.984 . S
N556 H563 0.984 . S
N557 C550 1.356 . S
N557 H560 0.984 . S
N557 H561 0.985 . S
H558 N553 0.984 . S
H559 N553 0.985 . S
H560 N557 0.984 . S
H561 N557 0.985 . S
H562 N556 0.984 . S
H563 N556 0.984 . S
H564 N552 0.984 . S
H565 N552 0.985 . S
C566 C567 1.363 . S
C566 C572 1.379 . S
C566 N574 1.356 . S
C567 C566 1.363 . S
C567 C573 1.363 . S
C568 C569 1.363 . S
C568 C573 1.379 . S
C568 N575 1.356 . S
C569 C568 1.363 . S
C569 C572 1.363 . S
N570 C572 1.356 . S
N570 H582 0.984 . S
N570 H583 0.985 . S
N571 C573 1.356 . S
N571 H576 0.984 . S
N571 H577 0.985 . S
C572 C566 1.379 . S
C572 C569 1.363 . S
C572 N570 1.356 . S
C573 C567 1.363 . S
C573 C568 1.379 . S
C573 N571 1.356 . S
N574 C566 1.356 . S
N574 H580 0.984 . S
N574 H581 0.984 . S
N575 C568 1.356 . S
N575 H578 0.984 . S
N575 H579 0.985 . S
H576 N571 0.984 . S
H577 N571 0.985 . S
H578 N575 0.984 . S
H579 N575 0.985 . S
H580 N574 0.984 . S
H581 N574 0.984 . S
H582 N570 0.984 . S
H583 N570 0.985 . S
C584 C585 1.363 . S
C584 C590 1.379 . S
C584 N592 1.356 . S
C585 C584 1.363 . S
C585 C591 1.363 . S
C586 C587 1.363 . S
C586 C591 1.379 . S
C586 N593 1.356 . S
C587 C586 1.363 . S
C587 C590 1.363 . S
N588 C590 1.356 . S
N588 H600 0.984 . S
N588 H601 0.985 . S
N589 C591 1.356 . S
N589 H594 0.984 . S
N589 H595 0.985 . S
C590 C584 1.379 . S
C590 C587 1.363 . S
C590 N588 1.356 . S
C591 C585 1.363 . S
C591 C586 1.379 . S
C591 N589 1.356 . S
N592 C584 1.356 . S
N592 H598 0.984 . S
N592 H599 0.984 . S
N593 C586 1.356 . S
N593 H596 0.984 . S
N593 H597 0.985 . S
H594 N589 0.984 . S
H595 N589 0.985 . S
H596 N593 0.984 . S
H597 N593 0.985 . S
H598 N592 0.984 . S
H599 N592 0.984 . S
H600 N588 0.984 . S
H601 N588 0.985 . S
C602 C603 1.363 . S
C602 C608 1.379 1_556 S
C602 N610 1.356 . S
C603 C602 1.363 . S
C603 C609 1.363 . S
C604 C605 1.363 . S
C604 C609 1.379 1_554 S
C604 N611 1.356 . S
C605 C604 1.363 . S
C605 C608 1.363 . S
N606 C608 1.356 . S
N606 H618 0.984 . S
N606 H619 0.985 . S
N607 C609 1.356 . S
N607 H612 0.984 . S
N607 H613 0.985 . S
C608 C602 1.379 1_554 S
C608 C605 1.363 . S
C608 N606 1.356 . S
C609 C603 1.363 . S
C609 C604 1.379 1_556 S
C609 N607 1.356 . S
N610 C602 1.356 . S
N610 H616 0.984 . S
N610 H617 0.984 . S
N611 C604 1.356 . S
N611 H614 0.984 . S
N611 H615 0.985 . S
H612 N607 0.984 . S
H613 N607 0.985 . S
H614 N611 0.984 . S
H615 N611 0.985 . S
H616 N610 0.984 . S
H617 N610 0.984 . S
H618 N606 0.984 . S
H619 N606 0.985 . S
C620 C621 1.363 . S
C620 C626 1.379 . S
C620 N628 1.356 . S
C621 C620 1.363 . S
C621 C627 1.363 . S
C622 C623 1.363 . S
C622 C627 1.379 . S
C622 N629 1.356 . S
C623 C622 1.363 . S
C623 C626 1.363 . S
N624 C626 1.356 . S
N624 H636 0.984 . S
N624 H637 0.985 . S
N625 C627 1.356 . S
N625 H630 0.984 . S
N625 H631 0.985 . S
C626 C620 1.379 . S
C626 C623 1.363 . S
C626 N624 1.356 . S
C627 C621 1.363 . S
C627 C622 1.379 . S
C627 N625 1.356 . S
N628 C620 1.356 . S
N628 H634 0.984 . S
N628 H635 0.984 . S
N629 C622 1.356 . S
N629 H632 0.984 . S
N629 H633 0.985 . S
H630 N625 0.984 . S
H631 N625 0.985 . S
H632 N629 0.984 . S
H633 N629 0.985 . S
H634 N628 0.984 . S
H635 N628 0.984 . S
H636 N624 0.984 . S
H637 N624 0.985 . S
C638 C639 1.363 . S
C638 C644 1.379 1_554 S
C638 N646 1.356 . S
C639 C638 1.363 . S
C639 C645 1.363 . S
C640 C641 1.363 . S
C640 C645 1.379 1_556 S
C640 N647 1.356 . S
C641 C640 1.363 . S
C641 C644 1.363 . S
N642 C644 1.356 . S
N642 H654 0.984 . S
N642 H655 0.985 . S
N643 C645 1.356 . S
N643 H648 0.984 . S
N643 H649 0.985 . S
C644 C638 1.379 1_556 S
C644 C641 1.363 . S
C644 N642 1.356 . S
C645 C639 1.363 . S
C645 C640 1.379 1_554 S
C645 N643 1.356 . S
N646 C638 1.356 . S
N646 H652 0.984 . S
N646 H653 0.984 . S
N647 C640 1.356 . S
N647 H650 0.984 . S
N647 H651 0.985 . S
H648 N643 0.984 . S
H649 N643 0.985 . S
H650 N647 0.984 . S
H651 N647 0.985 . S
H652 N646 0.984 . S
H653 N646 0.984 . S
H654 N642 0.984 . S
H655 N642 0.985 . S
C656 C657 1.363 . S
C656 C662 1.379 . S
C656 N664 1.356 . S
C657 C656 1.363 . S
C657 C663 1.363 . S
C658 C659 1.363 . S
C658 C663 1.379 . S
C658 N665 1.356 . S
C659 C658 1.363 . S
C659 C662 1.363 . S
N660 C662 1.356 . S
N660 H672 0.984 . S
N660 H673 0.985 . S
N661 C663 1.356 . S
N661 H666 0.984 . S
N661 H667 0.985 . S
C662 C656 1.379 . S
C662 C659 1.363 . S
C662 N660 1.356 . S
C663 C657 1.363 . S
C663 C658 1.379 . S
C663 N661 1.356 . S
N664 C656 1.356 . S
N664 H670 0.984 . S
N664 H671 0.984 . S
N665 C658 1.356 . S
N665 H668 0.984 . S
N665 H669 0.985 . S
H666 N661 0.984 . S
H667 N661 0.985 . S
H668 N665 0.984 . S
H669 N665 0.985 . S
H670 N664 0.984 . S
H671 N664 0.984 . S
H672 N660 0.984 . S
H673 N660 0.985 . S
C674 C675 1.363 . S
C674 C680 1.379 . S
C674 N682 1.356 . S
C675 C674 1.363 . S
C675 C681 1.363 . S
C676 C677 1.363 . S
C676 C681 1.379 . S
C676 N683 1.356 . S
C677 C676 1.363 . S
C677 C680 1.363 . S
N678 C680 1.356 . S
N678 H690 0.984 . S
N678 H691 0.985 . S
N679 C681 1.356 . S
N679 H684 0.984 . S
N679 H685 0.985 . S
C680 C674 1.379 . S
C680 C677 1.363 . S
C680 N678 1.356 . S
C681 C675 1.363 . S
C681 C676 1.379 . S
C681 N679 1.356 . S
N682 C674 1.356 . S
N682 H688 0.984 . S
N682 H689 0.984 . S
N683 C676 1.356 . S
N683 H686 0.984 . S
N683 H687 0.985 . S
H684 N679 0.984 . S
H685 N679 0.985 . S
H686 N683 0.984 . S
H687 N683 0.985 . S
H688 N682 0.984 . S
H689 N682 0.984 . S
H690 N678 0.984 . S
H691 N678 0.985 . S
C692 C693 1.363 . S
C692 C698 1.379 . S
C692 N700 1.356 . S
C693 C692 1.363 . S
C693 C699 1.363 . S
C694 C695 1.363 . S
C694 C699 1.379 . S
C694 N701 1.356 . S
C695 C694 1.363 . S
C695 C698 1.363 . S
N696 C698 1.356 . S
N696 H708 0.984 . S
N696 H709 0.985 . S
N697 C699 1.356 . S
N697 H702 0.984 . S
N697 H703 0.985 . S
C698 C692 1.379 . S
C698 C695 1.363 . S
C698 N696 1.356 . S
C699 C693 1.363 . S
C699 C694 1.379 . S
C699 N697 1.356 . S
N700 C692 1.356 . S
N700 H706 0.984 . S
N700 H707 0.984 . S
N701 C694 1.356 . S
N701 H704 0.984 . S
N701 H705 0.985 . S
H702 N697 0.984 . S
H703 N697 0.985 . S
H704 N701 0.984 . S
H705 N701 0.985 . S
H706 N700 0.984 . S
H707 N700 0.984 . S
H708 N696 0.984 . S
H709 N696 0.985 . S
C710 C711 1.363 . S
C710 C716 1.379 . S
C710 N718 1.356 . S
C711 C710 1.363 . S
C711 C717 1.363 . S
C712 C713 1.363 . S
C712 C717 1.379 . S
C712 N719 1.356 . S
C713 C712 1.363 . S
C713 C716 1.363 . S
N714 C716 1.356 . S
N714 H726 0.984 . S
N714 H727 0.985 . S
N715 C717 1.356 . S
N715 H720 0.984 . S
N715 H721 0.985 . S
C716 C710 1.379 . S
C716 C713 1.363 . S
C716 N714 1.356 . S
C717 C711 1.363 . S
C717 C712 1.379 . S
C717 N715 1.356 . S
N718 C710 1.356 . S
N718 H724 0.984 . S
N718 H725 0.984 . S
N719 C712 1.356 . S
N719 H722 0.984 . S
N719 H723 0.985 . S
H720 N715 0.984 . S
H721 N715 0.985 . S
H722 N719 0.984 . S
H723 N719 0.985 . S
H724 N718 0.984 . S
H725 N718 0.984 . S
H726 N714 0.984 . S
H727 N714 0.985 . S
C728 C729 1.363 . S
C728 C734 1.379 . S
C728 N736 1.356 . S
C729 C728 1.363 . S
C729 C735 1.363 . S
C730 C731 1.363 . S
C730 C735 1.379 . S
C730 N737 1.356 . S
C731 C730 1.363 . S
C731 C734 1.363 . S
N732 C734 1.356 . S
N732 H744 0.984 . S
N732 H745 0.985 . S
N733 C735 1.356 . S
N733 H738 0.984 . S
N733 H739 0.985 . S
C734 C728 1.379 . S
C734 C731 1.363 . S
C734 N732 1.356 . S
C735 C729 1.363 . S
C735 C730 1.379 . S
C735 N733 1.356 . S
N736 C728 1.356 . S
N736 H742 0.984 . S
N736 H743 0.984 . S
N737 C730 1.356 . S
N737 H740 0.984 . S
N737 H741 0.985 . S
H738 N733 0.984 . S
H739 N733 0.985 . S
H740 N737 0.984 . S
H741 N737 0.985 . S
H742 N736 0.984 . S
H743 N736 0.984 . S
H744 N732 0.984 . S
H745 N732 0.985 . S
C746 C747 1.363 . S
C746 C752 1.379 . S
C746 N754 1.356 . S
C747 C746 1.363 . S
C747 C753 1.363 . S
C748 C749 1.363 . S
C748 C753 1.379 . S
C748 N755 1.356 . S
C749 C748 1.363 . S
C749 C752 1.363 . S
N750 C752 1.356 . S
N750 H762 0.984 . S
N750 H763 0.985 . S
N751 C753 1.356 . S
N751 H756 0.984 . S
N751 H757 0.985 . S
C752 C746 1.379 . S
C752 C749 1.363 . S
C752 N750 1.356 . S
C753 C747 1.363 . S
C753 C748 1.379 . S
C753 N751 1.356 . S
N754 C746 1.356 . S
N754 H760 0.984 . S
N754 H761 0.984 . S
N755 C748 1.356 . S
N755 H758 0.984 . S
N755 H759 0.985 . S
H756 N751 0.984 . S
H757 N751 0.985 . S
H758 N755 0.984 . S
H759 N755 0.985 . S
H760 N754 0.984 . S
H761 N754 0.984 . S
H762 N750 0.984 . S
H763 N750 0.985 . S
C764 C765 1.363 . S
C764 C770 1.379 . S
C764 N772 1.356 . S
C765 C764 1.363 . S
C765 C771 1.363 . S
C766 C767 1.363 . S
C766 C771 1.379 . S
C766 N773 1.356 . S
C767 C766 1.363 . S
C767 C770 1.363 . S
N768 C770 1.356 . S
N768 H780 0.984 . S
N768 H781 0.985 . S
N769 C771 1.356 . S
N769 H774 0.984 . S
N769 H775 0.985 . S
C770 C764 1.379 . S
C770 C767 1.363 . S
C770 N768 1.356 . S
C771 C765 1.363 . S
C771 C766 1.379 . S
C771 N769 1.356 . S
N772 C764 1.356 . S
N772 H778 0.984 . S
N772 H779 0.984 . S
N773 C766 1.356 . S
N773 H776 0.984 . S
N773 H777 0.985 . S
H774 N769 0.984 . S
H775 N769 0.985 . S
H776 N773 0.984 . S
H777 N773 0.985 . S
H778 N772 0.984 . S
H779 N772 0.984 . S
H780 N768 0.984 . S
H781 N768 0.985 . S
C782 C783 1.363 . S
C782 C788 1.379 . S
C782 N790 1.356 . S
C783 C782 1.363 . S
C783 C789 1.363 . S
C784 C785 1.363 . S
C784 C789 1.379 . S
C784 N791 1.356 . S
C785 C784 1.363 . S
C785 C788 1.363 . S
N786 C788 1.356 . S
N786 H798 0.984 . S
N786 H799 0.985 . S
N787 C789 1.356 . S
N787 H792 0.984 . S
N787 H793 0.985 . S
C788 C782 1.379 . S
C788 C785 1.363 . S
C788 N786 1.356 . S
C789 C783 1.363 . S
C789 C784 1.379 . S
C789 N787 1.356 . S
N790 C782 1.356 . S
N790 H796 0.984 . S
N790 H797 0.984 . S
N791 C784 1.356 . S
N791 H794 0.984 . S
N791 H795 0.985 . S
H792 N787 0.984 . S
H793 N787 0.985 . S
H794 N791 0.984 . S
H795 N791 0.985 . S
H796 N790 0.984 . S
H797 N790 0.984 . S
H798 N786 0.984 . S
H799 N786 0.985 . S
C225 C9 1.392 . S
C227 C37 1.392 . S
C243 C51 1.392 . S
C245 C23 1.392 . S
C261 C65 1.392 . S
C263 C93 1.392 . S
C279 C107 1.392 . S
C281 C79 1.392 . S
C297 C121 1.392 . S
C299 C149 1.392 . S
C315 C163 1.392 . S
C317 C135 1.392 . S
C333 C177 1.392 . S
C335 C205 1.392 . S
C351 C219 1.392 . S
C353 C191 1.392 . S
C369 C59 1.448 . S
C371 C3 1.448 . S
C387 C17 1.448 . S
C389 C73 1.448 . S
C405 C31 1.448 . S
C407 C87 1.448 . S
C423 C101 1.448 . S
C425 C45 1.448 . S
C441 C115 1.448 . S
C443 C171 1.448 . S
C459 C129 1.448 . S
C461 C185 1.448 . S
C477 C143 1.448 . S
C479 C199 1.448 . S
C495 C157 1.448 . S
C497 C213 1.448 . S
C513 C147 1.375 . S
C515 C7 1.375 . S
C531 C161 1.375 . S
C533 C21 1.375 . S
C549 C35 1.375 . S
C551 C119 1.375 . S
C567 C49 1.375 . S
C569 C133 1.375 . S
C585 C63 1.375 . S
C587 C203 1.375 . S
C603 C77 1.375 . S
C605 C217 1.375 . S
C621 C91 1.375 . S
C623 C175 1.375 . S
C639 C189 1.375 . S
C641 C105 1.375 . S
C657 C8 1.422 . S
C659 C218 1.422 . S
C675 C176 1.422 . S
C677 C22 1.422 . S
C693 C36 1.422 . S
C695 C190 1.422 . S
C711 C204 1.422 . S
C713 C50 1.422 . S
C729 C134 1.422 . S
C731 C64 1.422 . S
C747 C78 1.422 . S
C749 C148 1.422 . S
C765 C162 1.422 . S
C767 C92 1.422 . S
C783 C120 1.422 . S
C785 C106 1.422 . S
