# Generated by pormake.
# Topology umc, (4)-cn, num edge types: 1
# Building blocks:
#     Node 0, Type 0, BuildingBlock: QUQFOY_clean_sbu_1, # of connection points: 4
#     Node 1, Type 0, BuildingBlock: QUQFOY_clean_sbu_1, # of connection points: 4
#     Node 2, Type 0, BuildingBlock: QUQFOY_clean_sbu_1, # of connection points: 4
#     Node 3, Type 0, BuildingBlock: QUQFOY_clean_sbu_1, # of connection points: 4
#     Node 4, Type 0, BuildingBlock: QUQFOY_clean_sbu_1, # of connection points: 4
#     Node 5, Type 0, BuildingBlock: QUQFOY_clean_sbu_1, # of connection points: 4
#     Node 6, Type 0, BuildingBlock: QUQFOY_clean_sbu_1, # of connection points: 4
#     Node 7, Type 0, BuildingBlock: QUQFOY_clean_sbu_1, # of connection points: 4
#     Node 8, Type 0, BuildingBlock: QUQFOY_clean_sbu_1, # of connection points: 4
#     Node 9, Type 0, BuildingBlock: QUQFOY_clean_sbu_1, # of connection points: 4
#     Node 10, Type 0, BuildingBlock: QUQFOY_clean_sbu_1, # of connection points: 4
#     Node 11, Type 0, BuildingBlock: QUQFOY_clean_sbu_1, # of connection points: 4
#     Node 12, Type 0, BuildingBlock: QUQFOY_clean_sbu_1, # of connection points: 4
#     Node 13, Type 0, BuildingBlock: QUQFOY_clean_sbu_1, # of connection points: 4
#     Node 14, Type 0, BuildingBlock: QUQFOY_clean_sbu_1, # of connection points: 4
#     Node 15, Type 0, BuildingBlock: QUQFOY_clean_sbu_1, # of connection points: 4
#     Edge 16, Type (0, 0), BuildingBlock: EZIPEK_clean_linker_0, # of connection points: 2
#     Edge 17, Type (0, 0), BuildingBlock: EZIPEK_clean_linker_0, # of connection points: 2
#     Edge 18, Type (0, 0), BuildingBlock: EZIPEK_clean_linker_0, # of connection points: 2
#     Edge 19, Type (0, 0), BuildingBlock: EZIPEK_clean_linker_0, # of connection points: 2
#     Edge 20, Type (0, 0), BuildingBlock: EZIPEK_clean_linker_0, # of connection points: 2
#     Edge 21, Type (0, 0), BuildingBlock: EZIPEK_clean_linker_0, # of connection points: 2
#     Edge 22, Type (0, 0), BuildingBlock: EZIPEK_clean_linker_0, # of connection points: 2
#     Edge 23, Type (0, 0), BuildingBlock: EZIPEK_clean_linker_0, # of connection points: 2
#     Edge 24, Type (0, 0), BuildingBlock: EZIPEK_clean_linker_0, # of connection points: 2
#     Edge 25, Type (0, 0), BuildingBlock: EZIPEK_clean_linker_0, # of connection points: 2
#     Edge 26, Type (0, 0), BuildingBlock: EZIPEK_clean_linker_0, # of connection points: 2
#     Edge 27, Type (0, 0), BuildingBlock: EZIPEK_clean_linker_0, # of connection points: 2
#     Edge 28, Type (0, 0), BuildingBlock: EZIPEK_clean_linker_0, # of connection points: 2
#     Edge 29, Type (0, 0), BuildingBlock: EZIPEK_clean_linker_0, # of connection points: 2
#     Edge 30, Type (0, 0), BuildingBlock: EZIPEK_clean_linker_0, # of connection points: 2
#     Edge 31, Type (0, 0), BuildingBlock: EZIPEK_clean_linker_0, # of connection points: 2
#     Edge 32, Type (0, 0), BuildingBlock: EZIPEK_clean_linker_0, # of connection points: 2
#     Edge 33, Type (0, 0), BuildingBlock: EZIPEK_clean_linker_0, # of connection points: 2
#     Edge 34, Type (0, 0), BuildingBlock: EZIPEK_clean_linker_0, # of connection points: 2
#     Edge 35, Type (0, 0), BuildingBlock: EZIPEK_clean_linker_0, # of connection points: 2
#     Edge 36, Type (0, 0), BuildingBlock: EZIPEK_clean_linker_0, # of connection points: 2
#     Edge 37, Type (0, 0), BuildingBlock: EZIPEK_clean_linker_0, # of connection points: 2
#     Edge 38, Type (0, 0), BuildingBlock: EZIPEK_clean_linker_0, # of connection points: 2
#     Edge 39, Type (0, 0), BuildingBlock: EZIPEK_clean_linker_0, # of connection points: 2
#     Edge 40, Type (0, 0), BuildingBlock: EZIPEK_clean_linker_0, # of connection points: 2
#     Edge 41, Type (0, 0), BuildingBlock: EZIPEK_clean_linker_0, # of connection points: 2
#     Edge 42, Type (0, 0), BuildingBlock: EZIPEK_clean_linker_0, # of connection points: 2
#     Edge 43, Type (0, 0), BuildingBlock: EZIPEK_clean_linker_0, # of connection points: 2
#     Edge 44, Type (0, 0), BuildingBlock: EZIPEK_clean_linker_0, # of connection points: 2
#     Edge 45, Type (0, 0), BuildingBlock: EZIPEK_clean_linker_0, # of connection points: 2
#     Edge 46, Type (0, 0), BuildingBlock: EZIPEK_clean_linker_0, # of connection points: 2
#     Edge 47, Type (0, 0), BuildingBlock: EZIPEK_clean_linker_0, # of connection points: 2
# Relax obj value: 0.042
# Max RMSD: 0.111
# Mean RMSD: 0.111
data_MOF--net-umc--node1-QUQFOY_clean_sbu_1--edge1-EZIPEK_clean_linker_0
_symmetry_space_group_name_H-M    P1
_symmetry_Int_Tables_number       1
_symmetry_cell_setting            triclinic
loop_
_symmetry_equiv_pos_as_xyz
'x, y, z'
_cell_length_a     29.263298
_cell_length_b     29.652996
_cell_length_c     42.195164
_cell_angle_alpha  90.006262
_cell_angle_beta   90.079943
_cell_angle_gamma 90.054814
loop_
_atom_site_label
_atom_site_type_symbol
_atom_site_fract_x
_atom_site_fract_y
_atom_site_fract_z
_atom_type_partial_charge
O0 O 0.3117 0.11111 0.44618 0.0
Cd1 Cd 0.3334 0.13381 0.40253 0.0
Cd2 Cd 0.30428 0.05365 0.38807 0.0
O3 O 0.26674 0.05635 0.42934 0.0
O4 O 0.33883 0.20048 0.4085 0.0
O5 O 0.28681 0.16914 0.37736 0.0
C6 C 0.30312 0.20483 0.3908 0.0
C7 C 0.27954 0.04572 0.33657 0.0
C8 C 0.28165 0.08119 0.45162 0.0
C9 C 0.40436 0.06592 0.38881 0.0
O10 O 0.37231 1.03771 0.39321 0.0
O11 O 0.39573 0.10798 0.38703 0.0
O12 O 0.2783 1.01188 0.35587 0.0
O13 O 0.29015 0.08507 0.34754 0.0
O14 O 0.69215 0.97051 0.44482 0.0
Cd15 Cd 0.66895 0.9427 0.40294 0.0
Cd16 Cd 0.69136 1.02506 0.38485 0.0
O17 O 0.7287 1.03009 0.42618 0.0
O18 O 0.66749 0.87648 0.41225 0.0
O19 O 0.71549 0.90703 0.37798 0.0
C20 C 0.7019 0.87197 0.39344 0.0
C21 C 0.7168 1.02622 0.33318 0.0
C22 C 0.71816 1.00432 0.44913 0.0
C23 C 0.59201 1.00373 0.38741 0.0
O24 O 0.62191 1.03471 0.38897 0.0
O25 O 0.60386 0.9624 0.38832 0.0
O26 O 0.71174 0.06341 0.34877 0.0
O27 O 0.7121 0.98845 0.34809 0.0
O28 O 0.30863 0.97588 0.08834 0.0
Cd29 Cd 0.3326 0.94886 0.13023 0.0
Cd30 Cd 0.30822 1.03061 0.14829 0.0
O31 O 0.26996 1.03386 0.10724 0.0
O32 O 0.33585 0.8826 0.12105 0.0
O33 O 0.28693 0.91196 0.15514 0.0
C34 C 0.30146 0.87723 0.13976 0.0
C35 C 0.28345 1.02971 0.20016 0.0
C36 C 0.28132 1.00865 0.08419 0.0
C37 C 0.40791 1.01255 0.1453 0.0
O38 O 0.37724 0.04272 0.14342 0.0
O39 O 0.39701 0.9709 0.14492 0.0
O40 O 0.28598 0.06732 0.18476 0.0
O41 O 0.29069 0.99249 0.18507 0.0
O42 O 0.69421 0.11063 0.08674 0.0
Cd43 Cd 0.67173 0.13565 0.12964 0.0
Cd44 Cd 0.69648 0.05429 0.14556 0.0
O45 O 0.7344 0.05295 0.10446 0.0
O46 O 0.66938 0.20219 0.12236 0.0
O47 O 0.71826 0.17022 0.1555 0.0
C48 C 0.70402 0.20599 0.14111 0.0
C49 C 0.72144 0.04524 0.197 0.0
C50 C 0.72195 0.07846 0.08185 0.0
C51 C 0.59683 0.07203 0.14345 0.0
O52 O 0.6276 0.04219 0.14038 0.0
O53 O 0.60744 0.11369 0.14418 0.0
O54 O 0.71825 1.011 0.17817 0.0
O55 O 0.71447 0.08516 0.18571 0.0
O56 O 0.6916 0.97356 0.58578 0.0
Cd57 Cd 0.67051 0.94722 0.62862 0.0
Cd58 Cd 0.69686 1.02732 0.64557 0.0
O59 O 0.7352 1.02805 0.60457 0.0
O60 O 0.66732 0.88079 0.62084 0.0
O61 O 0.71816 0.9121 0.65291 0.0
C62 C 0.70297 0.87661 0.63861 0.0
C63 C 0.72165 1.03378 0.69723 0.0
C64 C 0.7209 1.00457 0.58139 0.0
C65 C 0.5971 1.01099 0.64427 0.0
O66 O 0.62807 1.04055 0.64053 0.0
O67 O 0.60727 0.96926 0.64488 0.0
O68 O 0.72033 0.06873 0.67894 0.0
O69 O 0.71296 0.99458 0.68526 0.0
O70 O 0.31398 0.11253 0.58882 0.0
Cd71 Cd 0.33584 0.13702 0.632 0.0
Cd72 Cd 0.30957 0.05661 0.64835 0.0
O73 O 0.27076 0.05774 0.60741 0.0
O74 O 0.33884 0.20362 0.62549 0.0
O75 O 0.28868 0.17105 0.6574 0.0
C76 C 0.30349 0.20706 0.64356 0.0
C77 C 0.28442 0.04599 0.69959 0.0
C78 C 0.28448 0.08173 0.58436 0.0
C79 C 0.40958 0.07279 0.64638 0.0
O80 O 0.37846 0.04317 0.64335 0.0
O81 O 0.39947 0.11454 0.64693 0.0
O82 O 0.28474 1.01289 0.67968 0.0
O83 O 0.29385 0.08605 0.68939 0.0
O84 O 0.69175 0.10964 0.94548 0.0
Cd85 Cd 0.66828 0.13577 0.90324 0.0
Cd86 Cd 0.69367 0.05481 0.88522 0.0
O87 O 0.73244 0.05341 0.9262 0.0
O88 O 0.66533 0.20217 0.91123 0.0
O89 O 0.7142 0.17131 0.87769 0.0
C90 C 0.69979 0.20665 0.89246 0.0
C91 C 0.71912 0.05103 0.83354 0.0
C92 C 0.72011 0.07773 0.94948 0.0
C93 C 0.59352 0.0722 0.88875 0.0
O94 O 0.62461 0.04233 0.89019 0.0
O95 O 0.60384 0.11393 0.88934 0.0
O96 O 0.71707 1.01502 0.85072 0.0
O97 O 0.71019 0.08947 0.84655 0.0
O98 O 0.30772 0.97679 0.94816 0.0
Cd99 Cd 0.33016 0.94914 0.90601 0.0
Cd100 Cd 0.30506 1.02991 0.88823 0.0
O101 O 0.26584 1.03216 0.92878 0.0
O102 O 0.33436 0.88293 0.91507 0.0
O103 O 0.28366 0.91201 0.88201 0.0
C104 C 0.29928 0.87732 0.89693 0.0
C105 C 0.28204 1.0289 0.83595 0.0
C106 C 0.27902 1.00845 0.95216 0.0
C107 C 0.4045 1.01275 0.89056 0.0
O108 O 0.37385 0.04265 0.89397 0.0
O109 O 0.39358 0.97115 0.88976 0.0
O110 O 0.2835 0.06649 0.85146 0.0
O111 O 0.28909 0.9917 0.85113 0.0
O112 O 0.81162 0.60545 0.44624 0.0
Cd113 Cd 0.83512 0.63232 0.40418 0.0
Cd114 Cd 0.81175 0.54993 0.38659 0.0
O115 O 0.77398 0.5464 0.42777 0.0
O116 O 0.83773 0.69873 0.41294 0.0
O117 O 0.78893 0.66833 0.37908 0.0
C118 C 0.80321 0.70344 0.3942 0.0
C119 C 0.78654 0.55032 0.33478 0.0
C120 C 0.78494 0.5722 0.45063 0.0
C121 C 0.91119 0.56962 0.38921 0.0
O122 O 0.88098 0.53897 0.39125 0.0
O123 O 0.89971 0.61109 0.38954 0.0
O124 O 0.78971 0.51278 0.35021 0.0
O125 O 0.7933 0.58768 0.34983 0.0
O126 O 0.19607 0.46916 0.44707 0.0
Cd127 Cd 0.17371 0.44557 0.40374 0.0
Cd128 Cd 0.20003 0.52648 0.38868 0.0
O129 O 0.23857 0.52534 0.42959 0.0
O130 O 0.17001 0.37889 0.41006 0.0
O131 O 0.22012 0.41103 0.37793 0.0
C132 C 0.20501 0.3751 0.3917 0.0
C133 C 0.22374 0.53604 0.33711 0.0
C134 C 0.22511 0.5002 0.45211 0.0
C135 C 0.10031 0.51118 0.39053 0.0
O136 O 0.13162 0.54042 0.39428 0.0
O137 O 0.11019 0.46939 0.38901 0.0
O138 O 0.22409 0.56956 0.3567 0.0
O139 O 0.21465 0.49617 0.34779 0.0
O140 O 0.81115 0.4717 0.0872 0.0
Cd141 Cd 0.83366 0.44709 0.13019 0.0
Cd142 Cd 0.80542 0.52638 0.14658 0.0
O143 O 0.76584 0.52454 0.1061 0.0
O144 O 0.83852 0.38056 0.12336 0.0
O145 O 0.78722 0.4114 0.15517 0.0
C146 C 0.80311 0.37594 0.14126 0.0
C147 C 0.78199 0.53407 0.19837 0.0
C148 C 0.78052 0.50142 0.08291 0.0
C149 C 0.90547 0.51369 0.14433 0.0
O150 O 0.87353 0.54223 0.14066 0.0
O151 O 0.89645 0.47169 0.14565 0.0
O152 O 0.78064 0.56803 0.17919 0.0
O153 O 0.79215 0.49475 0.18719 0.0
O154 O 0.19313 0.60754 0.08824 0.0
Cd155 Cd 0.17005 0.63592 0.12995 0.0
Cd156 Cd 0.19385 0.55488 0.14898 0.0
O157 O 0.23249 0.55078 0.10819 0.0
O158 O 0.16772 0.70215 0.12052 0.0
O159 O 0.21653 0.67231 0.15459 0.0
C160 C 0.20226 0.70719 0.13922 0.0
C161 C 0.21879 0.55503 0.20089 0.0
C162 C 0.22068 0.57482 0.08463 0.0
C163 C 0.09424 0.57372 0.14574 0.0
O164 O 0.12463 0.54326 0.14402 0.0
O165 O 0.10556 0.61523 0.14508 0.0
O166 O 0.21563 0.51761 0.18532 0.0
O167 O 0.21199 0.5925 0.18598 0.0
O168 O 0.19373 0.47022 0.58851 0.0
Cd169 Cd 0.17023 0.44551 0.63107 0.0
Cd170 Cd 0.19736 0.52565 0.64873 0.0
O171 O 0.23609 0.52533 0.60775 0.0
O172 O 0.16706 0.37898 0.62421 0.0
O173 O 0.21617 0.41098 0.65727 0.0
C174 C 0.2017 0.37518 0.64297 0.0
C175 C 0.2226 0.53501 0.70012 0.0
C176 C 0.22305 0.50128 0.5845 0.0
C177 C 0.09688 0.51036 0.64543 0.0
O178 O 0.12852 0.53967 0.64395 0.0
O179 O 0.10627 0.46845 0.64469 0.0
O180 O 0.22208 0.56866 0.68067 0.0
O181 O 0.21332 0.49521 0.68939 0.0
O182 O 0.81088 0.6081 0.58586 0.0
Cd183 Cd 0.83488 0.63641 0.62728 0.0
Cd184 Cd 0.80943 0.55597 0.64757 0.0
O185 O 0.77163 0.55155 0.60624 0.0
O186 O 0.83685 0.70259 0.61805 0.0
O187 O 0.78938 0.67237 0.65285 0.0
C188 C 0.80305 0.70738 0.63735 0.0
C189 C 0.78325 0.55406 0.69909 0.0
C190 C 0.78339 0.57525 0.58249 0.0
C191 C 0.90983 0.57397 0.64381 0.0
O192 O 0.8787 0.54404 0.64385 0.0
O193 O 0.89965 0.61555 0.64116 0.0
O194 O 0.78633 0.5173 0.68279 0.0
O195 O 0.79103 0.59209 0.68513 0.0
O196 O 0.19462 0.60813 0.94878 0.0
Cd197 Cd 0.17036 0.63531 0.90716 0.0
Cd198 Cd 0.19526 0.55381 0.88789 0.0
O199 O 0.23209 0.54954 0.92962 0.0
O200 O 0.16794 0.70145 0.91635 0.0
O201 O 0.21558 0.67164 0.88153 0.0
C202 C 0.20175 0.7065 0.8971 0.0
C203 C 0.22184 0.5522 0.83648 0.0
C204 C 0.22119 0.57477 0.95278 0.0
C205 C 0.09503 0.57242 0.89115 0.0
O206 O 0.12596 0.54235 0.89124 0.0
O207 O 0.10545 0.614 0.89364 0.0
O208 O 0.21851 0.51533 0.85265 0.0
O209 O 0.21423 0.59016 0.85058 0.0
O210 O 0.81008 0.46977 0.94632 0.0
Cd211 Cd 0.83322 0.44538 0.90366 0.0
Cd212 Cd 0.80754 0.52639 0.88665 0.0
O213 O 0.76949 0.52667 0.92787 0.0
O214 O 0.83573 0.37889 0.91065 0.0
O215 O 0.78689 0.41111 0.87755 0.0
C216 C 0.80099 0.37529 0.89196 0.0
C217 C 0.78217 0.53614 0.83538 0.0
C218 C 0.78175 0.50153 0.95074 0.0
C219 C 0.90766 0.50952 0.88954 0.0
O220 O 0.87655 0.53929 0.89117 0.0
O221 O 0.89758 0.46774 0.89017 0.0
O222 O 0.78336 0.56977 0.85484 0.0
O223 O 0.79076 0.49618 0.84607 0.0
C224 C 0.28753 1.03597 0.50148 0.0
C225 C 0.26827 0.07304 0.48489 0.0
C226 C 0.246 0.10844 0.53498 0.0
C227 C 0.26866 0.07332 0.55153 0.0
N228 N 0.29904 0.99775 0.5517 0.0
N229 N 0.21984 0.13835 0.48436 0.0
C230 C 0.28495 1.03483 0.53512 0.0
C231 C 0.24411 0.10718 0.50128 0.0
N232 N 0.31151 1.00382 0.48526 0.0
N233 N 0.22768 0.14352 0.55169 0.0
H234 H 0.21786 0.13746 0.45965 0.0
H235 H 0.19915 0.16293 0.49446 0.0
H236 H 0.22599 0.14343 0.57641 0.0
H237 H 0.21499 0.17285 0.54145 0.0
H238 H 0.33172 0.97943 0.49612 0.0
H239 H 0.31336 1.00282 0.4606 0.0
H240 H 0.30707 0.96705 0.54114 0.0
H241 H 0.29889 0.99618 0.57635 0.0
C242 C 0.71857 0.0519 0.53241 0.0
C243 C 0.73595 1.01358 0.54851 0.0
C244 C 0.75936 0.98045 0.49787 0.0
C245 C 0.73354 1.01386 0.48188 0.0
N246 N 0.68906 0.08231 0.48313 0.0
N247 N 0.77732 0.94359 0.5478 0.0
C248 C 0.71442 0.05065 0.49882 0.0
C249 C 0.75847 0.97886 0.53154 0.0
N250 N 0.70483 0.0888 0.54929 0.0
N251 N 0.78422 0.9502 0.48057 0.0
H252 H 0.77957 0.94327 0.5725 0.0
H253 H 0.78952 0.91435 0.53716 0.0
H254 H 0.7855 0.95134 0.45585 0.0
H255 H 0.80627 0.92654 0.49044 0.0
H256 H 0.69585 0.11937 0.5389 0.0
H257 H 0.70632 0.09035 0.57393 0.0
H258 H 0.66904 0.10641 0.49444 0.0
H259 H 0.68594 0.0832 0.45854 0.0
C260 C 0.24063 0.98356 0.03553 0.0
C261 C 0.26539 1.01778 0.05151 0.0
C262 C 0.27892 0.0564 1.00098 0.0
C263 C 0.26302 1.01743 0.98487 0.0
N264 N 0.22375 0.94618 0.98559 0.0
N265 N 0.30738 0.08781 0.05028 0.0
C266 C 0.24153 0.98202 1.00185 0.0
C267 C 0.28315 0.05527 0.03458 0.0
N268 N 0.21681 0.95248 0.05284 0.0
N269 N 0.29119 0.09386 0.98416 0.0
H270 H 0.31045 0.0888 0.07487 0.0
H271 H 0.32655 0.11262 0.03898 0.0
H272 H 0.28946 0.09551 0.95955 0.0
H273 H 0.29901 0.12473 0.99461 0.0
H274 H 0.19554 0.92808 0.04299 0.0
H275 H 0.21557 0.95356 0.07756 0.0
H276 H 0.21245 0.91656 0.99623 0.0
H277 H 0.22143 0.94582 0.96089 0.0
C278 C 0.71926 1.03072 0.99864 0.0
C279 C 0.73636 0.06881 0.98214 0.0
C280 C 0.76122 0.10251 0.03238 0.0
C281 C 0.73587 0.06922 0.0488 0.0
N282 N 0.69079 1.00103 0.04838 0.0
N283 N 0.77814 0.13865 0.98202 0.0
C284 C 0.716 1.03237 0.03226 0.0
C285 C 0.75949 0.10368 0.99869 0.0
N286 N 0.70493 0.99361 0.98217 0.0
N287 N 0.78647 0.13302 0.04925 0.0
H288 H 0.77981 0.13862 0.9573 0.0
H289 H 0.79083 0.16797 0.99233 0.0
H290 H 0.78832 0.13221 0.07396 0.0
H291 H 0.80822 0.15667 0.03905 0.0
H292 H 0.69617 0.96319 0.99288 0.0
H293 H 0.70577 0.99166 0.95754 0.0
H294 H 0.67021 0.977 0.03741 0.0
H295 H 0.68822 1.00044 0.07301 0.0
C296 C 0.74425 0.59886 0.53268 0.0
C297 C 0.76729 0.56476 0.55 0.0
C298 C 0.78865 0.52672 0.50066 0.0
C299 C 0.76941 0.56315 0.48338 0.0
N300 N 0.7185 0.62655 0.48138 0.0
N301 N 0.79864 0.48963 0.55149 0.0
C302 C 0.7434 0.59668 0.49901 0.0
C303 C 0.78469 0.52615 0.53428 0.0
N304 N 0.72495 0.63415 0.54862 0.0
N305 N 0.81392 0.49477 0.48524 0.0
H306 H 0.79711 0.48845 0.57612 0.0
H307 H 0.80774 0.4589 0.54138 0.0
H308 H 0.81676 0.49337 0.46065 0.0
H309 H 0.83407 0.47093 0.49674 0.0
H310 H 0.71226 0.66303 0.53774 0.0
H311 H 0.72267 0.6348 0.57331 0.0
H312 H 0.6964 0.65037 0.49095 0.0
H313 H 0.71732 0.62499 0.45666 0.0
C314 C 0.22302 0.54805 0.53525 0.0
C315 C 0.23948 0.50979 0.55185 0.0
C316 C 0.26372 0.47544 0.50176 0.0
C317 C 0.23902 0.5091 0.48522 0.0
N318 N 0.19527 0.57806 0.48538 0.0
N319 N 0.28064 0.43972 0.55232 0.0
C320 C 0.21982 0.54634 0.50164 0.0
C321 C 0.26215 0.47458 0.53546 0.0
N322 N 0.2093 0.58541 0.55163 0.0
N323 N 0.28815 0.44428 0.48497 0.0
H324 H 0.28245 0.4401 0.57704 0.0
H325 H 0.29327 0.41029 0.5422 0.0
H326 H 0.28989 0.44489 0.46026 0.0
H327 H 0.30925 0.42011 0.4952 0.0
H328 H 0.20106 0.61592 0.54087 0.0
H329 H 0.21017 0.58741 0.57627 0.0
H330 H 0.17513 0.60247 0.49624 0.0
H331 H 0.19279 0.57862 0.46074 0.0
C332 C 0.78412 0.54779 1.0004 0.0
C333 C 0.7663 0.51025 0.98352 0.0
C334 C 0.74338 0.4742 0.03322 0.0
C335 C 0.7647 0.50981 0.05011 0.0
N336 N 0.79274 0.58628 0.05082 0.0
N337 N 0.71826 0.44457 0.9823 0.0
C338 C 0.78031 0.54883 0.03399 0.0
C339 C 0.74205 0.47578 0.99955 0.0
N340 N 0.80801 0.58048 0.98464 0.0
N341 N 0.72608 0.43823 0.04953 0.0
H342 H 0.71666 0.44574 0.95758 0.0
H343 H 0.69735 0.41995 0.9922 0.0
H344 H 0.72411 0.43782 0.07424 0.0
H345 H 0.71485 0.40854 0.03892 0.0
H346 H 0.82722 0.60533 0.99589 0.0
H347 H 0.81078 0.58155 0.96003 0.0
H348 H 0.80029 0.61721 0.04039 0.0
H349 H 0.79152 0.58779 0.07546 0.0
C350 C 0.26057 0.59952 0.0354 0.0
C351 C 0.23708 0.56511 0.05213 0.0
C352 C 0.21653 0.52811 1.0022 0.0
C353 C 0.23638 0.56476 0.98549 0.0
N354 N 0.28773 0.62794 0.98469 0.0
N355 N 0.20545 0.49001 0.05252 0.0
C356 C 0.26224 0.59789 1.00174 0.0
C357 C 0.21985 0.52685 0.03584 0.0
N358 N 0.2795 0.63459 0.05187 0.0
N359 N 0.19125 0.49665 0.9862 0.0
H360 H 0.20649 0.48837 0.07716 0.0
H361 H 0.19648 0.45951 0.04199 0.0
H362 H 0.18882 0.49575 0.96157 0.0
H363 H 0.17066 0.47275 0.99727 0.0
H364 H 0.29242 0.66366 0.04136 0.0
H365 H 0.28116 0.63493 0.07659 0.0
H366 H 0.3098 0.65145 0.99477 0.0
H367 H 0.28946 0.62677 0.95999 0.0
C368 C 0.51593 1.01064 0.41432 0.0
C369 C 0.54298 1.01663 0.3867 0.0
C370 C 0.47777 0.05192 0.35949 0.0
C371 C 0.45222 0.04953 0.38797 0.0
N372 N 0.44844 1.03273 0.44383 0.0
N373 N 0.55191 0.04711 0.33405 0.0
C374 C 0.47158 1.03023 0.41571 0.0
C375 C 0.52454 1.03855 0.35958 0.0
N376 N 0.53274 0.9865 0.43938 0.0
N377 N 0.4568 0.06529 0.33208 0.0
H378 H 0.58562 1.036 0.3326 0.0
H379 H 0.54225 0.06755 0.31514 0.0
H380 H 0.42266 0.07535 0.33117 0.0
H381 H 0.47192 0.06303 0.30982 0.0
H382 H 0.51287 0.97619 0.4585 0.0
H383 H 0.56598 0.97395 0.44026 0.0
H384 H 0.46261 1.02403 0.46562 0.0
H385 H 0.41612 0.04722 0.44596 0.0
C386 C 0.47482 0.0509 0.17176 0.0
C387 C 0.45675 1.02651 0.14553 0.0
C388 C 0.5291 1.0367 0.11688 0.0
C389 C 0.54823 0.05772 0.14407 0.0
N390 N 0.5423 0.07876 0.19905 0.0
N391 N 0.46758 0.99246 0.09407 0.0
C392 C 0.52187 0.06332 0.17196 0.0
C393 C 0.48431 1.01803 0.11846 0.0
N394 N 0.44691 0.06269 0.19635 0.0
N395 N 0.55297 1.03662 0.089 0.0
H396 H 0.43393 0.98102 0.09296 0.0
H397 H 0.48776 0.98018 0.0757 0.0
H398 H 0.58557 0.0505 0.08672 0.0
H399 H 0.53919 1.02646 0.06739 0.0
H400 H 0.45656 0.08483 0.21431 0.0
H401 H 0.41281 0.05282 0.19775 0.0
H402 H 0.5265 0.07862 0.22114 0.0
H403 H 0.57656 0.08843 0.20003 0.0
C404 C 0.52411 1.0253 0.67406 0.0
C405 C 0.54867 1.02553 0.64508 0.0
C406 C 0.48372 0.06122 0.61807 0.0
C407 C 0.45807 0.05839 0.64653 0.0
N408 N 0.4513 1.03475 0.70094 0.0
N409 N 0.55051 1.03713 0.58855 0.0
C410 C 0.47754 1.03946 0.67435 0.0
C411 C 0.52815 0.04186 0.61683 0.0
N412 N 0.54589 1.0131 0.70145 0.0
N413 N 0.46567 0.08278 0.59225 0.0
H414 H 0.58305 1.02303 0.58666 0.0
H415 H 0.53565 0.04365 0.56661 0.0
H416 H 0.43253 0.09565 0.5917 0.0
H417 H 0.48441 0.09076 0.57207 0.0
H418 H 0.53183 1.01693 0.72392 0.0
H419 H 0.57957 1.00163 0.70192 0.0
H420 H 0.46136 1.01656 0.72085 0.0
H421 H 0.4181 0.04731 0.70253 0.0
C422 C 0.52807 1.03326 0.9155 0.0
C423 C 0.54487 0.05787 0.88908 0.0
C424 C 0.46901 0.05467 0.86413 0.0
C425 C 0.45327 1.02682 0.88933 0.0
N426 N 0.46852 0.98626 0.93788 0.0
N427 N 0.53359 0.08798 0.83662 0.0
C428 C 0.48316 1.01484 0.91454 0.0
C429 C 0.51588 0.0677 0.863 0.0
N430 N 0.55418 1.02982 0.94234 0.0
N431 N 0.43905 0.0691 0.8414 0.0
H432 H 0.56727 0.09922 0.83527 0.0
H433 H 0.51602 0.09098 0.81526 0.0
H434 H 0.40516 0.05845 0.84023 0.0
H435 H 0.44682 0.0938 0.82472 0.0
H436 H 0.54221 1.01684 0.96369 0.0
H437 H 0.58678 0.04379 0.94438 0.0
H438 H 0.49032 0.97143 0.95437 0.0
H439 H 0.43489 0.97507 0.93989 0.0
C440 C 0.97831 0.5326 0.36234 0.0
C441 C 0.9602 0.55643 0.38875 0.0
C442 C 0.03285 0.54668 0.41722 0.0
C443 C 0.05194 0.52613 0.38988 0.0
N444 N 0.04593 0.50635 0.33466 0.0
N445 N 0.97125 0.59033 0.44026 0.0
C446 C 0.02549 0.52084 0.36195 0.0
C447 C 0.98794 0.56502 0.41577 0.0
N448 N 0.95031 0.52064 0.33778 0.0
N449 N 0.0568 0.54654 0.44511 0.0
H450 H 0.93758 0.60161 0.44142 0.0
H451 H 0.99152 0.60262 0.45864 0.0
H452 H 0.08949 0.53289 0.44732 0.0
H453 H 0.043 0.5563 0.46677 0.0
H454 H 0.96011 0.49886 0.31967 0.0
H455 H 0.91603 0.52988 0.33659 0.0
H456 H 0.0299 0.50665 0.31262 0.0
H457 H 0.0804 0.49754 0.33348 0.0
C458 C 0.01748 0.56866 0.11916 0.0
C459 C 0.04525 0.56028 0.14619 0.0
C460 C 0.98001 0.52457 0.17306 0.0
C461 C 0.95357 0.52956 0.1451 0.0
N462 N 0.94865 0.54983 0.08985 0.0
N463 N 0.05514 0.52496 0.19731 0.0
C464 C 0.9726 0.55015 0.11774 0.0
C465 C 0.02715 0.53658 0.17267 0.0
N466 N 0.03412 0.5939 0.0946 0.0
N467 N 0.95957 0.51008 0.20035 0.0
H468 H 0.08936 0.53443 0.19853 0.0
H469 H 0.04539 0.50326 0.21549 0.0
H470 H 0.92512 0.50113 0.20152 0.0
H471 H 0.97555 0.51053 0.22241 0.0
H472 H 0.01382 0.60609 0.07623 0.0
H473 H 0.0678 0.60521 0.09337 0.0
H474 H 0.96244 0.55953 0.06817 0.0
H475 H 0.91596 0.53612 0.08767 0.0
C476 C 0.98575 0.56596 0.67139 0.0
C477 C 0.95836 0.55944 0.64396 0.0
C478 C 0.02263 0.52238 0.61707 0.0
C479 C 0.04863 0.52554 0.64539 0.0
N480 N 0.05368 0.54414 0.70081 0.0
N481 N 0.9487 0.52858 0.59141 0.0
C482 C 0.02989 0.54579 0.67292 0.0
C483 C 0.97621 0.53666 0.61704 0.0
N484 N 0.96972 0.59172 0.69582 0.0
N485 N 0.04296 0.50757 0.5898 0.0
H486 H 0.91571 0.54153 0.58925 0.0
H487 H 0.95756 0.50712 0.57289 0.0
H488 H 0.07669 0.4963 0.58889 0.0
H489 H 0.02773 0.50947 0.56753 0.0
H490 H 0.98959 0.60159 0.71509 0.0
H491 H 0.93733 0.60631 0.69573 0.0
H492 H 0.04037 0.55426 0.72253 0.0
H493 H 0.08569 0.52892 0.70274 0.0
C494 C 0.01911 0.56448 0.86354 0.0
C495 C 0.04644 0.55802 0.891 0.0
C496 C 0.9821 0.5209 0.91784 0.0
C497 C 0.95612 0.5241 0.88951 0.0
N498 N 0.95121 0.54257 0.83407 0.0
N499 N 0.056 0.52712 0.94355 0.0
C500 C 0.97496 0.54428 0.86198 0.0
C501 C 0.02853 0.5352 0.91789 0.0
N502 N 0.03522 0.59022 0.83911 0.0
N503 N 0.96172 0.50604 0.94509 0.0
H504 H 0.08899 0.54012 0.94575 0.0
H505 H 0.0471 0.50561 0.96203 0.0
H506 H 0.928 0.49467 0.94596 0.0
H507 H 0.97692 0.50795 0.96736 0.0
H508 H 0.0154 0.60004 0.81981 0.0
H509 H 0.06761 0.60487 0.83924 0.0
H510 H 0.96457 0.55267 0.81236 0.0
H511 H 0.9192 0.52728 0.83213 0.0
C512 C 0.24011 0.31011 0.36114 0.0
C513 C 0.23084 0.33193 0.39042 0.0
C514 C 0.26404 0.26805 0.41913 0.0
C515 C 0.27785 0.24835 0.39002 0.0
N516 N 0.2846 0.25348 0.33321 0.0
N517 N 0.24525 0.3368 0.44677 0.0
C518 C 0.26735 0.27012 0.36091 0.0
C519 C 0.24603 0.31237 0.41927 0.0
N520 N 0.22164 0.32664 0.33376 0.0
N521 N 0.26599 0.24374 0.44666 0.0
H522 H 0.23424 0.37019 0.44792 0.0
H523 H 0.26035 0.32561 0.46773 0.0
H524 H 0.27697 0.21033 0.44768 0.0
H525 H 0.25185 0.25505 0.46787 0.0
H526 H 0.22317 0.30973 0.31216 0.0
H527 H 0.20144 0.35559 0.33314 0.0
H528 H 0.28213 0.27032 0.31162 0.0
H529 H 0.30478 0.22454 0.33225 0.0
C530 C 0.73847 0.80707 0.36374 0.0
C531 C 0.7283 0.82909 0.39279 0.0
C532 C 0.76245 0.76624 0.42209 0.0
C533 C 0.7774 0.74666 0.3932 0.0
N534 N 0.78587 0.75225 0.33648 0.0
N535 N 0.74222 0.83501 0.44918 0.0
C536 C 0.7671 0.76809 0.36393 0.0
C537 C 0.7436 0.81024 0.42186 0.0
N538 N 0.71953 0.8223 0.33614 0.0
N539 N 0.76404 0.74213 0.4497 0.0
H540 H 0.73092 0.86833 0.45003 0.0
H541 H 0.75722 0.82424 0.47028 0.0
H542 H 0.77527 0.70882 0.45093 0.0
H543 H 0.74927 0.75345 0.47071 0.0
H544 H 0.72189 0.80494 0.31474 0.0
H545 H 0.69792 0.85022 0.33516 0.0
H546 H 0.78339 0.76914 0.31491 0.0
H547 H 0.8075 0.72433 0.33579 0.0
C548 C 0.23812 0.77221 0.16936 0.0
C549 C 0.22782 0.75064 0.14012 0.0
C550 C 0.26082 0.81464 0.11137 0.0
C551 C 0.27602 0.83373 0.1404 0.0
N552 N 0.28526 0.82704 0.19701 0.0
N553 N 0.24069 0.74635 0.08356 0.0
C554 C 0.26632 0.81155 0.16947 0.0
C555 C 0.24237 0.77043 0.11119 0.0
N556 N 0.21964 0.75621 0.19688 0.0
N557 N 0.26185 0.8394 0.08403 0.0
H558 H 0.22959 0.71298 0.08234 0.0
H559 H 0.25523 0.7578 0.0625 0.0
H560 H 0.2729 0.87281 0.08312 0.0
H561 H 0.24683 0.82846 0.06297 0.0
H562 H 0.22211 0.77316 0.21844 0.0
H563 H 0.19824 0.7281 0.19765 0.0
H564 H 0.28326 0.80965 0.21841 0.0
H565 H 0.30653 0.85525 0.19792 0.0
C566 C 0.74664 0.26745 0.11335 0.0
C567 C 0.73041 0.24887 0.14222 0.0
C568 C 0.76672 0.3112 0.1714 0.0
C569 C 0.77799 0.33225 0.14217 0.0
N570 N 0.76773 0.33513 0.08527 0.0
N571 N 0.71975 0.25581 0.19864 0.0
C572 C 0.76493 0.31169 0.11312 0.0
C573 C 0.7391 0.27143 0.17131 0.0
N574 N 0.74646 0.2422 0.08621 0.0
N575 N 0.78366 0.32824 0.19912 0.0
H576 H 0.69929 0.22701 0.19937 0.0
H577 H 0.72083 0.27336 0.22 0.0
H578 H 0.80438 0.35684 0.2 0.0
H579 H 0.78052 0.31189 0.22085 0.0
H580 H 0.76229 0.25264 0.06535 0.0
H581 H 0.73515 0.20886 0.08539 0.0
H582 H 0.7541 0.3232 0.06403 0.0
H583 H 0.77887 0.36847 0.08388 0.0
C584 C 0.74214 0.81358 0.60995 0.0
C585 C 0.72889 0.83343 0.63915 0.0
C586 C 0.76876 0.7728 0.66778 0.0
C587 C 0.77726 0.75059 0.63854 0.0
N588 N 0.76095 0.74473 0.58246 0.0
N589 N 0.72356 0.8284 0.69607 0.0
C590 C 0.76082 0.76952 0.6098 0.0
C591 C 0.74061 0.81212 0.6682 0.0
N592 N 0.73898 0.83749 0.58231 0.0
N593 N 0.78882 0.75737 0.69494 0.0
H594 H 0.70241 0.85664 0.69722 0.0
H595 H 0.72701 0.81166 0.71764 0.0
H596 H 0.81004 0.72914 0.69544 0.0
H597 H 0.78774 0.77476 0.71637 0.0
H598 H 0.75267 0.82611 0.56097 0.0
H599 H 0.72744 0.87069 0.58123 0.0
H600 H 0.74495 0.75544 0.5617 0.0
H601 H 0.77235 0.71147 0.58133 0.0
C602 C 0.24352 0.31317 0.61524 0.0
C603 C 0.22798 0.33229 0.64413 0.0
C604 C 0.26598 0.27123 0.67355 0.0
C605 C 0.277 0.24985 0.64441 0.0
N606 N 0.26533 0.24528 0.58772 0.0
N607 N 0.21877 0.32641 0.70074 0.0
C608 C 0.26267 0.26934 0.61532 0.0
C609 C 0.23772 0.31052 0.67336 0.0
N610 N 0.24206 0.33759 0.58776 0.0
N611 N 0.28375 0.25501 0.70125 0.0
H612 H 0.19772 0.35476 0.70138 0.0
H613 H 0.22072 0.30941 0.72229 0.0
H614 H 0.30478 0.22667 0.70219 0.0
H615 H 0.28086 0.27174 0.72285 0.0
H616 H 0.25752 0.32689 0.56683 0.0
H617 H 0.23002 0.37061 0.58656 0.0
H618 H 0.25075 0.25624 0.56653 0.0
H619 H 0.27747 0.21229 0.58657 0.0
C620 C 0.74033 0.26967 0.9203 0.0
C621 C 0.7256 0.2499 0.89138 0.0
C622 C 0.76407 0.31066 0.86195 0.0
C623 C 0.77425 0.33262 0.89104 0.0
N624 N 0.76037 0.33852 0.9474 0.0
N625 N 0.7173 0.25516 0.83462 0.0
C626 C 0.759 0.31372 0.92007 0.0
C627 C 0.73582 0.27134 0.8621 0.0
N628 N 0.73869 0.24566 0.94795 0.0
N629 N 0.7826 0.32637 0.83438 0.0
H630 H 0.69603 0.22694 0.83392 0.0
H631 H 0.71971 0.27192 0.813 0.0
H632 H 0.80362 0.35476 0.83347 0.0
H633 H 0.78032 0.30915 0.81292 0.0
H634 H 0.75344 0.25708 0.96898 0.0
H635 H 0.72743 0.21236 0.94924 0.0
H636 H 0.7453 0.32777 0.96846 0.0
H637 H 0.77177 0.37182 0.94828 0.0
C638 C 0.23594 0.7724 0.86709 0.0
C639 C 0.22746 0.74979 0.89618 0.0
C640 C 0.26162 0.81291 0.92525 0.0
C641 C 0.27469 0.83335 0.89621 0.0
N642 N 0.28098 0.82865 0.83929 0.0
N643 N 0.24395 0.74327 0.95218 0.0
C644 C 0.26367 0.81205 0.867 0.0
C645 C 0.24368 0.76851 0.92505 0.0
N646 N 0.21626 0.75703 0.83977 0.0
N647 N 0.26409 0.83653 0.95305 0.0
H648 H 0.23325 0.70974 0.95298 0.0
H649 H 0.25969 0.75398 0.97305 0.0
H650 H 0.27481 0.87001 0.95436 0.0
H651 H 0.25054 0.82453 0.97428 0.0
H652 H 0.21731 0.77471 0.81845 0.0
H653 H 0.19538 0.72852 0.83901 0.0
H654 H 0.27795 0.81199 0.81766 0.0
H655 H 0.30206 0.857 0.83837 0.0
C656 C 0.24151 0.05672 0.28353 0.0
C657 C 0.27753 1.03821 0.30191 0.0
C658 C 0.31666 1.01329 0.2536 0.0
C659 C 0.27955 1.02984 0.2352 0.0
N660 N 0.20365 0.06075 0.23226 0.0
N661 N 0.3471 0.99436 0.3052 0.0
C662 C 0.24109 0.04981 0.25007 0.0
C663 C 0.31409 1.01471 0.28717 0.0
N664 N 0.20809 0.08136 0.29806 0.0
N665 N 0.35599 0.99924 0.23908 0.0
H666 H 0.35005 0.99839 0.32964 0.0
H667 H 0.3704 0.97118 0.29617 0.0
H668 H 0.36001 0.99723 0.21463 0.0
H669 H 0.38643 0.99303 0.2511 0.0
H670 H 0.18374 0.10014 0.28586 0.0
H671 H 0.20617 0.08503 0.32261 0.0
H672 H 0.17275 0.07148 0.24181 0.0
H673 H 0.20222 0.05554 0.20782 0.0
C674 C 0.68327 1.01984 0.2465 0.0
C675 C 0.72265 1.03807 0.23166 0.0
C676 C 0.75942 0.04788 0.28355 0.0
C677 C 0.72102 1.02715 0.29817 0.0
N678 N 0.64912 0.98705 0.29315 0.0
N679 N 0.80011 0.0648 0.23465 0.0
C680 C 0.68404 1.01082 0.27949 0.0
C681 C 0.76133 0.05087 0.24981 0.0
N682 N 0.64384 1.01395 0.22944 0.0
N683 N 0.79381 0.06488 0.30198 0.0
H684 H 0.80213 0.06763 0.21004 0.0
H685 H 0.83111 0.07063 0.24604 0.0
H686 H 0.79491 0.06055 0.32651 0.0
H687 H 0.82023 0.08487 0.29332 0.0
H688 H 0.61234 1.00669 0.2397 0.0
H689 H 0.64123 1.02039 0.20523 0.0
H690 H 0.62501 0.969 0.28012 0.0
H691 H 0.64538 0.98256 0.31746 0.0
C692 C 0.76268 1.03529 0.78321 0.0
C693 C 0.72142 0.04734 0.79863 0.0
C694 C 0.68256 0.05452 0.74744 0.0
C695 C 0.7229 1.03962 0.732 0.0
N696 N 0.79974 1.01096 0.73451 0.0
N697 N 0.63982 0.05888 0.79632 0.0
C698 C 0.76257 1.02849 0.74971 0.0
C699 C 0.68079 0.05459 0.78098 0.0
N700 N 0.802 1.03151 0.80052 0.0
N701 N 0.64571 0.06861 0.73004 0.0
H702 H 0.63667 0.0583 0.82092 0.0
H703 H 0.60834 0.05866 0.78479 0.0
H704 H 0.64401 0.06654 0.70542 0.0
H705 H 0.61781 0.08528 0.73986 0.0
H706 H 0.83418 1.02708 0.79054 0.0
H707 H 0.8028 1.03588 0.82505 0.0
H708 H 0.82808 0.9978 0.7462 0.0
H709 H 0.8011 1.00715 0.70994 0.0
C710 C 0.24207 0.04979 0.78517 0.0
C711 C 0.27949 1.02907 0.80084 0.0
C712 C 0.31522 1.01243 0.74958 0.0
C713 C 0.28029 1.0374 0.73407 0.0
N714 N 0.21183 0.08232 0.73662 0.0
N715 N 0.3556 0.99734 0.79836 0.0
C716 C 0.24406 0.05684 0.75175 0.0
C717 C 0.31682 1.01159 0.78317 0.0
N718 N 0.20408 0.06132 0.80214 0.0
N719 N 0.3477 0.99008 0.73235 0.0
H720 H 0.35922 0.99626 0.82288 0.0
H721 H 0.38616 0.9904 0.78674 0.0
H722 H 0.35143 0.993 0.70791 0.0
H723 H 0.36958 0.96614 0.74214 0.0
H724 H 0.17381 0.07261 0.79189 0.0
H725 H 0.20145 0.05594 0.82651 0.0
H726 H 0.18769 0.10186 0.74839 0.0
H727 H 0.21061 0.08577 0.71202 0.0
C728 C 0.74457 0.5224 0.25148 0.0
C729 C 0.78027 0.54136 0.23306 0.0
C730 C 0.81922 0.56718 0.2813 0.0
C731 C 0.78245 0.55007 0.29975 0.0
N732 N 0.70704 0.51793 0.30279 0.0
N733 N 0.84935 0.58604 0.22965 0.0
C734 C 0.74422 0.52941 0.28493 0.0
C735 C 0.8166 0.56544 0.24774 0.0
N736 N 0.71135 0.49731 0.237 0.0
N737 N 0.85832 0.58211 0.29579 0.0
H738 H 0.85249 0.58161 0.20526 0.0
H739 H 0.87231 0.60972 0.23857 0.0
H740 H 0.86234 0.58451 0.32024 0.0
H741 H 0.88864 0.58879 0.28379 0.0
H742 H 0.68728 0.47822 0.24923 0.0
H743 H 0.70928 0.4936 0.21245 0.0
H744 H 0.67625 0.50665 0.29328 0.0
H745 H 0.70566 0.52321 0.32721 0.0
C746 C 0.18868 0.56807 0.28809 0.0
C747 C 0.22537 0.54424 0.3025 0.0
C748 C 0.26156 0.53404 0.25049 0.0
C749 C 0.22305 0.55445 0.23591 0.0
N750 N 0.14691 0.58558 0.24019 0.0
N751 N 0.29502 0.50154 0.29806 0.0
C752 C 0.1861 0.57068 0.25454 0.0
C753 C 0.26137 0.52633 0.28386 0.0
N754 N 0.15553 0.58756 0.30641 0.0
N755 N 0.29883 0.52346 0.23248 0.0
H756 H 0.29721 0.4974 0.32257 0.0
H757 H 0.31939 0.48314 0.28564 0.0
H758 H 0.30008 0.52928 0.2081 0.0
H759 H 0.32979 0.51241 0.24181 0.0
H760 H 0.13226 0.61112 0.2978 0.0
H761 H 0.15229 0.58226 0.3307 0.0
H762 H 0.11648 0.59156 0.25222 0.0
H763 H 0.14302 0.58877 0.21578 0.0
C764 C 0.18603 0.56442 0.78358 0.0
C765 C 0.22459 0.55039 0.80147 0.0
C766 C 0.26272 0.52568 0.75264 0.0
C767 C 0.22549 0.54286 0.73472 0.0
N768 N 0.15466 0.58498 0.73268 0.0
N769 N 0.30188 0.52296 0.80353 0.0
C770 C 0.18835 0.56461 0.75005 0.0
C771 C 0.26364 0.53241 0.78614 0.0
N772 N 0.14577 0.57435 0.79854 0.0
N773 N 0.29685 0.50263 0.73765 0.0
H774 H 0.30337 0.5276 0.82803 0.0
H775 H 0.33306 0.51383 0.7936 0.0
H776 H 0.29832 0.49923 0.71306 0.0
H777 H 0.32234 0.48492 0.74952 0.0
H778 H 0.11497 0.57917 0.78662 0.0
H779 H 0.14167 0.57328 0.82305 0.0
H780 H 0.13041 0.60646 0.74258 0.0
H781 H 0.15229 0.58317 0.70809 0.0
C782 C 0.81932 0.56535 0.75199 0.0
C783 C 0.78051 0.552 0.73408 0.0
C784 C 0.74196 0.52757 0.78283 0.0
C785 C 0.77948 0.54409 0.80079 0.0
N786 N 0.85114 0.58497 0.80296 0.0
N787 N 0.70279 0.52565 0.73192 0.0
C788 C 0.81704 0.56532 0.78553 0.0
C789 C 0.74117 0.53448 0.74935 0.0
N790 N 0.85969 0.57488 0.73703 0.0
N791 N 0.70743 0.50496 0.79776 0.0
H792 H 0.7014 0.5304 0.70743 0.0
H793 H 0.67146 0.51689 0.74181 0.0
H794 H 0.70591 0.50145 0.82234 0.0
H795 H 0.68163 0.4877 0.78585 0.0
H796 H 0.8906 0.57916 0.74892 0.0
H797 H 0.86369 0.57402 0.71251 0.0
H798 H 0.87577 0.60613 0.79314 0.0
H799 H 0.85354 0.58286 0.82753 0.0
loop_
_geom_bond_atom_site_label_1
_geom_bond_atom_site_label_2
_geom_bond_distance
_geom_bond_site_symmetry_2
_ccdc_geom_bond_type
O0 Cd1 2.223 . S
O0 C8 1.315 . S
Cd1 O0 2.223 . S
Cd1 O4 2.297 . S
Cd1 O5 2.439 . S
Cd1 O11 2.240 . S
Cd2 O3 2.240 . S
Cd2 O10 2.223 1_545 S
Cd2 O12 2.297 1_545 S
Cd2 O13 2.439 . S
O3 Cd2 2.240 . S
O3 C8 1.279 . S
O4 Cd1 2.297 . S
O4 C6 1.247 . S
O5 Cd1 2.439 . S
O5 C6 1.208 . S
C6 O4 1.247 . S
C6 O5 1.208 . S
C7 O12 1.247 1_545 S
C7 O13 1.208 . S
C8 O0 1.315 . S
C8 O3 1.279 . S
C9 O10 1.315 1_545 S
C9 O11 1.279 . S
O10 Cd2 2.223 1_565 S
O10 C9 1.315 1_565 S
O11 Cd1 2.240 . S
O11 C9 1.279 . S
O12 Cd2 2.297 1_565 S
O12 C7 1.247 1_565 S
O13 Cd2 2.439 . S
O13 C7 1.208 . S
O14 Cd15 2.223 . S
O14 C22 1.315 . S
Cd15 O14 2.223 . S
Cd15 O18 2.297 . S
Cd15 O19 2.439 . S
Cd15 O25 2.240 . S
Cd16 O17 2.240 . S
Cd16 O24 2.223 1_565 S
Cd16 O26 2.297 1_565 S
Cd16 O27 2.439 . S
O17 Cd16 2.240 . S
O17 C22 1.279 . S
O18 Cd15 2.297 . S
O18 C20 1.247 . S
O19 Cd15 2.439 . S
O19 C20 1.208 . S
C20 O18 1.247 . S
C20 O19 1.208 . S
C21 O26 1.247 1_565 S
C21 O27 1.208 . S
C22 O14 1.315 . S
C22 O17 1.279 . S
C23 O24 1.315 1_565 S
C23 O25 1.279 . S
O24 Cd16 2.223 1_545 S
O24 C23 1.315 1_545 S
O25 Cd15 2.240 . S
O25 C23 1.279 . S
O26 Cd16 2.297 1_545 S
O26 C21 1.247 1_545 S
O27 Cd16 2.439 . S
O27 C21 1.208 . S
O28 Cd29 2.223 . S
O28 C36 1.315 . S
Cd29 O28 2.223 . S
Cd29 O32 2.297 . S
Cd29 O33 2.439 . S
Cd29 O39 2.240 . S
Cd30 O31 2.240 . S
Cd30 O38 2.223 1_565 S
Cd30 O40 2.297 1_565 S
Cd30 O41 2.439 . S
O31 Cd30 2.240 . S
O31 C36 1.279 . S
O32 Cd29 2.297 . S
O32 C34 1.247 . S
O33 Cd29 2.439 . S
O33 C34 1.208 . S
C34 O32 1.247 . S
C34 O33 1.208 . S
C35 O40 1.247 1_565 S
C35 O41 1.208 . S
C36 O28 1.315 . S
C36 O31 1.279 . S
C37 O38 1.315 1_565 S
C37 O39 1.279 . S
O38 Cd30 2.223 1_545 S
O38 C37 1.315 1_545 S
O39 Cd29 2.240 . S
O39 C37 1.279 . S
O40 Cd30 2.297 1_545 S
O40 C35 1.247 1_545 S
O41 Cd30 2.439 . S
O41 C35 1.208 . S
O42 Cd43 2.223 . S
O42 C50 1.315 . S
Cd43 O42 2.223 . S
Cd43 O46 2.297 . S
Cd43 O47 2.439 . S
Cd43 O53 2.240 . S
Cd44 O45 2.240 . S
Cd44 O52 2.223 1_545 S
Cd44 O54 2.297 1_545 S
Cd44 O55 2.439 . S
O45 Cd44 2.240 . S
O45 C50 1.279 . S
O46 Cd43 2.297 . S
O46 C48 1.247 . S
O47 Cd43 2.439 . S
O47 C48 1.208 . S
C48 O46 1.247 . S
C48 O47 1.208 . S
C49 O54 1.247 1_545 S
C49 O55 1.208 . S
C50 O42 1.315 . S
C50 O45 1.279 . S
C51 O52 1.315 1_545 S
C51 O53 1.279 . S
O52 Cd44 2.223 1_565 S
O52 C51 1.315 1_565 S
O53 Cd43 2.240 . S
O53 C51 1.279 . S
O54 Cd44 2.297 1_565 S
O54 C49 1.247 1_565 S
O55 Cd44 2.439 . S
O55 C49 1.208 . S
O56 Cd57 2.223 . S
O56 C64 1.315 . S
Cd57 O56 2.223 . S
Cd57 O60 2.297 . S
Cd57 O61 2.439 . S
Cd57 O67 2.240 . S
Cd58 O59 2.240 . S
Cd58 O66 2.223 1_565 S
Cd58 O68 2.297 1_565 S
Cd58 O69 2.439 . S
O59 Cd58 2.240 . S
O59 C64 1.279 . S
O60 Cd57 2.297 . S
O60 C62 1.247 . S
O61 Cd57 2.439 . S
O61 C62 1.208 . S
C62 O60 1.247 . S
C62 O61 1.208 . S
C63 O68 1.247 1_565 S
C63 O69 1.208 . S
C64 O56 1.315 . S
C64 O59 1.279 . S
C65 O66 1.315 1_565 S
C65 O67 1.279 . S
O66 Cd58 2.223 1_545 S
O66 C65 1.315 1_545 S
O67 Cd57 2.240 . S
O67 C65 1.279 . S
O68 Cd58 2.297 1_545 S
O68 C63 1.247 1_545 S
O69 Cd58 2.439 . S
O69 C63 1.208 . S
O70 Cd71 2.223 . S
O70 C78 1.315 . S
Cd71 O70 2.223 . S
Cd71 O74 2.297 . S
Cd71 O75 2.439 . S
Cd71 O81 2.240 . S
Cd72 O73 2.240 . S
Cd72 O80 2.223 1_545 S
Cd72 O82 2.297 1_545 S
Cd72 O83 2.439 . S
O73 Cd72 2.240 . S
O73 C78 1.279 . S
O74 Cd71 2.297 . S
O74 C76 1.247 . S
O75 Cd71 2.439 . S
O75 C76 1.208 . S
C76 O74 1.247 . S
C76 O75 1.208 . S
C77 O82 1.247 1_545 S
C77 O83 1.208 . S
C78 O70 1.315 . S
C78 O73 1.279 . S
C79 O80 1.315 1_545 S
C79 O81 1.279 . S
O80 Cd72 2.223 1_565 S
O80 C79 1.315 1_565 S
O81 Cd71 2.240 . S
O81 C79 1.279 . S
O82 Cd72 2.297 1_565 S
O82 C77 1.247 1_565 S
O83 Cd72 2.439 . S
O83 C77 1.208 . S
O84 Cd85 2.223 . S
O84 C92 1.315 . S
Cd85 O84 2.223 . S
Cd85 O88 2.297 . S
Cd85 O89 2.439 . S
Cd85 O95 2.240 . S
Cd86 O87 2.240 . S
Cd86 O94 2.223 1_545 S
Cd86 O96 2.297 1_545 S
Cd86 O97 2.439 . S
O87 Cd86 2.240 . S
O87 C92 1.279 . S
O88 Cd85 2.297 . S
O88 C90 1.247 . S
O89 Cd85 2.439 . S
O89 C90 1.208 . S
C90 O88 1.247 . S
C90 O89 1.208 . S
C91 O96 1.247 1_545 S
C91 O97 1.208 . S
C92 O84 1.315 . S
C92 O87 1.279 . S
C93 O94 1.315 1_545 S
C93 O95 1.279 . S
O94 Cd86 2.223 1_565 S
O94 C93 1.315 1_565 S
O95 Cd85 2.240 . S
O95 C93 1.279 . S
O96 Cd86 2.297 1_565 S
O96 C91 1.247 1_565 S
O97 Cd86 2.439 . S
O97 C91 1.208 . S
O98 Cd99 2.223 . S
O98 C106 1.315 . S
Cd99 O98 2.223 . S
Cd99 O102 2.297 . S
Cd99 O103 2.439 . S
Cd99 O109 2.240 . S
Cd100 O101 2.240 . S
Cd100 O108 2.223 1_565 S
Cd100 O110 2.297 1_565 S
Cd100 O111 2.439 . S
O101 Cd100 2.240 . S
O101 C106 1.279 . S
O102 Cd99 2.297 . S
O102 C104 1.247 . S
O103 Cd99 2.439 . S
O103 C104 1.208 . S
C104 O102 1.247 . S
C104 O103 1.208 . S
C105 O110 1.247 1_565 S
C105 O111 1.208 . S
C106 O98 1.315 . S
C106 O101 1.279 . S
C107 O108 1.315 1_565 S
C107 O109 1.279 . S
O108 Cd100 2.223 1_545 S
O108 C107 1.315 1_545 S
O109 Cd99 2.240 . S
O109 C107 1.279 . S
O110 Cd100 2.297 1_545 S
O110 C105 1.247 1_545 S
O111 Cd100 2.439 . S
O111 C105 1.208 . S
O112 Cd113 2.223 . S
O112 C120 1.315 . S
Cd113 O112 2.223 . S
Cd113 O116 2.297 . S
Cd113 O117 2.439 . S
Cd113 O123 2.240 . S
Cd114 O115 2.240 . S
Cd114 O122 2.223 . S
Cd114 O124 2.297 . S
Cd114 O125 2.439 . S
O115 Cd114 2.240 . S
O115 C120 1.279 . S
O116 Cd113 2.297 . S
O116 C118 1.247 . S
O117 Cd113 2.439 . S
O117 C118 1.208 . S
C118 O116 1.247 . S
C118 O117 1.208 . S
C119 O124 1.247 . S
C119 O125 1.208 . S
C120 O112 1.315 . S
C120 O115 1.279 . S
C121 O122 1.315 . S
C121 O123 1.279 . S
O122 Cd114 2.223 . S
O122 C121 1.315 . S
O123 Cd113 2.240 . S
O123 C121 1.279 . S
O124 Cd114 2.297 . S
O124 C119 1.247 . S
O125 Cd114 2.439 . S
O125 C119 1.208 . S
O126 Cd127 2.223 . S
O126 C134 1.315 . S
Cd127 O126 2.223 . S
Cd127 O130 2.297 . S
Cd127 O131 2.439 . S
Cd127 O137 2.240 . S
Cd128 O129 2.240 . S
Cd128 O136 2.223 . S
Cd128 O138 2.297 . S
Cd128 O139 2.439 . S
O129 Cd128 2.240 . S
O129 C134 1.279 . S
O130 Cd127 2.297 . S
O130 C132 1.247 . S
O131 Cd127 2.439 . S
O131 C132 1.208 . S
C132 O130 1.247 . S
C132 O131 1.208 . S
C133 O138 1.247 . S
C133 O139 1.208 . S
C134 O126 1.315 . S
C134 O129 1.279 . S
C135 O136 1.315 . S
C135 O137 1.279 . S
O136 Cd128 2.223 . S
O136 C135 1.315 . S
O137 Cd127 2.240 . S
O137 C135 1.279 . S
O138 Cd128 2.297 . S
O138 C133 1.247 . S
O139 Cd128 2.439 . S
O139 C133 1.208 . S
O140 Cd141 2.223 . S
O140 C148 1.315 . S
Cd141 O140 2.223 . S
Cd141 O144 2.297 . S
Cd141 O145 2.439 . S
Cd141 O151 2.240 . S
Cd142 O143 2.240 . S
Cd142 O150 2.223 . S
Cd142 O152 2.297 . S
Cd142 O153 2.439 . S
O143 Cd142 2.240 . S
O143 C148 1.279 . S
O144 Cd141 2.297 . S
O144 C146 1.247 . S
O145 Cd141 2.439 . S
O145 C146 1.208 . S
C146 O144 1.247 . S
C146 O145 1.208 . S
C147 O152 1.247 . S
C147 O153 1.208 . S
C148 O140 1.315 . S
C148 O143 1.279 . S
C149 O150 1.315 . S
C149 O151 1.279 . S
O150 Cd142 2.223 . S
O150 C149 1.315 . S
O151 Cd141 2.240 . S
O151 C149 1.279 . S
O152 Cd142 2.297 . S
O152 C147 1.247 . S
O153 Cd142 2.439 . S
O153 C147 1.208 . S
O154 Cd155 2.223 . S
O154 C162 1.315 . S
Cd155 O154 2.223 . S
Cd155 O158 2.297 . S
Cd155 O159 2.439 . S
Cd155 O165 2.240 . S
Cd156 O157 2.240 . S
Cd156 O164 2.223 . S
Cd156 O166 2.297 . S
Cd156 O167 2.439 . S
O157 Cd156 2.240 . S
O157 C162 1.279 . S
O158 Cd155 2.297 . S
O158 C160 1.247 . S
O159 Cd155 2.439 . S
O159 C160 1.208 . S
C160 O158 1.247 . S
C160 O159 1.208 . S
C161 O166 1.247 . S
C161 O167 1.208 . S
C162 O154 1.315 . S
C162 O157 1.279 . S
C163 O164 1.315 . S
C163 O165 1.279 . S
O164 Cd156 2.223 . S
O164 C163 1.315 . S
O165 Cd155 2.240 . S
O165 C163 1.279 . S
O166 Cd156 2.297 . S
O166 C161 1.247 . S
O167 Cd156 2.439 . S
O167 C161 1.208 . S
O168 Cd169 2.223 . S
O168 C176 1.315 . S
Cd169 O168 2.223 . S
Cd169 O172 2.297 . S
Cd169 O173 2.439 . S
Cd169 O179 2.240 . S
Cd170 O171 2.240 . S
Cd170 O178 2.223 . S
Cd170 O180 2.297 . S
Cd170 O181 2.439 . S
O171 Cd170 2.240 . S
O171 C176 1.279 . S
O172 Cd169 2.297 . S
O172 C174 1.247 . S
O173 Cd169 2.439 . S
O173 C174 1.208 . S
C174 O172 1.247 . S
C174 O173 1.208 . S
C175 O180 1.247 . S
C175 O181 1.208 . S
C176 O168 1.315 . S
C176 O171 1.279 . S
C177 O178 1.315 . S
C177 O179 1.279 . S
O178 Cd170 2.223 . S
O178 C177 1.315 . S
O179 Cd169 2.240 . S
O179 C177 1.279 . S
O180 Cd170 2.297 . S
O180 C175 1.247 . S
O181 Cd170 2.439 . S
O181 C175 1.208 . S
O182 Cd183 2.223 . S
O182 C190 1.315 . S
Cd183 O182 2.223 . S
Cd183 O186 2.297 . S
Cd183 O187 2.439 . S
Cd183 O193 2.240 . S
Cd184 O185 2.240 . S
Cd184 O192 2.223 . S
Cd184 O194 2.297 . S
Cd184 O195 2.439 . S
O185 Cd184 2.240 . S
O185 C190 1.279 . S
O186 Cd183 2.297 . S
O186 C188 1.247 . S
O187 Cd183 2.439 . S
O187 C188 1.208 . S
C188 O186 1.247 . S
C188 O187 1.208 . S
C189 O194 1.247 . S
C189 O195 1.208 . S
C190 O182 1.315 . S
C190 O185 1.279 . S
C191 O192 1.315 . S
C191 O193 1.279 . S
O192 Cd184 2.223 . S
O192 C191 1.315 . S
O193 Cd183 2.240 . S
O193 C191 1.279 . S
O194 Cd184 2.297 . S
O194 C189 1.247 . S
O195 Cd184 2.439 . S
O195 C189 1.208 . S
O196 Cd197 2.223 . S
O196 C204 1.315 . S
Cd197 O196 2.223 . S
Cd197 O200 2.297 . S
Cd197 O201 2.439 . S
Cd197 O207 2.240 . S
Cd198 O199 2.240 . S
Cd198 O206 2.223 . S
Cd198 O208 2.297 . S
Cd198 O209 2.439 . S
O199 Cd198 2.240 . S
O199 C204 1.279 . S
O200 Cd197 2.297 . S
O200 C202 1.247 . S
O201 Cd197 2.439 . S
O201 C202 1.208 . S
C202 O200 1.247 . S
C202 O201 1.208 . S
C203 O208 1.247 . S
C203 O209 1.208 . S
C204 O196 1.315 . S
C204 O199 1.279 . S
C205 O206 1.315 . S
C205 O207 1.279 . S
O206 Cd198 2.223 . S
O206 C205 1.315 . S
O207 Cd197 2.240 . S
O207 C205 1.279 . S
O208 Cd198 2.297 . S
O208 C203 1.247 . S
O209 Cd198 2.439 . S
O209 C203 1.208 . S
O210 Cd211 2.223 . S
O210 C218 1.315 . S
Cd211 O210 2.223 . S
Cd211 O214 2.297 . S
Cd211 O215 2.439 . S
Cd211 O221 2.240 . S
Cd212 O213 2.240 . S
Cd212 O220 2.223 . S
Cd212 O222 2.297 . S
Cd212 O223 2.439 . S
O213 Cd212 2.240 . S
O213 C218 1.279 . S
O214 Cd211 2.297 . S
O214 C216 1.247 . S
O215 Cd211 2.439 . S
O215 C216 1.208 . S
C216 O214 1.247 . S
C216 O215 1.208 . S
C217 O222 1.247 . S
C217 O223 1.208 . S
C218 O210 1.315 . S
C218 O213 1.279 . S
C219 O220 1.315 . S
C219 O221 1.279 . S
O220 Cd212 2.223 . S
O220 C219 1.315 . S
O221 Cd211 2.240 . S
O221 C219 1.279 . S
O222 Cd212 2.297 . S
O222 C217 1.247 . S
O223 Cd212 2.439 . S
O223 C217 1.208 . S
C224 C225 1.363 . S
C224 C230 1.379 . S
C224 N232 1.356 1_545 S
C225 C224 1.363 . S
C225 C231 1.363 . S
C226 C227 1.363 . S
C226 C231 1.379 . S
C226 N233 1.356 . S
C227 C226 1.363 . S
C227 C230 1.363 . S
N228 C230 1.356 1_565 S
N228 H240 0.984 . S
N228 H241 0.985 1_565 S
N229 C231 1.356 . S
N229 H234 0.984 . S
N229 H235 0.985 . S
C230 C224 1.379 . S
C230 C227 1.363 . S
C230 N228 1.356 1_545 S
C231 C225 1.363 . S
C231 C226 1.379 . S
C231 N229 1.356 . S
N232 C224 1.356 1_565 S
N232 H238 0.984 . S
N232 H239 0.984 1_565 S
N233 C226 1.356 . S
N233 H236 0.984 . S
N233 H237 0.985 . S
H234 N229 0.984 . S
H235 N229 0.985 . S
H236 N233 0.984 . S
H237 N233 0.985 . S
H238 N232 0.984 . S
H239 N232 0.984 1_545 S
H240 N228 0.984 . S
H241 N228 0.985 1_545 S
C242 C243 1.363 . S
C242 C248 1.379 . S
C242 N250 1.356 1_565 S
C243 C242 1.363 . S
C243 C249 1.363 . S
C244 C245 1.363 . S
C244 C249 1.379 . S
C244 N251 1.356 . S
C245 C244 1.363 . S
C245 C248 1.363 . S
N246 C248 1.356 1_545 S
N246 H258 0.984 . S
N246 H259 0.985 1_545 S
N247 C249 1.356 . S
N247 H252 0.984 . S
N247 H253 0.985 . S
C248 C242 1.379 . S
C248 C245 1.363 . S
C248 N246 1.356 1_565 S
C249 C243 1.363 . S
C249 C244 1.379 . S
C249 N247 1.356 . S
N250 C242 1.356 1_545 S
N250 H256 0.984 . S
N250 H257 0.984 1_545 S
N251 C244 1.356 . S
N251 H254 0.984 . S
N251 H255 0.985 . S
H252 N247 0.984 . S
H253 N247 0.985 . S
H254 N251 0.984 . S
H255 N251 0.985 . S
H256 N250 0.984 . S
H257 N250 0.984 1_565 S
H258 N246 0.984 . S
H259 N246 0.985 1_565 S
C260 C261 1.363 . S
C260 C266 1.379 1_554 S
C260 N268 1.356 . S
C261 C260 1.363 . S
C261 C267 1.363 . S
C262 C263 1.363 . S
C262 C267 1.379 1_556 S
C262 N269 1.356 1_565 S
C263 C262 1.363 . S
C263 C266 1.363 . S
N264 C266 1.356 . S
N264 H276 0.984 . S
N264 H277 0.985 . S
N265 C267 1.356 1_545 S
N265 H270 0.984 1_545 S
N265 H271 0.985 . S
C266 C260 1.379 1_556 S
C266 C263 1.363 . S
C266 N264 1.356 . S
C267 C261 1.363 . S
C267 C262 1.379 1_554 S
C267 N265 1.356 1_565 S
N268 C260 1.356 . S
N268 H274 0.984 . S
N268 H275 0.984 . S
N269 C262 1.356 1_545 S
N269 H272 0.984 1_545 S
N269 H273 0.985 . S
H270 N265 0.984 1_565 S
H271 N265 0.985 . S
H272 N269 0.984 1_565 S
H273 N269 0.985 . S
H274 N268 0.984 . S
H275 N268 0.984 . S
H276 N264 0.984 . S
H277 N264 0.985 . S
C278 C279 1.363 . S
C278 C284 1.379 1_556 S
C278 N286 1.356 1_545 S
C279 C278 1.363 . S
C279 C285 1.363 . S
C280 C281 1.363 . S
C280 C285 1.379 1_554 S
C280 N287 1.356 . S
C281 C280 1.363 . S
C281 C284 1.363 . S
N282 C284 1.356 1_565 S
N282 H294 0.984 . S
N282 H295 0.985 1_565 S
N283 C285 1.356 . S
N283 H288 0.984 . S
N283 H289 0.985 . S
C284 C278 1.379 1_554 S
C284 C281 1.363 . S
C284 N282 1.356 1_545 S
C285 C279 1.363 . S
C285 C280 1.379 1_556 S
C285 N283 1.356 . S
N286 C278 1.356 1_565 S
N286 H292 0.984 . S
N286 H293 0.984 1_565 S
N287 C280 1.356 . S
N287 H290 0.984 . S
N287 H291 0.985 . S
H288 N283 0.984 . S
H289 N283 0.985 . S
H290 N287 0.984 . S
H291 N287 0.985 . S
H292 N286 0.984 . S
H293 N286 0.984 1_545 S
H294 N282 0.984 . S
H295 N282 0.985 1_545 S
C296 C297 1.363 . S
C296 C302 1.379 . S
C296 N304 1.356 . S
C297 C296 1.363 . S
C297 C303 1.363 . S
C298 C299 1.363 . S
C298 C303 1.379 . S
C298 N305 1.356 . S
C299 C298 1.363 . S
C299 C302 1.363 . S
N300 C302 1.356 . S
N300 H312 0.984 . S
N300 H313 0.985 . S
N301 C303 1.356 . S
N301 H306 0.984 . S
N301 H307 0.985 . S
C302 C296 1.379 . S
C302 C299 1.363 . S
C302 N300 1.356 . S
C303 C297 1.363 . S
C303 C298 1.379 . S
C303 N301 1.356 . S
N304 C296 1.356 . S
N304 H310 0.984 . S
N304 H311 0.984 . S
N305 C298 1.356 . S
N305 H308 0.984 . S
N305 H309 0.985 . S
H306 N301 0.984 . S
H307 N301 0.985 . S
H308 N305 0.984 . S
H309 N305 0.985 . S
H310 N304 0.984 . S
H311 N304 0.984 . S
H312 N300 0.984 . S
H313 N300 0.985 . S
C314 C315 1.363 . S
C314 C320 1.379 . S
C314 N322 1.356 . S
C315 C314 1.363 . S
C315 C321 1.363 . S
C316 C317 1.363 . S
C316 C321 1.379 . S
C316 N323 1.356 . S
C317 C316 1.363 . S
C317 C320 1.363 . S
N318 C320 1.356 . S
N318 H330 0.984 . S
N318 H331 0.985 . S
N319 C321 1.356 . S
N319 H324 0.984 . S
N319 H325 0.985 . S
C320 C314 1.379 . S
C320 C317 1.363 . S
C320 N318 1.356 . S
C321 C315 1.363 . S
C321 C316 1.379 . S
C321 N319 1.356 . S
N322 C314 1.356 . S
N322 H328 0.984 . S
N322 H329 0.984 . S
N323 C316 1.356 . S
N323 H326 0.984 . S
N323 H327 0.985 . S
H324 N319 0.984 . S
H325 N319 0.985 . S
H326 N323 0.984 . S
H327 N323 0.985 . S
H328 N322 0.984 . S
H329 N322 0.984 . S
H330 N318 0.984 . S
H331 N318 0.985 . S
C332 C333 1.363 . S
C332 C338 1.379 1_556 S
C332 N340 1.356 . S
C333 C332 1.363 . S
C333 C339 1.363 . S
C334 C335 1.363 . S
C334 C339 1.379 1_554 S
C334 N341 1.356 . S
C335 C334 1.363 . S
C335 C338 1.363 . S
N336 C338 1.356 . S
N336 H348 0.984 . S
N336 H349 0.985 . S
N337 C339 1.356 . S
N337 H342 0.984 . S
N337 H343 0.985 . S
C338 C332 1.379 1_554 S
C338 C335 1.363 . S
C338 N336 1.356 . S
C339 C333 1.363 . S
C339 C334 1.379 1_556 S
C339 N337 1.356 . S
N340 C332 1.356 . S
N340 H346 0.984 . S
N340 H347 0.984 . S
N341 C334 1.356 . S
N341 H344 0.984 . S
N341 H345 0.985 . S
H342 N337 0.984 . S
H343 N337 0.985 . S
H344 N341 0.984 . S
H345 N341 0.985 . S
H346 N340 0.984 . S
H347 N340 0.984 . S
H348 N336 0.984 . S
H349 N336 0.985 . S
C350 C351 1.363 . S
C350 C356 1.379 1_554 S
C350 N358 1.356 . S
C351 C350 1.363 . S
C351 C357 1.363 . S
C352 C353 1.363 . S
C352 C357 1.379 1_556 S
C352 N359 1.356 . S
C353 C352 1.363 . S
C353 C356 1.363 . S
N354 C356 1.356 . S
N354 H366 0.984 . S
N354 H367 0.985 . S
N355 C357 1.356 . S
N355 H360 0.984 . S
N355 H361 0.985 . S
C356 C350 1.379 1_556 S
C356 C353 1.363 . S
C356 N354 1.356 . S
C357 C351 1.363 . S
C357 C352 1.379 1_554 S
C357 N355 1.356 . S
N358 C350 1.356 . S
N358 H364 0.984 . S
N358 H365 0.984 . S
N359 C352 1.356 . S
N359 H362 0.984 . S
N359 H363 0.985 . S
H360 N355 0.984 . S
H361 N355 0.985 . S
H362 N359 0.984 . S
H363 N359 0.985 . S
H364 N358 0.984 . S
H365 N358 0.984 . S
H366 N354 0.984 . S
H367 N354 0.985 . S
C368 C369 1.363 . S
C368 C374 1.379 . S
C368 N376 1.356 . S
C369 C368 1.363 . S
C369 C375 1.363 1_565 S
C370 C371 1.363 . S
C370 C375 1.379 . S
C370 N377 1.356 . S
C371 C370 1.363 . S
C371 C374 1.363 1_545 S
N372 C374 1.356 . S
N372 H384 0.984 . S
N372 H385 0.988 . S
N373 C375 1.356 . S
N373 H378 0.988 . S
N373 H379 0.985 . S
C374 C368 1.379 . S
C374 C371 1.363 1_565 S
C374 N372 1.356 . S
C375 C369 1.363 1_545 S
C375 C370 1.379 . S
C375 N373 1.356 . S
N376 C368 1.356 . S
N376 H382 0.984 . S
N376 H383 0.984 . S
N377 C370 1.356 . S
N377 H380 0.984 . S
N377 H381 0.985 . S
H378 N373 0.988 . S
H379 N373 0.985 . S
H380 N377 0.984 . S
H381 N377 0.985 . S
H382 N376 0.984 . S
H383 N376 0.984 . S
H384 N372 0.984 . S
H385 N372 0.988 . S
C386 C387 1.363 1_545 S
C386 C392 1.379 . S
C386 N394 1.356 . S
C387 C386 1.363 1_565 S
C387 C393 1.363 . S
C388 C389 1.363 1_565 S
C388 C393 1.379 . S
C388 N395 1.356 . S
C389 C388 1.363 1_545 S
C389 C392 1.363 . S
N390 C392 1.356 . S
N390 H402 0.984 . S
N390 H403 0.985 . S
N391 C393 1.356 . S
N391 H396 0.984 . S
N391 H397 0.985 . S
C392 C386 1.379 . S
C392 C389 1.363 . S
C392 N390 1.356 . S
C393 C387 1.363 . S
C393 C388 1.379 . S
C393 N391 1.356 . S
N394 C386 1.356 . S
N394 H400 0.984 . S
N394 H401 0.988 . S
N395 C388 1.356 . S
N395 H398 0.988 . S
N395 H399 0.985 . S
H396 N391 0.984 . S
H397 N391 0.985 . S
H398 N395 0.988 . S
H399 N395 0.985 . S
H400 N394 0.984 . S
H401 N394 0.988 . S
H402 N390 0.984 . S
H403 N390 0.985 . S
C404 C405 1.363 . S
C404 C410 1.379 . S
C404 N412 1.356 . S
C405 C404 1.363 . S
C405 C411 1.363 1_565 S
C406 C407 1.363 . S
C406 C411 1.379 . S
C406 N413 1.356 . S
C407 C406 1.363 . S
C407 C410 1.363 1_545 S
N408 C410 1.356 . S
N408 H420 0.984 . S
N408 H421 0.988 . S
N409 C411 1.356 . S
N409 H414 0.988 . S
N409 H415 0.985 . S
C410 C404 1.379 . S
C410 C407 1.363 1_565 S
C410 N408 1.356 . S
C411 C405 1.363 1_545 S
C411 C406 1.379 . S
C411 N409 1.356 . S
N412 C404 1.356 . S
N412 H418 0.984 . S
N412 H419 0.984 . S
N413 C406 1.356 . S
N413 H416 0.984 . S
N413 H417 0.985 . S
H414 N409 0.988 . S
H415 N409 0.985 . S
H416 N413 0.984 . S
H417 N413 0.985 . S
H418 N412 0.984 . S
H419 N412 0.984 . S
H420 N408 0.984 . S
H421 N408 0.988 . S
C422 C423 1.363 1_565 S
C422 C428 1.379 . S
C422 N430 1.356 . S
C423 C422 1.363 1_545 S
C423 C429 1.363 . S
C424 C425 1.363 1_545 S
C424 C429 1.379 . S
C424 N431 1.356 . S
C425 C424 1.363 1_565 S
C425 C428 1.363 . S
N426 C428 1.356 . S
N426 H438 0.984 . S
N426 H439 0.985 . S
N427 C429 1.356 . S
N427 H432 0.984 . S
N427 H433 0.985 . S
C428 C422 1.379 . S
C428 C425 1.363 . S
C428 N426 1.356 . S
C429 C423 1.363 . S
C429 C424 1.379 . S
C429 N427 1.356 . S
N430 C422 1.356 . S
N430 H436 0.984 . S
N430 H437 0.988 . S
N431 C424 1.356 . S
N431 H434 0.988 . S
N431 H435 0.985 . S
H432 N427 0.984 . S
H433 N427 0.985 . S
H434 N431 0.988 . S
H435 N431 0.985 . S
H436 N430 0.984 . S
H437 N430 0.988 . S
H438 N426 0.984 . S
H439 N426 0.985 . S
C440 C441 1.363 . S
C440 C446 1.379 1_655 S
C440 N448 1.356 . S
C441 C440 1.363 . S
C441 C447 1.363 . S
C442 C443 1.363 . S
C442 C447 1.379 1_455 S
C442 N449 1.356 . S
C443 C442 1.363 . S
C443 C446 1.363 . S
N444 C446 1.356 . S
N444 H456 0.984 . S
N444 H457 0.985 . S
N445 C447 1.356 . S
N445 H450 0.984 . S
N445 H451 0.985 . S
C446 C440 1.379 1_455 S
C446 C443 1.363 . S
C446 N444 1.356 . S
C447 C441 1.363 . S
C447 C442 1.379 1_655 S
C447 N445 1.356 . S
N448 C440 1.356 . S
N448 H454 0.984 . S
N448 H455 0.984 . S
N449 C442 1.356 . S
N449 H452 0.984 . S
N449 H453 0.985 . S
H450 N445 0.984 . S
H451 N445 0.985 . S
H452 N449 0.984 . S
H453 N449 0.985 . S
H454 N448 0.984 . S
H455 N448 0.984 . S
H456 N444 0.984 . S
H457 N444 0.985 . S
C458 C459 1.363 . S
C458 C464 1.379 1_455 S
C458 N466 1.356 . S
C459 C458 1.363 . S
C459 C465 1.363 . S
C460 C461 1.363 . S
C460 C465 1.379 1_655 S
C460 N467 1.356 . S
C461 C460 1.363 . S
C461 C464 1.363 . S
N462 C464 1.356 . S
N462 H474 0.984 . S
N462 H475 0.985 . S
N463 C465 1.356 . S
N463 H468 0.984 . S
N463 H469 0.985 . S
C464 C458 1.379 1_655 S
C464 C461 1.363 . S
C464 N462 1.356 . S
C465 C459 1.363 . S
C465 C460 1.379 1_455 S
C465 N463 1.356 . S
N466 C458 1.356 . S
N466 H472 0.984 . S
N466 H473 0.984 . S
N467 C460 1.356 . S
N467 H470 0.984 . S
N467 H471 0.985 . S
H468 N463 0.984 . S
H469 N463 0.985 . S
H470 N467 0.984 . S
H471 N467 0.985 . S
H472 N466 0.984 . S
H473 N466 0.984 . S
H474 N462 0.984 . S
H475 N462 0.985 . S
C476 C477 1.363 . S
C476 C482 1.379 1_655 S
C476 N484 1.356 . S
C477 C476 1.363 . S
C477 C483 1.363 . S
C478 C479 1.363 . S
C478 C483 1.379 1_455 S
C478 N485 1.356 . S
C479 C478 1.363 . S
C479 C482 1.363 . S
N480 C482 1.356 . S
N480 H492 0.984 . S
N480 H493 0.985 . S
N481 C483 1.356 . S
N481 H486 0.984 . S
N481 H487 0.985 . S
C482 C476 1.379 1_455 S
C482 C479 1.363 . S
C482 N480 1.356 . S
C483 C477 1.363 . S
C483 C478 1.379 1_655 S
C483 N481 1.356 . S
N484 C476 1.356 . S
N484 H490 0.984 . S
N484 H491 0.984 . S
N485 C478 1.356 . S
N485 H488 0.984 . S
N485 H489 0.985 . S
H486 N481 0.984 . S
H487 N481 0.985 . S
H488 N485 0.984 . S
H489 N485 0.985 . S
H490 N484 0.984 . S
H491 N484 0.984 . S
H492 N480 0.984 . S
H493 N480 0.985 . S
C494 C495 1.363 . S
C494 C500 1.379 1_455 S
C494 N502 1.356 . S
C495 C494 1.363 . S
C495 C501 1.363 . S
C496 C497 1.363 . S
C496 C501 1.379 1_655 S
C496 N503 1.356 . S
C497 C496 1.363 . S
C497 C500 1.363 . S
N498 C500 1.356 . S
N498 H510 0.984 . S
N498 H511 0.985 . S
N499 C501 1.356 . S
N499 H504 0.984 . S
N499 H505 0.985 . S
C500 C494 1.379 1_655 S
C500 C497 1.363 . S
C500 N498 1.356 . S
C501 C495 1.363 . S
C501 C496 1.379 1_455 S
C501 N499 1.356 . S
N502 C494 1.356 . S
N502 H508 0.984 . S
N502 H509 0.984 . S
N503 C496 1.356 . S
N503 H506 0.984 . S
N503 H507 0.985 . S
H504 N499 0.984 . S
H505 N499 0.985 . S
H506 N503 0.984 . S
H507 N503 0.985 . S
H508 N502 0.984 . S
H509 N502 0.984 . S
H510 N498 0.984 . S
H511 N498 0.985 . S
C512 C513 1.363 . S
C512 C518 1.379 . S
C512 N520 1.356 . S
C513 C512 1.363 . S
C513 C519 1.363 . S
C514 C515 1.363 . S
C514 C519 1.379 . S
C514 N521 1.356 . S
C515 C514 1.363 . S
C515 C518 1.363 . S
N516 C518 1.356 . S
N516 H528 0.984 . S
N516 H529 0.985 . S
N517 C519 1.356 . S
N517 H522 0.984 . S
N517 H523 0.985 . S
C518 C512 1.379 . S
C518 C515 1.363 . S
C518 N516 1.356 . S
C519 C513 1.363 . S
C519 C514 1.379 . S
C519 N517 1.356 . S
N520 C512 1.356 . S
N520 H526 0.984 . S
N520 H527 0.984 . S
N521 C514 1.356 . S
N521 H524 0.984 . S
N521 H525 0.985 . S
H522 N517 0.984 . S
H523 N517 0.985 . S
H524 N521 0.984 . S
H525 N521 0.985 . S
H526 N520 0.984 . S
H527 N520 0.984 . S
H528 N516 0.984 . S
H529 N516 0.985 . S
C530 C531 1.363 . S
C530 C536 1.379 . S
C530 N538 1.356 . S
C531 C530 1.363 . S
C531 C537 1.363 . S
C532 C533 1.363 . S
C532 C537 1.379 . S
C532 N539 1.356 . S
C533 C532 1.363 . S
C533 C536 1.363 . S
N534 C536 1.356 . S
N534 H546 0.984 . S
N534 H547 0.985 . S
N535 C537 1.356 . S
N535 H540 0.984 . S
N535 H541 0.985 . S
C536 C530 1.379 . S
C536 C533 1.363 . S
C536 N534 1.356 . S
C537 C531 1.363 . S
C537 C532 1.379 . S
C537 N535 1.356 . S
N538 C530 1.356 . S
N538 H544 0.984 . S
N538 H545 0.984 . S
N539 C532 1.356 . S
N539 H542 0.984 . S
N539 H543 0.985 . S
H540 N535 0.984 . S
H541 N535 0.985 . S
H542 N539 0.984 . S
H543 N539 0.985 . S
H544 N538 0.984 . S
H545 N538 0.984 . S
H546 N534 0.984 . S
H547 N534 0.985 . S
C548 C549 1.363 . S
C548 C554 1.379 . S
C548 N556 1.356 . S
C549 C548 1.363 . S
C549 C555 1.363 . S
C550 C551 1.363 . S
C550 C555 1.379 . S
C550 N557 1.356 . S
C551 C550 1.363 . S
C551 C554 1.363 . S
N552 C554 1.356 . S
N552 H564 0.984 . S
N552 H565 0.985 . S
N553 C555 1.356 . S
N553 H558 0.984 . S
N553 H559 0.985 . S
C554 C548 1.379 . S
C554 C551 1.363 . S
C554 N552 1.356 . S
C555 C549 1.363 . S
C555 C550 1.379 . S
C555 N553 1.356 . S
N556 C548 1.356 . S
N556 H562 0.984 . S
N556 H563 0.984 . S
N557 C550 1.356 . S
N557 H560 0.984 . S
N557 H561 0.985 . S
H558 N553 0.984 . S
H559 N553 0.985 . S
H560 N557 0.984 . S
H561 N557 0.985 . S
H562 N556 0.984 . S
H563 N556 0.984 . S
H564 N552 0.984 . S
H565 N552 0.985 . S
C566 C567 1.363 . S
C566 C572 1.379 . S
C566 N574 1.356 . S
C567 C566 1.363 . S
C567 C573 1.363 . S
C568 C569 1.363 . S
C568 C573 1.379 . S
C568 N575 1.356 . S
C569 C568 1.363 . S
C569 C572 1.363 . S
N570 C572 1.356 . S
N570 H582 0.984 . S
N570 H583 0.985 . S
N571 C573 1.356 . S
N571 H576 0.984 . S
N571 H577 0.985 . S
C572 C566 1.379 . S
C572 C569 1.363 . S
C572 N570 1.356 . S
C573 C567 1.363 . S
C573 C568 1.379 . S
C573 N571 1.356 . S
N574 C566 1.356 . S
N574 H580 0.984 . S
N574 H581 0.984 . S
N575 C568 1.356 . S
N575 H578 0.984 . S
N575 H579 0.985 . S
H576 N571 0.984 . S
H577 N571 0.985 . S
H578 N575 0.984 . S
H579 N575 0.985 . S
H580 N574 0.984 . S
H581 N574 0.984 . S
H582 N570 0.984 . S
H583 N570 0.985 . S
C584 C585 1.363 . S
C584 C590 1.379 . S
C584 N592 1.356 . S
C585 C584 1.363 . S
C585 C591 1.363 . S
C586 C587 1.363 . S
C586 C591 1.379 . S
C586 N593 1.356 . S
C587 C586 1.363 . S
C587 C590 1.363 . S
N588 C590 1.356 . S
N588 H600 0.984 . S
N588 H601 0.985 . S
N589 C591 1.356 . S
N589 H594 0.984 . S
N589 H595 0.985 . S
C590 C584 1.379 . S
C590 C587 1.363 . S
C590 N588 1.356 . S
C591 C585 1.363 . S
C591 C586 1.379 . S
C591 N589 1.356 . S
N592 C584 1.356 . S
N592 H598 0.984 . S
N592 H599 0.984 . S
N593 C586 1.356 . S
N593 H596 0.984 . S
N593 H597 0.985 . S
H594 N589 0.984 . S
H595 N589 0.985 . S
H596 N593 0.984 . S
H597 N593 0.985 . S
H598 N592 0.984 . S
H599 N592 0.984 . S
H600 N588 0.984 . S
H601 N588 0.985 . S
C602 C603 1.363 . S
C602 C608 1.379 . S
C602 N610 1.356 . S
C603 C602 1.363 . S
C603 C609 1.363 . S
C604 C605 1.363 . S
C604 C609 1.379 . S
C604 N611 1.356 . S
C605 C604 1.363 . S
C605 C608 1.363 . S
N606 C608 1.356 . S
N606 H618 0.984 . S
N606 H619 0.985 . S
N607 C609 1.356 . S
N607 H612 0.984 . S
N607 H613 0.985 . S
C608 C602 1.379 . S
C608 C605 1.363 . S
C608 N606 1.356 . S
C609 C603 1.363 . S
C609 C604 1.379 . S
C609 N607 1.356 . S
N610 C602 1.356 . S
N610 H616 0.984 . S
N610 H617 0.984 . S
N611 C604 1.356 . S
N611 H614 0.984 . S
N611 H615 0.985 . S
H612 N607 0.984 . S
H613 N607 0.985 . S
H614 N611 0.984 . S
H615 N611 0.985 . S
H616 N610 0.984 . S
H617 N610 0.984 . S
H618 N606 0.984 . S
H619 N606 0.985 . S
C620 C621 1.363 . S
C620 C626 1.379 . S
C620 N628 1.356 . S
C621 C620 1.363 . S
C621 C627 1.363 . S
C622 C623 1.363 . S
C622 C627 1.379 . S
C622 N629 1.356 . S
C623 C622 1.363 . S
C623 C626 1.363 . S
N624 C626 1.356 . S
N624 H636 0.984 . S
N624 H637 0.985 . S
N625 C627 1.356 . S
N625 H630 0.984 . S
N625 H631 0.985 . S
C626 C620 1.379 . S
C626 C623 1.363 . S
C626 N624 1.356 . S
C627 C621 1.363 . S
C627 C622 1.379 . S
C627 N625 1.356 . S
N628 C620 1.356 . S
N628 H634 0.984 . S
N628 H635 0.984 . S
N629 C622 1.356 . S
N629 H632 0.984 . S
N629 H633 0.985 . S
H630 N625 0.984 . S
H631 N625 0.985 . S
H632 N629 0.984 . S
H633 N629 0.985 . S
H634 N628 0.984 . S
H635 N628 0.984 . S
H636 N624 0.984 . S
H637 N624 0.985 . S
C638 C639 1.363 . S
C638 C644 1.379 . S
C638 N646 1.356 . S
C639 C638 1.363 . S
C639 C645 1.363 . S
C640 C641 1.363 . S
C640 C645 1.379 . S
C640 N647 1.356 . S
C641 C640 1.363 . S
C641 C644 1.363 . S
N642 C644 1.356 . S
N642 H654 0.984 . S
N642 H655 0.985 . S
N643 C645 1.356 . S
N643 H648 0.984 . S
N643 H649 0.985 . S
C644 C638 1.379 . S
C644 C641 1.363 . S
C644 N642 1.356 . S
C645 C639 1.363 . S
C645 C640 1.379 . S
C645 N643 1.356 . S
N646 C638 1.356 . S
N646 H652 0.984 . S
N646 H653 0.984 . S
N647 C640 1.356 . S
N647 H650 0.984 . S
N647 H651 0.985 . S
H648 N643 0.984 . S
H649 N643 0.985 . S
H650 N647 0.984 . S
H651 N647 0.985 . S
H652 N646 0.984 . S
H653 N646 0.984 . S
H654 N642 0.984 . S
H655 N642 0.985 . S
C656 C657 1.363 . S
C656 C662 1.379 . S
C656 N664 1.356 . S
C657 C656 1.363 . S
C657 C663 1.363 1_545 S
C658 C659 1.363 . S
C658 C663 1.379 . S
C658 N665 1.356 . S
C659 C658 1.363 . S
C659 C662 1.363 1_565 S
N660 C662 1.356 . S
N660 H672 0.984 . S
N660 H673 0.985 . S
N661 C663 1.356 . S
N661 H666 0.984 . S
N661 H667 0.985 . S
C662 C656 1.379 . S
C662 C659 1.363 1_545 S
C662 N660 1.356 . S
C663 C657 1.363 1_565 S
C663 C658 1.379 . S
C663 N661 1.356 . S
N664 C656 1.356 . S
N664 H670 0.984 . S
N664 H671 0.984 . S
N665 C658 1.356 . S
N665 H668 0.984 . S
N665 H669 0.985 . S
H666 N661 0.984 . S
H667 N661 0.985 . S
H668 N665 0.984 . S
H669 N665 0.985 . S
H670 N664 0.984 . S
H671 N664 0.984 . S
H672 N660 0.984 . S
H673 N660 0.985 . S
C674 C675 1.363 1_565 S
C674 C680 1.379 . S
C674 N682 1.356 . S
C675 C674 1.363 1_545 S
C675 C681 1.363 . S
C676 C677 1.363 1_545 S
C676 C681 1.379 . S
C676 N683 1.356 . S
C677 C676 1.363 1_565 S
C677 C680 1.363 . S
N678 C680 1.356 . S
N678 H690 0.984 . S
N678 H691 0.985 . S
N679 C681 1.356 . S
N679 H684 0.984 . S
N679 H685 0.985 . S
C680 C674 1.379 . S
C680 C677 1.363 . S
C680 N678 1.356 . S
C681 C675 1.363 . S
C681 C676 1.379 . S
C681 N679 1.356 . S
N682 C674 1.356 . S
N682 H688 0.984 . S
N682 H689 0.984 . S
N683 C676 1.356 . S
N683 H686 0.984 . S
N683 H687 0.985 . S
H684 N679 0.984 . S
H685 N679 0.985 . S
H686 N683 0.984 . S
H687 N683 0.985 . S
H688 N682 0.984 . S
H689 N682 0.984 . S
H690 N678 0.984 . S
H691 N678 0.985 . S
C692 C693 1.363 1_565 S
C692 C698 1.379 . S
C692 N700 1.356 . S
C693 C692 1.363 1_545 S
C693 C699 1.363 . S
C694 C695 1.363 1_545 S
C694 C699 1.379 . S
C694 N701 1.356 . S
C695 C694 1.363 1_565 S
C695 C698 1.363 . S
N696 C698 1.356 . S
N696 H708 0.984 . S
N696 H709 0.985 . S
N697 C699 1.356 . S
N697 H702 0.984 . S
N697 H703 0.985 . S
C698 C692 1.379 . S
C698 C695 1.363 . S
C698 N696 1.356 . S
C699 C693 1.363 . S
C699 C694 1.379 . S
C699 N697 1.356 . S
N700 C692 1.356 . S
N700 H706 0.984 . S
N700 H707 0.984 . S
N701 C694 1.356 . S
N701 H704 0.984 . S
N701 H705 0.985 . S
H702 N697 0.984 . S
H703 N697 0.985 . S
H704 N701 0.984 . S
H705 N701 0.985 . S
H706 N700 0.984 . S
H707 N700 0.984 . S
H708 N696 0.984 . S
H709 N696 0.985 . S
C710 C711 1.363 1_545 S
C710 C716 1.379 . S
C710 N718 1.356 . S
C711 C710 1.363 1_565 S
C711 C717 1.363 . S
C712 C713 1.363 1_565 S
C712 C717 1.379 . S
C712 N719 1.356 . S
C713 C712 1.363 1_545 S
C713 C716 1.363 . S
N714 C716 1.356 . S
N714 H726 0.984 . S
N714 H727 0.985 . S
N715 C717 1.356 . S
N715 H720 0.984 . S
N715 H721 0.985 . S
C716 C710 1.379 . S
C716 C713 1.363 . S
C716 N714 1.356 . S
C717 C711 1.363 . S
C717 C712 1.379 . S
C717 N715 1.356 . S
N718 C710 1.356 . S
N718 H724 0.984 . S
N718 H725 0.984 . S
N719 C712 1.356 . S
N719 H722 0.984 . S
N719 H723 0.985 . S
H720 N715 0.984 . S
H721 N715 0.985 . S
H722 N719 0.984 . S
H723 N719 0.985 . S
H724 N718 0.984 . S
H725 N718 0.984 . S
H726 N714 0.984 . S
H727 N714 0.985 . S
C728 C729 1.363 . S
C728 C734 1.379 . S
C728 N736 1.356 . S
C729 C728 1.363 . S
C729 C735 1.363 . S
C730 C731 1.363 . S
C730 C735 1.379 . S
C730 N737 1.356 . S
C731 C730 1.363 . S
C731 C734 1.363 . S
N732 C734 1.356 . S
N732 H744 0.984 . S
N732 H745 0.985 . S
N733 C735 1.356 . S
N733 H738 0.984 . S
N733 H739 0.985 . S
C734 C728 1.379 . S
C734 C731 1.363 . S
C734 N732 1.356 . S
C735 C729 1.363 . S
C735 C730 1.379 . S
C735 N733 1.356 . S
N736 C728 1.356 . S
N736 H742 0.984 . S
N736 H743 0.984 . S
N737 C730 1.356 . S
N737 H740 0.984 . S
N737 H741 0.985 . S
H738 N733 0.984 . S
H739 N733 0.985 . S
H740 N737 0.984 . S
H741 N737 0.985 . S
H742 N736 0.984 . S
H743 N736 0.984 . S
H744 N732 0.984 . S
H745 N732 0.985 . S
C746 C747 1.363 . S
C746 C752 1.379 . S
C746 N754 1.356 . S
C747 C746 1.363 . S
C747 C753 1.363 . S
C748 C749 1.363 . S
C748 C753 1.379 . S
C748 N755 1.356 . S
C749 C748 1.363 . S
C749 C752 1.363 . S
N750 C752 1.356 . S
N750 H762 0.984 . S
N750 H763 0.985 . S
N751 C753 1.356 . S
N751 H756 0.984 . S
N751 H757 0.985 . S
C752 C746 1.379 . S
C752 C749 1.363 . S
C752 N750 1.356 . S
C753 C747 1.363 . S
C753 C748 1.379 . S
C753 N751 1.356 . S
N754 C746 1.356 . S
N754 H760 0.984 . S
N754 H761 0.984 . S
N755 C748 1.356 . S
N755 H758 0.984 . S
N755 H759 0.985 . S
H756 N751 0.984 . S
H757 N751 0.985 . S
H758 N755 0.984 . S
H759 N755 0.985 . S
H760 N754 0.984 . S
H761 N754 0.984 . S
H762 N750 0.984 . S
H763 N750 0.985 . S
C764 C765 1.363 . S
C764 C770 1.379 . S
C764 N772 1.356 . S
C765 C764 1.363 . S
C765 C771 1.363 . S
C766 C767 1.363 . S
C766 C771 1.379 . S
C766 N773 1.356 . S
C767 C766 1.363 . S
C767 C770 1.363 . S
N768 C770 1.356 . S
N768 H780 0.984 . S
N768 H781 0.985 . S
N769 C771 1.356 . S
N769 H774 0.984 . S
N769 H775 0.985 . S
C770 C764 1.379 . S
C770 C767 1.363 . S
C770 N768 1.356 . S
C771 C765 1.363 . S
C771 C766 1.379 . S
C771 N769 1.356 . S
N772 C764 1.356 . S
N772 H778 0.984 . S
N772 H779 0.984 . S
N773 C766 1.356 . S
N773 H776 0.984 . S
N773 H777 0.985 . S
H774 N769 0.984 . S
H775 N769 0.985 . S
H776 N773 0.984 . S
H777 N773 0.985 . S
H778 N772 0.984 . S
H779 N772 0.984 . S
H780 N768 0.984 . S
H781 N768 0.985 . S
C782 C783 1.363 . S
C782 C788 1.379 . S
C782 N790 1.356 . S
C783 C782 1.363 . S
C783 C789 1.363 . S
C784 C785 1.363 . S
C784 C789 1.379 . S
C784 N791 1.356 . S
C785 C784 1.363 . S
C785 C788 1.363 . S
N786 C788 1.356 . S
N786 H798 0.984 . S
N786 H799 0.985 . S
N787 C789 1.356 . S
N787 H792 0.984 . S
N787 H793 0.985 . S
C788 C782 1.379 . S
C788 C785 1.363 . S
C788 N786 1.356 . S
C789 C783 1.363 . S
C789 C784 1.379 . S
C789 N787 1.356 . S
N790 C782 1.356 . S
N790 H796 0.984 . S
N790 H797 0.984 . S
N791 C784 1.356 . S
N791 H794 0.984 . S
N791 H795 0.985 . S
H792 N787 0.984 . S
H793 N787 0.985 . S
H794 N791 0.984 . S
H795 N791 0.985 . S
H796 N790 0.984 . S
H797 N790 0.984 . S
H798 N786 0.984 . S
H799 N786 0.985 . S
C225 C8 1.269 . S
C227 C78 1.269 . S
C243 C64 1.269 . S
C245 C22 1.269 . S
C261 C36 1.269 . S
C263 C106 1.269 . S
C279 C92 1.269 . S
C281 C50 1.269 . S
C297 C190 1.269 . S
C299 C120 1.269 . S
C315 C176 1.269 . S
C317 C134 1.269 . S
C333 C218 1.269 . S
C335 C148 1.269 . S
C351 C162 1.269 . S
C353 C204 1.269 . S
C369 C23 1.511 . S
C371 C9 1.511 . S
C387 C37 1.511 . S
C389 C51 1.511 . S
C405 C65 1.511 . S
C407 C79 1.511 . S
C423 C93 1.511 . S
C425 C107 1.511 . S
C441 C121 1.511 . S
C443 C135 1.511 . S
C459 C163 1.511 . S
C461 C149 1.511 . S
C477 C191 1.511 . S
C479 C177 1.511 . S
C495 C205 1.511 . S
C497 C219 1.511 . S
C513 C132 1.520 . S
C515 C6 1.520 . S
C531 C20 1.520 . S
C533 C118 1.520 . S
C549 C160 1.520 . S
C551 C34 1.520 . S
C567 C48 1.520 . S
C569 C146 1.520 . S
C585 C62 1.520 . S
C587 C188 1.520 . S
C603 C174 1.520 . S
C605 C76 1.520 . S
C621 C90 1.520 . S
C623 C216 1.520 . S
C639 C202 1.520 . S
C641 C104 1.520 . S
C657 C7 1.529 . S
C659 C35 1.529 . S
C675 C49 1.529 . S
C677 C21 1.529 . S
C693 C91 1.529 . S
C695 C63 1.529 . S
C711 C105 1.529 . S
C713 C77 1.529 . S
C729 C147 1.529 . S
C731 C119 1.529 . S
C747 C133 1.529 . S
C749 C161 1.529 . S
C765 C203 1.529 . S
C767 C175 1.529 . S
C783 C189 1.529 . S
C785 C217 1.529 . S
