# Generated by pormake.
# Topology loh, (5)-cn, num edge types: 1
# Building blocks:
#     Node 0, Type 0, BuildingBlock: BEQFEK_clean_sbu_0, # of connection points: 5
#     Node 1, Type 0, BuildingBlock: BEQFEK_clean_sbu_0, # of connection points: 5
#     Node 2, Type 0, BuildingBlock: BEQFEK_clean_sbu_0, # of connection points: 5
#     Node 3, Type 0, BuildingBlock: BEQFEK_clean_sbu_0, # of connection points: 5
#     Node 4, Type 0, BuildingBlock: BEQFEK_clean_sbu_0, # of connection points: 5
#     Node 5, Type 0, BuildingBlock: BEQFEK_clean_sbu_0, # of connection points: 5
#     Node 6, Type 0, BuildingBlock: BEQFEK_clean_sbu_0, # of connection points: 5
#     Node 7, Type 0, BuildingBlock: BEQFEK_clean_sbu_0, # of connection points: 5
#     Edge 8, Type (0, 0), BuildingBlock: EYOCIG_clean_linker_4, # of connection points: 2
#     Edge 9, Type (0, 0), BuildingBlock: EYOCIG_clean_linker_4, # of connection points: 2
#     Edge 10, Type (0, 0), BuildingBlock: EYOCIG_clean_linker_4, # of connection points: 2
#     Edge 11, Type (0, 0), BuildingBlock: EYOCIG_clean_linker_4, # of connection points: 2
#     Edge 12, Type (0, 0), BuildingBlock: EYOCIG_clean_linker_4, # of connection points: 2
#     Edge 13, Type (0, 0), BuildingBlock: EYOCIG_clean_linker_4, # of connection points: 2
#     Edge 14, Type (0, 0), BuildingBlock: EYOCIG_clean_linker_4, # of connection points: 2
#     Edge 15, Type (0, 0), BuildingBlock: EYOCIG_clean_linker_4, # of connection points: 2
#     Edge 16, Type (0, 0), BuildingBlock: EYOCIG_clean_linker_4, # of connection points: 2
#     Edge 17, Type (0, 0), BuildingBlock: EYOCIG_clean_linker_4, # of connection points: 2
#     Edge 18, Type (0, 0), BuildingBlock: EYOCIG_clean_linker_4, # of connection points: 2
#     Edge 19, Type (0, 0), BuildingBlock: EYOCIG_clean_linker_4, # of connection points: 2
#     Edge 20, Type (0, 0), BuildingBlock: EYOCIG_clean_linker_4, # of connection points: 2
#     Edge 21, Type (0, 0), BuildingBlock: EYOCIG_clean_linker_4, # of connection points: 2
#     Edge 22, Type (0, 0), BuildingBlock: EYOCIG_clean_linker_4, # of connection points: 2
#     Edge 23, Type (0, 0), BuildingBlock: EYOCIG_clean_linker_4, # of connection points: 2
#     Edge 24, Type (0, 0), BuildingBlock: EYOCIG_clean_linker_4, # of connection points: 2
#     Edge 25, Type (0, 0), BuildingBlock: EYOCIG_clean_linker_4, # of connection points: 2
#     Edge 26, Type (0, 0), BuildingBlock: EYOCIG_clean_linker_4, # of connection points: 2
#     Edge 27, Type (0, 0), BuildingBlock: EYOCIG_clean_linker_4, # of connection points: 2
# Relax obj value: 0.192
# Max RMSD: 0.139
# Mean RMSD: 0.139
data_MOF--net-loh--node1-BEQFEK_clean_sbu_0--edge1-EYOCIG_clean_linker_4
_symmetry_space_group_name_H-M    P1
_symmetry_Int_Tables_number       1
_symmetry_cell_setting            triclinic
loop_
_symmetry_equiv_pos_as_xyz
'x, y, z'
_cell_length_a     17.472524
_cell_length_b     23.449954
_cell_length_c     35.235543
_cell_angle_alpha  89.999641
_cell_angle_beta   89.999667
_cell_angle_gamma 90.000045
loop_
_atom_site_label
_atom_site_type_symbol
_atom_site_fract_x
_atom_site_fract_y
_atom_site_fract_z
_atom_type_partial_charge
Co0 Co 0.98894 0.36449 0.1168 0.0
Co1 Co 0.04569 0.25349 0.15784 0.0
C2 C 0.91479 0.25087 0.10339 0.0
O3 O 0.92444 0.30352 0.09793 0.0
O4 O 0.95533 0.22344 0.1273 0.0
C5 C 0.86286 0.43262 0.10152 0.0
O6 O 0.82833 0.39468 0.12287 0.0
C7 C 0.04107 0.14903 0.20613 0.0
C8 C 0.16333 0.13435 0.2183 0.0
C9 C 0.09111 0.11195 0.22432 0.0
N10 N 0.08188 0.19131 0.18975 0.0
N11 N 0.15501 0.18214 0.19733 0.0
C12 C 0.95594 0.14401 0.20387 0.0
H13 H 0.94059 0.12044 0.17764 0.0
H14 H 0.92962 0.18705 0.20237 0.0
H15 H 0.93309 0.1202 0.22863 0.0
C16 C 0.99096 0.41031 0.19392 0.0
N17 N 0.99741 0.36605 0.16984 0.0
N18 N 0.02052 0.32038 0.18834 0.0
C19 C 0.02882 0.33473 0.22543 0.0
C20 C 0.0103 0.39235 0.23 0.0
C21 C 0.97231 0.46995 0.18185 0.0
H22 H 0.00277 0.4802 0.15509 0.0
H23 H 0.9099 0.47318 0.17651 0.0
H24 H 0.98814 0.50157 0.20392 0.0
O25 O 0.08942 0.35596 0.0928 0.0
O26 O 0.12931 0.27477 0.11945 0.0
H27 H 0.11778 0.28217 0.24779 0.0
H28 H 0.05833 0.31549 0.28365 0.0
C29 C 0.05856 0.29512 0.25521 0.0
H30 H 0.0229 0.25598 0.25576 0.0
H31 H 0.19946 0.20823 0.18785 0.0
O32 O 0.93506 0.43122 0.09732 0.0
C33 C 0.13853 0.31627 0.09617 0.0
Co34 Co 0.58461 0.67231 0.61686 0.0
Co35 Co 0.52785 0.78333 0.65786 0.0
C36 C 0.65873 0.78595 0.60342 0.0
O37 O 0.64908 0.73329 0.59797 0.0
O38 O 0.6182 0.81339 0.62732 0.0
C39 C 0.71078 0.60427 0.60164 0.0
O40 O 0.74519 0.64219 0.62305 0.0
C41 C 0.53245 0.8878 0.70613 0.0
C42 C 0.41018 0.9025 0.71828 0.0
C43 C 0.4824 0.92489 0.72431 0.0
N44 N 0.49164 0.84552 0.68976 0.0
N45 N 0.41851 0.85469 0.69733 0.0
C46 C 0.61758 0.89281 0.70388 0.0
H47 H 0.63295 0.91638 0.67765 0.0
H48 H 0.64389 0.84978 0.70239 0.0
H49 H 0.64043 0.91663 0.72864 0.0
C50 C 0.58259 0.62653 0.69397 0.0
N51 N 0.57614 0.67078 0.66989 0.0
N52 N 0.55303 0.71646 0.68838 0.0
C53 C 0.54473 0.70213 0.72548 0.0
C54 C 0.56326 0.64451 0.73006 0.0
C55 C 0.60125 0.56689 0.68192 0.0
H56 H 0.57084 0.55664 0.65514 0.0
H57 H 0.66366 0.56364 0.67661 0.0
H58 H 0.58534 0.53527 0.70398 0.0
O59 O 0.48413 0.68081 0.59285 0.0
O60 O 0.44425 0.76202 0.61947 0.0
H61 H 0.45578 0.7547 0.74782 0.0
H62 H 0.51523 0.72139 0.78369 0.0
C63 C 0.515 0.74174 0.75524 0.0
H64 H 0.55066 0.78089 0.75579 0.0
H65 H 0.37406 0.82861 0.68785 0.0
O66 O 0.6386 0.60562 0.5974 0.0
C67 C 0.43503 0.72051 0.5962 0.0
Co68 Co 0.98873 0.67286 0.95675 0.0
Co69 Co 0.04546 0.78388 0.91572 0.0
C70 C 0.91456 0.78647 0.97017 0.0
O71 O 0.92422 0.73382 0.97563 0.0
O72 O 0.9551 0.81391 0.94627 0.0
C73 C 0.86269 0.6047 0.97206 0.0
O74 O 0.82811 0.64263 0.95073 0.0
C75 C 0.04081 0.88834 0.86744 0.0
C76 C 0.16308 0.90302 0.85525 0.0
C77 C 0.09085 0.92542 0.84924 0.0
N78 N 0.08163 0.84606 0.8838 0.0
N79 N 0.15476 0.85522 0.87621 0.0
C80 C 0.95568 0.89336 0.86971 0.0
H81 H 0.94035 0.91692 0.89594 0.0
H82 H 0.92936 0.85033 0.8712 0.0
H83 H 0.93283 0.91719 0.84495 0.0
C84 C 0.99075 0.62705 0.87964 0.0
N85 N 0.9972 0.67131 0.90371 0.0
N86 N 0.02029 0.71698 0.88522 0.0
C87 C 0.02859 0.70264 0.84812 0.0
C88 C 0.01007 0.64501 0.84355 0.0
C89 C 0.97209 0.56741 0.8917 0.0
H90 H 0.00257 0.55715 0.91846 0.0
H91 H 0.90969 0.56418 0.89706 0.0
H92 H 0.98791 0.53579 0.86962 0.0
O93 O 0.08921 0.6814 0.98075 0.0
O94 O 0.12908 0.7626 0.9541 0.0
H95 H 0.11753 0.7552 0.82576 0.0
H96 H 0.05807 0.72188 0.7899 0.0
C97 C 0.05831 0.74225 0.81835 0.0
H98 H 0.02265 0.78139 0.8178 0.0
H99 H 0.19921 0.82913 0.88569 0.0
O100 O 0.93489 0.60611 0.97623 0.0
C101 C 0.13831 0.7211 0.97738 0.0
Co102 Co 0.58442 0.36502 0.4567 0.0
Co103 Co 0.52763 0.254 0.41571 0.0
C104 C 0.65852 0.25138 0.47014 0.0
O105 O 0.64887 0.30404 0.47559 0.0
O106 O 0.61798 0.22394 0.44624 0.0
C107 C 0.71062 0.43303 0.47188 0.0
O108 O 0.74498 0.39511 0.45046 0.0
C109 C 0.53222 0.14954 0.36744 0.0
C110 C 0.40994 0.13481 0.35531 0.0
C111 C 0.48216 0.11243 0.34927 0.0
N112 N 0.49141 0.19181 0.38382 0.0
N113 N 0.41827 0.18262 0.37626 0.0
C114 C 0.61735 0.14454 0.36967 0.0
H115 H 0.63274 0.12096 0.39589 0.0
H116 H 0.64365 0.18758 0.37116 0.0
H117 H 0.64018 0.12073 0.3449 0.0
C118 C 0.58238 0.41079 0.37958 0.0
N119 N 0.57593 0.36654 0.40366 0.0
N120 N 0.55281 0.32087 0.38518 0.0
C121 C 0.5445 0.3352 0.34808 0.0
C122 C 0.56303 0.39282 0.3435 0.0
C123 C 0.60103 0.47044 0.39163 0.0
H124 H 0.57065 0.48068 0.41842 0.0
H125 H 0.66345 0.4737 0.39692 0.0
H126 H 0.5851 0.50205 0.36957 0.0
O127 O 0.48394 0.35654 0.48072 0.0
O128 O 0.44404 0.27533 0.4541 0.0
H129 H 0.45554 0.28262 0.32576 0.0
H130 H 0.51496 0.31594 0.28988 0.0
C131 C 0.51475 0.29558 0.31832 0.0
H132 H 0.55041 0.25644 0.31777 0.0
H133 H 0.37382 0.20871 0.38575 0.0
O134 O 0.63844 0.43171 0.47615 0.0
C135 C 0.43484 0.31685 0.47737 0.0
Co136 Co 0.48868 0.86503 0.11674 0.0
Co137 Co 0.54548 0.754 0.15773 0.0
C138 C 0.41459 0.75139 0.10329 0.0
O139 O 0.42424 0.80404 0.09785 0.0
O140 O 0.45512 0.72394 0.12719 0.0
C141 C 0.36247 0.93303 0.10159 0.0
O142 O 0.32811 0.89509 0.12301 0.0
C143 C 0.5409 0.64954 0.206 0.0
C144 C 0.66318 0.63481 0.21811 0.0
C145 C 0.59096 0.61243 0.22416 0.0
N146 N 0.5817 0.69181 0.18961 0.0
N147 N 0.65484 0.68262 0.19716 0.0
C148 C 0.45576 0.64454 0.20377 0.0
H149 H 0.44036 0.62096 0.17756 0.0
H150 H 0.42947 0.68758 0.20228 0.0
H151 H 0.43294 0.62074 0.22855 0.0
C152 C 0.49074 0.91079 0.19386 0.0
N153 N 0.49718 0.86654 0.16978 0.0
N154 N 0.5203 0.82086 0.18826 0.0
C155 C 0.52861 0.83519 0.22536 0.0
C156 C 0.51009 0.89281 0.22994 0.0
C157 C 0.47209 0.97044 0.18181 0.0
H158 H 0.50246 0.98068 0.15502 0.0
H159 H 0.40967 0.9737 0.17653 0.0
H160 H 0.48804 1.00205 0.20388 0.0
O161 O 0.58916 0.85656 0.09272 0.0
O162 O 0.62905 0.77533 0.11933 0.0
H163 H 0.61758 0.7826 0.24768 0.0
H164 H 0.55817 0.81592 0.28356 0.0
C165 C 0.55837 0.79557 0.25512 0.0
H166 H 0.5227 0.75642 0.25567 0.0
H167 H 0.69929 0.7087 0.18767 0.0
O168 O 0.43464 0.93171 0.09731 0.0
C169 C 0.63826 0.81686 0.09606 0.0
Co170 Co 0.0844 0.17287 0.61669 0.0
Co171 Co 0.02763 0.28388 0.65771 0.0
C172 C 0.15853 0.2865 0.60327 0.0
O173 O 0.14889 0.23384 0.59781 0.0
O174 O 0.11799 0.31393 0.62717 0.0
C175 C 0.21053 0.10477 0.60147 0.0
O176 O 0.245 0.14273 0.62283 0.0
C177 C 0.03223 0.38833 0.706 0.0
C178 C 0.90995 0.40305 0.71812 0.0
C179 C 0.98217 0.42542 0.72417 0.0
N180 N 0.99142 0.34607 0.6896 0.0
N181 N 0.91828 0.35526 0.69716 0.0
C182 C 0.11736 0.39333 0.70377 0.0
H183 H 0.13277 0.41693 0.67756 0.0
H184 H 0.14366 0.35028 0.70226 0.0
H185 H 0.14019 0.4171 0.72856 0.0
C186 C 0.08234 0.12707 0.69381 0.0
N187 N 0.07591 0.17133 0.66973 0.0
N188 N 0.05279 0.217 0.68822 0.0
C189 C 0.04447 0.20266 0.72532 0.0
C190 C 0.06299 0.14504 0.72989 0.0
C191 C 0.101 0.06743 0.68175 0.0
H192 H 0.07057 0.05718 0.65498 0.0
H193 H 0.16341 0.06418 0.67643 0.0
H194 H 0.08512 0.03581 0.70382 0.0
O195 O 0.98393 0.18137 0.59268 0.0
O196 O 0.94403 0.26258 0.61932 0.0
H197 H 0.95551 0.25524 0.74764 0.0
H198 H 0.01491 0.22191 0.78352 0.0
C199 C 0.01472 0.24227 0.75508 0.0
H200 H 0.05039 0.28141 0.75565 0.0
H201 H 0.87383 0.32918 0.68765 0.0
O202 O 0.13834 0.10615 0.59724 0.0
C203 C 0.93482 0.22107 0.59604 0.0
Co204 Co 0.4889 0.17232 0.95682 0.0
Co205 Co 0.54572 0.28334 0.91584 0.0
C206 C 0.41482 0.28597 0.97027 0.0
O207 O 0.42447 0.23331 0.97572 0.0
O208 O 0.45536 0.31341 0.94637 0.0
C209 C 0.36264 0.10435 0.97195 0.0
O210 O 0.32834 0.14229 0.95052 0.0
C211 C 0.54116 0.38779 0.86756 0.0
C212 C 0.66344 0.40253 0.85547 0.0
C213 C 0.59122 0.4249 0.84941 0.0
N214 N 0.58196 0.34552 0.88395 0.0
N215 N 0.6551 0.35473 0.87642 0.0
C216 C 0.45602 0.39277 0.86977 0.0
H217 H 0.44059 0.41637 0.89597 0.0
H218 H 0.42973 0.34973 0.87127 0.0
H219 H 0.43321 0.41654 0.84498 0.0
C220 C 0.49097 0.12656 0.8797 0.0
N221 N 0.49741 0.1708 0.90379 0.0
N222 N 0.52053 0.21648 0.88531 0.0
C223 C 0.52886 0.20215 0.84821 0.0
C224 C 0.51033 0.14453 0.84363 0.0
C225 C 0.47231 0.0669 0.89175 0.0
H226 H 0.50266 0.05667 0.91855 0.0
H227 H 0.40989 0.06364 0.89702 0.0
H228 H 0.48828 0.03529 0.8697 0.0
O229 O 0.58937 0.18077 0.98085 0.0
O230 O 0.62928 0.26199 0.95424 0.0
H231 H 0.61783 0.25474 0.8259 0.0
H232 H 0.55845 0.22141 0.79001 0.0
C233 C 0.55863 0.24177 0.81845 0.0
H234 H 0.52295 0.28091 0.81789 0.0
H235 H 0.69955 0.32866 0.88593 0.0
O236 O 0.43482 0.10565 0.97625 0.0
C237 C 0.63848 0.22047 0.97751 0.0
Co238 Co 0.0846 0.8645 0.45687 0.0
Co239 Co 0.02785 0.75348 0.41585 0.0
C240 C 0.15875 0.75087 0.4703 0.0
O241 O 0.14909 0.80353 0.47575 0.0
O242 O 0.11821 0.72344 0.44639 0.0
C243 C 0.21069 0.93262 0.47213 0.0
O244 O 0.24522 0.89467 0.45079 0.0
C245 C 0.03247 0.64904 0.36756 0.0
C246 C 0.91019 0.63433 0.35541 0.0
C247 C 0.98241 0.61195 0.34937 0.0
N248 N 0.99166 0.6913 0.38394 0.0
N249 N 0.91852 0.68212 0.37638 0.0
C250 C 0.1176 0.64403 0.3698 0.0
H251 H 0.13298 0.62044 0.39602 0.0
H252 H 0.1439 0.68707 0.3713 0.0
H253 H 0.14043 0.62024 0.34502 0.0
C254 C 0.08257 0.9103 0.37976 0.0
N255 N 0.07612 0.86604 0.40383 0.0
N256 N 0.05302 0.82037 0.38534 0.0
C257 C 0.04471 0.83471 0.34825 0.0
C258 C 0.06322 0.89234 0.34368 0.0
C259 C 0.10122 0.96994 0.39182 0.0
H260 H 0.07077 0.9802 0.41859 0.0
H261 H 0.16362 0.97318 0.39716 0.0
H262 H 0.08537 1.00156 0.36975 0.0
O263 O 0.98412 0.85597 0.48088 0.0
O264 O 0.94424 0.77477 0.45424 0.0
H265 H 0.95575 0.78214 0.32591 0.0
H266 H 0.01518 0.81547 0.29004 0.0
C267 C 0.01497 0.7951 0.31848 0.0
H268 H 0.05064 0.75596 0.31792 0.0
H269 H 0.87407 0.7082 0.38587 0.0
O270 O 0.1385 0.93122 0.47634 0.0
C271 C 0.93502 0.81628 0.47752 0.0
C272 C 0.31002 0.32143 1.01798 0.0
C273 C 0.35871 0.31327 0.99412 0.0
C274 C 0.2534 0.32058 0.04696 0.0
C275 C 0.20232 0.3165 0.07007 0.0
C276 C 0.32018 0.71621 0.54698 0.0
C277 C 0.37125 0.72028 0.57009 0.0
C278 C 0.26356 0.71539 0.518 0.0
C279 C 0.21487 0.72356 0.49414 0.0
C280 C 0.30979 0.71594 0.05558 0.0
C281 C 0.35847 0.72409 0.07944 0.0
C282 C 0.25317 0.71679 1.0266 0.0
C283 C 0.20211 0.72088 1.00348 0.0
C284 C 0.31998 0.32116 0.52659 0.0
C285 C 0.37106 0.31709 0.50348 0.0
C286 C 0.26336 0.32198 0.55557 0.0
C287 C 0.21466 0.31381 0.57942 0.0
C288 C 0.75311 0.82116 0.04684 0.0
C289 C 0.70203 0.81709 0.06995 0.0
C290 C 0.80973 0.82196 1.01786 0.0
C291 C 0.85843 0.81378 0.99401 0.0
C292 C 0.81996 0.21675 0.54682 0.0
C293 C 0.87103 0.22083 0.56993 0.0
C294 C 0.76334 0.21592 0.51784 0.0
C295 C 0.71464 0.22408 0.49399 0.0
C296 C 0.80996 0.21536 0.05571 0.0
C297 C 0.85866 0.22355 0.07955 0.0
C298 C 0.75333 0.21617 1.02673 0.0
C299 C 0.70225 0.22023 1.00362 0.0
C300 C 0.76354 0.82141 0.55571 0.0
C301 C 0.71485 0.81325 0.57957 0.0
C302 C 0.82016 0.82058 0.52673 0.0
C303 C 0.87123 0.81651 0.50362 0.0
C304 C 0.01339 0.46706 0.28669 0.0
C305 C 0.01436 0.42896 0.26331 0.0
C306 C 0.00795 0.51642 0.31026 0.0
C307 C 0.99931 0.56012 0.32831 0.0
C308 C 0.56021 0.56981 0.78674 0.0
C309 C 0.55922 0.60791 0.76337 0.0
C310 C 0.56568 0.52045 0.81031 0.0
C311 C 0.57432 0.47673 0.82835 0.0
C312 C 0.0077 0.52095 0.76329 0.0
C313 C 0.99907 0.47725 0.74523 0.0
C314 C 0.01315 0.57031 0.78686 0.0
C315 C 0.01413 0.60841 0.81024 0.0
C316 C 0.55996 0.46751 0.28681 0.0
C317 C 0.55897 0.42941 0.31018 0.0
C318 C 0.56542 0.51688 0.26325 0.0
C319 C 0.57406 0.56059 0.24521 0.0
C320 C 0.51317 0.9675 0.28663 0.0
C321 C 0.51415 0.9294 0.26326 0.0
C322 C 0.50771 1.01687 0.31019 0.0
C323 C 0.49906 0.06059 0.32823 0.0
C324 C 0.06531 0.02097 0.81014 0.0
C325 C 0.07395 0.97726 0.82819 0.0
C326 C 0.05988 0.07033 0.78658 0.0
C327 C 0.05891 0.10844 0.7632 0.0
C328 C 0.50796 0.02046 0.76338 0.0
C329 C 0.49931 0.97674 0.74535 0.0
C330 C 0.51341 0.06983 0.78694 0.0
C331 C 0.5144 0.10794 0.81031 0.0
C332 C 0.06557 1.01641 0.26342 0.0
C333 C 0.07421 0.06011 0.24537 0.0
C334 C 0.06014 0.96705 0.28699 0.0
C335 C 0.05916 0.92894 0.31036 0.0
C336 C 0.79868 0.53724 1.02127 0.0
C337 C 0.81925 0.56962 0.99703 0.0
C338 C 0.79873 0.50004 0.05232 0.0
C339 C 0.81937 0.46767 0.07656 0.0
C340 C 0.77506 0.53715 0.55232 0.0
C341 C 0.75439 0.56938 0.57663 0.0
C342 C 0.77501 0.50013 0.52117 0.0
C343 C 0.75428 0.46791 0.49687 0.0
C344 C 0.29814 0.03723 1.02119 0.0
C345 C 0.31891 0.06947 0.99691 0.0
C346 C 0.29809 1.00018 0.05233 0.0
C347 C 0.31879 0.96793 0.07662 0.0
C348 C 0.2748 1.00009 0.52129 0.0
C349 C 0.2542 0.9677 0.49707 0.0
C350 C 0.27476 0.03732 0.55233 0.0
C351 C 0.25408 0.06971 0.57655 0.0
loop_
_geom_bond_atom_site_label_1
_geom_bond_atom_site_label_2
_geom_bond_distance
_geom_bond_site_symmetry_2
_ccdc_geom_bond_type
Co0 O3 1.970 1_455 S
Co0 N17 1.989 . S
Co0 O25 1.967 . S
Co0 O32 1.920 . S
Co1 O4 1.966 1_455 S
Co1 N10 2.022 . S
Co1 N18 1.993 . S
Co1 O26 1.941 . S
C2 O3 1.258 . S
C2 O4 1.263 . S
O3 Co0 1.970 1_655 S
O3 C2 1.258 . S
O4 Co1 1.966 1_655 S
O4 C2 1.263 . S
C5 O6 1.235 . S
C5 O32 1.289 1_655 S
O6 C5 1.235 . S
C7 C9 1.400 1_655 S
C7 N10 1.351 1_655 S
C7 C12 1.501 . S
C8 C9 1.387 . S
C8 N11 1.341 . S
C9 C7 1.400 1_455 S
C9 C8 1.387 . S
N10 Co1 2.022 . S
N10 C7 1.351 1_455 S
N10 N11 1.365 . S
N11 C8 1.341 . S
N11 N10 1.365 . S
N11 H31 0.862 . S
C12 C7 1.501 . S
C12 H13 0.961 . S
C12 H14 0.961 . S
C12 H15 0.960 . S
H13 C12 0.961 . S
H14 C12 0.961 . S
H15 C12 0.960 . S
C16 N17 1.342 . S
C16 C20 1.401 . S
C16 C21 1.499 . S
N17 Co0 1.989 . S
N17 C16 1.342 . S
N17 N18 1.388 . S
N18 Co1 1.993 . S
N18 N17 1.388 . S
N18 C19 1.346 . S
C19 N18 1.346 . S
C19 C20 1.396 . S
C19 C29 1.510 . S
C20 C16 1.401 . S
C20 C19 1.396 . S
C21 C16 1.499 . S
C21 H22 0.959 . S
C21 H23 0.960 . S
C21 H24 0.961 . S
H22 C21 0.959 . S
H23 C21 0.960 . S
H24 C21 0.961 . S
O25 Co0 1.967 . S
O25 C33 1.258 . S
O26 Co1 1.941 . S
O26 C33 1.266 . S
H27 C29 0.959 . S
H28 C29 0.956 1_655 S
C29 C19 1.510 . S
C29 H27 0.959 . S
C29 H28 0.956 1_455 S
C29 H30 0.960 . S
H30 C29 0.960 . S
H31 N11 0.862 . S
O32 Co0 1.920 . S
O32 C5 1.289 1_455 S
C33 O25 1.258 . S
C33 O26 1.266 . S
Co34 O37 1.970 . S
Co34 N51 1.989 . S
Co34 O59 1.967 . S
Co34 O66 1.920 . S
Co35 O38 1.966 . S
Co35 N44 2.022 . S
Co35 N52 1.993 . S
Co35 O60 1.941 . S
C36 O37 1.258 . S
C36 O38 1.263 . S
O37 Co34 1.970 . S
O37 C36 1.258 . S
O38 Co35 1.966 . S
O38 C36 1.263 . S
C39 O40 1.235 . S
C39 O66 1.289 . S
O40 C39 1.235 . S
C41 C43 1.400 . S
C41 N44 1.351 . S
C41 C46 1.501 . S
C42 C43 1.387 . S
C42 N45 1.341 . S
C43 C41 1.400 . S
C43 C42 1.387 . S
N44 Co35 2.022 . S
N44 C41 1.351 . S
N44 N45 1.365 . S
N45 C42 1.341 . S
N45 N44 1.365 . S
N45 H65 0.862 . S
C46 C41 1.501 . S
C46 H47 0.961 . S
C46 H48 0.961 . S
C46 H49 0.960 . S
H47 C46 0.961 . S
H48 C46 0.961 . S
H49 C46 0.960 . S
C50 N51 1.342 . S
C50 C54 1.401 . S
C50 C55 1.499 . S
N51 Co34 1.989 . S
N51 C50 1.342 . S
N51 N52 1.388 . S
N52 Co35 1.993 . S
N52 N51 1.388 . S
N52 C53 1.346 . S
C53 N52 1.346 . S
C53 C54 1.396 . S
C53 C63 1.510 . S
C54 C50 1.401 . S
C54 C53 1.396 . S
C55 C50 1.499 . S
C55 H56 0.959 . S
C55 H57 0.960 . S
C55 H58 0.961 . S
H56 C55 0.959 . S
H57 C55 0.960 . S
H58 C55 0.961 . S
O59 Co34 1.967 . S
O59 C67 1.258 . S
O60 Co35 1.941 . S
O60 C67 1.266 . S
H61 C63 0.959 . S
H62 C63 0.961 . S
C63 C53 1.510 . S
C63 H61 0.959 . S
C63 H62 0.961 . S
C63 H64 0.960 . S
H64 C63 0.960 . S
H65 N45 0.862 . S
O66 Co34 1.920 . S
O66 C39 1.289 . S
C67 O59 1.258 . S
C67 O60 1.266 . S
Co68 O71 1.970 1_455 S
Co68 N85 1.989 . S
Co68 O93 1.967 . S
Co68 O100 1.920 . S
Co69 O72 1.966 1_455 S
Co69 N78 2.022 . S
Co69 N86 1.993 . S
Co69 O94 1.941 . S
C70 O71 1.258 . S
C70 O72 1.263 . S
O71 Co68 1.970 1_655 S
O71 C70 1.258 . S
O72 Co69 1.966 1_655 S
O72 C70 1.263 . S
C73 O74 1.235 . S
C73 O100 1.289 1_655 S
O74 C73 1.235 . S
C75 C77 1.400 1_655 S
C75 N78 1.351 1_655 S
C75 C80 1.501 . S
C76 C77 1.387 . S
C76 N79 1.341 . S
C77 C75 1.400 1_455 S
C77 C76 1.387 . S
N78 Co69 2.022 . S
N78 C75 1.351 1_455 S
N78 N79 1.365 . S
N79 C76 1.341 . S
N79 N78 1.365 . S
N79 H99 0.862 . S
C80 C75 1.501 . S
C80 H81 0.961 . S
C80 H82 0.961 . S
C80 H83 0.960 . S
H81 C80 0.961 . S
H82 C80 0.961 . S
H83 C80 0.960 . S
C84 N85 1.342 . S
C84 C88 1.401 . S
C84 C89 1.499 . S
N85 Co68 1.989 . S
N85 C84 1.342 . S
N85 N86 1.388 . S
N86 Co69 1.993 . S
N86 N85 1.388 . S
N86 C87 1.346 . S
C87 N86 1.346 . S
C87 C88 1.396 . S
C87 C97 1.510 . S
C88 C84 1.401 . S
C88 C87 1.396 . S
C89 C84 1.499 . S
C89 H90 0.959 . S
C89 H91 0.960 . S
C89 H92 0.961 . S
H90 C89 0.959 . S
H91 C89 0.960 . S
H92 C89 0.961 . S
O93 Co68 1.967 . S
O93 C101 1.258 . S
O94 Co69 1.941 . S
O94 C101 1.266 . S
H95 C97 0.959 . S
H96 C97 0.956 1_655 S
C97 C87 1.510 . S
C97 H95 0.959 . S
C97 H96 0.956 1_455 S
C97 H98 0.960 . S
H98 C97 0.960 . S
H99 N79 0.862 . S
O100 Co68 1.920 . S
O100 C73 1.289 1_455 S
C101 O93 1.258 . S
C101 O94 1.266 . S
Co102 O105 1.970 . S
Co102 N119 1.989 . S
Co102 O127 1.967 . S
Co102 O134 1.920 . S
Co103 O106 1.966 . S
Co103 N112 2.022 . S
Co103 N120 1.993 . S
Co103 O128 1.941 . S
C104 O105 1.258 . S
C104 O106 1.263 . S
O105 Co102 1.970 . S
O105 C104 1.258 . S
O106 Co103 1.966 . S
O106 C104 1.263 . S
C107 O108 1.235 . S
C107 O134 1.289 . S
O108 C107 1.235 . S
C109 C111 1.400 . S
C109 N112 1.351 . S
C109 C114 1.501 . S
C110 C111 1.387 . S
C110 N113 1.341 . S
C111 C109 1.400 . S
C111 C110 1.387 . S
N112 Co103 2.022 . S
N112 C109 1.351 . S
N112 N113 1.365 . S
N113 C110 1.341 . S
N113 N112 1.365 . S
N113 H133 0.862 . S
C114 C109 1.501 . S
C114 H115 0.961 . S
C114 H116 0.961 . S
C114 H117 0.960 . S
H115 C114 0.961 . S
H116 C114 0.961 . S
H117 C114 0.960 . S
C118 N119 1.342 . S
C118 C122 1.401 . S
C118 C123 1.499 . S
N119 Co102 1.989 . S
N119 C118 1.342 . S
N119 N120 1.388 . S
N120 Co103 1.993 . S
N120 N119 1.388 . S
N120 C121 1.346 . S
C121 N120 1.346 . S
C121 C122 1.396 . S
C121 C131 1.510 . S
C122 C118 1.401 . S
C122 C121 1.396 . S
C123 C118 1.499 . S
C123 H124 0.959 . S
C123 H125 0.960 . S
C123 H126 0.961 . S
H124 C123 0.959 . S
H125 C123 0.960 . S
H126 C123 0.961 . S
O127 Co102 1.967 . S
O127 C135 1.258 . S
O128 Co103 1.941 . S
O128 C135 1.266 . S
H129 C131 0.959 . S
H130 C131 0.961 . S
C131 C121 1.510 . S
C131 H129 0.959 . S
C131 H130 0.961 . S
C131 H132 0.960 . S
H132 C131 0.960 . S
H133 N113 0.862 . S
O134 Co102 1.920 . S
O134 C107 1.289 . S
C135 O127 1.258 . S
C135 O128 1.266 . S
Co136 O139 1.970 . S
Co136 N153 1.989 . S
Co136 O161 1.967 . S
Co136 O168 1.920 . S
Co137 O140 1.966 . S
Co137 N146 2.022 . S
Co137 N154 1.993 . S
Co137 O162 1.941 . S
C138 O139 1.258 . S
C138 O140 1.263 . S
O139 Co136 1.970 . S
O139 C138 1.258 . S
O140 Co137 1.966 . S
O140 C138 1.263 . S
C141 O142 1.235 . S
C141 O168 1.289 . S
O142 C141 1.235 . S
C143 C145 1.400 . S
C143 N146 1.351 . S
C143 C148 1.501 . S
C144 C145 1.387 . S
C144 N147 1.341 . S
C145 C143 1.400 . S
C145 C144 1.387 . S
N146 Co137 2.022 . S
N146 C143 1.351 . S
N146 N147 1.365 . S
N147 C144 1.341 . S
N147 N146 1.365 . S
N147 H167 0.862 . S
C148 C143 1.501 . S
C148 H149 0.961 . S
C148 H150 0.961 . S
C148 H151 0.960 . S
H149 C148 0.961 . S
H150 C148 0.961 . S
H151 C148 0.960 . S
C152 N153 1.342 . S
C152 C156 1.401 . S
C152 C157 1.499 . S
N153 Co136 1.989 . S
N153 C152 1.342 . S
N153 N154 1.388 . S
N154 Co137 1.993 . S
N154 N153 1.388 . S
N154 C155 1.346 . S
C155 N154 1.346 . S
C155 C156 1.396 . S
C155 C165 1.510 . S
C156 C152 1.401 . S
C156 C155 1.396 . S
C157 C152 1.499 . S
C157 H158 0.959 . S
C157 H159 0.960 . S
C157 H160 0.961 . S
H158 C157 0.959 . S
H159 C157 0.960 . S
H160 C157 0.961 . S
O161 Co136 1.967 . S
O161 C169 1.258 . S
O162 Co137 1.941 . S
O162 C169 1.266 . S
H163 C165 0.959 . S
H164 C165 0.961 . S
C165 C155 1.510 . S
C165 H163 0.959 . S
C165 H164 0.961 . S
C165 H166 0.960 . S
H166 C165 0.960 . S
H167 N147 0.862 . S
O168 Co136 1.920 . S
O168 C141 1.289 . S
C169 O161 1.258 . S
C169 O162 1.266 . S
Co170 O173 1.970 . S
Co170 N187 1.989 . S
Co170 O195 1.967 1_455 S
Co170 O202 1.920 . S
Co171 O174 1.966 . S
Co171 N180 2.022 . S
Co171 N188 1.993 . S
Co171 O196 1.941 1_455 S
C172 O173 1.258 . S
C172 O174 1.263 . S
O173 Co170 1.970 . S
O173 C172 1.258 . S
O174 Co171 1.966 . S
O174 C172 1.263 . S
C175 O176 1.235 . S
C175 O202 1.289 . S
O176 C175 1.235 . S
C177 C179 1.400 . S
C177 N180 1.351 . S
C177 C182 1.501 . S
C178 C179 1.387 1_655 S
C178 N181 1.341 . S
C179 C177 1.400 . S
C179 C178 1.387 1_455 S
N180 Co171 2.022 . S
N180 C177 1.351 . S
N180 N181 1.365 1_455 S
N181 C178 1.341 . S
N181 N180 1.365 1_655 S
N181 H201 0.862 . S
C182 C177 1.501 . S
C182 H183 0.961 . S
C182 H184 0.961 . S
C182 H185 0.960 . S
H183 C182 0.961 . S
H184 C182 0.961 . S
H185 C182 0.960 . S
C186 N187 1.342 . S
C186 C190 1.401 . S
C186 C191 1.499 . S
N187 Co170 1.989 . S
N187 C186 1.342 . S
N187 N188 1.388 . S
N188 Co171 1.993 . S
N188 N187 1.388 . S
N188 C189 1.346 . S
C189 N188 1.346 . S
C189 C190 1.396 . S
C189 C199 1.510 . S
C190 C186 1.401 . S
C190 C189 1.396 . S
C191 C186 1.499 . S
C191 H192 0.959 . S
C191 H193 0.960 . S
C191 H194 0.961 1_455 S
H192 C191 0.959 . S
H193 C191 0.960 . S
H194 C191 0.961 1_655 S
O195 Co170 1.967 1_655 S
O195 C203 1.258 . S
O196 Co171 1.941 1_655 S
O196 C203 1.266 . S
H197 C199 0.959 1_655 S
H198 C199 0.961 . S
C199 C189 1.510 . S
C199 H197 0.959 1_455 S
C199 H198 0.961 . S
C199 H200 0.960 . S
H200 C199 0.960 . S
H201 N181 0.862 . S
O202 Co170 1.920 . S
O202 C175 1.289 . S
C203 O195 1.258 . S
C203 O196 1.266 . S
Co204 O207 1.970 . S
Co204 N221 1.989 . S
Co204 O229 1.967 . S
Co204 O236 1.920 . S
Co205 O208 1.966 . S
Co205 N214 2.022 . S
Co205 N222 1.993 . S
Co205 O230 1.941 . S
C206 O207 1.258 . S
C206 O208 1.263 . S
O207 Co204 1.970 . S
O207 C206 1.258 . S
O208 Co205 1.966 . S
O208 C206 1.263 . S
C209 O210 1.235 . S
C209 O236 1.289 . S
O210 C209 1.235 . S
C211 C213 1.400 . S
C211 N214 1.351 . S
C211 C216 1.501 . S
C212 C213 1.387 . S
C212 N215 1.341 . S
C213 C211 1.400 . S
C213 C212 1.387 . S
N214 Co205 2.022 . S
N214 C211 1.351 . S
N214 N215 1.365 . S
N215 C212 1.341 . S
N215 N214 1.365 . S
N215 H235 0.862 . S
C216 C211 1.501 . S
C216 H217 0.961 . S
C216 H218 0.961 . S
C216 H219 0.960 . S
H217 C216 0.961 . S
H218 C216 0.961 . S
H219 C216 0.960 . S
C220 N221 1.342 . S
C220 C224 1.401 . S
C220 C225 1.499 . S
N221 Co204 1.989 . S
N221 C220 1.342 . S
N221 N222 1.388 . S
N222 Co205 1.993 . S
N222 N221 1.388 . S
N222 C223 1.346 . S
C223 N222 1.346 . S
C223 C224 1.396 . S
C223 C233 1.510 . S
C224 C220 1.401 . S
C224 C223 1.396 . S
C225 C220 1.499 . S
C225 H226 0.959 . S
C225 H227 0.960 . S
C225 H228 0.961 . S
H226 C225 0.959 . S
H227 C225 0.960 . S
H228 C225 0.961 . S
O229 Co204 1.967 . S
O229 C237 1.258 . S
O230 Co205 1.941 . S
O230 C237 1.266 . S
H231 C233 0.959 . S
H232 C233 0.961 . S
C233 C223 1.510 . S
C233 H231 0.959 . S
C233 H232 0.961 . S
C233 H234 0.960 . S
H234 C233 0.960 . S
H235 N215 0.862 . S
O236 Co204 1.920 . S
O236 C209 1.289 . S
C237 O229 1.258 . S
C237 O230 1.266 . S
Co238 O241 1.970 . S
Co238 N255 1.989 . S
Co238 O263 1.967 1_455 S
Co238 O270 1.920 . S
Co239 O242 1.966 . S
Co239 N248 2.022 . S
Co239 N256 1.993 . S
Co239 O264 1.941 1_455 S
C240 O241 1.258 . S
C240 O242 1.263 . S
O241 Co238 1.970 . S
O241 C240 1.258 . S
O242 Co239 1.966 . S
O242 C240 1.263 . S
C243 O244 1.235 . S
C243 O270 1.289 . S
O244 C243 1.235 . S
C245 C247 1.400 . S
C245 N248 1.351 . S
C245 C250 1.501 . S
C246 C247 1.387 1_655 S
C246 N249 1.341 . S
C247 C245 1.400 . S
C247 C246 1.387 1_455 S
N248 Co239 2.022 . S
N248 C245 1.351 . S
N248 N249 1.365 1_455 S
N249 C246 1.341 . S
N249 N248 1.365 1_655 S
N249 H269 0.862 . S
C250 C245 1.501 . S
C250 H251 0.961 . S
C250 H252 0.961 . S
C250 H253 0.960 . S
H251 C250 0.961 . S
H252 C250 0.961 . S
H253 C250 0.960 . S
C254 N255 1.342 . S
C254 C258 1.401 . S
C254 C259 1.499 . S
N255 Co238 1.989 . S
N255 C254 1.342 . S
N255 N256 1.388 . S
N256 Co239 1.993 . S
N256 N255 1.388 . S
N256 C257 1.346 . S
C257 N256 1.346 . S
C257 C258 1.396 . S
C257 C267 1.510 . S
C258 C254 1.401 . S
C258 C257 1.396 . S
C259 C254 1.499 . S
C259 H260 0.959 . S
C259 H261 0.960 . S
C259 H262 0.961 1_455 S
H260 C259 0.959 . S
H261 C259 0.960 . S
H262 C259 0.961 1_655 S
O263 Co238 1.967 1_655 S
O263 C271 1.258 . S
O264 Co239 1.941 1_655 S
O264 C271 1.266 . S
H265 C267 0.959 1_655 S
H266 C267 0.961 . S
C267 C257 1.510 . S
C267 H265 0.959 1_455 S
C267 H266 0.961 . S
C267 H268 0.960 . S
H268 C267 0.960 . S
H269 N249 0.862 . S
O270 Co238 1.920 . S
O270 C243 1.289 . S
C271 O263 1.258 . S
C271 O264 1.266 . S
C272 C273 1.170 . S
C272 C274 1.380 1_556 S
C273 C272 1.170 . S
C274 C272 1.380 1_554 S
C274 C275 1.170 . S
C275 C274 1.170 . S
C276 C277 1.170 . S
C276 C278 1.380 . S
C277 C276 1.170 . S
C278 C276 1.380 . S
C278 C279 1.170 . S
C279 C278 1.170 . S
C280 C281 1.170 . S
C280 C282 1.380 1_554 S
C281 C280 1.170 . S
C282 C280 1.380 1_556 S
C282 C283 1.170 . S
C283 C282 1.170 . S
C284 C285 1.170 . S
C284 C286 1.380 . S
C285 C284 1.170 . S
C286 C284 1.380 . S
C286 C287 1.170 . S
C287 C286 1.170 . S
C288 C289 1.170 . S
C288 C290 1.380 1_554 S
C289 C288 1.170 . S
C290 C288 1.380 1_556 S
C290 C291 1.170 . S
C291 C290 1.170 . S
C292 C293 1.170 . S
C292 C294 1.380 . S
C293 C292 1.170 . S
C294 C292 1.380 . S
C294 C295 1.170 . S
C295 C294 1.170 . S
C296 C297 1.170 . S
C296 C298 1.380 1_554 S
C297 C296 1.170 . S
C298 C296 1.380 1_556 S
C298 C299 1.170 . S
C299 C298 1.170 . S
C300 C301 1.170 . S
C300 C302 1.380 . S
C301 C300 1.170 . S
C302 C300 1.380 . S
C302 C303 1.170 . S
C303 C302 1.170 . S
C304 C305 1.170 . S
C304 C306 1.380 . S
C305 C304 1.170 . S
C306 C304 1.380 . S
C306 C307 1.170 . S
C307 C306 1.170 . S
C308 C309 1.170 . S
C308 C310 1.380 . S
C309 C308 1.170 . S
C310 C308 1.380 . S
C310 C311 1.170 . S
C311 C310 1.170 . S
C312 C313 1.170 . S
C312 C314 1.380 . S
C313 C312 1.170 . S
C314 C312 1.380 . S
C314 C315 1.170 . S
C315 C314 1.170 . S
C316 C317 1.170 . S
C316 C318 1.380 . S
C317 C316 1.170 . S
C318 C316 1.380 . S
C318 C319 1.170 . S
C319 C318 1.170 . S
C320 C321 1.170 . S
C320 C322 1.380 1_565 S
C321 C320 1.170 . S
C322 C320 1.380 1_545 S
C322 C323 1.170 . S
C323 C322 1.170 . S
C324 C325 1.170 . S
C324 C326 1.380 1_565 S
C325 C324 1.170 . S
C326 C324 1.380 1_545 S
C326 C327 1.170 . S
C327 C326 1.170 . S
C328 C329 1.170 . S
C328 C330 1.380 1_565 S
C329 C328 1.170 . S
C330 C328 1.380 1_545 S
C330 C331 1.170 . S
C331 C330 1.170 . S
C332 C333 1.170 . S
C332 C334 1.380 1_545 S
C333 C332 1.170 . S
C334 C332 1.380 1_565 S
C334 C335 1.170 . S
C335 C334 1.170 . S
C336 C337 1.170 . S
C336 C338 1.380 1_556 S
C337 C336 1.170 . S
C338 C336 1.380 1_554 S
C338 C339 1.170 . S
C339 C338 1.170 . S
C340 C341 1.170 . S
C340 C342 1.380 . S
C341 C340 1.170 . S
C342 C340 1.380 . S
C342 C343 1.170 . S
C343 C342 1.170 . S
C344 C345 1.170 . S
C344 C346 1.380 1_546 S
C345 C344 1.170 . S
C346 C344 1.380 1_564 S
C346 C347 1.170 . S
C347 C346 1.170 . S
C348 C349 1.170 . S
C348 C350 1.380 1_565 S
C349 C348 1.170 . S
C350 C348 1.380 1_545 S
C350 C351 1.170 . S
C351 C350 1.170 . S
C273 C206 1.609 . S
C275 C33 1.674 . S
C277 C67 1.651 . S
C279 C240 1.624 . S
C281 C138 1.626 . S
C283 C101 1.668 . S
C285 C135 1.658 . S
C287 C172 1.635 . S
C289 C169 1.651 . S
C291 C70 1.624 . S
C293 C203 1.662 . S
C295 C104 1.601 . S
C297 C2 1.630 . S
C299 C237 1.664 . S
C301 C36 1.619 . S
C303 C271 1.671 . S
C305 C20 1.892 . S
C307 C247 1.813 . S
C309 C54 1.893 . S
C311 C213 1.799 . S
C313 C179 1.784 . S
C315 C88 1.901 . S
C317 C122 1.914 . S
C319 C145 1.792 . S
C321 C156 1.892 . S
C323 C111 1.811 . S
C325 C77 1.809 1_655 S
C327 C190 1.910 1_655 S
C329 C43 1.780 . S
C331 C224 1.904 . S
C333 C9 1.819 1_655 S
C335 C258 1.904 1_655 S
C337 C73 0.321 . S
C339 C5 0.293 . S
C341 C39 0.259 . S
C343 C107 0.343 . S
C345 C209 0.325 . S
C347 C141 0.248 . S
C349 C243 0.251 . S
C351 C175 0.346 . S
