# Generated by pormake.
# Topology und, (4)-cn, num edge types: 1
# Building blocks:
#     Node 0, Type 0, BuildingBlock: NAHDIM_clean_sbu_0, # of connection points: 4
#     Node 1, Type 0, BuildingBlock: NAHDIM_clean_sbu_0, # of connection points: 4
#     Node 2, Type 0, BuildingBlock: NAHDIM_clean_sbu_0, # of connection points: 4
#     Node 3, Type 0, BuildingBlock: NAHDIM_clean_sbu_0, # of connection points: 4
#     Node 4, Type 0, BuildingBlock: NAHDIM_clean_sbu_0, # of connection points: 4
#     Node 5, Type 0, BuildingBlock: NAHDIM_clean_sbu_0, # of connection points: 4
#     Node 6, Type 0, BuildingBlock: NAHDIM_clean_sbu_0, # of connection points: 4
#     Node 7, Type 0, BuildingBlock: NAHDIM_clean_sbu_0, # of connection points: 4
#     Node 8, Type 0, BuildingBlock: NAHDIM_clean_sbu_0, # of connection points: 4
#     Node 9, Type 0, BuildingBlock: NAHDIM_clean_sbu_0, # of connection points: 4
#     Node 10, Type 0, BuildingBlock: NAHDIM_clean_sbu_0, # of connection points: 4
#     Node 11, Type 0, BuildingBlock: NAHDIM_clean_sbu_0, # of connection points: 4
#     Node 12, Type 0, BuildingBlock: NAHDIM_clean_sbu_0, # of connection points: 4
#     Node 13, Type 0, BuildingBlock: NAHDIM_clean_sbu_0, # of connection points: 4
#     Node 14, Type 0, BuildingBlock: NAHDIM_clean_sbu_0, # of connection points: 4
#     Node 15, Type 0, BuildingBlock: NAHDIM_clean_sbu_0, # of connection points: 4
#     Edge 16, Type (0, 0), BuildingBlock: XIVTED_clean_linker_0, # of connection points: 2
#     Edge 17, Type (0, 0), BuildingBlock: XIVTED_clean_linker_0, # of connection points: 2
#     Edge 18, Type (0, 0), BuildingBlock: XIVTED_clean_linker_0, # of connection points: 2
#     Edge 19, Type (0, 0), BuildingBlock: XIVTED_clean_linker_0, # of connection points: 2
#     Edge 20, Type (0, 0), BuildingBlock: XIVTED_clean_linker_0, # of connection points: 2
#     Edge 21, Type (0, 0), BuildingBlock: XIVTED_clean_linker_0, # of connection points: 2
#     Edge 22, Type (0, 0), BuildingBlock: XIVTED_clean_linker_0, # of connection points: 2
#     Edge 23, Type (0, 0), BuildingBlock: XIVTED_clean_linker_0, # of connection points: 2
#     Edge 24, Type (0, 0), BuildingBlock: XIVTED_clean_linker_0, # of connection points: 2
#     Edge 25, Type (0, 0), BuildingBlock: XIVTED_clean_linker_0, # of connection points: 2
#     Edge 26, Type (0, 0), BuildingBlock: XIVTED_clean_linker_0, # of connection points: 2
#     Edge 27, Type (0, 0), BuildingBlock: XIVTED_clean_linker_0, # of connection points: 2
#     Edge 28, Type (0, 0), BuildingBlock: XIVTED_clean_linker_0, # of connection points: 2
#     Edge 29, Type (0, 0), BuildingBlock: XIVTED_clean_linker_0, # of connection points: 2
#     Edge 30, Type (0, 0), BuildingBlock: XIVTED_clean_linker_0, # of connection points: 2
#     Edge 31, Type (0, 0), BuildingBlock: XIVTED_clean_linker_0, # of connection points: 2
#     Edge 32, Type (0, 0), BuildingBlock: XIVTED_clean_linker_0, # of connection points: 2
#     Edge 33, Type (0, 0), BuildingBlock: XIVTED_clean_linker_0, # of connection points: 2
#     Edge 34, Type (0, 0), BuildingBlock: XIVTED_clean_linker_0, # of connection points: 2
#     Edge 35, Type (0, 0), BuildingBlock: XIVTED_clean_linker_0, # of connection points: 2
#     Edge 36, Type (0, 0), BuildingBlock: XIVTED_clean_linker_0, # of connection points: 2
#     Edge 37, Type (0, 0), BuildingBlock: XIVTED_clean_linker_0, # of connection points: 2
#     Edge 38, Type (0, 0), BuildingBlock: XIVTED_clean_linker_0, # of connection points: 2
#     Edge 39, Type (0, 0), BuildingBlock: XIVTED_clean_linker_0, # of connection points: 2
#     Edge 40, Type (0, 0), BuildingBlock: XIVTED_clean_linker_0, # of connection points: 2
#     Edge 41, Type (0, 0), BuildingBlock: XIVTED_clean_linker_0, # of connection points: 2
#     Edge 42, Type (0, 0), BuildingBlock: XIVTED_clean_linker_0, # of connection points: 2
#     Edge 43, Type (0, 0), BuildingBlock: XIVTED_clean_linker_0, # of connection points: 2
#     Edge 44, Type (0, 0), BuildingBlock: XIVTED_clean_linker_0, # of connection points: 2
#     Edge 45, Type (0, 0), BuildingBlock: XIVTED_clean_linker_0, # of connection points: 2
#     Edge 46, Type (0, 0), BuildingBlock: XIVTED_clean_linker_0, # of connection points: 2
#     Edge 47, Type (0, 0), BuildingBlock: XIVTED_clean_linker_0, # of connection points: 2
# Relax obj value: 0.114
# Max RMSD: 0.175
# Mean RMSD: 0.175
data_MOF--net-und--node1-NAHDIM_clean_sbu_0--edge1-XIVTED_clean_linker_0
_symmetry_space_group_name_H-M    P1
_symmetry_Int_Tables_number       1
_symmetry_cell_setting            triclinic
loop_
_symmetry_equiv_pos_as_xyz
'x, y, z'
_cell_length_a     60.355136
_cell_length_b     60.381636
_cell_length_c     21.558711
_cell_angle_alpha  89.984207
_cell_angle_beta   90.134938
_cell_angle_gamma 96.810102
loop_
_atom_site_label
_atom_site_type_symbol
_atom_site_fract_x
_atom_site_fract_y
_atom_site_fract_z
_atom_type_partial_charge
C0 C 0.1845 0.3636 0.13723 0.0
O1 O 0.18921 0.3513 0.18464 0.0
O2 O 0.23226 0.3394 0.17368 0.0
Zn3 Zn 0.22604 0.35151 0.08937 0.0
O4 O 0.25013 0.37539 0.06217 0.0
C5 C 0.23488 0.3096 0.03636 0.0
O6 O 0.23926 0.30464 0.09408 0.0
O7 O 0.19723 0.36499 0.09017 0.0
C8 C 0.2689 0.36964 0.0464 0.0
O9 O 0.27267 0.34885 0.05446 0.0
C10 C 0.24903 0.34572 0.20767 0.0
O11 O 0.26398 0.36187 0.18873 0.0
O12 O 0.22668 0.32761 0.02484 0.0
C13 C 0.88846 0.03575 0.18598 0.0
O14 O 0.88792 0.01706 0.15449 0.0
O15 O 0.93683 0.01002 0.17238 0.0
Zn16 Zn 0.91839 0.01274 0.24918 0.0
O17 O 0.89666 0.98551 0.26515 0.0
C18 C 0.94412 0.00085 0.35128 0.0
O19 O 0.93527 0.981 0.33299 0.0
O20 O 0.90094 0.03845 0.2336 0.0
C21 C 0.88376 0.98723 0.31095 0.0
O22 O 0.88524 0.00618 0.34149 0.0
C23 C 0.95734 0.00716 0.17478 0.0
O24 O 0.96647 0.00363 0.22862 0.0
O25 O 0.93887 0.01798 0.323 0.0
C26 C 0.29836 0.66714 0.5352 0.0
O27 O 0.28509 0.66441 0.4867 0.0
O28 O 0.26299 0.71188 0.6512 0.0
Zn29 Zn 0.26809 0.698 0.56856 0.0
O30 O 0.24218 0.67573 0.54273 0.0
C31 C 0.26565 0.741 0.51196 0.0
O32 O 0.2634 0.74749 0.56949 0.0
O33 O 0.29512 0.68184 0.57518 0.0
C34 C 0.22541 0.68265 0.51647 0.0
O35 O 0.22443 0.70421 0.51208 0.0
C36 C 0.24406 0.71162 0.67694 0.0
O37 O 0.22635 0.70095 0.65023 0.0
O38 O 0.27037 0.72137 0.50156 0.0
C39 C 0.57841 0.95463 0.6754 0.0
O40 O 0.56087 0.95651 0.64052 0.0
O41 O 0.54786 0.00233 0.66498 0.0
Zn42 Zn 0.56906 -0.00358 0.7326 0.0
O43 O 0.59266 0.02212 0.74526 0.0
C44 C 0.53053 0.98711 0.80876 0.0
O45 O 0.52174 0.9785 0.75706 0.0
O46 O 0.58397 0.96907 0.71716 0.0
C47 C 0.58748 0.04112 0.76088 0.0
O48 O 0.56632 0.04429 0.76292 0.0
C49 C 0.55125 0.00514 0.60734 0.0
O50 O 0.5714 0.00475 0.5848 0.0
O51 O 0.55121 0.99407 0.81045 0.0
C52 C 0.76943 0.65413 0.95019 0.0
O53 O 0.76875 0.67294 0.92003 0.0
O54 O 0.72253 0.67812 0.90572 0.0
Zn55 Zn 0.72521 0.66177 0.9857 0.0
O56 O 0.69883 0.63911 0.00105 0.0
C57 C 0.73693 0.70292 0.05463 0.0
O58 O 0.74897 0.70937 0.00576 0.0
O59 O 0.75285 0.64641 0.98307 0.0
C60 C 0.69873 0.62987 0.05402 0.0
O61 O 0.71562 0.63531 0.09181 0.0
C62 C 0.71049 0.69392 0.90135 0.0
O63 O 0.69808 0.69837 0.94869 0.0
O64 O 0.72639 0.68345 0.05597 0.0
C65 C 0.10273 -0.00469 0.8066 0.0
O66 O 0.08268 -0.00173 0.82602 0.0
O67 O 0.07906 0.04313 0.81947 0.0
Zn68 Zn 0.09894 0.03729 0.74822 0.0
O69 O 0.12278 0.06295 0.73707 0.0
C70 C 0.07068 0.01395 0.65509 0.0
O71 O 0.0742 -0.00369 0.68764 0.0
O72 O 0.11303 0.00964 0.77036 0.0
C73 C 0.13588 0.06295 0.69106 0.0
O74 O 0.13332 0.04617 0.65187 0.0
C75 C 0.05835 0.04461 0.81311 0.0
O76 O 0.04978 0.04506 0.75714 0.0
O77 O 0.08035 0.03295 0.67079 0.0
C78 C 0.71293 0.37155 0.50267 0.0
O79 O 0.72538 0.38107 0.54758 0.0
O80 O 0.75461 0.32555 0.41519 0.0
Zn81 Zn 0.74815 0.34292 0.49102 0.0
O82 O 0.7721 0.36803 0.50926 0.0
C83 C 0.73664 0.30305 0.56551 0.0
O84 O 0.72552 0.29529 0.51611 0.0
O85 O 0.71918 0.3549 0.47458 0.0
C86 C 0.79038 0.36347 0.53257 0.0
O87 O 0.79372 0.3425 0.53907 0.0
C88 C 0.76553 0.30881 0.41558 0.0
O89 O 0.77503 0.30324 0.46725 0.0
O90 O 0.74635 0.32288 0.56522 0.0
C91 C 0.4017 0.07608 0.28155 0.0
O92 O 0.42135 0.07106 0.29914 0.0
O93 O 0.42107 0.02385 0.28274 0.0
Zn94 Zn 0.39879 0.03306 0.222 0.0
O95 O 0.3722 0.00994 0.21688 0.0
C96 C 0.43451 0.04189 0.13825 0.0
O97 O 0.44386 0.05148 0.18805 0.0
O98 O 0.38951 0.06265 0.24678 0.0
C99 C 0.37458 0.98941 0.22245 0.0
O100 O 0.3945 0.98365 0.23388 0.0
C101 C 0.41795 0.02081 0.3404 0.0
O102 O 0.39835 0.02306 0.36435 0.0
O103 O 0.41403 0.03416 0.13996 0.0
C104 C 0.70007 0.86499 0.55704 0.0
O105 O 0.71629 0.86264 0.59638 0.0
O106 O 0.73083 0.82113 0.55629 0.0
Zn107 Zn 0.7284 0.84226 0.48564 0.0
O108 O 0.75533 0.865 0.47913 0.0
C109 C 0.7121 0.80695 0.4021 0.0
O110 O 0.69929 0.80027 0.44933 0.0
O111 O 0.7014 0.85765 0.50214 0.0
C112 C 0.77186 0.8609 0.44648 0.0
O113 O 0.7716 0.84119 0.42052 0.0
C114 C 0.74002 0.8033 0.55353 0.0
O115 O 0.75028 0.79848 0.50248 0.0
O116 O 0.72513 0.82498 0.40649 0.0
C117 C 0.37547 0.53767 0.66578 0.0
O118 O 0.37275 0.51936 0.63232 0.0
O119 O 0.41185 0.49926 0.65565 0.0
Zn120 Zn 0.39828 0.50867 0.73511 0.0
O121 O 0.37374 0.48574 0.76613 0.0
C122 C 0.44215 0.51031 0.79373 0.0
O123 O 0.4499 0.51075 0.73683 0.0
O124 O 0.38605 0.53754 0.71683 0.0
C125 C 0.37958 0.4698 0.79858 0.0
O126 O 0.40091 0.46827 0.80669 0.0
C127 C 0.41978 0.48111 0.64475 0.0
O128 O 0.41905 0.46571 0.68794 0.0
O129 O 0.42153 0.51162 0.80261 0.0
C130 C 0.79201 0.1499 0.04321 0.0
O131 O 0.79264 0.16913 0.072 0.0
O132 O 0.74961 0.18307 0.06436 0.0
Zn133 Zn 0.7515 0.16293 0.9908 0.0
O134 O 0.7232 0.14248 0.97767 0.0
C135 C 0.76794 0.20001 0.91022 0.0
O136 O 0.77958 0.2077 0.95882 0.0
O137 O 0.77638 0.14419 0.00473 0.0
C138 C 0.70664 0.14956 0.95082 0.0
O139 O 0.70757 0.17081 0.93673 0.0
C140 C 0.74085 0.20117 0.06205 0.0
O141 O 0.73104 0.20656 0.01069 0.0
O142 O 0.75616 0.18119 0.91345 0.0
C143 C 0.10586 0.49614 0.2084 0.0
O144 O 0.10504 0.51035 0.16252 0.0
O145 O 0.07293 0.53786 0.19433 0.0
Zn146 Zn 0.08982 0.53189 0.27186 0.0
O147 O 0.11571 0.55513 0.2882 0.0
C148 C 0.05048 0.52037 0.34629 0.0
O149 O 0.04452 0.5066 0.30042 0.0
O150 O 0.10037 0.50176 0.26251 0.0
C151 C 0.11158 0.57461 0.30264 0.0
O152 O 0.09083 0.57916 0.30111 0.0
C153 C 0.05548 0.54772 0.19349 0.0
O154 O 0.04882 0.55659 0.2448 0.0
O155 O 0.06934 0.53213 0.34449 0.0
C156 C 0.32354 0.18778 0.50635 0.0
O157 O 0.30474 0.19282 0.48231 0.0
O158 O 0.29669 0.23292 0.54544 0.0
Zn159 Zn 0.30349 0.20792 0.6013 0.0
O160 O 0.27641 0.18503 0.60668 0.0
C161 C 0.31421 0.24107 0.69417 0.0
O162 O 0.31957 0.25361 0.64542 0.0
O163 O 0.32807 0.19312 0.56241 0.0
C164 C 0.26245 0.18545 0.65059 0.0
O165 O 0.26556 0.20131 0.69248 0.0
C166 C 0.27799 0.24059 0.54569 0.0
O167 O 0.26218 0.23187 0.58317 0.0
O168 O 0.30988 0.22013 0.68691 0.0
C169 C 0.5929 0.44968 0.30972 0.0
O170 O 0.58727 0.46764 0.33705 0.0
O171 O 0.54078 0.46726 0.29197 0.0
Zn172 Zn 0.56437 0.46622 0.22715 0.0
O173 O 0.58281 0.49607 0.21948 0.0
C174 C 0.52954 0.45194 0.13912 0.0
O175 O 0.51858 0.44456 0.18899 0.0
O176 O 0.58474 0.44441 0.25655 0.0
C177 C 0.57841 0.51012 0.17865 0.0
O178 O 0.56067 0.5056 0.1434 0.0
C179 C 0.52628 0.48086 0.29153 0.0
O180 O 0.52652 0.49569 0.24688 0.0
O181 O 0.55008 0.45931 0.14389 0.0
C182 C 0.18737 0.88 -0.00219 0.0
O183 O 0.20655 0.87614 0.97385 0.0
O184 O 0.21032 0.83052 0.01927 0.0
Zn185 Zn 0.20507 0.85354 0.08314 0.0
O186 O 0.23285 0.87491 0.09601 0.0
C187 C 0.19399 0.81728 0.16741 0.0
O188 O 0.18924 0.80612 0.11584 0.0
O189 O 0.18159 0.87128 0.0499 0.0
C190 C 0.2473 0.8713 0.13663 0.0
O191 O 0.24451 0.8528 0.16923 0.0
C192 C 0.22828 0.8216 0.01522 0.0
O193 O 0.24487 0.82789 0.05323 0.0
O194 O 0.19817 0.83838 0.16497 0.0
C195 C 0.88036 0.55085 0.83758 0.0
O196 O 0.88236 0.53345 0.87288 0.0
O197 O 0.9295 0.52602 0.84179 0.0
Zn198 Zn 0.90907 0.52792 0.76884 0.0
O199 O 0.88855 0.49977 0.75485 0.0
C200 C 0.94468 0.54699 0.68742 0.0
O201 O 0.95098 0.55989 0.7349 0.0
O202 O 0.8907 0.55266 0.78622 0.0
C203 C 0.89612 0.48259 0.73336 0.0
O204 O 0.91775 0.48287 0.72599 0.0
C205 C 0.94863 0.51932 0.8387 0.0
O206 O 0.95531 0.51145 0.78604 0.0
O207 O 0.9271 0.5333 0.69153 0.0
H208 H 0.21831 0.31788 0.27167 0.0
H209 H 0.30874 0.26737 0.4784 0.0
H210 H 0.28769 0.34532 0.27414 0.0
H211 H 0.23807 0.25499 0.51513 0.0
H212 H 0.3015 0.29578 0.40275 0.0
H213 H 0.22514 0.29459 0.36064 0.0
C214 C 0.23496 0.31913 0.29129 0.0
C215 C 0.25252 0.33341 0.26524 0.0
C216 C 0.2876 0.28699 0.42778 0.0
C217 C 0.26047 0.30667 0.36658 0.0
C218 C 0.2917 0.2707 0.47073 0.0
C219 C 0.27394 0.25868 0.50268 0.0
C220 C 0.26556 0.29107 0.41608 0.0
C221 C 0.25223 0.26381 0.49135 0.0
C222 C 0.23882 0.30588 0.34218 0.0
C223 C 0.2737 0.3345 0.29276 0.0
N224 N 0.24862 0.27947 0.44843 0.0
N225 N 0.27716 0.32107 0.34154 0.0
H226 H 0.9595 0.96745 0.41814 0.0
H227 H 0.05648 0.04763 0.58592 0.0
H228 H 0.96997 0.03875 0.39039 0.0
H229 H 0.04528 0.97634 0.61354 0.0
H230 H 0.02551 0.04471 0.51216 0.0
H231 H 0.99103 0.97052 0.48964 0.0
C232 C 0.96835 0.98379 0.42736 0.0
C233 C 0.9621 0.00288 0.39819 0.0
C234 C 0.02989 0.0297 0.53416 0.0
C235 C -0.00163 0.00649 0.47978 0.0
C236 C 0.04764 0.03133 0.5761 0.0
C237 C 0.05343 0.01219 0.60612 0.0
C238 C 0.01785 0.00879 0.52219 0.0
C239 C 0.04137 0.99154 0.59162 0.0
C240 C 0.98642 0.98552 0.46808 0.0
C241 C 0.9742 0.0236 0.41193 0.0
N242 N 0.02409 0.9904 0.55087 0.0
N243 N 0.99181 0.02485 0.45166 0.0
H244 H 0.2774 0.73272 0.74913 0.0
H245 H 0.19538 0.80078 0.94121 0.0
H246 H 0.20565 0.72183 0.73156 0.0
H247 H 0.26547 0.80216 0.98392 0.0
H248 H 0.1989 0.77201 0.86367 0.0
H249 H 0.27347 0.75808 0.83548 0.0
C250 C 0.2608 0.73553 0.76374 0.0
C251 C 0.24182 0.72525 0.73285 0.0
C252 C 0.21349 0.77852 0.89019 0.0
C253 C 0.23722 0.7544 0.83128 0.0
C254 C 0.21152 0.79503 0.93429 0.0
C255 C 0.2302 0.80397 0.96883 0.0
C256 C 0.23433 0.77102 0.88012 0.0
C257 C 0.25065 0.79577 0.95821 0.0
C258 C 0.25858 0.75 0.81308 0.0
C259 C 0.22074 0.72942 0.75396 0.0
N260 N 0.2522 0.77984 0.91448 0.0
N261 N 0.21901 0.74384 0.80155 0.0
H262 H 0.47964 0.05163 0.12524 0.0
H263 H 0.48497 0.97923 0.81611 0.0
H264 H 0.42126 0.01852 0.03305 0.0
H265 H 0.54303 0.00875 0.91684 0.0
H266 H 0.4612 0.99361 0.8944 0.0
H267 H 0.50301 0.03742 0.04599 0.0
C268 C 0.4717 0.04159 0.08793 0.0
C269 C 0.44847 0.03615 0.08596 0.0
C270 C 0.47915 -0.00318 0.89951 0.0
C271 C 0.47515 0.01957 -0.00443 0.0
C272 C 0.49273 0.98849 0.85506 0.0
C273 C 0.51602 0.99285 0.85982 0.0
C274 C 0.48895 0.00965 0.9489 0.0
C275 C 0.52515 0.005 0.9112 0.0
C276 C 0.48508 0.03335 0.04291 0.0
C277 C 0.43912 0.02308 0.03649 0.0
N278 N 0.51159 0.01308 0.95351 0.0
N279 N 0.45251 0.01512 0.99341 0.0
H280 H 0.19637 0.7726 0.18095 0.0
H281 H 0.25384 0.78344 0.51554 0.0
H282 H 0.20768 0.83506 0.28019 0.0
H283 H 0.25715 0.72758 0.39223 0.0
H284 H 0.23425 0.80195 0.43459 0.0
H285 H 0.21435 0.75453 0.26531 0.0
C286 C 0.20228 0.78247 0.22093 0.0
C287 C 0.20066 0.80544 0.22321 0.0
C288 C 0.23944 0.78571 0.42522 0.0
C289 C 0.22159 0.78488 0.31956 0.0
C290 C 0.25073 0.7752 0.47121 0.0
C291 C 0.25716 0.75392 0.46069 0.0
C292 C 0.23433 0.77475 0.36864 0.0
C293 C 0.25261 0.744 0.40243 0.0
C294 C 0.21276 0.77217 0.26881 0.0
C295 C 0.20865 0.81733 0.27632 0.0
N296 N 0.24131 0.75442 0.35885 0.0
N297 N 0.21891 0.80694 0.32227 0.0
H298 H 0.41882 0.0161 0.46688 0.0
H299 H 0.55044 0.00832 0.48012 0.0
H300 H 0.46062 0.01668 0.30441 0.0
H301 H 0.50808 0.00709 0.64161 0.0
H302 H 0.51771 0.01103 0.41443 0.0
H303 H 0.45136 0.01189 0.5316 0.0
C304 C 0.43479 0.01522 0.44481 0.0
C305 C 0.43701 0.01682 0.38022 0.0
C306 C 0.51562 0.01017 0.46428 0.0
C307 C 0.47433 0.01216 0.45386 0.0
C308 C 0.53431 0.00869 0.50174 0.0
C309 C 0.53201 0.0075 0.5664 0.0
C310 C 0.49455 0.01048 0.49177 0.0
C311 C 0.51068 0.00797 0.59196 0.0
C312 C 0.45339 0.01287 0.48175 0.0
C313 C 0.45813 0.01557 0.35408 0.0
N314 N 0.49281 0.00942 0.5546 0.0
N315 N 0.47598 0.0134 0.39101 0.0
H316 H 0.30164 0.22057 0.80435 0.0
H317 H 0.23983 0.3226 0.91533 0.0
H318 H 0.30855 0.28473 0.71328 0.0
H319 H 0.2531 0.27011 0.04134 0.0
H320 H 0.26133 0.30615 0.83573 0.0
H321 H 0.28183 0.23652 0.88937 0.0
C322 C 0.29937 0.23809 0.80275 0.0
C323 C 0.30665 0.25131 0.75139 0.0
C324 C 0.25947 0.29819 0.88074 0.0
C325 C 0.28354 0.26938 0.84745 0.0
C326 C 0.24696 0.30741 0.92604 0.0
C327 C 0.24469 0.29774 0.98523 0.0
C328 C 0.26961 0.279 0.89432 0.0
C329 C 0.25447 0.27812 -0.00363 0.0
C330 C 0.28796 0.24712 0.85109 0.0
C331 C 0.30322 0.27389 0.75176 0.0
N332 N 0.26654 0.26937 0.95128 0.0
N333 N 0.29163 0.28212 0.79859 0.0
H334 H 0.07026 0.03864 0.93381 0.0
H335 H 0.94466 0.01764 0.05713 0.0
H336 H 0.01281 0.0432 0.81671 0.0
H337 H 0.00238 0.00636 0.16624 0.0
H338 H 0.96914 0.02809 0.96909 0.0
H339 H 0.04544 0.02903 0.02111 0.0
C340 C 0.05242 0.03787 0.92656 0.0
C341 C 0.0436 0.04166 0.86774 0.0
C342 C 0.97641 0.02322 0.01223 0.0
C343 C 0.01504 0.03037 0.96754 0.0
C344 C 0.96245 0.01715 0.06243 0.0
C345 C 0.97149 0.01117 0.11922 0.0
C346 C -0.00042 0.02339 0.01899 0.0
C347 C -0.00534 0.01089 0.12343 0.0
C348 C 0.03824 0.03222 0.97641 0.0
C349 C 0.02034 0.04038 0.86121 0.0
N350 N 0.0079 0.01702 0.07409 0.0
N351 N 0.00684 0.03474 0.91049 0.0
H352 H 0.69142 0.7323 0.8827 0.0
H353 H 0.75521 0.76232 0.56277 0.0
H354 H 0.73564 0.6901 0.79721 0.0
H355 H 0.71694 0.80715 0.66101 0.0
H356 H 0.7471 0.73484 0.64559 0.0
H357 H 0.69873 0.75882 0.79766 0.0
C358 C 0.7025 0.7285 0.84577 0.0
C359 C 0.71298 0.70898 0.8472 0.0
C360 C 0.74055 0.75073 0.64902 0.0
C361 C 0.7216 0.73937 0.74995 0.0
C362 C 0.74524 0.76644 0.60187 0.0
C363 C 0.73675 0.78706 0.60493 0.0
C364 C 0.72722 0.75566 0.69935 0.0
C365 C 0.72386 0.79148 0.65663 0.0
C366 C 0.70677 0.74371 0.79736 0.0
C367 C 0.72723 0.70496 0.79808 0.0
N368 N 0.71944 0.77589 0.70162 0.0
N369 N 0.73118 0.72007 0.75155 0.0
H370 H 0.78238 0.26882 0.40403 0.0
H371 H 0.7266 0.24245 0.07069 0.0
H372 H 0.74581 0.31462 0.30333 0.0
H373 H 0.76261 0.19631 0.17185 0.0
H374 H 0.73406 0.26939 0.15482 0.0
H375 H 0.77667 0.24262 0.31751 0.0
C376 C 0.77335 0.27347 0.3635 0.0
C377 C 0.76447 0.2939 0.36107 0.0
C378 C 0.7403 0.25336 0.15866 0.0
C379 C 0.75766 0.2639 0.26221 0.0
C380 C 0.73596 0.23793 0.11073 0.0
C381 C 0.74396 0.21708 0.11425 0.0
C382 C 0.75274 0.24792 0.21048 0.0
C383 C 0.75607 0.21216 0.16719 0.0
C384 C 0.77 0.25846 0.31423 0.0
C385 C 0.75289 0.29902 0.30736 0.0
N386 N 0.76011 0.22749 0.21317 0.0
N387 N 0.74973 0.28407 0.26024 0.0
H388 H 0.7453 0.18895 0.80259 0.0
H389 H 0.76011 0.31374 0.67207 0.0
H390 H 0.78427 0.244 0.89469 0.0
H391 H 0.72252 0.25839 0.57754 0.0
H392 H 0.76903 0.28844 0.75408 0.0
H393 H 0.73753 0.21394 0.71859 0.0
C394 C 0.75242 0.20626 0.8049 0.0
C395 C 0.76541 0.21442 0.85592 0.0
C396 C 0.75879 0.28182 0.71551 0.0
C397 C 0.75633 0.2432 0.76005 0.0
C398 C 0.75359 0.29628 0.66872 0.0
C399 C 0.74053 0.28817 0.61778 0.0
C400 C 0.7509 0.25905 0.71145 0.0
C401 C 0.7326 0.26538 0.61597 0.0
C402 C 0.74789 0.22055 0.75696 0.0
C403 C 0.77418 0.23699 0.85628 0.0
N404 N 0.73796 0.2516 0.66209 0.0
N405 N 0.76937 0.25063 0.80923 0.0
H406 H 0.75486 0.74668 0.06571 0.0
H407 H 0.69059 0.765 0.38284 0.0
H408 H 0.71155 0.69506 0.15873 0.0
H409 H 0.73762 0.81551 0.29826 0.0
H410 H 0.69638 0.73985 0.29727 0.0
H411 H 0.74768 0.77273 0.14811 0.0
C412 C 0.74393 0.74079 0.10355 0.0
C413 C 0.73381 0.71866 0.10536 0.0
C414 C 0.70536 0.75648 0.29729 0.0
C415 C 0.72538 0.74837 0.19936 0.0
C416 C 0.70198 0.77088 0.34601 0.0
C417 C 0.7137 0.79235 0.34784 0.0
C418 C 0.72057 0.76361 0.25007 0.0
C419 C 0.72827 0.79906 0.29884 0.0
C420 C 0.73979 0.75568 0.15046 0.0
C421 C 0.71974 0.71197 0.15541 0.0
N422 N 0.73136 0.7847 0.25209 0.0
N423 N 0.71592 0.72677 0.20032 0.0
H424 H 0.54656 0.46826 0.02806 0.0
H425 H 0.42878 0.49991 0.9123 0.0
H426 H 0.48435 0.44838 0.1225 0.0
H427 H 0.48657 0.50439 0.79313 0.0
H428 H 0.45012 0.48388 0.99328 0.0
H429 H 0.52575 0.48299 0.94296 0.0
C430 C 0.52851 0.46665 0.03049 0.0
C431 C 0.51719 0.45714 0.08269 0.0
C432 C 0.45817 0.48842 0.94949 0.0
C433 C 0.49339 0.47439 0.98616 0.0
C434 C 0.44606 0.4978 0.90334 0.0
C435 C 0.45589 0.5035 0.84567 0.0
C436 C 0.48036 0.48483 0.93829 0.0
C437 C 0.47832 0.50024 0.83685 0.0
C438 C 0.51668 0.47517 0.98203 0.0
C439 C 0.4938 0.45557 0.08331 0.0
N440 N 0.48982 0.49109 0.88269 0.0
N441 N 0.48272 0.46434 0.03613 0.0
H442 H 0.00755 0.50062 0.36092 0.0
H443 H 0.98652 0.56915 0.66902 0.0
H444 H 0.05725 0.5488 0.445 0.0
H445 H 0.93684 0.52126 0.58373 0.0
H446 H 0.01223 0.56314 0.58487 0.0
H447 H 0.98113 0.50853 0.4413 0.0
C448 C 0.01294 0.51278 0.39642 0.0
C449 C 0.03464 0.52403 0.39629 0.0
C450 C -0.00436 0.55406 0.58442 0.0
C451 C 0.00447 0.5333 0.48811 0.0
C452 C 0.98092 0.55757 0.63229 0.0
C453 C 0.95954 0.54562 0.63359 0.0
C454 C 0.98892 0.53847 0.53765 0.0
C455 C 0.9532 0.53078 0.5848 0.0
C456 C -0.00217 0.51736 0.44217 0.0
C457 C 0.04069 0.53969 0.44333 0.0
N458 N 0.96787 0.52754 0.53905 0.0
N459 N 0.02568 0.54387 0.48731 0.0
H460 H 0.06399 0.52998 0.08043 0.0
H461 H 0.94074 0.53734 0.9517 0.0
H462 H 0.01382 0.56082 0.1804 0.0
H463 H 0.99192 0.51001 0.8465 0.0
H464 H 0.96729 0.54576 0.03623 0.0
H465 H 0.03813 0.52311 0.99351 0.0
C466 C 0.04761 0.53552 0.08389 0.0
C467 C 0.04102 0.54592 0.13793 0.0
C468 C 0.97272 0.5379 -0.00529 0.0
C469 C 0.01125 0.53785 0.03879 0.0
C470 C 0.95753 0.53298 0.94648 0.0
C471 C 0.96412 0.52295 0.89186 0.0
C472 C -0.00532 0.53274 0.98846 0.0
C473 C 0.98611 0.51773 0.88776 0.0
C474 C 0.03282 0.53151 0.03429 0.0
C475 C 0.01961 0.55274 0.13972 0.0
N476 N 0.00062 0.52271 0.93542 0.0
N477 N 0.00543 0.54845 0.09102 0.0
H478 H 0.42223 0.50856 0.54364 0.0
H479 H 0.51984 0.45041 0.38543 0.0
H480 H 0.44623 0.44885 0.61442 0.0
H481 H 0.49328 0.50783 0.30836 0.0
H482 H 0.4917 0.44851 0.4667 0.0
H483 H 0.44644 0.5072 0.45369 0.0
C484 C 0.43246 0.49503 0.54001 0.0
C485 C 0.43238 0.4789 0.58693 0.0
C486 C 0.49194 0.46148 0.4319 0.0
C487 C 0.46027 0.47737 0.48421 0.0
C488 C 0.50806 0.46263 0.38552 0.0
C489 C 0.50901 0.47942 0.34023 0.0
C490 C 0.47669 0.47729 0.43329 0.0
C491 C 0.49323 0.49468 0.34252 0.0
C492 C 0.4463 0.49429 0.48861 0.0
C493 C 0.44583 0.46169 0.5795 0.0
N494 N 0.47777 0.49332 0.38851 0.0
N495 N 0.4594 0.46149 0.52936 0.0
H496 H 0.11046 0.46282 0.29239 0.0
H497 H 0.16957 0.39026 0.04754 0.0
H498 H 0.11835 0.47927 0.09813 0.0
H499 H 0.16066 0.37231 0.24054 0.0
H500 H 0.1464 0.42024 0.06274 0.0
H501 H 0.12495 0.42736 0.27242 0.0
C502 C 0.11513 0.45894 0.24551 0.0
C503 C 0.11346 0.47415 0.19699 0.0
C504 C 0.14928 0.4096 0.10165 0.0
C505 C 0.12997 0.43363 0.17381 0.0
C506 C 0.16247 0.39242 0.09295 0.0
C507 C 0.16735 0.37899 0.14309 0.0
C508 C 0.14105 0.4135 0.16104 0.0
C509 C 0.15751 0.38241 0.2007 0.0
C510 C 0.12334 0.43867 0.23411 0.0
C511 C 0.11957 0.46816 0.13709 0.0
N512 N 0.14508 0.39955 0.20834 0.0
N513 N 0.12771 0.44846 0.1273 0.0
H514 H 0.7781 0.90316 0.49432 0.0
H515 H 0.87852 0.94458 0.26482 0.0
H516 H 0.80664 0.85967 0.36572 0.0
H517 H 0.8533 0.98621 0.40458 0.0
H518 H 0.85255 0.91313 0.30136 0.0
H519 H 0.80614 0.93358 0.46334 0.0
C520 C 0.79037 0.89996 0.45987 0.0
C521 C 0.78995 0.87887 0.43232 0.0
C522 C 0.85274 0.92914 0.32408 0.0
C523 C 0.82201 0.91369 0.39622 0.0
C524 C 0.8675 0.94712 0.3031 0.0
C525 C 0.86802 0.96807 0.33156 0.0
C526 C 0.83836 0.93217 0.37371 0.0
C527 C 0.85345 0.97037 0.38115 0.0
C528 C 0.80637 0.91735 0.44213 0.0
C529 C 0.80631 0.87568 0.38809 0.0
N530 N 0.83919 0.95266 0.40053 0.0
N531 N 0.82159 0.89295 0.37109 0.0
H532 H 0.3259 0.66581 0.63612 0.0
H533 H 0.35521 0.54363 0.55485 0.0
H534 H 0.30648 0.631 0.46598 0.0
H535 H 0.37575 0.57808 0.72472 0.0
H536 H 0.33995 0.57684 0.5183 0.0
H537 H 0.34739 0.63557 0.66514 0.0
C538 C 0.32639 0.65196 0.60444 0.0
C539 C 0.31414 0.65082 0.54882 0.0
C540 C 0.34786 0.57722 0.56348 0.0
C541 C 0.33854 0.61605 0.58212 0.0
C542 C 0.35653 0.5582 0.58454 0.0
C543 C 0.36661 0.558 0.64322 0.0
C544 C 0.34915 0.59621 0.60142 0.0
C545 C 0.368 0.57746 0.67932 0.0
C546 C 0.33861 0.63466 0.62118 0.0
C547 C 0.3155 0.63252 0.50953 0.0
N548 N 0.35924 0.59576 0.65797 0.0
N549 N 0.32728 0.61576 0.52723 0.0
H550 H 0.70368 0.10405 0.94985 0.0
H551 H 0.58351 0.08465 0.79086 0.0
H552 H 0.66726 0.15872 0.89878 0.0
H553 H 0.63092 0.03643 0.78715 0.0
H554 H 0.61192 0.1115 0.83976 0.0
H555 H 0.67445 0.07812 0.90241 0.0
C556 C 0.68943 0.1106 0.92921 0.0
C557 C 0.68796 0.13361 0.92801 0.0
C558 C 0.61607 0.09507 0.82784 0.0
C559 C 0.6545 0.10399 0.87332 0.0
C560 C 0.59991 0.07976 0.7999 0.0
C561 C 0.60485 0.05826 0.78496 0.0
C562 C 0.63715 0.08866 0.84166 0.0
C563 C 0.62637 0.05282 0.79772 0.0
C564 C 0.67283 0.09579 0.90172 0.0
C565 C 0.6691 0.14112 0.90048 0.0
N566 N 0.64165 0.06785 0.82576 0.0
N567 N 0.65307 0.12633 0.87413 0.0
H568 H 0.15454 0.56824 0.33221 0.0
H569 H 0.18597 0.69158 0.46536 0.0
H570 H 0.1089 0.61818 0.33293 0.0
H571 H 0.22575 0.6378 0.4979 0.0
H572 H 0.15873 0.66572 0.40979 0.0
H573 H 0.18239 0.5946 0.38418 0.0
C574 C 0.15044 0.58482 0.34276 0.0
C575 C 0.12932 0.59099 0.32844 0.0
C576 C 0.17338 0.65956 0.42929 0.0
C577 C 0.16106 0.62116 0.38824 0.0
C578 C 0.18892 0.6743 0.46112 0.0
C579 C 0.20814 0.66682 0.48644 0.0
C580 C 0.17715 0.6372 0.42226 0.0
C581 C 0.21112 0.64426 0.47939 0.0
C582 C 0.1663 0.5998 0.37277 0.0
C583 C 0.12493 0.61267 0.34333 0.0
N584 N 0.19582 0.63025 0.44771 0.0
N585 N 0.14065 0.62696 0.37253 0.0
H586 H 0.57824 0.9275 0.57322 0.0
H587 H 0.69262 0.88221 0.67098 0.0
H588 H 0.61296 0.9434 0.74582 0.0
H589 H 0.66316 0.87236 0.48885 0.0
H590 H 0.66095 0.90089 0.70312 0.0
H591 H 0.6064 0.9031 0.54609 0.0
C592 C 0.5916 0.92563 0.60575 0.0
C593 C 0.5934 0.93767 0.66157 0.0
C594 C 0.66135 0.8946 0.65615 0.0
C595 C 0.62563 0.90997 0.63073 0.0
C596 C 0.67947 0.88395 0.6377 0.0
C597 C 0.68064 0.87589 0.57695 0.0
C598 C 0.64422 0.89726 0.61359 0.0
C599 C 0.663 0.87848 0.53603 0.0
C600 C 0.60771 0.9118 0.5901 0.0
C601 C 0.61104 0.93463 0.70199 0.0
N602 N 0.64553 0.88905 0.55503 0.0
N603 N 0.62653 0.9212 0.68558 0.0
H604 H 0.38642 0.43153 0.85885 0.0
H605 H 0.26376 0.41138 0.00257 0.0
H606 H 0.33496 0.47303 0.81524 0.0
H607 H 0.31145 0.36357 0.01388 0.0
H608 H 0.2904 0.43571 0.94041 0.0
H609 H 0.35967 0.40757 0.92074 0.0
C610 C 0.36944 0.43554 0.862 0.0
C611 C 0.36291 0.45432 0.83186 0.0
C612 C 0.29502 0.41991 0.95664 0.0
C613 C 0.33222 0.42704 0.90332 0.0
C614 C 0.27989 0.40608 0.99246 0.0
C615 C 0.28539 0.3854 0.0134 0.0
C616 C 0.31583 0.41306 0.94206 0.0
C617 C 0.30649 0.37935 -0.00136 0.0
C618 C 0.35417 0.42185 0.89743 0.0
C619 C 0.34067 0.45867 0.83755 0.0
N620 N 0.32092 0.39311 0.96389 0.0
N621 N 0.32612 0.44518 0.87297 0.0
H622 H 0.79592 0.1093 0.99094 0.0
H623 H 0.88659 0.07726 0.23648 0.0
H624 H 0.82416 0.15425 0.13387 0.0
H625 H 0.86003 0.03431 0.08722 0.0
H626 H 0.86441 0.10601 0.19926 0.0
H627 H 0.82021 0.08207 0.02439 0.0
C628 C 0.80734 0.11351 0.02914 0.0
C629 C 0.80793 0.13406 0.05982 0.0
C630 C 0.86349 0.0903 0.17465 0.0
C631 C 0.83572 0.10283 0.09874 0.0
C632 C 0.8761 0.07387 0.19595 0.0
C633 C 0.87513 0.05334 0.16499 0.0
C634 C 0.8498 0.08611 0.12212 0.0
C635 C 0.8613 0.04986 0.11263 0.0
C636 C 0.8212 0.09792 0.0483 0.0
C637 C 0.82312 0.1386 0.10892 0.0
N638 N 0.84917 0.06606 0.09296 0.0
N639 N 0.83633 0.12305 0.12712 0.0
H640 H 0.77766 0.61632 0.01156 0.0
H641 H 0.87399 0.59003 0.7795 0.0
H642 H 0.80363 0.66145 0.86667 0.0
H643 H 0.85406 0.55007 0.94052 0.0
H644 H 0.84902 0.61695 0.81177 0.0
H645 H 0.80647 0.59249 0.98809 0.0
C646 C 0.78954 0.62131 0.97511 0.0
C647 C 0.78813 0.64081 0.94068 0.0
C648 C 0.85022 0.60235 0.8402 0.0
C649 C 0.82105 0.6135 0.91317 0.0
C650 C 0.86442 0.58695 0.8217 0.0
C651 C 0.86599 0.5677 0.85715 0.0
C652 C 0.83742 0.59837 0.89428 0.0
C653 C 0.8533 0.56462 0.91159 0.0
C654 C 0.806 0.60769 0.96172 0.0
C655 C 0.80405 0.64652 0.89424 0.0
N656 N 0.83946 0.57972 0.92826 0.0
N657 N 0.81973 0.6328 0.88143 0.0
H658 H 0.22963 0.1815 0.73845 0.0
H659 H 0.1671 0.06805 0.59856 0.0
H660 H 0.25119 0.14986 0.57321 0.0
H661 H 0.146 0.09984 0.76411 0.0
H662 H 0.19744 0.09834 0.58676 0.0
H663 H 0.19829 0.15219 0.74682 0.0
C664 C 0.22775 0.16841 0.70382 0.0
C665 C 0.2431 0.1681 0.65515 0.0
C666 C 0.18614 0.09871 0.62559 0.0
C667 C 0.20723 0.13444 0.66452 0.0
C668 C 0.16881 0.08141 0.63237 0.0
C669 C 0.15402 0.08138 0.6825 0.0
C670 C 0.18871 0.11608 0.66927 0.0
C671 C 0.15703 0.09915 0.72481 0.0
C672 C 0.20984 0.15167 0.70865 0.0
C673 C 0.23979 0.15074 0.61158 0.0
N674 N 0.17405 0.11575 0.71729 0.0
N675 N 0.22224 0.13457 0.61738 0.0
H676 H 0.69509 0.40789 0.54852 0.0
H677 H 0.6083 0.41127 0.26845 0.0
H678 H 0.68571 0.35773 0.40506 0.0
H679 H 0.61393 0.45801 0.42082 0.0
H680 H 0.63582 0.39066 0.31933 0.0
H681 H 0.66431 0.42567 0.50449 0.0
C682 C 0.68646 0.40051 0.50809 0.0
C683 C 0.6931 0.38139 0.48023 0.0
C684 C 0.63093 0.40537 0.34173 0.0
C685 C 0.65796 0.40173 0.42925 0.0
C686 C 0.61526 0.41715 0.31264 0.0
C687 C 0.60889 0.43645 0.34024 0.0
C688 C 0.64036 0.41302 0.39864 0.0
C689 C 0.61839 0.44327 0.39766 0.0
C690 C 0.66889 0.41068 0.48289 0.0
C691 C 0.68125 0.37252 0.42795 0.0
N692 N 0.63371 0.43164 0.42477 0.0
N693 N 0.66437 0.38286 0.40391 0.0
H694 H 0.33328 -0.00487 0.17729 0.0
H695 H 0.28412 0.86697 0.2079 0.0
H696 H 0.3723 0.94452 0.24404 0.0
H697 H 0.2541 0.91421 0.09402 0.0
H698 H 0.31513 0.89574 0.23054 0.0
H699 H 0.30234 0.96623 0.15643 0.0
C700 C 0.33531 0.97795 0.18787 0.0
C701 C 0.35542 0.97221 0.21231 0.0
C702 C 0.30178 0.89975 0.20045 0.0
C703 C 0.32008 0.93908 0.1885 0.0
C704 C 0.28407 0.88337 0.18757 0.0
C705 C 0.26652 0.88821 0.14899 0.0
C706 C 0.30178 0.92117 0.17515 0.0
C707 C 0.26732 0.90973 0.12385 0.0
C708 C 0.31768 0.96145 0.17564 0.0
C709 C 0.35712 0.94967 0.22496 0.0
N710 N 0.28461 0.92545 0.13763 0.0
N711 N 0.33964 0.9339 0.213 0.0
H712 H 0.78465 0.40727 0.55073 0.0
H713 H 0.90601 0.44192 0.69272 0.0
H714 H 0.8326 0.36028 0.57541 0.0
H715 H 0.85104 0.48083 0.7165 0.0
H716 H 0.88055 0.41269 0.64262 0.0
H717 H 0.81036 0.4358 0.60212 0.0
C718 C 0.80067 0.403 0.56646 0.0
C719 C 0.80649 0.38135 0.55885 0.0
C720 C 0.87407 0.42758 0.6592 0.0
C721 C 0.83591 0.4139 0.618 0.0
C722 C 0.88857 0.44424 0.68786 0.0
C723 C 0.88064 0.46386 0.70872 0.0
C724 C 0.85158 0.4307 0.65068 0.0
C725 C 0.85788 0.46598 0.70123 0.0
C726 C 0.81526 0.41925 0.59621 0.0
C727 C 0.82742 0.37675 0.58046 0.0
N728 N 0.84419 0.44969 0.67236 0.0
N729 N 0.84141 0.3929 0.60902 0.0
H730 H 0.36284 0.17244 0.54148 0.0
H731 H 0.36472 0.09453 0.24408 0.0
H732 H 0.31705 0.17318 0.38748 0.0
H733 H 0.41814 0.10229 0.37873 0.0
H734 H 0.34794 0.12458 0.29453 0.0
H735 H 0.38437 0.14795 0.48161 0.0
C736 C 0.35743 0.16762 0.49496 0.0
C737 C 0.33799 0.17467 0.4697 0.0
C738 C 0.36345 0.11988 0.31276 0.0
C739 C 0.36241 0.14666 0.40125 0.0
C740 C 0.37302 0.1027 0.28397 0.0
C741 C 0.39275 0.09579 0.30754 0.0
C742 C 0.37351 0.13007 0.36601 0.0
C743 C 0.40287 0.10706 0.35912 0.0
C744 C 0.36973 0.15368 0.4608 0.0
C745 C 0.3318 0.16801 0.40911 0.0
N746 N 0.39299 0.12349 0.38714 0.0
N747 N 0.34385 0.15424 0.37724 0.0
H748 H 0.61596 0.52524 0.24462 0.0
H749 H 0.65992 0.61648 0.99098 0.0
H750 H 0.57774 0.53999 0.08336 0.0
H751 H 0.69464 0.60612 0.16198 0.0
H752 H 0.62922 0.58908 0.0248 0.0
H753 H 0.64437 0.55576 0.2167 0.0
C754 C 0.61345 0.53502 0.20361 0.0
C755 C 0.59452 0.52995 0.16601 0.0
C756 C 0.64352 0.59288 0.05499 0.0
C757 C 0.6271 0.56479 0.13344 0.0
C758 C 0.66108 0.60846 0.03562 0.0
C759 C 0.67992 0.6135 0.07358 0.0
C760 C 0.64487 0.58221 0.11257 0.0
C761 C 0.68049 0.60269 0.13109 0.0
C762 C 0.6297 0.55243 0.18764 0.0
C763 C 0.5921 0.54326 0.11358 0.0
N764 N 0.66327 0.58749 0.1487 0.0
N765 N 0.60831 0.55995 0.09855 0.0
H766 H 0.19685 0.90242 0.88956 0.0
H767 H 0.0871 0.96456 0.89396 0.0
H768 H 0.14659 0.89199 0.03222 0.0
H769 H 0.1432 0.98282 0.7729 0.0
H770 H 0.10644 0.93478 0.93733 0.0
H771 H 0.17515 0.92874 0.8388 0.0
C772 C 0.18118 0.90558 0.91015 0.0
C773 C 0.1736 0.89509 0.96553 0.0
C774 C 0.11447 0.94524 0.90111 0.0
C775 C 0.14863 0.92529 0.90741 0.0
C776 C 0.10342 0.96222 0.87616 0.0
C777 C 0.11362 0.9763 0.82997 0.0
C778 C 0.13582 0.94225 0.87953 0.0
C779 C 0.13477 0.97245 0.80867 0.0
C780 C 0.16881 0.92067 0.8811 0.0
C781 C 0.15312 0.8998 0.98979 0.0
N782 N 0.14519 0.95582 0.83377 0.0
N783 N 0.14136 0.91463 0.96063 0.0
loop_
_geom_bond_atom_site_label_1
_geom_bond_atom_site_label_2
_geom_bond_distance
_geom_bond_site_symmetry_2
_ccdc_geom_bond_type
C0 O1 1.160 . S
C0 O7 1.185 . S
O1 C0 1.160 . S
O2 Zn3 1.899 . S
O2 C10 1.284 . S
Zn3 O2 1.899 . S
Zn3 O4 2.032 . S
Zn3 O7 2.086 . S
Zn3 O12 1.977 1_554 S
O4 Zn3 2.032 . S
O4 C8 1.278 1_554 S
C5 O6 1.203 . S
C5 O12 1.267 . S
O6 C5 1.203 . S
O7 C0 1.185 . S
O7 Zn3 2.086 . S
C8 O4 1.278 1_556 S
C8 O9 1.211 . S
O9 C8 1.211 . S
C10 O2 1.284 . S
C10 O11 1.273 . S
O11 C10 1.273 . S
O12 Zn3 1.977 1_556 S
O12 C5 1.267 . S
C13 O14 1.160 . S
C13 O20 1.185 . S
O14 C13 1.160 . S
O15 Zn16 1.899 . S
O15 C23 1.284 . S
Zn16 O15 1.899 . S
Zn16 O17 2.032 . S
Zn16 O20 2.086 . S
Zn16 O25 1.977 . S
O17 Zn16 2.032 . S
O17 C21 1.278 1_545 S
C18 O19 1.203 . S
C18 O25 1.267 . S
O19 C18 1.203 . S
O20 C13 1.185 . S
O20 Zn16 2.086 . S
C21 O17 1.278 1_565 S
C21 O22 1.211 . S
O22 C21 1.211 . S
C23 O15 1.284 . S
C23 O24 1.273 1_545 S
O24 C23 1.273 1_565 S
O25 Zn16 1.977 . S
O25 C18 1.267 . S
C26 O27 1.160 . S
C26 O33 1.185 . S
O27 C26 1.160 . S
O28 Zn29 1.899 . S
O28 C36 1.284 . S
Zn29 O28 1.899 . S
Zn29 O30 2.032 . S
Zn29 O33 2.086 . S
Zn29 O38 1.977 . S
O30 Zn29 2.032 . S
O30 C34 1.278 . S
C31 O32 1.203 . S
C31 O38 1.267 . S
O32 C31 1.203 . S
O33 C26 1.185 . S
O33 Zn29 2.086 . S
C34 O30 1.278 . S
C34 O35 1.211 . S
O35 C34 1.211 . S
C36 O28 1.284 . S
C36 O37 1.273 . S
O37 C36 1.273 . S
O38 Zn29 1.977 . S
O38 C31 1.267 . S
C39 O40 1.160 . S
C39 O46 1.185 . S
O40 C39 1.160 . S
O41 Zn42 1.899 . S
O41 C49 1.284 . S
Zn42 O41 1.899 . S
Zn42 O43 2.032 . S
Zn42 O46 2.086 1_545 S
Zn42 O51 1.977 . S
O43 Zn42 2.032 . S
O43 C47 1.278 . S
C44 O45 1.203 . S
C44 O51 1.267 . S
O45 C44 1.203 . S
O46 C39 1.185 . S
O46 Zn42 2.086 1_565 S
C47 O43 1.278 . S
C47 O48 1.211 . S
O48 C47 1.211 . S
C49 O41 1.284 . S
C49 O50 1.273 . S
O50 C49 1.273 . S
O51 Zn42 1.977 . S
O51 C44 1.267 . S
C52 O53 1.160 . S
C52 O59 1.185 1_556 S
O53 C52 1.160 . S
O54 Zn55 1.899 1_556 S
O54 C62 1.284 . S
Zn55 O54 1.899 1_554 S
Zn55 O56 2.032 . S
Zn55 O59 2.086 . S
Zn55 O64 1.977 . S
O56 Zn55 2.032 . S
O56 C60 1.278 . S
C57 O58 1.203 . S
C57 O64 1.267 . S
O58 C57 1.203 . S
O59 C52 1.185 1_554 S
O59 Zn55 2.086 . S
C60 O56 1.278 . S
C60 O61 1.211 . S
O61 C60 1.211 . S
C62 O54 1.284 . S
C62 O63 1.273 . S
O63 C62 1.273 . S
O64 Zn55 1.977 . S
O64 C57 1.267 . S
C65 O66 1.160 . S
C65 O72 1.185 . S
O66 C65 1.160 . S
O67 Zn68 1.899 . S
O67 C75 1.284 . S
Zn68 O67 1.899 . S
Zn68 O69 2.032 . S
Zn68 O72 2.086 1_545 S
Zn68 O77 1.977 . S
O69 Zn68 2.032 . S
O69 C73 1.278 . S
C70 O71 1.203 . S
C70 O77 1.267 . S
O71 C70 1.203 . S
O72 C65 1.185 . S
O72 Zn68 2.086 1_565 S
C73 O69 1.278 . S
C73 O74 1.211 . S
O74 C73 1.211 . S
C75 O67 1.284 . S
C75 O76 1.273 . S
O76 C75 1.273 . S
O77 Zn68 1.977 . S
O77 C70 1.267 . S
C78 O79 1.160 . S
C78 O85 1.185 . S
O79 C78 1.160 . S
O80 Zn81 1.899 . S
O80 C88 1.284 . S
Zn81 O80 1.899 . S
Zn81 O82 2.032 . S
Zn81 O85 2.086 . S
Zn81 O90 1.977 . S
O82 Zn81 2.032 . S
O82 C86 1.278 . S
C83 O84 1.203 . S
C83 O90 1.267 . S
O84 C83 1.203 . S
O85 C78 1.185 . S
O85 Zn81 2.086 . S
C86 O82 1.278 . S
C86 O87 1.211 . S
O87 C86 1.211 . S
C88 O80 1.284 . S
C88 O89 1.273 . S
O89 C88 1.273 . S
O90 Zn81 1.977 . S
O90 C83 1.267 . S
C91 O92 1.160 . S
C91 O98 1.185 . S
O92 C91 1.160 . S
O93 Zn94 1.899 . S
O93 C101 1.284 . S
Zn94 O93 1.899 . S
Zn94 O95 2.032 . S
Zn94 O98 2.086 . S
Zn94 O103 1.977 . S
O95 Zn94 2.032 . S
O95 C99 1.278 1_545 S
C96 O97 1.203 . S
C96 O103 1.267 . S
O97 C96 1.203 . S
O98 C91 1.185 . S
O98 Zn94 2.086 . S
C99 O95 1.278 1_565 S
C99 O100 1.211 . S
O100 C99 1.211 . S
C101 O93 1.284 . S
C101 O102 1.273 1_545 S
O102 C101 1.273 1_565 S
O103 Zn94 1.977 . S
O103 C96 1.267 . S
C104 O105 1.160 . S
C104 O111 1.185 . S
O105 C104 1.160 . S
O106 Zn107 1.899 . S
O106 C114 1.284 . S
Zn107 O106 1.899 . S
Zn107 O108 2.032 . S
Zn107 O111 2.086 . S
Zn107 O116 1.977 . S
O108 Zn107 2.032 . S
O108 C112 1.278 . S
C109 O110 1.203 . S
C109 O116 1.267 . S
O110 C109 1.203 . S
O111 C104 1.185 . S
O111 Zn107 2.086 . S
C112 O108 1.278 . S
C112 O113 1.211 . S
O113 C112 1.211 . S
C114 O106 1.284 . S
C114 O115 1.273 . S
O115 C114 1.273 . S
O116 Zn107 1.977 . S
O116 C109 1.267 . S
C117 O118 1.160 . S
C117 O124 1.185 . S
O118 C117 1.160 . S
O119 Zn120 1.899 . S
O119 C127 1.284 . S
Zn120 O119 1.899 . S
Zn120 O121 2.032 . S
Zn120 O124 2.086 . S
Zn120 O129 1.977 . S
O121 Zn120 2.032 . S
O121 C125 1.278 . S
C122 O123 1.203 . S
C122 O129 1.267 . S
O123 C122 1.203 . S
O124 C117 1.185 . S
O124 Zn120 2.086 . S
C125 O121 1.278 . S
C125 O126 1.211 . S
O126 C125 1.211 . S
C127 O119 1.284 . S
C127 O128 1.273 . S
O128 C127 1.273 . S
O129 Zn120 1.977 . S
O129 C122 1.267 . S
C130 O131 1.160 . S
C130 O137 1.185 . S
O131 C130 1.160 . S
O132 Zn133 1.899 . S
O132 C140 1.284 . S
Zn133 O132 1.899 . S
Zn133 O134 2.032 . S
Zn133 O137 2.086 . S
Zn133 O142 1.977 1_554 S
O134 Zn133 2.032 . S
O134 C138 1.278 1_554 S
C135 O136 1.203 . S
C135 O142 1.267 . S
O136 C135 1.203 . S
O137 C130 1.185 . S
O137 Zn133 2.086 . S
C138 O134 1.278 1_556 S
C138 O139 1.211 . S
O139 C138 1.211 . S
C140 O132 1.284 . S
C140 O141 1.273 . S
O141 C140 1.273 . S
O142 Zn133 1.977 1_556 S
O142 C135 1.267 . S
C143 O144 1.160 . S
C143 O150 1.185 . S
O144 C143 1.160 . S
O145 Zn146 1.899 . S
O145 C153 1.284 . S
Zn146 O145 1.899 . S
Zn146 O147 2.032 . S
Zn146 O150 2.086 . S
Zn146 O155 1.977 . S
O147 Zn146 2.032 . S
O147 C151 1.278 . S
C148 O149 1.203 . S
C148 O155 1.267 . S
O149 C148 1.203 . S
O150 C143 1.185 . S
O150 Zn146 2.086 . S
C151 O147 1.278 . S
C151 O152 1.211 . S
O152 C151 1.211 . S
C153 O145 1.284 . S
C153 O154 1.273 . S
O154 C153 1.273 . S
O155 Zn146 1.977 . S
O155 C148 1.267 . S
C156 O157 1.160 . S
C156 O163 1.185 . S
O157 C156 1.160 . S
O158 Zn159 1.899 . S
O158 C166 1.284 . S
Zn159 O158 1.899 . S
Zn159 O160 2.032 . S
Zn159 O163 2.086 . S
Zn159 O168 1.977 . S
O160 Zn159 2.032 . S
O160 C164 1.278 . S
C161 O162 1.203 . S
C161 O168 1.267 . S
O162 C161 1.203 . S
O163 C156 1.185 . S
O163 Zn159 2.086 . S
C164 O160 1.278 . S
C164 O165 1.211 . S
O165 C164 1.211 . S
C166 O158 1.284 . S
C166 O167 1.273 . S
O167 C166 1.273 . S
O168 Zn159 1.977 . S
O168 C161 1.267 . S
C169 O170 1.160 . S
C169 O176 1.185 . S
O170 C169 1.160 . S
O171 Zn172 1.899 . S
O171 C179 1.284 . S
Zn172 O171 1.899 . S
Zn172 O173 2.032 . S
Zn172 O176 2.086 . S
Zn172 O181 1.977 . S
O173 Zn172 2.032 . S
O173 C177 1.278 . S
C174 O175 1.203 . S
C174 O181 1.267 . S
O175 C174 1.203 . S
O176 C169 1.185 . S
O176 Zn172 2.086 . S
C177 O173 1.278 . S
C177 O178 1.211 . S
O178 C177 1.211 . S
C179 O171 1.284 . S
C179 O180 1.273 . S
O180 C179 1.273 . S
O181 Zn172 1.977 . S
O181 C174 1.267 . S
C182 O183 1.160 . S
C182 O189 1.185 1_556 S
O183 C182 1.160 . S
O184 Zn185 1.899 1_556 S
O184 C192 1.284 . S
Zn185 O184 1.899 1_554 S
Zn185 O186 2.032 . S
Zn185 O189 2.086 . S
Zn185 O194 1.977 . S
O186 Zn185 2.032 . S
O186 C190 1.278 . S
C187 O188 1.203 . S
C187 O194 1.267 . S
O188 C187 1.203 . S
O189 C182 1.185 1_554 S
O189 Zn185 2.086 . S
C190 O186 1.278 . S
C190 O191 1.211 . S
O191 C190 1.211 . S
C192 O184 1.284 . S
C192 O193 1.273 . S
O193 C192 1.273 . S
O194 Zn185 1.977 . S
O194 C187 1.267 . S
C195 O196 1.160 . S
C195 O202 1.185 . S
O196 C195 1.160 . S
O197 Zn198 1.899 . S
O197 C205 1.284 . S
Zn198 O197 1.899 . S
Zn198 O199 2.032 . S
Zn198 O202 2.086 . S
Zn198 O207 1.977 . S
O199 Zn198 2.032 . S
O199 C203 1.278 . S
C200 O201 1.203 . S
C200 O207 1.267 . S
O201 C200 1.203 . S
O202 C195 1.185 . S
O202 Zn198 2.086 . S
C203 O199 1.278 . S
C203 O204 1.211 . S
O204 C203 1.211 . S
C205 O197 1.284 . S
C205 O206 1.273 . S
O206 C205 1.273 . S
O207 Zn198 1.977 . S
O207 C200 1.267 . S
H208 C214 0.930 . S
H209 C218 0.930 . S
H210 C223 0.929 . S
H211 C221 0.929 . S
H212 C216 0.929 . S
H213 C222 0.929 . S
C214 H208 0.930 . S
C214 C215 1.367 . S
C214 C222 1.378 . S
C215 C214 1.367 . S
C215 C223 1.433 . S
C216 H212 0.929 . S
C216 C218 1.378 . S
C216 C220 1.350 . S
C217 C220 1.463 . S
C217 C222 1.350 . S
C217 N225 1.427 . S
C218 H209 0.930 . S
C218 C216 1.378 . S
C218 C219 1.367 . S
C219 C218 1.367 . S
C219 C221 1.433 . S
C220 C216 1.350 . S
C220 C217 1.463 . S
C220 N224 1.427 . S
C221 H211 0.929 . S
C221 C219 1.433 . S
C221 N224 1.384 . S
C222 H213 0.929 . S
C222 C214 1.378 . S
C222 C217 1.350 . S
C223 H210 0.929 . S
C223 C215 1.433 . S
C223 N225 1.384 . S
N224 C220 1.427 . S
N224 C221 1.384 . S
N225 C217 1.427 . S
N225 C223 1.384 . S
H226 C232 0.930 1_565 S
H227 C236 0.930 . S
H228 C241 0.929 . S
H229 C239 0.929 . S
H230 C234 0.929 . S
H231 C240 0.929 1_565 S
C232 H226 0.930 1_545 S
C232 C233 1.367 . S
C232 C240 1.378 . S
C233 C232 1.367 . S
C233 C241 1.433 . S
C234 H230 0.929 . S
C234 C236 1.378 . S
C234 C238 1.350 . S
C235 C238 1.463 1_655 S
C235 C240 1.350 . S
C235 N243 1.427 . S
C236 H227 0.930 . S
C236 C234 1.378 . S
C236 C237 1.367 . S
C237 C236 1.367 . S
C237 C239 1.433 1_545 S
C238 C234 1.350 . S
C238 C235 1.463 1_455 S
C238 N242 1.427 1_545 S
C239 H229 0.929 . S
C239 C237 1.433 1_565 S
C239 N242 1.384 . S
C240 H231 0.929 1_545 S
C240 C232 1.378 . S
C240 C235 1.350 . S
C241 H228 0.929 . S
C241 C233 1.433 . S
C241 N243 1.384 . S
N242 C238 1.427 1_565 S
N242 C239 1.384 . S
N243 C235 1.427 . S
N243 C241 1.384 . S
H244 C250 0.930 . S
H245 C254 0.930 . S
H246 C259 0.929 . S
H247 C257 0.929 . S
H248 C252 0.929 . S
H249 C258 0.929 . S
C250 H244 0.930 . S
C250 C251 1.367 . S
C250 C258 1.378 . S
C251 C250 1.367 . S
C251 C259 1.433 . S
C252 H248 0.929 . S
C252 C254 1.378 . S
C252 C256 1.350 . S
C253 C256 1.463 . S
C253 C258 1.350 . S
C253 N261 1.427 . S
C254 H245 0.930 . S
C254 C252 1.378 . S
C254 C255 1.367 . S
C255 C254 1.367 . S
C255 C257 1.433 . S
C256 C252 1.350 . S
C256 C253 1.463 . S
C256 N260 1.427 . S
C257 H247 0.929 . S
C257 C255 1.433 . S
C257 N260 1.384 . S
C258 H249 0.929 . S
C258 C250 1.378 . S
C258 C253 1.350 . S
C259 H246 0.929 . S
C259 C251 1.433 . S
C259 N261 1.384 . S
N260 C256 1.427 . S
N260 C257 1.384 . S
N261 C253 1.427 . S
N261 C259 1.384 . S
H262 C268 0.930 . S
H263 C272 0.930 . S
H264 C277 0.929 . S
H265 C275 0.929 . S
H266 C270 0.929 1_565 S
H267 C276 0.929 . S
C268 H262 0.930 . S
C268 C269 1.367 . S
C268 C276 1.378 . S
C269 C268 1.367 . S
C269 C277 1.433 . S
C270 H266 0.929 1_545 S
C270 C272 1.378 1_545 S
C270 C274 1.350 . S
C271 C274 1.463 1_554 S
C271 C276 1.350 . S
C271 N279 1.427 . S
C272 H263 0.930 . S
C272 C270 1.378 1_565 S
C272 C273 1.367 1_565 S
C273 C272 1.367 1_545 S
C273 C275 1.433 . S
C274 C270 1.350 . S
C274 C271 1.463 1_556 S
C274 N278 1.426 1_556 S
C275 H265 0.929 . S
C275 C273 1.433 . S
C275 N278 1.370 1_556 S
C276 H267 0.929 . S
C276 C268 1.378 . S
C276 C271 1.350 . S
C277 H264 0.929 . S
C277 C269 1.433 . S
C277 N279 1.384 . S
N278 C274 1.426 1_554 S
N278 C275 1.370 1_554 S
N279 C271 1.427 . S
N279 C277 1.384 . S
H280 C286 0.930 . S
H281 C290 0.930 . S
H282 C295 0.929 . S
H283 C293 0.929 . S
H284 C288 0.929 . S
H285 C294 0.929 . S
C286 H280 0.930 . S
C286 C287 1.367 . S
C286 C294 1.378 . S
C287 C286 1.367 . S
C287 C295 1.433 . S
C288 H284 0.929 . S
C288 C290 1.378 . S
C288 C292 1.350 . S
C289 C292 1.463 . S
C289 C294 1.350 . S
C289 N297 1.427 . S
C290 H281 0.930 . S
C290 C288 1.378 . S
C290 C291 1.367 . S
C291 C290 1.367 . S
C291 C293 1.433 . S
C292 C288 1.350 . S
C292 C289 1.463 . S
C292 N296 1.427 . S
C293 H283 0.929 . S
C293 C291 1.433 . S
C293 N296 1.384 . S
C294 H285 0.929 . S
C294 C286 1.378 . S
C294 C289 1.350 . S
C295 H282 0.929 . S
C295 C287 1.433 . S
C295 N297 1.384 . S
N296 C292 1.427 . S
N296 C293 1.384 . S
N297 C289 1.427 . S
N297 C295 1.384 . S
H298 C304 0.930 . S
H299 C308 0.930 . S
H300 C313 0.929 . S
H301 C311 0.929 1_565 S
H302 C306 0.929 . S
H303 C312 0.929 . S
C304 H298 0.930 . S
C304 C305 1.367 1_565 S
C304 C312 1.378 . S
C305 C304 1.367 1_545 S
C305 C313 1.433 . S
C306 H302 0.929 . S
C306 C308 1.378 . S
C306 C310 1.350 . S
C307 C310 1.463 . S
C307 C312 1.350 1_545 S
C307 N315 1.427 . S
C308 H299 0.930 . S
C308 C306 1.378 . S
C308 C309 1.367 . S
C309 C308 1.367 . S
C309 C311 1.433 . S
C310 C306 1.350 . S
C310 C307 1.463 . S
C310 N314 1.427 . S
C311 H301 0.929 1_545 S
C311 C309 1.433 . S
C311 N314 1.384 . S
C312 H303 0.929 . S
C312 C304 1.378 . S
C312 C307 1.350 1_565 S
C313 H300 0.929 . S
C313 C305 1.433 . S
C313 N315 1.384 . S
N314 C310 1.427 . S
N314 C311 1.384 . S
N315 C307 1.427 . S
N315 C313 1.384 . S
H316 C322 0.930 . S
H317 C326 0.930 . S
H318 C331 0.929 . S
H319 C329 0.929 . S
H320 C324 0.929 . S
H321 C330 0.929 . S
C322 H316 0.930 . S
C322 C323 1.367 . S
C322 C330 1.378 . S
C323 C322 1.367 . S
C323 C331 1.433 . S
C324 H320 0.929 . S
C324 C326 1.378 . S
C324 C328 1.350 . S
C325 C328 1.463 . S
C325 C330 1.350 . S
C325 N333 1.427 . S
C326 H317 0.930 . S
C326 C324 1.378 . S
C326 C327 1.367 . S
C327 C326 1.367 . S
C327 C329 1.433 . S
C328 C324 1.350 . S
C328 C325 1.463 . S
C328 N332 1.427 . S
C329 H319 0.929 . S
C329 C327 1.433 . S
C329 N332 1.384 . S
C330 H321 0.929 . S
C330 C322 1.378 . S
C330 C325 1.350 . S
C331 H318 0.929 . S
C331 C323 1.433 . S
C331 N333 1.384 . S
N332 C328 1.427 . S
N332 C329 1.384 . S
N333 C325 1.427 . S
N333 C331 1.384 . S
H334 C340 0.908 1_565 S
H335 C344 0.930 . S
H336 C349 0.929 . S
H337 C347 0.929 . S
H338 C342 0.929 . S
H339 C348 0.918 1_564 S
C340 H334 0.908 1_545 S
C340 C341 1.367 . S
C340 C348 1.388 . S
C341 C340 1.367 . S
C341 C349 1.433 . S
C342 H338 0.929 . S
C342 C344 1.378 . S
C342 C346 1.350 . S
C343 C346 1.463 1_456 S
C343 C348 1.350 . S
C343 N351 1.427 . S
C344 H335 0.930 . S
C344 C342 1.378 . S
C344 C345 1.367 . S
C345 C344 1.367 . S
C345 C347 1.433 1_545 S
C346 C342 1.350 . S
C346 C343 1.463 1_654 S
C346 N350 1.427 . S
C347 H337 0.929 . S
C347 C345 1.433 1_565 S
C347 N350 1.384 1_565 S
C348 H339 0.918 1_546 S
C348 C340 1.388 . S
C348 C343 1.350 . S
C349 H336 0.929 . S
C349 C341 1.433 . S
C349 N351 1.384 . S
N350 C346 1.427 . S
N350 C347 1.384 1_545 S
N351 C343 1.427 . S
N351 C349 1.384 . S
H352 C358 0.930 . S
H353 C362 0.930 . S
H354 C367 0.929 . S
H355 C365 0.929 . S
H356 C360 0.929 . S
H357 C366 0.929 . S
C358 H352 0.930 . S
C358 C359 1.367 . S
C358 C366 1.378 . S
C359 C358 1.367 . S
C359 C367 1.433 . S
C360 H356 0.929 . S
C360 C362 1.378 . S
C360 C364 1.350 . S
C361 C364 1.463 . S
C361 C366 1.350 . S
C361 N369 1.427 . S
C362 H353 0.930 . S
C362 C360 1.378 . S
C362 C363 1.367 . S
C363 C362 1.367 . S
C363 C365 1.433 . S
C364 C360 1.350 . S
C364 C361 1.463 . S
C364 N368 1.427 . S
C365 H355 0.929 . S
C365 C363 1.433 . S
C365 N368 1.384 . S
C366 H357 0.929 . S
C366 C358 1.378 . S
C366 C361 1.350 . S
C367 H354 0.929 . S
C367 C359 1.433 . S
C367 N369 1.384 . S
N368 C364 1.427 . S
N368 C365 1.384 . S
N369 C361 1.427 . S
N369 C367 1.384 . S
H370 C376 0.930 . S
H371 C380 0.930 . S
H372 C385 0.929 . S
H373 C383 0.929 . S
H374 C378 0.929 . S
H375 C384 0.929 . S
C376 H370 0.930 . S
C376 C377 1.367 . S
C376 C384 1.378 . S
C377 C376 1.367 . S
C377 C385 1.433 . S
C378 H374 0.929 . S
C378 C380 1.378 . S
C378 C382 1.350 . S
C379 C382 1.463 . S
C379 C384 1.350 . S
C379 N387 1.427 . S
C380 H371 0.930 . S
C380 C378 1.378 . S
C380 C381 1.367 . S
C381 C380 1.367 . S
C381 C383 1.433 . S
C382 C378 1.350 . S
C382 C379 1.463 . S
C382 N386 1.427 . S
C383 H373 0.929 . S
C383 C381 1.433 . S
C383 N386 1.384 . S
C384 H375 0.929 . S
C384 C376 1.378 . S
C384 C379 1.350 . S
C385 H372 0.929 . S
C385 C377 1.433 . S
C385 N387 1.384 . S
N386 C382 1.427 . S
N386 C383 1.384 . S
N387 C379 1.427 . S
N387 C385 1.384 . S
H388 C394 0.930 . S
H389 C398 0.930 . S
H390 C403 0.929 . S
H391 C401 0.929 . S
H392 C396 0.929 . S
H393 C402 0.929 . S
C394 H388 0.930 . S
C394 C395 1.367 . S
C394 C402 1.378 . S
C395 C394 1.367 . S
C395 C403 1.433 . S
C396 H392 0.929 . S
C396 C398 1.378 . S
C396 C400 1.350 . S
C397 C400 1.463 . S
C397 C402 1.350 . S
C397 N405 1.427 . S
C398 H389 0.930 . S
C398 C396 1.378 . S
C398 C399 1.367 . S
C399 C398 1.367 . S
C399 C401 1.433 . S
C400 C396 1.350 . S
C400 C397 1.463 . S
C400 N404 1.427 . S
C401 H391 0.929 . S
C401 C399 1.433 . S
C401 N404 1.384 . S
C402 H393 0.929 . S
C402 C394 1.378 . S
C402 C397 1.350 . S
C403 H390 0.929 . S
C403 C395 1.433 . S
C403 N405 1.384 . S
N404 C400 1.427 . S
N404 C401 1.384 . S
N405 C397 1.427 . S
N405 C403 1.384 . S
H406 C412 0.930 . S
H407 C416 0.930 . S
H408 C421 0.929 . S
H409 C419 0.929 . S
H410 C414 0.929 . S
H411 C420 0.929 . S
C412 H406 0.930 . S
C412 C413 1.367 . S
C412 C420 1.378 . S
C413 C412 1.367 . S
C413 C421 1.433 . S
C414 H410 0.929 . S
C414 C416 1.378 . S
C414 C418 1.350 . S
C415 C418 1.463 . S
C415 C420 1.350 . S
C415 N423 1.427 . S
C416 H407 0.930 . S
C416 C414 1.378 . S
C416 C417 1.367 . S
C417 C416 1.367 . S
C417 C419 1.433 . S
C418 C414 1.350 . S
C418 C415 1.463 . S
C418 N422 1.427 . S
C419 H409 0.929 . S
C419 C417 1.433 . S
C419 N422 1.384 . S
C420 H411 0.929 . S
C420 C412 1.378 . S
C420 C415 1.350 . S
C421 H408 0.929 . S
C421 C413 1.433 . S
C421 N423 1.384 . S
N422 C418 1.427 . S
N422 C419 1.384 . S
N423 C415 1.427 . S
N423 C421 1.384 . S
H424 C430 0.930 . S
H425 C434 0.930 . S
H426 C439 0.929 . S
H427 C437 0.929 . S
H428 C432 0.929 . S
H429 C438 0.929 1_556 S
C430 H424 0.930 . S
C430 C431 1.367 . S
C430 C438 1.378 . S
C431 C430 1.367 . S
C431 C439 1.433 . S
C432 H428 0.929 . S
C432 C434 1.378 1_554 S
C432 C436 1.347 1_554 S
C433 C436 1.452 1_554 S
C433 C438 1.350 . S
C433 N441 1.427 . S
C434 H425 0.930 . S
C434 C432 1.378 1_556 S
C434 C435 1.367 . S
C435 C434 1.367 . S
C435 C437 1.433 . S
C436 C432 1.347 1_556 S
C436 C433 1.452 1_556 S
C436 N440 1.441 . S
C437 H427 0.929 . S
C437 C435 1.433 . S
C437 N440 1.384 . S
C438 H429 0.929 1_554 S
C438 C430 1.378 . S
C438 C433 1.350 . S
C439 H426 0.929 . S
C439 C431 1.433 . S
C439 N441 1.384 . S
N440 C436 1.441 . S
N440 C437 1.384 . S
N441 C433 1.427 . S
N441 C439 1.384 . S
H442 C448 0.930 . S
H443 C452 0.930 . S
H444 C457 0.929 . S
H445 C455 0.929 . S
H446 C450 0.929 1_455 S
H447 C456 0.929 1_655 S
C448 H442 0.930 . S
C448 C449 1.367 . S
C448 C456 1.378 . S
C449 C448 1.367 . S
C449 C457 1.433 . S
C450 H446 0.929 1_655 S
C450 C452 1.378 . S
C450 C454 1.350 . S
C451 C454 1.463 1_455 S
C451 C456 1.350 . S
C451 N459 1.427 . S
C452 H443 0.930 . S
C452 C450 1.378 . S
C452 C453 1.367 . S
C453 C452 1.367 . S
C453 C455 1.433 . S
C454 C450 1.350 . S
C454 C451 1.463 1_655 S
C454 N458 1.427 . S
C455 H445 0.929 . S
C455 C453 1.433 . S
C455 N458 1.384 . S
C456 H447 0.929 1_455 S
C456 C448 1.378 . S
C456 C451 1.350 . S
C457 H444 0.929 . S
C457 C449 1.433 . S
C457 N459 1.384 . S
N458 C454 1.427 . S
N458 C455 1.384 . S
N459 C451 1.427 . S
N459 C457 1.384 . S
H460 C466 0.930 . S
H461 C470 0.930 . S
H462 C475 0.929 . S
H463 C473 0.929 . S
H464 C468 0.929 . S
H465 C474 0.929 1_556 S
C466 H460 0.930 . S
C466 C467 1.367 . S
C466 C474 1.378 . S
C467 C466 1.367 . S
C467 C475 1.433 . S
C468 H464 0.929 . S
C468 C470 1.378 1_554 S
C468 C472 1.347 1_554 S
C469 C472 1.452 1_454 S
C469 C474 1.350 . S
C469 N477 1.427 . S
C470 H461 0.930 . S
C470 C468 1.378 1_556 S
C470 C471 1.367 . S
C471 C470 1.367 . S
C471 C473 1.433 . S
C472 C468 1.347 1_556 S
C472 C469 1.452 1_656 S
C472 N476 1.441 . S
C473 H463 0.929 . S
C473 C471 1.433 . S
C473 N476 1.384 . S
C474 H465 0.929 1_554 S
C474 C466 1.378 . S
C474 C469 1.350 . S
C475 H462 0.929 . S
C475 C467 1.433 . S
C475 N477 1.384 . S
N476 C472 1.441 . S
N476 C473 1.384 . S
N477 C469 1.427 . S
N477 C475 1.384 . S
H478 C484 0.930 . S
H479 C488 0.930 . S
H480 C493 0.929 . S
H481 C491 0.929 . S
H482 C486 0.929 . S
H483 C492 0.929 . S
C484 H478 0.930 . S
C484 C485 1.367 . S
C484 C492 1.378 . S
C485 C484 1.367 . S
C485 C493 1.433 . S
C486 H482 0.929 . S
C486 C488 1.378 . S
C486 C490 1.350 . S
C487 C490 1.463 . S
C487 C492 1.350 . S
C487 N495 1.427 . S
C488 H479 0.930 . S
C488 C486 1.378 . S
C488 C489 1.367 . S
C489 C488 1.367 . S
C489 C491 1.433 . S
C490 C486 1.350 . S
C490 C487 1.463 . S
C490 N494 1.427 . S
C491 H481 0.929 . S
C491 C489 1.433 . S
C491 N494 1.384 . S
C492 H483 0.929 . S
C492 C484 1.378 . S
C492 C487 1.350 . S
C493 H480 0.929 . S
C493 C485 1.433 . S
C493 N495 1.384 . S
N494 C490 1.427 . S
N494 C491 1.384 . S
N495 C487 1.427 . S
N495 C493 1.384 . S
H496 C502 0.930 . S
H497 C506 0.930 . S
H498 C511 0.929 . S
H499 C509 0.929 . S
H500 C504 0.929 . S
H501 C510 0.929 . S
C502 H496 0.930 . S
C502 C503 1.367 . S
C502 C510 1.378 . S
C503 C502 1.367 . S
C503 C511 1.433 . S
C504 H500 0.929 . S
C504 C506 1.378 . S
C504 C508 1.350 . S
C505 C508 1.463 . S
C505 C510 1.350 . S
C505 N513 1.427 . S
C506 H497 0.930 . S
C506 C504 1.378 . S
C506 C507 1.367 . S
C507 C506 1.367 . S
C507 C509 1.433 . S
C508 C504 1.350 . S
C508 C505 1.463 . S
C508 N512 1.427 . S
C509 H499 0.929 . S
C509 C507 1.433 . S
C509 N512 1.384 . S
C510 H501 0.929 . S
C510 C502 1.378 . S
C510 C505 1.350 . S
C511 H498 0.929 . S
C511 C503 1.433 . S
C511 N513 1.384 . S
N512 C508 1.427 . S
N512 C509 1.384 . S
N513 C505 1.427 . S
N513 C511 1.384 . S
H514 C520 0.930 . S
H515 C524 0.930 . S
H516 C529 0.929 . S
H517 C527 0.929 . S
H518 C522 0.929 . S
H519 C528 0.929 . S
C520 H514 0.930 . S
C520 C521 1.367 . S
C520 C528 1.378 . S
C521 C520 1.367 . S
C521 C529 1.433 . S
C522 H518 0.929 . S
C522 C524 1.378 . S
C522 C526 1.350 . S
C523 C526 1.463 . S
C523 C528 1.350 . S
C523 N531 1.427 . S
C524 H515 0.930 . S
C524 C522 1.378 . S
C524 C525 1.367 . S
C525 C524 1.367 . S
C525 C527 1.433 . S
C526 C522 1.350 . S
C526 C523 1.463 . S
C526 N530 1.427 . S
C527 H517 0.929 . S
C527 C525 1.433 . S
C527 N530 1.384 . S
C528 H519 0.929 . S
C528 C520 1.378 . S
C528 C523 1.350 . S
C529 H516 0.929 . S
C529 C521 1.433 . S
C529 N531 1.384 . S
N530 C526 1.427 . S
N530 C527 1.384 . S
N531 C523 1.427 . S
N531 C529 1.384 . S
H532 C538 0.930 . S
H533 C542 0.930 . S
H534 C547 0.929 . S
H535 C545 0.929 . S
H536 C540 0.929 . S
H537 C546 0.929 . S
C538 H532 0.930 . S
C538 C539 1.367 . S
C538 C546 1.378 . S
C539 C538 1.367 . S
C539 C547 1.433 . S
C540 H536 0.929 . S
C540 C542 1.378 . S
C540 C544 1.350 . S
C541 C544 1.463 . S
C541 C546 1.350 . S
C541 N549 1.427 . S
C542 H533 0.930 . S
C542 C540 1.378 . S
C542 C543 1.367 . S
C543 C542 1.367 . S
C543 C545 1.433 . S
C544 C540 1.350 . S
C544 C541 1.463 . S
C544 N548 1.427 . S
C545 H535 0.929 . S
C545 C543 1.433 . S
C545 N548 1.384 . S
C546 H537 0.929 . S
C546 C538 1.378 . S
C546 C541 1.350 . S
C547 H534 0.929 . S
C547 C539 1.433 . S
C547 N549 1.384 . S
N548 C544 1.427 . S
N548 C545 1.384 . S
N549 C541 1.427 . S
N549 C547 1.384 . S
H550 C556 0.930 1_554 S
H551 C560 0.930 . S
H552 C565 0.929 . S
H553 C563 0.929 . S
H554 C558 0.929 . S
H555 C564 0.929 . S
C556 H550 0.930 1_556 S
C556 C557 1.367 . S
C556 C564 1.378 . S
C557 C556 1.367 . S
C557 C565 1.433 . S
C558 H554 0.929 . S
C558 C560 1.378 . S
C558 C562 1.350 . S
C559 C562 1.463 . S
C559 C564 1.350 . S
C559 N567 1.427 . S
C560 H551 0.930 . S
C560 C558 1.378 . S
C560 C561 1.367 . S
C561 C560 1.367 . S
C561 C563 1.433 . S
C562 C558 1.350 . S
C562 C559 1.463 . S
C562 N566 1.427 . S
C563 H553 0.929 . S
C563 C561 1.433 . S
C563 N566 1.384 . S
C564 H555 0.929 . S
C564 C556 1.378 . S
C564 C559 1.350 . S
C565 H552 0.929 . S
C565 C557 1.433 . S
C565 N567 1.384 . S
N566 C562 1.427 . S
N566 C563 1.384 . S
N567 C559 1.427 . S
N567 C565 1.384 . S
H568 C574 0.930 . S
H569 C578 0.930 . S
H570 C583 0.929 . S
H571 C581 0.929 . S
H572 C576 0.929 . S
H573 C582 0.929 . S
C574 H568 0.930 . S
C574 C575 1.367 . S
C574 C582 1.378 . S
C575 C574 1.367 . S
C575 C583 1.433 . S
C576 H572 0.929 . S
C576 C578 1.378 . S
C576 C580 1.350 . S
C577 C580 1.463 . S
C577 C582 1.350 . S
C577 N585 1.427 . S
C578 H569 0.930 . S
C578 C576 1.378 . S
C578 C579 1.367 . S
C579 C578 1.367 . S
C579 C581 1.433 . S
C580 C576 1.350 . S
C580 C577 1.463 . S
C580 N584 1.427 . S
C581 H571 0.929 . S
C581 C579 1.433 . S
C581 N584 1.384 . S
C582 H573 0.929 . S
C582 C574 1.378 . S
C582 C577 1.350 . S
C583 H570 0.929 . S
C583 C575 1.433 . S
C583 N585 1.384 . S
N584 C580 1.427 . S
N584 C581 1.384 . S
N585 C577 1.427 . S
N585 C583 1.384 . S
H586 C592 0.930 . S
H587 C596 0.930 . S
H588 C601 0.929 . S
H589 C599 0.929 . S
H590 C594 0.929 . S
H591 C600 0.929 . S
C592 H586 0.930 . S
C592 C593 1.367 . S
C592 C600 1.378 . S
C593 C592 1.367 . S
C593 C601 1.433 . S
C594 H590 0.929 . S
C594 C596 1.378 . S
C594 C598 1.350 . S
C595 C598 1.463 . S
C595 C600 1.350 . S
C595 N603 1.427 . S
C596 H587 0.930 . S
C596 C594 1.378 . S
C596 C597 1.367 . S
C597 C596 1.367 . S
C597 C599 1.433 . S
C598 C594 1.350 . S
C598 C595 1.463 . S
C598 N602 1.427 . S
C599 H589 0.929 . S
C599 C597 1.433 . S
C599 N602 1.384 . S
C600 H591 0.929 . S
C600 C592 1.378 . S
C600 C595 1.350 . S
C601 H588 0.929 . S
C601 C593 1.433 . S
C601 N603 1.384 . S
N602 C598 1.427 . S
N602 C599 1.384 . S
N603 C595 1.427 . S
N603 C601 1.384 . S
H604 C610 0.930 . S
H605 C614 0.930 . S
H606 C619 0.929 . S
H607 C617 0.924 1_554 S
H608 C612 0.929 . S
H609 C618 0.929 . S
C610 H604 0.930 . S
C610 C611 1.367 . S
C610 C618 1.378 . S
C611 C610 1.367 . S
C611 C619 1.433 . S
C612 H608 0.929 . S
C612 C614 1.378 . S
C612 C616 1.350 . S
C613 C616 1.463 . S
C613 C618 1.350 . S
C613 N621 1.427 . S
C614 H605 0.930 . S
C614 C612 1.378 . S
C614 C615 1.367 . S
C615 C614 1.367 . S
C615 C617 1.433 . S
C616 C612 1.350 . S
C616 C613 1.463 . S
C616 N620 1.427 . S
C617 H607 0.924 1_556 S
C617 C615 1.433 . S
C617 N620 1.384 . S
C618 H609 0.929 . S
C618 C610 1.378 . S
C618 C613 1.350 . S
C619 H606 0.929 . S
C619 C611 1.433 . S
C619 N621 1.384 . S
N620 C616 1.427 . S
N620 C617 1.384 . S
N621 C613 1.427 . S
N621 C619 1.384 . S
H622 C628 0.945 . S
H623 C632 0.930 . S
H624 C637 0.929 . S
H625 C635 0.929 . S
H626 C630 0.929 . S
H627 C636 0.929 . S
C628 H622 0.945 . S
C628 C629 1.367 . S
C628 C636 1.378 . S
C629 C628 1.367 . S
C629 C637 1.433 . S
C630 H626 0.929 . S
C630 C632 1.378 . S
C630 C634 1.350 . S
C631 C634 1.463 . S
C631 C636 1.350 . S
C631 N639 1.427 . S
C632 H623 0.930 . S
C632 C630 1.378 . S
C632 C633 1.367 . S
C633 C632 1.367 . S
C633 C635 1.433 . S
C634 C630 1.350 . S
C634 C631 1.463 . S
C634 N638 1.427 . S
C635 H625 0.929 . S
C635 C633 1.433 . S
C635 N638 1.384 . S
C636 H627 0.929 . S
C636 C628 1.378 . S
C636 C631 1.350 . S
C637 H624 0.929 . S
C637 C629 1.433 . S
C637 N639 1.384 . S
N638 C634 1.427 . S
N638 C635 1.384 . S
N639 C631 1.427 . S
N639 C637 1.384 . S
H640 C646 0.930 1_554 S
H641 C650 0.930 . S
H642 C655 0.929 . S
H643 C653 0.929 . S
H644 C648 0.929 . S
H645 C654 0.929 . S
C646 H640 0.930 1_556 S
C646 C647 1.367 . S
C646 C654 1.378 . S
C647 C646 1.367 . S
C647 C655 1.433 . S
C648 H644 0.929 . S
C648 C650 1.378 . S
C648 C652 1.350 . S
C649 C652 1.463 . S
C649 C654 1.350 . S
C649 N657 1.427 . S
C650 H641 0.930 . S
C650 C648 1.378 . S
C650 C651 1.367 . S
C651 C650 1.367 . S
C651 C653 1.433 . S
C652 C648 1.350 . S
C652 C649 1.463 . S
C652 N656 1.427 . S
C653 H643 0.929 . S
C653 C651 1.433 . S
C653 N656 1.384 . S
C654 H645 0.929 . S
C654 C646 1.378 . S
C654 C649 1.350 . S
C655 H642 0.929 . S
C655 C647 1.433 . S
C655 N657 1.384 . S
N656 C652 1.427 . S
N656 C653 1.384 . S
N657 C649 1.427 . S
N657 C655 1.384 . S
H658 C664 0.930 . S
H659 C668 0.930 . S
H660 C673 0.929 . S
H661 C671 0.929 . S
H662 C666 0.929 . S
H663 C672 0.929 . S
C664 H658 0.930 . S
C664 C665 1.367 . S
C664 C672 1.378 . S
C665 C664 1.367 . S
C665 C673 1.433 . S
C666 H662 0.929 . S
C666 C668 1.378 . S
C666 C670 1.350 . S
C667 C670 1.463 . S
C667 C672 1.350 . S
C667 N675 1.427 . S
C668 H659 0.930 . S
C668 C666 1.378 . S
C668 C669 1.367 . S
C669 C668 1.367 . S
C669 C671 1.433 . S
C670 C666 1.350 . S
C670 C667 1.463 . S
C670 N674 1.427 . S
C671 H661 0.929 . S
C671 C669 1.433 . S
C671 N674 1.384 . S
C672 H663 0.929 . S
C672 C664 1.378 . S
C672 C667 1.350 . S
C673 H660 0.929 . S
C673 C665 1.433 . S
C673 N675 1.384 . S
N674 C670 1.427 . S
N674 C671 1.384 . S
N675 C667 1.427 . S
N675 C673 1.384 . S
H676 C682 0.930 . S
H677 C686 0.930 . S
H678 C691 0.929 . S
H679 C689 0.929 . S
H680 C684 0.929 . S
H681 C690 0.929 . S
C682 H676 0.930 . S
C682 C683 1.367 . S
C682 C690 1.378 . S
C683 C682 1.367 . S
C683 C691 1.433 . S
C684 H680 0.929 . S
C684 C686 1.378 . S
C684 C688 1.350 . S
C685 C688 1.463 . S
C685 C690 1.350 . S
C685 N693 1.427 . S
C686 H677 0.930 . S
C686 C684 1.378 . S
C686 C687 1.367 . S
C687 C686 1.367 . S
C687 C689 1.433 . S
C688 C684 1.350 . S
C688 C685 1.463 . S
C688 N692 1.427 . S
C689 H679 0.929 . S
C689 C687 1.433 . S
C689 N692 1.384 . S
C690 H681 0.929 . S
C690 C682 1.378 . S
C690 C685 1.350 . S
C691 H678 0.929 . S
C691 C683 1.433 . S
C691 N693 1.384 . S
N692 C688 1.427 . S
N692 C689 1.384 . S
N693 C685 1.427 . S
N693 C691 1.384 . S
H694 C700 0.930 . S
H695 C704 0.930 . S
H696 C709 0.929 . S
H697 C707 0.929 . S
H698 C702 0.929 . S
H699 C708 0.929 . S
C700 H694 0.930 . S
C700 C701 1.367 . S
C700 C708 1.378 . S
C701 C700 1.367 . S
C701 C709 1.433 . S
C702 H698 0.929 . S
C702 C704 1.378 . S
C702 C706 1.350 . S
C703 C706 1.463 . S
C703 C708 1.350 . S
C703 N711 1.427 . S
C704 H695 0.930 . S
C704 C702 1.378 . S
C704 C705 1.367 . S
C705 C704 1.367 . S
C705 C707 1.433 . S
C706 C702 1.350 . S
C706 C703 1.463 . S
C706 N710 1.427 . S
C707 H697 0.929 . S
C707 C705 1.433 . S
C707 N710 1.384 . S
C708 H699 0.929 . S
C708 C700 1.378 . S
C708 C703 1.350 . S
C709 H696 0.929 . S
C709 C701 1.433 . S
C709 N711 1.384 . S
N710 C706 1.427 . S
N710 C707 1.384 . S
N711 C703 1.427 . S
N711 C709 1.384 . S
H712 C718 0.930 . S
H713 C722 0.930 . S
H714 C727 0.929 . S
H715 C725 0.929 . S
H716 C720 0.929 . S
H717 C726 0.929 . S
C718 H712 0.930 . S
C718 C719 1.367 . S
C718 C726 1.378 . S
C719 C718 1.367 . S
C719 C727 1.433 . S
C720 H716 0.929 . S
C720 C722 1.378 . S
C720 C724 1.350 . S
C721 C724 1.463 . S
C721 C726 1.350 . S
C721 N729 1.427 . S
C722 H713 0.930 . S
C722 C720 1.378 . S
C722 C723 1.367 . S
C723 C722 1.367 . S
C723 C725 1.433 . S
C724 C720 1.350 . S
C724 C721 1.463 . S
C724 N728 1.427 . S
C725 H715 0.929 . S
C725 C723 1.433 . S
C725 N728 1.384 . S
C726 H717 0.929 . S
C726 C718 1.378 . S
C726 C721 1.350 . S
C727 H714 0.929 . S
C727 C719 1.433 . S
C727 N729 1.384 . S
N728 C724 1.427 . S
N728 C725 1.384 . S
N729 C721 1.427 . S
N729 C727 1.384 . S
H730 C736 0.930 . S
H731 C740 0.930 . S
H732 C745 0.929 . S
H733 C743 0.929 . S
H734 C738 0.929 . S
H735 C744 0.929 . S
C736 H730 0.930 . S
C736 C737 1.367 . S
C736 C744 1.378 . S
C737 C736 1.367 . S
C737 C745 1.433 . S
C738 H734 0.929 . S
C738 C740 1.378 . S
C738 C742 1.350 . S
C739 C742 1.463 . S
C739 C744 1.350 . S
C739 N747 1.427 . S
C740 H731 0.930 . S
C740 C738 1.378 . S
C740 C741 1.367 . S
C741 C740 1.367 . S
C741 C743 1.433 . S
C742 C738 1.350 . S
C742 C739 1.463 . S
C742 N746 1.427 . S
C743 H733 0.929 . S
C743 C741 1.433 . S
C743 N746 1.384 . S
C744 H735 0.929 . S
C744 C736 1.378 . S
C744 C739 1.350 . S
C745 H732 0.929 . S
C745 C737 1.433 . S
C745 N747 1.384 . S
N746 C742 1.427 . S
N746 C743 1.384 . S
N747 C739 1.427 . S
N747 C745 1.384 . S
H748 C754 0.930 . S
H749 C758 0.930 1_556 S
H750 C763 0.929 . S
H751 C761 0.929 . S
H752 C756 0.929 . S
H753 C762 0.929 . S
C754 H748 0.930 . S
C754 C755 1.367 . S
C754 C762 1.378 . S
C755 C754 1.367 . S
C755 C763 1.433 . S
C756 H752 0.929 . S
C756 C758 1.378 . S
C756 C760 1.350 . S
C757 C760 1.463 . S
C757 C762 1.350 . S
C757 N765 1.427 . S
C758 H749 0.930 1_554 S
C758 C756 1.378 . S
C758 C759 1.367 . S
C759 C758 1.367 . S
C759 C761 1.433 . S
C760 C756 1.350 . S
C760 C757 1.463 . S
C760 N764 1.427 . S
C761 H751 0.929 . S
C761 C759 1.433 . S
C761 N764 1.384 . S
C762 H753 0.929 . S
C762 C754 1.378 . S
C762 C757 1.350 . S
C763 H750 0.929 . S
C763 C755 1.433 . S
C763 N765 1.384 . S
N764 C760 1.427 . S
N764 C761 1.384 . S
N765 C757 1.427 . S
N765 C763 1.384 . S
H766 C772 0.930 . S
H767 C776 0.930 . S
H768 C781 0.929 1_554 S
H769 C779 0.929 . S
H770 C774 0.929 . S
H771 C780 0.929 . S
C772 H766 0.930 . S
C772 C773 1.367 . S
C772 C780 1.378 . S
C773 C772 1.367 . S
C773 C781 1.433 . S
C774 H770 0.929 . S
C774 C776 1.378 . S
C774 C778 1.350 . S
C775 C778 1.463 . S
C775 C780 1.350 . S
C775 N783 1.427 . S
C776 H767 0.930 . S
C776 C774 1.378 . S
C776 C777 1.367 . S
C777 C776 1.367 . S
C777 C779 1.433 . S
C778 C774 1.350 . S
C778 C775 1.463 . S
C778 N782 1.427 . S
C779 H769 0.929 . S
C779 C777 1.433 . S
C779 N782 1.384 . S
C780 H771 0.929 . S
C780 C772 1.378 . S
C780 C775 1.350 . S
C781 H768 0.929 1_556 S
C781 C773 1.433 . S
C781 N783 1.384 . S
N782 C778 1.427 . S
N782 C779 1.384 . S
N783 C775 1.427 . S
N783 C781 1.384 . S
C215 C10 1.272 . S
C219 C166 1.272 . S
C233 C18 1.016 . S
C237 C70 1.016 . S
C251 C36 1.273 . S
C255 C192 1.273 . S
C269 C96 1.028 . S
C273 C44 1.028 . S
C287 C187 1.015 . S
C291 C31 1.015 . S
C305 C101 1.273 . S
C309 C49 1.273 . S
C323 C161 1.027 . S
C327 C5 1.027 . S
C341 C75 1.272 . S
C345 C23 1.272 . S
C359 C62 1.272 . S
C363 C114 1.272 . S
C377 C88 1.273 . S
C381 C140 1.273 . S
C395 C135 1.038 . S
C399 C83 1.038 . S
C413 C57 1.026 . S
C417 C109 1.026 . S
C431 C174 1.029 . S
C435 C122 1.029 . S
C449 C148 1.030 . S
C453 C200 1.030 . S
C467 C153 1.273 . S
C471 C205 1.273 . S
C485 C127 1.273 . S
C489 C179 1.273 . S
C503 C143 1.437 . S
C507 C0 1.437 . S
C521 C112 1.466 . S
C525 C21 1.464 . S
C539 C26 1.429 . S
C543 C117 1.430 . S
C557 C138 1.464 . S
C561 C47 1.461 . S
C575 C151 1.462 . S
C579 C34 1.459 . S
C593 C39 1.423 . S
C597 C104 1.423 . S
C611 C125 1.453 . S
C615 C8 1.457 . S
C629 C130 1.438 . S
C633 C13 1.438 . S
C647 C52 1.436 . S
C651 C195 1.436 . S
C665 C164 1.452 . S
C669 C73 1.450 . S
C683 C78 1.433 . S
C687 C169 1.433 . S
C701 C99 1.459 . S
C705 C190 1.456 . S
C719 C86 1.458 . S
C723 C203 1.455 . S
C737 C156 1.438 . S
C741 C91 1.438 . S
C755 C177 1.466 . S
C759 C60 1.466 . S
C773 C182 1.425 . S
C777 C65 1.425 . S
