# Generated by pormake.
# Topology uoe, (4)-cn, num edge types: 1
# Building blocks:
#     Node 0, Type 0, BuildingBlock: QUQFOY_clean_sbu_1, # of connection points: 4
#     Node 1, Type 0, BuildingBlock: QUQFOY_clean_sbu_1, # of connection points: 4
#     Node 2, Type 0, BuildingBlock: QUQFOY_clean_sbu_1, # of connection points: 4
#     Node 3, Type 0, BuildingBlock: QUQFOY_clean_sbu_1, # of connection points: 4
#     Node 4, Type 0, BuildingBlock: QUQFOY_clean_sbu_1, # of connection points: 4
#     Node 5, Type 0, BuildingBlock: QUQFOY_clean_sbu_1, # of connection points: 4
#     Node 6, Type 0, BuildingBlock: QUQFOY_clean_sbu_1, # of connection points: 4
#     Node 7, Type 0, BuildingBlock: QUQFOY_clean_sbu_1, # of connection points: 4
#     Node 8, Type 0, BuildingBlock: QUQFOY_clean_sbu_1, # of connection points: 4
#     Node 9, Type 0, BuildingBlock: QUQFOY_clean_sbu_1, # of connection points: 4
#     Node 10, Type 0, BuildingBlock: QUQFOY_clean_sbu_1, # of connection points: 4
#     Node 11, Type 0, BuildingBlock: QUQFOY_clean_sbu_1, # of connection points: 4
#     Node 12, Type 0, BuildingBlock: QUQFOY_clean_sbu_1, # of connection points: 4
#     Node 13, Type 0, BuildingBlock: QUQFOY_clean_sbu_1, # of connection points: 4
#     Node 14, Type 0, BuildingBlock: QUQFOY_clean_sbu_1, # of connection points: 4
#     Node 15, Type 0, BuildingBlock: QUQFOY_clean_sbu_1, # of connection points: 4
#     Node 16, Type 0, BuildingBlock: QUQFOY_clean_sbu_1, # of connection points: 4
#     Node 17, Type 0, BuildingBlock: QUQFOY_clean_sbu_1, # of connection points: 4
#     Node 18, Type 0, BuildingBlock: QUQFOY_clean_sbu_1, # of connection points: 4
#     Node 19, Type 0, BuildingBlock: QUQFOY_clean_sbu_1, # of connection points: 4
#     Node 20, Type 0, BuildingBlock: QUQFOY_clean_sbu_1, # of connection points: 4
#     Node 21, Type 0, BuildingBlock: QUQFOY_clean_sbu_1, # of connection points: 4
#     Node 22, Type 0, BuildingBlock: QUQFOY_clean_sbu_1, # of connection points: 4
#     Node 23, Type 0, BuildingBlock: QUQFOY_clean_sbu_1, # of connection points: 4
#     Node 24, Type 0, BuildingBlock: QUQFOY_clean_sbu_1, # of connection points: 4
#     Node 25, Type 0, BuildingBlock: QUQFOY_clean_sbu_1, # of connection points: 4
#     Node 26, Type 0, BuildingBlock: QUQFOY_clean_sbu_1, # of connection points: 4
#     Node 27, Type 0, BuildingBlock: QUQFOY_clean_sbu_1, # of connection points: 4
#     Node 28, Type 0, BuildingBlock: QUQFOY_clean_sbu_1, # of connection points: 4
#     Node 29, Type 0, BuildingBlock: QUQFOY_clean_sbu_1, # of connection points: 4
#     Node 30, Type 0, BuildingBlock: QUQFOY_clean_sbu_1, # of connection points: 4
#     Node 31, Type 0, BuildingBlock: QUQFOY_clean_sbu_1, # of connection points: 4
#     Edge 32, Type (0, 0), None
#     Edge 33, Type (0, 0), None
#     Edge 34, Type (0, 0), None
#     Edge 35, Type (0, 0), None
#     Edge 36, Type (0, 0), None
#     Edge 37, Type (0, 0), None
#     Edge 38, Type (0, 0), None
#     Edge 39, Type (0, 0), None
#     Edge 40, Type (0, 0), None
#     Edge 41, Type (0, 0), None
#     Edge 42, Type (0, 0), None
#     Edge 43, Type (0, 0), None
#     Edge 44, Type (0, 0), None
#     Edge 45, Type (0, 0), None
#     Edge 46, Type (0, 0), None
#     Edge 47, Type (0, 0), None
#     Edge 48, Type (0, 0), None
#     Edge 49, Type (0, 0), None
#     Edge 50, Type (0, 0), None
#     Edge 51, Type (0, 0), None
#     Edge 52, Type (0, 0), None
#     Edge 53, Type (0, 0), None
#     Edge 54, Type (0, 0), None
#     Edge 55, Type (0, 0), None
#     Edge 56, Type (0, 0), None
#     Edge 57, Type (0, 0), None
#     Edge 58, Type (0, 0), None
#     Edge 59, Type (0, 0), None
#     Edge 60, Type (0, 0), None
#     Edge 61, Type (0, 0), None
#     Edge 62, Type (0, 0), None
#     Edge 63, Type (0, 0), None
#     Edge 64, Type (0, 0), None
#     Edge 65, Type (0, 0), None
#     Edge 66, Type (0, 0), None
#     Edge 67, Type (0, 0), None
#     Edge 68, Type (0, 0), None
#     Edge 69, Type (0, 0), None
#     Edge 70, Type (0, 0), None
#     Edge 71, Type (0, 0), None
#     Edge 72, Type (0, 0), None
#     Edge 73, Type (0, 0), None
#     Edge 74, Type (0, 0), None
#     Edge 75, Type (0, 0), None
#     Edge 76, Type (0, 0), None
#     Edge 77, Type (0, 0), None
#     Edge 78, Type (0, 0), None
#     Edge 79, Type (0, 0), None
#     Edge 80, Type (0, 0), None
#     Edge 81, Type (0, 0), None
#     Edge 82, Type (0, 0), None
#     Edge 83, Type (0, 0), None
#     Edge 84, Type (0, 0), None
#     Edge 85, Type (0, 0), None
#     Edge 86, Type (0, 0), None
#     Edge 87, Type (0, 0), None
#     Edge 88, Type (0, 0), None
#     Edge 89, Type (0, 0), None
#     Edge 90, Type (0, 0), None
#     Edge 91, Type (0, 0), None
#     Edge 92, Type (0, 0), None
#     Edge 93, Type (0, 0), None
#     Edge 94, Type (0, 0), None
#     Edge 95, Type (0, 0), None
# Relax obj value: 0.066
# Max RMSD: 0.149
# Mean RMSD: 0.149
data_MOF--net-uoe--node1-QUQFOY_clean_sbu_1--edge1-none
_symmetry_space_group_name_H-M    P1
_symmetry_Int_Tables_number       1
_symmetry_cell_setting            triclinic
loop_
_symmetry_equiv_pos_as_xyz
'x, y, z'
_cell_length_a     35.519928
_cell_length_b     35.499172
_cell_length_c     12.67597
_cell_angle_alpha  89.99953
_cell_angle_beta   89.997215
_cell_angle_gamma 89.999767
loop_
_atom_site_label
_atom_site_type_symbol
_atom_site_fract_x
_atom_site_fract_y
_atom_site_fract_z
_atom_type_partial_charge
O0 O 0.13337 0.49602 0.31647 0.0
Cd1 Cd 0.10739 0.46654 0.20086 0.0
Cd2 Cd 0.13534 0.53147 0.10154 0.0
O3 O 0.16651 0.53984 0.23674 0.0
O4 O 0.10211 0.41871 0.28406 0.0
O5 O 0.1374 0.42407 0.14091 0.0
C6 C 0.12797 0.40504 0.22384 0.0
C7 C 0.15586 0.53149 0.92804 0.0
C8 C 0.1574 0.52222 0.32021 0.0
C9 C 0.05127 0.52422 0.12639 0.0
O10 O 0.07929 0.54589 0.11271 0.0
O11 O 0.05599 0.4895 0.15054 0.0
O12 O 0.1539 0.56249 0.98095 0.0
O13 O 0.14994 0.50009 0.97714 0.0
O14 O 0.81819 0.88337 0.56651 0.0
Cd15 Cd 0.84767 0.85735 0.45096 0.0
Cd16 Cd 0.78277 0.88533 0.35155 0.0
O17 O 0.77439 0.91652 0.48675 0.0
O18 O 0.89544 0.85202 0.53427 0.0
O19 O 0.89016 0.88732 0.39108 0.0
C20 C 0.90915 0.87787 0.47404 0.0
C21 C 0.78273 0.90587 0.17805 0.0
C22 C 0.79199 0.90741 0.57023 0.0
C23 C 0.79001 0.8012 0.37642 0.0
O24 O 0.76836 0.82924 0.3627 0.0
O25 O 0.82471 0.80592 0.40063 0.0
O26 O 0.75175 0.9039 0.23099 0.0
O27 O 0.81412 0.89995 0.22713 0.0
O28 O 0.43096 0.5681 0.81645 0.0
Cd29 Cd 0.45691 0.59759 0.70081 0.0
Cd30 Cd 0.42896 0.53265 0.60152 0.0
O31 O 0.3978 0.52428 0.73674 0.0
O32 O 0.46219 0.64542 0.78399 0.0
O33 O 0.42688 0.64004 0.64089 0.0
C34 C 0.43632 0.65908 0.7238 0.0
C35 C 0.40844 0.53261 0.42803 0.0
C36 C 0.40693 0.54189 0.82021 0.0
C37 C 0.51304 0.53992 0.62631 0.0
O38 O 0.48502 0.51825 0.61266 0.0
O39 O 0.50831 0.57464 0.65045 0.0
O40 O 0.41041 0.50162 0.48096 0.0
O41 O 0.41435 0.56402 0.4771 0.0
O42 O 0.74611 0.18075 0.06651 0.0
Cd43 Cd 0.71665 0.20677 0.95095 0.0
Cd44 Cd 0.78155 0.17878 0.85156 0.0
O45 O 0.78992 0.1476 0.98677 0.0
O46 O 0.66887 0.2121 1.03423 0.0
O47 O 0.67416 0.1768 0.89106 0.0
C48 C 0.65517 0.18626 0.97401 0.0
C49 C 0.78157 0.15824 0.67807 0.0
C50 C 0.77231 0.15671 0.07024 0.0
C51 C 0.77431 0.26291 0.8764 0.0
O52 O 0.79596 0.23487 0.86268 0.0
O53 O 0.73961 0.25819 0.90061 0.0
O54 O 0.81255 0.16021 0.73098 0.0
O55 O 0.75019 0.16417 0.72717 0.0
O56 O 0.13345 0.56809 0.42387 0.0
Cd57 Cd 0.10744 0.59755 0.53947 0.0
Cd58 Cd 0.13534 0.53253 0.63875 0.0
O59 O 0.1665 0.52416 0.50353 0.0
O60 O 0.10213 0.64536 0.45624 0.0
O61 O 0.1374 0.64004 0.59943 0.0
C62 C 0.12797 0.65906 0.51648 0.0
C63 C 0.15586 0.53249 0.81223 0.0
C64 C 0.15744 0.54185 0.42014 0.0
C65 C 0.05127 0.53986 0.61386 0.0
O66 O 0.07927 0.51817 0.62758 0.0
O67 O 0.05602 0.57458 0.58971 0.0
O68 O 0.15388 0.50149 0.75933 0.0
O69 O 0.14996 0.5639 0.76314 0.0
O70 O 0.74613 0.88345 0.67384 0.0
Cd71 Cd 0.71668 0.85739 0.78937 0.0
Cd72 Cd 0.78167 0.88533 0.88877 0.0
O73 O 0.79005 0.9165 0.75355 0.0
O74 O 0.66892 0.85204 0.70603 0.0
O75 O 0.67416 0.88732 0.84926 0.0
C76 C 0.65519 0.87786 0.76627 0.0
C77 C 0.78172 0.90586 0.06224 0.0
C78 C 0.77237 0.90745 0.67015 0.0
C79 C 0.77435 0.8012 0.86384 0.0
O80 O 0.79601 0.82922 0.87761 0.0
O81 O 0.73965 0.80595 0.83961 0.0
O82 O 0.8127 0.90387 1.00932 0.0
O83 O 0.75032 0.89997 1.01318 0.0
O84 O 0.43092 0.49603 0.92381 0.0
Cd85 Cd 0.45692 0.46656 0.03941 0.0
Cd86 Cd 0.42899 0.53156 0.13875 0.0
O87 O 0.39783 0.53993 1.00352 0.0
O88 O 0.46221 0.41874 0.9562 0.0
O89 O 0.42692 0.42409 0.09938 0.0
C90 C 0.43636 0.40506 1.01644 0.0
C91 C 0.40845 0.5316 0.31222 0.0
C92 C 0.4069 0.52225 0.92012 0.0
C93 C 0.51306 0.52425 0.11388 0.0
O94 O 0.48505 0.54593 0.1276 0.0
O95 O 0.50832 0.48953 0.08969 0.0
O96 O 0.41044 0.5626 0.25929 0.0
O97 O 0.41436 0.50019 0.26315 0.0
O98 O 0.81816 0.18067 0.17387 0.0
Cd99 Cd 0.8476 0.20673 0.28941 0.0
Cd100 Cd 0.78261 0.17878 0.38879 0.0
O101 O 0.77424 0.14761 0.25356 0.0
O102 O 0.89536 0.21208 0.20607 0.0
O103 O 0.89012 0.1768 0.3493 0.0
C104 C 0.9091 0.18625 0.26631 0.0
C105 C 0.78257 0.15825 0.56226 0.0
C106 C 0.79193 0.15667 0.17017 0.0
C107 C 0.78993 0.26291 0.36387 0.0
O108 O 0.76826 0.23489 0.37764 0.0
O109 O 0.82463 0.25816 0.33965 0.0
O110 O 0.75159 0.16023 0.50935 0.0
O111 O 0.81396 0.16415 0.51317 0.0
O112 O 0.93091 0.56807 0.92377 0.0
Cd113 Cd 0.95689 0.59756 0.03937 0.0
Cd114 Cd 0.92894 0.53261 0.1387 0.0
O115 O 0.89777 0.52424 1.0035 0.0
O116 O 0.96218 0.64537 0.95614 0.0
O117 O 0.92689 0.64003 0.09929 0.0
C118 C 0.93633 0.65905 1.01636 0.0
C119 C 0.90842 0.5326 0.3122 0.0
C120 C 0.90688 0.54186 0.92003 0.0
C121 C 1.01302 0.53987 0.11385 0.0
O122 O 0.985 0.5182 0.12753 0.0
O123 O 1.00829 0.57459 0.0897 0.0
O124 O 0.91038 0.50159 0.25929 0.0
O125 O 0.91434 0.564 0.2631 0.0
O126 O 0.24615 0.18077 0.67375 0.0
Cd127 Cd 0.21669 0.2068 0.7893 0.0
Cd128 Cd 0.28159 0.17881 0.88869 0.0
O129 O 0.28997 0.14762 0.75349 0.0
O130 O 0.16892 0.21213 0.706 0.0
O131 O 0.17419 0.17683 0.84918 0.0
C132 C 0.1552 0.18629 0.76622 0.0
C133 C 0.28161 0.15827 0.06218 0.0
C134 C 0.27235 0.15673 0.67002 0.0
C135 C 0.27436 0.26294 0.86384 0.0
O136 O 0.296 0.2349 0.87756 0.0
O137 O 0.23966 0.25822 0.83963 0.0
O138 O 0.3126 0.16024 1.00926 0.0
O139 O 0.25023 0.1642 1.01309 0.0
O140 O 0.63342 0.49605 0.42373 0.0
Cd141 Cd 0.60741 0.46657 0.53929 0.0
Cd142 Cd 0.63537 0.5315 0.63868 0.0
O143 O 0.66655 0.53988 0.50349 0.0
O144 O 0.60211 0.41876 0.45606 0.0
O145 O 0.63739 0.42409 0.59924 0.0
C146 C 0.62795 0.40507 0.51629 0.0
C147 C 0.65589 0.53154 0.81218 0.0
C148 C 0.65744 0.52226 0.42001 0.0
C149 C 0.55129 0.52426 0.61378 0.0
O150 O 0.57931 0.54592 0.6275 0.0
O151 O 0.55601 0.48954 0.5896 0.0
O152 O 0.65392 0.56253 0.75925 0.0
O153 O 0.64997 0.50013 0.7631 0.0
O154 O 0.31816 0.88336 0.17375 0.0
Cd155 Cd 0.34762 0.85733 0.28929 0.0
Cd156 Cd 0.28272 0.88532 0.3887 0.0
O157 O 0.27435 0.91651 0.2535 0.0
O158 O 0.39539 0.852 0.206 0.0
O159 O 0.39011 0.88731 0.34918 0.0
C160 C 0.4091 0.87785 0.26621 0.0
C161 C 0.28269 0.90587 0.5622 0.0
C162 C 0.29196 0.9074 0.17002 0.0
C163 C 0.28996 0.8012 0.36386 0.0
O164 O 0.26831 0.82924 0.37758 0.0
O165 O 0.32466 0.80591 0.33964 0.0
O166 O 0.25171 0.9039 0.50928 0.0
O167 O 0.31408 0.89994 0.5131 0.0
O168 O 0.93083 0.496 0.81637 0.0
Cd169 Cd 0.95685 0.46654 0.70076 0.0
Cd170 Cd 0.92894 0.53156 0.60149 0.0
O171 O 0.89778 0.53993 0.73672 0.0
O172 O 0.96215 0.41872 0.78397 0.0
O173 O 0.92687 0.42406 0.64079 0.0
C174 C 0.93631 0.40504 0.72373 0.0
C175 C 0.90842 0.5316 0.42801 0.0
C176 C 0.90684 0.52224 0.8201 0.0
C177 C 1.01301 0.52423 0.62637 0.0
O178 O 0.98501 0.54592 0.61266 0.0
O179 O 1.00826 0.48951 0.65052 0.0
O180 O 0.9104 0.5626 0.48091 0.0
O181 O 0.91432 0.50019 0.4771 0.0
O182 O 0.3182 0.18068 0.56637 0.0
Cd183 Cd 0.34764 0.20674 0.45081 0.0
Cd184 Cd 0.28265 0.1788 0.35147 0.0
O185 O 0.27428 0.14763 0.4867 0.0
O186 O 0.39541 0.21209 0.53412 0.0
O187 O 0.39015 0.1768 0.3909 0.0
C188 C 0.40913 0.18625 0.47388 0.0
C189 C 0.28262 0.15827 0.17799 0.0
C190 C 0.29197 0.15668 0.57009 0.0
C191 C 0.28997 0.26292 0.37637 0.0
O192 O 0.2683 0.2349 0.36262 0.0
O193 O 0.32466 0.25818 0.40058 0.0
O194 O 0.25163 0.16025 0.2309 0.0
O195 O 0.31401 0.16417 0.22707 0.0
O196 O 0.63349 0.56813 0.31639 0.0
Cd197 Cd 0.60747 0.59759 0.20082 0.0
Cd198 Cd 0.63539 0.53258 0.10149 0.0
O199 O 0.66656 0.52421 0.2367 0.0
O200 O 0.60215 0.6454 0.28407 0.0
O201 O 0.63743 0.64009 0.14087 0.0
C202 C 0.62799 0.6591 0.22384 0.0
C203 C 0.6559 0.53254 0.92799 0.0
C204 C 0.65749 0.5419 0.3201 0.0
C205 C 0.55132 0.53989 0.1264 0.0
O206 O 0.57933 0.51821 0.11268 0.0
O207 O 0.55606 0.57461 0.15057 0.0
O208 O 0.65393 0.50154 0.98091 0.0
O209 O 0.65 0.56395 0.97707 0.0
O210 O 0.24611 0.88344 0.0664 0.0
Cd211 Cd 0.21666 0.85739 0.95086 0.0
Cd212 Cd 0.28164 0.88533 0.85148 0.0
O213 O 0.29002 0.9165 0.98671 0.0
O214 O 0.16889 0.85205 1.03417 0.0
O215 O 0.17415 0.88733 0.89095 0.0
C216 C 0.15517 0.87788 0.97393 0.0
C217 C 0.28169 0.90587 0.67801 0.0
C218 C 0.27234 0.90745 0.0701 0.0
C219 C 0.27433 0.80121 0.87639 0.0
O220 O 0.29599 0.82923 0.86262 0.0
O221 O 0.23963 0.80595 0.90061 0.0
O222 O 0.31267 0.90388 0.73092 0.0
O223 O 0.2503 0.89997 0.72709 0.0
O224 O 0.63337 0.99602 0.81648 0.0
Cd225 Cd 0.60739 0.96654 0.70088 0.0
Cd226 Cd 0.63535 1.03147 0.60155 0.0
O227 O 0.66652 0.03984 0.73675 0.0
O228 O 0.6021 0.91871 0.78408 0.0
O229 O 0.63741 0.92408 0.6409 0.0
C230 C 0.62796 0.90506 0.72384 0.0
C231 C 0.65587 1.03149 0.42804 0.0
C232 C 0.6574 1.02223 0.82022 0.0
C233 C 0.55127 1.02422 0.62638 0.0
O234 O 0.57929 0.04589 0.61271 0.0
O235 O 0.55599 0.9895 0.65054 0.0
O236 O 0.65391 0.06249 0.48096 0.0
O237 O 0.64995 1.00009 0.47714 0.0
O238 O 0.31819 0.38338 0.06651 0.0
Cd239 Cd 0.34766 0.35736 0.95096 0.0
Cd240 Cd 0.28275 0.38534 0.85156 0.0
O241 O 0.27437 0.41652 0.98676 0.0
O242 O 0.39543 0.35202 1.03426 0.0
O243 O 0.39014 0.38734 0.89106 0.0
C244 C 0.40913 0.37787 0.97401 0.0
C245 C 0.28271 0.40588 0.67806 0.0
C246 C 0.29198 0.40741 0.07024 0.0
C247 C 0.29 0.30121 0.8764 0.0
O248 O 0.26835 0.32925 0.86269 0.0
O249 O 0.3247 0.30593 0.90061 0.0
O250 O 0.25174 0.40391 0.731 0.0
O251 O 0.3141 0.39996 0.72714 0.0
O252 O 0.93092 0.0681 0.31649 0.0
Cd253 Cd 0.9569 0.09759 0.20089 0.0
Cd254 Cd 0.92895 0.03264 0.10156 0.0
O255 O 0.89778 1.02427 0.23677 0.0
O256 O 0.96218 0.14541 0.28409 0.0
O257 O 0.92688 0.14004 0.14093 0.0
C258 C 0.93632 0.15906 0.22386 0.0
C259 C 0.90843 0.03262 0.92806 0.0
C260 C 0.90689 0.04189 0.32024 0.0
C261 C 1.01302 0.0399 0.12639 0.0
O262 O 0.98501 1.01823 0.11272 0.0
O263 O 1.0083 0.07463 0.15054 0.0
O264 O 0.91039 1.00162 0.98098 0.0
O265 O 0.91435 0.06402 0.97716 0.0
O266 O 0.24611 0.68076 0.56655 0.0
Cd267 Cd 0.21664 0.70679 0.451 0.0
Cd268 Cd 0.28154 0.6788 0.35158 0.0
O269 O 0.28991 0.64761 0.48678 0.0
O270 O 0.16887 0.71212 0.53428 0.0
O271 O 0.17417 0.6768 0.39108 0.0
C272 C 0.15518 0.68627 0.47404 0.0
C273 C 0.28157 0.65826 0.17809 0.0
C274 C 0.27231 0.65672 0.57026 0.0
C275 C 0.27431 0.76293 0.37643 0.0
O276 O 0.29595 0.73489 0.36272 0.0
O277 O 0.23961 0.75821 0.40064 0.0
O278 O 0.31255 0.66022 0.23101 0.0
O279 O 0.25019 0.66419 0.22717 0.0
O280 O 0.63345 0.0681 0.92386 0.0
Cd281 Cd 0.60743 0.09756 0.03945 0.0
Cd282 Cd 0.63534 0.03253 0.13876 0.0
O283 O 0.6665 1.02416 1.00353 0.0
O284 O 0.60211 0.14537 0.9562 0.0
O285 O 0.6374 0.14004 0.09942 0.0
C286 C 0.62795 0.15905 1.01646 0.0
C287 C 0.65586 0.0325 0.31223 0.0
C288 C 0.65744 0.04186 0.92014 0.0
C289 C 0.55127 0.03986 0.11387 0.0
O290 O 0.57928 1.01817 0.12759 0.0
O291 O 0.55602 0.07458 0.0897 0.0
O292 O 0.65388 1.00149 0.25932 0.0
O293 O 0.64997 0.06391 0.26315 0.0
O294 O 0.24612 0.38344 0.17384 0.0
Cd295 Cd 0.21667 0.35738 0.28936 0.0
Cd296 Cd 0.28165 0.38533 0.38878 0.0
O297 O 0.29004 0.4165 0.25356 0.0
O298 O 0.16891 0.35202 0.20602 0.0
O299 O 0.17416 0.38731 0.34928 0.0
C300 C 0.15519 0.37785 0.26628 0.0
C301 C 0.2817 0.40587 0.56225 0.0
C302 C 0.27236 0.40745 0.17016 0.0
C303 C 0.27435 0.3012 0.36385 0.0
O304 O 0.29601 0.32923 0.37763 0.0
O305 O 0.23965 0.30595 0.33961 0.0
O306 O 0.31268 0.40388 0.50932 0.0
O307 O 0.25031 0.39997 0.51319 0.0
O308 O 0.93086 0.99602 0.42387 0.0
Cd309 Cd 0.95688 0.96657 0.53946 0.0
Cd310 Cd 0.92896 1.03158 0.63877 0.0
O311 O 0.8978 0.03995 0.50356 0.0
O312 O 0.9622 0.91876 0.45622 0.0
O313 O 0.92691 0.92408 0.59944 0.0
C314 C 0.93636 0.90507 0.51648 0.0
C315 C 0.90844 1.03162 0.81225 0.0
C316 C 0.90686 1.02226 0.42016 0.0
C317 C 1.01303 1.02427 0.61386 0.0
O318 O 0.98502 0.04595 0.62759 0.0
O319 O 1.00829 0.98955 0.5897 0.0
O320 O 0.91041 0.06262 0.75934 0.0
O321 O 0.91434 1.00021 0.76317 0.0
O322 O 0.31817 0.68068 0.67386 0.0
Cd323 Cd 0.34762 0.70675 0.78937 0.0
Cd324 Cd 0.28263 0.6788 0.8888 0.0
O325 O 0.27425 0.64763 0.75358 0.0
O326 O 0.39537 0.7121 0.706 0.0
O327 O 0.39013 0.67681 0.84926 0.0
C328 C 0.4091 0.68627 0.76625 0.0
C329 C 0.28258 0.65827 0.06228 0.0
C330 C 0.29193 0.65668 0.67018 0.0
C331 C 0.28995 0.76293 0.86386 0.0
O332 O 0.26828 0.7349 0.87765 0.0
O333 O 0.32464 0.75818 0.83962 0.0
O334 O 0.2516 0.66026 1.00936 0.0
O335 O 0.31398 0.66416 1.0132 0.0
O336 O 0.43091 0.06808 0.42376 0.0
Cd337 Cd 0.4569 0.09757 0.53934 0.0
Cd338 Cd 0.42894 0.03263 0.6387 0.0
O339 O 0.39777 1.02425 0.5035 0.0
O340 O 0.4622 0.14538 0.45609 0.0
O341 O 0.4269 0.14004 0.59928 0.0
C342 C 0.43635 0.15905 0.51633 0.0
C343 C 0.40842 0.0326 0.8122 0.0
C344 C 0.40689 0.04187 0.42003 0.0
C345 C 0.51302 0.03988 0.61384 0.0
O346 O 0.485 1.01821 0.62753 0.0
O347 O 0.5083 0.0746 0.58968 0.0
O348 O 0.41038 1.0016 0.75928 0.0
O349 O 0.41434 0.064 0.76311 0.0
O350 O 0.74614 0.68078 0.17376 0.0
Cd351 Cd 0.71668 0.70681 0.28932 0.0
Cd352 Cd 0.78158 0.67881 0.3887 0.0
O353 O 0.78994 0.64762 0.25349 0.0
O354 O 0.6689 0.71215 0.20605 0.0
O355 O 0.67419 0.67683 0.34924 0.0
C356 C 0.65521 0.6863 0.26629 0.0
C357 C 0.7816 0.65826 0.56218 0.0
C358 C 0.77233 0.65673 0.17002 0.0
C359 C 0.77436 0.76294 0.36386 0.0
O360 O 0.796 0.73489 0.37756 0.0
O361 O 0.73965 0.75822 0.33966 0.0
O362 O 0.81258 0.66022 0.50926 0.0
O363 O 0.75021 0.6642 0.51309 0.0
O364 O 0.13338 0.99605 0.92373 0.0
Cd365 Cd 0.1074 0.96656 0.03933 0.0
Cd366 Cd 0.13535 1.0315 0.13867 0.0
O367 O 0.16652 0.03987 1.00346 0.0
O368 O 0.1021 0.91874 0.95613 0.0
O369 O 0.1374 0.9241 0.0993 0.0
C370 C 0.12795 0.90508 1.01637 0.0
C371 C 0.15588 1.03153 0.31216 0.0
C372 C 0.15741 1.02225 0.91999 0.0
C373 C 0.05127 1.02425 0.11384 0.0
O374 O 0.07929 0.04592 0.12752 0.0
O375 O 0.056 0.98953 0.08968 0.0
O376 O 0.15391 0.06253 0.25924 0.0
O377 O 0.14995 1.00012 0.26307 0.0
O378 O 0.81814 0.38335 0.67372 0.0
Cd379 Cd 0.84762 0.35732 0.78924 0.0
Cd380 Cd 0.78272 0.38531 0.88869 0.0
O381 O 0.77434 0.41649 0.75349 0.0
O382 O 0.89539 0.35199 0.70593 0.0
O383 O 0.8901 0.3873 0.84914 0.0
C384 C 0.90909 0.37783 0.76617 0.0
C385 C 0.78268 0.40585 0.06218 0.0
C386 C 0.79194 0.40739 0.67 0.0
C387 C 0.78996 0.30118 0.86383 0.0
O388 O 0.76831 0.32922 0.87756 0.0
O389 O 0.82466 0.3059 0.8396 0.0
O390 O 0.75171 0.40388 1.00926 0.0
O391 O 0.81407 0.39993 1.0131 0.0
O392 O 0.43084 0.996 0.31639 0.0
Cd393 Cd 0.45685 0.96654 0.2008 0.0
Cd394 Cd 0.42894 1.03156 0.10149 0.0
O395 O 0.39778 0.03993 0.23671 0.0
O396 O 0.46216 0.91873 0.28403 0.0
O397 O 0.42688 0.92406 0.14082 0.0
C398 C 0.43632 0.90505 0.22377 0.0
C399 C 0.40842 1.0316 0.92801 0.0
C400 C 0.40684 1.02224 0.32011 0.0
C401 C 0.51301 1.02423 0.12638 0.0
O402 O 0.48501 0.04592 0.11266 0.0
O403 O 0.50826 0.98951 0.15054 0.0
O404 O 0.4104 0.0626 0.98092 0.0
O405 O 0.41432 1.00019 0.97709 0.0
O406 O 0.81818 0.68068 0.06637 0.0
Cd407 Cd 0.84763 0.70674 0.95083 0.0
Cd408 Cd 0.78264 0.6788 0.85147 0.0
O409 O 0.77426 0.64763 0.9867 0.0
O410 O 0.89539 0.71209 1.03416 0.0
O411 O 0.89014 0.67679 0.89092 0.0
C412 C 0.90911 0.68625 0.97391 0.0
C413 C 0.7826 0.65826 0.67799 0.0
C414 C 0.79195 0.65668 0.07009 0.0
C415 C 0.78996 0.76292 0.87636 0.0
O416 O 0.7683 0.7349 0.86261 0.0
O417 O 0.82466 0.75817 0.90058 0.0
O418 O 0.75162 0.66025 0.73091 0.0
O419 O 0.81399 0.66416 0.72707 0.0
O420 O 0.13346 0.06813 0.81636 0.0
Cd421 Cd 0.10745 0.09759 0.70078 0.0
Cd422 Cd 0.13536 0.03257 0.60146 0.0
O423 O 0.16652 1.0242 0.73668 0.0
O424 O 0.10214 0.14541 0.78403 0.0
O425 O 0.13743 0.14008 0.64081 0.0
C426 C 0.12799 0.15908 0.72378 0.0
C427 C 0.15588 0.03253 0.42797 0.0
C428 C 0.15746 0.04189 0.82007 0.0
C429 C 0.05129 0.0399 0.62637 0.0
O430 O 0.07929 1.01822 0.61264 0.0
O431 O 0.05604 0.07462 0.65053 0.0
O432 O 0.1539 1.00153 0.48089 0.0
O433 O 0.14998 0.06394 0.47706 0.0
O434 O 0.74609 0.38343 0.56639 0.0
Cd435 Cd 0.71664 0.35737 0.45085 0.0
Cd436 Cd 0.78163 0.38531 0.35147 0.0
O437 O 0.79 0.41648 0.48669 0.0
O438 O 0.66887 0.35203 0.53414 0.0
O439 O 0.67415 0.38732 0.39089 0.0
C440 C 0.65517 0.37786 0.47387 0.0
C441 C 0.78168 0.40585 0.17799 0.0
C442 C 0.77232 0.40743 0.57009 0.0
C443 C 0.77431 0.30119 0.37639 0.0
O444 O 0.79598 0.32921 0.36263 0.0
O445 O 0.73961 0.30594 0.40061 0.0
O446 O 0.81266 0.40386 0.23091 0.0
O447 O 0.75028 0.39995 0.22707 0.0
loop_
_geom_bond_atom_site_label_1
_geom_bond_atom_site_label_2
_geom_bond_distance
_geom_bond_site_symmetry_2
_ccdc_geom_bond_type
O0 Cd1 2.223 . S
O0 C8 1.315 . S
Cd1 O0 2.223 . S
Cd1 O4 2.297 . S
Cd1 O5 2.439 . S
Cd1 O11 2.240 . S
Cd2 O3 2.240 . S
Cd2 O10 2.223 . S
Cd2 O12 2.297 1_554 S
Cd2 O13 2.439 1_554 S
O3 Cd2 2.240 . S
O3 C8 1.279 . S
O4 Cd1 2.297 . S
O4 C6 1.247 . S
O5 Cd1 2.439 . S
O5 C6 1.208 . S
C6 O4 1.247 . S
C6 O5 1.208 . S
C7 O12 1.247 . S
C7 O13 1.208 . S
C8 O0 1.315 . S
C8 O3 1.279 . S
C9 O10 1.315 . S
C9 O11 1.279 . S
O10 Cd2 2.223 . S
O10 C9 1.315 . S
O11 Cd1 2.240 . S
O11 C9 1.279 . S
O12 Cd2 2.297 1_556 S
O12 C7 1.247 . S
O13 Cd2 2.439 1_556 S
O13 C7 1.208 . S
O14 Cd15 2.223 . S
O14 C22 1.315 . S
Cd15 O14 2.223 . S
Cd15 O18 2.297 . S
Cd15 O19 2.439 . S
Cd15 O25 2.240 . S
Cd16 O17 2.240 . S
Cd16 O24 2.223 . S
Cd16 O26 2.297 . S
Cd16 O27 2.439 . S
O17 Cd16 2.240 . S
O17 C22 1.279 . S
O18 Cd15 2.297 . S
O18 C20 1.247 . S
O19 Cd15 2.439 . S
O19 C20 1.208 . S
C20 O18 1.247 . S
C20 O19 1.208 . S
C21 O26 1.247 . S
C21 O27 1.208 . S
C22 O14 1.315 . S
C22 O17 1.279 . S
C23 O24 1.315 . S
C23 O25 1.279 . S
O24 Cd16 2.223 . S
O24 C23 1.315 . S
O25 Cd15 2.240 . S
O25 C23 1.279 . S
O26 Cd16 2.297 . S
O26 C21 1.247 . S
O27 Cd16 2.439 . S
O27 C21 1.208 . S
O28 Cd29 2.223 . S
O28 C36 1.315 . S
Cd29 O28 2.223 . S
Cd29 O32 2.297 . S
Cd29 O33 2.439 . S
Cd29 O39 2.240 . S
Cd30 O31 2.240 . S
Cd30 O38 2.223 . S
Cd30 O40 2.297 . S
Cd30 O41 2.439 . S
O31 Cd30 2.240 . S
O31 C36 1.279 . S
O32 Cd29 2.297 . S
O32 C34 1.247 . S
O33 Cd29 2.439 . S
O33 C34 1.208 . S
C34 O32 1.247 . S
C34 O33 1.208 . S
C35 O40 1.247 . S
C35 O41 1.208 . S
C36 O28 1.315 . S
C36 O31 1.279 . S
C37 O38 1.315 . S
C37 O39 1.279 . S
O38 Cd30 2.223 . S
O38 C37 1.315 . S
O39 Cd29 2.240 . S
O39 C37 1.279 . S
O40 Cd30 2.297 . S
O40 C35 1.247 . S
O41 Cd30 2.439 . S
O41 C35 1.208 . S
O42 Cd43 2.223 1_554 S
O42 C50 1.315 . S
Cd43 O42 2.223 1_556 S
Cd43 O46 2.297 1_556 S
Cd43 O47 2.439 . S
Cd43 O53 2.240 . S
Cd44 O45 2.240 . S
Cd44 O52 2.223 . S
Cd44 O54 2.297 . S
Cd44 O55 2.439 . S
O45 Cd44 2.240 . S
O45 C50 1.279 1_556 S
O46 Cd43 2.297 1_554 S
O46 C48 1.247 1_554 S
O47 Cd43 2.439 . S
O47 C48 1.208 . S
C48 O46 1.247 1_556 S
C48 O47 1.208 . S
C49 O54 1.247 . S
C49 O55 1.208 . S
C50 O42 1.315 . S
C50 O45 1.279 1_554 S
C51 O52 1.315 . S
C51 O53 1.279 . S
O52 Cd44 2.223 . S
O52 C51 1.315 . S
O53 Cd43 2.240 . S
O53 C51 1.279 . S
O54 Cd44 2.297 . S
O54 C49 1.247 . S
O55 Cd44 2.439 . S
O55 C49 1.208 . S
O56 Cd57 2.223 . S
O56 C64 1.315 . S
Cd57 O56 2.223 . S
Cd57 O60 2.297 . S
Cd57 O61 2.439 . S
Cd57 O67 2.240 . S
Cd58 O59 2.240 . S
Cd58 O66 2.223 . S
Cd58 O68 2.297 . S
Cd58 O69 2.439 . S
O59 Cd58 2.240 . S
O59 C64 1.279 . S
O60 Cd57 2.297 . S
O60 C62 1.247 . S
O61 Cd57 2.439 . S
O61 C62 1.208 . S
C62 O60 1.247 . S
C62 O61 1.208 . S
C63 O68 1.247 . S
C63 O69 1.208 . S
C64 O56 1.315 . S
C64 O59 1.279 . S
C65 O66 1.315 . S
C65 O67 1.279 . S
O66 Cd58 2.223 . S
O66 C65 1.315 . S
O67 Cd57 2.240 . S
O67 C65 1.279 . S
O68 Cd58 2.297 . S
O68 C63 1.247 . S
O69 Cd58 2.439 . S
O69 C63 1.208 . S
O70 Cd71 2.223 . S
O70 C78 1.315 . S
Cd71 O70 2.223 . S
Cd71 O74 2.297 . S
Cd71 O75 2.439 . S
Cd71 O81 2.240 . S
Cd72 O73 2.240 . S
Cd72 O80 2.223 . S
Cd72 O82 2.297 1_556 S
Cd72 O83 2.439 . S
O73 Cd72 2.240 . S
O73 C78 1.279 . S
O74 Cd71 2.297 . S
O74 C76 1.247 . S
O75 Cd71 2.439 . S
O75 C76 1.208 . S
C76 O74 1.247 . S
C76 O75 1.208 . S
C77 O82 1.247 . S
C77 O83 1.208 1_554 S
C78 O70 1.315 . S
C78 O73 1.279 . S
C79 O80 1.315 . S
C79 O81 1.279 . S
O80 Cd72 2.223 . S
O80 C79 1.315 . S
O81 Cd71 2.240 . S
O81 C79 1.279 . S
O82 Cd72 2.297 1_554 S
O82 C77 1.247 . S
O83 Cd72 2.439 . S
O83 C77 1.208 1_556 S
O84 Cd85 2.223 . S
O84 C92 1.315 . S
Cd85 O84 2.223 . S
Cd85 O88 2.297 . S
Cd85 O89 2.439 1_556 S
Cd85 O95 2.240 1_556 S
Cd86 O87 2.240 1_554 S
Cd86 O94 2.223 . S
Cd86 O96 2.297 . S
Cd86 O97 2.439 . S
O87 Cd86 2.240 1_556 S
O87 C92 1.279 . S
O88 Cd85 2.297 . S
O88 C90 1.247 . S
O89 Cd85 2.439 1_554 S
O89 C90 1.208 1_554 S
C90 O88 1.247 . S
C90 O89 1.208 1_556 S
C91 O96 1.247 . S
C91 O97 1.208 . S
C92 O84 1.315 . S
C92 O87 1.279 . S
C93 O94 1.315 . S
C93 O95 1.279 . S
O94 Cd86 2.223 . S
O94 C93 1.315 . S
O95 Cd85 2.240 1_554 S
O95 C93 1.279 . S
O96 Cd86 2.297 . S
O96 C91 1.247 . S
O97 Cd86 2.439 . S
O97 C91 1.208 . S
O98 Cd99 2.223 . S
O98 C106 1.315 . S
Cd99 O98 2.223 . S
Cd99 O102 2.297 . S
Cd99 O103 2.439 . S
Cd99 O109 2.240 . S
Cd100 O101 2.240 . S
Cd100 O108 2.223 . S
Cd100 O110 2.297 . S
Cd100 O111 2.439 . S
O101 Cd100 2.240 . S
O101 C106 1.279 . S
O102 Cd99 2.297 . S
O102 C104 1.247 . S
O103 Cd99 2.439 . S
O103 C104 1.208 . S
C104 O102 1.247 . S
C104 O103 1.208 . S
C105 O110 1.247 . S
C105 O111 1.208 . S
C106 O98 1.315 . S
C106 O101 1.279 . S
C107 O108 1.315 . S
C107 O109 1.279 . S
O108 Cd100 2.223 . S
O108 C107 1.315 . S
O109 Cd99 2.240 . S
O109 C107 1.279 . S
O110 Cd100 2.297 . S
O110 C105 1.247 . S
O111 Cd100 2.439 . S
O111 C105 1.208 . S
O112 Cd113 2.223 . S
O112 C120 1.315 . S
Cd113 O112 2.223 . S
Cd113 O116 2.297 . S
Cd113 O117 2.439 1_556 S
Cd113 O123 2.240 1_556 S
Cd114 O115 2.240 1_554 S
Cd114 O122 2.223 . S
Cd114 O124 2.297 . S
Cd114 O125 2.439 . S
O115 Cd114 2.240 1_556 S
O115 C120 1.279 . S
O116 Cd113 2.297 . S
O116 C118 1.247 . S
O117 Cd113 2.439 1_554 S
O117 C118 1.208 1_554 S
C118 O116 1.247 . S
C118 O117 1.208 1_556 S
C119 O124 1.247 . S
C119 O125 1.208 . S
C120 O112 1.315 . S
C120 O115 1.279 . S
C121 O122 1.315 . S
C121 O123 1.279 . S
O122 Cd114 2.223 . S
O122 C121 1.315 . S
O123 Cd113 2.240 1_554 S
O123 C121 1.279 . S
O124 Cd114 2.297 . S
O124 C119 1.247 . S
O125 Cd114 2.439 . S
O125 C119 1.208 . S
O126 Cd127 2.223 . S
O126 C134 1.315 . S
Cd127 O126 2.223 . S
Cd127 O130 2.297 . S
Cd127 O131 2.439 . S
Cd127 O137 2.240 . S
Cd128 O129 2.240 . S
Cd128 O136 2.223 . S
Cd128 O138 2.297 1_556 S
Cd128 O139 2.439 . S
O129 Cd128 2.240 . S
O129 C134 1.279 . S
O130 Cd127 2.297 . S
O130 C132 1.247 . S
O131 Cd127 2.439 . S
O131 C132 1.208 . S
C132 O130 1.247 . S
C132 O131 1.208 . S
C133 O138 1.247 . S
C133 O139 1.208 1_554 S
C134 O126 1.315 . S
C134 O129 1.279 . S
C135 O136 1.315 . S
C135 O137 1.279 . S
O136 Cd128 2.223 . S
O136 C135 1.315 . S
O137 Cd127 2.240 . S
O137 C135 1.279 . S
O138 Cd128 2.297 1_554 S
O138 C133 1.247 . S
O139 Cd128 2.439 . S
O139 C133 1.208 1_556 S
O140 Cd141 2.223 . S
O140 C148 1.315 . S
Cd141 O140 2.223 . S
Cd141 O144 2.297 . S
Cd141 O145 2.439 . S
Cd141 O151 2.240 . S
Cd142 O143 2.240 . S
Cd142 O150 2.223 . S
Cd142 O152 2.297 . S
Cd142 O153 2.439 . S
O143 Cd142 2.240 . S
O143 C148 1.279 . S
O144 Cd141 2.297 . S
O144 C146 1.247 . S
O145 Cd141 2.439 . S
O145 C146 1.208 . S
C146 O144 1.247 . S
C146 O145 1.208 . S
C147 O152 1.247 . S
C147 O153 1.208 . S
C148 O140 1.315 . S
C148 O143 1.279 . S
C149 O150 1.315 . S
C149 O151 1.279 . S
O150 Cd142 2.223 . S
O150 C149 1.315 . S
O151 Cd141 2.240 . S
O151 C149 1.279 . S
O152 Cd142 2.297 . S
O152 C147 1.247 . S
O153 Cd142 2.439 . S
O153 C147 1.208 . S
O154 Cd155 2.223 . S
O154 C162 1.315 . S
Cd155 O154 2.223 . S
Cd155 O158 2.297 . S
Cd155 O159 2.439 . S
Cd155 O165 2.240 . S
Cd156 O157 2.240 . S
Cd156 O164 2.223 . S
Cd156 O166 2.297 . S
Cd156 O167 2.439 . S
O157 Cd156 2.240 . S
O157 C162 1.279 . S
O158 Cd155 2.297 . S
O158 C160 1.247 . S
O159 Cd155 2.439 . S
O159 C160 1.208 . S
C160 O158 1.247 . S
C160 O159 1.208 . S
C161 O166 1.247 . S
C161 O167 1.208 . S
C162 O154 1.315 . S
C162 O157 1.279 . S
C163 O164 1.315 . S
C163 O165 1.279 . S
O164 Cd156 2.223 . S
O164 C163 1.315 . S
O165 Cd155 2.240 . S
O165 C163 1.279 . S
O166 Cd156 2.297 . S
O166 C161 1.247 . S
O167 Cd156 2.439 . S
O167 C161 1.208 . S
O168 Cd169 2.223 . S
O168 C176 1.315 . S
Cd169 O168 2.223 . S
Cd169 O172 2.297 . S
Cd169 O173 2.439 . S
Cd169 O179 2.240 . S
Cd170 O171 2.240 . S
Cd170 O178 2.223 . S
Cd170 O180 2.297 . S
Cd170 O181 2.439 . S
O171 Cd170 2.240 . S
O171 C176 1.279 . S
O172 Cd169 2.297 . S
O172 C174 1.247 . S
O173 Cd169 2.439 . S
O173 C174 1.208 . S
C174 O172 1.247 . S
C174 O173 1.208 . S
C175 O180 1.247 . S
C175 O181 1.208 . S
C176 O168 1.315 . S
C176 O171 1.279 . S
C177 O178 1.315 . S
C177 O179 1.279 . S
O178 Cd170 2.223 . S
O178 C177 1.315 . S
O179 Cd169 2.240 . S
O179 C177 1.279 . S
O180 Cd170 2.297 . S
O180 C175 1.247 . S
O181 Cd170 2.439 . S
O181 C175 1.208 . S
O182 Cd183 2.223 . S
O182 C190 1.315 . S
Cd183 O182 2.223 . S
Cd183 O186 2.297 . S
Cd183 O187 2.439 . S
Cd183 O193 2.240 . S
Cd184 O185 2.240 . S
Cd184 O192 2.223 . S
Cd184 O194 2.297 . S
Cd184 O195 2.439 . S
O185 Cd184 2.240 . S
O185 C190 1.279 . S
O186 Cd183 2.297 . S
O186 C188 1.247 . S
O187 Cd183 2.439 . S
O187 C188 1.208 . S
C188 O186 1.247 . S
C188 O187 1.208 . S
C189 O194 1.247 . S
C189 O195 1.208 . S
C190 O182 1.315 . S
C190 O185 1.279 . S
C191 O192 1.315 . S
C191 O193 1.279 . S
O192 Cd184 2.223 . S
O192 C191 1.315 . S
O193 Cd183 2.240 . S
O193 C191 1.279 . S
O194 Cd184 2.297 . S
O194 C189 1.247 . S
O195 Cd184 2.439 . S
O195 C189 1.208 . S
O196 Cd197 2.223 . S
O196 C204 1.315 . S
Cd197 O196 2.223 . S
Cd197 O200 2.297 . S
Cd197 O201 2.439 . S
Cd197 O207 2.240 . S
Cd198 O199 2.240 . S
Cd198 O206 2.223 . S
Cd198 O208 2.297 1_554 S
Cd198 O209 2.439 1_554 S
O199 Cd198 2.240 . S
O199 C204 1.279 . S
O200 Cd197 2.297 . S
O200 C202 1.247 . S
O201 Cd197 2.439 . S
O201 C202 1.208 . S
C202 O200 1.247 . S
C202 O201 1.208 . S
C203 O208 1.247 . S
C203 O209 1.208 . S
C204 O196 1.315 . S
C204 O199 1.279 . S
C205 O206 1.315 . S
C205 O207 1.279 . S
O206 Cd198 2.223 . S
O206 C205 1.315 . S
O207 Cd197 2.240 . S
O207 C205 1.279 . S
O208 Cd198 2.297 1_556 S
O208 C203 1.247 . S
O209 Cd198 2.439 1_556 S
O209 C203 1.208 . S
O210 Cd211 2.223 1_554 S
O210 C218 1.315 . S
Cd211 O210 2.223 1_556 S
Cd211 O214 2.297 1_556 S
Cd211 O215 2.439 . S
Cd211 O221 2.240 . S
Cd212 O213 2.240 . S
Cd212 O220 2.223 . S
Cd212 O222 2.297 . S
Cd212 O223 2.439 . S
O213 Cd212 2.240 . S
O213 C218 1.279 1_556 S
O214 Cd211 2.297 1_554 S
O214 C216 1.247 1_554 S
O215 Cd211 2.439 . S
O215 C216 1.208 . S
C216 O214 1.247 1_556 S
C216 O215 1.208 . S
C217 O222 1.247 . S
C217 O223 1.208 . S
C218 O210 1.315 . S
C218 O213 1.279 1_554 S
C219 O220 1.315 . S
C219 O221 1.279 . S
O220 Cd212 2.223 . S
O220 C219 1.315 . S
O221 Cd211 2.240 . S
O221 C219 1.279 . S
O222 Cd212 2.297 . S
O222 C217 1.247 . S
O223 Cd212 2.439 . S
O223 C217 1.208 . S
O224 Cd225 2.223 . S
O224 C232 1.315 . S
Cd225 O224 2.223 . S
Cd225 O228 2.297 . S
Cd225 O229 2.439 . S
Cd225 O235 2.240 . S
Cd226 O227 2.240 1_545 S
Cd226 O234 2.223 . S
Cd226 O236 2.297 . S
Cd226 O237 2.439 1_545 S
O227 Cd226 2.240 1_565 S
O227 C232 1.279 . S
O228 Cd225 2.297 . S
O228 C230 1.247 . S
O229 Cd225 2.439 . S
O229 C230 1.208 . S
C230 O228 1.247 . S
C230 O229 1.208 . S
C231 O236 1.247 . S
C231 O237 1.208 1_545 S
C232 O224 1.315 . S
C232 O227 1.279 . S
C233 O234 1.315 1_565 S
C233 O235 1.279 . S
O234 Cd226 2.223 . S
O234 C233 1.315 1_545 S
O235 Cd225 2.240 . S
O235 C233 1.279 . S
O236 Cd226 2.297 . S
O236 C231 1.247 . S
O237 Cd226 2.439 1_565 S
O237 C231 1.208 1_565 S
O238 Cd239 2.223 1_554 S
O238 C246 1.315 . S
Cd239 O238 2.223 1_556 S
Cd239 O242 2.297 1_556 S
Cd239 O243 2.439 . S
Cd239 O249 2.240 . S
Cd240 O241 2.240 . S
Cd240 O248 2.223 . S
Cd240 O250 2.297 . S
Cd240 O251 2.439 . S
O241 Cd240 2.240 . S
O241 C246 1.279 1_556 S
O242 Cd239 2.297 1_554 S
O242 C244 1.247 1_554 S
O243 Cd239 2.439 . S
O243 C244 1.208 . S
C244 O242 1.247 1_556 S
C244 O243 1.208 . S
C245 O250 1.247 . S
C245 O251 1.208 . S
C246 O238 1.315 . S
C246 O241 1.279 1_554 S
C247 O248 1.315 . S
C247 O249 1.279 . S
O248 Cd240 2.223 . S
O248 C247 1.315 . S
O249 Cd239 2.240 . S
O249 C247 1.279 . S
O250 Cd240 2.297 . S
O250 C245 1.247 . S
O251 Cd240 2.439 . S
O251 C245 1.208 . S
O252 Cd253 2.223 . S
O252 C260 1.315 . S
Cd253 O252 2.223 . S
Cd253 O256 2.297 . S
Cd253 O257 2.439 . S
Cd253 O263 2.240 . S
Cd254 O255 2.240 1_565 S
Cd254 O262 2.223 . S
Cd254 O264 2.297 1_554 S
Cd254 O265 2.439 1_564 S
O255 Cd254 2.240 1_545 S
O255 C260 1.279 . S
O256 Cd253 2.297 . S
O256 C258 1.247 . S
O257 Cd253 2.439 . S
O257 C258 1.208 . S
C258 O256 1.247 . S
C258 O257 1.208 . S
C259 O264 1.247 . S
C259 O265 1.208 1_565 S
C260 O252 1.315 . S
C260 O255 1.279 . S
C261 O262 1.315 1_545 S
C261 O263 1.279 . S
O262 Cd254 2.223 . S
O262 C261 1.315 1_565 S
O263 Cd253 2.240 . S
O263 C261 1.279 . S
O264 Cd254 2.297 1_556 S
O264 C259 1.247 . S
O265 Cd254 2.439 1_546 S
O265 C259 1.208 1_545 S
O266 Cd267 2.223 . S
O266 C274 1.315 . S
Cd267 O266 2.223 . S
Cd267 O270 2.297 . S
Cd267 O271 2.439 . S
Cd267 O277 2.240 . S
Cd268 O269 2.240 . S
Cd268 O276 2.223 . S
Cd268 O278 2.297 . S
Cd268 O279 2.439 . S
O269 Cd268 2.240 . S
O269 C274 1.279 . S
O270 Cd267 2.297 . S
O270 C272 1.247 . S
O271 Cd267 2.439 . S
O271 C272 1.208 . S
C272 O270 1.247 . S
C272 O271 1.208 . S
C273 O278 1.247 . S
C273 O279 1.208 . S
C274 O266 1.315 . S
C274 O269 1.279 . S
C275 O276 1.315 . S
C275 O277 1.279 . S
O276 Cd268 2.223 . S
O276 C275 1.315 . S
O277 Cd267 2.240 . S
O277 C275 1.279 . S
O278 Cd268 2.297 . S
O278 C273 1.247 . S
O279 Cd268 2.439 . S
O279 C273 1.208 . S
O280 Cd281 2.223 . S
O280 C288 1.315 . S
Cd281 O280 2.223 . S
Cd281 O284 2.297 . S
Cd281 O285 2.439 1_556 S
Cd281 O291 2.240 1_556 S
Cd282 O283 2.240 1_564 S
Cd282 O290 2.223 . S
Cd282 O292 2.297 . S
Cd282 O293 2.439 1_565 S
O283 Cd282 2.240 1_546 S
O283 C288 1.279 . S
O284 Cd281 2.297 . S
O284 C286 1.247 . S
O285 Cd281 2.439 1_554 S
O285 C286 1.208 1_554 S
C286 O284 1.247 . S
C286 O285 1.208 1_556 S
C287 O292 1.247 . S
C287 O293 1.208 1_565 S
C288 O280 1.315 . S
C288 O283 1.279 . S
C289 O290 1.315 1_545 S
C289 O291 1.279 . S
O290 Cd282 2.223 . S
O290 C289 1.315 1_565 S
O291 Cd281 2.240 1_554 S
O291 C289 1.279 . S
O292 Cd282 2.297 . S
O292 C287 1.247 . S
O293 Cd282 2.439 1_545 S
O293 C287 1.208 1_545 S
O294 Cd295 2.223 . S
O294 C302 1.315 . S
Cd295 O294 2.223 . S
Cd295 O298 2.297 . S
Cd295 O299 2.439 . S
Cd295 O305 2.240 . S
Cd296 O297 2.240 . S
Cd296 O304 2.223 . S
Cd296 O306 2.297 . S
Cd296 O307 2.439 . S
O297 Cd296 2.240 . S
O297 C302 1.279 . S
O298 Cd295 2.297 . S
O298 C300 1.247 . S
O299 Cd295 2.439 . S
O299 C300 1.208 . S
C300 O298 1.247 . S
C300 O299 1.208 . S
C301 O306 1.247 . S
C301 O307 1.208 . S
C302 O294 1.315 . S
C302 O297 1.279 . S
C303 O304 1.315 . S
C303 O305 1.279 . S
O304 Cd296 2.223 . S
O304 C303 1.315 . S
O305 Cd295 2.240 . S
O305 C303 1.279 . S
O306 Cd296 2.297 . S
O306 C301 1.247 . S
O307 Cd296 2.439 . S
O307 C301 1.208 . S
O308 Cd309 2.223 . S
O308 C316 1.315 . S
Cd309 O308 2.223 . S
Cd309 O312 2.297 . S
Cd309 O313 2.439 . S
Cd309 O319 2.240 . S
Cd310 O311 2.240 1_545 S
Cd310 O318 2.223 . S
Cd310 O320 2.297 . S
Cd310 O321 2.439 1_545 S
O311 Cd310 2.240 1_565 S
O311 C316 1.279 . S
O312 Cd309 2.297 . S
O312 C314 1.247 . S
O313 Cd309 2.439 . S
O313 C314 1.208 . S
C314 O312 1.247 . S
C314 O313 1.208 . S
C315 O320 1.247 . S
C315 O321 1.208 1_545 S
C316 O308 1.315 . S
C316 O311 1.279 . S
C317 O318 1.315 1_565 S
C317 O319 1.279 . S
O318 Cd310 2.223 . S
O318 C317 1.315 1_545 S
O319 Cd309 2.240 . S
O319 C317 1.279 . S
O320 Cd310 2.297 . S
O320 C315 1.247 . S
O321 Cd310 2.439 1_565 S
O321 C315 1.208 1_565 S
O322 Cd323 2.223 . S
O322 C330 1.315 . S
Cd323 O322 2.223 . S
Cd323 O326 2.297 . S
Cd323 O327 2.439 . S
Cd323 O333 2.240 . S
Cd324 O325 2.240 . S
Cd324 O332 2.223 . S
Cd324 O334 2.297 1_556 S
Cd324 O335 2.439 . S
O325 Cd324 2.240 . S
O325 C330 1.279 . S
O326 Cd323 2.297 . S
O326 C328 1.247 . S
O327 Cd323 2.439 . S
O327 C328 1.208 . S
C328 O326 1.247 . S
C328 O327 1.208 . S
C329 O334 1.247 . S
C329 O335 1.208 1_554 S
C330 O322 1.315 . S
C330 O325 1.279 . S
C331 O332 1.315 . S
C331 O333 1.279 . S
O332 Cd324 2.223 . S
O332 C331 1.315 . S
O333 Cd323 2.240 . S
O333 C331 1.279 . S
O334 Cd324 2.297 1_554 S
O334 C329 1.247 . S
O335 Cd324 2.439 . S
O335 C329 1.208 1_556 S
O336 Cd337 2.223 . S
O336 C344 1.315 . S
Cd337 O336 2.223 . S
Cd337 O340 2.297 . S
Cd337 O341 2.439 . S
Cd337 O347 2.240 . S
Cd338 O339 2.240 1_565 S
Cd338 O346 2.223 . S
Cd338 O348 2.297 . S
Cd338 O349 2.439 1_565 S
O339 Cd338 2.240 1_545 S
O339 C344 1.279 . S
O340 Cd337 2.297 . S
O340 C342 1.247 . S
O341 Cd337 2.439 . S
O341 C342 1.208 . S
C342 O340 1.247 . S
C342 O341 1.208 . S
C343 O348 1.247 . S
C343 O349 1.208 1_565 S
C344 O336 1.315 . S
C344 O339 1.279 . S
C345 O346 1.315 1_545 S
C345 O347 1.279 . S
O346 Cd338 2.223 . S
O346 C345 1.315 1_565 S
O347 Cd337 2.240 . S
O347 C345 1.279 . S
O348 Cd338 2.297 . S
O348 C343 1.247 . S
O349 Cd338 2.439 1_545 S
O349 C343 1.208 1_545 S
O350 Cd351 2.223 . S
O350 C358 1.315 . S
Cd351 O350 2.223 . S
Cd351 O354 2.297 . S
Cd351 O355 2.439 . S
Cd351 O361 2.240 . S
Cd352 O353 2.240 . S
Cd352 O360 2.223 . S
Cd352 O362 2.297 . S
Cd352 O363 2.439 . S
O353 Cd352 2.240 . S
O353 C358 1.279 . S
O354 Cd351 2.297 . S
O354 C356 1.247 . S
O355 Cd351 2.439 . S
O355 C356 1.208 . S
C356 O354 1.247 . S
C356 O355 1.208 . S
C357 O362 1.247 . S
C357 O363 1.208 . S
C358 O350 1.315 . S
C358 O353 1.279 . S
C359 O360 1.315 . S
C359 O361 1.279 . S
O360 Cd352 2.223 . S
O360 C359 1.315 . S
O361 Cd351 2.240 . S
O361 C359 1.279 . S
O362 Cd352 2.297 . S
O362 C357 1.247 . S
O363 Cd352 2.439 . S
O363 C357 1.208 . S
O364 Cd365 2.223 . S
O364 C372 1.315 . S
Cd365 O364 2.223 . S
Cd365 O368 2.297 . S
Cd365 O369 2.439 1_556 S
Cd365 O375 2.240 1_556 S
Cd366 O367 2.240 1_544 S
Cd366 O374 2.223 . S
Cd366 O376 2.297 . S
Cd366 O377 2.439 1_545 S
O367 Cd366 2.240 1_566 S
O367 C372 1.279 . S
O368 Cd365 2.297 . S
O368 C370 1.247 . S
O369 Cd365 2.439 1_554 S
O369 C370 1.208 1_554 S
C370 O368 1.247 . S
C370 O369 1.208 1_556 S
C371 O376 1.247 . S
C371 O377 1.208 1_545 S
C372 O364 1.315 . S
C372 O367 1.279 . S
C373 O374 1.315 1_565 S
C373 O375 1.279 . S
O374 Cd366 2.223 . S
O374 C373 1.315 1_545 S
O375 Cd365 2.240 1_554 S
O375 C373 1.279 . S
O376 Cd366 2.297 . S
O376 C371 1.247 . S
O377 Cd366 2.439 1_565 S
O377 C371 1.208 1_565 S
O378 Cd379 2.223 . S
O378 C386 1.315 . S
Cd379 O378 2.223 . S
Cd379 O382 2.297 . S
Cd379 O383 2.439 . S
Cd379 O389 2.240 . S
Cd380 O381 2.240 . S
Cd380 O388 2.223 . S
Cd380 O390 2.297 1_556 S
Cd380 O391 2.439 . S
O381 Cd380 2.240 . S
O381 C386 1.279 . S
O382 Cd379 2.297 . S
O382 C384 1.247 . S
O383 Cd379 2.439 . S
O383 C384 1.208 . S
C384 O382 1.247 . S
C384 O383 1.208 . S
C385 O390 1.247 . S
C385 O391 1.208 1_554 S
C386 O378 1.315 . S
C386 O381 1.279 . S
C387 O388 1.315 . S
C387 O389 1.279 . S
O388 Cd380 2.223 . S
O388 C387 1.315 . S
O389 Cd379 2.240 . S
O389 C387 1.279 . S
O390 Cd380 2.297 1_554 S
O390 C385 1.247 . S
O391 Cd380 2.439 . S
O391 C385 1.208 1_556 S
O392 Cd393 2.223 . S
O392 C400 1.315 . S
Cd393 O392 2.223 . S
Cd393 O396 2.297 . S
Cd393 O397 2.439 . S
Cd393 O403 2.240 . S
Cd394 O395 2.240 1_545 S
Cd394 O402 2.223 . S
Cd394 O404 2.297 1_554 S
Cd394 O405 2.439 1_544 S
O395 Cd394 2.240 1_565 S
O395 C400 1.279 . S
O396 Cd393 2.297 . S
O396 C398 1.247 . S
O397 Cd393 2.439 . S
O397 C398 1.208 . S
C398 O396 1.247 . S
C398 O397 1.208 . S
C399 O404 1.247 . S
C399 O405 1.208 1_545 S
C400 O392 1.315 . S
C400 O395 1.279 . S
C401 O402 1.315 1_565 S
C401 O403 1.279 . S
O402 Cd394 2.223 . S
O402 C401 1.315 1_545 S
O403 Cd393 2.240 . S
O403 C401 1.279 . S
O404 Cd394 2.297 1_556 S
O404 C399 1.247 . S
O405 Cd394 2.439 1_566 S
O405 C399 1.208 1_565 S
O406 Cd407 2.223 1_554 S
O406 C414 1.315 . S
Cd407 O406 2.223 1_556 S
Cd407 O410 2.297 1_556 S
Cd407 O411 2.439 . S
Cd407 O417 2.240 . S
Cd408 O409 2.240 . S
Cd408 O416 2.223 . S
Cd408 O418 2.297 . S
Cd408 O419 2.439 . S
O409 Cd408 2.240 . S
O409 C414 1.279 1_556 S
O410 Cd407 2.297 1_554 S
O410 C412 1.247 1_554 S
O411 Cd407 2.439 . S
O411 C412 1.208 . S
C412 O410 1.247 1_556 S
C412 O411 1.208 . S
C413 O418 1.247 . S
C413 O419 1.208 . S
C414 O406 1.315 . S
C414 O409 1.279 1_554 S
C415 O416 1.315 . S
C415 O417 1.279 . S
O416 Cd408 2.223 . S
O416 C415 1.315 . S
O417 Cd407 2.240 . S
O417 C415 1.279 . S
O418 Cd408 2.297 . S
O418 C413 1.247 . S
O419 Cd408 2.439 . S
O419 C413 1.208 . S
O420 Cd421 2.223 . S
O420 C428 1.315 . S
Cd421 O420 2.223 . S
Cd421 O424 2.297 . S
Cd421 O425 2.439 . S
Cd421 O431 2.240 . S
Cd422 O423 2.240 1_565 S
Cd422 O430 2.223 . S
Cd422 O432 2.297 . S
Cd422 O433 2.439 1_565 S
O423 Cd422 2.240 1_545 S
O423 C428 1.279 . S
O424 Cd421 2.297 . S
O424 C426 1.247 . S
O425 Cd421 2.439 . S
O425 C426 1.208 . S
C426 O424 1.247 . S
C426 O425 1.208 . S
C427 O432 1.247 . S
C427 O433 1.208 1_565 S
C428 O420 1.315 . S
C428 O423 1.279 . S
C429 O430 1.315 1_545 S
C429 O431 1.279 . S
O430 Cd422 2.223 . S
O430 C429 1.315 1_565 S
O431 Cd421 2.240 . S
O431 C429 1.279 . S
O432 Cd422 2.297 . S
O432 C427 1.247 . S
O433 Cd422 2.439 1_545 S
O433 C427 1.208 1_545 S
O434 Cd435 2.223 . S
O434 C442 1.315 . S
Cd435 O434 2.223 . S
Cd435 O438 2.297 . S
Cd435 O439 2.439 . S
Cd435 O445 2.240 . S
Cd436 O437 2.240 . S
Cd436 O444 2.223 . S
Cd436 O446 2.297 . S
Cd436 O447 2.439 . S
O437 Cd436 2.240 . S
O437 C442 1.279 . S
O438 Cd435 2.297 . S
O438 C440 1.247 . S
O439 Cd435 2.439 . S
O439 C440 1.208 . S
C440 O438 1.247 . S
C440 O439 1.208 . S
C441 O446 1.247 . S
C441 O447 1.208 . S
C442 O434 1.315 . S
C442 O437 1.279 . S
C443 O444 1.315 . S
C443 O445 1.279 . S
O444 Cd436 2.223 . S
O444 C443 1.315 . S
O445 Cd435 2.240 . S
O445 C443 1.279 . S
O446 Cd436 2.297 . S
O446 C441 1.247 . S
O447 Cd436 2.439 . S
O447 C441 1.208 . S
C121 C9 1.268 1_655 S
C23 C359 1.269 . S
C37 C149 1.268 . S
C51 C387 1.269 . S
C65 C177 1.269 1_455 S
C415 C79 1.268 . S
C205 C93 1.269 . S
C443 C107 1.268 . S
C247 C135 1.269 . S
C163 C275 1.269 . S
C191 C303 1.268 . S
C331 C219 1.268 . S
C345 C233 1.268 1_545 S
C261 C373 1.268 1_645 S
C289 C401 1.269 1_545 S
C429 C317 1.269 1_445 S
C7 C63 1.417 . S
C77 C21 1.417 . S
C91 C35 1.417 . S
C49 C105 1.417 . S
C119 C175 1.417 . S
C133 C189 1.417 . S
C203 C147 1.417 . S
C217 C161 1.417 . S
C287 C231 1.417 1_565 S
C301 C245 1.417 . S
C259 C315 1.416 1_565 S
C329 C273 1.417 . S
C399 C343 1.417 1_545 S
C357 C413 1.417 . S
C427 C371 1.417 1_565 S
C441 C385 1.417 . S
C64 C8 1.218 . S
C78 C22 1.218 . S
C36 C92 1.218 . S
C106 C50 1.218 . S
C176 C120 1.218 . S
C134 C190 1.218 . S
C204 C148 1.218 . S
C218 C162 1.218 . S
C232 C288 1.218 1_565 S
C302 C246 1.218 . S
C316 C260 1.218 1_565 S
C330 C274 1.218 . S
C400 C344 1.218 1_565 S
C358 C414 1.218 . S
C372 C428 1.218 1_565 S
C386 C442 1.218 . S
C6 C300 1.371 . S
C314 C20 1.371 . S
C34 C328 1.370 . S
C48 C286 1.370 . S
C272 C62 1.371 . S
C230 C76 1.371 . S
C244 C90 1.371 . S
C104 C258 1.371 . S
C118 C412 1.371 . S
C426 C132 1.370 . S
C440 C146 1.371 . S
C398 C160 1.370 . S
C384 C174 1.371 . S
C342 C188 1.371 . S
C202 C356 1.371 . S
C216 C370 1.370 . S
