# Generated by pormake.
# Topology wll, (5)-cn, num edge types: 1
# Building blocks:
#     Node 0, Type 0, BuildingBlock: BEQFEK_clean_sbu_0, # of connection points: 5
#     Node 1, Type 0, BuildingBlock: BEQFEK_clean_sbu_0, # of connection points: 5
#     Node 2, Type 0, BuildingBlock: BEQFEK_clean_sbu_0, # of connection points: 5
#     Node 3, Type 0, BuildingBlock: BEQFEK_clean_sbu_0, # of connection points: 5
#     Node 4, Type 0, BuildingBlock: BEQFEK_clean_sbu_0, # of connection points: 5
#     Node 5, Type 0, BuildingBlock: BEQFEK_clean_sbu_0, # of connection points: 5
#     Node 6, Type 0, BuildingBlock: BEQFEK_clean_sbu_0, # of connection points: 5
#     Node 7, Type 0, BuildingBlock: BEQFEK_clean_sbu_0, # of connection points: 5
#     Node 8, Type 0, BuildingBlock: BEQFEK_clean_sbu_0, # of connection points: 5
#     Node 9, Type 0, BuildingBlock: BEQFEK_clean_sbu_0, # of connection points: 5
#     Node 10, Type 0, BuildingBlock: BEQFEK_clean_sbu_0, # of connection points: 5
#     Node 11, Type 0, BuildingBlock: BEQFEK_clean_sbu_0, # of connection points: 5
#     Node 12, Type 0, BuildingBlock: BEQFEK_clean_sbu_0, # of connection points: 5
#     Node 13, Type 0, BuildingBlock: BEQFEK_clean_sbu_0, # of connection points: 5
#     Node 14, Type 0, BuildingBlock: BEQFEK_clean_sbu_0, # of connection points: 5
#     Node 15, Type 0, BuildingBlock: BEQFEK_clean_sbu_0, # of connection points: 5
#     Node 16, Type 0, BuildingBlock: BEQFEK_clean_sbu_0, # of connection points: 5
#     Node 17, Type 0, BuildingBlock: BEQFEK_clean_sbu_0, # of connection points: 5
#     Edge 18, Type (0, 0), BuildingBlock: ZUJKAS_clean_linker_0, # of connection points: 2
#     Edge 19, Type (0, 0), BuildingBlock: ZUJKAS_clean_linker_0, # of connection points: 2
#     Edge 20, Type (0, 0), BuildingBlock: ZUJKAS_clean_linker_0, # of connection points: 2
#     Edge 21, Type (0, 0), BuildingBlock: ZUJKAS_clean_linker_0, # of connection points: 2
#     Edge 22, Type (0, 0), BuildingBlock: ZUJKAS_clean_linker_0, # of connection points: 2
#     Edge 23, Type (0, 0), BuildingBlock: ZUJKAS_clean_linker_0, # of connection points: 2
#     Edge 24, Type (0, 0), BuildingBlock: ZUJKAS_clean_linker_0, # of connection points: 2
#     Edge 25, Type (0, 0), BuildingBlock: ZUJKAS_clean_linker_0, # of connection points: 2
#     Edge 26, Type (0, 0), BuildingBlock: ZUJKAS_clean_linker_0, # of connection points: 2
#     Edge 27, Type (0, 0), BuildingBlock: ZUJKAS_clean_linker_0, # of connection points: 2
#     Edge 28, Type (0, 0), BuildingBlock: ZUJKAS_clean_linker_0, # of connection points: 2
#     Edge 29, Type (0, 0), BuildingBlock: ZUJKAS_clean_linker_0, # of connection points: 2
#     Edge 30, Type (0, 0), BuildingBlock: ZUJKAS_clean_linker_0, # of connection points: 2
#     Edge 31, Type (0, 0), BuildingBlock: ZUJKAS_clean_linker_0, # of connection points: 2
#     Edge 32, Type (0, 0), BuildingBlock: ZUJKAS_clean_linker_0, # of connection points: 2
#     Edge 33, Type (0, 0), BuildingBlock: ZUJKAS_clean_linker_0, # of connection points: 2
#     Edge 34, Type (0, 0), BuildingBlock: ZUJKAS_clean_linker_0, # of connection points: 2
#     Edge 35, Type (0, 0), BuildingBlock: ZUJKAS_clean_linker_0, # of connection points: 2
#     Edge 36, Type (0, 0), BuildingBlock: ZUJKAS_clean_linker_0, # of connection points: 2
#     Edge 37, Type (0, 0), BuildingBlock: ZUJKAS_clean_linker_0, # of connection points: 2
#     Edge 38, Type (0, 0), BuildingBlock: ZUJKAS_clean_linker_0, # of connection points: 2
#     Edge 39, Type (0, 0), BuildingBlock: ZUJKAS_clean_linker_0, # of connection points: 2
#     Edge 40, Type (0, 0), BuildingBlock: ZUJKAS_clean_linker_0, # of connection points: 2
#     Edge 41, Type (0, 0), BuildingBlock: ZUJKAS_clean_linker_0, # of connection points: 2
#     Edge 42, Type (0, 0), BuildingBlock: ZUJKAS_clean_linker_0, # of connection points: 2
#     Edge 43, Type (0, 0), BuildingBlock: ZUJKAS_clean_linker_0, # of connection points: 2
#     Edge 44, Type (0, 0), BuildingBlock: ZUJKAS_clean_linker_0, # of connection points: 2
#     Edge 45, Type (0, 0), BuildingBlock: ZUJKAS_clean_linker_0, # of connection points: 2
#     Edge 46, Type (0, 0), BuildingBlock: ZUJKAS_clean_linker_0, # of connection points: 2
#     Edge 47, Type (0, 0), BuildingBlock: ZUJKAS_clean_linker_0, # of connection points: 2
#     Edge 48, Type (0, 0), BuildingBlock: ZUJKAS_clean_linker_0, # of connection points: 2
#     Edge 49, Type (0, 0), BuildingBlock: ZUJKAS_clean_linker_0, # of connection points: 2
#     Edge 50, Type (0, 0), BuildingBlock: ZUJKAS_clean_linker_0, # of connection points: 2
#     Edge 51, Type (0, 0), BuildingBlock: ZUJKAS_clean_linker_0, # of connection points: 2
#     Edge 52, Type (0, 0), BuildingBlock: ZUJKAS_clean_linker_0, # of connection points: 2
#     Edge 53, Type (0, 0), BuildingBlock: ZUJKAS_clean_linker_0, # of connection points: 2
#     Edge 54, Type (0, 0), BuildingBlock: ZUJKAS_clean_linker_0, # of connection points: 2
#     Edge 55, Type (0, 0), BuildingBlock: ZUJKAS_clean_linker_0, # of connection points: 2
#     Edge 56, Type (0, 0), BuildingBlock: ZUJKAS_clean_linker_0, # of connection points: 2
#     Edge 57, Type (0, 0), BuildingBlock: ZUJKAS_clean_linker_0, # of connection points: 2
#     Edge 58, Type (0, 0), BuildingBlock: ZUJKAS_clean_linker_0, # of connection points: 2
#     Edge 59, Type (0, 0), BuildingBlock: ZUJKAS_clean_linker_0, # of connection points: 2
#     Edge 60, Type (0, 0), BuildingBlock: ZUJKAS_clean_linker_0, # of connection points: 2
#     Edge 61, Type (0, 0), BuildingBlock: ZUJKAS_clean_linker_0, # of connection points: 2
#     Edge 62, Type (0, 0), BuildingBlock: ZUJKAS_clean_linker_0, # of connection points: 2
# Relax obj value: 0.188
# Max RMSD: 0.162
# Mean RMSD: 0.161
data_MOF--net-wll--node1-BEQFEK_clean_sbu_0--edge1-ZUJKAS_clean_linker_0
_symmetry_space_group_name_H-M    P1
_symmetry_Int_Tables_number       1
_symmetry_cell_setting            triclinic
loop_
_symmetry_equiv_pos_as_xyz
'x, y, z'
_cell_length_a     49.942813
_cell_length_b     49.959904
_cell_length_c     84.242042
_cell_angle_alpha  89.99199
_cell_angle_beta   89.990933
_cell_angle_gamma 120.00713
loop_
_atom_site_label
_atom_site_type_symbol
_atom_site_fract_x
_atom_site_fract_y
_atom_site_fract_z
_atom_type_partial_charge
Co0 Co 0.30978 0.32698 0.11018 0.0
Co1 Co 0.34747 0.31603 0.08365 0.0
C2 C 0.3247 0.27624 0.1128 0.0
O3 O 0.31239 0.29138 0.11805 0.0
O4 O 0.33893 0.28313 0.09957 0.0
C5 C 0.26208 0.31073 0.133 0.0
O6 O 0.259 0.28323 0.1312 0.0
C7 C 0.35263 0.2787 0.05886 0.0
C8 C 0.39294 0.3122 0.04484 0.0
C9 C 0.37044 0.28121 0.04569 0.0
N10 N 0.36413 0.30675 0.0655 0.0
N11 N 0.38836 0.32671 0.05715 0.0
C12 C 0.32357 0.25086 0.06441 0.0
H13 H 0.30886 0.25795 0.07098 0.0
H14 H 0.31044 0.23594 0.05424 0.0
H15 H 0.32965 0.23731 0.0726 0.0
C16 C 0.27182 0.32347 0.08265 0.0
N17 N 0.29497 0.32083 0.08917 0.0
N18 N 0.31109 0.31723 0.07787 0.0
C19 C 0.29888 0.31796 0.06369 0.0
C20 C 0.27357 0.32194 0.06626 0.0
C21 C 0.24893 0.32796 0.09205 0.0
H22 H 0.2608 0.35132 0.09749 0.0
H23 H 0.23954 0.31071 0.10176 0.0
H24 H 0.22946 0.32532 0.08459 0.0
O25 O 0.35134 0.36404 0.11115 0.0
O26 O 0.37876 0.3566 0.09264 0.0
H27 H 0.33884 0.33442 0.0488 0.0
H28 H 0.30428 0.32686 0.03834 0.0
C29 C 0.3135 0.31877 0.04804 0.0
H30 H 0.30901 0.29523 0.04514 0.0
H31 H 0.40147 0.35026 0.05971 0.0
O32 O 0.2822 0.33322 0.12481 0.0
C33 C 0.37662 0.3729 0.10369 0.0
Co34 Co 0.675 0.98028 0.1115 0.0
Co35 Co 0.68495 0.02946 0.08561 0.0
C36 C 0.72745 0.04475 0.11372 0.0
O37 O 0.71257 0.0172 0.11889 0.0
O38 O 0.71926 0.05255 0.10103 0.0
C39 C 0.67189 0.95102 0.14046 0.0
O40 O 0.67957 0.97864 0.14584 0.0
C41 C 0.72129 0.07231 0.0607 0.0
C42 C 0.68729 0.07973 0.04755 0.0
C43 C 0.71825 0.08796 0.04786 0.0
N44 N 0.69358 0.05582 0.0677 0.0
N45 N 0.67332 0.06045 0.05986 0.0
C46 C 0.7493 0.07078 0.0656 0.0
H47 H 0.74238 0.04866 0.07181 0.0
H48 H 0.76379 0.073 0.05514 0.0
H49 H 0.76323 0.09002 0.07392 0.0
C50 C 0.67499 0.94546 0.08336 0.0
N51 N 0.67866 0.97137 0.09021 0.0
N52 N 0.68186 0.99136 0.07916 0.0
C53 C 0.67983 0.9785 0.0648 0.0
C54 C 0.67539 0.94894 0.067 0.0
C55 C 0.67075 0.91784 0.09243 0.0
H56 H 0.64703 0.90545 0.09746 0.0
H57 H 0.68737 0.92545 0.10245 0.0
H58 H 0.67433 0.90183 0.08478 0.0
O59 O 0.63936 0.98668 0.1139 0.0
O60 O 0.64576 0.02172 0.09573 0.0
H61 H 0.66336 0.00296 0.0507 0.0
H62 H 0.66967 0.97575 0.03962 0.0
C63 C 0.67856 0.99284 0.04942 0.0
H64 H 0.70212 0.01167 0.04633 0.0
H65 H 0.64992 0.05011 0.06278 0.0
O66 O 0.66817 0.94591 0.12563 0.0
C67 C 0.63041 0.0036 0.10708 0.0
Co68 Co 0.01547 0.68779 0.10958 0.0
Co69 Co 0.96563 0.65134 0.08352 0.0
C70 C 0.95079 0.67615 0.11246 0.0
O71 O 0.97832 0.68758 0.11752 0.0
O72 O 0.9426 0.66159 0.09935 0.0
C73 C 0.053 0.74138 0.12741 0.0
O74 O 0.03689 0.7514 0.11967 0.0
C75 C 0.92269 0.64566 0.05875 0.0
C76 C 0.91464 0.60407 0.04554 0.0
C77 C 0.90696 0.62715 0.04589 0.0
N78 N 0.93925 0.63434 0.06556 0.0
N79 N 0.93426 0.60937 0.05768 0.0
C80 C 0.92079 0.67255 0.06528 0.0
H81 H 0.94393 0.69066 0.06946 0.0
H82 H 0.91157 0.68241 0.05652 0.0
H83 H 0.90511 0.66462 0.07571 0.0
C84 C 0.05097 0.72372 0.08149 0.0
N85 N 0.02475 0.70186 0.08839 0.0
N86 N 0.0039 0.6867 0.07735 0.0
C87 C 0.01627 0.69864 0.06303 0.0
C88 C 0.04645 0.72255 0.06521 0.0
C89 C 0.08086 0.74279 0.09012 0.0
H90 H 0.08332 0.72897 0.09971 0.0
H91 H 0.0809 0.76305 0.09554 0.0
H92 H 0.10095 0.75125 0.08199 0.0
O93 O 0.00923 0.64577 0.11105 0.0
O94 O 0.97332 0.61915 0.09286 0.0
H95 H 0.99136 0.66201 0.04639 0.0
H96 H 0.01442 0.6996 0.03727 0.0
C97 C -0.00038 0.68706 0.04757 0.0
H98 H 0.97927 0.69032 0.04739 0.0
H99 H 0.94434 0.59606 0.06055 0.0
O100 O 0.04858 0.71454 0.12448 0.0
C101 C 0.99164 0.62058 0.10381 0.0
Co102 Co 0.68854 0.67424 0.8886 0.0
Co103 Co 0.64832 0.68268 0.91452 0.0
C104 C 0.67043 0.7224 0.88526 0.0
O105 O 0.68444 0.70871 0.88031 0.0
O106 O 0.65563 0.71471 0.89831 0.0
C107 C 0.74098 0.69518 0.86907 0.0
O108 O 0.74541 0.72201 0.87406 0.0
C109 C 0.64267 0.71814 0.94032 0.0
C110 C 0.59753 0.68555 0.95106 0.0
C111 C 0.62256 0.71525 0.9524 0.0
N112 N 0.63038 0.69127 0.93236 0.0
N113 N 0.60335 0.67187 0.9388 0.0
C114 C 0.67225 0.74653 0.93576 0.0
H115 H 0.67968 0.7442 0.9237 0.0
H116 H 0.69083 0.75014 0.94416 0.0
H117 H 0.66939 0.76716 0.93633 0.0
C118 C 0.7259 0.67881 0.91669 0.0
N119 N 0.70266 0.68083 0.90979 0.0
N120 N 0.68516 0.6829 0.92084 0.0
C121 C 0.69631 0.68137 0.93521 0.0
C122 C 0.72271 0.67918 0.93302 0.0
C123 C 0.74825 0.67264 0.90784 0.0
H124 H 0.73539 0.65274 0.89972 0.0
H125 H 0.76357 0.69315 0.90053 0.0
H126 H 0.76265 0.66761 0.91597 0.0
O127 O 0.64783 0.63595 0.88728 0.0
O128 O 0.61869 0.64166 0.90546 0.0
H129 H 0.65533 0.66389 0.94947 0.0
H130 H 0.68945 0.67108 0.96042 0.0
C131 C 0.68063 0.67946 0.95067 0.0
H132 H 0.68501 0.70275 0.95398 0.0
H133 H 0.58884 0.64936 0.93479 0.0
O134 O 0.71785 0.67055 0.87424 0.0
C135 C 0.62212 0.62599 0.8945 0.0
Co136 Co 0.32468 0.01556 0.88861 0.0
Co137 Co 0.31477 0.96623 0.91447 0.0
C138 C 0.27576 0.94915 0.88513 0.0
O139 O 0.29012 0.9769 0.88022 0.0
O140 O 0.28272 0.94169 0.89829 0.0
C141 C 0.30602 0.04704 0.86716 0.0
O142 O 0.27874 0.0225 0.86943 0.0
C143 C 0.27865 0.92053 0.93842 0.0
C144 C 0.31403 0.91838 0.95322 0.0
C145 C 0.28238 0.90643 0.95178 0.0
N146 N 0.30667 0.93976 0.93229 0.0
N147 N 0.32775 0.93818 0.94107 0.0
C148 C 0.2495 0.91862 0.93246 0.0
H149 H 0.25482 0.93993 0.92584 0.0
H150 H 0.23361 0.91533 0.94243 0.0
H151 H 0.23773 0.89867 0.92425 0.0
C152 C 0.31985 0.04817 0.91663 0.0
N153 N 0.31789 0.02294 0.90975 0.0
N154 N 0.31396 0.00259 0.92075 0.0
C155 C 0.31327 0.01433 0.93508 0.0
C156 C 0.31696 0.0436 0.93294 0.0
C157 C 0.32819 0.07737 0.90783 0.0
H158 H 0.34831 0.08346 0.90001 0.0
H159 H 0.30847 0.07349 0.90019 0.0
H160 H 0.33399 0.09698 0.91596 0.0
O161 O 0.36268 0.01293 0.88736 0.0
O162 O 0.35602 0.97762 0.90543 0.0
H163 H 0.32912 0.99315 0.95184 0.0
H164 H 0.30984 0.01193 0.96081 0.0
C165 C 0.30995 0.99814 0.95053 0.0
H166 H 0.28788 0.9759 0.95056 0.0
H167 H 0.35151 0.95113 0.93899 0.0
O168 O 0.32934 0.04933 0.87448 0.0
C169 C 0.37214 0.9968 0.89458 0.0
Co170 Co 0.98229 0.3042 0.88888 0.0
Co171 Co 0.03077 0.34541 0.91469 0.0
C172 C 0.04836 0.32132 0.88614 0.0
O173 O 0.02066 0.3069 0.88116 0.0
O174 O 0.05539 0.3371 0.89887 0.0
C175 C 0.95038 0.2535 0.86773 0.0
O176 O 0.97475 0.25049 0.87005 0.0
C177 C 0.07438 0.35338 0.93936 0.0
C178 C 0.08125 0.39466 0.95247 0.0
C179 C 0.08972 0.37214 0.95221 0.0
N180 N 0.05724 0.36397 0.93249 0.0
N181 N 0.06156 0.38878 0.94027 0.0
C182 C 0.07693 0.32675 0.93298 0.0
H183 H 0.09192 0.33457 0.9223 0.0
H184 H 0.0538 0.30793 0.92923 0.0
H185 H 0.08724 0.31785 0.94165 0.0
C186 C 0.94888 0.26848 0.91723 0.0
N187 N 0.97421 0.29147 0.91025 0.0
N188 N 0.99421 0.30866 0.92121 0.0
C189 C 0.98209 0.2971 0.93562 0.0
C190 C 0.95298 0.27122 0.93356 0.0
C191 C 0.92008 0.2467 0.90839 0.0
H192 H 0.91361 0.26001 0.90026 0.0
H193 H 0.9247 0.23101 0.90105 0.0
H194 H 0.90043 0.23276 0.91648 0.0
O195 O 0.98625 0.34526 0.88648 0.0
O196 O 0.01959 0.37495 0.90507 0.0
H197 H 0.0048 0.33574 0.95139 0.0
H198 H 0.98312 0.29889 0.96142 0.0
C199 C 0.9979 0.31092 0.95104 0.0
H200 H 0.01907 0.30913 0.95194 0.0
H201 H 0.05086 0.40151 0.93737 0.0
O202 O 0.94841 0.27483 0.87491 0.0
C203 C 0.00152 0.37121 0.89351 0.0
Co204 Co 0.97185 0.65582 0.44449 0.0
Co205 Co 0.01038 0.64551 0.41833 0.0
C206 C 0.98425 0.60359 0.44668 0.0
O207 O 0.97139 0.61827 0.45187 0.0
O208 O -0.0 0.61174 0.43392 0.0
C209 C 0.94673 0.65902 0.47369 0.0
O210 O 0.96727 0.65188 0.47875 0.0
C211 C 0.01619 0.60883 0.39336 0.0
C212 C 0.05741 0.64261 0.37997 0.0
C213 C 0.03438 0.61181 0.3803 0.0
N214 N 0.0276 0.63663 0.40026 0.0
N215 N 0.05236 0.65675 0.39229 0.0
C216 C 0.98944 0.57995 0.39994 0.0
H217 H 0.99711 0.57325 0.41084 0.0
H218 H 0.97063 0.5845 0.4034 0.0
H219 H 0.98057 0.56032 0.39154 0.0
C220 C 0.93634 0.65573 0.41657 0.0
N221 N 0.95881 0.65218 0.42328 0.0
N222 N 0.97494 0.64818 0.41213 0.0
C223 C 0.96317 0.64916 0.39786 0.0
C224 C 0.93828 0.65392 0.40021 0.0
C225 C 0.91568 0.66385 0.42572 0.0
H226 H 0.92997 0.68403 0.43345 0.0
H227 H 0.90036 0.64417 0.43352 0.0
H228 H 0.9014 0.66946 0.41783 0.0
O229 O 0.01396 0.69125 0.44674 0.0
O230 O 0.04209 0.68504 0.4282 0.0
H231 H 0.00067 0.66283 0.38153 0.0
H232 H 0.96343 0.64866 0.37205 0.0
C233 C 0.97563 0.64571 0.3823 0.0
H234 H 0.97274 0.62228 0.38158 0.0
H235 H 0.06564 0.68014 0.39518 0.0
O236 O 0.94448 0.66238 0.45889 0.0
C237 C 0.03967 0.70029 0.43972 0.0
Co238 Co 0.34458 0.31643 0.44334 0.0
Co239 Co 0.35147 0.36431 0.41739 0.0
C240 C 0.39689 0.38043 0.44449 0.0
O241 O 0.38328 0.35294 0.44978 0.0
O242 O 0.38674 0.3877 0.43232 0.0
C243 C 0.34217 0.28711 0.47219 0.0
O244 O 0.34999 0.31469 0.47767 0.0
C245 C 0.38647 0.40533 0.39167 0.0
C246 C 0.35323 0.41606 0.38011 0.0
C247 C 0.38335 0.42174 0.37923 0.0
N248 N 0.35939 0.39033 0.3994 0.0
N249 N 0.33957 0.39686 0.3925 0.0
C250 C 0.41509 0.40542 0.39709 0.0
H251 H 0.42455 0.42079 0.40758 0.0
H252 H 0.4092 0.38182 0.40088 0.0
H253 H 0.43328 0.41399 0.38786 0.0
C254 C 0.34149 0.28034 0.4151 0.0
N255 N 0.3456 0.30646 0.42193 0.0
N256 N 0.3478 0.32604 0.41087 0.0
C257 C 0.34466 0.3127 0.39654 0.0
C258 C 0.34074 0.28338 0.39877 0.0
C259 C 0.33536 0.2521 0.42421 0.0
H260 H 0.31482 0.2448 0.43191 0.0
H261 H 0.35537 0.25782 0.43206 0.0
H262 H 0.3312 0.23266 0.4163 0.0
O263 O 0.31027 0.32445 0.44711 0.0
O264 O 0.31279 0.35664 0.42815 0.0
H265 H 0.32886 0.33683 0.38171 0.0
H266 H 0.33827 0.31118 0.37099 0.0
C267 C 0.34488 0.32755 0.38107 0.0
H268 H 0.36848 0.34709 0.3788 0.0
H269 H 0.31678 0.38821 0.39623 0.0
O270 O 0.33831 0.28216 0.45735 0.0
C271 C 0.29984 0.34023 0.44041 0.0
Co272 Co 0.68073 0.02008 0.44303 0.0
Co273 Co 0.6312 0.98438 0.41668 0.0
C274 C 0.61417 0.00296 0.44677 0.0
O275 O 0.64147 0.01355 0.45198 0.0
O276 O 0.60671 0.992 0.43282 0.0
C277 C 0.71031 0.06917 0.4647 0.0
O278 O 0.68639 0.07225 0.46111 0.0
C279 C 0.58828 0.97882 0.39202 0.0
C280 C 0.58122 0.93821 0.3782 0.0
C281 C 0.57289 0.96079 0.37897 0.0
N282 N 0.60525 0.9677 0.39855 0.0
N283 N 0.60086 0.94332 0.39031 0.0
C284 C 0.58565 0.00501 0.39898 0.0
H285 H 0.60817 0.02249 0.4041 0.0
H286 H 0.57778 0.01601 0.39015 0.0
H287 H 0.56849 0.99591 0.40877 0.0
C288 C 0.71414 0.06009 0.41593 0.0
N289 N 0.68841 0.03663 0.42235 0.0
N290 N 0.66824 0.02147 0.41105 0.0
C291 C 0.68064 0.03494 0.39698 0.0
C292 C 0.71011 0.0599 0.39962 0.0
C293 C 0.74333 0.07948 0.42506 0.0
H294 H 0.7484 0.06438 0.43262 0.0
H295 H 0.74004 0.09536 0.43296 0.0
H296 H 0.76336 0.09323 0.41714 0.0
O297 O 0.6789 0.98003 0.4427 0.0
O298 O 0.64123 0.953 0.42533 0.0
H299 H 0.65769 0.99872 0.37988 0.0
H300 H 0.67998 0.03688 0.37122 0.0
C301 C 0.66494 0.02351 0.38128 0.0
H302 H 0.64399 0.02576 0.38091 0.0
H303 H 0.61135 0.93027 0.39291 0.0
O304 O 0.71343 0.04817 0.45791 0.0
C305 C 0.66128 0.95494 0.43539 0.0
Co306 Co 0.35714 0.01219 0.22248 0.0
Co307 Co 0.31401 0.01772 0.24769 0.0
C308 C 0.34038 0.06131 0.21991 0.0
O309 O 0.35495 0.04816 0.215 0.0
O310 O 0.32371 0.0519 0.23235 0.0
C311 C 0.4088 0.03158 0.20183 0.0
O312 O 0.41162 0.0589 0.20403 0.0
C313 C 0.30524 0.05142 0.27304 0.0
C314 C 0.26096 0.01726 0.28402 0.0
C315 C 0.28483 0.04761 0.28513 0.0
N316 N 0.29422 0.02452 0.26527 0.0
N317 N 0.26767 0.00414 0.27181 0.0
C318 C 0.33368 0.08053 0.26803 0.0
H319 H 0.35054 0.075 0.26254 0.0
H320 H 0.34463 0.09671 0.27806 0.0
H321 H 0.32709 0.09229 0.25895 0.0
C322 C 0.39154 0.01406 0.25125 0.0
N323 N 0.36855 0.01597 0.244 0.0
N324 N 0.35015 0.01731 0.25476 0.0
C325 C 0.36066 0.01571 0.26929 0.0
C326 C 0.38735 0.01386 0.26752 0.0
C327 C 0.41503 0.00923 0.24265 0.0
H328 H 0.40303 0.98883 0.23475 0.0
H329 H 0.42942 0.02968 0.23509 0.0
H330 H 0.43018 0.0056 0.25093 0.0
O331 O 0.31632 0.97507 0.2193 0.0
O332 O 0.28515 0.9777 0.23732 0.0
H333 H 0.31981 0.9984 0.28359 0.0
H334 H 0.35459 0.00858 0.29476 0.0
C335 C 0.34495 0.015 0.28455 0.0
H336 H 0.34822 0.03828 0.28688 0.0
H337 H 0.2542 0.98133 0.26797 0.0
O338 O 0.38729 0.00822 0.2089 0.0
C339 C 0.28984 0.96396 0.2258 0.0
Co340 Co 0.98678 0.34677 0.22188 0.0
Co341 Co 0.98008 0.29956 0.24838 0.0
C342 C 0.93887 0.27991 0.21975 0.0
O343 O 0.95245 0.3073 0.21436 0.0
O344 O 0.94694 0.27358 0.23291 0.0
C345 C 0.96655 0.37507 0.19934 0.0
O346 O 0.93994 0.34973 0.20166 0.0
C347 C 0.94479 0.25746 0.27358 0.0
C348 C 0.97934 0.25183 0.28729 0.0
C349 C 0.94817 0.24279 0.28677 0.0
N350 N 0.97248 0.27415 0.2666 0.0
N351 N 0.99309 0.27058 0.27475 0.0
C352 C 0.91645 0.25808 0.26836 0.0
H353 H 0.92291 0.27944 0.26151 0.0
H354 H 0.90211 0.25673 0.27873 0.0
H355 H 0.90252 0.23795 0.26052 0.0
C356 C 0.98242 0.38036 0.24952 0.0
N357 N 0.9809 0.3551 0.24296 0.0
N358 N 0.97937 0.33618 0.25425 0.0
C359 C 0.9804 0.34917 0.26846 0.0
C360 C 0.98235 0.37762 0.26592 0.0
C361 C 0.9847 0.40686 0.24014 0.0
H362 H 0.96701 0.39792 0.23062 0.0
H363 H 0.98109 0.42298 0.24769 0.0
H364 H 0.0078 0.41952 0.23444 0.0
O365 O 0.02527 0.34497 0.22045 0.0
O366 O 0.02072 0.31063 0.23868 0.0
H367 H 0.9922 0.35428 0.29348 0.0
H368 H 0.96064 0.3171 0.28761 0.0
C369 C 0.98354 0.33648 0.28401 0.0
H370 H -0.00027 0.32754 0.28274 0.0
H371 H 0.01656 0.28134 0.27193 0.0
O372 O 0.99012 0.37932 0.20718 0.0
C373 C 0.03577 0.32961 0.22755 0.0
Co374 Co 0.65032 0.63717 0.22095 0.0
Co375 Co 0.69739 0.67761 0.24731 0.0
C376 C 0.71621 0.65405 0.21888 0.0
O377 O 0.68872 0.63972 0.21359 0.0
O378 O 0.72271 0.66957 0.23171 0.0
C379 C 0.62074 0.61318 0.19175 0.0
O380 O 0.64568 0.63779 0.1865 0.0
C381 C 0.74018 0.68543 0.27244 0.0
C382 C 0.74543 0.72577 0.28584 0.0
C383 C 0.75493 0.704 0.28547 0.0
N384 N 0.72301 0.69581 0.26541 0.0
N385 N 0.72635 0.72007 0.27339 0.0
C386 C 0.74007 0.65664 0.26739 0.0
H387 H 0.71852 0.64117 0.26081 0.0
H388 H 0.74217 0.64424 0.27783 0.0
H389 H 0.75997 0.66297 0.25936 0.0
C390 C 0.61583 0.60037 0.24875 0.0
N391 N 0.64142 0.62363 0.24214 0.0
N392 N 0.66057 0.64082 0.25338 0.0
C393 C 0.64747 0.62921 0.26762 0.0
C394 C 0.61864 0.60316 0.26514 0.0
C395 C 0.58896 0.57652 0.23942 0.0
H396 H 0.59746 0.56799 0.22957 0.0
H397 H 0.57299 0.55667 0.24695 0.0
H398 H 0.57621 0.58725 0.23414 0.0
O399 O 0.6539 0.67818 0.21879 0.0
O400 O 0.68662 0.70734 0.23769 0.0
H401 H 0.64306 0.6358 0.29274 0.0
H402 H 0.68018 0.64171 0.28647 0.0
C403 C 0.66055 0.64502 0.28312 0.0
H404 H 0.66936 0.67015 0.28189 0.0
H405 H 0.71524 0.7324 0.27049 0.0
O406 O 0.6173 0.60825 0.20661 0.0
C407 C 0.66882 0.70391 0.22606 0.0
Co408 Co 0.63484 0.9854 0.77579 0.0
Co409 Co 0.6757 0.9769 0.75032 0.0
C410 C 0.64819 0.93411 0.77843 0.0
O411 O 0.63467 0.94829 0.78341 0.0
O412 O 0.66463 0.94279 0.7659 0.0
C413 C 0.61098 0.99249 0.8045 0.0
O414 O 0.63488 0.99095 0.80985 0.0
C415 C 0.68074 0.94205 0.72401 0.0
C416 C 0.72792 0.97267 0.71488 0.0
C417 C 0.7016 0.94419 0.71252 0.0
N418 N 0.69389 0.96818 0.73261 0.0
N419 N 0.72212 0.98645 0.72711 0.0
C420 C 0.64964 0.91472 0.72756 0.0
H421 H 0.64072 0.91756 0.7391 0.0
H422 H 0.63294 0.91221 0.71821 0.0
H423 H 0.65113 0.89328 0.72764 0.0
C424 C 0.60073 0.9853 0.74739 0.0
N425 N 0.62294 0.98177 0.75441 0.0
N426 N 0.64083 0.97996 0.7435 0.0
C427 C 0.63101 0.98328 0.72908 0.0
C428 C 0.60507 0.98637 0.7311 0.0
C429 C 0.57824 0.99119 0.75628 0.0
H430 H 0.59117 0.01274 0.76331 0.0
H431 H 0.56504 0.97197 0.76474 0.0
H432 H 0.56197 0.99353 0.74823 0.0
O433 O 0.67663 0.0215 0.7785 0.0
O434 O 0.7065 0.01612 0.76066 0.0
H435 H 0.67262 -0.00095 0.7155 0.0
H436 H 0.64034 0.99596 0.70423 0.0
C437 C 0.64722 0.98537 0.71379 0.0
H438 H 0.6411 0.96182 0.70989 0.0
H439 H 0.73751 0.00814 0.7318 0.0
O440 O 0.60622 0.99105 0.78962 0.0
C441 C 0.70289 0.031 0.77198 0.0
Co442 Co 0.00952 0.65021 0.77803 0.0
Co443 Co 0.01809 0.69757 0.75133 0.0
C444 C 0.06159 0.7148 0.77923 0.0
O445 O 0.04719 0.68756 0.78481 0.0
O446 O 0.05274 0.7217 0.76648 0.0
C447 C 0.02621 0.6153 0.79806 0.0
O448 O 0.05375 0.63369 0.79207 0.0
C449 C 0.05251 0.73538 0.72425 0.0
C450 C 0.02217 0.75217 0.71501 0.0
C451 C 0.0504 0.75381 0.71256 0.0
N452 N 0.02662 0.72316 0.73306 0.0
N453 N 0.0085 0.73321 0.72747 0.0
C454 C 0.07959 0.73124 0.72784 0.0
H455 H 0.07745 0.72116 0.73981 0.0
H456 H 0.08063 0.71524 0.71907 0.0
H457 H 0.10144 0.75373 0.72696 0.0
C458 C 0.00789 0.61324 0.75023 0.0
N459 N 0.01201 0.63962 0.75678 0.0
N460 N 0.0144 0.65886 0.74546 0.0
C461 C 0.01119 0.64496 0.73129 0.0
C462 C 0.0072 0.61572 0.73384 0.0
C463 C 0.00458 0.5863 0.75961 0.0
H464 H 0.02499 0.59413 0.76742 0.0
H465 H 0.00296 0.56755 0.75192 0.0
H466 H 0.98375 0.57724 0.76726 0.0
O467 O 0.97421 0.65723 0.78045 0.0
O468 O 0.9792 0.6905 0.76155 0.0
H469 H 0.99436 0.63873 0.70715 0.0
H470 H 0.03095 0.67297 0.71066 0.0
C471 C 0.00775 0.65758 0.71577 0.0
H472 H 0.99584 0.67103 0.71754 0.0
H473 H 0.98706 0.72752 0.7323 0.0
O474 O 0.00325 0.61739 0.79321 0.0
C475 C 0.96468 0.67345 0.77339 0.0
Co476 Co 0.34887 0.36169 0.77643 0.0
Co477 Co 0.29981 0.32081 0.75093 0.0
C478 C 0.28403 0.3474 0.77931 0.0
O479 O 0.31175 0.36126 0.78426 0.0
O480 O 0.2765 0.33117 0.76671 0.0
C481 C 0.38021 0.38532 0.80512 0.0
O482 O 0.35506 0.36116 0.81055 0.0
C483 C 0.26047 0.3165 0.72455 0.0
C484 C 0.24227 0.26881 0.71582 0.0
C485 C 0.24108 0.29561 0.71324 0.0
N486 N 0.2728 0.30284 0.73326 0.0
N487 N 0.2619 0.27433 0.72799 0.0
C488 C 0.26552 0.34814 0.7279 0.0
H489 H 0.27555 0.35606 0.73988 0.0
H490 H 0.28195 0.36475 0.71912 0.0
H491 H 0.2434 0.34823 0.72688 0.0
C492 C 0.38267 0.39638 0.74811 0.0
N493 N 0.35698 0.374 0.75509 0.0
N494 N 0.33746 0.35608 0.74414 0.0
C495 C 0.35064 0.36606 0.72975 0.0
C496 C 0.37969 0.39204 0.7318 0.0
C497 C 0.40975 0.42087 0.75706 0.0
H498 H 0.42316 0.41074 0.7622 0.0
H499 H 0.40149 0.42949 0.76697 0.0
H500 H 0.42506 0.44055 0.74926 0.0
O501 O 0.34372 0.32005 0.7789 0.0
O502 O 0.30874 0.29015 0.76097 0.0
H503 H 0.32424 0.32338 0.717 0.0
H504 H 0.35665 0.35306 0.70611 0.0
C505 C 0.33786 0.34853 0.7146 0.0
H506 H 0.32256 0.35597 0.709 0.0
H507 H 0.26752 0.25854 0.73283 0.0
O508 O 0.38316 0.39021 0.79025 0.0
C509 C 0.32731 0.29385 0.77227 0.0
Co510 Co 0.0197 0.33904 0.55463 0.0
Co511 Co 0.98185 0.34903 0.58131 0.0
C512 C 0.00541 0.39018 0.55268 0.0
O513 O 0.01792 0.37538 0.5472 0.0
O514 O 0.99088 0.38256 0.56581 0.0
C515 C 0.07195 0.35757 0.53517 0.0
O516 O 0.07963 0.38459 0.54138 0.0
C517 C 0.97715 0.38494 0.60703 0.0
C518 C 0.93361 0.35201 0.61907 0.0
C519 C 0.95803 0.38217 0.61962 0.0
N520 N 0.96483 0.35762 0.59953 0.0
N521 N 0.93877 0.33799 0.60674 0.0
C522 C 0.00525 0.41346 0.60115 0.0
H523 H -0.00099 0.42163 0.59027 0.0
H524 H 0.02338 0.40784 0.5978 0.0
H525 H 0.01449 0.43247 0.60993 0.0
C526 C 0.05683 0.34035 0.58232 0.0
N527 N 0.03404 0.34361 0.57576 0.0
N528 N 0.01792 0.3472 0.58708 0.0
C529 C 0.02991 0.34612 0.60127 0.0
C530 C 0.055 0.34183 0.59872 0.0
C531 C 0.07965 0.33564 0.57297 0.0
H532 H 0.06713 0.31521 0.56513 0.0
H533 H 0.09335 0.35615 0.56537 0.0
H534 H 0.09593 0.33263 0.58067 0.0
O535 O 0.97805 0.30237 0.55308 0.0
O536 O 0.95048 0.30911 0.57177 0.0
H537 H 0.99005 0.33086 0.61616 0.0
H538 H 0.02411 0.33657 0.62652 0.0
C539 C 0.01552 0.34558 0.61695 0.0
H540 H 0.02117 0.36939 0.62008 0.0
H541 H 0.92449 0.3151 0.60321 0.0
O542 O 0.04708 0.33382 0.53957 0.0
C543 C 0.95267 0.29335 0.56045 0.0
Co544 Co 0.65643 0.68088 0.55414 0.0
Co545 Co 0.64771 0.63214 0.58009 0.0
C546 C 0.60783 0.61477 0.55088 0.0
O547 O 0.62159 0.64248 0.54593 0.0
O548 O 0.6156 0.60758 0.56389 0.0
C549 C 0.63785 0.71285 0.53305 0.0
O550 O 0.61027 0.68941 0.5362 0.0
C551 C 0.61139 0.58869 0.60477 0.0
C552 C 0.64557 0.58164 0.618 0.0
C553 C 0.61461 0.57332 0.61768 0.0
N554 N 0.6392 0.60568 0.59794 0.0
N555 N 0.65956 0.60126 0.60581 0.0
C556 C 0.58231 0.58622 0.59826 0.0
H557 H 0.57665 0.57342 0.58686 0.0
H558 H 0.58612 0.60965 0.59567 0.0
H559 H 0.56233 0.57375 0.60634 0.0
C560 C 0.65177 0.71365 0.58219 0.0
N561 N 0.65002 0.6885 0.57531 0.0
N562 N 0.64712 0.66859 0.58636 0.0
C563 C 0.64736 0.68074 0.60071 0.0
C564 C 0.65014 0.70959 0.59852 0.0
C565 C 0.65856 0.74233 0.57331 0.0
H566 H 0.67916 0.74963 0.56567 0.0
H567 H 0.6387 0.73719 0.56548 0.0
H568 H 0.66282 0.76156 0.58141 0.0
O569 O 0.69422 0.67779 0.55272 0.0
O570 O 0.68895 0.6436 0.57116 0.0
H571 H 0.66396 0.65835 0.6163 0.0
H572 H 0.65016 0.68109 0.62645 0.0
C573 C 0.64629 0.6656 0.61622 0.0
H574 H 0.62324 0.64472 0.61765 0.0
H575 H 0.683 0.61182 0.60295 0.0
O576 O 0.66134 0.71448 0.53986 0.0
C577 C 0.70438 0.66232 0.56001 0.0
Co578 Co 0.31905 0.97289 0.55543 0.0
Co579 Co 0.36484 0.01551 0.58171 0.0
C580 C 0.38503 0.99106 0.55414 0.0
O581 O 0.3577 0.97491 0.54889 0.0
O582 O 0.39092 0.0082 0.56631 0.0
C583 C 0.28723 0.91992 0.53583 0.0
O584 O 0.30903 0.91461 0.54089 0.0
C585 C 0.40455 0.02227 0.60831 0.0
C586 C 0.41763 0.06828 0.61803 0.0
C587 C 0.42183 0.0431 0.62011 0.0
N588 N 0.39039 0.0343 0.59978 0.0
N589 N 0.39827 0.06183 0.60562 0.0
C590 C 0.40325 0.99238 0.60441 0.0
H591 H 0.39182 0.98329 0.59281 0.0
H592 H 0.38987 0.97489 0.61361 0.0
H593 H 0.42696 0.99574 0.60425 0.0
C594 C 0.28416 0.93691 0.58353 0.0
N595 N 0.30949 0.96034 0.57678 0.0
N596 N 0.32804 0.97867 0.58794 0.0
C597 C 0.31457 0.96786 0.6022 0.0
C598 C 0.28655 0.94085 0.59986 0.0
C599 C 0.25683 0.91318 0.57442 0.0
H600 H 0.24949 0.92486 0.56568 0.0
H601 H 0.26358 0.89831 0.56777 0.0
H602 H 0.23706 0.89848 0.58231 0.0
O603 O 0.32271 0.01404 0.55246 0.0
O604 O 0.35358 0.04427 0.57168 0.0
H605 H 0.33735 0.00926 0.61618 0.0
H606 H 0.30965 0.97552 0.62713 0.0
C607 C 0.32744 0.98399 0.61767 0.0
H608 H 0.34607 0.97962 0.62157 0.0
H609 H 0.39072 0.07633 0.60104 0.0
O610 O 0.28651 0.9435 0.54091 0.0
C611 C 0.33652 0.04003 0.5596 0.0
H612 H 0.3541 0.22123 0.0522 0.0
H613 H 0.34564 0.18068 0.03326 0.0
H614 H 0.36961 0.24555 0.99469 0.0
H615 H 0.37812 0.28628 0.01365 0.0
H616 H 0.30404 0.15735 0.0087 0.0
H617 H 0.42405 0.20799 0.98613 0.0
H618 H 0.41463 0.22196 0.00382 0.0
H619 H 0.40859 0.2335 0.98454 0.0
C620 C 0.35723 0.22678 0.03968 0.0
C621 C 0.3662 0.25676 0.03436 0.0
C622 C 0.35263 0.20365 0.02888 0.0
C623 C 0.35721 0.21014 0.01258 0.0
C624 C 0.36648 0.24016 0.00724 0.0
H625 H 0.28623 0.07547 0.93592 0.0
H626 H 0.29554 0.11563 0.95548 0.0
C627 C 0.37121 0.26335 0.01806 0.0
C628 C 0.35139 0.18521 0.00117 0.0
H629 H 0.38523 0.16454 0.97212 0.0
C630 C 0.32181 0.15885 0.00073 0.0
C631 C 0.37472 0.18706 0.99093 0.0
C632 C 0.40737 0.214 0.99144 0.0
C633 C 0.31479 0.13447 0.99018 0.0
C634 C 0.33782 0.1368 0.97957 0.0
C635 C 0.36752 0.16294 0.98017 0.0
C636 C 0.33172 0.11222 0.96787 0.0
C637 C 0.28295 0.10622 0.9907 0.0
C638 C 0.34941 0.09752 0.96813 0.0
C639 C 0.34432 0.0749 0.95689 0.0
C640 C 0.32144 0.06661 0.94522 0.0
C641 C 0.30382 0.08137 0.94491 0.0
C642 C 0.30899 0.1041 0.95612 0.0
H643 H 0.27112 0.10441 0.00215 0.0
H644 H 0.26864 0.10775 0.98105 0.0
H645 H 0.28408 0.08479 0.98892 0.0
H646 H 0.36723 0.10362 0.97701 0.0
H647 H 0.35859 0.06421 0.95715 0.0
H648 H 0.77819 0.13193 0.05397 0.0
H649 H 0.81808 0.16433 0.03477 0.0
H650 H 0.75222 0.12266 0.99666 0.0
H651 H 0.71212 0.09036 0.01589 0.0
H652 H 0.84153 0.14705 0.0105 0.0
H653 H 0.7885 0.21366 0.98731 0.0
H654 H 0.77472 0.19032 0.00502 0.0
H655 H 0.76351 0.17262 0.98575 0.0
C656 C 0.77229 0.1295 0.04149 0.0
C657 C 0.74222 0.10829 0.03637 0.0
C658 C 0.79503 0.14818 0.03054 0.0
C659 C 0.78808 0.14613 0.01429 0.0
C660 C 0.75796 0.1251 0.00917 0.0
H661 H 0.9225 0.20885 0.9375 0.0
H662 H 0.8826 0.17838 0.95725 0.0
C663 C 0.73513 0.10657 0.02014 0.0
C664 C 0.81269 0.16523 0.0027 0.0
H665 H 0.83171 0.2182 0.97299 0.0
C666 C 0.83946 0.16272 0.00234 0.0
C667 C 0.81013 0.18597 0.99222 0.0
C668 C 0.78281 0.1911 0.99266 0.0
C669 C 0.86355 0.18004 0.99162 0.0
C670 C 0.86045 0.19986 0.98072 0.0
C671 C 0.8339 0.20274 0.98124 0.0
C672 C 0.88463 0.21811 0.96878 0.0
C673 C 0.89232 0.17736 0.9923 0.0
C674 C 0.89837 0.25043 0.96842 0.0
C675 C 0.92078 0.26773 0.95704 0.0
C676 C 0.92989 0.25299 0.94587 0.0
C677 C 0.91599 0.22067 0.94612 0.0
C678 C 0.89342 0.20334 0.95745 0.0
H679 H 0.89474 0.16845 0.00398 0.0
H680 H 0.89093 0.16094 0.98303 0.0
H681 H 0.91338 0.20004 0.9901 0.0
H682 H 0.89173 0.26228 0.97696 0.0
H683 H 0.93075 0.2926 0.95684 0.0
H684 H 0.84903 0.58476 0.03622 0.0
H685 H 0.81663 0.59218 0.01672 0.0
H686 H 0.88932 0.68637 0.00954 0.0
H687 H 0.92176 0.67894 0.02885 0.0
H688 H 0.79925 0.64127 0.01823 0.0
H689 H 0.86543 0.6461 0.96416 0.0
H690 H 0.86793 0.62872 0.98251 0.0
H691 H 0.88785 0.67002 0.98049 0.0
C692 C 0.85796 0.60699 0.03045 0.0
C693 C 0.88749 0.6315 0.03422 0.0
C694 C 0.83952 0.61121 0.01938 0.0
C695 C 0.85069 0.63978 0.01171 0.0
C696 C 0.88038 0.66413 0.0153 0.0
H697 H 0.7833 0.71597 0.94024 0.0
H698 H 0.81372 0.70613 0.95989 0.0
C699 C 0.8987 0.65998 0.02643 0.0
C700 C 0.83115 0.64447 0.00015 0.0
H701 H 0.82609 0.65893 0.96101 0.0
C702 C 0.80492 0.64494 0.00569 0.0
C703 C 0.83885 0.64941 0.98386 0.0
C704 C 0.86641 0.64835 0.9773 0.0
C705 C 0.78648 0.651 0.99539 0.0
C706 C 0.79415 0.65594 0.97906 0.0
C707 C 0.82029 0.65519 0.97353 0.0
C708 C 0.77551 0.66212 0.96751 0.0
C709 C 0.75956 0.65297 0.00219 0.0
C710 C 0.74408 0.64052 0.96517 0.0
C711 C 0.72675 0.64628 0.95409 0.0
C712 C 0.74066 0.67358 0.94511 0.0
C713 C 0.77215 0.69494 0.94722 0.0
C714 C 0.78945 0.68929 0.95837 0.0
H715 H 0.76207 0.65733 0.01518 0.0
H716 H 0.75715 0.67161 0.99637 0.0
H717 H 0.73793 0.63071 0.00016 0.0
H718 H 0.73307 0.61901 0.97175 0.0
H719 H 0.70261 0.62922 0.95235 0.0
H720 H 0.70834 0.9541 0.04024 0.0
H721 H 0.69705 0.91391 0.02031 0.0
H722 H 0.61571 0.85005 0.04657 0.0
H723 H 0.62675 0.89018 0.06637 0.0
H724 H 0.65499 0.8266 0.03785 0.0
H725 H 0.62695 0.87852 0.98671 0.0
H726 H 0.66305 0.90371 0.9964 0.0
H727 H 0.62738 0.89062 0.00696 0.0
C728 C 0.68794 0.93154 0.04162 0.0
C729 C 0.66848 0.92507 0.05482 0.0
C730 C 0.68147 0.90869 0.03026 0.0
C731 C 0.6554 0.87914 0.03192 0.0
C732 C 0.63592 0.87273 0.04509 0.0
H733 H 0.57927 0.72917 0.96266 0.0
H734 H 0.58598 0.76832 0.98238 0.0
C735 C 0.64232 0.89556 0.0564 0.0
C736 C 0.64899 0.85448 0.02028 0.0
H737 H 0.63175 0.8344 0.98132 0.0
C738 C 0.6498 0.82823 0.0255 0.0
C739 C 0.64187 0.85658 0.00425 0.0
C740 C 0.63946 0.88372 0.99821 0.0
C741 C 0.64434 0.80424 0.015 0.0
C742 C 0.63819 0.80678 0.99886 0.0
C743 C 0.63668 0.83269 0.9937 0.0
C744 C 0.63397 0.78304 0.98709 0.0
C745 C 0.64505 0.77629 0.02124 0.0
C746 C 0.65875 0.77853 0.98326 0.0
C747 C 0.65499 0.75636 0.97204 0.0
C748 C 0.62646 0.73851 0.96438 0.0
C749 C 0.60154 0.74278 0.96837 0.0
C750 C 0.60536 0.76512 0.97955 0.0
H751 H 0.64286 0.77457 0.03438 0.0
H752 H 0.62615 0.75474 0.01594 0.0
H753 H 0.66738 0.77802 0.01795 0.0
H754 H 0.68103 0.79223 0.98894 0.0
H755 H 0.67429 0.75287 0.96961 0.0
H756 H 0.2237 0.85934 0.94534 0.0
H757 H 0.18345 0.82725 0.96447 0.0
H758 H 0.24721 0.87277 0.00297 0.0
H759 H 0.28755 0.90525 0.98388 0.0
H760 H 0.21194 0.80778 0.00597 0.0
H761 H 0.13825 0.85934 0.99295 0.0
H762 H 0.14856 0.84483 0.97589 0.0
H763 H 0.17811 0.87708 0.98672 0.0
C764 C 0.22902 0.86286 0.95788 0.0
C765 C 0.25849 0.88544 0.96315 0.0
C766 C 0.20605 0.8444 0.96879 0.0
C767 C 0.21218 0.84815 0.98513 0.0
C768 C 0.24196 0.86974 0.9904 0.0
H769 H 0.08101 0.785 0.06296 0.0
H770 H 0.12169 0.8153 0.04349 0.0
C771 C 0.26496 0.88821 0.97949 0.0
C772 C 0.18748 0.8297 0.99675 0.0
H773 H 0.11717 0.81597 0.01012 0.0
C774 C 0.19121 0.80954 0.0069 0.0
C775 C 0.16068 0.8324 0.99805 0.0
C776 C 0.15615 0.85477 0.98793 0.0
C777 C 0.1686 0.79164 0.01821 0.0
C778 C 0.14144 0.79376 0.01922 0.0
C779 C 0.1379 0.81422 0.0092 0.0
C780 C 0.11666 0.77536 0.03081 0.0
C781 C 0.1742 0.77105 0.02917 0.0
C782 C 0.10016 0.74296 0.02997 0.0
C783 C 0.07702 0.72573 0.04105 0.0
C784 C 0.06986 0.74067 0.05303 0.0
C785 C 0.08615 0.77307 0.05377 0.0
C786 C 0.10927 0.7903 0.04269 0.0
H787 H 0.19898 0.7776 0.02946 0.0
H788 H 0.1666 0.77201 0.04145 0.0
H789 H 0.16066 0.74681 0.02496 0.0
H790 H 0.10523 0.73102 0.02075 0.0
H791 H 0.06502 0.70073 0.04041 0.0
H792 H 0.26315 0.37037 0.06515 0.0
H793 H 0.23228 0.37972 0.04569 0.0
H794 H 0.2133 0.29675 0.02066 0.0
H795 H 0.24395 0.28711 0.04029 0.0
H796 H 0.23244 0.35166 0.00111 0.0
H797 H 0.13605 0.32766 0.04239 0.0
H798 H 0.17417 0.35481 0.04942 0.0
H799 H 0.16367 0.31519 0.04634 0.0
C800 C 0.25211 0.35399 0.05558 0.0
C801 C 0.25547 0.3278 0.05429 0.0
C802 C 0.23459 0.35938 0.04448 0.0
C803 C 0.22022 0.3387 0.03189 0.0
C804 C 0.22413 0.31288 0.03035 0.0
H805 H 0.07538 0.32046 0.9692 0.0
H806 H 0.1081 0.31319 0.98836 0.0
C807 C 0.24158 0.30741 0.04151 0.0
C808 C 0.20106 0.34404 0.02036 0.0
H809 H 0.13454 0.34712 0.01699 0.0
C810 C 0.21103 0.35068 0.00454 0.0
C811 C 0.17308 0.3425 0.02491 0.0
C812 C 0.16086 0.33442 0.04165 0.0
C813 C 0.19379 0.35612 0.99314 0.0
C814 C 0.16607 0.35509 0.99776 0.0
C815 C 0.15598 0.34816 0.01355 0.0
C816 C 0.14652 0.3599 0.98623 0.0
C817 C 0.20502 0.36238 0.97618 0.0
C818 C 0.15713 0.38875 0.97894 0.0
C819 C 0.1385 0.39289 0.96795 0.0
C820 C 0.10921 0.36813 0.96402 0.0
C821 C 0.09831 0.33958 0.97168 0.0
C822 C 0.11683 0.33549 0.98269 0.0
H823 H 0.22332 0.35637 0.97396 0.0
H824 H 0.18559 0.34907 0.96783 0.0
H825 H 0.21475 0.38732 0.97356 0.0
H826 H 0.17976 0.40803 0.98177 0.0
H827 H 0.14712 0.41523 0.96234 0.0
H828 H 0.98162 0.57361 0.3642 0.0
H829 H 0.97349 0.53334 0.34505 0.0
H830 H 0.06918 0.55809 0.34963 0.0
H831 H 0.07718 0.59801 0.36914 0.0
H832 H 0.00384 0.53985 0.31595 0.0
H833 H 0.02118 0.46376 0.35779 0.0
H834 H 0.01422 0.49411 0.36445 0.0
H835 H 0.05181 0.50338 0.35735 0.0
C836 C 0.00073 0.57001 0.36134 0.0
C837 C 0.02975 0.58809 0.36849 0.0
C838 C 0.99616 0.54726 0.3503 0.0
C839 C 0.02057 0.54233 0.34619 0.0
C840 C 0.04988 0.56108 0.35294 0.0
H841 H 0.02848 0.43767 0.266 0.0
H842 H 0.03751 0.47772 0.2855 0.0
C843 C 0.05447 0.58392 0.36397 0.0
C844 C 0.0153 0.51787 0.33462 0.0
H845 H 0.01494 0.44966 0.33061 0.0
C846 C 0.00627 0.52013 0.31914 0.0
C847 C 0.01815 0.49203 0.3389 0.0
C848 C 0.02661 0.48788 0.35555 0.0
C849 C 0.00034 0.49736 0.30774 0.0
C850 C 0.00381 0.47186 0.31192 0.0
C851 C 0.01249 0.46938 0.32745 0.0
C852 C -0.00148 0.44753 0.30029 0.0
C853 C 0.98997 0.50049 0.29136 0.0
C854 C 0.97398 0.41721 0.30236 0.0
C855 C 0.96866 0.39438 0.29117 0.0
C856 C 0.98795 0.40156 0.27785 0.0
C857 C 0.01289 0.43176 0.276 0.0
C858 C 0.01811 0.45458 0.28713 0.0
H859 H 0.98192 0.51758 0.29109 0.0
H860 H 0.00964 0.50836 0.28298 0.0
H861 H 0.97099 0.47788 0.28708 0.0
H862 H 0.95872 0.41134 0.31251 0.0
H863 H 0.94934 0.3712 0.29284 0.0
H864 H 0.55936 0.59158 0.26522 0.0
H865 H 0.51891 0.56193 0.2848 0.0
H866 H 0.58302 0.54564 0.31158 0.0
H867 H 0.6236 0.57532 0.29192 0.0
H868 H 0.49508 0.50027 0.29356 0.0
H869 H 0.54721 0.57904 0.34504 0.0
H870 H 0.56016 0.59078 0.3249 0.0
H871 H 0.57225 0.56759 0.33568 0.0
C872 C 0.56472 0.58152 0.27526 0.0
C873 C 0.59444 0.58549 0.27708 0.0
C874 C 0.54169 0.56475 0.28644 0.0
C875 C 0.54807 0.55189 0.29971 0.0
C876 C 0.57779 0.55586 0.30157 0.0
H877 H 0.41765 0.40546 0.36078 0.0
H878 H 0.4572 0.43757 0.34129 0.0
C879 C 0.60086 0.57265 0.29035 0.0
C880 C 0.52326 0.53353 0.31131 0.0
H881 H 0.50304 0.53004 0.35029 0.0
C882 C 0.49675 0.50681 0.30596 0.0
C883 C 0.52535 0.54239 0.32741 0.0
C884 C 0.55263 0.57166 0.33362 0.0
C885 C 0.47252 0.48833 0.31637 0.0
C886 C 0.47508 0.4966 0.33258 0.0
C887 C 0.50128 0.52366 0.33787 0.0
C888 C 0.45102 0.47718 0.34428 0.0
C889 C 0.44423 0.46027 0.3099 0.0
C890 C 0.43474 0.48896 0.35255 0.0
C891 C 0.41239 0.47075 0.36381 0.0
C892 C 0.40649 0.44076 0.36716 0.0
C893 C 0.42248 0.42887 0.35872 0.0
C894 C 0.44472 0.44701 0.34745 0.0
H895 H 0.44231 0.46167 0.29682 0.0
H896 H 0.44577 0.43933 0.31256 0.0
H897 H 0.42284 0.45747 0.3155 0.0
H898 H 0.43927 0.5122 0.35025 0.0
H899 H 0.40011 0.48026 0.3701 0.0
H900 H 0.51481 0.91843 0.36947 0.0
H901 H 0.48187 0.92619 0.35046 0.0
H902 H 0.55427 0.02059 0.34349 0.0
H903 H 0.58721 0.01284 0.36233 0.0
H904 H 0.465 0.97632 0.35277 0.0
H905 H 0.52884 0.98 0.29794 0.0
H906 H 0.53131 0.96205 0.31608 0.0
H907 H 0.55189 0.00338 0.31427 0.0
C908 C 0.52356 0.94078 0.36384 0.0
C909 C 0.55315 0.96526 0.36753 0.0
C910 C 0.5048 0.94519 0.35306 0.0
C911 C 0.51574 0.97393 0.34561 0.0
C912 C 0.54551 0.99823 0.34911 0.0
H913 H 0.448 0.05063 0.27469 0.0
H914 H 0.47838 0.04089 0.29439 0.0
C915 C 0.56412 0.99389 0.35996 0.0
C916 C 0.49596 0.97884 0.33432 0.0
H917 H 0.48971 0.9932 0.29531 0.0
C918 C 0.47019 0.97983 0.34018 0.0
C919 C 0.50305 0.98357 0.31797 0.0
C920 C 0.53014 0.98201 0.31109 0.0
C921 C 0.45164 0.9862 0.33013 0.0
C922 C 0.45871 0.99093 0.31373 0.0
C923 C 0.48437 0.98964 0.30788 0.0
C924 C 0.43993 0.99738 0.3024 0.0
C925 C 0.42527 0.98873 0.33725 0.0
C926 C 0.40832 0.97613 0.30033 0.0
C927 C 0.39101 0.98185 0.28922 0.0
C928 C 0.40513 0.00873 0.27991 0.0
C929 C 0.43671 0.02989 0.28188 0.0
C930 C 0.45398 0.02429 0.29307 0.0
H931 H 0.42838 0.99328 0.35022 0.0
H932 H 0.42293 0.00746 0.3315 0.0
H933 H 0.40338 0.96661 0.33545 0.0
H934 H 0.39718 0.95483 0.30708 0.0
H935 H 0.36677 0.96497 0.28762 0.0
H936 H 0.29208 0.25744 0.37836 0.0
H937 H 0.27951 0.21563 0.35927 0.0
H938 H 0.36178 0.21386 0.37316 0.0
H939 H 0.37404 0.25532 0.39239 0.0
H940 H 0.31228 0.21296 0.3337 0.0
H941 H 0.29511 0.12392 0.37815 0.0
H942 H 0.29745 0.15999 0.38356 0.0
H943 H 0.33211 0.15844 0.37977 0.0
C944 C 0.30747 0.24814 0.37722 0.0
C945 C 0.33399 0.2594 0.38673 0.0
C946 C 0.30027 0.22428 0.36639 0.0
C947 C 0.31941 0.21127 0.36501 0.0
C948 C 0.3463 0.22304 0.37431 0.0
H949 H 0.33322 0.0799 0.30507 0.0
H950 H 0.33956 0.11923 0.32447 0.0
C951 C 0.35341 0.2468 0.38518 0.0
C952 C 0.31155 0.18571 0.35368 0.0
H953 H 0.29869 0.11198 0.35106 0.0
C954 C 0.30899 0.19077 0.3375 0.0
C955 C 0.30711 0.15672 0.3587 0.0
C956 C 0.30777 0.14927 0.37601 0.0
C957 C 0.30318 0.16796 0.32613 0.0
C958 C 0.29958 0.13933 0.33112 0.0
C959 C 0.30157 0.13404 0.34731 0.0
C960 C 0.29509 0.11507 0.31963 0.0
C961 C 0.3019 0.17492 0.30881 0.0
C962 C 0.26773 0.09937 0.31075 0.0
C963 C 0.26414 0.07698 0.29964 0.0
C964 C 0.28801 0.07035 0.29719 0.0
C965 C 0.31494 0.0854 0.30643 0.0
C966 C 0.31845 0.1076 0.31758 0.0
H967 H 0.31029 0.19983 0.3067 0.0
H968 H 0.31599 0.16792 0.30159 0.0
H969 H 0.27764 0.16147 0.30459 0.0
H970 H 0.24925 0.1045 0.31239 0.0
H971 H 0.24302 0.0653 0.29276 0.0
H972 H 0.88816 0.19827 0.28113 0.0
H973 H 0.84822 0.16793 0.30071 0.0
H974 H 0.9146 0.2113 0.33843 0.0
H975 H 0.95476 0.24191 0.31882 0.0
H976 H 0.87781 0.14788 0.34217 0.0
H977 H 0.80604 0.20156 0.32961 0.0
H978 H 0.81426 0.18583 0.31235 0.0
H979 H 0.84531 0.21787 0.32262 0.0
C980 C 0.89415 0.20173 0.2936 0.0
C981 C 0.92434 0.22311 0.2985 0.0
C982 C 0.87132 0.1843 0.30477 0.0
C983 C 0.87826 0.18796 0.32104 0.0
C984 C 0.9087 0.20839 0.32593 0.0
H985 H 0.74281 0.12257 0.39759 0.0
H986 H 0.78451 0.15416 0.37884 0.0
C987 C 0.93159 0.22579 0.31474 0.0
C988 C 0.85378 0.17023 0.33291 0.0
H989 H 0.78345 0.15684 0.34606 0.0
C990 C 0.85723 0.14991 0.34308 0.0
C991 C 0.82719 0.17329 0.33423 0.0
C992 C 0.82302 0.19603 0.32423 0.0
C993 C 0.83443 0.13202 0.3543 0.0
C994 C 0.80726 0.13415 0.35516 0.0
C995 C 0.80414 0.15499 0.34525 0.0
C996 C 0.78182 0.11504 0.36633 0.0
C997 C 0.83984 0.1113 0.36527 0.0
C998 C 0.76621 0.08266 0.36533 0.0
C999 C 0.74256 0.0647 0.37603 0.0
C1000 C 0.7339 0.07886 0.38775 0.0
C1001 C 0.74913 0.11123 0.38859 0.0
C1002 C 0.77285 0.12921 0.37792 0.0
H1003 H 0.86477 0.11857 0.36608 0.0
H1004 H 0.83106 0.11122 0.3774 0.0
H1005 H 0.82736 0.08731 0.36064 0.0
H1006 H 0.77238 0.07127 0.3563 0.0
H1007 H 0.73137 0.03975 0.3753 0.0
H1008 H 0.87573 0.62336 0.39709 0.0
H1009 H 0.8451 0.63282 0.37745 0.0
H1010 H 0.92903 0.70544 0.35655 0.0
H1011 H 0.95958 0.69661 0.37649 0.0
H1012 H 0.88499 0.72243 0.36092 0.0
H1013 H 0.83424 0.60872 0.33071 0.0
H1014 H 0.82765 0.60599 0.35175 0.0
H1015 H 0.86642 0.62219 0.34426 0.0
C1016 C 0.88752 0.64125 0.38825 0.0
C1017 C 0.91991 0.65902 0.3881 0.0
C1018 C 0.87009 0.6465 0.377 0.0
C1019 C 0.88483 0.66946 0.36536 0.0
C1020 C 0.91722 0.68745 0.36534 0.0
H1021 H 0.8002 0.68961 0.27974 0.0
H1022 H 0.83237 0.68249 0.29922 0.0
C1023 C 0.93463 0.68227 0.37663 0.0
C1024 C 0.86649 0.67522 0.35342 0.0
H1025 H 0.81365 0.6409 0.32371 0.0
C1026 C 0.86945 0.70466 0.35274 0.0
C1027 C 0.84656 0.6521 0.34264 0.0
C1028 C 0.84368 0.62056 0.34222 0.0
C1029 C 0.85267 0.7115 0.3417 0.0
C1030 C 0.83196 0.68806 0.33127 0.0
C1031 C 0.82933 0.65875 0.33181 0.0
C1032 C 0.81307 0.69347 0.31952 0.0
C1033 C 0.85771 0.74389 0.3411 0.0
C1034 C 0.79155 0.70204 0.32447 0.0
C1035 C 0.77305 0.70602 0.31333 0.0
C1036 C 0.77538 0.70092 0.29712 0.0
C1037 C 0.79722 0.69277 0.29219 0.0
C1038 C 0.8158 0.68895 0.3033 0.0
H1039 H 0.88001 0.76084 0.34667 0.0
H1040 H 0.85743 0.75117 0.32868 0.0
H1041 H 0.83886 0.74459 0.34772 0.0
H1042 H 0.78866 0.70511 0.33695 0.0
H1043 H 0.75638 0.71231 0.31745 0.0
H1044 H 0.69688 0.73567 0.62 0.0
H1045 H 0.70615 0.77563 0.63973 0.0
H1046 H 0.6245 0.77635 0.62368 0.0
H1047 H 0.61519 0.73632 0.60396 0.0
H1048 H 0.71273 0.83664 0.6327 0.0
H1049 H 0.61498 0.76388 0.67322 0.0
H1050 H 0.63045 0.74763 0.65927 0.0
H1051 H 0.60572 0.76173 0.65245 0.0
C1052 C 0.68079 0.74419 0.62086 0.0
C1053 C 0.65513 0.73284 0.6107 0.0
C1054 C 0.68616 0.76702 0.63203 0.0
C1055 C 0.66581 0.77861 0.63324 0.0
C1056 C 0.64021 0.76734 0.62305 0.0
H1057 H 0.65197 0.91148 0.69309 0.0
H1058 H 0.64453 0.87192 0.67372 0.0
C1059 C 0.63495 0.74463 0.61181 0.0
C1060 C 0.67176 0.80305 0.64493 0.0
H1061 H 0.64309 0.81748 0.67857 0.0
C1062 C 0.69764 0.83252 0.64278 0.0
C1063 C 0.65192 0.79747 0.658 0.0
C1064 C 0.6243 0.76594 0.66102 0.0
C1065 C 0.70384 0.85689 0.6532 0.0
C1066 C 0.68401 0.85133 0.66633 0.0
C1067 C 0.65825 0.82172 0.66851 0.0
C1068 C 0.68917 0.87592 0.67784 0.0
C1069 C 0.73101 0.88853 0.64978 0.0
C1070 C 0.71673 0.89131 0.68661 0.0
C1071 C 0.72098 0.91394 0.69771 0.0
C1072 C 0.69747 0.921 0.70046 0.0
C1073 C 0.67004 0.90577 0.69159 0.0
C1074 C 0.6659 0.88337 0.68042 0.0
H1075 H 0.73839 0.89086 0.63717 0.0
H1076 H 0.72543 0.90693 0.65252 0.0
H1077 H 0.75087 0.89231 0.65728 0.0
H1078 H 0.73476 0.88552 0.68505 0.0
H1079 H 0.74233 0.92538 0.70441 0.0
H1080 H 0.25473 0.95903 0.61902 0.0
H1081 H 0.21438 0.92737 0.6384 0.0
H1082 H 0.22401 0.84872 0.62625 0.0
H1083 H 0.26453 0.88047 0.60695 0.0
H1084 H 0.15725 0.87033 0.63195 0.0
H1085 H 0.23228 0.85529 0.67554 0.0
H1086 H 0.2475 0.88547 0.66071 0.0
H1087 H 0.23614 0.84646 0.65527 0.0
C1088 C 0.24842 0.93508 0.62069 0.0
C1089 C 0.26289 0.92215 0.61179 0.0
C1090 C 0.22535 0.91703 0.63165 0.0
C1091 C 0.21658 0.88587 0.63389 0.0
C1092 C 0.23086 0.87287 0.62487 0.0
H1093 H 0.08569 0.73804 0.69425 0.0
H1094 H 0.12533 0.77041 0.67496 0.0
C1095 C 0.25383 0.8909 0.61386 0.0
C1096 C 0.19196 0.86673 0.64539 0.0
H1097 H 0.17828 0.82607 0.67987 0.0
C1098 C 0.16179 0.86073 0.64248 0.0
C1099 C 0.19805 0.85424 0.65905 0.0
C1100 C 0.23027 0.86081 0.66297 0.0
C1101 C 0.13733 0.84196 0.65273 0.0
C1102 C 0.14342 0.82948 0.66643 0.0
C1103 C 0.17366 0.83563 0.66936 0.0
C1104 C 0.11879 0.80979 0.67787 0.0
C1105 C 0.10509 0.83501 0.64856 0.0
C1106 C 0.10197 0.8212 0.68594 0.0
C1107 C 0.07937 0.80275 0.69704 0.0
C1108 C 0.07366 0.77283 0.70047 0.0
C1109 C 0.09029 0.76135 0.69226 0.0
C1110 C 0.11274 0.77972 0.68112 0.0
H1111 H 0.10301 0.83905 0.63577 0.0
H1112 H 0.08772 0.8107 0.65147 0.0
H1113 H 0.09947 0.85043 0.65551 0.0
H1114 H 0.10664 0.84454 0.68385 0.0
H1115 H 0.06687 0.81215 0.70321 0.0
H1116 H 0.08643 0.37889 0.62366 0.0
H1117 H 0.11789 0.37065 0.64339 0.0
H1118 H 0.09566 0.28458 0.6207 0.0
H1119 H 0.06406 0.29263 0.60111 0.0
H1120 H 0.09976 0.31886 0.66452 0.0
H1121 H 0.19178 0.3344 0.62213 0.0
H1122 H 0.16441 0.34703 0.6178 0.0
H1123 H 0.15299 0.30687 0.61617 0.0
C1124 C 0.08831 0.35824 0.62296 0.0
C1125 C 0.0734 0.33664 0.61077 0.0
C1126 C 0.10621 0.35356 0.63418 0.0
C1127 C 0.10948 0.32728 0.63331 0.0
C1128 C 0.09393 0.30531 0.62136 0.0
H1129 H 0.1822 0.25405 0.70443 0.0
H1130 H 0.14971 0.26141 0.68507 0.0
C1131 C 0.07598 0.30994 0.6102 0.0
C1132 C 0.12911 0.32275 0.6449 0.0
H1133 H 0.19443 0.3174 0.64804 0.0
C1134 C 0.12048 0.31856 0.66095 0.0
C1135 C 0.15625 0.32268 0.64018 0.0
C1136 C 0.16717 0.32824 0.62316 0.0
C1137 C 0.13812 0.31386 0.67242 0.0
C1138 C 0.16487 0.31311 0.66764 0.0
C1139 C 0.17373 0.31772 0.65162 0.0
C1140 C 0.18445 0.30832 0.67916 0.0
C1141 C 0.1283 0.31021 0.68959 0.0
C1142 C 0.21493 0.33195 0.68189 0.0
C1143 C 0.23346 0.32778 0.69288 0.0
C1144 C 0.22182 0.29989 0.70131 0.0
C1145 C 0.19161 0.2759 0.6982 0.0
C1146 C 0.173 0.28013 0.68725 0.0
H1147 H 0.11114 0.31779 0.69173 0.0
H1148 H 0.11757 0.2855 0.693 0.0
H1149 H 0.14859 0.32369 0.69742 0.0
H1150 H 0.2243 0.3537 0.67558 0.0
H1151 H 0.25701 0.34625 0.69458 0.0
H1152 H 0.91552 0.39764 0.62914 0.0
H1153 H 0.92262 0.43735 0.64857 0.0
H1154 H 0.01662 0.4586 0.65634 0.0
H1155 H 0.00933 0.41849 0.63725 0.0
H1156 H 0.98314 0.45225 0.68438 0.0
H1157 H 0.97432 0.53182 0.64132 0.0
H1158 H 0.94275 0.49265 0.64093 0.0
H1159 H 0.98076 0.50085 0.63521 0.0
C1160 C 0.93768 0.4109 0.635 0.0
C1161 C 0.96219 0.40578 0.63141 0.0
C1162 C 0.94177 0.43364 0.64598 0.0
C1163 C 0.97036 0.45135 0.65361 0.0
C1164 C 0.99453 0.44548 0.65041 0.0
H1165 H 0.04056 0.6216 0.70723 0.0
H1166 H 0.03105 0.58143 0.6876 0.0
C1167 C 0.99046 0.42284 0.63941 0.0
C1168 C 0.97506 0.47568 0.66513 0.0
H1169 H 0.9774 0.54494 0.66855 0.0
C1170 C 0.98187 0.47252 0.68094 0.0
C1171 C 0.97374 0.50223 0.66053 0.0
C1172 C 0.96776 0.50737 0.64356 0.0
C1173 C 0.98712 0.4951 0.69234 0.0
C1174 C 0.98514 0.52131 0.68782 0.0
C1175 C 0.97865 0.52466 0.67198 0.0
C1176 C 0.9902 0.54574 0.69936 0.0
C1177 C 0.99528 0.49101 0.70907 0.0
C1178 C 0.97 0.53906 0.71224 0.0
C1179 C 0.97535 0.56192 0.72337 0.0
C1180 C 0.00102 0.59176 0.72182 0.0
C1181 C 0.02072 0.59867 0.7087 0.0
C1182 C 0.01533 0.57581 0.69753 0.0
H1183 H 0.0028 0.47352 0.70972 0.0
H1184 H 0.01401 0.51323 0.71389 0.0
H1185 H 0.97466 0.48311 0.71678 0.0
H1186 H 0.9501 0.51616 0.71366 0.0
H1187 H 0.95941 0.5563 0.7332 0.0
H1188 H 0.37349 0.41547 0.70371 0.0
H1189 H 0.41381 0.4443 0.68383 0.0
H1190 H 0.47989 0.4345 0.71256 0.0
H1191 H 0.43968 0.40555 0.73234 0.0
H1192 H 0.50053 0.49521 0.70237 0.0
H1193 H 0.45415 0.4117 0.65238 0.0
H1194 H 0.42715 0.42153 0.66084 0.0
H1195 H 0.44106 0.40099 0.67259 0.0
C1196 C 0.39658 0.41929 0.70566 0.0
C1197 C 0.40365 0.40865 0.71958 0.0
C1198 C 0.41951 0.43562 0.69431 0.0
C1199 C 0.44975 0.44129 0.69669 0.0
C1200 C 0.45671 0.43038 0.71052 0.0
H1201 H 0.60167 0.51678 0.62848 0.0
H1202 H 0.56225 0.48423 0.64811 0.0
C1203 C 0.43381 0.41404 0.72184 0.0
C1204 C 0.47453 0.45976 0.68511 0.0
H1205 H 0.49664 0.46155 0.64659 0.0
C1206 C 0.49976 0.48781 0.69019 0.0
C1207 C 0.47359 0.44983 0.6693 0.0
C1208 C 0.44769 0.41924 0.66344 0.0
C1209 C 0.52383 0.50657 0.67976 0.0
C1210 C 0.52239 0.49714 0.66381 0.0
C1211 C 0.49751 0.46877 0.65881 0.0
C1212 C 0.54626 0.51673 0.65208 0.0
C1213 C 0.55072 0.53621 0.68592 0.0
C1214 C 0.55017 0.54563 0.64786 0.0
C1215 C 0.57251 0.56409 0.6367 0.0
C1216 C 0.59102 0.55376 0.62945 0.0
C1217 C 0.58741 0.52503 0.63383 0.0
C1218 C 0.56494 0.50648 0.64496 0.0
H1219 H 0.55217 0.53628 0.69908 0.0
H1220 H 0.5729 0.53995 0.6809 0.0
H1221 H 0.54778 0.55594 0.68229 0.0
H1222 H 0.53585 0.55386 0.65315 0.0
H1223 H 0.5755 0.58656 0.63384 0.0
H1224 H 0.54467 0.95114 0.72322 0.0
H1225 H 0.51538 0.96346 0.70404 0.0
H1226 H 0.59773 0.05 0.69337 0.0
H1227 H 0.62705 0.0374 0.71238 0.0
H1228 H 0.50577 0.01309 0.70464 0.0
H1229 H 0.56697 0.01436 0.64933 0.0
H1230 H 0.57108 0.99806 0.66767 0.0
H1231 H 0.59176 0.03922 0.66474 0.0
C1232 C 0.55645 0.97257 0.71658 0.0
C1233 C 0.58804 0.99316 0.71898 0.0
C1234 C 0.53979 0.97964 0.70571 0.0
C1235 C 0.5545 0.00743 0.6971 0.0
C1236 C 0.58611 0.0281 0.69958 0.0
H1237 H 0.48045 0.08584 0.62876 0.0
H1238 H 0.51366 0.07946 0.64815 0.0
C1239 C 0.6028 0.02095 0.71042 0.0
C1240 C 0.53636 0.01521 0.68603 0.0
H1241 H 0.53003 0.03072 0.64717 0.0
C1242 C 0.51105 0.01692 0.69207 0.0
C1243 C 0.54343 0.02036 0.66966 0.0
C1244 C 0.56961 0.01767 0.66239 0.0
C1245 C 0.49255 0.02355 0.68217 0.0
C1246 C 0.49938 0.02828 0.66579 0.0
C1247 C 0.52499 0.02716 0.65977 0.0
C1248 C 0.4792 0.03275 0.65456 0.0
C1249 C 0.46587 0.02553 0.68929 0.0
C1250 C 0.44897 0.00862 0.65182 0.0
C1251 C 0.43016 0.01217 0.64078 0.0
C1252 C 0.44135 0.03984 0.63222 0.0
C1253 C 0.4714 0.06425 0.6352 0.0
C1254 C 0.49034 0.06061 0.64619 0.0
H1255 H 0.46833 0.02897 0.70235 0.0
H1256 H 0.46392 0.04476 0.68389 0.0
H1257 H 0.44404 0.00366 0.6869 0.0
H1258 H 0.44004 0.98689 0.65812 0.0
H1259 H 0.40677 0.99337 0.63908 0.0
H1260 H 0.379 0.41658 0.12398 0.0
H1261 H 0.42486 0.46135 0.13464 0.0
H1262 H 0.48298 0.43989 0.10579 0.0
H1263 H 0.43703 0.39464 0.09505 0.0
H1264 H 0.49839 0.44756 0.13797 0.0
H1265 H 0.48674 0.54546 0.11563 0.0
H1266 H 0.45194 0.51585 0.12472 0.0
H1267 H 0.46622 0.50732 0.10694 0.0
C1268 C 0.40148 0.42155 0.11969 0.0
C1269 C 0.40434 0.40192 0.1087 0.0
C1270 C 0.42767 0.44734 0.12571 0.0
C1271 C 0.45726 0.45413 0.12085 0.0
C1272 C 0.46028 0.43512 0.10958 0.0
H1273 H 0.62129 0.6166 0.15933 0.0
H1274 H 0.58389 0.57849 0.14079 0.0
C1275 C 0.43402 0.40932 0.10346 0.0
C1276 C 0.48479 0.47924 0.12878 0.0
H1277 H 0.51939 0.5557 0.1385 0.0
C1278 C 0.50333 0.47131 0.13788 0.0
C1279 C 0.49133 0.51024 0.12853 0.0
C1280 C 0.47319 0.52033 0.1183 0.0
C1281 C 0.52727 0.49328 0.1474 0.0
C1282 C 0.53246 0.5238 0.14796 0.0
C1283 C 0.51504 0.53214 0.13821 0.0
C1284 C 0.55493 0.54697 0.15912 0.0
C1285 C 0.54652 0.48354 0.15695 0.0
C1286 C 0.55061 0.54204 0.17554 0.0
C1287 C 0.57182 0.56371 0.18615 0.0
C1288 C 0.5977 0.5908 0.18052 0.0
C1289 C 0.60165 0.59593 0.16405 0.0
C1290 C 0.58035 0.57422 0.15343 0.0
H1291 H 0.54553 0.4625 0.15193 0.0
H1292 H 0.57104 0.50232 0.15746 0.0
H1293 H 0.53745 0.47816 0.16927 0.0
H1294 H 0.53077 0.52141 0.18015 0.0
H1295 H 0.56801 0.55913 0.19876 0.0
H1296 H 0.5854 0.95987 0.12583 0.0
H1297 H 0.54397 0.96299 0.13945 0.0
H1298 H 0.57228 0.05084 0.11705 0.0
H1299 H 0.61347 0.04755 0.10303 0.0
H1300 H 0.55506 0.00795 0.1607 0.0
H1301 H 0.47891 0.00792 0.1127 0.0
H1302 H 0.50728 0.99616 0.10942 0.0
H1303 H 0.51894 0.03651 0.11023 0.0
C1304 C 0.58247 0.9796 0.12355 0.0
C1305 C 0.60282 0.00357 0.11343 0.0
C1306 C 0.55877 0.98132 0.13134 0.0
C1307 C 0.55495 0.00705 0.12921 0.0
C1308 C 0.57443 0.03048 0.11862 0.0
H1309 H 0.45221 0.07504 0.18213 0.0
H1310 H 0.48729 0.06886 0.16417 0.0
C1311 C 0.59805 0.02863 0.11068 0.0
C1312 C 0.53278 0.01069 0.13934 0.0
H1313 H 0.47011 0.02092 0.13868 0.0
C1314 C 0.53635 0.01056 0.15587 0.0
C1315 C 0.50856 0.01431 0.133 0.0
C1316 C 0.50294 0.01347 0.11537 0.0
C1317 C 0.51647 0.01415 0.16625 0.0
C1318 C 0.4923 0.01775 0.15993 0.0
C1319 C 0.48876 0.01812 0.14342 0.0
C1320 C 0.47044 0.02105 0.17037 0.0
C1321 C 0.5217 0.01451 0.18392 0.0
C1322 C 0.44931 0.99608 0.17966 0.0
C1323 C 0.42925 -0.00052 0.18992 0.0
C1324 C 0.43006 0.02796 0.19104 0.0
C1325 C 0.45114 0.05286 0.1816 0.0
C1326 C 0.47108 0.04937 0.17128 0.0
H1327 H 0.54474 0.01743 0.18676 0.0
H1328 H 0.5197 0.03344 0.18967 0.0
H1329 H 0.50374 0.99231 0.18913 0.0
H1330 H 0.44842 0.97399 0.179 0.0
H1331 H 0.41324 0.97985 0.19701 0.0
H1332 H 0.01534 0.4333 0.19434 0.0
H1333 H 0.01871 0.47135 0.17493 0.0
H1334 H 0.9272 0.40651 0.15802 0.0
H1335 H 0.92333 0.36864 0.17757 0.0
H1336 H 0.01456 0.46837 0.142 0.0
H1337 H 0.92013 0.48217 0.16835 0.0
H1338 H 0.93731 0.46277 0.1786 0.0
H1339 H 0.90911 0.4431 0.16327 0.0
C1340 C 0.99591 0.42718 0.18651 0.0
C1341 C 0.96896 0.3981 0.18758 0.0
C1342 C 0.99791 0.44889 0.17541 0.0
C1343 C 0.97303 0.44186 0.16521 0.0
C1344 C 0.94639 0.41261 0.16602 0.0
H1345 H 0.94721 0.56047 0.09808 0.0
H1346 H 0.94293 0.5141 0.11049 0.0
C1347 C 0.94427 0.39099 0.17718 0.0
C1348 C 0.97488 0.4653 0.15385 0.0
H1349 H 0.94181 0.50868 0.14439 0.0
C1350 C -0.00139 0.47714 0.14247 0.0
C1351 C 0.95396 0.47659 0.15449 0.0
C1352 C 0.92886 0.46575 0.16691 0.0
C1353 C 0.00214 0.50023 0.13179 0.0
C1354 C 0.98154 0.51181 0.13262 0.0
C1355 C 0.95737 0.49946 0.14372 0.0
C1356 C 0.98623 0.53876 0.12321 0.0
C1357 C 0.02794 0.51219 0.11975 0.0
C1358 C 0.01219 0.56778 0.12612 0.0
C1359 C 0.01459 0.59423 0.11919 0.0
C1360 C 0.99105 0.59214 0.1092 0.0
C1361 C 0.96576 0.56283 0.10568 0.0
C1362 C 0.96325 0.53634 0.11276 0.0
H1363 H 0.03612 0.49548 0.11771 0.0
H1364 H 0.02043 0.51713 0.10825 0.0
H1365 H 0.04777 0.53404 0.1242 0.0
H1366 H 0.0299 0.57016 0.13436 0.0
H1367 H 0.03443 0.61645 0.12209 0.0
H1368 H 0.38007 0.38248 0.83754 0.0
H1369 H 0.41821 0.42045 0.85585 0.0
H1370 H 0.47202 0.47567 0.81615 0.0
H1371 H 0.43399 0.43807 0.79775 0.0
H1372 H 0.48285 0.44248 0.85822 0.0
H1373 H 0.45773 0.53599 0.84355 0.0
H1374 H 0.43194 0.49606 0.83833 0.0
H1375 H 0.46575 0.5195 0.82653 0.0
C1376 C 0.40005 0.40267 0.8327 0.0
C1377 C 0.40391 0.40738 0.8162 0.0
C1378 C 0.42178 0.4243 0.84318 0.0
C1379 C 0.44758 0.45102 0.83733 0.0
C1380 C 0.45191 0.45543 0.82088 0.0
H1381 H 0.62224 0.58326 0.87435 0.0
H1382 H 0.5776 0.53808 0.86303 0.0
C1383 C 0.43023 0.43385 0.81039 0.0
C1384 C 0.47015 0.47437 0.84837 0.0
H1385 H 0.50385 0.55063 0.85826 0.0
C1386 C 0.48726 0.46606 0.85838 0.0
C1387 C 0.47541 0.50492 0.84873 0.0
C1388 C 0.45655 0.51466 0.83883 0.0
C1389 C 0.5106 0.48799 0.86822 0.0
C1390 C 0.51703 0.51894 0.86788 0.0
C1391 C 0.49895 0.52688 0.85842 0.0
C1392 C 0.54381 0.54398 0.8763 0.0
C1393 C 0.52839 0.47797 0.87877 0.0
C1394 C 0.53957 0.56226 0.88753 0.0
C1395 C 0.5651 0.58823 0.89403 0.0
C1396 C 0.59525 0.59655 0.88921 0.0
C1397 C 0.59935 0.57757 0.87831 0.0
C1398 C 0.57387 0.55157 0.8719 0.0
H1399 H 0.51511 0.45271 0.88114 0.0
H1400 H 0.55029 0.48323 0.87279 0.0
H1401 H 0.53424 0.4905 0.89027 0.0
H1402 H 0.51649 0.55685 0.89097 0.0
H1403 H 0.56112 0.60239 0.90237 0.0
H1404 H 0.55899 0.99511 0.79732 0.0
H1405 H 0.52215 0.99671 0.81585 0.0
H1406 H 0.57635 0.99536 0.85536 0.0
H1407 H 0.61356 0.99407 0.83693 0.0
H1408 H 0.48793 0.95225 0.83947 0.0
H1409 H 0.56333 0.06917 0.86509 0.0
H1410 H 0.57257 0.05673 0.84679 0.0
H1411 H 0.57855 0.04329 0.86549 0.0
C1412 C 0.56323 0.99538 0.80994 0.0
C1413 C 0.58924 0.99453 0.81566 0.0
C1414 C 0.54213 0.99624 0.8205 0.0
C1415 C 0.54673 0.99644 0.83694 0.0
C1416 C 0.57269 0.99571 0.8427 0.0
H1417 H 0.39569 0.95947 0.90291 0.0
H1418 H 0.44049 0.95924 0.89118 0.0
C1419 C 0.59383 0.99485 0.83215 0.0
C1420 C 0.52369 0.99642 0.84796 0.0
H1421 H 0.51285 0.04022 0.87552 0.0
C1422 C 0.49337 0.97134 0.84745 0.0
C1423 C 0.53099 0.02146 0.85829 0.0
C1424 C 0.56305 0.04935 0.85894 0.0
C1425 C 0.46989 0.97088 0.85677 0.0
C1426 C 0.47711 0.99602 0.86702 0.0
C1427 C 0.50756 0.02086 0.86776 0.0
C1428 C 0.45266 0.99831 0.87575 0.0
C1429 C 0.4373 0.94415 0.85508 0.0
C1430 C 0.44558 0.02113 0.87142 0.0
C1431 C 0.42017 0.0214 0.87808 0.0
C1432 C 0.40137 0.99886 0.88927 0.0
C1433 C 0.40958 0.97705 0.89426 0.0
C1434 C 0.43506 0.97678 0.88754 0.0
H1435 H 0.43475 0.9294 0.84467 0.0
H1436 H 0.43098 0.92954 0.86589 0.0
H1437 H 0.42068 0.95265 0.85384 0.0
H1438 H 0.459 0.03801 0.86238 0.0
H1439 H 0.41471 0.03872 0.87405 0.0
H1440 H 0.98139 0.59083 0.82077 0.0
H1441 H 0.97536 0.55436 0.84175 0.0
H1442 H 0.0545 0.55105 0.82358 0.0
H1443 H 0.06163 0.58884 0.80322 0.0
H1444 H 0.96193 0.49848 0.84085 0.0
H1445 H 0.07653 0.56171 0.86898 0.0
H1446 H 0.0638 0.57972 0.8546 0.0
H1447 H 0.08138 0.55753 0.84824 0.0
C1448 C 0.99763 0.58247 0.82137 0.0
C1449 C 0.02209 0.59274 0.81045 0.0
C1450 C 0.99422 0.5617 0.83338 0.0
C1451 C 0.01493 0.55048 0.83454 0.0
C1452 C 0.03895 0.56026 0.82338 0.0
H1453 H 0.97998 0.37577 0.86463 0.0
H1454 H 0.98071 0.42052 0.85299 0.0
C1455 C 0.04281 0.58158 0.81161 0.0
C1456 C 0.01025 0.52696 0.84669 0.0
H1457 H 0.04923 0.50581 0.87234 0.0
C1458 C 0.98092 0.50042 0.84796 0.0
C1459 C 0.03462 0.5297 0.85642 0.0
C1460 C 0.0657 0.55892 0.85712 0.0
C1461 C 0.9759 0.47574 0.85783 0.0
C1462 C 0.00119 0.47703 0.8661 0.0
C1463 C 0.02994 0.50443 0.86574 0.0
C1464 C -0.00089 0.44939 0.87387 0.0
C1465 C 0.94353 0.44846 0.85912 0.0
C1466 C 0.01025 0.45088 0.88936 0.0
C1467 C 0.01063 0.42534 0.89597 0.0
C1468 C -0.00034 0.39786 0.88721 0.0
C1469 C 0.98815 0.39638 0.87182 0.0
C1470 C 0.98827 0.42195 0.86517 0.0
H1471 H 0.92609 0.45594 0.85789 0.0
H1472 H 0.93953 0.43203 0.84932 0.0
H1473 H 0.93972 0.43621 0.87062 0.0
H1474 H 0.01902 0.47191 0.89625 0.0
H1475 H 0.01971 0.42719 0.90784 0.0
H1476 H 0.24171 0.9264 0.52146 0.0
H1477 H 0.20269 0.89092 0.50269 0.0
H1478 H 0.24088 0.83043 0.50533 0.0
H1479 H 0.28003 0.8657 0.52412 0.0
H1480 H 0.21212 0.86647 0.47196 0.0
H1481 H 0.14676 0.77747 0.51813 0.0
H1482 H 0.1739 0.81723 0.52304 0.0
H1483 H 0.18771 0.79183 0.51702 0.0
C1484 C 0.24187 0.90558 0.51804 0.0
C1485 C 0.26384 0.89874 0.52436 0.0
C1486 C 0.21967 0.88546 0.50726 0.0
C1487 C 0.21894 0.85812 0.50272 0.0
C1488 C 0.24105 0.8514 0.5088 0.0
H1489 H 0.10063 0.72134 0.43231 0.0
H1490 H 0.14613 0.76195 0.4461 0.0
C1491 C 0.26336 0.87156 0.51953 0.0
C1492 C 0.19422 0.83603 0.49212 0.0
H1493 H 0.1285 0.76551 0.49187 0.0
C1494 C 0.19387 0.84431 0.47623 0.0
C1495 C 0.17046 0.80734 0.49786 0.0
C1496 C 0.16941 0.79785 0.51497 0.0
C1497 C 0.17013 0.82447 0.46588 0.0
C1498 C 0.14639 0.79581 0.47165 0.0
C1499 C 0.14689 0.78753 0.48752 0.0
C1500 C 0.1198 0.77445 0.46176 0.0
C1501 C 0.17006 0.83448 0.44901 0.0
C1502 C 0.09016 0.76852 0.46588 0.0
C1503 C 0.06426 0.74544 0.45811 0.0
C1504 C 0.06748 0.72765 0.44611 0.0
C1505 C 0.09737 0.73465 0.44148 0.0
C1506 C 0.12338 0.75786 0.44931 0.0
H1507 H 0.18754 0.85918 0.44706 0.0
H1508 H 0.17526 0.82022 0.44086 0.0
H1509 H 0.14687 0.83079 0.44583 0.0
H1510 H 0.08702 0.78114 0.47547 0.0
H1511 H 0.04163 0.74086 0.46192 0.0
H1512 H 0.05598 0.31338 0.51238 0.0
H1513 H 0.09003 0.30915 0.4929 0.0
H1514 H 0.1681 0.3905 0.51262 0.0
H1515 H 0.13387 0.39575 0.53151 0.0
H1516 H 0.17161 0.39226 0.48165 0.0
H1517 H 0.14601 0.27591 0.50154 0.0
H1518 H 0.11248 0.27679 0.49471 0.0
H1519 H 0.13249 0.2981 0.51221 0.0
C1520 C 0.08043 0.3303 0.51254 0.0
C1521 C 0.09239 0.35475 0.52351 0.0
C1522 C 0.09988 0.32778 0.50146 0.0
C1523 C 0.13176 0.3491 0.50151 0.0
C1524 C 0.1436 0.37374 0.51236 0.0
H1525 H 0.28071 0.3265 0.47094 0.0
H1526 H 0.2382 0.32853 0.48378 0.0
C1527 C 0.12407 0.37667 0.52319 0.0
C1528 C 0.15304 0.34582 0.49043 0.0
H1529 H 0.17874 0.29688 0.47935 0.0
C1530 C 0.17318 0.37139 0.48112 0.0
C1531 C 0.15511 0.3186 0.48981 0.0
C1532 C 0.1356 0.29091 0.5002 0.0
C1533 C 0.19606 0.37094 0.47164 0.0
C1534 C 0.19804 0.34367 0.47098 0.0
C1535 C 0.17709 0.31771 0.47981 0.0
C1536 C 0.22357 0.34242 0.46265 0.0
C1537 C 0.2188 0.40017 0.46311 0.0
C1538 C 0.22952 0.34942 0.44642 0.0
C1539 C 0.25442 0.3489 0.43906 0.0
C1540 C 0.27316 0.34056 0.44776 0.0
C1541 C 0.2666 0.33283 0.46388 0.0
C1542 C 0.24225 0.33396 0.47125 0.0
H1543 H 0.21876 0.42082 0.46799 0.0
H1544 H 0.24265 0.40399 0.46395 0.0
H1545 H 0.21238 0.3982 0.45038 0.0
H1546 H 0.21495 0.35523 0.43944 0.0
H1547 H 0.25881 0.3547 0.42659 0.0
H1548 H 0.70957 0.9523 0.44857 0.0
H1549 H 0.70797 0.90796 0.46167 0.0
H1550 H 0.61304 0.8505 0.44711 0.0
H1551 H 0.61474 0.8947 0.43359 0.0
H1552 H 0.6695 0.88116 0.48647 0.0
H1553 H 0.64699 0.79255 0.44069 0.0
H1554 H 0.66065 0.83253 0.43578 0.0
H1555 H 0.62042 0.80685 0.44005 0.0
C1556 C 0.68861 0.93001 0.44777 0.0
C1557 C 0.66219 0.92698 0.44017 0.0
C1558 C 0.68774 0.90471 0.45526 0.0
C1559 C 0.66042 0.87594 0.45536 0.0
C1560 C 0.63455 0.87234 0.44694 0.0
H1561 H 0.59299 0.71388 0.51495 0.0
H1562 H 0.59923 0.7532 0.49564 0.0
C1563 C 0.63552 0.89765 0.43926 0.0
C1564 C 0.65784 0.85128 0.46609 0.0
H1565 H 0.63985 0.77579 0.46773 0.0
C1566 C 0.66334 0.85822 0.48234 0.0
C1567 C 0.64947 0.8213 0.46069 0.0
C1568 C 0.64431 0.81287 0.44333 0.0
C1569 C 0.66034 0.83592 0.49336 0.0
C1570 C 0.65194 0.80596 0.48798 0.0
C1571 C 0.64635 0.79888 0.47177 0.0
C1572 C 0.64856 0.78168 0.49915 0.0
C1573 C 0.66551 0.84437 0.51074 0.0
C1574 C 0.67433 0.78468 0.50737 0.0
C1575 C 0.67087 0.76235 0.51844 0.0
C1576 C 0.64156 0.73661 0.52142 0.0
C1577 C 0.61585 0.73352 0.51299 0.0
C1578 C 0.61936 0.75584 0.5019 0.0
H1579 H 0.6653 0.86609 0.51326 0.0
H1580 H 0.64754 0.82555 0.51814 0.0
H1581 H 0.68836 0.84774 0.51438 0.0
H1582 H 0.6971 0.80438 0.50527 0.0
H1583 H 0.69115 0.76533 0.52467 0.0
H1584 H 0.07424 0.72224 0.15225 0.0
H1585 H 0.10964 0.75412 0.17327 0.0
H1586 H 0.11841 0.83591 0.15094 0.0
H1587 H 0.08184 0.80398 0.13039 0.0
H1588 H 0.16677 0.79579 0.17271 0.0
H1589 H 0.10305 0.85159 0.19517 0.0
H1590 H 0.08584 0.81948 0.18154 0.0
H1591 H 0.10951 0.85843 0.17428 0.0
C1592 C 0.08361 0.74702 0.1519 0.0
C1593 C 0.07519 0.76068 0.13977 0.0
C1594 C 0.10376 0.7652 0.16393 0.0
C1595 C 0.11612 0.79737 0.16394 0.0
C1596 C 0.1083 0.81106 0.15156 0.0
H1597 H 0.28841 0.93728 0.19745 0.0
H1598 H 0.24479 0.8933 0.18502 0.0
C1599 C 0.08766 0.79284 0.13972 0.0
C1600 C 0.13864 0.81686 0.1763 0.0
H1601 H 0.15819 0.8787 0.20049 0.0
C1602 C 0.16458 0.81355 0.17899 0.0
C1603 C 0.13547 0.83945 0.18492 0.0
C1604 C 0.10674 0.84216 0.18396 0.0
C1605 C 0.18832 0.83347 0.18925 0.0
C1606 C 0.18667 0.85815 0.19652 0.0
C1607 C 0.15981 0.86018 0.19468 0.0
C1608 C 0.21353 0.88361 0.20481 0.0
C1609 C 0.21501 0.82794 0.19205 0.0
C1610 C 0.21034 0.89356 0.21993 0.0
C1611 C 0.23526 0.91938 0.22699 0.0
C1612 C 0.26377 0.93554 0.21904 0.0
C1613 C 0.26693 0.92517 0.20402 0.0
C1614 C 0.24201 0.89976 0.19692 0.0
H1615 H 0.20735 0.80293 0.1912 0.0
H1616 H 0.23281 0.84005 0.18275 0.0
H1617 H 0.22575 0.83651 0.20387 0.0
H1618 H 0.18847 0.88161 0.22617 0.0
H1619 H 0.23209 0.92684 0.23856 0.0
H1620 H 0.0813 0.37706 0.2107 0.0
H1621 H 0.12478 0.37768 0.19711 0.0
H1622 H 0.09877 0.28817 0.21672 0.0
H1623 H 0.05557 0.28772 0.23076 0.0
H1624 H 0.16278 0.32761 0.21524 0.0
H1625 H 0.10674 0.32408 0.15774 0.0
H1626 H 0.11409 0.35646 0.16997 0.0
H1627 H 0.0871 0.31787 0.17651 0.0
C1628 C 0.08509 0.3577 0.21232 0.0
C1629 C 0.06475 0.33211 0.2216 0.0
C1630 C 0.10986 0.35804 0.20449 0.0
C1631 C 0.11441 0.33259 0.20556 0.0
C1632 C 0.09544 0.30792 0.21565 0.0
H1633 H 0.22208 0.26928 0.15456 0.0
H1634 H 0.1884 0.2763 0.17306 0.0
C1635 C 0.07081 0.30771 0.22367 0.0
C1636 C 0.13754 0.33083 0.19531 0.0
H1637 H 0.15665 0.32985 0.15649 0.0
C1638 C 0.16148 0.32808 0.2024 0.0
C1639 C 0.13559 0.33122 0.17855 0.0
C1640 C 0.10935 0.33226 0.17021 0.0
C1641 C 0.18384 0.32617 0.19313 0.0
C1642 C 0.18194 0.32681 0.1764 0.0
C1643 C 0.15811 0.32966 0.16933 0.0
C1644 C 0.20373 0.32338 0.16592 0.0
C1645 C 0.20947 0.32376 0.20124 0.0
C1646 C 0.22312 0.34742 0.15563 0.0
C1647 C 0.24237 0.34349 0.145 0.0
C1648 C 0.24222 0.31529 0.14438 0.0
C1649 C 0.22274 0.29128 0.15474 0.0
C1650 C 0.20366 0.29531 0.16541 0.0
H1651 H 0.21173 0.33057 0.21394 0.0
H1652 H 0.20441 0.29948 0.20064 0.0
H1653 H 0.23192 0.33853 0.19519 0.0
H1654 H 0.22321 0.36915 0.15577 0.0
H1655 H 0.25704 0.36238 0.13715 0.0
H1656 H 0.6389 0.70642 0.19953 0.0
H1657 H 0.63802 0.75106 0.18861 0.0
H1658 H 0.69151 0.80635 0.22836 0.0
H1659 H 0.69325 0.76177 0.23927 0.0
H1660 H 0.61608 0.78745 0.20009 0.0
H1661 H 0.74336 0.85626 0.19082 0.0
H1662 H 0.72386 0.81576 0.19586 0.0
H1663 H 0.73134 0.84417 0.2109 0.0
C1664 C 0.65041 0.72799 0.20604 0.0
C1665 C 0.66643 0.73058 0.22021 0.0
C1666 C 0.64982 0.7535 0.19977 0.0
C1667 C 0.66512 0.78213 0.20753 0.0
C1668 C 0.68014 0.78461 0.222 0.0
H1669 H 0.6874 0.95703 0.17188 0.0
H1670 H 0.68429 0.91696 0.18981 0.0
C1671 C 0.68097 0.75908 0.22825 0.0
C1672 C 0.66578 0.80929 0.20007 0.0
H1673 H 0.71414 0.87905 0.18285 0.0
C1674 C 0.63753 0.80759 0.19644 0.0
C1675 C 0.69383 0.83552 0.1953 0.0
C1676 C 0.72484 0.83808 0.19827 0.0
C1677 C 0.63655 0.83111 0.18783 0.0
C1678 C 0.66451 0.85685 0.18273 0.0
C1679 C 0.69279 0.85918 0.18685 0.0
C1680 C 0.66487 0.88063 0.17221 0.0
C1681 C 0.60567 0.82815 0.18403 0.0
C1682 C 0.6551 0.87333 0.1564 0.0
C1683 C 0.65708 0.89614 0.1461 0.0
C1684 C 0.66877 0.92662 0.15148 0.0
C1685 C 0.67818 0.93374 0.1674 0.0
C1686 C 0.67645 0.91094 0.17765 0.0
H1687 H 0.58689 0.81055 0.19161 0.0
H1688 H 0.60659 0.85067 0.18561 0.0
H1689 H 0.5998 0.8211 0.17145 0.0
H1690 H 0.64646 0.85007 0.15197 0.0
H1691 H 0.64968 0.88994 0.13391 0.0
H1692 H 0.76415 0.04866 0.76878 0.0
H1693 H 0.80766 0.08965 0.78352 0.0
H1694 H 0.74631 0.11672 0.80489 0.0
H1695 H 0.7027 0.07549 0.79057 0.0
H1696 H 0.83372 0.15366 0.78609 0.0
H1697 H 0.78167 0.09518 0.84316 0.0
H1698 H 0.76749 0.0767 0.8242 0.0
H1699 H 0.75676 0.10381 0.8316 0.0
C1700 C 0.76002 0.06363 0.77645 0.0
C1701 C 0.72994 0.05855 0.77872 0.0
C1702 C 0.78488 0.08699 0.78486 0.0
C1703 C 0.77998 0.10562 0.79558 0.0
C1704 C 0.75038 0.10199 0.797 0.0
H1705 H 0.89364 0.24801 0.86323 0.0
H1706 H 0.85301 0.21318 0.84491 0.0
C1707 C 0.72553 0.07852 0.78875 0.0
C1708 C 0.80537 0.12775 0.80592 0.0
H1709 H 0.82596 0.14518 0.84482 0.0
C1710 C 0.83212 0.15179 0.79892 0.0
C1711 C 0.80324 0.12504 0.82267 0.0
C1712 C 0.77589 0.09863 0.83087 0.0
C1713 C 0.85658 0.17363 0.80828 0.0
C1714 C 0.85414 0.17113 0.82499 0.0
C1715 C 0.82751 0.14706 0.83198 0.0
C1716 C 0.87919 0.19295 0.83552 0.0
C1717 C 0.88466 0.19949 0.80031 0.0
C1718 C 0.90709 0.19273 0.83636 0.0
C1719 C 0.93022 0.21237 0.84688 0.0
C1720 C 0.9258 0.2326 0.85669 0.0
C1721 C 0.89777 0.23277 0.85578 0.0
C1722 C 0.87458 0.21295 0.84534 0.0
H1723 H 0.88056 0.20149 0.78751 0.0
H1724 H 0.89159 0.22188 0.80623 0.0
H1725 H 0.90425 0.19504 0.80132 0.0
H1726 H 0.9108 0.17706 0.82902 0.0
H1727 H 0.95155 0.2117 0.84729 0.0
H1728 H 0.79279 0.74352 0.8562 0.0
H1729 H 0.82827 0.74129 0.83698 0.0
H1730 H 0.77352 0.64178 0.83652 0.0
H1731 H 0.73772 0.64373 0.85568 0.0
H1732 H 0.86237 0.71152 0.84142 0.0
H1733 H 0.78525 0.66469 0.789 0.0
H1734 H 0.77657 0.68168 0.80574 0.0
H1735 H 0.76946 0.64273 0.80688 0.0
C1736 C 0.78816 0.72114 0.85196 0.0
C1737 C 0.76242 0.69379 0.85746 0.0
C1738 C 0.80842 0.71994 0.84095 0.0
C1739 C 0.80319 0.69142 0.83515 0.0
C1740 C 0.77755 0.66406 0.8406 0.0
H1741 H 0.92659 0.63739 0.79712 0.0
H1742 H 0.88634 0.64275 0.81058 0.0
C1743 C 0.75729 0.66521 0.85165 0.0
C1744 C 0.8257 0.69018 0.82422 0.0
H1745 H 0.83299 0.66441 0.7878 0.0
C1746 C 0.85603 0.70153 0.82963 0.0
C1747 C 0.81738 0.67736 0.80881 0.0
C1748 C 0.78547 0.66617 0.80216 0.0
C1749 C 0.87803 0.69937 0.82026 0.0
C1750 C 0.86934 0.68534 0.80515 0.0
C1751 C 0.83937 0.67496 0.79946 0.0
C1752 C 0.89093 0.67994 0.79561 0.0
C1753 C 0.91032 0.71165 0.82664 0.0
C1754 C 0.90604 0.69851 0.78241 0.0
C1755 C 0.92923 0.6956 0.77464 0.0
C1756 C 0.93752 0.67404 0.78001 0.0
C1757 C 0.92105 0.65444 0.79275 0.0
C1758 C 0.898 0.6574 0.80046 0.0
H1759 H 0.91496 0.72695 0.83708 0.0
H1760 H 0.91331 0.69197 0.83033 0.0
H1761 H 0.92777 0.72473 0.81731 0.0
H1762 H 0.90072 0.716 0.77852 0.0
H1763 H 0.94141 0.71098 0.76485 0.0
H1764 H 0.28437 0.23244 0.7689 0.0
H1765 H 0.28267 0.18906 0.78339 0.0
H1766 H 0.37094 0.25108 0.80471 0.0
H1767 H 0.37249 0.29453 0.79065 0.0
H1768 H 0.32138 0.1638 0.78568 0.0
H1769 H 0.31437 0.2146 0.84304 0.0
H1770 H 0.30969 0.22882 0.82416 0.0
H1771 H 0.34772 0.23999 0.83147 0.0
C1772 C 0.30361 0.23674 0.77651 0.0
C1773 C 0.32832 0.26696 0.77885 0.0
C1774 C 0.30259 0.21197 0.78478 0.0
C1775 C 0.32631 0.21707 0.79542 0.0
C1776 C 0.352 0.24683 0.79689 0.0
H1777 H 0.35695 0.10406 0.86271 0.0
H1778 H 0.36234 0.14458 0.84442 0.0
C1779 C 0.3529 0.2716 0.78879 0.0
C1780 C 0.3235 0.19171 0.80564 0.0
H1781 H 0.32085 0.17077 0.84444 0.0
C1782 C 0.32115 0.16522 0.79852 0.0
C1783 C 0.32298 0.19361 0.8224 0.0
C1784 C 0.32351 0.22063 0.83074 0.0
C1785 C 0.31896 0.14081 0.80777 0.0
C1786 C 0.31894 0.14303 0.82449 0.0
C1787 C 0.32115 0.16939 0.8316 0.0
C1788 C 0.31607 0.11798 0.83491 0.0
C1789 C 0.3171 0.11303 0.79966 0.0
C1790 C 0.28814 0.08985 0.83567 0.0
C1791 C 0.28488 0.06678 0.84617 0.0
C1792 C 0.30955 0.07149 0.85606 0.0
C1793 C 0.33756 0.09971 0.85521 0.0
C1794 C 0.34071 0.12284 0.84478 0.0
H1795 H 0.32327 0.1174 0.78687 0.0
H1796 H 0.33272 0.10622 0.80553 0.0
H1797 H 0.29314 0.09326 0.8006 0.0
H1798 H 0.26873 0.08593 0.8283 0.0
H1799 H 0.26302 0.04529 0.84654 0.0
H1800 H 0.95028 0.24904 0.54064 0.0
H1801 H 0.90449 0.20682 0.52817 0.0
H1802 H 0.84625 0.23174 0.55458 0.0
H1803 H 0.89202 0.27419 0.56723 0.0
H1804 H 0.84452 0.15494 0.54241 0.0
H1805 H 0.83422 0.24152 0.50506 0.0
H1806 H 0.86975 0.2505 0.51503 0.0
H1807 H 0.83779 0.24746 0.52621 0.0
C1808 C 0.92773 0.24532 0.54401 0.0
C1809 C 0.92479 0.26521 0.55479 0.0
C1810 C 0.90162 0.22111 0.53691 0.0
C1811 C 0.87219 0.21648 0.54038 0.0
C1812 C 0.86891 0.23517 0.55173 0.0
H1813 H 0.70498 0.10916 0.48468 0.0
H1814 H 0.74203 0.14278 0.50463 0.0
C1815 C 0.89505 0.25933 0.55895 0.0
C1816 C 0.84546 0.19392 0.53099 0.0
H1817 H 0.79966 0.18921 0.49988 0.0
C1818 C 0.83442 0.16229 0.5332 0.0
C1819 C 0.83252 0.20379 0.51902 0.0
C1820 C 0.84414 0.23764 0.51603 0.0
C1821 C 0.81072 0.14011 0.52361 0.0
C1822 C 0.7985 0.15002 0.51126 0.0
C1823 C 0.80911 0.18168 0.50933 0.0
C1824 C 0.77538 0.12819 0.49982 0.0
C1825 C 0.79893 0.10632 0.52687 0.0
C1826 C 0.78198 0.10903 0.49039 0.0
C1827 C 0.76076 0.08965 0.47902 0.0
C1828 C 0.7328 0.08947 0.47673 0.0
C1829 C 0.72636 0.10883 0.48612 0.0
C1830 C 0.74745 0.12799 0.49756 0.0
H1831 H 0.80331 0.10247 0.53936 0.0
H1832 H 0.77374 0.09218 0.52447 0.0
H1833 H 0.81119 0.09807 0.51905 0.0
H1834 H 0.80378 0.10948 0.49161 0.0
H1835 H 0.76647 0.07516 0.47188 0.0
H1836 H 0.73982 0.69533 0.53483 0.0
H1837 H 0.78545 0.69596 0.52428 0.0
H1838 H 0.78218 0.63682 0.56244 0.0
H1839 H 0.73568 0.6353 0.57295 0.0
H1840 H 0.84265 0.71431 0.53636 0.0
H1841 H 0.78008 0.5881 0.52347 0.0
H1842 H 0.76022 0.60846 0.52907 0.0
H1843 H 0.77953 0.5983 0.54386 0.0
C1844 C 0.74879 0.68254 0.54109 0.0
C1845 C 0.73382 0.66494 0.55465 0.0
C1846 C 0.77498 0.68301 0.53504 0.0
C1847 C 0.78687 0.66601 0.54241 0.0
C1848 C 0.77292 0.64954 0.55637 0.0
H1849 H 0.93838 0.64315 0.50508 0.0
H1850 H 0.90202 0.646 0.52357 0.0
C1851 C 0.74647 0.64884 0.5624 0.0
C1852 C 0.81313 0.66488 0.53494 0.0
H1853 H 0.83237 0.61644 0.51596 0.0
C1854 C 0.84052 0.69288 0.53205 0.0
C1855 C 0.81022 0.63686 0.52928 0.0
C1856 C 0.78088 0.60622 0.53143 0.0
C1857 C 0.86475 0.69367 0.52325 0.0
C1858 C 0.86142 0.66581 0.51725 0.0
C1859 C 0.83467 0.63771 0.52066 0.0
C1860 C 0.88447 0.66557 0.50641 0.0
C1861 C 0.89351 0.72428 0.52012 0.0
C1862 C 0.88635 0.67553 0.49068 0.0
C1863 C 0.9068 0.67366 0.48005 0.0
C1864 C 0.92581 0.66195 0.48504 0.0
C1865 C 0.92412 0.65239 0.5009 0.0
C1866 C 0.90341 0.65397 0.51147 0.0
H1867 H 0.89493 0.74286 0.52793 0.0
H1868 H 0.9145 0.72232 0.5219 0.0
H1869 H 0.89341 0.73109 0.50759 0.0
H1870 H 0.8716 0.68426 0.48657 0.0
H1871 H 0.90757 0.68122 0.46792 0.0
H1872 H 0.30841 0.04146 0.53208 0.0
H1873 H 0.30743 0.08552 0.52033 0.0
H1874 H 0.35662 0.14161 0.56075 0.0
H1875 H 0.35845 0.09773 0.5725 0.0
H1876 H 0.28358 0.12139 0.53054 0.0
H1877 H 0.41137 0.19164 0.52396 0.0
H1878 H 0.39192 0.15115 0.52904 0.0
H1879 H 0.39797 0.1795 0.54387 0.0
C1880 C 0.31894 0.06309 0.53855 0.0
C1881 C 0.33381 0.06614 0.55317 0.0
C1882 C 0.3183 0.08825 0.53181 0.0
C1883 C 0.33242 0.11695 0.53953 0.0
C1884 C 0.34621 0.11983 0.55443 0.0
H1885 H 0.35665 0.29223 0.50374 0.0
H1886 H 0.35257 0.25155 0.52151 0.0
C1887 C 0.34708 0.09468 0.56115 0.0
C1888 C 0.33327 0.14384 0.53166 0.0
H1889 H 0.38237 0.2143 0.51533 0.0
C1890 C 0.30517 0.14179 0.5273 0.0
C1891 C 0.36151 0.1704 0.52743 0.0
C1892 C 0.39243 0.17334 0.53117 0.0
C1893 C 0.30456 0.16541 0.51859 0.0
C1894 C 0.33275 0.19157 0.5141 0.0
C1895 C 0.36083 0.19413 0.51886 0.0
C1896 C 0.33369 0.21572 0.50364 0.0
C1897 C 0.27382 0.16216 0.51413 0.0
C1898 C 0.32458 0.20891 0.48772 0.0
C1899 C 0.32709 0.23206 0.47751 0.0
C1900 C 0.3387 0.26241 0.48309 0.0
C1901 C 0.34752 0.26906 0.4991 0.0
C1902 C 0.34523 0.24591 0.50927 0.0
H1903 H 0.25464 0.14439 0.52144 0.0
H1904 H 0.27437 0.18454 0.51551 0.0
H1905 H 0.26885 0.15514 0.50149 0.0
H1906 H 0.31605 0.18578 0.48314 0.0
H1907 H 0.32014 0.22621 0.46524 0.0
H1908 H 0.37448 0.08749 0.19319 0.0
H1909 H 0.37189 0.1247 0.17548 0.0
H1910 H 0.30497 0.12855 0.20632 0.0
H1911 H 0.30756 0.09138 0.2243 0.0
H1912 H 0.31768 0.11496 0.15998 0.0
H1913 H 0.3685 0.2202 0.19781 0.0
H1914 H 0.37343 0.18749 0.20206 0.0
H1915 H 0.33764 0.18601 0.20678 0.0
C1916 C 0.35948 0.0965 0.19638 0.0
C1917 C 0.34114 0.08636 0.21017 0.0
C1918 C 0.35801 0.11773 0.1862 0.0
C1919 C 0.33837 0.12944 0.18963 0.0
C1920 C 0.32061 0.12008 0.20358 0.0
H1921 H 0.29246 0.2527 0.14029 0.0
H1922 H 0.29454 0.21546 0.15818 0.0
C1923 C 0.32206 0.09878 0.21382 0.0
C1924 C 0.3353 0.15007 0.1781 0.0
H1925 H 0.3466 0.2228 0.17334 0.0
C1926 C 0.32407 0.13859 0.16286 0.0
C1927 C 0.3436 0.18079 0.18195 0.0
C1928 C 0.35672 0.19455 0.19799 0.0
C1929 C 0.32051 0.15692 0.15138 0.0
C1930 C 0.32896 0.1877 0.1552 0.0
C1931 C 0.34014 0.19916 0.17046 0.0
C1932 C 0.32619 0.20848 0.14362 0.0
C1933 C 0.30713 0.14297 0.13541 0.0
C1934 C 0.34309 0.21667 0.12938 0.0
C1935 C 0.34182 0.23789 0.11901 0.0
C1936 C 0.3239 0.25153 0.12283 0.0
C1937 C 0.30656 0.24274 0.13697 0.0
C1938 C 0.30774 0.22148 0.14725 0.0
H1939 H 0.29443 0.1173 0.13583 0.0
H1940 H 0.29115 0.15079 0.1311 0.0
H1941 H 0.32619 0.15044 0.12668 0.0
H1942 H 0.35791 0.2073 0.12649 0.0
H1943 H 0.35558 0.24427 0.10827 0.0
H1944 H 0.76113 0.10727 0.10849 0.0
H1945 H 0.79852 0.14674 0.1265 0.0
H1946 H 0.78784 0.07566 0.15922 0.0
H1947 H 0.75081 0.03611 0.14133 0.0
H1948 H 0.78442 0.15505 0.1579 0.0
H1949 H 0.88193 0.13153 0.15638 0.0
H1950 H 0.85213 0.11732 0.14138 0.0
H1951 H 0.84486 0.09818 0.16026 0.0
C1952 C 0.76714 0.09999 0.11938 0.0
C1953 C 0.7529 0.06851 0.12348 0.0
C1954 C 0.78844 0.12257 0.12967 0.0
C1955 C 0.79608 0.11406 0.14411 0.0
C1956 C 0.78266 0.08268 0.148 0.0
H1957 H 0.90786 0.21739 0.22549 0.0
H1958 H 0.87123 0.17636 0.20783 0.0
C1959 C 0.76136 0.06011 0.13777 0.0
C1960 C 0.81622 0.13798 0.15568 0.0
H1961 H 0.8837 0.16589 0.17639 0.0
C1962 C 0.80623 0.15757 0.16189 0.0
C1963 C 0.84443 0.14091 0.16096 0.0
C1964 C 0.85668 0.12106 0.15432 0.0
C1965 C 0.82361 0.17992 0.17337 0.0
C1966 C 0.85195 0.18303 0.17856 0.0
C1967 C 0.86185 0.1633 0.17244 0.0
C1968 C 0.87245 0.20767 0.18972 0.0
C1969 C 0.81127 0.19969 0.18001 0.0
C1970 C 0.88512 0.23875 0.18537 0.0
C1971 C 0.90592 0.26215 0.19538 0.0
C1972 C 0.91469 0.25495 0.20993 0.0
C1973 C 0.90154 0.22374 0.2144 0.0
C1974 C 0.8807 0.20028 0.20432 0.0
H1975 H 0.78588 0.18875 0.17829 0.0
H1976 H 0.81648 0.2041 0.19287 0.0
H1977 H 0.82241 0.22227 0.17376 0.0
H1978 H 0.8795 0.24492 0.17402 0.0
H1979 H 0.91564 0.28589 0.1915 0.0
H1980 H 0.96071 0.70754 0.1404 0.0
H1981 H 0.92195 0.70543 0.1588 0.0
H1982 H 0.84945 0.64572 0.12655 0.0
H1983 H 0.8881 0.64795 0.1079 0.0
H1984 H 0.84106 0.69256 0.14013 0.0
H1985 H 0.86733 0.62907 0.18601 0.0
H1986 H 0.90008 0.66469 0.17955 0.0
H1987 H 0.8809 0.63317 0.16581 0.0
C1988 C 0.93655 0.69412 0.13713 0.0
C1989 C 0.9275 0.67764 0.12273 0.0
C1990 C 0.91443 0.6928 0.14772 0.0
C1991 C 0.88286 0.67484 0.14419 0.0
C1992 C 0.87374 0.65948 0.12954 0.0
H1993 H 0.71032 0.62386 0.19095 0.0
H1994 H 0.75147 0.62921 0.17336 0.0
C1995 C 0.89586 0.66084 0.11889 0.0
C1996 C 0.85932 0.67168 0.15588 0.0
H1997 H 0.83163 0.64511 0.19311 0.0
C1998 C 0.83894 0.68215 0.1517 0.0
C1999 C 0.85671 0.65813 0.17098 0.0
C2000 C 0.87721 0.64535 0.17586 0.0
C2001 C 0.81611 0.67966 0.16229 0.0
C2002 C 0.81335 0.66588 0.17732 0.0
C2003 C 0.8339 0.65569 0.18158 0.0
C2004 C 0.78864 0.66113 0.18859 0.0
C2005 C 0.79537 0.69213 0.15737 0.0
C2006 C 0.79598 0.6763 0.20331 0.0
C2007 C 0.77245 0.67319 0.21351 0.0
C2008 C 0.74122 0.65471 0.20914 0.0
C2009 C 0.73408 0.63848 0.19467 0.0
C2010 C 0.75757 0.64163 0.18453 0.0
H2011 H 0.8054 0.70876 0.14737 0.0
H2012 H 0.77277 0.67268 0.15343 0.0
H2013 H 0.79111 0.70379 0.16747 0.0
H2014 H 0.8199 0.69123 0.20671 0.0
H2015 H 0.77876 0.6859 0.22458 0.0
H2016 H 0.63756 0.75233 0.88979 0.0
H2017 H 0.63274 0.78762 0.87135 0.0
H2018 H 0.69681 0.78151 0.83931 0.0
H2019 H 0.70156 0.74609 0.85747 0.0
H2020 H 0.67826 0.845 0.85854 0.0
H2021 H 0.62014 0.75642 0.81155 0.0
H2022 H 0.62406 0.74659 0.83171 0.0
H2023 H 0.65624 0.76076 0.81825 0.0
C2024 C 0.65078 0.75864 0.87886 0.0
C2025 C 0.66968 0.74611 0.87503 0.0
C2026 C 0.64795 0.77875 0.86835 0.0
C2027 C 0.66388 0.78655 0.85383 0.0
C2028 C 0.68374 0.77514 0.85028 0.0
H2029 H 0.67941 0.90252 0.7739 0.0
H2030 H 0.68216 0.86583 0.79216 0.0
C2031 C 0.68655 0.75504 0.86074 0.0
C2032 C 0.65972 0.80656 0.84234 0.0
H2033 H 0.63541 0.8082 0.80465 0.0
C2034 C 0.66873 0.83695 0.84679 0.0
C2035 C 0.64732 0.79591 0.82702 0.0
C2036 C 0.63611 0.76306 0.82185 0.0
C2037 C 0.66627 0.85726 0.83619 0.0
C2038 C 0.65395 0.84663 0.82085 0.0
C2039 C 0.64486 0.81622 0.81641 0.0
C2040 C 0.65038 0.86687 0.80927 0.0
C2041 C 0.67755 0.89013 0.84135 0.0
C2042 C 0.63077 0.87866 0.81261 0.0
C2043 C 0.62913 0.89958 0.80225 0.0
C2044 C 0.64698 0.90897 0.78828 0.0
C2045 C 0.66545 0.89588 0.78457 0.0
C2046 C 0.66709 0.87496 0.79499 0.0
H2047 H 0.69315 0.89663 0.8518 0.0
H2048 H 0.69003 0.9066 0.83155 0.0
H2049 H 0.65741 0.89261 0.8447 0.0
H2050 H 0.61715 0.87213 0.82341 0.0
H2051 H 0.61445 0.90898 0.80542 0.0
H2052 H 0.08609 0.70805 0.8069 0.0
H2053 H 0.12354 0.74878 0.82415 0.0
H2054 H 0.13294 0.81766 0.79026 0.0
H2055 H 0.095 0.77701 0.77293 0.0
H2056 H 0.18474 0.79558 0.81936 0.0
H2057 H 0.10736 0.84344 0.83128 0.0
H2058 H 0.09384 0.8063 0.82201 0.0
H2059 H 0.11523 0.8412 0.81067 0.0
C2060 C 0.09625 0.73182 0.803 0.0
C2061 C 0.08724 0.73928 0.7886 0.0
C2062 C 0.11768 0.75507 0.8129 0.0
C2063 C 0.13047 0.78621 0.80862 0.0
C2064 C 0.12276 0.79375 0.79392 0.0
H2065 H 0.25497 0.9571 0.8565 0.0
H2066 H 0.21951 0.91719 0.83824 0.0
C2067 C 0.10126 0.77048 0.78399 0.0
C2068 C 0.1512 0.81064 0.81983 0.0
H2069 H 0.15745 0.8702 0.84247 0.0
C2070 C 0.17881 0.81191 0.82443 0.0
C2071 C 0.14324 0.83175 0.82647 0.0
C2072 C 0.11319 0.83057 0.8225 0.0
C2073 C 0.19895 0.83406 0.83534 0.0
C2074 C 0.19095 0.85511 0.842 0.0
C2075 C 0.16341 0.85393 0.83736 0.0
C2076 C 0.21124 0.87903 0.85353 0.0
C2077 C 0.22889 0.83514 0.83943 0.0
C2078 C 0.21766 0.87076 0.86837 0.0
C2079 C 0.23795 0.89354 0.8789 0.0
C2080 C 0.25207 0.92499 0.87475 0.0
C2081 C 0.24466 0.93313 0.86007 0.0
C2082 C 0.22439 0.91036 0.8496 0.0
H2083 H 0.23485 0.82236 0.83064 0.0
H2084 H 0.24825 0.85939 0.84005 0.0
H2085 H 0.22662 0.82434 0.85124 0.0
H2086 H 0.20721 0.84667 0.87175 0.0
H2087 H 0.243 0.88648 0.89014 0.0
H2088 H 0.11113 0.35462 0.89076 0.0
H2089 H 0.15147 0.35958 0.87245 0.0
H2090 H 0.08175 0.29412 0.8407 0.0
H2091 H 0.04132 0.28918 0.85874 0.0
H2092 H 0.16432 0.31436 0.85971 0.0
H2093 H 0.13204 0.37117 0.81278 0.0
H2094 H 0.11854 0.36723 0.83299 0.0
H2095 H 0.10077 0.33489 0.81964 0.0
C2096 C 0.10437 0.34107 0.87995 0.0
C2097 C 0.07297 0.32176 0.87614 0.0
C2098 C 0.12745 0.34398 0.8695 0.0
C2099 C 0.1195 0.32774 0.85509 0.0
C2100 C 0.0883 0.3074 0.8516 0.0
H2101 H 0.2212 0.3153 0.77482 0.0
H2102 H 0.18143 0.31147 0.79319 0.0
C2103 C 0.06524 0.30448 0.862 0.0
C2104 C 0.14376 0.33231 0.84356 0.0
H2105 H 0.16941 0.35709 0.80587 0.0
C2106 C 0.16559 0.32385 0.84797 0.0
C2107 C 0.14523 0.34467 0.82826 0.0
C2108 C 0.12309 0.35529 0.82313 0.0
C2109 C 0.18854 0.32682 0.83733 0.0
C2110 C 0.18997 0.33913 0.82201 0.0
C2111 C 0.16818 0.34765 0.81762 0.0
C2112 C 0.21395 0.34326 0.81039 0.0
C2113 C 0.21061 0.3161 0.84244 0.0
C2114 C 0.24529 0.36324 0.81375 0.0
C2115 C 0.26804 0.3655 0.80332 0.0
C2116 C 0.25984 0.34793 0.78926 0.0
C2117 C 0.22832 0.32907 0.78556 0.0
C2118 C 0.20557 0.3268 0.79604 0.0
H2119 H 0.20171 0.30036 0.85284 0.0
H2120 H 0.21497 0.30398 0.8326 0.0
H2121 H 0.23302 0.33648 0.84584 0.0
H2122 H 0.25218 0.37668 0.8246 0.0
H2123 H 0.29207 0.38046 0.80649 0.0
H2124 H 0.95335 0.5806 0.47464 0.0
H2125 H 0.95701 0.54415 0.49255 0.0
H2126 H 0.01644 0.53338 0.45919 0.0
H2127 H 0.01329 0.57017 0.4412 0.0
H2128 H 0.94295 0.48238 0.48826 0.0
H2129 H 0.06779 0.56135 0.50042 0.0
H2130 H 0.04379 0.5742 0.49093 0.0
H2131 H 0.05796 0.55316 0.47979 0.0
C2132 C 0.967 0.57031 0.471 0.0
C2133 C 0.98328 0.57856 0.45653 0.0
C2134 C 0.96905 0.54949 0.48127 0.0
C2135 C 0.98748 0.53662 0.47732 0.0
C2136 C 0.00261 0.54362 0.46258 0.0
H2137 H 0.03536 0.41321 0.52453 0.0
H2138 H 0.03104 0.44954 0.50685 0.0
C2139 C 0.00058 0.56446 0.45227 0.0
C2140 C 0.99138 0.51645 0.48883 0.0
H2141 H 0.04512 0.5112 0.51159 0.0
C2142 C 0.96524 0.48867 0.49341 0.0
C2143 C 0.02051 0.52489 0.49555 0.0
C2144 C 0.04911 0.55514 0.49156 0.0
C2145 C 0.96756 0.46871 0.50433 0.0
C2146 C 0.9967 0.47711 0.51102 0.0
C2147 C 0.02282 0.50493 0.50646 0.0
C2148 C 0.00072 0.45677 0.52235 0.0
C2149 C 0.93896 0.43846 0.50833 0.0
C2150 C 0.98585 0.44958 0.53716 0.0
C2151 C 0.98826 0.42879 0.54735 0.0
C2152 C 0.00566 0.41492 0.54289 0.0
C2153 C 0.0216 0.42329 0.52832 0.0
C2154 C 0.01918 0.44406 0.51818 0.0
H2155 H 0.92014 0.4324 0.49958 0.0
H2156 H 0.94424 0.41936 0.50878 0.0
H2157 H 0.93035 0.44032 0.52019 0.0
H2158 H 0.972 0.45969 0.54072 0.0
H2159 H 0.97584 0.42299 0.55852 0.0
H2160 H 0.58421 0.6224 0.52313 0.0
H2161 H 0.54877 0.58239 0.50494 0.0
H2162 H 0.54204 0.51195 0.53697 0.0
H2163 H 0.57788 0.55194 0.5553 0.0
H2164 H 0.5557 0.505 0.50497 0.0
H2165 H 0.45515 0.52351 0.50895 0.0
H2166 H 0.49134 0.55791 0.50498 0.0
H2167 H 0.48559 0.53822 0.52361 0.0
C2168 C 0.57496 0.59842 0.52645 0.0
C2169 C 0.58394 0.59038 0.54069 0.0
C2170 C 0.55458 0.57558 0.51604 0.0
C2171 C 0.5426 0.54427 0.51969 0.0
C2172 C 0.551 0.53606 0.534 0.0
H2173 H 0.42421 0.37308 0.47094 0.0
H2174 H 0.46184 0.4134 0.48827 0.0
C2175 C 0.57139 0.55892 0.54447 0.0
C2176 C 0.52262 0.52024 0.50813 0.0
H2177 H 0.45413 0.49076 0.48825 0.0
C2178 C 0.5334 0.50171 0.50136 0.0
C2179 C 0.4937 0.51626 0.5034 0.0
C2180 C 0.48056 0.53482 0.51069 0.0
C2181 C 0.51615 0.47952 0.48977 0.0
C2182 C 0.48721 0.47551 0.48505 0.0
C2183 C 0.47646 0.49407 0.49182 0.0
C2184 C 0.46695 0.45128 0.47364 0.0
C2185 C 0.5293 0.46098 0.48248 0.0
C2186 C 0.45737 0.45921 0.45963 0.0
C2187 C 0.43569 0.43617 0.44967 0.0
C2188 C 0.423 0.40479 0.45367 0.0
C2189 C 0.43352 0.39699 0.46746 0.0
C2190 C 0.45518 0.42002 0.47737 0.0
H2191 H 0.5548 0.47261 0.48398 0.0
H2192 H 0.519 0.43812 0.48842 0.0
H2193 H 0.52379 0.45706 0.46962 0.0
H2194 H 0.46614 0.48326 0.45659 0.0
H2195 H 0.42808 0.44299 0.43916 0.0
H2196 H 0.6082 0.98851 0.47793 0.0
H2197 H 0.56876 0.98478 0.4963 0.0
H2198 H 0.52886 0.01294 0.45894 0.0
H2199 H 0.56705 0.0142 0.44018 0.0
H2200 H 0.55715 0.0238 0.50783 0.0
H2201 H 0.45243 0.94189 0.47453 0.0
H2202 H 0.49055 0.95067 0.46846 0.0
H2203 H 0.47596 0.97598 0.4631 0.0
C2204 C 0.59079 0.99363 0.47363 0.0
C2205 C 0.59044 0.00146 0.45766 0.0
C2206 C 0.56828 0.99156 0.48414 0.0
C2207 C 0.54535 0.99804 0.47902 0.0
C2208 C 0.54552 0.00671 0.4631 0.0
H2209 H 0.44111 0.04084 0.54753 0.0
H2210 H 0.4805 0.04279 0.52959 0.0
C2211 C 0.5675 0.00775 0.45241 0.0
C2212 C 0.52208 0.99653 0.49057 0.0
H2213 H 0.44484 0.96792 0.49626 0.0
C2214 C 0.53255 0.01127 0.50533 0.0
C2215 C 0.48989 0.9798 0.48751 0.0
C2216 C 0.47654 0.96092 0.47262 0.0
C2217 C 0.51191 0.00973 0.51707 0.0
C2218 C 0.47986 0.99455 0.51366 0.0
C2219 C 0.46938 0.97981 0.4989 0.0
C2220 C 0.45668 0.99342 0.52514 0.0
C2221 C 0.52479 0.02354 0.53314 0.0
C2222 C 0.42959 0.96525 0.52829 0.0
C2223 C 0.40654 0.96436 0.53804 0.0
C2224 C 0.41049 0.99149 0.54515 0.0
C2225 C 0.43787 0.01952 0.54242 0.0
C2226 C 0.46048 0.02058 0.53224 0.0
H2227 H 0.54676 0.02373 0.53557 0.0
H2228 H 0.52999 0.04789 0.53338 0.0
H2229 H 0.50823 0.0106 0.54282 0.0
H2230 H 0.42601 0.94395 0.52299 0.0
H2231 H 0.38551 0.94249 0.53994 0.0
loop_
_geom_bond_atom_site_label_1
_geom_bond_atom_site_label_2
_geom_bond_distance
_geom_bond_site_symmetry_2
_ccdc_geom_bond_type
Co0 O3 1.970 . S
Co0 N17 1.989 . S
Co0 O25 1.967 . S
Co0 O32 1.920 . S
Co1 O4 1.966 . S
Co1 N10 2.022 . S
Co1 N18 1.993 . S
Co1 O26 1.941 . S
C2 O3 1.258 . S
C2 O4 1.263 . S
O3 Co0 1.970 . S
O3 C2 1.258 . S
O4 Co1 1.966 . S
O4 C2 1.263 . S
C5 O6 1.235 . S
C5 O32 1.289 . S
O6 C5 1.235 . S
C7 C9 1.400 . S
C7 N10 1.351 . S
C7 C12 1.501 . S
C8 C9 1.387 . S
C8 N11 1.341 . S
C9 C7 1.400 . S
C9 C8 1.387 . S
N10 Co1 2.022 . S
N10 C7 1.351 . S
N10 N11 1.365 . S
N11 C8 1.341 . S
N11 N10 1.365 . S
N11 H31 0.862 . S
C12 C7 1.501 . S
C12 H13 0.961 . S
C12 H14 0.961 . S
C12 H15 0.960 . S
H13 C12 0.961 . S
H14 C12 0.961 . S
H15 C12 0.960 . S
C16 N17 1.342 . S
C16 C20 1.401 . S
C16 C21 1.499 . S
N17 Co0 1.989 . S
N17 C16 1.342 . S
N17 N18 1.388 . S
N18 Co1 1.993 . S
N18 N17 1.388 . S
N18 C19 1.346 . S
C19 N18 1.346 . S
C19 C20 1.396 . S
C19 C29 1.510 . S
C20 C16 1.401 . S
C20 C19 1.396 . S
C21 C16 1.499 . S
C21 H22 0.959 . S
C21 H23 0.960 . S
C21 H24 0.961 . S
H22 C21 0.959 . S
H23 C21 0.960 . S
H24 C21 0.961 . S
O25 Co0 1.967 . S
O25 C33 1.258 . S
O26 Co1 1.941 . S
O26 C33 1.266 . S
H27 C29 0.959 . S
H28 C29 0.961 . S
C29 C19 1.510 . S
C29 H27 0.959 . S
C29 H28 0.961 . S
C29 H30 0.960 . S
H30 C29 0.960 . S
H31 N11 0.862 . S
O32 Co0 1.920 . S
O32 C5 1.289 . S
C33 O25 1.258 . S
C33 O26 1.266 . S
Co34 O37 1.970 1_565 S
Co34 N51 1.989 . S
Co34 O59 1.967 . S
Co34 O66 1.920 . S
Co35 O38 1.966 . S
Co35 N44 2.022 . S
Co35 N52 1.993 1_545 S
Co35 O60 1.941 . S
C36 O37 1.258 . S
C36 O38 1.263 . S
O37 Co34 1.970 1_545 S
O37 C36 1.258 . S
O38 Co35 1.966 . S
O38 C36 1.263 . S
C39 O40 1.235 . S
C39 O66 1.289 . S
O40 C39 1.235 . S
C41 C43 1.400 . S
C41 N44 1.351 . S
C41 C46 1.501 . S
C42 C43 1.387 . S
C42 N45 1.341 . S
C43 C41 1.400 . S
C43 C42 1.387 . S
N44 Co35 2.022 . S
N44 C41 1.351 . S
N44 N45 1.365 . S
N45 C42 1.341 . S
N45 N44 1.365 . S
N45 H65 0.862 . S
C46 C41 1.501 . S
C46 H47 0.961 . S
C46 H48 0.961 . S
C46 H49 0.960 . S
H47 C46 0.961 . S
H48 C46 0.961 . S
H49 C46 0.960 . S
C50 N51 1.342 . S
C50 C54 1.401 . S
C50 C55 1.499 . S
N51 Co34 1.989 . S
N51 C50 1.342 . S
N51 N52 1.388 . S
N52 Co35 1.993 1_565 S
N52 N51 1.388 . S
N52 C53 1.346 . S
C53 N52 1.346 . S
C53 C54 1.396 . S
C53 C63 1.510 . S
C54 C50 1.401 . S
C54 C53 1.396 . S
C55 C50 1.499 . S
C55 H56 0.959 . S
C55 H57 0.960 . S
C55 H58 0.961 . S
H56 C55 0.959 . S
H57 C55 0.960 . S
H58 C55 0.961 . S
O59 Co34 1.967 . S
O59 C67 1.258 1_565 S
O60 Co35 1.941 . S
O60 C67 1.266 . S
H61 C63 0.959 . S
H62 C63 0.961 . S
C63 C53 1.510 . S
C63 H61 0.959 . S
C63 H62 0.961 . S
C63 H64 0.960 1_565 S
H64 C63 0.960 1_545 S
H65 N45 0.862 . S
O66 Co34 1.920 . S
O66 C39 1.289 . S
C67 O59 1.258 1_545 S
C67 O60 1.266 . S
Co68 O71 1.970 1_455 S
Co68 N85 1.989 . S
Co68 O93 1.967 . S
Co68 O100 1.920 . S
Co69 O72 1.966 . S
Co69 N78 2.022 . S
Co69 N86 1.993 1_655 S
Co69 O94 1.941 . S
C70 O71 1.258 . S
C70 O72 1.263 . S
O71 Co68 1.970 1_655 S
O71 C70 1.258 . S
O72 Co69 1.966 . S
O72 C70 1.263 . S
C73 O74 1.235 . S
C73 O100 1.289 . S
O74 C73 1.235 . S
C75 C77 1.400 . S
C75 N78 1.351 . S
C75 C80 1.501 . S
C76 C77 1.387 . S
C76 N79 1.341 . S
C77 C75 1.400 . S
C77 C76 1.387 . S
N78 Co69 2.022 . S
N78 C75 1.351 . S
N78 N79 1.365 . S
N79 C76 1.341 . S
N79 N78 1.365 . S
N79 H99 0.862 . S
C80 C75 1.501 . S
C80 H81 0.961 . S
C80 H82 0.961 . S
C80 H83 0.960 . S
H81 C80 0.961 . S
H82 C80 0.961 . S
H83 C80 0.960 . S
C84 N85 1.342 . S
C84 C88 1.401 . S
C84 C89 1.499 . S
N85 Co68 1.989 . S
N85 C84 1.342 . S
N85 N86 1.388 . S
N86 Co69 1.993 1_455 S
N86 N85 1.388 . S
N86 C87 1.346 . S
C87 N86 1.346 . S
C87 C88 1.396 . S
C87 C97 1.510 . S
C88 C84 1.401 . S
C88 C87 1.396 . S
C89 C84 1.499 . S
C89 H90 0.959 . S
C89 H91 0.960 . S
C89 H92 0.961 . S
H90 C89 0.959 . S
H91 C89 0.960 . S
H92 C89 0.961 . S
O93 Co68 1.967 . S
O93 C101 1.258 1_455 S
O94 Co69 1.941 . S
O94 C101 1.266 . S
H95 C97 0.959 . S
H96 C97 0.961 . S
C97 C87 1.510 . S
C97 H95 0.959 . S
C97 H96 0.961 . S
C97 H98 0.960 1_455 S
H98 C97 0.960 1_655 S
H99 N79 0.862 . S
O100 Co68 1.920 . S
O100 C73 1.289 . S
C101 O93 1.258 1_655 S
C101 O94 1.266 . S
Co102 O105 1.970 . S
Co102 N119 1.989 . S
Co102 O127 1.967 . S
Co102 O134 1.920 . S
Co103 O106 1.966 . S
Co103 N112 2.022 . S
Co103 N120 1.993 . S
Co103 O128 1.941 . S
C104 O105 1.258 . S
C104 O106 1.263 . S
O105 Co102 1.970 . S
O105 C104 1.258 . S
O106 Co103 1.966 . S
O106 C104 1.263 . S
C107 O108 1.235 . S
C107 O134 1.289 . S
O108 C107 1.235 . S
C109 C111 1.400 . S
C109 N112 1.351 . S
C109 C114 1.501 . S
C110 C111 1.387 . S
C110 N113 1.341 . S
C111 C109 1.400 . S
C111 C110 1.387 . S
N112 Co103 2.022 . S
N112 C109 1.351 . S
N112 N113 1.365 . S
N113 C110 1.341 . S
N113 N112 1.365 . S
N113 H133 0.862 . S
C114 C109 1.501 . S
C114 H115 0.961 . S
C114 H116 0.961 . S
C114 H117 0.960 . S
H115 C114 0.961 . S
H116 C114 0.961 . S
H117 C114 0.960 . S
C118 N119 1.342 . S
C118 C122 1.401 . S
C118 C123 1.499 . S
N119 Co102 1.989 . S
N119 C118 1.342 . S
N119 N120 1.388 . S
N120 Co103 1.993 . S
N120 N119 1.388 . S
N120 C121 1.346 . S
C121 N120 1.346 . S
C121 C122 1.396 . S
C121 C131 1.510 . S
C122 C118 1.401 . S
C122 C121 1.396 . S
C123 C118 1.499 . S
C123 H124 0.959 . S
C123 H125 0.960 . S
C123 H126 0.961 . S
H124 C123 0.959 . S
H125 C123 0.960 . S
H126 C123 0.961 . S
O127 Co102 1.967 . S
O127 C135 1.258 . S
O128 Co103 1.941 . S
O128 C135 1.266 . S
H129 C131 0.959 . S
H130 C131 0.961 . S
C131 C121 1.510 . S
C131 H129 0.959 . S
C131 H130 0.961 . S
C131 H132 0.960 . S
H132 C131 0.960 . S
H133 N113 0.862 . S
O134 Co102 1.920 . S
O134 C107 1.289 . S
C135 O127 1.258 . S
C135 O128 1.266 . S
Co136 O139 1.970 1_545 S
Co136 N153 1.989 . S
Co136 O161 1.967 . S
Co136 O168 1.920 . S
Co137 O140 1.966 . S
Co137 N146 2.022 . S
Co137 N154 1.993 1_565 S
Co137 O162 1.941 . S
C138 O139 1.258 . S
C138 O140 1.263 . S
O139 Co136 1.970 1_565 S
O139 C138 1.258 . S
O140 Co137 1.966 . S
O140 C138 1.263 . S
C141 O142 1.235 . S
C141 O168 1.289 . S
O142 C141 1.235 . S
C143 C145 1.400 . S
C143 N146 1.351 . S
C143 C148 1.501 . S
C144 C145 1.387 . S
C144 N147 1.341 . S
C145 C143 1.400 . S
C145 C144 1.387 . S
N146 Co137 2.022 . S
N146 C143 1.351 . S
N146 N147 1.365 . S
N147 C144 1.341 . S
N147 N146 1.365 . S
N147 H167 0.862 . S
C148 C143 1.501 . S
C148 H149 0.961 . S
C148 H150 0.961 . S
C148 H151 0.960 . S
H149 C148 0.961 . S
H150 C148 0.961 . S
H151 C148 0.960 . S
C152 N153 1.342 . S
C152 C156 1.401 . S
C152 C157 1.499 . S
N153 Co136 1.989 . S
N153 C152 1.342 . S
N153 N154 1.388 . S
N154 Co137 1.993 1_545 S
N154 N153 1.388 . S
N154 C155 1.346 . S
C155 N154 1.346 . S
C155 C156 1.396 . S
C155 C165 1.510 . S
C156 C152 1.401 . S
C156 C155 1.396 . S
C157 C152 1.499 . S
C157 H158 0.959 . S
C157 H159 0.960 . S
C157 H160 0.961 . S
H158 C157 0.959 . S
H159 C157 0.960 . S
H160 C157 0.961 . S
O161 Co136 1.967 . S
O161 C169 1.258 1_545 S
O162 Co137 1.941 . S
O162 C169 1.266 . S
H163 C165 0.959 . S
H164 C165 0.961 . S
C165 C155 1.510 . S
C165 H163 0.959 . S
C165 H164 0.961 . S
C165 H166 0.960 1_545 S
H166 C165 0.960 1_565 S
H167 N147 0.862 . S
O168 Co136 1.920 . S
O168 C141 1.289 . S
C169 O161 1.258 1_565 S
C169 O162 1.266 . S
Co170 O173 1.970 1_655 S
Co170 N187 1.989 . S
Co170 O195 1.967 . S
Co170 O202 1.920 . S
Co171 O174 1.966 . S
Co171 N180 2.022 . S
Co171 N188 1.993 1_455 S
Co171 O196 1.941 . S
C172 O173 1.258 . S
C172 O174 1.263 . S
O173 Co170 1.970 1_455 S
O173 C172 1.258 . S
O174 Co171 1.966 . S
O174 C172 1.263 . S
C175 O176 1.235 . S
C175 O202 1.289 . S
O176 C175 1.235 . S
C177 C179 1.400 . S
C177 N180 1.351 . S
C177 C182 1.501 . S
C178 C179 1.387 . S
C178 N181 1.341 . S
C179 C177 1.400 . S
C179 C178 1.387 . S
N180 Co171 2.022 . S
N180 C177 1.351 . S
N180 N181 1.365 . S
N181 C178 1.341 . S
N181 N180 1.365 . S
N181 H201 0.862 . S
C182 C177 1.501 . S
C182 H183 0.961 . S
C182 H184 0.961 . S
C182 H185 0.960 . S
H183 C182 0.961 . S
H184 C182 0.961 . S
H185 C182 0.960 . S
C186 N187 1.342 . S
C186 C190 1.401 . S
C186 C191 1.499 . S
N187 Co170 1.989 . S
N187 C186 1.342 . S
N187 N188 1.388 . S
N188 Co171 1.993 1_655 S
N188 N187 1.388 . S
N188 C189 1.346 . S
C189 N188 1.346 . S
C189 C190 1.396 . S
C189 C199 1.510 . S
C190 C186 1.401 . S
C190 C189 1.396 . S
C191 C186 1.499 . S
C191 H192 0.959 . S
C191 H193 0.960 . S
C191 H194 0.961 . S
H192 C191 0.959 . S
H193 C191 0.960 . S
H194 C191 0.961 . S
O195 Co170 1.967 . S
O195 C203 1.258 1_655 S
O196 Co171 1.941 . S
O196 C203 1.266 . S
H197 C199 0.959 . S
H198 C199 0.961 . S
C199 C189 1.510 . S
C199 H197 0.959 . S
C199 H198 0.961 . S
C199 H200 0.960 1_655 S
H200 C199 0.960 1_455 S
H201 N181 0.862 . S
O202 Co170 1.920 . S
O202 C175 1.289 . S
C203 O195 1.258 1_455 S
C203 O196 1.266 . S
Co204 O207 1.970 . S
Co204 N221 1.989 . S
Co204 O229 1.967 1_655 S
Co204 O236 1.920 . S
Co205 O208 1.966 . S
Co205 N214 2.022 . S
Co205 N222 1.993 1_455 S
Co205 O230 1.941 . S
C206 O207 1.258 . S
C206 O208 1.263 1_655 S
O207 Co204 1.970 . S
O207 C206 1.258 . S
O208 Co205 1.966 . S
O208 C206 1.263 1_455 S
C209 O210 1.235 . S
C209 O236 1.289 . S
O210 C209 1.235 . S
C211 C213 1.400 . S
C211 N214 1.351 . S
C211 C216 1.501 . S
C212 C213 1.387 . S
C212 N215 1.341 . S
C213 C211 1.400 . S
C213 C212 1.387 . S
N214 Co205 2.022 . S
N214 C211 1.351 . S
N214 N215 1.365 . S
N215 C212 1.341 . S
N215 N214 1.365 . S
N215 H235 0.862 . S
C216 C211 1.501 . S
C216 H217 0.961 . S
C216 H218 0.961 1_455 S
C216 H219 0.960 . S
H217 C216 0.961 . S
H218 C216 0.961 1_655 S
H219 C216 0.960 . S
C220 N221 1.342 . S
C220 C224 1.401 . S
C220 C225 1.499 . S
N221 Co204 1.989 . S
N221 C220 1.342 . S
N221 N222 1.388 . S
N222 Co205 1.993 1_655 S
N222 N221 1.388 . S
N222 C223 1.346 . S
C223 N222 1.346 . S
C223 C224 1.396 . S
C223 C233 1.510 . S
C224 C220 1.401 . S
C224 C223 1.396 . S
C225 C220 1.499 . S
C225 H226 0.959 . S
C225 H227 0.960 . S
C225 H228 0.961 . S
H226 C225 0.959 . S
H227 C225 0.960 . S
H228 C225 0.961 . S
O229 Co204 1.967 1_455 S
O229 C237 1.258 . S
O230 Co205 1.941 . S
O230 C237 1.266 . S
H231 C233 0.959 . S
H232 C233 0.961 . S
C233 C223 1.510 . S
C233 H231 0.959 . S
C233 H232 0.961 . S
C233 H234 0.960 . S
H234 C233 0.960 . S
H235 N215 0.862 . S
O236 Co204 1.920 . S
O236 C209 1.289 . S
C237 O229 1.258 . S
C237 O230 1.266 . S
Co238 O241 1.970 . S
Co238 N255 1.989 . S
Co238 O263 1.967 . S
Co238 O270 1.920 . S
Co239 O242 1.966 . S
Co239 N248 2.022 . S
Co239 N256 1.993 . S
Co239 O264 1.941 . S
C240 O241 1.258 . S
C240 O242 1.263 . S
O241 Co238 1.970 . S
O241 C240 1.258 . S
O242 Co239 1.966 . S
O242 C240 1.263 . S
C243 O244 1.235 . S
C243 O270 1.289 . S
O244 C243 1.235 . S
C245 C247 1.400 . S
C245 N248 1.351 . S
C245 C250 1.501 . S
C246 C247 1.387 . S
C246 N249 1.341 . S
C247 C245 1.400 . S
C247 C246 1.387 . S
N248 Co239 2.022 . S
N248 C245 1.351 . S
N248 N249 1.365 . S
N249 C246 1.341 . S
N249 N248 1.365 . S
N249 H269 0.862 . S
C250 C245 1.501 . S
C250 H251 0.961 . S
C250 H252 0.961 . S
C250 H253 0.960 . S
H251 C250 0.961 . S
H252 C250 0.961 . S
H253 C250 0.960 . S
C254 N255 1.342 . S
C254 C258 1.401 . S
C254 C259 1.499 . S
N255 Co238 1.989 . S
N255 C254 1.342 . S
N255 N256 1.388 . S
N256 Co239 1.993 . S
N256 N255 1.388 . S
N256 C257 1.346 . S
C257 N256 1.346 . S
C257 C258 1.396 . S
C257 C267 1.510 . S
C258 C254 1.401 . S
C258 C257 1.396 . S
C259 C254 1.499 . S
C259 H260 0.959 . S
C259 H261 0.960 . S
C259 H262 0.961 . S
H260 C259 0.959 . S
H261 C259 0.960 . S
H262 C259 0.961 . S
O263 Co238 1.967 . S
O263 C271 1.258 . S
O264 Co239 1.941 . S
O264 C271 1.266 . S
H265 C267 0.959 . S
H266 C267 0.961 . S
C267 C257 1.510 . S
C267 H265 0.959 . S
C267 H266 0.961 . S
C267 H268 0.960 . S
H268 C267 0.960 . S
H269 N249 0.862 . S
O270 Co238 1.920 . S
O270 C243 1.289 . S
C271 O263 1.258 . S
C271 O264 1.266 . S
Co272 O275 1.970 . S
Co272 N289 1.989 . S
Co272 O297 1.967 1_545 S
Co272 O304 1.920 . S
Co273 O276 1.966 . S
Co273 N282 2.022 . S
Co273 N290 1.993 1_565 S
Co273 O298 1.941 . S
C274 O275 1.258 . S
C274 O276 1.263 1_545 S
O275 Co272 1.970 . S
O275 C274 1.258 . S
O276 Co273 1.966 . S
O276 C274 1.263 1_565 S
C277 O278 1.235 . S
C277 O304 1.289 . S
O278 C277 1.235 . S
C279 C281 1.400 . S
C279 N282 1.351 . S
C279 C284 1.501 . S
C280 C281 1.387 . S
C280 N283 1.341 . S
C281 C279 1.400 . S
C281 C280 1.387 . S
N282 Co273 2.022 . S
N282 C279 1.351 . S
N282 N283 1.365 . S
N283 C280 1.341 . S
N283 N282 1.365 . S
N283 H303 0.862 . S
C284 C279 1.501 . S
C284 H285 0.961 . S
C284 H286 0.961 1_565 S
C284 H287 0.960 . S
H285 C284 0.961 . S
H286 C284 0.961 1_545 S
H287 C284 0.960 . S
C288 N289 1.342 . S
C288 C292 1.401 . S
C288 C293 1.499 . S
N289 Co272 1.989 . S
N289 C288 1.342 . S
N289 N290 1.388 . S
N290 Co273 1.993 1_545 S
N290 N289 1.388 . S
N290 C291 1.346 . S
C291 N290 1.346 . S
C291 C292 1.396 . S
C291 C301 1.510 . S
C292 C288 1.401 . S
C292 C291 1.396 . S
C293 C288 1.499 . S
C293 H294 0.959 . S
C293 H295 0.960 . S
C293 H296 0.961 . S
H294 C293 0.959 . S
H295 C293 0.960 . S
H296 C293 0.961 . S
O297 Co272 1.967 1_565 S
O297 C305 1.258 . S
O298 Co273 1.941 . S
O298 C305 1.266 . S
H299 C301 0.959 . S
H300 C301 0.961 . S
C301 C291 1.510 . S
C301 H299 0.959 . S
C301 H300 0.961 . S
C301 H302 0.960 . S
H302 C301 0.960 . S
H303 N283 0.862 . S
O304 Co272 1.920 . S
O304 C277 1.289 . S
C305 O297 1.258 . S
C305 O298 1.266 . S
Co306 O309 1.975 . S
Co306 N323 1.989 . S
Co306 O331 1.966 1_545 S
Co306 O338 1.917 1_545 S
Co307 O310 1.966 . S
Co307 N316 2.022 . S
Co307 N324 1.993 . S
Co307 O332 1.941 1_545 S
C308 O309 1.258 . S
C308 O310 1.263 . S
O309 Co306 1.975 . S
O309 C308 1.258 . S
O310 Co307 1.966 . S
O310 C308 1.263 . S
C311 O312 1.235 . S
C311 O338 1.289 1_545 S
O312 C311 1.235 . S
C313 C315 1.400 . S
C313 N316 1.351 . S
C313 C318 1.501 . S
C314 C315 1.387 . S
C314 N317 1.341 . S
C315 C313 1.400 . S
C315 C314 1.387 . S
N316 Co307 2.022 . S
N316 C313 1.351 . S
N316 N317 1.365 . S
N317 C314 1.341 . S
N317 N316 1.365 . S
N317 H337 0.862 1_545 S
C318 C313 1.501 . S
C318 H319 0.961 . S
C318 H320 0.961 . S
C318 H321 0.960 . S
H319 C318 0.961 . S
H320 C318 0.961 . S
H321 C318 0.960 . S
C322 N323 1.342 1_565 S
C322 C326 1.401 1_565 S
C322 C327 1.499 . S
N323 Co306 1.989 . S
N323 C322 1.342 1_545 S
N323 N324 1.388 . S
N324 Co307 1.993 . S
N324 N323 1.388 . S
N324 C325 1.346 . S
C325 N324 1.346 . S
C325 C326 1.396 . S
C325 C335 1.510 . S
C326 C322 1.401 1_545 S
C326 C325 1.396 . S
C327 C322 1.499 . S
C327 H328 0.959 . S
C327 H329 0.966 . S
C327 H330 0.961 . S
H328 C327 0.959 . S
H329 C327 0.966 . S
H330 C327 0.961 . S
O331 Co306 1.966 1_565 S
O331 C339 1.258 . S
O332 Co307 1.941 1_565 S
O332 C339 1.266 . S
H333 C335 0.959 . S
H334 C335 0.961 . S
C335 C325 1.510 . S
C335 H333 0.959 . S
C335 H334 0.961 . S
C335 H336 0.960 . S
H336 C335 0.960 . S
H337 N317 0.862 1_565 S
O338 Co306 1.917 1_565 S
O338 C311 1.289 1_565 S
C339 O331 1.258 . S
C339 O332 1.266 . S
Co340 O343 1.975 . S
Co340 N357 1.991 . S
Co340 O365 1.959 1_655 S
Co340 O372 1.921 1_655 S
Co341 O344 1.966 . S
Co341 N350 2.022 . S
Co341 N358 1.993 . S
Co341 O366 1.941 1_655 S
C342 O343 1.258 . S
C342 O344 1.263 . S
O343 Co340 1.975 . S
O343 C342 1.258 . S
O344 Co341 1.966 . S
O344 C342 1.263 . S
C345 O346 1.235 . S
C345 O372 1.289 1_655 S
O346 C345 1.235 . S
C347 C349 1.400 . S
C347 N350 1.351 . S
C347 C352 1.501 . S
C348 C349 1.387 . S
C348 N351 1.341 . S
C349 C347 1.400 . S
C349 C348 1.387 . S
N350 Co341 2.022 . S
N350 C347 1.351 . S
N350 N351 1.365 . S
N351 C348 1.341 . S
N351 N350 1.365 . S
N351 H371 0.862 1_655 S
C352 C347 1.501 . S
C352 H353 0.961 . S
C352 H354 0.961 . S
C352 H355 0.960 . S
H353 C352 0.961 . S
H354 C352 0.961 . S
H355 C352 0.960 . S
C356 N357 1.342 1_455 S
C356 C360 1.401 1_455 S
C356 C361 1.499 . S
N357 Co340 1.991 . S
N357 C356 1.342 1_655 S
N357 N358 1.388 . S
N358 Co341 1.993 . S
N358 N357 1.388 . S
N358 C359 1.346 . S
C359 N358 1.346 . S
C359 C360 1.396 . S
C359 C369 1.510 . S
C360 C356 1.401 1_655 S
C360 C359 1.396 . S
C361 C356 1.499 . S
C361 H362 0.959 . S
C361 H363 0.986 . S
C361 H364 0.961 . S
H362 C361 0.959 . S
H363 C361 0.986 . S
H364 C361 0.961 . S
O365 Co340 1.959 1_455 S
O365 C373 1.258 . S
O366 Co341 1.941 1_455 S
O366 C373 1.266 . S
H367 C369 0.959 . S
H368 C369 0.961 . S
C369 C359 1.510 . S
C369 H367 0.959 . S
C369 H368 0.961 . S
C369 H370 0.960 . S
H370 C369 0.960 . S
H371 N351 0.862 1_455 S
O372 Co340 1.921 1_455 S
O372 C345 1.289 1_455 S
C373 O365 1.258 . S
C373 O366 1.266 . S
Co374 O377 1.970 . S
Co374 N391 1.989 . S
Co374 O399 1.967 . S
Co374 O406 1.920 . S
Co375 O378 1.966 . S
Co375 N384 2.022 . S
Co375 N392 1.993 . S
Co375 O400 1.941 . S
C376 O377 1.258 . S
C376 O378 1.263 . S
O377 Co374 1.970 . S
O377 C376 1.258 . S
O378 Co375 1.966 . S
O378 C376 1.263 . S
C379 O380 1.235 . S
C379 O406 1.289 . S
O380 C379 1.235 . S
C381 C383 1.400 . S
C381 N384 1.351 . S
C381 C386 1.501 . S
C382 C383 1.387 . S
C382 N385 1.341 . S
C383 C381 1.400 . S
C383 C382 1.387 . S
N384 Co375 2.022 . S
N384 C381 1.351 . S
N384 N385 1.365 . S
N385 C382 1.341 . S
N385 N384 1.365 . S
N385 H405 0.862 . S
C386 C381 1.501 . S
C386 H387 0.961 . S
C386 H388 0.961 . S
C386 H389 0.960 . S
H387 C386 0.961 . S
H388 C386 0.961 . S
H389 C386 0.960 . S
C390 N391 1.342 . S
C390 C394 1.401 . S
C390 C395 1.499 . S
N391 Co374 1.989 . S
N391 C390 1.342 . S
N391 N392 1.388 . S
N392 Co375 1.993 . S
N392 N391 1.388 . S
N392 C393 1.346 . S
C393 N392 1.346 . S
C393 C394 1.396 . S
C393 C403 1.510 . S
C394 C390 1.401 . S
C394 C393 1.396 . S
C395 C390 1.499 . S
C395 H396 0.959 . S
C395 H397 0.960 . S
C395 H398 0.961 . S
H396 C395 0.959 . S
H397 C395 0.960 . S
H398 C395 0.961 . S
O399 Co374 1.967 . S
O399 C407 1.258 . S
O400 Co375 1.941 . S
O400 C407 1.266 . S
H401 C403 0.959 . S
H402 C403 0.961 . S
C403 C393 1.510 . S
C403 H401 0.959 . S
C403 H402 0.961 . S
C403 H404 0.960 . S
H404 C403 0.960 . S
H405 N385 0.862 . S
O406 Co374 1.920 . S
O406 C379 1.289 . S
C407 O399 1.258 . S
C407 O400 1.266 . S
Co408 O411 1.975 . S
Co408 N425 1.989 . S
Co408 O433 1.966 1_565 S
Co408 O440 1.917 1_565 S
Co409 O412 1.966 . S
Co409 N418 2.022 . S
Co409 N426 1.993 . S
Co409 O434 1.941 1_565 S
C410 O411 1.258 . S
C410 O412 1.263 . S
O411 Co408 1.975 . S
O411 C410 1.258 . S
O412 Co409 1.966 . S
O412 C410 1.263 . S
C413 O414 1.235 . S
C413 O440 1.289 1_565 S
O414 C413 1.235 . S
C415 C417 1.400 . S
C415 N418 1.351 . S
C415 C420 1.501 . S
C416 C417 1.387 . S
C416 N419 1.341 . S
C417 C415 1.400 . S
C417 C416 1.387 . S
N418 Co409 2.022 . S
N418 C415 1.351 . S
N418 N419 1.365 . S
N419 C416 1.341 . S
N419 N418 1.365 . S
N419 H439 0.862 1_565 S
C420 C415 1.501 . S
C420 H421 0.961 . S
C420 H422 0.961 . S
C420 H423 0.960 . S
H421 C420 0.961 . S
H422 C420 0.961 . S
H423 C420 0.960 . S
C424 N425 1.342 1_545 S
C424 C428 1.401 1_545 S
C424 C429 1.499 . S
N425 Co408 1.989 . S
N425 C424 1.342 1_565 S
N425 N426 1.388 . S
N426 Co409 1.993 . S
N426 N425 1.388 . S
N426 C427 1.346 . S
C427 N426 1.346 . S
C427 C428 1.396 . S
C427 C437 1.510 . S
C428 C424 1.401 1_565 S
C428 C427 1.396 . S
C429 C424 1.499 . S
C429 H430 0.959 . S
C429 H431 0.966 . S
C429 H432 0.961 . S
H430 C429 0.959 . S
H431 C429 0.966 . S
H432 C429 0.961 . S
O433 Co408 1.966 1_545 S
O433 C441 1.258 . S
O434 Co409 1.941 1_545 S
O434 C441 1.266 . S
H435 C437 0.959 . S
H436 C437 0.961 . S
C437 C427 1.510 . S
C437 H435 0.959 . S
C437 H436 0.961 . S
C437 H438 0.960 . S
H438 C437 0.960 . S
H439 N419 0.862 1_545 S
O440 Co408 1.917 1_545 S
O440 C413 1.289 1_545 S
C441 O433 1.258 . S
C441 O434 1.266 . S
Co442 O445 1.975 . S
Co442 N459 1.991 . S
Co442 O467 1.959 1_455 S
Co442 O474 1.921 1_455 S
Co443 O446 1.966 . S
Co443 N452 2.022 . S
Co443 N460 1.993 . S
Co443 O468 1.941 1_455 S
C444 O445 1.258 . S
C444 O446 1.263 . S
O445 Co442 1.975 . S
O445 C444 1.258 . S
O446 Co443 1.966 . S
O446 C444 1.263 . S
C447 O448 1.235 . S
C447 O474 1.289 1_455 S
O448 C447 1.235 . S
C449 C451 1.400 . S
C449 N452 1.351 . S
C449 C454 1.501 . S
C450 C451 1.387 . S
C450 N453 1.341 . S
C451 C449 1.400 . S
C451 C450 1.387 . S
N452 Co443 2.022 . S
N452 C449 1.351 . S
N452 N453 1.365 . S
N453 C450 1.341 . S
N453 N452 1.365 . S
N453 H473 0.862 1_455 S
C454 C449 1.501 . S
C454 H455 0.961 . S
C454 H456 0.961 . S
C454 H457 0.960 . S
H455 C454 0.961 . S
H456 C454 0.961 . S
H457 C454 0.960 . S
C458 N459 1.342 1_655 S
C458 C462 1.401 1_655 S
C458 C463 1.499 . S
N459 Co442 1.991 . S
N459 C458 1.342 1_455 S
N459 N460 1.388 . S
N460 Co443 1.993 . S
N460 N459 1.388 . S
N460 C461 1.346 . S
C461 N460 1.346 . S
C461 C462 1.396 . S
C461 C471 1.510 . S
C462 C458 1.401 1_455 S
C462 C461 1.396 . S
C463 C458 1.499 . S
C463 H464 0.959 . S
C463 H465 0.986 . S
C463 H466 0.961 . S
H464 C463 0.959 . S
H465 C463 0.986 . S
H466 C463 0.961 . S
O467 Co442 1.959 1_655 S
O467 C475 1.258 . S
O468 Co443 1.941 1_655 S
O468 C475 1.266 . S
H469 C471 0.959 . S
H470 C471 0.961 . S
C471 C461 1.510 . S
C471 H469 0.959 . S
C471 H470 0.961 . S
C471 H472 0.960 . S
H472 C471 0.960 . S
H473 N453 0.862 1_655 S
O474 Co442 1.921 1_655 S
O474 C447 1.289 1_655 S
C475 O467 1.258 . S
C475 O468 1.266 . S
Co476 O479 1.970 . S
Co476 N493 1.989 . S
Co476 O501 1.967 . S
Co476 O508 1.920 . S
Co477 O480 1.966 . S
Co477 N486 2.022 . S
Co477 N494 1.993 . S
Co477 O502 1.941 . S
C478 O479 1.258 . S
C478 O480 1.263 . S
O479 Co476 1.970 . S
O479 C478 1.258 . S
O480 Co477 1.966 . S
O480 C478 1.263 . S
C481 O482 1.235 . S
C481 O508 1.289 . S
O482 C481 1.235 . S
C483 C485 1.400 . S
C483 N486 1.351 . S
C483 C488 1.501 . S
C484 C485 1.387 . S
C484 N487 1.341 . S
C485 C483 1.400 . S
C485 C484 1.387 . S
N486 Co477 2.022 . S
N486 C483 1.351 . S
N486 N487 1.365 . S
N487 C484 1.341 . S
N487 N486 1.365 . S
N487 H507 0.862 . S
C488 C483 1.501 . S
C488 H489 0.961 . S
C488 H490 0.961 . S
C488 H491 0.960 . S
H489 C488 0.961 . S
H490 C488 0.961 . S
H491 C488 0.960 . S
C492 N493 1.342 . S
C492 C496 1.401 . S
C492 C497 1.499 . S
N493 Co476 1.989 . S
N493 C492 1.342 . S
N493 N494 1.388 . S
N494 Co477 1.993 . S
N494 N493 1.388 . S
N494 C495 1.346 . S
C495 N494 1.346 . S
C495 C496 1.396 . S
C495 C505 1.510 . S
C496 C492 1.401 . S
C496 C495 1.396 . S
C497 C492 1.499 . S
C497 H498 0.959 . S
C497 H499 0.960 . S
C497 H500 0.961 . S
H498 C497 0.959 . S
H499 C497 0.960 . S
H500 C497 0.961 . S
O501 Co476 1.967 . S
O501 C509 1.258 . S
O502 Co477 1.941 . S
O502 C509 1.266 . S
H503 C505 0.959 . S
H504 C505 0.961 . S
C505 C495 1.510 . S
C505 H503 0.959 . S
C505 H504 0.961 . S
C505 H506 0.960 . S
H506 C505 0.960 . S
H507 N487 0.862 . S
O508 Co476 1.920 . S
O508 C481 1.289 . S
C509 O501 1.258 . S
C509 O502 1.266 . S
Co510 O513 1.970 . S
Co510 N527 1.989 . S
Co510 O535 1.967 1_455 S
Co510 O542 1.920 . S
Co511 O514 1.966 . S
Co511 N520 2.022 . S
Co511 N528 1.993 1_655 S
Co511 O536 1.941 . S
C512 O513 1.258 . S
C512 O514 1.263 1_455 S
O513 Co510 1.970 . S
O513 C512 1.258 . S
O514 Co511 1.966 . S
O514 C512 1.263 1_655 S
C515 O516 1.235 . S
C515 O542 1.289 . S
O516 C515 1.235 . S
C517 C519 1.400 . S
C517 N520 1.351 . S
C517 C522 1.501 . S
C518 C519 1.387 . S
C518 N521 1.341 . S
C519 C517 1.400 . S
C519 C518 1.387 . S
N520 Co511 2.022 . S
N520 C517 1.351 . S
N520 N521 1.365 . S
N521 C518 1.341 . S
N521 N520 1.365 . S
N521 H541 0.862 . S
C522 C517 1.501 . S
C522 H523 0.961 . S
C522 H524 0.961 1_655 S
C522 H525 0.960 . S
H523 C522 0.961 . S
H524 C522 0.961 1_455 S
H525 C522 0.960 . S
C526 N527 1.342 . S
C526 C530 1.401 . S
C526 C531 1.499 . S
N527 Co510 1.989 . S
N527 C526 1.342 . S
N527 N528 1.388 . S
N528 Co511 1.993 1_455 S
N528 N527 1.388 . S
N528 C529 1.346 . S
C529 N528 1.346 . S
C529 C530 1.396 . S
C529 C539 1.510 . S
C530 C526 1.401 . S
C530 C529 1.396 . S
C531 C526 1.499 . S
C531 H532 0.959 . S
C531 H533 0.960 . S
C531 H534 0.961 . S
H532 C531 0.959 . S
H533 C531 0.960 . S
H534 C531 0.961 . S
O535 Co510 1.967 1_655 S
O535 C543 1.258 . S
O536 Co511 1.941 . S
O536 C543 1.266 . S
H537 C539 0.959 . S
H538 C539 0.961 . S
C539 C529 1.510 . S
C539 H537 0.959 . S
C539 H538 0.961 . S
C539 H540 0.960 . S
H540 C539 0.960 . S
H541 N521 0.862 . S
O542 Co510 1.920 . S
O542 C515 1.289 . S
C543 O535 1.258 . S
C543 O536 1.266 . S
Co544 O547 1.970 . S
Co544 N561 1.989 . S
Co544 O569 1.967 . S
Co544 O576 1.920 . S
Co545 O548 1.966 . S
Co545 N554 2.022 . S
Co545 N562 1.993 . S
Co545 O570 1.941 . S
C546 O547 1.258 . S
C546 O548 1.263 . S
O547 Co544 1.970 . S
O547 C546 1.258 . S
O548 Co545 1.966 . S
O548 C546 1.263 . S
C549 O550 1.235 . S
C549 O576 1.289 . S
O550 C549 1.235 . S
C551 C553 1.400 . S
C551 N554 1.351 . S
C551 C556 1.501 . S
C552 C553 1.387 . S
C552 N555 1.341 . S
C553 C551 1.400 . S
C553 C552 1.387 . S
N554 Co545 2.022 . S
N554 C551 1.351 . S
N554 N555 1.365 . S
N555 C552 1.341 . S
N555 N554 1.365 . S
N555 H575 0.862 . S
C556 C551 1.501 . S
C556 H557 0.961 . S
C556 H558 0.961 . S
C556 H559 0.960 . S
H557 C556 0.961 . S
H558 C556 0.961 . S
H559 C556 0.960 . S
C560 N561 1.342 . S
C560 C564 1.401 . S
C560 C565 1.499 . S
N561 Co544 1.989 . S
N561 C560 1.342 . S
N561 N562 1.388 . S
N562 Co545 1.993 . S
N562 N561 1.388 . S
N562 C563 1.346 . S
C563 N562 1.346 . S
C563 C564 1.396 . S
C563 C573 1.510 . S
C564 C560 1.401 . S
C564 C563 1.396 . S
C565 C560 1.499 . S
C565 H566 0.959 . S
C565 H567 0.960 . S
C565 H568 0.961 . S
H566 C565 0.959 . S
H567 C565 0.960 . S
H568 C565 0.961 . S
O569 Co544 1.967 . S
O569 C577 1.258 . S
O570 Co545 1.941 . S
O570 C577 1.266 . S
H571 C573 0.959 . S
H572 C573 0.961 . S
C573 C563 1.510 . S
C573 H571 0.959 . S
C573 H572 0.961 . S
C573 H574 0.960 . S
H574 C573 0.960 . S
H575 N555 0.862 . S
O576 Co544 1.920 . S
O576 C549 1.289 . S
C577 O569 1.258 . S
C577 O570 1.266 . S
Co578 O581 1.970 . S
Co578 N595 1.989 . S
Co578 O603 1.967 1_565 S
Co578 O610 1.920 . S
Co579 O582 1.966 . S
Co579 N588 2.022 . S
Co579 N596 1.993 1_545 S
Co579 O604 1.941 . S
C580 O581 1.258 . S
C580 O582 1.263 1_565 S
O581 Co578 1.970 . S
O581 C580 1.258 . S
O582 Co579 1.966 . S
O582 C580 1.263 1_545 S
C583 O584 1.235 . S
C583 O610 1.289 . S
O584 C583 1.235 . S
C585 C587 1.400 . S
C585 N588 1.351 . S
C585 C590 1.501 . S
C586 C587 1.387 . S
C586 N589 1.341 . S
C587 C585 1.400 . S
C587 C586 1.387 . S
N588 Co579 2.022 . S
N588 C585 1.351 . S
N588 N589 1.365 . S
N589 C586 1.341 . S
N589 N588 1.365 . S
N589 H609 0.862 . S
C590 C585 1.501 . S
C590 H591 0.961 . S
C590 H592 0.961 1_545 S
C590 H593 0.960 . S
H591 C590 0.961 . S
H592 C590 0.961 1_565 S
H593 C590 0.960 . S
C594 N595 1.342 . S
C594 C598 1.401 . S
C594 C599 1.499 . S
N595 Co578 1.989 . S
N595 C594 1.342 . S
N595 N596 1.388 . S
N596 Co579 1.993 1_565 S
N596 N595 1.388 . S
N596 C597 1.346 . S
C597 N596 1.346 . S
C597 C598 1.396 . S
C597 C607 1.510 . S
C598 C594 1.401 . S
C598 C597 1.396 . S
C599 C594 1.499 . S
C599 H600 0.959 . S
C599 H601 0.960 . S
C599 H602 0.961 . S
H600 C599 0.959 . S
H601 C599 0.960 . S
H602 C599 0.961 . S
O603 Co578 1.967 1_545 S
O603 C611 1.258 . S
O604 Co579 1.941 . S
O604 C611 1.266 . S
H605 C607 0.959 . S
H606 C607 0.961 . S
C607 C597 1.510 . S
C607 H605 0.959 . S
C607 H606 0.961 . S
C607 H608 0.960 . S
H608 C607 0.960 . S
H609 N589 0.862 . S
O610 Co578 1.920 . S
O610 C583 1.289 . S
C611 O603 1.258 . S
C611 O604 1.266 . S
H612 C620 0.929 . S
H613 C622 0.930 . S
H614 C624 0.922 . S
H615 C627 0.929 . S
H616 C630 0.939 . S
H617 C632 0.985 . S
H618 C632 0.918 1_554 S
H619 C632 0.970 . S
C620 H612 0.929 . S
C620 C621 1.377 . S
C620 C622 1.384 . S
C621 C620 1.377 . S
C621 C627 1.390 . S
C622 H613 0.930 . S
C622 C620 1.384 . S
C622 C623 1.372 . S
C623 C622 1.372 . S
C623 C624 1.400 . S
C623 C628 1.490 . S
C624 H614 0.922 . S
C624 C623 1.400 . S
C624 C627 1.386 . S
H625 C641 0.930 . S
H626 C642 0.931 . S
C627 H615 0.929 . S
C627 C621 1.390 . S
C627 C624 1.386 . S
C628 C623 1.490 . S
C628 C630 1.398 . S
C628 C631 1.403 1_554 S
H629 C635 0.930 . S
C630 H616 0.939 . S
C630 C628 1.398 . S
C630 C633 1.391 1_554 S
C631 C628 1.403 1_556 S
C631 C632 1.532 . S
C631 C635 1.400 . S
C632 H617 0.985 . S
C632 H618 0.918 1_556 S
C632 H619 0.970 . S
C632 C631 1.532 . S
C633 C630 1.391 1_556 S
C633 C634 1.392 . S
C633 C637 1.495 . S
C634 C633 1.392 . S
C634 C635 1.385 . S
C634 C636 1.478 . S
C635 H629 0.930 . S
C635 C631 1.400 . S
C635 C634 1.385 . S
C636 C634 1.478 . S
C636 C638 1.381 . S
C636 C642 1.383 . S
C637 C633 1.495 . S
C637 H643 0.959 . S
C637 H644 0.961 . S
C637 H645 0.960 . S
C638 C636 1.381 . S
C638 C639 1.394 . S
C638 H646 0.930 . S
C639 C638 1.394 . S
C639 C640 1.383 . S
C639 H647 0.929 . S
C640 C639 1.383 . S
C640 C641 1.377 . S
C641 H625 0.930 . S
C641 C640 1.377 . S
C641 C642 1.379 . S
C642 H626 0.931 . S
C642 C636 1.383 . S
C642 C641 1.379 . S
H643 C637 0.959 . S
H644 C637 0.961 . S
H645 C637 0.960 . S
H646 C638 0.930 . S
H647 C639 0.929 . S
H648 C656 0.929 . S
H649 C658 0.930 . S
H650 C660 0.930 1_556 S
H651 C663 0.929 . S
H652 C666 0.930 . S
H653 C668 0.960 . S
H654 C668 0.960 . S
H655 C668 0.960 . S
C656 H648 0.929 . S
C656 C657 1.377 . S
C656 C658 1.384 . S
C657 C656 1.377 . S
C657 C663 1.390 . S
C658 H649 0.930 . S
C658 C656 1.384 . S
C658 C659 1.372 . S
C659 C658 1.372 . S
C659 C660 1.400 . S
C659 C664 1.490 . S
C660 H650 0.930 1_554 S
C660 C659 1.400 . S
C660 C663 1.386 . S
H661 C677 0.930 . S
H662 C678 0.931 . S
C663 H651 0.929 . S
C663 C657 1.390 . S
C663 C660 1.386 . S
C664 C659 1.490 . S
C664 C666 1.395 . S
C664 C667 1.403 1_554 S
H665 C671 0.930 . S
C666 H652 0.930 . S
C666 C664 1.395 . S
C666 C669 1.403 1_554 S
C667 C664 1.403 1_556 S
C667 C668 1.524 . S
C667 C671 1.400 . S
C668 H653 0.960 . S
C668 H654 0.960 . S
C668 H655 0.960 . S
C668 C667 1.524 . S
C669 C666 1.403 1_556 S
C669 C670 1.392 . S
C669 C673 1.495 . S
C670 C669 1.392 . S
C670 C671 1.385 . S
C670 C672 1.478 . S
C671 H665 0.930 . S
C671 C667 1.400 . S
C671 C670 1.385 . S
C672 C670 1.478 . S
C672 C674 1.381 . S
C672 C678 1.383 . S
C673 C669 1.495 . S
C673 H679 0.959 1_556 S
C673 H680 0.961 . S
C673 H681 0.961 1_556 S
C674 C672 1.381 . S
C674 C675 1.394 . S
C674 H682 0.930 . S
C675 C674 1.394 . S
C675 C676 1.383 . S
C675 H683 0.929 . S
C676 C675 1.383 . S
C676 C677 1.377 . S
C677 H661 0.930 . S
C677 C676 1.377 . S
C677 C678 1.379 . S
C678 H662 0.931 . S
C678 C672 1.383 . S
C678 C677 1.379 . S
H679 C673 0.959 1_554 S
H680 C673 0.961 . S
H681 C673 0.961 1_554 S
H682 C674 0.930 . S
H683 C675 0.929 . S
H684 C692 0.929 . S
H685 C694 0.930 . S
H686 C696 0.930 . S
H687 C699 0.929 . S
H688 C702 0.930 . S
H689 C704 0.960 . S
H690 C704 0.960 . S
H691 C704 0.960 . S
C692 H684 0.929 . S
C692 C693 1.377 . S
C692 C694 1.384 . S
C693 C692 1.377 . S
C693 C699 1.390 . S
C694 H685 0.930 . S
C694 C692 1.384 . S
C694 C695 1.372 . S
C695 C694 1.372 . S
C695 C696 1.400 . S
C695 C700 1.490 . S
C696 H686 0.930 . S
C696 C695 1.400 . S
C696 C699 1.386 . S
H697 C713 0.930 . S
H698 C714 0.931 . S
C699 H687 0.929 . S
C699 C693 1.390 . S
C699 C696 1.386 . S
C700 C695 1.490 . S
C700 C702 1.395 . S
C700 C703 1.403 1_554 S
H701 C707 0.930 . S
C702 H688 0.930 . S
C702 C700 1.395 . S
C702 C705 1.374 1_554 S
C703 C700 1.403 1_556 S
C703 C704 1.524 . S
C703 C707 1.400 . S
C704 H689 0.960 . S
C704 H690 0.960 . S
C704 H691 0.960 . S
C704 C703 1.524 . S
C705 C702 1.374 1_556 S
C705 C706 1.442 . S
C705 C709 1.476 1_556 S
C706 C705 1.442 . S
C706 C707 1.385 . S
C706 C708 1.478 . S
C707 H701 0.930 . S
C707 C703 1.400 . S
C707 C706 1.385 . S
C708 C706 1.478 . S
C708 C710 1.381 . S
C708 C714 1.383 . S
C709 C705 1.476 1_554 S
C709 H715 0.959 . S
C709 H716 0.961 . S
C709 H717 0.960 . S
C710 C708 1.381 . S
C710 C711 1.394 . S
C710 H718 0.930 . S
C711 C710 1.394 . S
C711 C712 1.383 . S
C711 H719 0.929 . S
C712 C711 1.383 . S
C712 C713 1.377 . S
C713 H697 0.930 . S
C713 C712 1.377 . S
C713 C714 1.379 . S
C714 H698 0.931 . S
C714 C708 1.383 . S
C714 C713 1.379 . S
H715 C709 0.959 . S
H716 C709 0.961 . S
H717 C709 0.960 . S
H718 C710 0.930 . S
H719 C711 0.929 . S
H720 C728 0.929 . S
H721 C730 0.930 . S
H722 C732 0.930 . S
H723 C735 0.929 . S
H724 C738 0.930 . S
H725 C740 0.960 . S
H726 C740 0.960 . S
H727 C740 0.960 1_554 S
C728 H720 0.929 . S
C728 C729 1.377 . S
C728 C730 1.384 . S
C729 C728 1.377 . S
C729 C735 1.390 . S
C730 H721 0.930 . S
C730 C728 1.384 . S
C730 C731 1.372 . S
C731 C730 1.372 . S
C731 C732 1.400 . S
C731 C736 1.490 . S
C732 H722 0.930 . S
C732 C731 1.400 . S
C732 C735 1.386 . S
H733 C749 0.930 . S
H734 C750 0.931 . S
C735 H723 0.929 . S
C735 C729 1.390 . S
C735 C732 1.386 . S
C736 C731 1.490 . S
C736 C738 1.395 . S
C736 C739 1.403 . S
H737 C743 0.930 . S
C738 H724 0.930 . S
C738 C736 1.395 . S
C738 C741 1.403 . S
C739 C736 1.403 . S
C739 C740 1.524 1_554 S
C739 C743 1.400 1_554 S
C740 H725 0.960 . S
C740 H726 0.960 . S
C740 H727 0.960 1_556 S
C740 C739 1.524 1_556 S
C741 C738 1.403 . S
C741 C742 1.392 1_554 S
C741 C745 1.495 . S
C742 C741 1.392 1_556 S
C742 C743 1.385 . S
C742 C744 1.478 . S
C743 H737 0.930 . S
C743 C739 1.400 1_556 S
C743 C742 1.385 . S
C744 C742 1.478 . S
C744 C746 1.381 . S
C744 C750 1.383 . S
C745 C741 1.495 . S
C745 H751 0.959 . S
C745 H752 0.961 . S
C745 H753 0.960 . S
C746 C744 1.381 . S
C746 C747 1.394 . S
C746 H754 0.930 . S
C747 C746 1.394 . S
C747 C748 1.383 . S
C747 H755 0.929 . S
C748 C747 1.383 . S
C748 C749 1.377 . S
C749 H733 0.930 . S
C749 C748 1.377 . S
C749 C750 1.379 . S
C750 H734 0.931 . S
C750 C744 1.383 . S
C750 C749 1.379 . S
H751 C745 0.959 . S
H752 C745 0.961 . S
H753 C745 0.960 . S
H754 C746 0.930 . S
H755 C747 0.929 . S
H756 C764 0.929 . S
H757 C766 0.930 . S
H758 C768 0.930 1_554 S
H759 C771 0.929 . S
H760 C774 0.930 . S
H761 C776 0.960 . S
H762 C776 0.960 1_556 S
H763 C776 0.960 . S
C764 H756 0.929 . S
C764 C765 1.377 . S
C764 C766 1.384 . S
C765 C764 1.377 . S
C765 C771 1.390 . S
C766 H757 0.930 . S
C766 C764 1.384 . S
C766 C767 1.372 . S
C767 C766 1.372 . S
C767 C768 1.400 . S
C767 C772 1.490 . S
C768 H758 0.930 1_556 S
C768 C767 1.400 . S
C768 C771 1.386 . S
H769 C785 0.930 . S
H770 C786 0.931 . S
C771 H759 0.929 . S
C771 C765 1.390 . S
C771 C768 1.386 . S
C772 C767 1.490 . S
C772 C774 1.395 . S
C772 C775 1.403 1_556 S
H773 C779 0.930 . S
C774 H760 0.930 . S
C774 C772 1.395 . S
C774 C777 1.403 1_556 S
C775 C772 1.403 1_554 S
C775 C776 1.524 . S
C775 C779 1.400 . S
C776 H761 0.960 . S
C776 H762 0.960 1_554 S
C776 H763 0.960 . S
C776 C775 1.524 . S
C777 C774 1.403 1_554 S
C777 C778 1.392 . S
C777 C781 1.495 . S
C778 C777 1.392 . S
C778 C779 1.385 . S
C778 C780 1.478 . S
C779 H773 0.930 . S
C779 C775 1.400 . S
C779 C778 1.385 . S
C780 C778 1.478 . S
C780 C782 1.381 . S
C780 C786 1.383 . S
C781 C777 1.495 . S
C781 H787 0.959 1_554 S
C781 H788 0.961 . S
C781 H789 0.960 . S
C782 C780 1.381 . S
C782 C783 1.394 . S
C782 H790 0.930 . S
C783 C782 1.394 . S
C783 C784 1.383 . S
C783 H791 0.929 . S
C784 C783 1.383 . S
C784 C785 1.377 . S
C785 H769 0.930 . S
C785 C784 1.377 . S
C785 C786 1.379 . S
C786 H770 0.931 . S
C786 C780 1.383 . S
C786 C785 1.379 . S
H787 C781 0.959 1_556 S
H788 C781 0.961 . S
H789 C781 0.960 . S
H790 C782 0.930 . S
H791 C783 0.929 . S
H792 C800 0.929 . S
H793 C802 0.930 . S
H794 C804 0.930 . S
H795 C807 0.929 . S
H796 C810 0.930 . S
H797 C812 0.960 . S
H798 C812 0.960 . S
H799 C812 0.960 . S
C800 H792 0.929 . S
C800 C801 1.377 . S
C800 C802 1.384 . S
C801 C800 1.377 . S
C801 C807 1.390 . S
C802 H793 0.930 . S
C802 C800 1.384 . S
C802 C803 1.372 . S
C803 C802 1.372 . S
C803 C804 1.400 . S
C803 C808 1.490 . S
C804 H794 0.930 . S
C804 C803 1.400 . S
C804 C807 1.386 . S
H805 C821 0.930 . S
H806 C822 0.931 . S
C807 H795 0.929 . S
C807 C801 1.390 . S
C807 C804 1.386 . S
C808 C803 1.490 . S
C808 C810 1.395 . S
C808 C811 1.403 . S
H809 C815 0.930 . S
C810 H796 0.930 . S
C810 C808 1.395 . S
C810 C813 1.403 1_554 S
C811 C808 1.403 . S
C811 C812 1.524 . S
C811 C815 1.400 . S
C812 H797 0.960 . S
C812 H798 0.960 . S
C812 H799 0.960 . S
C812 C811 1.524 . S
C813 C810 1.403 1_556 S
C813 C814 1.392 . S
C813 C817 1.495 . S
C814 C813 1.392 . S
C814 C815 1.385 1_556 S
C814 C816 1.478 . S
C815 H809 0.930 . S
C815 C811 1.400 . S
C815 C814 1.385 1_554 S
C816 C814 1.478 . S
C816 C818 1.381 . S
C816 C822 1.383 . S
C817 C813 1.495 . S
C817 H823 0.959 . S
C817 H824 0.961 . S
C817 H825 0.960 . S
C818 C816 1.381 . S
C818 C819 1.394 . S
C818 H826 0.930 . S
C819 C818 1.394 . S
C819 C820 1.383 . S
C819 H827 0.929 . S
C820 C819 1.383 . S
C820 C821 1.377 . S
C821 H805 0.930 . S
C821 C820 1.377 . S
C821 C822 1.379 . S
C822 H806 0.931 . S
C822 C816 1.383 . S
C822 C821 1.379 . S
H823 C817 0.959 . S
H824 C817 0.961 . S
H825 C817 0.960 . S
H826 C818 0.930 . S
H827 C819 0.929 . S
H828 C836 0.929 1_655 S
H829 C838 0.930 1_655 S
H830 C840 0.930 . S
H831 C843 0.929 . S
H832 C846 0.930 . S
H833 C848 0.960 . S
H834 C848 0.960 . S
H835 C848 0.960 . S
C836 H828 0.929 1_455 S
C836 C837 1.377 . S
C836 C838 1.384 . S
C837 C836 1.377 . S
C837 C843 1.390 . S
C838 H829 0.930 1_455 S
C838 C836 1.384 . S
C838 C839 1.372 . S
C839 C838 1.372 . S
C839 C840 1.400 . S
C839 C844 1.490 . S
C840 H830 0.930 . S
C840 C839 1.400 . S
C840 C843 1.386 . S
H841 C857 0.930 . S
H842 C858 0.931 . S
C843 H831 0.929 . S
C843 C837 1.390 . S
C843 C840 1.386 . S
C844 C839 1.490 . S
C844 C846 1.395 1_455 S
C844 C847 1.403 . S
H845 C851 0.930 . S
C846 H832 0.930 . S
C846 C844 1.395 1_655 S
C846 C849 1.403 . S
C847 C844 1.403 . S
C847 C848 1.524 . S
C847 C851 1.400 . S
C848 H833 0.960 . S
C848 H834 0.960 . S
C848 H835 0.960 . S
C848 C847 1.524 . S
C849 C846 1.403 . S
C849 C850 1.392 1_655 S
C849 C853 1.495 . S
C850 C849 1.392 1_455 S
C850 C851 1.385 . S
C850 C852 1.478 . S
C851 H845 0.930 . S
C851 C847 1.400 . S
C851 C850 1.385 . S
C852 C850 1.478 . S
C852 C854 1.381 1_455 S
C852 C858 1.383 . S
C853 C849 1.495 . S
C853 H859 0.959 . S
C853 H860 0.961 . S
C853 H861 0.960 . S
C854 C852 1.381 1_655 S
C854 C855 1.394 . S
C854 H862 0.930 . S
C855 C854 1.394 . S
C855 C856 1.364 1_655 S
C855 H863 0.929 . S
C856 C855 1.364 1_455 S
C856 C857 1.385 . S
C857 H841 0.930 . S
C857 C856 1.385 . S
C857 C858 1.379 . S
C858 H842 0.931 . S
C858 C852 1.383 . S
C858 C857 1.379 . S
H859 C853 0.959 . S
H860 C853 0.961 . S
H861 C853 0.960 . S
H862 C854 0.930 . S
H863 C855 0.929 . S
H864 C872 0.929 . S
H865 C874 0.930 . S
H866 C876 0.930 . S
H867 C879 0.929 . S
H868 C882 0.930 . S
H869 C884 0.960 . S
H870 C884 0.960 . S
H871 C884 0.960 . S
C872 H864 0.929 . S
C872 C873 1.377 . S
C872 C874 1.384 . S
C873 C872 1.377 . S
C873 C879 1.390 . S
C874 H865 0.930 . S
C874 C872 1.384 . S
C874 C875 1.372 . S
C875 C874 1.372 . S
C875 C876 1.400 . S
C875 C880 1.490 . S
C876 H866 0.930 . S
C876 C875 1.400 . S
C876 C879 1.386 . S
H877 C893 0.930 . S
H878 C894 0.931 . S
C879 H867 0.929 . S
C879 C873 1.390 . S
C879 C876 1.386 . S
C880 C875 1.490 . S
C880 C882 1.395 . S
C880 C883 1.403 . S
H881 C887 0.930 . S
C882 H868 0.930 . S
C882 C880 1.395 . S
C882 C885 1.403 . S
C883 C880 1.403 . S
C883 C884 1.524 . S
C883 C887 1.400 . S
C884 H869 0.960 . S
C884 H870 0.960 . S
C884 H871 0.960 . S
C884 C883 1.524 . S
C885 C882 1.403 . S
C885 C886 1.392 . S
C885 C889 1.495 . S
C886 C885 1.392 . S
C886 C887 1.385 . S
C886 C888 1.478 . S
C887 H881 0.930 . S
C887 C883 1.400 . S
C887 C886 1.385 . S
C888 C886 1.478 . S
C888 C890 1.381 . S
C888 C894 1.383 . S
C889 C885 1.495 . S
C889 H895 0.959 . S
C889 H896 0.961 . S
C889 H897 0.960 . S
C890 C888 1.381 . S
C890 C891 1.394 . S
C890 H898 0.930 . S
C891 C890 1.394 . S
C891 C892 1.383 . S
C891 H899 0.929 . S
C892 C891 1.383 . S
C892 C893 1.377 . S
C893 H877 0.930 . S
C893 C892 1.377 . S
C893 C894 1.379 . S
C894 H878 0.931 . S
C894 C888 1.383 . S
C894 C893 1.379 . S
H895 C889 0.959 . S
H896 C889 0.961 . S
H897 C889 0.960 . S
H898 C890 0.930 . S
H899 C891 0.929 . S
H900 C908 0.929 . S
H901 C910 0.930 . S
H902 C912 0.930 1_545 S
H903 C915 0.929 1_545 S
H904 C918 0.930 . S
H905 C920 0.960 . S
H906 C920 0.960 . S
H907 C920 0.960 . S
C908 H900 0.929 . S
C908 C909 1.377 . S
C908 C910 1.384 . S
C909 C908 1.377 . S
C909 C915 1.390 . S
C910 H901 0.930 . S
C910 C908 1.384 . S
C910 C911 1.372 . S
C911 C910 1.372 . S
C911 C912 1.400 . S
C911 C916 1.490 . S
C912 H902 0.930 1_565 S
C912 C911 1.400 . S
C912 C915 1.386 . S
H913 C929 0.930 . S
H914 C930 0.931 . S
C915 H903 0.929 1_565 S
C915 C909 1.390 . S
C915 C912 1.386 . S
C916 C911 1.490 . S
C916 C918 1.395 . S
C916 C919 1.403 . S
H917 C923 0.930 . S
C918 H904 0.930 . S
C918 C916 1.395 . S
C918 C921 1.403 . S
C919 C916 1.403 . S
C919 C920 1.524 . S
C919 C923 1.400 . S
C920 H905 0.960 . S
C920 H906 0.960 . S
C920 H907 0.960 . S
C920 C919 1.524 . S
C921 C918 1.403 . S
C921 C922 1.392 . S
C921 C925 1.495 . S
C922 C921 1.392 . S
C922 C923 1.385 . S
C922 C924 1.478 . S
C923 H917 0.930 . S
C923 C919 1.400 . S
C923 C922 1.385 . S
C924 C922 1.478 . S
C924 C926 1.381 . S
C924 C930 1.383 1_565 S
C925 C921 1.495 . S
C925 H931 0.959 . S
C925 H932 0.961 . S
C925 H933 0.960 . S
C926 C924 1.381 . S
C926 C927 1.394 . S
C926 H934 0.930 . S
C927 C926 1.394 . S
C927 C928 1.383 . S
C927 H935 0.929 . S
C928 C927 1.383 . S
C928 C929 1.377 1_565 S
C929 H913 0.930 . S
C929 C928 1.377 1_545 S
C929 C930 1.379 . S
C930 H914 0.931 . S
C930 C924 1.383 1_545 S
C930 C929 1.379 . S
H931 C925 0.959 . S
H932 C925 0.961 . S
H933 C925 0.960 . S
H934 C926 0.930 . S
H935 C927 0.929 . S
H936 C944 0.929 . S
H937 C946 0.930 . S
H938 C948 0.930 . S
H939 C951 0.929 . S
H940 C954 0.930 . S
H941 C956 0.960 . S
H942 C956 0.960 . S
H943 C956 0.960 . S
C944 H936 0.929 . S
C944 C945 1.377 . S
C944 C946 1.384 . S
C945 C944 1.377 . S
C945 C951 1.390 . S
C946 H937 0.930 . S
C946 C944 1.384 . S
C946 C947 1.372 . S
C947 C946 1.372 . S
C947 C948 1.400 . S
C947 C952 1.490 . S
C948 H938 0.930 . S
C948 C947 1.400 . S
C948 C951 1.386 . S
H949 C965 0.930 . S
H950 C966 0.931 . S
C951 H939 0.929 . S
C951 C945 1.390 . S
C951 C948 1.386 . S
C952 C947 1.490 . S
C952 C954 1.395 . S
C952 C955 1.403 . S
H953 C959 0.930 . S
C954 H940 0.930 . S
C954 C952 1.395 . S
C954 C957 1.403 . S
C955 C952 1.403 . S
C955 C956 1.524 . S
C955 C959 1.400 . S
C956 H941 0.960 . S
C956 H942 0.960 . S
C956 H943 0.960 . S
C956 C955 1.524 . S
C957 C954 1.403 . S
C957 C958 1.392 . S
C957 C961 1.495 . S
C958 C957 1.392 . S
C958 C959 1.385 . S
C958 C960 1.478 . S
C959 H953 0.930 . S
C959 C955 1.400 . S
C959 C958 1.385 . S
C960 C958 1.478 . S
C960 C962 1.381 . S
C960 C966 1.383 . S
C961 C957 1.495 . S
C961 H967 0.959 . S
C961 H968 0.961 . S
C961 H969 0.960 . S
C962 C960 1.381 . S
C962 C963 1.394 . S
C962 H970 0.930 . S
C963 C962 1.394 . S
C963 C964 1.383 . S
C963 H971 0.929 . S
C964 C963 1.383 . S
C964 C965 1.377 . S
C965 H949 0.930 . S
C965 C964 1.377 . S
C965 C966 1.379 . S
C966 H950 0.931 . S
C966 C960 1.383 . S
C966 C965 1.379 . S
H967 C961 0.959 . S
H968 C961 0.961 . S
H969 C961 0.960 . S
H970 C962 0.930 . S
H971 C963 0.929 . S
H972 C980 0.929 . S
H973 C982 0.930 . S
H974 C984 0.930 . S
H975 C987 0.929 . S
H976 C990 0.930 . S
H977 C992 0.960 . S
H978 C992 0.960 . S
H979 C992 0.960 . S
C980 H972 0.929 . S
C980 C981 1.377 . S
C980 C982 1.384 . S
C981 C980 1.377 . S
C981 C987 1.390 . S
C982 H973 0.930 . S
C982 C980 1.384 . S
C982 C983 1.372 . S
C983 C982 1.372 . S
C983 C984 1.400 . S
C983 C988 1.490 . S
C984 H974 0.930 . S
C984 C983 1.400 . S
C984 C987 1.386 . S
H985 C1001 0.930 . S
H986 C1002 0.931 . S
C987 H975 0.929 . S
C987 C981 1.390 . S
C987 C984 1.386 . S
C988 C983 1.490 . S
C988 C990 1.395 . S
C988 C991 1.403 . S
H989 C995 0.930 . S
C990 H976 0.930 . S
C990 C988 1.395 . S
C990 C993 1.403 . S
C991 C988 1.403 . S
C991 C992 1.524 . S
C991 C995 1.400 . S
C992 H977 0.960 . S
C992 H978 0.960 . S
C992 H979 0.960 . S
C992 C991 1.524 . S
C993 C990 1.403 . S
C993 C994 1.392 . S
C993 C997 1.495 . S
C994 C993 1.392 . S
C994 C995 1.385 . S
C994 C996 1.478 . S
C995 H989 0.930 . S
C995 C991 1.400 . S
C995 C994 1.385 . S
C996 C994 1.478 . S
C996 C998 1.381 . S
C996 C1002 1.383 . S
C997 C993 1.495 . S
C997 H1003 0.959 . S
C997 H1004 0.961 . S
C997 H1005 0.960 . S
C998 C996 1.381 . S
C998 C999 1.394 . S
C998 H1006 0.930 . S
C999 C998 1.394 . S
C999 C1000 1.383 . S
C999 H1007 0.929 . S
C1000 C999 1.383 . S
C1000 C1001 1.377 . S
C1001 H985 0.930 . S
C1001 C1000 1.377 . S
C1001 C1002 1.379 . S
C1002 H986 0.931 . S
C1002 C996 1.383 . S
C1002 C1001 1.379 . S
H1003 C997 0.959 . S
H1004 C997 0.961 . S
H1005 C997 0.960 . S
H1006 C998 0.930 . S
H1007 C999 0.929 . S
H1008 C1016 0.929 . S
H1009 C1018 0.930 . S
H1010 C1020 0.930 . S
H1011 C1023 0.929 . S
H1012 C1026 0.930 . S
H1013 C1028 0.960 . S
H1014 C1028 0.960 . S
H1015 C1028 0.960 . S
C1016 H1008 0.929 . S
C1016 C1017 1.377 . S
C1016 C1018 1.384 . S
C1017 C1016 1.377 . S
C1017 C1023 1.390 . S
C1018 H1009 0.930 . S
C1018 C1016 1.384 . S
C1018 C1019 1.372 . S
C1019 C1018 1.372 . S
C1019 C1020 1.400 . S
C1019 C1024 1.490 . S
C1020 H1010 0.930 . S
C1020 C1019 1.400 . S
C1020 C1023 1.386 . S
H1021 C1037 0.930 . S
H1022 C1038 0.931 . S
C1023 H1011 0.929 . S
C1023 C1017 1.390 . S
C1023 C1020 1.386 . S
C1024 C1019 1.490 . S
C1024 C1026 1.395 . S
C1024 C1027 1.403 . S
H1025 C1031 0.930 . S
C1026 H1012 0.930 . S
C1026 C1024 1.395 . S
C1026 C1029 1.403 . S
C1027 C1024 1.403 . S
C1027 C1028 1.524 . S
C1027 C1031 1.400 . S
C1028 H1013 0.960 . S
C1028 H1014 0.960 . S
C1028 H1015 0.960 . S
C1028 C1027 1.524 . S
C1029 C1026 1.403 . S
C1029 C1030 1.392 . S
C1029 C1033 1.495 . S
C1030 C1029 1.392 . S
C1030 C1031 1.385 . S
C1030 C1032 1.478 . S
C1031 H1025 0.930 . S
C1031 C1027 1.400 . S
C1031 C1030 1.385 . S
C1032 C1030 1.478 . S
C1032 C1034 1.381 . S
C1032 C1038 1.383 . S
C1033 C1029 1.495 . S
C1033 H1039 0.959 . S
C1033 H1040 0.961 . S
C1033 H1041 0.960 . S
C1034 C1032 1.381 . S
C1034 C1035 1.394 . S
C1034 H1042 0.930 . S
C1035 C1034 1.394 . S
C1035 C1036 1.383 . S
C1035 H1043 0.929 . S
C1036 C1035 1.383 . S
C1036 C1037 1.377 . S
C1037 H1021 0.930 . S
C1037 C1036 1.377 . S
C1037 C1038 1.379 . S
C1038 H1022 0.931 . S
C1038 C1032 1.383 . S
C1038 C1037 1.379 . S
H1039 C1033 0.959 . S
H1040 C1033 0.961 . S
H1041 C1033 0.960 . S
H1042 C1034 0.930 . S
H1043 C1035 0.929 . S
H1044 C1052 0.929 . S
H1045 C1054 0.930 . S
H1046 C1056 0.930 . S
H1047 C1059 0.929 . S
H1048 C1062 0.930 . S
H1049 C1064 0.960 . S
H1050 C1064 0.960 . S
H1051 C1064 0.960 . S
C1052 H1044 0.929 . S
C1052 C1053 1.377 . S
C1052 C1054 1.384 . S
C1053 C1052 1.377 . S
C1053 C1059 1.390 . S
C1054 H1045 0.930 . S
C1054 C1052 1.384 . S
C1054 C1055 1.372 . S
C1055 C1054 1.372 . S
C1055 C1056 1.400 . S
C1055 C1060 1.490 . S
C1056 H1046 0.930 . S
C1056 C1055 1.400 . S
C1056 C1059 1.386 . S
H1057 C1073 0.930 . S
H1058 C1074 0.931 . S
C1059 H1047 0.929 . S
C1059 C1053 1.390 . S
C1059 C1056 1.386 . S
C1060 C1055 1.490 . S
C1060 C1062 1.395 . S
C1060 C1063 1.403 . S
H1061 C1067 0.930 . S
C1062 H1048 0.930 . S
C1062 C1060 1.395 . S
C1062 C1065 1.403 . S
C1063 C1060 1.403 . S
C1063 C1064 1.524 . S
C1063 C1067 1.400 . S
C1064 H1049 0.960 . S
C1064 H1050 0.960 . S
C1064 H1051 0.960 . S
C1064 C1063 1.524 . S
C1065 C1062 1.403 . S
C1065 C1066 1.392 . S
C1065 C1069 1.495 . S
C1066 C1065 1.392 . S
C1066 C1067 1.385 . S
C1066 C1068 1.478 . S
C1067 H1061 0.930 . S
C1067 C1063 1.400 . S
C1067 C1066 1.385 . S
C1068 C1066 1.478 . S
C1068 C1070 1.381 . S
C1068 C1074 1.383 . S
C1069 C1065 1.495 . S
C1069 H1075 0.959 . S
C1069 H1076 0.961 . S
C1069 H1077 0.960 . S
C1070 C1068 1.381 . S
C1070 C1071 1.394 . S
C1070 H1078 0.930 . S
C1071 C1070 1.394 . S
C1071 C1072 1.383 . S
C1071 H1079 0.929 . S
C1072 C1071 1.383 . S
C1072 C1073 1.377 . S
C1073 H1057 0.930 . S
C1073 C1072 1.377 . S
C1073 C1074 1.379 . S
C1074 H1058 0.931 . S
C1074 C1068 1.383 . S
C1074 C1073 1.379 . S
H1075 C1069 0.959 . S
H1076 C1069 0.961 . S
H1077 C1069 0.960 . S
H1078 C1070 0.930 . S
H1079 C1071 0.929 . S
H1080 C1088 0.929 . S
H1081 C1090 0.930 . S
H1082 C1092 0.930 . S
H1083 C1095 0.929 . S
H1084 C1098 0.930 . S
H1085 C1100 0.960 . S
H1086 C1100 0.960 . S
H1087 C1100 0.960 . S
C1088 H1080 0.929 . S
C1088 C1089 1.377 . S
C1088 C1090 1.384 . S
C1089 C1088 1.377 . S
C1089 C1095 1.390 . S
C1090 H1081 0.930 . S
C1090 C1088 1.384 . S
C1090 C1091 1.372 . S
C1091 C1090 1.372 . S
C1091 C1092 1.400 . S
C1091 C1096 1.490 . S
C1092 H1082 0.930 . S
C1092 C1091 1.400 . S
C1092 C1095 1.386 . S
H1093 C1109 0.930 . S
H1094 C1110 0.931 . S
C1095 H1083 0.929 . S
C1095 C1089 1.390 . S
C1095 C1092 1.386 . S
C1096 C1091 1.490 . S
C1096 C1098 1.395 . S
C1096 C1099 1.403 . S
H1097 C1103 0.930 . S
C1098 H1084 0.930 . S
C1098 C1096 1.395 . S
C1098 C1101 1.403 . S
C1099 C1096 1.403 . S
C1099 C1100 1.524 . S
C1099 C1103 1.400 . S
C1100 H1085 0.960 . S
C1100 H1086 0.960 . S
C1100 H1087 0.960 . S
C1100 C1099 1.524 . S
C1101 C1098 1.403 . S
C1101 C1102 1.392 . S
C1101 C1105 1.495 . S
C1102 C1101 1.392 . S
C1102 C1103 1.385 . S
C1102 C1104 1.478 . S
C1103 H1097 0.930 . S
C1103 C1099 1.400 . S
C1103 C1102 1.385 . S
C1104 C1102 1.478 . S
C1104 C1106 1.381 . S
C1104 C1110 1.383 . S
C1105 C1101 1.495 . S
C1105 H1111 0.959 . S
C1105 H1112 0.961 . S
C1105 H1113 0.960 . S
C1106 C1104 1.381 . S
C1106 C1107 1.394 . S
C1106 H1114 0.930 . S
C1107 C1106 1.394 . S
C1107 C1108 1.383 . S
C1107 H1115 0.929 . S
C1108 C1107 1.383 . S
C1108 C1109 1.377 . S
C1109 H1093 0.930 . S
C1109 C1108 1.377 . S
C1109 C1110 1.379 . S
C1110 H1094 0.931 . S
C1110 C1104 1.383 . S
C1110 C1109 1.379 . S
H1111 C1105 0.959 . S
H1112 C1105 0.961 . S
H1113 C1105 0.960 . S
H1114 C1106 0.930 . S
H1115 C1107 0.929 . S
H1116 C1124 0.929 . S
H1117 C1126 0.930 . S
H1118 C1128 0.930 . S
H1119 C1131 0.929 . S
H1120 C1134 0.930 . S
H1121 C1136 0.960 . S
H1122 C1136 0.960 . S
H1123 C1136 0.960 . S
C1124 H1116 0.929 . S
C1124 C1125 1.377 . S
C1124 C1126 1.384 . S
C1125 C1124 1.377 . S
C1125 C1131 1.390 . S
C1126 H1117 0.930 . S
C1126 C1124 1.384 . S
C1126 C1127 1.372 . S
C1127 C1126 1.372 . S
C1127 C1128 1.400 . S
C1127 C1132 1.490 . S
C1128 H1118 0.930 . S
C1128 C1127 1.400 . S
C1128 C1131 1.386 . S
H1129 C1145 0.930 . S
H1130 C1146 0.931 . S
C1131 H1119 0.929 . S
C1131 C1125 1.390 . S
C1131 C1128 1.386 . S
C1132 C1127 1.490 . S
C1132 C1134 1.395 . S
C1132 C1135 1.403 . S
H1133 C1139 0.930 . S
C1134 H1120 0.930 . S
C1134 C1132 1.395 . S
C1134 C1137 1.403 . S
C1135 C1132 1.403 . S
C1135 C1136 1.524 . S
C1135 C1139 1.400 . S
C1136 H1121 0.960 . S
C1136 H1122 0.960 . S
C1136 H1123 0.960 . S
C1136 C1135 1.524 . S
C1137 C1134 1.403 . S
C1137 C1138 1.392 . S
C1137 C1141 1.495 . S
C1138 C1137 1.392 . S
C1138 C1139 1.385 . S
C1138 C1140 1.478 . S
C1139 H1133 0.930 . S
C1139 C1135 1.400 . S
C1139 C1138 1.385 . S
C1140 C1138 1.478 . S
C1140 C1142 1.381 . S
C1140 C1146 1.383 . S
C1141 C1137 1.495 . S
C1141 H1147 0.959 . S
C1141 H1148 0.961 . S
C1141 H1149 0.960 . S
C1142 C1140 1.381 . S
C1142 C1143 1.394 . S
C1142 H1150 0.930 . S
C1143 C1142 1.394 . S
C1143 C1144 1.383 . S
C1143 H1151 0.929 . S
C1144 C1143 1.383 . S
C1144 C1145 1.377 . S
C1145 H1129 0.930 . S
C1145 C1144 1.377 . S
C1145 C1146 1.379 . S
C1146 H1130 0.931 . S
C1146 C1140 1.383 . S
C1146 C1145 1.379 . S
H1147 C1141 0.959 . S
H1148 C1141 0.961 . S
H1149 C1141 0.960 . S
H1150 C1142 0.930 . S
H1151 C1143 0.929 . S
H1152 C1160 0.929 . S
H1153 C1162 0.930 . S
H1154 C1164 0.930 . S
H1155 C1167 0.929 . S
H1156 C1170 0.930 1_455 S
H1157 C1172 0.960 . S
H1158 C1172 0.960 . S
H1159 C1172 0.960 . S
C1160 H1152 0.929 . S
C1160 C1161 1.377 . S
C1160 C1162 1.384 . S
C1161 C1160 1.377 . S
C1161 C1167 1.390 . S
C1162 H1153 0.930 . S
C1162 C1160 1.384 . S
C1162 C1163 1.372 . S
C1163 C1162 1.372 . S
C1163 C1164 1.400 . S
C1163 C1168 1.490 . S
C1164 H1154 0.930 . S
C1164 C1163 1.400 . S
C1164 C1167 1.386 . S
H1165 C1181 0.930 . S
H1166 C1182 0.931 . S
C1167 H1155 0.929 . S
C1167 C1161 1.390 . S
C1167 C1164 1.386 . S
C1168 C1163 1.490 . S
C1168 C1170 1.395 . S
C1168 C1171 1.403 . S
H1169 C1175 0.930 . S
C1170 H1156 0.930 1_655 S
C1170 C1168 1.395 . S
C1170 C1173 1.399 . S
C1171 C1168 1.403 . S
C1171 C1172 1.524 . S
C1171 C1175 1.400 . S
C1172 H1157 0.960 . S
C1172 H1158 0.960 . S
C1172 H1159 0.960 . S
C1172 C1171 1.524 . S
C1173 C1170 1.399 . S
C1173 C1174 1.409 . S
C1173 C1177 1.483 1_655 S
C1174 C1173 1.409 . S
C1174 C1175 1.385 . S
C1174 C1176 1.478 . S
C1175 H1169 0.930 . S
C1175 C1171 1.400 . S
C1175 C1174 1.385 . S
C1176 C1174 1.478 . S
C1176 C1178 1.381 . S
C1176 C1182 1.383 1_655 S
C1177 C1173 1.483 1_455 S
C1177 H1183 0.959 . S
C1177 H1184 0.961 . S
C1177 H1185 0.960 . S
C1178 C1176 1.381 . S
C1178 C1179 1.394 . S
C1178 H1186 0.930 . S
C1179 C1178 1.394 . S
C1179 C1180 1.383 . S
C1179 H1187 0.929 . S
C1180 C1179 1.383 . S
C1180 C1181 1.377 1_655 S
C1181 H1165 0.930 . S
C1181 C1180 1.377 1_455 S
C1181 C1182 1.379 . S
C1182 H1166 0.931 . S
C1182 C1176 1.383 1_455 S
C1182 C1181 1.379 . S
H1183 C1177 0.959 . S
H1184 C1177 0.961 . S
H1185 C1177 0.960 . S
H1186 C1178 0.930 . S
H1187 C1179 0.929 . S
H1188 C1196 0.929 . S
H1189 C1198 0.930 . S
H1190 C1200 0.930 . S
H1191 C1203 0.929 . S
H1192 C1206 0.930 . S
H1193 C1208 0.960 . S
H1194 C1208 0.960 . S
H1195 C1208 0.960 . S
C1196 H1188 0.929 . S
C1196 C1197 1.377 . S
C1196 C1198 1.384 . S
C1197 C1196 1.377 . S
C1197 C1203 1.390 . S
C1198 H1189 0.930 . S
C1198 C1196 1.384 . S
C1198 C1199 1.372 . S
C1199 C1198 1.372 . S
C1199 C1200 1.400 . S
C1199 C1204 1.490 . S
C1200 H1190 0.930 . S
C1200 C1199 1.400 . S
C1200 C1203 1.386 . S
H1201 C1217 0.930 . S
H1202 C1218 0.931 . S
C1203 H1191 0.929 . S
C1203 C1197 1.390 . S
C1203 C1200 1.386 . S
C1204 C1199 1.490 . S
C1204 C1206 1.395 . S
C1204 C1207 1.403 . S
H1205 C1211 0.930 . S
C1206 H1192 0.930 . S
C1206 C1204 1.395 . S
C1206 C1209 1.403 . S
C1207 C1204 1.403 . S
C1207 C1208 1.524 . S
C1207 C1211 1.400 . S
C1208 H1193 0.960 . S
C1208 H1194 0.960 . S
C1208 H1195 0.960 . S
C1208 C1207 1.524 . S
C1209 C1206 1.403 . S
C1209 C1210 1.392 . S
C1209 C1213 1.495 . S
C1210 C1209 1.392 . S
C1210 C1211 1.385 . S
C1210 C1212 1.478 . S
C1211 H1205 0.930 . S
C1211 C1207 1.400 . S
C1211 C1210 1.385 . S
C1212 C1210 1.478 . S
C1212 C1214 1.381 . S
C1212 C1218 1.383 . S
C1213 C1209 1.495 . S
C1213 H1219 0.959 . S
C1213 H1220 0.961 . S
C1213 H1221 0.960 . S
C1214 C1212 1.381 . S
C1214 C1215 1.394 . S
C1214 H1222 0.930 . S
C1215 C1214 1.394 . S
C1215 C1216 1.383 . S
C1215 H1223 0.929 . S
C1216 C1215 1.383 . S
C1216 C1217 1.377 . S
C1217 H1201 0.930 . S
C1217 C1216 1.377 . S
C1217 C1218 1.379 . S
C1218 H1202 0.931 . S
C1218 C1212 1.383 . S
C1218 C1217 1.379 . S
H1219 C1213 0.959 . S
H1220 C1213 0.961 . S
H1221 C1213 0.960 . S
H1222 C1214 0.930 . S
H1223 C1215 0.929 . S
H1224 C1232 0.929 . S
H1225 C1234 0.930 . S
H1226 C1236 0.930 . S
H1227 C1239 0.929 . S
H1228 C1242 0.930 . S
H1229 C1244 0.960 . S
H1230 C1244 0.960 1_565 S
H1231 C1244 0.960 . S
C1232 H1224 0.929 . S
C1232 C1233 1.377 1_565 S
C1232 C1234 1.384 . S
C1233 C1232 1.377 1_545 S
C1233 C1239 1.390 . S
C1234 H1225 0.930 . S
C1234 C1232 1.384 . S
C1234 C1235 1.372 1_565 S
C1235 C1234 1.372 1_545 S
C1235 C1236 1.400 . S
C1235 C1240 1.490 . S
C1236 H1226 0.930 . S
C1236 C1235 1.400 . S
C1236 C1239 1.386 . S
H1237 C1253 0.930 . S
H1238 C1254 0.931 . S
C1239 H1227 0.929 . S
C1239 C1233 1.390 . S
C1239 C1236 1.386 . S
C1240 C1235 1.490 . S
C1240 C1242 1.395 . S
C1240 C1243 1.403 . S
H1241 C1247 0.930 . S
C1242 H1228 0.930 . S
C1242 C1240 1.395 . S
C1242 C1245 1.403 . S
C1243 C1240 1.403 . S
C1243 C1244 1.524 . S
C1243 C1247 1.400 . S
C1244 H1229 0.960 . S
C1244 H1230 0.960 1_545 S
C1244 H1231 0.960 . S
C1244 C1243 1.524 . S
C1245 C1242 1.403 . S
C1245 C1246 1.392 . S
C1245 C1249 1.495 . S
C1246 C1245 1.392 . S
C1246 C1247 1.385 . S
C1246 C1248 1.478 . S
C1247 H1241 0.930 . S
C1247 C1243 1.400 . S
C1247 C1246 1.385 . S
C1248 C1246 1.478 . S
C1248 C1250 1.381 . S
C1248 C1254 1.383 . S
C1249 C1245 1.495 . S
C1249 H1255 0.959 . S
C1249 H1256 0.961 . S
C1249 H1257 0.960 . S
C1250 C1248 1.381 . S
C1250 C1251 1.394 . S
C1250 H1258 0.930 1_545 S
C1251 C1250 1.394 . S
C1251 C1252 1.383 . S
C1251 H1259 0.929 1_545 S
C1252 C1251 1.383 . S
C1252 C1253 1.377 . S
C1253 H1237 0.930 . S
C1253 C1252 1.377 . S
C1253 C1254 1.379 . S
C1254 H1238 0.931 . S
C1254 C1248 1.383 . S
C1254 C1253 1.379 . S
H1255 C1249 0.959 . S
H1256 C1249 0.961 . S
H1257 C1249 0.960 . S
H1258 C1250 0.930 1_565 S
H1259 C1251 0.929 1_565 S
H1260 C1268 0.929 . S
H1261 C1270 0.930 . S
H1262 C1272 0.930 . S
H1263 C1275 0.929 . S
H1264 C1278 0.930 . S
H1265 C1280 0.960 . S
H1266 C1280 0.960 . S
H1267 C1280 0.960 . S
C1268 H1260 0.929 . S
C1268 C1269 1.377 . S
C1268 C1270 1.384 . S
C1269 C1268 1.377 . S
C1269 C1275 1.390 . S
C1270 H1261 0.930 . S
C1270 C1268 1.384 . S
C1270 C1271 1.372 . S
C1271 C1270 1.372 . S
C1271 C1272 1.400 . S
C1271 C1276 1.490 . S
C1272 H1262 0.930 . S
C1272 C1271 1.400 . S
C1272 C1275 1.386 . S
H1273 C1289 0.930 . S
H1274 C1290 0.931 . S
C1275 H1263 0.929 . S
C1275 C1269 1.390 . S
C1275 C1272 1.386 . S
C1276 C1271 1.490 . S
C1276 C1278 1.395 . S
C1276 C1279 1.403 . S
H1277 C1283 0.930 . S
C1278 H1264 0.930 . S
C1278 C1276 1.395 . S
C1278 C1281 1.403 . S
C1279 C1276 1.403 . S
C1279 C1280 1.524 . S
C1279 C1283 1.400 . S
C1280 H1265 0.960 . S
C1280 H1266 0.960 . S
C1280 H1267 0.960 . S
C1280 C1279 1.524 . S
C1281 C1278 1.403 . S
C1281 C1282 1.392 . S
C1281 C1285 1.495 . S
C1282 C1281 1.392 . S
C1282 C1283 1.385 . S
C1282 C1284 1.478 . S
C1283 H1277 0.930 . S
C1283 C1279 1.400 . S
C1283 C1282 1.385 . S
C1284 C1282 1.478 . S
C1284 C1286 1.381 . S
C1284 C1290 1.383 . S
C1285 C1281 1.495 . S
C1285 H1291 0.959 . S
C1285 H1292 0.961 . S
C1285 H1293 0.960 . S
C1286 C1284 1.381 . S
C1286 C1287 1.394 . S
C1286 H1294 0.930 . S
C1287 C1286 1.394 . S
C1287 C1288 1.383 . S
C1287 H1295 0.929 . S
C1288 C1287 1.383 . S
C1288 C1289 1.377 . S
C1289 H1273 0.930 . S
C1289 C1288 1.377 . S
C1289 C1290 1.379 . S
C1290 H1274 0.931 . S
C1290 C1284 1.383 . S
C1290 C1289 1.379 . S
H1291 C1285 0.959 . S
H1292 C1285 0.961 . S
H1293 C1285 0.960 . S
H1294 C1286 0.930 . S
H1295 C1287 0.929 . S
H1296 C1304 0.929 . S
H1297 C1306 0.930 . S
H1298 C1308 0.930 . S
H1299 C1311 0.929 . S
H1300 C1314 0.930 . S
H1301 C1316 0.960 . S
H1302 C1316 0.960 . S
H1303 C1316 0.960 1_545 S
C1304 H1296 0.929 . S
C1304 C1305 1.377 1_565 S
C1304 C1306 1.384 . S
C1305 C1304 1.377 1_545 S
C1305 C1311 1.390 . S
C1306 H1297 0.930 . S
C1306 C1304 1.384 . S
C1306 C1307 1.409 . S
C1307 C1306 1.409 . S
C1307 C1308 1.377 1_565 S
C1307 C1312 1.476 . S
C1308 H1298 0.930 . S
C1308 C1307 1.377 1_545 S
C1308 C1311 1.386 . S
H1309 C1325 0.930 . S
H1310 C1326 0.931 . S
C1311 H1299 0.929 . S
C1311 C1305 1.390 . S
C1311 C1308 1.386 . S
C1312 C1307 1.476 . S
C1312 C1314 1.395 1_565 S
C1312 C1315 1.403 . S
H1313 C1319 0.930 . S
C1314 H1300 0.930 . S
C1314 C1312 1.395 1_545 S
C1314 C1317 1.403 . S
C1315 C1312 1.403 . S
C1315 C1316 1.524 . S
C1315 C1319 1.400 . S
C1316 H1301 0.960 . S
C1316 H1302 0.960 . S
C1316 H1303 0.960 1_565 S
C1316 C1315 1.524 . S
C1317 C1314 1.403 . S
C1317 C1318 1.392 1_545 S
C1317 C1321 1.495 . S
C1318 C1317 1.392 1_565 S
C1318 C1319 1.385 . S
C1318 C1320 1.478 . S
C1319 H1313 0.930 . S
C1319 C1315 1.400 . S
C1319 C1318 1.385 . S
C1320 C1318 1.478 . S
C1320 C1322 1.381 . S
C1320 C1326 1.383 1_565 S
C1321 C1317 1.495 . S
C1321 H1327 0.959 . S
C1321 H1328 0.961 . S
C1321 H1329 0.960 1_545 S
C1322 C1320 1.381 . S
C1322 C1323 1.394 . S
C1322 H1330 0.930 . S
C1323 C1322 1.394 . S
C1323 C1324 1.383 . S
C1323 H1331 0.929 . S
C1324 C1323 1.383 . S
C1324 C1325 1.377 1_565 S
C1325 H1309 0.930 . S
C1325 C1324 1.377 1_545 S
C1325 C1326 1.379 . S
C1326 H1310 0.931 . S
C1326 C1320 1.383 1_545 S
C1326 C1325 1.379 . S
H1327 C1321 0.959 . S
H1328 C1321 0.961 . S
H1329 C1321 0.960 1_565 S
H1330 C1322 0.930 . S
H1331 C1323 0.929 . S
H1332 C1340 0.929 . S
H1333 C1342 0.930 . S
H1334 C1344 0.930 . S
H1335 C1347 0.929 . S
H1336 C1350 0.930 . S
H1337 C1352 0.960 . S
H1338 C1352 0.960 . S
H1339 C1352 0.960 . S
C1340 H1332 0.929 . S
C1340 C1341 1.377 . S
C1340 C1342 1.384 . S
C1341 C1340 1.377 . S
C1341 C1347 1.390 1_455 S
C1342 H1333 0.930 . S
C1342 C1340 1.384 . S
C1342 C1343 1.372 . S
C1343 C1342 1.372 . S
C1343 C1344 1.400 1_455 S
C1343 C1348 1.490 . S
C1344 H1334 0.930 . S
C1344 C1343 1.400 1_655 S
C1344 C1347 1.386 . S
H1345 C1361 0.930 . S
H1346 C1362 0.931 . S
C1347 H1335 0.929 . S
C1347 C1341 1.390 1_655 S
C1347 C1344 1.386 . S
C1348 C1343 1.490 . S
C1348 C1350 1.395 . S
C1348 C1351 1.403 1_455 S
H1349 C1355 0.930 . S
C1350 H1336 0.930 . S
C1350 C1348 1.395 . S
C1350 C1353 1.403 . S
C1351 C1348 1.403 1_655 S
C1351 C1352 1.524 . S
C1351 C1355 1.400 . S
C1352 H1337 0.960 . S
C1352 H1338 0.960 . S
C1352 H1339 0.960 . S
C1352 C1351 1.524 . S
C1353 C1350 1.403 . S
C1353 C1354 1.392 . S
C1353 C1357 1.495 . S
C1354 C1353 1.392 . S
C1354 C1355 1.385 1_455 S
C1354 C1356 1.478 . S
C1355 H1349 0.930 . S
C1355 C1351 1.400 . S
C1355 C1354 1.385 1_655 S
C1356 C1354 1.478 . S
C1356 C1358 1.381 . S
C1356 C1362 1.383 1_455 S
C1357 C1353 1.495 . S
C1357 H1363 0.959 . S
C1357 H1364 0.961 . S
C1357 H1365 0.960 . S
C1358 C1356 1.381 . S
C1358 C1359 1.394 . S
C1358 H1366 0.930 . S
C1359 C1358 1.394 . S
C1359 C1360 1.368 1_455 S
C1359 H1367 0.929 . S
C1360 C1359 1.368 1_655 S
C1360 C1361 1.381 . S
C1361 H1345 0.930 . S
C1361 C1360 1.381 . S
C1361 C1362 1.379 . S
C1362 H1346 0.931 . S
C1362 C1356 1.383 1_655 S
C1362 C1361 1.379 . S
H1363 C1357 0.959 . S
H1364 C1357 0.961 . S
H1365 C1357 0.960 . S
H1366 C1358 0.930 . S
H1367 C1359 0.929 . S
H1368 C1376 0.929 . S
H1369 C1378 0.930 . S
H1370 C1380 0.930 . S
H1371 C1383 0.929 . S
H1372 C1386 0.930 . S
H1373 C1388 0.960 . S
H1374 C1388 0.960 . S
H1375 C1388 0.960 . S
C1376 H1368 0.929 . S
C1376 C1377 1.377 . S
C1376 C1378 1.384 . S
C1377 C1376 1.377 . S
C1377 C1383 1.390 . S
C1378 H1369 0.930 . S
C1378 C1376 1.384 . S
C1378 C1379 1.372 . S
C1379 C1378 1.372 . S
C1379 C1380 1.400 . S
C1379 C1384 1.490 . S
C1380 H1370 0.930 . S
C1380 C1379 1.400 . S
C1380 C1383 1.386 . S
H1381 C1397 0.930 . S
H1382 C1398 0.931 . S
C1383 H1371 0.929 . S
C1383 C1377 1.390 . S
C1383 C1380 1.386 . S
C1384 C1379 1.490 . S
C1384 C1386 1.395 . S
C1384 C1387 1.403 . S
H1385 C1391 0.930 . S
C1386 H1372 0.930 . S
C1386 C1384 1.395 . S
C1386 C1389 1.403 . S
C1387 C1384 1.403 . S
C1387 C1388 1.524 . S
C1387 C1391 1.400 . S
C1388 H1373 0.960 . S
C1388 H1374 0.960 . S
C1388 H1375 0.960 . S
C1388 C1387 1.524 . S
C1389 C1386 1.403 . S
C1389 C1390 1.392 . S
C1389 C1393 1.495 . S
C1390 C1389 1.392 . S
C1390 C1391 1.385 . S
C1390 C1392 1.478 . S
C1391 H1385 0.930 . S
C1391 C1387 1.400 . S
C1391 C1390 1.385 . S
C1392 C1390 1.478 . S
C1392 C1394 1.381 . S
C1392 C1398 1.383 . S
C1393 C1389 1.495 . S
C1393 H1399 0.959 . S
C1393 H1400 0.961 . S
C1393 H1401 0.960 . S
C1394 C1392 1.381 . S
C1394 C1395 1.394 . S
C1394 H1402 0.930 . S
C1395 C1394 1.394 . S
C1395 C1396 1.383 . S
C1395 H1403 0.929 . S
C1396 C1395 1.383 . S
C1396 C1397 1.377 . S
C1397 H1381 0.930 . S
C1397 C1396 1.377 . S
C1397 C1398 1.379 . S
C1398 H1382 0.931 . S
C1398 C1392 1.383 . S
C1398 C1397 1.379 . S
H1399 C1393 0.959 . S
H1400 C1393 0.961 . S
H1401 C1393 0.960 . S
H1402 C1394 0.930 . S
H1403 C1395 0.929 . S
H1404 C1412 0.929 . S
H1405 C1414 0.930 . S
H1406 C1416 0.930 . S
H1407 C1419 0.929 . S
H1408 C1422 0.930 . S
H1409 C1424 0.960 . S
H1410 C1424 0.960 . S
H1411 C1424 0.960 . S
C1412 H1404 0.929 . S
C1412 C1413 1.377 . S
C1412 C1414 1.384 . S
C1413 C1412 1.377 . S
C1413 C1419 1.390 1_545 S
C1414 H1405 0.930 . S
C1414 C1412 1.384 . S
C1414 C1415 1.372 . S
C1415 C1414 1.372 . S
C1415 C1416 1.400 1_545 S
C1415 C1420 1.490 . S
C1416 H1406 0.930 . S
C1416 C1415 1.400 1_565 S
C1416 C1419 1.386 . S
H1417 C1433 0.930 . S
H1418 C1434 0.931 . S
C1419 H1407 0.929 . S
C1419 C1413 1.390 1_565 S
C1419 C1416 1.386 . S
C1420 C1415 1.490 . S
C1420 C1422 1.395 1_545 S
C1420 C1423 1.403 . S
H1421 C1427 0.930 . S
C1422 H1408 0.930 . S
C1422 C1420 1.395 1_565 S
C1422 C1425 1.403 . S
C1423 C1420 1.403 . S
C1423 C1424 1.524 . S
C1423 C1427 1.400 . S
C1424 H1409 0.960 . S
C1424 H1410 0.960 . S
C1424 H1411 0.960 . S
C1424 C1423 1.524 . S
C1425 C1422 1.403 . S
C1425 C1426 1.392 . S
C1425 C1429 1.495 . S
C1426 C1425 1.392 . S
C1426 C1427 1.385 1_565 S
C1426 C1428 1.478 . S
C1427 H1421 0.930 . S
C1427 C1423 1.400 . S
C1427 C1426 1.385 1_545 S
C1428 C1426 1.478 . S
C1428 C1430 1.381 1_565 S
C1428 C1434 1.383 . S
C1429 C1425 1.495 . S
C1429 H1435 0.959 . S
C1429 H1436 0.961 . S
C1429 H1437 0.960 . S
C1430 C1428 1.381 1_545 S
C1430 C1431 1.394 . S
C1430 H1438 0.930 . S
C1431 C1430 1.394 . S
C1431 C1432 1.383 1_545 S
C1431 H1439 0.929 . S
C1432 C1431 1.383 1_565 S
C1432 C1433 1.377 . S
C1433 H1417 0.930 . S
C1433 C1432 1.377 . S
C1433 C1434 1.379 . S
C1434 H1418 0.931 . S
C1434 C1428 1.383 . S
C1434 C1433 1.379 . S
H1435 C1429 0.959 . S
H1436 C1429 0.961 . S
H1437 C1429 0.960 . S
H1438 C1430 0.930 . S
H1439 C1431 0.929 . S
H1440 C1448 0.929 . S
H1441 C1450 0.930 . S
H1442 C1452 0.930 . S
H1443 C1455 0.929 . S
H1444 C1458 0.930 . S
H1445 C1460 0.960 . S
H1446 C1460 0.960 . S
H1447 C1460 0.960 . S
C1448 H1440 0.929 . S
C1448 C1449 1.377 . S
C1448 C1450 1.384 . S
C1449 C1448 1.377 . S
C1449 C1455 1.390 1_655 S
C1450 H1441 0.930 . S
C1450 C1448 1.384 . S
C1450 C1451 1.372 . S
C1451 C1450 1.372 . S
C1451 C1452 1.400 1_655 S
C1451 C1456 1.490 . S
C1452 H1442 0.930 . S
C1452 C1451 1.400 1_455 S
C1452 C1455 1.386 . S
H1453 C1469 0.930 . S
H1454 C1470 0.931 . S
C1455 H1443 0.929 . S
C1455 C1449 1.390 1_455 S
C1455 C1452 1.386 . S
C1456 C1451 1.490 . S
C1456 C1458 1.395 . S
C1456 C1459 1.403 1_655 S
H1457 C1463 0.930 . S
C1458 H1444 0.930 . S
C1458 C1456 1.395 . S
C1458 C1461 1.403 . S
C1459 C1456 1.403 1_455 S
C1459 C1460 1.524 . S
C1459 C1463 1.400 . S
C1460 H1445 0.960 . S
C1460 H1446 0.960 . S
C1460 H1447 0.960 . S
C1460 C1459 1.524 . S
C1461 C1458 1.403 . S
C1461 C1462 1.392 . S
C1461 C1465 1.495 . S
C1462 C1461 1.392 . S
C1462 C1463 1.385 1_655 S
C1462 C1464 1.478 . S
C1463 H1457 0.930 . S
C1463 C1459 1.400 . S
C1463 C1462 1.385 1_455 S
C1464 C1462 1.478 . S
C1464 C1466 1.381 . S
C1464 C1470 1.383 1_655 S
C1465 C1461 1.495 . S
C1465 H1471 0.959 . S
C1465 H1472 0.961 . S
C1465 H1473 0.960 . S
C1466 C1464 1.381 . S
C1466 C1467 1.394 . S
C1466 H1474 0.930 . S
C1467 C1466 1.394 . S
C1467 C1468 1.383 1_655 S
C1467 H1475 0.929 . S
C1468 C1467 1.383 1_455 S
C1468 C1469 1.377 . S
C1469 H1453 0.930 . S
C1469 C1468 1.377 . S
C1469 C1470 1.379 . S
C1470 H1454 0.931 . S
C1470 C1464 1.383 1_455 S
C1470 C1469 1.379 . S
H1471 C1465 0.959 . S
H1472 C1465 0.961 . S
H1473 C1465 0.960 . S
H1474 C1466 0.930 . S
H1475 C1467 0.929 . S
H1476 C1484 0.929 . S
H1477 C1486 0.930 . S
H1478 C1488 0.930 . S
H1479 C1491 0.929 . S
H1480 C1494 0.930 . S
H1481 C1496 0.960 . S
H1482 C1496 0.960 . S
H1483 C1496 0.960 . S
C1484 H1476 0.929 . S
C1484 C1485 1.377 . S
C1484 C1486 1.384 . S
C1485 C1484 1.377 . S
C1485 C1491 1.390 . S
C1486 H1477 0.930 . S
C1486 C1484 1.384 . S
C1486 C1487 1.372 . S
C1487 C1486 1.372 . S
C1487 C1488 1.400 . S
C1487 C1492 1.490 . S
C1488 H1478 0.930 . S
C1488 C1487 1.400 . S
C1488 C1491 1.386 . S
H1489 C1505 0.930 . S
H1490 C1506 0.931 . S
C1491 H1479 0.929 . S
C1491 C1485 1.390 . S
C1491 C1488 1.386 . S
C1492 C1487 1.490 . S
C1492 C1494 1.395 . S
C1492 C1495 1.403 . S
H1493 C1499 0.930 . S
C1494 H1480 0.930 . S
C1494 C1492 1.395 . S
C1494 C1497 1.403 . S
C1495 C1492 1.403 . S
C1495 C1496 1.524 . S
C1495 C1499 1.400 . S
C1496 H1481 0.960 . S
C1496 H1482 0.960 . S
C1496 H1483 0.960 . S
C1496 C1495 1.524 . S
C1497 C1494 1.403 . S
C1497 C1498 1.392 . S
C1497 C1501 1.495 . S
C1498 C1497 1.392 . S
C1498 C1499 1.385 . S
C1498 C1500 1.478 . S
C1499 H1493 0.930 . S
C1499 C1495 1.400 . S
C1499 C1498 1.385 . S
C1500 C1498 1.478 . S
C1500 C1502 1.381 . S
C1500 C1506 1.383 . S
C1501 C1497 1.495 . S
C1501 H1507 0.959 . S
C1501 H1508 0.961 . S
C1501 H1509 0.960 . S
C1502 C1500 1.381 . S
C1502 C1503 1.394 . S
C1502 H1510 0.930 . S
C1503 C1502 1.394 . S
C1503 C1504 1.383 . S
C1503 H1511 0.929 . S
C1504 C1503 1.383 . S
C1504 C1505 1.377 . S
C1505 H1489 0.930 . S
C1505 C1504 1.377 . S
C1505 C1506 1.379 . S
C1506 H1490 0.931 . S
C1506 C1500 1.383 . S
C1506 C1505 1.379 . S
H1507 C1501 0.959 . S
H1508 C1501 0.961 . S
H1509 C1501 0.960 . S
H1510 C1502 0.930 . S
H1511 C1503 0.929 . S
H1512 C1520 0.929 . S
H1513 C1522 0.930 . S
H1514 C1524 0.930 . S
H1515 C1527 0.929 . S
H1516 C1530 0.930 . S
H1517 C1532 0.960 . S
H1518 C1532 0.960 . S
H1519 C1532 0.960 . S
C1520 H1512 0.929 . S
C1520 C1521 1.377 . S
C1520 C1522 1.384 . S
C1521 C1520 1.377 . S
C1521 C1527 1.390 . S
C1522 H1513 0.930 . S
C1522 C1520 1.384 . S
C1522 C1523 1.372 . S
C1523 C1522 1.372 . S
C1523 C1524 1.400 . S
C1523 C1528 1.490 . S
C1524 H1514 0.930 . S
C1524 C1523 1.400 . S
C1524 C1527 1.386 . S
H1525 C1541 0.930 . S
H1526 C1542 0.931 . S
C1527 H1515 0.929 . S
C1527 C1521 1.390 . S
C1527 C1524 1.386 . S
C1528 C1523 1.490 . S
C1528 C1530 1.395 . S
C1528 C1531 1.403 . S
H1529 C1535 0.930 . S
C1530 H1516 0.930 . S
C1530 C1528 1.395 . S
C1530 C1533 1.403 . S
C1531 C1528 1.403 . S
C1531 C1532 1.524 . S
C1531 C1535 1.400 . S
C1532 H1517 0.960 . S
C1532 H1518 0.960 . S
C1532 H1519 0.960 . S
C1532 C1531 1.524 . S
C1533 C1530 1.403 . S
C1533 C1534 1.392 . S
C1533 C1537 1.495 . S
C1534 C1533 1.392 . S
C1534 C1535 1.385 . S
C1534 C1536 1.478 . S
C1535 H1529 0.930 . S
C1535 C1531 1.400 . S
C1535 C1534 1.385 . S
C1536 C1534 1.478 . S
C1536 C1538 1.381 . S
C1536 C1542 1.383 . S
C1537 C1533 1.495 . S
C1537 H1543 0.959 . S
C1537 H1544 0.961 . S
C1537 H1545 0.960 . S
C1538 C1536 1.381 . S
C1538 C1539 1.394 . S
C1538 H1546 0.930 . S
C1539 C1538 1.394 . S
C1539 C1540 1.383 . S
C1539 H1547 0.929 . S
C1540 C1539 1.383 . S
C1540 C1541 1.377 . S
C1541 H1525 0.930 . S
C1541 C1540 1.377 . S
C1541 C1542 1.379 . S
C1542 H1526 0.931 . S
C1542 C1536 1.383 . S
C1542 C1541 1.379 . S
H1543 C1537 0.959 . S
H1544 C1537 0.961 . S
H1545 C1537 0.960 . S
H1546 C1538 0.930 . S
H1547 C1539 0.929 . S
H1548 C1556 0.929 . S
H1549 C1558 0.930 . S
H1550 C1560 0.930 . S
H1551 C1563 0.929 . S
H1552 C1566 0.930 . S
H1553 C1568 0.960 . S
H1554 C1568 0.960 . S
H1555 C1568 0.960 . S
C1556 H1548 0.929 . S
C1556 C1557 1.377 . S
C1556 C1558 1.384 . S
C1557 C1556 1.377 . S
C1557 C1563 1.390 . S
C1558 H1549 0.930 . S
C1558 C1556 1.384 . S
C1558 C1559 1.372 . S
C1559 C1558 1.372 . S
C1559 C1560 1.400 . S
C1559 C1564 1.490 . S
C1560 H1550 0.930 . S
C1560 C1559 1.400 . S
C1560 C1563 1.386 . S
H1561 C1577 0.930 . S
H1562 C1578 0.931 . S
C1563 H1551 0.929 . S
C1563 C1557 1.390 . S
C1563 C1560 1.386 . S
C1564 C1559 1.490 . S
C1564 C1566 1.395 . S
C1564 C1567 1.403 . S
H1565 C1571 0.930 . S
C1566 H1552 0.930 . S
C1566 C1564 1.395 . S
C1566 C1569 1.403 . S
C1567 C1564 1.403 . S
C1567 C1568 1.524 . S
C1567 C1571 1.400 . S
C1568 H1553 0.960 . S
C1568 H1554 0.960 . S
C1568 H1555 0.960 . S
C1568 C1567 1.524 . S
C1569 C1566 1.403 . S
C1569 C1570 1.392 . S
C1569 C1573 1.495 . S
C1570 C1569 1.392 . S
C1570 C1571 1.385 . S
C1570 C1572 1.478 . S
C1571 H1565 0.930 . S
C1571 C1567 1.400 . S
C1571 C1570 1.385 . S
C1572 C1570 1.478 . S
C1572 C1574 1.381 . S
C1572 C1578 1.383 . S
C1573 C1569 1.495 . S
C1573 H1579 0.959 . S
C1573 H1580 0.961 . S
C1573 H1581 0.960 . S
C1574 C1572 1.381 . S
C1574 C1575 1.394 . S
C1574 H1582 0.930 . S
C1575 C1574 1.394 . S
C1575 C1576 1.383 . S
C1575 H1583 0.929 . S
C1576 C1575 1.383 . S
C1576 C1577 1.377 . S
C1577 H1561 0.930 . S
C1577 C1576 1.377 . S
C1577 C1578 1.379 . S
C1578 H1562 0.931 . S
C1578 C1572 1.383 . S
C1578 C1577 1.379 . S
H1579 C1573 0.959 . S
H1580 C1573 0.961 . S
H1581 C1573 0.960 . S
H1582 C1574 0.930 . S
H1583 C1575 0.929 . S
H1584 C1592 0.929 . S
H1585 C1594 0.930 . S
H1586 C1596 0.930 . S
H1587 C1599 0.929 . S
H1588 C1602 0.930 . S
H1589 C1604 0.960 . S
H1590 C1604 0.960 . S
H1591 C1604 0.960 . S
C1592 H1584 0.929 . S
C1592 C1593 1.377 . S
C1592 C1594 1.384 . S
C1593 C1592 1.377 . S
C1593 C1599 1.390 . S
C1594 H1585 0.930 . S
C1594 C1592 1.384 . S
C1594 C1595 1.372 . S
C1595 C1594 1.372 . S
C1595 C1596 1.400 . S
C1595 C1600 1.490 . S
C1596 H1586 0.930 . S
C1596 C1595 1.400 . S
C1596 C1599 1.386 . S
H1597 C1613 0.930 . S
H1598 C1614 0.931 . S
C1599 H1587 0.929 . S
C1599 C1593 1.390 . S
C1599 C1596 1.386 . S
C1600 C1595 1.490 . S
C1600 C1602 1.395 . S
C1600 C1603 1.403 . S
H1601 C1607 0.930 . S
C1602 H1588 0.930 . S
C1602 C1600 1.395 . S
C1602 C1605 1.403 . S
C1603 C1600 1.403 . S
C1603 C1604 1.524 . S
C1603 C1607 1.400 . S
C1604 H1589 0.960 . S
C1604 H1590 0.960 . S
C1604 H1591 0.960 . S
C1604 C1603 1.524 . S
C1605 C1602 1.403 . S
C1605 C1606 1.392 . S
C1605 C1609 1.495 . S
C1606 C1605 1.392 . S
C1606 C1607 1.385 . S
C1606 C1608 1.478 . S
C1607 H1601 0.930 . S
C1607 C1603 1.400 . S
C1607 C1606 1.385 . S
C1608 C1606 1.478 . S
C1608 C1610 1.381 . S
C1608 C1614 1.383 . S
C1609 C1605 1.495 . S
C1609 H1615 0.959 . S
C1609 H1616 0.961 . S
C1609 H1617 0.960 . S
C1610 C1608 1.381 . S
C1610 C1611 1.394 . S
C1610 H1618 0.930 . S
C1611 C1610 1.394 . S
C1611 C1612 1.383 . S
C1611 H1619 0.929 . S
C1612 C1611 1.383 . S
C1612 C1613 1.377 . S
C1613 H1597 0.930 . S
C1613 C1612 1.377 . S
C1613 C1614 1.379 . S
C1614 H1598 0.931 . S
C1614 C1608 1.383 . S
C1614 C1613 1.379 . S
H1615 C1609 0.959 . S
H1616 C1609 0.961 . S
H1617 C1609 0.960 . S
H1618 C1610 0.930 . S
H1619 C1611 0.929 . S
H1620 C1628 0.929 . S
H1621 C1630 0.930 . S
H1622 C1632 0.930 . S
H1623 C1635 0.929 . S
H1624 C1638 0.930 . S
H1625 C1640 0.960 . S
H1626 C1640 0.960 . S
H1627 C1640 0.960 . S
C1628 H1620 0.929 . S
C1628 C1629 1.377 . S
C1628 C1630 1.384 . S
C1629 C1628 1.377 . S
C1629 C1635 1.390 . S
C1630 H1621 0.930 . S
C1630 C1628 1.384 . S
C1630 C1631 1.372 . S
C1631 C1630 1.372 . S
C1631 C1632 1.400 . S
C1631 C1636 1.490 . S
C1632 H1622 0.930 . S
C1632 C1631 1.400 . S
C1632 C1635 1.386 . S
H1633 C1649 0.930 . S
H1634 C1650 0.931 . S
C1635 H1623 0.929 . S
C1635 C1629 1.390 . S
C1635 C1632 1.386 . S
C1636 C1631 1.490 . S
C1636 C1638 1.395 . S
C1636 C1639 1.403 . S
H1637 C1643 0.930 . S
C1638 H1624 0.930 . S
C1638 C1636 1.395 . S
C1638 C1641 1.403 . S
C1639 C1636 1.403 . S
C1639 C1640 1.524 . S
C1639 C1643 1.400 . S
C1640 H1625 0.960 . S
C1640 H1626 0.960 . S
C1640 H1627 0.960 . S
C1640 C1639 1.524 . S
C1641 C1638 1.403 . S
C1641 C1642 1.392 . S
C1641 C1645 1.495 . S
C1642 C1641 1.392 . S
C1642 C1643 1.385 . S
C1642 C1644 1.478 . S
C1643 H1637 0.930 . S
C1643 C1639 1.400 . S
C1643 C1642 1.385 . S
C1644 C1642 1.478 . S
C1644 C1646 1.381 . S
C1644 C1650 1.383 . S
C1645 C1641 1.495 . S
C1645 H1651 0.959 . S
C1645 H1652 0.961 . S
C1645 H1653 0.960 . S
C1646 C1644 1.381 . S
C1646 C1647 1.394 . S
C1646 H1654 0.930 . S
C1647 C1646 1.394 . S
C1647 C1648 1.383 . S
C1647 H1655 0.929 . S
C1648 C1647 1.383 . S
C1648 C1649 1.377 . S
C1649 H1633 0.930 . S
C1649 C1648 1.377 . S
C1649 C1650 1.379 . S
C1650 H1634 0.931 . S
C1650 C1644 1.383 . S
C1650 C1649 1.379 . S
H1651 C1645 0.959 . S
H1652 C1645 0.961 . S
H1653 C1645 0.960 . S
H1654 C1646 0.930 . S
H1655 C1647 0.929 . S
H1656 C1664 0.929 . S
H1657 C1666 0.930 . S
H1658 C1668 0.930 . S
H1659 C1671 0.929 . S
H1660 C1674 0.930 . S
H1661 C1676 0.960 . S
H1662 C1676 0.960 . S
H1663 C1676 0.960 . S
C1664 H1656 0.929 . S
C1664 C1665 1.377 . S
C1664 C1666 1.384 . S
C1665 C1664 1.377 . S
C1665 C1671 1.390 . S
C1666 H1657 0.930 . S
C1666 C1664 1.384 . S
C1666 C1667 1.372 . S
C1667 C1666 1.372 . S
C1667 C1668 1.400 . S
C1667 C1672 1.490 . S
C1668 H1658 0.930 . S
C1668 C1667 1.400 . S
C1668 C1671 1.386 . S
H1669 C1685 0.930 . S
H1670 C1686 0.931 . S
C1671 H1659 0.929 . S
C1671 C1665 1.390 . S
C1671 C1668 1.386 . S
C1672 C1667 1.490 . S
C1672 C1674 1.395 . S
C1672 C1675 1.403 . S
H1673 C1679 0.930 . S
C1674 H1660 0.930 . S
C1674 C1672 1.395 . S
C1674 C1677 1.403 . S
C1675 C1672 1.403 . S
C1675 C1676 1.524 . S
C1675 C1679 1.400 . S
C1676 H1661 0.960 . S
C1676 H1662 0.960 . S
C1676 H1663 0.960 . S
C1676 C1675 1.524 . S
C1677 C1674 1.403 . S
C1677 C1678 1.392 . S
C1677 C1681 1.495 . S
C1678 C1677 1.392 . S
C1678 C1679 1.385 . S
C1678 C1680 1.478 . S
C1679 H1673 0.930 . S
C1679 C1675 1.400 . S
C1679 C1678 1.385 . S
C1680 C1678 1.478 . S
C1680 C1682 1.381 . S
C1680 C1686 1.383 . S
C1681 C1677 1.495 . S
C1681 H1687 0.959 . S
C1681 H1688 0.961 . S
C1681 H1689 0.960 . S
C1682 C1680 1.381 . S
C1682 C1683 1.394 . S
C1682 H1690 0.930 . S
C1683 C1682 1.394 . S
C1683 C1684 1.383 . S
C1683 H1691 0.929 . S
C1684 C1683 1.383 . S
C1684 C1685 1.377 . S
C1685 H1669 0.930 . S
C1685 C1684 1.377 . S
C1685 C1686 1.379 . S
C1686 H1670 0.931 . S
C1686 C1680 1.383 . S
C1686 C1685 1.379 . S
H1687 C1681 0.959 . S
H1688 C1681 0.961 . S
H1689 C1681 0.960 . S
H1690 C1682 0.930 . S
H1691 C1683 0.929 . S
H1692 C1700 0.929 . S
H1693 C1702 0.930 . S
H1694 C1704 0.930 . S
H1695 C1707 0.929 . S
H1696 C1710 0.930 . S
H1697 C1712 0.960 . S
H1698 C1712 0.960 . S
H1699 C1712 0.960 . S
C1700 H1692 0.929 . S
C1700 C1701 1.377 . S
C1700 C1702 1.384 . S
C1701 C1700 1.377 . S
C1701 C1707 1.390 . S
C1702 H1693 0.930 . S
C1702 C1700 1.384 . S
C1702 C1703 1.372 . S
C1703 C1702 1.372 . S
C1703 C1704 1.400 . S
C1703 C1708 1.490 . S
C1704 H1694 0.930 . S
C1704 C1703 1.400 . S
C1704 C1707 1.386 . S
H1705 C1721 0.930 . S
H1706 C1722 0.931 . S
C1707 H1695 0.929 . S
C1707 C1701 1.390 . S
C1707 C1704 1.386 . S
C1708 C1703 1.490 . S
C1708 C1710 1.395 . S
C1708 C1711 1.403 . S
H1709 C1715 0.930 . S
C1710 H1696 0.930 . S
C1710 C1708 1.395 . S
C1710 C1713 1.403 . S
C1711 C1708 1.403 . S
C1711 C1712 1.524 . S
C1711 C1715 1.400 . S
C1712 H1697 0.960 . S
C1712 H1698 0.960 . S
C1712 H1699 0.960 . S
C1712 C1711 1.524 . S
C1713 C1710 1.403 . S
C1713 C1714 1.392 . S
C1713 C1717 1.495 . S
C1714 C1713 1.392 . S
C1714 C1715 1.385 . S
C1714 C1716 1.478 . S
C1715 H1709 0.930 . S
C1715 C1711 1.400 . S
C1715 C1714 1.385 . S
C1716 C1714 1.478 . S
C1716 C1718 1.381 . S
C1716 C1722 1.383 . S
C1717 C1713 1.495 . S
C1717 H1723 0.959 . S
C1717 H1724 0.961 . S
C1717 H1725 0.960 . S
C1718 C1716 1.381 . S
C1718 C1719 1.394 . S
C1718 H1726 0.930 . S
C1719 C1718 1.394 . S
C1719 C1720 1.383 . S
C1719 H1727 0.929 . S
C1720 C1719 1.383 . S
C1720 C1721 1.377 . S
C1721 H1705 0.930 . S
C1721 C1720 1.377 . S
C1721 C1722 1.379 . S
C1722 H1706 0.931 . S
C1722 C1716 1.383 . S
C1722 C1721 1.379 . S
H1723 C1717 0.959 . S
H1724 C1717 0.961 . S
H1725 C1717 0.960 . S
H1726 C1718 0.930 . S
H1727 C1719 0.929 . S
H1728 C1736 0.929 . S
H1729 C1738 0.930 . S
H1730 C1740 0.930 . S
H1731 C1743 0.929 . S
H1732 C1746 0.930 . S
H1733 C1748 0.960 . S
H1734 C1748 0.960 . S
H1735 C1748 0.960 . S
C1736 H1728 0.929 . S
C1736 C1737 1.377 . S
C1736 C1738 1.384 . S
C1737 C1736 1.377 . S
C1737 C1743 1.390 . S
C1738 H1729 0.930 . S
C1738 C1736 1.384 . S
C1738 C1739 1.372 . S
C1739 C1738 1.372 . S
C1739 C1740 1.400 . S
C1739 C1744 1.490 . S
C1740 H1730 0.930 . S
C1740 C1739 1.400 . S
C1740 C1743 1.386 . S
H1741 C1757 0.930 . S
H1742 C1758 0.931 . S
C1743 H1731 0.929 . S
C1743 C1737 1.390 . S
C1743 C1740 1.386 . S
C1744 C1739 1.490 . S
C1744 C1746 1.395 . S
C1744 C1747 1.403 . S
H1745 C1751 0.930 . S
C1746 H1732 0.930 . S
C1746 C1744 1.395 . S
C1746 C1749 1.403 . S
C1747 C1744 1.403 . S
C1747 C1748 1.524 . S
C1747 C1751 1.400 . S
C1748 H1733 0.960 . S
C1748 H1734 0.960 . S
C1748 H1735 0.960 . S
C1748 C1747 1.524 . S
C1749 C1746 1.403 . S
C1749 C1750 1.392 . S
C1749 C1753 1.495 . S
C1750 C1749 1.392 . S
C1750 C1751 1.385 . S
C1750 C1752 1.478 . S
C1751 H1745 0.930 . S
C1751 C1747 1.400 . S
C1751 C1750 1.385 . S
C1752 C1750 1.478 . S
C1752 C1754 1.381 . S
C1752 C1758 1.383 . S
C1753 C1749 1.495 . S
C1753 H1759 0.959 . S
C1753 H1760 0.961 . S
C1753 H1761 0.960 . S
C1754 C1752 1.381 . S
C1754 C1755 1.394 . S
C1754 H1762 0.930 . S
C1755 C1754 1.394 . S
C1755 C1756 1.383 . S
C1755 H1763 0.929 . S
C1756 C1755 1.383 . S
C1756 C1757 1.377 . S
C1757 H1741 0.930 . S
C1757 C1756 1.377 . S
C1757 C1758 1.379 . S
C1758 H1742 0.931 . S
C1758 C1752 1.383 . S
C1758 C1757 1.379 . S
H1759 C1753 0.959 . S
H1760 C1753 0.961 . S
H1761 C1753 0.960 . S
H1762 C1754 0.930 . S
H1763 C1755 0.929 . S
H1764 C1772 0.929 . S
H1765 C1774 0.930 . S
H1766 C1776 0.930 . S
H1767 C1779 0.929 . S
H1768 C1782 0.930 . S
H1769 C1784 0.960 . S
H1770 C1784 0.960 . S
H1771 C1784 0.960 . S
C1772 H1764 0.929 . S
C1772 C1773 1.377 . S
C1772 C1774 1.384 . S
C1773 C1772 1.377 . S
C1773 C1779 1.390 . S
C1774 H1765 0.930 . S
C1774 C1772 1.384 . S
C1774 C1775 1.372 . S
C1775 C1774 1.372 . S
C1775 C1776 1.400 . S
C1775 C1780 1.490 . S
C1776 H1766 0.930 . S
C1776 C1775 1.400 . S
C1776 C1779 1.386 . S
H1777 C1793 0.930 . S
H1778 C1794 0.931 . S
C1779 H1767 0.929 . S
C1779 C1773 1.390 . S
C1779 C1776 1.386 . S
C1780 C1775 1.490 . S
C1780 C1782 1.395 . S
C1780 C1783 1.403 . S
H1781 C1787 0.930 . S
C1782 H1768 0.930 . S
C1782 C1780 1.395 . S
C1782 C1785 1.403 . S
C1783 C1780 1.403 . S
C1783 C1784 1.524 . S
C1783 C1787 1.400 . S
C1784 H1769 0.960 . S
C1784 H1770 0.960 . S
C1784 H1771 0.960 . S
C1784 C1783 1.524 . S
C1785 C1782 1.403 . S
C1785 C1786 1.392 . S
C1785 C1789 1.495 . S
C1786 C1785 1.392 . S
C1786 C1787 1.385 . S
C1786 C1788 1.478 . S
C1787 H1781 0.930 . S
C1787 C1783 1.400 . S
C1787 C1786 1.385 . S
C1788 C1786 1.478 . S
C1788 C1790 1.381 . S
C1788 C1794 1.383 . S
C1789 C1785 1.495 . S
C1789 H1795 0.959 . S
C1789 H1796 0.961 . S
C1789 H1797 0.960 . S
C1790 C1788 1.381 . S
C1790 C1791 1.394 . S
C1790 H1798 0.930 . S
C1791 C1790 1.394 . S
C1791 C1792 1.383 . S
C1791 H1799 0.929 . S
C1792 C1791 1.383 . S
C1792 C1793 1.377 . S
C1793 H1777 0.930 . S
C1793 C1792 1.377 . S
C1793 C1794 1.379 . S
C1794 H1778 0.931 . S
C1794 C1788 1.383 . S
C1794 C1793 1.379 . S
H1795 C1789 0.959 . S
H1796 C1789 0.961 . S
H1797 C1789 0.960 . S
H1798 C1790 0.930 . S
H1799 C1791 0.929 . S
H1800 C1808 0.929 . S
H1801 C1810 0.930 . S
H1802 C1812 0.930 . S
H1803 C1815 0.929 . S
H1804 C1818 0.930 . S
H1805 C1820 0.960 . S
H1806 C1820 0.960 . S
H1807 C1820 0.960 . S
C1808 H1800 0.929 . S
C1808 C1809 1.377 . S
C1808 C1810 1.384 . S
C1809 C1808 1.377 . S
C1809 C1815 1.390 . S
C1810 H1801 0.930 . S
C1810 C1808 1.384 . S
C1810 C1811 1.372 . S
C1811 C1810 1.372 . S
C1811 C1812 1.400 . S
C1811 C1816 1.490 . S
C1812 H1802 0.930 . S
C1812 C1811 1.400 . S
C1812 C1815 1.386 . S
H1813 C1829 0.930 . S
H1814 C1830 0.931 . S
C1815 H1803 0.929 . S
C1815 C1809 1.390 . S
C1815 C1812 1.386 . S
C1816 C1811 1.490 . S
C1816 C1818 1.395 . S
C1816 C1819 1.403 . S
H1817 C1823 0.930 . S
C1818 H1804 0.930 . S
C1818 C1816 1.395 . S
C1818 C1821 1.403 . S
C1819 C1816 1.403 . S
C1819 C1820 1.524 . S
C1819 C1823 1.400 . S
C1820 H1805 0.960 . S
C1820 H1806 0.960 . S
C1820 H1807 0.960 . S
C1820 C1819 1.524 . S
C1821 C1818 1.403 . S
C1821 C1822 1.392 . S
C1821 C1825 1.495 . S
C1822 C1821 1.392 . S
C1822 C1823 1.385 . S
C1822 C1824 1.478 . S
C1823 H1817 0.930 . S
C1823 C1819 1.400 . S
C1823 C1822 1.385 . S
C1824 C1822 1.478 . S
C1824 C1826 1.381 . S
C1824 C1830 1.383 . S
C1825 C1821 1.495 . S
C1825 H1831 0.959 . S
C1825 H1832 0.961 . S
C1825 H1833 0.960 . S
C1826 C1824 1.381 . S
C1826 C1827 1.394 . S
C1826 H1834 0.930 . S
C1827 C1826 1.394 . S
C1827 C1828 1.383 . S
C1827 H1835 0.929 . S
C1828 C1827 1.383 . S
C1828 C1829 1.377 . S
C1829 H1813 0.930 . S
C1829 C1828 1.377 . S
C1829 C1830 1.379 . S
C1830 H1814 0.931 . S
C1830 C1824 1.383 . S
C1830 C1829 1.379 . S
H1831 C1825 0.959 . S
H1832 C1825 0.961 . S
H1833 C1825 0.960 . S
H1834 C1826 0.930 . S
H1835 C1827 0.929 . S
H1836 C1844 0.929 . S
H1837 C1846 0.930 . S
H1838 C1848 0.930 . S
H1839 C1851 0.929 . S
H1840 C1854 0.930 . S
H1841 C1856 0.960 . S
H1842 C1856 0.960 . S
H1843 C1856 0.960 . S
C1844 H1836 0.929 . S
C1844 C1845 1.377 . S
C1844 C1846 1.384 . S
C1845 C1844 1.377 . S
C1845 C1851 1.390 . S
C1846 H1837 0.930 . S
C1846 C1844 1.384 . S
C1846 C1847 1.372 . S
C1847 C1846 1.372 . S
C1847 C1848 1.400 . S
C1847 C1852 1.490 . S
C1848 H1838 0.930 . S
C1848 C1847 1.400 . S
C1848 C1851 1.386 . S
H1849 C1865 0.930 . S
H1850 C1866 0.931 . S
C1851 H1839 0.929 . S
C1851 C1845 1.390 . S
C1851 C1848 1.386 . S
C1852 C1847 1.490 . S
C1852 C1854 1.395 . S
C1852 C1855 1.403 . S
H1853 C1859 0.930 . S
C1854 H1840 0.930 . S
C1854 C1852 1.395 . S
C1854 C1857 1.403 . S
C1855 C1852 1.403 . S
C1855 C1856 1.524 . S
C1855 C1859 1.400 . S
C1856 H1841 0.960 . S
C1856 H1842 0.960 . S
C1856 H1843 0.960 . S
C1856 C1855 1.524 . S
C1857 C1854 1.403 . S
C1857 C1858 1.392 . S
C1857 C1861 1.495 . S
C1858 C1857 1.392 . S
C1858 C1859 1.385 . S
C1858 C1860 1.478 . S
C1859 H1853 0.930 . S
C1859 C1855 1.400 . S
C1859 C1858 1.385 . S
C1860 C1858 1.478 . S
C1860 C1862 1.381 . S
C1860 C1866 1.383 . S
C1861 C1857 1.495 . S
C1861 H1867 0.959 . S
C1861 H1868 0.961 . S
C1861 H1869 0.960 . S
C1862 C1860 1.381 . S
C1862 C1863 1.394 . S
C1862 H1870 0.930 . S
C1863 C1862 1.394 . S
C1863 C1864 1.383 . S
C1863 H1871 0.929 . S
C1864 C1863 1.383 . S
C1864 C1865 1.377 . S
C1865 H1849 0.930 . S
C1865 C1864 1.377 . S
C1865 C1866 1.379 . S
C1866 H1850 0.931 . S
C1866 C1860 1.383 . S
C1866 C1865 1.379 . S
H1867 C1861 0.959 . S
H1868 C1861 0.961 . S
H1869 C1861 0.960 . S
H1870 C1862 0.930 . S
H1871 C1863 0.929 . S
H1872 C1880 0.929 . S
H1873 C1882 0.930 . S
H1874 C1884 0.930 . S
H1875 C1887 0.929 . S
H1876 C1890 0.930 . S
H1877 C1892 0.960 . S
H1878 C1892 0.960 . S
H1879 C1892 0.960 . S
C1880 H1872 0.929 . S
C1880 C1881 1.377 . S
C1880 C1882 1.384 . S
C1881 C1880 1.377 . S
C1881 C1887 1.390 . S
C1882 H1873 0.930 . S
C1882 C1880 1.384 . S
C1882 C1883 1.372 . S
C1883 C1882 1.372 . S
C1883 C1884 1.400 . S
C1883 C1888 1.490 . S
C1884 H1874 0.930 . S
C1884 C1883 1.400 . S
C1884 C1887 1.386 . S
H1885 C1901 0.930 . S
H1886 C1902 0.931 . S
C1887 H1875 0.929 . S
C1887 C1881 1.390 . S
C1887 C1884 1.386 . S
C1888 C1883 1.490 . S
C1888 C1890 1.395 . S
C1888 C1891 1.403 . S
H1889 C1895 0.930 . S
C1890 H1876 0.930 . S
C1890 C1888 1.395 . S
C1890 C1893 1.403 . S
C1891 C1888 1.403 . S
C1891 C1892 1.524 . S
C1891 C1895 1.400 . S
C1892 H1877 0.960 . S
C1892 H1878 0.960 . S
C1892 H1879 0.960 . S
C1892 C1891 1.524 . S
C1893 C1890 1.403 . S
C1893 C1894 1.392 . S
C1893 C1897 1.495 . S
C1894 C1893 1.392 . S
C1894 C1895 1.385 . S
C1894 C1896 1.478 . S
C1895 H1889 0.930 . S
C1895 C1891 1.400 . S
C1895 C1894 1.385 . S
C1896 C1894 1.478 . S
C1896 C1898 1.381 . S
C1896 C1902 1.383 . S
C1897 C1893 1.495 . S
C1897 H1903 0.959 . S
C1897 H1904 0.961 . S
C1897 H1905 0.960 . S
C1898 C1896 1.381 . S
C1898 C1899 1.394 . S
C1898 H1906 0.930 . S
C1899 C1898 1.394 . S
C1899 C1900 1.383 . S
C1899 H1907 0.929 . S
C1900 C1899 1.383 . S
C1900 C1901 1.377 . S
C1901 H1885 0.930 . S
C1901 C1900 1.377 . S
C1901 C1902 1.379 . S
C1902 H1886 0.931 . S
C1902 C1896 1.383 . S
C1902 C1901 1.379 . S
H1903 C1897 0.959 . S
H1904 C1897 0.961 . S
H1905 C1897 0.960 . S
H1906 C1898 0.930 . S
H1907 C1899 0.929 . S
H1908 C1916 0.929 . S
H1909 C1918 0.930 . S
H1910 C1920 0.930 . S
H1911 C1923 0.929 . S
H1912 C1926 0.930 . S
H1913 C1928 0.960 . S
H1914 C1928 0.960 . S
H1915 C1928 0.960 . S
C1916 H1908 0.929 . S
C1916 C1917 1.377 . S
C1916 C1918 1.384 . S
C1917 C1916 1.377 . S
C1917 C1923 1.390 . S
C1918 H1909 0.930 . S
C1918 C1916 1.384 . S
C1918 C1919 1.372 . S
C1919 C1918 1.372 . S
C1919 C1920 1.400 . S
C1919 C1924 1.490 . S
C1920 H1910 0.930 . S
C1920 C1919 1.400 . S
C1920 C1923 1.386 . S
H1921 C1937 0.930 . S
H1922 C1938 0.931 . S
C1923 H1911 0.929 . S
C1923 C1917 1.390 . S
C1923 C1920 1.386 . S
C1924 C1919 1.490 . S
C1924 C1926 1.395 . S
C1924 C1927 1.403 . S
H1925 C1931 0.930 . S
C1926 H1912 0.930 . S
C1926 C1924 1.395 . S
C1926 C1929 1.403 . S
C1927 C1924 1.403 . S
C1927 C1928 1.524 . S
C1927 C1931 1.400 . S
C1928 H1913 0.960 . S
C1928 H1914 0.960 . S
C1928 H1915 0.960 . S
C1928 C1927 1.524 . S
C1929 C1926 1.403 . S
C1929 C1930 1.392 . S
C1929 C1933 1.495 . S
C1930 C1929 1.392 . S
C1930 C1931 1.385 . S
C1930 C1932 1.478 . S
C1931 H1925 0.930 . S
C1931 C1927 1.400 . S
C1931 C1930 1.385 . S
C1932 C1930 1.478 . S
C1932 C1934 1.381 . S
C1932 C1938 1.383 . S
C1933 C1929 1.495 . S
C1933 H1939 0.959 . S
C1933 H1940 0.961 . S
C1933 H1941 0.960 . S
C1934 C1932 1.381 . S
C1934 C1935 1.394 . S
C1934 H1942 0.930 . S
C1935 C1934 1.394 . S
C1935 C1936 1.383 . S
C1935 H1943 0.929 . S
C1936 C1935 1.383 . S
C1936 C1937 1.377 . S
C1937 H1921 0.930 . S
C1937 C1936 1.377 . S
C1937 C1938 1.379 . S
C1938 H1922 0.931 . S
C1938 C1932 1.383 . S
C1938 C1937 1.379 . S
H1939 C1933 0.959 . S
H1940 C1933 0.961 . S
H1941 C1933 0.960 . S
H1942 C1934 0.930 . S
H1943 C1935 0.929 . S
H1944 C1952 0.929 . S
H1945 C1954 0.930 . S
H1946 C1956 0.930 . S
H1947 C1959 0.929 . S
H1948 C1962 0.930 . S
H1949 C1964 0.960 . S
H1950 C1964 0.960 . S
H1951 C1964 0.960 . S
C1952 H1944 0.929 . S
C1952 C1953 1.377 . S
C1952 C1954 1.384 . S
C1953 C1952 1.377 . S
C1953 C1959 1.390 . S
C1954 H1945 0.930 . S
C1954 C1952 1.384 . S
C1954 C1955 1.372 . S
C1955 C1954 1.372 . S
C1955 C1956 1.400 . S
C1955 C1960 1.490 . S
C1956 H1946 0.930 . S
C1956 C1955 1.400 . S
C1956 C1959 1.386 . S
H1957 C1973 0.930 . S
H1958 C1974 0.931 . S
C1959 H1947 0.929 . S
C1959 C1953 1.390 . S
C1959 C1956 1.386 . S
C1960 C1955 1.490 . S
C1960 C1962 1.395 . S
C1960 C1963 1.403 . S
H1961 C1967 0.930 . S
C1962 H1948 0.930 . S
C1962 C1960 1.395 . S
C1962 C1965 1.403 . S
C1963 C1960 1.403 . S
C1963 C1964 1.524 . S
C1963 C1967 1.400 . S
C1964 H1949 0.960 . S
C1964 H1950 0.960 . S
C1964 H1951 0.960 . S
C1964 C1963 1.524 . S
C1965 C1962 1.403 . S
C1965 C1966 1.392 . S
C1965 C1969 1.495 . S
C1966 C1965 1.392 . S
C1966 C1967 1.385 . S
C1966 C1968 1.478 . S
C1967 H1961 0.930 . S
C1967 C1963 1.400 . S
C1967 C1966 1.385 . S
C1968 C1966 1.478 . S
C1968 C1970 1.381 . S
C1968 C1974 1.383 . S
C1969 C1965 1.495 . S
C1969 H1975 0.959 . S
C1969 H1976 0.961 . S
C1969 H1977 0.960 . S
C1970 C1968 1.381 . S
C1970 C1971 1.394 . S
C1970 H1978 0.930 . S
C1971 C1970 1.394 . S
C1971 C1972 1.383 . S
C1971 H1979 0.929 . S
C1972 C1971 1.383 . S
C1972 C1973 1.377 . S
C1973 H1957 0.930 . S
C1973 C1972 1.377 . S
C1973 C1974 1.379 . S
C1974 H1958 0.931 . S
C1974 C1968 1.383 . S
C1974 C1973 1.379 . S
H1975 C1969 0.959 . S
H1976 C1969 0.961 . S
H1977 C1969 0.960 . S
H1978 C1970 0.930 . S
H1979 C1971 0.929 . S
H1980 C1988 0.929 . S
H1981 C1990 0.930 . S
H1982 C1992 0.930 . S
H1983 C1995 0.929 . S
H1984 C1998 0.930 . S
H1985 C2000 0.960 . S
H1986 C2000 0.960 . S
H1987 C2000 0.960 . S
C1988 H1980 0.929 . S
C1988 C1989 1.377 . S
C1988 C1990 1.384 . S
C1989 C1988 1.377 . S
C1989 C1995 1.390 . S
C1990 H1981 0.930 . S
C1990 C1988 1.384 . S
C1990 C1991 1.372 . S
C1991 C1990 1.372 . S
C1991 C1992 1.400 . S
C1991 C1996 1.490 . S
C1992 H1982 0.930 . S
C1992 C1991 1.400 . S
C1992 C1995 1.386 . S
H1993 C2009 0.930 . S
H1994 C2010 0.931 . S
C1995 H1983 0.929 . S
C1995 C1989 1.390 . S
C1995 C1992 1.386 . S
C1996 C1991 1.490 . S
C1996 C1998 1.395 . S
C1996 C1999 1.403 . S
H1997 C2003 0.930 . S
C1998 H1984 0.930 . S
C1998 C1996 1.395 . S
C1998 C2001 1.403 . S
C1999 C1996 1.403 . S
C1999 C2000 1.524 . S
C1999 C2003 1.400 . S
C2000 H1985 0.960 . S
C2000 H1986 0.960 . S
C2000 H1987 0.960 . S
C2000 C1999 1.524 . S
C2001 C1998 1.403 . S
C2001 C2002 1.392 . S
C2001 C2005 1.495 . S
C2002 C2001 1.392 . S
C2002 C2003 1.385 . S
C2002 C2004 1.478 . S
C2003 H1997 0.930 . S
C2003 C1999 1.400 . S
C2003 C2002 1.385 . S
C2004 C2002 1.478 . S
C2004 C2006 1.381 . S
C2004 C2010 1.383 . S
C2005 C2001 1.495 . S
C2005 H2011 0.959 . S
C2005 H2012 0.961 . S
C2005 H2013 0.960 . S
C2006 C2004 1.381 . S
C2006 C2007 1.394 . S
C2006 H2014 0.930 . S
C2007 C2006 1.394 . S
C2007 C2008 1.383 . S
C2007 H2015 0.929 . S
C2008 C2007 1.383 . S
C2008 C2009 1.377 . S
C2009 H1993 0.930 . S
C2009 C2008 1.377 . S
C2009 C2010 1.379 . S
C2010 H1994 0.931 . S
C2010 C2004 1.383 . S
C2010 C2009 1.379 . S
H2011 C2005 0.959 . S
H2012 C2005 0.961 . S
H2013 C2005 0.960 . S
H2014 C2006 0.930 . S
H2015 C2007 0.929 . S
H2016 C2024 0.929 . S
H2017 C2026 0.930 . S
H2018 C2028 0.930 . S
H2019 C2031 0.929 . S
H2020 C2034 0.930 . S
H2021 C2036 0.960 . S
H2022 C2036 0.960 . S
H2023 C2036 0.960 . S
C2024 H2016 0.929 . S
C2024 C2025 1.377 . S
C2024 C2026 1.384 . S
C2025 C2024 1.377 . S
C2025 C2031 1.390 . S
C2026 H2017 0.930 . S
C2026 C2024 1.384 . S
C2026 C2027 1.372 . S
C2027 C2026 1.372 . S
C2027 C2028 1.400 . S
C2027 C2032 1.490 . S
C2028 H2018 0.930 . S
C2028 C2027 1.400 . S
C2028 C2031 1.386 . S
H2029 C2045 0.930 . S
H2030 C2046 0.931 . S
C2031 H2019 0.929 . S
C2031 C2025 1.390 . S
C2031 C2028 1.386 . S
C2032 C2027 1.490 . S
C2032 C2034 1.395 . S
C2032 C2035 1.403 . S
H2033 C2039 0.930 . S
C2034 H2020 0.930 . S
C2034 C2032 1.395 . S
C2034 C2037 1.403 . S
C2035 C2032 1.403 . S
C2035 C2036 1.524 . S
C2035 C2039 1.400 . S
C2036 H2021 0.960 . S
C2036 H2022 0.960 . S
C2036 H2023 0.960 . S
C2036 C2035 1.524 . S
C2037 C2034 1.403 . S
C2037 C2038 1.392 . S
C2037 C2041 1.495 . S
C2038 C2037 1.392 . S
C2038 C2039 1.385 . S
C2038 C2040 1.478 . S
C2039 H2033 0.930 . S
C2039 C2035 1.400 . S
C2039 C2038 1.385 . S
C2040 C2038 1.478 . S
C2040 C2042 1.381 . S
C2040 C2046 1.383 . S
C2041 C2037 1.495 . S
C2041 H2047 0.959 . S
C2041 H2048 0.961 . S
C2041 H2049 0.960 . S
C2042 C2040 1.381 . S
C2042 C2043 1.394 . S
C2042 H2050 0.930 . S
C2043 C2042 1.394 . S
C2043 C2044 1.383 . S
C2043 H2051 0.929 . S
C2044 C2043 1.383 . S
C2044 C2045 1.377 . S
C2045 H2029 0.930 . S
C2045 C2044 1.377 . S
C2045 C2046 1.379 . S
C2046 H2030 0.931 . S
C2046 C2040 1.383 . S
C2046 C2045 1.379 . S
H2047 C2041 0.959 . S
H2048 C2041 0.961 . S
H2049 C2041 0.960 . S
H2050 C2042 0.930 . S
H2051 C2043 0.929 . S
H2052 C2060 0.929 . S
H2053 C2062 0.930 . S
H2054 C2064 0.930 . S
H2055 C2067 0.929 . S
H2056 C2070 0.930 . S
H2057 C2072 0.960 . S
H2058 C2072 0.960 . S
H2059 C2072 0.960 . S
C2060 H2052 0.929 . S
C2060 C2061 1.377 . S
C2060 C2062 1.384 . S
C2061 C2060 1.377 . S
C2061 C2067 1.390 . S
C2062 H2053 0.930 . S
C2062 C2060 1.384 . S
C2062 C2063 1.372 . S
C2063 C2062 1.372 . S
C2063 C2064 1.400 . S
C2063 C2068 1.490 . S
C2064 H2054 0.930 . S
C2064 C2063 1.400 . S
C2064 C2067 1.386 . S
H2065 C2081 0.930 . S
H2066 C2082 0.931 . S
C2067 H2055 0.929 . S
C2067 C2061 1.390 . S
C2067 C2064 1.386 . S
C2068 C2063 1.490 . S
C2068 C2070 1.395 . S
C2068 C2071 1.403 . S
H2069 C2075 0.930 . S
C2070 H2056 0.930 . S
C2070 C2068 1.395 . S
C2070 C2073 1.403 . S
C2071 C2068 1.403 . S
C2071 C2072 1.524 . S
C2071 C2075 1.400 . S
C2072 H2057 0.960 . S
C2072 H2058 0.960 . S
C2072 H2059 0.960 . S
C2072 C2071 1.524 . S
C2073 C2070 1.403 . S
C2073 C2074 1.392 . S
C2073 C2077 1.495 . S
C2074 C2073 1.392 . S
C2074 C2075 1.385 . S
C2074 C2076 1.478 . S
C2075 H2069 0.930 . S
C2075 C2071 1.400 . S
C2075 C2074 1.385 . S
C2076 C2074 1.478 . S
C2076 C2078 1.381 . S
C2076 C2082 1.383 . S
C2077 C2073 1.495 . S
C2077 H2083 0.959 . S
C2077 H2084 0.961 . S
C2077 H2085 0.960 . S
C2078 C2076 1.381 . S
C2078 C2079 1.394 . S
C2078 H2086 0.930 . S
C2079 C2078 1.394 . S
C2079 C2080 1.383 . S
C2079 H2087 0.929 . S
C2080 C2079 1.383 . S
C2080 C2081 1.377 . S
C2081 H2065 0.930 . S
C2081 C2080 1.377 . S
C2081 C2082 1.379 . S
C2082 H2066 0.931 . S
C2082 C2076 1.383 . S
C2082 C2081 1.379 . S
H2083 C2077 0.959 . S
H2084 C2077 0.961 . S
H2085 C2077 0.960 . S
H2086 C2078 0.930 . S
H2087 C2079 0.929 . S
H2088 C2096 0.929 . S
H2089 C2098 0.930 . S
H2090 C2100 0.930 . S
H2091 C2103 0.929 . S
H2092 C2106 0.930 . S
H2093 C2108 0.960 . S
H2094 C2108 0.960 . S
H2095 C2108 0.960 . S
C2096 H2088 0.929 . S
C2096 C2097 1.377 . S
C2096 C2098 1.384 . S
C2097 C2096 1.377 . S
C2097 C2103 1.390 . S
C2098 H2089 0.930 . S
C2098 C2096 1.384 . S
C2098 C2099 1.372 . S
C2099 C2098 1.372 . S
C2099 C2100 1.400 . S
C2099 C2104 1.490 . S
C2100 H2090 0.930 . S
C2100 C2099 1.400 . S
C2100 C2103 1.386 . S
H2101 C2117 0.930 . S
H2102 C2118 0.931 . S
C2103 H2091 0.929 . S
C2103 C2097 1.390 . S
C2103 C2100 1.386 . S
C2104 C2099 1.490 . S
C2104 C2106 1.395 . S
C2104 C2107 1.403 . S
H2105 C2111 0.930 . S
C2106 H2092 0.930 . S
C2106 C2104 1.395 . S
C2106 C2109 1.403 . S
C2107 C2104 1.403 . S
C2107 C2108 1.524 . S
C2107 C2111 1.400 . S
C2108 H2093 0.960 . S
C2108 H2094 0.960 . S
C2108 H2095 0.960 . S
C2108 C2107 1.524 . S
C2109 C2106 1.403 . S
C2109 C2110 1.392 . S
C2109 C2113 1.495 . S
C2110 C2109 1.392 . S
C2110 C2111 1.385 . S
C2110 C2112 1.478 . S
C2111 H2105 0.930 . S
C2111 C2107 1.400 . S
C2111 C2110 1.385 . S
C2112 C2110 1.478 . S
C2112 C2114 1.381 . S
C2112 C2118 1.383 . S
C2113 C2109 1.495 . S
C2113 H2119 0.959 . S
C2113 H2120 0.961 . S
C2113 H2121 0.960 . S
C2114 C2112 1.381 . S
C2114 C2115 1.394 . S
C2114 H2122 0.930 . S
C2115 C2114 1.394 . S
C2115 C2116 1.383 . S
C2115 H2123 0.929 . S
C2116 C2115 1.383 . S
C2116 C2117 1.377 . S
C2117 H2101 0.930 . S
C2117 C2116 1.377 . S
C2117 C2118 1.379 . S
C2118 H2102 0.931 . S
C2118 C2112 1.383 . S
C2118 C2117 1.379 . S
H2119 C2113 0.959 . S
H2120 C2113 0.961 . S
H2121 C2113 0.960 . S
H2122 C2114 0.930 . S
H2123 C2115 0.929 . S
H2124 C2132 0.929 . S
H2125 C2134 0.930 . S
H2126 C2136 0.930 . S
H2127 C2139 0.929 . S
H2128 C2142 0.930 . S
H2129 C2144 0.960 . S
H2130 C2144 0.960 . S
H2131 C2144 0.960 . S
C2132 H2124 0.929 . S
C2132 C2133 1.377 . S
C2132 C2134 1.384 . S
C2133 C2132 1.377 . S
C2133 C2139 1.390 1_655 S
C2134 H2125 0.930 . S
C2134 C2132 1.384 . S
C2134 C2135 1.372 . S
C2135 C2134 1.372 . S
C2135 C2136 1.400 1_655 S
C2135 C2140 1.490 . S
C2136 H2126 0.930 . S
C2136 C2135 1.400 1_455 S
C2136 C2139 1.386 . S
H2137 C2153 0.930 . S
H2138 C2154 0.931 . S
C2139 H2127 0.929 . S
C2139 C2133 1.390 1_455 S
C2139 C2136 1.386 . S
C2140 C2135 1.490 . S
C2140 C2142 1.395 . S
C2140 C2143 1.403 1_655 S
H2141 C2147 0.930 . S
C2142 H2128 0.930 . S
C2142 C2140 1.395 . S
C2142 C2145 1.403 . S
C2143 C2140 1.403 1_455 S
C2143 C2144 1.524 . S
C2143 C2147 1.400 . S
C2144 H2129 0.960 . S
C2144 H2130 0.960 . S
C2144 H2131 0.960 . S
C2144 C2143 1.524 . S
C2145 C2142 1.403 . S
C2145 C2146 1.392 . S
C2145 C2149 1.495 . S
C2146 C2145 1.392 . S
C2146 C2147 1.385 1_655 S
C2146 C2148 1.482 . S
C2147 H2141 0.930 . S
C2147 C2143 1.400 . S
C2147 C2146 1.385 1_455 S
C2148 C2146 1.482 . S
C2148 C2150 1.386 . S
C2148 C2154 1.374 1_655 S
C2149 C2145 1.495 . S
C2149 H2155 0.959 . S
C2149 H2156 0.961 . S
C2149 H2157 0.960 . S
C2150 C2148 1.386 . S
C2150 C2151 1.394 . S
C2150 H2158 0.930 . S
C2151 C2150 1.394 . S
C2151 C2152 1.383 1_655 S
C2151 H2159 0.929 . S
C2152 C2151 1.383 1_455 S
C2152 C2153 1.377 . S
C2153 H2137 0.930 . S
C2153 C2152 1.377 . S
C2153 C2154 1.379 . S
C2154 H2138 0.931 . S
C2154 C2148 1.374 1_455 S
C2154 C2153 1.379 . S
H2155 C2149 0.959 . S
H2156 C2149 0.961 . S
H2157 C2149 0.960 . S
H2158 C2150 0.930 . S
H2159 C2151 0.929 . S
H2160 C2168 0.929 . S
H2161 C2170 0.930 . S
H2162 C2172 0.930 . S
H2163 C2175 0.929 . S
H2164 C2178 0.930 . S
H2165 C2180 0.960 . S
H2166 C2180 0.960 . S
H2167 C2180 0.960 . S
C2168 H2160 0.929 . S
C2168 C2169 1.377 . S
C2168 C2170 1.384 . S
C2169 C2168 1.377 . S
C2169 C2175 1.390 . S
C2170 H2161 0.930 . S
C2170 C2168 1.384 . S
C2170 C2171 1.372 . S
C2171 C2170 1.372 . S
C2171 C2172 1.400 . S
C2171 C2176 1.490 . S
C2172 H2162 0.930 . S
C2172 C2171 1.400 . S
C2172 C2175 1.386 . S
H2173 C2189 0.930 . S
H2174 C2190 0.931 . S
C2175 H2163 0.929 . S
C2175 C2169 1.390 . S
C2175 C2172 1.386 . S
C2176 C2171 1.490 . S
C2176 C2178 1.395 . S
C2176 C2179 1.403 . S
H2177 C2183 0.930 . S
C2178 H2164 0.930 . S
C2178 C2176 1.395 . S
C2178 C2181 1.403 . S
C2179 C2176 1.403 . S
C2179 C2180 1.524 . S
C2179 C2183 1.400 . S
C2180 H2165 0.960 . S
C2180 H2166 0.960 . S
C2180 H2167 0.960 . S
C2180 C2179 1.524 . S
C2181 C2178 1.403 . S
C2181 C2182 1.392 . S
C2181 C2185 1.495 . S
C2182 C2181 1.392 . S
C2182 C2183 1.385 . S
C2182 C2184 1.478 . S
C2183 H2177 0.930 . S
C2183 C2179 1.400 . S
C2183 C2182 1.385 . S
C2184 C2182 1.478 . S
C2184 C2186 1.381 . S
C2184 C2190 1.383 . S
C2185 C2181 1.495 . S
C2185 H2191 0.959 . S
C2185 H2192 0.961 . S
C2185 H2193 0.960 . S
C2186 C2184 1.381 . S
C2186 C2187 1.394 . S
C2186 H2194 0.930 . S
C2187 C2186 1.394 . S
C2187 C2188 1.383 . S
C2187 H2195 0.929 . S
C2188 C2187 1.383 . S
C2188 C2189 1.377 . S
C2189 H2173 0.930 . S
C2189 C2188 1.377 . S
C2189 C2190 1.379 . S
C2190 H2174 0.931 . S
C2190 C2184 1.383 . S
C2190 C2189 1.379 . S
H2191 C2185 0.959 . S
H2192 C2185 0.961 . S
H2193 C2185 0.960 . S
H2194 C2186 0.930 . S
H2195 C2187 0.929 . S
H2196 C2204 0.929 . S
H2197 C2206 0.930 . S
H2198 C2208 0.930 . S
H2199 C2211 0.929 . S
H2200 C2214 0.930 . S
H2201 C2216 0.960 . S
H2202 C2216 0.960 . S
H2203 C2216 0.960 1_545 S
C2204 H2196 0.929 . S
C2204 C2205 1.377 1_565 S
C2204 C2206 1.384 . S
C2205 C2204 1.377 1_545 S
C2205 C2211 1.390 . S
C2206 H2197 0.930 . S
C2206 C2204 1.384 . S
C2206 C2207 1.372 1_565 S
C2207 C2206 1.372 1_545 S
C2207 C2208 1.400 . S
C2207 C2212 1.479 . S
C2208 H2198 0.930 . S
C2208 C2207 1.400 . S
C2208 C2211 1.386 . S
H2209 C2225 0.930 . S
H2210 C2226 0.931 . S
C2211 H2199 0.929 . S
C2211 C2205 1.390 . S
C2211 C2208 1.386 . S
C2212 C2207 1.479 . S
C2212 C2214 1.397 . S
C2212 C2215 1.413 1_545 S
H2213 C2219 0.930 . S
C2214 H2200 0.930 . S
C2214 C2212 1.397 . S
C2214 C2217 1.403 . S
C2215 C2212 1.413 1_565 S
C2215 C2216 1.524 . S
C2215 C2219 1.400 . S
C2216 H2201 0.960 . S
C2216 H2202 0.960 . S
C2216 H2203 0.960 1_565 S
C2216 C2215 1.524 . S
C2217 C2214 1.403 . S
C2217 C2218 1.392 1_545 S
C2217 C2221 1.495 . S
C2218 C2217 1.392 1_565 S
C2218 C2219 1.385 . S
C2218 C2220 1.478 . S
C2219 H2213 0.930 . S
C2219 C2215 1.400 . S
C2219 C2218 1.385 . S
C2220 C2218 1.478 . S
C2220 C2222 1.381 . S
C2220 C2226 1.383 1_565 S
C2221 C2217 1.495 . S
C2221 H2227 0.959 . S
C2221 H2228 0.961 . S
C2221 H2229 0.960 1_545 S
C2222 C2220 1.381 . S
C2222 C2223 1.394 . S
C2222 H2230 0.930 . S
C2223 C2222 1.394 . S
C2223 C2224 1.383 . S
C2223 H2231 0.929 . S
C2224 C2223 1.383 . S
C2224 C2225 1.377 1_565 S
C2225 H2209 0.930 . S
C2225 C2224 1.377 1_545 S
C2225 C2226 1.379 . S
C2226 H2210 0.931 . S
C2226 C2220 1.383 1_545 S
C2226 C2225 1.379 . S
H2227 C2221 0.959 . S
H2228 C2221 0.961 . S
H2229 C2221 0.960 1_565 S
H2230 C2222 0.930 . S
H2231 C2223 0.929 . S
C621 C9 1.271 . S
C640 C156 1.259 . S
C657 C43 1.276 . S
C676 C190 1.272 . S
C693 C77 1.279 . S
C712 C122 1.290 . S
C729 C54 1.271 . S
C748 C111 1.253 . S
C765 C145 1.276 . S
C784 C88 1.279 . S
C801 C20 1.280 . S
C820 C179 1.291 . S
C837 C213 1.279 . S
C856 C360 1.277 1_455 S
C873 C394 1.277 . S
C892 C247 1.264 . S
C909 C281 1.273 . S
C928 C326 1.281 1_565 S
C945 C258 1.276 . S
C964 C315 1.283 . S
C981 C349 1.275 . S
C1000 C292 1.279 . S
C1017 C224 1.272 . S
C1036 C383 1.264 . S
C1053 C564 1.278 . S
C1072 C417 1.265 . S
C1089 C598 1.277 . S
C1108 C451 1.262 . S
C1125 C530 1.272 . S
C1144 C485 1.281 . S
C1161 C519 1.276 . S
C1180 C462 1.265 1_655 S
C1197 C496 1.277 . S
C1216 C553 1.264 . S
C1233 C428 1.274 1_545 S
C1252 C587 1.261 . S
C1269 C33 1.293 . S
C1288 C379 1.248 . S
C1305 C67 1.293 . S
C1324 C311 1.258 1_565 S
C1341 C345 1.278 1_455 S
C1360 C101 1.315 . S
C1377 C481 1.272 . S
C1396 C135 1.305 . S
C1413 C413 1.278 1_545 S
C1432 C169 1.277 . S
C1449 C447 1.279 1_655 S
C1468 C203 1.289 . S
C1485 C583 1.280 . S
C1504 C237 1.310 . S
C1521 C515 1.282 . S
C1540 C271 1.304 . S
C1557 C305 1.298 . S
C1576 C549 1.286 . S
C1593 C73 1.268 . S
C1612 C339 1.284 . S
C1629 C373 1.292 . S
C1648 C5 1.263 . S
C1665 C407 1.285 . S
C1684 C39 1.291 . S
C1701 C441 1.284 . S
C1720 C175 1.262 . S
C1737 C107 1.269 . S
C1756 C475 1.270 . S
C1773 C509 1.286 . S
C1792 C141 1.267 . S
C1809 C543 1.292 . S
C1828 C277 1.296 . S
C1845 C577 1.291 . S
C1864 C209 1.300 . S
C1881 C611 1.291 . S
C1900 C243 1.300 . S
C1917 C308 1.954 . S
C1936 C2 1.950 . S
C1953 C36 1.959 . S
C1972 C342 1.957 . S
C1989 C70 1.956 . S
C2008 C376 1.955 . S
C2025 C104 1.953 . S
C2044 C410 1.950 . S
C2061 C444 1.958 . S
C2080 C138 1.957 . S
C2097 C172 1.956 . S
C2116 C478 1.956 . S
C2133 C206 1.949 . S
C2152 C512 1.944 . S
C2169 C546 1.951 . S
C2188 C240 1.948 . S
C2205 C274 1.949 . S
C2224 C580 1.946 . S
