# Generated by pormake.
# Topology wjh, (4)-cn, num edge types: 1
# Building blocks:
#     Node 0, Type 0, BuildingBlock: NAHDIM_clean_sbu_0, # of connection points: 4
#     Node 1, Type 0, BuildingBlock: NAHDIM_clean_sbu_0, # of connection points: 4
#     Node 2, Type 0, BuildingBlock: NAHDIM_clean_sbu_0, # of connection points: 4
#     Node 3, Type 0, BuildingBlock: NAHDIM_clean_sbu_0, # of connection points: 4
#     Node 4, Type 0, BuildingBlock: NAHDIM_clean_sbu_0, # of connection points: 4
#     Node 5, Type 0, BuildingBlock: NAHDIM_clean_sbu_0, # of connection points: 4
#     Node 6, Type 0, BuildingBlock: NAHDIM_clean_sbu_0, # of connection points: 4
#     Node 7, Type 0, BuildingBlock: NAHDIM_clean_sbu_0, # of connection points: 4
#     Node 8, Type 0, BuildingBlock: NAHDIM_clean_sbu_0, # of connection points: 4
#     Node 9, Type 0, BuildingBlock: NAHDIM_clean_sbu_0, # of connection points: 4
#     Node 10, Type 0, BuildingBlock: NAHDIM_clean_sbu_0, # of connection points: 4
#     Node 11, Type 0, BuildingBlock: NAHDIM_clean_sbu_0, # of connection points: 4
#     Edge 12, Type (0, 0), BuildingBlock: TEMPAE_clean_linker_10, # of connection points: 2
#     Edge 13, Type (0, 0), BuildingBlock: TEMPAE_clean_linker_10, # of connection points: 2
#     Edge 14, Type (0, 0), BuildingBlock: TEMPAE_clean_linker_10, # of connection points: 2
#     Edge 15, Type (0, 0), BuildingBlock: TEMPAE_clean_linker_10, # of connection points: 2
#     Edge 16, Type (0, 0), BuildingBlock: TEMPAE_clean_linker_10, # of connection points: 2
#     Edge 17, Type (0, 0), BuildingBlock: TEMPAE_clean_linker_10, # of connection points: 2
#     Edge 18, Type (0, 0), BuildingBlock: TEMPAE_clean_linker_10, # of connection points: 2
#     Edge 19, Type (0, 0), BuildingBlock: TEMPAE_clean_linker_10, # of connection points: 2
#     Edge 20, Type (0, 0), BuildingBlock: TEMPAE_clean_linker_10, # of connection points: 2
#     Edge 21, Type (0, 0), BuildingBlock: TEMPAE_clean_linker_10, # of connection points: 2
#     Edge 22, Type (0, 0), BuildingBlock: TEMPAE_clean_linker_10, # of connection points: 2
#     Edge 23, Type (0, 0), BuildingBlock: TEMPAE_clean_linker_10, # of connection points: 2
#     Edge 24, Type (0, 0), BuildingBlock: TEMPAE_clean_linker_10, # of connection points: 2
#     Edge 25, Type (0, 0), BuildingBlock: TEMPAE_clean_linker_10, # of connection points: 2
#     Edge 26, Type (0, 0), BuildingBlock: TEMPAE_clean_linker_10, # of connection points: 2
#     Edge 27, Type (0, 0), BuildingBlock: TEMPAE_clean_linker_10, # of connection points: 2
#     Edge 28, Type (0, 0), BuildingBlock: TEMPAE_clean_linker_10, # of connection points: 2
#     Edge 29, Type (0, 0), BuildingBlock: TEMPAE_clean_linker_10, # of connection points: 2
#     Edge 30, Type (0, 0), BuildingBlock: TEMPAE_clean_linker_10, # of connection points: 2
#     Edge 31, Type (0, 0), BuildingBlock: TEMPAE_clean_linker_10, # of connection points: 2
#     Edge 32, Type (0, 0), BuildingBlock: TEMPAE_clean_linker_10, # of connection points: 2
#     Edge 33, Type (0, 0), BuildingBlock: TEMPAE_clean_linker_10, # of connection points: 2
#     Edge 34, Type (0, 0), BuildingBlock: TEMPAE_clean_linker_10, # of connection points: 2
#     Edge 35, Type (0, 0), BuildingBlock: TEMPAE_clean_linker_10, # of connection points: 2
# Relax obj value: 0.145
# Max RMSD: 0.134
# Mean RMSD: 0.134
data_MOF--net-wjh--node1-NAHDIM_clean_sbu_0--edge1-TEMPAE_clean_linker_10
_symmetry_space_group_name_H-M    P1
_symmetry_Int_Tables_number       1
_symmetry_cell_setting            triclinic
loop_
_symmetry_equiv_pos_as_xyz
'x, y, z'
_cell_length_a     64.027025
_cell_length_b     64.066533
_cell_length_c     24.233553
_cell_angle_alpha  89.999027
_cell_angle_beta   90.055859
_cell_angle_gamma 119.99121
loop_
_atom_site_label
_atom_site_type_symbol
_atom_site_fract_x
_atom_site_fract_y
_atom_site_fract_z
_atom_type_partial_charge
C0 C 0.49414 0.18009 0.07388 0.0
O1 O 0.51573 0.18244 0.07457 0.0
O2 O 0.50266 0.13805 0.97719 0.0
Zn3 Zn 0.48315 0.13327 0.04637 0.0
O4 O 0.5013 0.13251 0.11306 0.0
C5 C 0.45088 0.08428 0.01551 0.0
O6 O 0.46831 0.08876 0.98057 0.0
O7 O 0.47628 0.16006 0.05925 0.0
C8 C 0.50628 0.11592 0.12159 0.0
O9 O 0.50029 0.09894 0.0844 0.0
C10 C 0.52524 0.14594 0.97891 0.0
O11 O 0.53651 0.15258 0.02653 0.0
O12 O 0.45254 0.1013 0.04551 0.0
C13 C 0.32468 0.50562 0.28699 0.0
O14 O 0.34258 0.528 0.28517 0.0
O15 O 0.37678 0.51886 0.19732 0.0
Zn16 Zn 0.36371 0.49877 0.26633 0.0
O17 O 0.38203 0.51839 0.33181 0.0
C18 C 0.35319 0.44816 0.26761 0.0
O19 O 0.33016 0.44134 0.27034 0.0
O20 O 0.32906 0.48867 0.27794 0.0
C21 C 0.40437 0.52564 0.33684 0.0
O22 O 0.41548 0.52094 0.29739 0.0
C23 C 0.38952 0.51491 0.16328 0.0
O24 O 0.39372 0.49716 0.17284 0.0
O25 O 0.36876 0.47043 0.26474 0.0
C26 C 0.82647 0.32143 0.46997 0.0
O27 O 0.82374 0.34038 0.47405 0.0
O28 O 0.86912 0.37302 0.37733 0.0
Zn29 Zn 0.87346 0.35856 0.44748 0.0
O30 O 0.87296 0.37688 0.514 0.0
C31 C 0.91238 0.35113 0.40952 0.0
O32 O 0.89773 0.33914 0.36871 0.0
O33 O 0.84698 0.32444 0.45679 0.0
C34 C 0.88907 0.39858 0.5232 0.0
O35 O 0.90638 0.40997 0.48693 0.0
C36 C 0.85781 0.38464 0.37618 0.0
O37 O 0.84853 0.38737 0.42205 0.0
O38 O 0.90544 0.36027 0.44666 0.0
C39 C 0.50993 0.83316 0.59189 0.0
O40 O 0.50496 0.8346 0.5399 0.0
O41 O 0.48222 0.86784 0.54266 0.0
Zn42 Zn 0.50092 0.87315 0.61315 0.0
O43 O 0.4815 0.87235 0.67851 0.0
C44 C 0.54911 0.91173 0.58298 0.0
O45 O 0.54961 0.89601 0.54898 0.0
O46 O 0.50959 0.84774 0.62679 0.0
C47 C 0.47013 0.88382 0.68192 0.0
O48 O 0.46992 0.89647 0.63945 0.0
C49 C 0.46049 0.85096 0.5377 0.0
O50 O 0.45009 0.83619 0.57931 0.0
O51 O 0.53056 0.90557 0.61253 0.0
C52 C 0.66688 0.49147 0.78107 0.0
O53 O 0.64596 0.47477 0.80029 0.0
O54 O 0.62137 0.48591 0.65963 0.0
Zn55 Zn 0.63602 0.5053 0.72886 0.0
O56 O 0.61391 0.49054 0.79372 0.0
C57 C 0.62696 0.54178 0.68788 0.0
O58 O 0.61323 0.52436 0.6536 0.0
O59 O 0.66751 0.50697 0.74729 0.0
C60 C 0.59116 0.48135 0.79377 0.0
O61 O 0.57993 0.48031 0.74755 0.0
C62 C 0.61022 0.46302 0.65808 0.0
O63 O 0.60853 0.45096 0.70329 0.0
O64 O 0.64013 0.53839 0.72174 0.0
C65 C 0.17329 0.68343 0.90021 0.0
O66 O 0.17716 0.6654 0.89155 0.0
O67 O 0.13237 0.63319 0.80476 0.0
Zn68 Zn 0.1263 0.64671 0.8745 0.0
O69 O 0.12529 0.62718 0.94012 0.0
C70 C 0.07744 0.62928 0.84096 0.0
O71 O 0.08266 0.61679 0.80628 0.0
O72 O 0.15238 0.68035 0.89138 0.0
C73 C 0.10918 0.60532 0.94747 0.0
O74 O 0.09259 0.59417 0.90948 0.0
C75 C 0.14081 0.61895 0.80618 0.0
O76 O 0.1473 0.61418 0.85383 0.0
O77 O 0.09395 0.64461 0.8721 0.0
C78 C 0.81509 0.48732 0.90327 0.0
O79 O 0.81721 0.46891 0.88705 0.0
O80 O 0.85944 0.48424 0.0163 0.0
Zn81 Zn 0.86162 0.50127 0.94477 0.0
O82 O 0.86493 0.48321 0.88091 0.0
C83 C 0.90958 0.53757 0.97236 0.0
O84 O 0.90706 0.521 0.00795 0.0
O85 O 0.83199 0.50395 0.9314 0.0
C86 C 0.88092 0.4771 0.87688 0.0
O87 O 0.89614 0.48178 0.91775 0.0
C88 C 0.84649 0.46156 0.02214 0.0
O89 O 0.83318 0.44848 0.98062 0.0
O90 O 0.89162 0.53384 0.94287 0.0
C91 C 0.30371 0.8201 0.11656 0.0
O92 O 0.31179 0.81449 0.16071 0.0
O93 O 0.36104 0.85944 0.18833 0.0
Zn94 Zn 0.34979 0.86578 0.11568 0.0
O95 O 0.37049 0.86573 0.05357 0.0
C96 C 0.36699 0.91517 0.14611 0.0
O97 O 0.37923 0.91064 0.18306 0.0
O98 O 0.31632 0.8407 0.09467 0.0
C99 C 0.39096 0.88361 0.04167 0.0
O100 O 0.40021 0.90281 0.07336 0.0
C101 C 0.37109 0.84664 0.19085 0.0
O102 O 0.37293 0.83635 0.14566 0.0
O103 O 0.35232 0.89826 0.11486 0.0
C104 C 0.47967 0.31621 0.2392 0.0
O105 O 0.48186 0.32037 0.29258 0.0
O106 O 0.50245 0.37676 0.29824 0.0
Zn107 Zn 0.48535 0.36446 0.22556 0.0
O108 O 0.50516 0.38598 0.16362 0.0
C109 C 0.43979 0.35708 0.26784 0.0
O110 O 0.44578 0.34975 0.31267 0.0
O111 O 0.48026 0.33198 0.2066 0.0
C112 C 0.50445 0.40453 0.14781 0.0
O113 O 0.49114 0.41133 0.17508 0.0
C114 C 0.52387 0.381 0.30577 0.0
O115 O 0.53495 0.37681 0.26538 0.0
O116 O 0.45375 0.36363 0.22636 0.0
C117 C 0.16561 0.48701 0.39764 0.0
O118 O 0.16087 0.48925 0.44933 0.0
O119 O 0.13501 0.51899 0.44011 0.0
Zn120 Zn 0.12813 0.49849 0.3718 0.0
O121 O 0.12831 0.51728 0.30583 0.0
C122 C 0.08966 0.44755 0.38426 0.0
O123 O 0.1066 0.44221 0.39447 0.0
O124 O 0.15355 0.48965 0.35947 0.0
C125 C 0.11204 0.52289 0.29928 0.0
O126 O 0.09554 0.51706 0.33763 0.0
C127 C 0.11847 0.51484 0.47475 0.0
O128 O 0.09666 0.49661 0.46623 0.0
O129 O 0.09534 0.46926 0.3749 0.0
C130 C 0.68028 0.16516 0.57107 0.0
O131 O 0.67331 0.15992 0.62266 0.0
O132 O 0.61789 0.13684 0.61394 0.0
Zn133 Zn 0.6307 0.12982 0.54459 0.0
O134 O 0.61243 0.13159 0.47969 0.0
C135 C 0.64007 0.08951 0.56151 0.0
O136 O 0.66114 0.10524 0.58217 0.0
O137 O 0.66528 0.15418 0.53259 0.0
C138 C 0.59014 0.11644 0.47399 0.0
O139 O 0.57897 0.10018 0.51257 0.0
C140 C 0.60433 0.12013 0.64704 0.0
O141 O 0.59897 0.09789 0.63634 0.0
O142 O 0.62571 0.09647 0.54501 0.0
C143 C 0.50299 0.68384 0.74134 0.0
O144 O 0.48132 0.66475 0.74312 0.0
O145 O 0.49401 0.63303 0.83355 0.0
Zn146 Zn 0.51394 0.6477 0.76479 0.0
O147 O 0.49581 0.62913 0.69771 0.0
C148 C 0.54572 0.63076 0.79795 0.0
O149 O 0.52785 0.61789 0.83192 0.0
O150 O 0.52108 0.68148 0.75253 0.0
C151 C 0.49036 0.60745 0.68882 0.0
O152 O 0.49607 0.5961 0.72568 0.0
C153 C 0.47136 0.61864 0.83166 0.0
O154 O 0.46021 0.6141 0.7839 0.0
O155 O 0.54446 0.64607 0.76694 0.0
C156 C 0.52665 0.09936 0.18067 0.0
C157 C 0.51827 0.11564 0.17348 0.0
C158 C 0.53805 0.09901 0.22986 0.0
C159 C 0.5409 0.11517 0.27291 0.0
C160 C 0.53227 0.13147 0.2661 0.0
C161 C 0.52116 0.13159 0.21635 0.0
C162 C 0.54725 0.08152 0.23558 0.0
C163 C 0.53482 0.14884 0.3113 0.0
C164 C 0.55239 0.10104 0.41813 0.0
C165 C 0.57737 0.11638 0.42311 0.0
C166 C 0.54023 0.10047 0.36944 0.0
C167 C 0.55343 0.11546 0.32467 0.0
C168 C 0.57863 0.13097 0.32945 0.0
C169 C 0.59028 0.13132 0.3787 0.0
C170 C 0.51328 0.08388 0.36591 0.0
C171 C 0.59332 0.14711 0.28242 0.0
H172 H 0.52449 0.08701 0.14769 0.0
H173 H 0.5146 0.14414 0.21123 0.0
H174 H 0.56702 0.09156 0.24267 0.0
H175 H 0.53886 0.06973 0.27193 0.0
H176 H 0.5434 0.06999 0.19844 0.0
H177 H 0.52655 0.15991 0.29997 0.0
H178 H 0.5262 0.13879 0.34971 0.0
H179 H 0.55418 0.16111 0.32063 0.0
H180 H 0.5423 0.08948 0.45231 0.0
H181 H 0.60961 0.14315 0.38213 0.0
H182 H 0.50889 0.07102 0.33126 0.0
H183 H 0.50427 0.09449 0.35726 0.0
H184 H 0.50566 0.07347 0.40452 0.0
H185 H 0.59114 0.1361 0.24522 0.0
H186 H 0.61282 0.15789 0.29258 0.0
H187 H 0.58672 0.15964 0.27163 0.0
C188 C 0.44233 0.54779 0.39208 0.0
C189 C 0.41732 0.5381 0.38781 0.0
C190 C 0.45468 0.55914 0.44076 0.0
C191 C 0.44165 0.56063 0.48628 0.0
C192 C 0.41641 0.55088 0.48224 0.0
C193 C 0.40456 0.53982 0.43296 0.0
C194 C 0.48165 0.56955 0.44349 0.0
C195 C 0.4019 0.55203 0.53006 0.0
C196 C 0.46943 0.57073 0.6292 0.0
C197 C 0.47794 0.59537 0.63709 0.0
C198 C 0.45761 0.55916 0.58019 0.0
C199 C 0.45442 0.57263 0.53805 0.0
C200 C 0.46311 0.59753 0.54563 0.0
C201 C 0.47468 0.60858 0.59515 0.0
C202 C 0.44837 0.53251 0.57364 0.0
C203 C 0.46018 0.61251 0.50145 0.0
H204 H 0.4523 0.54656 0.35733 0.0
H205 H 0.38521 0.53229 0.43008 0.0
H206 H 0.49064 0.58911 0.45272 0.0
H207 H 0.48625 0.56093 0.47746 0.0
H208 H 0.48913 0.56699 0.40436 0.0
H209 H 0.38235 0.54334 0.52039 0.0
H210 H 0.40426 0.54301 0.56666 0.0
H211 H 0.4085 0.57109 0.54157 0.0
H212 H 0.47185 0.56041 0.66145 0.0
H213 H 0.48129 0.62766 0.60082 0.0
H214 H 0.4566 0.52928 0.53674 0.0
H215 H 0.42857 0.52282 0.56702 0.0
H216 H 0.45239 0.52466 0.61022 0.0
H217 H 0.46864 0.61137 0.46248 0.0
H218 H 0.4684 0.63177 0.51341 0.0
H219 H 0.44075 0.60536 0.4928 0.0
C220 C 0.86875 0.46412 0.77936 0.0
C221 C 0.8828 0.46573 0.82541 0.0
C222 C 0.87045 0.45376 0.72987 0.0
C223 C 0.88641 0.44456 0.72642 0.0
C224 C 0.90065 0.4461 0.77267 0.0
C225 C 0.89875 0.45677 0.82162 0.0
C226 C 0.85508 0.4526 0.6813 0.0
C227 C 0.91771 0.43628 0.77056 0.0
C228 C 0.87219 0.39703 0.61694 0.0
C229 C 0.8886 0.41047 0.57514 0.0
C230 C 0.87159 0.40784 0.66673 0.0
C231 C 0.88763 0.43275 0.67476 0.0
C232 C 0.90427 0.44645 0.63282 0.0
C233 C 0.90463 0.43511 0.58353 0.0
C234 C 0.85368 0.39262 0.71063 0.0
C235 C 0.92149 0.47312 0.63979 0.0
H236 H 0.85647 0.47111 0.78178 0.0
H237 H 0.90965 0.45795 0.85701 0.0
H238 H 0.86668 0.46169 0.64506 0.0
H239 H 0.84276 0.43354 0.66959 0.0
H240 H 0.84409 0.4612 0.69028 0.0
H241 H 0.92773 0.43914 0.80988 0.0
H242 H 0.90749 0.41667 0.76158 0.0
H243 H 0.93091 0.44502 0.73668 0.0
H244 H 0.85982 0.37795 0.61093 0.0
H245 H 0.91734 0.44561 0.55141 0.0
H246 H 0.84107 0.3994 0.71882 0.0
H247 H 0.86324 0.39396 0.74985 0.0
H248 H 0.84299 0.37333 0.69862 0.0
H249 H 0.91119 0.48265 0.64578 0.0
H250 H 0.93358 0.48111 0.60364 0.0
H251 H 0.93273 0.47641 0.67718 0.0
C252 C 0.46221 0.8736 0.78195 0.0
C253 C 0.45832 0.88373 0.73444 0.0
C254 C 0.45171 0.87379 0.8325 0.0
C255 C 0.43676 0.88416 0.83557 0.0
C256 C 0.43263 0.89432 0.78778 0.0
C257 C 0.44356 0.89408 0.73775 0.0
C258 C 0.45667 0.86293 0.88267 0.0
C259 C 0.41659 0.90534 0.78948 0.0
C260 C 0.39174 0.86406 0.95306 0.0
C261 C 0.40318 0.88345 0.98998 0.0
C262 C 0.40242 0.86414 0.90252 0.0
C263 C 0.42517 0.88402 0.88873 0.0
C264 C 0.43696 0.90353 0.92601 0.0
C265 C 0.42578 0.90304 0.97619 0.0
C266 C 0.38927 0.84303 0.86372 0.0
C267 C 0.46134 0.92494 0.91282 0.0
H268 H 0.4737 0.86567 0.77986 0.0
H269 H 0.44045 0.90191 0.70121 0.0
H270 H 0.46478 0.87664 0.91586 0.0
H271 H 0.43952 0.84793 0.89894 0.0
H272 H 0.46904 0.85593 0.8735 0.0
H273 H 0.41522 0.91248 0.74869 0.0
H274 H 0.39821 0.89166 0.80309 0.0
H275 H 0.42365 0.92025 0.81998 0.0
H276 H 0.37423 0.84887 0.96326 0.0
H277 H 0.43473 0.9181 0.00446 0.0
H278 H 0.40042 0.83456 0.85564 0.0
H279 H 0.38623 0.84935 0.82348 0.0
H280 H 0.37157 0.82909 0.8804 0.0
H281 H 0.47462 0.9189 0.90581 0.0
H282 H 0.46815 0.93859 0.94636 0.0
H283 H 0.46027 0.93365 0.87419 0.0
C284 C 0.5184 0.43877 0.08081 0.0
C285 C 0.51717 0.41713 0.09673 0.0
C286 C 0.52989 0.45038 0.03154 0.0
C287 C 0.54012 0.43995 0.99727 0.0
C288 C 0.53885 0.41809 0.01307 0.0
C289 C 0.52752 0.40702 0.06269 0.0
C290 C 0.53118 0.47385 0.01628 0.0
C291 C 0.54944 0.40633 0.97748 0.0
C292 C 0.55259 0.45666 0.84563 0.0
C293 C 0.57768 0.47182 0.84588 0.0
C294 C 0.53997 0.44659 0.89487 0.0
C295 C 0.55276 0.45208 0.94546 0.0
C296 C 0.57797 0.46801 0.94611 0.0
C297 C 0.59014 0.47756 0.89631 0.0
C298 C 0.5131 0.42948 0.89258 0.0
C299 C 0.5922 0.47452 0.99928 0.0
H300 H 0.51046 0.44669 0.10691 0.0
H301 H 0.52654 0.39023 0.07446 0.0
H302 H 0.5503 0.48829 0.01239 0.0
H303 H 0.52251 0.47211 0.97558 0.0
H304 H 0.52223 0.47953 0.04728 0.0
H305 H 0.54637 0.38899 0.99498 0.0
H306 H 0.5414 0.4029 0.93556 0.0
H307 H 0.56915 0.41858 0.97283 0.0
H308 H 0.54287 0.45217 0.8068 0.0
H309 H 0.60951 0.48946 0.89692 0.0
H310 H 0.50368 0.43544 0.92145 0.0
H311 H 0.50904 0.41126 0.90592 0.0
H312 H 0.50564 0.4281 0.85047 0.0
H313 H 0.58412 0.48123 0.03001 0.0
H314 H 0.6114 0.4885 0.99317 0.0
H315 H 0.59154 0.45824 0.01706 0.0
C316 C 0.09483 0.54329 0.24237 0.0
C317 C 0.11121 0.53493 0.24794 0.0
C318 C 0.09376 0.5545 0.19354 0.0
C319 C 0.1093 0.5572 0.14921 0.0
C320 C 0.12574 0.54866 0.15445 0.0
C321 C 0.12658 0.53772 0.20384 0.0
C322 C 0.07614 0.56361 0.18952 0.0
C323 C 0.1425 0.5511 0.10791 0.0
C324 C 0.0935 0.568 0.00491 0.0
C325 C 0.10901 0.59288 0.99898 0.0
C326 C 0.09331 0.55611 0.05375 0.0
C327 C 0.10883 0.56951 0.09772 0.0
C328 C 0.12434 0.59466 0.09216 0.0
C329 C 0.12433 0.60601 0.04277 0.0
C330 C 0.07669 0.52922 0.05812 0.0
C331 C 0.141 0.60957 0.13835 0.0
H332 H 0.08291 0.5412 0.27628 0.0
H333 H 0.1392 0.53118 0.2077 0.0
H334 H 0.08603 0.58334 0.18201 0.0
H335 H 0.06381 0.55504 0.15401 0.0
H336 H 0.06516 0.55992 0.22754 0.0
H337 H 0.15379 0.54294 0.11812 0.0
H338 H 0.13192 0.5423 0.07015 0.0
H339 H 0.15458 0.57042 0.09803 0.0
H340 H 0.08164 0.55774 0.97122 0.0
H341 H 0.13627 0.62528 0.03864 0.0
H342 H 0.06446 0.525 0.09397 0.0
H343 H 0.08741 0.52019 0.06527 0.0
H344 H 0.06559 0.52147 0.02038 0.0
H345 H 0.13045 0.60737 0.17636 0.0
H346 H 0.15148 0.62905 0.12793 0.0
H347 H 0.15384 0.6032 0.1479 0.0
C348 C 0.47737 0.29105 0.15843 0.0
C349 C 0.47859 0.29436 0.21586 0.0
C350 C 0.47841 0.27167 0.13475 0.0
C351 C 0.48058 0.25509 0.16933 0.0
C352 C 0.48093 0.25776 0.22739 0.0
C353 C 0.47997 0.27744 0.25004 0.0
C354 C 0.47805 0.26944 0.07263 0.0
C355 C 0.48305 0.24026 0.26547 0.0
C356 C 0.46718 0.19535 0.10672 0.0
C357 C 0.49048 0.19957 0.09566 0.0
C358 C 0.46365 0.21319 0.1312 0.0
C359 C 0.48389 0.23579 0.1444 0.0
C360 C 0.50742 0.24027 0.13258 0.0
C361 C 0.51043 0.22207 0.10849 0.0
C362 C 0.43831 0.20781 0.1434 0.0
C363 C 0.52943 0.26428 0.14552 0.0
H364 H 0.47618 0.30396 0.13161 0.0
H365 H 0.48083 0.27983 0.29443 0.0
H366 H 0.49548 0.27165 0.05817 0.0
H367 H 0.46369 0.25125 0.05965 0.0
H368 H 0.47499 0.28311 0.05171 0.0
H369 H 0.48136 0.24388 0.3096 0.0
H370 H 0.46893 0.22151 0.2556 0.0
H371 H 0.50078 0.24144 0.25938 0.0
H372 H 0.45168 0.17794 0.09722 0.0
H373 H 0.52848 0.22546 0.1 0.0
H374 H 0.43461 0.22081 0.12139 0.0
H375 H 0.43635 0.20999 0.18819 0.0
H376 H 0.42451 0.18925 0.13097 0.0
H377 H 0.52841 0.2789 0.12339 0.0
H378 H 0.54647 0.26484 0.13367 0.0
H379 H 0.5301 0.26812 0.19032 0.0
C380 C 0.29544 0.51927 0.30966 0.0
C381 C 0.30021 0.50035 0.30255 0.0
C382 C 0.27261 0.51478 0.3262 0.0
C383 C 0.25413 0.49078 0.33608 0.0
C384 C 0.25877 0.47156 0.3289 0.0
C385 C 0.28178 0.47657 0.31204 0.0
C386 C 0.26827 0.53575 0.33305 0.0
C387 C 0.23946 0.44576 0.3392 0.0
C388 C 0.20296 0.48604 0.42372 0.0
C389 C 0.18661 0.48441 0.38308 0.0
C390 C 0.22457 0.48686 0.4092 0.0
C391 C 0.22985 0.48602 0.35279 0.0
C392 C 0.21278 0.48295 0.31188 0.0
C393 C 0.19135 0.48215 0.32753 0.0
C394 C 0.2423 0.48993 0.45398 0.0
C395 C 0.21773 0.48188 0.25131 0.0
H396 H 0.30957 0.53768 0.30236 0.0
H397 H 0.28539 0.46186 0.30683 0.0
H398 H 0.25355 0.53352 0.30513 0.0
H399 H 0.26244 0.53623 0.3759 0.0
H400 H 0.28461 0.55334 0.32394 0.0
H401 H 0.24605 0.4329 0.33218 0.0
H402 H 0.23286 0.44371 0.38228 0.0
H403 H 0.22381 0.44081 0.31168 0.0
H404 H 0.19935 0.48763 0.46674 0.0
H405 H 0.17869 0.48061 0.29586 0.0
H406 H 0.25835 0.50824 0.45128 0.0
H407 H 0.24863 0.4768 0.44842 0.0
H408 H 0.2344 0.48756 0.49588 0.0
H409 H 0.23261 0.4997 0.23775 0.0
H410 H 0.20166 0.47707 0.22524 0.0
H411 H 0.22363 0.46852 0.24401 0.0
C412 C 0.71984 0.20059 0.59869 0.0
C413 C 0.70439 0.18551 0.55722 0.0
C414 C 0.74134 0.22169 0.58523 0.0
C415 C 0.74742 0.22774 0.52906 0.0
C416 C 0.73258 0.21189 0.48715 0.0
C417 C 0.71126 0.19094 0.50175 0.0
C418 C 0.75689 0.23811 0.63101 0.0
C419 C 0.73849 0.21772 0.42678 0.0
C420 C 0.78319 0.29394 0.49244 0.0
C421 C 0.80628 0.29725 0.48365 0.0
C422 C 0.76393 0.27138 0.50732 0.0
C423 C 0.7679 0.25169 0.51391 0.0
C424 C 0.79114 0.25484 0.50502 0.0
C425 C 0.81008 0.27762 0.48973 0.0
C426 C 0.7393 0.26863 0.51592 0.0
C427 C 0.79598 0.23422 0.51193 0.0
H428 H 0.71473 0.19643 0.64164 0.0
H429 H 0.69954 0.17925 0.46941 0.0
H430 H 0.77604 0.2433 0.62454 0.0
H431 H 0.75591 0.25492 0.63069 0.0
H432 H 0.75112 0.22959 0.67229 0.0
H433 H 0.72638 0.20245 0.39956 0.0
H434 H 0.73673 0.23358 0.41566 0.0
H435 H 0.7574 0.22252 0.41844 0.0
H436 H 0.78012 0.30902 0.48768 0.0
H437 H 0.82794 0.28011 0.48325 0.0
H438 H 0.73296 0.2623 0.55851 0.0
H439 H 0.7261 0.25484 0.48721 0.0
H440 H 0.73927 0.28577 0.50914 0.0
H441 H 0.79133 0.22697 0.5545 0.0
H442 H 0.81512 0.23971 0.50383 0.0
H443 H 0.78438 0.21933 0.48339 0.0
C444 C 0.51765 0.81166 0.66791 0.0
C445 C 0.51333 0.81322 0.61166 0.0
C446 C 0.51814 0.79158 0.68906 0.0
C447 C 0.51436 0.77265 0.65305 0.0
C448 C 0.51123 0.77462 0.59579 0.0
C449 C 0.5107 0.79491 0.57572 0.0
C450 C 0.5215 0.79012 0.75038 0.0
C451 C 0.50739 0.75483 0.55614 0.0
C452 C 0.52916 0.72577 0.706 0.0
C453 C 0.50625 0.70705 0.72125 0.0
C454 C 0.53211 0.74722 0.6832 0.0
C455 C 0.5117 0.75001 0.67612 0.0
C456 C 0.48861 0.73132 0.69224 0.0
C457 C 0.48616 0.71003 0.71442 0.0
C458 C 0.55697 0.76676 0.66619 0.0
C459 C 0.46646 0.73379 0.68593 0.0
H460 H 0.5199 0.82582 0.69598 0.0
H461 H 0.50749 0.79605 0.5322 0.0
H462 H 0.50465 0.77537 0.7685 0.0
H463 H 0.536 0.78582 0.75835 0.0
H464 H 0.5261 0.80717 0.77205 0.0
H465 H 0.50759 0.76014 0.51242 0.0
H466 H 0.52154 0.74986 0.56193 0.0
H467 H 0.48976 0.7385 0.56465 0.0
H468 H 0.54474 0.7235 0.71084 0.0
H469 H 0.46843 0.69564 0.72622 0.0
H470 H 0.56191 0.78366 0.68883 0.0
H471 H 0.55709 0.77066 0.62155 0.0
H472 H 0.57096 0.76171 0.67424 0.0
H473 H 0.46881 0.74968 0.70946 0.0
H474 H 0.44984 0.71759 0.7007 0.0
H475 H 0.46394 0.73682 0.64196 0.0
C476 C 0.71127 0.50709 0.77313 0.0
C477 C 0.68928 0.49238 0.79986 0.0
C478 C 0.73245 0.50755 0.79031 0.0
C479 C 0.73157 0.49317 0.83558 0.0
C480 C 0.70953 0.4787 0.86343 0.0
C481 C 0.68863 0.47838 0.84503 0.0
C482 C 0.75562 0.52301 0.75931 0.0
C483 C 0.70794 0.46328 0.91219 0.0
C484 C 0.77787 0.47306 0.84672 0.0
C485 C 0.79382 0.48905 0.88635 0.0
C486 C 0.75779 0.47452 0.82918 0.0
C487 C 0.7534 0.49224 0.85227 0.0
C488 C 0.7694 0.50845 0.89232 0.0
C489 C 0.78953 0.50675 0.90872 0.0
C490 C 0.74122 0.45701 0.78607 0.0
C491 C 0.76508 0.5274 0.91822 0.0
H492 H 0.71187 0.51795 0.73821 0.0
H493 H 0.67173 0.46713 0.86623 0.0
H494 H 0.7699 0.53547 0.78816 0.0
H495 H 0.76199 0.51143 0.74034 0.0
H496 H 0.75345 0.53379 0.72626 0.0
H497 H 0.6897 0.45405 0.93108 0.0
H498 H 0.71243 0.4494 0.89899 0.0
H499 H 0.72126 0.47449 0.94419 0.0
H500 H 0.78115 0.45944 0.82892 0.0
H501 H 0.80179 0.51915 0.93938 0.0
H502 H 0.73963 0.467 0.75042 0.0
H503 H 0.72288 0.44582 0.80349 0.0
H504 H 0.74765 0.44485 0.77087 0.0
H505 H 0.76417 0.53913 0.88577 0.0
H506 H 0.77944 0.53888 0.94814 0.0
H507 H 0.74749 0.51864 0.93997 0.0
C508 C 0.21565 0.71008 0.93155 0.0
C509 C 0.19188 0.70551 0.92784 0.0
C510 C 0.23299 0.72957 0.96244 0.0
C511 C 0.2263 0.74465 0.99083 0.0
C512 C 0.20246 0.74044 0.98638 0.0
C513 C 0.18555 0.72099 0.95455 0.0
C514 C 0.25837 0.73377 0.96544 0.0
C515 C 0.19467 0.75605 0.01644 0.0
C516 C 0.26702 0.77906 0.11115 0.0
C517 C 0.28208 0.8016 0.08714 0.0
C518 C 0.24805 0.7606 0.08095 0.0
C519 C 0.24436 0.76475 0.0253 0.0
C520 C 0.25897 0.78772 0.00151 0.0
C521 C 0.27753 0.80592 0.03284 0.0
C522 C 0.2325 0.73641 0.10794 0.0
C523 C 0.25576 0.79275 0.94213 0.0
H524 H 0.22065 0.69822 0.91086 0.0
H525 H 0.16715 0.71744 0.95218 0.0
H526 H 0.27143 0.75239 0.95204 0.0
H527 H 0.26286 0.73188 0.00871 0.0
H528 H 0.26085 0.72092 0.9393 0.0
H529 H 0.17561 0.75072 0.00762 0.0
H530 H 0.19675 0.7548 0.06159 0.0
H531 H 0.20634 0.77521 0.00464 0.0
H532 H 0.27034 0.77566 0.15315 0.0
H533 H 0.28909 0.82328 0.01386 0.0
H534 H 0.23568 0.72267 0.08793 0.0
H535 H 0.21313 0.73057 0.1024 0.0
H536 H 0.23631 0.73675 0.15277 0.0
H537 H 0.25998 0.78156 0.91445 0.0
H538 H 0.26761 0.812 0.93093 0.0
H539 H 0.23676 0.78777 0.93424 0.0
C540 C 0.59767 0.14874 0.70479 0.0
C541 C 0.59399 0.12548 0.69604 0.0
C542 C 0.58731 0.15379 0.75021 0.0
C543 C 0.57303 0.13516 0.78785 0.0
C544 C 0.56949 0.11173 0.7796 0.0
C545 C 0.57997 0.10716 0.73375 0.0
C546 C 0.59141 0.17897 0.75762 0.0
C547 C 0.5545 0.09141 0.81906 0.0
C548 C 0.56199 0.1499 0.93284 0.0
C549 C 0.53819 0.1453 0.92891 0.0
C550 C 0.57379 0.14724 0.88689 0.0
C551 C 0.56154 0.13998 0.83571 0.0
C552 C 0.53784 0.13615 0.83097 0.0
C553 C 0.52641 0.13878 0.87768 0.0
C554 C 0.59904 0.15141 0.89359 0.0
C555 C 0.52428 0.12859 0.77693 0.0
H556 H 0.60847 0.163 0.67583 0.0
H557 H 0.57707 0.08916 0.72742 0.0
H558 H 0.57389 0.17857 0.75681 0.0
H559 H 0.59978 0.18621 0.79842 0.0
H560 H 0.60322 0.1915 0.72503 0.0
H561 H 0.55386 0.07434 0.80732 0.0
H562 H 0.56194 0.0964 0.86144 0.0
H563 H 0.53579 0.08818 0.82026 0.0
H564 H 0.57124 0.15494 0.97224 0.0
H565 H 0.50806 0.13529 0.87423 0.0
H566 H 0.61121 0.1645 0.86238 0.0
H567 H 0.59901 0.13428 0.88654 0.0
H568 H 0.60654 0.15827 0.93531 0.0
H569 H 0.53514 0.14132 0.74371 0.0
H570 H 0.50658 0.12783 0.77926 0.0
H571 H 0.52113 0.11053 0.76495 0.0
C572 C 0.4338 0.58738 0.87825 0.0
C573 C 0.45813 0.60542 0.88176 0.0
C574 C 0.42158 0.57324 0.92426 0.0
C575 C 0.43396 0.5773 0.97505 0.0
C576 C 0.45826 0.59603 0.97939 0.0
C577 C 0.47007 0.60983 0.93266 0.0
C578 C 0.39567 0.55341 0.91802 0.0
C579 C 0.47201 0.60099 0.03297 0.0
C580 C 0.39808 0.55116 0.10688 0.0
C581 C 0.40022 0.53058 0.1144 0.0
C582 C 0.40886 0.5665 0.06154 0.0
C583 C 0.42197 0.56107 0.02276 0.0
C584 C 0.42393 0.54017 0.02976 0.0
C585 C 0.41308 0.52522 0.07552 0.0
C586 C 0.40645 0.58866 0.05546 0.0
C587 C 0.43765 0.53369 0.98908 0.0
H588 H 0.4244 0.58386 0.83912 0.0
H589 H 0.48884 0.62378 0.93582 0.0
H590 H 0.39441 0.53565 0.92411 0.0
H591 H 0.38428 0.55518 0.95003 0.0
H592 H 0.38818 0.55356 0.87674 0.0
H593 H 0.49027 0.61718 0.03047 0.0
H594 H 0.46191 0.6036 0.06686 0.0
H595 H 0.47399 0.58526 0.04408 0.0
H596 H 0.3882 0.55545 0.13676 0.0
H597 H 0.41477 0.50934 0.08088 0.0
H598 H 0.39814 0.58835 0.01505 0.0
H599 H 0.42456 0.60506 0.05623 0.0
H600 H 0.39532 0.59013 0.08872 0.0
H601 H 0.43004 0.53189 0.94706 0.0
H602 H 0.43709 0.51657 -7e-05 0.0
H603 H 0.45677 0.54829 0.98749 0.0
C604 C 0.86446 0.46345 0.11501 0.0
C605 C 0.84728 0.45 0.07445 0.0
C606 C 0.86596 0.45264 0.16407 0.0
C607 C 0.84975 0.42782 0.17306 0.0
C608 C 0.8322 0.41418 0.13258 0.0
C609 C 0.83124 0.42542 0.08362 0.0
C610 C 0.88504 0.46774 0.20608 0.0
C611 C 0.81449 0.38772 0.14092 0.0
C612 C 0.86794 0.39518 0.2765 0.0
C613 C 0.85537 0.39522 0.32387 0.0
C614 C 0.86616 0.4056 0.22704 0.0
C615 C 0.85131 0.41614 0.22476 0.0
C616 C 0.83834 0.41597 0.2722 0.0
C617 C 0.84061 0.4056 0.32124 0.0
C618 C 0.8804 0.4056 0.17741 0.0
C619 C 0.82219 0.42688 0.27124 0.0
H620 H 0.877 0.48243 0.10818 0.0
H621 H 0.81788 0.41491 0.05255 0.0
H622 H 0.87647 0.46737 0.2461 0.0
H623 H 0.89702 0.46013 0.21332 0.0
H624 H 0.89627 0.4868 0.1928 0.0
H625 H 0.80167 0.37977 0.10589 0.0
H626 H 0.82433 0.37767 0.14584 0.0
H627 H 0.80404 0.38508 0.17933 0.0
H628 H 0.87942 0.38724 0.27818 0.0
H629 H 0.83075 0.40562 0.35756 0.0
H630 H 0.89307 0.4244 0.16448 0.0
H631 H 0.86808 0.39646 0.14218 0.0
H632 H 0.8909 0.39641 0.18577 0.0
H633 H 0.83299 0.44639 0.2617 0.0
H634 H 0.8128 0.42466 0.31118 0.0
H635 H 0.80845 0.41839 0.2382 0.0
C636 C 0.45778 0.86504 0.44298 0.0
C637 C 0.44682 0.84864 0.48644 0.0
C638 C 0.44486 0.86365 0.395 0.0
C639 C 0.42038 0.84541 0.39023 0.0
C640 C 0.40929 0.82859 0.43354 0.0
C641 C 0.42264 0.83041 0.48116 0.0
C642 C 0.45734 0.88193 0.34968 0.0
C643 C 0.38325 0.80885 0.42985 0.0
C644 C 0.38209 0.85765 0.29005 0.0
C645 C 0.38221 0.84491 0.24307 0.0
C646 C 0.39402 0.85755 0.3386 0.0
C647 C 0.40632 0.84434 0.34029 0.0
C648 C 0.40599 0.83093 0.29353 0.0
C649 C 0.39395 0.83139 0.24547 0.0
C650 C 0.39396 0.87207 0.38763 0.0
C651 C 0.41884 0.81657 0.29382 0.0
H652 H 0.47646 0.87917 0.44661 0.0
H653 H 0.41403 0.81764 0.51446 0.0
H654 H 0.45636 0.87262 0.31034 0.0
H655 H 0.44805 0.89242 0.34301 0.0
H656 H 0.4766 0.89469 0.35931 0.0
H657 H 0.37748 0.79679 0.46642 0.0
H658 H 0.37146 0.81689 0.42623 0.0
H659 H 0.38038 0.79783 0.39228 0.0
H660 H 0.37307 0.86814 0.28864 0.0
H661 H 0.3941 0.82144 0.20944 0.0
H662 H 0.41266 0.88651 0.39685 0.0
H663 H 0.38712 0.86041 0.42471 0.0
H664 H 0.38268 0.88051 0.38047 0.0
H665 H 0.43851 0.8289 0.29909 0.0
H666 H 0.41583 0.80614 0.25513 0.0
H667 H 0.41264 0.80389 0.32919 0.0
C668 C 0.5988 0.46323 0.55938 0.0
C669 C 0.59833 0.4502 0.60636 0.0
C670 C 0.58692 0.45142 0.51066 0.0
C671 C 0.57429 0.42592 0.50872 0.0
C672 C 0.57399 0.41263 0.55571 0.0
C673 C 0.58599 0.42493 0.60401 0.0
C674 C 0.58763 0.46623 0.46146 0.0
C675 C 0.56075 0.38543 0.55514 0.0
C676 C 0.52474 0.39654 0.40108 0.0
C677 C 0.53644 0.39145 0.35868 0.0
C678 C 0.53672 0.40737 0.45049 0.0
C679 C 0.56099 0.41323 0.45778 0.0
C680 C 0.57278 0.40774 0.41562 0.0
C681 C 0.56037 0.39692 0.36656 0.0
C682 C 0.52353 0.41294 0.4945 0.0
C683 C 0.59865 0.41369 0.42194 0.0
H684 H 0.60826 0.48276 0.56076 0.0
H685 H 0.58554 0.41471 0.64006 0.0
H686 H 0.59519 0.46173 0.42517 0.0
H687 H 0.56905 0.46188 0.45045 0.0
H688 H 0.59863 0.48591 0.46934 0.0
H689 H 0.56278 0.37778 0.59458 0.0
H690 H 0.54126 0.37839 0.5475 0.0
H691 H 0.56754 0.37889 0.52103 0.0
H692 H 0.50623 0.39234 0.39546 0.0
H693 H 0.56955 0.39301 0.33412 0.0
H694 H 0.53269 0.43268 0.50153 0.0
H695 H 0.52392 0.40447 0.53412 0.0
H696 H 0.50443 0.40648 0.48323 0.0
H697 H 0.61055 0.43347 0.42608 0.0
H698 H 0.60491 0.40739 0.38627 0.0
H699 H 0.60075 0.40534 0.46009 0.0
C700 C 0.1461 0.55151 0.53012 0.0
C701 C 0.12348 0.53071 0.5233 0.0
C702 C 0.15075 0.56699 0.57526 0.0
C703 C 0.13237 0.56147 0.61458 0.0
C704 C 0.10961 0.54039 0.60824 0.0
C705 C 0.10543 0.5253 0.56266 0.0
C706 C 0.17522 0.58934 0.58063 0.0
C707 C 0.08959 0.53382 0.6495 0.0
C708 C 0.14749 0.58807 0.75885 0.0
C709 C 0.14091 0.6059 0.75579 0.0
C710 C 0.14547 0.57393 0.71273 0.0
C711 C 0.13675 0.57777 0.66229 0.0
C712 C 0.13092 0.59632 0.65835 0.0
C713 C 0.13303 0.61014 0.70518 0.0
C714 C 0.15185 0.5543 0.71856 0.0
C715 C 0.1217 0.60105 0.60514 0.0
H716 H 0.16015 0.55584 0.49988 0.0
H717 H 0.08792 0.50925 0.55785 0.0
H718 H 0.17328 0.6056 0.58021 0.0
H719 H 0.18356 0.5892 0.62069 0.0
H720 H 0.18765 0.59091 0.54686 0.0
H721 H 0.07305 0.5166 0.63902 0.0
H722 H 0.09568 0.53215 0.69131 0.0
H723 H 0.08493 0.54831 0.6514 0.0
H724 H 0.15364 0.58468 0.79773 0.0
H725 H 0.12797 0.62392 0.70237 0.0
H726 H 0.16484 0.55612 0.68605 0.0
H727 H 0.13541 0.53643 0.71296 0.0
H728 H 0.15981 0.55463 0.75953 0.0
H729 H 0.13423 0.60368 0.5708 0.0
H730 H 0.11951 0.61716 0.60786 0.0
H731 H 0.10398 0.5852 0.59456 0.0
C732 C 0.43423 0.04005 0.00474 0.0
C733 C 0.43249 0.0591 0.02833 0.0
C734 C 0.42003 0.01642 0.02404 0.0
C735 C 0.4035 0.01171 0.06753 0.0
C736 C 0.40031 0.03052 0.08858 0.0
C737 C 0.41494 0.05407 0.06886 0.0
C738 C 0.42391 -0.0032 0.00037 0.0
C739 C 0.3825 0.02608 0.13416 0.0
C740 C 0.36106 0.94521 0.09265 0.0
C741 C 0.37369 0.94032 0.13323 0.0
C742 C 0.36971 0.96873 0.07312 0.0
C743 C 0.39159 0.98768 0.09436 0.0
C744 C 0.40355 0.9831 0.13784 0.0
C745 C 0.39436 0.95947 0.15698 0.0
C746 C 0.35621 0.97303 0.02752 0.0
C747 C 0.42693 0.00288 0.16167 0.0
H748 H 0.44761 0.04373 0.97316 0.0
H749 H 0.41332 0.06867 0.08694 0.0
H750 H 0.43196 0.99055 0.03235 0.0
H751 H 0.40644 0.98105 0.988 0.0
H752 H 0.43605 0.00303 0.96395 0.0
H753 H 0.37945 0.04156 0.13973 0.0
H754 H 0.36495 0.00965 0.12556 0.0
H755 H 0.38944 0.02307 0.17355 0.0
H756 H 0.3449 0.93052 0.07448 0.0
H757 H 0.40416 0.95588 0.18854 0.0
H758 H 0.36622 0.97624 0.98818 0.0
H759 H 0.35483 0.98929 0.03625 0.0
H760 H 0.33777 0.95739 0.02175 0.0
H761 H 0.44127 0.00927 0.12979 0.0
H762 H 0.43293 -0.00327 0.19814 0.0
H763 H 0.42501 0.0185 0.174 0.0
C764 C 0.40921 0.3633 0.31793 0.0
C765 C 0.41935 0.36164 0.26804 0.0
C766 C 0.39368 0.37283 0.31932 0.0
C767 C 0.38817 0.38069 0.26962 0.0
C768 C 0.39629 0.37661 0.21866 0.0
C769 C 0.41187 0.36719 0.2185 0.0
C770 C 0.3852 0.37669 0.37446 0.0
C771 C 0.39057 0.38442 0.16466 0.0
C772 C 0.34519 0.40553 0.26673 0.0
C773 C 0.3615 0.4304 0.2694 0.0
C774 C 0.35344 0.38889 0.26768 0.0
C775 C 0.37849 0.39743 0.27158 0.0
C776 C 0.39493 0.42248 0.27523 0.0
C777 C 0.38625 0.4386 0.27395 0.0
C778 C 0.33546 0.3623 0.26351 0.0
C779 C 0.42183 0.43237 0.27971 0.0
H780 H 0.41471 0.35878 0.35634 0.0
H781 H 0.41927 0.36549 0.17965 0.0
H782 H 0.3963 0.39593 0.3864 0.0
H783 H 0.36616 0.37241 0.3722 0.0
H784 H 0.38688 0.36553 0.40735 0.0
H785 H 0.39447 0.37618 0.12867 0.0
H786 H 0.37135 0.37959 0.16305 0.0
H787 H 0.40167 0.40431 0.16089 0.0
H788 H 0.32604 0.39909 0.26327 0.0
H789 H 0.399 0.45776 0.27646 0.0
H790 H 0.33836 0.35235 0.29736 0.0
H791 H 0.33812 0.35514 0.22408 0.0
H792 H 0.31654 0.35849 0.26523 0.0
H793 H 0.42591 0.42441 0.3159 0.0
H794 H 0.43206 0.45231 0.284 0.0
H795 H 0.42843 0.42741 0.24244 0.0
C796 C 0.05636 0.40509 0.40136 0.0
C797 C 0.06387 0.42879 0.38471 0.0
C798 C 0.03169 0.38781 0.4047 0.0
C799 C 0.01434 0.39453 0.39122 0.0
C800 C 0.0219 0.41819 0.37255 0.0
C801 C 0.04652 0.43496 0.36951 0.0
C802 C 0.02424 0.3627 0.42439 0.0
C803 C 0.00398 0.4261 0.35758 0.0
C804 C 0.94815 0.35397 0.36062 0.0
C805 C 0.9379 0.35724 0.40861 0.0
C806 C 0.97324 0.36415 0.35601 0.0
C807 C 0.98823 0.37784 0.40041 0.0
C808 C 0.97777 0.37913 0.45077 0.0
C809 C 0.95271 0.3688 0.45425 0.0
C810 C 0.98375 0.36206 0.30197 0.0
C811 C 0.99309 0.39338 0.4993 0.0
H812 H 0.06969 0.40017 0.41292 0.0
H813 H 0.05213 0.45315 0.35603 0.0
H814 H 0.01662 0.3601 0.46658 0.0
H815 H 0.00995 0.34903 0.39737 0.0
H816 H 0.03967 0.35936 0.4255 0.0
H817 H 0.01287 0.44481 0.34129 0.0
H818 H 0.99114 0.41386 0.32601 0.0
H819 H 0.99332 0.42517 0.39454 0.0
H820 H 0.93678 0.34479 0.32541 0.0
H821 H 0.94486 0.37097 0.4919 0.0
H822 H -0.00084 0.35905 0.30905 0.0
H823 H 0.99061 0.37914 0.2786 0.0
H824 H 0.97008 0.34715 0.27611 0.0
H825 H 0.00777 0.38929 0.50675 0.0
H826 H 0.98231 0.38962 0.53768 0.0
H827 H 0.00163 0.41292 0.49015 0.0
C828 C 0.56893 0.95274 0.62439 0.0
C829 C 0.56873 0.93713 0.58358 0.0
C830 C 0.58487 0.97758 0.62136 0.0
C831 C 0.60103 0.98705 0.57638 0.0
C832 C 0.60231 0.97123 0.5375 0.0
C833 C 0.58607 0.94636 0.54153 0.0
C834 C 0.58302 0.99381 0.66395 0.0
C835 C 0.61957 0.98068 0.48946 0.0
C836 C 0.61039 0.04765 0.53319 0.0
C837 C 0.63205 0.06351 0.55996 0.0
C838 C 0.60087 0.02272 0.5357 0.0
C839 C 0.61333 0.01335 0.56565 0.0
C840 C 0.63592 0.02924 0.59007 0.0
C841 C 0.64504 0.05424 0.58703 0.0
C842 C 0.57675 0.0064 0.50884 0.0
C843 C 0.64983 0.01986 0.62174 0.0
H844 H 0.55587 0.94569 0.65763 0.0
H845 H 0.58619 0.93435 0.51017 0.0
H846 H 0.60116 0.00723 0.6794 0.0
H847 H 0.57498 0.00389 0.64471 0.0
H848 H 0.57165 0.98352 0.69965 0.0
H849 H 0.62164 0.96622 0.46942 0.0
H850 H 0.61268 0.98842 0.45821 0.0
H851 H 0.63757 0.99527 0.50293 0.0
H852 H 0.60039 0.05466 0.51147 0.0
H853 H 0.66189 0.06642 0.60744 0.0
H854 H 0.56309 -0.00371 0.54113 0.0
H855 H 0.57788 0.993 0.48195 0.0
H856 H 0.57033 0.01657 0.48363 0.0
H857 H 0.64089 0.01255 0.66197 0.0
H858 H 0.66871 0.03422 0.62978 0.0
H859 H 0.65003 0.00494 0.59897 0.0
C860 C 0.63504 0.57938 0.73755 0.0
C861 C 0.6228 0.5623 0.6959 0.0
C862 C 0.62741 0.59553 0.75385 0.0
C863 C 0.60695 0.59429 0.72828 0.0
C864 C 0.59596 0.57863 0.6829 0.0
C865 C 0.60415 0.56293 0.667 0.0
C866 C 0.64006 0.61254 0.80123 0.0
C867 C 0.57416 0.57684 0.65426 0.0
C868 C 0.56184 0.60287 0.81087 0.0
C869 C 0.56444 0.62412 0.78795 0.0
C870 C 0.57657 0.59369 0.79392 0.0
C871 C 0.59463 0.6063 0.75374 0.0
C872 C 0.5987 0.6288 0.73388 0.0
C873 C 0.58339 0.63737 0.7509 0.0
C874 C 0.57162 0.5696 0.81616 0.0
C875 C 0.61822 0.64309 0.69224 0.0
H876 H 0.64974 0.57928 0.75956 0.0
H877 H 0.5948 0.55004 0.63426 0.0
H878 H 0.6419 0.63044 0.79335 0.0
H879 H 0.62923 0.6052 0.83936 0.0
H880 H 0.65825 0.61492 0.80874 0.0
H881 H 0.56929 0.56563 0.61631 0.0
H882 H 0.55851 0.56868 0.68277 0.0
H883 H 0.57742 0.595 0.64298 0.0
H884 H 0.54737 0.5926 0.83981 0.0
H885 H 0.58569 0.65398 0.73349 0.0
H886 H 0.58847 0.57089 0.8321 0.0
H887 H 0.56485 0.55608 0.78238 0.0
H888 H 0.55804 0.56292 0.84983 0.0
H889 H 0.63503 0.64294 0.70258 0.0
H890 H 0.6223 0.66208 0.68978 0.0
H891 H 0.61226 0.63479 0.65086 0.0
C892 C 0.03349 0.60045 0.82963 0.0
C893 C 0.05198 0.62192 0.85225 0.0
C894 C 0.00971 0.59045 0.84844 0.0
C895 C 0.00426 0.60242 0.89026 0.0
C896 C 0.0224 0.62516 0.90968 0.0
C897 C 0.04615 0.63459 0.8907 0.0
C898 C 0.99085 0.56614 0.82658 0.0
C899 C 0.01713 0.63876 0.95315 0.0
C900 C 0.9372 0.57404 0.9167 0.0
C901 C 0.93394 0.55759 0.95871 0.0
C902 C 0.96032 0.59014 0.89639 0.0
C903 C 0.98048 0.5895 0.91823 0.0
C904 C 0.97745 0.57417 0.96329 0.0
C905 C 0.95423 0.55852 0.98322 0.0
C906 C 0.96293 0.60669 0.84928 0.0
C907 C -0.00147 0.57298 0.98788 0.0
H908 H 0.03778 0.59063 0.7996 0.0
H909 H 0.0603 0.65137 0.90787 0.0
H910 H 0.98546 0.55246 0.85976 0.0
H911 H 0.97447 0.56661 0.81369 0.0
H912 H -0.00251 0.56023 0.79089 0.0
H913 H 0.03173 0.65788 0.95601 0.0
H914 H -0.00016 0.6382 0.94436 0.0
H915 H 0.01535 0.63016 0.99392 0.0
H916 H 0.92163 0.57364 0.89793 0.0
H917 H 0.95192 0.54605 0.01604 0.0
H918 H 0.96596 0.59948 0.81036 0.0
H919 H 0.97873 0.62492 0.85578 0.0
H920 H 0.94656 0.60832 0.84412 0.0
H921 H 0.00579 0.56547 0.95697 0.0
H922 H 0.99341 0.56152 0.02543 0.0
H923 H 0.01327 0.59129 0.99879 0.0
loop_
_geom_bond_atom_site_label_1
_geom_bond_atom_site_label_2
_geom_bond_distance
_geom_bond_site_symmetry_2
_ccdc_geom_bond_type
C0 O1 1.160 . S
C0 O7 1.185 . S
O1 C0 1.160 . S
O2 Zn3 1.899 . S
O2 C10 1.284 . S
Zn3 O2 1.899 . S
Zn3 O4 2.032 . S
Zn3 O7 2.086 . S
Zn3 O12 1.977 . S
O4 Zn3 2.032 . S
O4 C8 1.278 . S
C5 O6 1.203 . S
C5 O12 1.267 . S
O6 C5 1.203 . S
O7 C0 1.185 . S
O7 Zn3 2.086 . S
C8 O4 1.278 . S
C8 O9 1.211 . S
O9 C8 1.211 . S
C10 O2 1.284 . S
C10 O11 1.273 . S
O11 C10 1.273 . S
O12 Zn3 1.977 . S
O12 C5 1.267 . S
C13 O14 1.160 . S
C13 O20 1.185 . S
O14 C13 1.160 . S
O15 Zn16 1.899 . S
O15 C23 1.284 . S
Zn16 O15 1.899 . S
Zn16 O17 2.032 . S
Zn16 O20 2.086 . S
Zn16 O25 1.977 . S
O17 Zn16 2.032 . S
O17 C21 1.278 . S
C18 O19 1.203 . S
C18 O25 1.267 . S
O19 C18 1.203 . S
O20 C13 1.185 . S
O20 Zn16 2.086 . S
C21 O17 1.278 . S
C21 O22 1.211 . S
O22 C21 1.211 . S
C23 O15 1.284 . S
C23 O24 1.273 . S
O24 C23 1.273 . S
O25 Zn16 1.977 . S
O25 C18 1.267 . S
C26 O27 1.160 . S
C26 O33 1.185 . S
O27 C26 1.160 . S
O28 Zn29 1.899 . S
O28 C36 1.284 . S
Zn29 O28 1.899 . S
Zn29 O30 2.032 . S
Zn29 O33 2.086 . S
Zn29 O38 1.977 . S
O30 Zn29 2.032 . S
O30 C34 1.278 . S
C31 O32 1.203 . S
C31 O38 1.267 . S
O32 C31 1.203 . S
O33 C26 1.185 . S
O33 Zn29 2.086 . S
C34 O30 1.278 . S
C34 O35 1.211 . S
O35 C34 1.211 . S
C36 O28 1.284 . S
C36 O37 1.273 . S
O37 C36 1.273 . S
O38 Zn29 1.977 . S
O38 C31 1.267 . S
C39 O40 1.160 . S
C39 O46 1.185 . S
O40 C39 1.160 . S
O41 Zn42 1.899 . S
O41 C49 1.284 . S
Zn42 O41 1.899 . S
Zn42 O43 2.032 . S
Zn42 O46 2.086 . S
Zn42 O51 1.977 . S
O43 Zn42 2.032 . S
O43 C47 1.278 . S
C44 O45 1.203 . S
C44 O51 1.267 . S
O45 C44 1.203 . S
O46 C39 1.185 . S
O46 Zn42 2.086 . S
C47 O43 1.278 . S
C47 O48 1.211 . S
O48 C47 1.211 . S
C49 O41 1.284 . S
C49 O50 1.273 . S
O50 C49 1.273 . S
O51 Zn42 1.977 . S
O51 C44 1.267 . S
C52 O53 1.160 . S
C52 O59 1.185 . S
O53 C52 1.160 . S
O54 Zn55 1.899 . S
O54 C62 1.284 . S
Zn55 O54 1.899 . S
Zn55 O56 2.032 . S
Zn55 O59 2.086 . S
Zn55 O64 1.977 . S
O56 Zn55 2.032 . S
O56 C60 1.278 . S
C57 O58 1.203 . S
C57 O64 1.267 . S
O58 C57 1.203 . S
O59 C52 1.185 . S
O59 Zn55 2.086 . S
C60 O56 1.278 . S
C60 O61 1.211 . S
O61 C60 1.211 . S
C62 O54 1.284 . S
C62 O63 1.273 . S
O63 C62 1.273 . S
O64 Zn55 1.977 . S
O64 C57 1.267 . S
C65 O66 1.160 . S
C65 O72 1.185 . S
O66 C65 1.160 . S
O67 Zn68 1.899 . S
O67 C75 1.284 . S
Zn68 O67 1.899 . S
Zn68 O69 2.032 . S
Zn68 O72 2.086 . S
Zn68 O77 1.977 . S
O69 Zn68 2.032 . S
O69 C73 1.278 1_556 S
C70 O71 1.203 . S
C70 O77 1.267 . S
O71 C70 1.203 . S
O72 C65 1.185 . S
O72 Zn68 2.086 . S
C73 O69 1.278 1_554 S
C73 O74 1.211 1_554 S
O74 C73 1.211 1_556 S
C75 O67 1.284 . S
C75 O76 1.273 . S
O76 C75 1.273 . S
O77 Zn68 1.977 . S
O77 C70 1.267 . S
C78 O79 1.160 . S
C78 O85 1.185 . S
O79 C78 1.160 . S
O80 Zn81 1.899 . S
O80 C88 1.284 . S
Zn81 O80 1.899 . S
Zn81 O82 2.032 . S
Zn81 O85 2.086 . S
Zn81 O90 1.977 . S
O82 Zn81 2.032 . S
O82 C86 1.278 . S
C83 O84 1.203 . S
C83 O90 1.267 . S
O84 C83 1.203 . S
O85 C78 1.185 . S
O85 Zn81 2.086 . S
C86 O82 1.278 . S
C86 O87 1.211 . S
O87 C86 1.211 . S
C88 O80 1.284 . S
C88 O89 1.273 . S
O89 C88 1.273 . S
O90 Zn81 1.977 . S
O90 C83 1.267 . S
C91 O92 1.160 . S
C91 O98 1.185 . S
O92 C91 1.160 . S
O93 Zn94 1.899 . S
O93 C101 1.284 . S
Zn94 O93 1.899 . S
Zn94 O95 2.032 . S
Zn94 O98 2.086 . S
Zn94 O103 1.977 . S
O95 Zn94 2.032 . S
O95 C99 1.278 1_554 S
C96 O97 1.203 . S
C96 O103 1.267 . S
O97 C96 1.203 . S
O98 C91 1.185 . S
O98 Zn94 2.086 . S
C99 O95 1.278 1_556 S
C99 O100 1.211 . S
O100 C99 1.211 . S
C101 O93 1.284 . S
C101 O102 1.273 . S
O102 C101 1.273 . S
O103 Zn94 1.977 . S
O103 C96 1.267 . S
C104 O105 1.160 . S
C104 O111 1.185 . S
O105 C104 1.160 . S
O106 Zn107 1.899 . S
O106 C114 1.284 . S
Zn107 O106 1.899 . S
Zn107 O108 2.032 . S
Zn107 O111 2.086 . S
Zn107 O116 1.977 . S
O108 Zn107 2.032 . S
O108 C112 1.278 . S
C109 O110 1.203 . S
C109 O116 1.267 . S
O110 C109 1.203 . S
O111 C104 1.185 . S
O111 Zn107 2.086 . S
C112 O108 1.278 . S
C112 O113 1.211 . S
O113 C112 1.211 . S
C114 O106 1.284 . S
C114 O115 1.273 . S
O115 C114 1.273 . S
O116 Zn107 1.977 . S
O116 C109 1.267 . S
C117 O118 1.160 . S
C117 O124 1.185 . S
O118 C117 1.160 . S
O119 Zn120 1.899 . S
O119 C127 1.284 . S
Zn120 O119 1.899 . S
Zn120 O121 2.032 . S
Zn120 O124 2.086 . S
Zn120 O129 1.977 . S
O121 Zn120 2.032 . S
O121 C125 1.278 . S
C122 O123 1.203 . S
C122 O129 1.267 . S
O123 C122 1.203 . S
O124 C117 1.185 . S
O124 Zn120 2.086 . S
C125 O121 1.278 . S
C125 O126 1.211 . S
O126 C125 1.211 . S
C127 O119 1.284 . S
C127 O128 1.273 . S
O128 C127 1.273 . S
O129 Zn120 1.977 . S
O129 C122 1.267 . S
C130 O131 1.160 . S
C130 O137 1.185 . S
O131 C130 1.160 . S
O132 Zn133 1.899 . S
O132 C140 1.284 . S
Zn133 O132 1.899 . S
Zn133 O134 2.032 . S
Zn133 O137 2.086 . S
Zn133 O142 1.977 . S
O134 Zn133 2.032 . S
O134 C138 1.278 . S
C135 O136 1.203 . S
C135 O142 1.267 . S
O136 C135 1.203 . S
O137 C130 1.185 . S
O137 Zn133 2.086 . S
C138 O134 1.278 . S
C138 O139 1.211 . S
O139 C138 1.211 . S
C140 O132 1.284 . S
C140 O141 1.273 . S
O141 C140 1.273 . S
O142 Zn133 1.977 . S
O142 C135 1.267 . S
C143 O144 1.160 . S
C143 O150 1.185 . S
O144 C143 1.160 . S
O145 Zn146 1.899 . S
O145 C153 1.284 . S
Zn146 O145 1.899 . S
Zn146 O147 2.032 . S
Zn146 O150 2.086 . S
Zn146 O155 1.977 . S
O147 Zn146 2.032 . S
O147 C151 1.278 . S
C148 O149 1.203 . S
C148 O155 1.267 . S
O149 C148 1.203 . S
O150 C143 1.185 . S
O150 Zn146 2.086 . S
C151 O147 1.278 . S
C151 O152 1.211 . S
O152 C151 1.211 . S
C153 O145 1.284 . S
C153 O154 1.273 . S
O154 C153 1.273 . S
O155 Zn146 1.977 . S
O155 C148 1.267 . S
C156 C157 1.391 . S
C156 C158 1.394 . S
C156 H172 0.931 . S
C157 C156 1.391 . S
C157 C161 1.376 . S
C158 C156 1.394 . S
C158 C159 1.369 . S
C158 C162 1.531 . S
C159 C158 1.369 . S
C159 C160 1.410 . S
C159 C167 1.503 . S
C160 C159 1.410 . S
C160 C161 1.392 . S
C160 C163 1.511 . S
C161 C157 1.376 . S
C161 C160 1.392 . S
C161 H173 0.929 . S
C162 C158 1.531 . S
C162 H174 0.960 . S
C162 H175 0.962 . S
C162 H176 0.960 . S
C163 C160 1.511 . S
C163 H177 0.961 . S
C163 H178 0.961 . S
C163 H179 0.961 . S
C164 C165 1.370 . S
C164 C166 1.363 . S
C164 H180 0.931 . S
C165 C164 1.370 . S
C165 C169 1.408 . S
C166 C164 1.363 . S
C166 C167 1.370 . S
C166 C170 1.524 . S
C167 C159 1.503 . S
C167 C166 1.370 . S
C167 C168 1.403 . S
C168 C167 1.403 . S
C168 C169 1.404 . S
C168 C171 1.539 . S
C169 C165 1.408 . S
C169 C168 1.404 . S
C169 H181 0.930 . S
C170 C166 1.524 . S
C170 H182 0.956 . S
C170 H183 0.961 . S
C170 H184 0.961 . S
C171 C168 1.539 . S
C171 H185 0.958 . S
C171 H186 0.961 . S
C171 H187 0.960 . S
H172 C156 0.931 . S
H173 C161 0.929 . S
H174 C162 0.960 . S
H175 C162 0.962 . S
H176 C162 0.960 . S
H177 C163 0.961 . S
H178 C163 0.961 . S
H179 C163 0.961 . S
H180 C164 0.931 . S
H181 C169 0.930 . S
H182 C170 0.956 . S
H183 C170 0.961 . S
H184 C170 0.961 . S
H185 C171 0.958 . S
H186 C171 0.961 . S
H187 C171 0.960 . S
C188 C189 1.391 . S
C188 C190 1.394 . S
C188 H204 0.931 . S
C189 C188 1.391 . S
C189 C193 1.376 . S
C190 C188 1.394 . S
C190 C191 1.369 . S
C190 C194 1.531 . S
C191 C190 1.369 . S
C191 C192 1.410 . S
C191 C199 1.503 . S
C192 C191 1.410 . S
C192 C193 1.392 . S
C192 C195 1.511 . S
C193 C189 1.376 . S
C193 C192 1.392 . S
C193 H205 0.929 . S
C194 C190 1.531 . S
C194 H206 0.960 . S
C194 H207 0.962 . S
C194 H208 0.960 . S
C195 C192 1.511 . S
C195 H209 0.961 . S
C195 H210 0.961 . S
C195 H211 0.961 . S
C196 C197 1.370 . S
C196 C198 1.363 . S
C196 H212 0.931 . S
C197 C196 1.370 . S
C197 C201 1.408 . S
C198 C196 1.363 . S
C198 C199 1.370 . S
C198 C202 1.524 . S
C199 C191 1.503 . S
C199 C198 1.370 . S
C199 C200 1.403 . S
C200 C199 1.403 . S
C200 C201 1.404 . S
C200 C203 1.539 . S
C201 C197 1.408 . S
C201 C200 1.404 . S
C201 H213 0.930 . S
C202 C198 1.524 . S
C202 H214 0.956 . S
C202 H215 0.961 . S
C202 H216 0.961 . S
C203 C200 1.539 . S
C203 H217 0.958 . S
C203 H218 0.961 . S
C203 H219 0.960 . S
H204 C188 0.931 . S
H205 C193 0.929 . S
H206 C194 0.960 . S
H207 C194 0.962 . S
H208 C194 0.960 . S
H209 C195 0.961 . S
H210 C195 0.961 . S
H211 C195 0.961 . S
H212 C196 0.931 . S
H213 C201 0.930 . S
H214 C202 0.956 . S
H215 C202 0.961 . S
H216 C202 0.961 . S
H217 C203 0.958 . S
H218 C203 0.961 . S
H219 C203 0.960 . S
C220 C221 1.391 . S
C220 C222 1.394 . S
C220 H236 0.931 . S
C221 C220 1.391 . S
C221 C225 1.376 . S
C222 C220 1.394 . S
C222 C223 1.369 . S
C222 C226 1.531 . S
C223 C222 1.369 . S
C223 C224 1.410 . S
C223 C231 1.503 . S
C224 C223 1.410 . S
C224 C225 1.392 . S
C224 C227 1.511 . S
C225 C221 1.376 . S
C225 C224 1.392 . S
C225 H237 0.929 . S
C226 C222 1.531 . S
C226 H238 0.960 . S
C226 H239 0.962 . S
C226 H240 0.960 . S
C227 C224 1.511 . S
C227 H241 0.961 . S
C227 H242 0.961 . S
C227 H243 0.961 . S
C228 C229 1.370 . S
C228 C230 1.363 . S
C228 H244 0.931 . S
C229 C228 1.370 . S
C229 C233 1.408 . S
C230 C228 1.363 . S
C230 C231 1.370 . S
C230 C234 1.524 . S
C231 C223 1.503 . S
C231 C230 1.370 . S
C231 C232 1.403 . S
C232 C231 1.403 . S
C232 C233 1.404 . S
C232 C235 1.539 . S
C233 C229 1.408 . S
C233 C232 1.404 . S
C233 H245 0.930 . S
C234 C230 1.524 . S
C234 H246 0.956 . S
C234 H247 0.961 . S
C234 H248 0.961 . S
C235 C232 1.539 . S
C235 H249 0.958 . S
C235 H250 0.961 . S
C235 H251 0.960 . S
H236 C220 0.931 . S
H237 C225 0.929 . S
H238 C226 0.960 . S
H239 C226 0.962 . S
H240 C226 0.960 . S
H241 C227 0.961 . S
H242 C227 0.961 . S
H243 C227 0.961 . S
H244 C228 0.931 . S
H245 C233 0.930 . S
H246 C234 0.956 . S
H247 C234 0.961 . S
H248 C234 0.961 . S
H249 C235 0.958 . S
H250 C235 0.961 . S
H251 C235 0.960 . S
C252 C253 1.391 . S
C252 C254 1.394 . S
C252 H268 0.931 . S
C253 C252 1.391 . S
C253 C257 1.376 . S
C254 C252 1.394 . S
C254 C255 1.369 . S
C254 C258 1.531 . S
C255 C254 1.369 . S
C255 C256 1.410 . S
C255 C263 1.503 . S
C256 C255 1.410 . S
C256 C257 1.392 . S
C256 C259 1.511 . S
C257 C253 1.376 . S
C257 C256 1.392 . S
C257 H269 0.929 . S
C258 C254 1.531 . S
C258 H270 0.960 . S
C258 H271 0.962 . S
C258 H272 0.960 . S
C259 C256 1.511 . S
C259 H273 0.961 . S
C259 H274 0.961 . S
C259 H275 0.961 . S
C260 C261 1.370 . S
C260 C262 1.363 . S
C260 H276 0.931 . S
C261 C260 1.370 . S
C261 C265 1.408 . S
C262 C260 1.363 . S
C262 C263 1.370 . S
C262 C266 1.524 . S
C263 C255 1.503 . S
C263 C262 1.370 . S
C263 C264 1.403 . S
C264 C263 1.403 . S
C264 C265 1.404 . S
C264 C267 1.539 . S
C265 C261 1.408 . S
C265 C264 1.404 . S
C265 H277 0.930 . S
C266 C262 1.524 . S
C266 H278 0.956 . S
C266 H279 0.961 . S
C266 H280 0.961 . S
C267 C264 1.539 . S
C267 H281 0.958 . S
C267 H282 0.961 . S
C267 H283 0.960 . S
H268 C252 0.931 . S
H269 C257 0.929 . S
H270 C258 0.960 . S
H271 C258 0.962 . S
H272 C258 0.960 . S
H273 C259 0.961 . S
H274 C259 0.961 . S
H275 C259 0.961 . S
H276 C260 0.931 . S
H277 C265 0.930 . S
H278 C266 0.956 . S
H279 C266 0.961 . S
H280 C266 0.961 . S
H281 C267 0.958 . S
H282 C267 0.961 . S
H283 C267 0.960 . S
C284 C285 1.391 . S
C284 C286 1.394 . S
C284 H300 0.931 . S
C285 C284 1.391 . S
C285 C289 1.376 . S
C286 C284 1.394 . S
C286 C287 1.369 . S
C286 C290 1.531 . S
C287 C286 1.369 . S
C287 C288 1.410 . S
C287 C295 1.503 1_554 S
C288 C287 1.410 . S
C288 C289 1.392 . S
C288 C291 1.511 . S
C289 C285 1.376 . S
C289 C288 1.392 . S
C289 H301 0.929 . S
C290 C286 1.531 . S
C290 H302 0.960 . S
C290 H303 0.962 . S
C290 H304 0.960 . S
C291 C288 1.511 . S
C291 H305 0.961 . S
C291 H306 0.961 1_554 S
C291 H307 0.961 . S
C292 C293 1.370 . S
C292 C294 1.363 . S
C292 H308 0.931 . S
C293 C292 1.370 . S
C293 C297 1.408 . S
C294 C292 1.363 . S
C294 C295 1.370 . S
C294 C298 1.524 . S
C295 C287 1.503 1_556 S
C295 C294 1.370 . S
C295 C296 1.403 . S
C296 C295 1.403 . S
C296 C297 1.404 . S
C296 C299 1.539 1_556 S
C297 C293 1.408 . S
C297 C296 1.404 . S
C297 H309 0.930 . S
C298 C294 1.524 . S
C298 H310 0.956 . S
C298 H311 0.961 . S
C298 H312 0.961 . S
C299 C296 1.539 1_554 S
C299 H313 0.958 . S
C299 H314 0.961 . S
C299 H315 0.960 . S
H300 C284 0.931 . S
H301 C289 0.929 . S
H302 C290 0.960 . S
H303 C290 0.962 . S
H304 C290 0.960 . S
H305 C291 0.961 . S
H306 C291 0.961 1_556 S
H307 C291 0.961 . S
H308 C292 0.931 . S
H309 C297 0.930 . S
H310 C298 0.956 . S
H311 C298 0.961 . S
H312 C298 0.961 . S
H313 C299 0.958 . S
H314 C299 0.961 . S
H315 C299 0.960 . S
C316 C317 1.391 . S
C316 C318 1.394 . S
C316 H332 0.931 . S
C317 C316 1.391 . S
C317 C321 1.376 . S
C318 C316 1.394 . S
C318 C319 1.369 . S
C318 C322 1.531 . S
C319 C318 1.369 . S
C319 C320 1.410 . S
C319 C327 1.503 . S
C320 C319 1.410 . S
C320 C321 1.392 . S
C320 C323 1.511 . S
C321 C317 1.376 . S
C321 C320 1.392 . S
C321 H333 0.929 . S
C322 C318 1.531 . S
C322 H334 0.960 . S
C322 H335 0.962 . S
C322 H336 0.960 . S
C323 C320 1.511 . S
C323 H337 0.961 . S
C323 H338 0.961 . S
C323 H339 0.961 . S
C324 C325 1.370 . S
C324 C326 1.363 . S
C324 H340 0.931 . S
C325 C324 1.370 . S
C325 C329 1.408 . S
C326 C324 1.363 . S
C326 C327 1.370 . S
C326 C330 1.524 . S
C327 C319 1.503 . S
C327 C326 1.370 . S
C327 C328 1.403 . S
C328 C327 1.403 . S
C328 C329 1.404 . S
C328 C331 1.539 . S
C329 C325 1.408 . S
C329 C328 1.404 . S
C329 H341 0.930 . S
C330 C326 1.524 . S
C330 H342 0.956 . S
C330 H343 0.961 . S
C330 H344 0.961 . S
C331 C328 1.539 . S
C331 H345 0.958 . S
C331 H346 0.961 . S
C331 H347 0.960 . S
H332 C316 0.931 . S
H333 C321 0.929 . S
H334 C322 0.960 . S
H335 C322 0.962 . S
H336 C322 0.960 . S
H337 C323 0.961 . S
H338 C323 0.961 . S
H339 C323 0.961 . S
H340 C324 0.931 . S
H341 C329 0.930 . S
H342 C330 0.956 . S
H343 C330 0.961 . S
H344 C330 0.961 . S
H345 C331 0.958 . S
H346 C331 0.961 . S
H347 C331 0.960 . S
C348 C349 1.391 . S
C348 C350 1.394 . S
C348 H364 0.931 . S
C349 C348 1.391 . S
C349 C353 1.376 . S
C350 C348 1.394 . S
C350 C351 1.369 . S
C350 C354 1.531 . S
C351 C350 1.369 . S
C351 C352 1.410 . S
C351 C359 1.503 . S
C352 C351 1.410 . S
C352 C353 1.392 . S
C352 C355 1.511 . S
C353 C349 1.376 . S
C353 C352 1.392 . S
C353 H365 0.929 . S
C354 C350 1.531 . S
C354 H366 0.960 . S
C354 H367 0.962 . S
C354 H368 0.960 . S
C355 C352 1.511 . S
C355 H369 0.961 . S
C355 H370 0.961 . S
C355 H371 0.961 . S
C356 C357 1.370 . S
C356 C358 1.363 . S
C356 H372 0.931 . S
C357 C356 1.370 . S
C357 C361 1.408 . S
C358 C356 1.363 . S
C358 C359 1.370 . S
C358 C362 1.524 . S
C359 C351 1.503 . S
C359 C358 1.370 . S
C359 C360 1.403 . S
C360 C359 1.403 . S
C360 C361 1.404 . S
C360 C363 1.539 . S
C361 C357 1.408 . S
C361 C360 1.404 . S
C361 H373 0.930 . S
C362 C358 1.524 . S
C362 H374 0.956 . S
C362 H375 0.961 . S
C362 H376 0.961 . S
C363 C360 1.539 . S
C363 H377 0.958 . S
C363 H378 0.961 . S
C363 H379 0.960 . S
H364 C348 0.931 . S
H365 C353 0.929 . S
H366 C354 0.960 . S
H367 C354 0.962 . S
H368 C354 0.960 . S
H369 C355 0.961 . S
H370 C355 0.961 . S
H371 C355 0.961 . S
H372 C356 0.931 . S
H373 C361 0.930 . S
H374 C362 0.956 . S
H375 C362 0.961 . S
H376 C362 0.961 . S
H377 C363 0.958 . S
H378 C363 0.961 . S
H379 C363 0.960 . S
C380 C381 1.391 . S
C380 C382 1.394 . S
C380 H396 0.931 . S
C381 C380 1.391 . S
C381 C385 1.376 . S
C382 C380 1.394 . S
C382 C383 1.369 . S
C382 C386 1.531 . S
C383 C382 1.369 . S
C383 C384 1.410 . S
C383 C391 1.503 . S
C384 C383 1.410 . S
C384 C385 1.392 . S
C384 C387 1.511 . S
C385 C381 1.376 . S
C385 C384 1.392 . S
C385 H397 0.929 . S
C386 C382 1.531 . S
C386 H398 0.960 . S
C386 H399 0.962 . S
C386 H400 0.960 . S
C387 C384 1.511 . S
C387 H401 0.961 . S
C387 H402 0.961 . S
C387 H403 0.961 . S
C388 C389 1.370 . S
C388 C390 1.363 . S
C388 H404 0.931 . S
C389 C388 1.370 . S
C389 C393 1.408 . S
C390 C388 1.363 . S
C390 C391 1.370 . S
C390 C394 1.524 . S
C391 C383 1.503 . S
C391 C390 1.370 . S
C391 C392 1.403 . S
C392 C391 1.403 . S
C392 C393 1.404 . S
C392 C395 1.539 . S
C393 C389 1.408 . S
C393 C392 1.404 . S
C393 H405 0.930 . S
C394 C390 1.524 . S
C394 H406 0.956 . S
C394 H407 0.961 . S
C394 H408 0.961 . S
C395 C392 1.539 . S
C395 H409 0.958 . S
C395 H410 0.961 . S
C395 H411 0.960 . S
H396 C380 0.931 . S
H397 C385 0.929 . S
H398 C386 0.960 . S
H399 C386 0.962 . S
H400 C386 0.960 . S
H401 C387 0.961 . S
H402 C387 0.961 . S
H403 C387 0.961 . S
H404 C388 0.931 . S
H405 C393 0.930 . S
H406 C394 0.956 . S
H407 C394 0.961 . S
H408 C394 0.961 . S
H409 C395 0.958 . S
H410 C395 0.961 . S
H411 C395 0.960 . S
C412 C413 1.391 . S
C412 C414 1.394 . S
C412 H428 0.931 . S
C413 C412 1.391 . S
C413 C417 1.376 . S
C414 C412 1.394 . S
C414 C415 1.369 . S
C414 C418 1.531 . S
C415 C414 1.369 . S
C415 C416 1.410 . S
C415 C423 1.503 . S
C416 C415 1.410 . S
C416 C417 1.392 . S
C416 C419 1.511 . S
C417 C413 1.376 . S
C417 C416 1.392 . S
C417 H429 0.929 . S
C418 C414 1.531 . S
C418 H430 0.960 . S
C418 H431 0.962 . S
C418 H432 0.960 . S
C419 C416 1.511 . S
C419 H433 0.961 . S
C419 H434 0.961 . S
C419 H435 0.961 . S
C420 C421 1.370 . S
C420 C422 1.363 . S
C420 H436 0.931 . S
C421 C420 1.370 . S
C421 C425 1.408 . S
C422 C420 1.363 . S
C422 C423 1.370 . S
C422 C426 1.524 . S
C423 C415 1.503 . S
C423 C422 1.370 . S
C423 C424 1.403 . S
C424 C423 1.403 . S
C424 C425 1.404 . S
C424 C427 1.539 . S
C425 C421 1.408 . S
C425 C424 1.404 . S
C425 H437 0.930 . S
C426 C422 1.524 . S
C426 H438 0.956 . S
C426 H439 0.961 . S
C426 H440 0.961 . S
C427 C424 1.539 . S
C427 H441 0.958 . S
C427 H442 0.961 . S
C427 H443 0.960 . S
H428 C412 0.931 . S
H429 C417 0.929 . S
H430 C418 0.960 . S
H431 C418 0.962 . S
H432 C418 0.960 . S
H433 C419 0.961 . S
H434 C419 0.961 . S
H435 C419 0.961 . S
H436 C420 0.931 . S
H437 C425 0.930 . S
H438 C426 0.956 . S
H439 C426 0.961 . S
H440 C426 0.961 . S
H441 C427 0.958 . S
H442 C427 0.961 . S
H443 C427 0.960 . S
C444 C445 1.391 . S
C444 C446 1.394 . S
C444 H460 0.931 . S
C445 C444 1.391 . S
C445 C449 1.376 . S
C446 C444 1.394 . S
C446 C447 1.369 . S
C446 C450 1.531 . S
C447 C446 1.369 . S
C447 C448 1.410 . S
C447 C455 1.503 . S
C448 C447 1.410 . S
C448 C449 1.392 . S
C448 C451 1.511 . S
C449 C445 1.376 . S
C449 C448 1.392 . S
C449 H461 0.929 . S
C450 C446 1.531 . S
C450 H462 0.960 . S
C450 H463 0.962 . S
C450 H464 0.960 . S
C451 C448 1.511 . S
C451 H465 0.961 . S
C451 H466 0.961 . S
C451 H467 0.961 . S
C452 C453 1.370 . S
C452 C454 1.363 . S
C452 H468 0.931 . S
C453 C452 1.370 . S
C453 C457 1.408 . S
C454 C452 1.363 . S
C454 C455 1.370 . S
C454 C458 1.524 . S
C455 C447 1.503 . S
C455 C454 1.370 . S
C455 C456 1.403 . S
C456 C455 1.403 . S
C456 C457 1.404 . S
C456 C459 1.539 . S
C457 C453 1.408 . S
C457 C456 1.404 . S
C457 H469 0.930 . S
C458 C454 1.524 . S
C458 H470 0.956 . S
C458 H471 0.961 . S
C458 H472 0.961 . S
C459 C456 1.539 . S
C459 H473 0.958 . S
C459 H474 0.961 . S
C459 H475 0.960 . S
H460 C444 0.931 . S
H461 C449 0.929 . S
H462 C450 0.960 . S
H463 C450 0.962 . S
H464 C450 0.960 . S
H465 C451 0.961 . S
H466 C451 0.961 . S
H467 C451 0.961 . S
H468 C452 0.931 . S
H469 C457 0.930 . S
H470 C458 0.956 . S
H471 C458 0.961 . S
H472 C458 0.961 . S
H473 C459 0.958 . S
H474 C459 0.961 . S
H475 C459 0.960 . S
C476 C477 1.391 . S
C476 C478 1.394 . S
C476 H492 0.931 . S
C477 C476 1.391 . S
C477 C481 1.376 . S
C478 C476 1.394 . S
C478 C479 1.369 . S
C478 C482 1.531 . S
C479 C478 1.369 . S
C479 C480 1.410 . S
C479 C487 1.503 . S
C480 C479 1.410 . S
C480 C481 1.392 . S
C480 C483 1.511 . S
C481 C477 1.376 . S
C481 C480 1.392 . S
C481 H493 0.929 . S
C482 C478 1.531 . S
C482 H494 0.960 . S
C482 H495 0.962 . S
C482 H496 0.960 . S
C483 C480 1.511 . S
C483 H497 0.961 . S
C483 H498 0.961 . S
C483 H499 0.961 . S
C484 C485 1.370 . S
C484 C486 1.363 . S
C484 H500 0.931 . S
C485 C484 1.370 . S
C485 C489 1.408 . S
C486 C484 1.363 . S
C486 C487 1.370 . S
C486 C490 1.524 . S
C487 C479 1.503 . S
C487 C486 1.370 . S
C487 C488 1.403 . S
C488 C487 1.403 . S
C488 C489 1.404 . S
C488 C491 1.539 . S
C489 C485 1.408 . S
C489 C488 1.404 . S
C489 H501 0.930 . S
C490 C486 1.524 . S
C490 H502 0.956 . S
C490 H503 0.961 . S
C490 H504 0.961 . S
C491 C488 1.539 . S
C491 H505 0.958 . S
C491 H506 0.961 . S
C491 H507 0.960 . S
H492 C476 0.931 . S
H493 C481 0.929 . S
H494 C482 0.960 . S
H495 C482 0.962 . S
H496 C482 0.960 . S
H497 C483 0.961 . S
H498 C483 0.961 . S
H499 C483 0.961 . S
H500 C484 0.931 . S
H501 C489 0.930 . S
H502 C490 0.956 . S
H503 C490 0.961 . S
H504 C490 0.961 . S
H505 C491 0.958 . S
H506 C491 0.961 . S
H507 C491 0.960 . S
C508 C509 1.391 . S
C508 C510 1.394 . S
C508 H524 0.931 . S
C509 C508 1.391 . S
C509 C513 1.376 . S
C510 C508 1.394 . S
C510 C511 1.369 . S
C510 C514 1.531 . S
C511 C510 1.369 . S
C511 C512 1.410 . S
C511 C519 1.502 1_556 S
C512 C511 1.410 . S
C512 C513 1.392 . S
C512 C515 1.511 . S
C513 C509 1.376 . S
C513 C512 1.392 . S
C513 H525 0.929 . S
C514 C510 1.531 . S
C514 H526 0.960 . S
C514 H527 0.962 1_556 S
C514 H528 0.960 . S
C515 C512 1.511 . S
C515 H529 0.961 . S
C515 H530 0.961 . S
C515 H531 0.961 . S
C516 C517 1.370 . S
C516 C518 1.363 . S
C516 H532 0.931 . S
C517 C516 1.370 . S
C517 C521 1.408 1_554 S
C518 C516 1.363 . S
C518 C519 1.373 . S
C518 C522 1.524 . S
C519 C511 1.502 1_554 S
C519 C518 1.373 . S
C519 C520 1.401 1_554 S
C520 C519 1.401 1_556 S
C520 C521 1.404 . S
C520 C523 1.539 . S
C521 C517 1.408 1_556 S
C521 C520 1.404 . S
C521 H533 0.930 . S
C522 C518 1.524 . S
C522 H534 0.956 . S
C522 H535 0.961 . S
C522 H536 0.961 . S
C523 C520 1.539 . S
C523 H537 0.958 . S
C523 H538 0.961 . S
C523 H539 0.960 . S
H524 C508 0.931 . S
H525 C513 0.929 . S
H526 C514 0.960 . S
H527 C514 0.962 1_554 S
H528 C514 0.960 . S
H529 C515 0.961 . S
H530 C515 0.961 . S
H531 C515 0.961 . S
H532 C516 0.931 . S
H533 C521 0.930 . S
H534 C522 0.956 . S
H535 C522 0.961 . S
H536 C522 0.961 . S
H537 C523 0.958 . S
H538 C523 0.961 . S
H539 C523 0.960 . S
C540 C541 1.391 . S
C540 C542 1.394 . S
C540 H556 0.931 . S
C541 C540 1.391 . S
C541 C545 1.376 . S
C542 C540 1.394 . S
C542 C543 1.369 . S
C542 C546 1.531 . S
C543 C542 1.369 . S
C543 C544 1.410 . S
C543 C551 1.503 . S
C544 C543 1.410 . S
C544 C545 1.392 . S
C544 C547 1.511 . S
C545 C541 1.376 . S
C545 C544 1.392 . S
C545 H557 0.929 . S
C546 C542 1.531 . S
C546 H558 0.960 . S
C546 H559 0.962 . S
C546 H560 0.960 . S
C547 C544 1.511 . S
C547 H561 0.961 . S
C547 H562 0.961 . S
C547 H563 0.961 . S
C548 C549 1.370 . S
C548 C550 1.363 . S
C548 H564 0.931 . S
C549 C548 1.370 . S
C549 C553 1.408 . S
C550 C548 1.363 . S
C550 C551 1.370 . S
C550 C554 1.524 . S
C551 C543 1.503 . S
C551 C550 1.370 . S
C551 C552 1.403 . S
C552 C551 1.403 . S
C552 C553 1.404 . S
C552 C555 1.539 . S
C553 C549 1.408 . S
C553 C552 1.404 . S
C553 H565 0.930 . S
C554 C550 1.524 . S
C554 H566 0.956 . S
C554 H567 0.961 . S
C554 H568 0.961 . S
C555 C552 1.539 . S
C555 H569 0.958 . S
C555 H570 0.961 . S
C555 H571 0.960 . S
H556 C540 0.931 . S
H557 C545 0.929 . S
H558 C546 0.960 . S
H559 C546 0.962 . S
H560 C546 0.960 . S
H561 C547 0.961 . S
H562 C547 0.961 . S
H563 C547 0.961 . S
H564 C548 0.931 . S
H565 C553 0.930 . S
H566 C554 0.956 . S
H567 C554 0.961 . S
H568 C554 0.961 . S
H569 C555 0.958 . S
H570 C555 0.961 . S
H571 C555 0.960 . S
C572 C573 1.391 . S
C572 C574 1.394 . S
C572 H588 0.931 . S
C573 C572 1.391 . S
C573 C577 1.376 . S
C574 C572 1.394 . S
C574 C575 1.369 . S
C574 C578 1.531 . S
C575 C574 1.369 . S
C575 C576 1.410 . S
C575 C583 1.503 1_556 S
C576 C575 1.410 . S
C576 C577 1.392 . S
C576 C579 1.511 1_556 S
C577 C573 1.376 . S
C577 C576 1.392 . S
C577 H589 0.929 . S
C578 C574 1.531 . S
C578 H590 0.960 . S
C578 H591 0.962 . S
C578 H592 0.960 . S
C579 C576 1.511 1_554 S
C579 H593 0.961 . S
C579 H594 0.961 . S
C579 H595 0.961 . S
C580 C581 1.370 . S
C580 C582 1.363 . S
C580 H596 0.931 . S
C581 C580 1.370 . S
C581 C585 1.408 . S
C582 C580 1.363 . S
C582 C583 1.370 . S
C582 C586 1.524 1_554 S
C583 C575 1.503 1_554 S
C583 C582 1.370 . S
C583 C584 1.403 . S
C584 C583 1.403 . S
C584 C585 1.404 . S
C584 C587 1.539 . S
C585 C581 1.408 . S
C585 C584 1.404 . S
C585 H597 0.930 . S
C586 C582 1.524 1_556 S
C586 H598 0.956 . S
C586 H599 0.961 . S
C586 H600 0.961 1_556 S
C587 C584 1.539 . S
C587 H601 0.958 . S
C587 H602 0.961 . S
C587 H603 0.960 . S
H588 C572 0.931 . S
H589 C577 0.929 . S
H590 C578 0.960 . S
H591 C578 0.962 . S
H592 C578 0.960 . S
H593 C579 0.961 . S
H594 C579 0.961 . S
H595 C579 0.961 . S
H596 C580 0.931 . S
H597 C585 0.930 . S
H598 C586 0.956 . S
H599 C586 0.961 . S
H600 C586 0.961 1_554 S
H601 C587 0.958 . S
H602 C587 0.961 . S
H603 C587 0.960 . S
C604 C605 1.391 . S
C604 C606 1.394 . S
C604 H620 0.931 . S
C605 C604 1.391 . S
C605 C609 1.376 . S
C606 C604 1.394 . S
C606 C607 1.369 . S
C606 C610 1.531 . S
C607 C606 1.369 . S
C607 C608 1.410 . S
C607 C615 1.503 . S
C608 C607 1.410 . S
C608 C609 1.392 . S
C608 C611 1.511 . S
C609 C605 1.376 . S
C609 C608 1.392 . S
C609 H621 0.929 . S
C610 C606 1.531 . S
C610 H622 0.960 . S
C610 H623 0.962 . S
C610 H624 0.960 . S
C611 C608 1.511 . S
C611 H625 0.961 . S
C611 H626 0.961 . S
C611 H627 0.961 . S
C612 C613 1.370 . S
C612 C614 1.363 . S
C612 H628 0.931 . S
C613 C612 1.370 . S
C613 C617 1.408 . S
C614 C612 1.363 . S
C614 C615 1.370 . S
C614 C618 1.524 . S
C615 C607 1.503 . S
C615 C614 1.370 . S
C615 C616 1.403 . S
C616 C615 1.403 . S
C616 C617 1.404 . S
C616 C619 1.539 . S
C617 C613 1.408 . S
C617 C616 1.404 . S
C617 H629 0.930 . S
C618 C614 1.524 . S
C618 H630 0.956 . S
C618 H631 0.961 . S
C618 H632 0.961 . S
C619 C616 1.539 . S
C619 H633 0.958 . S
C619 H634 0.961 . S
C619 H635 0.960 . S
H620 C604 0.931 . S
H621 C609 0.929 . S
H622 C610 0.960 . S
H623 C610 0.962 . S
H624 C610 0.960 . S
H625 C611 0.961 . S
H626 C611 0.961 . S
H627 C611 0.961 . S
H628 C612 0.931 . S
H629 C617 0.930 . S
H630 C618 0.956 . S
H631 C618 0.961 . S
H632 C618 0.961 . S
H633 C619 0.958 . S
H634 C619 0.961 . S
H635 C619 0.960 . S
C636 C637 1.391 . S
C636 C638 1.394 . S
C636 H652 0.931 . S
C637 C636 1.391 . S
C637 C641 1.376 . S
C638 C636 1.394 . S
C638 C639 1.369 . S
C638 C642 1.531 . S
C639 C638 1.369 . S
C639 C640 1.410 . S
C639 C647 1.503 . S
C640 C639 1.410 . S
C640 C641 1.392 . S
C640 C643 1.511 . S
C641 C637 1.376 . S
C641 C640 1.392 . S
C641 H653 0.929 . S
C642 C638 1.531 . S
C642 H654 0.960 . S
C642 H655 0.962 . S
C642 H656 0.960 . S
C643 C640 1.511 . S
C643 H657 0.961 . S
C643 H658 0.961 . S
C643 H659 0.961 . S
C644 C645 1.370 . S
C644 C646 1.363 . S
C644 H660 0.931 . S
C645 C644 1.370 . S
C645 C649 1.408 . S
C646 C644 1.363 . S
C646 C647 1.370 . S
C646 C650 1.524 . S
C647 C639 1.503 . S
C647 C646 1.370 . S
C647 C648 1.403 . S
C648 C647 1.403 . S
C648 C649 1.404 . S
C648 C651 1.539 . S
C649 C645 1.408 . S
C649 C648 1.404 . S
C649 H661 0.930 . S
C650 C646 1.524 . S
C650 H662 0.956 . S
C650 H663 0.961 . S
C650 H664 0.961 . S
C651 C648 1.539 . S
C651 H665 0.958 . S
C651 H666 0.961 . S
C651 H667 0.960 . S
H652 C636 0.931 . S
H653 C641 0.929 . S
H654 C642 0.960 . S
H655 C642 0.962 . S
H656 C642 0.960 . S
H657 C643 0.961 . S
H658 C643 0.961 . S
H659 C643 0.961 . S
H660 C644 0.931 . S
H661 C649 0.930 . S
H662 C650 0.956 . S
H663 C650 0.961 . S
H664 C650 0.961 . S
H665 C651 0.958 . S
H666 C651 0.961 . S
H667 C651 0.960 . S
C668 C669 1.391 . S
C668 C670 1.394 . S
C668 H684 0.931 . S
C669 C668 1.391 . S
C669 C673 1.376 . S
C670 C668 1.394 . S
C670 C671 1.369 . S
C670 C674 1.531 . S
C671 C670 1.369 . S
C671 C672 1.410 . S
C671 C679 1.503 . S
C672 C671 1.410 . S
C672 C673 1.392 . S
C672 C675 1.511 . S
C673 C669 1.376 . S
C673 C672 1.392 . S
C673 H685 0.929 . S
C674 C670 1.531 . S
C674 H686 0.960 . S
C674 H687 0.962 . S
C674 H688 0.960 . S
C675 C672 1.511 . S
C675 H689 0.961 . S
C675 H690 0.961 . S
C675 H691 0.961 . S
C676 C677 1.370 . S
C676 C678 1.363 . S
C676 H692 0.931 . S
C677 C676 1.370 . S
C677 C681 1.408 . S
C678 C676 1.363 . S
C678 C679 1.370 . S
C678 C682 1.524 . S
C679 C671 1.503 . S
C679 C678 1.370 . S
C679 C680 1.403 . S
C680 C679 1.403 . S
C680 C681 1.404 . S
C680 C683 1.539 . S
C681 C677 1.408 . S
C681 C680 1.404 . S
C681 H693 0.930 . S
C682 C678 1.524 . S
C682 H694 0.956 . S
C682 H695 0.961 . S
C682 H696 0.961 . S
C683 C680 1.539 . S
C683 H697 0.958 . S
C683 H698 0.961 . S
C683 H699 0.960 . S
H684 C668 0.931 . S
H685 C673 0.929 . S
H686 C674 0.960 . S
H687 C674 0.962 . S
H688 C674 0.960 . S
H689 C675 0.961 . S
H690 C675 0.961 . S
H691 C675 0.961 . S
H692 C676 0.931 . S
H693 C681 0.930 . S
H694 C682 0.956 . S
H695 C682 0.961 . S
H696 C682 0.961 . S
H697 C683 0.958 . S
H698 C683 0.961 . S
H699 C683 0.960 . S
C700 C701 1.391 . S
C700 C702 1.394 . S
C700 H716 0.931 . S
C701 C700 1.391 . S
C701 C705 1.376 . S
C702 C700 1.394 . S
C702 C703 1.369 . S
C702 C706 1.531 . S
C703 C702 1.369 . S
C703 C704 1.410 . S
C703 C711 1.503 . S
C704 C703 1.410 . S
C704 C705 1.392 . S
C704 C707 1.511 . S
C705 C701 1.376 . S
C705 C704 1.392 . S
C705 H717 0.929 . S
C706 C702 1.531 . S
C706 H718 0.960 . S
C706 H719 0.962 . S
C706 H720 0.960 . S
C707 C704 1.511 . S
C707 H721 0.961 . S
C707 H722 0.961 . S
C707 H723 0.961 . S
C708 C709 1.370 . S
C708 C710 1.363 . S
C708 H724 0.931 . S
C709 C708 1.370 . S
C709 C713 1.408 . S
C710 C708 1.363 . S
C710 C711 1.370 . S
C710 C714 1.524 . S
C711 C703 1.503 . S
C711 C710 1.370 . S
C711 C712 1.403 . S
C712 C711 1.403 . S
C712 C713 1.404 . S
C712 C715 1.539 . S
C713 C709 1.408 . S
C713 C712 1.404 . S
C713 H725 0.930 . S
C714 C710 1.524 . S
C714 H726 0.956 . S
C714 H727 0.961 . S
C714 H728 0.961 . S
C715 C712 1.539 . S
C715 H729 0.958 . S
C715 H730 0.961 . S
C715 H731 0.960 . S
H716 C700 0.931 . S
H717 C705 0.929 . S
H718 C706 0.960 . S
H719 C706 0.962 . S
H720 C706 0.960 . S
H721 C707 0.961 . S
H722 C707 0.961 . S
H723 C707 0.961 . S
H724 C708 0.931 . S
H725 C713 0.930 . S
H726 C714 0.956 . S
H727 C714 0.961 . S
H728 C714 0.961 . S
H729 C715 0.958 . S
H730 C715 0.961 . S
H731 C715 0.960 . S
C732 C733 1.391 . S
C732 C734 1.394 . S
C732 H748 0.931 . S
C733 C732 1.391 . S
C733 C737 1.376 . S
C734 C732 1.394 . S
C734 C735 1.369 . S
C734 C738 1.531 . S
C735 C734 1.369 . S
C735 C736 1.410 . S
C735 C743 1.503 1_545 S
C736 C735 1.410 . S
C736 C737 1.392 . S
C736 C739 1.511 . S
C737 C733 1.376 . S
C737 C736 1.392 . S
C737 H749 0.929 . S
C738 C734 1.531 . S
C738 H750 0.960 1_545 S
C738 H751 0.962 . S
C738 H752 0.960 . S
C739 C736 1.511 . S
C739 H753 0.961 . S
C739 H754 0.961 1_545 S
C739 H755 0.961 . S
C740 C741 1.370 . S
C740 C742 1.363 . S
C740 H756 0.931 . S
C741 C740 1.370 . S
C741 C745 1.408 . S
C742 C740 1.363 . S
C742 C743 1.370 . S
C742 C746 1.524 1_554 S
C743 C735 1.503 1_565 S
C743 C742 1.370 . S
C743 C744 1.403 . S
C744 C743 1.403 . S
C744 C745 1.404 . S
C744 C747 1.539 . S
C745 C741 1.408 . S
C745 C744 1.404 . S
C745 H757 0.930 . S
C746 C742 1.524 1_556 S
C746 H758 0.958 . S
C746 H759 0.961 1_565 S
C746 H760 0.961 . S
C747 C744 1.539 . S
C747 H761 0.958 . S
C747 H762 0.961 . S
C747 H763 0.981 . S
H748 C732 0.931 . S
H749 C737 0.929 . S
H750 C738 0.960 1_565 S
H751 C738 0.962 . S
H752 C738 0.960 . S
H753 C739 0.961 . S
H754 C739 0.961 1_565 S
H755 C739 0.961 . S
H756 C740 0.931 . S
H757 C745 0.930 . S
H758 C746 0.958 . S
H759 C746 0.961 1_545 S
H760 C746 0.961 . S
H761 C747 0.958 . S
H762 C747 0.961 . S
H763 C747 0.981 . S
C764 C765 1.391 . S
C764 C766 1.394 . S
C764 H780 0.931 . S
C765 C764 1.391 . S
C765 C769 1.376 . S
C766 C764 1.394 . S
C766 C767 1.369 . S
C766 C770 1.531 . S
C767 C766 1.369 . S
C767 C768 1.410 . S
C767 C775 1.503 . S
C768 C767 1.410 . S
C768 C769 1.392 . S
C768 C771 1.511 . S
C769 C765 1.376 . S
C769 C768 1.392 . S
C769 H781 0.929 . S
C770 C766 1.531 . S
C770 H782 0.960 . S
C770 H783 0.962 . S
C770 H784 0.960 . S
C771 C768 1.511 . S
C771 H785 0.961 . S
C771 H786 0.961 . S
C771 H787 0.961 . S
C772 C773 1.370 . S
C772 C774 1.363 . S
C772 H788 0.931 . S
C773 C772 1.370 . S
C773 C777 1.408 . S
C774 C772 1.363 . S
C774 C775 1.370 . S
C774 C778 1.524 . S
C775 C767 1.503 . S
C775 C774 1.370 . S
C775 C776 1.403 . S
C776 C775 1.403 . S
C776 C777 1.404 . S
C776 C779 1.539 . S
C777 C773 1.408 . S
C777 C776 1.404 . S
C777 H789 0.930 . S
C778 C774 1.524 . S
C778 H790 0.956 . S
C778 H791 0.961 . S
C778 H792 0.961 . S
C779 C776 1.539 . S
C779 H793 0.958 . S
C779 H794 0.961 . S
C779 H795 0.960 . S
H780 C764 0.931 . S
H781 C769 0.929 . S
H782 C770 0.960 . S
H783 C770 0.962 . S
H784 C770 0.960 . S
H785 C771 0.961 . S
H786 C771 0.961 . S
H787 C771 0.961 . S
H788 C772 0.931 . S
H789 C777 0.930 . S
H790 C778 0.956 . S
H791 C778 0.961 . S
H792 C778 0.961 . S
H793 C779 0.958 . S
H794 C779 0.961 . S
H795 C779 0.960 . S
C796 C797 1.391 . S
C796 C798 1.394 . S
C796 H812 0.931 . S
C797 C796 1.391 . S
C797 C801 1.376 . S
C798 C796 1.394 . S
C798 C799 1.369 . S
C798 C802 1.531 . S
C799 C798 1.369 . S
C799 C800 1.410 . S
C799 C807 1.503 1_455 S
C800 C799 1.410 . S
C800 C801 1.392 . S
C800 C803 1.511 . S
C801 C797 1.376 . S
C801 C800 1.392 . S
C801 H813 0.929 . S
C802 C798 1.531 . S
C802 H814 0.960 1_455 S
C802 H815 0.962 . S
C802 H816 0.960 . S
C803 C800 1.511 . S
C803 H817 0.961 . S
C803 H818 0.961 1_455 S
C803 H819 0.961 . S
C804 C805 1.370 . S
C804 C806 1.363 . S
C804 H820 0.931 . S
C805 C804 1.370 . S
C805 C809 1.408 . S
C806 C804 1.363 . S
C806 C807 1.370 . S
C806 C810 1.524 . S
C807 C799 1.503 1_655 S
C807 C806 1.370 . S
C807 C808 1.403 . S
C808 C807 1.403 . S
C808 C809 1.404 . S
C808 C811 1.539 . S
C809 C805 1.408 . S
C809 C808 1.404 . S
C809 H821 0.930 . S
C810 C806 1.524 . S
C810 H822 0.956 . S
C810 H823 0.961 1_655 S
C810 H824 0.961 . S
C811 C808 1.539 . S
C811 H825 0.958 . S
C811 H826 0.961 . S
C811 H827 0.964 . S
H812 C796 0.931 . S
H813 C801 0.929 . S
H814 C802 0.960 1_655 S
H815 C802 0.962 . S
H816 C802 0.960 . S
H817 C803 0.961 . S
H818 C803 0.961 1_655 S
H819 C803 0.961 . S
H820 C804 0.931 . S
H821 C809 0.930 . S
H822 C810 0.956 . S
H823 C810 0.961 1_455 S
H824 C810 0.961 . S
H825 C811 0.958 . S
H826 C811 0.961 . S
H827 C811 0.964 . S
C828 C829 1.391 . S
C828 C830 1.394 . S
C828 H844 0.931 . S
C829 C828 1.391 . S
C829 C833 1.376 . S
C830 C828 1.394 . S
C830 C831 1.369 . S
C830 C834 1.531 . S
C831 C830 1.369 . S
C831 C832 1.410 . S
C831 C839 1.503 1_565 S
C832 C831 1.410 . S
C832 C833 1.392 . S
C832 C835 1.511 . S
C833 C829 1.376 . S
C833 C832 1.392 . S
C833 H845 0.929 . S
C834 C830 1.531 . S
C834 H846 0.960 1_565 S
C834 H847 0.962 . S
C834 H848 0.960 . S
C835 C832 1.511 . S
C835 H849 0.961 . S
C835 H850 0.961 1_565 S
C835 H851 0.961 . S
C836 C837 1.370 . S
C836 C838 1.363 . S
C836 H852 0.931 . S
C837 C836 1.370 . S
C837 C841 1.408 . S
C838 C836 1.363 . S
C838 C839 1.370 . S
C838 C842 1.524 . S
C839 C831 1.503 1_545 S
C839 C838 1.370 . S
C839 C840 1.403 . S
C840 C839 1.403 . S
C840 C841 1.404 . S
C840 C843 1.539 . S
C841 C837 1.408 . S
C841 C840 1.404 . S
C841 H853 0.930 . S
C842 C838 1.524 . S
C842 H854 0.956 . S
C842 H855 0.961 1_545 S
C842 H856 0.961 . S
C843 C840 1.539 . S
C843 H857 0.958 . S
C843 H858 0.961 . S
C843 H859 0.975 . S
H844 C828 0.931 . S
H845 C833 0.929 . S
H846 C834 0.960 1_545 S
H847 C834 0.962 . S
H848 C834 0.960 . S
H849 C835 0.961 . S
H850 C835 0.961 1_545 S
H851 C835 0.961 . S
H852 C836 0.931 . S
H853 C841 0.930 . S
H854 C842 0.956 . S
H855 C842 0.961 1_565 S
H856 C842 0.961 . S
H857 C843 0.958 . S
H858 C843 0.961 . S
H859 C843 0.975 . S
C860 C861 1.391 . S
C860 C862 1.394 . S
C860 H876 0.931 . S
C861 C860 1.391 . S
C861 C865 1.376 . S
C862 C860 1.394 . S
C862 C863 1.369 . S
C862 C866 1.531 . S
C863 C862 1.369 . S
C863 C864 1.410 . S
C863 C871 1.503 . S
C864 C863 1.410 . S
C864 C865 1.392 . S
C864 C867 1.511 . S
C865 C861 1.376 . S
C865 C864 1.392 . S
C865 H877 0.929 . S
C866 C862 1.531 . S
C866 H878 0.960 . S
C866 H879 0.962 . S
C866 H880 0.960 . S
C867 C864 1.511 . S
C867 H881 0.961 . S
C867 H882 0.961 . S
C867 H883 0.961 . S
C868 C869 1.370 . S
C868 C870 1.363 . S
C868 H884 0.931 . S
C869 C868 1.370 . S
C869 C873 1.408 . S
C870 C868 1.363 . S
C870 C871 1.370 . S
C870 C874 1.524 . S
C871 C863 1.503 . S
C871 C870 1.370 . S
C871 C872 1.403 . S
C872 C871 1.403 . S
C872 C873 1.404 . S
C872 C875 1.539 . S
C873 C869 1.408 . S
C873 C872 1.404 . S
C873 H885 0.930 . S
C874 C870 1.524 . S
C874 H886 0.956 . S
C874 H887 0.961 . S
C874 H888 0.961 . S
C875 C872 1.539 . S
C875 H889 0.958 . S
C875 H890 0.961 . S
C875 H891 0.960 . S
H876 C860 0.931 . S
H877 C865 0.929 . S
H878 C866 0.960 . S
H879 C866 0.962 . S
H880 C866 0.960 . S
H881 C867 0.961 . S
H882 C867 0.961 . S
H883 C867 0.961 . S
H884 C868 0.931 . S
H885 C873 0.930 . S
H886 C874 0.956 . S
H887 C874 0.961 . S
H888 C874 0.961 . S
H889 C875 0.958 . S
H890 C875 0.961 . S
H891 C875 0.960 . S
C892 C893 1.391 . S
C892 C894 1.394 . S
C892 H908 0.931 . S
C893 C892 1.391 . S
C893 C897 1.376 . S
C894 C892 1.394 . S
C894 C895 1.369 . S
C894 C898 1.531 . S
C895 C894 1.369 . S
C895 C896 1.410 . S
C895 C903 1.503 1_455 S
C896 C895 1.410 . S
C896 C897 1.392 . S
C896 C899 1.511 . S
C897 C893 1.376 . S
C897 C896 1.392 . S
C897 H909 0.929 . S
C898 C894 1.531 . S
C898 H910 0.960 1_455 S
C898 H911 0.962 . S
C898 H912 0.960 . S
C899 C896 1.511 . S
C899 H913 0.961 . S
C899 H914 0.961 1_455 S
C899 H915 0.961 . S
C900 C901 1.370 . S
C900 C902 1.363 . S
C900 H916 0.931 . S
C901 C900 1.370 . S
C901 C905 1.408 . S
C902 C900 1.363 . S
C902 C903 1.370 . S
C902 C906 1.524 . S
C903 C895 1.503 1_655 S
C903 C902 1.370 . S
C903 C904 1.403 . S
C904 C903 1.403 . S
C904 C905 1.404 . S
C904 C907 1.539 1_556 S
C905 C901 1.408 . S
C905 C904 1.404 . S
C905 H917 0.930 . S
C906 C902 1.524 . S
C906 H918 1.003 . S
C906 H919 0.961 1_655 S
C906 H920 0.961 . S
C907 C904 1.539 1_554 S
C907 H921 0.958 . S
C907 H922 0.961 . S
C907 H923 0.971 . S
H908 C892 0.931 . S
H909 C897 0.929 . S
H910 C898 0.960 1_655 S
H911 C898 0.962 . S
H912 C898 0.960 . S
H913 C899 0.961 . S
H914 C899 0.961 1_655 S
H915 C899 0.961 . S
H916 C900 0.931 . S
H917 C905 0.930 . S
H918 C906 1.003 . S
H919 C906 0.961 1_455 S
H920 C906 0.961 . S
H921 C907 0.958 . S
H922 C907 0.961 . S
H923 C907 0.971 . S
C157 C8 1.312 . S
C165 C138 1.297 . S
C189 C21 1.304 . S
C197 C151 1.294 . S
C221 C86 1.260 . S
C229 C34 1.275 . S
C253 C47 1.251 . S
C261 C99 1.272 . S
C285 C112 1.295 . S
C293 C60 1.290 . S
C317 C125 1.281 . S
C325 C73 1.284 . S
C349 C104 1.165 . S
C357 C0 1.177 . S
C381 C13 1.173 . S
C389 C117 1.194 . S
C413 C130 1.210 . S
C421 C26 1.201 . S
C445 C39 1.166 . S
C453 C143 1.177 . S
C477 C52 1.216 . S
C485 C78 1.196 . S
C509 C65 1.173 . S
C517 C91 1.194 . S
C541 C140 1.599 . S
C549 C10 1.605 1_556 S
C573 C153 1.598 . S
C581 C23 1.594 . S
C605 C88 1.618 1_554 S
C613 C36 1.593 . S
C637 C49 1.616 . S
C645 C101 1.596 . S
C669 C62 1.616 . S
C677 C114 1.596 . S
C701 C127 1.576 . S
C709 C75 1.609 . S
C733 C5 1.161 . S
C741 C96 1.145 . S
C765 C109 1.092 . S
C773 C18 1.123 . S
C797 C122 1.112 . S
C805 C31 1.137 . S
C829 C44 1.184 . S
C837 C135 1.158 . S
C861 C57 1.183 . S
C869 C148 1.162 . S
C893 C70 1.141 . S
C901 C83 1.137 . S
