# Generated by pormake.
# Topology utb, (3)-cn, num edge types: 1
# Building blocks:
#     Node 0, Type 0, BuildingBlock: OLANEW_clean_sbu_2, # of connection points: 3
#     Node 1, Type 0, BuildingBlock: OLANEW_clean_sbu_2, # of connection points: 3
#     Node 2, Type 0, BuildingBlock: OLANEW_clean_sbu_2, # of connection points: 3
#     Node 3, Type 0, BuildingBlock: OLANEW_clean_sbu_2, # of connection points: 3
#     Node 4, Type 0, BuildingBlock: OLANEW_clean_sbu_2, # of connection points: 3
#     Node 5, Type 0, BuildingBlock: OLANEW_clean_sbu_2, # of connection points: 3
#     Node 6, Type 0, BuildingBlock: OLANEW_clean_sbu_2, # of connection points: 3
#     Node 7, Type 0, BuildingBlock: OLANEW_clean_sbu_2, # of connection points: 3
#     Node 8, Type 0, BuildingBlock: OLANEW_clean_sbu_2, # of connection points: 3
#     Node 9, Type 0, BuildingBlock: OLANEW_clean_sbu_2, # of connection points: 3
#     Node 10, Type 0, BuildingBlock: OLANEW_clean_sbu_2, # of connection points: 3
#     Node 11, Type 0, BuildingBlock: OLANEW_clean_sbu_2, # of connection points: 3
#     Node 12, Type 0, BuildingBlock: OLANEW_clean_sbu_2, # of connection points: 3
#     Node 13, Type 0, BuildingBlock: OLANEW_clean_sbu_2, # of connection points: 3
#     Node 14, Type 0, BuildingBlock: OLANEW_clean_sbu_2, # of connection points: 3
#     Node 15, Type 0, BuildingBlock: OLANEW_clean_sbu_2, # of connection points: 3
#     Node 16, Type 0, BuildingBlock: OLANEW_clean_sbu_2, # of connection points: 3
#     Node 17, Type 0, BuildingBlock: OLANEW_clean_sbu_2, # of connection points: 3
#     Node 18, Type 0, BuildingBlock: OLANEW_clean_sbu_2, # of connection points: 3
#     Node 19, Type 0, BuildingBlock: OLANEW_clean_sbu_2, # of connection points: 3
#     Node 20, Type 0, BuildingBlock: OLANEW_clean_sbu_2, # of connection points: 3
#     Node 21, Type 0, BuildingBlock: OLANEW_clean_sbu_2, # of connection points: 3
#     Node 22, Type 0, BuildingBlock: OLANEW_clean_sbu_2, # of connection points: 3
#     Node 23, Type 0, BuildingBlock: OLANEW_clean_sbu_2, # of connection points: 3
#     Edge 24, Type (0, 0), BuildingBlock: UVAHIK_clean_linker_0, # of connection points: 2
#     Edge 25, Type (0, 0), BuildingBlock: UVAHIK_clean_linker_0, # of connection points: 2
#     Edge 26, Type (0, 0), BuildingBlock: UVAHIK_clean_linker_0, # of connection points: 2
#     Edge 27, Type (0, 0), BuildingBlock: UVAHIK_clean_linker_0, # of connection points: 2
#     Edge 28, Type (0, 0), BuildingBlock: UVAHIK_clean_linker_0, # of connection points: 2
#     Edge 29, Type (0, 0), BuildingBlock: UVAHIK_clean_linker_0, # of connection points: 2
#     Edge 30, Type (0, 0), BuildingBlock: UVAHIK_clean_linker_0, # of connection points: 2
#     Edge 31, Type (0, 0), BuildingBlock: UVAHIK_clean_linker_0, # of connection points: 2
#     Edge 32, Type (0, 0), BuildingBlock: UVAHIK_clean_linker_0, # of connection points: 2
#     Edge 33, Type (0, 0), BuildingBlock: UVAHIK_clean_linker_0, # of connection points: 2
#     Edge 34, Type (0, 0), BuildingBlock: UVAHIK_clean_linker_0, # of connection points: 2
#     Edge 35, Type (0, 0), BuildingBlock: UVAHIK_clean_linker_0, # of connection points: 2
#     Edge 36, Type (0, 0), BuildingBlock: UVAHIK_clean_linker_0, # of connection points: 2
#     Edge 37, Type (0, 0), BuildingBlock: UVAHIK_clean_linker_0, # of connection points: 2
#     Edge 38, Type (0, 0), BuildingBlock: UVAHIK_clean_linker_0, # of connection points: 2
#     Edge 39, Type (0, 0), BuildingBlock: UVAHIK_clean_linker_0, # of connection points: 2
#     Edge 40, Type (0, 0), BuildingBlock: UVAHIK_clean_linker_0, # of connection points: 2
#     Edge 41, Type (0, 0), BuildingBlock: UVAHIK_clean_linker_0, # of connection points: 2
#     Edge 42, Type (0, 0), BuildingBlock: UVAHIK_clean_linker_0, # of connection points: 2
#     Edge 43, Type (0, 0), BuildingBlock: UVAHIK_clean_linker_0, # of connection points: 2
#     Edge 44, Type (0, 0), BuildingBlock: UVAHIK_clean_linker_0, # of connection points: 2
#     Edge 45, Type (0, 0), BuildingBlock: UVAHIK_clean_linker_0, # of connection points: 2
#     Edge 46, Type (0, 0), BuildingBlock: UVAHIK_clean_linker_0, # of connection points: 2
#     Edge 47, Type (0, 0), BuildingBlock: UVAHIK_clean_linker_0, # of connection points: 2
#     Edge 48, Type (0, 0), BuildingBlock: UVAHIK_clean_linker_0, # of connection points: 2
#     Edge 49, Type (0, 0), BuildingBlock: UVAHIK_clean_linker_0, # of connection points: 2
#     Edge 50, Type (0, 0), BuildingBlock: UVAHIK_clean_linker_0, # of connection points: 2
#     Edge 51, Type (0, 0), BuildingBlock: UVAHIK_clean_linker_0, # of connection points: 2
#     Edge 52, Type (0, 0), BuildingBlock: UVAHIK_clean_linker_0, # of connection points: 2
#     Edge 53, Type (0, 0), BuildingBlock: UVAHIK_clean_linker_0, # of connection points: 2
#     Edge 54, Type (0, 0), BuildingBlock: UVAHIK_clean_linker_0, # of connection points: 2
#     Edge 55, Type (0, 0), BuildingBlock: UVAHIK_clean_linker_0, # of connection points: 2
#     Edge 56, Type (0, 0), BuildingBlock: UVAHIK_clean_linker_0, # of connection points: 2
#     Edge 57, Type (0, 0), BuildingBlock: UVAHIK_clean_linker_0, # of connection points: 2
#     Edge 58, Type (0, 0), BuildingBlock: UVAHIK_clean_linker_0, # of connection points: 2
#     Edge 59, Type (0, 0), BuildingBlock: UVAHIK_clean_linker_0, # of connection points: 2
# Relax obj value: 0.077
# Max RMSD: 0.148
# Mean RMSD: 0.059
data_MOF--net-utb--node1-OLANEW_clean_sbu_2--edge1-UVAHIK_clean_linker_0
_symmetry_space_group_name_H-M    P1
_symmetry_Int_Tables_number       1
_symmetry_cell_setting            triclinic
loop_
_symmetry_equiv_pos_as_xyz
'x, y, z'
_cell_length_a     83.032155
_cell_length_b     56.7619
_cell_length_c     67.836273
_cell_angle_alpha  90.822514
_cell_angle_beta   90.725065
_cell_angle_gamma 89.525043
loop_
_atom_site_label
_atom_site_type_symbol
_atom_site_fract_x
_atom_site_fract_y
_atom_site_fract_z
_atom_type_partial_charge
O0 O 0.98312 0.53921 0.15741 0.0
Cd1 Cd -0.00822 0.49798 0.15614 0.0
O2 O -0.00673 0.54172 0.12796 0.0
Cd3 Cd 0.00201 0.55929 0.10176 0.0
O4 O 0.01555 0.57314 0.07726 0.0
C5 C 0.02449 0.59092 0.08027 0.0
O6 O 0.02476 0.60092 0.09786 0.0
C7 C 0.98623 0.55156 0.14248 0.0
C8 C 0.9757 0.46941 0.18237 0.0
O9 O -0.01158 0.48058 0.18771 0.0
O10 O 0.97048 0.47198 0.16466 0.0
O11 O 0.57787 0.96913 0.14449 0.0
Cd12 Cd 0.58946 0.00465 0.13081 0.0
O13 O 0.59009 0.97668 0.17264 0.0
Cd14 Cd 0.59819 0.96949 0.20281 0.0
O15 O 0.60523 0.96264 0.2333 0.0
C16 C 0.60431 0.94198 0.24015 0.0
O17 O 0.59907 0.92483 0.2286 0.0
C18 C 0.58088 0.96354 0.16224 0.0
C19 C 0.56877 0.04342 0.13414 0.0
O20 O 0.56801 0.02943 0.11916 0.0
O21 O 0.5793 0.03903 0.1476 0.0
O22 O 0.91973 0.79397 0.17084 0.0
Cd23 Cd 0.90121 0.8263 0.17895 0.0
O24 O 0.91465 0.79276 0.1389 0.0
Cd25 Cd 0.8938 0.81639 0.13894 0.0
O26 O 0.86998 0.8133 0.12509 0.0
C27 C 0.86012 0.79909 0.13263 0.0
O28 O 0.86405 0.78902 0.14936 0.0
C29 C 0.92253 0.78539 0.1538 0.0
C30 C 0.91164 0.84877 0.21371 0.0
O31 O 0.90308 0.83011 0.21412 0.0
O32 O 0.91509 0.85713 0.19684 0.0
O33 O 0.48403 0.75381 0.21217 0.0
Cd34 Cd 0.46301 0.72474 0.2174 0.0
O35 O 0.48797 0.76154 0.2437 0.0
Cd36 Cd 0.46593 0.74367 0.25183 0.0
O37 O 0.44184 0.75542 0.26006 0.0
C38 C 0.44193 0.77256 0.27231 0.0
O39 O 0.45584 0.77966 0.27958 0.0
C40 C 0.49186 0.76439 0.22583 0.0
C41 C 0.4671 0.68753 0.19064 0.0
O42 O 0.45822 0.70537 0.18637 0.0
O43 O 0.47377 0.68706 0.20777 0.0
O44 O 0.05976 0.4537 0.68303 0.0
Cd45 Cd 0.07085 0.49254 0.67658 0.0
O46 O 0.06992 0.45506 0.71295 0.0
Cd47 Cd 0.07677 0.44211 0.74216 0.0
O48 O 0.08557 0.4346 0.77192 0.0
C49 C 0.08574 0.41387 0.77877 0.0
O50 O 0.08033 0.39639 0.76772 0.0
C51 C 0.06191 0.44407 0.69967 0.0
C52 C 0.04709 0.52745 0.67416 0.0
O53 O 0.05101 0.51507 0.65899 0.0
O54 O 0.05437 0.52325 0.69053 0.0
O55 O 0.4518 0.22454 0.7081 0.0
Cd56 Cd 0.43566 0.25801 0.6966 0.0
O57 O 0.46697 0.22341 0.68178 0.0
Cd58 Cd 0.44851 0.24334 0.66589 0.0
O59 O 0.42455 0.23239 0.65602 0.0
C60 C 0.42151 0.21156 0.66144 0.0
O61 O 0.4325 0.20021 0.6718 0.0
C62 C 0.46396 0.21626 0.69902 0.0
C63 C 0.44356 0.29781 0.71916 0.0
O64 O 0.43139 0.28519 0.72345 0.0
O65 O 0.45177 0.29187 0.70399 0.0
O66 O 0.97299 0.21532 0.70218 0.0
Cd67 Cd 0.95467 0.18183 0.69993 0.0
O68 O 0.9695 0.22242 0.73387 0.0
Cd69 Cd 0.95036 0.19716 0.73892 0.0
O70 O 0.92948 0.19114 0.75743 0.0
C71 C 0.91608 0.20072 0.75286 0.0
O72 O 0.91485 0.21217 0.7362 0.0
C73 C 0.97637 0.22709 0.71776 0.0
C74 C 0.95731 0.15959 0.66303 0.0
O75 O 0.94702 0.17619 0.66594 0.0
O76 O 0.96623 0.15331 0.67764 0.0
O77 O 0.53808 -0.00103 0.78797 0.0
Cd78 Cd 0.54966 0.96209 0.7999 0.0
O79 O 0.54634 -0.0103 0.75831 0.0
Cd80 Cd 0.5491 -0.00625 0.72648 0.0
O81 O 0.55608 0.00043 0.69616 0.0
C82 C 0.56632 0.01652 0.6934 0.0
O83 O 0.57195 0.02839 0.70874 0.0
C84 C 0.53931 0.00419 0.76991 0.0
C85 C 0.52924 0.924 0.79318 0.0
O86 O 0.52847 0.9363 0.80914 0.0
O87 O 0.53964 0.92979 0.78036 0.0
O88 O 0.29948 0.00372 0.31619 0.0
Cd89 Cd 0.30515 -0.00411 0.28152 0.0
O90 O 0.27356 -0.00085 0.31105 0.0
Cd91 Cd 0.2488 -0.00531 0.32086 0.0
O92 O 0.22422 0.98874 0.33054 0.0
C93 C 0.21838 0.00015 0.34508 0.0
O94 O 0.22734 0.01583 0.35436 0.0
C95 C 0.28527 0.00323 0.32285 0.0
C96 C 0.32425 0.95543 0.27907 0.0
O97 O 0.33049 0.97578 0.28198 0.0
O98 O 0.30892 0.95422 0.27681 0.0
O99 O 0.91413 0.23599 0.34518 0.0
Cd100 Cd 0.89619 0.27015 0.34196 0.0
O101 O 0.90233 0.2158 0.32123 0.0
Cd102 Cd 0.88227 0.24069 0.31919 0.0
O103 O 0.85775 0.24993 0.32769 0.0
C104 C 0.85514 0.25382 0.34587 0.0
O105 O 0.86739 0.25377 0.35831 0.0
C106 C 0.91345 0.21765 0.33421 0.0
C107 C 0.90786 0.30311 0.31574 0.0
O108 O 0.91186 0.30382 0.33405 0.0
O109 O 0.89834 0.28675 0.30981 0.0
O110 O 0.6883 0.873 0.53276 0.0
Cd111 Cd 0.68692 0.83211 0.54353 0.0
O112 O 0.67974 0.86145 0.50353 0.0
Cd113 Cd 0.67039 0.86722 0.47363 0.0
O114 O 0.6611 0.87403 0.44396 0.0
C115 C 0.65863 0.89509 0.4385 0.0
O116 O 0.66166 0.91248 0.45095 0.0
C117 C 0.68433 0.87794 0.51514 0.0
C118 C 0.71494 0.81759 0.56311 0.0
O119 O 0.71336 0.81496 0.54438 0.0
O120 O 0.70325 0.82713 0.57257 0.0
O121 O 0.98191 0.93931 0.45715 0.0
Cd122 Cd -0.00424 0.95625 0.42912 0.0
O123 O 0.98444 0.97002 0.47705 0.0
Cd124 Cd 0.00098 0.98705 0.45723 0.0
O125 O 0.02595 -0.00558 0.45022 0.0
C126 C 0.03518 0.97686 0.44701 0.0
O127 O 0.02902 0.9556 0.4467 0.0
C128 C 0.97912 0.94942 0.47363 0.0
C129 C 0.98155 0.94158 0.39355 0.0
O130 O -0.00815 0.92856 0.40257 0.0
O131 O 0.97793 0.96163 0.4013 0.0
O132 O 0.273 0.03056 0.54334 0.0
Cd133 Cd 0.26793 0.03691 0.57838 0.0
O134 O 0.24686 0.03165 0.53889 0.0
Cd135 Cd 0.22468 0.0283 0.52143 0.0
O136 O 0.20259 0.02504 0.50398 0.0
C137 C 0.20042 0.00745 0.49249 0.0
O138 O 0.21177 -0.00874 0.49109 0.0
C139 C 0.26091 0.02985 0.53172 0.0
C140 C 0.28983 0.06876 0.59472 0.0
O141 O 0.29248 0.0465 0.59533 0.0
O142 O 0.27674 0.07596 0.5865 0.0
O143 O 0.003 -0.00639 0.38074 0.0
Cd144 Cd 0.01808 0.9593 0.39195 0.0
O145 O 0.00306 0.00549 0.41157 0.0
Cd146 Cd -0.00305 0.02738 0.43735 0.0
O147 O -0.0073 0.04345 0.46637 0.0
C148 C 0.98134 0.05822 0.46918 0.0
O149 O 0.97203 0.06416 0.45422 0.0
C150 C -0.00078 0.00908 0.39362 0.0
C151 C 0.0509 0.96555 0.38626 0.0
O152 O 0.04245 0.95366 0.37377 0.0
O153 O 0.0438 0.97439 0.40132 0.0
O154 O 0.67883 0.12679 0.43802 0.0
Cd155 Cd 0.6737 0.16805 0.42987 0.0
O156 O 0.65592 0.12774 0.45369 0.0
Cd157 Cd 0.63861 0.11277 0.47394 0.0
O158 O 0.62544 0.09621 0.49758 0.0
C159 C 0.63232 0.0799 0.50728 0.0
O160 O 0.647 0.07337 0.50255 0.0
C161 C 0.6684 0.11638 0.44821 0.0
C162 C 0.70137 0.19055 0.41729 0.0
O163 O 0.69779 0.19019 0.43561 0.0
O164 O 0.69184 0.18028 0.40496 0.0
O165 O 0.92253 0.7839 0.62805 0.0
Cd166 Cd 0.91083 0.75546 0.65041 0.0
O167 O 0.9179 0.81498 0.64691 0.0
Cd168 Cd 0.90127 0.7949 0.66456 0.0
O169 O 0.87594 0.78539 0.66188 0.0
C170 C 0.87158 0.77833 0.64478 0.0
O171 O 0.88259 0.77573 0.63115 0.0
C172 C 0.92401 0.80588 0.63146 0.0
C173 C 0.93162 0.71713 0.65568 0.0
O174 O 0.92132 0.71743 0.64145 0.0
O175 O 0.93199 0.7349 0.66756 0.0
O176 O 0.47173 0.32377 0.11308 0.0
Cd177 Cd 0.45813 0.29997 0.13748 0.0
O178 O 0.45565 0.35443 0.11691 0.0
Cd179 Cd 0.43924 0.33647 0.13643 0.0
O180 O 0.41472 0.32464 0.14144 0.0
C181 C 0.40843 0.31196 0.12785 0.0
O182 O 0.41734 0.3055 0.11281 0.0
C183 C 0.46777 0.34477 0.10874 0.0
C184 C 0.47319 0.25604 0.1401 0.0
O185 O 0.46165 0.25958 0.12775 0.0
O186 O 0.47745 0.2732 0.15143 0.0
O187 O 0.43888 0.63786 0.7779 0.0
Cd188 Cd 0.42238 0.66824 0.76206 0.0
O189 O 0.42065 0.61017 0.7747 0.0
Cd190 Cd 0.40211 0.63545 0.76592 0.0
O191 O 0.38309 0.65617 0.77991 0.0
C192 C 0.38739 0.66812 0.79504 0.0
O193 O 0.40276 0.66869 0.79988 0.0
C194 C 0.4347 0.61655 0.78005 0.0
C195 C 0.43704 0.71214 0.7657 0.0
O196 O 0.42725 0.70503 0.77876 0.0
O197 O 0.43977 0.69856 0.75083 0.0
O198 O 0.21598 0.38716 0.05283 0.0
Cd199 Cd 0.21325 0.34677 0.06434 0.0
O200 O 0.19857 0.38102 0.02884 0.0
Cd201 Cd 0.18271 0.38911 0.00371 0.0
O202 O 0.16857 0.39474 0.97676 0.0
C203 C 0.16286 0.37713 0.96732 0.0
O204 O 0.16546 0.35588 0.97417 0.0
C205 C 0.20824 0.39482 0.03792 0.0
C206 C 0.24242 0.33106 0.08047 0.0
O207 O 0.23897 0.32752 0.0622 0.0
O208 O 0.23196 0.34172 0.09118 0.0
O209 O 0.51283 0.46794 0.92472 0.0
Cd210 Cd 0.51715 0.48928 0.8941 0.0
O211 O 0.53374 0.44429 0.92167 0.0
Cd212 Cd 0.54284 0.46678 0.89875 0.0
O213 O 0.55562 0.49987 0.8962 0.0
C214 C 0.55554 0.51255 0.9118 0.0
O215 O 0.54739 0.50529 0.92702 0.0
C216 C 0.52116 0.45061 0.9309 0.0
C217 C 0.50408 0.46441 0.86202 0.0
O218 O 0.49537 0.47844 0.8724 0.0
O219 O 0.51903 0.46233 0.86664 0.0
O220 O 0.78179 0.32844 0.93392 0.0
Cd221 Cd 0.77915 0.2862 0.92682 0.0
O222 O 0.75678 0.32733 0.94368 0.0
Cd223 Cd 0.73391 0.34316 0.95293 0.0
O224 O 0.7101 0.35793 0.95909 0.0
C225 C 0.70789 0.38011 0.95995 0.0
O226 O 0.7202 0.39408 0.95737 0.0
C227 C 0.76955 0.33901 0.94094 0.0
C228 C 0.80075 0.26882 0.89885 0.0
O229 O 0.78713 0.27767 0.89362 0.0
O230 O 0.80423 0.26842 0.91732 0.0
O231 O 0.5073 0.50727 0.95735 0.0
Cd232 Cd 0.51806 0.49802 -0.00999 0.0
O233 O 0.52217 0.53895 0.95477 0.0
Cd234 Cd 0.52759 0.53998 0.98628 0.0
O235 O 0.52442 0.54999 0.01717 0.0
C236 C 0.51174 0.54359 0.02586 0.0
O237 O 0.5014 0.53011 0.01628 0.0
C238 C 0.51241 0.52418 0.94711 0.0
C239 C 0.54877 0.47824 0.98638 0.0
O240 O 0.53627 0.4652 0.98687 0.0
O241 O 0.54676 0.50058 0.98795 0.0
O242 O 0.24817 0.64556 0.98763 0.0
Cd243 Cd 0.25107 0.687 0.97908 0.0
O244 O 0.22419 0.64744 0.97391 0.0
Cd245 Cd 0.19993 0.63402 0.96855 0.0
O246 O 0.17502 0.62397 0.97322 0.0
C247 C 0.16356 0.63813 0.96915 0.0
O248 O 0.16689 0.65844 0.96116 0.0
C249 C 0.23502 0.63559 0.98285 0.0
C250 C 0.27255 0.6926 0.94834 0.0
O251 O 0.27732 0.69394 0.96636 0.0
O252 O 0.25759 0.6887 0.94487 0.0
O253 O 0.74176 0.59288 -0.00854 0.0
Cd254 Cd 0.72906 0.63164 -0.00396 0.0
O255 O 0.74693 0.59841 0.96015 0.0
Cd256 Cd 0.73081 0.62896 0.95848 0.0
O257 O 0.70608 0.637 0.94923 0.0
C258 C 0.69469 0.63474 0.96139 0.0
O259 O 0.69826 0.62999 0.97983 0.0
C260 C 0.7481 0.58578 0.97544 0.0
C261 C 0.74822 0.66328 0.01753 0.0
O262 O 0.73867 0.64927 0.02622 0.0
O263 O 0.74879 0.66222 -0.00134 0.0
C264 C 0.97833 0.58852 0.12486 0.0
C265 C 0.98218 0.57698 0.1425 0.0
C266 C 0.97423 0.61245 0.12505 0.0
C267 C 0.97606 0.66695 0.15591 0.0
H268 H 0.93962 0.68611 0.12346 0.0
C269 C 0.9402 0.75369 0.16808 0.0
C270 C 0.93365 0.765 0.15147 0.0
C271 C 0.94854 0.73231 0.166 0.0
C272 C 0.95001 0.6812 0.13236 0.0
H273 H 0.98452 0.58132 0.17419 0.0
H274 H 0.97706 0.623 0.1746 0.0
H275 H 0.94926 0.64561 0.1217 0.0
H276 H 0.93177 0.76356 0.11953 0.0
H277 H 0.94648 0.72651 0.11594 0.0
H278 H 0.97652 0.70255 0.16687 0.0
C279 C 0.97759 0.61373 0.16055 0.0
C280 C 0.95553 0.65793 0.13136 0.0
C281 C 0.98171 0.5898 0.16035 0.0
C282 C 0.9365 0.75521 0.13266 0.0
C283 C 0.94485 0.73388 0.1306 0.0
C284 C 0.97051 0.69027 0.15692 0.0
C285 C 0.97374 0.62532 0.14291 0.0
C286 C 0.96852 0.65045 0.14325 0.0
C287 C 0.95054 0.72182 0.14728 0.0
C288 C 0.95733 0.69761 0.14528 0.0
H289 H 0.978 0.57897 0.11096 0.0
H290 H 0.97136 0.62084 0.11119 0.0
H291 H 0.98624 0.66183 0.16506 0.0
H292 H 0.93825 0.76075 0.18278 0.0
H293 H 0.9527 0.72343 0.17917 0.0
C294 C 0.57044 0.92271 0.15752 0.0
C295 C 0.57394 0.94179 0.17022 0.0
C296 C 0.56345 0.9023 0.16474 0.0
C297 C 0.53948 0.88128 0.20644 0.0
H298 H 0.55065 0.81962 0.18505 0.0
C299 C 0.5109 0.79671 0.23547 0.0
C300 C 0.50444 0.78159 0.22085 0.0
C301 C 0.52124 0.8149 0.23041 0.0
C302 C 0.54739 0.83674 0.19112 0.0
H303 H 0.57204 0.95486 0.20028 0.0
H304 H 0.56068 0.91891 0.21311 0.0
H305 H 0.5652 0.85426 0.17429 0.0
H306 H 0.50444 0.77299 0.18958 0.0
H307 H 0.52255 0.80467 0.18079 0.0
H308 H 0.52164 0.86374 0.2232 0.0
C309 C 0.5633 0.91966 0.19754 0.0
C310 C 0.55568 0.8566 0.18492 0.0
C311 C 0.57018 0.94013 0.19027 0.0
C312 C 0.50917 0.78436 0.2012 0.0
C313 C 0.5196 0.80245 0.19616 0.0
C314 C 0.53129 0.86141 0.21274 0.0
C315 C 0.55977 0.90052 0.18484 0.0
C316 C 0.55168 0.87917 0.19232 0.0
C317 C 0.52545 0.81824 0.21065 0.0
C318 C 0.53503 0.83897 0.20498 0.0
H319 H 0.57305 0.92356 0.14194 0.0
H320 H 0.5606 0.88815 0.15444 0.0
H321 H 0.53586 0.89838 0.21221 0.0
H322 H 0.50754 0.79505 0.25076 0.0
H323 H 0.52572 0.82662 0.24192 0.0
C324 C 0.05048 0.4135 0.72184 0.0
C325 C 0.05533 0.42035 0.70302 0.0
C326 C 0.04363 0.39138 0.72459 0.0
C327 C 0.03857 0.33239 0.70102 0.0
H328 H 0.00077 0.32961 0.73383 0.0
C329 C -0.00553 0.25396 0.69917 0.0
C330 C -0.01229 0.2471 0.71708 0.0
C331 C 0.00417 0.27394 0.6984 0.0
C332 C 0.01145 0.32997 0.72486 0.0
H333 H 0.05671 0.4095 0.67231 0.0
H334 H 0.04453 0.37111 0.67702 0.0
H335 H 0.01507 0.36663 0.73097 0.0
H336 H 0.98637 0.25543 0.74837 0.0
H337 H 0.00338 0.29006 0.747 0.0
H338 H 0.03474 0.29576 0.69466 0.0
C339 C 0.04633 0.38256 0.68976 0.0
C340 C 0.01967 0.35121 0.72323 0.0
C341 C 0.05318 0.40465 0.68703 0.0
C342 C -0.00872 0.26027 0.73428 0.0
C343 C 0.00096 0.28023 0.7335 0.0
C344 C 0.03033 0.31113 0.70264 0.0
C345 C 0.04137 0.37571 0.70855 0.0
C346 C 0.03324 0.35274 0.71116 0.0
C347 C 0.00732 0.28751 0.71551 0.0
C348 C 0.0166 0.30973 0.71446 0.0
H349 H 0.05144 0.42546 0.73433 0.0
H350 H 0.03998 0.38662 0.73927 0.0
H351 H 0.04912 0.33289 0.69184 0.0
H352 H -0.00803 0.24423 0.68565 0.0
H353 H 0.00877 0.27919 0.68426 0.0
C354 C 0.4869 0.18719 0.69776 0.0
C355 C 0.47364 0.19694 0.70778 0.0
C356 C 0.49496 0.16737 0.70511 0.0
C357 C 0.48773 0.11604 0.73575 0.0
H358 H 0.53421 0.10902 0.73654 0.0
C359 C 0.51889 0.03659 0.77215 0.0
C360 C 0.53233 0.02659 0.76274 0.0
C361 C 0.51222 0.05781 0.76565 0.0
C362 C 0.52121 0.11057 0.73618 0.0
H363 H 0.45887 0.19402 0.7338 0.0
H364 H 0.47293 0.15953 0.74655 0.0
H365 H 0.52198 0.14572 0.72504 0.0
H366 H 0.54999 0.03192 0.74004 0.0
H367 H 0.5379 0.06829 0.72797 0.0
H368 H 0.48683 0.08088 0.74649 0.0
C369 C 0.47697 0.16706 0.73291 0.0
C370 C 0.51422 0.13163 0.72966 0.0
C371 C 0.46899 0.18693 0.72565 0.0
C372 C 0.5392 0.03856 0.74699 0.0
C373 C 0.53247 0.05974 0.74038 0.0
C374 C 0.49469 0.09497 0.74212 0.0
C375 C 0.48985 0.15682 0.72255 0.0
C376 C 0.49741 0.13461 0.72948 0.0
C377 C 0.51885 0.06958 0.74959 0.0
C378 C 0.51152 0.09199 0.74251 0.0
H379 H 0.49081 0.19448 0.68397 0.0
H380 H 0.50481 0.15979 0.69676 0.0
H381 H 0.47472 0.11764 0.73541 0.0
H382 H 0.51346 0.02792 0.78451 0.0
H383 H 0.50195 0.0651 0.77338 0.0
C384 C 0.26904 0.0182 0.35133 0.0
C385 C 0.28267 0.0062 0.34421 0.0
C386 C 0.26668 0.02083 0.37161 0.0
C387 C 0.27813 -0.00508 0.41924 0.0
H388 H 0.26416 0.05515 0.44094 0.0
C389 C 0.2764 0.0137 0.50314 0.0
C390 C 0.26325 0.02682 0.51028 0.0
C391 C 0.27876 0.01105 0.48285 0.0
C392 C 0.26786 0.03812 0.43511 0.0
H393 H 0.30471 0.98802 0.35257 0.0
H394 H 0.30059 -0.00743 0.38803 0.0
H395 H 0.26814 0.05078 0.40554 0.0
H396 H 0.24291 0.04877 0.50182 0.0
H397 H 0.24651 0.04328 0.46652 0.0
H398 H 0.27774 0.98217 0.44876 0.0
C399 C 0.29162 -0.00033 0.37797 0.0
C400 C 0.27016 0.03564 0.41482 0.0
C401 C 0.29403 -0.00278 0.3577 0.0
C402 C 0.25271 0.03767 0.49678 0.0
C403 C 0.25501 0.03495 0.47652 0.0
C404 C 0.27576 -0.00264 0.43953 0.0
C405 C 0.27789 0.01145 0.38514 0.0
C406 C 0.27534 0.01403 0.40667 0.0
C407 C 0.26807 0.02162 0.46929 0.0
C408 C 0.2706 0.01899 0.44771 0.0
H409 H 0.26036 0.02594 0.34124 0.0
H410 H 0.25599 0.03001 0.37671 0.0
H411 H 0.28193 0.97796 0.41335 0.0
H412 H 0.28483 0.00538 0.51324 0.0
H413 H 0.2891 0.00101 0.4778 0.0
C414 C 0.98057 0.03011 0.37061 0.0
C415 C -0.00952 0.0306 0.38755 0.0
C416 C 0.97283 0.05058 0.36416 0.0
C417 C 0.97507 0.11543 0.36745 0.0
H418 H 0.93074 0.11273 0.34897 0.0
C419 C 0.93568 0.19829 0.3536 0.0
C420 C 0.92459 0.19759 0.33776 0.0
C421 C 0.94476 0.17831 0.35847 0.0
C422 C 0.9432 0.11374 0.35379 0.0
H423 H 0.00057 0.05317 0.41052 0.0
H424 H 0.98664 0.08876 0.39967 0.0
H425 H 0.94408 0.07701 0.36041 0.0
H426 H 0.915 0.17567 0.31398 0.0
H427 H 0.93099 0.14097 0.32233 0.0
H428 H 0.97412 0.15224 0.36094 0.0
C429 C 0.98484 0.07253 0.39137 0.0
C430 C 0.95084 0.09326 0.3604 0.0
C431 C -0.00743 0.05202 0.39784 0.0
C432 C 0.92334 0.17679 0.32636 0.0
C433 C 0.93242 0.15683 0.33123 0.0
C434 C 0.96742 0.13594 0.36083 0.0
C435 C 0.97491 0.07205 0.37443 0.0
C436 C 0.96684 0.09387 0.36736 0.0
C437 C 0.94296 0.15719 0.34761 0.0
C438 C 0.95139 0.13533 0.35396 0.0
H439 H 0.97884 0.01388 0.36229 0.0
H440 H 0.96544 0.04967 0.3509 0.0
H441 H 0.98749 0.11641 0.37242 0.0
H442 H 0.93695 0.21402 0.36269 0.0
H443 H 0.95269 0.17915 0.37126 0.0
C444 C 0.68039 0.92095 0.52193 0.0
C445 C 0.68437 0.90268 0.50865 0.0
C446 C 0.67974 0.9443 0.51569 0.0
C447 C 0.69297 0.98396 0.4762 0.0
H448 H 0.65655 0.02208 0.49303 0.0
C449 C 0.658 0.07621 0.4551 0.0
C450 C 0.67102 0.09174 0.45422 0.0
C451 C 0.6603 0.05318 0.46158 0.0
C452 C 0.66674 0.01162 0.4881 0.0
H453 H 0.69204 0.89467 0.47888 0.0
H454 H 0.69058 0.93534 0.46781 0.0
H455 H 0.65956 0.98196 0.50485 0.0
H456 H 0.69678 0.09517 0.45855 0.0
H457 H 0.70085 0.05488 0.47014 0.0
H458 H 0.69993 0.01354 0.45908 0.0
C459 C 0.6878 0.93166 0.48301 0.0
C460 C 0.66858 0.98872 0.49507 0.0
C461 C 0.68836 0.90829 0.48924 0.0
C462 C 0.68652 0.08356 0.45923 0.0
C463 C 0.68884 0.0605 0.4658 0.0
C464 C 0.69115 0.00692 0.46924 0.0
C465 C 0.68324 0.9499 0.49608 0.0
C466 C 0.68167 0.97456 0.48913 0.0
C467 C 0.6757 0.04516 0.4673 0.0
C468 C 0.67794 0.02095 0.475 0.0
H469 H 0.67744 0.91713 0.53706 0.0
H470 H 0.67649 0.95798 0.52623 0.0
H471 H 0.70328 0.9736 0.4715 0.0
H472 H 0.64602 0.08179 0.4506 0.0
H473 H 0.65 0.04163 0.46208 0.0
C474 C 0.93591 0.81156 0.59817 0.0
C475 C 0.93139 0.82109 0.61654 0.0
C476 C 0.94098 0.82621 0.58315 0.0
C477 C 0.9568 0.88495 0.5726 0.0
H478 H 0.93746 0.87385 0.52098 0.0
C479 C 0.96804 0.94721 0.50778 0.0
C480 C 0.97107 0.93636 0.48942 0.0
C481 C 0.96216 0.93411 0.5234 0.0
C482 C 0.9431 0.87706 0.53524 0.0
H483 H 0.92937 0.85344 0.63382 0.0
H484 H 0.93837 0.87901 0.60755 0.0
H485 H 0.93043 0.84871 0.54832 0.0
H486 H 0.96981 0.90338 0.47292 0.0
H487 H 0.95984 0.88054 0.50013 0.0
H488 H 0.96971 0.91303 0.55947 0.0
C489 C 0.93793 0.86018 0.60481 0.0
C490 C 0.93907 0.86265 0.5509 0.0
C491 C 0.93275 0.84552 0.61983 0.0
C492 C 0.96756 0.91233 0.48683 0.0
C493 C 0.96177 0.89922 0.50245 0.0
C494 C 0.96093 0.8993 0.55689 0.0
C495 C 0.94175 0.85071 0.58618 0.0
C496 C 0.94596 0.86632 0.56971 0.0
C497 C 0.95924 0.90985 0.52102 0.0
C498 C 0.9542 0.89543 0.53798 0.0
H499 H 0.93507 0.79282 0.59514 0.0
H500 H 0.94412 0.81838 0.56904 0.0
H501 H 0.96238 0.88809 0.58691 0.0
H502 H 0.97054 0.96572 0.51025 0.0
H503 H 0.96005 0.94295 0.5374 0.0
C504 C 0.52613 0.4201 0.95677 0.0
C505 C 0.51677 0.43885 0.94939 0.0
C506 C 0.5225 0.41006 0.97487 0.0
C507 C 0.50214 0.42315 0.0216 0.0
H508 H 0.49976 0.35531 0.02652 0.0
C509 C 0.47051 0.37903 0.08623 0.0
C510 C 0.47635 0.35726 0.09303 0.0
C511 C 0.47739 0.3896 0.06993 0.0
C512 C 0.50067 0.37428 0.02555 0.0
H513 H 0.49607 0.46142 0.95512 0.0
H514 H 0.48985 0.44402 0.9867 0.0
H515 H 0.50788 0.37217 -0.00464 0.0
H516 H 0.49456 0.33013 0.08863 0.0
H517 H 0.50679 0.34885 0.06043 0.0
H518 H 0.49492 0.42536 0.05172 0.0
C519 C 0.50007 0.43724 0.97855 0.0
C520 C 0.50527 0.38391 0.00765 0.0
C521 C 0.50358 0.44711 0.96039 0.0
C522 C 0.48969 0.34682 0.08369 0.0
C523 C 0.49663 0.35748 0.06743 0.0
C524 C 0.49766 0.41354 0.03954 0.0
C525 C 0.50954 0.41872 0.98604 0.0
C526 C 0.50577 0.40845 0.0054 0.0
C527 C 0.49035 0.37876 0.0601 0.0
C528 C 0.4966 0.38898 0.04164 0.0
H529 H 0.53641 0.41339 0.94871 0.0
H530 H 0.53005 0.39589 0.98035 0.0
H531 H 0.50271 0.44215 0.02037 0.0
H532 H 0.46022 0.38756 0.09304 0.0
H533 H 0.47209 0.40583 0.06458 0.0
C534 C 0.51388 0.54343 0.91421 0.0
C535 C 0.50638 0.52747 0.92672 0.0
C536 C 0.50745 0.54787 0.89548 0.0
C537 C 0.46876 0.54517 0.86828 0.0
H538 H 0.4951 0.56239 0.824 0.0
C539 C 0.43953 0.57808 0.79688 0.0
C540 C 0.44532 0.6001 0.79105 0.0
C541 C 0.44826 0.56447 0.81035 0.0
C542 C 0.4876 0.55753 0.83623 0.0
H543 H 0.48657 0.50306 0.92916 0.0
H544 H 0.47546 0.51061 0.89646 0.0
H545 H 0.50792 0.54696 0.85384 0.0
H546 H 0.46545 0.62414 0.79356 0.0
H547 H 0.48066 0.60038 0.81704 0.0
H548 H 0.44849 0.55606 0.85086 0.0
C549 C 0.48616 0.51999 0.90119 0.0
C550 C 0.49493 0.5488 0.85335 0.0
C551 C 0.4926 0.51552 0.9199 0.0
C552 C 0.46059 0.60734 0.79782 0.0
C553 C 0.46937 0.59365 0.81122 0.0
C554 C 0.46145 0.55367 0.85114 0.0
C555 C 0.49336 0.53649 0.88885 0.0
C556 C 0.48561 0.54305 0.86977 0.0
C557 C 0.46301 0.5725 0.81817 0.0
C558 C 0.4708 0.56044 0.8351 0.0
H559 H 0.52456 0.55284 0.91901 0.0
H560 H 0.51321 0.56093 0.88654 0.0
H561 H 0.46118 0.54132 0.88069 0.0
H562 H 0.42786 0.57187 0.79185 0.0
H563 H 0.44319 0.54807 0.81524 0.0
C564 C 0.2079 0.42645 0.01223 0.0
C565 C 0.2105 0.41954 0.03183 0.0
C566 C 0.21032 0.44982 0.00675 0.0
C567 C 0.23306 0.50253 0.02029 0.0
H568 H 0.20019 0.53645 -0.00915 0.0
C569 C 0.23821 0.60219 0.00621 0.0
C570 C 0.23219 0.61089 0.9883 0.0
C571 C 0.23547 0.57884 0.01145 0.0
C572 C 0.20963 0.52717 -0.00121 0.0
H573 H 0.21818 0.43163 0.06092 0.0
H574 H 0.22272 0.47226 0.05123 0.0
H575 H 0.19572 0.49555 -0.00028 0.0
H576 H 0.21934 0.60177 0.96133 0.0
H577 H 0.21485 0.56091 0.97015 0.0
H578 H 0.2472 0.53372 0.01899 0.0
C579 C 0.2186 0.45964 0.04018 0.0
C580 C 0.207 0.50376 0.00393 0.0
C581 C 0.21597 0.43639 0.04571 0.0
C582 C 0.22369 0.59569 0.9755 0.0
C583 C 0.22113 0.57225 0.98059 0.0
C584 C 0.23579 0.52582 0.01492 0.0
C585 C 0.21575 0.46661 0.02067 0.0
C586 C 0.21865 0.49127 0.01484 0.0
C587 C 0.22691 0.56351 -0.00131 0.0
C588 C 0.22408 0.53854 0.00419 0.0
H589 H 0.20454 0.41376 0.00093 0.0
H590 H 0.20835 0.45464 -0.00849 0.0
H591 H 0.24233 0.49319 0.02849 0.0
H592 H 0.24481 0.61358 0.01635 0.0
H593 H 0.23989 0.57294 0.02564 0.0
C594 C 0.77875 0.37965 0.93321 0.0
C595 C 0.77004 0.36456 0.94529 0.0
C596 C 0.77885 0.40394 0.93701 0.0
C597 C 0.77251 0.44866 0.97595 0.0
H598 H 0.7616 0.4902 0.93285 0.0
C599 C 0.75207 0.54504 0.98846 0.0
C600 C 0.75513 0.56175 0.97391 0.0
C601 C 0.75646 0.52142 0.98561 0.0
C602 C 0.76502 0.47899 0.94501 0.0
H603 H 0.75548 0.36278 0.97149 0.0
H604 H 0.75558 0.4052 0.9781 0.0
H605 H 0.76442 0.44806 0.92657 0.0
H606 H 0.76621 0.56703 0.94555 0.0
H607 H 0.77439 0.52603 0.94089 0.0
H608 H 0.77318 0.47951 -0.00557 0.0
C609 C 0.76217 0.39831 0.96557 0.0
C610 C 0.76655 0.45479 0.94139 0.0
C611 C 0.7619 0.37408 0.96162 0.0
C612 C 0.76354 0.55456 0.95697 0.0
C613 C 0.7681 0.53098 0.95422 0.0
C614 C 0.77116 0.47292 0.97956 0.0
C615 C 0.77051 0.41351 0.95319 0.0
C616 C 0.77006 0.43934 0.95687 0.0
C617 C 0.7642 0.51396 0.96823 0.0
C618 C 0.76714 0.48839 0.96419 0.0
H619 H 0.78522 0.37271 0.9206 0.0
H620 H 0.78549 0.41524 0.92734 0.0
H621 H 0.77543 0.43717 0.98812 0.0
H622 H 0.74556 0.54995 0.00165 0.0
H623 H 0.75307 0.50887 -0.00335 0.0
C624 C 0.13434 0.64902 0.97195 0.0
C625 C 0.14695 0.63282 0.97526 0.0
C626 C 0.11901 0.64503 0.97946 0.0
C627 C 0.09341 0.59906 0.00151 0.0
H628 H 0.07336 0.65228 0.02831 0.0
C629 C 0.03548 0.58789 0.04606 0.0
C630 C 0.03562 0.59871 0.06484 0.0
C631 C 0.04704 0.59366 0.03216 0.0
C632 C 0.07879 0.63724 0.0209 0.0
H633 H 0.15318 0.59926 0.98838 0.0
H634 H 0.12662 0.5925 0.0017 0.0
H635 H 0.09757 0.65823 0.00919 0.0
H636 H 0.04759 0.62476 0.08344 0.0
H637 H 0.06787 0.63447 0.0594 0.0
H638 H 0.07516 0.57785 0.01409 0.0
C639 C 0.12845 0.60816 -0.0069 0.0
C640 C 0.09257 0.64069 0.00972 0.0
C641 C 0.14374 0.61212 0.98557 0.0
C642 C 0.04715 0.61608 0.06912 0.0
C643 C 0.05873 0.62177 0.05526 0.0
C644 C 0.07967 0.59559 0.01275 0.0
C645 C 0.11597 0.62476 -0.00956 0.0
C646 C 0.10025 0.62155 0.00026 0.0
C647 C 0.059 0.61031 0.03674 0.0
C648 C 0.0724 0.61455 0.02293 0.0
H649 H 0.13638 0.66508 0.96395 0.0
H650 H 0.1096 0.65799 0.97691 0.0
H651 H 0.09889 0.584 -0.00583 0.0
H652 H 0.02667 0.57457 0.04223 0.0
H653 H 0.04675 0.58478 0.01792 0.0
C654 C 0.47794 0.2151 0.12704 0.0
C655 C 0.48169 0.23303 0.1408 0.0
C656 C 0.48654 0.19384 0.12701 0.0
C657 C 0.51288 0.15607 0.15759 0.0
H658 H 0.5275 0.13164 0.10717 0.0
C659 C 0.55994 0.08079 0.15109 0.0
C660 C 0.55795 0.06421 0.13569 0.0
C661 C 0.55001 0.10077 0.1522 0.0
C662 C 0.52332 0.13799 0.12135 0.0
H663 H 0.49717 0.24248 0.16563 0.0
H664 H 0.51218 0.20533 0.16556 0.0
H665 H 0.5111 0.16737 0.10837 0.0
H666 H 0.54374 0.05532 0.10962 0.0
H667 H 0.52626 0.08991 0.11175 0.0
H668 H 0.52508 0.12665 0.17058 0.0
C669 C 0.50253 0.2077 0.15485 0.0
C670 C 0.51393 0.15851 0.12203 0.0
C671 C 0.49399 0.22903 0.15482 0.0
C672 C 0.54567 0.06785 0.1216 0.0
C673 C 0.5357 0.08776 0.12276 0.0
C674 C 0.52221 0.13546 0.1569 0.0
C675 C 0.49902 0.18997 0.1408 0.0
C676 C 0.50865 0.16782 0.14015 0.0
C677 C 0.53782 0.10457 0.13799 0.0
C678 C 0.5276 0.12621 0.13877 0.0
H679 H 0.46851 0.2176 0.11607 0.0
H680 H 0.48341 0.1804 0.11616 0.0
H681 H 0.50882 0.16268 0.17175 0.0
H682 H 0.56932 0.07854 0.16216 0.0
H683 H 0.55213 0.1135 0.16398 0.0
C684 C 0.83501 0.7751 0.12962 0.0
C685 C 0.8458 0.79099 0.12127 0.0
C686 C 0.82281 0.76477 0.11814 0.0
C687 C 0.81432 0.74769 0.06691 0.0
H688 H 0.7716 0.73452 0.08615 0.0
C689 C 0.7676 0.69693 0.01933 0.0
C690 C 0.75829 0.68015 0.02898 0.0
C691 C 0.77719 0.71274 0.03016 0.0
C692 C 0.78353 0.73788 0.08062 0.0
H693 H 0.85166 0.80943 0.09453 0.0
H694 H 0.83034 0.79138 0.0745 0.0
H695 H 0.78988 0.7589 0.106 0.0
H696 H 0.75172 0.66687 0.05757 0.0
H697 H 0.76869 0.69403 0.07641 0.0
H698 H 0.80824 0.72617 0.04184 0.0
C699 C 0.83146 0.78674 0.08989 0.0
C700 C 0.79397 0.75192 0.09197 0.0
C701 C 0.8436 0.7972 0.10141 0.0
C702 C 0.75871 0.67962 0.04968 0.0
C703 C 0.76836 0.69534 0.0605 0.0
C704 C 0.80392 0.73356 0.05562 0.0
C705 C 0.82117 0.77001 0.09802 0.0
C706 C 0.80954 0.75678 0.08533 0.0
C707 C 0.77776 0.71206 0.05088 0.0
C708 C 0.78846 0.72824 0.06242 0.0
H709 H 0.83633 0.76998 0.14488 0.0
H710 H 0.81515 0.75184 0.12481 0.0
H711 H 0.82633 0.75079 0.06152 0.0
H712 H 0.76747 0.69791 0.0034 0.0
H713 H 0.78409 0.72558 0.02226 0.0
C714 C 0.48014 0.6493 0.18054 0.0
C715 C 0.47014 0.66859 0.1759 0.0
C716 C 0.48395 0.63234 0.16615 0.0
C717 C 0.47177 0.60974 0.11655 0.0
H718 H 0.51652 0.59014 0.11341 0.0
C719 C 0.51771 0.57026 0.05474 0.0
C720 C 0.50781 0.55324 0.04563 0.0
C721 C 0.51314 0.58116 0.07243 0.0
C722 C 0.50398 0.59546 0.11407 0.0
H723 H 0.45595 0.68487 0.15264 0.0
H724 H 0.46276 0.65554 0.12754 0.0
H725 H 0.50785 0.61546 0.14064 0.0
H726 H 0.48572 0.53347 0.04846 0.0
H727 H 0.47788 0.55224 0.07947 0.0
H728 H 0.46804 0.59066 0.08951 0.0
C729 C 0.4675 0.65329 0.14234 0.0
C730 C 0.49897 0.60975 0.12981 0.0
C731 C 0.46367 0.67021 0.15672 0.0
C732 C 0.49357 0.54665 0.05501 0.0
C733 C 0.48902 0.55751 0.07273 0.0
C734 C 0.47679 0.5955 0.10079 0.0
C735 C 0.47785 0.63431 0.14681 0.0
C736 C 0.48285 0.61739 0.13106 0.0
C737 C 0.49859 0.57523 0.08145 0.0
C738 C 0.49301 0.5885 0.09918 0.0
H739 H 0.48525 0.64748 0.19521 0.0
H740 H 0.49177 0.61777 0.17015 0.0
H741 H 0.45922 0.61505 0.11721 0.0
H742 H 0.52875 0.57576 0.04791 0.0
H743 H 0.52072 0.59491 0.0786 0.0
C744 C 0.15129 0.40309 0.941 0.0
C745 C 0.15373 0.38044 0.94865 0.0
C746 C 0.14298 0.40614 0.92315 0.0
C747 C 0.1314 0.37436 0.87736 0.0
H748 H 0.10173 0.42685 0.87077 0.0
C749 C 0.09329 0.38653 0.8062 0.0
C750 C 0.09235 0.40951 0.79879 0.0
C751 C 0.09992 0.38244 0.82491 0.0
C752 C 0.11007 0.41221 0.87233 0.0
H753 H 0.14916 0.34323 0.94363 0.0
H754 H 0.13455 0.34859 0.9126 0.0
H755 H 0.11486 0.42073 0.90266 0.0
H756 H 0.09751 0.44624 0.80534 0.0
H757 H 0.10916 0.43907 0.83783 0.0
H758 H 0.1267 0.36595 0.84698 0.0
C759 C 0.13925 0.36397 0.92028 0.0
C760 C 0.11761 0.40871 0.8906 0.0
C761 C 0.14755 0.36092 0.93813 0.0
C762 C 0.09802 0.42832 0.81059 0.0
C763 C 0.10462 0.42423 0.82929 0.0
C764 C 0.12386 0.37785 0.85908 0.0
C765 C 0.13692 0.38661 0.91253 0.0
C766 C 0.12846 0.38985 0.8933 0.0
C767 C 0.10572 0.40124 0.83664 0.0
C768 C 0.1132 0.39693 0.85631 0.0
H769 H 0.15592 0.4185 0.9487 0.0
H770 H 0.14159 0.42379 0.91748 0.0
H771 H 0.13986 0.35985 0.87885 0.0
H772 H 0.08899 0.37165 0.79752 0.0
H773 H 0.10043 0.36455 0.83024 0.0
C774 C 0.46385 0.32763 0.73037 0.0
C775 C 0.44838 0.31805 0.73182 0.0
C776 C 0.46887 0.3456 0.74327 0.0
C777 C 0.45914 0.37238 0.79203 0.0
H778 H 0.48978 0.41944 0.77608 0.0
C779 C 0.48015 0.44833 0.84363 0.0
C780 C 0.49696 0.45046 0.84557 0.0
C781 C 0.47344 0.43399 0.82882 0.0
C782 C 0.48124 0.40637 0.78071 0.0
H783 H 0.42578 0.32044 0.7474 0.0
H784 H 0.43427 0.3524 0.76943 0.0
H785 H 0.47902 0.39158 0.75165 0.0
H786 H 0.51987 0.43985 0.83312 0.0
H787 H 0.50809 0.41511 0.807 0.0
H788 H 0.46126 0.3875 0.82105 0.0
C789 C 0.44277 0.34555 0.75876 0.0
C790 C 0.47512 0.39031 0.76676 0.0
C791 C 0.43784 0.32733 0.74603 0.0
C792 C 0.50689 0.4385 0.83204 0.0
C793 C 0.50015 0.42445 0.81703 0.0
C794 C 0.46508 0.38866 0.80588 0.0
C795 C 0.45845 0.35468 0.75778 0.0
C796 C 0.46415 0.37286 0.77228 0.0
C797 C 0.48338 0.42181 0.81545 0.0
C798 C 0.47634 0.4056 0.80042 0.0
H799 H 0.47229 0.32075 0.71964 0.0
H800 H 0.48111 0.35184 0.74221 0.0
H801 H 0.45098 0.35899 0.79698 0.0
H802 H 0.47218 0.45733 0.85384 0.0
H803 H 0.46046 0.43235 0.82783 0.0
C804 C 0.88813 0.2129 0.76238 0.0
C805 C 0.90285 0.20194 0.76731 0.0
C806 C 0.87639 0.21676 0.77668 0.0
C807 C 0.87294 0.22584 0.82997 0.0
H808 H 0.8271 0.21973 0.81984 0.0
C809 C 0.82616 0.24721 0.88998 0.0
C810 C 0.81208 0.25919 0.88403 0.0
C811 C 0.83682 0.23806 0.87599 0.0
C812 C 0.83986 0.22175 0.82285 0.0
H813 H 0.91645 0.18538 0.79095 0.0
H814 H 0.89593 0.19211 0.81589 0.0
H815 H 0.84622 0.20674 0.79481 0.0
H816 H 0.79816 0.27096 0.85871 0.0
H817 H 0.81692 0.25552 0.83433 0.0
H818 H 0.86668 0.24141 0.85773 0.0
C819 C 0.89357 0.19796 0.801 0.0
C820 C 0.8508 0.21423 0.80852 0.0
C821 C 0.90527 0.19397 0.78667 0.0
C822 C 0.80888 0.26176 0.86378 0.0
C823 C 0.81959 0.25273 0.84979 0.0
C824 C 0.86202 0.23349 0.84423 0.0
C825 C 0.87914 0.20983 0.79626 0.0
C826 C 0.86746 0.21634 0.81188 0.0
C827 C 0.83372 0.24079 0.85571 0.0
C828 C 0.84533 0.23172 0.84081 0.0
H829 H 0.88585 0.21921 0.7476 0.0
H830 H 0.86544 0.22608 0.77259 0.0
H831 H 0.8857 0.22807 0.83287 0.0
H832 H 0.82892 0.24477 0.90547 0.0
H833 H 0.84745 0.22867 0.88109 0.0
C834 C 0.45603 0.74265 0.75358 0.0
C835 C 0.44522 0.73512 0.76792 0.0
C836 C 0.46416 0.76398 0.75599 0.0
C837 C 0.47733 0.80644 0.79435 0.0
H838 H 0.48399 0.84757 0.75008 0.0
C839 C 0.50722 0.89733 0.80397 0.0
C840 C 0.5186 0.90349 0.78981 0.0
C841 C 0.4975 0.87757 0.80105 0.0
C842 C 0.48236 0.83617 0.76255 0.0
H843 H 0.43426 0.74429 0.7959 0.0
H844 H 0.44838 0.78158 0.80003 0.0
H845 H 0.46833 0.81168 0.74541 0.0
H846 H 0.52856 0.89388 0.76137 0.0
H847 H 0.51172 0.85927 0.75639 0.0
H848 H 0.49147 0.83074 0.81145 0.0
C849 C 0.45072 0.77084 0.78703 0.0
C850 C 0.47338 0.81561 0.75988 0.0
C851 C 0.44256 0.74953 0.78461 0.0
C852 C 0.5199 0.88963 0.77255 0.0
C853 C 0.51018 0.86987 0.76964 0.0
C854 C 0.48631 0.82696 0.79702 0.0
C855 C 0.46169 0.77824 0.77281 0.0
C856 C 0.47082 0.80046 0.77573 0.0
C857 C 0.49893 0.86351 0.78392 0.0
C858 C 0.48899 0.84202 0.78114 0.0
H859 H 0.45836 0.73195 0.74056 0.0
H860 H 0.47267 0.76903 0.74487 0.0
H861 H 0.4758 0.79496 0.80679 0.0
H862 H 0.50586 0.90769 0.81738 0.0
H863 H 0.4888 0.87336 0.81221 0.0
C864 C 0.07674 0.9554 0.36942 0.0
C865 C 0.06835 0.96893 0.38348 0.0
C866 C 0.09327 0.95842 0.36698 0.0
C867 C 0.12589 0.00125 0.37567 0.0
H868 H 0.15339 0.94692 0.36577 0.0
C869 C 0.19489 0.00904 0.36694 0.0
C870 C 0.20162 -0.004 0.35126 0.0
C871 C 0.17894 0.00537 0.37249 0.0
C872 C 0.14585 0.96227 0.36839 0.0
H873 H 0.07061 -0.00343 0.4057 0.0
H874 H 0.0995 0.00164 0.4016 0.0
H875 H 0.12492 0.94125 0.37249 0.0
H876 H 0.19691 0.96874 0.32923 0.0
H877 H 0.16913 0.96253 0.33878 0.0
H878 H 0.1468 0.02227 0.37138 0.0
C879 C 0.09332 0.98872 0.39246 0.0
C880 C 0.12953 0.95903 0.37222 0.0
C881 C 0.07679 0.98569 0.39491 0.0
C882 C 0.19211 0.97907 0.34139 0.0
C883 C 0.17621 0.97539 0.34695 0.0
C884 C 0.14222 0.00449 0.37186 0.0
C885 C 0.10177 0.97509 0.37849 0.0
C886 C 0.11931 0.97849 0.37562 0.0
C887 C 0.16942 0.98855 0.36251 0.0
C888 C 0.15233 0.98505 0.3679 0.0
H889 H 0.07056 0.9424 0.36034 0.0
H890 H 0.09935 0.94792 0.35583 0.0
H891 H 0.11832 0.01663 0.37803 0.0
H892 H 0.2019 0.02216 0.3749 0.0
H893 H 0.1741 0.01562 0.38467 0.0
C894 C 0.83568 0.25888 0.3735 0.0
C895 C 0.83848 0.25499 0.35332 0.0
C896 C 0.82019 0.25684 0.38106 0.0
C897 C 0.77685 0.25199 0.36706 0.0
H898 H 0.77481 0.21487 0.41451 0.0
C899 C 0.71978 0.20286 0.39043 0.0
C900 C 0.71621 0.20211 0.4106 0.0
C901 C 0.73409 0.21292 0.38413 0.0
C902 C 0.77514 0.22559 0.40144 0.0
H903 H 0.82705 0.24717 0.32507 0.0
H904 H 0.80009 0.24325 0.33829 0.0
H905 H 0.80085 0.22678 0.40223 0.0
H906 H 0.72467 0.21187 0.43996 0.0
H907 H 0.74966 0.22946 0.42894 0.0
H908 H 0.75109 0.25014 0.36605 0.0
C909 C 0.80982 0.24811 0.34827 0.0
C910 C 0.79009 0.23247 0.3944 0.0
C911 C 0.82531 0.25024 0.3407 0.0
C912 C 0.7271 0.21206 0.42432 0.0
C913 C 0.74144 0.22206 0.41801 0.0
C914 C 0.76188 0.24504 0.37409 0.0
C915 C 0.80715 0.25079 0.36862 0.0
C916 C 0.79114 0.24547 0.37698 0.0
C917 C 0.74517 0.2224 0.39786 0.0
C918 C 0.76089 0.23148 0.39121 0.0
H919 H 0.84554 0.2628 0.3836 0.0
H920 H 0.81849 0.25948 0.39674 0.0
H921 H 0.77723 0.26228 0.35376 0.0
H922 H 0.71163 0.19537 0.37947 0.0
H923 H 0.73669 0.21263 0.36852 0.0
C924 C 0.73166 0.81354 0.59393 0.0
C925 C 0.72987 0.81003 0.57346 0.0
C926 C 0.74594 0.80696 0.6036 0.0
C927 C 0.78263 0.76994 0.5982 0.0
H928 H 0.80138 0.81478 0.63535 0.0
C929 C 0.84978 0.76923 0.62017 0.0
C930 C 0.85432 0.7762 0.6394 0.0
C931 C 0.83366 0.77006 0.61414 0.0
C932 C 0.79619 0.80183 0.62532 0.0
H933 H 0.74157 0.79655 0.54716 0.0
H934 H 0.7665 0.7853 0.564 0.0
H935 H 0.77496 0.82279 0.62087 0.0
H936 H 0.84535 0.7883 0.66772 0.0
H937 H 0.81711 0.78952 0.65721 0.0
H938 H 0.80404 0.74922 0.60235 0.0
C939 C 0.75681 0.79287 0.57262 0.0
C940 C 0.78104 0.80645 0.61698 0.0
C941 C 0.74256 0.79949 0.56294 0.0
C942 C 0.84227 0.78292 0.65277 0.0
C943 C 0.8261 0.78378 0.64671 0.0
C944 C 0.79778 0.7653 0.60656 0.0
C945 C 0.75871 0.79668 0.59304 0.0
C946 C 0.7742 0.79076 0.60308 0.0
C947 C 0.82166 0.77785 0.62719 0.0
C948 C 0.80486 0.78139 0.61996 0.0
H949 H 0.72209 0.82153 0.60249 0.0
H950 H 0.74696 0.80989 0.61938 0.0
H951 H 0.77757 0.7573 0.58779 0.0
H952 H 0.85875 0.7639 0.60951 0.0
H953 H 0.8307 0.76559 0.59895 0.0
C954 C 0.17321 0.02262 0.48238 0.0
C955 C 0.18486 0.00453 0.48189 0.0
C956 C 0.15805 0.01927 0.4737 0.0
C957 C 0.12973 0.97232 0.46218 0.0
H958 H 0.10588 0.02172 0.43544 0.0
C959 C 0.0629 0.96063 0.44135 0.0
C960 C 0.0528 0.98 0.44556 0.0
C961 C 0.07963 0.96313 0.44159 0.0
C962 C 0.11236 0.00777 0.44294 0.0
H963 H 0.18997 0.96908 0.47119 0.0
H964 H 0.16339 0.96321 0.45612 0.0
H965 H 0.13443 0.02708 0.44318 0.0
H966 H 0.05233 0.01737 0.45268 0.0
H967 H 0.08146 0.02162 0.45362 0.0
H968 H 0.10764 0.95337 0.46273 0.0
C969 C 0.166 0.97992 0.46334 0.0
C970 C 0.12871 0.01083 0.44732 0.0
C971 C 0.18122 0.98332 0.47191 0.0
C972 C 0.05977 0.00209 0.44938 0.0
C973 C 0.0765 0.00455 0.44978 0.0
C974 C 0.11338 0.9693 0.45789 0.0
C975 C 0.15418 -0.00227 0.46442 0.0
C976 C 0.13747 -0.00665 0.45738 0.0
C977 C 0.08664 0.98502 0.44621 0.0
C978 C 0.1044 0.9872 0.4486 0.0
H979 H 0.17565 0.03922 0.48986 0.0
H980 H 0.14914 0.03324 0.47497 0.0
H981 H 0.1361 0.95865 0.47017 0.0
H982 H 0.0579 0.94342 0.4381 0.0
H983 H 0.08706 0.94783 0.43834 0.0
C984 C 0.56659 0.00852 0.65689 0.0
C985 C 0.57225 0.0214 0.67339 0.0
C986 C 0.57259 0.01285 0.63811 0.0
C987 C 0.60768 0.03817 0.61347 0.0
H988 H 0.5791 0.04214 0.56795 0.0
C989 C 0.63228 0.05216 0.53565 0.0
C990 C 0.62439 0.06959 0.52453 0.0
C991 C 0.62537 0.04374 0.55283 0.0
C992 C 0.58722 0.0411 0.58054 0.0
H993 H 0.58847 0.04916 0.68305 0.0
H994 H 0.5988 0.05678 0.65037 0.0
H995 H 0.56809 0.03309 0.6002 0.0
H996 H 0.60276 0.09116 0.52228 0.0
H997 H 0.5908 0.07661 0.55234 0.0
H998 H 0.62673 0.04681 0.59402 0.0
C999 C 0.58991 0.0431 0.65196 0.0
C1000 C 0.58094 0.03571 0.59896 0.0
C1001 C 0.5839 0.03883 0.67068 0.0
C1002 C 0.60918 0.07777 0.53055 0.0
C1003 C 0.60226 0.06933 0.54772 0.0
C1004 C 0.61395 0.04347 0.59508 0.0
C1005 C 0.58441 0.03007 0.63547 0.0
C1006 C 0.59108 0.03451 0.61567 0.0
C1007 C 0.61041 0.05252 0.55924 0.0
C1008 C 0.60378 0.04526 0.57844 0.0
H1009 H 0.55762 -0.00504 0.65848 0.0
H1010 H 0.56819 0.00241 0.62571 0.0
H1011 H 0.61584 0.03704 0.62601 0.0
H1012 H 0.64394 0.04531 0.53132 0.0
H1013 H 0.63183 0.03051 0.56122 0.0
C1014 C 0.95302 0.69563 0.67487 0.0
C1015 C 0.9429 0.69702 0.65814 0.0
C1016 C 0.96389 0.67685 0.67696 0.0
C1017 C 0.98622 0.63256 0.64808 0.0
H1018 H -0.00901 0.60036 0.69786 0.0
C1019 C 0.02543 0.5488 0.6554 0.0
C1020 C 0.03467 0.54624 0.67274 0.0
C1021 C 0.0139 0.56679 0.65389 0.0
C1022 C -0.01003 0.60935 0.68393 0.0
H1023 H 0.93621 0.67972 0.63054 0.0
H1024 H 0.95524 0.64703 0.63418 0.0
H1025 H 0.97159 0.63268 0.69481 0.0
H1026 H 0.03905 0.56053 0.70212 0.0
H1027 H 0.01923 0.59225 0.69933 0.0
H1028 H 0.00474 0.60964 0.63723 0.0
C1029 C 0.9548 0.66052 0.64562 0.0
C1030 C 0.97882 0.62782 0.68218 0.0
C1031 C 0.94384 0.67918 0.6436 0.0
C1032 C 0.03207 0.56197 0.68858 0.0
C1033 C 0.02063 0.58009 0.68702 0.0
C1034 C -0.00255 0.61423 0.64986 0.0
C1035 C 0.96496 0.65918 0.66229 0.0
C1036 C 0.9768 0.63958 0.66422 0.0
C1037 C 0.01143 0.58278 0.66962 0.0
C1038 C -0.00055 0.60233 0.66779 0.0
H1039 H 0.95259 0.70909 0.68633 0.0
H1040 H 0.97167 0.67638 0.68989 0.0
H1041 H 0.98511 0.64153 0.63413 0.0
H1042 H 0.02705 0.53687 0.64297 0.0
H1043 H 0.00685 0.56804 0.6404 0.0
C1044 C 0.40383 0.17627 0.66146 0.0
C1045 C 0.40627 0.19971 0.65591 0.0
C1046 C 0.38977 0.16452 0.65598 0.0
C1047 C 0.35668 0.16507 0.61937 0.0
H1048 H 0.33819 0.11995 0.65488 0.0
C1049 C 0.30011 0.1099 0.5994 0.0
C1050 C 0.30167 0.08565 0.60301 0.0
C1051 C 0.31162 0.12572 0.60674 0.0
C1052 C 0.34325 0.13245 0.64479 0.0
H1053 H 0.3957 0.22935 0.64045 0.0
H1054 H 0.37091 0.20879 0.63101 0.0
H1055 H 0.3603 0.14481 0.66634 0.0
H1056 H 0.31638 0.05902 0.61737 0.0
H1057 H 0.33636 0.08663 0.63027 0.0
H1058 H 0.3396 0.15249 0.5978 0.0
C1059 C 0.38004 0.19945 0.63943 0.0
C1060 C 0.35593 0.14667 0.65132 0.0
C1061 C 0.39419 0.21126 0.64491 0.0
C1062 C 0.31483 0.07759 0.61433 0.0
C1063 C 0.32622 0.09341 0.62182 0.0
C1064 C 0.34389 0.15093 0.61287 0.0
C1065 C 0.3777 0.1759 0.64487 0.0
C1066 C 0.36305 0.16276 0.63856 0.0
C1067 C 0.32479 0.11762 0.61801 0.0
C1068 C 0.33729 0.13414 0.6254 0.0
H1069 H 0.41289 0.16679 0.66988 0.0
H1070 H 0.38855 0.14626 0.6601 0.0
H1071 H 0.36197 0.1771 0.60909 0.0
H1072 H 0.29011 0.11665 0.59071 0.0
H1073 H 0.31017 0.1443 0.60368 0.0
C1074 C 0.96619 0.08506 0.49224 0.0
C1075 C 0.97856 0.06842 0.48911 0.0
C1076 C 0.96354 0.09461 0.51105 0.0
C1077 C 0.97127 0.08364 0.56397 0.0
H1078 H 0.9622 0.15046 0.56998 0.0
C1079 C 0.97089 0.13086 0.64008 0.0
C1080 C 0.95907 0.14833 0.64332 0.0
C1081 C 0.97287 0.12074 0.62133 0.0
C1082 C 0.96451 0.13171 0.56855 0.0
H1083 H -0.00214 0.04877 0.50337 0.0
H1084 H -0.00669 0.06557 0.53612 0.0
H1085 H 0.96643 0.13363 0.53718 0.0
H1086 H 0.93991 0.1686 0.62943 0.0
H1087 H 0.94324 0.15076 0.59682 0.0
H1088 H 0.96938 0.08173 0.59535 0.0
C1089 C 0.98553 0.07104 0.52406 0.0
C1090 C 0.96695 0.12206 0.54973 0.0
C1091 C -0.0118 0.06153 0.50525 0.0
C1092 C 0.94917 0.15526 0.62743 0.0
C1093 C 0.95115 0.14513 0.60869 0.0
C1094 C 0.96882 0.09329 0.58279 0.0
C1095 C 0.97317 0.08771 0.5272 0.0
C1096 C 0.9704 0.09792 0.54721 0.0
C1097 C 0.96308 0.12783 0.60538 0.0
C1098 C 0.96545 0.11746 0.58533 0.0
H1099 H 0.9585 0.09071 0.48015 0.0
H1100 H 0.95379 0.1072 0.513 0.0
H1101 H 0.97365 0.06491 0.56253 0.0
H1102 H 0.97875 0.12516 0.65197 0.0
H1103 H 0.98231 0.10769 0.61927 0.0
C1104 C 0.64816 0.88145 0.40546 0.0
C1105 C 0.65256 0.89999 0.41834 0.0
C1106 C 0.64253 0.8861 0.3864 0.0
C1107 C 0.6433 0.93114 0.34795 0.0
H1108 H 0.6066 0.89735 0.32622 0.0
C1109 C 0.61412 0.95583 0.27339 0.0
C1110 C 0.60927 0.93728 0.26077 0.0
C1111 C 0.61903 0.95138 0.29277 0.0
C1112 C 0.61698 0.90675 0.33198 0.0
H1113 H 0.65443 0.93799 0.4213 0.0
H1114 H 0.6446 0.94608 0.38803 0.0
H1115 H 0.61592 0.88934 0.35973 0.0
H1116 H 0.60572 0.89951 0.25866 0.0
H1117 H 0.61452 0.89171 0.29237 0.0
H1118 H 0.6445 0.94838 0.32019 0.0
C1119 C 0.64562 0.92794 0.39265 0.0
C1120 C 0.6223 0.90217 0.35119 0.0
C1121 C 0.65117 0.92329 0.41175 0.0
C1122 C 0.60934 0.91421 0.26801 0.0
C1123 C 0.6143 0.90975 0.28738 0.0
C1124 C 0.63803 0.93565 0.32873 0.0
C1125 C 0.64125 0.90939 0.37975 0.0
C1126 C 0.63552 0.91432 0.35939 0.0
C1127 C 0.61925 0.92828 0.29998 0.0
C1128 C 0.6248 0.92352 0.3205 0.0
H1129 H 0.64909 0.86329 0.41008 0.0
H1130 H 0.63942 0.87143 0.37674 0.0
H1131 H 0.65367 0.94054 0.35375 0.0
H1132 H 0.61412 0.97384 0.26833 0.0
H1133 H 0.62251 0.96611 0.30216 0.0
C1134 C 0.97312 0.90932 0.3703 0.0
C1135 C 0.97393 0.93351 0.37488 0.0
C1136 C 0.96562 0.90152 0.35288 0.0
C1137 C 0.95647 0.91686 0.30269 0.0
H1138 H 0.9217 0.87194 0.30571 0.0
C1139 C 0.92299 0.88335 0.23249 0.0
C1140 C 0.91772 0.8599 0.23217 0.0
C1141 C 0.92901 0.89362 0.24994 0.0
C1142 C 0.93156 0.88417 0.30449 0.0
H1143 H 0.96784 0.96853 0.36466 0.0
H1144 H 0.95515 0.95479 0.33375 0.0
H1145 H 0.93427 0.88707 0.33591 0.0
H1146 H 0.91482 0.8287 0.24976 0.0
H1147 H 0.92597 0.84605 0.27982 0.0
H1148 H 0.95445 0.91322 0.27136 0.0
C1149 C 0.96013 0.94197 0.34386 0.0
C1150 C 0.93865 0.89296 0.32184 0.0
C1151 C 0.96732 0.94978 0.36153 0.0
C1152 C 0.91863 0.8469 0.2496 0.0
C1153 C 0.92493 0.85698 0.26692 0.0
C1154 C 0.94962 0.9077 0.28528 0.0
C1155 C 0.95909 0.91776 0.3395 0.0
C1156 C 0.9512 0.90928 0.32109 0.0
C1157 C 0.93019 0.88052 0.26739 0.0
C1158 C 0.93711 0.89108 0.28592 0.0
H1159 H 0.97808 0.89639 0.38033 0.0
H1160 H 0.96504 0.88277 0.34976 0.0
H1161 H 0.96623 0.92933 0.30177 0.0
H1162 H 0.92233 0.89386 0.21929 0.0
H1163 H 0.93262 0.91189 0.24971 0.0
C1164 C 0.42796 0.80664 0.28847 0.0
C1165 C 0.42712 0.7864 0.27635 0.0
C1166 C 0.41464 0.82155 0.29049 0.0
C1167 C 0.37752 0.83897 0.26403 0.0
H1168 H 0.37074 0.87612 0.31168 0.0
C1169 C 0.32838 0.91231 0.27192 0.0
C1170 C 0.33442 0.93394 0.27901 0.0
C1171 C 0.33801 0.89196 0.27237 0.0
C1172 C 0.37249 0.86582 0.29829 0.0
H1173 H 0.41134 0.76527 0.25765 0.0
H1174 H 0.38788 0.79115 0.26153 0.0
H1175 H 0.38999 0.84344 0.31205 0.0
H1176 H 0.35522 0.95119 0.29221 0.0
H1177 H 0.37188 0.91565 0.29326 0.0
H1178 H 0.35997 0.86158 0.25034 0.0
C1179 C 0.39899 0.79572 0.26913 0.0
C1180 C 0.38354 0.84716 0.29846 0.0
C1181 C 0.4124 0.7808 0.26702 0.0
C1182 C 0.35023 0.93482 0.28659 0.0
C1183 C 0.35973 0.91445 0.28733 0.0
C1184 C 0.3663 0.85749 0.26394 0.0
C1185 C 0.40006 0.81654 0.28058 0.0
C1186 C 0.38656 0.83395 0.28118 0.0
C1187 C 0.35371 0.89284 0.28026 0.0
C1188 C 0.36403 0.87148 0.28092 0.0
H1189 H 0.4391 0.8115 0.29587 0.0
H1190 H 0.41604 0.83756 0.29918 0.0
H1191 H 0.37964 0.82937 0.25039 0.0
H1192 H 0.31624 0.91112 0.26598 0.0
H1193 H 0.33311 0.87549 0.26684 0.0
C1194 C 0.95473 0.4393 0.18953 0.0
C1195 C 0.96751 0.45358 0.19613 0.0
C1196 C 0.94744 0.42365 0.20235 0.0
C1197 C 0.94167 0.41156 0.25503 0.0
H1198 H 0.93402 0.34752 0.23677 0.0
C1199 C 0.9254 0.33745 0.30829 0.0
C1200 C 0.91405 0.3207 0.30189 0.0
C1201 C 0.93129 0.35404 0.29524 0.0
C1202 C 0.93585 0.36542 0.24203 0.0
H1203 H 0.98249 0.46293 0.22144 0.0
H1204 H 0.96976 0.43566 0.24378 0.0
H1205 H 0.94515 0.37609 0.21428 0.0
H1206 H 0.89988 0.30832 0.27679 0.0
H1207 H 0.90997 0.33751 0.25409 0.0
H1208 H 0.93235 0.40097 0.28275 0.0
C1209 C 0.96532 0.43664 0.22873 0.0
C1210 C 0.94225 0.38178 0.22914 0.0
C1211 C 0.97267 0.45217 0.21589 0.0
C1212 C 0.90868 0.32093 0.28216 0.0
C1213 C 0.91452 0.33759 0.26912 0.0
C1214 C 0.9352 0.39524 0.26789 0.0
C1215 C 0.95271 0.42208 0.22206 0.0
C1216 C 0.94534 0.40498 0.23554 0.0
C1217 C 0.92592 0.35434 0.2755 0.0
C1218 C 0.93232 0.37191 0.2616 0.0
H1219 H 0.95045 0.43998 0.1744 0.0
H1220 H 0.93764 0.41284 0.19684 0.0
H1221 H 0.94371 0.4294 0.2603 0.0
H1222 H 0.92984 0.33769 0.32337 0.0
H1223 H 0.94026 0.36641 0.30058 0.0
C1224 C 0.56728 0.44333 0.98298 0.0
C1225 C 0.56504 0.46789 0.98392 0.0
C1226 C 0.58268 0.43363 0.98063 0.0
C1227 C 0.62588 0.44787 0.98679 0.0
H1228 H 0.63216 0.39412 0.95173 0.0
C1229 C 0.68907 0.41453 0.96427 0.0
C1230 C 0.69158 0.39002 0.96335 0.0
C1231 C 0.67363 0.42388 0.9671 0.0
C1232 C 0.63058 0.40896 0.96175 0.0
H1233 H 0.57719 0.50153 0.98285 0.0
H1234 H 0.604 0.48464 0.97855 0.0
H1235 H 0.6052 0.41065 0.95595 0.0
H1236 H 0.67982 0.35611 0.96487 0.0
H1237 H 0.65292 0.37243 0.96995 0.0
H1238 H 0.65128 0.44624 -0.00748 0.0
C1239 C 0.5939 0.47284 0.97998 0.0
C1240 C 0.61513 0.41843 0.96417 0.0
C1241 C 0.57852 0.48253 0.98235 0.0
C1242 C 0.67831 0.37508 0.96544 0.0
C1243 C 0.66287 0.38443 0.96824 0.0
C1244 C 0.64134 0.43842 0.98435 0.0
C1245 C 0.59619 0.44828 0.97914 0.0
C1246 C 0.6126 0.43803 0.9767 0.0
C1247 C 0.66033 0.40894 0.96905 0.0
C1248 C 0.64388 0.41888 0.97177 0.0
H1249 H 0.55714 0.43156 0.98416 0.0
H1250 H 0.58404 0.41464 0.98025 0.0
H1251 H 0.62432 0.46273 -0.0032 0.0
H1252 H 0.69902 0.42655 0.96267 0.0
H1253 H 0.67206 0.44284 0.96743 0.0
C1254 C 0.35871 0.67434 0.80528 0.0
C1255 C 0.37524 0.67796 0.80874 0.0
C1256 C 0.34746 0.68053 0.81967 0.0
C1257 C 0.34519 0.68663 0.87326 0.0
H1258 H 0.30251 0.71209 0.86281 0.0
C1259 C 0.30005 0.70163 0.9359 0.0
C1260 C 0.28405 0.69501 0.93202 0.0
C1261 C 0.31109 0.70294 0.92059 0.0
C1262 C 0.31434 0.7048 0.86594 0.0
H1263 H 0.39281 0.69241 0.82945 0.0
H1264 H 0.37319 0.70328 0.85445 0.0
H1265 H 0.32193 0.70901 0.8361 0.0
H1266 H 0.26699 0.68497 0.90898 0.0
H1267 H 0.28633 0.68669 0.88235 0.0
H1268 H 0.33758 0.68167 0.90284 0.0
C1269 C 0.36896 0.69528 0.84077 0.0
C1270 C 0.32547 0.70311 0.85065 0.0
C1271 C 0.38019 0.68915 0.82639 0.0
C1272 C 0.27924 0.69017 0.91245 0.0
C1273 C 0.29031 0.69132 0.89715 0.0
C1274 C 0.33407 0.68819 0.88848 0.0
C1275 C 0.35254 0.69043 0.8378 0.0
C1276 C 0.34098 0.69385 0.85413 0.0
C1277 C 0.30642 0.69748 0.90106 0.0
C1278 C 0.31846 0.69712 0.885 0.0
H1279 H 0.3545 0.66581 0.79181 0.0
H1280 H 0.3349 0.67647 0.81698 0.0
H1281 H 0.35693 0.67899 0.87634 0.0
H1282 H 0.3041 0.70568 0.9508 0.0
H1283 H 0.32333 0.70815 0.9241 0.0
C1284 C 0.38374 0.29608 0.11106 0.0
C1285 C 0.39089 0.3074 0.12748 0.0
C1286 C 0.36701 0.29454 0.10932 0.0
C1287 C 0.33061 0.32591 0.1258 0.0
H1288 H 0.30877 0.27442 0.09878 0.0
C1289 C 0.26255 0.32988 0.10829 0.0
C1290 C 0.25827 0.3239 0.08875 0.0
C1291 C 0.27797 0.32472 0.11563 0.0
C1292 C 0.31472 0.28894 0.10633 0.0
H1293 H 0.3861 0.32466 0.15556 0.0
H1294 H 0.35687 0.32163 0.15266 0.0
H1295 H 0.33726 0.27041 0.10759 0.0
H1296 H 0.26663 0.30705 0.06181 0.0
H1297 H 0.29353 0.29817 0.07458 0.0
H1298 H 0.30819 0.34462 0.12419 0.0
C1299 C 0.36421 0.3144 0.14092 0.0
C1300 C 0.33103 0.28666 0.11137 0.0
C1301 C 0.38097 0.31601 0.14264 0.0
C1302 C 0.26955 0.31194 0.07692 0.0
C1303 C 0.28494 0.3067 0.08429 0.0
C1304 C 0.3143 0.32814 0.12084 0.0
C1305 C 0.35701 0.3042 0.12399 0.0
C1306 C 0.33926 0.30531 0.1208 0.0
C1307 C 0.28941 0.31338 0.10362 0.0
C1308 C 0.30625 0.30988 0.1107 0.0
H1309 H 0.39102 0.28921 0.09912 0.0
H1310 H 0.36191 0.28678 0.09599 0.0
H1311 H 0.3366 0.34078 0.13276 0.0
H1312 H 0.25412 0.33902 0.11782 0.0
H1313 H 0.281 0.32986 0.13065 0.0
C1314 C 0.66537 0.62847 0.96744 0.0
C1315 C 0.67782 0.633 0.95419 0.0
C1316 C 0.65001 0.62253 0.96046 0.0
C1317 C 0.63194 0.59281 0.91792 0.0
H1318 H 0.59175 0.60729 0.94412 0.0
C1319 C 0.57477 0.54145 0.89766 0.0
C1320 C 0.56611 0.53332 0.91383 0.0
C1321 C 0.5863 0.55908 0.90024 0.0
C1322 C 0.60288 0.60303 0.93665 0.0
H1323 H 0.68354 0.63672 0.92327 0.0
H1324 H 0.65669 0.6264 0.91113 0.0
H1325 H 0.61602 0.62922 0.95313 0.0
H1326 H 0.56208 0.53825 0.94517 0.0
H1327 H 0.58242 0.56837 0.94976 0.0
H1328 H 0.61918 0.56588 0.90217 0.0
C1329 C 0.6589 0.62711 0.9269 0.0
C1330 C 0.61675 0.61565 0.94179 0.0
C1331 C 0.67426 0.63313 0.93387 0.0
C1332 C 0.56858 0.54406 0.9324 0.0
C1333 C 0.5802 0.56152 0.93501 0.0
C1334 C 0.61812 0.58012 0.91288 0.0
C1335 C 0.64677 0.62096 0.9401 0.0
C1336 C 0.63151 0.61029 0.93278 0.0
C1337 C 0.58951 0.56881 0.91907 0.0
C1338 C 0.6035 0.58467 0.92251 0.0
H1339 H 0.66768 0.62835 0.98319 0.0
H1340 H 0.64096 0.61776 0.97102 0.0
H1341 H 0.64316 0.58797 0.91091 0.0
H1342 H 0.57299 0.53373 0.88311 0.0
H1343 H 0.59302 0.56462 0.88756 0.0
loop_
_geom_bond_atom_site_label_1
_geom_bond_atom_site_label_2
_geom_bond_distance
_geom_bond_site_symmetry_2
_ccdc_geom_bond_type
O0 Cd1 2.300 . S
O0 C7 1.275 . S
Cd1 O0 2.300 . S
Cd1 O9 2.381 . S
Cd1 O10 2.378 . S
O2 Cd3 2.385 1_655 S
O2 C7 1.255 . S
Cd3 O2 2.385 1_455 S
Cd3 O4 2.317 . S
O4 Cd3 2.317 . S
O4 C5 1.232 . S
C5 O4 1.232 . S
C5 O6 1.218 . S
O6 C5 1.218 . S
C7 O0 1.275 . S
C7 O2 1.255 . S
C8 O9 1.258 . S
C8 O10 1.256 . S
O9 Cd1 2.381 . S
O9 C8 1.258 . S
O10 Cd1 2.378 . S
O10 C8 1.256 . S
O11 Cd12 2.300 1_565 S
O11 C18 1.275 . S
Cd12 O11 2.300 1_545 S
Cd12 O20 2.381 . S
Cd12 O21 2.378 . S
O13 Cd14 2.385 . S
O13 C18 1.255 . S
Cd14 O13 2.385 . S
Cd14 O15 2.317 . S
O15 Cd14 2.317 . S
O15 C16 1.232 . S
C16 O15 1.232 . S
C16 O17 1.218 . S
O17 C16 1.218 . S
C18 O11 1.275 . S
C18 O13 1.255 . S
C19 O20 1.258 . S
C19 O21 1.256 . S
O20 Cd12 2.381 . S
O20 C19 1.258 . S
O21 Cd12 2.378 . S
O21 C19 1.256 . S
O22 Cd23 2.300 . S
O22 C29 1.275 . S
Cd23 O22 2.300 . S
Cd23 O31 2.381 . S
Cd23 O32 2.378 . S
O24 Cd25 2.385 . S
O24 C29 1.255 . S
Cd25 O24 2.385 . S
Cd25 O26 2.317 . S
O26 Cd25 2.317 . S
O26 C27 1.232 . S
C27 O26 1.232 . S
C27 O28 1.218 . S
O28 C27 1.218 . S
C29 O22 1.275 . S
C29 O24 1.255 . S
C30 O31 1.258 . S
C30 O32 1.256 . S
O31 Cd23 2.381 . S
O31 C30 1.258 . S
O32 Cd23 2.378 . S
O32 C30 1.256 . S
O33 Cd34 2.300 . S
O33 C40 1.275 . S
Cd34 O33 2.300 . S
Cd34 O42 2.381 . S
Cd34 O43 2.378 . S
O35 Cd36 2.385 . S
O35 C40 1.255 . S
Cd36 O35 2.385 . S
Cd36 O37 2.317 . S
O37 Cd36 2.317 . S
O37 C38 1.232 . S
C38 O37 1.232 . S
C38 O39 1.218 . S
O39 C38 1.218 . S
C40 O33 1.275 . S
C40 O35 1.255 . S
C41 O42 1.258 . S
C41 O43 1.256 . S
O42 Cd34 2.381 . S
O42 C41 1.258 . S
O43 Cd34 2.378 . S
O43 C41 1.256 . S
O44 Cd45 2.300 . S
O44 C51 1.275 . S
Cd45 O44 2.300 . S
Cd45 O53 2.381 . S
Cd45 O54 2.378 . S
O46 Cd47 2.385 . S
O46 C51 1.255 . S
Cd47 O46 2.385 . S
Cd47 O48 2.317 . S
O48 Cd47 2.317 . S
O48 C49 1.232 . S
C49 O48 1.232 . S
C49 O50 1.218 . S
O50 C49 1.218 . S
C51 O44 1.275 . S
C51 O46 1.255 . S
C52 O53 1.258 . S
C52 O54 1.256 . S
O53 Cd45 2.381 . S
O53 C52 1.258 . S
O54 Cd45 2.378 . S
O54 C52 1.256 . S
O55 Cd56 2.300 . S
O55 C62 1.275 . S
Cd56 O55 2.300 . S
Cd56 O64 2.381 . S
Cd56 O65 2.378 . S
O57 Cd58 2.385 . S
O57 C62 1.255 . S
Cd58 O57 2.385 . S
Cd58 O59 2.317 . S
O59 Cd58 2.317 . S
O59 C60 1.232 . S
C60 O59 1.232 . S
C60 O61 1.218 . S
O61 C60 1.218 . S
C62 O55 1.275 . S
C62 O57 1.255 . S
C63 O64 1.258 . S
C63 O65 1.256 . S
O64 Cd56 2.381 . S
O64 C63 1.258 . S
O65 Cd56 2.378 . S
O65 C63 1.256 . S
O66 Cd67 2.300 . S
O66 C73 1.275 . S
Cd67 O66 2.300 . S
Cd67 O75 2.381 . S
Cd67 O76 2.378 . S
O68 Cd69 2.385 . S
O68 C73 1.255 . S
Cd69 O68 2.385 . S
Cd69 O70 2.317 . S
O70 Cd69 2.317 . S
O70 C71 1.232 . S
C71 O70 1.232 . S
C71 O72 1.218 . S
O72 C71 1.218 . S
C73 O66 1.275 . S
C73 O68 1.255 . S
C74 O75 1.258 . S
C74 O76 1.256 . S
O75 Cd67 2.381 . S
O75 C74 1.258 . S
O76 Cd67 2.378 . S
O76 C74 1.256 . S
O77 Cd78 2.300 1_545 S
O77 C84 1.275 . S
Cd78 O77 2.300 1_565 S
Cd78 O86 2.381 . S
Cd78 O87 2.378 . S
O79 Cd80 2.385 . S
O79 C84 1.255 . S
Cd80 O79 2.385 . S
Cd80 O81 2.317 . S
O81 Cd80 2.317 . S
O81 C82 1.232 . S
C82 O81 1.232 . S
C82 O83 1.218 . S
O83 C82 1.218 . S
C84 O77 1.275 . S
C84 O79 1.255 . S
C85 O86 1.258 . S
C85 O87 1.256 . S
O86 Cd78 2.381 . S
O86 C85 1.258 . S
O87 Cd78 2.378 . S
O87 C85 1.256 . S
O88 Cd89 2.300 1_545 S
O88 C95 1.275 . S
Cd89 O88 2.300 1_565 S
Cd89 O97 2.381 . S
Cd89 O98 2.378 . S
O90 Cd91 2.385 . S
O90 C95 1.255 1_565 S
Cd91 O90 2.385 . S
Cd91 O92 2.317 . S
O92 Cd91 2.317 . S
O92 C93 1.232 1_565 S
C93 O92 1.232 1_545 S
C93 O94 1.218 . S
O94 C93 1.218 . S
C95 O88 1.275 . S
C95 O90 1.255 1_545 S
C96 O97 1.258 . S
C96 O98 1.256 . S
O97 Cd89 2.381 . S
O97 C96 1.258 . S
O98 Cd89 2.378 . S
O98 C96 1.256 . S
O99 Cd100 2.300 . S
O99 C106 1.275 . S
Cd100 O99 2.300 . S
Cd100 O108 2.381 . S
Cd100 O109 2.378 . S
O101 Cd102 2.385 . S
O101 C106 1.255 . S
Cd102 O101 2.385 . S
Cd102 O103 2.317 . S
O103 Cd102 2.317 . S
O103 C104 1.232 . S
C104 O103 1.232 . S
C104 O105 1.218 . S
O105 C104 1.218 . S
C106 O99 1.275 . S
C106 O101 1.255 . S
C107 O108 1.258 . S
C107 O109 1.256 . S
O108 Cd100 2.381 . S
O108 C107 1.258 . S
O109 Cd100 2.378 . S
O109 C107 1.256 . S
O110 Cd111 2.300 . S
O110 C117 1.275 . S
Cd111 O110 2.300 . S
Cd111 O119 2.381 . S
Cd111 O120 2.378 . S
O112 Cd113 2.385 . S
O112 C117 1.255 . S
Cd113 O112 2.385 . S
Cd113 O114 2.317 . S
O114 Cd113 2.317 . S
O114 C115 1.232 . S
C115 O114 1.232 . S
C115 O116 1.218 . S
O116 C115 1.218 . S
C117 O110 1.275 . S
C117 O112 1.255 . S
C118 O119 1.258 . S
C118 O120 1.256 . S
O119 Cd111 2.381 . S
O119 C118 1.258 . S
O120 Cd111 2.378 . S
O120 C118 1.256 . S
O121 Cd122 2.300 . S
O121 C128 1.275 . S
Cd122 O121 2.300 . S
Cd122 O130 2.381 . S
Cd122 O131 2.378 . S
O123 Cd124 2.385 1_565 S
O123 C128 1.255 . S
Cd124 O123 2.385 1_545 S
Cd124 O125 2.317 1_545 S
O125 Cd124 2.317 1_565 S
O125 C126 1.232 . S
C126 O125 1.232 . S
C126 O127 1.208 1_565 S
O127 C126 1.208 1_545 S
C128 O121 1.275 . S
C128 O123 1.255 . S
C129 O130 1.258 . S
C129 O131 1.256 . S
O130 Cd122 2.381 . S
O130 C129 1.258 . S
O131 Cd122 2.378 . S
O131 C129 1.256 . S
O132 Cd133 2.300 1_565 S
O132 C139 1.275 . S
Cd133 O132 2.300 1_545 S
Cd133 O141 2.381 . S
Cd133 O142 2.378 . S
O134 Cd135 2.385 . S
O134 C139 1.255 1_545 S
Cd135 O134 2.385 . S
Cd135 O136 2.317 . S
O136 Cd135 2.317 . S
O136 C137 1.232 1_545 S
C137 O136 1.232 1_565 S
C137 O138 1.218 . S
O138 C137 1.218 . S
C139 O132 1.275 . S
C139 O134 1.255 1_565 S
C140 O141 1.258 . S
C140 O142 1.256 . S
O141 Cd133 2.381 . S
O141 C140 1.258 . S
O142 Cd133 2.378 . S
O142 C140 1.256 . S
O143 Cd144 2.300 . S
O143 C150 1.275 . S
Cd144 O143 2.300 . S
Cd144 O152 2.381 . S
Cd144 O153 2.378 . S
O145 Cd146 2.385 . S
O145 C150 1.255 . S
Cd146 O145 2.385 . S
Cd146 O147 2.317 . S
O147 Cd146 2.317 . S
O147 C148 1.232 . S
C148 O147 1.232 . S
C148 O149 1.218 . S
O149 C148 1.218 . S
C150 O143 1.275 . S
C150 O145 1.255 . S
C151 O152 1.258 . S
C151 O153 1.256 . S
O152 Cd144 2.381 . S
O152 C151 1.258 . S
O153 Cd144 2.378 . S
O153 C151 1.256 . S
O154 Cd155 2.300 . S
O154 C161 1.275 . S
Cd155 O154 2.300 . S
Cd155 O163 2.381 . S
Cd155 O164 2.378 . S
O156 Cd157 2.385 . S
O156 C161 1.255 . S
Cd157 O156 2.385 . S
Cd157 O158 2.317 . S
O158 Cd157 2.317 . S
O158 C159 1.232 . S
C159 O158 1.232 . S
C159 O160 1.218 . S
O160 C159 1.218 . S
C161 O154 1.275 . S
C161 O156 1.255 . S
C162 O163 1.258 . S
C162 O164 1.256 . S
O163 Cd155 2.381 . S
O163 C162 1.258 . S
O164 Cd155 2.378 . S
O164 C162 1.256 . S
O165 Cd166 2.300 . S
O165 C172 1.275 . S
Cd166 O165 2.300 . S
Cd166 O174 2.381 . S
Cd166 O175 2.378 . S
O167 Cd168 2.385 . S
O167 C172 1.255 . S
Cd168 O167 2.385 . S
Cd168 O169 2.317 . S
O169 Cd168 2.317 . S
O169 C170 1.232 . S
C170 O169 1.232 . S
C170 O171 1.218 . S
O171 C170 1.218 . S
C172 O165 1.275 . S
C172 O167 1.255 . S
C173 O174 1.258 . S
C173 O175 1.256 . S
O174 Cd166 2.381 . S
O174 C173 1.258 . S
O175 Cd166 2.378 . S
O175 C173 1.256 . S
O176 Cd177 2.300 . S
O176 C183 1.275 . S
Cd177 O176 2.300 . S
Cd177 O185 2.381 . S
Cd177 O186 2.378 . S
O178 Cd179 2.385 . S
O178 C183 1.255 . S
Cd179 O178 2.385 . S
Cd179 O180 2.317 . S
O180 Cd179 2.317 . S
O180 C181 1.232 . S
C181 O180 1.232 . S
C181 O182 1.218 . S
O182 C181 1.218 . S
C183 O176 1.275 . S
C183 O178 1.255 . S
C184 O185 1.258 . S
C184 O186 1.256 . S
O185 Cd177 2.381 . S
O185 C184 1.258 . S
O186 Cd177 2.378 . S
O186 C184 1.256 . S
O187 Cd188 2.300 . S
O187 C194 1.275 . S
Cd188 O187 2.300 . S
Cd188 O196 2.381 . S
Cd188 O197 2.378 . S
O189 Cd190 2.385 . S
O189 C194 1.255 . S
Cd190 O189 2.385 . S
Cd190 O191 2.317 . S
O191 Cd190 2.317 . S
O191 C192 1.232 . S
C192 O191 1.232 . S
C192 O193 1.218 . S
O193 C192 1.218 . S
C194 O187 1.275 . S
C194 O189 1.255 . S
C195 O196 1.258 . S
C195 O197 1.256 . S
O196 Cd188 2.381 . S
O196 C195 1.258 . S
O197 Cd188 2.378 . S
O197 C195 1.256 . S
O198 Cd199 2.300 . S
O198 C205 1.275 . S
Cd199 O198 2.300 . S
Cd199 O207 2.381 . S
Cd199 O208 2.378 . S
O200 Cd201 2.385 . S
O200 C205 1.255 . S
Cd201 O200 2.385 . S
Cd201 O202 2.317 1_554 S
O202 Cd201 2.317 1_556 S
O202 C203 1.232 . S
C203 O202 1.232 . S
C203 O204 1.218 . S
O204 C203 1.218 . S
C205 O198 1.275 . S
C205 O200 1.255 . S
C206 O207 1.258 . S
C206 O208 1.256 . S
O207 Cd199 2.381 . S
O207 C206 1.258 . S
O208 Cd199 2.378 . S
O208 C206 1.256 . S
O209 Cd210 2.300 . S
O209 C216 1.275 . S
Cd210 O209 2.300 . S
Cd210 O218 2.381 . S
Cd210 O219 2.378 . S
O211 Cd212 2.385 . S
O211 C216 1.255 . S
Cd212 O211 2.385 . S
Cd212 O213 2.317 . S
O213 Cd212 2.317 . S
O213 C214 1.232 . S
C214 O213 1.232 . S
C214 O215 1.218 . S
O215 C214 1.218 . S
C216 O209 1.275 . S
C216 O211 1.255 . S
C217 O218 1.258 . S
C217 O219 1.256 . S
O218 Cd210 2.381 . S
O218 C217 1.258 . S
O219 Cd210 2.378 . S
O219 C217 1.256 . S
O220 Cd221 2.300 . S
O220 C227 1.275 . S
Cd221 O220 2.300 . S
Cd221 O229 2.381 . S
Cd221 O230 2.378 . S
O222 Cd223 2.385 . S
O222 C227 1.255 . S
Cd223 O222 2.385 . S
Cd223 O224 2.317 . S
O224 Cd223 2.317 . S
O224 C225 1.232 . S
C225 O224 1.232 . S
C225 O226 1.218 . S
O226 C225 1.218 . S
C227 O220 1.275 . S
C227 O222 1.255 . S
C228 O229 1.258 . S
C228 O230 1.256 . S
O229 Cd221 2.381 . S
O229 C228 1.258 . S
O230 Cd221 2.378 . S
O230 C228 1.256 . S
O231 Cd232 2.300 . S
O231 C238 1.275 . S
Cd232 O231 2.300 . S
Cd232 O240 2.381 . S
Cd232 O241 2.378 . S
O233 Cd234 2.385 1_556 S
O233 C238 1.255 . S
Cd234 O233 2.385 1_554 S
Cd234 O235 2.317 . S
O235 Cd234 2.317 . S
O235 C236 1.232 . S
C236 O235 1.232 . S
C236 O237 1.218 . S
O237 C236 1.218 . S
C238 O231 1.275 . S
C238 O233 1.255 . S
C239 O240 1.258 . S
C239 O241 1.256 . S
O240 Cd232 2.381 . S
O240 C239 1.258 . S
O241 Cd232 2.378 . S
O241 C239 1.256 . S
O242 Cd243 2.300 . S
O242 C249 1.275 . S
Cd243 O242 2.300 . S
Cd243 O251 2.381 . S
Cd243 O252 2.378 . S
O244 Cd245 2.385 . S
O244 C249 1.255 . S
Cd245 O244 2.385 . S
Cd245 O246 2.317 1_556 S
O246 Cd245 2.317 1_554 S
O246 C247 1.232 . S
C247 O246 1.232 . S
C247 O248 1.218 . S
O248 C247 1.218 . S
C249 O242 1.275 . S
C249 O244 1.255 . S
C250 O251 1.258 . S
C250 O252 1.256 . S
O251 Cd243 2.381 . S
O251 C250 1.258 . S
O252 Cd243 2.378 . S
O252 C250 1.256 . S
O253 Cd254 2.300 1_554 S
O253 C260 1.275 1_554 S
Cd254 O253 2.300 1_556 S
Cd254 O262 2.381 1_556 S
Cd254 O263 2.378 1_556 S
O255 Cd256 2.385 . S
O255 C260 1.255 . S
Cd256 O255 2.385 . S
Cd256 O257 2.317 . S
O257 Cd256 2.317 . S
O257 C258 1.232 . S
C258 O257 1.232 . S
C258 O259 1.218 . S
O259 C258 1.218 . S
C260 O253 1.275 1_556 S
C260 O255 1.255 . S
C261 O262 1.258 . S
C261 O263 1.256 . S
O262 Cd254 2.381 1_554 S
O262 C261 1.258 . S
O263 Cd254 2.378 1_554 S
O263 C261 1.256 . S
C264 C265 1.349 . S
C264 C266 1.327 . S
C264 H289 0.950 . S
C265 C264 1.349 . S
C265 C281 1.351 . S
C266 C264 1.327 . S
C266 C285 1.429 . S
C266 H290 0.950 . S
C267 C284 1.574 . S
C267 C286 1.368 . S
C267 H291 0.949 . S
H268 C272 0.949 . S
C269 C270 1.349 . S
C269 C271 1.327 . S
C269 H292 0.950 . S
C270 C269 1.349 . S
C270 C282 1.349 . S
C271 C269 1.327 . S
C271 C287 1.429 . S
C271 H293 0.950 . S
C272 H268 0.949 . S
C272 C280 1.574 . S
C272 C288 1.368 . S
H273 C281 0.946 1_455 S
H274 C279 0.950 . S
H275 C280 0.949 . S
H276 C282 0.950 . S
H277 C283 0.950 . S
H278 C284 0.949 . S
C279 H274 0.950 . S
C279 C281 1.329 . S
C279 C285 1.429 . S
C280 C272 1.574 . S
C280 H275 0.949 . S
C280 C286 1.368 . S
C281 C265 1.351 . S
C281 H273 0.946 1_655 S
C281 C279 1.329 . S
C282 C270 1.349 . S
C282 H276 0.950 . S
C282 C283 1.327 . S
C283 H277 0.950 . S
C283 C282 1.327 . S
C283 C287 1.429 . S
C284 C267 1.574 . S
C284 H278 0.949 . S
C284 C288 1.368 . S
C285 C266 1.429 . S
C285 C279 1.429 . S
C285 C286 1.523 . S
C286 C267 1.368 . S
C286 C280 1.368 . S
C286 C285 1.523 . S
C287 C271 1.429 . S
C287 C283 1.429 . S
C287 C288 1.523 . S
C288 C272 1.368 . S
C288 C284 1.368 . S
C288 C287 1.523 . S
H289 C264 0.950 . S
H290 C266 0.950 . S
H291 C267 0.949 . S
H292 C269 0.950 . S
H293 C271 0.950 . S
C294 C295 1.349 . S
C294 C296 1.327 . S
C294 H319 0.950 . S
C295 C294 1.349 . S
C295 C311 1.349 . S
C296 C294 1.327 . S
C296 C315 1.429 . S
C296 H320 0.950 . S
C297 C314 1.574 . S
C297 C316 1.368 . S
C297 H321 0.949 . S
H298 C302 0.949 . S
C299 C300 1.349 . S
C299 C301 1.327 . S
C299 H322 0.950 . S
C300 C299 1.349 . S
C300 C312 1.349 . S
C301 C299 1.327 . S
C301 C317 1.429 . S
C301 H323 0.950 . S
C302 H298 0.949 . S
C302 C310 1.574 . S
C302 C318 1.368 . S
H303 C311 0.950 . S
H304 C309 0.950 . S
H305 C310 0.949 . S
H306 C312 0.950 . S
H307 C313 0.950 . S
H308 C314 0.949 . S
C309 H304 0.950 . S
C309 C311 1.327 . S
C309 C315 1.429 . S
C310 C302 1.574 . S
C310 H305 0.949 . S
C310 C316 1.368 . S
C311 C295 1.349 . S
C311 H303 0.950 . S
C311 C309 1.327 . S
C312 C300 1.349 . S
C312 H306 0.950 . S
C312 C313 1.327 . S
C313 H307 0.950 . S
C313 C312 1.327 . S
C313 C317 1.429 . S
C314 C297 1.574 . S
C314 H308 0.949 . S
C314 C318 1.368 . S
C315 C296 1.429 . S
C315 C309 1.429 . S
C315 C316 1.523 . S
C316 C297 1.368 . S
C316 C310 1.368 . S
C316 C315 1.523 . S
C317 C301 1.429 . S
C317 C313 1.429 . S
C317 C318 1.523 . S
C318 C302 1.368 . S
C318 C314 1.368 . S
C318 C317 1.523 . S
H319 C294 0.950 . S
H320 C296 0.950 . S
H321 C297 0.949 . S
H322 C299 0.950 . S
H323 C301 0.950 . S
C324 C325 1.349 . S
C324 C326 1.327 . S
C324 H349 0.950 . S
C325 C324 1.349 . S
C325 C341 1.349 . S
C326 C324 1.327 . S
C326 C345 1.429 . S
C326 H350 0.950 . S
C327 C344 1.574 . S
C327 C346 1.368 . S
C327 H351 0.949 . S
H328 C332 0.950 . S
C329 C330 1.349 . S
C329 C331 1.327 1_655 S
C329 H352 0.925 1_655 S
C330 C329 1.349 . S
C330 C342 1.349 . S
C331 C329 1.327 1_455 S
C331 C347 1.429 1_455 S
C331 H353 0.950 . S
C332 H328 0.950 . S
C332 C340 1.573 1_655 S
C332 C348 1.368 1_655 S
H333 C341 0.950 . S
H334 C339 0.950 . S
H335 C340 0.949 . S
H336 C342 0.950 . S
H337 C343 0.950 . S
H338 C344 0.949 . S
C339 H334 0.950 . S
C339 C341 1.327 . S
C339 C345 1.429 . S
C340 C332 1.573 1_455 S
C340 H335 0.949 . S
C340 C346 1.368 . S
C341 C325 1.349 . S
C341 H333 0.950 . S
C341 C339 1.327 . S
C342 C330 1.349 . S
C342 H336 0.950 . S
C342 C343 1.327 . S
C343 H337 0.950 . S
C343 C342 1.327 . S
C343 C347 1.429 . S
C344 C327 1.574 . S
C344 H338 0.949 . S
C344 C348 1.368 . S
C345 C326 1.429 . S
C345 C339 1.429 . S
C345 C346 1.523 . S
C346 C327 1.368 . S
C346 C340 1.368 . S
C346 C345 1.523 . S
C347 C331 1.429 1_655 S
C347 C343 1.429 . S
C347 C348 1.523 1_655 S
C348 C332 1.368 1_455 S
C348 C344 1.368 . S
C348 C347 1.523 1_455 S
H349 C324 0.950 . S
H350 C326 0.950 . S
H351 C327 0.949 . S
H352 C329 0.925 1_455 S
H353 C331 0.950 . S
C354 C355 1.349 . S
C354 C356 1.327 . S
C354 H379 0.950 . S
C355 C354 1.349 . S
C355 C371 1.349 . S
C356 C354 1.327 . S
C356 C375 1.429 . S
C356 H380 0.950 . S
C357 C374 1.574 . S
C357 C376 1.368 . S
C357 H381 0.949 . S
H358 C362 0.949 . S
C359 C360 1.349 . S
C359 C361 1.327 . S
C359 H382 0.950 . S
C360 C359 1.349 . S
C360 C372 1.349 . S
C361 C359 1.327 . S
C361 C377 1.429 . S
C361 H383 0.950 . S
C362 H358 0.949 . S
C362 C370 1.574 . S
C362 C378 1.368 . S
H363 C371 0.950 . S
H364 C369 0.950 . S
H365 C370 0.949 . S
H366 C372 0.950 . S
H367 C373 0.950 . S
H368 C374 0.949 . S
C369 H364 0.950 . S
C369 C371 1.327 . S
C369 C375 1.429 . S
C370 C362 1.574 . S
C370 H365 0.949 . S
C370 C376 1.368 . S
C371 C355 1.349 . S
C371 H363 0.950 . S
C371 C369 1.327 . S
C372 C360 1.349 . S
C372 H366 0.950 . S
C372 C373 1.327 . S
C373 H367 0.950 . S
C373 C372 1.327 . S
C373 C377 1.429 . S
C374 C357 1.574 . S
C374 H368 0.949 . S
C374 C378 1.368 . S
C375 C356 1.429 . S
C375 C369 1.429 . S
C375 C376 1.523 . S
C376 C357 1.368 . S
C376 C370 1.368 . S
C376 C375 1.523 . S
C377 C361 1.429 . S
C377 C373 1.429 . S
C377 C378 1.523 . S
C378 C362 1.368 . S
C378 C374 1.368 . S
C378 C377 1.523 . S
H379 C354 0.950 . S
H380 C356 0.950 . S
H381 C357 0.949 . S
H382 C359 0.950 . S
H383 C361 0.950 . S
C384 C385 1.349 . S
C384 C386 1.327 . S
C384 H409 0.950 . S
C385 C384 1.349 . S
C385 C401 1.349 1_545 S
C386 C384 1.327 . S
C386 C405 1.429 . S
C386 H410 0.950 . S
C387 C404 1.574 . S
C387 C406 1.368 1_565 S
C387 H411 0.949 . S
H388 C392 0.949 . S
C389 C390 1.349 . S
C389 C391 1.327 . S
C389 H412 0.950 . S
C390 C389 1.349 . S
C390 C402 1.349 1_565 S
C391 C389 1.327 . S
C391 C407 1.429 . S
C391 H413 0.950 . S
C392 H388 0.949 . S
C392 C400 1.574 . S
C392 C408 1.368 1_545 S
H393 C401 0.950 . S
H394 C399 0.950 . S
H395 C400 0.949 . S
H396 C402 0.950 . S
H397 C403 0.950 . S
H398 C404 0.949 . S
C399 H394 0.950 . S
C399 C401 1.327 . S
C399 C405 1.429 1_565 S
C400 C392 1.574 . S
C400 H395 0.949 . S
C400 C406 1.368 . S
C401 C385 1.349 1_565 S
C401 H393 0.950 . S
C401 C399 1.327 . S
C402 C390 1.349 1_545 S
C402 H396 0.950 . S
C402 C403 1.327 . S
C403 H397 0.950 . S
C403 C402 1.327 . S
C403 C407 1.429 1_545 S
C404 C387 1.574 . S
C404 H398 0.949 . S
C404 C408 1.368 . S
C405 C386 1.429 . S
C405 C399 1.429 1_545 S
C405 C406 1.523 . S
C406 C387 1.368 1_545 S
C406 C400 1.368 . S
C406 C405 1.523 . S
C407 C391 1.429 . S
C407 C403 1.429 1_565 S
C407 C408 1.523 . S
C408 C392 1.368 1_565 S
C408 C404 1.368 . S
C408 C407 1.523 . S
H409 C384 0.950 . S
H410 C386 0.950 . S
H411 C387 0.949 . S
H412 C389 0.950 . S
H413 C391 0.950 . S
C414 C415 1.377 . S
C414 C416 1.327 . S
C414 H439 0.950 . S
C415 C414 1.377 . S
C415 C431 1.337 1_655 S
C416 C414 1.327 . S
C416 C435 1.429 . S
C416 H440 0.950 . S
C417 C434 1.574 . S
C417 C436 1.368 . S
C417 H441 0.949 . S
H418 C422 0.949 . S
C419 C420 1.349 . S
C419 C421 1.327 . S
C419 H442 0.950 . S
C420 C419 1.349 . S
C420 C432 1.349 . S
C421 C419 1.327 . S
C421 C437 1.429 . S
C421 H443 0.950 . S
C422 H418 0.949 . S
C422 C430 1.574 . S
C422 C438 1.368 . S
H423 C431 0.950 . S
H424 C429 0.950 1_455 S
H425 C430 0.949 . S
H426 C432 0.950 . S
H427 C433 0.950 . S
H428 C434 0.949 . S
C429 H424 0.950 1_655 S
C429 C431 1.327 1_655 S
C429 C435 1.429 . S
C430 C422 1.574 . S
C430 H425 0.949 . S
C430 C436 1.368 . S
C431 C415 1.337 1_455 S
C431 H423 0.950 . S
C431 C429 1.327 1_455 S
C432 C420 1.349 . S
C432 H426 0.950 . S
C432 C433 1.327 . S
C433 H427 0.950 . S
C433 C432 1.327 . S
C433 C437 1.429 . S
C434 C417 1.574 . S
C434 H428 0.949 . S
C434 C438 1.368 . S
C435 C416 1.429 . S
C435 C429 1.429 . S
C435 C436 1.523 . S
C436 C417 1.368 . S
C436 C430 1.368 . S
C436 C435 1.523 . S
C437 C421 1.429 . S
C437 C433 1.429 . S
C437 C438 1.523 . S
C438 C422 1.368 . S
C438 C434 1.368 . S
C438 C437 1.523 . S
H439 C414 0.950 . S
H440 C416 0.950 . S
H441 C417 0.949 . S
H442 C419 0.950 . S
H443 C421 0.950 . S
C444 C445 1.349 . S
C444 C446 1.327 . S
C444 H469 0.950 . S
C445 C444 1.349 . S
C445 C461 1.349 . S
C446 C444 1.327 . S
C446 C465 1.429 . S
C446 H470 0.950 . S
C447 C464 1.574 1_565 S
C447 C466 1.368 . S
C447 H471 0.949 . S
H448 C452 0.949 . S
C449 C450 1.349 . S
C449 C451 1.327 . S
C449 H472 0.950 . S
C450 C449 1.349 . S
C450 C462 1.349 . S
C451 C449 1.327 . S
C451 C467 1.429 . S
C451 H473 0.950 . S
C452 H448 0.949 . S
C452 C460 1.574 1_545 S
C452 C468 1.368 . S
H453 C461 0.950 . S
H454 C459 0.950 . S
H455 C460 0.949 . S
H456 C462 0.950 . S
H457 C463 0.950 . S
H458 C464 0.949 . S
C459 H454 0.950 . S
C459 C461 1.327 . S
C459 C465 1.429 . S
C460 C452 1.574 1_565 S
C460 H455 0.949 . S
C460 C466 1.368 . S
C461 C445 1.349 . S
C461 H453 0.950 . S
C461 C459 1.327 . S
C462 C450 1.349 . S
C462 H456 0.950 . S
C462 C463 1.327 . S
C463 H457 0.950 . S
C463 C462 1.327 . S
C463 C467 1.429 . S
C464 C447 1.574 1_545 S
C464 H458 0.949 . S
C464 C468 1.368 . S
C465 C446 1.429 . S
C465 C459 1.429 . S
C465 C466 1.523 . S
C466 C447 1.368 . S
C466 C460 1.368 . S
C466 C465 1.523 . S
C467 C451 1.429 . S
C467 C463 1.429 . S
C467 C468 1.523 . S
C468 C452 1.368 . S
C468 C464 1.368 . S
C468 C467 1.523 . S
H469 C444 0.950 . S
H470 C446 0.950 . S
H471 C447 0.949 . S
H472 C449 0.950 . S
H473 C451 0.950 . S
C474 C475 1.349 . S
C474 C476 1.327 . S
C474 H499 0.950 . S
C475 C474 1.349 . S
C475 C491 1.349 . S
C476 C474 1.327 . S
C476 C495 1.429 . S
C476 H500 0.950 . S
C477 C494 1.574 . S
C477 C496 1.368 . S
C477 H501 0.949 . S
H478 C482 0.949 . S
C479 C480 1.349 . S
C479 C481 1.327 . S
C479 H502 0.950 . S
C480 C479 1.349 . S
C480 C492 1.321 1_455 S
C481 C479 1.327 . S
C481 C497 1.429 1_455 S
C481 H503 0.950 . S
C482 H478 0.949 . S
C482 C490 1.574 . S
C482 C498 1.368 . S
H483 C491 0.950 . S
H484 C489 0.950 . S
H485 C490 0.949 . S
H486 C492 0.957 . S
H487 C493 0.950 . S
H488 C494 0.949 . S
C489 H484 0.950 . S
C489 C491 1.327 . S
C489 C495 1.429 . S
C490 C482 1.574 . S
C490 H485 0.949 . S
C490 C496 1.368 . S
C491 C475 1.349 . S
C491 H483 0.950 . S
C491 C489 1.327 . S
C492 C480 1.321 1_655 S
C492 H486 0.957 . S
C492 C493 1.353 . S
C493 H487 0.950 . S
C493 C492 1.353 . S
C493 C497 1.429 . S
C494 C477 1.574 . S
C494 H488 0.949 . S
C494 C498 1.368 . S
C495 C476 1.429 . S
C495 C489 1.429 . S
C495 C496 1.523 . S
C496 C477 1.368 . S
C496 C490 1.368 . S
C496 C495 1.523 . S
C497 C481 1.429 1_655 S
C497 C493 1.429 . S
C497 C498 1.523 . S
C498 C482 1.368 . S
C498 C494 1.368 . S
C498 C497 1.523 . S
H499 C474 0.950 . S
H500 C476 0.950 . S
H501 C477 0.949 . S
H502 C479 0.950 . S
H503 C481 0.950 . S
C504 C505 1.349 . S
C504 C506 1.327 . S
C504 H529 0.950 . S
C505 C504 1.349 . S
C505 C521 1.349 . S
C506 C504 1.327 . S
C506 C525 1.429 1_556 S
C506 H530 0.950 . S
C507 C524 1.574 . S
C507 C526 1.368 . S
C507 H531 0.949 . S
H508 C512 0.949 . S
C509 C510 1.349 . S
C509 C511 1.327 . S
C509 H532 0.950 . S
C510 C509 1.349 . S
C510 C522 1.349 . S
C511 C509 1.327 . S
C511 C527 1.429 . S
C511 H533 0.950 . S
C512 H508 0.949 . S
C512 C520 1.574 . S
C512 C528 1.368 . S
H513 C521 0.950 . S
H514 C519 0.950 . S
H515 C520 0.949 . S
H516 C522 0.950 . S
H517 C523 0.950 . S
H518 C524 0.949 . S
C519 H514 0.950 . S
C519 C521 1.327 1_554 S
C519 C525 1.429 . S
C520 C512 1.574 . S
C520 H515 0.949 . S
C520 C526 1.368 . S
C521 C505 1.349 . S
C521 H513 0.950 . S
C521 C519 1.327 1_556 S
C522 C510 1.349 . S
C522 H516 0.950 . S
C522 C523 1.327 . S
C523 H517 0.950 . S
C523 C522 1.327 . S
C523 C527 1.429 . S
C524 C507 1.574 . S
C524 H518 0.949 . S
C524 C528 1.368 . S
C525 C506 1.429 1_554 S
C525 C519 1.429 . S
C525 C526 1.523 . S
C526 C507 1.368 . S
C526 C520 1.368 . S
C526 C525 1.523 . S
C527 C511 1.429 . S
C527 C523 1.429 . S
C527 C528 1.523 . S
C528 C512 1.368 . S
C528 C524 1.368 . S
C528 C527 1.523 . S
H529 C504 0.950 . S
H530 C506 0.950 . S
H531 C507 0.949 . S
H532 C509 0.950 . S
H533 C511 0.950 . S
C534 C535 1.349 . S
C534 C536 1.327 . S
C534 H559 0.950 . S
C535 C534 1.349 . S
C535 C551 1.349 . S
C536 C534 1.327 . S
C536 C555 1.429 . S
C536 H560 0.950 . S
C537 C554 1.574 . S
C537 C556 1.368 . S
C537 H561 0.949 . S
H538 C542 0.949 . S
C539 C540 1.349 . S
C539 C541 1.327 . S
C539 H562 0.950 . S
C540 C539 1.349 . S
C540 C552 1.349 . S
C541 C539 1.327 . S
C541 C557 1.429 . S
C541 H563 0.950 . S
C542 H538 0.949 . S
C542 C550 1.574 . S
C542 C558 1.368 . S
H543 C551 0.950 . S
H544 C549 0.950 . S
H545 C550 0.949 . S
H546 C552 0.950 . S
H547 C553 0.950 . S
H548 C554 0.949 . S
C549 H544 0.950 . S
C549 C551 1.327 . S
C549 C555 1.429 . S
C550 C542 1.574 . S
C550 H545 0.949 . S
C550 C556 1.368 . S
C551 C535 1.349 . S
C551 H543 0.950 . S
C551 C549 1.327 . S
C552 C540 1.349 . S
C552 H546 0.950 . S
C552 C553 1.327 . S
C553 H547 0.950 . S
C553 C552 1.327 . S
C553 C557 1.429 . S
C554 C537 1.574 . S
C554 H548 0.949 . S
C554 C558 1.368 . S
C555 C536 1.429 . S
C555 C549 1.429 . S
C555 C556 1.523 . S
C556 C537 1.368 . S
C556 C550 1.368 . S
C556 C555 1.523 . S
C557 C541 1.429 . S
C557 C553 1.429 . S
C557 C558 1.523 . S
C558 C542 1.368 . S
C558 C554 1.368 . S
C558 C557 1.523 . S
H559 C534 0.950 . S
H560 C536 0.950 . S
H561 C537 0.949 . S
H562 C539 0.950 . S
H563 C541 0.950 . S
C564 C565 1.349 1_556 S
C564 C566 1.327 . S
C564 H589 0.950 . S
C565 C564 1.349 1_554 S
C565 C581 1.349 . S
C566 C564 1.327 . S
C566 C585 1.429 1_556 S
C566 H590 0.950 . S
C567 C584 1.574 . S
C567 C586 1.368 . S
C567 H591 0.949 . S
H568 C572 0.949 . S
C569 C570 1.349 . S
C569 C571 1.327 . S
C569 H592 0.950 . S
C570 C569 1.349 . S
C570 C582 1.349 1_554 S
C571 C569 1.327 . S
C571 C587 1.429 . S
C571 H593 0.950 . S
C572 H568 0.949 . S
C572 C580 1.574 . S
C572 C588 1.368 1_556 S
H573 C581 0.950 . S
H574 C579 0.950 . S
H575 C580 0.949 . S
H576 C582 0.950 . S
H577 C583 0.950 . S
H578 C584 0.949 . S
C579 H574 0.950 . S
C579 C581 1.327 . S
C579 C585 1.429 . S
C580 C572 1.574 . S
C580 H575 0.949 . S
C580 C586 1.368 1_556 S
C581 C565 1.349 . S
C581 H573 0.950 . S
C581 C579 1.327 . S
C582 C570 1.349 1_556 S
C582 H576 0.950 . S
C582 C583 1.327 . S
C583 H577 0.950 . S
C583 C582 1.327 . S
C583 C587 1.429 1_556 S
C584 C567 1.574 . S
C584 H578 0.949 . S
C584 C588 1.368 . S
C585 C566 1.429 1_554 S
C585 C579 1.429 . S
C585 C586 1.523 . S
C586 C567 1.368 . S
C586 C580 1.368 1_554 S
C586 C585 1.523 . S
C587 C571 1.429 . S
C587 C583 1.429 1_554 S
C587 C588 1.523 . S
C588 C572 1.368 1_554 S
C588 C584 1.368 . S
C588 C587 1.523 . S
H589 C564 0.950 . S
H590 C566 0.950 . S
H591 C567 0.949 . S
H592 C569 0.950 . S
H593 C571 0.950 . S
C594 C595 1.349 . S
C594 C596 1.327 . S
C594 H619 0.950 . S
C595 C594 1.349 . S
C595 C611 1.349 . S
C596 C594 1.327 . S
C596 C615 1.429 . S
C596 H620 0.950 . S
C597 C614 1.574 . S
C597 C616 1.368 . S
C597 H621 0.949 . S
H598 C602 0.949 . S
C599 C600 1.349 . S
C599 C601 1.327 . S
C599 H622 0.980 . S
C600 C599 1.349 . S
C600 C612 1.349 . S
C601 C599 1.327 . S
C601 C617 1.429 . S
C601 H623 0.950 . S
C602 H598 0.949 . S
C602 C610 1.574 . S
C602 C618 1.368 . S
H603 C611 0.950 . S
H604 C609 0.950 . S
H605 C610 0.949 . S
H606 C612 0.950 . S
H607 C613 0.950 . S
H608 C614 0.949 . S
C609 H604 0.950 . S
C609 C611 1.327 . S
C609 C615 1.429 . S
C610 C602 1.574 . S
C610 H605 0.949 . S
C610 C616 1.368 . S
C611 C595 1.349 . S
C611 H603 0.950 . S
C611 C609 1.327 . S
C612 C600 1.349 . S
C612 H606 0.950 . S
C612 C613 1.327 . S
C613 H607 0.950 . S
C613 C612 1.327 . S
C613 C617 1.429 . S
C614 C597 1.574 . S
C614 H608 0.949 . S
C614 C618 1.368 . S
C615 C596 1.429 . S
C615 C609 1.429 . S
C615 C616 1.523 . S
C616 C597 1.368 . S
C616 C610 1.368 . S
C616 C615 1.523 . S
C617 C601 1.429 . S
C617 C613 1.429 . S
C617 C618 1.523 . S
C618 C602 1.368 . S
C618 C614 1.368 . S
C618 C617 1.523 . S
H619 C594 0.950 . S
H620 C596 0.950 . S
H621 C597 0.949 . S
H622 C599 0.980 . S
H623 C601 0.950 . S
C624 C625 1.349 . S
C624 C626 1.327 . S
C624 H649 0.950 . S
C625 C624 1.349 . S
C625 C641 1.349 . S
C626 C624 1.327 . S
C626 C645 1.429 . S
C626 H650 0.950 . S
C627 C644 1.574 . S
C627 C646 1.368 . S
C627 H651 0.949 . S
H628 C632 0.949 . S
C629 C630 1.349 . S
C629 C631 1.327 . S
C629 H652 0.950 . S
C630 C629 1.349 . S
C630 C642 1.349 . S
C631 C629 1.327 . S
C631 C647 1.429 . S
C631 H653 0.950 . S
C632 H628 0.949 . S
C632 C640 1.574 . S
C632 C648 1.368 . S
H633 C641 0.950 . S
H634 C639 0.950 . S
H635 C640 0.949 . S
H636 C642 0.950 . S
H637 C643 0.950 . S
H638 C644 0.949 . S
C639 H634 0.950 . S
C639 C641 1.327 . S
C639 C645 1.429 . S
C640 C632 1.574 . S
C640 H635 0.949 . S
C640 C646 1.368 . S
C641 C625 1.349 . S
C641 H633 0.950 . S
C641 C639 1.327 . S
C642 C630 1.349 . S
C642 H636 0.950 . S
C642 C643 1.327 . S
C643 H637 0.950 . S
C643 C642 1.327 . S
C643 C647 1.429 . S
C644 C627 1.574 . S
C644 H638 0.949 . S
C644 C648 1.368 . S
C645 C626 1.429 . S
C645 C639 1.429 . S
C645 C646 1.523 . S
C646 C627 1.368 . S
C646 C640 1.368 . S
C646 C645 1.523 . S
C647 C631 1.429 . S
C647 C643 1.429 . S
C647 C648 1.523 . S
C648 C632 1.368 . S
C648 C644 1.368 . S
C648 C647 1.523 . S
H649 C624 0.950 . S
H650 C626 0.950 . S
H651 C627 0.949 . S
H652 C629 0.950 . S
H653 C631 0.950 . S
C654 C655 1.349 . S
C654 C656 1.327 . S
C654 H679 0.950 . S
C655 C654 1.349 . S
C655 C671 1.349 . S
C656 C654 1.327 . S
C656 C675 1.429 . S
C656 H680 0.950 . S
C657 C674 1.574 . S
C657 C676 1.368 . S
C657 H681 0.949 . S
H658 C662 0.949 . S
C659 C660 1.349 . S
C659 C661 1.327 . S
C659 H682 0.950 . S
C660 C659 1.349 . S
C660 C672 1.349 . S
C661 C659 1.327 . S
C661 C677 1.429 . S
C661 H683 0.950 . S
C662 H658 0.949 . S
C662 C670 1.574 . S
C662 C678 1.368 . S
H663 C671 0.950 . S
H664 C669 0.950 . S
H665 C670 0.949 . S
H666 C672 0.950 . S
H667 C673 0.950 . S
H668 C674 0.949 . S
C669 H664 0.950 . S
C669 C671 1.327 . S
C669 C675 1.429 . S
C670 C662 1.574 . S
C670 H665 0.949 . S
C670 C676 1.368 . S
C671 C655 1.349 . S
C671 H663 0.950 . S
C671 C669 1.327 . S
C672 C660 1.349 . S
C672 H666 0.950 . S
C672 C673 1.327 . S
C673 H667 0.950 . S
C673 C672 1.327 . S
C673 C677 1.429 . S
C674 C657 1.574 . S
C674 H668 0.949 . S
C674 C678 1.368 . S
C675 C656 1.429 . S
C675 C669 1.429 . S
C675 C676 1.523 . S
C676 C657 1.368 . S
C676 C670 1.368 . S
C676 C675 1.523 . S
C677 C661 1.429 . S
C677 C673 1.429 . S
C677 C678 1.523 . S
C678 C662 1.368 . S
C678 C674 1.368 . S
C678 C677 1.523 . S
H679 C654 0.950 . S
H680 C656 0.950 . S
H681 C657 0.949 . S
H682 C659 0.950 . S
H683 C661 0.950 . S
C684 C685 1.349 . S
C684 C686 1.327 . S
C684 H709 0.950 . S
C685 C684 1.349 . S
C685 C701 1.349 . S
C686 C684 1.327 . S
C686 C705 1.429 . S
C686 H710 0.950 . S
C687 C704 1.574 . S
C687 C706 1.368 . S
C687 H711 0.949 . S
H688 C692 0.949 . S
C689 C690 1.349 . S
C689 C691 1.327 . S
C689 H712 0.950 . S
C690 C689 1.349 . S
C690 C702 1.349 . S
C691 C689 1.327 . S
C691 C707 1.429 . S
C691 H713 0.950 . S
C692 H688 0.949 . S
C692 C700 1.574 . S
C692 C708 1.368 . S
H693 C701 0.950 . S
H694 C699 0.950 . S
H695 C700 0.949 . S
H696 C702 0.950 . S
H697 C703 0.950 . S
H698 C704 0.949 . S
C699 H694 0.950 . S
C699 C701 1.327 . S
C699 C705 1.429 . S
C700 C692 1.574 . S
C700 H695 0.949 . S
C700 C706 1.368 . S
C701 C685 1.349 . S
C701 H693 0.950 . S
C701 C699 1.327 . S
C702 C690 1.349 . S
C702 H696 0.950 . S
C702 C703 1.327 . S
C703 H697 0.950 . S
C703 C702 1.327 . S
C703 C707 1.429 . S
C704 C687 1.574 . S
C704 H698 0.949 . S
C704 C708 1.368 . S
C705 C686 1.429 . S
C705 C699 1.429 . S
C705 C706 1.523 . S
C706 C687 1.368 . S
C706 C700 1.368 . S
C706 C705 1.523 . S
C707 C691 1.429 . S
C707 C703 1.429 . S
C707 C708 1.523 . S
C708 C692 1.368 . S
C708 C704 1.368 . S
C708 C707 1.523 . S
H709 C684 0.950 . S
H710 C686 0.950 . S
H711 C687 0.949 . S
H712 C689 0.950 . S
H713 C691 0.950 . S
C714 C715 1.349 . S
C714 C716 1.327 . S
C714 H739 0.950 . S
C715 C714 1.349 . S
C715 C731 1.349 . S
C716 C714 1.327 . S
C716 C735 1.429 . S
C716 H740 0.950 . S
C717 C734 1.574 . S
C717 C736 1.368 . S
C717 H741 0.949 . S
H718 C722 0.949 . S
C719 C720 1.349 . S
C719 C721 1.327 . S
C719 H742 0.950 . S
C720 C719 1.349 . S
C720 C732 1.349 . S
C721 C719 1.327 . S
C721 C737 1.429 . S
C721 H743 0.950 . S
C722 H718 0.949 . S
C722 C730 1.574 . S
C722 C738 1.368 . S
H723 C731 0.950 . S
H724 C729 0.950 . S
H725 C730 0.949 . S
H726 C732 0.950 . S
H727 C733 0.950 . S
H728 C734 0.949 . S
C729 H724 0.950 . S
C729 C731 1.327 . S
C729 C735 1.429 . S
C730 C722 1.574 . S
C730 H725 0.949 . S
C730 C736 1.368 . S
C731 C715 1.349 . S
C731 H723 0.950 . S
C731 C729 1.327 . S
C732 C720 1.349 . S
C732 H726 0.950 . S
C732 C733 1.327 . S
C733 H727 0.950 . S
C733 C732 1.327 . S
C733 C737 1.429 . S
C734 C717 1.574 . S
C734 H728 0.949 . S
C734 C738 1.368 . S
C735 C716 1.429 . S
C735 C729 1.429 . S
C735 C736 1.523 . S
C736 C717 1.368 . S
C736 C730 1.368 . S
C736 C735 1.523 . S
C737 C721 1.429 . S
C737 C733 1.429 . S
C737 C738 1.523 . S
C738 C722 1.368 . S
C738 C734 1.368 . S
C738 C737 1.523 . S
H739 C714 0.950 . S
H740 C716 0.950 . S
H741 C717 0.949 . S
H742 C719 0.950 . S
H743 C721 0.950 . S
C744 C745 1.349 . S
C744 C746 1.327 . S
C744 H769 0.950 . S
C745 C744 1.349 . S
C745 C761 1.349 . S
C746 C744 1.327 . S
C746 C765 1.429 . S
C746 H770 0.950 . S
C747 C764 1.574 . S
C747 C766 1.368 . S
C747 H771 0.949 . S
H748 C752 0.949 . S
C749 C750 1.349 . S
C749 C751 1.327 . S
C749 H772 0.950 . S
C750 C749 1.349 . S
C750 C762 1.349 . S
C751 C749 1.327 . S
C751 C767 1.429 . S
C751 H773 0.950 . S
C752 H748 0.949 . S
C752 C760 1.574 . S
C752 C768 1.368 . S
H753 C761 0.950 . S
H754 C759 0.950 . S
H755 C760 0.949 . S
H756 C762 0.950 . S
H757 C763 0.950 . S
H758 C764 0.949 . S
C759 H754 0.950 . S
C759 C761 1.327 . S
C759 C765 1.429 . S
C760 C752 1.574 . S
C760 H755 0.949 . S
C760 C766 1.368 . S
C761 C745 1.349 . S
C761 H753 0.950 . S
C761 C759 1.327 . S
C762 C750 1.349 . S
C762 H756 0.950 . S
C762 C763 1.327 . S
C763 H757 0.950 . S
C763 C762 1.327 . S
C763 C767 1.429 . S
C764 C747 1.574 . S
C764 H758 0.949 . S
C764 C768 1.368 . S
C765 C746 1.429 . S
C765 C759 1.429 . S
C765 C766 1.523 . S
C766 C747 1.368 . S
C766 C760 1.368 . S
C766 C765 1.523 . S
C767 C751 1.429 . S
C767 C763 1.429 . S
C767 C768 1.523 . S
C768 C752 1.368 . S
C768 C764 1.368 . S
C768 C767 1.523 . S
H769 C744 0.950 . S
H770 C746 0.950 . S
H771 C747 0.949 . S
H772 C749 0.950 . S
H773 C751 0.950 . S
C774 C775 1.349 . S
C774 C776 1.327 . S
C774 H799 0.950 . S
C775 C774 1.349 . S
C775 C791 1.349 . S
C776 C774 1.327 . S
C776 C795 1.429 . S
C776 H800 0.950 . S
C777 C794 1.574 . S
C777 C796 1.368 . S
C777 H801 0.949 . S
H778 C782 0.949 . S
C779 C780 1.349 . S
C779 C781 1.327 . S
C779 H802 0.950 . S
C780 C779 1.349 . S
C780 C792 1.349 . S
C781 C779 1.327 . S
C781 C797 1.429 . S
C781 H803 0.950 . S
C782 H778 0.949 . S
C782 C790 1.574 . S
C782 C798 1.368 . S
H783 C791 0.950 . S
H784 C789 0.950 . S
H785 C790 0.949 . S
H786 C792 0.950 . S
H787 C793 0.950 . S
H788 C794 0.949 . S
C789 H784 0.950 . S
C789 C791 1.327 . S
C789 C795 1.429 . S
C790 C782 1.574 . S
C790 H785 0.949 . S
C790 C796 1.368 . S
C791 C775 1.349 . S
C791 H783 0.950 . S
C791 C789 1.327 . S
C792 C780 1.349 . S
C792 H786 0.950 . S
C792 C793 1.327 . S
C793 H787 0.950 . S
C793 C792 1.327 . S
C793 C797 1.429 . S
C794 C777 1.574 . S
C794 H788 0.949 . S
C794 C798 1.368 . S
C795 C776 1.429 . S
C795 C789 1.429 . S
C795 C796 1.523 . S
C796 C777 1.368 . S
C796 C790 1.368 . S
C796 C795 1.523 . S
C797 C781 1.429 . S
C797 C793 1.429 . S
C797 C798 1.523 . S
C798 C782 1.368 . S
C798 C794 1.368 . S
C798 C797 1.523 . S
H799 C774 0.950 . S
H800 C776 0.950 . S
H801 C777 0.949 . S
H802 C779 0.950 . S
H803 C781 0.950 . S
C804 C805 1.349 . S
C804 C806 1.327 . S
C804 H829 0.950 . S
C805 C804 1.349 . S
C805 C821 1.349 . S
C806 C804 1.327 . S
C806 C825 1.429 . S
C806 H830 0.950 . S
C807 C824 1.574 . S
C807 C826 1.368 . S
C807 H831 0.949 . S
H808 C812 0.949 . S
C809 C810 1.349 . S
C809 C811 1.327 . S
C809 H832 0.950 . S
C810 C809 1.349 . S
C810 C822 1.349 . S
C811 C809 1.327 . S
C811 C827 1.429 . S
C811 H833 0.950 . S
C812 H808 0.949 . S
C812 C820 1.574 . S
C812 C828 1.368 . S
H813 C821 0.950 . S
H814 C819 0.950 . S
H815 C820 0.949 . S
H816 C822 0.950 . S
H817 C823 0.950 . S
H818 C824 0.949 . S
C819 H814 0.950 . S
C819 C821 1.327 . S
C819 C825 1.429 . S
C820 C812 1.574 . S
C820 H815 0.949 . S
C820 C826 1.368 . S
C821 C805 1.349 . S
C821 H813 0.950 . S
C821 C819 1.327 . S
C822 C810 1.349 . S
C822 H816 0.950 . S
C822 C823 1.327 . S
C823 H817 0.950 . S
C823 C822 1.327 . S
C823 C827 1.429 . S
C824 C807 1.574 . S
C824 H818 0.949 . S
C824 C828 1.368 . S
C825 C806 1.429 . S
C825 C819 1.429 . S
C825 C826 1.523 . S
C826 C807 1.368 . S
C826 C820 1.368 . S
C826 C825 1.523 . S
C827 C811 1.429 . S
C827 C823 1.429 . S
C827 C828 1.523 . S
C828 C812 1.368 . S
C828 C824 1.368 . S
C828 C827 1.523 . S
H829 C804 0.950 . S
H830 C806 0.950 . S
H831 C807 0.949 . S
H832 C809 0.950 . S
H833 C811 0.950 . S
C834 C835 1.349 . S
C834 C836 1.327 . S
C834 H859 0.950 . S
C835 C834 1.349 . S
C835 C851 1.349 . S
C836 C834 1.327 . S
C836 C855 1.429 . S
C836 H860 0.950 . S
C837 C854 1.574 . S
C837 C856 1.368 . S
C837 H861 0.949 . S
H838 C842 0.949 . S
C839 C840 1.349 . S
C839 C841 1.327 . S
C839 H862 0.950 . S
C840 C839 1.349 . S
C840 C852 1.349 . S
C841 C839 1.327 . S
C841 C857 1.429 . S
C841 H863 0.950 . S
C842 H838 0.949 . S
C842 C850 1.574 . S
C842 C858 1.368 . S
H843 C851 0.950 . S
H844 C849 0.950 . S
H845 C850 0.949 . S
H846 C852 0.950 . S
H847 C853 0.950 . S
H848 C854 0.949 . S
C849 H844 0.950 . S
C849 C851 1.327 . S
C849 C855 1.429 . S
C850 C842 1.574 . S
C850 H845 0.949 . S
C850 C856 1.368 . S
C851 C835 1.349 . S
C851 H843 0.950 . S
C851 C849 1.327 . S
C852 C840 1.349 . S
C852 H846 0.950 . S
C852 C853 1.327 . S
C853 H847 0.950 . S
C853 C852 1.327 . S
C853 C857 1.429 . S
C854 C837 1.574 . S
C854 H848 0.949 . S
C854 C858 1.368 . S
C855 C836 1.429 . S
C855 C849 1.429 . S
C855 C856 1.523 . S
C856 C837 1.368 . S
C856 C850 1.368 . S
C856 C855 1.523 . S
C857 C841 1.429 . S
C857 C853 1.429 . S
C857 C858 1.523 . S
C858 C842 1.368 . S
C858 C854 1.368 . S
C858 C857 1.523 . S
H859 C834 0.950 . S
H860 C836 0.950 . S
H861 C837 0.949 . S
H862 C839 0.950 . S
H863 C841 0.950 . S
C864 C865 1.349 . S
C864 C866 1.327 . S
C864 H889 0.950 1_545 S
C865 C864 1.349 . S
C865 C881 1.349 . S
C866 C864 1.327 . S
C866 C885 1.429 . S
C866 H890 0.950 1_545 S
C867 C884 1.574 . S
C867 C886 1.368 . S
C867 H891 0.949 . S
H868 C872 0.949 1_565 S
C869 C870 1.349 . S
C869 C871 1.327 . S
C869 H892 0.950 . S
C870 C869 1.349 . S
C870 C882 1.349 . S
C871 C869 1.327 . S
C871 C887 1.429 . S
C871 H893 0.950 . S
C872 H868 0.949 1_545 S
C872 C880 1.574 . S
C872 C888 1.368 . S
H873 C881 0.950 . S
H874 C879 0.950 . S
H875 C880 0.949 1_565 S
H876 C882 0.950 1_565 S
H877 C883 0.950 1_565 S
H878 C884 0.949 . S
C879 H874 0.950 . S
C879 C881 1.327 . S
C879 C885 1.429 . S
C880 C872 1.574 . S
C880 H875 0.949 1_545 S
C880 C886 1.368 . S
C881 C865 1.349 . S
C881 H873 0.950 . S
C881 C879 1.327 . S
C882 C870 1.349 . S
C882 H876 0.950 1_545 S
C882 C883 1.327 . S
C883 H877 0.950 1_545 S
C883 C882 1.327 . S
C883 C887 1.429 . S
C884 C867 1.574 . S
C884 H878 0.949 . S
C884 C888 1.368 . S
C885 C866 1.429 . S
C885 C879 1.429 . S
C885 C886 1.523 . S
C886 C867 1.368 . S
C886 C880 1.368 . S
C886 C885 1.523 . S
C887 C871 1.429 . S
C887 C883 1.429 . S
C887 C888 1.523 . S
C888 C872 1.368 . S
C888 C884 1.368 . S
C888 C887 1.523 . S
H889 C864 0.950 1_565 S
H890 C866 0.950 1_565 S
H891 C867 0.949 . S
H892 C869 0.950 . S
H893 C871 0.950 . S
C894 C895 1.349 . S
C894 C896 1.327 . S
C894 H919 0.950 . S
C895 C894 1.349 . S
C895 C911 1.349 . S
C896 C894 1.327 . S
C896 C915 1.429 . S
C896 H920 0.950 . S
C897 C914 1.574 . S
C897 C916 1.368 . S
C897 H921 0.949 . S
H898 C902 0.949 . S
C899 C900 1.349 . S
C899 C901 1.327 . S
C899 H922 0.950 . S
C900 C899 1.349 . S
C900 C912 1.349 . S
C901 C899 1.327 . S
C901 C917 1.429 . S
C901 H923 0.950 . S
C902 H898 0.949 . S
C902 C910 1.574 . S
C902 C918 1.368 . S
H903 C911 0.950 . S
H904 C909 0.950 . S
H905 C910 0.949 . S
H906 C912 0.950 . S
H907 C913 0.950 . S
H908 C914 0.949 . S
C909 H904 0.950 . S
C909 C911 1.327 . S
C909 C915 1.429 . S
C910 C902 1.574 . S
C910 H905 0.949 . S
C910 C916 1.368 . S
C911 C895 1.349 . S
C911 H903 0.950 . S
C911 C909 1.327 . S
C912 C900 1.349 . S
C912 H906 0.950 . S
C912 C913 1.327 . S
C913 H907 0.950 . S
C913 C912 1.327 . S
C913 C917 1.429 . S
C914 C897 1.574 . S
C914 H908 0.949 . S
C914 C918 1.368 . S
C915 C896 1.429 . S
C915 C909 1.429 . S
C915 C916 1.523 . S
C916 C897 1.368 . S
C916 C910 1.368 . S
C916 C915 1.523 . S
C917 C901 1.429 . S
C917 C913 1.429 . S
C917 C918 1.523 . S
C918 C902 1.368 . S
C918 C914 1.368 . S
C918 C917 1.523 . S
H919 C894 0.950 . S
H920 C896 0.950 . S
H921 C897 0.949 . S
H922 C899 0.950 . S
H923 C901 0.950 . S
C924 C925 1.349 . S
C924 C926 1.327 . S
C924 H949 0.950 . S
C925 C924 1.349 . S
C925 C941 1.349 . S
C926 C924 1.327 . S
C926 C945 1.429 . S
C926 H950 0.950 . S
C927 C944 1.574 . S
C927 C946 1.368 . S
C927 H951 0.949 . S
H928 C932 0.949 . S
C929 C930 1.349 . S
C929 C931 1.327 . S
C929 H952 0.950 . S
C930 C929 1.349 . S
C930 C942 1.349 . S
C931 C929 1.327 . S
C931 C947 1.429 . S
C931 H953 0.950 . S
C932 H928 0.949 . S
C932 C940 1.574 . S
C932 C948 1.368 . S
H933 C941 0.950 . S
H934 C939 0.950 . S
H935 C940 0.949 . S
H936 C942 0.950 . S
H937 C943 0.950 . S
H938 C944 0.949 . S
C939 H934 0.950 . S
C939 C941 1.327 . S
C939 C945 1.429 . S
C940 C932 1.574 . S
C940 H935 0.949 . S
C940 C946 1.368 . S
C941 C925 1.349 . S
C941 H933 0.950 . S
C941 C939 1.327 . S
C942 C930 1.349 . S
C942 H936 0.950 . S
C942 C943 1.327 . S
C943 H937 0.950 . S
C943 C942 1.327 . S
C943 C947 1.429 . S
C944 C927 1.574 . S
C944 H938 0.949 . S
C944 C948 1.368 . S
C945 C926 1.429 . S
C945 C939 1.429 . S
C945 C946 1.523 . S
C946 C927 1.368 . S
C946 C940 1.368 . S
C946 C945 1.523 . S
C947 C931 1.429 . S
C947 C943 1.429 . S
C947 C948 1.523 . S
C948 C932 1.368 . S
C948 C944 1.368 . S
C948 C947 1.523 . S
H949 C924 0.950 . S
H950 C926 0.950 . S
H951 C927 0.949 . S
H952 C929 0.950 . S
H953 C931 0.950 . S
C954 C955 1.349 . S
C954 C956 1.329 . S
C954 H979 0.950 1_565 S
C955 C954 1.349 . S
C955 C971 1.349 . S
C956 C954 1.329 . S
C956 C975 1.447 . S
C956 H980 0.930 1_565 S
C957 C974 1.574 . S
C957 C976 1.368 . S
C957 H981 0.949 . S
H958 C962 0.949 . S
C959 C960 1.349 . S
C959 C961 1.327 . S
C959 H982 0.950 . S
C960 C959 1.349 . S
C960 C972 1.349 1_565 S
C961 C959 1.327 . S
C961 C977 1.429 . S
C961 H983 0.950 . S
C962 H958 0.949 . S
C962 C970 1.574 . S
C962 C978 1.368 1_545 S
H963 C971 0.950 . S
H964 C969 0.950 . S
H965 C970 0.949 . S
H966 C972 0.950 . S
H967 C973 0.950 . S
H968 C974 0.949 . S
C969 H964 0.950 . S
C969 C971 1.327 . S
C969 C975 1.429 . S
C970 C962 1.574 . S
C970 H965 0.949 . S
C970 C976 1.368 1_545 S
C971 C955 1.349 . S
C971 H963 0.950 . S
C971 C969 1.327 . S
C972 C960 1.349 1_545 S
C972 H966 0.950 . S
C972 C973 1.327 . S
C973 H967 0.950 . S
C973 C972 1.327 . S
C973 C977 1.429 1_545 S
C974 C957 1.574 . S
C974 H968 0.949 . S
C974 C978 1.368 . S
C975 C956 1.447 . S
C975 C969 1.429 . S
C975 C976 1.523 . S
C976 C957 1.368 . S
C976 C970 1.368 1_565 S
C976 C975 1.523 . S
C977 C961 1.429 . S
C977 C973 1.429 1_565 S
C977 C978 1.523 . S
C978 C962 1.368 1_565 S
C978 C974 1.368 . S
C978 C977 1.523 . S
H979 C954 0.950 1_545 S
H980 C956 0.930 1_545 S
H981 C957 0.949 . S
H982 C959 0.950 . S
H983 C961 0.950 . S
C984 C985 1.349 . S
C984 C986 1.327 . S
C984 H1009 0.950 . S
C985 C984 1.349 . S
C985 C1001 1.349 . S
C986 C984 1.327 . S
C986 C1005 1.429 . S
C986 H1010 0.950 . S
C987 C1004 1.574 . S
C987 C1006 1.368 . S
C987 H1011 0.949 . S
H988 C992 0.949 . S
C989 C990 1.349 . S
C989 C991 1.327 . S
C989 H1012 0.950 . S
C990 C989 1.349 . S
C990 C1002 1.349 . S
C991 C989 1.327 . S
C991 C1007 1.429 . S
C991 H1013 0.950 . S
C992 H988 0.949 . S
C992 C1000 1.574 . S
C992 C1008 1.368 . S
H993 C1001 0.950 . S
H994 C999 0.950 . S
H995 C1000 0.949 . S
H996 C1002 0.950 . S
H997 C1003 0.950 . S
H998 C1004 0.949 . S
C999 H994 0.950 . S
C999 C1001 1.327 . S
C999 C1005 1.429 . S
C1000 C992 1.574 . S
C1000 H995 0.949 . S
C1000 C1006 1.368 . S
C1001 C985 1.349 . S
C1001 H993 0.950 . S
C1001 C999 1.327 . S
C1002 C990 1.349 . S
C1002 H996 0.950 . S
C1002 C1003 1.327 . S
C1003 H997 0.950 . S
C1003 C1002 1.327 . S
C1003 C1007 1.429 . S
C1004 C987 1.574 . S
C1004 H998 0.949 . S
C1004 C1008 1.368 . S
C1005 C986 1.429 . S
C1005 C999 1.429 . S
C1005 C1006 1.523 . S
C1006 C987 1.368 . S
C1006 C1000 1.368 . S
C1006 C1005 1.523 . S
C1007 C991 1.429 . S
C1007 C1003 1.429 . S
C1007 C1008 1.523 . S
C1008 C992 1.368 . S
C1008 C1004 1.368 . S
C1008 C1007 1.523 . S
H1009 C984 0.950 . S
H1010 C986 0.950 . S
H1011 C987 0.949 . S
H1012 C989 0.950 . S
H1013 C991 0.950 . S
C1014 C1015 1.349 . S
C1014 C1016 1.327 . S
C1014 H1039 0.950 . S
C1015 C1014 1.349 . S
C1015 C1031 1.349 . S
C1016 C1014 1.327 . S
C1016 C1035 1.429 . S
C1016 H1040 0.950 . S
C1017 C1034 1.574 . S
C1017 C1036 1.368 1_455 S
C1017 H1041 0.949 . S
H1018 C1022 0.973 . S
C1019 C1020 1.349 . S
C1019 C1021 1.327 . S
C1019 H1042 0.950 . S
C1020 C1019 1.349 . S
C1020 C1032 1.349 . S
C1021 C1019 1.327 . S
C1021 C1037 1.429 . S
C1021 H1043 0.950 . S
C1022 H1018 0.973 . S
C1022 C1030 1.608 . S
C1022 C1038 1.311 1_655 S
H1023 C1031 0.950 . S
H1024 C1029 0.950 1_455 S
H1025 C1030 0.949 . S
H1026 C1032 0.950 . S
H1027 C1033 0.950 . S
H1028 C1034 0.949 . S
C1029 H1024 0.950 1_655 S
C1029 C1031 1.327 . S
C1029 C1035 1.429 . S
C1030 C1022 1.608 . S
C1030 H1025 0.949 . S
C1030 C1036 1.368 . S
C1031 C1015 1.349 . S
C1031 H1023 0.950 . S
C1031 C1029 1.327 . S
C1032 C1020 1.349 . S
C1032 H1026 0.950 . S
C1032 C1033 1.327 . S
C1033 H1027 0.950 . S
C1033 C1032 1.327 . S
C1033 C1037 1.429 . S
C1034 C1017 1.574 . S
C1034 H1028 0.949 . S
C1034 C1038 1.368 . S
C1035 C1016 1.429 . S
C1035 C1029 1.429 . S
C1035 C1036 1.523 . S
C1036 C1017 1.368 1_655 S
C1036 C1030 1.368 . S
C1036 C1035 1.523 . S
C1037 C1021 1.429 . S
C1037 C1033 1.429 . S
C1037 C1038 1.523 . S
C1038 C1022 1.311 1_455 S
C1038 C1034 1.368 . S
C1038 C1037 1.523 . S
H1039 C1014 0.950 . S
H1040 C1016 0.950 . S
H1041 C1017 0.949 . S
H1042 C1019 0.950 . S
H1043 C1021 0.950 . S
C1044 C1045 1.349 . S
C1044 C1046 1.327 . S
C1044 H1069 0.950 . S
C1045 C1044 1.349 . S
C1045 C1061 1.349 . S
C1046 C1044 1.327 . S
C1046 C1065 1.429 . S
C1046 H1070 0.950 . S
C1047 C1064 1.574 . S
C1047 C1066 1.368 . S
C1047 H1071 0.949 . S
H1048 C1052 0.949 . S
C1049 C1050 1.349 . S
C1049 C1051 1.327 . S
C1049 H1072 0.950 . S
C1050 C1049 1.349 . S
C1050 C1062 1.349 . S
C1051 C1049 1.327 . S
C1051 C1067 1.429 . S
C1051 H1073 0.950 . S
C1052 H1048 0.949 . S
C1052 C1060 1.574 . S
C1052 C1068 1.368 . S
H1053 C1061 0.950 . S
H1054 C1059 0.950 . S
H1055 C1060 0.949 . S
H1056 C1062 0.950 . S
H1057 C1063 0.950 . S
H1058 C1064 0.949 . S
C1059 H1054 0.950 . S
C1059 C1061 1.327 . S
C1059 C1065 1.429 . S
C1060 C1052 1.574 . S
C1060 H1055 0.949 . S
C1060 C1066 1.368 . S
C1061 C1045 1.349 . S
C1061 H1053 0.950 . S
C1061 C1059 1.327 . S
C1062 C1050 1.349 . S
C1062 H1056 0.950 . S
C1062 C1063 1.327 . S
C1063 H1057 0.950 . S
C1063 C1062 1.327 . S
C1063 C1067 1.429 . S
C1064 C1047 1.574 . S
C1064 H1058 0.949 . S
C1064 C1068 1.368 . S
C1065 C1046 1.429 . S
C1065 C1059 1.429 . S
C1065 C1066 1.523 . S
C1066 C1047 1.368 . S
C1066 C1060 1.368 . S
C1066 C1065 1.523 . S
C1067 C1051 1.429 . S
C1067 C1063 1.429 . S
C1067 C1068 1.523 . S
C1068 C1052 1.368 . S
C1068 C1064 1.368 . S
C1068 C1067 1.523 . S
H1069 C1044 0.950 . S
H1070 C1046 0.950 . S
H1071 C1047 0.949 . S
H1072 C1049 0.950 . S
H1073 C1051 0.950 . S
C1074 C1075 1.349 1_655 S
C1074 C1076 1.327 . S
C1074 H1099 0.950 . S
C1075 C1074 1.349 1_455 S
C1075 C1091 1.349 . S
C1076 C1074 1.327 . S
C1076 C1095 1.429 . S
C1076 H1100 0.950 . S
C1077 C1094 1.574 1_455 S
C1077 C1096 1.368 1_455 S
C1077 H1101 0.949 . S
H1078 C1082 0.949 . S
C1079 C1080 1.349 . S
C1079 C1081 1.327 . S
C1079 H1102 0.950 . S
C1080 C1079 1.349 . S
C1080 C1092 1.349 . S
C1081 C1079 1.327 . S
C1081 C1097 1.429 . S
C1081 H1103 0.950 . S
C1082 H1078 0.949 . S
C1082 C1090 1.574 . S
C1082 C1098 1.368 . S
H1083 C1091 0.950 . S
H1084 C1089 0.950 . S
H1085 C1090 0.949 . S
H1086 C1092 0.950 . S
H1087 C1093 0.950 . S
H1088 C1094 0.949 1_455 S
C1089 H1084 0.950 . S
C1089 C1091 1.327 . S
C1089 C1095 1.429 1_455 S
C1090 C1082 1.574 . S
C1090 H1085 0.949 . S
C1090 C1096 1.368 . S
C1091 C1075 1.349 . S
C1091 H1083 0.950 . S
C1091 C1089 1.327 . S
C1092 C1080 1.349 . S
C1092 H1086 0.950 . S
C1092 C1093 1.327 . S
C1093 H1087 0.950 . S
C1093 C1092 1.327 . S
C1093 C1097 1.429 . S
C1094 C1077 1.574 1_655 S
C1094 H1088 0.949 1_655 S
C1094 C1098 1.368 . S
C1095 C1076 1.429 . S
C1095 C1089 1.429 1_655 S
C1095 C1096 1.523 . S
C1096 C1077 1.368 1_655 S
C1096 C1090 1.368 . S
C1096 C1095 1.523 . S
C1097 C1081 1.429 . S
C1097 C1093 1.429 . S
C1097 C1098 1.523 . S
C1098 C1082 1.368 . S
C1098 C1094 1.368 . S
C1098 C1097 1.523 . S
H1099 C1074 0.950 . S
H1100 C1076 0.950 . S
H1101 C1077 0.949 . S
H1102 C1079 0.950 . S
H1103 C1081 0.950 . S
C1104 C1105 1.349 . S
C1104 C1106 1.327 . S
C1104 H1129 0.950 . S
C1105 C1104 1.349 . S
C1105 C1121 1.349 . S
C1106 C1104 1.327 . S
C1106 C1125 1.429 . S
C1106 H1130 0.950 . S
C1107 C1124 1.574 . S
C1107 C1126 1.368 . S
C1107 H1131 0.949 . S
H1108 C1112 0.949 . S
C1109 C1110 1.349 . S
C1109 C1111 1.327 . S
C1109 H1132 0.950 . S
C1110 C1109 1.349 . S
C1110 C1122 1.349 . S
C1111 C1109 1.327 . S
C1111 C1127 1.429 . S
C1111 H1133 0.950 . S
C1112 H1108 0.949 . S
C1112 C1120 1.574 . S
C1112 C1128 1.368 . S
H1113 C1121 0.950 . S
H1114 C1119 0.950 . S
H1115 C1120 0.949 . S
H1116 C1122 0.950 . S
H1117 C1123 0.950 . S
H1118 C1124 0.949 . S
C1119 H1114 0.950 . S
C1119 C1121 1.327 . S
C1119 C1125 1.429 . S
C1120 C1112 1.574 . S
C1120 H1115 0.949 . S
C1120 C1126 1.368 . S
C1121 C1105 1.349 . S
C1121 H1113 0.950 . S
C1121 C1119 1.327 . S
C1122 C1110 1.349 . S
C1122 H1116 0.950 . S
C1122 C1123 1.327 . S
C1123 H1117 0.950 . S
C1123 C1122 1.327 . S
C1123 C1127 1.429 . S
C1124 C1107 1.574 . S
C1124 H1118 0.949 . S
C1124 C1128 1.368 . S
C1125 C1106 1.429 . S
C1125 C1119 1.429 . S
C1125 C1126 1.523 . S
C1126 C1107 1.368 . S
C1126 C1120 1.368 . S
C1126 C1125 1.523 . S
C1127 C1111 1.429 . S
C1127 C1123 1.429 . S
C1127 C1128 1.523 . S
C1128 C1112 1.368 . S
C1128 C1124 1.368 . S
C1128 C1127 1.523 . S
H1129 C1104 0.950 . S
H1130 C1106 0.950 . S
H1131 C1107 0.949 . S
H1132 C1109 0.950 . S
H1133 C1111 0.950 . S
C1134 C1135 1.349 . S
C1134 C1136 1.327 . S
C1134 H1159 0.950 . S
C1135 C1134 1.349 . S
C1135 C1151 1.351 1_655 S
C1136 C1134 1.327 . S
C1136 C1155 1.429 . S
C1136 H1160 0.950 . S
C1137 C1154 1.574 . S
C1137 C1156 1.368 . S
C1137 H1161 0.949 . S
H1138 C1142 0.949 . S
C1139 C1140 1.349 . S
C1139 C1141 1.327 . S
C1139 H1162 0.950 . S
C1140 C1139 1.349 . S
C1140 C1152 1.349 . S
C1141 C1139 1.327 . S
C1141 C1157 1.429 . S
C1141 H1163 0.950 . S
C1142 H1138 0.949 . S
C1142 C1150 1.574 . S
C1142 C1158 1.368 . S
H1143 C1151 0.945 . S
H1144 C1149 0.950 . S
H1145 C1150 0.949 . S
H1146 C1152 0.950 . S
H1147 C1153 0.950 . S
H1148 C1154 0.949 . S
C1149 H1144 0.950 . S
C1149 C1151 1.330 1_655 S
C1149 C1155 1.429 . S
C1150 C1142 1.574 . S
C1150 H1145 0.949 . S
C1150 C1156 1.368 . S
C1151 C1135 1.351 1_455 S
C1151 H1143 0.945 . S
C1151 C1149 1.330 1_455 S
C1152 C1140 1.349 . S
C1152 H1146 0.950 . S
C1152 C1153 1.327 . S
C1153 H1147 0.950 . S
C1153 C1152 1.327 . S
C1153 C1157 1.429 . S
C1154 C1137 1.574 . S
C1154 H1148 0.949 . S
C1154 C1158 1.368 . S
C1155 C1136 1.429 . S
C1155 C1149 1.429 . S
C1155 C1156 1.523 . S
C1156 C1137 1.368 . S
C1156 C1150 1.368 . S
C1156 C1155 1.523 . S
C1157 C1141 1.429 . S
C1157 C1153 1.429 . S
C1157 C1158 1.523 . S
C1158 C1142 1.368 . S
C1158 C1154 1.368 . S
C1158 C1157 1.523 . S
H1159 C1134 0.950 . S
H1160 C1136 0.950 . S
H1161 C1137 0.949 . S
H1162 C1139 0.950 . S
H1163 C1141 0.950 . S
C1164 C1165 1.349 . S
C1164 C1166 1.327 . S
C1164 H1189 0.950 . S
C1165 C1164 1.349 . S
C1165 C1181 1.349 . S
C1166 C1164 1.327 . S
C1166 C1185 1.429 . S
C1166 H1190 0.950 . S
C1167 C1184 1.574 . S
C1167 C1186 1.368 . S
C1167 H1191 0.949 . S
H1168 C1172 0.949 . S
C1169 C1170 1.349 . S
C1169 C1171 1.327 . S
C1169 H1192 0.950 . S
C1170 C1169 1.349 . S
C1170 C1182 1.349 . S
C1171 C1169 1.327 . S
C1171 C1187 1.429 . S
C1171 H1193 0.950 . S
C1172 H1168 0.949 . S
C1172 C1180 1.574 . S
C1172 C1188 1.368 . S
H1173 C1181 0.950 . S
H1174 C1179 0.950 . S
H1175 C1180 0.949 . S
H1176 C1182 0.950 . S
H1177 C1183 0.950 . S
H1178 C1184 0.949 . S
C1179 H1174 0.950 . S
C1179 C1181 1.327 . S
C1179 C1185 1.429 . S
C1180 C1172 1.574 . S
C1180 H1175 0.949 . S
C1180 C1186 1.368 . S
C1181 C1165 1.349 . S
C1181 H1173 0.950 . S
C1181 C1179 1.327 . S
C1182 C1170 1.349 . S
C1182 H1176 0.950 . S
C1182 C1183 1.327 . S
C1183 H1177 0.950 . S
C1183 C1182 1.327 . S
C1183 C1187 1.429 . S
C1184 C1167 1.574 . S
C1184 H1178 0.949 . S
C1184 C1188 1.368 . S
C1185 C1166 1.429 . S
C1185 C1179 1.429 . S
C1185 C1186 1.523 . S
C1186 C1167 1.368 . S
C1186 C1180 1.368 . S
C1186 C1185 1.523 . S
C1187 C1171 1.429 . S
C1187 C1183 1.429 . S
C1187 C1188 1.523 . S
C1188 C1172 1.368 . S
C1188 C1184 1.368 . S
C1188 C1187 1.523 . S
H1189 C1164 0.950 . S
H1190 C1166 0.950 . S
H1191 C1167 0.949 . S
H1192 C1169 0.950 . S
H1193 C1171 0.950 . S
C1194 C1195 1.349 . S
C1194 C1196 1.327 . S
C1194 H1219 0.950 . S
C1195 C1194 1.349 . S
C1195 C1211 1.349 . S
C1196 C1194 1.327 . S
C1196 C1215 1.429 . S
C1196 H1220 0.950 . S
C1197 C1214 1.574 . S
C1197 C1216 1.368 . S
C1197 H1221 0.949 . S
H1198 C1202 0.949 . S
C1199 C1200 1.349 . S
C1199 C1201 1.327 . S
C1199 H1222 0.950 . S
C1200 C1199 1.349 . S
C1200 C1212 1.349 . S
C1201 C1199 1.327 . S
C1201 C1217 1.429 . S
C1201 H1223 0.950 . S
C1202 H1198 0.949 . S
C1202 C1210 1.574 . S
C1202 C1218 1.368 . S
H1203 C1211 0.950 . S
H1204 C1209 0.950 . S
H1205 C1210 0.949 . S
H1206 C1212 0.950 . S
H1207 C1213 0.950 . S
H1208 C1214 0.949 . S
C1209 H1204 0.950 . S
C1209 C1211 1.327 . S
C1209 C1215 1.429 . S
C1210 C1202 1.574 . S
C1210 H1205 0.949 . S
C1210 C1216 1.368 . S
C1211 C1195 1.349 . S
C1211 H1203 0.950 . S
C1211 C1209 1.327 . S
C1212 C1200 1.349 . S
C1212 H1206 0.950 . S
C1212 C1213 1.327 . S
C1213 H1207 0.950 . S
C1213 C1212 1.327 . S
C1213 C1217 1.429 . S
C1214 C1197 1.574 . S
C1214 H1208 0.949 . S
C1214 C1218 1.368 . S
C1215 C1196 1.429 . S
C1215 C1209 1.429 . S
C1215 C1216 1.523 . S
C1216 C1197 1.368 . S
C1216 C1210 1.368 . S
C1216 C1215 1.523 . S
C1217 C1201 1.429 . S
C1217 C1213 1.429 . S
C1217 C1218 1.523 . S
C1218 C1202 1.368 . S
C1218 C1214 1.368 . S
C1218 C1217 1.523 . S
H1219 C1194 0.950 . S
H1220 C1196 0.950 . S
H1221 C1197 0.949 . S
H1222 C1199 0.950 . S
H1223 C1201 0.950 . S
C1224 C1225 1.349 . S
C1224 C1226 1.327 . S
C1224 H1249 0.950 . S
C1225 C1224 1.349 . S
C1225 C1241 1.349 . S
C1226 C1224 1.327 . S
C1226 C1245 1.429 . S
C1226 H1250 0.950 . S
C1227 C1244 1.574 . S
C1227 C1246 1.368 . S
C1227 H1251 0.949 . S
H1228 C1232 0.949 . S
C1229 C1230 1.349 . S
C1229 C1231 1.327 . S
C1229 H1252 0.950 . S
C1230 C1229 1.349 . S
C1230 C1242 1.349 . S
C1231 C1229 1.327 . S
C1231 C1247 1.429 . S
C1231 H1253 0.950 . S
C1232 H1228 0.949 . S
C1232 C1240 1.574 . S
C1232 C1248 1.368 . S
H1233 C1241 0.950 . S
H1234 C1239 0.950 . S
H1235 C1240 0.949 . S
H1236 C1242 0.950 . S
H1237 C1243 0.950 . S
H1238 C1244 0.949 . S
C1239 H1234 0.950 . S
C1239 C1241 1.327 . S
C1239 C1245 1.429 . S
C1240 C1232 1.574 . S
C1240 H1235 0.949 . S
C1240 C1246 1.368 . S
C1241 C1225 1.349 . S
C1241 H1233 0.950 . S
C1241 C1239 1.327 . S
C1242 C1230 1.349 . S
C1242 H1236 0.950 . S
C1242 C1243 1.327 . S
C1243 H1237 0.950 . S
C1243 C1242 1.327 . S
C1243 C1247 1.429 . S
C1244 C1227 1.574 . S
C1244 H1238 0.949 . S
C1244 C1248 1.368 . S
C1245 C1226 1.429 . S
C1245 C1239 1.429 . S
C1245 C1246 1.523 . S
C1246 C1227 1.368 . S
C1246 C1240 1.368 . S
C1246 C1245 1.523 . S
C1247 C1231 1.429 . S
C1247 C1243 1.429 . S
C1247 C1248 1.523 . S
C1248 C1232 1.368 . S
C1248 C1244 1.368 . S
C1248 C1247 1.523 . S
H1249 C1224 0.950 . S
H1250 C1226 0.950 . S
H1251 C1227 0.949 . S
H1252 C1229 0.950 . S
H1253 C1231 0.950 . S
C1254 C1255 1.349 . S
C1254 C1256 1.327 . S
C1254 H1279 0.950 . S
C1255 C1254 1.349 . S
C1255 C1271 1.349 . S
C1256 C1254 1.327 . S
C1256 C1275 1.429 . S
C1256 H1280 0.950 . S
C1257 C1274 1.574 . S
C1257 C1276 1.368 . S
C1257 H1281 0.949 . S
H1258 C1262 0.949 . S
C1259 C1260 1.349 . S
C1259 C1261 1.327 . S
C1259 H1282 0.950 . S
C1260 C1259 1.349 . S
C1260 C1272 1.349 . S
C1261 C1259 1.327 . S
C1261 C1277 1.429 . S
C1261 H1283 0.950 . S
C1262 H1258 0.949 . S
C1262 C1270 1.574 . S
C1262 C1278 1.368 . S
H1263 C1271 0.950 . S
H1264 C1269 0.950 . S
H1265 C1270 0.949 . S
H1266 C1272 0.950 . S
H1267 C1273 0.950 . S
H1268 C1274 0.949 . S
C1269 H1264 0.950 . S
C1269 C1271 1.327 . S
C1269 C1275 1.429 . S
C1270 C1262 1.574 . S
C1270 H1265 0.949 . S
C1270 C1276 1.368 . S
C1271 C1255 1.349 . S
C1271 H1263 0.950 . S
C1271 C1269 1.327 . S
C1272 C1260 1.349 . S
C1272 H1266 0.950 . S
C1272 C1273 1.327 . S
C1273 H1267 0.950 . S
C1273 C1272 1.327 . S
C1273 C1277 1.429 . S
C1274 C1257 1.574 . S
C1274 H1268 0.949 . S
C1274 C1278 1.368 . S
C1275 C1256 1.429 . S
C1275 C1269 1.429 . S
C1275 C1276 1.523 . S
C1276 C1257 1.368 . S
C1276 C1270 1.368 . S
C1276 C1275 1.523 . S
C1277 C1261 1.429 . S
C1277 C1273 1.429 . S
C1277 C1278 1.523 . S
C1278 C1262 1.368 . S
C1278 C1274 1.368 . S
C1278 C1277 1.523 . S
H1279 C1254 0.950 . S
H1280 C1256 0.950 . S
H1281 C1257 0.949 . S
H1282 C1259 0.950 . S
H1283 C1261 0.950 . S
C1284 C1285 1.349 . S
C1284 C1286 1.327 . S
C1284 H1309 0.950 . S
C1285 C1284 1.349 . S
C1285 C1301 1.349 . S
C1286 C1284 1.327 . S
C1286 C1305 1.429 . S
C1286 H1310 0.950 . S
C1287 C1304 1.574 . S
C1287 C1306 1.368 . S
C1287 H1311 0.949 . S
H1288 C1292 0.949 . S
C1289 C1290 1.349 . S
C1289 C1291 1.327 . S
C1289 H1312 0.950 . S
C1290 C1289 1.349 . S
C1290 C1302 1.349 . S
C1291 C1289 1.327 . S
C1291 C1307 1.429 . S
C1291 H1313 0.950 . S
C1292 H1288 0.949 . S
C1292 C1300 1.574 . S
C1292 C1308 1.368 . S
H1293 C1301 0.950 . S
H1294 C1299 0.950 . S
H1295 C1300 0.949 . S
H1296 C1302 0.950 . S
H1297 C1303 0.950 . S
H1298 C1304 0.949 . S
C1299 H1294 0.950 . S
C1299 C1301 1.327 . S
C1299 C1305 1.429 . S
C1300 C1292 1.574 . S
C1300 H1295 0.949 . S
C1300 C1306 1.368 . S
C1301 C1285 1.349 . S
C1301 H1293 0.950 . S
C1301 C1299 1.327 . S
C1302 C1290 1.349 . S
C1302 H1296 0.950 . S
C1302 C1303 1.327 . S
C1303 H1297 0.950 . S
C1303 C1302 1.327 . S
C1303 C1307 1.429 . S
C1304 C1287 1.574 . S
C1304 H1298 0.949 . S
C1304 C1308 1.368 . S
C1305 C1286 1.429 . S
C1305 C1299 1.429 . S
C1305 C1306 1.523 . S
C1306 C1287 1.368 . S
C1306 C1300 1.368 . S
C1306 C1305 1.523 . S
C1307 C1291 1.429 . S
C1307 C1303 1.429 . S
C1307 C1308 1.523 . S
C1308 C1292 1.368 . S
C1308 C1304 1.368 . S
C1308 C1307 1.523 . S
H1309 C1284 0.950 . S
H1310 C1286 0.950 . S
H1311 C1287 0.949 . S
H1312 C1289 0.950 . S
H1313 C1291 0.950 . S
C1314 C1315 1.349 . S
C1314 C1316 1.327 . S
C1314 H1339 0.950 1_556 S
C1315 C1314 1.349 . S
C1315 C1331 1.349 . S
C1316 C1314 1.327 . S
C1316 C1335 1.429 . S
C1316 H1340 0.958 . S
C1317 C1334 1.574 . S
C1317 C1336 1.368 . S
C1317 H1341 0.949 . S
H1318 C1322 0.949 . S
C1319 C1320 1.349 . S
C1319 C1321 1.327 . S
C1319 H1342 0.950 . S
C1320 C1319 1.349 . S
C1320 C1332 1.349 . S
C1321 C1319 1.327 . S
C1321 C1337 1.429 . S
C1321 H1343 0.950 . S
C1322 H1318 0.949 . S
C1322 C1330 1.574 . S
C1322 C1338 1.368 . S
H1323 C1331 0.950 . S
H1324 C1329 0.950 . S
H1325 C1330 0.949 . S
H1326 C1332 0.950 . S
H1327 C1333 0.950 . S
H1328 C1334 0.949 . S
C1329 H1324 0.950 . S
C1329 C1331 1.327 . S
C1329 C1335 1.429 . S
C1330 C1322 1.574 . S
C1330 H1325 0.949 . S
C1330 C1336 1.368 . S
C1331 C1315 1.349 . S
C1331 H1323 0.950 . S
C1331 C1329 1.327 . S
C1332 C1320 1.349 . S
C1332 H1326 0.950 . S
C1332 C1333 1.327 . S
C1333 H1327 0.950 . S
C1333 C1332 1.327 . S
C1333 C1337 1.429 . S
C1334 C1317 1.574 . S
C1334 H1328 0.949 . S
C1334 C1338 1.368 . S
C1335 C1316 1.429 . S
C1335 C1329 1.429 . S
C1335 C1336 1.523 . S
C1336 C1317 1.368 . S
C1336 C1330 1.368 . S
C1336 C1335 1.523 . S
C1337 C1321 1.429 . S
C1337 C1333 1.429 . S
C1337 C1338 1.523 . S
C1338 C1322 1.368 . S
C1338 C1334 1.368 . S
C1338 C1337 1.523 . S
H1339 C1314 0.950 1_554 S
H1340 C1316 0.958 . S
H1341 C1317 0.949 . S
H1342 C1319 0.950 . S
H1343 C1321 0.950 . S
C265 C7 0.957 . S
C270 C29 0.962 . S
C295 C18 1.437 . S
C300 C40 1.530 . S
C325 C51 1.261 . S
C330 C73 1.301 . S
C355 C62 1.255 . S
C360 C84 1.217 . S
C385 C95 0.846 . S
C390 C139 0.836 . S
C415 C150 1.243 1_655 S
C420 C106 1.339 . S
C445 C117 0.518 . S
C450 C161 0.521 . S
C475 C172 1.336 . S
C480 C128 1.317 . S
C505 C216 1.552 . S
C510 C183 1.590 . S
C535 C238 1.528 . S
C540 C194 1.642 . S
C565 C205 0.480 . S
C570 C249 0.499 1_554 S
C595 C227 0.886 . S
C600 C260 0.883 . S
C625 C247 1.066 . S
C630 C5 1.239 . S
C655 C184 1.925 . S
C660 C19 1.852 . S
C685 C27 1.382 . S
C690 C261 1.542 . S
C715 C41 1.798 . S
C720 C236 1.415 . S
C745 C203 1.450 . S
C750 C49 1.322 . S
C775 C63 1.709 . S
C780 C217 1.715 . S
C805 C71 1.571 . S
C810 C228 1.754 . S
C835 C195 1.637 . S
C840 C85 1.582 . S
C865 C151 1.799 . S
C870 C93 1.338 . S
C895 C104 1.330 . S
C900 C162 1.442 . S
C925 C118 1.708 . S
C930 C170 1.640 . S
C955 C137 1.340 . S
C960 C126 1.742 . S
C985 C82 1.085 . S
C990 C159 1.173 . S
C1015 C173 1.683 . S
C1020 C52 1.647 . S
C1045 C60 1.731 . S
C1050 C140 1.772 . S
C1075 C148 1.607 . S
C1080 C74 1.949 . S
C1105 C115 1.579 . S
C1110 C16 1.347 . S
C1135 C129 1.901 1_655 S
C1140 C30 1.880 . S
C1165 C38 1.805 . S
C1170 C96 1.842 . S
C1195 C8 1.489 . S
C1200 C107 1.486 . S
C1225 C239 1.658 . S
C1230 C225 1.492 . S
C1255 C192 1.643 . S
C1260 C250 1.630 . S
C1285 C181 1.849 . S
C1290 C206 1.871 . S
C1315 C258 1.489 . S
C1320 C214 1.601 . S
