# Generated by pormake.
# Topology unp, (4)-cn, num edge types: 1
# Building blocks:
#     Node 0, Type 0, BuildingBlock: TATPOV_clean_sbu_0, # of connection points: 4
#     Node 1, Type 0, BuildingBlock: TATPOV_clean_sbu_0, # of connection points: 4
#     Node 2, Type 0, BuildingBlock: TATPOV_clean_sbu_0, # of connection points: 4
#     Node 3, Type 0, BuildingBlock: TATPOV_clean_sbu_0, # of connection points: 4
#     Node 4, Type 0, BuildingBlock: TATPOV_clean_sbu_0, # of connection points: 4
#     Node 5, Type 0, BuildingBlock: TATPOV_clean_sbu_0, # of connection points: 4
#     Node 6, Type 0, BuildingBlock: TATPOV_clean_sbu_0, # of connection points: 4
#     Node 7, Type 0, BuildingBlock: TATPOV_clean_sbu_0, # of connection points: 4
#     Node 8, Type 0, BuildingBlock: TATPOV_clean_sbu_0, # of connection points: 4
#     Node 9, Type 0, BuildingBlock: TATPOV_clean_sbu_0, # of connection points: 4
#     Node 10, Type 0, BuildingBlock: TATPOV_clean_sbu_0, # of connection points: 4
#     Node 11, Type 0, BuildingBlock: TATPOV_clean_sbu_0, # of connection points: 4
#     Node 12, Type 0, BuildingBlock: TATPOV_clean_sbu_0, # of connection points: 4
#     Node 13, Type 0, BuildingBlock: TATPOV_clean_sbu_0, # of connection points: 4
#     Node 14, Type 0, BuildingBlock: TATPOV_clean_sbu_0, # of connection points: 4
#     Node 15, Type 0, BuildingBlock: TATPOV_clean_sbu_0, # of connection points: 4
#     Node 16, Type 0, BuildingBlock: TATPOV_clean_sbu_0, # of connection points: 4
#     Node 17, Type 0, BuildingBlock: TATPOV_clean_sbu_0, # of connection points: 4
#     Edge 18, Type (0, 0), BuildingBlock: XIVTED_clean_linker_0, # of connection points: 2
#     Edge 19, Type (0, 0), BuildingBlock: XIVTED_clean_linker_0, # of connection points: 2
#     Edge 20, Type (0, 0), BuildingBlock: XIVTED_clean_linker_0, # of connection points: 2
#     Edge 21, Type (0, 0), BuildingBlock: XIVTED_clean_linker_0, # of connection points: 2
#     Edge 22, Type (0, 0), BuildingBlock: XIVTED_clean_linker_0, # of connection points: 2
#     Edge 23, Type (0, 0), BuildingBlock: XIVTED_clean_linker_0, # of connection points: 2
#     Edge 24, Type (0, 0), BuildingBlock: XIVTED_clean_linker_0, # of connection points: 2
#     Edge 25, Type (0, 0), BuildingBlock: XIVTED_clean_linker_0, # of connection points: 2
#     Edge 26, Type (0, 0), BuildingBlock: XIVTED_clean_linker_0, # of connection points: 2
#     Edge 27, Type (0, 0), BuildingBlock: XIVTED_clean_linker_0, # of connection points: 2
#     Edge 28, Type (0, 0), BuildingBlock: XIVTED_clean_linker_0, # of connection points: 2
#     Edge 29, Type (0, 0), BuildingBlock: XIVTED_clean_linker_0, # of connection points: 2
#     Edge 30, Type (0, 0), BuildingBlock: XIVTED_clean_linker_0, # of connection points: 2
#     Edge 31, Type (0, 0), BuildingBlock: XIVTED_clean_linker_0, # of connection points: 2
#     Edge 32, Type (0, 0), BuildingBlock: XIVTED_clean_linker_0, # of connection points: 2
#     Edge 33, Type (0, 0), BuildingBlock: XIVTED_clean_linker_0, # of connection points: 2
#     Edge 34, Type (0, 0), BuildingBlock: XIVTED_clean_linker_0, # of connection points: 2
#     Edge 35, Type (0, 0), BuildingBlock: XIVTED_clean_linker_0, # of connection points: 2
#     Edge 36, Type (0, 0), BuildingBlock: XIVTED_clean_linker_0, # of connection points: 2
#     Edge 37, Type (0, 0), BuildingBlock: XIVTED_clean_linker_0, # of connection points: 2
#     Edge 38, Type (0, 0), BuildingBlock: XIVTED_clean_linker_0, # of connection points: 2
#     Edge 39, Type (0, 0), BuildingBlock: XIVTED_clean_linker_0, # of connection points: 2
#     Edge 40, Type (0, 0), BuildingBlock: XIVTED_clean_linker_0, # of connection points: 2
#     Edge 41, Type (0, 0), BuildingBlock: XIVTED_clean_linker_0, # of connection points: 2
#     Edge 42, Type (0, 0), BuildingBlock: XIVTED_clean_linker_0, # of connection points: 2
#     Edge 43, Type (0, 0), BuildingBlock: XIVTED_clean_linker_0, # of connection points: 2
#     Edge 44, Type (0, 0), BuildingBlock: XIVTED_clean_linker_0, # of connection points: 2
#     Edge 45, Type (0, 0), BuildingBlock: XIVTED_clean_linker_0, # of connection points: 2
#     Edge 46, Type (0, 0), BuildingBlock: XIVTED_clean_linker_0, # of connection points: 2
#     Edge 47, Type (0, 0), BuildingBlock: XIVTED_clean_linker_0, # of connection points: 2
#     Edge 48, Type (0, 0), BuildingBlock: XIVTED_clean_linker_0, # of connection points: 2
#     Edge 49, Type (0, 0), BuildingBlock: XIVTED_clean_linker_0, # of connection points: 2
#     Edge 50, Type (0, 0), BuildingBlock: XIVTED_clean_linker_0, # of connection points: 2
#     Edge 51, Type (0, 0), BuildingBlock: XIVTED_clean_linker_0, # of connection points: 2
#     Edge 52, Type (0, 0), BuildingBlock: XIVTED_clean_linker_0, # of connection points: 2
#     Edge 53, Type (0, 0), BuildingBlock: XIVTED_clean_linker_0, # of connection points: 2
# Relax obj value: 0.364
# Max RMSD: 0.176
# Mean RMSD: 0.176
data_MOF--net-unp--node1-TATPOV_clean_sbu_0--edge1-XIVTED_clean_linker_0
_symmetry_space_group_name_H-M    P1
_symmetry_Int_Tables_number       1
_symmetry_cell_setting            triclinic
loop_
_symmetry_equiv_pos_as_xyz
'x, y, z'
_cell_length_a     45.415694
_cell_length_b     45.292468
_cell_length_c     66.51801
_cell_angle_alpha  90.233816
_cell_angle_beta   89.656058
_cell_angle_gamma 119.73009
loop_
_atom_site_label
_atom_site_type_symbol
_atom_site_fract_x
_atom_site_fract_y
_atom_site_fract_z
_atom_type_partial_charge
Zn0 Zn 0.07233 0.08185 0.11964 0.0
Zn1 Zn 0.1358 0.12997 0.12392 0.0
O2 O 0.1331 0.08912 0.13987 0.0
O3 O 0.07908 0.05049 0.13743 0.0
O4 O 0.18393 0.16658 0.12819 0.0
O5 O 0.07988 0.08279 0.08938 0.0
O6 O 0.13282 0.12331 0.09314 0.0
C7 C 0.10836 0.05981 0.14418 0.0
C8 C 0.07711 0.14088 0.13779 0.0
O9 O 0.10873 0.15259 0.13487 0.0
O10 O 0.05599 0.1108 0.13264 0.0
C11 C 0.19376 0.17855 0.14572 0.0
O12 O 0.17211 0.16647 0.16076 0.0
C13 C 0.10852 0.10327 0.08177 0.0
Zn14 Zn 0.87399 0.07946 0.06774 0.0
Zn15 Zn 0.82901 0.05591 0.09599 0.0
O16 O 0.86987 0.10162 0.10598 0.0
O17 O 0.90694 0.12231 0.08137 0.0
O18 O 0.79377 0.04881 0.11691 0.0
O19 O 0.84308 0.08137 0.04747 0.0
O20 O 0.8029 0.05271 0.06965 0.0
C21 C 0.89814 0.1249 0.09903 0.0
C22 C 0.85986 0.01329 0.08512 0.0
O23 O 0.83986 0.01681 0.09719 0.0
O24 O 0.87585 0.03567 0.07175 0.0
C25 C 0.80167 0.05817 0.13506 0.0
O26 O 0.83256 0.06762 0.14116 0.0
C27 C 0.81202 0.06531 0.05211 0.0
Zn28 Zn 0.995 0.83273 0.08637 0.0
Zn29 Zn 0.95394 0.79218 0.11372 0.0
O30 O 0.9294 0.81891 0.10557 0.0
O31 O 0.96487 0.85314 0.08259 0.0
O32 O 0.9223 0.75721 0.13375 0.0
O33 O 0.9904 0.79583 0.0684 0.0
O34 O 0.95746 0.76049 0.09186 0.0
C35 C 0.93797 0.84289 0.09285 0.0
C36 C 0.02701 0.84624 0.12449 0.0
O37 O 0.99731 0.82365 0.12999 0.0
O38 O 0.03333 0.85355 0.10605 0.0
C39 C 0.93298 0.74389 0.14651 0.0
O40 O 0.96561 0.75444 0.14741 0.0
C41 C 0.9724 0.7659 0.07486 0.0
Zn42 Zn 0.12138 0.05602 0.89372 0.0
Zn43 Zn 0.17205 0.11873 0.89203 0.0
O44 O 0.1348 0.11666 0.87294 0.0
O45 O 0.09445 0.06312 0.87276 0.0
O46 O 0.20862 0.16705 0.88725 0.0
O47 O 0.1163 0.06381 0.92339 0.0
O48 O 0.15991 0.11581 0.92224 0.0
C49 C 0.10644 0.09316 0.86638 0.0
C50 C 0.18288 0.05858 0.88187 0.0
O51 O 0.19534 0.09043 0.88462 0.0
O52 O 0.15161 0.03842 0.88466 0.0
C53 C 0.22024 0.17358 0.8694 0.0
O54 O 0.20953 0.14853 0.85635 0.0
C55 C 0.13625 0.09149 0.93218 0.0
Zn56 Zn 0.89065 0.02291 0.91689 0.0
Zn57 Zn 0.84449 0.98113 0.89179 0.0
O58 O 0.86522 0.95158 0.90054 0.0
O59 O 0.90363 0.98658 0.92191 0.0
O60 O 0.80603 0.95154 0.87341 0.0
O61 O 0.85768 0.02811 0.93418 0.0
O62 O 0.81825 0.99214 0.91365 0.0
C63 C 0.88937 0.95831 0.91271 0.0
C64 C 0.9042 0.04894 0.87707 0.0
O65 O 0.87817 0.02024 0.87328 0.0
O66 O 0.91401 0.05701 0.89503 0.0
C67 C 0.77952 0.92653 0.88075 0.0
O68 O 0.77901 0.91914 0.89988 0.0
C69 C 0.82694 0.01134 0.92907 0.0
Zn70 Zn 0.0827 0.8398 0.94727 0.0
Zn71 Zn 0.06129 0.80216 0.91539 0.0
O72 O 0.11118 0.84063 0.91056 0.0
O73 O 0.13019 0.87054 0.93822 0.0
O74 O 0.05545 0.77248 0.89118 0.0
O75 O 0.07303 0.80117 0.96538 0.0
O76 O 0.0472 0.76824 0.9395 0.0
C77 C 0.13509 0.86508 0.92022 0.0
C78 C 0.02607 0.84111 0.92598 0.0
O79 O 0.02843 0.82112 0.91331 0.0
O80 O 0.04559 0.85153 0.94112 0.0
C81 C 0.06552 0.78593 0.87393 0.0
O82 O 0.07522 0.81829 0.87164 0.0
C83 C 0.0549 0.77179 0.95811 0.0
Zn84 Zn 0.74918 0.43654 0.48436 0.0
Zn85 Zn 0.81145 0.48726 0.4886 0.0
O86 O 0.81358 0.44299 0.4938 0.0
O87 O 0.76052 0.40175 0.49414 0.0
O88 O 0.85995 0.52372 0.49219 0.0
O89 O 0.75238 0.44823 0.45433 0.0
O90 O 0.80221 0.49357 0.45951 0.0
C91 C 0.79172 0.41163 0.49609 0.0
C92 C 0.75243 0.48835 0.51059 0.0
O93 O 0.78404 0.50218 0.50666 0.0
O94 O 0.73223 0.45914 0.50361 0.0
C95 C 0.88129 0.52594 0.47897 0.0
O96 O 0.8708 0.50447 0.46382 0.0
C97 C 0.77764 0.47535 0.44789 0.0
Zn98 Zn 0.62623 0.4646 0.40283 0.0
Zn99 Zn 0.56338 0.43992 0.41354 0.0
O100 O 0.59519 0.47907 0.43283 0.0
O101 O 0.64642 0.50635 0.42006 0.0
O102 O 0.51818 0.43183 0.4245 0.0
O103 O 0.61559 0.46644 0.3739 0.0
O104 O 0.56216 0.44628 0.38255 0.0
C105 C 0.62572 0.50342 0.43373 0.0
C106 C 0.59356 0.3949 0.4184 0.0
O107 O 0.56652 0.39687 0.41839 0.0
O108 O 0.62181 0.42046 0.41368 0.0
C109 C 0.5135 0.42672 0.44335 0.0
O110 O 0.53572 0.42262 0.45376 0.0
C111 C 0.58515 0.45617 0.36899 0.0
Zn112 Zn 0.71477 0.21188 0.39631 0.0
Zn113 Zn 0.67622 0.16641 0.42348 0.0
O114 O 0.65157 0.19373 0.4222 0.0
O115 O 0.67995 0.22824 0.3972 0.0
O116 O 0.64841 0.12738 0.44208 0.0
O117 O 0.70992 0.17683 0.37591 0.0
O118 O 0.6727 0.1404 0.39724 0.0
C119 C 0.65626 0.21749 0.41017 0.0
C120 C 0.74958 0.22104 0.43347 0.0
O121 O 0.72149 0.19498 0.43824 0.0
O122 O 0.75394 0.23285 0.41579 0.0
C123 C 0.66082 0.10948 0.4485 0.0
O124 O 0.69225 0.11822 0.44381 0.0
C125 C 0.68734 0.14676 0.38014 0.0
Zn126 Zn 0.6722 0.50013 0.28761 0.0
Zn127 Zn 0.72822 0.5216 0.26638 0.0
O128 O 0.69908 0.54029 0.2541 0.0
O129 O 0.65303 0.52472 0.27195 0.0
O130 O 0.77082 0.54791 0.24976 0.0
O131 O 0.69797 0.51909 0.31335 0.0
O132 O 0.74377 0.53026 0.29598 0.0
C133 C 0.67134 0.54032 0.25695 0.0
C134 C 0.68133 0.44669 0.26713 0.0
O135 O 0.70882 0.47116 0.2602 0.0
O136 O 0.66248 0.45275 0.2786 0.0
C137 C 0.76656 0.54826 0.2309 0.0
O138 O 0.73624 0.52829 0.22347 0.0
C139 C 0.72929 0.52862 0.31276 0.0
Zn140 Zn 0.56677 0.38169 0.18392 0.0
Zn141 Zn 0.50235 0.36192 0.18717 0.0
O142 O 0.50562 0.32166 0.17467 0.0
O143 O 0.55969 0.33794 0.1717 0.0
O144 O 0.45238 0.34427 0.18508 0.0
O145 O 0.56823 0.38893 0.21454 0.0
O146 O 0.51317 0.36885 0.2171 0.0
C147 C 0.52899 0.31537 0.16947 0.0
C148 C 0.55316 0.42998 0.16677 0.0
O149 O 0.52414 0.40946 0.17419 0.0
O150 O 0.57596 0.42164 0.16649 0.0
C151 C 0.44046 0.33925 0.16739 0.0
O152 O 0.4615 0.34791 0.15205 0.0
C153 C 0.54227 0.3817 0.22525 0.0
Zn154 Zn 0.55116 0.12872 0.24244 0.0
Zn155 Zn 0.60533 0.14261 0.22127 0.0
O156 O 0.62416 0.19108 0.23168 0.0
O157 O 0.57867 0.17941 0.24965 0.0
O158 O 0.64073 0.13981 0.20422 0.0
O159 O 0.55251 0.09401 0.26075 0.0
O160 O 0.60001 0.11013 0.24433 0.0
C161 C 0.60814 0.20076 0.2433 0.0
C162 C 0.53619 0.125 0.20172 0.0
O163 O 0.5677 0.13439 0.20123 0.0
O164 O 0.52048 0.11666 0.21836 0.0
C165 C 0.66627 0.14057 0.21249 0.0
O166 O 0.67127 0.14728 0.23181 0.0
C167 C 0.57961 0.09292 0.25839 0.0
Zn168 Zn 0.54248 0.74075 0.7195 0.0
Zn169 Zn 0.55563 0.77725 0.75276 0.0
O170 O 0.56461 0.73777 0.75867 0.0
O171 O 0.55762 0.70909 0.73078 0.0
O172 O 0.57709 0.80738 0.77669 0.0
O173 O 0.57324 0.78124 0.70233 0.0
O174 O 0.57899 0.81105 0.72959 0.0
C175 C 0.56472 0.71323 0.74931 0.0
C176 C 0.48369 0.74125 0.73977 0.0
O177 O 0.50483 0.76048 0.75296 0.0
O178 O 0.4937 0.73057 0.72498 0.0
C179 C 0.57571 0.79573 0.79423 0.0
O180 O 0.55565 0.76313 0.79759 0.0
C181 C 0.58451 0.8098 0.7109 0.0
Zn182 Zn 0.1641 0.5823 0.73386 0.0
Zn183 Zn 0.16293 0.62498 0.7581 0.0
O184 O 0.21449 0.65077 0.75616 0.0
O185 O 0.21579 0.61378 0.73507 0.0
O186 O 0.14851 0.65004 0.77766 0.0
O187 O 0.13814 0.58694 0.71142 0.0
O188 O 0.14388 0.62933 0.73028 0.0
C189 C 0.2313 0.64086 0.74542 0.0
C190 C 0.14263 0.54942 0.76929 0.0
O191 O 0.14993 0.57986 0.77345 0.0
O192 O 0.14286 0.54116 0.75117 0.0
C193 C 0.14578 0.67577 0.77292 0.0
O194 O 0.1541 0.68818 0.75464 0.0
C195 C 0.135 0.61291 0.71371 0.0
Zn196 Zn 0.35538 0.51962 0.77238 0.0
Zn197 Zn 0.34105 0.45885 0.7839 0.0
O198 O 0.30253 0.46571 0.79635 0.0
O199 O 0.31556 0.51724 0.78672 0.0
O200 O 0.32988 0.41324 0.79498 0.0
O201 O 0.3526 0.50374 0.74343 0.0
O202 O 0.33667 0.45155 0.75328 0.0
C203 C 0.2963 0.49024 0.7962 0.0
C204 C 0.41015 0.52229 0.79335 0.0
O205 O 0.39136 0.49005 0.79271 0.0
O206 O 0.39963 0.54131 0.78645 0.0
C207 C 0.32798 0.40898 0.81392 0.0
O208 O 0.33405 0.43473 0.82571 0.0
C209 C 0.34344 0.47305 0.73923 0.0
Zn210 Zn 0.4529 0.87842 0.60594 0.0
Zn211 Zn 0.49081 0.88858 0.57362 0.0
O212 O 0.45609 0.90413 0.56735 0.0
O213 O 0.42646 0.89941 0.59449 0.0
O214 O 0.52238 0.90767 0.54991 0.0
O215 O 0.49336 0.90445 0.62399 0.0
O216 O 0.52369 0.9072 0.5975 0.0
C217 C 0.4328 0.90731 0.57612 0.0
C218 C 0.44665 0.81652 0.58568 0.0
O219 O 0.46833 0.83684 0.57301 0.0
O220 O 0.43691 0.82809 0.60014 0.0
C221 C 0.51078 0.90766 0.53257 0.0
O222 O 0.47783 0.89079 0.52978 0.0
C223 C 0.5218 0.91228 0.6162 0.0
Zn224 Zn 0.24339 0.71035 0.54646 0.0
Zn225 Zn 0.18401 0.69705 0.5319 0.0
O226 O 0.19346 0.66097 0.51843 0.0
O227 O 0.24292 0.67235 0.53066 0.0
O228 O 0.13803 0.68457 0.52126 0.0
O229 O 0.22397 0.70357 0.57482 0.0
O230 O 0.17401 0.68926 0.56211 0.0
C231 C 0.21783 0.65466 0.51942 0.0
C232 C 0.24685 0.76725 0.52598 0.0
O233 O 0.21481 0.74818 0.52455 0.0
O234 O 0.26473 0.75632 0.53403 0.0
C235 C 0.12879 0.67379 0.50347 0.0
O236 O 0.15076 0.67286 0.49091 0.0
C237 C 0.19278 0.6938 0.57727 0.0
Zn238 Zn 0.27886 0.49501 0.57575 0.0
Zn239 Zn 0.32716 0.49738 0.55514 0.0
O240 O 0.35269 0.54817 0.56127 0.0
O241 O 0.31109 0.54628 0.57948 0.0
O242 O 0.35805 0.48668 0.53804 0.0
O243 O 0.2754 0.46277 0.59692 0.0
O244 O 0.32205 0.47079 0.58199 0.0
C245 C 0.34058 0.5632 0.57185 0.0
C246 C 0.25717 0.48361 0.53723 0.0
O247 O 0.28786 0.49005 0.53582 0.0
O248 O 0.24388 0.47992 0.55443 0.0
C249 C 0.36043 0.48978 0.51899 0.0
O250 O 0.3432 0.50176 0.50962 0.0
C251 C 0.30082 0.45849 0.59652 0.0
H252 H 0.40707 0.32202 0.13148 0.0
H253 H 0.22424 0.20732 0.18151 0.0
H254 H 0.38952 0.31298 0.1956 0.0
H255 H 0.24422 0.21067 0.11777 0.0
H256 H 0.28361 0.25008 0.18689 0.0
H257 H 0.34634 0.28581 0.12613 0.0
C258 C 0.39042 0.31267 0.14445 0.0
C259 C 0.40345 0.32033 0.16403 0.0
C260 C 0.27496 0.24154 0.17172 0.0
C261 C 0.33381 0.27862 0.15799 0.0
C262 C 0.24106 0.21712 0.16864 0.0
C263 C 0.22929 0.20523 0.14917 0.0
C264 C 0.29723 0.25419 0.15522 0.0
C265 C 0.25221 0.21893 0.13305 0.0
C266 C 0.35571 0.2919 0.14138 0.0
C267 C 0.3806 0.30759 0.18025 0.0
N268 N 0.28508 0.24259 0.13645 0.0
N269 N 0.3469 0.28716 0.17687 0.0
H270 H 0.73924 0.04938 0.12536 0.0
H271 H 0.7224 0.13865 0.22557 0.0
H272 H 0.81247 0.08385 0.1734 0.0
H273 H 0.65753 0.11618 0.17392 0.0
H274 H 0.7538 0.11565 0.20769 0.0
H275 H 0.70612 0.06903 0.14441 0.0
C276 C 0.74817 0.06067 0.14003 0.0
C277 C 0.77885 0.06514 0.14773 0.0
C278 C 0.73277 0.11585 0.20025 0.0
C279 C 0.74114 0.08811 0.16953 0.0
C280 C 0.71489 0.12911 0.21042 0.0
C281 C 0.6873 0.12944 0.20123 0.0
C282 C 0.72289 0.10261 0.18078 0.0
C283 C 0.67868 0.11659 0.18159 0.0
C284 C 0.72932 0.07211 0.15085 0.0
C285 C 0.78905 0.07997 0.16684 0.0
N286 N 0.69633 0.10361 0.17206 0.0
N287 N 0.77035 0.0911 0.17703 0.0
H288 H 0.83338 0.59238 0.24014 0.0
H289 H 0.86401 0.70649 0.14279 0.0
H290 H 0.76029 0.56507 0.19244 0.0
H291 H 0.94671 0.71558 0.17898 0.0
H292 H 0.82465 0.65753 0.16289 0.0
H293 H 0.87483 0.63991 0.21958 0.0
C294 C 0.82615 0.59614 0.2253 0.0
C295 C 0.79328 0.5747 0.21803 0.0
C296 C 0.85142 0.67021 0.16643 0.0
C297 C 0.84028 0.62929 0.19465 0.0
C298 C 0.87389 0.69832 0.15504 0.0
C299 C 0.90874 0.71518 0.1592 0.0
C300 C 0.86374 0.65904 0.18228 0.0
C301 C 0.92006 0.70329 0.17521 0.0
C302 C 0.84979 0.62329 0.2136 0.0
C303 C 0.78531 0.58084 0.19868 0.0
N304 N 0.8976 0.67602 0.18624 0.0
N305 N 0.8085 0.60771 0.18778 0.0
H306 H 0.31565 0.35094 0.79403 0.0
H307 H 0.24234 0.23248 0.89118 0.0
H308 H 0.31542 0.3896 0.85344 0.0
H309 H 0.24743 0.19555 0.83204 0.0
H310 H 0.273 0.29072 0.87833 0.0
H311 H 0.29427 0.29434 0.80828 0.0
C312 C 0.31128 0.34757 0.81009 0.0
C313 C 0.3171 0.37503 0.82253 0.0
C314 C 0.26766 0.26987 0.86822 0.0
C315 C 0.29248 0.31016 0.83897 0.0
C316 C 0.25021 0.23661 0.87556 0.0
C317 C 0.24203 0.20906 0.86263 0.0
C318 C 0.27687 0.27558 0.8478 0.0
C319 C 0.25295 0.21596 0.84254 0.0
C320 C 0.29909 0.31522 0.81824 0.0
C321 C 0.31115 0.36915 0.84326 0.0
N322 N 0.26954 0.24847 0.83572 0.0
N323 N 0.29893 0.33731 0.85081 0.0
H324 H 0.76854 0.94155 0.84269 0.0
H325 H 0.58473 0.77829 0.83225 0.0
H326 H 0.72002 0.86926 0.89076 0.0
H327 H 0.62642 0.86171 0.79009 0.0
H328 H 0.63332 0.81106 0.85425 0.0
H329 H 0.71665 0.91173 0.82305 0.0
C330 C 0.74702 0.91931 0.8491 0.0
C331 C 0.74869 0.90782 0.86838 0.0
C332 C 0.6316 0.82231 0.84028 0.0
C333 C 0.68904 0.87361 0.84598 0.0
C334 C 0.6038 0.80367 0.82774 0.0
C335 C 0.60162 0.81712 0.80919 0.0
C336 C 0.65751 0.85448 0.83413 0.0
C337 C 0.62709 0.85017 0.80418 0.0
C338 C 0.71729 0.90241 0.83791 0.0
C339 C 0.71989 0.87898 0.87594 0.0
N340 N 0.65413 0.86753 0.81646 0.0
N341 N 0.69128 0.86277 0.86468 0.0
H342 H 0.1211 0.6533 0.81091 0.0
H343 H 0.08697 0.80699 0.83537 0.0
H344 H 0.13882 0.73217 0.76834 0.0
H345 H 0.0596 0.7226 0.87556 0.0
H346 H 0.10447 0.77917 0.81027 0.0
H347 H 0.09792 0.67796 0.83462 0.0
C348 C 0.12018 0.67583 0.80654 0.0
C349 C 0.13208 0.69073 0.78759 0.0
C350 C 0.09438 0.76658 0.82451 0.0
C351 C 0.1054 0.71909 0.81472 0.0
C352 C 0.08426 0.78242 0.83885 0.0
C353 C 0.07191 0.76722 0.85768 0.0
C354 C 0.0924 0.73537 0.82902 0.0
C355 C 0.06899 0.73533 0.86128 0.0
C356 C 0.1068 0.68984 0.82007 0.0
C357 C 0.13005 0.71984 0.78277 0.0
N358 N 0.07943 0.72063 0.84717 0.0
N359 N 0.11709 0.7331 0.79625 0.0
H360 H 0.933 0.53792 0.45304 0.0
H361 H 0.07706 0.67201 0.52571 0.0
H362 H 0.91233 0.57233 0.50923 0.0
H363 H 0.09788 0.63919 0.46899 0.0
H364 H 0.01656 0.63974 0.51841 0.0
H365 H 0.99325 0.57836 0.45726 0.0
C366 C 0.9411 0.55408 0.46623 0.0
C367 C 0.9176 0.55152 0.4809 0.0
C368 C 0.03435 0.63982 0.50747 0.0
C369 C 0.98661 0.59791 0.48582 0.0
C370 C 0.06895 0.65831 0.51161 0.0
C371 C 0.09258 0.65802 0.49803 0.0
C372 C 0.02324 0.62073 0.48966 0.0
C373 C 0.08057 0.63998 0.47995 0.0
C374 C 0.97553 0.57722 0.46861 0.0
C375 C 0.92957 0.57328 0.49761 0.0
N376 N 0.04671 0.62178 0.47638 0.0
N377 N 0.96327 0.5954 0.49968 0.0
H378 H 0.37023 0.49186 0.47816 0.0
H379 H 0.49718 0.41713 0.48332 0.0
H380 H 0.39843 0.46255 0.53329 0.0
H381 H 0.46974 0.44638 0.4279 0.0
H382 H 0.45848 0.43052 0.50152 0.0
H383 H 0.40451 0.47323 0.45931 0.0
C384 C 0.38364 0.48154 0.48633 0.0
C385 C 0.38148 0.47891 0.50739 0.0
C386 C 0.4607 0.43381 0.48536 0.0
C387 C 0.42075 0.45733 0.48582 0.0
C388 C 0.48275 0.42604 0.47492 0.0
C389 C 0.48689 0.43076 0.45402 0.0
C390 C 0.44262 0.44657 0.47491 0.0
C391 C 0.46741 0.44235 0.444 0.0
C392 C 0.40316 0.47082 0.47553 0.0
C393 C 0.39937 0.46519 0.5171 0.0
N394 N 0.44632 0.45008 0.45455 0.0
N395 N 0.41825 0.45499 0.50625 0.0
H396 H 0.68132 0.07166 0.47019 0.0
H397 H 0.49258 0.92821 0.49854 0.0
H398 H 0.59181 0.07537 0.45274 0.0
H399 H 0.58029 0.94368 0.53202 0.0
H400 H 0.52963 0.97557 0.47665 0.0
H401 H 0.6453 0.01897 0.48864 0.0
C402 C 0.65411 0.0614 0.47023 0.0
C403 C 0.63954 0.07805 0.46003 0.0
C404 C 0.54076 0.96837 0.48868 0.0
C405 C 0.59829 0.01764 0.48079 0.0
C406 C 0.51968 0.94115 0.50109 0.0
C407 C 0.53333 0.93216 0.51726 0.0
C408 C 0.57578 0.98653 0.49235 0.0
C409 C 0.56866 0.94993 0.51983 0.0
C410 C 0.63361 0.03136 0.48074 0.0
C411 C 0.60414 0.06356 0.46054 0.0
N412 N 0.58868 0.97642 0.50757 0.0
N413 N 0.58473 0.03414 0.4707 0.0
H414 H 0.091 0.202 0.12221 0.0
H415 H 0.89953 0.1249 0.14029 0.0
H416 H 0.03058 0.12802 0.16709 0.0
H417 H 0.95609 0.18331 0.08871 0.0
H418 H 0.95148 0.15198 0.16004 0.0
H419 H 0.04898 0.22083 0.1211 0.0
C420 C 0.06981 0.19101 0.13263 0.0
C421 C 0.06347 0.16277 0.14429 0.0
C422 C 0.95234 0.15983 0.14459 0.0
C423 C 0.01503 0.18321 0.14267 0.0
C424 C 0.92257 0.1444 0.13329 0.0
C425 C 0.92393 0.15056 0.11256 0.0
C426 C 0.98345 0.181 0.13492 0.0
C427 C 0.95429 0.17671 0.10447 0.0
C428 C 0.04562 0.20153 0.13188 0.0
C429 C 0.03575 0.14936 0.15752 0.0
N430 N 0.98314 0.1902 0.11549 0.0
N431 N 0.01197 0.15903 0.15595 0.0
H432 H 0.84245 0.96583 0.11564 0.0
H433 H 0.93629 0.87772 0.06024 0.0
H434 H 0.88951 0.99274 0.05698 0.0
H435 H 0.8961 0.85009 0.12042 0.0
H436 H 0.91215 0.91487 0.05789 0.0
H437 H 0.85558 0.9192 0.11705 0.0
C438 C 0.85525 0.96181 0.10302 0.0
C439 C 0.86517 0.9835 0.08625 0.0
C440 C 0.90826 0.90058 0.07162 0.0
C441 C 0.88005 0.93029 0.08772 0.0
C442 C 0.92201 0.87921 0.07293 0.0
C443 C 0.91847 0.86096 0.09061 0.0
C444 C 0.89104 0.90429 0.08819 0.0
C445 C 0.8994 0.86372 0.1065 0.0
C446 C 0.86276 0.93524 0.10385 0.0
C447 C 0.88167 0.97705 0.07034 0.0
N448 N 0.88674 0.88539 0.10502 0.0
N449 N 0.88861 0.95126 0.07152 0.0
H450 H 0.07065 0.01883 0.17473 0.0
H451 H 0.09574 0.88461 0.12013 0.0
H452 H 0.15592 0.04114 0.1364 0.0
H453 H 0.01473 0.8627 0.16207 0.0
H454 H 0.13053 0.93908 0.13674 0.0
H455 H 0.06354 0.96281 0.18152 0.0
C456 C 0.08875 0.01233 0.16839 0.0
C457 C 0.1134 0.03414 0.15465 0.0
C458 C 0.10558 0.92198 0.1428 0.0
C459 C 0.10437 0.96949 0.16143 0.0
C460 C 0.08573 0.89072 0.13335 0.0
C461 C 0.05183 0.86979 0.13923 0.0
C462 C 0.09102 0.93259 0.15785 0.0
C463 C 0.04045 0.87852 0.1567 0.0
C464 C 0.08459 0.98022 0.17216 0.0
C465 C 0.13633 0.02477 0.14691 0.0
N466 N 0.05958 0.90985 0.16498 0.0
N467 N 0.13055 0.99261 0.14986 0.0
H468 H 0.19372 0.91636 0.93628 0.0
H469 H 0.17963 0.01861 0.85061 0.0
H470 H 0.14495 0.87494 0.87951 0.0
H471 H 0.23203 0.06126 0.90611 0.0
H472 H 0.19068 0.97148 0.85427 0.0
H473 H 0.23009 0.97063 0.91988 0.0
C474 C 0.19139 0.91833 0.9202 0.0
C475 C 0.16514 0.89161 0.90943 0.0
C476 C 0.20105 0.99174 0.86531 0.0
C477 C 0.20604 0.95395 0.8907 0.0
C478 C 0.19505 0.01889 0.86306 0.0
C479 C 0.20431 0.04327 0.87832 0.0
C480 C 0.21508 0.98841 0.88337 0.0
C481 C 0.22413 0.0426 0.89415 0.0
C482 C 0.2122 0.94943 0.91082 0.0
C483 C 0.16406 0.89526 0.88856 0.0
N484 N 0.22778 0.01482 0.8967 0.0
N485 N 0.18338 0.92627 0.87999 0.0
H486 H 0.06389 0.05399 0.83673 0.0
H487 H 0.94889 0.1172 0.87678 0.0
H488 H 0.09861 0.14924 0.86769 0.0
H489 H 0.91557 0.02648 0.84123 0.0
H490 H 0.00423 0.14201 0.86049 0.0
H491 H 0.01426 0.05639 0.8253 0.0
C492 C 0.06154 0.07601 0.84057 0.0
C493 C 0.08465 0.10089 0.8537 0.0
C494 C 0.98454 0.11715 0.85565 0.0
C495 C 0.02722 0.10311 0.84146 0.0
C496 C 0.95277 0.10306 0.86488 0.0
C497 C 0.92824 0.06915 0.861 0.0
C498 C 0.99186 0.09671 0.84296 0.0
C499 C 0.93421 0.05233 0.84513 0.0
C500 C 0.03314 0.07739 0.83406 0.0
C501 C 0.08091 0.12918 0.85791 0.0
N502 N 0.96594 0.06576 0.83722 0.0
N503 N 0.05201 0.12897 0.85239 0.0
H504 H 0.98308 0.83043 0.89403 0.0
H505 H 0.87624 0.90201 0.88991 0.0
H506 H 0.0124 0.87947 0.95199 0.0
H507 H 0.93462 0.9615 0.94063 0.0
H508 H 0.9047 0.86827 0.89205 0.0
H509 H 0.94502 0.85373 0.88991 0.0
C510 C 0.98124 0.84576 0.90598 0.0
C511 C 0.00118 0.85308 0.92333 0.0
C512 C 0.9115 0.88876 0.90265 0.0
C513 C 0.95718 0.87957 0.91893 0.0
C514 C 0.89487 0.90783 0.90158 0.0
C515 C 0.90321 0.93487 0.915 0.0
C516 C 0.93668 0.89687 0.91728 0.0
C517 C 0.9275 0.94116 0.92983 0.0
C518 C 0.95926 0.85897 0.90368 0.0
C519 C 0.99779 0.87321 0.93828 0.0
N520 N 0.94334 0.92245 0.9305 0.0
N521 N 0.97649 0.8858 0.93566 0.0
H522 H 0.69149 0.46831 0.52931 0.0
H523 H 0.6856 0.56253 0.43983 0.0
H524 H 0.77844 0.55659 0.50483 0.0
H525 H 0.597 0.4869 0.4713 0.0
H526 H 0.71668 0.57806 0.47136 0.0
H527 H 0.65582 0.49171 0.51926 0.0
C528 C 0.7034 0.49348 0.52271 0.0
C529 C 0.73758 0.50957 0.51678 0.0
C530 C 0.69012 0.5588 0.47161 0.0
C531 C 0.69675 0.53569 0.50431 0.0
C532 C 0.67231 0.54996 0.45352 0.0
C533 C 0.63917 0.52228 0.45278 0.0
C534 C 0.67499 0.53896 0.48884 0.0
C535 C 0.62294 0.50763 0.47105 0.0
C536 C 0.6829 0.50676 0.51672 0.0
C537 C 0.75183 0.54255 0.50888 0.0
N538 N 0.64138 0.51524 0.48823 0.0
N539 N 0.7311 0.55387 0.50196 0.0
H540 H 0.6305 0.38113 0.44485 0.0
H541 H 0.63337 0.24272 0.38072 0.0
H542 H 0.55587 0.33577 0.39806 0.0
H543 H 0.63621 0.23397 0.44512 0.0
H544 H 0.60872 0.27986 0.38532 0.0
H545 H 0.63717 0.3305 0.44486 0.0
C546 C 0.61492 0.36006 0.43497 0.0
C547 C 0.59235 0.36222 0.4216 0.0
C548 C 0.61412 0.2692 0.3984 0.0
C549 C 0.60089 0.30537 0.4209 0.0
C550 C 0.62825 0.24819 0.3958 0.0
C551 C 0.63671 0.23532 0.41257 0.0
C552 C 0.60967 0.27832 0.4179 0.0
C553 C 0.62977 0.24325 0.43181 0.0
C554 C 0.61873 0.33132 0.43496 0.0
C555 C 0.57315 0.33467 0.40877 0.0
N556 N 0.61739 0.26497 0.43399 0.0
N557 N 0.57846 0.30763 0.40837 0.0
H558 H 0.84775 0.41345 0.4793 0.0
H559 H 0.7401 0.21422 0.47434 0.0
H560 H 0.7583 0.34978 0.51438 0.0
H561 H 0.81188 0.27838 0.42926 0.0
H562 H 0.76537 0.2614 0.49812 0.0
H563 H 0.85244 0.36327 0.47074 0.0
C564 C 0.82993 0.38916 0.4859 0.0
C565 C 0.80207 0.3855 0.49713 0.0
C566 C 0.77631 0.26484 0.48321 0.0
C567 C 0.80705 0.32816 0.48725 0.0
C568 C 0.762 0.23778 0.46961 0.0
C569 C 0.77292 0.2428 0.44948 0.0
C570 C 0.80153 0.29701 0.47657 0.0
C571 C 0.80186 0.27372 0.44444 0.0
C572 C 0.83249 0.36048 0.4809 0.0
C573 C 0.77973 0.35349 0.50529 0.0
N574 N 0.81454 0.30002 0.4577 0.0
N575 N 0.78228 0.32593 0.49985 0.0
H576 H 0.5826 0.22815 0.27002 0.0
H577 H 0.71533 0.4224 0.24396 0.0
H578 H 0.66487 0.2566 0.22778 0.0
H579 H 0.62563 0.38917 0.28066 0.0
H580 H 0.69974 0.36271 0.23876 0.0
H581 H 0.60131 0.28786 0.27566 0.0
C582 C 0.60482 0.24697 0.26201 0.0
C583 C 0.62205 0.23722 0.24831 0.0
C584 C 0.68351 0.36859 0.24792 0.0
C585 C 0.64358 0.30616 0.25461 0.0
C586 C 0.69233 0.40263 0.25085 0.0
C587 C 0.67179 0.4109 0.26279 0.0
C588 C 0.65405 0.3427 0.25705 0.0
C589 C 0.64231 0.38418 0.27135 0.0
C590 C 0.61544 0.28119 0.26519 0.0
C591 C 0.6508 0.26293 0.23848 0.0
N592 N 0.63443 0.35143 0.26836 0.0
N593 N 0.66058 0.29628 0.24174 0.0
H594 H 0.60988 0.53828 0.25563 0.0
H595 H 0.61145 0.48195 0.15018 0.0
H596 H 0.70002 0.56697 0.22027 0.0
H597 H 0.52143 0.46305 0.18268 0.0
H598 H 0.64331 0.5354 0.16816 0.0
H599 H 0.57916 0.53419 0.22493 0.0
C600 C 0.62356 0.5448 0.24148 0.0
C601 C 0.6571 0.55119 0.24043 0.0
C602 C 0.61629 0.52026 0.17093 0.0
C603 C 0.62177 0.54556 0.20511 0.0
C604 C 0.59792 0.48974 0.16042 0.0
C605 C 0.56436 0.46677 0.16611 0.0
C606 C 0.6009 0.52713 0.18733 0.0
C607 C 0.54788 0.47904 0.17871 0.0
C608 C 0.60594 0.54243 0.22385 0.0
C609 C 0.67372 0.56047 0.22172 0.0
N610 N 0.56667 0.50765 0.18972 0.0
N611 N 0.6556 0.55621 0.20472 0.0
H612 H 0.4683 0.25612 0.1736 0.0
H613 H 0.56592 0.15339 0.16553 0.0
H614 H 0.5706 0.29512 0.15172 0.0
H615 H 0.47409 0.12158 0.19982 0.0
H616 H 0.55521 0.19391 0.1476 0.0
H617 H 0.45945 0.19834 0.17108 0.0
C618 C 0.48862 0.25252 0.16776 0.0
C619 C 0.52058 0.28055 0.16341 0.0
C620 C 0.53683 0.17733 0.15862 0.0
C621 C 0.51056 0.21456 0.16048 0.0
C622 C 0.54276 0.15388 0.16878 0.0
C623 C 0.52178 0.13524 0.18495 0.0
C624 C 0.50978 0.18204 0.1647 0.0
C625 C 0.49169 0.13636 0.188 0.0
C626 C 0.48353 0.21951 0.16634 0.0
C627 C 0.54582 0.27431 0.15571 0.0
N628 N 0.48716 0.1603 0.17847 0.0
N629 N 0.54047 0.24205 0.15483 0.0
H630 H 0.27495 0.69632 0.76833 0.0
H631 H 0.45074 0.75563 0.76998 0.0
H632 H 0.27352 0.62873 0.72191 0.0
H633 H 0.43313 0.70217 0.71354 0.0
H634 H 0.38993 0.73517 0.77276 0.0
H635 H 0.33696 0.72519 0.76818 0.0
C636 C 0.28767 0.68752 0.75814 0.0
C637 C 0.26891 0.65988 0.74522 0.0
C638 C 0.39932 0.72836 0.75959 0.0
C639 C 0.33997 0.69233 0.74519 0.0
C640 C 0.43415 0.73989 0.75808 0.0
C641 C 0.44716 0.73059 0.74153 0.0
C642 C 0.3774 0.70742 0.74438 0.0
C643 C 0.42441 0.71 0.72661 0.0
C644 C 0.32318 0.70384 0.75818 0.0
C645 C 0.28676 0.64973 0.73226 0.0
N646 N 0.39079 0.69905 0.72847 0.0
N647 N 0.32112 0.6659 0.7326 0.0
H648 H 0.28992 0.53586 0.81962 0.0
H649 H 0.12214 0.48147 0.76713 0.0
H650 H 0.23153 0.43782 0.79157 0.0
H651 H 0.16994 0.56782 0.80697 0.0
H652 H 0.15041 0.45547 0.78473 0.0
H653 H 0.2383 0.53905 0.82425 0.0
C654 C 0.26591 0.51447 0.81504 0.0
C655 C 0.26489 0.48679 0.80495 0.0
C656 C 0.15388 0.47958 0.79013 0.0
C657 C 0.20584 0.49085 0.80927 0.0
C658 C 0.1375 0.49438 0.78012 0.0
C659 C 0.14489 0.52756 0.78501 0.0
C660 C 0.17819 0.49842 0.80483 0.0
C661 C 0.16431 0.54265 0.80226 0.0
C662 C 0.23636 0.51628 0.81763 0.0
C663 C 0.23327 0.45969 0.79933 0.0
N664 N 0.18131 0.52855 0.81109 0.0
N665 N 0.20507 0.46286 0.80099 0.0
H666 H 0.56262 0.65525 0.73495 0.0
H667 H 0.44432 0.56983 0.82197 0.0
H668 H 0.5661 0.70694 0.79026 0.0
H669 H 0.45811 0.51415 0.77376 0.0
H670 H 0.50228 0.6158 0.81707 0.0
H671 H 0.54038 0.60211 0.75348 0.0
C672 C 0.55974 0.65569 0.7511 0.0
C673 C 0.56469 0.68532 0.7609 0.0
C674 C 0.49334 0.59304 0.80802 0.0
C675 C 0.53836 0.62432 0.78216 0.0
C676 C 0.46027 0.56656 0.81104 0.0
C677 C 0.44642 0.53856 0.79802 0.0
C678 C 0.51191 0.59197 0.79131 0.0
C679 C 0.46793 0.53557 0.784 0.0
C680 C 0.54695 0.62521 0.76173 0.0
C681 C 0.56142 0.68446 0.78193 0.0
N682 N 0.49926 0.5626 0.78045 0.0
N683 N 0.54736 0.65423 0.79176 0.0
H684 H 0.39837 0.76691 0.60937 0.0
H685 H 0.39793 0.61089 0.5519 0.0
H686 H 0.46289 0.78096 0.55815 0.0
H687 H 0.32635 0.60084 0.59808 0.0
H688 H 0.42568 0.673 0.5554 0.0
H689 H 0.37514 0.70586 0.60673 0.0
C690 C 0.40771 0.7572 0.59753 0.0
C691 C 0.43259 0.77925 0.58392 0.0
C692 C 0.40398 0.6571 0.5648 0.0
C693 C 0.40592 0.7088 0.58081 0.0
C694 C 0.38825 0.62168 0.56288 0.0
C695 C 0.35967 0.60059 0.57466 0.0
C696 C 0.39114 0.67143 0.57867 0.0
C697 C 0.34814 0.61599 0.58859 0.0
C698 C 0.39438 0.72219 0.59603 0.0
C699 C 0.44366 0.76495 0.56893 0.0
N700 N 0.36385 0.65035 0.59016 0.0
N701 N 0.43023 0.73059 0.56776 0.0
H702 H 0.23727 0.81445 0.54547 0.0
H703 H 0.43339 0.91643 0.53528 0.0
H704 H 0.29716 0.80289 0.49903 0.0
H705 H 0.37516 0.90755 0.5887 0.0
H706 H 0.38293 0.8997 0.51504 0.0
H707 H 0.28455 0.87124 0.55274 0.0
C708 C 0.25961 0.82474 0.53594 0.0
C709 C 0.26376 0.80388 0.52193 0.0
C710 C 0.38146 0.90253 0.53113 0.0
C711 C 0.31814 0.86799 0.53057 0.0
C712 C 0.41033 0.91211 0.54275 0.0
C713 C 0.40806 0.91165 0.56383 0.0
C714 C 0.3502 0.89225 0.5407 0.0
C715 C 0.37777 0.90693 0.57254 0.0
C716 C 0.28682 0.857 0.54028 0.0
C717 C 0.29328 0.81818 0.51015 0.0
N718 N 0.34971 0.89635 0.56099 0.0
N719 N 0.31979 0.84902 0.51512 0.0
H720 H 0.28797 0.51997 0.50316 0.0
H721 H 0.16219 0.59163 0.51401 0.0
H722 H 0.19101 0.46846 0.53334 0.0
H723 H 0.26967 0.64967 0.50238 0.0
H724 H 0.16363 0.53928 0.50619 0.0
H725 H 0.2708 0.55722 0.48698 0.0
C726 C 0.26245 0.51535 0.5057 0.0
C727 C 0.24149 0.49212 0.52039 0.0
C728 C 0.18665 0.56359 0.50469 0.0
C729 C 0.22205 0.53511 0.50222 0.0
C730 C 0.18581 0.59343 0.50909 0.0
C731 C 0.21602 0.62479 0.50926 0.0
C732 C 0.21784 0.56541 0.50028 0.0
C733 C 0.24596 0.62583 0.50282 0.0
C734 C 0.25279 0.53695 0.49658 0.0
C735 C 0.20847 0.48694 0.52267 0.0
N736 N 0.24622 0.59654 0.49889 0.0
N737 N 0.20014 0.5091 0.51425 0.0
H738 H 0.16477 0.14617 0.05921 0.0
H739 H 0.08365 0.04802 0.95619 0.0
H740 H 0.06341 0.06068 0.0538 0.0
H741 H 0.17893 0.14222 0.95823 0.0
H742 H 0.07716 0.05204 0.99224 0.0
H743 H 0.17179 0.14492 0.02266 0.0
C744 C 0.14399 0.12717 0.05038 0.0
C745 C 0.11345 0.10345 0.05966 0.0
C746 C 0.09948 0.07195 0.98486 0.0
C747 C 0.12139 0.10187 0.01785 0.0
C748 C 0.10325 0.06965 0.9642 0.0
C749 C 0.13194 0.0948 0.95408 0.0
C750 C 0.12465 0.0995 0.9957 0.0
C751 C 0.15637 0.12227 0.96538 0.0
C752 C 0.14802 0.12653 0.02951 0.0
C753 C 0.08742 0.07949 0.04739 0.0
N754 N 0.15226 0.12381 0.98561 0.0
N755 N 0.09204 0.07927 0.02722 0.0
H756 H 0.77443 0.9615 0.95048 0.0
H757 H 0.80713 0.10666 0.02455 0.0
H758 H 0.82422 0.06841 0.93683 0.0
H759 H 0.76381 0.00151 0.04141 0.0
H760 H 0.78844 0.08919 0.99009 0.0
H761 H 0.7477 0.97167 0.97989 0.0
C762 C 0.77849 0.98684 0.95322 0.0
C763 C 0.80186 0.01432 0.9416 0.0
C764 C 0.78188 0.06973 0.0014 0.0
C765 C 0.7722 0.0263 0.97514 0.0
C766 C 0.79225 0.07977 0.02113 0.0
C767 C 0.78759 0.05547 0.03561 0.0
C768 C 0.76818 0.03532 0.99607 0.0
C769 C 0.76819 0.021 0.03052 0.0
C770 C 0.76342 0.99272 0.97003 0.0
C771 C 0.80663 0.0467 0.94571 0.0
N772 N 0.76028 0.01189 0.01094 0.0
N773 N 0.79245 0.05192 0.96236 0.0
H774 H 0.98762 0.72482 0.95926 0.0
H775 H 0.01368 0.73875 0.07556 0.0
H776 H 0.08161 0.75689 0.99039 0.0
H777 H 0.92867 0.73387 0.04434 0.0
H778 H 0.02718 0.71577 0.04577 0.0
H779 H 0.95661 0.69896 0.99041 0.0
C780 C 0.00166 0.72481 0.97237 0.0
C781 C 0.03719 0.74365 0.97248 0.0
C782 C 0.00467 0.71828 0.04568 0.0
C783 C 0.00209 0.71492 0.00811 0.0
C784 C 0.99677 0.73104 0.06278 0.0
C785 C 0.97016 0.73825 0.06225 0.0
C786 C 0.98624 0.71357 0.0279 0.0
C787 C 0.9494 0.72857 0.04524 0.0
C788 C 0.98395 0.71036 0.99022 0.0
C789 C 0.05417 0.74307 0.98987 0.0
N790 N 0.95838 0.71752 0.0285 0.0
N791 N 0.03651 0.72974 0.00714 0.0
H792 H 0.77421 0.50674 0.31969 0.0
H793 H 0.79861 0.54023 0.43612 0.0
H794 H 0.7218 0.55251 0.34917 0.0
H795 H 0.75525 0.4378 0.4134 0.0
H796 H 0.79329 0.55941 0.40245 0.0
H797 H 0.79144 0.49667 0.35274 0.0
C798 C 0.76739 0.51578 0.33306 0.0
C799 C 0.74664 0.53056 0.33177 0.0
C800 C 0.78547 0.53289 0.40489 0.0
C801 C 0.76645 0.51939 0.36925 0.0
C802 C 0.78856 0.52194 0.42395 0.0
C803 C 0.77728 0.4874 0.42742 0.0
C804 C 0.77215 0.50928 0.38917 0.0
C805 C 0.76409 0.4646 0.41127 0.0
C806 C 0.77691 0.50969 0.35181 0.0
C807 C 0.73786 0.54112 0.34958 0.0
N808 N 0.76209 0.476 0.39273 0.0
N809 N 0.74783 0.53532 0.36767 0.0
H810 H 0.49288 0.36814 0.25376 0.0
H811 H 0.62818 0.48326 0.33708 0.0
H812 H 0.60155 0.41876 0.24578 0.0
H813 H 0.52266 0.41626 0.35148 0.0
H814 H 0.61636 0.46574 0.30209 0.0
H815 H 0.50137 0.38941 0.28845 0.0
C816 C 0.51849 0.38349 0.25931 0.0
C817 C 0.54654 0.39155 0.2468 0.0
C818 C 0.59571 0.45502 0.31283 0.0
C819 C 0.55632 0.41648 0.28629 0.0
C820 C 0.60236 0.46522 0.33284 0.0
C821 C 0.57642 0.451 0.34733 0.0
C822 C 0.5629 0.43029 0.30711 0.0
C823 C 0.54343 0.4279 0.34082 0.0
C824 C 0.52327 0.39573 0.27908 0.0
C825 C 0.57911 0.4117 0.25481 0.0
N826 N 0.53765 0.41796 0.32119 0.0
N827 N 0.58305 0.42355 0.27395 0.0
H828 H 0.62545 0.08864 0.3787 0.0
H829 H 0.63961 0.09237 0.2602 0.0
H830 H 0.71741 0.14676 0.34436 0.0
H831 H 0.54733 0.06233 0.29369 0.0
H832 H 0.66675 0.08921 0.29101 0.0
H833 H 0.59708 0.05729 0.34822 0.0
C834 C 0.64003 0.09406 0.36491 0.0
C835 C 0.67359 0.12105 0.36391 0.0
C836 C 0.64027 0.08237 0.2915 0.0
C837 C 0.64124 0.08535 0.32908 0.0
C838 C 0.62466 0.08407 0.27388 0.0
C839 C 0.59151 0.07894 0.27451 0.0
C840 C 0.62258 0.07548 0.30981 0.0
C841 C 0.57323 0.06746 0.2926 0.0
C842 C 0.62374 0.07621 0.3475 0.0
C843 C 0.69127 0.12671 0.34568 0.0
N844 N 0.58929 0.06696 0.30967 0.0
N845 N 0.6747 0.10948 0.32889 0.0
H846 H 0.57847 0.90807 0.607 0.0
H847 H 0.59118 0.87125 0.72168 0.0
H848 H 0.52991 0.93046 0.65602 0.0
H849 H 0.60582 0.81889 0.67161 0.0
H850 H 0.59341 0.91396 0.69845 0.0
H851 H 0.61259 0.89794 0.63128 0.0
C852 C 0.57583 0.91213 0.62281 0.0
C853 C 0.55043 0.91898 0.62954 0.0
C854 C 0.59718 0.89369 0.69265 0.0
C855 C 0.5893 0.90724 0.65731 0.0
C856 C 0.59605 0.86931 0.7059 0.0
C857 C 0.59722 0.84083 0.69847 0.0
C858 C 0.5997 0.88959 0.6719 0.0
C859 C 0.60391 0.83996 0.67791 0.0
C860 C 0.59524 0.90615 0.63667 0.0
C861 C 0.54853 0.92431 0.6502 0.0
N862 N 0.60418 0.86357 0.66527 0.0
N863 N 0.56712 0.91754 0.66341 0.0
H864 H 0.22499 0.72305 0.61234 0.0
H865 H 0.09649 0.58017 0.68095 0.0
H866 H 0.12748 0.64912 0.58878 0.0
H867 H 0.1632 0.68022 0.70471 0.0
H868 H 0.10412 0.60471 0.64732 0.0
H869 H 0.20193 0.7081 0.64644 0.0
C870 C 0.19863 0.70384 0.61437 0.0
C871 C 0.17819 0.68701 0.59777 0.0
C872 C 0.11625 0.62144 0.65998 0.0
C873 C 0.15176 0.66957 0.6367 0.0
C874 C 0.11177 0.60748 0.67918 0.0
C875 C 0.12949 0.62817 0.69557 0.0
C876 C 0.13938 0.65612 0.65714 0.0
C877 C 0.1491 0.66336 0.69247 0.0
C878 C 0.18541 0.69554 0.6338 0.0
C879 C 0.14411 0.66259 0.60121 0.0
N880 N 0.15436 0.67613 0.6735 0.0
N881 N 0.13211 0.65405 0.62034 0.0
H882 H 0.25683 0.41188 0.62337 0.0
H883 H 0.30271 0.4098 0.7228 0.0
H884 H 0.36333 0.47955 0.61247 0.0
H885 H 0.37738 0.51264 0.70712 0.0
H886 H 0.29425 0.39542 0.68681 0.0
H887 H 0.26944 0.40668 0.65841 0.0
C888 C 0.28303 0.42459 0.62819 0.0
C889 C 0.30907 0.44627 0.61504 0.0
C890 C 0.3126 0.42104 0.69132 0.0
C891 C 0.32363 0.44107 0.65519 0.0
C892 C 0.31756 0.42921 0.7118 0.0
C893 C 0.3403 0.46263 0.71789 0.0
C894 C 0.33093 0.4464 0.67695 0.0
C895 C 0.3591 0.48675 0.70306 0.0
C896 C 0.29024 0.42159 0.64821 0.0
C897 C 0.34253 0.46246 0.62209 0.0
N898 N 0.35395 0.47817 0.6833 0.0
N899 N 0.34875 0.46037 0.64186 0.0
loop_
_geom_bond_atom_site_label_1
_geom_bond_atom_site_label_2
_geom_bond_distance
_geom_bond_site_symmetry_2
_ccdc_geom_bond_type
Zn0 O3 2.031 . S
Zn0 O5 2.049 . S
Zn0 O10 2.067 . S
Zn1 O2 1.962 . S
Zn1 O4 1.986 . S
Zn1 O6 1.996 . S
Zn1 O9 1.943 . S
O2 Zn1 1.962 . S
O2 C7 1.254 . S
O3 Zn0 2.031 . S
O3 C7 1.269 . S
O4 Zn1 1.986 . S
O4 C11 1.262 . S
O5 Zn0 2.049 . S
O5 C13 1.260 . S
O6 Zn1 1.996 . S
O6 C13 1.257 . S
C7 O2 1.254 . S
C7 O3 1.269 . S
C8 O9 1.249 . S
C8 O10 1.270 . S
O9 Zn1 1.943 . S
O9 C8 1.249 . S
O10 Zn0 2.067 . S
O10 C8 1.270 . S
C11 O4 1.262 . S
C11 O12 1.232 . S
O12 C11 1.232 . S
C13 O5 1.260 . S
C13 O6 1.257 . S
Zn14 O17 2.031 1_565 S
Zn14 O19 2.049 . S
Zn14 O24 2.067 . S
Zn15 O16 1.962 . S
Zn15 O18 1.986 . S
Zn15 O20 1.996 . S
Zn15 O23 1.943 1_545 S
O16 Zn15 1.962 . S
O16 C21 1.254 . S
O17 Zn14 2.031 1_545 S
O17 C21 1.269 . S
O18 Zn15 1.986 . S
O18 C25 1.262 . S
O19 Zn14 2.049 . S
O19 C27 1.260 . S
O20 Zn15 1.996 . S
O20 C27 1.257 1_545 S
C21 O16 1.254 . S
C21 O17 1.269 . S
C22 O23 1.249 . S
C22 O24 1.270 . S
O23 Zn15 1.943 1_565 S
O23 C22 1.249 . S
O24 Zn14 2.067 . S
O24 C22 1.270 . S
C25 O18 1.262 . S
C25 O26 1.232 . S
O26 C25 1.232 . S
C27 O19 1.260 . S
C27 O20 1.257 1_565 S
Zn28 O31 2.012 1_455 S
Zn28 O33 2.071 . S
Zn28 O38 2.099 . S
Zn29 O30 1.962 . S
Zn29 O32 1.986 . S
Zn29 O34 1.996 . S
Zn29 O37 1.943 1_655 S
O30 Zn29 1.962 . S
O30 C35 1.254 . S
O31 Zn28 2.012 1_655 S
O31 C35 1.269 . S
O32 Zn29 1.986 . S
O32 C39 1.262 . S
O33 Zn28 2.071 . S
O33 C41 1.260 . S
O34 Zn29 1.996 . S
O34 C41 1.257 1_655 S
C35 O30 1.254 . S
C35 O31 1.269 . S
C36 O37 1.249 . S
C36 O38 1.270 . S
O37 Zn29 1.943 1_455 S
O37 C36 1.249 . S
O38 Zn28 2.099 . S
O38 C36 1.270 . S
C39 O32 1.262 . S
C39 O40 1.232 . S
O40 C39 1.232 . S
C41 O33 1.260 . S
C41 O34 1.257 1_455 S
Zn42 O45 2.031 . S
Zn42 O47 2.049 . S
Zn42 O52 2.067 . S
Zn43 O44 1.962 . S
Zn43 O46 1.986 . S
Zn43 O48 1.996 . S
Zn43 O51 1.943 . S
O44 Zn43 1.962 . S
O44 C49 1.254 . S
O45 Zn42 2.031 . S
O45 C49 1.269 . S
O46 Zn43 1.986 . S
O46 C53 1.262 . S
O47 Zn42 2.049 . S
O47 C55 1.260 . S
O48 Zn43 1.996 . S
O48 C55 1.257 . S
C49 O44 1.254 . S
C49 O45 1.269 . S
C50 O51 1.249 . S
C50 O52 1.270 . S
O51 Zn43 1.943 . S
O51 C50 1.249 . S
O52 Zn42 2.067 . S
O52 C50 1.270 . S
C53 O46 1.262 . S
C53 O54 1.232 . S
O54 C53 1.232 . S
C55 O47 1.260 . S
C55 O48 1.257 . S
Zn56 O59 2.012 1_545 S
Zn56 O61 2.071 . S
Zn56 O66 2.099 . S
Zn57 O58 1.962 . S
Zn57 O60 1.986 . S
Zn57 O62 1.996 . S
Zn57 O65 1.943 1_565 S
O58 Zn57 1.962 . S
O58 C63 1.254 . S
O59 Zn56 2.012 1_565 S
O59 C63 1.269 . S
O60 Zn57 1.986 . S
O60 C67 1.262 . S
O61 Zn56 2.071 . S
O61 C69 1.260 . S
O62 Zn57 1.996 . S
O62 C69 1.257 1_565 S
C63 O58 1.254 . S
C63 O59 1.269 . S
C64 O65 1.249 . S
C64 O66 1.270 . S
O65 Zn57 1.943 1_545 S
O65 C64 1.249 . S
O66 Zn56 2.099 . S
O66 C64 1.270 . S
C67 O60 1.262 . S
C67 O68 1.232 . S
O68 C67 1.232 . S
C69 O61 1.260 . S
C69 O62 1.257 1_545 S
Zn70 O73 2.031 1_655 S
Zn70 O75 2.049 . S
Zn70 O80 2.067 . S
Zn71 O72 1.962 . S
Zn71 O74 1.986 . S
Zn71 O76 1.996 . S
Zn71 O79 1.943 1_455 S
O72 Zn71 1.962 . S
O72 C77 1.254 . S
O73 Zn70 2.031 1_455 S
O73 C77 1.269 . S
O74 Zn71 1.986 . S
O74 C81 1.262 . S
O75 Zn70 2.049 . S
O75 C83 1.260 . S
O76 Zn71 1.996 . S
O76 C83 1.257 1_455 S
C77 O72 1.254 . S
C77 O73 1.269 . S
C78 O79 1.249 . S
C78 O80 1.270 . S
O79 Zn71 1.943 1_655 S
O79 C78 1.249 . S
O80 Zn70 2.067 . S
O80 C78 1.270 . S
C81 O74 1.262 . S
C81 O82 1.232 . S
O82 C81 1.232 . S
C83 O75 1.260 . S
C83 O76 1.257 1_655 S
Zn84 O87 2.031 . S
Zn84 O89 2.049 . S
Zn84 O94 2.067 . S
Zn85 O86 1.962 . S
Zn85 O88 1.986 . S
Zn85 O90 1.996 . S
Zn85 O93 1.943 . S
O86 Zn85 1.962 . S
O86 C91 1.254 . S
O87 Zn84 2.031 . S
O87 C91 1.269 . S
O88 Zn85 1.986 . S
O88 C95 1.262 . S
O89 Zn84 2.049 . S
O89 C97 1.260 . S
O90 Zn85 1.996 . S
O90 C97 1.257 . S
C91 O86 1.254 . S
C91 O87 1.269 . S
C92 O93 1.249 . S
C92 O94 1.270 . S
O93 Zn85 1.943 . S
O93 C92 1.249 . S
O94 Zn84 2.067 . S
O94 C92 1.270 . S
C95 O88 1.262 . S
C95 O96 1.232 . S
O96 C95 1.232 . S
C97 O89 1.260 . S
C97 O90 1.257 . S
Zn98 O101 2.031 . S
Zn98 O103 2.049 . S
Zn98 O108 2.067 . S
Zn99 O100 1.962 . S
Zn99 O102 1.986 . S
Zn99 O104 1.996 . S
Zn99 O107 1.943 . S
O100 Zn99 1.962 . S
O100 C105 1.254 . S
O101 Zn98 2.031 . S
O101 C105 1.269 . S
O102 Zn99 1.986 . S
O102 C109 1.262 . S
O103 Zn98 2.049 . S
O103 C111 1.260 . S
O104 Zn99 1.996 . S
O104 C111 1.257 . S
C105 O100 1.254 . S
C105 O101 1.269 . S
C106 O107 1.249 . S
C106 O108 1.270 . S
O107 Zn99 1.943 . S
O107 C106 1.249 . S
O108 Zn98 2.067 . S
O108 C106 1.270 . S
C109 O102 1.262 . S
C109 O110 1.232 . S
O110 C109 1.232 . S
C111 O103 1.260 . S
C111 O104 1.257 . S
Zn112 O115 2.031 . S
Zn112 O117 2.049 . S
Zn112 O122 2.067 . S
Zn113 O114 1.962 . S
Zn113 O116 1.986 . S
Zn113 O118 1.996 . S
Zn113 O121 1.943 . S
O114 Zn113 1.962 . S
O114 C119 1.254 . S
O115 Zn112 2.031 . S
O115 C119 1.269 . S
O116 Zn113 1.986 . S
O116 C123 1.262 . S
O117 Zn112 2.049 . S
O117 C125 1.260 . S
O118 Zn113 1.996 . S
O118 C125 1.257 . S
C119 O114 1.254 . S
C119 O115 1.269 . S
C120 O121 1.249 . S
C120 O122 1.270 . S
O121 Zn113 1.943 . S
O121 C120 1.249 . S
O122 Zn112 2.067 . S
O122 C120 1.270 . S
C123 O116 1.262 . S
C123 O124 1.232 . S
O124 C123 1.232 . S
C125 O117 1.260 . S
C125 O118 1.257 . S
Zn126 O129 2.031 . S
Zn126 O131 2.049 . S
Zn126 O136 2.067 . S
Zn127 O128 1.962 . S
Zn127 O130 1.986 . S
Zn127 O132 1.996 . S
Zn127 O135 1.943 . S
O128 Zn127 1.962 . S
O128 C133 1.254 . S
O129 Zn126 2.031 . S
O129 C133 1.269 . S
O130 Zn127 1.986 . S
O130 C137 1.262 . S
O131 Zn126 2.049 . S
O131 C139 1.260 . S
O132 Zn127 1.996 . S
O132 C139 1.257 . S
C133 O128 1.254 . S
C133 O129 1.269 . S
C134 O135 1.249 . S
C134 O136 1.270 . S
O135 Zn127 1.943 . S
O135 C134 1.249 . S
O136 Zn126 2.067 . S
O136 C134 1.270 . S
C137 O130 1.262 . S
C137 O138 1.232 . S
O138 C137 1.232 . S
C139 O131 1.260 . S
C139 O132 1.257 . S
Zn140 O143 2.031 . S
Zn140 O145 2.049 . S
Zn140 O150 2.067 . S
Zn141 O142 1.962 . S
Zn141 O144 1.986 . S
Zn141 O146 1.996 . S
Zn141 O149 1.943 . S
O142 Zn141 1.962 . S
O142 C147 1.254 . S
O143 Zn140 2.031 . S
O143 C147 1.269 . S
O144 Zn141 1.986 . S
O144 C151 1.262 . S
O145 Zn140 2.049 . S
O145 C153 1.260 . S
O146 Zn141 1.996 . S
O146 C153 1.257 . S
C147 O142 1.254 . S
C147 O143 1.269 . S
C148 O149 1.249 . S
C148 O150 1.270 . S
O149 Zn141 1.943 . S
O149 C148 1.249 . S
O150 Zn140 2.067 . S
O150 C148 1.270 . S
C151 O144 1.262 . S
C151 O152 1.232 . S
O152 C151 1.232 . S
C153 O145 1.260 . S
C153 O146 1.257 . S
Zn154 O157 2.031 . S
Zn154 O159 2.049 . S
Zn154 O164 2.067 . S
Zn155 O156 1.962 . S
Zn155 O158 1.986 . S
Zn155 O160 1.996 . S
Zn155 O163 1.943 . S
O156 Zn155 1.962 . S
O156 C161 1.254 . S
O157 Zn154 2.031 . S
O157 C161 1.269 . S
O158 Zn155 1.986 . S
O158 C165 1.262 . S
O159 Zn154 2.049 . S
O159 C167 1.260 . S
O160 Zn155 1.996 . S
O160 C167 1.257 . S
C161 O156 1.254 . S
C161 O157 1.269 . S
C162 O163 1.249 . S
C162 O164 1.270 . S
O163 Zn155 1.943 . S
O163 C162 1.249 . S
O164 Zn154 2.067 . S
O164 C162 1.270 . S
C165 O158 1.262 . S
C165 O166 1.232 . S
O166 C165 1.232 . S
C167 O159 1.260 . S
C167 O160 1.257 . S
Zn168 O171 2.031 . S
Zn168 O173 2.049 . S
Zn168 O178 2.067 . S
Zn169 O170 1.962 . S
Zn169 O172 1.986 . S
Zn169 O174 1.996 . S
Zn169 O177 1.943 . S
O170 Zn169 1.962 . S
O170 C175 1.254 . S
O171 Zn168 2.031 . S
O171 C175 1.269 . S
O172 Zn169 1.986 . S
O172 C179 1.262 . S
O173 Zn168 2.049 . S
O173 C181 1.260 . S
O174 Zn169 1.996 . S
O174 C181 1.257 . S
C175 O170 1.254 . S
C175 O171 1.269 . S
C176 O177 1.249 . S
C176 O178 1.270 . S
O177 Zn169 1.943 . S
O177 C176 1.249 . S
O178 Zn168 2.067 . S
O178 C176 1.270 . S
C179 O172 1.262 . S
C179 O180 1.232 . S
O180 C179 1.232 . S
C181 O173 1.260 . S
C181 O174 1.257 . S
Zn182 O185 2.031 . S
Zn182 O187 2.049 . S
Zn182 O192 2.067 . S
Zn183 O184 1.962 . S
Zn183 O186 1.986 . S
Zn183 O188 1.996 . S
Zn183 O191 1.943 . S
O184 Zn183 1.962 . S
O184 C189 1.254 . S
O185 Zn182 2.031 . S
O185 C189 1.269 . S
O186 Zn183 1.986 . S
O186 C193 1.262 . S
O187 Zn182 2.049 . S
O187 C195 1.260 . S
O188 Zn183 1.996 . S
O188 C195 1.257 . S
C189 O184 1.254 . S
C189 O185 1.269 . S
C190 O191 1.249 . S
C190 O192 1.270 . S
O191 Zn183 1.943 . S
O191 C190 1.249 . S
O192 Zn182 2.067 . S
O192 C190 1.270 . S
C193 O186 1.262 . S
C193 O194 1.232 . S
O194 C193 1.232 . S
C195 O187 1.260 . S
C195 O188 1.257 . S
Zn196 O199 2.031 . S
Zn196 O201 2.049 . S
Zn196 O206 2.067 . S
Zn197 O198 1.962 . S
Zn197 O200 1.986 . S
Zn197 O202 1.996 . S
Zn197 O205 1.943 . S
O198 Zn197 1.962 . S
O198 C203 1.254 . S
O199 Zn196 2.031 . S
O199 C203 1.269 . S
O200 Zn197 1.986 . S
O200 C207 1.262 . S
O201 Zn196 2.049 . S
O201 C209 1.260 . S
O202 Zn197 1.996 . S
O202 C209 1.257 . S
C203 O198 1.254 . S
C203 O199 1.269 . S
C204 O205 1.249 . S
C204 O206 1.270 . S
O205 Zn197 1.943 . S
O205 C204 1.249 . S
O206 Zn196 2.067 . S
O206 C204 1.270 . S
C207 O200 1.262 . S
C207 O208 1.232 . S
O208 C207 1.232 . S
C209 O201 1.260 . S
C209 O202 1.257 . S
Zn210 O213 2.031 . S
Zn210 O215 2.049 . S
Zn210 O220 2.067 . S
Zn211 O212 1.962 . S
Zn211 O214 1.986 . S
Zn211 O216 1.996 . S
Zn211 O219 1.943 . S
O212 Zn211 1.962 . S
O212 C217 1.254 . S
O213 Zn210 2.031 . S
O213 C217 1.269 . S
O214 Zn211 1.986 . S
O214 C221 1.262 . S
O215 Zn210 2.049 . S
O215 C223 1.260 . S
O216 Zn211 1.996 . S
O216 C223 1.257 . S
C217 O212 1.254 . S
C217 O213 1.269 . S
C218 O219 1.249 . S
C218 O220 1.270 . S
O219 Zn211 1.943 . S
O219 C218 1.249 . S
O220 Zn210 2.067 . S
O220 C218 1.270 . S
C221 O214 1.262 . S
C221 O222 1.232 . S
O222 C221 1.232 . S
C223 O215 1.260 . S
C223 O216 1.257 . S
Zn224 O227 2.031 . S
Zn224 O229 2.049 . S
Zn224 O234 2.067 . S
Zn225 O226 1.962 . S
Zn225 O228 1.986 . S
Zn225 O230 1.996 . S
Zn225 O233 1.943 . S
O226 Zn225 1.962 . S
O226 C231 1.254 . S
O227 Zn224 2.031 . S
O227 C231 1.269 . S
O228 Zn225 1.986 . S
O228 C235 1.262 . S
O229 Zn224 2.049 . S
O229 C237 1.260 . S
O230 Zn225 1.996 . S
O230 C237 1.257 . S
C231 O226 1.254 . S
C231 O227 1.269 . S
C232 O233 1.249 . S
C232 O234 1.270 . S
O233 Zn225 1.943 . S
O233 C232 1.249 . S
O234 Zn224 2.067 . S
O234 C232 1.270 . S
C235 O228 1.262 . S
C235 O236 1.232 . S
O236 C235 1.232 . S
C237 O229 1.260 . S
C237 O230 1.257 . S
Zn238 O241 2.031 . S
Zn238 O243 2.049 . S
Zn238 O248 2.067 . S
Zn239 O240 1.962 . S
Zn239 O242 1.986 . S
Zn239 O244 1.996 . S
Zn239 O247 1.943 . S
O240 Zn239 1.962 . S
O240 C245 1.254 . S
O241 Zn238 2.031 . S
O241 C245 1.269 . S
O242 Zn239 1.986 . S
O242 C249 1.262 . S
O243 Zn238 2.049 . S
O243 C251 1.260 . S
O244 Zn239 1.996 . S
O244 C251 1.257 . S
C245 O240 1.254 . S
C245 O241 1.269 . S
C246 O247 1.249 . S
C246 O248 1.270 . S
O247 Zn239 1.943 . S
O247 C246 1.249 . S
O248 Zn238 2.067 . S
O248 C246 1.270 . S
C249 O242 1.262 . S
C249 O250 1.232 . S
O250 C249 1.232 . S
C251 O243 1.260 . S
C251 O244 1.257 . S
H252 C258 0.930 . S
H253 C262 0.930 . S
H254 C267 0.929 . S
H255 C265 0.929 . S
H256 C260 0.929 . S
H257 C266 0.929 . S
C258 H252 0.930 . S
C258 C259 1.367 . S
C258 C266 1.378 . S
C259 C258 1.367 . S
C259 C267 1.433 . S
C260 H256 0.929 . S
C260 C262 1.378 . S
C260 C264 1.350 . S
C261 C264 1.463 . S
C261 C266 1.350 . S
C261 N269 1.427 . S
C262 H253 0.930 . S
C262 C260 1.378 . S
C262 C263 1.367 . S
C263 C262 1.367 . S
C263 C265 1.433 . S
C264 C260 1.350 . S
C264 C261 1.463 . S
C264 N268 1.427 . S
C265 H255 0.929 . S
C265 C263 1.433 . S
C265 N268 1.384 . S
C266 H257 0.929 . S
C266 C258 1.378 . S
C266 C261 1.350 . S
C267 H254 0.929 . S
C267 C259 1.433 . S
C267 N269 1.384 . S
N268 C264 1.427 . S
N268 C265 1.384 . S
N269 C261 1.427 . S
N269 C267 1.384 . S
H270 C276 0.930 1_565 S
H271 C280 0.930 . S
H272 C285 0.929 . S
H273 C283 0.929 . S
H274 C278 0.929 . S
H275 C284 0.929 . S
C276 H270 0.930 1_545 S
C276 C277 1.367 . S
C276 C284 1.378 . S
C277 C276 1.367 . S
C277 C285 1.433 . S
C278 H274 0.929 . S
C278 C280 1.378 . S
C278 C282 1.350 . S
C279 C282 1.463 . S
C279 C284 1.350 . S
C279 N287 1.427 . S
C280 H271 0.930 . S
C280 C278 1.378 . S
C280 C281 1.367 . S
C281 C280 1.367 . S
C281 C283 1.433 . S
C282 C278 1.350 . S
C282 C279 1.463 . S
C282 N286 1.427 . S
C283 H273 0.929 . S
C283 C281 1.433 . S
C283 N286 1.384 . S
C284 H275 0.929 . S
C284 C276 1.378 . S
C284 C279 1.350 . S
C285 H272 0.929 . S
C285 C277 1.433 . S
C285 N287 1.384 . S
N286 C282 1.427 . S
N286 C283 1.384 . S
N287 C279 1.427 . S
N287 C285 1.384 . S
H288 C294 0.930 . S
H289 C298 0.930 . S
H290 C303 0.929 . S
H291 C301 0.929 . S
H292 C296 0.929 . S
H293 C302 0.929 . S
C294 H288 0.930 . S
C294 C295 1.367 . S
C294 C302 1.378 . S
C295 C294 1.367 . S
C295 C303 1.433 . S
C296 H292 0.929 . S
C296 C298 1.378 . S
C296 C300 1.350 . S
C297 C300 1.463 . S
C297 C302 1.350 . S
C297 N305 1.427 . S
C298 H289 0.930 . S
C298 C296 1.378 . S
C298 C299 1.367 . S
C299 C298 1.367 . S
C299 C301 1.433 . S
C300 C296 1.350 . S
C300 C297 1.463 . S
C300 N304 1.427 . S
C301 H291 0.929 . S
C301 C299 1.433 . S
C301 N304 1.384 . S
C302 H293 0.929 . S
C302 C294 1.378 . S
C302 C297 1.350 . S
C303 H290 0.929 . S
C303 C295 1.433 . S
C303 N305 1.384 . S
N304 C300 1.427 . S
N304 C301 1.384 . S
N305 C297 1.427 . S
N305 C303 1.384 . S
H306 C312 0.930 . S
H307 C316 0.930 . S
H308 C321 0.929 . S
H309 C319 0.929 . S
H310 C314 0.929 . S
H311 C320 0.929 . S
C312 H306 0.930 . S
C312 C313 1.367 . S
C312 C320 1.378 . S
C313 C312 1.367 . S
C313 C321 1.433 . S
C314 H310 0.929 . S
C314 C316 1.378 . S
C314 C318 1.350 . S
C315 C318 1.463 . S
C315 C320 1.350 . S
C315 N323 1.427 . S
C316 H307 0.930 . S
C316 C314 1.378 . S
C316 C317 1.367 . S
C317 C316 1.367 . S
C317 C319 1.433 . S
C318 C314 1.350 . S
C318 C315 1.463 . S
C318 N322 1.427 . S
C319 H309 0.929 . S
C319 C317 1.433 . S
C319 N322 1.384 . S
C320 H311 0.929 . S
C320 C312 1.378 . S
C320 C315 1.350 . S
C321 H308 0.929 . S
C321 C313 1.433 . S
C321 N323 1.384 . S
N322 C318 1.427 . S
N322 C319 1.384 . S
N323 C315 1.427 . S
N323 C321 1.384 . S
H324 C330 0.930 1_545 S
H325 C334 0.930 . S
H326 C339 0.929 . S
H327 C337 0.929 . S
H328 C332 0.929 . S
H329 C338 0.929 . S
C330 H324 0.930 1_565 S
C330 C331 1.367 . S
C330 C338 1.378 . S
C331 C330 1.367 . S
C331 C339 1.433 . S
C332 H328 0.929 . S
C332 C334 1.378 . S
C332 C336 1.350 . S
C333 C336 1.463 . S
C333 C338 1.350 . S
C333 N341 1.427 . S
C334 H325 0.930 . S
C334 C332 1.378 . S
C334 C335 1.367 . S
C335 C334 1.367 . S
C335 C337 1.433 . S
C336 C332 1.350 . S
C336 C333 1.463 . S
C336 N340 1.427 . S
C337 H327 0.929 . S
C337 C335 1.433 . S
C337 N340 1.384 . S
C338 H329 0.929 . S
C338 C330 1.378 . S
C338 C333 1.350 . S
C339 H326 0.929 . S
C339 C331 1.433 . S
C339 N341 1.384 . S
N340 C336 1.427 . S
N340 C337 1.384 . S
N341 C333 1.427 . S
N341 C339 1.384 . S
H342 C348 0.930 . S
H343 C352 0.930 . S
H344 C357 0.929 . S
H345 C355 0.929 1_655 S
H346 C350 0.929 . S
H347 C356 0.929 . S
C348 H342 0.930 . S
C348 C349 1.367 . S
C348 C356 1.378 . S
C349 C348 1.367 . S
C349 C357 1.433 . S
C350 H346 0.929 . S
C350 C352 1.378 . S
C350 C354 1.350 . S
C351 C354 1.463 . S
C351 C356 1.350 . S
C351 N359 1.427 . S
C352 H343 0.930 . S
C352 C350 1.378 . S
C352 C353 1.367 . S
C353 C352 1.367 . S
C353 C355 1.433 . S
C354 C350 1.350 . S
C354 C351 1.463 . S
C354 N358 1.427 . S
C355 H345 0.929 1_455 S
C355 C353 1.433 . S
C355 N358 1.384 . S
C356 H347 0.929 . S
C356 C348 1.378 . S
C356 C351 1.350 . S
C357 H344 0.929 . S
C357 C349 1.433 . S
C357 N359 1.384 . S
N358 C354 1.427 . S
N358 C355 1.384 . S
N359 C351 1.427 . S
N359 C357 1.384 . S
H360 C366 0.930 . S
H361 C370 0.930 . S
H362 C375 0.929 . S
H363 C373 0.929 . S
H364 C368 0.929 . S
H365 C374 0.929 . S
C366 H360 0.930 . S
C366 C367 1.367 . S
C366 C374 1.378 . S
C367 C366 1.367 . S
C367 C375 1.433 . S
C368 H364 0.929 . S
C368 C370 1.378 . S
C368 C372 1.350 . S
C369 C372 1.463 1_655 S
C369 C374 1.350 . S
C369 N377 1.427 . S
C370 H361 0.930 . S
C370 C368 1.378 . S
C370 C371 1.367 . S
C371 C370 1.367 . S
C371 C373 1.433 . S
C372 C368 1.350 . S
C372 C369 1.463 1_455 S
C372 N376 1.427 . S
C373 H363 0.929 . S
C373 C371 1.433 . S
C373 N376 1.384 . S
C374 H365 0.929 . S
C374 C366 1.378 . S
C374 C369 1.350 . S
C375 H362 0.929 . S
C375 C367 1.433 . S
C375 N377 1.384 . S
N376 C372 1.427 . S
N376 C373 1.384 . S
N377 C369 1.427 . S
N377 C375 1.384 . S
H378 C384 0.930 . S
H379 C388 0.930 . S
H380 C393 0.929 . S
H381 C391 0.929 . S
H382 C386 0.929 . S
H383 C392 0.929 . S
C384 H378 0.930 . S
C384 C385 1.367 . S
C384 C392 1.378 . S
C385 C384 1.367 . S
C385 C393 1.433 . S
C386 H382 0.929 . S
C386 C388 1.378 . S
C386 C390 1.350 . S
C387 C390 1.463 . S
C387 C392 1.350 . S
C387 N395 1.427 . S
C388 H379 0.930 . S
C388 C386 1.378 . S
C388 C389 1.367 . S
C389 C388 1.367 . S
C389 C391 1.433 . S
C390 C386 1.350 . S
C390 C387 1.463 . S
C390 N394 1.427 . S
C391 H381 0.929 . S
C391 C389 1.433 . S
C391 N394 1.384 . S
C392 H383 0.929 . S
C392 C384 1.378 . S
C392 C387 1.350 . S
C393 H380 0.929 . S
C393 C385 1.433 . S
C393 N395 1.384 . S
N394 C390 1.427 . S
N394 C391 1.384 . S
N395 C387 1.427 . S
N395 C393 1.384 . S
H396 C402 0.930 . S
H397 C406 0.930 . S
H398 C411 0.929 . S
H399 C409 0.929 . S
H400 C404 0.929 . S
H401 C410 0.929 . S
C402 H396 0.930 . S
C402 C403 1.367 . S
C402 C410 1.378 . S
C403 C402 1.367 . S
C403 C411 1.433 . S
C404 H400 0.929 . S
C404 C406 1.378 . S
C404 C408 1.350 . S
C405 C408 1.463 1_545 S
C405 C410 1.350 . S
C405 N413 1.427 . S
C406 H397 0.930 . S
C406 C404 1.378 . S
C406 C407 1.367 . S
C407 C406 1.367 . S
C407 C409 1.433 . S
C408 C404 1.350 . S
C408 C405 1.463 1_565 S
C408 N412 1.427 . S
C409 H399 0.929 . S
C409 C407 1.433 . S
C409 N412 1.384 . S
C410 H401 0.929 . S
C410 C402 1.378 . S
C410 C405 1.350 . S
C411 H398 0.929 . S
C411 C403 1.433 . S
C411 N413 1.384 . S
N412 C408 1.427 . S
N412 C409 1.384 . S
N413 C405 1.427 . S
N413 C411 1.384 . S
H414 C420 0.930 . S
H415 C424 0.930 . S
H416 C429 0.929 . S
H417 C427 0.929 . S
H418 C422 0.929 . S
H419 C428 0.929 . S
C420 H414 0.930 . S
C420 C421 1.367 . S
C420 C428 1.378 . S
C421 C420 1.367 . S
C421 C429 1.433 . S
C422 H418 0.929 . S
C422 C424 1.378 . S
C422 C426 1.350 . S
C423 C426 1.463 1_455 S
C423 C428 1.350 . S
C423 N431 1.427 . S
C424 H415 0.930 . S
C424 C422 1.378 . S
C424 C425 1.367 . S
C425 C424 1.367 . S
C425 C427 1.433 . S
C426 C422 1.350 . S
C426 C423 1.463 1_655 S
C426 N430 1.427 . S
C427 H417 0.929 . S
C427 C425 1.433 . S
C427 N430 1.384 . S
C428 H419 0.929 . S
C428 C420 1.378 . S
C428 C423 1.350 . S
C429 H416 0.929 . S
C429 C421 1.433 . S
C429 N431 1.384 . S
N430 C426 1.427 . S
N430 C427 1.384 . S
N431 C423 1.427 . S
N431 C429 1.384 . S
H432 C438 0.930 . S
H433 C442 0.930 . S
H434 C447 0.929 . S
H435 C445 0.929 . S
H436 C440 0.929 . S
H437 C446 0.929 . S
C438 H432 0.930 . S
C438 C439 1.367 . S
C438 C446 1.378 . S
C439 C438 1.367 . S
C439 C447 1.433 . S
C440 H436 0.929 . S
C440 C442 1.378 . S
C440 C444 1.350 . S
C441 C444 1.463 . S
C441 C446 1.350 . S
C441 N449 1.427 . S
C442 H433 0.930 . S
C442 C440 1.378 . S
C442 C443 1.367 . S
C443 C442 1.367 . S
C443 C445 1.433 . S
C444 C440 1.350 . S
C444 C441 1.463 . S
C444 N448 1.427 . S
C445 H435 0.929 . S
C445 C443 1.433 . S
C445 N448 1.384 . S
C446 H437 0.929 . S
C446 C438 1.378 . S
C446 C441 1.350 . S
C447 H434 0.929 . S
C447 C439 1.433 . S
C447 N449 1.384 . S
N448 C444 1.427 . S
N448 C445 1.384 . S
N449 C441 1.427 . S
N449 C447 1.384 . S
H450 C456 0.930 . S
H451 C460 0.930 . S
H452 C465 0.929 . S
H453 C463 0.929 . S
H454 C458 0.929 . S
H455 C464 0.929 . S
C456 H450 0.930 . S
C456 C457 1.367 . S
C456 C464 1.378 . S
C457 C456 1.367 . S
C457 C465 1.433 . S
C458 H454 0.929 . S
C458 C460 1.378 . S
C458 C462 1.350 . S
C459 C462 1.463 1_545 S
C459 C464 1.350 . S
C459 N467 1.427 . S
C460 H451 0.930 . S
C460 C458 1.378 . S
C460 C461 1.367 . S
C461 C460 1.367 . S
C461 C463 1.433 . S
C462 C458 1.350 . S
C462 C459 1.463 1_565 S
C462 N466 1.427 . S
C463 H453 0.929 . S
C463 C461 1.433 . S
C463 N466 1.384 . S
C464 H455 0.929 . S
C464 C456 1.378 . S
C464 C459 1.350 . S
C465 H452 0.929 . S
C465 C457 1.433 . S
C465 N467 1.384 . S
N466 C462 1.427 . S
N466 C463 1.384 . S
N467 C459 1.427 . S
N467 C465 1.384 . S
H468 C474 0.930 . S
H469 C478 0.930 . S
H470 C483 0.929 . S
H471 C481 0.929 . S
H472 C476 0.929 . S
H473 C482 0.929 . S
C474 H468 0.930 . S
C474 C475 1.367 . S
C474 C482 1.378 . S
C475 C474 1.367 . S
C475 C483 1.433 . S
C476 H472 0.929 . S
C476 C478 1.378 . S
C476 C480 1.350 . S
C477 C480 1.463 1_565 S
C477 C482 1.350 . S
C477 N485 1.427 . S
C478 H469 0.930 . S
C478 C476 1.378 . S
C478 C479 1.367 . S
C479 C478 1.367 . S
C479 C481 1.433 . S
C480 C476 1.350 . S
C480 C477 1.463 1_545 S
C480 N484 1.427 . S
C481 H471 0.929 . S
C481 C479 1.433 . S
C481 N484 1.384 . S
C482 H473 0.929 . S
C482 C474 1.378 . S
C482 C477 1.350 . S
C483 H470 0.929 . S
C483 C475 1.433 . S
C483 N485 1.384 . S
N484 C480 1.427 . S
N484 C481 1.384 . S
N485 C477 1.427 . S
N485 C483 1.384 . S
H486 C492 0.930 . S
H487 C496 0.930 . S
H488 C501 0.929 . S
H489 C499 0.929 . S
H490 C494 0.929 . S
H491 C500 0.929 . S
C492 H486 0.930 . S
C492 C493 1.367 . S
C492 C500 1.378 . S
C493 C492 1.367 . S
C493 C501 1.433 . S
C494 H490 0.929 . S
C494 C496 1.378 . S
C494 C498 1.350 . S
C495 C498 1.463 1_455 S
C495 C500 1.350 . S
C495 N503 1.427 . S
C496 H487 0.930 . S
C496 C494 1.378 . S
C496 C497 1.367 . S
C497 C496 1.367 . S
C497 C499 1.433 . S
C498 C494 1.350 . S
C498 C495 1.463 1_655 S
C498 N502 1.427 . S
C499 H489 0.929 . S
C499 C497 1.433 . S
C499 N502 1.384 . S
C500 H491 0.929 . S
C500 C492 1.378 . S
C500 C495 1.350 . S
C501 H488 0.929 . S
C501 C493 1.433 . S
C501 N503 1.384 . S
N502 C498 1.427 . S
N502 C499 1.384 . S
N503 C495 1.427 . S
N503 C501 1.384 . S
H504 C510 0.930 . S
H505 C514 0.930 . S
H506 C519 0.929 . S
H507 C517 0.929 . S
H508 C512 0.929 . S
H509 C518 0.929 . S
C510 H504 0.930 . S
C510 C511 1.367 . S
C510 C518 1.378 . S
C511 C510 1.367 . S
C511 C519 1.433 . S
C512 H508 0.929 . S
C512 C514 1.378 . S
C512 C516 1.350 . S
C513 C516 1.463 . S
C513 C518 1.350 . S
C513 N521 1.427 . S
C514 H505 0.930 . S
C514 C512 1.378 . S
C514 C515 1.367 . S
C515 C514 1.367 . S
C515 C517 1.433 . S
C516 C512 1.350 . S
C516 C513 1.463 . S
C516 N520 1.427 . S
C517 H507 0.929 . S
C517 C515 1.433 . S
C517 N520 1.384 . S
C518 H509 0.929 . S
C518 C510 1.378 . S
C518 C513 1.350 . S
C519 H506 0.929 . S
C519 C511 1.433 . S
C519 N521 1.384 . S
N520 C516 1.427 . S
N520 C517 1.384 . S
N521 C513 1.427 . S
N521 C519 1.384 . S
H522 C528 0.930 . S
H523 C532 0.930 . S
H524 C537 0.929 . S
H525 C535 0.929 . S
H526 C530 0.929 . S
H527 C536 0.929 . S
C528 H522 0.930 . S
C528 C529 1.367 . S
C528 C536 1.378 . S
C529 C528 1.367 . S
C529 C537 1.433 . S
C530 H526 0.929 . S
C530 C532 1.378 . S
C530 C534 1.350 . S
C531 C534 1.463 . S
C531 C536 1.350 . S
C531 N539 1.427 . S
C532 H523 0.930 . S
C532 C530 1.378 . S
C532 C533 1.367 . S
C533 C532 1.367 . S
C533 C535 1.433 . S
C534 C530 1.350 . S
C534 C531 1.463 . S
C534 N538 1.427 . S
C535 H525 0.929 . S
C535 C533 1.433 . S
C535 N538 1.384 . S
C536 H527 0.929 . S
C536 C528 1.378 . S
C536 C531 1.350 . S
C537 H524 0.929 . S
C537 C529 1.433 . S
C537 N539 1.384 . S
N538 C534 1.427 . S
N538 C535 1.384 . S
N539 C531 1.427 . S
N539 C537 1.384 . S
H540 C546 0.930 . S
H541 C550 0.930 . S
H542 C555 0.929 . S
H543 C553 0.929 . S
H544 C548 0.929 . S
H545 C554 0.929 . S
C546 H540 0.930 . S
C546 C547 1.367 . S
C546 C554 1.378 . S
C547 C546 1.367 . S
C547 C555 1.433 . S
C548 H544 0.929 . S
C548 C550 1.378 . S
C548 C552 1.350 . S
C549 C552 1.463 . S
C549 C554 1.350 . S
C549 N557 1.427 . S
C550 H541 0.930 . S
C550 C548 1.378 . S
C550 C551 1.367 . S
C551 C550 1.367 . S
C551 C553 1.433 . S
C552 C548 1.350 . S
C552 C549 1.463 . S
C552 N556 1.427 . S
C553 H543 0.929 . S
C553 C551 1.433 . S
C553 N556 1.384 . S
C554 H545 0.929 . S
C554 C546 1.378 . S
C554 C549 1.350 . S
C555 H542 0.929 . S
C555 C547 1.433 . S
C555 N557 1.384 . S
N556 C552 1.427 . S
N556 C553 1.384 . S
N557 C549 1.427 . S
N557 C555 1.384 . S
H558 C564 0.930 . S
H559 C568 0.930 . S
H560 C573 0.929 . S
H561 C571 0.929 . S
H562 C566 0.929 . S
H563 C572 0.929 . S
C564 H558 0.930 . S
C564 C565 1.367 . S
C564 C572 1.378 . S
C565 C564 1.367 . S
C565 C573 1.433 . S
C566 H562 0.929 . S
C566 C568 1.378 . S
C566 C570 1.350 . S
C567 C570 1.463 . S
C567 C572 1.350 . S
C567 N575 1.427 . S
C568 H559 0.930 . S
C568 C566 1.378 . S
C568 C569 1.367 . S
C569 C568 1.367 . S
C569 C571 1.433 . S
C570 C566 1.350 . S
C570 C567 1.463 . S
C570 N574 1.427 . S
C571 H561 0.929 . S
C571 C569 1.433 . S
C571 N574 1.384 . S
C572 H563 0.929 . S
C572 C564 1.378 . S
C572 C567 1.350 . S
C573 H560 0.929 . S
C573 C565 1.433 . S
C573 N575 1.384 . S
N574 C570 1.427 . S
N574 C571 1.384 . S
N575 C567 1.427 . S
N575 C573 1.384 . S
H576 C582 0.930 . S
H577 C586 0.930 . S
H578 C591 0.929 . S
H579 C589 0.929 . S
H580 C584 0.929 . S
H581 C590 0.929 . S
C582 H576 0.930 . S
C582 C583 1.367 . S
C582 C590 1.378 . S
C583 C582 1.367 . S
C583 C591 1.433 . S
C584 H580 0.929 . S
C584 C586 1.378 . S
C584 C588 1.350 . S
C585 C588 1.463 . S
C585 C590 1.350 . S
C585 N593 1.427 . S
C586 H577 0.930 . S
C586 C584 1.378 . S
C586 C587 1.367 . S
C587 C586 1.367 . S
C587 C589 1.433 . S
C588 C584 1.350 . S
C588 C585 1.463 . S
C588 N592 1.427 . S
C589 H579 0.929 . S
C589 C587 1.433 . S
C589 N592 1.384 . S
C590 H581 0.929 . S
C590 C582 1.378 . S
C590 C585 1.350 . S
C591 H578 0.929 . S
C591 C583 1.433 . S
C591 N593 1.384 . S
N592 C588 1.427 . S
N592 C589 1.384 . S
N593 C585 1.427 . S
N593 C591 1.384 . S
H594 C600 0.930 . S
H595 C604 0.930 . S
H596 C609 0.929 . S
H597 C607 0.929 . S
H598 C602 0.929 . S
H599 C608 0.929 . S
C600 H594 0.930 . S
C600 C601 1.367 . S
C600 C608 1.378 . S
C601 C600 1.367 . S
C601 C609 1.433 . S
C602 H598 0.929 . S
C602 C604 1.378 . S
C602 C606 1.350 . S
C603 C606 1.463 . S
C603 C608 1.350 . S
C603 N611 1.427 . S
C604 H595 0.930 . S
C604 C602 1.378 . S
C604 C605 1.367 . S
C605 C604 1.367 . S
C605 C607 1.433 . S
C606 C602 1.350 . S
C606 C603 1.463 . S
C606 N610 1.427 . S
C607 H597 0.929 . S
C607 C605 1.433 . S
C607 N610 1.384 . S
C608 H599 0.929 . S
C608 C600 1.378 . S
C608 C603 1.350 . S
C609 H596 0.929 . S
C609 C601 1.433 . S
C609 N611 1.384 . S
N610 C606 1.427 . S
N610 C607 1.384 . S
N611 C603 1.427 . S
N611 C609 1.384 . S
H612 C618 0.930 . S
H613 C622 0.930 . S
H614 C627 0.929 . S
H615 C625 0.929 . S
H616 C620 0.929 . S
H617 C626 0.929 . S
C618 H612 0.930 . S
C618 C619 1.367 . S
C618 C626 1.378 . S
C619 C618 1.367 . S
C619 C627 1.433 . S
C620 H616 0.929 . S
C620 C622 1.378 . S
C620 C624 1.350 . S
C621 C624 1.463 . S
C621 C626 1.350 . S
C621 N629 1.427 . S
C622 H613 0.930 . S
C622 C620 1.378 . S
C622 C623 1.367 . S
C623 C622 1.367 . S
C623 C625 1.433 . S
C624 C620 1.350 . S
C624 C621 1.463 . S
C624 N628 1.427 . S
C625 H615 0.929 . S
C625 C623 1.433 . S
C625 N628 1.384 . S
C626 H617 0.929 . S
C626 C618 1.378 . S
C626 C621 1.350 . S
C627 H614 0.929 . S
C627 C619 1.433 . S
C627 N629 1.384 . S
N628 C624 1.427 . S
N628 C625 1.384 . S
N629 C621 1.427 . S
N629 C627 1.384 . S
H630 C636 0.930 . S
H631 C640 0.930 . S
H632 C645 0.929 . S
H633 C643 0.929 . S
H634 C638 0.929 . S
H635 C644 0.929 . S
C636 H630 0.930 . S
C636 C637 1.367 . S
C636 C644 1.378 . S
C637 C636 1.367 . S
C637 C645 1.433 . S
C638 H634 0.929 . S
C638 C640 1.378 . S
C638 C642 1.350 . S
C639 C642 1.463 . S
C639 C644 1.350 . S
C639 N647 1.427 . S
C640 H631 0.930 . S
C640 C638 1.378 . S
C640 C641 1.367 . S
C641 C640 1.367 . S
C641 C643 1.433 . S
C642 C638 1.350 . S
C642 C639 1.463 . S
C642 N646 1.427 . S
C643 H633 0.929 . S
C643 C641 1.433 . S
C643 N646 1.384 . S
C644 H635 0.929 . S
C644 C636 1.378 . S
C644 C639 1.350 . S
C645 H632 0.929 . S
C645 C637 1.433 . S
C645 N647 1.384 . S
N646 C642 1.427 . S
N646 C643 1.384 . S
N647 C639 1.427 . S
N647 C645 1.384 . S
H648 C654 0.930 . S
H649 C658 0.930 . S
H650 C663 0.929 . S
H651 C661 0.929 . S
H652 C656 0.929 . S
H653 C662 0.929 . S
C654 H648 0.930 . S
C654 C655 1.367 . S
C654 C662 1.378 . S
C655 C654 1.367 . S
C655 C663 1.433 . S
C656 H652 0.929 . S
C656 C658 1.378 . S
C656 C660 1.350 . S
C657 C660 1.463 . S
C657 C662 1.350 . S
C657 N665 1.427 . S
C658 H649 0.930 . S
C658 C656 1.378 . S
C658 C659 1.367 . S
C659 C658 1.367 . S
C659 C661 1.433 . S
C660 C656 1.350 . S
C660 C657 1.463 . S
C660 N664 1.427 . S
C661 H651 0.929 . S
C661 C659 1.433 . S
C661 N664 1.384 . S
C662 H653 0.929 . S
C662 C654 1.378 . S
C662 C657 1.350 . S
C663 H650 0.929 . S
C663 C655 1.433 . S
C663 N665 1.384 . S
N664 C660 1.427 . S
N664 C661 1.384 . S
N665 C657 1.427 . S
N665 C663 1.384 . S
H666 C672 0.930 . S
H667 C676 0.930 . S
H668 C681 0.929 . S
H669 C679 0.929 . S
H670 C674 0.929 . S
H671 C680 0.929 . S
C672 H666 0.930 . S
C672 C673 1.367 . S
C672 C680 1.378 . S
C673 C672 1.367 . S
C673 C681 1.433 . S
C674 H670 0.929 . S
C674 C676 1.378 . S
C674 C678 1.350 . S
C675 C678 1.463 . S
C675 C680 1.350 . S
C675 N683 1.427 . S
C676 H667 0.930 . S
C676 C674 1.378 . S
C676 C677 1.367 . S
C677 C676 1.367 . S
C677 C679 1.433 . S
C678 C674 1.350 . S
C678 C675 1.463 . S
C678 N682 1.427 . S
C679 H669 0.929 . S
C679 C677 1.433 . S
C679 N682 1.384 . S
C680 H671 0.929 . S
C680 C672 1.378 . S
C680 C675 1.350 . S
C681 H668 0.929 . S
C681 C673 1.433 . S
C681 N683 1.384 . S
N682 C678 1.427 . S
N682 C679 1.384 . S
N683 C675 1.427 . S
N683 C681 1.384 . S
H684 C690 0.930 . S
H685 C694 0.930 . S
H686 C699 0.929 . S
H687 C697 0.929 . S
H688 C692 0.929 . S
H689 C698 0.929 . S
C690 H684 0.930 . S
C690 C691 1.367 . S
C690 C698 1.378 . S
C691 C690 1.367 . S
C691 C699 1.433 . S
C692 H688 0.929 . S
C692 C694 1.378 . S
C692 C696 1.350 . S
C693 C696 1.463 . S
C693 C698 1.350 . S
C693 N701 1.427 . S
C694 H685 0.930 . S
C694 C692 1.378 . S
C694 C695 1.367 . S
C695 C694 1.367 . S
C695 C697 1.433 . S
C696 C692 1.350 . S
C696 C693 1.463 . S
C696 N700 1.427 . S
C697 H687 0.929 . S
C697 C695 1.433 . S
C697 N700 1.384 . S
C698 H689 0.929 . S
C698 C690 1.378 . S
C698 C693 1.350 . S
C699 H686 0.929 . S
C699 C691 1.433 . S
C699 N701 1.384 . S
N700 C696 1.427 . S
N700 C697 1.384 . S
N701 C693 1.427 . S
N701 C699 1.384 . S
H702 C708 0.930 . S
H703 C712 0.930 . S
H704 C717 0.929 . S
H705 C715 0.929 . S
H706 C710 0.929 . S
H707 C716 0.929 . S
C708 H702 0.930 . S
C708 C709 1.367 . S
C708 C716 1.378 . S
C709 C708 1.367 . S
C709 C717 1.433 . S
C710 H706 0.929 . S
C710 C712 1.378 . S
C710 C714 1.350 . S
C711 C714 1.463 . S
C711 C716 1.350 . S
C711 N719 1.427 . S
C712 H703 0.930 . S
C712 C710 1.378 . S
C712 C713 1.367 . S
C713 C712 1.367 . S
C713 C715 1.433 . S
C714 C710 1.350 . S
C714 C711 1.463 . S
C714 N718 1.427 . S
C715 H705 0.929 . S
C715 C713 1.433 . S
C715 N718 1.384 . S
C716 H707 0.929 . S
C716 C708 1.378 . S
C716 C711 1.350 . S
C717 H704 0.929 . S
C717 C709 1.433 . S
C717 N719 1.384 . S
N718 C714 1.427 . S
N718 C715 1.384 . S
N719 C711 1.427 . S
N719 C717 1.384 . S
H720 C726 0.930 . S
H721 C730 0.930 . S
H722 C735 0.929 . S
H723 C733 0.929 . S
H724 C728 0.929 . S
H725 C734 0.929 . S
C726 H720 0.930 . S
C726 C727 1.367 . S
C726 C734 1.378 . S
C727 C726 1.367 . S
C727 C735 1.433 . S
C728 H724 0.929 . S
C728 C730 1.378 . S
C728 C732 1.350 . S
C729 C732 1.463 . S
C729 C734 1.350 . S
C729 N737 1.427 . S
C730 H721 0.930 . S
C730 C728 1.378 . S
C730 C731 1.367 . S
C731 C730 1.367 . S
C731 C733 1.433 . S
C732 C728 1.350 . S
C732 C729 1.463 . S
C732 N736 1.427 . S
C733 H723 0.929 . S
C733 C731 1.433 . S
C733 N736 1.384 . S
C734 H725 0.929 . S
C734 C726 1.378 . S
C734 C729 1.350 . S
C735 H722 0.929 . S
C735 C727 1.433 . S
C735 N737 1.384 . S
N736 C732 1.427 . S
N736 C733 1.384 . S
N737 C729 1.427 . S
N737 C735 1.384 . S
H738 C744 0.930 . S
H739 C748 0.930 . S
H740 C753 0.929 . S
H741 C751 0.929 . S
H742 C746 0.929 . S
H743 C752 0.929 . S
C744 H738 0.930 . S
C744 C745 1.367 . S
C744 C752 1.378 . S
C745 C744 1.367 . S
C745 C753 1.433 . S
C746 H742 0.929 . S
C746 C748 1.378 . S
C746 C750 1.350 . S
C747 C750 1.463 1_554 S
C747 C752 1.350 . S
C747 N755 1.427 . S
C748 H739 0.930 . S
C748 C746 1.378 . S
C748 C749 1.367 . S
C749 C748 1.367 . S
C749 C751 1.433 . S
C750 C746 1.350 . S
C750 C747 1.463 1_556 S
C750 N754 1.427 . S
C751 H741 0.929 . S
C751 C749 1.433 . S
C751 N754 1.384 . S
C752 H743 0.929 . S
C752 C744 1.378 . S
C752 C747 1.350 . S
C753 H740 0.929 . S
C753 C745 1.433 . S
C753 N755 1.384 . S
N754 C750 1.427 . S
N754 C751 1.384 . S
N755 C747 1.427 . S
N755 C753 1.384 . S
H756 C762 0.930 . S
H757 C766 0.930 . S
H758 C771 0.929 . S
H759 C769 0.929 . S
H760 C764 0.929 . S
H761 C770 0.929 . S
C762 H756 0.930 . S
C762 C763 1.367 1_565 S
C762 C770 1.378 . S
C763 C762 1.367 1_545 S
C763 C771 1.433 . S
C764 H760 0.929 . S
C764 C766 1.378 . S
C764 C768 1.350 1_545 S
C765 C768 1.463 1_556 S
C765 C770 1.350 . S
C765 N773 1.427 1_565 S
C766 H757 0.930 . S
C766 C764 1.378 . S
C766 C767 1.367 1_545 S
C767 C766 1.367 1_565 S
C767 C769 1.433 . S
C768 C764 1.350 1_565 S
C768 C765 1.463 1_554 S
C768 N772 1.427 . S
C769 H759 0.929 . S
C769 C767 1.433 . S
C769 N772 1.384 . S
C770 H761 0.929 . S
C770 C762 1.378 . S
C770 C765 1.350 . S
C771 H758 0.929 . S
C771 C763 1.433 . S
C771 N773 1.384 . S
N772 C768 1.427 . S
N772 C769 1.384 . S
N773 C765 1.427 1_545 S
N773 C771 1.384 . S
H774 C780 0.930 . S
H775 C784 0.930 . S
H776 C789 0.929 . S
H777 C787 0.929 . S
H778 C782 0.929 . S
H779 C788 0.929 . S
C780 H774 0.930 . S
C780 C781 1.367 . S
C780 C788 1.378 . S
C781 C780 1.367 . S
C781 C789 1.433 1_655 S
C782 H778 0.929 . S
C782 C784 1.378 . S
C782 C786 1.346 1_455 S
C783 C786 1.464 1_556 S
C783 C788 1.350 . S
C783 N791 1.427 1_655 S
C784 H775 0.930 . S
C784 C782 1.378 . S
C784 C785 1.367 . S
C785 C784 1.367 . S
C785 C787 1.433 1_455 S
C786 C782 1.346 1_655 S
C786 C783 1.464 1_554 S
C786 N790 1.431 . S
C787 H777 0.929 . S
C787 C785 1.433 1_655 S
C787 N790 1.384 . S
C788 H779 0.929 . S
C788 C780 1.378 . S
C788 C783 1.350 . S
C789 H776 0.929 . S
C789 C781 1.433 1_455 S
C789 N791 1.384 . S
N790 C786 1.431 . S
N790 C787 1.384 . S
N791 C783 1.427 1_455 S
N791 C789 1.384 . S
H792 C798 0.930 . S
H793 C802 0.930 . S
H794 C807 0.929 . S
H795 C805 0.929 . S
H796 C800 0.929 . S
H797 C806 0.929 . S
C798 H792 0.930 . S
C798 C799 1.367 . S
C798 C806 1.378 . S
C799 C798 1.367 . S
C799 C807 1.433 . S
C800 H796 0.929 . S
C800 C802 1.378 . S
C800 C804 1.350 . S
C801 C804 1.463 . S
C801 C806 1.350 . S
C801 N809 1.427 . S
C802 H793 0.930 . S
C802 C800 1.378 . S
C802 C803 1.367 . S
C803 C802 1.367 . S
C803 C805 1.433 . S
C804 C800 1.350 . S
C804 C801 1.463 . S
C804 N808 1.427 . S
C805 H795 0.929 . S
C805 C803 1.433 . S
C805 N808 1.384 . S
C806 H797 0.929 . S
C806 C798 1.378 . S
C806 C801 1.350 . S
C807 H794 0.929 . S
C807 C799 1.433 . S
C807 N809 1.384 . S
N808 C804 1.427 . S
N808 C805 1.384 . S
N809 C801 1.427 . S
N809 C807 1.384 . S
H810 C816 0.930 . S
H811 C820 0.930 . S
H812 C825 0.929 . S
H813 C823 0.929 . S
H814 C818 0.929 . S
H815 C824 0.929 . S
C816 H810 0.930 . S
C816 C817 1.367 . S
C816 C824 1.378 . S
C817 C816 1.367 . S
C817 C825 1.433 . S
C818 H814 0.929 . S
C818 C820 1.378 . S
C818 C822 1.350 . S
C819 C822 1.463 . S
C819 C824 1.350 . S
C819 N827 1.427 . S
C820 H811 0.930 . S
C820 C818 1.378 . S
C820 C821 1.367 . S
C821 C820 1.367 . S
C821 C823 1.433 . S
C822 C818 1.350 . S
C822 C819 1.463 . S
C822 N826 1.427 . S
C823 H813 0.929 . S
C823 C821 1.433 . S
C823 N826 1.384 . S
C824 H815 0.929 . S
C824 C816 1.378 . S
C824 C819 1.350 . S
C825 H812 0.929 . S
C825 C817 1.433 . S
C825 N827 1.384 . S
N826 C822 1.427 . S
N826 C823 1.384 . S
N827 C819 1.427 . S
N827 C825 1.384 . S
H828 C834 0.930 . S
H829 C838 0.930 . S
H830 C843 0.929 . S
H831 C841 0.929 . S
H832 C836 0.929 . S
H833 C842 0.929 . S
C834 H828 0.930 . S
C834 C835 1.367 . S
C834 C842 1.378 . S
C835 C834 1.367 . S
C835 C843 1.433 . S
C836 H832 0.929 . S
C836 C838 1.378 . S
C836 C840 1.350 . S
C837 C840 1.463 . S
C837 C842 1.350 . S
C837 N845 1.427 . S
C838 H829 0.930 . S
C838 C836 1.378 . S
C838 C839 1.367 . S
C839 C838 1.367 . S
C839 C841 1.433 . S
C840 C836 1.350 . S
C840 C837 1.463 . S
C840 N844 1.427 . S
C841 H831 0.929 . S
C841 C839 1.433 . S
C841 N844 1.384 . S
C842 H833 0.929 . S
C842 C834 1.378 . S
C842 C837 1.350 . S
C843 H830 0.929 . S
C843 C835 1.433 . S
C843 N845 1.384 . S
N844 C840 1.427 . S
N844 C841 1.384 . S
N845 C837 1.427 . S
N845 C843 1.384 . S
H846 C852 0.930 . S
H847 C856 0.930 . S
H848 C861 0.929 . S
H849 C859 0.929 . S
H850 C854 0.929 . S
H851 C860 0.929 . S
C852 H846 0.930 . S
C852 C853 1.367 . S
C852 C860 1.378 . S
C853 C852 1.367 . S
C853 C861 1.433 . S
C854 H850 0.929 . S
C854 C856 1.378 . S
C854 C858 1.350 . S
C855 C858 1.463 . S
C855 C860 1.350 . S
C855 N863 1.427 . S
C856 H847 0.930 . S
C856 C854 1.378 . S
C856 C857 1.367 . S
C857 C856 1.367 . S
C857 C859 1.433 . S
C858 C854 1.350 . S
C858 C855 1.463 . S
C858 N862 1.427 . S
C859 H849 0.929 . S
C859 C857 1.433 . S
C859 N862 1.384 . S
C860 H851 0.929 . S
C860 C852 1.378 . S
C860 C855 1.350 . S
C861 H848 0.929 . S
C861 C853 1.433 . S
C861 N863 1.384 . S
N862 C858 1.427 . S
N862 C859 1.384 . S
N863 C855 1.427 . S
N863 C861 1.384 . S
H864 C870 0.930 . S
H865 C874 0.930 . S
H866 C879 0.929 . S
H867 C877 0.929 . S
H868 C872 0.929 . S
H869 C878 0.929 . S
C870 H864 0.930 . S
C870 C871 1.367 . S
C870 C878 1.378 . S
C871 C870 1.367 . S
C871 C879 1.433 . S
C872 H868 0.929 . S
C872 C874 1.378 . S
C872 C876 1.350 . S
C873 C876 1.463 . S
C873 C878 1.350 . S
C873 N881 1.427 . S
C874 H865 0.930 . S
C874 C872 1.378 . S
C874 C875 1.367 . S
C875 C874 1.367 . S
C875 C877 1.433 . S
C876 C872 1.350 . S
C876 C873 1.463 . S
C876 N880 1.427 . S
C877 H867 0.929 . S
C877 C875 1.433 . S
C877 N880 1.384 . S
C878 H869 0.929 . S
C878 C870 1.378 . S
C878 C873 1.350 . S
C879 H866 0.929 . S
C879 C871 1.433 . S
C879 N881 1.384 . S
N880 C876 1.427 . S
N880 C877 1.384 . S
N881 C873 1.427 . S
N881 C879 1.384 . S
H882 C888 0.930 . S
H883 C892 0.930 . S
H884 C897 0.929 . S
H885 C895 0.929 . S
H886 C890 0.929 . S
H887 C896 0.929 . S
C888 H882 0.930 . S
C888 C889 1.367 . S
C888 C896 1.378 . S
C889 C888 1.367 . S
C889 C897 1.433 . S
C890 H886 0.929 . S
C890 C892 1.378 . S
C890 C894 1.350 . S
C891 C894 1.463 . S
C891 C896 1.350 . S
C891 N899 1.427 . S
C892 H883 0.930 . S
C892 C890 1.378 . S
C892 C893 1.367 . S
C893 C892 1.367 . S
C893 C895 1.433 . S
C894 C890 1.350 . S
C894 C891 1.463 . S
C894 N898 1.427 . S
C895 H885 0.929 . S
C895 C893 1.433 . S
C895 N898 1.384 . S
C896 H887 0.929 . S
C896 C888 1.378 . S
C896 C891 1.350 . S
C897 H884 0.929 . S
C897 C889 1.433 . S
C897 N899 1.384 . S
N898 C894 1.427 . S
N898 C895 1.384 . S
N899 C891 1.427 . S
N899 C897 1.384 . S
C259 C151 1.061 . S
C263 C11 1.056 . S
C277 C25 1.063 . S
C281 C165 1.048 . S
C295 C137 1.057 . S
C299 C39 1.051 . S
C313 C207 1.054 . S
C317 C53 1.055 . S
C331 C67 1.064 . S
C335 C179 1.049 . S
C349 C193 1.064 . S
C353 C81 1.049 . S
C367 C95 1.050 . S
C371 C235 1.064 . S
C385 C249 1.052 . S
C389 C109 1.062 . S
C403 C123 1.056 . S
C407 C221 1.060 . S
C421 C8 0.927 . S
C425 C21 0.974 . S
C439 C22 0.936 . S
C443 C35 0.969 . S
C457 C7 0.976 . S
C461 C36 0.922 . S
C475 C77 0.974 . S
C479 C50 0.924 . S
C493 C49 0.983 . S
C497 C64 0.908 . S
C511 C78 0.900 . S
C515 C63 0.985 . S
C529 C92 0.935 . S
C533 C105 0.969 . S
C547 C106 0.929 . S
C551 C119 0.971 . S
C565 C91 0.971 . S
C569 C120 0.930 . S
C583 C161 0.969 . S
C587 C134 0.936 . S
C601 C133 0.970 . S
C605 C148 0.934 . S
C619 C147 0.976 . S
C623 C162 0.919 . S
C637 C189 0.986 . S
C641 C176 0.900 . S
C655 C203 0.986 . S
C659 C190 0.901 . S
C673 C175 0.977 . S
C677 C204 0.917 . S
C691 C218 0.936 . S
C695 C245 0.969 . S
C709 C232 0.925 . S
C713 C217 0.975 . S
C727 C246 0.903 . S
C731 C231 0.984 . S
C745 C13 1.356 . S
C749 C55 1.337 . S
C763 C69 1.338 . S
C767 C27 1.354 . S
C781 C83 1.358 . S
C785 C41 1.340 . S
C799 C139 1.337 . S
C803 C97 1.360 . S
C817 C153 1.358 . S
C821 C111 1.340 . S
C835 C125 1.352 . S
C839 C167 1.340 . S
C853 C223 1.361 . S
C857 C181 1.335 . S
C871 C237 1.357 . S
C875 C195 1.342 . S
C889 C251 1.335 . S
C893 C209 1.361 . S
