# Generated by pormake.
# Topology rkf, (6)-cn, num edge types: 1
# Building blocks:
#     Node 0, Type 0, BuildingBlock: VOLQOD_clean_sbu_1, # of connection points: 6
#     Node 1, Type 0, BuildingBlock: VOLQOD_clean_sbu_1, # of connection points: 6
#     Node 2, Type 0, BuildingBlock: VOLQOD_clean_sbu_1, # of connection points: 6
#     Node 3, Type 0, BuildingBlock: VOLQOD_clean_sbu_1, # of connection points: 6
#     Node 4, Type 0, BuildingBlock: VOLQOD_clean_sbu_1, # of connection points: 6
#     Node 5, Type 0, BuildingBlock: VOLQOD_clean_sbu_1, # of connection points: 6
#     Edge 6, Type (0, 0), BuildingBlock: TEMPAE_clean_linker_10, # of connection points: 2
#     Edge 7, Type (0, 0), BuildingBlock: TEMPAE_clean_linker_10, # of connection points: 2
#     Edge 8, Type (0, 0), BuildingBlock: TEMPAE_clean_linker_10, # of connection points: 2
#     Edge 9, Type (0, 0), BuildingBlock: TEMPAE_clean_linker_10, # of connection points: 2
#     Edge 10, Type (0, 0), BuildingBlock: TEMPAE_clean_linker_10, # of connection points: 2
#     Edge 11, Type (0, 0), BuildingBlock: TEMPAE_clean_linker_10, # of connection points: 2
#     Edge 12, Type (0, 0), BuildingBlock: TEMPAE_clean_linker_10, # of connection points: 2
#     Edge 13, Type (0, 0), BuildingBlock: TEMPAE_clean_linker_10, # of connection points: 2
#     Edge 14, Type (0, 0), BuildingBlock: TEMPAE_clean_linker_10, # of connection points: 2
#     Edge 15, Type (0, 0), BuildingBlock: TEMPAE_clean_linker_10, # of connection points: 2
#     Edge 16, Type (0, 0), BuildingBlock: TEMPAE_clean_linker_10, # of connection points: 2
#     Edge 17, Type (0, 0), BuildingBlock: TEMPAE_clean_linker_10, # of connection points: 2
#     Edge 18, Type (0, 0), BuildingBlock: TEMPAE_clean_linker_10, # of connection points: 2
#     Edge 19, Type (0, 0), BuildingBlock: TEMPAE_clean_linker_10, # of connection points: 2
#     Edge 20, Type (0, 0), BuildingBlock: TEMPAE_clean_linker_10, # of connection points: 2
#     Edge 21, Type (0, 0), BuildingBlock: TEMPAE_clean_linker_10, # of connection points: 2
#     Edge 22, Type (0, 0), BuildingBlock: TEMPAE_clean_linker_10, # of connection points: 2
#     Edge 23, Type (0, 0), BuildingBlock: TEMPAE_clean_linker_10, # of connection points: 2
# Relax obj value: 0.814
# Max RMSD: 0.323
# Mean RMSD: 0.323
data_MOF--net-rkf--node1-VOLQOD_clean_sbu_1--edge1-TEMPAE_clean_linker_10
_symmetry_space_group_name_H-M    P1
_symmetry_Int_Tables_number       1
_symmetry_cell_setting            triclinic
loop_
_symmetry_equiv_pos_as_xyz
'x, y, z'
_cell_length_a     28.699234
_cell_length_b     28.633809
_cell_length_c     37.273744
_cell_angle_alpha  89.936098
_cell_angle_beta   90.05074
_cell_angle_gamma 119.89138
loop_
_atom_site_label
_atom_site_type_symbol
_atom_site_fract_x
_atom_site_fract_y
_atom_site_fract_z
_atom_type_partial_charge
O0 O 0.1923 0.10098 0.01893 0.0
Zn1 Zn 0.22621 0.05448 0.01045 0.0
O2 O 0.30255 0.10223 0.00947 0.0
Zn3 Zn 0.32907 0.10266 0.96354 0.0
Zn4 Zn 0.31937 0.17517 0.01778 0.0
Zn5 Zn 0.3361 0.07737 0.04202 0.0
O6 O 0.40148 0.10801 0.96559 0.0
O7 O 0.38315 0.05682 0.01443 0.0
O8 O 0.20156 0.00171 0.96836 0.0
O9 O 0.28291 0.03033 0.9453 0.0
O10 O 0.3191 0.15367 0.93144 0.0
O11 O 0.31441 0.21009 0.97023 0.0
O12 O 0.38637 0.21385 0.04912 0.0
O13 O 0.20605 0.00553 0.05336 0.0
O14 O 0.38456 0.1405 0.07098 0.0
O15 O 0.28281 0.01854 0.07652 0.0
C16 C 0.21001 0.13757 0.04314 0.0
C17 C 0.41094 0.07792 0.98614 0.0
C18 C 0.31213 0.1935 0.93804 0.0
C19 C 0.23357 0.99528 0.94792 0.0
C20 C 0.40317 0.19122 0.07125 0.0
C21 C 0.23153 0.99479 0.0768 0.0
O22 O 0.25998 0.16679 0.04921 0.0
O23 O 0.12326 0.18038 0.34426 0.0
Zn24 Zn 0.20297 0.20498 0.34062 0.0
O25 O 0.23816 0.28125 0.33664 0.0
Zn26 Zn 0.26404 0.30317 0.29007 0.0
Zn27 Zn 0.18768 0.306 0.34321 0.0
Zn28 Zn 0.29874 0.31131 0.3674 0.0
O29 O 0.33352 0.37306 0.28993 0.0
O30 O 0.36522 0.35026 0.33739 0.0
O31 O 0.23048 0.17404 0.30171 0.0
O32 O 0.28484 0.25173 0.27438 0.0
O33 O 0.20512 0.29555 0.25754 0.0
O34 O 0.14896 0.30224 0.29525 0.0
O35 O 0.22332 0.37447 0.37337 0.0
O36 O 0.22553 0.1845 0.38674 0.0
O37 O 0.29126 0.36591 0.39512 0.0
O38 O 0.30113 0.25675 0.40301 0.0
C39 C 0.10583 0.2007 0.36766 0.0
C40 C 0.37277 0.37794 0.30889 0.0
C41 C 0.16083 0.29433 0.26356 0.0
C42 C 0.26857 0.2023 0.27988 0.0
C43 C 0.26291 0.38887 0.39504 0.0
C44 C 0.26585 0.20725 0.40765 0.0
O45 O 0.13165 0.25073 0.3747 0.0
O46 O 0.01314 0.11751 0.68006 0.0
Zn47 Zn 0.06103 0.19765 0.67108 0.0
O48 O 0.01415 0.2274 0.66763 0.0
Zn49 Zn 0.01473 0.25234 0.62079 0.0
Zn50 Zn 0.94087 0.1728 0.67575 0.0
Zn51 Zn 0.03859 0.2865 0.69961 0.0
O52 O 0.01329 0.32211 0.6214 0.0
O53 O 0.06388 0.35378 0.67058 0.0
O54 O 0.115 0.22393 0.62965 0.0
O55 O 0.08642 0.27442 0.60254 0.0
O56 O 0.96178 0.19119 0.58925 0.0
O57 O 0.90571 0.13202 0.62895 0.0
O58 O 0.90242 0.2032 0.70504 0.0
O59 O 0.10805 0.22622 0.71509 0.0
O60 O 0.97486 0.27508 0.72689 0.0
O61 O 0.09411 0.29044 0.73644 0.0
C62 C 0.97532 0.09936 0.70337 0.0
C63 C 0.04494 0.36139 0.64153 0.0
C64 C 0.92158 0.14503 0.59654 0.0
C65 C 0.12123 0.25999 0.60693 0.0
C66 C 0.92423 0.24326 0.72661 0.0
C67 C 0.11741 0.26242 0.73827 0.0
O68 O 0.94683 0.12134 0.70831 0.0
O69 O 0.93281 0.98505 0.01361 0.0
Zn70 Zn 0.89978 0.03219 1.00353 0.0
O71 O 0.82357 0.98447 1.0006 0.0
Zn72 Zn 0.79867 0.98496 0.95414 0.0
Zn73 Zn 0.80596 0.91134 0.00797 0.0
Zn74 Zn 0.78831 0.00752 0.03298 0.0
O75 O 0.72613 0.98005 0.95533 0.0
O76 O 0.74461 0.03106 0.00431 0.0
O77 O 0.92621 0.08552 0.96147 0.0
O78 O 0.84588 0.0578 0.93682 0.0
O79 O 0.81 0.93456 0.92186 0.0
O80 O 0.81365 0.87791 0.96099 0.0
O81 O 0.73681 0.87125 0.03639 0.0
O82 O 0.91787 0.08031 0.04692 0.0
O83 O 0.73756 0.94286 0.06035 0.0
O84 O 0.83965 0.0643 0.06923 0.0
C85 C 0.91297 0.94694 0.03682 0.0
C86 C 0.71771 0.01113 0.97554 0.0
C87 C 0.81704 0.89481 0.92879 0.0
C88 C 0.89517 0.0926 0.94036 0.0
C89 C 0.7189 0.89215 0.05896 0.0
C90 C 0.89093 0.08905 0.07034 0.0
O91 O 0.86259 0.91765 0.04112 0.0
O92 O 0.98337 0.90115 0.34248 0.0
Zn93 Zn 0.90283 0.86685 0.33837 0.0
O94 O 0.87656 0.79109 0.33928 0.0
Zn95 Zn 0.84938 0.76275 0.29405 0.0
Zn96 Zn 0.93426 0.77664 0.34643 0.0
Zn97 Zn 0.82158 0.75763 0.37386 0.0
O98 O 0.78585 0.68887 0.29874 0.0
O99 O 0.7534 0.70735 0.3478 0.0
O100 O 0.87067 0.88772 0.29633 0.0
O101 O 0.81814 0.8047 0.27567 0.0
O102 O 0.91021 0.77523 0.26066 0.0
O103 O 0.97247 0.78139 0.29885 0.0
O104 O 0.91007 0.71055 0.37764 0.0
O105 O 0.87843 0.88921 0.38267 0.0
O106 O 0.84014 0.71138 0.40278 0.0
O107 O 0.81798 0.81261 0.40823 0.0
C108 C 0.00517 0.88697 0.36698 0.0
C109 C 0.74695 0.67852 0.32001 0.0
C110 C 0.95742 0.78331 0.26686 0.0
C111 C 0.8313 0.85397 0.2772 0.0
C112 C 0.87299 0.69372 0.40138 0.0
C113 C 0.84482 0.86411 0.40761 0.0
O114 O 0.98579 0.838 0.37601 0.0
O115 O 0.13717 0.97685 0.68571 0.0
Zn116 Zn 0.09175 0.89678 0.67528 0.0
O117 O 0.14002 0.86874 0.67464 0.0
Zn118 Zn 0.14663 0.84658 0.62808 0.0
Zn119 Zn 0.2104 0.92474 0.68631 0.0
Zn120 Zn 0.11454 0.80965 0.70653 0.0
O121 O 0.14918 0.7774 0.63023 0.0
O122 O 0.09489 0.74351 0.67761 0.0
O123 O 0.04181 0.86939 0.6318 0.0
O124 O 0.07647 0.82289 0.60662 0.0
O125 O 0.20221 0.90971 0.59814 0.0
O126 O 0.2454 0.96942 0.64133 0.0
O127 O 0.24978 0.89547 0.71576 0.0
O128 O 0.04093 0.86656 0.71723 0.0
O129 O 0.17682 0.82257 0.73604 0.0
O130 O 0.05491 0.80342 0.74072 0.0
C131 C 0.1709 0.99375 0.71171 0.0
C132 C 0.11722 0.73732 0.64977 0.0
C133 C 0.23672 0.95733 0.60808 0.0
C134 C 0.03949 0.83467 0.60932 0.0
C135 C 0.22734 0.85485 0.73687 0.0
C136 C 0.03034 0.83033 0.74068 0.0
O137 O 0.19854 0.97163 0.71924 0.0
C138 C 0.94083 0.966 0.10007 0.0
C139 C 0.94801 0.94954 0.06604 0.0
C140 C 0.98551 0.99598 0.12227 0.0
C141 C 0.03687 0.01001 0.10911 0.0
C142 C 0.04031 0.97891 0.08064 0.0
C143 C -0.00393 0.95112 0.05803 0.0
C144 C 0.97843 0.019 0.15669 0.0
C145 C 0.09255 0.98298 0.06974 0.0
C146 C 0.12509 0.1312 0.06214 0.0
C147 C 0.17256 0.1323 0.0714 0.0
C148 C 0.07894 0.10099 0.08271 0.0
C149 C 0.08015 0.06743 0.11037 0.0
C150 C 0.13035 0.08028 0.12514 0.0
C151 C 0.17683 0.1125 0.10499 0.0
C152 C 0.02764 0.09801 0.07055 0.0
C153 C 0.13457 0.05406 0.15898 0.0
H154 H 0.90253 0.96239 0.10713 0.0
H155 H 0.0007 0.93571 0.03251 0.0
H156 H 0.01682 0.04262 0.17146 0.0
H157 H 0.96078 0.04486 0.1509 0.0
H158 H 0.94956 0.98567 0.17415 0.0
H159 H 0.11379 0.0172 0.05097 0.0
H160 H 0.11836 0.98929 0.0934 0.0
H161 H 0.08559 0.94586 0.05566 0.0
H162 H 0.12259 0.14903 0.03703 0.0
H163 H 0.21452 0.11547 0.11302 0.0
H164 H 0.03572 0.13632 0.05762 0.0
H165 H 1e-05 0.08979 0.09342 0.0
H166 H 0.00788 0.06548 0.05045 0.0
H167 H 0.16251 0.0856 0.17785 0.0
H168 H 0.15199 0.02816 0.15275 0.0
H169 H 0.09512 0.02971 0.17238 0.0
C170 C 0.07957 0.97694 0.37734 0.0
C171 C 0.0404 0.92869 0.392 0.0
C172 C 0.08928 0.02537 0.39241 0.0
C173 C 0.06046 0.02461 0.42372 0.0
C174 C 0.03132 0.97607 0.44307 0.0
C175 C 0.02102 0.9278 0.42667 0.0
C176 C 0.1212 0.07499 0.36995 0.0
C177 C 0.00338 0.97401 0.47764 0.0
C178 C 0.09418 0.16519 0.42844 0.0
C179 C 0.07046 0.16405 0.39528 0.0
C180 C 0.08349 0.11667 0.44468 0.0
C181 C 0.04684 0.06791 0.42767 0.0
C182 C 0.0111 0.0684 0.40157 0.0
C183 C 0.0247 0.11693 0.38443 0.0
C184 C 0.11634 0.11845 0.47671 0.0
C185 C 0.96566 0.01697 0.38661 0.0
H186 H 0.09528 0.97693 0.35085 0.0
H187 H 0.99136 0.88978 0.43837 0.0
H188 H 0.13371 0.11192 0.3855 0.0
H189 H 0.15747 0.07577 0.35878 0.0
H190 H 0.0962 0.07429 0.34698 0.0
H191 H 0.9669 0.97634 0.47144 0.0
H192 H 0.99132 0.93617 0.4926 0.0
H193 H 0.02949 0.00868 0.49505 0.0
H194 H 0.12787 0.2026 0.43797 0.0
H195 H 0.00465 0.11658 0.35967 0.0
H196 H 0.11574 0.07997 0.48123 0.0
H197 H 0.09973 0.1274 0.50095 0.0
H198 H 0.15857 0.1514 0.47388 0.0
H199 H 0.981 0.00185 0.36482 0.0
H200 H 0.93366 0.02367 0.37526 0.0
H201 H 0.94805 0.98577 0.40782 0.0
C202 C 0.16255 0.07166 0.72974 0.0
C203 C 0.16382 0.02545 0.73947 0.0
C204 C 0.13107 0.08709 0.74936 0.0
C205 C 0.09685 0.05212 0.7766 0.0
C206 C 0.10963 0.01494 0.79204 0.0
C207 C 0.14305 0.00121 0.77283 0.0
C208 C 0.12701 0.13452 0.73621 0.0
C209 C 0.08192 0.98373 0.82527 0.0
C210 C 0.99388 0.0889 0.76639 0.0
C211 C 0.97788 0.06611 0.73212 0.0
C212 C 0.0247 0.07459 0.78813 0.0
C213 C 0.03964 0.03808 0.77442 0.0
C214 C 0.0097 0.0044 0.74531 0.0
C215 C 0.98086 0.02049 0.72331 0.0
C216 C 0.04759 0.10446 0.82265 0.0
C217 C 0.01603 0.95785 0.73315 0.0
H218 H 0.1811 0.09208 0.70482 0.0
H219 H 0.14621 0.96665 0.78126 0.0
H220 H 0.09495 0.12079 0.71566 0.0
H221 H 0.11742 0.15375 0.75855 0.0
H222 H 0.16525 0.16505 0.72356 0.0
H223 H 0.11225 0.9851 0.84441 0.0
H224 H 0.05813 -0.00046 0.83868 0.0
H225 H 0.05514 0.94098 0.81812 0.0
H226 H 0.98944 0.12302 0.77394 0.0
H227 H 0.96607 0.00125 0.6975 0.0
H228 H 0.07114 0.08953 0.83743 0.0
H229 H 0.01432 0.10012 0.84008 0.0
H230 H 0.07346 0.14795 0.81693 0.0
H231 H 0.05047 0.97272 0.71442 0.0
H232 H 0.97961 0.92755 0.71862 0.0
H233 H 0.02317 0.93785 0.75621 0.0
C234 C 0.29915 0.26577 0.90762 0.0
C235 C 0.29118 0.21325 0.90846 0.0
C236 C 0.27589 0.282 0.88029 0.0
C237 C 0.24156 0.24411 0.8543 0.0
C238 C 0.23328 0.19099 0.85542 0.0
C239 C 0.25894 0.17678 0.8818 0.0
C240 C 0.28883 0.33988 0.8788 0.0
C241 C 0.19751 0.14828 0.82888 0.0
C242 C 0.1349 0.26192 0.80415 0.0
C243 C 0.15356 0.26875 0.76875 0.0
C244 C 0.16394 0.25576 0.8326 0.0
C245 C 0.21432 0.2593 0.82576 0.0
C246 C 0.23499 0.27029 0.79029 0.0
C247 C 0.20389 0.27361 0.7622 0.0
C248 C 0.13827 0.24041 0.86923 0.0
C249 C 0.28868 0.27551 0.78151 0.0
H250 H 0.3241 0.2943 0.928 0.0
H251 H 0.25189 0.13588 0.88224 0.0
H252 H 0.30442 0.35685 0.85179 0.0
H253 H 0.2519 0.3423 0.88318 0.0
H254 H 0.31912 0.36524 0.89924 0.0
H255 H 0.2224 0.14745 0.8064 0.0
H256 H 0.17759 0.10775 0.84154 0.0
H257 H 0.16606 0.15567 0.81765 0.0
H258 H 0.09562 0.25724 0.80917 0.0
H259 H 0.21835 0.27858 0.73481 0.0
H260 H 0.16595 0.268 0.88997 0.0
H261 H 0.12995 0.1992 0.87605 0.0
H262 H 0.09992 0.24108 0.87054 0.0
H263 H 0.31857 0.29806 0.80283 0.0
H264 H 0.30452 0.29627 0.75544 0.0
H265 H 0.28413 0.23479 0.77968 0.0
C266 C 0.12273 0.24048 0.20766 0.0
C267 C 0.11933 0.27313 0.23449 0.0
C268 C 0.0817 0.21364 0.18229 0.0
C269 C 0.0363 0.22081 0.18241 0.0
C270 C 0.03341 0.2555 0.20845 0.0
C271 C 0.07433 0.28028 0.23468 0.0
C272 C 0.08686 0.17677 0.15568 0.0
C273 C 0.98723 0.26653 0.20853 0.0
C274 C 0.96366 0.17827 0.09246 0.0
C275 C 0.92082 0.12666 0.10011 0.0
C276 C -0.00139 0.21134 0.11966 0.0
C277 C 0.99239 0.1914 0.15523 0.0
C278 C 0.94793 0.13983 0.16326 0.0
C279 C 0.91206 0.1086 0.13573 0.0
C280 C 0.04384 0.26661 0.10981 0.0
C281 C 0.94079 0.11565 0.20024 0.0
H282 H 0.15679 0.23389 0.20729 0.0
H283 H 0.07115 0.3053 0.25523 0.0
H284 H 0.04866 0.13799 0.15379 0.0
H285 H 0.09576 0.1956 0.12871 0.0
H286 H 0.1195 0.16835 0.16297 0.0
H287 H 0.99343 0.29843 0.22804 0.0
H288 H 0.9819 0.27909 0.18135 0.0
H289 H 0.94942 0.22926 0.21546 0.0
H290 H 0.97067 0.19229 0.0649 0.0
H291 H 0.87953 0.06834 0.14159 0.0
H292 H 0.08163 0.26533 0.10687 0.0
H293 H 0.05022 0.29629 0.1311 0.0
H294 H 0.03588 0.28089 0.08403 0.0
H295 H 0.97563 0.11031 0.20666 0.0
H296 H 0.90345 0.07591 0.20247 0.0
H297 H 0.93966 0.14313 0.22068 0.0
C298 C 0.84946 0.0561 0.57046 0.0
C299 C 0.89976 0.10323 0.56763 0.0
C300 C 0.8323 0.01446 0.54466 0.0
C301 C 0.86721 0.01873 0.51623 0.0
C302 C 0.91746 0.06694 0.51299 0.0
C303 C 0.93262 0.10835 0.53831 0.0
C304 C 0.77683 0.96593 0.54795 0.0
C305 C 0.95766 0.07517 0.48416 0.0
C306 C 0.85504 0.89214 0.47217 0.0
C307 C 0.84013 0.89654 0.43706 0.0
C308 C 0.86227 0.93048 0.49865 0.0
C309 C 0.85211 0.97303 0.49025 0.0
C310 C 0.83321 0.97502 0.4554 0.0
C311 C 0.8288 0.93771 0.42908 0.0
C312 C 0.88532 0.9281 0.53457 0.0
C313 C 0.82104 0.01881 0.44516 0.0
H314 H 0.82355 0.05164 0.5929 0.0
H315 H 0.97194 0.14405 0.53587 0.0
H316 H 0.75682 0.95464 0.52134 0.0
H317 H 0.77981 0.93112 0.55811 0.0
H318 H 0.75112 0.97329 0.56672 0.0
H319 H 0.97636 0.11684 0.47336 0.0
H320 H 0.9903 0.07041 0.49637 0.0
H321 H 0.94033 0.04667 0.46152 0.0
H322 H 0.8649 0.86103 0.4782 0.0
H323 H 0.8178 0.9416 0.40185 0.0
H324 H 0.85769 0.92477 0.55642 0.0
H325 H 0.92396 0.96592 0.53904 0.0
H326 H 0.8926 0.89354 0.53658 0.0
H327 H 0.79804 0.02496 0.46678 0.0
H328 H 0.79776 0.00937 0.41977 0.0
H329 H 0.85932 0.05725 0.44148 0.0
C330 C 0.87102 0.91096 0.87292 0.0
C331 C 0.83915 0.87512 0.89995 0.0
C332 C 0.899 0.89728 0.84804 0.0
C333 C 0.89342 0.84514 0.84873 0.0
C334 C 0.85893 0.80759 0.87488 0.0
C335 C 0.83354 0.82353 0.90076 0.0
C336 C 0.93489 0.94004 0.82156 0.0
C337 C 0.84856 0.75052 0.87606 0.0
C338 C 0.94124 0.81769 0.75979 0.0
C339 C 0.99084 0.82266 0.76916 0.0
C340 C 0.90708 0.82019 0.78589 0.0
C341 C 0.92398 0.83085 0.82221 0.0
C342 C 0.97344 0.83412 0.83195 0.0
C343 C 0.00552 0.82856 0.80544 0.0
C344 C 0.85409 0.81421 0.77408 0.0
C345 C -0.0053 0.84785 0.86979 0.0
H346 H 0.87635 0.9512 0.87211 0.0
H347 H 0.80904 0.79542 0.9215 0.0
H348 H 0.96511 0.9319 0.80918 0.0
H349 H 0.90981 0.94293 0.79995 0.0
H350 H 0.95629 0.98 0.83489 0.0
H351 H 0.80714 0.7225 0.88566 0.0
H352 H 0.85395 0.73651 0.84945 0.0
H353 H 0.87673 0.7481 0.89534 0.0
H354 H 0.92971 0.81319 0.73174 0.0
H355 H 0.04411 0.83305 0.8127 0.0
H356 H 0.85863 0.85471 0.77044 0.0
H357 H 0.82246 0.7923 0.79456 0.0
H358 H 0.84058 0.7924 0.74814 0.0
H359 H -0.00495 0.88498 0.8788 0.0
H360 H 0.03606 0.85423 0.87225 0.0
H361 H 0.96806 0.81483 0.88817 0.0
C362 C 0.99416 0.83874 0.21139 0.0
C363 C -0.00196 0.8054 0.23745 0.0
C364 C 0.03517 0.86678 0.18613 0.0
C365 C 0.08076 0.85977 0.1856 0.0
C366 C 0.08363 0.82388 0.21067 0.0
C367 C 0.04303 0.79832 0.23691 0.0
C368 C 0.02875 0.9039 0.16034 0.0
C369 C 0.12923 0.81197 0.20951 0.0
C370 C 0.1552 0.90609 0.09642 0.0
C371 C 0.1998 0.95584 0.10551 0.0
C372 C 0.11851 0.8725 0.12268 0.0
C373 C 0.12498 0.89008 0.15882 0.0
C374 C 0.17089 0.93988 0.16824 0.0
C375 C 0.20848 0.97139 0.1416 0.0
C376 C 0.07117 0.81953 0.11122 0.0
C377 C 0.17776 0.9624 0.2057 0.0
H378 H 0.95989 0.84504 0.21167 0.0
H379 H 0.04631 0.77252 0.25685 0.0
H380 H 0.00837 0.92362 0.17357 0.0
H381 H 0.06755 0.93564 0.14939 0.0
H382 H 0.00297 0.87991 0.1376 0.0
H383 H 0.12288 0.77917 0.22831 0.0
H384 H 0.13369 0.80018 0.18191 0.0
H385 H 0.16754 0.84857 0.21658 0.0
H386 H 0.14816 0.89409 0.06846 0.0
H387 H 0.24244 0.0102 0.14856 0.0
H388 H 0.03516 0.82415 0.10869 0.0
H389 H 0.06226 0.78769 0.13146 0.0
H390 H 0.07832 0.80611 0.08487 0.0
H391 H 0.14344 0.96857 0.21217 0.0
H392 H 0.21565 0.00147 0.20878 0.0
H393 H 0.17754 0.93355 0.22562 0.0
C394 C 0.24632 0.04396 0.58639 0.0
C395 C 0.25674 0.00149 0.5811 0.0
C396 C 0.2544 0.08086 0.55878 0.0
C397 C 0.27581 0.07691 0.52539 0.0
C398 C 0.29013 0.03638 0.52087 0.0
C399 C 0.27894 -0.00181 0.54836 0.0
C400 C 0.23608 0.12144 0.5645 0.0
C401 C 0.31503 0.03179 0.48639 0.0
C402 C 0.22951 0.12093 0.44266 0.0
C403 C 0.27073 0.17441 0.43734 0.0
C404 C 0.23124 0.08897 0.47068 0.0
C405 C 0.27607 0.11015 0.49402 0.0
C406 C 0.319 0.16341 0.4882 0.0
C407 C 0.31559 0.19511 0.46024 0.0
C408 C 0.18401 0.03285 0.4759 0.0
C409 C 0.36855 0.18687 0.5115 0.0
H410 H 0.22814 0.04604 0.61139 0.0
H411 H 0.28679 0.9653 0.54406 0.0
H412 H 0.26866 0.16255 0.55761 0.0
H413 H 0.20168 0.11193 0.54644 0.0
H414 H 0.22328 0.12158 0.5926 0.0
H415 H 0.33328 0.00574 0.48955 0.0
H416 H 0.28381 0.01416 0.4652 0.0
H417 H 0.34638 0.07217 0.47698 0.0
H418 H 0.19478 0.10397 0.42535 0.0
H419 H 0.34812 0.236 0.45631 0.0
H420 H 0.16472 0.03038 0.50217 0.0
H421 H 0.19755 0.00276 0.47629 0.0
H422 H 0.15337 0.02134 0.45447 0.0
H423 H 0.35808 0.19199 0.53929 0.0
H424 H 0.40052 0.22659 0.50149 0.0
H425 H 0.38474 0.15887 0.51272 0.0
C426 C 0.48548 0.08735 0.94611 0.0
C427 C 0.45471 0.06681 0.97743 0.0
C428 C 0.52813 0.07805 0.93865 0.0
C429 C 0.54022 0.04787 0.96321 0.0
C430 C 0.50817 0.02557 0.99417 0.0
C431 C 0.46584 0.03525 1.00085 0.0
C432 C 0.56133 0.10201 0.90524 0.0
C433 C 0.51987 0.99322 0.02111 0.0
C434 C 0.63022 0.98866 0.94659 0.0
C435 C 0.67558 0.02426 0.96651 0.0
C436 C 0.58674 -0.00215 0.94278 0.0
C437 C 0.58936 0.04376 0.95906 0.0
C438 C 0.63697 0.08198 0.97655 0.0
C439 C 0.67942 0.07162 0.98017 0.0
C440 C 0.53668 0.95649 0.9237 0.0
C441 C 0.64161 0.13177 0.99395 0.0
H442 H 0.47677 0.1113 0.92767 0.0
H443 H 0.44208 0.01878 0.02497 0.0
H444 H 0.60182 0.13513 0.91279 0.0
H445 H 0.56693 0.07133 0.89076 0.0
H446 H 0.54265 0.11841 0.88672 0.0
H447 H 0.48898 0.97582 0.04257 0.0
H448 H 0.52198 0.9599 0.0075 0.0
H449 H 0.55952 0.01938 0.03386 0.0
H450 H 0.62742 0.95223 0.93574 0.0
H451 H 0.71506 0.09989 0.99487 0.0
H452 H 0.52046 0.97631 0.9061 0.0
H453 H 0.50527 0.93233 0.94381 0.0
H454 H 0.54429 0.92863 0.90727 0.0
H455 H 0.6278 0.15264 0.97535 0.0
H456 H 0.68347 0.16062 1.00235 0.0
H457 H 0.61546 0.11995 0.01805 0.0
C458 C 0.44003 0.46497 0.28097 0.0
C459 C 0.42826 0.41744 0.29903 0.0
C460 C 0.49338 0.50668 0.2774 0.0
C461 C 0.53525 0.49998 0.29199 0.0
C462 C 0.5237 0.44999 0.30702 0.0
C463 C 0.47018 0.40933 0.31051 0.0
C464 C 0.50441 0.55941 0.26095 0.0
C465 C 0.56732 0.44101 0.32241 0.0
C466 C 0.68226 0.60424 0.27987 0.0
C467 C 0.69285 0.63313 0.3121 0.0
C468 C 0.63062 0.56143 0.27229 0.0
C469 C 0.58909 0.54735 0.29764 0.0
C470 C 0.59944 0.57676 0.32997 0.0
C471 C 0.65115 0.61928 0.33678 0.0
C472 C 0.62066 0.53085 0.23753 0.0
C473 C 0.55608 0.5627 0.35778 0.0
H474 H 0.40755 0.47098 0.27177 0.0
H475 H 0.46104 0.3719 0.32367 0.0
H476 H 0.51295 0.58921 0.28259 0.0
H477 H 0.54023 0.57599 0.24328 0.0
H478 H 0.46958 0.55498 0.24515 0.0
H479 H 0.55277 0.39769 0.32765 0.0
H480 H 0.60227 0.45668 0.30402 0.0
H481 H 0.58159 0.46321 0.34813 0.0
H482 H 0.71424 0.61502 0.26055 0.0
H483 H 0.65891 0.64141 0.3617 0.0
H484 H 0.58636 0.5297 0.22299 0.0
H485 H 0.60965 0.48855 0.24324 0.0
H486 H 0.65644 0.549 0.21971 0.0
H487 H 0.52117 0.56337 0.34554 0.0
H488 H 0.57042 0.59088 0.38092 0.0
H489 H 0.54166 0.52131 0.36801 0.0
C490 C 0.02675 0.42808 0.61003 0.0
C491 C 0.05972 0.41712 0.63209 0.0
C492 C 0.03726 0.48118 0.60546 0.0
C493 C 0.08177 0.52376 0.62325 0.0
C494 C 0.11757 0.51316 0.64301 0.0
C495 C 0.10601 0.45996 0.64725 0.0
C496 C -0.00143 0.49116 0.58384 0.0
C497 C 0.16577 0.55745 0.66217 0.0
C498 C 0.12881 0.67231 0.61066 0.0
C499 C 0.10559 0.68225 0.6407 0.0
C500 C 0.11928 0.62013 0.60331 0.0
C501 C 0.08614 0.57735 0.6267 0.0
C502 C 0.06103 0.58685 0.6562 0.0
C503 C 0.07096 0.63904 0.66277 0.0
C504 C 0.14617 0.61118 0.57138 0.0
C505 C 0.02546 0.54232 0.6819 0.0
H506 H 0.99123 0.39508 0.59794 0.0
H507 H 0.1324 0.45177 0.66361 0.0
H508 H 0.97258 0.49844 0.60234 0.0
H509 H 0.02054 0.52752 0.56679 0.0
H510 H 0.97237 0.45624 0.5665 0.0
H511 H 0.19318 0.54356 0.67243 0.0
H512 H 0.1888 0.59225 0.64404 0.0
H513 H 0.15198 0.5719 0.68524 0.0
H514 H 0.15515 0.70536 0.59324 0.0
H515 H 0.05229 0.64603 0.68584 0.0
H516 H 0.11698 0.57514 0.55607 0.0
H517 H 0.17852 0.60362 0.58076 0.0
H518 H 0.16416 0.64649 0.55306 0.0
H519 H 0.99339 0.50768 0.66699 0.0
H520 H 0.00628 0.55577 0.70215 0.0
H521 H 0.04965 0.5277 0.69624 0.0
C522 C 0.41735 0.25574 0.11956 0.0
C523 C 0.43028 0.2187 0.10481 0.0
C524 C 0.40747 0.25466 0.15646 0.0
C525 C 0.4108 0.21574 0.17819 0.0
C526 C 0.43618 0.18807 0.16466 0.0
C527 C 0.44751 0.19141 0.1279 0.0
C528 C 0.38474 0.28843 0.1708 0.0
C529 C 0.44291 0.14808 0.18723 0.0
C530 C 0.35639 0.21118 0.27052 0.0
C531 C 0.30108 0.18216 0.26312 0.0
C532 C 0.3941 0.21868 0.2441 0.0
C533 C 0.37553 0.19481 0.21015 0.0
C534 C 0.3199 0.15782 0.20493 0.0
C535 C 0.28298 0.15245 0.23152 0.0
C536 C 0.45262 0.25815 0.25128 0.0
C537 C 0.29871 0.12944 0.16955 0.0
H538 H 0.40637 0.27898 0.10204 0.0
H539 H 0.46035 0.16475 0.11661 0.0
H540 H 0.3403 0.26343 0.17241 0.0
H541 H 0.40017 0.30327 0.19818 0.0
H542 H 0.39483 0.32349 0.15313 0.0
H543 H 0.47597 0.14231 0.17685 0.0
H544 H 0.45114 0.16094 0.21568 0.0
H545 H 0.40515 0.1086 0.18627 0.0
H546 H 0.37018 0.23438 0.29514 0.0
H547 H 0.24023 0.13032 0.22584 0.0
H548 H 0.46023 0.29966 0.24656 0.0
H549 H 0.4798 0.25142 0.23363 0.0
H550 H 0.46284 0.2557 0.27972 0.0
H551 H 0.25618 0.09683 0.17163 0.0
H552 H 0.32326 0.11191 0.1599 0.0
H553 H 0.3012 0.15885 0.14914 0.0
C554 C 0.31009 0.43309 0.45093 0.0
C555 C 0.26565 0.41813 0.42826 0.0
C556 C 0.3024 0.42252 0.48781 0.0
C557 C 0.24985 0.39967 0.50179 0.0
C558 C 0.20844 0.39856 0.4804 0.0
C559 C 0.21705 0.40842 0.44349 0.0
C560 C 0.34842 0.42729 0.51012 0.0
C561 C 0.15258 0.37819 0.49506 0.0
C562 C 0.18239 0.27287 0.55663 0.0
C563 C 0.17194 0.29253 0.58798 0.0
C564 C 0.2143 0.3087 0.52959 0.0
C565 C 0.23455 0.3649 0.53412 0.0
C566 C 0.22989 0.38486 0.56772 0.0
C567 C 0.19876 0.34819 0.59444 0.0
C568 C 0.22053 0.28586 0.49459 0.0
C569 C 0.25136 0.44413 0.57422 0.0
H570 H 0.34869 0.44344 0.43926 0.0
H571 H 0.18308 0.39933 0.42628 0.0
H572 H 0.34477 0.43642 0.53855 0.0
H573 H 0.34817 0.38841 0.50935 0.0
H574 H 0.38764 0.45907 0.49938 0.0
H575 H 0.12827 0.38895 0.47727 0.0
H576 H 0.13183 0.33363 0.4974 0.0
H577 H 0.15425 0.39485 0.52218 0.0
H578 H 0.16119 0.22982 0.55164 0.0
H579 H 0.1902 0.36317 0.61885 0.0
H580 H 0.26221 0.30983 0.48431 0.0
H581 H 0.19314 0.28755 0.47424 0.0
H582 H 0.21073 0.24333 0.49752 0.0
H583 H 0.28648 0.46977 0.55699 0.0
H584 H 0.26305 0.45443 0.60279 0.0
H585 H 0.21929 0.45393 0.56828 0.0
C586 C 0.85575 0.19344 0.77291 0.0
C587 C 0.89549 0.24317 0.75947 0.0
C588 C 0.85317 0.18293 0.8098 0.0
C589 C 0.89064 0.22352 0.833 0.0
C590 C 0.9213 0.2769 0.82037 0.0
C591 C 0.92232 0.28649 0.78344 0.0
C592 C 0.81684 0.12612 0.82282 0.0
C593 C 0.95952 0.32201 0.84456 0.0
C594 C 0.88214 0.16848 0.92573 0.0
C595 C 0.91283 0.14314 0.92106 0.0
C596 C 0.87857 0.20026 0.89855 0.0
C597 C 0.90677 0.20683 0.86625 0.0
C598 C 0.94385 0.1877 0.86366 0.0
C599 C 0.94618 0.1555 0.89122 0.0
C600 C 0.83948 0.2206 0.90303 0.0
C601 C 0.97624 0.19571 0.83002 0.0
H602 H 0.83293 0.16028 0.75463 0.0
H603 H 0.9512 0.32594 0.77313 0.0
H604 H 0.84077 0.10566 0.82641 0.0
H605 H 0.79881 0.12616 0.8491 0.0
H606 H 0.78403 0.10238 0.8034 0.0
H607 H 0.96789 0.36177 0.83403 0.0
H608 H 0.94346 0.31686 0.87222 0.0
H609 H -0.00183 0.32202 0.8459 0.0
H610 H 0.85625 0.15861 0.94905 0.0
H611 H 0.96953 0.13552 0.88766 0.0
H612 H 0.79875 0.18838 0.89503 0.0
H613 H 0.85031 0.25657 0.88622 0.0
H614 H 0.83738 0.23069 0.93154 0.0
H615 H 0.94915 0.17042 0.80816 0.0
H616 H 0.00772 0.18448 0.83405 0.0
H617 H -0.0042 0.23831 0.82111 0.0
C618 C 0.67263 0.88658 0.11597 0.0
C619 C 0.69079 0.86184 0.09149 0.0
C620 C 0.6795 0.88324 0.15291 0.0
C621 C 0.70304 0.85297 0.16496 0.0
C622 C 0.70908 0.8181 0.14085 0.0
C623 C 0.70219 0.82252 0.10405 0.0
C624 C 0.66943 0.9185 0.17804 0.0
C625 C 0.73111 0.7826 0.15306 0.0
C626 C 0.82064 0.90649 0.2282 0.0
C627 C 0.79806 0.8694 0.25612 0.0
C628 C 0.78829 0.90557 0.19965 0.0
C629 C 0.73262 0.86644 0.19944 0.0
C630 C 0.70888 0.83408 0.22999 0.0
C631 C 0.7421 0.8359 0.25804 0.0
C632 C 0.81483 0.94215 0.1679 0.0
C633 C 0.64974 0.79303 0.23156 0.0
H634 H 0.66134 0.91531 0.10627 0.0
H635 H 0.71418 0.80154 0.08528 0.0
H636 H 0.65713 0.89997 0.20502 0.0
H637 H 0.70705 0.95774 0.1811 0.0
H638 H 0.63795 0.92648 0.16729 0.0
H639 H 0.72541 0.7522 0.13244 0.0
H640 H 0.77482 0.80791 0.15846 0.0
H641 H 0.71143 0.76135 0.17827 0.0
H642 H 0.86394 0.93216 0.22681 0.0
H643 H 0.72479 0.80739 0.28 0.0
H644 H 0.79096 0.96073 0.1588 0.0
H645 H 0.81704 0.91818 0.14527 0.0
H646 H 0.85618 0.9748 0.17427 0.0
H647 H 0.62532 0.8054 0.21529 0.0
H648 H 0.63496 0.78623 0.25968 0.0
H649 H 0.64331 0.75406 0.22095 0.0
C650 C 0.83718 0.65214 0.46034 0.0
C651 C 0.87788 0.66807 0.43441 0.0
C652 C 0.85059 0.66341 0.49665 0.0
C653 C 0.90524 0.68843 0.50659 0.0
C654 C 0.94373 0.69102 0.48169 0.0
C655 C 0.92938 0.68033 0.44546 0.0
C656 C 0.8078 0.65707 0.52283 0.0
C657 C 0.00193 0.71374 0.49201 0.0
C658 C 0.97445 0.81661 0.56015 0.0
C659 C 0.98986 0.79871 0.59025 0.0
C660 C 0.94117 0.7795 0.53415 0.0
C661 C 0.92445 0.72395 0.53845 0.0
C662 C 0.9349 0.70547 0.57089 0.0
C663 C 0.96742 0.74329 0.59656 0.0
C664 C 0.929 0.80053 0.50034 0.0
C665 C 0.91756 0.64694 0.57707 0.0
H666 H 0.79647 0.6398 0.4519 0.0
H667 H 0.9606 0.69024 0.42565 0.0
H668 H 0.81625 0.64805 0.55024 0.0
H669 H 0.80686 0.69533 0.52403 0.0
H670 H 0.76744 0.62459 0.51428 0.0
H671 H 0.0241 0.70376 0.47184 0.0
H672 H 0.02151 0.75827 0.49399 0.0
H673 H 0.00536 0.69814 0.51855 0.0
H674 H 0.99223 0.85951 0.55533 0.0
H675 H 0.97972 0.72974 0.62008 0.0
H676 H 0.88635 0.77476 0.4924 0.0
H677 H 0.95442 0.79994 0.4781 0.0
H678 H 0.93711 0.8424 0.5037 0.0
H679 H 0.88093 0.61952 0.56164 0.0
H680 H 0.90993 0.63665 0.60602 0.0
H681 H 0.95039 0.63955 0.56857 0.0
C682 C 0.22701 0.80927 0.79302 0.0
C683 C 0.25464 0.85403 0.77024 0.0
C684 C 0.22373 0.81687 0.82983 0.0
C685 C 0.25158 0.86973 0.84363 0.0
C686 C 0.29076 0.91197 0.82219 0.0
C687 C 0.29207 0.90349 0.78528 0.0
C688 C 0.1837 0.77012 0.8522 0.0
C689 C 0.32458 0.96826 0.83678 0.0
C690 C 0.18757 0.93342 0.89752 0.0
C691 C 0.21732 0.94479 0.92908 0.0
C692 C 0.19349 0.90254 0.87062 0.0
C693 C 0.23077 0.88404 0.87564 0.0
C694 C 0.255 0.88937 0.90946 0.0
C695 C 0.24752 0.91947 0.936 0.0
C696 C 0.165 0.89561 0.83529 0.0
C697 C 0.29436 0.86996 0.91642 0.0
H698 H 0.20015 0.77006 0.78149 0.0
H699 H 0.31571 0.93779 0.76798 0.0
H700 H 0.19643 0.77442 0.88067 0.0
H701 H 0.14434 0.76866 0.8512 0.0
H702 H 0.17793 0.7313 0.84165 0.0
H703 H 0.35943 0.99333 0.8191 0.0
H704 H 0.29962 0.98784 0.83878 0.0
H705 H 0.33961 0.96727 0.86404 0.0
H706 H 0.16458 0.95338 0.89225 0.0
H707 H 0.27064 0.92866 0.96064 0.0
H708 H 0.1474 0.85354 0.8256 0.0
H709 H 0.19427 0.92241 0.81485 0.0
H710 H 0.13248 0.90578 0.83744 0.0
H711 H 0.28683 0.83544 0.89908 0.0
H712 H 0.29278 0.85803 0.94496 0.0
H713 H 0.3357 0.90337 0.911 0.0
loop_
_geom_bond_atom_site_label_1
_geom_bond_atom_site_label_2
_geom_bond_distance
_geom_bond_site_symmetry_2
_ccdc_geom_bond_type
O0 Zn1 1.953 1_556 S
O0 C16 1.225 1_556 S
Zn1 O0 1.953 1_554 S
Zn1 O2 1.949 . S
Zn1 O8 1.919 1_544 S
Zn1 O13 1.924 1_545 S
O2 Zn1 1.949 . S
O2 Zn3 1.923 1_554 S
O2 Zn4 1.950 . S
O2 Zn5 1.945 . S
Zn3 O2 1.923 1_556 S
Zn3 O6 1.933 . S
Zn3 O9 1.941 . S
Zn3 O10 1.965 . S
Zn4 O2 1.950 . S
Zn4 O11 1.938 1_554 S
Zn4 O12 1.906 . S
Zn4 O22 1.953 . S
Zn5 O2 1.945 . S
Zn5 O7 1.932 . S
Zn5 O14 1.977 . S
Zn5 O15 1.910 1_545 S
O6 Zn3 1.933 . S
O6 C17 1.226 1_556 S
O7 Zn5 1.932 . S
O7 C17 1.307 . S
O8 Zn1 1.919 1_566 S
O8 C19 1.253 . S
O9 Zn3 1.941 . S
O9 C19 1.283 1_545 S
O10 Zn3 1.965 . S
O10 C18 1.303 . S
O11 Zn4 1.938 1_556 S
O11 C18 1.247 . S
O12 Zn4 1.906 . S
O12 C20 1.304 . S
O13 Zn1 1.924 1_565 S
O13 C21 1.311 . S
O14 Zn5 1.977 . S
O14 C20 1.272 . S
O15 Zn5 1.910 1_565 S
O15 C21 1.231 . S
C16 O0 1.225 1_554 S
C16 O22 1.298 . S
C17 O6 1.226 1_554 S
C17 O7 1.307 . S
C18 O10 1.303 . S
C18 O11 1.247 . S
C19 O8 1.253 . S
C19 O9 1.283 1_565 S
C20 O12 1.304 . S
C20 O14 1.272 . S
C21 O13 1.311 . S
C21 O15 1.231 . S
O22 Zn4 1.953 . S
O22 C16 1.298 . S
O23 Zn24 1.953 . S
O23 C39 1.225 . S
Zn24 O23 1.953 . S
Zn24 O25 1.949 . S
Zn24 O31 1.919 . S
Zn24 O36 1.924 . S
O25 Zn24 1.949 . S
O25 Zn26 1.923 . S
O25 Zn27 1.950 . S
O25 Zn28 1.945 . S
Zn26 O25 1.923 . S
Zn26 O29 1.933 . S
Zn26 O32 1.941 . S
Zn26 O33 1.965 . S
Zn27 O25 1.950 . S
Zn27 O34 1.938 . S
Zn27 O35 1.906 . S
Zn27 O45 1.953 . S
Zn28 O25 1.945 . S
Zn28 O30 1.932 . S
Zn28 O37 1.977 . S
Zn28 O38 1.910 . S
O29 Zn26 1.933 . S
O29 C40 1.226 . S
O30 Zn28 1.932 . S
O30 C40 1.307 . S
O31 Zn24 1.919 . S
O31 C42 1.253 . S
O32 Zn26 1.941 . S
O32 C42 1.283 . S
O33 Zn26 1.965 . S
O33 C41 1.303 . S
O34 Zn27 1.938 . S
O34 C41 1.247 . S
O35 Zn27 1.906 . S
O35 C43 1.304 . S
O36 Zn24 1.924 . S
O36 C44 1.311 . S
O37 Zn28 1.977 . S
O37 C43 1.272 . S
O38 Zn28 1.910 . S
O38 C44 1.231 . S
C39 O23 1.225 . S
C39 O45 1.298 . S
C40 O29 1.226 . S
C40 O30 1.307 . S
C41 O33 1.303 . S
C41 O34 1.247 . S
C42 O31 1.253 . S
C42 O32 1.283 . S
C43 O35 1.304 . S
C43 O37 1.272 . S
C44 O36 1.311 . S
C44 O38 1.231 . S
O45 Zn27 1.953 . S
O45 C39 1.298 . S
O46 Zn47 1.953 . S
O46 C62 1.225 . S
Zn47 O46 1.953 . S
Zn47 O48 1.949 . S
Zn47 O54 1.919 . S
Zn47 O59 1.924 . S
O48 Zn47 1.949 . S
O48 Zn49 1.923 . S
O48 Zn50 1.950 1_455 S
O48 Zn51 1.945 . S
Zn49 O48 1.923 . S
Zn49 O52 1.933 . S
Zn49 O55 1.941 . S
Zn49 O56 1.965 1_455 S
Zn50 O48 1.950 1_655 S
Zn50 O57 1.938 . S
Zn50 O58 1.906 . S
Zn50 O68 1.953 1_655 S
Zn51 O48 1.945 . S
Zn51 O53 1.932 . S
Zn51 O60 1.977 1_455 S
Zn51 O61 1.910 . S
O52 Zn49 1.933 . S
O52 C63 1.226 . S
O53 Zn51 1.932 . S
O53 C63 1.307 . S
O54 Zn47 1.919 . S
O54 C65 1.253 . S
O55 Zn49 1.941 . S
O55 C65 1.283 . S
O56 Zn49 1.965 1_655 S
O56 C64 1.303 . S
O57 Zn50 1.938 . S
O57 C64 1.247 . S
O58 Zn50 1.906 . S
O58 C66 1.304 . S
O59 Zn47 1.924 . S
O59 C67 1.311 . S
O60 Zn51 1.977 1_655 S
O60 C66 1.272 . S
O61 Zn51 1.910 . S
O61 C67 1.231 . S
C62 O46 1.225 . S
C62 O68 1.298 . S
C63 O52 1.226 . S
C63 O53 1.307 . S
C64 O56 1.303 . S
C64 O57 1.247 . S
C65 O54 1.253 . S
C65 O55 1.283 . S
C66 O58 1.304 . S
C66 O60 1.272 . S
C67 O59 1.311 . S
C67 O61 1.231 . S
O68 Zn50 1.953 1_455 S
O68 C62 1.298 . S
O69 Zn70 1.953 1_556 S
O69 C85 1.225 1_556 S
Zn70 O69 1.953 1_554 S
Zn70 O71 1.949 . S
Zn70 O77 1.919 1_554 S
Zn70 O82 1.924 . S
O71 Zn70 1.949 . S
O71 Zn72 1.923 1_554 S
O71 Zn73 1.950 1_545 S
O71 Zn74 1.945 . S
Zn72 O71 1.923 1_556 S
Zn72 O75 1.933 . S
Zn72 O78 1.941 . S
Zn72 O79 1.965 1_545 S
Zn73 O71 1.950 1_565 S
Zn73 O80 1.938 1_554 S
Zn73 O81 1.906 . S
Zn73 O91 1.953 . S
Zn74 O71 1.945 . S
Zn74 O76 1.932 . S
Zn74 O83 1.977 1_545 S
Zn74 O84 1.910 . S
O75 Zn72 1.933 . S
O75 C86 1.226 1_556 S
O76 Zn74 1.932 . S
O76 C86 1.307 . S
O77 Zn70 1.919 1_556 S
O77 C88 1.253 . S
O78 Zn72 1.941 . S
O78 C88 1.283 . S
O79 Zn72 1.965 1_565 S
O79 C87 1.303 . S
O80 Zn73 1.938 1_556 S
O80 C87 1.247 . S
O81 Zn73 1.906 . S
O81 C89 1.304 . S
O82 Zn70 1.924 . S
O82 C90 1.311 . S
O83 Zn74 1.977 1_565 S
O83 C89 1.272 . S
O84 Zn74 1.910 . S
O84 C90 1.231 . S
C85 O69 1.225 1_554 S
C85 O91 1.298 1_545 S
C86 O75 1.226 1_554 S
C86 O76 1.307 . S
C87 O79 1.303 . S
C87 O80 1.247 . S
C88 O77 1.253 . S
C88 O78 1.283 . S
C89 O81 1.304 . S
C89 O83 1.272 . S
C90 O82 1.311 . S
C90 O84 1.231 . S
O91 Zn73 1.953 . S
O91 C85 1.298 1_565 S
O92 Zn93 1.953 . S
O92 C108 1.225 . S
Zn93 O92 1.953 . S
Zn93 O94 1.949 . S
Zn93 O100 1.919 . S
Zn93 O105 1.924 . S
O94 Zn93 1.949 . S
O94 Zn95 1.923 . S
O94 Zn96 1.950 . S
O94 Zn97 1.945 . S
Zn95 O94 1.923 . S
Zn95 O98 1.933 . S
Zn95 O101 1.941 . S
Zn95 O102 1.965 . S
Zn96 O94 1.950 . S
Zn96 O103 1.938 . S
Zn96 O104 1.906 . S
Zn96 O114 1.953 . S
Zn97 O94 1.945 . S
Zn97 O99 1.932 . S
Zn97 O106 1.977 . S
Zn97 O107 1.910 . S
O98 Zn95 1.933 . S
O98 C109 1.226 . S
O99 Zn97 1.932 . S
O99 C109 1.307 . S
O100 Zn93 1.919 . S
O100 C111 1.253 . S
O101 Zn95 1.941 . S
O101 C111 1.283 . S
O102 Zn95 1.965 . S
O102 C110 1.303 . S
O103 Zn96 1.938 . S
O103 C110 1.247 . S
O104 Zn96 1.906 . S
O104 C112 1.304 . S
O105 Zn93 1.924 . S
O105 C113 1.311 . S
O106 Zn97 1.977 . S
O106 C112 1.272 . S
O107 Zn97 1.910 . S
O107 C113 1.231 . S
C108 O92 1.225 . S
C108 O114 1.298 . S
C109 O98 1.226 . S
C109 O99 1.307 . S
C110 O102 1.303 . S
C110 O103 1.247 . S
C111 O100 1.253 . S
C111 O101 1.283 . S
C112 O104 1.304 . S
C112 O106 1.272 . S
C113 O105 1.311 . S
C113 O107 1.231 . S
O114 Zn96 1.953 . S
O114 C108 1.298 . S
O115 Zn116 1.953 . S
O115 C131 1.225 . S
Zn116 O115 1.953 . S
Zn116 O117 1.949 . S
Zn116 O123 1.919 1_455 S
Zn116 O128 1.924 1_455 S
O117 Zn116 1.949 . S
O117 Zn118 1.923 . S
O117 Zn119 1.950 . S
O117 Zn120 1.945 . S
Zn118 O117 1.923 . S
Zn118 O121 1.933 . S
Zn118 O124 1.941 . S
Zn118 O125 1.965 . S
Zn119 O117 1.950 . S
Zn119 O126 1.938 . S
Zn119 O127 1.906 . S
Zn119 O137 1.953 . S
Zn120 O117 1.945 . S
Zn120 O122 1.932 . S
Zn120 O129 1.977 . S
Zn120 O130 1.910 . S
O121 Zn118 1.933 . S
O121 C132 1.226 . S
O122 Zn120 1.932 . S
O122 C132 1.307 . S
O123 Zn116 1.919 1_655 S
O123 C134 1.253 1_655 S
O124 Zn118 1.941 . S
O124 C134 1.283 . S
O125 Zn118 1.965 . S
O125 C133 1.303 . S
O126 Zn119 1.938 . S
O126 C133 1.247 . S
O127 Zn119 1.906 . S
O127 C135 1.304 . S
O128 Zn116 1.924 1_655 S
O128 C136 1.311 . S
O129 Zn120 1.977 . S
O129 C135 1.272 . S
O130 Zn120 1.910 . S
O130 C136 1.231 1_455 S
C131 O115 1.225 . S
C131 O137 1.298 . S
C132 O121 1.226 . S
C132 O122 1.307 . S
C133 O125 1.303 . S
C133 O126 1.247 . S
C134 O123 1.253 1_455 S
C134 O124 1.283 . S
C135 O127 1.304 . S
C135 O129 1.272 . S
C136 O128 1.311 . S
C136 O130 1.231 1_655 S
O137 Zn119 1.953 . S
O137 C131 1.298 . S
C138 C139 1.391 . S
C138 C140 1.394 1_655 S
C138 H154 0.931 . S
C139 C138 1.391 . S
C139 C143 1.376 1_544 S
C140 C138 1.394 1_455 S
C140 C141 1.369 . S
C140 C144 1.531 . S
C141 C140 1.369 . S
C141 C142 1.408 1_544 S
C141 C149 1.503 . S
C142 C141 1.408 1_566 S
C142 C143 1.391 1_455 S
C142 C145 1.514 . S
C143 C139 1.376 1_566 S
C143 C142 1.391 1_655 S
C143 H155 0.929 . S
C144 C140 1.531 . S
C144 H156 0.960 . S
C144 H157 0.962 . S
C144 H158 0.960 . S
C145 C142 1.514 . S
C145 H159 0.961 . S
C145 H160 0.961 . S
C145 H161 0.961 . S
C146 C147 1.370 1_556 S
C146 C148 1.363 . S
C146 H162 0.931 . S
C147 C146 1.370 1_554 S
C147 C151 1.408 . S
C148 C146 1.363 . S
C148 C149 1.370 1_556 S
C148 C152 1.524 . S
C149 C141 1.503 . S
C149 C148 1.370 1_554 S
C149 C150 1.403 . S
C150 C149 1.403 . S
C150 C151 1.404 . S
C150 C153 1.539 1_545 S
C151 C147 1.408 . S
C151 C150 1.404 . S
C151 H163 0.947 . S
C152 C148 1.524 . S
C152 H164 0.956 . S
C152 H165 0.961 . S
C152 H166 0.961 . S
C153 C150 1.539 1_565 S
C153 H167 0.958 . S
C153 H168 0.961 . S
C153 H169 0.960 . S
H154 C138 0.931 . S
H155 C143 0.929 . S
H156 C144 0.960 . S
H157 C144 0.962 . S
H158 C144 0.960 . S
H159 C145 0.961 . S
H160 C145 0.961 . S
H161 C145 0.961 . S
H162 C146 0.931 . S
H163 C151 0.947 . S
H164 C152 0.956 . S
H165 C152 0.961 . S
H166 C152 0.961 . S
H167 C153 0.958 . S
H168 C153 0.961 . S
H169 C153 0.960 . S
C170 C171 1.391 1_455 S
C170 C172 1.394 . S
C170 H186 0.931 . S
C171 C170 1.391 1_655 S
C171 C175 1.376 . S
C172 C170 1.394 . S
C172 C173 1.369 1_565 S
C172 C176 1.531 . S
C173 C172 1.369 1_545 S
C173 C174 1.410 1_455 S
C173 C181 1.503 . S
C174 C173 1.410 1_655 S
C174 C175 1.392 1_545 S
C174 C177 1.511 . S
C175 C171 1.376 . S
C175 C174 1.392 1_565 S
C175 H187 0.929 . S
C176 C172 1.531 . S
C176 H188 0.960 1_565 S
C176 H189 0.962 . S
C176 H190 0.960 . S
C177 C174 1.511 . S
C177 H191 0.961 . S
C177 H192 0.961 1_655 S
C177 H193 0.961 . S
C178 C179 1.370 . S
C178 C180 1.363 . S
C178 H194 0.931 . S
C179 C178 1.370 . S
C179 C183 1.408 . S
C180 C178 1.363 . S
C180 C181 1.370 . S
C180 C184 1.524 . S
C181 C173 1.503 . S
C181 C180 1.370 . S
C181 C182 1.403 . S
C182 C181 1.403 . S
C182 C183 1.404 . S
C182 C185 1.539 . S
C183 C179 1.408 . S
C183 C182 1.404 . S
C183 H195 0.930 . S
C184 C180 1.524 . S
C184 H196 0.956 . S
C184 H197 0.961 . S
C184 H198 0.961 . S
C185 C182 1.539 . S
C185 H199 0.958 . S
C185 H200 0.961 . S
C185 H201 0.960 . S
H186 C170 0.931 . S
H187 C175 0.929 . S
H188 C176 0.960 1_545 S
H189 C176 0.962 . S
H190 C176 0.960 . S
H191 C177 0.961 . S
H192 C177 0.961 1_455 S
H193 C177 0.961 . S
H194 C178 0.931 . S
H195 C183 0.930 . S
H196 C184 0.956 . S
H197 C184 0.961 . S
H198 C184 0.961 . S
H199 C185 0.958 . S
H200 C185 0.961 . S
H201 C185 0.960 . S
C202 C203 1.391 . S
C202 C204 1.394 1_565 S
C202 H218 0.931 . S
C203 C202 1.391 . S
C203 C207 1.376 . S
C204 C202 1.394 1_545 S
C204 C205 1.369 . S
C204 C208 1.531 . S
C205 C204 1.369 . S
C205 C206 1.410 1_545 S
C205 C213 1.503 . S
C206 C205 1.410 1_565 S
C206 C207 1.392 . S
C206 C209 1.511 1_455 S
C207 C203 1.376 . S
C207 C206 1.392 . S
C207 H219 0.929 . S
C208 C204 1.531 . S
C208 H220 0.960 . S
C208 H221 0.962 . S
C208 H222 0.960 . S
C209 C206 1.511 1_655 S
C209 H223 0.961 . S
C209 H224 0.963 1_665 S
C209 H225 0.961 . S
C210 C211 1.370 . S
C210 C212 1.363 . S
C210 H226 0.931 . S
C211 C210 1.370 . S
C211 C215 1.408 . S
C212 C210 1.363 . S
C212 C213 1.370 . S
C212 C216 1.524 . S
C213 C205 1.503 . S
C213 C212 1.370 . S
C213 C214 1.403 . S
C214 C213 1.403 . S
C214 C215 1.404 . S
C214 C217 1.539 1_455 S
C215 C211 1.408 . S
C215 C214 1.404 . S
C215 H227 0.930 1_455 S
C216 C212 1.524 . S
C216 H228 0.956 . S
C216 H229 0.961 . S
C216 H230 0.961 . S
C217 C214 1.539 1_655 S
C217 H231 0.958 1_655 S
C217 H232 0.961 . S
C217 H233 0.960 1_545 S
H218 C202 0.931 . S
H219 C207 0.929 . S
H220 C208 0.960 . S
H221 C208 0.962 . S
H222 C208 0.960 . S
H223 C209 0.961 . S
H224 C209 0.963 1_445 S
H225 C209 0.961 . S
H226 C210 0.931 . S
H227 C215 0.930 1_655 S
H228 C216 0.956 . S
H229 C216 0.961 . S
H230 C216 0.961 . S
H231 C217 0.958 1_455 S
H232 C217 0.961 . S
H233 C217 0.960 1_565 S
C234 C235 1.391 . S
C234 C236 1.394 . S
C234 H250 0.931 . S
C235 C234 1.391 . S
C235 C239 1.376 . S
C236 C234 1.394 . S
C236 C237 1.369 . S
C236 C240 1.531 . S
C237 C236 1.369 . S
C237 C238 1.410 . S
C237 C245 1.503 . S
C238 C237 1.410 . S
C238 C239 1.392 . S
C238 C241 1.511 . S
C239 C235 1.376 . S
C239 C238 1.392 . S
C239 H251 0.929 . S
C240 C236 1.531 . S
C240 H252 0.960 . S
C240 H253 0.962 . S
C240 H254 0.960 . S
C241 C238 1.511 . S
C241 H255 0.961 . S
C241 H256 0.961 . S
C241 H257 0.961 . S
C242 C243 1.370 . S
C242 C244 1.363 . S
C242 H258 0.931 . S
C243 C242 1.370 . S
C243 C247 1.408 . S
C244 C242 1.363 . S
C244 C245 1.370 . S
C244 C248 1.524 . S
C245 C237 1.503 . S
C245 C244 1.370 . S
C245 C246 1.403 . S
C246 C245 1.403 . S
C246 C247 1.404 . S
C246 C249 1.539 . S
C247 C243 1.408 . S
C247 C246 1.404 . S
C247 H259 0.930 . S
C248 C244 1.524 . S
C248 H260 0.956 . S
C248 H261 0.961 . S
C248 H262 0.961 . S
C249 C246 1.539 . S
C249 H263 0.958 . S
C249 H264 0.961 . S
C249 H265 0.960 . S
H250 C234 0.931 . S
H251 C239 0.929 . S
H252 C240 0.960 . S
H253 C240 0.962 . S
H254 C240 0.960 . S
H255 C241 0.961 . S
H256 C241 0.961 . S
H257 C241 0.961 . S
H258 C242 0.931 . S
H259 C247 0.930 . S
H260 C248 0.956 . S
H261 C248 0.961 . S
H262 C248 0.961 . S
H263 C249 0.958 . S
H264 C249 0.961 . S
H265 C249 0.960 . S
C266 C267 1.391 . S
C266 C268 1.394 . S
C266 H282 0.931 . S
C267 C266 1.391 . S
C267 C271 1.376 . S
C268 C266 1.394 . S
C268 C269 1.369 . S
C268 C272 1.531 . S
C269 C268 1.369 . S
C269 C270 1.410 . S
C269 C277 1.503 . S
C270 C269 1.410 . S
C270 C271 1.392 . S
C270 C273 1.511 . S
C271 C267 1.376 . S
C271 C270 1.392 . S
C271 H283 0.929 . S
C272 C268 1.531 . S
C272 H284 0.960 . S
C272 H285 0.962 . S
C272 H286 0.960 . S
C273 C270 1.511 . S
C273 H287 0.961 . S
C273 H288 0.961 . S
C273 H289 0.961 . S
C274 C275 1.370 1_455 S
C274 C276 1.363 . S
C274 H290 0.931 . S
C275 C274 1.370 1_655 S
C275 C279 1.408 . S
C276 C274 1.363 . S
C276 C277 1.370 . S
C276 C280 1.524 . S
C277 C269 1.503 . S
C277 C276 1.370 . S
C277 C278 1.403 1_455 S
C278 C277 1.403 1_655 S
C278 C279 1.404 . S
C278 C281 1.539 . S
C279 C275 1.408 . S
C279 C278 1.404 . S
C279 H291 0.930 . S
C280 C276 1.524 . S
C280 H292 0.956 . S
C280 H293 0.961 . S
C280 H294 0.961 . S
C281 C278 1.539 . S
C281 H295 0.958 . S
C281 H296 0.961 . S
C281 H297 0.960 . S
H282 C266 0.931 . S
H283 C271 0.929 . S
H284 C272 0.960 . S
H285 C272 0.962 . S
H286 C272 0.960 . S
H287 C273 0.961 . S
H288 C273 0.961 . S
H289 C273 0.961 . S
H290 C274 0.931 . S
H291 C279 0.930 . S
H292 C280 0.956 . S
H293 C280 0.961 . S
H294 C280 0.961 . S
H295 C281 0.958 . S
H296 C281 0.961 . S
H297 C281 0.960 . S
C298 C299 1.391 . S
C298 C300 1.394 . S
C298 H314 0.931 . S
C299 C298 1.391 . S
C299 C303 1.376 . S
C300 C298 1.394 . S
C300 C301 1.369 . S
C300 C304 1.531 1_545 S
C301 C300 1.369 . S
C301 C302 1.410 . S
C301 C309 1.503 . S
C302 C301 1.410 . S
C302 C303 1.392 . S
C302 C305 1.511 . S
C303 C299 1.376 . S
C303 C302 1.392 . S
C303 H315 0.929 . S
C304 C300 1.531 1_565 S
C304 H316 0.960 . S
C304 H317 0.962 1_565 S
C304 H318 0.960 . S
C305 C302 1.511 . S
C305 H319 0.961 . S
C305 H320 0.961 . S
C305 H321 0.961 . S
C306 C307 1.370 . S
C306 C308 1.363 1_565 S
C306 H322 0.931 . S
C307 C306 1.370 . S
C307 C311 1.408 . S
C308 C306 1.363 1_545 S
C308 C309 1.370 . S
C308 C312 1.524 . S
C309 C301 1.503 . S
C309 C308 1.370 . S
C309 C310 1.403 1_545 S
C310 C309 1.403 1_565 S
C310 C311 1.404 . S
C310 C313 1.539 . S
C311 C307 1.408 . S
C311 C310 1.404 . S
C311 H323 0.930 . S
C312 C308 1.524 . S
C312 H324 0.956 . S
C312 H325 0.961 . S
C312 H326 0.961 . S
C313 C310 1.539 . S
C313 H327 0.958 . S
C313 H328 0.961 . S
C313 H329 0.960 . S
H314 C298 0.931 . S
H315 C303 0.929 . S
H316 C304 0.960 . S
H317 C304 0.962 1_545 S
H318 C304 0.960 . S
H319 C305 0.961 . S
H320 C305 0.961 . S
H321 C305 0.961 . S
H322 C306 0.931 . S
H323 C311 0.930 . S
H324 C312 0.956 . S
H325 C312 0.961 . S
H326 C312 0.961 . S
H327 C313 0.958 . S
H328 C313 0.961 . S
H329 C313 0.960 . S
C330 C331 1.391 . S
C330 C332 1.394 . S
C330 H346 0.931 . S
C331 C330 1.391 . S
C331 C335 1.376 . S
C332 C330 1.394 . S
C332 C333 1.369 . S
C332 C336 1.531 . S
C333 C332 1.369 . S
C333 C334 1.410 . S
C333 C341 1.503 . S
C334 C333 1.410 . S
C334 C335 1.392 . S
C334 C337 1.511 . S
C335 C331 1.376 . S
C335 C334 1.392 . S
C335 H347 0.929 . S
C336 C332 1.531 . S
C336 H348 0.960 . S
C336 H349 0.962 . S
C336 H350 0.960 . S
C337 C334 1.511 . S
C337 H351 0.961 . S
C337 H352 0.961 . S
C337 H353 0.961 . S
C338 C339 1.370 . S
C338 C340 1.363 . S
C338 H354 0.931 . S
C339 C338 1.370 . S
C339 C343 1.408 . S
C340 C338 1.363 . S
C340 C341 1.370 . S
C340 C344 1.524 . S
C341 C333 1.503 . S
C341 C340 1.370 . S
C341 C342 1.403 . S
C342 C341 1.403 . S
C342 C343 1.404 . S
C342 C345 1.539 1_655 S
C343 C339 1.408 . S
C343 C342 1.404 . S
C343 H355 0.930 1_655 S
C344 C340 1.524 . S
C344 H356 0.956 . S
C344 H357 0.961 . S
C344 H358 0.961 . S
C345 C342 1.539 1_455 S
C345 H359 0.958 . S
C345 H360 0.961 . S
C345 H361 0.960 1_455 S
H346 C330 0.931 . S
H347 C335 0.929 . S
H348 C336 0.960 . S
H349 C336 0.962 . S
H350 C336 0.960 . S
H351 C337 0.961 . S
H352 C337 0.961 . S
H353 C337 0.961 . S
H354 C338 0.931 . S
H355 C343 0.930 1_455 S
H356 C344 0.956 . S
H357 C344 0.961 . S
H358 C344 0.961 . S
H359 C345 0.958 . S
H360 C345 0.961 . S
H361 C345 0.960 1_655 S
C362 C363 1.391 . S
C362 C364 1.394 1_655 S
C362 H378 0.931 . S
C363 C362 1.391 . S
C363 C367 1.376 1_655 S
C364 C362 1.394 1_455 S
C364 C365 1.369 . S
C364 C368 1.531 . S
C365 C364 1.369 . S
C365 C366 1.410 . S
C365 C373 1.503 . S
C366 C365 1.410 . S
C366 C367 1.392 . S
C366 C369 1.511 . S
C367 C363 1.376 1_455 S
C367 C366 1.392 . S
C367 H379 0.929 . S
C368 C364 1.531 . S
C368 H380 0.960 . S
C368 H381 0.962 . S
C368 H382 0.960 1_455 S
C369 C366 1.511 . S
C369 H383 0.961 . S
C369 H384 0.961 . S
C369 H385 0.961 . S
C370 C371 1.370 . S
C370 C372 1.363 . S
C370 H386 0.931 . S
C371 C370 1.370 . S
C371 C375 1.408 . S
C372 C370 1.363 . S
C372 C373 1.370 . S
C372 C376 1.524 . S
C373 C365 1.503 . S
C373 C372 1.370 . S
C373 C374 1.403 . S
C374 C373 1.403 . S
C374 C375 1.404 . S
C374 C377 1.539 . S
C375 C371 1.408 . S
C375 C374 1.404 . S
C375 H387 0.930 . S
C376 C372 1.524 . S
C376 H388 0.956 . S
C376 H389 0.961 . S
C376 H390 0.961 . S
C377 C374 1.539 . S
C377 H391 0.958 . S
C377 H392 0.961 . S
C377 H393 0.960 . S
H378 C362 0.931 . S
H379 C367 0.929 . S
H380 C368 0.960 . S
H381 C368 0.962 . S
H382 C368 0.960 1_655 S
H383 C369 0.961 . S
H384 C369 0.961 . S
H385 C369 0.961 . S
H386 C370 0.931 . S
H387 C375 0.930 . S
H388 C376 0.956 . S
H389 C376 0.961 . S
H390 C376 0.961 . S
H391 C377 0.958 . S
H392 C377 0.961 . S
H393 C377 0.960 . S
C394 C395 1.391 1_545 S
C394 C396 1.394 . S
C394 H410 0.930 1_545 S
C395 C394 1.391 1_565 S
C395 C399 1.376 . S
C396 C394 1.394 . S
C396 C397 1.369 . S
C396 C400 1.531 . S
C397 C396 1.369 . S
C397 C398 1.410 . S
C397 C405 1.503 . S
C398 C397 1.410 . S
C398 C399 1.392 1_545 S
C398 C401 1.511 . S
C399 C395 1.376 . S
C399 C398 1.392 1_565 S
C399 H411 0.929 . S
C400 C396 1.531 . S
C400 H412 0.960 . S
C400 H413 0.962 . S
C400 H414 0.960 . S
C401 C398 1.511 . S
C401 H415 0.961 1_545 S
C401 H416 0.961 . S
C401 H417 0.961 . S
C402 C403 1.370 . S
C402 C404 1.363 . S
C402 H418 0.931 . S
C403 C402 1.370 . S
C403 C407 1.408 . S
C404 C402 1.363 . S
C404 C405 1.370 . S
C404 C408 1.524 . S
C405 C397 1.503 . S
C405 C404 1.370 . S
C405 C406 1.403 . S
C406 C405 1.403 . S
C406 C407 1.404 . S
C406 C409 1.539 . S
C407 C403 1.408 . S
C407 C406 1.404 . S
C407 H419 0.930 . S
C408 C404 1.524 . S
C408 H420 0.956 . S
C408 H421 0.961 1_545 S
C408 H422 0.961 . S
C409 C406 1.539 . S
C409 H423 0.958 . S
C409 H424 0.961 . S
C409 H425 0.960 . S
H410 C394 0.930 1_565 S
H411 C399 0.929 . S
H412 C400 0.960 . S
H413 C400 0.962 . S
H414 C400 0.960 . S
H415 C401 0.961 1_565 S
H416 C401 0.961 . S
H417 C401 0.961 . S
H418 C402 0.931 . S
H419 C407 0.930 . S
H420 C408 0.956 . S
H421 C408 0.961 1_565 S
H422 C408 0.961 . S
H423 C409 0.958 . S
H424 C409 0.961 . S
H425 C409 0.960 . S
C426 C427 1.391 1_556 S
C426 C428 1.394 . S
C426 H442 0.931 . S
C427 C426 1.391 1_554 S
C427 C431 1.376 . S
C428 C426 1.394 . S
C428 C429 1.369 1_556 S
C428 C432 1.531 . S
C429 C428 1.369 1_554 S
C429 C430 1.410 . S
C429 C437 1.503 . S
C430 C429 1.410 . S
C430 C431 1.392 . S
C430 C433 1.511 . S
C431 C427 1.376 . S
C431 C430 1.392 . S
C431 H443 0.929 . S
C432 C428 1.531 . S
C432 H444 0.960 . S
C432 H445 0.962 1_545 S
C432 H446 0.960 . S
C433 C430 1.511 . S
C433 H447 0.961 . S
C433 H448 0.961 . S
C433 H449 0.961 . S
C434 C435 1.370 1_565 S
C434 C436 1.370 . S
C434 H450 0.931 . S
C435 C434 1.370 1_545 S
C435 C439 1.408 1_554 S
C436 C434 1.370 . S
C436 C437 1.361 1_565 S
C436 C440 1.527 . S
C437 C429 1.503 . S
C437 C436 1.361 1_545 S
C437 C438 1.403 1_554 S
C438 C437 1.403 1_556 S
C438 C439 1.404 . S
C438 C441 1.539 . S
C439 C435 1.408 1_556 S
C439 C438 1.404 . S
C439 H451 0.930 . S
C440 C436 1.527 . S
C440 H452 0.956 . S
C440 H453 0.961 . S
C440 H454 0.961 . S
C441 C438 1.539 . S
C441 H455 0.958 . S
C441 H456 0.961 . S
C441 H457 0.960 . S
H442 C426 0.931 . S
H443 C431 0.929 . S
H444 C432 0.960 . S
H445 C432 0.962 1_565 S
H446 C432 0.960 . S
H447 C433 0.961 . S
H448 C433 0.961 . S
H449 C433 0.961 . S
H450 C434 0.931 . S
H451 C439 0.930 . S
H452 C440 0.956 . S
H453 C440 0.961 . S
H454 C440 0.961 . S
H455 C441 0.958 . S
H456 C441 0.961 . S
H457 C441 0.960 . S
C458 C459 1.391 . S
C458 C460 1.394 . S
C458 H474 0.931 . S
C459 C458 1.391 . S
C459 C463 1.376 . S
C460 C458 1.394 . S
C460 C461 1.369 . S
C460 C464 1.531 . S
C461 C460 1.369 . S
C461 C462 1.410 . S
C461 C469 1.503 . S
C462 C461 1.410 . S
C462 C463 1.392 . S
C462 C465 1.511 . S
C463 C459 1.376 . S
C463 C462 1.392 . S
C463 H475 0.929 . S
C464 C460 1.531 . S
C464 H476 0.960 . S
C464 H477 0.962 . S
C464 H478 0.960 . S
C465 C462 1.511 . S
C465 H479 0.961 . S
C465 H480 0.961 . S
C465 H481 0.961 . S
C466 C467 1.370 . S
C466 C468 1.363 . S
C466 H482 0.931 . S
C467 C466 1.370 . S
C467 C471 1.408 . S
C468 C466 1.363 . S
C468 C469 1.370 . S
C468 C472 1.524 . S
C469 C461 1.503 . S
C469 C468 1.370 . S
C469 C470 1.403 . S
C470 C469 1.403 . S
C470 C471 1.404 . S
C470 C473 1.539 . S
C471 C467 1.408 . S
C471 C470 1.404 . S
C471 H483 0.930 . S
C472 C468 1.524 . S
C472 H484 0.956 . S
C472 H485 0.961 . S
C472 H486 0.961 . S
C473 C470 1.539 . S
C473 H487 0.958 . S
C473 H488 0.961 . S
C473 H489 0.960 . S
H474 C458 0.931 . S
H475 C463 0.929 . S
H476 C464 0.960 . S
H477 C464 0.962 . S
H478 C464 0.960 . S
H479 C465 0.961 . S
H480 C465 0.961 . S
H481 C465 0.961 . S
H482 C466 0.931 . S
H483 C471 0.930 . S
H484 C472 0.956 . S
H485 C472 0.961 . S
H486 C472 0.961 . S
H487 C473 0.958 . S
H488 C473 0.961 . S
H489 C473 0.960 . S
C490 C491 1.391 . S
C490 C492 1.394 . S
C490 H506 0.931 1_455 S
C491 C490 1.391 . S
C491 C495 1.376 . S
C492 C490 1.394 . S
C492 C493 1.369 . S
C492 C496 1.531 1_455 S
C493 C492 1.369 . S
C493 C494 1.410 . S
C493 C501 1.503 . S
C494 C493 1.410 . S
C494 C495 1.392 . S
C494 C497 1.511 . S
C495 C491 1.376 . S
C495 C494 1.392 . S
C495 H507 0.929 . S
C496 C492 1.531 1_655 S
C496 H508 0.960 1_655 S
C496 H509 0.962 . S
C496 H510 0.960 . S
C497 C494 1.511 . S
C497 H511 0.961 . S
C497 H512 0.961 . S
C497 H513 0.961 . S
C498 C499 1.370 . S
C498 C500 1.363 . S
C498 H514 0.931 . S
C499 C498 1.370 . S
C499 C503 1.408 . S
C500 C498 1.363 . S
C500 C501 1.370 . S
C500 C504 1.524 . S
C501 C493 1.503 . S
C501 C500 1.370 . S
C501 C502 1.403 . S
C502 C501 1.403 . S
C502 C503 1.404 . S
C502 C505 1.539 . S
C503 C499 1.408 . S
C503 C502 1.404 . S
C503 H515 0.930 . S
C504 C500 1.524 . S
C504 H516 0.956 1_455 S
C504 H517 0.961 . S
C504 H518 0.961 . S
C505 C502 1.539 . S
C505 H519 0.958 . S
C505 H520 0.961 . S
C505 H521 0.960 . S
H506 C490 0.931 1_655 S
H507 C495 0.929 . S
H508 C496 0.960 1_455 S
H509 C496 0.962 . S
H510 C496 0.960 . S
H511 C497 0.961 . S
H512 C497 0.961 . S
H513 C497 0.961 . S
H514 C498 0.931 . S
H515 C503 0.930 . S
H516 C504 0.956 1_655 S
H517 C504 0.961 . S
H518 C504 0.961 . S
H519 C505 0.958 . S
H520 C505 0.961 . S
H521 C505 0.960 . S
C522 C523 1.391 . S
C522 C524 1.394 . S
C522 H538 0.931 . S
C523 C522 1.391 . S
C523 C527 1.376 . S
C524 C522 1.394 . S
C524 C525 1.369 . S
C524 C528 1.531 . S
C525 C524 1.369 . S
C525 C526 1.410 . S
C525 C533 1.503 . S
C526 C525 1.410 . S
C526 C527 1.392 . S
C526 C529 1.511 . S
C527 C523 1.376 . S
C527 C526 1.392 . S
C527 H539 0.929 . S
C528 C524 1.531 . S
C528 H540 0.960 . S
C528 H541 0.962 . S
C528 H542 0.960 . S
C529 C526 1.511 . S
C529 H543 0.961 . S
C529 H544 0.961 . S
C529 H545 0.961 . S
C530 C531 1.370 . S
C530 C532 1.363 . S
C530 H546 0.931 . S
C531 C530 1.370 . S
C531 C535 1.408 . S
C532 C530 1.363 . S
C532 C533 1.370 . S
C532 C536 1.524 . S
C533 C525 1.503 . S
C533 C532 1.370 . S
C533 C534 1.403 . S
C534 C533 1.403 . S
C534 C535 1.404 . S
C534 C537 1.539 . S
C535 C531 1.408 . S
C535 C534 1.404 . S
C535 H547 0.930 . S
C536 C532 1.524 . S
C536 H548 0.956 . S
C536 H549 0.961 . S
C536 H550 0.961 . S
C537 C534 1.539 . S
C537 H551 0.958 . S
C537 H552 0.961 . S
C537 H553 0.960 . S
H538 C522 0.931 . S
H539 C527 0.929 . S
H540 C528 0.960 . S
H541 C528 0.962 . S
H542 C528 0.960 . S
H543 C529 0.961 . S
H544 C529 0.961 . S
H545 C529 0.961 . S
H546 C530 0.931 . S
H547 C535 0.930 . S
H548 C536 0.956 . S
H549 C536 0.961 . S
H550 C536 0.961 . S
H551 C537 0.958 . S
H552 C537 0.961 . S
H553 C537 0.960 . S
C554 C555 1.391 . S
C554 C556 1.394 . S
C554 H570 0.931 . S
C555 C554 1.391 . S
C555 C559 1.376 . S
C556 C554 1.394 . S
C556 C557 1.369 . S
C556 C560 1.531 . S
C557 C556 1.369 . S
C557 C558 1.410 . S
C557 C565 1.503 . S
C558 C557 1.410 . S
C558 C559 1.392 . S
C558 C561 1.511 . S
C559 C555 1.376 . S
C559 C558 1.392 . S
C559 H571 0.929 . S
C560 C556 1.531 . S
C560 H572 0.960 . S
C560 H573 0.962 . S
C560 H574 0.960 . S
C561 C558 1.511 . S
C561 H575 0.961 . S
C561 H576 0.961 . S
C561 H577 0.961 . S
C562 C563 1.370 . S
C562 C564 1.363 . S
C562 H578 0.931 . S
C563 C562 1.370 . S
C563 C567 1.408 . S
C564 C562 1.363 . S
C564 C565 1.370 . S
C564 C568 1.524 . S
C565 C557 1.503 . S
C565 C564 1.370 . S
C565 C566 1.403 . S
C566 C565 1.403 . S
C566 C567 1.404 . S
C566 C569 1.539 . S
C567 C563 1.408 . S
C567 C566 1.404 . S
C567 H579 0.930 . S
C568 C564 1.524 . S
C568 H580 0.956 . S
C568 H581 0.961 . S
C568 H582 0.961 . S
C569 C566 1.539 . S
C569 H583 0.958 . S
C569 H584 0.961 . S
C569 H585 0.960 . S
H570 C554 0.931 . S
H571 C559 0.929 . S
H572 C560 0.960 . S
H573 C560 0.962 . S
H574 C560 0.960 . S
H575 C561 0.961 . S
H576 C561 0.961 . S
H577 C561 0.961 . S
H578 C562 0.931 . S
H579 C567 0.930 . S
H580 C568 0.956 . S
H581 C568 0.961 . S
H582 C568 0.961 . S
H583 C569 0.958 . S
H584 C569 0.961 . S
H585 C569 0.960 . S
C586 C587 1.391 . S
C586 C588 1.394 . S
C586 H602 0.931 . S
C587 C586 1.391 . S
C587 C591 1.376 . S
C588 C586 1.394 . S
C588 C589 1.369 . S
C588 C592 1.531 . S
C589 C588 1.369 . S
C589 C590 1.410 . S
C589 C597 1.503 . S
C590 C589 1.410 . S
C590 C591 1.392 . S
C590 C593 1.511 1_655 S
C591 C587 1.376 . S
C591 C590 1.392 . S
C591 H603 0.929 1_655 S
C592 C588 1.531 . S
C592 H604 0.960 . S
C592 H605 0.962 . S
C592 H606 0.960 . S
C593 C590 1.511 1_455 S
C593 H607 0.961 . S
C593 H608 0.961 1_455 S
C593 H609 0.961 . S
C594 C595 1.370 . S
C594 C596 1.363 . S
C594 H610 0.931 . S
C595 C594 1.370 . S
C595 C599 1.408 . S
C596 C594 1.363 . S
C596 C597 1.370 . S
C596 C600 1.524 . S
C597 C589 1.503 . S
C597 C596 1.370 . S
C597 C598 1.403 . S
C598 C597 1.403 . S
C598 C599 1.404 . S
C598 C601 1.539 . S
C599 C595 1.408 . S
C599 C598 1.404 . S
C599 H611 0.930 . S
C600 C596 1.524 . S
C600 H612 0.956 . S
C600 H613 0.961 . S
C600 H614 0.961 . S
C601 C598 1.539 . S
C601 H615 0.958 . S
C601 H616 0.961 . S
C601 H617 0.960 . S
H602 C586 0.931 . S
H603 C591 0.929 1_455 S
H604 C592 0.960 . S
H605 C592 0.962 . S
H606 C592 0.960 . S
H607 C593 0.961 . S
H608 C593 0.961 1_655 S
H609 C593 0.961 . S
H610 C594 0.931 . S
H611 C599 0.930 . S
H612 C600 0.956 . S
H613 C600 0.961 . S
H614 C600 0.961 . S
H615 C601 0.958 . S
H616 C601 0.961 . S
H617 C601 0.960 . S
C618 C619 1.391 . S
C618 C620 1.394 . S
C618 H634 0.931 . S
C619 C618 1.391 . S
C619 C623 1.376 . S
C620 C618 1.394 . S
C620 C621 1.369 . S
C620 C624 1.531 . S
C621 C620 1.369 . S
C621 C622 1.410 . S
C621 C629 1.503 . S
C622 C621 1.410 . S
C622 C623 1.392 . S
C622 C625 1.511 . S
C623 C619 1.376 . S
C623 C622 1.392 . S
C623 H635 0.929 . S
C624 C620 1.531 . S
C624 H636 0.960 . S
C624 H637 0.962 . S
C624 H638 0.960 . S
C625 C622 1.511 . S
C625 H639 0.961 . S
C625 H640 0.961 . S
C625 H641 0.961 . S
C626 C627 1.370 . S
C626 C628 1.363 . S
C626 H642 0.931 . S
C627 C626 1.370 . S
C627 C631 1.408 . S
C628 C626 1.363 . S
C628 C629 1.370 . S
C628 C632 1.524 . S
C629 C621 1.503 . S
C629 C628 1.370 . S
C629 C630 1.403 . S
C630 C629 1.403 . S
C630 C631 1.404 . S
C630 C633 1.539 . S
C631 C627 1.408 . S
C631 C630 1.404 . S
C631 H643 0.930 . S
C632 C628 1.524 . S
C632 H644 0.956 . S
C632 H645 0.961 . S
C632 H646 0.961 . S
C633 C630 1.539 . S
C633 H647 0.958 . S
C633 H648 0.961 . S
C633 H649 0.960 . S
H634 C618 0.931 . S
H635 C623 0.929 . S
H636 C624 0.960 . S
H637 C624 0.962 . S
H638 C624 0.960 . S
H639 C625 0.961 . S
H640 C625 0.961 . S
H641 C625 0.961 . S
H642 C626 0.931 . S
H643 C631 0.930 . S
H644 C632 0.956 . S
H645 C632 0.961 . S
H646 C632 0.961 . S
H647 C633 0.958 . S
H648 C633 0.961 . S
H649 C633 0.960 . S
C650 C651 1.391 . S
C650 C652 1.394 . S
C650 H666 0.931 . S
C651 C650 1.391 . S
C651 C655 1.376 . S
C652 C650 1.394 . S
C652 C653 1.369 . S
C652 C656 1.531 . S
C653 C652 1.369 . S
C653 C654 1.410 . S
C653 C661 1.503 . S
C654 C653 1.410 . S
C654 C655 1.392 . S
C654 C657 1.511 1_655 S
C655 C651 1.376 . S
C655 C654 1.392 . S
C655 H667 0.929 . S
C656 C652 1.531 . S
C656 H668 0.960 . S
C656 H669 0.962 . S
C656 H670 0.960 . S
C657 C654 1.511 1_455 S
C657 H671 0.961 . S
C657 H672 0.961 . S
C657 H673 0.961 . S
C658 C659 1.370 . S
C658 C660 1.363 . S
C658 H674 0.931 . S
C659 C658 1.370 . S
C659 C663 1.408 . S
C660 C658 1.363 . S
C660 C661 1.370 . S
C660 C664 1.524 . S
C661 C653 1.503 . S
C661 C660 1.370 . S
C661 C662 1.403 . S
C662 C661 1.403 . S
C662 C663 1.404 . S
C662 C665 1.539 . S
C663 C659 1.408 . S
C663 C662 1.404 . S
C663 H675 0.930 . S
C664 C660 1.524 . S
C664 H676 0.956 . S
C664 H677 0.961 . S
C664 H678 0.961 . S
C665 C662 1.539 . S
C665 H679 0.958 . S
C665 H680 0.961 . S
C665 H681 0.960 . S
H666 C650 0.931 . S
H667 C655 0.929 . S
H668 C656 0.960 . S
H669 C656 0.962 . S
H670 C656 0.960 . S
H671 C657 0.961 . S
H672 C657 0.961 . S
H673 C657 0.961 . S
H674 C658 0.931 . S
H675 C663 0.930 . S
H676 C664 0.956 . S
H677 C664 0.961 . S
H678 C664 0.961 . S
H679 C665 0.958 . S
H680 C665 0.961 . S
H681 C665 0.960 . S
C682 C683 1.391 . S
C682 C684 1.394 . S
C682 H698 0.931 . S
C683 C682 1.391 . S
C683 C687 1.376 . S
C684 C682 1.394 . S
C684 C685 1.369 . S
C684 C688 1.531 . S
C685 C684 1.369 . S
C685 C686 1.410 . S
C685 C693 1.503 . S
C686 C685 1.410 . S
C686 C687 1.392 . S
C686 C689 1.511 . S
C687 C683 1.376 . S
C687 C686 1.392 . S
C687 H699 0.929 . S
C688 C684 1.531 . S
C688 H700 0.960 . S
C688 H701 0.962 . S
C688 H702 0.960 . S
C689 C686 1.511 . S
C689 H703 0.961 . S
C689 H704 0.961 . S
C689 H705 0.961 . S
C690 C691 1.370 . S
C690 C692 1.363 . S
C690 H706 0.931 1_565 S
C691 C690 1.370 . S
C691 C695 1.408 . S
C692 C690 1.363 . S
C692 C693 1.370 . S
C692 C696 1.524 . S
C693 C685 1.503 . S
C693 C692 1.370 . S
C693 C694 1.403 . S
C694 C693 1.403 . S
C694 C695 1.404 . S
C694 C697 1.539 . S
C695 C691 1.408 . S
C695 C694 1.404 . S
C695 H707 0.930 . S
C696 C692 1.524 . S
C696 H708 0.956 . S
C696 H709 0.961 1_565 S
C696 H710 0.961 1_565 S
C697 C694 1.539 . S
C697 H711 0.958 . S
C697 H712 0.961 . S
C697 H713 0.960 . S
H698 C682 0.931 . S
H699 C687 0.929 . S
H700 C688 0.960 . S
H701 C688 0.962 . S
H702 C688 0.960 . S
H703 C689 0.961 . S
H704 C689 0.961 . S
H705 C689 0.961 . S
H706 C690 0.931 1_545 S
H707 C695 0.930 . S
H708 C696 0.956 . S
H709 C696 0.961 1_545 S
H710 C696 0.961 1_545 S
H711 C697 0.958 . S
H712 C697 0.961 . S
H713 C697 0.960 . S
C139 C85 0.837 . S
C147 C16 0.797 . S
C171 C108 0.809 . S
C179 C39 0.810 . S
C203 C131 0.805 . S
C211 C62 0.811 . S
C235 C18 1.920 . S
C243 C67 1.935 . S
C267 C41 1.909 . S
C275 C90 1.934 . S
C299 C64 1.916 . S
C307 C113 1.935 . S
C331 C87 1.905 . S
C339 C136 1.927 . S
C363 C110 1.918 . S
C371 C21 1.927 . S
C395 C133 1.914 . S
C403 C44 1.935 . S
C427 C17 0.958 . S
C435 C86 0.942 . S
C459 C40 0.941 . S
C467 C109 0.951 . S
C491 C63 0.941 . S
C499 C132 0.952 . S
C523 C20 0.616 . S
C531 C42 0.678 . S
C555 C43 0.765 . S
C563 C65 0.711 . S
C587 C66 0.611 . S
C595 C88 0.632 . S
C619 C89 0.748 . S
C627 C111 0.665 . S
C651 C112 0.784 . S
C659 C134 0.698 1_655 S
C683 C135 0.759 . S
C691 C19 0.712 . S
