# Generated by pormake.
# Topology usf, (4)-cn, num edge types: 1
# Building blocks:
#     Node 0, Type 0, BuildingBlock: NAWXER_clean_sbu_0, # of connection points: 4
#     Node 1, Type 0, BuildingBlock: NAWXER_clean_sbu_0, # of connection points: 4
#     Node 2, Type 0, BuildingBlock: NAWXER_clean_sbu_0, # of connection points: 4
#     Node 3, Type 0, BuildingBlock: NAWXER_clean_sbu_0, # of connection points: 4
#     Node 4, Type 0, BuildingBlock: NAWXER_clean_sbu_0, # of connection points: 4
#     Node 5, Type 0, BuildingBlock: NAWXER_clean_sbu_0, # of connection points: 4
#     Node 6, Type 0, BuildingBlock: NAWXER_clean_sbu_0, # of connection points: 4
#     Node 7, Type 0, BuildingBlock: NAWXER_clean_sbu_0, # of connection points: 4
#     Node 8, Type 0, BuildingBlock: NAWXER_clean_sbu_0, # of connection points: 4
#     Node 9, Type 0, BuildingBlock: NAWXER_clean_sbu_0, # of connection points: 4
#     Node 10, Type 0, BuildingBlock: NAWXER_clean_sbu_0, # of connection points: 4
#     Node 11, Type 0, BuildingBlock: NAWXER_clean_sbu_0, # of connection points: 4
#     Node 12, Type 0, BuildingBlock: NAWXER_clean_sbu_0, # of connection points: 4
#     Node 13, Type 0, BuildingBlock: NAWXER_clean_sbu_0, # of connection points: 4
#     Node 14, Type 0, BuildingBlock: NAWXER_clean_sbu_0, # of connection points: 4
#     Node 15, Type 0, BuildingBlock: NAWXER_clean_sbu_0, # of connection points: 4
#     Node 16, Type 0, BuildingBlock: NAWXER_clean_sbu_0, # of connection points: 4
#     Node 17, Type 0, BuildingBlock: NAWXER_clean_sbu_0, # of connection points: 4
#     Edge 18, Type (0, 0), BuildingBlock: TEMPAE_clean_linker_10, # of connection points: 2
#     Edge 19, Type (0, 0), BuildingBlock: TEMPAE_clean_linker_10, # of connection points: 2
#     Edge 20, Type (0, 0), BuildingBlock: TEMPAE_clean_linker_10, # of connection points: 2
#     Edge 21, Type (0, 0), BuildingBlock: TEMPAE_clean_linker_10, # of connection points: 2
#     Edge 22, Type (0, 0), BuildingBlock: TEMPAE_clean_linker_10, # of connection points: 2
#     Edge 23, Type (0, 0), BuildingBlock: TEMPAE_clean_linker_10, # of connection points: 2
#     Edge 24, Type (0, 0), BuildingBlock: TEMPAE_clean_linker_10, # of connection points: 2
#     Edge 25, Type (0, 0), BuildingBlock: TEMPAE_clean_linker_10, # of connection points: 2
#     Edge 26, Type (0, 0), BuildingBlock: TEMPAE_clean_linker_10, # of connection points: 2
#     Edge 27, Type (0, 0), BuildingBlock: TEMPAE_clean_linker_10, # of connection points: 2
#     Edge 28, Type (0, 0), BuildingBlock: TEMPAE_clean_linker_10, # of connection points: 2
#     Edge 29, Type (0, 0), BuildingBlock: TEMPAE_clean_linker_10, # of connection points: 2
#     Edge 30, Type (0, 0), BuildingBlock: TEMPAE_clean_linker_10, # of connection points: 2
#     Edge 31, Type (0, 0), BuildingBlock: TEMPAE_clean_linker_10, # of connection points: 2
#     Edge 32, Type (0, 0), BuildingBlock: TEMPAE_clean_linker_10, # of connection points: 2
#     Edge 33, Type (0, 0), BuildingBlock: TEMPAE_clean_linker_10, # of connection points: 2
#     Edge 34, Type (0, 0), BuildingBlock: TEMPAE_clean_linker_10, # of connection points: 2
#     Edge 35, Type (0, 0), BuildingBlock: TEMPAE_clean_linker_10, # of connection points: 2
#     Edge 36, Type (0, 0), BuildingBlock: TEMPAE_clean_linker_10, # of connection points: 2
#     Edge 37, Type (0, 0), BuildingBlock: TEMPAE_clean_linker_10, # of connection points: 2
#     Edge 38, Type (0, 0), BuildingBlock: TEMPAE_clean_linker_10, # of connection points: 2
#     Edge 39, Type (0, 0), BuildingBlock: TEMPAE_clean_linker_10, # of connection points: 2
#     Edge 40, Type (0, 0), BuildingBlock: TEMPAE_clean_linker_10, # of connection points: 2
#     Edge 41, Type (0, 0), BuildingBlock: TEMPAE_clean_linker_10, # of connection points: 2
#     Edge 42, Type (0, 0), BuildingBlock: TEMPAE_clean_linker_10, # of connection points: 2
#     Edge 43, Type (0, 0), BuildingBlock: TEMPAE_clean_linker_10, # of connection points: 2
#     Edge 44, Type (0, 0), BuildingBlock: TEMPAE_clean_linker_10, # of connection points: 2
#     Edge 45, Type (0, 0), BuildingBlock: TEMPAE_clean_linker_10, # of connection points: 2
#     Edge 46, Type (0, 0), BuildingBlock: TEMPAE_clean_linker_10, # of connection points: 2
#     Edge 47, Type (0, 0), BuildingBlock: TEMPAE_clean_linker_10, # of connection points: 2
#     Edge 48, Type (0, 0), BuildingBlock: TEMPAE_clean_linker_10, # of connection points: 2
#     Edge 49, Type (0, 0), BuildingBlock: TEMPAE_clean_linker_10, # of connection points: 2
#     Edge 50, Type (0, 0), BuildingBlock: TEMPAE_clean_linker_10, # of connection points: 2
#     Edge 51, Type (0, 0), BuildingBlock: TEMPAE_clean_linker_10, # of connection points: 2
#     Edge 52, Type (0, 0), BuildingBlock: TEMPAE_clean_linker_10, # of connection points: 2
#     Edge 53, Type (0, 0), BuildingBlock: TEMPAE_clean_linker_10, # of connection points: 2
# Relax obj value: 0.054
# Max RMSD: 0.096
# Mean RMSD: 0.096
data_MOF--net-usf--node1-NAWXER_clean_sbu_0--edge1-TEMPAE_clean_linker_10
_symmetry_space_group_name_H-M    P1
_symmetry_Int_Tables_number       1
_symmetry_cell_setting            triclinic
loop_
_symmetry_equiv_pos_as_xyz
'x, y, z'
_cell_length_a     48.796082
_cell_length_b     48.835763
_cell_length_c     29.170548
_cell_angle_alpha  89.910519
_cell_angle_beta   90.090621
_cell_angle_gamma 120.2214
loop_
_atom_site_label
_atom_site_type_symbol
_atom_site_fract_x
_atom_site_fract_y
_atom_site_fract_z
_atom_type_partial_charge
C0 C 0.97284 0.51535 0.88818 0.0
C1 C 0.98768 0.49533 0.0477 0.0
O2 O 0.99786 0.53808 0.90644 0.0
Zn3 Zn 0.02284 0.54878 0.97012 0.0
O4 O 0.95592 0.48999 0.91074 0.0
Zn5 Zn 0.98095 0.50306 0.96646 0.0
O6 O 0.97425 0.54097 0.99022 0.0
O7 O 0.02034 0.58582 0.98864 0.0
O8 O 0.96672 0.47579 0.02016 0.0
O9 O 1.00943 0.52227 0.03265 0.0
O10 O 0.0635 0.55228 0.95469 0.0
O11 O 0.02335 0.5037 0.94572 0.0
C12 C 0.99072 0.57091 0.99716 0.0
C13 C 0.05313 0.52367 0.94285 0.0
C14 C 0.54485 0.51405 0.0563 0.0
C15 C 0.52283 0.48773 0.89507 0.0
O16 O 0.5205 0.51524 0.04256 0.0
Zn17 Zn 0.49609 0.51066 0.97915 0.0
O18 O 0.56226 0.51087 0.02699 0.0
Zn19 Zn 0.53629 0.50559 0.97373 0.0
O20 O 0.54559 0.55253 0.95615 0.0
O21 O 0.50094 0.5522 0.9682 0.0
O22 O 0.54647 0.4916 0.91854 0.0
O23 O 0.50274 0.49429 0.91299 0.0
O24 O 0.45474 0.47602 0.99698 0.0
O25 O 0.49223 0.46331 0.99309 0.0
C26 C 0.52982 0.56707 0.95602 0.0
C27 C 0.46334 0.45548 0.00132 0.0
C28 C 0.48142 0.96682 0.09184 0.0
C29 C 0.50833 0.97229 0.93038 0.0
O30 O 0.4842 0.94314 0.0793 0.0
Zn31 Zn 0.49446 0.92622 0.01706 0.0
O32 O 0.48617 0.98828 0.063 0.0
Zn33 Zn 0.4971 0.97086 0.0119 0.0
O34 O 0.45201 0.93073 0.9942 0.0
O35 O 0.45396 0.88704 0.00558 0.0
O36 O 0.50767 0.99354 0.95468 0.0
O37 O 0.5044 0.94691 0.94958 0.0
O38 O 0.53307 0.92513 0.03192 0.0
O39 O 0.5407 0.97363 0.03342 0.0
C40 C 0.43858 0.90047 0.99298 0.0
C41 C 0.5513 0.95458 0.03914 0.0
C42 C 0.48777 0.98333 0.5891 0.0
C43 C 0.46907 0.99635 0.42788 0.0
O44 O 0.5098 1.00865 0.5707 0.0
Zn45 Zn 0.52052 0.03323 0.50766 0.0
O46 O 0.46321 0.96492 0.56586 0.0
Zn47 Zn 0.47601 0.98945 0.50906 0.0
O48 O 0.51621 0.98599 0.487 0.0
O49 O 0.55932 0.03339 0.49095 0.0
O50 O 0.44998 0.97419 0.4544 0.0
O51 O 0.49502 0.01914 0.44409 0.0
O52 O 0.52088 0.07204 0.52478 0.0
O53 O 0.47279 0.03014 0.52665 0.0
C54 C 0.54618 1.00399 0.48153 0.0
C55 C 0.49131 0.05999 0.532 0.0
C56 C 0.98307 0.53135 0.55019 0.0
C57 C 0.97832 0.50243 0.38911 0.0
O58 O 0.96296 0.52939 0.52062 0.0
Zn59 Zn 0.98114 0.51896 0.46913 0.0
O60 O 1.00582 0.52704 0.53775 0.0
Zn61 Zn 0.02222 0.51469 0.47752 0.0
O62 O 0.06396 0.55183 0.4659 0.0
O63 O 0.02529 0.56244 0.45851 0.0
O64 O 1.00143 0.50281 0.41066 0.0
O65 O 0.96074 0.51074 0.40973 0.0
O66 O 0.97208 0.47268 0.49028 0.0
O67 O 0.01815 0.4749 0.49874 0.0
C68 C 0.055 0.57171 0.45777 0.0
C69 C 0.98799 0.45924 0.50116 0.0
C70 C 0.53258 0.47255 0.39215 0.0
C71 C 0.50918 0.45585 0.55616 0.0
O72 O 0.53014 0.44937 0.41544 0.0
Zn73 Zn 0.51768 0.46027 0.47329 0.0
O74 O 0.52564 0.49209 0.41044 0.0
Zn75 Zn 0.50943 0.4997 0.47385 0.0
O76 O 0.54366 0.54219 0.48967 0.0
O77 O 0.55842 0.50611 0.4886 0.0
O78 O 0.50609 0.47808 0.53822 0.0
O79 O 0.51476 0.43804 0.53072 0.0
O80 O 0.46941 0.44704 0.46119 0.0
O81 O 0.46624 0.49047 0.46012 0.0
C82 C 0.56517 0.53487 0.49461 0.0
C83 C 0.45284 0.46051 0.45642 0.0
C84 C 0.7241 0.87608 0.41801 0.0
C85 C 0.70906 0.89374 0.25793 0.0
O86 O 0.74326 0.89921 0.39311 0.0
Zn87 Zn 0.71636 0.888 0.33888 0.0
O88 O 0.69663 0.85604 0.40254 0.0
Zn89 Zn 0.66951 0.84773 0.34202 0.0
O90 O 0.66091 0.80544 0.32607 0.0
O91 O 0.71108 0.84315 0.31741 0.0
O92 O 0.68453 0.87034 0.27623 0.0
O93 O 0.73293 0.91184 0.28264 0.0
O94 O 0.68103 0.89938 0.35772 0.0
O95 O 0.63525 0.85471 0.36105 0.0
C96 C 0.68913 0.81403 0.31365 0.0
C97 C 0.65115 0.88465 0.36547 0.0
C98 C 0.24015 0.91566 0.32691 0.0
C99 C 0.1856 0.80132 0.36494 0.0
O100 O 0.25267 0.8983 0.32989 0.0
Zn101 Zn 0.21444 0.85869 0.34696 0.0
O102 O 0.21038 0.90346 0.33473 0.0
Zn103 Zn 0.17022 0.85778 0.35152 0.0
O104 O 0.1563 0.865 0.40993 0.0
O105 O 0.20309 0.86835 0.41334 0.0
O106 O 0.16712 0.8128 0.36254 0.0
O107 O 0.21527 0.81946 0.35894 0.0
O108 O 0.18775 0.84811 0.28487 0.0
O109 O 0.14343 0.8486 0.29807 0.0
C110 C 0.18037 0.8697 0.43313 0.0
C111 C 0.16152 0.84504 0.27041 0.0
C112 C 0.14198 0.30845 0.41491 0.0
C113 C 0.17512 0.32849 0.25576 0.0
O114 O 0.1518 0.29001 0.40069 0.0
Zn115 Zn 0.16879 0.28118 0.33742 0.0
O116 O 0.14131 0.3283 0.38746 0.0
Zn117 Zn 0.15892 0.31878 0.33536 0.0
O118 O 0.12072 0.27376 0.31299 0.0
O119 O 0.13529 0.23802 0.32148 0.0
O120 O 0.16622 0.34372 0.28109 0.0
O121 O 0.17713 0.30528 0.27262 0.0
O122 O 0.21142 0.29015 0.35345 0.0
O123 O 0.2063 0.33246 0.35765 0.0
C124 C 0.11455 0.24507 0.30924 0.0
C125 C 0.22333 0.31945 0.36252 0.0
C126 C 0.23177 0.36075 0.80669 0.0
C127 C 0.17513 0.41791 0.84314 0.0
O128 O 0.20243 0.34246 0.81658 0.0
Zn129 Zn 0.16156 0.34652 0.83268 0.0
O130 O 0.24312 0.39061 0.80564 0.0
Zn131 Zn 0.20429 0.39048 0.82249 0.0
O132 O 0.19561 0.37192 0.89156 0.0
O133 O 0.15011 0.3265 0.89145 0.0
O134 O 0.20367 0.43012 0.8295 0.0
O135 O 0.15771 0.38769 0.84549 0.0
O136 O 0.1334 0.32588 0.78126 0.0
O137 O 0.17666 0.37026 0.76238 0.0
C138 C 0.17415 0.34758 0.91308 0.0
C139 C 0.15045 0.34577 0.75078 0.0
C140 C 0.67928 0.90833 0.80732 0.0
C141 C 0.63706 0.7969 0.85324 0.0
O142 O 0.70077 0.90107 0.8148 0.0
Zn143 Zn 0.70411 0.86043 0.83652 0.0
O144 O 0.65025 0.88763 0.81369 0.0
Zn145 Zn 0.6575 0.85294 0.83022 0.0
O146 O 0.679 0.86825 0.89671 0.0
O147 O 0.72718 0.87497 0.89313 0.0
O148 O 0.62166 0.81026 0.84077 0.0
O149 O 0.66747 0.81297 0.85333 0.0
O150 O 0.72554 0.85529 0.78449 0.0
O151 O 0.6784 0.84851 0.76785 0.0
C152 C 0.7056 0.87604 0.91599 0.0
C153 C 0.70442 0.8504 0.75489 0.0
C154 C 0.1453 0.81887 0.93186 0.0
C155 C 0.17623 0.84012 0.7726 0.0
O156 O 0.14733 0.79585 0.91407 0.0
Zn157 Zn 0.15996 0.78543 0.84714 0.0
O158 O 0.15185 0.84304 0.9077 0.0
Zn159 Zn 0.16248 0.82943 0.85327 0.0
O160 O 0.11683 0.7904 0.83254 0.0
O161 O 0.12131 0.74768 0.82804 0.0
O162 O 0.17439 0.85803 0.80233 0.0
O163 O 0.17179 0.81293 0.78486 0.0
O164 O 0.19726 0.78195 0.85987 0.0
O165 O 0.20538 0.82987 0.87298 0.0
C166 C 0.10453 0.76073 0.82389 0.0
C167 C 0.21543 0.81012 0.87367 0.0
C168 C 0.42545 0.24542 0.77475 0.0
C169 C 0.41204 0.2613 0.61183 0.0
O170 O 0.44464 0.26912 0.75064 0.0
Zn171 Zn 0.41913 0.25714 0.69449 0.0
O172 O 0.39887 0.22449 0.7577 0.0
Zn173 Zn 0.37319 0.2147 0.69523 0.0
O174 O 0.36877 0.17377 0.67969 0.0
O175 O 0.41796 0.21407 0.67431 0.0
O176 O 0.38839 0.23733 0.63048 0.0
O177 O 0.4351 0.28082 0.6368 0.0
O178 O 0.38123 0.26498 0.71286 0.0
O179 O 0.33651 0.21923 0.70942 0.0
C180 C 0.39784 0.18447 0.66963 0.0
C181 C 0.351 0.24888 0.71711 0.0
C182 C 0.86921 0.18803 0.74558 0.0
C183 C 0.84456 0.1586 0.58452 0.0
O184 O 0.84602 0.19075 0.73041 0.0
Zn185 Zn 0.82154 0.18567 0.66726 0.0
O186 O 0.88507 0.1813 0.71787 0.0
Zn187 Zn 0.85936 0.17551 0.66385 0.0
O188 O 0.87257 0.22251 0.64301 0.0
O189 O 0.83135 0.2289 0.65245 0.0
O190 O 0.86674 0.15891 0.60793 0.0
O191 O 0.82674 0.16786 0.60283 0.0
O192 O 0.77869 0.15243 0.6845 0.0
O193 O 0.81426 0.13702 0.68633 0.0
C194 C 0.86003 0.24003 0.64013 0.0
C195 C 0.78583 0.13115 0.69282 0.0
C196 C 0.89189 0.68402 0.68031 0.0
C197 C 0.78383 0.65388 0.63314 0.0
O198 O 0.88886 0.70812 0.67118 0.0
Zn199 Zn 0.85096 0.71695 0.65102 0.0
O200 O 0.86798 0.65624 0.677 0.0
Zn201 Zn 0.83814 0.66915 0.6583 0.0
O202 O 0.85602 0.68999 0.59121 0.0
O203 O 0.86694 0.7397 0.59497 0.0
O204 O 0.79454 0.63641 0.64697 0.0
O205 O 0.80227 0.68405 0.6329 0.0
O206 O 0.8488 0.74058 0.70262 0.0
O207 O 0.83639 0.69184 0.72035 0.0
C208 C 0.86605 0.71715 0.57214 0.0
C209 C 0.8414 0.71918 0.73268 0.0
C210 C 0.87603 0.72251 0.23001 0.0
C211 C 0.8594 0.74128 0.07062 0.0
O212 O 0.89397 0.74708 0.20643 0.0
Zn213 Zn 0.86995 0.73242 0.15002 0.0
O214 O 0.85214 0.69883 0.21097 0.0
Zn215 Zn 0.82895 0.6859 0.14534 0.0
O216 O 0.83488 0.65127 0.12451 0.0
O217 O 0.88 0.69662 0.12938 0.0
O218 O 0.83873 0.71386 0.08541 0.0
O219 O 0.88221 0.75999 0.09642 0.0
O220 O 0.82578 0.72806 0.17189 0.0
O221 O 0.78707 0.67859 0.16173 0.0
C222 C 0.8649 0.66692 0.12047 0.0
C223 C 0.79639 0.70674 0.17516 0.0
C224 C 0.37328 0.25048 0.16707 0.0
C225 C 0.34566 0.1425 0.21267 0.0
O226 O 0.39754 0.24757 0.17547 0.0
Zn227 Zn 0.40757 0.21041 0.19456 0.0
O228 O 0.34548 0.22657 0.17115 0.0
Zn229 Zn 0.3592 0.19704 0.18922 0.0
O230 O 0.38124 0.21656 0.2549 0.0
O231 O 0.43092 0.22734 0.25071 0.0
O232 O 0.32752 0.15286 0.20068 0.0
O233 O 0.37577 0.16143 0.21216 0.0
O234 O 0.43052 0.20991 0.14006 0.0
O235 O 0.38112 0.19688 0.12586 0.0
C236 C 0.40869 0.22733 0.27339 0.0
C237 C 0.40839 0.20302 0.11129 0.0
C238 C 0.85632 0.14273 0.08212 0.0
C239 C 0.82704 0.12569 0.2433 0.0
O240 O 0.85086 0.11545 0.09594 0.0
Zn241 Zn 0.83818 0.08921 0.15968 0.0
O242 O 0.85367 0.16119 0.11001 0.0
Zn243 Zn 0.84014 0.1335 0.16223 0.0
O244 O 0.88293 0.13455 0.18254 0.0
O245 O 0.87642 0.08679 0.17352 0.0
O246 O 0.83083 0.14839 0.21762 0.0
O247 O 0.82866 0.10241 0.22595 0.0
O248 O 0.79787 0.05101 0.14525 0.0
O249 O 0.79476 0.09447 0.1415 0.0
C250 C 0.8938 0.1156 0.18551 0.0
C251 C 0.78172 0.06433 0.13689 0.0
C252 C 0.98679 0.4766 0.32116 0.0
C253 C 0.97359 0.4938 0.33995 0.0
C254 C 0.98601 0.47139 0.27378 0.0
C255 C 0.97223 0.48422 0.24439 0.0
C256 C 0.95737 0.50018 0.26337 0.0
C257 C 0.95801 0.50456 0.31104 0.0
C258 C 1.00157 0.45375 0.25503 0.0
C259 C 0.94266 0.51447 0.23313 0.0
C260 C 1.0085 0.51229 0.12686 0.0
C261 C 0.98525 0.48951 0.09784 0.0
C262 C 1.00471 0.51038 0.17451 0.0
C263 C 0.97714 0.48481 0.19398 0.0
C264 C 0.95426 0.46081 0.1652 0.0
C265 C 0.95852 0.4635 0.11734 0.0
C266 C 0.02973 0.5365 0.20391 0.0
C267 C 0.92484 0.43292 0.18485 0.0
H268 H 0.99848 0.46782 0.34344 0.0
H269 H 0.94774 0.51783 0.32539 0.0
H270 H 0.98614 0.43612 0.22903 0.0
H271 H 0.0241 0.47069 0.2378 0.0
H272 H 1.00695 0.44132 0.28243 0.0
H273 H 0.92935 0.52329 0.25321 0.0
H274 H 0.96157 0.53459 0.2135 0.0
H275 H 0.92633 0.4968 0.20788 0.0
H276 H 0.02933 0.53242 0.11227 0.0
H277 H 0.94041 0.44582 0.09522 0.0
H278 H 0.03879 0.5264 0.22989 0.0
H279 H 0.01918 0.54872 0.22267 0.0
H280 H 0.05011 0.55439 0.18345 0.0
H281 H 0.93122 0.42173 0.21283 0.0
H282 H 0.91103 0.41472 0.15845 0.0
H283 H 0.9094 0.44118 0.19993 0.0
C284 C 0.53064 0.45259 0.31251 0.0
C285 C 0.54281 0.47769 0.34384 0.0
C286 C 0.53503 0.45859 0.26508 0.0
C287 C 0.55248 0.49033 0.24912 0.0
C288 C 0.56698 0.51545 0.28104 0.0
C289 C 0.56167 0.50883 0.32797 0.0
C290 C 0.51893 0.43117 0.23208 0.0
C291 C 0.58617 0.54955 0.26565 0.0
C292 C 0.57378 0.50683 0.12247 0.0
C293 C 0.54932 0.51146 0.10612 0.0
C294 C 0.57536 0.50011 0.16902 0.0
C295 C 0.55179 0.4977 0.19972 0.0
C296 C 0.52749 0.50301 0.18356 0.0
C297 C 0.52668 0.51001 0.13717 0.0
C298 C 0.60186 0.49502 0.18521 0.0
C299 C 0.50186 0.50069 0.21513 0.0
H300 H 0.51589 0.42854 0.32482 0.0
H301 H 0.5713 0.52823 0.35234 0.0
H302 H 0.49867 0.4316 0.21547 0.0
H303 H 0.53551 0.43324 0.20454 0.0
H304 H 0.50982 0.40795 0.24954 0.0
H305 H 0.59965 0.56568 0.29439 0.0
H306 H 0.60309 0.55217 0.23829 0.0
H307 H 0.57005 0.5572 0.25115 0.0
H308 H 0.59128 0.50773 0.09873 0.0
H309 H 0.50759 0.51339 0.12499 0.0
H310 H 0.59188 0.47048 0.19827 0.0
H311 H 0.61477 0.51127 0.21404 0.0
H312 H 0.61904 0.49897 0.15747 0.0
H313 H 0.48898 0.47678 0.23092 0.0
H314 H 0.48441 0.5051 0.197 0.0
H315 H 0.51262 0.51813 0.24337 0.0
C316 C 0.45984 0.98755 0.15175 0.0
C317 C 0.47383 0.9695 0.14005 0.0
C318 C 0.45386 0.99124 0.19777 0.0
C319 C 0.46293 0.97728 0.23279 0.0
C320 C 0.47645 0.95848 0.22101 0.0
C321 C 0.48136 0.95451 0.17475 0.0
C322 C 0.4387 0.01079 0.20897 0.0
C323 C 0.48711 0.94375 0.25735 0.0
C324 C 0.48876 0.01597 0.34908 0.0
C325 C 0.46426 0.99414 0.37753 0.0
C326 C 0.48786 0.01148 0.30162 0.0
C327 C 0.46149 0.98481 0.28178 0.0
C328 C 0.43555 0.96395 0.30974 0.0
C329 C 0.43735 0.96869 0.35747 0.0
C330 C 0.51621 0.03413 0.27319 0.0
C331 C 0.40665 0.93574 0.28956 0.0
H332 H 0.45365 0.99887 0.12492 0.0
H333 H 0.49227 0.94061 0.16585 0.0
H334 H 0.4189 0.99795 0.23354 0.0
H335 H 0.45636 0.03324 0.22563 0.0
H336 H 0.42948 0.01666 0.17789 0.0
H337 H 0.49594 0.92871 0.24245 0.0
H338 H 0.50641 0.96268 0.27813 0.0
H339 H 0.46727 0.92904 0.28099 0.0
H340 H 0.50963 0.03583 0.36408 0.0
H341 H 0.41822 0.95183 0.37912 0.0
H342 H 0.5086 0.04291 0.24352 0.0
H343 H 0.52804 0.02155 0.25939 0.0
H344 H 0.53387 0.05484 0.29336 0.0
H345 H 0.39861 0.94274 0.25838 0.0
H346 H 0.38672 0.92479 0.3144 0.0
H347 H 0.41274 0.9176 0.27918 0.0
C348 C 0.9508 0.53215 0.61686 0.0
C349 C 0.97896 0.53497 0.59969 0.0
C350 C 0.94528 0.53074 0.6644 0.0
C351 C 0.96833 0.53186 0.69511 0.0
C352 C 0.99737 0.53625 0.67791 0.0
C353 C 1.00238 0.53795 0.63057 0.0
C354 C 0.91432 0.52674 0.6816 0.0
C355 C 0.02272 0.53774 0.70943 0.0
C356 C 0.97577 0.54891 0.82196 0.0
C357 C 0.96534 0.51863 0.84017 0.0
C358 C 0.97391 0.55331 0.7748 0.0
C359 C 0.96209 0.52687 0.74515 0.0
C360 C 0.94933 0.49598 0.76379 0.0
C361 C 0.95084 0.4922 0.81129 0.0
C362 C 0.98689 0.58653 0.7565 0.0
C363 C 0.93667 0.46717 0.73328 0.0
H364 H 0.93259 0.52988 0.59324 0.0
H365 H 0.02436 0.54046 0.61772 0.0
H366 H 0.89925 0.50229 0.6948 0.0
H367 H 0.91852 0.54322 0.71041 0.0
H368 H 0.90105 0.53095 0.65416 0.0
H369 H 0.04427 0.54196 0.69054 0.0
H370 H 0.02975 0.55696 0.73494 0.0
H371 H 1.01328 0.51514 0.72866 0.0
H372 H 0.9865 0.56937 0.84442 0.0
H373 H 0.9427 0.46878 0.82535 0.0
H374 H 0.97131 0.58706 0.7292 0.0
H375 H 1.01059 0.59486 0.74113 0.0
H376 H 0.98945 0.60342 0.78394 0.0
H377 H 0.92031 0.46749 0.70713 0.0
H378 H 0.92395 0.44473 0.75309 0.0
H379 H 0.95668 0.46745 0.71481 0.0
C380 C 0.49972 0.4268 0.63137 0.0
C381 C 0.51073 0.45502 0.60663 0.0
C382 C 0.50022 0.42717 0.67974 0.0
C383 C 0.51262 0.45647 0.70327 0.0
C384 C 0.52476 0.485 0.67808 0.0
C385 C 0.52344 0.48386 0.63029 0.0
C386 C 0.48686 0.3963 0.70561 0.0
C387 C 0.53882 0.51686 0.70155 0.0
C388 C 0.49087 0.46844 0.8229 0.0
C389 C 0.51855 0.47591 0.84733 0.0
C390 C 0.48747 0.45939 0.77666 0.0
C391 C 0.51247 0.45806 0.75418 0.0
C392 C 0.53969 0.46379 0.77934 0.0
C393 C 0.54237 0.47258 0.82565 0.0
C394 C 0.45795 0.45322 0.75115 0.0
C395 C 0.56694 0.46277 0.75662 0.0
H396 H 0.48996 0.40452 0.61305 0.0
H397 H 0.53261 0.50584 0.61123 0.0
H398 H 0.50447 0.39741 0.73076 0.0
H399 H 0.46565 0.39216 0.72526 0.0
H400 H 0.47995 0.37581 0.68241 0.0
H401 H 0.54845 0.53687 0.67677 0.0
H402 H 0.52044 0.51787 0.72263 0.0
H403 H 0.55824 0.52029 0.72496 0.0
H404 H 0.4721 0.47043 0.83955 0.0
H405 H 0.56372 0.47796 0.84436 0.0
H406 H 0.44873 0.43148 0.72999 0.0
H407 H 0.46381 0.47328 0.72757 0.0
H408 H 0.43891 0.45057 0.77474 0.0
H409 H 0.55814 0.44133 0.73492 0.0
H410 H 0.58402 0.46299 0.78205 0.0
H411 H 0.5798 0.48371 0.7339 0.0
C412 C 0.51023 0.95096 0.85335 0.0
C413 C 0.50933 0.97453 0.87972 0.0
C414 C 0.50706 0.9503 0.8055 0.0
C415 C 0.50277 0.9737 0.7835 0.0
C416 C 0.50267 0.99803 0.80973 0.0
C417 C 0.50606 0.99822 0.85753 0.0
C418 C 0.50772 0.92425 0.77858 0.0
C419 C 0.49829 0.02349 0.78739 0.0
C420 C 0.52159 0.99225 0.65758 0.0
C421 C 0.49124 0.97717 0.63777 0.0
C422 C 0.52573 0.99032 0.70472 0.0
C423 C 0.49882 0.97312 0.73292 0.0
C424 C 0.46815 0.95675 0.71298 0.0
C425 C 0.46472 0.95882 0.66542 0.0
C426 C 0.55884 1.0077 0.72454 0.0
C427 C 0.43891 0.93817 0.74211 0.0
H428 H 0.51275 0.93254 0.87018 0.0
H429 H 0.50515 0.0164 0.87762 0.0
H430 H 0.48475 0.90977 0.76068 0.0
H431 H 0.52642 0.93459 0.75191 0.0
H432 H 0.51219 0.90838 0.80075 0.0
H433 H 0.49892 0.04082 0.81262 0.0
H434 H 0.51715 0.03648 0.76154 0.0
H435 H 0.47522 0.01253 0.76908 0.0
H436 H 0.54223 1.00619 0.63625 0.0
H437 H 0.44124 0.94724 0.65025 0.0
H438 H 0.56316 0.99147 0.74601 0.0
H439 H 0.56145 0.02717 0.74703 0.0
H440 H 0.57736 0.01799 0.69751 0.0
H441 H 0.44137 0.92084 0.76377 0.0
H442 H 0.41703 0.92525 0.72113 0.0
H443 H 0.43617 0.95451 0.76555 0.0
C444 C 0.68967 0.85158 0.6735 0.0
C445 C 0.71094 0.85088 0.70522 0.0
C446 C 0.69671 0.85587 0.62666 0.0
C447 C 0.72558 0.85908 0.61079 0.0
C448 C 0.74679 0.85739 0.64229 0.0
C449 C 0.73931 0.85352 0.6893 0.0
C450 C 0.67341 0.85761 0.59425 0.0
C451 C 0.77751 0.86018 0.62642 0.0
C452 C 0.71927 0.84202 0.48415 0.0
C453 C 0.73176 0.87252 0.46572 0.0
C454 C 0.72003 0.83742 0.53142 0.0
C455 C 0.73289 0.86397 0.56098 0.0
C456 C 0.74781 0.89498 0.54219 0.0
C457 C 0.74734 0.89891 0.4945 0.0
C458 C 0.70453 0.80402 0.54989 0.0
C459 C 0.76158 0.92388 0.57259 0.0
H460 H 0.66775 0.84971 0.68536 0.0
H461 H 0.75591 0.85307 0.7136 0.0
H462 H 0.68513 0.8806 0.57573 0.0
H463 H 0.66531 0.83857 0.56818 0.0
H464 H 0.65226 0.85518 0.61228 0.0
H465 H 0.79047 0.85641 0.65481 0.0
H466 H 0.77285 0.84263 0.599 0.0
H467 H 0.79305 0.88404 0.61157 0.0
H468 H 0.70753 0.8216 0.46171 0.0
H469 H 0.75691 0.92249 0.48021 0.0
H470 H 0.68102 0.79746 0.56449 0.0
H471 H 0.71899 0.80218 0.57779 0.0
H472 H 0.70097 0.78662 0.5227 0.0
H473 H 0.74198 0.92554 0.5891 0.0
H474 H 0.77642 0.94606 0.55298 0.0
H475 H 0.77616 0.92206 0.60031 0.0
C476 C 0.18456 0.87851 0.70956 0.0
C477 C 0.18047 0.84915 0.72354 0.0
C478 C 0.18565 0.88603 0.66286 0.0
C479 C 0.18241 0.8636 0.62948 0.0
C480 C 0.17894 0.83423 0.64338 0.0
C481 C 0.17812 0.82741 0.69021 0.0
C482 C 0.18969 0.9177 0.64923 0.0
C483 C 0.17545 0.80968 0.60876 0.0
C484 C 0.1533 0.86269 0.50859 0.0
C485 C 0.18135 0.87353 0.48344 0.0
C486 C 0.1535 0.86088 0.55663 0.0
C487 C 0.18247 0.87046 0.57984 0.0
C488 C 0.21112 0.88356 0.55478 0.0
C489 C 0.21019 0.88479 0.50685 0.0
C490 C 0.12245 0.84676 0.58224 0.0
C491 C 0.24254 0.89447 0.5783 0.0
H492 H 0.18639 0.89545 0.73509 0.0
H493 H 0.17486 0.80465 0.70064 0.0
H494 H 0.21029 0.93031 0.62589 0.0
H495 H 0.16841 0.91408 0.63021 0.0
H496 H 0.19326 0.93305 0.67934 0.0
H497 H 0.17317 0.78811 0.62524 0.0
H498 H 0.15415 0.80261 0.58721 0.0
H499 H 0.19628 0.81982 0.58558 0.0
H500 H 0.13095 0.85393 0.49067 0.0
H501 H 0.23201 0.89355 0.48759 0.0
H502 H 0.12442 0.86195 0.61175 0.0
H503 H 0.11651 0.82325 0.59617 0.0
H504 H 0.10262 0.84367 0.55992 0.0
H505 H 0.24538 0.90986 0.60798 0.0
H506 H 0.26292 0.90769 0.55469 0.0
H507 H 0.24334 0.8736 0.59166 0.0
C508 C 0.14356 0.29342 0.49618 0.0
C509 C 0.1342 0.30841 0.4639 0.0
C510 C 0.14078 0.29703 0.54329 0.0
C511 C 0.12787 0.3157 0.55844 0.0
C512 C 0.11613 0.32888 0.52604 0.0
C513 C 0.1197 0.32533 0.47905 0.0
C514 C 0.15387 0.28282 0.57671 0.0
C515 C 0.10156 0.34833 0.54093 0.0
C516 C 0.11382 0.31326 0.68693 0.0
C517 C 0.14218 0.33977 0.70154 0.0
C518 C 0.10791 0.30587 0.64006 0.0
C519 C 0.13113 0.32517 0.6074 0.0
C520 C 0.15916 0.35262 0.62191 0.0
C521 C 0.1642 0.35969 0.66867 0.0
C522 C 0.07744 0.2768 0.62566 0.0
C523 C 0.18467 0.37374 0.58824 0.0
H524 H 0.15468 0.2802 0.48477 0.0
H525 H 0.11201 0.33663 0.45425 0.0
H526 H 0.17547 0.30207 0.59332 0.0
H527 H 0.13641 0.26973 0.6042 0.0
H528 H 0.16019 0.26641 0.55972 0.0
H529 H 0.08878 0.35222 0.5124 0.0
H530 H 0.0848 0.33661 0.56972 0.0
H531 H 0.12049 0.37179 0.55331 0.0
H532 H 0.0966 0.29786 0.7121 0.0
H533 H 0.18614 0.38031 0.67951 0.0
H534 H 0.08257 0.25824 0.61393 0.0
H535 H 0.06648 0.28239 0.59646 0.0
H536 H 0.06004 0.26695 0.65419 0.0
H537 H 0.20448 0.3949 0.60497 0.0
H538 H 0.17454 0.38187 0.56099 0.0
H539 H 0.19449 0.36018 0.57136 0.0
C540 C 0.69579 0.86728 0.18248 0.0
C541 C 0.711 0.8956 0.20751 0.0
C542 C 0.69805 0.86724 0.13477 0.0
C543 C 0.7153 0.89637 0.11118 0.0
C544 C 0.73082 0.92518 0.13613 0.0
C545 C 0.7288 0.92443 0.18431 0.0
C546 C 0.68194 0.83591 0.10965 0.0
C547 C 0.74893 0.95667 0.11191 0.0
C548 C 0.73645 0.88767 0.98918 0.0
C549 C 0.71036 0.88504 0.965 0.0
C550 C 0.73936 0.89311 0.03667 0.0
C551 C 0.71574 0.8962 0.06029 0.0
C552 C 0.69022 0.89511 0.03568 0.0
C553 C 0.68781 0.88953 0.98836 0.0
C554 C 0.76666 0.89365 0.06192 0.0
C555 C 0.6645 0.89809 0.05979 0.0
H556 H 0.6826 0.84486 0.2004 0.0
H557 H 0.74065 0.94632 0.20371 0.0
H558 H 0.66316 0.83467 0.08681 0.0
H559 H 0.69932 0.83375 0.08773 0.0
H560 H 0.67099 0.81534 0.13342 0.0
H561 H 0.76303 0.97639 0.13613 0.0
H562 H 0.76517 0.95608 0.08589 0.0
H563 H 0.73198 0.96165 0.09352 0.0
H564 H 0.75401 0.88431 0.97136 0.0
H565 H 0.66774 0.88788 0.96988 0.0
H566 H 0.75758 0.87221 0.08381 0.0
H567 H 0.77835 0.91456 0.08485 0.0
H568 H 0.78469 0.89418 0.03814 0.0
H569 H 0.65033 0.87695 0.08162 0.0
H570 H 0.64816 0.90017 0.03536 0.0
H571 H 0.6752 0.91905 0.08265 0.0
C572 C 0.14149 0.84606 0.00183 0.0
C573 C 0.13799 0.81857 0.9811 0.0
C574 C 0.13966 0.84806 0.0495 0.0
C575 C 0.13385 0.82181 0.07704 0.0
C576 C 0.1276 0.7931 0.05611 0.0
C577 C 0.12996 0.79187 0.00829 0.0
C578 C 0.14666 0.8792 0.07047 0.0
C579 C 0.12074 0.76441 0.08434 0.0
C580 C 0.17722 0.84246 0.19035 0.0
C581 C 0.15345 0.83825 0.22132 0.0
C582 C 0.17088 0.83682 0.14352 0.0
C583 C 0.13985 0.82629 0.12711 0.0
C584 C 0.11551 0.82143 0.15815 0.0
C585 C 0.12267 0.82774 0.20504 0.0
C586 C 0.19766 0.84269 0.1115 0.0
C587 C 0.08208 0.80979 0.14177 0.0
H588 H 0.14739 0.86673 0.98106 0.0
H589 H 0.12675 0.77037 0.99247 0.0
H590 H 0.12922 0.87533 0.09767 0.0
H591 H 0.17047 0.89069 0.08669 0.0
H592 H 0.14635 0.89573 0.04454 0.0
H593 H 0.1109 0.7426 0.06313 0.0
H594 H 0.14301 0.7683 0.10055 0.0
H595 H 0.10376 0.7606 0.11226 0.0
H596 H 0.20112 0.85074 0.20258 0.0
H597 H 0.10419 0.82427 0.22891 0.0
H598 H 0.20124 0.861 0.08583 0.0
H599 H 0.19161 0.82071 0.09246 0.0
H600 H 0.2204 0.85074 0.12992 0.0
H601 H 0.08173 0.8274 0.11809 0.0
H602 H 0.06553 0.80561 0.17055 0.0
H603 H 0.07327 0.7874 0.12227 0.0
C604 C 0.15162 0.32134 0.98835 0.0
C605 C 0.17694 0.34502 0.96318 0.0
C606 C 0.15334 0.31988 0.0362 0.0
C607 C 0.18111 0.34253 0.05931 0.0
C608 C 0.20699 0.3661 0.03406 0.0
C609 C 0.20456 0.36712 0.98627 0.0
C610 C 0.12524 0.2944 0.06211 0.0
C611 C 0.23707 0.39046 0.05757 0.0
C612 C 0.17099 0.3551 0.18493 0.0
C613 C 0.18029 0.33527 0.20614 0.0
C614 C 0.17201 0.35842 0.13709 0.0
C615 C 0.18278 0.34168 0.11002 0.0
C616 C 0.19359 0.32282 0.13135 0.0
C617 C 0.19213 0.31977 0.17919 0.0
C618 C 0.16032 0.37878 0.11544 0.0
C619 C 0.20557 0.3049 0.10358 0.0
H620 H 0.13019 0.30423 0.97078 0.0
H621 H 0.22429 0.38545 0.96705 0.0
H622 H 0.13257 0.27999 0.0826 0.0
H623 H 0.11619 0.30542 0.08646 0.0
H624 H 0.10557 0.27835 0.03895 0.0
H625 H 0.2554 0.40662 0.03281 0.0
H626 H 0.23175 0.40487 0.08136 0.0
H627 H 0.24704 0.3785 0.07842 0.0
H628 H 0.1618 0.36712 0.20552 0.0
H629 H 0.19956 0.30456 0.19536 0.0
H630 H 0.13873 0.3637 0.09485 0.0
H631 H 0.17847 0.39626 0.09173 0.0
H632 H 0.15453 0.39174 0.14136 0.0
H633 H 0.18589 0.28642 0.08282 0.0
H634 H 0.21539 0.29328 0.12554 0.0
H635 H 0.22425 0.32113 0.07937 0.0
C636 C 0.44454 0.21515 0.0431 0.0
C637 C 0.41465 0.20676 0.06114 0.0
C638 C 0.45124 0.22236 0.99618 0.0
C639 C 0.42766 0.2216 0.96688 0.0
C640 C 0.39738 0.21272 0.98485 0.0
C641 C 0.3912 0.20516 0.03145 0.0
C642 C 0.48361 0.23119 0.97806 0.0
C643 C 0.37155 0.21174 0.95501 0.0
C644 C 0.44425 0.26631 0.85397 0.0
C645 C 0.43258 0.24124 0.82261 0.0
C646 C 0.44468 0.26066 0.90127 0.0
C647 C 0.43387 0.22935 0.91712 0.0
C648 C 0.42457 0.20453 0.88498 0.0
C649 C 0.42361 0.2107 0.83823 0.0
C650 C 0.45428 0.2877 0.93442 0.0
C651 C 0.41343 0.17096 0.90013 0.0
H652 H 0.46286 0.21662 0.06574 0.0
H653 H 0.36808 0.19894 0.04486 0.0
H654 H 0.48128 0.21549 0.94903 0.0
H655 H 0.4956 0.2558 0.96469 0.0
H656 H 0.4989 0.22945 0.00479 0.0
H657 H 0.34952 0.20504 0.97454 0.0
H658 H 0.37992 0.23529 0.93909 0.0
H659 H 0.36568 0.19444 0.92682 0.0
H660 H 0.45093 0.28987 0.8419 0.0
H661 H 0.41476 0.19132 0.81387 0.0
H662 H 0.47076 0.2878 0.96074 0.0
H663 H 0.43294 0.28462 0.9526 0.0
H664 H 0.46581 0.31105 0.91682 0.0
H665 H 0.4297 0.17049 0.92632 0.0
H666 H 0.41177 0.15557 0.87099 0.0
H667 H 0.38963 0.16076 0.91605 0.0
C668 C 0.89918 0.18591 0.81458 0.0
C669 C 0.87379 0.188 0.79586 0.0
C670 C 0.90077 0.18139 0.86198 0.0
C671 C 0.87606 0.17824 0.89098 0.0
C672 C 0.85104 0.18149 0.87243 0.0
C673 C 0.85041 0.18666 0.82532 0.0
C674 C 0.92822 0.17882 0.88076 0.0
C675 C 0.82395 0.17783 0.90193 0.0
C676 C 0.85421 0.12871 -0.00056 0.0
C677 C 0.86426 0.15201 0.03353 0.0
C678 C 0.85894 0.13699 0.95285 0.0
C679 C 0.87483 0.1694 0.9401 0.0
C680 C 0.88651 0.19305 0.97449 0.0
C681 C 0.88069 0.18407 0.02083 0.0
C682 C 0.84545 0.11101 0.91724 0.0
C683 C 0.90417 0.22783 0.96231 0.0
H684 H 0.91737 0.187 0.79211 0.0
H685 H 0.8306 0.18811 0.81132 0.0
H686 H 0.93836 0.19417 0.91138 0.0
H687 H 0.91975 0.15408 0.89179 0.0
H688 H 0.9473 0.18559 0.85496 0.0
H689 H 0.80692 0.1822 0.88249 0.0
H690 H 0.81091 0.15346 0.91623 0.0
H691 H 0.83314 0.19448 0.93128 0.0
H692 H 0.84138 0.10389 0.00911 0.0
H693 H 0.88881 0.20216 0.04713 0.0
H694 H 0.86409 0.11437 0.89244 0.0
H695 H 0.82651 0.1121 0.89762 0.0
H696 H 0.83525 0.08705 0.93274 0.0
H697 H 0.923 0.2329 0.9368 0.0
H698 H 0.91517 0.24309 0.99283 0.0
H699 H 0.88759 0.23438 0.94643 0.0
C700 C 0.82758 0.73665 0.00167 0.0
C701 C 0.85745 0.74898 0.02229 0.0
C702 C 0.8245 0.73691 0.95394 0.0
C703 C 0.85193 0.74912 0.92619 0.0
C704 C 0.88233 0.76385 0.94704 0.0
C705 C 0.88475 0.76387 0.99508 0.0
C706 C 0.79169 0.72162 0.93323 0.0
C707 C 0.91216 0.7769 0.91866 0.0
C708 C 0.84162 0.70518 0.81479 0.0
C709 C 0.84191 0.72641 0.7821 0.0
C710 C 0.84511 0.71253 0.86158 0.0
C711 C 0.84849 0.74168 0.87635 0.0
C712 C 0.84808 0.76298 0.84375 0.0
C713 C 0.84503 0.75519 0.79687 0.0
C714 C 0.84562 0.68918 0.89518 0.0
C715 C 0.85111 0.79401 0.85837 0.0
H716 H 0.80645 0.72535 0.02283 0.0
H717 H 0.90784 0.77322 0.01103 0.0
H718 H 0.79092 0.73605 0.9044 0.0
H719 H 0.78535 0.69801 0.91933 0.0
H720 H 0.77349 0.71836 0.95892 0.0
H721 H 0.93378 0.79171 0.93942 0.0
H722 H 0.91397 0.75694 0.90385 0.0
H723 H 0.91147 0.79128 0.88972 0.0
H724 H 0.8395 0.683 0.80376 0.0
H725 H 0.84532 0.77174 0.7718 0.0
H726 H 0.82584 0.68135 0.91998 0.0
H727 H 0.86806 0.70072 0.91507 0.0
H728 H 0.84343 0.6679 0.87795 0.0
H729 H 0.8323 0.78966 0.88353 0.0
H730 H 0.84933 0.8075 0.82893 0.0
H731 H 0.87424 0.80889 0.87567 0.0
C732 C 0.39572 0.25168 0.33891 0.0
C733 C 0.41413 0.23961 0.32089 0.0
C734 C 0.39884 0.2613 0.38488 0.0
C735 C 0.42025 0.2579 0.41387 0.0
C736 C 0.43994 0.24708 0.39529 0.0
C737 C 0.4369 0.23842 0.34882 0.0
C738 C 0.37786 0.27332 0.40301 0.0
C739 C 0.46258 0.24246 0.42517 0.0
C740 C 0.43581 0.28939 0.53682 0.0
C741 C 0.41361 0.26244 0.56099 0.0
C742 C 0.43795 0.28872 0.48861 0.0
C743 C 0.41801 0.26023 0.46452 0.0
C744 C 0.39561 0.23311 0.48891 0.0
C745 C 0.39349 0.23466 0.53649 0.0
C746 C 0.46165 0.31827 0.46353 0.0
C747 C 0.37421 0.20205 0.46491 0.0
H748 H 0.37847 0.2532 0.31719 0.0
H749 H 0.45124 0.22919 0.33496 0.0
H750 H 0.3588 0.25472 0.42446 0.0
H751 H 0.39166 0.29444 0.42503 0.0
H752 H 0.36662 0.27962 0.37493 0.0
H753 H 0.47886 0.23762 0.4047 0.0
H754 H 0.47692 0.26368 0.44673 0.0
H755 H 0.44888 0.22214 0.44865 0.0
H756 H 0.45147 0.31087 0.55549 0.0
H757 H 0.37651 0.21349 0.55469 0.0
H758 H 0.44958 0.32408 0.43615 0.0
H759 H 0.47962 0.31417 0.44665 0.0
H760 H 0.47402 0.33897 0.48681 0.0
H761 H 0.35921 0.20522 0.43928 0.0
H762 H 0.35841 0.18302 0.4891 0.0
H763 H 0.3887 0.19404 0.44619 0.0
C764 C 0.83308 0.15675 0.31441 0.0
C765 C 0.82466 0.12768 0.29364 0.0
C766 C 0.83515 0.16003 0.36227 0.0
C767 C 0.8282 0.1335 0.39003 0.0
C768 C 0.81846 0.10379 0.36936 0.0
C769 C 0.81701 0.10128 0.32138 0.0
C770 C 0.84576 0.19216 0.38306 0.0
C771 C 0.8103 0.07484 0.39788 0.0
C772 C 0.86459 0.15106 0.50931 0.0
C773 C 0.83972 0.14911 0.53574 0.0
C774 C 0.86098 0.1454 0.46185 0.0
C775 C 0.83164 0.1371 0.44067 0.0
C776 C 0.80605 0.13375 0.4676 0.0
C777 C 0.81049 0.14005 0.51473 0.0
C778 C 0.8889 0.14947 0.43412 0.0
C779 C 0.77425 0.12438 0.44645 0.0
H780 H 0.83925 0.17732 0.29324 0.0
H781 H 0.81041 0.07871 0.30558 0.0
H782 H 0.82776 0.19058 0.40775 0.0
H783 H 0.86815 0.2003 0.40242 0.0
H784 H 0.84975 0.21028 0.35676 0.0
H785 H 0.80135 0.05311 0.37667 0.0
H786 H 0.83162 0.07853 0.41685 0.0
H787 H 0.79203 0.07095 0.42373 0.0
H788 H 0.88726 0.1582 0.52537 0.0
H789 H 0.79107 0.13823 0.53511 0.0
H790 H 0.89612 0.16916 0.40926 0.0
H791 H 0.88217 0.12771 0.41403 0.0
H792 H 0.90964 0.15473 0.45598 0.0
H793 H 0.77671 0.14325 0.42268 0.0
H794 H 0.75612 0.12044 0.47265 0.0
H795 H 0.76556 0.10239 0.42602 0.0
C796 C 0.88417 0.702 0.50149 0.0
C797 C 0.87476 0.72155 0.52313 0.0
C798 C 0.88968 0.70408 0.45406 0.0
C799 C 0.88474 0.72555 0.42762 0.0
C800 C 0.87644 0.7462 0.44961 0.0
C801 C 0.87193 0.7442 0.49723 0.0
C802 C 0.8993 0.68225 0.43198 0.0
C803 C 0.87021 0.76891 0.42256 0.0
C804 C 0.90849 0.74315 0.30203 0.0
C805 C 0.87989 0.72204 0.28024 0.0
C806 C 0.91094 0.74382 0.35015 0.0
C807 C 0.88393 0.72352 0.37676 0.0
C808 C 0.85519 0.70192 0.35478 0.0
C809 C 0.85365 0.70121 0.3069 0.0
C810 C 0.94217 0.76657 0.37251 0.0
C811 C 0.82562 0.68029 0.38182 0.0
H812 H 0.88678 0.68474 0.52155 0.0
H813 H 0.86458 0.7593 0.51385 0.0
H814 H 0.87898 0.66354 0.41245 0.0
H815 H 0.91896 0.6955 0.40735 0.0
H816 H 0.90689 0.6706 0.45773 0.0
H817 H 0.86657 0.78514 0.44507 0.0
H818 H 0.89023 0.78333 0.39903 0.0
H819 H 0.84868 0.75531 0.40115 0.0
H820 H 0.92884 0.75921 0.28154 0.0
H821 H 0.83135 0.68503 0.29036 0.0
H822 H 0.94886 0.75385 0.39762 0.0
H823 H 0.93987 0.7849 0.39168 0.0
H824 H 0.9616 0.77858 0.34707 0.0
H825 H 0.83019 0.66507 0.40514 0.0
H826 H 0.80521 0.66477 0.35939 0.0
H827 H 0.81886 0.69463 0.40344 0.0
C828 C 0.06364 0.48861 0.89271 0.0
C829 C 0.07472 0.51291 0.92542 0.0
C830 C 0.08271 0.47646 0.87748 0.0
C831 C 0.11336 0.48813 0.89644 0.0
C832 C 0.12494 0.51313 0.9289 0.0
C833 C 0.10564 0.52556 0.9425 0.0
C834 C 0.06963 0.45043 0.84197 0.0
C835 C 0.15708 0.5257 0.95088 0.0
C836 C 0.14041 0.42746 0.89519 0.0
C837 C 0.16179 0.43778 0.85841 0.0
C838 C 0.12581 0.44454 0.90924 0.0
C839 C 0.13188 0.47219 0.885 0.0
C840 C 0.15389 0.48306 0.84821 0.0
C841 C 0.16899 0.46597 0.83579 0.0
C842 C 0.10326 0.43248 0.94943 0.0
C843 C 0.16042 0.51192 0.82072 0.0
H844 H 0.03988 0.47899 0.87901 0.0
H845 H 0.11423 0.54423 0.96796 0.0
H846 H 0.087 0.45631 0.81382 0.0
H847 H 0.06545 0.42798 0.85777 0.0
H848 H 0.04693 0.44641 0.82706 0.0
H849 H 0.16358 0.54659 0.97301 0.0
H850 H 0.15708 0.50683 0.97213 0.0
H851 H 0.17562 0.53245 0.92429 0.0
H852 H 0.13506 0.40586 0.91313 0.0
H853 H 0.18539 0.47391 0.8072 0.0
H854 H 0.07874 0.42419 0.93739 0.0
H855 H 0.10945 0.45186 0.97441 0.0
H856 H 0.10356 0.41255 0.9674 0.0
H857 H 0.1385 0.50726 0.8025 0.0
H858 H 0.17952 0.51844 0.79503 0.0
H859 H 0.16728 0.53244 0.84371 0.0
C860 C 0.6339 0.75345 0.90272 0.0
C861 C 0.62041 0.76327 0.86858 0.0
C862 C 0.61869 0.72178 0.91789 0.0
C863 C 0.58977 0.69896 0.89732 0.0
C864 C 0.57621 0.70872 0.86243 0.0
C865 C 0.59139 0.74084 0.84908 0.0
C866 C 0.63353 0.7128 0.95619 0.0
C867 C 0.54598 0.68511 0.83856 0.0
C868 C 0.5689 0.61253 0.90757 0.0
C869 C 0.54505 0.60074 0.94106 0.0
C870 C 0.58305 0.64414 0.89225 0.0
C871 C 0.57398 0.66491 0.91203 0.0
C872 C 0.55023 0.65321 0.94642 0.0
C873 C 0.53567 0.62117 0.9599 0.0
C874 C 0.60753 0.65523 0.85458 0.0
C875 C 0.54056 0.67467 0.96958 0.0
H876 H 0.65618 0.77074 0.91823 0.0
H877 H 0.58098 0.74825 0.82246 0.0
H878 H 0.61618 0.7012 0.98437 0.0
H879 H 0.64012 0.69547 0.94359 0.0
H880 H 0.6551 0.73363 0.97032 0.0
H881 H 0.53889 0.69628 0.81137 0.0
H882 H 0.54904 0.66613 0.82284 0.0
H883 H 0.52639 0.67361 0.86374 0.0
H884 H 0.57604 0.59678 0.89256 0.0
H885 H 0.51739 0.61226 0.98601 0.0
H886 H 0.63072 0.67429 0.86757 0.0
H887 H 0.60048 0.66536 0.82592 0.0
H888 H 0.6107 0.63575 0.84102 0.0
H889 H 0.5616 0.69504 0.98551 0.0
H890 H 0.52233 0.66217 0.9965 0.0
H891 H 0.53098 0.68445 0.94391 0.0
C892 C 0.2642 0.80502 0.87751 0.0
C893 C 0.24762 0.82009 0.8917 0.0
C894 C 0.29514 0.81519 0.89349 0.0
C895 C 0.30951 0.84046 0.92538 0.0
C896 C 0.29238 0.85502 0.94089 0.0
C897 C 0.26191 0.84497 0.92344 0.0
C898 C 0.31283 0.79959 0.87513 0.0
C899 C 0.30644 0.88159 0.97554 0.0
C900 C 0.38211 0.85541 0.99548 0.0
C901 C 0.40618 0.88237 0.97365 0.0
C902 C 0.35051 0.84096 0.97966 0.0
C903 C 0.34314 0.85327 0.94037 0.0
C904 C 0.36787 0.87946 0.91692 0.0
C905 C 0.39889 0.89395 0.93427 0.0
C906 C 0.3248 0.81354 0.00622 0.0
C907 C 0.36144 0.89289 0.87423 0.0
H908 H 0.25333 0.78584 0.8529 0.0
H909 H 0.24909 0.85647 0.93501 0.0
H910 H 0.33406 0.81725 0.85591 0.0
H911 H 0.32134 0.79084 0.90378 0.0
H912 H 0.29794 0.77943 0.85197 0.0
H913 H 0.2891 0.88855 0.98701 0.0
H914 H 0.315 0.87442 0.00599 0.0
H915 H 0.32718 0.90266 0.96039 0.0
H916 H 0.38771 0.84661 0.02614 0.0
H917 H 0.41758 0.91467 0.91712 0.0
H918 H 0.31038 0.79331 0.98304 0.0
H919 H 0.30861 0.82077 0.02158 0.0
H920 H 0.33457 0.80543 0.03411 0.0
H921 H 0.34745 0.87369 0.84928 0.0
H922 H 0.38366 0.91098 0.85733 0.0
H923 H 0.3472 0.90405 0.88317 0.0
C924 C 0.49551 0.1055 0.5775 0.0
C925 C 0.47788 0.07943 0.54874 0.0
C926 C 0.48166 0.12192 0.59731 0.0
C927 C 0.44971 0.1126 0.58705 0.0
C928 C 0.43217 0.08691 0.55681 0.0
C929 C 0.44631 0.07037 0.53861 0.0
C930 C 0.50099 0.1488 0.63004 0.0
C931 C 0.39844 0.07685 0.54371 0.0
C932 C 0.40389 0.13641 0.66822 0.0
C933 C 0.40859 0.16434 0.64762 0.0
C934 C 0.41724 0.11931 0.64897 0.0
C935 C 0.43476 0.12996 0.60751 0.0
C936 C 0.43835 0.15753 0.5858 0.0
C937 C 0.4257 0.17465 0.60656 0.0
C938 C 0.41341 0.09041 0.67365 0.0
C939 C 0.45581 0.16917 0.54085 0.0
H940 H 0.51978 0.11233 0.58587 0.0
H941 H 0.43262 0.05028 0.51623 0.0
H942 H 0.50307 0.17107 0.61683 0.0
H943 H 0.48884 0.14381 0.66372 0.0
H944 H 0.52522 0.15262 0.63535 0.0
H945 H 0.38853 0.05728 0.51826 0.0
H946 H 0.38314 0.06892 0.5746 0.0
H947 H 0.39735 0.09727 0.52909 0.0
H948 H 0.39089 0.12868 0.7002 0.0
H949 H 0.42913 0.19623 0.59055 0.0
H950 H 0.43709 0.09396 0.68266 0.0
H951 H 0.40171 0.0694 0.65091 0.0
H952 H 0.3992 0.08526 0.70552 0.0
H953 H 0.48112 0.17642 0.54561 0.0
H954 H 0.4545 0.18966 0.52686 0.0
H955 H 0.4458 0.14982 0.51513 0.0
C956 C 0.90151 0.27796 0.58618 0.0
C957 C 0.8788 0.27225 0.62001 0.0
C958 C 0.9196 0.30801 0.56599 0.0
C959 C 0.91572 0.33343 0.58096 0.0
C960 C 0.89314 0.32793 0.61566 0.0
C961 C 0.87454 0.29727 0.63421 0.0
C962 C 0.94255 0.31243 0.52812 0.0
C963 C 0.88884 0.35453 0.6335 0.0
C964 C 0.98341 0.41729 0.55557 0.0
C965 C 0.97085 0.42637 0.51926 0.0
C966 C 0.96559 0.38732 0.57643 0.0
C967 C 0.93488 0.36553 0.5596 0.0
C968 C 0.92258 0.37431 0.52192 0.0
C969 C 0.94046 0.40478 0.50279 0.0
C970 C 0.97929 0.37929 0.61725 0.0
C971 C 0.89048 0.35155 0.50181 0.0
H972 H 0.90469 0.25863 0.57472 0.0
H973 H 0.85718 0.29301 0.66053 0.0
H974 H 0.9367 0.32137 0.49677 0.0
H975 H 0.96703 0.3304 0.53831 0.0
H976 H 0.94213 0.29006 0.51955 0.0
H977 H 0.87143 0.34676 0.66201 0.0
H978 H 0.9119 0.37427 0.64581 0.0
H979 H 0.88062 0.36403 0.60548 0.0
H980 H 1.00668 0.43411 0.56889 0.0
H981 H 0.93066 0.41172 0.47471 0.0
H982 H 0.9811 0.35799 0.60984 0.0
H983 H 0.96327 0.37354 0.64717 0.0
H984 H 1.00318 0.39904 0.62679 0.0
H985 H 0.88946 0.3291 0.49202 0.0
H986 H 0.885 0.36144 0.47111 0.0
H987 H 0.87173 0.34559 0.5278 0.0
C988 C 0.72782 0.60858 0.62715 0.0
C989 C 0.75094 0.63955 0.61502 0.0
C990 C 0.69712 0.59415 0.60822 0.0
C991 C 0.68951 0.61075 0.57539 0.0
C992 C 0.71263 0.6422 0.56351 0.0
C993 C 0.74291 0.65633 0.58384 0.0
C994 C 0.67303 0.56084 0.62266 0.0
C995 C 0.7058 0.66051 0.52802 0.0
C996 C 0.62362 0.55719 0.49304 0.0
C997 C 0.59745 0.55816 0.51075 0.0
C998 C 0.65395 0.57541 0.51238 0.0
C999 C 0.6581 0.59434 0.55145 0.0
C1000 C 0.63183 0.59602 0.5688 0.0
C1001 C 0.60185 0.57819 0.54784 0.0
C1002 C 0.68134 0.57348 0.49194 0.0
C1003 C 0.63499 0.61525 0.61097 0.0
H1004 H 0.73375 0.59553 0.65143 0.0
H1005 H 0.76069 0.6802 0.57402 0.0
H1006 H 0.65068 0.55972 0.63341 0.0
H1007 H 0.66726 0.54449 0.59321 0.0
H1008 H 0.68172 0.55222 0.65134 0.0
H1009 H 0.72572 0.68525 0.5242 0.0
H1010 H 0.70135 0.64845 0.49434 0.0
H1011 H 0.68407 0.6611 0.53727 0.0
H1012 H 0.62021 0.54162 0.46444 0.0
H1013 H 0.58151 0.57849 0.56214 0.0
H1014 H 0.68936 0.56151 0.51637 0.0
H1015 H 0.70172 0.59762 0.48572 0.0
H1016 H 0.67485 0.56015 0.45911 0.0
H1017 H 0.64038 0.60483 0.64106 0.0
H1018 H 0.613 0.61595 0.61821 0.0
H1019 H 0.65498 0.63988 0.60704 0.0
C1020 C 0.8702 0.62754 0.07192 0.0
C1021 C 0.88292 0.6518 0.10465 0.0
C1022 C 0.8885 0.61521 0.05389 0.0
C1023 C 0.91986 0.62676 0.07008 0.0
C1024 C 0.93242 0.65065 0.10409 0.0
C1025 C 0.91398 0.66321 0.1204 0.0
C1026 C 0.87451 0.59025 0.01692 0.0
C1027 C 0.9653 0.66287 0.12341 0.0
C1028 C 0.95397 0.57257 0.05413 0.0
C1029 C 0.97481 0.58693 0.01731 0.0
C1030 C 0.93662 0.58576 0.07238 0.0
C1031 C 0.93931 0.61339 0.05219 0.0
C1032 C 0.96047 0.62807 0.01496 0.0
C1033 C 0.97844 0.61491 -0.00158 0.0
C1034 C 0.91528 0.56998 0.11309 0.0
C1035 C 0.96345 0.65711 0.99182 0.0
H1036 H 0.84634 0.61898 0.05929 0.0
H1037 H 0.92382 0.68191 0.14588 0.0
H1038 H 0.88992 0.59845 0.98609 0.0
H1039 H 0.87344 0.56817 0.02889 0.0
H1040 H 0.85025 0.58463 0.00689 0.0
H1041 H 0.97113 0.68075 0.15084 0.0
H1042 H 0.96738 0.64292 0.1377 0.0
H1043 H 0.9832 0.6738 0.09577 0.0
H1044 H 0.95133 0.55095 0.06882 0.0
H1045 H 0.99432 0.62574 0.96959 0.0
H1046 H 0.8902 0.56088 0.10323 0.0
H1047 H 0.921 0.58746 0.14101 0.0
H1048 H 0.91755 0.54994 0.12666 0.0
H1049 H 0.93997 0.65183 0.97848 0.0
H1050 H 0.98062 0.66542 0.96296 0.0
H1051 H 0.9712 0.67666 0.01694 0.0
C1052 C 0.35878 0.28136 0.11355 0.0
C1053 C 0.37858 0.28087 0.14804 0.0
C1054 C 0.36744 0.30928 0.08865 0.0
C1055 C 0.39625 0.33736 0.09915 0.0
C1056 C 0.41503 0.33742 0.13629 0.0
C1057 C 0.40615 0.30912 0.15989 0.0
C1058 C 0.34691 0.30812 0.04911 0.0
C1059 C 0.44557 0.36696 0.14941 0.0
C1060 C 0.44652 0.39838 0.00963 0.0
C1061 C 0.44165 0.42359 0.02026 0.0
C1062 C 0.43013 0.36937 0.03296 0.0
C1063 C 0.40884 0.36568 0.06862 0.0
C1064 C 0.40254 0.39048 0.07785 0.0
C1065 C 0.41885 0.4191 0.05322 0.0
C1066 C 0.43703 0.34332 0.02116 0.0
C1067 C 0.38026 0.38761 0.11578 0.0
H1068 H 0.33761 0.25949 0.10399 0.0
H1069 H 0.42142 0.30883 0.18672 0.0
H1070 H 0.34357 0.32896 0.04966 0.0
H1071 H 0.35881 0.30889 0.01635 0.0
H1072 H 0.32326 0.28619 0.04959 0.0
H1073 H 0.45546 0.36402 0.18218 0.0
H1074 H 0.46349 0.37284 0.12206 0.0
H1075 H 0.44173 0.38741 0.15278 0.0
H1076 H 0.46397 0.4017 0.98393 0.0
H1077 H 0.4152 0.43863 0.0618 0.0
H1078 H 0.41461 0.32045 0.01673 0.0
H1079 H 0.45036 0.34028 0.04967 0.0
H1080 H 0.45128 0.34853 0.98932 0.0
H1081 H 0.35788 0.36447 0.11399 0.0
H1082 H 0.3745 0.4069 0.11444 0.0
H1083 H 0.39143 0.38871 0.14941 0.0
C1084 C 0.73649 0.05883 0.0895 0.0
C1085 C 0.7482 0.0457 0.12136 0.0
C1086 C 0.70461 0.04227 0.07525 0.0
C1087 C 0.68352 0.01209 0.09421 0.0
C1088 C 0.69532 0.9986 0.12624 0.0
C1089 C 0.72755 0.01548 0.13917 0.0
C1090 C 0.69342 0.0573 0.04022 0.0
C1091 C 0.67374 0.96697 0.14847 0.0
C1092 C 0.59623 0.98878 0.09142 0.0
C1093 C 0.58447 0.96727 0.05486 0.0
C1094 C 0.628 1.00243 0.10573 0.0
C1095 C 0.64899 0.99544 0.08175 0.0
C1096 C 0.63715 0.97365 0.04471 0.0
C1097 C 0.60489 0.9594 0.03224 0.0
C1098 C 0.63922 0.02473 0.14616 0.0
C1099 C 0.65884 0.96653 0.01683 0.0
H1100 H 0.75241 0.08213 0.07544 0.0
H1101 H 0.73633 1.00548 0.16445 0.0
H1102 H 0.68174 0.04081 0.01115 0.0
H1103 H 0.67555 0.0621 0.05586 0.0
H1104 H 0.71316 0.07992 0.02662 0.0
H1105 H 0.6873 0.95651 0.16366 0.0
H1106 H 0.66018 0.97028 0.17627 0.0
H1107 H 0.65633 0.94992 0.12359 0.0
H1108 H 0.58042 0.99479 0.10906 0.0
H1109 H 0.59595 0.94311 0.00354 0.0
H1110 H 0.65729 0.04888 0.13481 0.0
H1111 H 0.65066 0.01692 0.17187 0.0
H1112 H 0.61952 0.02607 0.16301 0.0
H1113 H 0.67372 0.98707 0.99432 0.0
H1114 H 0.64539 0.94527 0.99486 0.0
H1115 H 0.67511 0.96295 0.03933 0.0
C1116 C 0.55247 0.97064 0.42325 0.0
C1117 C 0.56434 0.9901 0.46199 0.0
C1118 C 0.56751 0.95483 0.40571 0.0
C1119 C 0.59442 0.95758 0.42854 0.0
C1120 C 0.6067 0.97753 0.46753 0.0
C1121 C 0.59177 0.99402 0.48338 0.0
C1122 C 0.55426 0.9348 0.36314 0.0
C1123 C 0.63486 0.98052 0.49349 0.0
C1124 C 0.61006 0.88932 0.41068 0.0
C1125 C 0.63587 0.90276 0.38047 0.0
C1126 C 0.59681 0.90713 0.42735 0.0
C1127 C 0.60901 0.93881 0.4123 0.0
C1128 C 0.63463 0.95222 0.38096 0.0
C1129 C 0.64807 0.93421 0.36603 0.0
C1130 C 0.57 0.89218 0.46154 0.0
C1131 C 0.64766 0.98547 0.36282 0.0
H1132 H 0.53128 0.96778 0.40663 0.0
H1133 H 0.60068 1.00882 0.51365 0.0
H1134 H 0.57333 0.9414 0.33744 0.0
H1135 H 0.54469 0.90947 0.3718 0.0
H1136 H 0.53498 0.93741 0.34724 0.0
H1137 H 0.64174 0.99724 0.52277 0.0
H1138 H 0.62922 0.95694 0.50679 0.0
H1139 H 0.65552 0.98879 0.47027 0.0
H1140 H 0.60081 0.86515 0.42231 0.0
H1141 H 0.66795 0.94463 0.34248 0.0
H1142 H 0.54841 0.89094 0.44693 0.0
H1143 H 0.57635 0.90699 0.4929 0.0
H1144 H 0.56423 0.86787 0.47144 0.0
H1145 H 0.62844 0.98768 0.34602 0.0
H1146 H 0.66709 0.9921 0.33768 0.0
H1147 H 0.65682 1.00269 0.3915 0.0
C1148 C 0.07278 0.62943 0.46202 0.0
C1149 C 0.07821 0.60535 0.44681 0.0
C1150 C 0.09325 0.66129 0.44985 0.0
C1151 C 0.11922 0.66928 0.4202 0.0
C1152 C 0.125 0.64504 0.40509 0.0
C1153 C 0.10474 0.61344 0.41922 0.0
C1154 C 0.08664 0.68633 0.46803 0.0
C1155 C 0.15172 0.65224 0.37235 0.0
C1156 C 0.14425 0.7449 0.3521 0.0
C1157 C 0.17165 0.76713 0.37535 0.0
C1158 C 0.1281 0.71273 0.36473 0.0
C1159 C 0.13881 0.70262 0.40285 0.0
C1160 C 0.16688 0.72495 0.42598 0.0
C1161 C 0.18327 0.75687 0.41146 0.0
C1162 C 0.09894 0.68976 0.33808 0.0
C1163 C 0.17861 0.71553 0.46763 0.0
H1164 H 0.05242 0.62332 0.48363 0.0
H1165 H 0.10885 0.59486 0.40703 0.0
H1166 H 0.10847 0.70617 0.48327 0.0
H1167 H 0.07926 0.69625 0.4395 0.0
H1168 H 0.06764 0.67679 0.49439 0.0
H1169 H 0.15409 0.63115 0.36557 0.0
H1170 H 0.14743 0.66077 0.33931 0.0
H1171 H 0.17452 0.67146 0.38616 0.0
H1172 H 0.13522 0.75282 0.32419 0.0
H1173 H 0.20416 0.77413 0.42995 0.0
H1174 H 0.07755 0.68168 0.35972 0.0
H1175 H 0.1003 0.66848 0.32857 0.0
H1176 H 0.09587 0.70055 0.30635 0.0
H1177 H 0.1611 0.70882 0.49579 0.0
H1178 H 0.20189 0.735 0.47984 0.0
H1179 H 0.18087 0.69451 0.46004 0.0
C1180 C 0.28092 0.3355 0.35899 0.0
C1181 C 0.25659 0.3389 0.37855 0.0
C1182 C 0.31284 0.35562 0.37173 0.0
C1183 C 0.32047 0.37891 0.40613 0.0
C1184 C 0.29575 0.38163 0.42703 0.0
C1185 C 0.26425 0.36207 0.41232 0.0
C1186 C 0.33845 0.35247 0.34758 0.0
C1187 C 0.30252 0.40513 0.46509 0.0
C1188 C 0.40058 0.4107 0.46552 0.0
C1189 C 0.41856 0.44079 0.44561 0.0
C1190 C 0.36849 0.39071 0.45394 0.0
C1191 C 0.35427 0.40048 0.42017 0.0
C1192 C 0.37243 0.43085 0.39977 0.0
C1193 C 0.40418 0.45088 0.41338 0.0
C1194 C 0.34983 0.35913 0.47786 0.0
C1195 C 0.35861 0.44185 0.36262 0.0
H1196 H 0.2751 0.31782 0.33255 0.0
H1197 H 0.24544 0.36461 0.42773 0.0
H1198 H 0.35582 0.37548 0.33185 0.0
H1199 H 0.35159 0.34625 0.37259 0.0
H1200 H 0.32875 0.33408 0.32036 0.0
H1201 H 0.28049 0.40297 0.47967 0.0
H1202 H 0.31589 0.40156 0.49302 0.0
H1203 H 0.31758 0.42963 0.45209 0.0
H1204 H 0.41162 0.40286 0.49056 0.0
H1205 H 0.41814 0.47394 0.39746 0.0
H1206 H 0.34263 0.33962 0.45282 0.0
H1207 H 0.3278 0.35673 0.49275 0.0
H1208 H 0.36365 0.35607 0.50567 0.0
H1209 H 0.35028 0.42477 0.33371 0.0
H1210 H 0.37604 0.46571 0.34932 0.0
H1211 H 0.33771 0.4426 0.37589 0.0
C1212 C 0.7435 0.70362 0.18185 0.0
C1213 C 0.77456 0.71522 0.19758 0.0
C1214 C 0.7244 0.71491 0.20051 0.0
C1215 C 0.73654 0.73767 0.23627 0.0
C1216 C 0.76718 0.74775 0.25408 0.0
C1217 C 0.78589 0.73671 0.23415 0.0
C1218 C 0.69204 0.7039 0.18022 0.0
C1219 C 0.7809 0.77143 0.29279 0.0
C1220 C 0.716 0.80207 0.25167 0.0
C1221 C 0.6969 0.79184 0.29091 0.0
C1222 C 0.72692 0.78336 0.23145 0.0
C1223 C 0.71933 0.75402 0.25175 0.0
C1224 C 0.69877 0.74286 0.29023 0.0
C1225 C 0.68743 0.76183 0.30912 0.0
C1226 C 0.74812 0.79595 0.18984 0.0
C1227 C 0.69045 0.71194 0.31321 0.0
H1228 H 0.73473 0.68697 0.15358 0.0
H1229 H 0.80974 0.74528 0.24689 0.0
H1230 H 0.67411 0.69743 0.20768 0.0
H1231 H 0.6926 0.72352 0.16023 0.0
H1232 H 0.68438 0.68323 0.15711 0.0
H1233 H 0.80339 0.77393 0.30614 0.0
H1234 H 0.78573 0.79497 0.28056 0.0
H1235 H 0.76371 0.76426 0.32145 0.0
H1236 H 0.72291 0.82514 0.23721 0.0
H1237 H 0.67264 0.75399 0.33949 0.0
H1238 H 0.74047 0.7773 0.16323 0.0
H1239 H 0.7728 0.80308 0.19967 0.0
H1240 H 0.74813 0.81683 0.17464 0.0
H1241 H 0.68354 0.69289 0.28742 0.0
H1242 H 0.67083 0.70446 0.33828 0.0
H1243 H 0.71158 0.7146 0.33162 0.0
C1244 C 0.30339 0.08497 0.21071 0.0
C1245 C 0.33221 0.10915 0.22844 0.0
C1246 C 0.29018 0.05342 0.22594 0.0
C1247 C 0.30552 0.04593 0.26103 0.0
C1248 C 0.3346 0.07035 0.27917 0.0
C1249 C 0.34783 0.10148 0.26211 0.0
C1250 C 0.25969 0.02809 0.20458 0.0
C1251 C 0.35126 0.06378 0.31759 0.0
C1252 C 0.25144 0.9716 0.33029 0.0
C1253 C 0.25898 0.94947 0.31275 0.0
C1254 C 0.26723 1.00324 0.315 0.0
C1255 C 0.2904 0.01289 0.27998 0.0
C1256 C 0.29826 0.99064 0.26233 0.0
C1257 C 0.28284 0.95935 0.27946 0.0
C1258 C 0.25878 0.02627 0.33601 0.0
C1259 C 0.3221 0.99954 0.22412 0.0
H1260 H 0.29131 0.09068 0.18444 0.0
H1261 H 0.36998 0.12011 0.27625 0.0
H1262 H 0.26257 1.00816 0.19242 0.0
H1263 H 0.24051 0.0184 0.23057 0.0
H1264 H 0.25208 0.03724 0.17524 0.0
H1265 H 0.37377 0.08525 0.32776 0.0
H1266 H 0.33549 0.05477 0.34798 0.0
H1267 H 0.35659 0.04511 0.30724 0.0
H1268 H 0.23311 0.96413 0.35616 0.0
H1269 H 0.28847 0.94224 0.26537 0.0
H1270 H 0.24743 0.03387 0.30987 0.0
H1271 H 0.28055 0.04783 0.34791 0.0
H1272 H 0.24227 0.0158 0.36546 0.0
H1273 H 0.31368 1.00654 0.19333 0.0
H1274 H 0.32606 0.97976 0.21471 0.0
H1275 H 0.34514 0.02027 0.23422 0.0
C1276 C 0.07029 0.23078 0.25436 0.0
C1277 C 0.0838 0.22125 0.28881 0.0
C1278 C 0.04015 0.20982 0.23639 0.0
C1279 C 0.02247 0.17865 0.25417 0.0
C1280 C 0.03635 0.16855 0.2881 0.0
C1281 C 0.0671 0.18988 0.30461 0.0
C1282 C 0.02676 0.22152 0.19951 0.0
C1283 C 0.01813 0.13579 0.30865 0.0
C1284 C 0.93398 0.1472 0.24466 0.0
C1285 C 0.92563 0.12761 0.20597 0.0
C1286 C 0.96489 0.16211 0.26249 0.0
C1287 C 0.98849 0.15821 0.24026 0.0
C1288 C 0.97991 0.13749 0.20204 0.0
C1289 C 0.94839 0.12205 0.18567 0.0
C1290 C 0.97256 0.18325 0.30395 0.0
C1291 C 1.0044 0.13313 0.17679 0.0
H1292 H 0.0833 0.2549 0.24158 0.0
H1293 H 0.07743 0.18247 0.33135 0.0
H1294 H 0.01728 0.20436 0.17074 0.0
H1295 H 1.0068 0.2236 0.21366 0.0
H1296 H 0.04479 0.24501 0.18578 0.0
H1297 H 0.03324 0.13042 0.3311 0.0
H1298 H 0.99813 0.13381 0.32931 0.0
H1299 H 1.0078 0.11762 0.28128 0.0
H1300 H 0.91629 0.15127 0.26068 0.0
H1301 H 0.94199 0.10705 0.15559 0.0
H1302 H 0.98772 0.20838 0.29353 0.0
H1303 H 0.98604 0.17788 0.32955 0.0
H1304 H 0.95088 0.18057 0.32061 0.0
H1305 H 0.02087 0.1554 0.15855 0.0
H1306 H 0.99345 0.11363 0.1513 0.0
H1307 H 0.01877 0.12809 0.20118 0.0
C1308 C 0.34824 0.2916 0.76033 0.0
C1309 C 0.33363 0.26522 0.73116 0.0
C1310 C 0.33259 0.30785 0.77373 0.0
C1311 C 0.30193 0.29821 0.7563 0.0
C1312 C 0.28724 0.27182 0.72625 0.0
C1313 C 0.30304 0.2553 0.71469 0.0
C1314 C 0.34873 0.3351 0.80701 0.0
C1315 C 0.25499 0.26128 0.70584 0.0
C1316 C 0.24677 0.31942 0.8194 0.0
C1317 C 0.25154 0.34647 0.79565 0.0
C1318 C 0.26364 0.30408 0.80777 0.0
C1319 C 0.28497 0.31529 0.77028 0.0
C1320 C 0.28986 0.34263 0.74612 0.0
C1321 C 0.27348 0.35823 0.75961 0.0
C1322 C 0.2585 0.27576 0.83556 0.0
C1323 C 0.31166 0.35486 0.70515 0.0
H1324 H 0.37183 0.29925 0.77338 0.0
H1325 H 0.2918 0.23514 0.69176 0.0
H1326 H 0.35223 0.35722 0.7909 0.0
H1327 H 0.33349 0.33049 0.83758 0.0
H1328 H 0.37216 0.33903 0.81849 0.0
H1329 H 0.2475 0.24138 0.68131 0.0
H1330 H 0.23701 0.25364 0.73345 0.0
H1331 H 0.25523 0.2814 0.68773 0.0
H1332 H 0.22987 0.31034 0.84739 0.0
H1333 H 0.27689 0.37888 0.74081 0.0
H1334 H 0.28157 0.27943 0.84823 0.0
H1335 H 0.24787 0.25429 0.81368 0.0
H1336 H 0.24266 0.27126 0.8654 0.0
H1337 H 0.31259 0.37611 0.68968 0.0
H1338 H 0.30353 0.33606 0.67867 0.0
H1339 H 0.33602 0.36102 0.71522 0.0
C1340 C 0.77055 0.09126 0.75453 0.0
C1341 C 0.76282 0.1003 0.71312 0.0
C1342 C 0.7524 0.06023 0.77135 0.0
C1343 C 0.72639 0.03731 0.74535 0.0
C1344 C 0.71758 0.04676 0.70447 0.0
C1345 C 0.7358 0.07833 0.689 0.0
C1346 C 0.76238 0.05157 0.81554 0.0
C1347 C 0.6904 0.02307 0.67532 0.0
C1348 C 0.71485 0.95483 0.75909 0.0
C1349 C 0.6889 0.94026 0.789 0.0
C1350 C 0.72607 0.98572 0.74286 0.0
C1351 C 0.7116 1.00303 0.75787 0.0
C1352 C 0.68487 0.9882 0.78732 0.0
C1353 C 0.67354 0.95675 0.80208 0.0
C1354 C 0.7541 1.00015 0.71063 0.0
C1355 C 0.66914 1.00597 0.80481 0.0
H1356 H 0.79153 0.10834 0.77312 0.0
H1357 H 0.73011 0.08529 0.65666 0.0
H1358 H 0.74151 0.0375 0.8379 0.0
H1359 H 0.77305 0.03669 0.80788 0.0
H1360 H 0.78007 0.07284 0.83473 0.0
H1361 H 0.68383 0.03477 0.64826 0.0
H1362 H 0.69725 1.00702 0.65852 0.0
H1363 H 0.66925 1.00817 0.69675 0.0
H1364 H 0.72652 0.94198 0.74836 0.0
H1365 H 0.65352 0.94556 0.82531 0.0
H1366 H 0.77493 0.01973 0.72816 0.0
H1367 H 0.74881 0.01038 0.6802 0.0
H1368 H 0.76062 0.98257 0.69875 0.0
H1369 H 0.68574 0.02534 0.82785 0.0
H1370 H 0.64702 0.99036 0.82407 0.0
H1371 H 0.66345 0.01709 0.77597 0.0
C1372 C 0.06269 0.71892 0.77366 0.0
C1373 C 0.07155 0.74279 0.80666 0.0
C1374 C 0.03276 0.7051 0.75232 0.0
C1375 C 1.01101 0.71491 0.76517 0.0
C1376 C 0.01919 0.73752 0.80065 0.0
C1377 C 0.04951 0.75152 0.82041 0.0
C1378 C 0.02518 0.68146 0.71422 0.0
C1379 C 0.99638 0.74791 0.81652 0.0
C1380 C 0.95094 0.71568 0.68323 0.0
C1381 C 0.92264 0.68912 0.69761 0.0
C1382 C 0.98013 0.72307 0.70297 0.0
C1383 C 0.98094 0.70404 0.73907 0.0
C1384 C 0.95253 0.67654 0.75269 0.0
C1385 C 0.92373 0.66918 0.73133 0.0
C1386 C 1.00995 0.75206 0.6864 0.0
C1387 C 0.95221 0.656 0.79165 0.0
H1388 H 0.07978 0.71228 0.76275 0.0
H1389 H 0.05619 0.76975 0.84625 0.0
H1390 H 1.00145 0.66023 0.71936 0.0
H1391 H 0.02453 0.69232 0.68109 0.0
H1392 H 0.04304 0.67378 0.7117 0.0
H1393 H 1.0049 0.7628 0.84787 0.0
H1394 H 0.99322 0.76181 0.78903 0.0
H1395 H 0.97277 0.72698 0.8237 0.0
H1396 H 0.9502 0.73099 0.6569 0.0
H1397 H 0.90182 0.64877 0.74278 0.0
H1398 H 0.02878 0.74618 0.67966 0.0
H1399 H 0.01891 0.77059 0.71334 0.0
H1400 H 1.00586 0.76208 0.65464 0.0
H1401 H 0.97115 0.65 0.78715 0.0
H1402 H 0.92904 0.63367 0.79464 0.0
H1403 H 0.95704 0.66926 0.82434 0.0
loop_
_geom_bond_atom_site_label_1
_geom_bond_atom_site_label_2
_geom_bond_distance
_geom_bond_site_symmetry_2
_ccdc_geom_bond_type
C0 O2 1.247 1_655 S
C0 O4 1.258 . S
C1 O8 1.247 1_455 S
C1 O9 1.258 . S
O2 C0 1.247 1_455 S
O2 Zn3 2.024 1_556 S
Zn3 O2 2.024 1_554 S
Zn3 O7 2.027 1_455 S
Zn3 O9 2.039 . S
Zn3 O10 2.027 1_554 S
O4 C0 1.258 . S
O4 Zn5 2.015 1_556 S
Zn5 O4 2.015 1_554 S
Zn5 O6 2.031 . S
Zn5 O8 2.048 . S
Zn5 O11 2.014 1_654 S
O6 Zn5 2.031 . S
O6 C12 1.247 . S
O7 Zn3 2.027 1_655 S
O7 C12 1.266 . S
O8 C1 1.247 1_655 S
O8 Zn5 2.048 . S
O9 C1 1.258 . S
O9 Zn3 2.039 . S
O10 Zn3 2.027 1_556 S
O10 C13 1.247 . S
O11 Zn5 2.014 1_456 S
O11 C13 1.274 . S
C12 O6 1.247 . S
C12 O7 1.266 . S
C13 O10 1.247 . S
C13 O11 1.274 . S
C14 O16 1.247 . S
C14 O18 1.258 . S
C15 O22 1.247 . S
C15 O23 1.258 . S
O16 C14 1.247 . S
O16 Zn17 2.048 . S
Zn17 O16 2.048 . S
Zn17 O21 2.032 1_554 S
Zn17 O23 2.015 1_554 S
Zn17 O24 2.031 . S
O18 C14 1.258 . S
O18 Zn19 2.038 . S
Zn19 O18 2.038 . S
Zn19 O20 2.027 1_554 S
Zn19 O22 2.025 1_554 S
Zn19 O25 2.036 . S
O20 Zn19 2.027 1_556 S
O20 C26 1.247 . S
O21 Zn17 2.032 1_556 S
O21 C26 1.258 . S
O22 C15 1.247 . S
O22 Zn19 2.025 1_556 S
O23 C15 1.258 . S
O23 Zn17 2.015 1_556 S
O24 Zn17 2.031 . S
O24 C27 1.247 . S
O25 Zn19 2.036 . S
O25 C27 1.258 . S
C26 O20 1.247 . S
C26 O21 1.258 . S
C27 O24 1.247 . S
C27 O25 1.258 . S
C28 O30 1.247 . S
C28 O32 1.258 1_565 S
C29 O36 1.247 . S
C29 O37 1.258 1_545 S
O30 C28 1.247 . S
O30 Zn31 2.047 . S
Zn31 O30 2.047 . S
Zn31 O35 2.032 1_554 S
Zn31 O37 2.016 1_554 S
Zn31 O38 2.031 1_565 S
O32 C28 1.258 1_545 S
O32 Zn33 2.038 . S
Zn33 O32 2.038 . S
Zn33 O34 2.029 1_554 S
Zn33 O36 2.025 1_554 S
Zn33 O39 2.036 . S
O34 Zn33 2.029 1_556 S
O34 C40 1.237 1_545 S
O35 Zn31 2.032 1_556 S
O35 C40 1.258 . S
O36 C29 1.247 . S
O36 Zn33 2.025 1_556 S
O37 C29 1.258 1_565 S
O37 Zn31 2.016 1_556 S
O38 Zn31 2.031 1_545 S
O38 C41 1.247 . S
O39 Zn33 2.036 . S
O39 C41 1.258 . S
C40 O34 1.237 1_565 S
C40 O35 1.258 . S
C41 O38 1.247 . S
C41 O39 1.258 . S
C42 O44 1.247 1_565 S
C42 O46 1.258 . S
C43 O50 1.247 1_545 S
C43 O51 1.258 . S
O44 C42 1.247 1_545 S
O44 Zn45 2.028 . S
Zn45 O44 2.028 . S
Zn45 O49 2.049 . S
Zn45 O51 2.035 . S
Zn45 O52 2.028 . S
O46 C42 1.258 . S
O46 Zn47 2.035 . S
Zn47 O46 2.035 . S
Zn47 O48 2.028 . S
Zn47 O50 2.028 . S
Zn47 O53 2.035 1_565 S
O48 Zn47 2.028 . S
O48 C54 1.247 . S
O49 Zn45 2.049 . S
O49 C54 1.246 1_545 S
O50 C43 1.247 1_565 S
O50 Zn47 2.028 . S
O51 C43 1.258 . S
O51 Zn45 2.035 . S
O52 Zn45 2.028 . S
O52 C55 1.247 . S
O53 Zn47 2.035 1_545 S
O53 C55 1.258 . S
C54 O48 1.247 . S
C54 O49 1.246 1_565 S
C55 O52 1.247 . S
C55 O53 1.258 . S
C56 O58 1.247 1_455 S
C56 O60 1.258 . S
C57 O64 1.247 1_655 S
C57 O65 1.258 . S
O58 C56 1.247 1_655 S
O58 Zn59 2.028 . S
Zn59 O58 2.028 . S
Zn59 O63 2.032 1_655 S
Zn59 O65 2.035 . S
Zn59 O66 2.028 . S
O60 C56 1.258 . S
O60 Zn61 2.035 . S
Zn61 O60 2.035 . S
Zn61 O62 2.028 . S
Zn61 O64 2.028 . S
Zn61 O67 2.034 1_455 S
O62 Zn61 2.028 . S
O62 C68 1.247 . S
O63 Zn59 2.032 1_455 S
O63 C68 1.275 . S
O64 C57 1.247 1_455 S
O64 Zn61 2.028 . S
O65 C57 1.258 . S
O65 Zn59 2.035 . S
O66 Zn59 2.028 . S
O66 C69 1.247 . S
O67 Zn61 2.034 1_655 S
O67 C69 1.266 . S
C68 O62 1.247 . S
C68 O63 1.275 . S
C69 O66 1.247 . S
C69 O67 1.266 . S
C70 O72 1.247 . S
C70 O74 1.258 . S
C71 O78 1.247 . S
C71 O79 1.258 . S
O72 C70 1.247 . S
O72 Zn73 2.028 . S
Zn73 O72 2.028 . S
Zn73 O77 2.035 . S
Zn73 O79 2.035 . S
Zn73 O80 2.028 . S
O74 C70 1.258 . S
O74 Zn75 2.035 . S
Zn75 O74 2.035 . S
Zn75 O76 2.028 . S
Zn75 O78 2.028 . S
Zn75 O81 2.035 . S
O76 Zn75 2.028 . S
O76 C82 1.247 . S
O77 Zn73 2.035 . S
O77 C82 1.258 . S
O78 C71 1.247 . S
O78 Zn75 2.028 . S
O79 C71 1.258 . S
O79 Zn73 2.035 . S
O80 Zn73 2.028 . S
O80 C83 1.247 . S
O81 Zn75 2.035 . S
O81 C83 1.258 . S
C82 O76 1.247 . S
C82 O77 1.258 . S
C83 O80 1.247 . S
C83 O81 1.258 . S
C84 O86 1.247 . S
C84 O88 1.258 . S
C85 O92 1.247 . S
C85 O93 1.258 . S
O86 C84 1.247 . S
O86 Zn87 2.028 . S
Zn87 O86 2.028 . S
Zn87 O91 2.035 . S
Zn87 O93 2.035 . S
Zn87 O94 2.028 . S
O88 C84 1.258 . S
O88 Zn89 2.035 . S
Zn89 O88 2.035 . S
Zn89 O90 2.028 . S
Zn89 O92 2.028 . S
Zn89 O95 2.035 . S
O90 Zn89 2.028 . S
O90 C96 1.247 . S
O91 Zn87 2.035 . S
O91 C96 1.258 . S
O92 C85 1.247 . S
O92 Zn89 2.028 . S
O93 C85 1.258 . S
O93 Zn87 2.035 . S
O94 Zn87 2.028 . S
O94 C97 1.247 . S
O95 Zn89 2.035 . S
O95 C97 1.258 . S
C96 O90 1.247 . S
C96 O91 1.258 . S
C97 O94 1.247 . S
C97 O95 1.258 . S
C98 O100 1.247 . S
C98 O102 1.258 . S
C99 O106 1.247 . S
C99 O107 1.258 . S
O100 C98 1.247 . S
O100 Zn101 2.028 . S
Zn101 O100 2.028 . S
Zn101 O105 2.035 . S
Zn101 O107 2.035 . S
Zn101 O108 2.028 . S
O102 C98 1.258 . S
O102 Zn103 2.035 . S
Zn103 O102 2.035 . S
Zn103 O104 2.028 . S
Zn103 O106 2.028 . S
Zn103 O109 2.035 . S
O104 Zn103 2.028 . S
O104 C110 1.247 . S
O105 Zn101 2.035 . S
O105 C110 1.258 . S
O106 C99 1.247 . S
O106 Zn103 2.028 . S
O107 C99 1.258 . S
O107 Zn101 2.035 . S
O108 Zn101 2.028 . S
O108 C111 1.247 . S
O109 Zn103 2.035 . S
O109 C111 1.258 . S
C110 O104 1.247 . S
C110 O105 1.258 . S
C111 O108 1.247 . S
C111 O109 1.258 . S
C112 O114 1.247 . S
C112 O116 1.258 . S
C113 O120 1.247 . S
C113 O121 1.258 . S
O114 C112 1.247 . S
O114 Zn115 2.028 . S
Zn115 O114 2.028 . S
Zn115 O119 2.035 . S
Zn115 O121 2.035 . S
Zn115 O122 2.028 . S
O116 C112 1.258 . S
O116 Zn117 2.035 . S
Zn117 O116 2.035 . S
Zn117 O118 2.028 . S
Zn117 O120 2.028 . S
Zn117 O123 2.035 . S
O118 Zn117 2.028 . S
O118 C124 1.247 . S
O119 Zn115 2.035 . S
O119 C124 1.258 . S
O120 C113 1.247 . S
O120 Zn117 2.028 . S
O121 C113 1.258 . S
O121 Zn115 2.035 . S
O122 Zn115 2.028 . S
O122 C125 1.247 . S
O123 Zn117 2.035 . S
O123 C125 1.258 . S
C124 O118 1.247 . S
C124 O119 1.258 . S
C125 O122 1.247 . S
C125 O123 1.258 . S
C126 O128 1.247 . S
C126 O130 1.258 . S
C127 O134 1.247 . S
C127 O135 1.258 . S
O128 C126 1.247 . S
O128 Zn129 2.028 . S
Zn129 O128 2.028 . S
Zn129 O133 2.035 . S
Zn129 O135 2.035 . S
Zn129 O136 2.028 . S
O130 C126 1.258 . S
O130 Zn131 2.035 . S
Zn131 O130 2.035 . S
Zn131 O132 2.028 . S
Zn131 O134 2.028 . S
Zn131 O137 2.035 . S
O132 Zn131 2.028 . S
O132 C138 1.247 . S
O133 Zn129 2.035 . S
O133 C138 1.258 . S
O134 C127 1.247 . S
O134 Zn131 2.028 . S
O135 C127 1.258 . S
O135 Zn129 2.035 . S
O136 Zn129 2.028 . S
O136 C139 1.247 . S
O137 Zn131 2.035 . S
O137 C139 1.258 . S
C138 O132 1.247 . S
C138 O133 1.258 . S
C139 O136 1.247 . S
C139 O137 1.258 . S
C140 O142 1.247 . S
C140 O144 1.258 . S
C141 O148 1.247 . S
C141 O149 1.258 . S
O142 C140 1.247 . S
O142 Zn143 2.028 . S
Zn143 O142 2.028 . S
Zn143 O147 2.035 . S
Zn143 O149 2.035 . S
Zn143 O150 2.028 . S
O144 C140 1.258 . S
O144 Zn145 2.035 . S
Zn145 O144 2.035 . S
Zn145 O146 2.028 . S
Zn145 O148 2.028 . S
Zn145 O151 2.035 . S
O146 Zn145 2.028 . S
O146 C152 1.247 . S
O147 Zn143 2.035 . S
O147 C152 1.258 . S
O148 C141 1.247 . S
O148 Zn145 2.028 . S
O149 C141 1.258 . S
O149 Zn143 2.035 . S
O150 Zn143 2.028 . S
O150 C153 1.247 . S
O151 Zn145 2.035 . S
O151 C153 1.258 . S
C152 O146 1.247 . S
C152 O147 1.258 . S
C153 O150 1.247 . S
C153 O151 1.258 . S
C154 O156 1.247 . S
C154 O158 1.258 . S
C155 O162 1.247 . S
C155 O163 1.258 . S
O156 C154 1.247 . S
O156 Zn157 2.028 . S
Zn157 O156 2.028 . S
Zn157 O161 2.035 . S
Zn157 O163 2.035 . S
Zn157 O164 2.028 . S
O158 C154 1.258 . S
O158 Zn159 2.035 . S
Zn159 O158 2.035 . S
Zn159 O160 2.028 . S
Zn159 O162 2.028 . S
Zn159 O165 2.035 . S
O160 Zn159 2.028 . S
O160 C166 1.247 . S
O161 Zn157 2.035 . S
O161 C166 1.258 . S
O162 C155 1.247 . S
O162 Zn159 2.028 . S
O163 C155 1.258 . S
O163 Zn157 2.035 . S
O164 Zn157 2.028 . S
O164 C167 1.247 . S
O165 Zn159 2.035 . S
O165 C167 1.258 . S
C166 O160 1.247 . S
C166 O161 1.258 . S
C167 O164 1.247 . S
C167 O165 1.258 . S
C168 O170 1.247 . S
C168 O172 1.258 . S
C169 O176 1.247 . S
C169 O177 1.258 . S
O170 C168 1.247 . S
O170 Zn171 2.028 . S
Zn171 O170 2.028 . S
Zn171 O175 2.035 . S
Zn171 O177 2.035 . S
Zn171 O178 2.028 . S
O172 C168 1.258 . S
O172 Zn173 2.035 . S
Zn173 O172 2.035 . S
Zn173 O174 2.028 . S
Zn173 O176 2.028 . S
Zn173 O179 2.035 . S
O174 Zn173 2.028 . S
O174 C180 1.247 . S
O175 Zn171 2.035 . S
O175 C180 1.258 . S
O176 C169 1.247 . S
O176 Zn173 2.028 . S
O177 C169 1.258 . S
O177 Zn171 2.035 . S
O178 Zn171 2.028 . S
O178 C181 1.247 . S
O179 Zn173 2.035 . S
O179 C181 1.258 . S
C180 O174 1.247 . S
C180 O175 1.258 . S
C181 O178 1.247 . S
C181 O179 1.258 . S
C182 O184 1.247 . S
C182 O186 1.258 . S
C183 O190 1.247 . S
C183 O191 1.258 . S
O184 C182 1.247 . S
O184 Zn185 2.028 . S
Zn185 O184 2.028 . S
Zn185 O189 2.035 . S
Zn185 O191 2.035 . S
Zn185 O192 2.028 . S
O186 C182 1.258 . S
O186 Zn187 2.035 . S
Zn187 O186 2.035 . S
Zn187 O188 2.028 . S
Zn187 O190 2.028 . S
Zn187 O193 2.035 . S
O188 Zn187 2.028 . S
O188 C194 1.247 . S
O189 Zn185 2.035 . S
O189 C194 1.258 . S
O190 C183 1.247 . S
O190 Zn187 2.028 . S
O191 C183 1.258 . S
O191 Zn185 2.035 . S
O192 Zn185 2.028 . S
O192 C195 1.247 . S
O193 Zn187 2.035 . S
O193 C195 1.258 . S
C194 O188 1.247 . S
C194 O189 1.258 . S
C195 O192 1.247 . S
C195 O193 1.258 . S
C196 O198 1.247 . S
C196 O200 1.258 . S
C197 O204 1.247 . S
C197 O205 1.258 . S
O198 C196 1.247 . S
O198 Zn199 2.028 . S
Zn199 O198 2.028 . S
Zn199 O203 2.035 . S
Zn199 O205 2.035 . S
Zn199 O206 2.028 . S
O200 C196 1.258 . S
O200 Zn201 2.035 . S
Zn201 O200 2.035 . S
Zn201 O202 2.028 . S
Zn201 O204 2.028 . S
Zn201 O207 2.035 . S
O202 Zn201 2.028 . S
O202 C208 1.247 . S
O203 Zn199 2.035 . S
O203 C208 1.258 . S
O204 C197 1.247 . S
O204 Zn201 2.028 . S
O205 C197 1.258 . S
O205 Zn199 2.035 . S
O206 Zn199 2.028 . S
O206 C209 1.247 . S
O207 Zn201 2.035 . S
O207 C209 1.258 . S
C208 O202 1.247 . S
C208 O203 1.258 . S
C209 O206 1.247 . S
C209 O207 1.258 . S
C210 O212 1.247 . S
C210 O214 1.258 . S
C211 O218 1.247 . S
C211 O219 1.258 . S
O212 C210 1.247 . S
O212 Zn213 2.028 . S
Zn213 O212 2.028 . S
Zn213 O217 2.035 . S
Zn213 O219 2.035 . S
Zn213 O220 2.028 . S
O214 C210 1.258 . S
O214 Zn215 2.035 . S
Zn215 O214 2.035 . S
Zn215 O216 2.028 . S
Zn215 O218 2.028 . S
Zn215 O221 2.035 . S
O216 Zn215 2.028 . S
O216 C222 1.247 . S
O217 Zn213 2.035 . S
O217 C222 1.258 . S
O218 C211 1.247 . S
O218 Zn215 2.028 . S
O219 C211 1.258 . S
O219 Zn213 2.035 . S
O220 Zn213 2.028 . S
O220 C223 1.247 . S
O221 Zn215 2.035 . S
O221 C223 1.258 . S
C222 O216 1.247 . S
C222 O217 1.258 . S
C223 O220 1.247 . S
C223 O221 1.258 . S
C224 O226 1.247 . S
C224 O228 1.258 . S
C225 O232 1.247 . S
C225 O233 1.258 . S
O226 C224 1.247 . S
O226 Zn227 2.028 . S
Zn227 O226 2.028 . S
Zn227 O231 2.035 . S
Zn227 O233 2.035 . S
Zn227 O234 2.028 . S
O228 C224 1.258 . S
O228 Zn229 2.035 . S
Zn229 O228 2.035 . S
Zn229 O230 2.028 . S
Zn229 O232 2.028 . S
Zn229 O235 2.035 . S
O230 Zn229 2.028 . S
O230 C236 1.247 . S
O231 Zn227 2.035 . S
O231 C236 1.258 . S
O232 C225 1.247 . S
O232 Zn229 2.028 . S
O233 C225 1.258 . S
O233 Zn227 2.035 . S
O234 Zn227 2.028 . S
O234 C237 1.247 . S
O235 Zn229 2.035 . S
O235 C237 1.258 . S
C236 O230 1.247 . S
C236 O231 1.258 . S
C237 O234 1.247 . S
C237 O235 1.258 . S
C238 O240 1.247 . S
C238 O242 1.258 . S
C239 O246 1.247 . S
C239 O247 1.258 . S
O240 C238 1.247 . S
O240 Zn241 2.028 . S
Zn241 O240 2.028 . S
Zn241 O245 2.035 . S
Zn241 O247 2.035 . S
Zn241 O248 2.028 . S
O242 C238 1.258 . S
O242 Zn243 2.035 . S
Zn243 O242 2.035 . S
Zn243 O244 2.028 . S
Zn243 O246 2.028 . S
Zn243 O249 2.035 . S
O244 Zn243 2.028 . S
O244 C250 1.247 . S
O245 Zn241 2.035 . S
O245 C250 1.258 . S
O246 C239 1.247 . S
O246 Zn243 2.028 . S
O247 C239 1.258 . S
O247 Zn241 2.035 . S
O248 Zn241 2.028 . S
O248 C251 1.247 . S
O249 Zn243 2.035 . S
O249 C251 1.258 . S
C250 O244 1.247 . S
C250 O245 1.258 . S
C251 O248 1.247 . S
C251 O249 1.258 . S
C252 C253 1.391 1_455 S
C252 C254 1.394 . S
C252 H268 0.931 . S
C253 C252 1.391 1_655 S
C253 C257 1.376 . S
C254 C252 1.394 . S
C254 C255 1.369 1_455 S
C254 C258 1.531 . S
C255 C254 1.369 1_655 S
C255 C256 1.410 . S
C255 C263 1.503 . S
C256 C255 1.410 . S
C256 C257 1.392 . S
C256 C259 1.511 . S
C257 C253 1.376 . S
C257 C256 1.392 . S
C257 H269 0.929 . S
C258 C254 1.531 . S
C258 H270 0.960 . S
C258 H271 0.962 . S
C258 H272 0.960 . S
C259 C256 1.511 . S
C259 H273 0.961 . S
C259 H274 0.961 . S
C259 H275 0.961 . S
C260 C261 1.370 . S
C260 C262 1.363 . S
C260 H276 0.931 . S
C261 C260 1.370 . S
C261 C265 1.408 1_455 S
C262 C260 1.363 . S
C262 C263 1.370 1_455 S
C262 C266 1.524 . S
C263 C255 1.503 . S
C263 C262 1.370 1_655 S
C263 C264 1.403 . S
C264 C263 1.403 . S
C264 C265 1.404 . S
C264 C267 1.539 . S
C265 C261 1.408 1_655 S
C265 C264 1.404 . S
C265 H277 0.930 . S
C266 C262 1.524 . S
C266 H278 0.956 . S
C266 H279 0.961 . S
C266 H280 0.961 . S
C267 C264 1.539 . S
C267 H281 0.958 . S
C267 H282 0.961 . S
C267 H283 0.960 . S
H268 C252 0.931 . S
H269 C257 0.929 . S
H270 C258 0.960 . S
H271 C258 0.962 . S
H272 C258 0.960 . S
H273 C259 0.961 . S
H274 C259 0.961 . S
H275 C259 0.961 . S
H276 C260 0.931 . S
H277 C265 0.930 . S
H278 C266 0.956 . S
H279 C266 0.961 . S
H280 C266 0.961 . S
H281 C267 0.958 . S
H282 C267 0.961 . S
H283 C267 0.960 . S
C284 C285 1.391 . S
C284 C286 1.394 . S
C284 H300 0.931 . S
C285 C284 1.391 . S
C285 C289 1.376 . S
C286 C284 1.394 . S
C286 C287 1.369 . S
C286 C290 1.531 . S
C287 C286 1.369 . S
C287 C288 1.410 . S
C287 C295 1.503 . S
C288 C287 1.410 . S
C288 C289 1.392 . S
C288 C291 1.511 . S
C289 C285 1.376 . S
C289 C288 1.392 . S
C289 H301 0.929 . S
C290 C286 1.531 . S
C290 H302 0.960 . S
C290 H303 0.962 . S
C290 H304 0.960 . S
C291 C288 1.511 . S
C291 H305 0.961 . S
C291 H306 0.961 . S
C291 H307 0.961 . S
C292 C293 1.370 . S
C292 C294 1.363 . S
C292 H308 0.931 . S
C293 C292 1.370 . S
C293 C297 1.408 . S
C294 C292 1.363 . S
C294 C295 1.370 . S
C294 C298 1.524 . S
C295 C287 1.503 . S
C295 C294 1.370 . S
C295 C296 1.403 . S
C296 C295 1.403 . S
C296 C297 1.404 . S
C296 C299 1.539 . S
C297 C293 1.408 . S
C297 C296 1.404 . S
C297 H309 0.930 . S
C298 C294 1.524 . S
C298 H310 0.956 . S
C298 H311 0.961 . S
C298 H312 0.961 . S
C299 C296 1.539 . S
C299 H313 0.958 . S
C299 H314 0.961 . S
C299 H315 0.960 . S
H300 C284 0.931 . S
H301 C289 0.929 . S
H302 C290 0.960 . S
H303 C290 0.962 . S
H304 C290 0.960 . S
H305 C291 0.961 . S
H306 C291 0.961 . S
H307 C291 0.961 . S
H308 C292 0.931 . S
H309 C297 0.930 . S
H310 C298 0.956 . S
H311 C298 0.961 . S
H312 C298 0.961 . S
H313 C299 0.958 . S
H314 C299 0.961 . S
H315 C299 0.960 . S
C316 C317 1.391 1_545 S
C316 C318 1.394 . S
C316 H332 0.931 . S
C317 C316 1.391 1_565 S
C317 C321 1.376 . S
C318 C316 1.394 . S
C318 C319 1.369 . S
C318 C322 1.531 . S
C319 C318 1.369 . S
C319 C320 1.410 1_545 S
C319 C327 1.503 . S
C320 C319 1.410 1_565 S
C320 C321 1.392 . S
C320 C323 1.511 . S
C321 C317 1.376 . S
C321 C320 1.392 . S
C321 H333 0.929 . S
C322 C318 1.531 . S
C322 H334 0.960 . S
C322 H335 0.962 . S
C322 H336 0.960 . S
C323 C320 1.511 . S
C323 H337 0.961 . S
C323 H338 0.961 . S
C323 H339 0.961 . S
C324 C325 1.370 . S
C324 C326 1.364 . S
C324 H340 0.931 . S
C325 C324 1.370 . S
C325 C329 1.408 . S
C326 C324 1.364 . S
C326 C327 1.384 . S
C326 C330 1.511 1_545 S
C327 C319 1.503 . S
C327 C326 1.384 . S
C327 C328 1.403 . S
C328 C327 1.403 . S
C328 C329 1.404 . S
C328 C331 1.539 . S
C329 C325 1.408 . S
C329 C328 1.404 . S
C329 H341 0.930 . S
C330 C326 1.511 1_565 S
C330 H342 0.956 1_565 S
C330 H343 0.961 . S
C330 H344 0.961 . S
C331 C328 1.539 . S
C331 H345 0.958 . S
C331 H346 0.961 1_545 S
C331 H347 0.960 1_545 S
H332 C316 0.931 . S
H333 C321 0.929 . S
H334 C322 0.960 . S
H335 C322 0.962 . S
H336 C322 0.960 . S
H337 C323 0.961 . S
H338 C323 0.961 . S
H339 C323 0.961 . S
H340 C324 0.931 . S
H341 C329 0.930 . S
H342 C330 0.956 1_545 S
H343 C330 0.961 . S
H344 C330 0.961 . S
H345 C331 0.958 . S
H346 C331 0.961 1_565 S
H347 C331 0.960 1_565 S
C348 C349 1.391 1_655 S
C348 C350 1.394 . S
C348 H364 0.931 . S
C349 C348 1.391 1_455 S
C349 C353 1.376 . S
C350 C348 1.394 . S
C350 C351 1.369 . S
C350 C354 1.531 . S
C351 C350 1.369 . S
C351 C352 1.410 1_655 S
C351 C359 1.503 . S
C352 C351 1.410 1_455 S
C352 C353 1.392 . S
C352 C355 1.511 . S
C353 C349 1.376 . S
C353 C352 1.392 . S
C353 H365 0.929 . S
C354 C350 1.531 . S
C354 H366 0.960 . S
C354 H367 0.962 . S
C354 H368 0.960 . S
C355 C352 1.511 . S
C355 H369 0.961 . S
C355 H370 0.961 . S
C355 H371 0.961 . S
C356 C357 1.370 1_455 S
C356 C358 1.363 . S
C356 H372 0.931 . S
C357 C356 1.370 1_655 S
C357 C361 1.408 . S
C358 C356 1.363 . S
C358 C359 1.370 1_455 S
C358 C362 1.524 . S
C359 C351 1.503 . S
C359 C358 1.370 1_655 S
C359 C360 1.403 . S
C360 C359 1.403 . S
C360 C361 1.404 . S
C360 C363 1.539 . S
C361 C357 1.408 . S
C361 C360 1.404 . S
C361 H373 0.930 . S
C362 C358 1.524 . S
C362 H374 0.956 1_455 S
C362 H375 0.961 . S
C362 H376 0.961 . S
C363 C360 1.539 . S
C363 H377 0.958 . S
C363 H378 0.961 . S
C363 H379 0.960 . S
H364 C348 0.931 . S
H365 C353 0.929 . S
H366 C354 0.960 . S
H367 C354 0.962 . S
H368 C354 0.960 . S
H369 C355 0.961 . S
H370 C355 0.961 . S
H371 C355 0.961 . S
H372 C356 0.931 . S
H373 C361 0.930 . S
H374 C362 0.956 1_655 S
H375 C362 0.961 . S
H376 C362 0.961 . S
H377 C363 0.958 . S
H378 C363 0.961 . S
H379 C363 0.960 . S
C380 C381 1.391 . S
C380 C382 1.394 . S
C380 H396 0.931 . S
C381 C380 1.391 . S
C381 C385 1.376 . S
C382 C380 1.394 . S
C382 C383 1.369 . S
C382 C386 1.531 . S
C383 C382 1.369 . S
C383 C384 1.410 . S
C383 C391 1.503 . S
C384 C383 1.410 . S
C384 C385 1.392 . S
C384 C387 1.511 . S
C385 C381 1.376 . S
C385 C384 1.392 . S
C385 H397 0.929 . S
C386 C382 1.531 . S
C386 H398 0.960 . S
C386 H399 0.962 . S
C386 H400 0.960 . S
C387 C384 1.511 . S
C387 H401 0.961 . S
C387 H402 0.961 . S
C387 H403 0.961 . S
C388 C389 1.370 . S
C388 C390 1.363 . S
C388 H404 0.931 . S
C389 C388 1.370 . S
C389 C393 1.408 . S
C390 C388 1.363 . S
C390 C391 1.370 . S
C390 C394 1.524 . S
C391 C383 1.503 . S
C391 C390 1.370 . S
C391 C392 1.403 . S
C392 C391 1.403 . S
C392 C393 1.404 . S
C392 C395 1.539 . S
C393 C389 1.408 . S
C393 C392 1.404 . S
C393 H405 0.930 . S
C394 C390 1.524 . S
C394 H406 0.956 . S
C394 H407 0.961 . S
C394 H408 0.961 . S
C395 C392 1.539 . S
C395 H409 0.958 . S
C395 H410 0.961 . S
C395 H411 0.960 . S
H396 C380 0.931 . S
H397 C385 0.929 . S
H398 C386 0.960 . S
H399 C386 0.962 . S
H400 C386 0.960 . S
H401 C387 0.961 . S
H402 C387 0.961 . S
H403 C387 0.961 . S
H404 C388 0.931 . S
H405 C393 0.930 . S
H406 C394 0.956 . S
H407 C394 0.961 . S
H408 C394 0.961 . S
H409 C395 0.958 . S
H410 C395 0.961 . S
H411 C395 0.960 . S
C412 C413 1.391 1_565 S
C412 C414 1.394 . S
C412 H428 0.931 . S
C413 C412 1.391 1_545 S
C413 C417 1.376 . S
C414 C412 1.394 . S
C414 C415 1.369 . S
C414 C418 1.531 . S
C415 C414 1.369 . S
C415 C416 1.410 1_565 S
C415 C423 1.503 . S
C416 C415 1.410 1_545 S
C416 C417 1.392 . S
C416 C419 1.511 . S
C417 C413 1.376 . S
C417 C416 1.392 . S
C417 H429 0.929 . S
C418 C414 1.531 . S
C418 H430 0.960 . S
C418 H431 0.962 . S
C418 H432 0.960 . S
C419 C416 1.511 . S
C419 H433 0.961 . S
C419 H434 0.961 . S
C419 H435 0.966 . S
C420 C421 1.370 1_545 S
C420 C422 1.363 . S
C420 H436 0.931 . S
C421 C420 1.370 1_565 S
C421 C425 1.408 . S
C422 C420 1.363 . S
C422 C423 1.370 1_545 S
C422 C426 1.524 . S
C423 C415 1.503 . S
C423 C422 1.370 1_565 S
C423 C424 1.403 . S
C424 C423 1.403 . S
C424 C425 1.404 . S
C424 C427 1.539 . S
C425 C421 1.408 . S
C425 C424 1.404 . S
C425 H437 0.930 . S
C426 C422 1.524 . S
C426 H438 0.956 . S
C426 H439 0.961 . S
C426 H440 0.961 . S
C427 C424 1.539 . S
C427 H441 0.958 . S
C427 H442 0.961 . S
C427 H443 0.960 . S
H428 C412 0.931 . S
H429 C417 0.929 . S
H430 C418 0.960 . S
H431 C418 0.962 . S
H432 C418 0.960 . S
H433 C419 0.961 . S
H434 C419 0.961 . S
H435 C419 0.966 . S
H436 C420 0.931 . S
H437 C425 0.930 . S
H438 C426 0.956 . S
H439 C426 0.961 . S
H440 C426 0.961 . S
H441 C427 0.958 . S
H442 C427 0.961 . S
H443 C427 0.960 . S
C444 C445 1.391 . S
C444 C446 1.394 . S
C444 H460 0.931 . S
C445 C444 1.391 . S
C445 C449 1.376 . S
C446 C444 1.394 . S
C446 C447 1.369 . S
C446 C450 1.531 . S
C447 C446 1.369 . S
C447 C448 1.410 . S
C447 C455 1.503 . S
C448 C447 1.410 . S
C448 C449 1.392 . S
C448 C451 1.511 . S
C449 C445 1.376 . S
C449 C448 1.392 . S
C449 H461 0.929 . S
C450 C446 1.531 . S
C450 H462 0.960 . S
C450 H463 0.962 . S
C450 H464 0.960 . S
C451 C448 1.511 . S
C451 H465 0.961 . S
C451 H466 0.961 . S
C451 H467 0.961 . S
C452 C453 1.370 . S
C452 C454 1.363 . S
C452 H468 0.931 . S
C453 C452 1.370 . S
C453 C457 1.408 . S
C454 C452 1.363 . S
C454 C455 1.370 . S
C454 C458 1.524 . S
C455 C447 1.503 . S
C455 C454 1.370 . S
C455 C456 1.403 . S
C456 C455 1.403 . S
C456 C457 1.404 . S
C456 C459 1.539 . S
C457 C453 1.408 . S
C457 C456 1.404 . S
C457 H469 0.930 . S
C458 C454 1.524 . S
C458 H470 0.956 . S
C458 H471 0.961 . S
C458 H472 0.961 . S
C459 C456 1.539 . S
C459 H473 0.958 . S
C459 H474 0.961 . S
C459 H475 0.960 . S
H460 C444 0.931 . S
H461 C449 0.929 . S
H462 C450 0.960 . S
H463 C450 0.962 . S
H464 C450 0.960 . S
H465 C451 0.961 . S
H466 C451 0.961 . S
H467 C451 0.961 . S
H468 C452 0.931 . S
H469 C457 0.930 . S
H470 C458 0.956 . S
H471 C458 0.961 . S
H472 C458 0.961 . S
H473 C459 0.958 . S
H474 C459 0.961 . S
H475 C459 0.960 . S
C476 C477 1.391 . S
C476 C478 1.394 . S
C476 H492 0.931 . S
C477 C476 1.391 . S
C477 C481 1.376 . S
C478 C476 1.394 . S
C478 C479 1.369 . S
C478 C482 1.531 . S
C479 C478 1.369 . S
C479 C480 1.410 . S
C479 C487 1.503 . S
C480 C479 1.410 . S
C480 C481 1.392 . S
C480 C483 1.511 . S
C481 C477 1.376 . S
C481 C480 1.392 . S
C481 H493 0.929 . S
C482 C478 1.531 . S
C482 H494 0.960 . S
C482 H495 0.962 . S
C482 H496 0.960 . S
C483 C480 1.511 . S
C483 H497 0.961 . S
C483 H498 0.961 . S
C483 H499 0.961 . S
C484 C485 1.370 . S
C484 C486 1.363 . S
C484 H500 0.931 . S
C485 C484 1.370 . S
C485 C489 1.408 . S
C486 C484 1.363 . S
C486 C487 1.370 . S
C486 C490 1.524 . S
C487 C479 1.503 . S
C487 C486 1.370 . S
C487 C488 1.403 . S
C488 C487 1.403 . S
C488 C489 1.404 . S
C488 C491 1.539 . S
C489 C485 1.408 . S
C489 C488 1.404 . S
C489 H501 0.930 . S
C490 C486 1.524 . S
C490 H502 0.956 . S
C490 H503 0.961 . S
C490 H504 0.961 . S
C491 C488 1.539 . S
C491 H505 0.958 . S
C491 H506 0.961 . S
C491 H507 0.960 . S
H492 C476 0.931 . S
H493 C481 0.929 . S
H494 C482 0.960 . S
H495 C482 0.962 . S
H496 C482 0.960 . S
H497 C483 0.961 . S
H498 C483 0.961 . S
H499 C483 0.961 . S
H500 C484 0.931 . S
H501 C489 0.930 . S
H502 C490 0.956 . S
H503 C490 0.961 . S
H504 C490 0.961 . S
H505 C491 0.958 . S
H506 C491 0.961 . S
H507 C491 0.960 . S
C508 C509 1.391 . S
C508 C510 1.394 . S
C508 H524 0.931 . S
C509 C508 1.391 . S
C509 C513 1.376 . S
C510 C508 1.394 . S
C510 C511 1.369 . S
C510 C514 1.531 . S
C511 C510 1.369 . S
C511 C512 1.410 . S
C511 C519 1.503 . S
C512 C511 1.410 . S
C512 C513 1.392 . S
C512 C515 1.511 . S
C513 C509 1.376 . S
C513 C512 1.392 . S
C513 H525 0.929 . S
C514 C510 1.531 . S
C514 H526 0.960 . S
C514 H527 0.962 . S
C514 H528 0.960 . S
C515 C512 1.511 . S
C515 H529 0.961 . S
C515 H530 0.961 . S
C515 H531 0.961 . S
C516 C517 1.370 . S
C516 C518 1.363 . S
C516 H532 0.931 . S
C517 C516 1.370 . S
C517 C521 1.408 . S
C518 C516 1.363 . S
C518 C519 1.370 . S
C518 C522 1.524 . S
C519 C511 1.503 . S
C519 C518 1.370 . S
C519 C520 1.403 . S
C520 C519 1.403 . S
C520 C521 1.404 . S
C520 C523 1.539 . S
C521 C517 1.408 . S
C521 C520 1.404 . S
C521 H533 0.930 . S
C522 C518 1.524 . S
C522 H534 0.956 . S
C522 H535 0.961 . S
C522 H536 0.961 . S
C523 C520 1.539 . S
C523 H537 0.958 . S
C523 H538 0.961 . S
C523 H539 0.960 . S
H524 C508 0.931 . S
H525 C513 0.929 . S
H526 C514 0.960 . S
H527 C514 0.962 . S
H528 C514 0.960 . S
H529 C515 0.961 . S
H530 C515 0.961 . S
H531 C515 0.961 . S
H532 C516 0.931 . S
H533 C521 0.930 . S
H534 C522 0.956 . S
H535 C522 0.961 . S
H536 C522 0.961 . S
H537 C523 0.958 . S
H538 C523 0.961 . S
H539 C523 0.960 . S
C540 C541 1.391 . S
C540 C542 1.394 . S
C540 H556 0.931 . S
C541 C540 1.391 . S
C541 C545 1.376 . S
C542 C540 1.394 . S
C542 C543 1.369 . S
C542 C546 1.531 . S
C543 C542 1.369 . S
C543 C544 1.410 . S
C543 C551 1.503 . S
C544 C543 1.410 . S
C544 C545 1.392 . S
C544 C547 1.511 . S
C545 C541 1.376 . S
C545 C544 1.392 . S
C545 H557 0.929 . S
C546 C542 1.531 . S
C546 H558 0.960 . S
C546 H559 0.962 . S
C546 H560 0.960 . S
C547 C544 1.511 . S
C547 H561 0.961 . S
C547 H562 0.961 . S
C547 H563 0.961 . S
C548 C549 1.370 . S
C548 C550 1.363 1_556 S
C548 H564 0.931 . S
C549 C548 1.370 . S
C549 C553 1.408 . S
C550 C548 1.363 1_554 S
C550 C551 1.370 . S
C550 C554 1.524 . S
C551 C543 1.503 . S
C551 C550 1.370 . S
C551 C552 1.403 . S
C552 C551 1.403 . S
C552 C553 1.404 1_554 S
C552 C555 1.539 . S
C553 C549 1.408 . S
C553 C552 1.404 1_556 S
C553 H565 0.930 . S
C554 C550 1.524 . S
C554 H566 0.956 . S
C554 H567 0.961 . S
C554 H568 0.961 . S
C555 C552 1.539 . S
C555 H569 0.958 . S
C555 H570 0.961 . S
C555 H571 0.960 . S
H556 C540 0.931 . S
H557 C545 0.929 . S
H558 C546 0.960 . S
H559 C546 0.962 . S
H560 C546 0.960 . S
H561 C547 0.961 . S
H562 C547 0.961 . S
H563 C547 0.961 . S
H564 C548 0.931 . S
H565 C553 0.930 . S
H566 C554 0.956 . S
H567 C554 0.961 . S
H568 C554 0.961 . S
H569 C555 0.958 . S
H570 C555 0.961 . S
H571 C555 0.960 . S
C572 C573 1.391 . S
C572 C574 1.394 1_556 S
C572 H588 0.931 . S
C573 C572 1.391 . S
C573 C577 1.376 . S
C574 C572 1.394 1_554 S
C574 C575 1.369 . S
C574 C578 1.531 . S
C575 C574 1.369 . S
C575 C576 1.410 . S
C575 C583 1.503 . S
C576 C575 1.410 . S
C576 C577 1.392 1_554 S
C576 C579 1.511 . S
C577 C573 1.376 . S
C577 C576 1.392 1_556 S
C577 H589 0.929 . S
C578 C574 1.531 . S
C578 H590 0.960 . S
C578 H591 0.962 . S
C578 H592 0.960 . S
C579 C576 1.511 . S
C579 H593 0.961 . S
C579 H594 0.961 . S
C579 H595 0.961 . S
C580 C581 1.370 . S
C580 C582 1.363 . S
C580 H596 0.931 . S
C581 C580 1.370 . S
C581 C585 1.408 . S
C582 C580 1.363 . S
C582 C583 1.370 . S
C582 C586 1.524 . S
C583 C575 1.503 . S
C583 C582 1.370 . S
C583 C584 1.403 . S
C584 C583 1.403 . S
C584 C585 1.404 . S
C584 C587 1.539 . S
C585 C581 1.408 . S
C585 C584 1.404 . S
C585 H597 0.930 . S
C586 C582 1.524 . S
C586 H598 0.956 . S
C586 H599 0.961 . S
C586 H600 0.961 . S
C587 C584 1.539 . S
C587 H601 0.958 . S
C587 H602 0.961 . S
C587 H603 0.960 . S
H588 C572 0.931 . S
H589 C577 0.929 . S
H590 C578 0.960 . S
H591 C578 0.962 . S
H592 C578 0.960 . S
H593 C579 0.961 . S
H594 C579 0.961 . S
H595 C579 0.961 . S
H596 C580 0.931 . S
H597 C585 0.930 . S
H598 C586 0.956 . S
H599 C586 0.961 . S
H600 C586 0.961 . S
H601 C587 0.958 . S
H602 C587 0.961 . S
H603 C587 0.960 . S
C604 C605 1.391 . S
C604 C606 1.394 1_556 S
C604 H620 0.931 . S
C605 C604 1.391 . S
C605 C609 1.376 . S
C606 C604 1.394 1_554 S
C606 C607 1.369 . S
C606 C610 1.531 . S
C607 C606 1.369 . S
C607 C608 1.410 . S
C607 C615 1.503 . S
C608 C607 1.410 . S
C608 C609 1.392 1_554 S
C608 C611 1.511 . S
C609 C605 1.376 . S
C609 C608 1.392 1_556 S
C609 H621 0.929 . S
C610 C606 1.531 . S
C610 H622 0.960 . S
C610 H623 0.962 . S
C610 H624 0.960 . S
C611 C608 1.511 . S
C611 H625 0.961 . S
C611 H626 0.961 . S
C611 H627 0.961 . S
C612 C613 1.370 . S
C612 C614 1.363 . S
C612 H628 0.931 . S
C613 C612 1.370 . S
C613 C617 1.408 . S
C614 C612 1.363 . S
C614 C615 1.370 . S
C614 C618 1.524 . S
C615 C607 1.503 . S
C615 C614 1.370 . S
C615 C616 1.403 . S
C616 C615 1.403 . S
C616 C617 1.404 . S
C616 C619 1.539 . S
C617 C613 1.408 . S
C617 C616 1.404 . S
C617 H629 0.930 . S
C618 C614 1.524 . S
C618 H630 0.956 . S
C618 H631 0.961 . S
C618 H632 0.961 . S
C619 C616 1.539 . S
C619 H633 0.958 . S
C619 H634 0.961 . S
C619 H635 0.960 . S
H620 C604 0.931 . S
H621 C609 0.929 . S
H622 C610 0.960 . S
H623 C610 0.962 . S
H624 C610 0.960 . S
H625 C611 0.961 . S
H626 C611 0.961 . S
H627 C611 0.961 . S
H628 C612 0.931 . S
H629 C617 0.930 . S
H630 C618 0.956 . S
H631 C618 0.961 . S
H632 C618 0.961 . S
H633 C619 0.958 . S
H634 C619 0.961 . S
H635 C619 0.960 . S
C636 C637 1.391 . S
C636 C638 1.394 1_554 S
C636 H652 0.931 . S
C637 C636 1.391 . S
C637 C641 1.376 . S
C638 C636 1.394 1_556 S
C638 C639 1.369 . S
C638 C642 1.531 . S
C639 C638 1.369 . S
C639 C640 1.410 . S
C639 C647 1.503 . S
C640 C639 1.410 . S
C640 C641 1.392 1_556 S
C640 C643 1.511 . S
C641 C637 1.376 . S
C641 C640 1.392 1_554 S
C641 H653 0.929 . S
C642 C638 1.531 . S
C642 H654 0.960 . S
C642 H655 0.962 . S
C642 H656 0.960 . S
C643 C640 1.511 . S
C643 H657 0.961 . S
C643 H658 0.961 . S
C643 H659 0.961 . S
C644 C645 1.370 . S
C644 C646 1.363 . S
C644 H660 0.931 . S
C645 C644 1.370 . S
C645 C649 1.408 . S
C646 C644 1.363 . S
C646 C647 1.370 . S
C646 C650 1.524 . S
C647 C639 1.503 . S
C647 C646 1.370 . S
C647 C648 1.403 . S
C648 C647 1.403 . S
C648 C649 1.404 . S
C648 C651 1.539 . S
C649 C645 1.408 . S
C649 C648 1.404 . S
C649 H661 0.930 . S
C650 C646 1.524 . S
C650 H662 0.956 . S
C650 H663 0.961 . S
C650 H664 0.961 . S
C651 C648 1.539 . S
C651 H665 0.958 . S
C651 H666 0.961 . S
C651 H667 0.960 . S
H652 C636 0.931 . S
H653 C641 0.929 . S
H654 C642 0.960 . S
H655 C642 0.962 . S
H656 C642 0.960 . S
H657 C643 0.961 . S
H658 C643 0.961 . S
H659 C643 0.961 . S
H660 C644 0.931 . S
H661 C649 0.930 . S
H662 C650 0.956 . S
H663 C650 0.961 . S
H664 C650 0.961 . S
H665 C651 0.958 . S
H666 C651 0.961 . S
H667 C651 0.960 . S
C668 C669 1.391 . S
C668 C670 1.394 . S
C668 H684 0.931 . S
C669 C668 1.391 . S
C669 C673 1.376 . S
C670 C668 1.394 . S
C670 C671 1.369 . S
C670 C674 1.531 . S
C671 C670 1.369 . S
C671 C672 1.410 . S
C671 C679 1.503 . S
C672 C671 1.410 . S
C672 C673 1.392 . S
C672 C675 1.511 . S
C673 C669 1.376 . S
C673 C672 1.392 . S
C673 H685 0.929 . S
C674 C670 1.531 . S
C674 H686 0.960 . S
C674 H687 0.962 . S
C674 H688 0.960 . S
C675 C672 1.511 . S
C675 H689 0.961 . S
C675 H690 0.961 . S
C675 H691 0.961 . S
C676 C677 1.370 . S
C676 C678 1.363 1_554 S
C676 H692 0.931 . S
C677 C676 1.370 . S
C677 C681 1.408 . S
C678 C676 1.363 1_556 S
C678 C679 1.370 . S
C678 C682 1.524 . S
C679 C671 1.503 . S
C679 C678 1.370 . S
C679 C680 1.403 . S
C680 C679 1.403 . S
C680 C681 1.404 1_556 S
C680 C683 1.539 . S
C681 C677 1.408 . S
C681 C680 1.404 1_554 S
C681 H693 0.930 . S
C682 C678 1.524 . S
C682 H694 0.956 . S
C682 H695 0.961 . S
C682 H696 0.961 . S
C683 C680 1.539 . S
C683 H697 0.958 . S
C683 H698 0.961 . S
C683 H699 0.960 . S
H684 C668 0.931 . S
H685 C673 0.929 . S
H686 C674 0.960 . S
H687 C674 0.962 . S
H688 C674 0.960 . S
H689 C675 0.961 . S
H690 C675 0.961 . S
H691 C675 0.961 . S
H692 C676 0.931 . S
H693 C681 0.930 . S
H694 C682 0.956 . S
H695 C682 0.961 . S
H696 C682 0.961 . S
H697 C683 0.958 . S
H698 C683 0.961 . S
H699 C683 0.960 . S
C700 C701 1.391 . S
C700 C702 1.394 1_554 S
C700 H716 0.931 . S
C701 C700 1.391 . S
C701 C705 1.376 . S
C702 C700 1.394 1_556 S
C702 C703 1.369 . S
C702 C706 1.531 . S
C703 C702 1.369 . S
C703 C704 1.410 . S
C703 C711 1.503 . S
C704 C703 1.410 . S
C704 C705 1.392 1_556 S
C704 C707 1.511 . S
C705 C701 1.376 . S
C705 C704 1.392 1_554 S
C705 H717 0.929 . S
C706 C702 1.531 . S
C706 H718 0.960 . S
C706 H719 0.962 . S
C706 H720 0.960 . S
C707 C704 1.511 . S
C707 H721 0.961 . S
C707 H722 0.961 . S
C707 H723 0.961 . S
C708 C709 1.370 . S
C708 C710 1.363 . S
C708 H724 0.931 . S
C709 C708 1.370 . S
C709 C713 1.408 . S
C710 C708 1.363 . S
C710 C711 1.370 . S
C710 C714 1.524 . S
C711 C703 1.503 . S
C711 C710 1.370 . S
C711 C712 1.403 . S
C712 C711 1.403 . S
C712 C713 1.404 . S
C712 C715 1.539 . S
C713 C709 1.408 . S
C713 C712 1.404 . S
C713 H725 0.930 . S
C714 C710 1.524 . S
C714 H726 0.956 . S
C714 H727 0.961 . S
C714 H728 0.961 . S
C715 C712 1.539 . S
C715 H729 0.958 . S
C715 H730 0.961 . S
C715 H731 0.960 . S
H716 C700 0.931 . S
H717 C705 0.929 . S
H718 C706 0.960 . S
H719 C706 0.962 . S
H720 C706 0.960 . S
H721 C707 0.961 . S
H722 C707 0.961 . S
H723 C707 0.961 . S
H724 C708 0.931 . S
H725 C713 0.930 . S
H726 C714 0.956 . S
H727 C714 0.961 . S
H728 C714 0.961 . S
H729 C715 0.958 . S
H730 C715 0.961 . S
H731 C715 0.960 . S
C732 C733 1.391 . S
C732 C734 1.394 . S
C732 H748 0.931 . S
C733 C732 1.391 . S
C733 C737 1.376 . S
C734 C732 1.394 . S
C734 C735 1.369 . S
C734 C738 1.531 . S
C735 C734 1.369 . S
C735 C736 1.410 . S
C735 C743 1.503 . S
C736 C735 1.410 . S
C736 C737 1.392 . S
C736 C739 1.511 . S
C737 C733 1.376 . S
C737 C736 1.392 . S
C737 H749 0.929 . S
C738 C734 1.531 . S
C738 H750 0.960 . S
C738 H751 0.962 . S
C738 H752 0.960 . S
C739 C736 1.511 . S
C739 H753 0.961 . S
C739 H754 0.961 . S
C739 H755 0.961 . S
C740 C741 1.370 . S
C740 C742 1.363 . S
C740 H756 0.931 . S
C741 C740 1.370 . S
C741 C745 1.408 . S
C742 C740 1.363 . S
C742 C743 1.370 . S
C742 C746 1.524 . S
C743 C735 1.503 . S
C743 C742 1.370 . S
C743 C744 1.403 . S
C744 C743 1.403 . S
C744 C745 1.404 . S
C744 C747 1.539 . S
C745 C741 1.408 . S
C745 C744 1.404 . S
C745 H757 0.930 . S
C746 C742 1.524 . S
C746 H758 0.956 . S
C746 H759 0.961 . S
C746 H760 0.961 . S
C747 C744 1.539 . S
C747 H761 0.958 . S
C747 H762 0.961 . S
C747 H763 0.960 . S
H748 C732 0.931 . S
H749 C737 0.929 . S
H750 C738 0.960 . S
H751 C738 0.962 . S
H752 C738 0.960 . S
H753 C739 0.961 . S
H754 C739 0.961 . S
H755 C739 0.961 . S
H756 C740 0.931 . S
H757 C745 0.930 . S
H758 C746 0.956 . S
H759 C746 0.961 . S
H760 C746 0.961 . S
H761 C747 0.958 . S
H762 C747 0.961 . S
H763 C747 0.960 . S
C764 C765 1.391 . S
C764 C766 1.394 . S
C764 H780 0.931 . S
C765 C764 1.391 . S
C765 C769 1.376 . S
C766 C764 1.394 . S
C766 C767 1.369 . S
C766 C770 1.531 . S
C767 C766 1.369 . S
C767 C768 1.410 . S
C767 C775 1.503 . S
C768 C767 1.410 . S
C768 C769 1.392 . S
C768 C771 1.511 . S
C769 C765 1.376 . S
C769 C768 1.392 . S
C769 H781 0.929 . S
C770 C766 1.531 . S
C770 H782 0.960 . S
C770 H783 0.962 . S
C770 H784 0.960 . S
C771 C768 1.511 . S
C771 H785 0.961 . S
C771 H786 0.961 . S
C771 H787 0.961 . S
C772 C773 1.370 . S
C772 C774 1.363 . S
C772 H788 0.931 . S
C773 C772 1.370 . S
C773 C777 1.408 . S
C774 C772 1.363 . S
C774 C775 1.370 . S
C774 C778 1.524 . S
C775 C767 1.503 . S
C775 C774 1.370 . S
C775 C776 1.403 . S
C776 C775 1.403 . S
C776 C777 1.404 . S
C776 C779 1.539 . S
C777 C773 1.408 . S
C777 C776 1.404 . S
C777 H789 0.930 . S
C778 C774 1.524 . S
C778 H790 0.956 . S
C778 H791 0.961 . S
C778 H792 0.961 . S
C779 C776 1.539 . S
C779 H793 0.958 . S
C779 H794 0.961 . S
C779 H795 0.960 . S
H780 C764 0.931 . S
H781 C769 0.929 . S
H782 C770 0.960 . S
H783 C770 0.962 . S
H784 C770 0.960 . S
H785 C771 0.961 . S
H786 C771 0.961 . S
H787 C771 0.961 . S
H788 C772 0.931 . S
H789 C777 0.930 . S
H790 C778 0.956 . S
H791 C778 0.961 . S
H792 C778 0.961 . S
H793 C779 0.958 . S
H794 C779 0.961 . S
H795 C779 0.960 . S
C796 C797 1.391 . S
C796 C798 1.394 . S
C796 H812 0.931 . S
C797 C796 1.391 . S
C797 C801 1.376 . S
C798 C796 1.394 . S
C798 C799 1.369 . S
C798 C802 1.531 . S
C799 C798 1.369 . S
C799 C800 1.410 . S
C799 C807 1.503 . S
C800 C799 1.410 . S
C800 C801 1.392 . S
C800 C803 1.511 . S
C801 C797 1.376 . S
C801 C800 1.392 . S
C801 H813 0.929 . S
C802 C798 1.531 . S
C802 H814 0.960 . S
C802 H815 0.962 . S
C802 H816 0.960 . S
C803 C800 1.511 . S
C803 H817 0.961 . S
C803 H818 0.961 . S
C803 H819 0.961 . S
C804 C805 1.370 . S
C804 C806 1.363 . S
C804 H820 0.931 . S
C805 C804 1.370 . S
C805 C809 1.408 . S
C806 C804 1.363 . S
C806 C807 1.370 . S
C806 C810 1.524 . S
C807 C799 1.503 . S
C807 C806 1.370 . S
C807 C808 1.403 . S
C808 C807 1.403 . S
C808 C809 1.404 . S
C808 C811 1.539 . S
C809 C805 1.408 . S
C809 C808 1.404 . S
C809 H821 0.930 . S
C810 C806 1.524 . S
C810 H822 0.956 . S
C810 H823 0.961 . S
C810 H824 0.961 . S
C811 C808 1.539 . S
C811 H825 0.958 . S
C811 H826 0.961 . S
C811 H827 0.960 . S
H812 C796 0.931 . S
H813 C801 0.929 . S
H814 C802 0.960 . S
H815 C802 0.962 . S
H816 C802 0.960 . S
H817 C803 0.961 . S
H818 C803 0.961 . S
H819 C803 0.961 . S
H820 C804 0.931 . S
H821 C809 0.930 . S
H822 C810 0.956 . S
H823 C810 0.961 . S
H824 C810 0.961 . S
H825 C811 0.958 . S
H826 C811 0.961 . S
H827 C811 0.960 . S
C828 C829 1.391 . S
C828 C830 1.394 . S
C828 H844 0.931 . S
C829 C828 1.391 . S
C829 C833 1.376 . S
C830 C828 1.394 . S
C830 C831 1.369 . S
C830 C834 1.531 . S
C831 C830 1.369 . S
C831 C832 1.410 . S
C831 C839 1.503 . S
C832 C831 1.410 . S
C832 C833 1.392 . S
C832 C835 1.511 . S
C833 C829 1.376 . S
C833 C832 1.392 . S
C833 H845 0.924 1_556 S
C834 C830 1.531 . S
C834 H846 0.960 . S
C834 H847 0.962 . S
C834 H848 0.960 . S
C835 C832 1.511 . S
C835 H849 0.961 1_556 S
C835 H850 0.961 . S
C835 H851 0.961 . S
C836 C837 1.370 . S
C836 C838 1.363 . S
C836 H852 0.931 . S
C837 C836 1.370 . S
C837 C841 1.408 . S
C838 C836 1.363 . S
C838 C839 1.370 . S
C838 C842 1.524 . S
C839 C831 1.503 . S
C839 C838 1.370 . S
C839 C840 1.403 . S
C840 C839 1.403 . S
C840 C841 1.404 . S
C840 C843 1.539 . S
C841 C837 1.408 . S
C841 C840 1.404 . S
C841 H853 0.930 . S
C842 C838 1.524 . S
C842 H854 0.956 . S
C842 H855 0.961 . S
C842 H856 0.961 . S
C843 C840 1.539 . S
C843 H857 0.958 . S
C843 H858 0.961 . S
C843 H859 0.960 . S
H844 C828 0.931 . S
H845 C833 0.924 1_554 S
H846 C834 0.960 . S
H847 C834 0.962 . S
H848 C834 0.960 . S
H849 C835 0.961 1_554 S
H850 C835 0.961 . S
H851 C835 0.961 . S
H852 C836 0.931 . S
H853 C841 0.930 . S
H854 C842 0.956 . S
H855 C842 0.961 . S
H856 C842 0.961 . S
H857 C843 0.958 . S
H858 C843 0.961 . S
H859 C843 0.960 . S
C860 C861 1.391 . S
C860 C862 1.394 . S
C860 H876 0.931 . S
C861 C860 1.391 . S
C861 C865 1.376 . S
C862 C860 1.394 . S
C862 C863 1.369 . S
C862 C866 1.531 . S
C863 C862 1.369 . S
C863 C864 1.410 . S
C863 C871 1.503 . S
C864 C863 1.410 . S
C864 C865 1.392 . S
C864 C867 1.511 . S
C865 C861 1.376 . S
C865 C864 1.392 . S
C865 H877 0.929 . S
C866 C862 1.531 . S
C866 H878 0.960 . S
C866 H879 0.962 . S
C866 H880 0.960 . S
C867 C864 1.511 . S
C867 H881 0.961 . S
C867 H882 0.961 . S
C867 H883 0.961 . S
C868 C869 1.370 . S
C868 C870 1.363 . S
C868 H884 0.931 . S
C869 C868 1.370 . S
C869 C873 1.408 . S
C870 C868 1.363 . S
C870 C871 1.370 . S
C870 C874 1.524 . S
C871 C863 1.503 . S
C871 C870 1.370 . S
C871 C872 1.403 . S
C872 C871 1.403 . S
C872 C873 1.404 . S
C872 C875 1.539 1_556 S
C873 C869 1.408 . S
C873 C872 1.404 . S
C873 H885 0.930 1_556 S
C874 C870 1.524 . S
C874 H886 0.956 . S
C874 H887 0.961 . S
C874 H888 0.961 . S
C875 C872 1.539 1_554 S
C875 H889 0.958 . S
C875 H890 0.961 . S
C875 H891 0.960 1_554 S
H876 C860 0.931 . S
H877 C865 0.929 . S
H878 C866 0.960 . S
H879 C866 0.962 . S
H880 C866 0.960 . S
H881 C867 0.961 . S
H882 C867 0.961 . S
H883 C867 0.961 . S
H884 C868 0.931 . S
H885 C873 0.930 1_554 S
H886 C874 0.956 . S
H887 C874 0.961 . S
H888 C874 0.961 . S
H889 C875 0.958 . S
H890 C875 0.961 . S
H891 C875 0.960 1_556 S
C892 C893 1.391 . S
C892 C894 1.394 . S
C892 H908 0.931 . S
C893 C892 1.391 . S
C893 C897 1.376 . S
C894 C892 1.394 . S
C894 C895 1.369 . S
C894 C898 1.531 . S
C895 C894 1.369 . S
C895 C896 1.410 . S
C895 C903 1.503 . S
C896 C895 1.410 . S
C896 C897 1.392 . S
C896 C899 1.511 . S
C897 C893 1.376 . S
C897 C896 1.392 . S
C897 H909 0.929 . S
C898 C894 1.531 . S
C898 H910 0.960 . S
C898 H911 0.962 . S
C898 H912 0.960 . S
C899 C896 1.511 . S
C899 H913 0.961 . S
C899 H914 0.961 . S
C899 H915 0.961 . S
C900 C901 1.370 . S
C900 C902 1.363 . S
C900 H916 0.931 1_556 S
C901 C900 1.370 . S
C901 C905 1.408 . S
C902 C900 1.363 . S
C902 C903 1.370 . S
C902 C906 1.524 . S
C903 C895 1.503 . S
C903 C902 1.370 . S
C903 C904 1.403 . S
C904 C903 1.403 . S
C904 C905 1.404 . S
C904 C907 1.539 . S
C905 C901 1.408 . S
C905 C904 1.404 . S
C905 H917 0.930 . S
C906 C902 1.524 . S
C906 H918 0.956 . S
C906 H919 0.961 . S
C906 H920 0.961 1_556 S
C907 C904 1.539 . S
C907 H921 0.958 . S
C907 H922 0.961 . S
C907 H923 0.960 . S
H908 C892 0.931 . S
H909 C897 0.929 . S
H910 C898 0.960 . S
H911 C898 0.962 . S
H912 C898 0.960 . S
H913 C899 0.961 . S
H914 C899 0.961 . S
H915 C899 0.961 . S
H916 C900 0.931 1_554 S
H917 C905 0.930 . S
H918 C906 0.956 . S
H919 C906 0.961 . S
H920 C906 0.961 1_554 S
H921 C907 0.958 . S
H922 C907 0.961 . S
H923 C907 0.960 . S
C924 C925 1.391 . S
C924 C926 1.394 . S
C924 H940 0.931 . S
C925 C924 1.391 . S
C925 C929 1.376 . S
C926 C924 1.394 . S
C926 C927 1.369 . S
C926 C930 1.531 . S
C927 C926 1.369 . S
C927 C928 1.410 . S
C927 C935 1.503 . S
C928 C927 1.410 . S
C928 C929 1.392 . S
C928 C931 1.511 . S
C929 C925 1.376 . S
C929 C928 1.392 . S
C929 H941 0.929 . S
C930 C926 1.531 . S
C930 H942 0.960 . S
C930 H943 0.962 . S
C930 H944 0.960 . S
C931 C928 1.511 . S
C931 H945 0.961 . S
C931 H946 0.961 . S
C931 H947 0.961 . S
C932 C933 1.370 . S
C932 C934 1.363 . S
C932 H948 0.931 . S
C933 C932 1.370 . S
C933 C937 1.408 . S
C934 C932 1.363 . S
C934 C935 1.370 . S
C934 C938 1.524 . S
C935 C927 1.503 . S
C935 C934 1.370 . S
C935 C936 1.403 . S
C936 C935 1.403 . S
C936 C937 1.404 . S
C936 C939 1.539 . S
C937 C933 1.408 . S
C937 C936 1.404 . S
C937 H949 0.930 . S
C938 C934 1.524 . S
C938 H950 0.956 . S
C938 H951 0.961 . S
C938 H952 0.961 . S
C939 C936 1.539 . S
C939 H953 0.958 . S
C939 H954 0.961 . S
C939 H955 0.960 . S
H940 C924 0.931 . S
H941 C929 0.929 . S
H942 C930 0.960 . S
H943 C930 0.962 . S
H944 C930 0.960 . S
H945 C931 0.961 . S
H946 C931 0.961 . S
H947 C931 0.961 . S
H948 C932 0.931 . S
H949 C937 0.930 . S
H950 C938 0.956 . S
H951 C938 0.961 . S
H952 C938 0.961 . S
H953 C939 0.958 . S
H954 C939 0.961 . S
H955 C939 0.960 . S
C956 C957 1.391 . S
C956 C958 1.394 . S
C956 H972 0.931 . S
C957 C956 1.391 . S
C957 C961 1.376 . S
C958 C956 1.394 . S
C958 C959 1.369 . S
C958 C962 1.531 . S
C959 C958 1.369 . S
C959 C960 1.410 . S
C959 C967 1.503 . S
C960 C959 1.410 . S
C960 C961 1.392 . S
C960 C963 1.511 . S
C961 C957 1.376 . S
C961 C960 1.392 . S
C961 H973 0.929 . S
C962 C958 1.531 . S
C962 H974 0.960 . S
C962 H975 0.962 . S
C962 H976 0.960 . S
C963 C960 1.511 . S
C963 H977 0.961 . S
C963 H978 0.961 . S
C963 H979 0.961 . S
C964 C965 1.370 . S
C964 C966 1.363 . S
C964 H980 0.931 . S
C965 C964 1.370 . S
C965 C969 1.408 . S
C966 C964 1.363 . S
C966 C967 1.370 . S
C966 C970 1.524 . S
C967 C959 1.503 . S
C967 C966 1.370 . S
C967 C968 1.403 . S
C968 C967 1.403 . S
C968 C969 1.404 . S
C968 C971 1.539 . S
C969 C965 1.408 . S
C969 C968 1.404 . S
C969 H981 0.930 . S
C970 C966 1.524 . S
C970 H982 0.956 . S
C970 H983 0.961 . S
C970 H984 0.961 . S
C971 C968 1.539 . S
C971 H985 0.958 . S
C971 H986 0.961 . S
C971 H987 0.960 . S
H972 C956 0.931 . S
H973 C961 0.929 . S
H974 C962 0.960 . S
H975 C962 0.962 . S
H976 C962 0.960 . S
H977 C963 0.961 . S
H978 C963 0.961 . S
H979 C963 0.961 . S
H980 C964 0.931 . S
H981 C969 0.930 . S
H982 C970 0.956 . S
H983 C970 0.961 . S
H984 C970 0.961 . S
H985 C971 0.958 . S
H986 C971 0.961 . S
H987 C971 0.960 . S
C988 C989 1.391 . S
C988 C990 1.394 . S
C988 H1004 0.931 . S
C989 C988 1.391 . S
C989 C993 1.376 . S
C990 C988 1.394 . S
C990 C991 1.369 . S
C990 C994 1.531 . S
C991 C990 1.369 . S
C991 C992 1.410 . S
C991 C999 1.503 . S
C992 C991 1.410 . S
C992 C993 1.392 . S
C992 C995 1.511 . S
C993 C989 1.376 . S
C993 C992 1.392 . S
C993 H1005 0.929 . S
C994 C990 1.531 . S
C994 H1006 0.960 . S
C994 H1007 0.962 . S
C994 H1008 0.960 . S
C995 C992 1.511 . S
C995 H1009 0.961 . S
C995 H1010 0.961 . S
C995 H1011 0.961 . S
C996 C997 1.370 . S
C996 C998 1.363 . S
C996 H1012 0.931 . S
C997 C996 1.370 . S
C997 C1001 1.408 . S
C998 C996 1.363 . S
C998 C999 1.370 . S
C998 C1002 1.524 . S
C999 C991 1.503 . S
C999 C998 1.370 . S
C999 C1000 1.403 . S
C1000 C999 1.403 . S
C1000 C1001 1.404 . S
C1000 C1003 1.539 . S
C1001 C997 1.408 . S
C1001 C1000 1.404 . S
C1001 H1013 0.930 . S
C1002 C998 1.524 . S
C1002 H1014 0.956 . S
C1002 H1015 0.961 . S
C1002 H1016 0.961 . S
C1003 C1000 1.539 . S
C1003 H1017 0.958 . S
C1003 H1018 0.961 . S
C1003 H1019 0.960 . S
H1004 C988 0.931 . S
H1005 C993 0.929 . S
H1006 C994 0.960 . S
H1007 C994 0.962 . S
H1008 C994 0.960 . S
H1009 C995 0.961 . S
H1010 C995 0.961 . S
H1011 C995 0.961 . S
H1012 C996 0.931 . S
H1013 C1001 0.930 . S
H1014 C1002 0.956 . S
H1015 C1002 0.961 . S
H1016 C1002 0.961 . S
H1017 C1003 0.958 . S
H1018 C1003 0.961 . S
H1019 C1003 0.960 . S
C1020 C1021 1.391 . S
C1020 C1022 1.394 . S
C1020 H1036 0.931 . S
C1021 C1020 1.391 . S
C1021 C1025 1.376 . S
C1022 C1020 1.394 . S
C1022 C1023 1.369 . S
C1022 C1026 1.531 . S
C1023 C1022 1.369 . S
C1023 C1024 1.410 . S
C1023 C1031 1.503 . S
C1024 C1023 1.410 . S
C1024 C1025 1.392 . S
C1024 C1027 1.511 . S
C1025 C1021 1.376 . S
C1025 C1024 1.392 . S
C1025 H1037 0.929 . S
C1026 C1022 1.531 . S
C1026 H1038 0.960 . S
C1026 H1039 0.962 . S
C1026 H1040 0.960 . S
C1027 C1024 1.511 . S
C1027 H1041 0.961 . S
C1027 H1042 0.961 . S
C1027 H1043 0.961 . S
C1028 C1029 1.370 . S
C1028 C1030 1.363 . S
C1028 H1044 0.931 . S
C1029 C1028 1.370 . S
C1029 C1033 1.408 . S
C1030 C1028 1.363 . S
C1030 C1031 1.370 . S
C1030 C1034 1.524 . S
C1031 C1023 1.503 . S
C1031 C1030 1.370 . S
C1031 C1032 1.403 . S
C1032 C1031 1.403 . S
C1032 C1033 1.404 . S
C1032 C1035 1.539 . S
C1033 C1029 1.408 . S
C1033 C1032 1.404 . S
C1033 H1045 0.930 1_554 S
C1034 C1030 1.524 . S
C1034 H1046 0.956 . S
C1034 H1047 0.961 . S
C1034 H1048 0.961 . S
C1035 C1032 1.539 . S
C1035 H1049 0.958 1_554 S
C1035 H1050 0.961 . S
C1035 H1051 0.960 . S
H1036 C1020 0.931 . S
H1037 C1025 0.929 . S
H1038 C1026 0.960 . S
H1039 C1026 0.962 . S
H1040 C1026 0.960 . S
H1041 C1027 0.961 . S
H1042 C1027 0.961 . S
H1043 C1027 0.961 . S
H1044 C1028 0.931 . S
H1045 C1033 0.930 1_556 S
H1046 C1034 0.956 . S
H1047 C1034 0.961 . S
H1048 C1034 0.961 . S
H1049 C1035 0.958 1_556 S
H1050 C1035 0.961 . S
H1051 C1035 0.960 . S
C1052 C1053 1.391 . S
C1052 C1054 1.394 . S
C1052 H1068 0.931 . S
C1053 C1052 1.391 . S
C1053 C1057 1.376 . S
C1054 C1052 1.394 . S
C1054 C1055 1.369 . S
C1054 C1058 1.531 . S
C1055 C1054 1.369 . S
C1055 C1056 1.410 . S
C1055 C1063 1.503 . S
C1056 C1055 1.410 . S
C1056 C1057 1.392 . S
C1056 C1059 1.511 . S
C1057 C1053 1.376 . S
C1057 C1056 1.392 . S
C1057 H1069 0.929 . S
C1058 C1054 1.531 . S
C1058 H1070 0.960 . S
C1058 H1071 0.955 1_554 S
C1058 H1072 0.960 . S
C1059 C1056 1.511 . S
C1059 H1073 0.961 . S
C1059 H1074 0.961 . S
C1059 H1075 0.961 . S
C1060 C1061 1.370 . S
C1060 C1062 1.363 . S
C1060 H1076 0.931 . S
C1061 C1060 1.370 . S
C1061 C1065 1.408 . S
C1062 C1060 1.363 . S
C1062 C1063 1.370 . S
C1062 C1066 1.524 . S
C1063 C1055 1.503 . S
C1063 C1062 1.370 . S
C1063 C1064 1.403 . S
C1064 C1063 1.403 . S
C1064 C1065 1.404 . S
C1064 C1067 1.539 . S
C1065 C1061 1.408 . S
C1065 C1064 1.404 . S
C1065 H1077 0.930 . S
C1066 C1062 1.524 . S
C1066 H1078 0.956 . S
C1066 H1079 0.961 . S
C1066 H1080 0.961 . S
C1067 C1064 1.539 . S
C1067 H1081 0.958 . S
C1067 H1082 0.961 . S
C1067 H1083 0.960 . S
H1068 C1052 0.931 . S
H1069 C1057 0.929 . S
H1070 C1058 0.960 . S
H1071 C1058 0.955 1_556 S
H1072 C1058 0.960 . S
H1073 C1059 0.961 . S
H1074 C1059 0.961 . S
H1075 C1059 0.961 . S
H1076 C1060 0.931 . S
H1077 C1065 0.930 . S
H1078 C1066 0.956 . S
H1079 C1066 0.961 . S
H1080 C1066 0.961 . S
H1081 C1067 0.958 . S
H1082 C1067 0.961 . S
H1083 C1067 0.960 . S
C1084 C1085 1.391 . S
C1084 C1086 1.394 . S
C1084 H1100 0.931 . S
C1085 C1084 1.391 . S
C1085 C1089 1.376 . S
C1086 C1084 1.394 . S
C1086 C1087 1.369 . S
C1086 C1090 1.531 . S
C1087 C1086 1.369 . S
C1087 C1088 1.410 . S
C1087 C1095 1.503 . S
C1088 C1087 1.410 . S
C1088 C1089 1.392 . S
C1088 C1091 1.511 . S
C1089 C1085 1.376 . S
C1089 C1088 1.392 . S
C1089 H1101 0.929 . S
C1090 C1086 1.531 . S
C1090 H1102 0.960 . S
C1090 H1103 0.962 . S
C1090 H1104 0.960 . S
C1091 C1088 1.511 . S
C1091 H1105 0.961 . S
C1091 H1106 0.961 . S
C1091 H1107 0.961 . S
C1092 C1093 1.370 . S
C1092 C1094 1.363 . S
C1092 H1108 0.931 . S
C1093 C1092 1.370 . S
C1093 C1097 1.408 . S
C1094 C1092 1.363 . S
C1094 C1095 1.370 . S
C1094 C1098 1.524 . S
C1095 C1087 1.503 . S
C1095 C1094 1.370 . S
C1095 C1096 1.403 . S
C1096 C1095 1.403 . S
C1096 C1097 1.404 . S
C1096 C1099 1.539 1_554 S
C1097 C1093 1.408 . S
C1097 C1096 1.404 . S
C1097 H1109 0.930 1_554 S
C1098 C1094 1.524 . S
C1098 H1110 0.956 . S
C1098 H1111 0.961 . S
C1098 H1112 0.961 . S
C1099 C1096 1.539 1_556 S
C1099 H1113 0.958 . S
C1099 H1114 0.961 . S
C1099 H1115 0.960 1_556 S
H1100 C1084 0.931 . S
H1101 C1089 0.929 . S
H1102 C1090 0.960 . S
H1103 C1090 0.962 . S
H1104 C1090 0.960 . S
H1105 C1091 0.961 . S
H1106 C1091 0.961 . S
H1107 C1091 0.961 . S
H1108 C1092 0.931 . S
H1109 C1097 0.930 1_556 S
H1110 C1098 0.956 . S
H1111 C1098 0.961 . S
H1112 C1098 0.961 . S
H1113 C1099 0.958 . S
H1114 C1099 0.961 . S
H1115 C1099 0.960 1_554 S
C1116 C1117 1.391 . S
C1116 C1118 1.394 . S
C1116 H1132 0.931 . S
C1117 C1116 1.391 . S
C1117 C1121 1.376 . S
C1118 C1116 1.394 . S
C1118 C1119 1.369 . S
C1118 C1122 1.531 . S
C1119 C1118 1.369 . S
C1119 C1120 1.410 . S
C1119 C1127 1.503 . S
C1120 C1119 1.410 . S
C1120 C1121 1.392 . S
C1120 C1123 1.511 . S
C1121 C1117 1.376 . S
C1121 C1120 1.392 . S
C1121 H1133 0.929 . S
C1122 C1118 1.531 . S
C1122 H1134 0.960 . S
C1122 H1135 0.962 . S
C1122 H1136 0.960 . S
C1123 C1120 1.511 . S
C1123 H1137 0.961 . S
C1123 H1138 0.961 . S
C1123 H1139 0.961 . S
C1124 C1125 1.370 . S
C1124 C1126 1.363 . S
C1124 H1140 0.931 . S
C1125 C1124 1.370 . S
C1125 C1129 1.408 . S
C1126 C1124 1.363 . S
C1126 C1127 1.370 . S
C1126 C1130 1.524 . S
C1127 C1119 1.503 . S
C1127 C1126 1.370 . S
C1127 C1128 1.403 . S
C1128 C1127 1.403 . S
C1128 C1129 1.404 . S
C1128 C1131 1.539 . S
C1129 C1125 1.408 . S
C1129 C1128 1.404 . S
C1129 H1141 0.930 . S
C1130 C1126 1.524 . S
C1130 H1142 0.956 . S
C1130 H1143 0.961 . S
C1130 H1144 0.961 . S
C1131 C1128 1.539 . S
C1131 H1145 0.958 . S
C1131 H1146 0.961 . S
C1131 H1147 0.960 . S
H1132 C1116 0.931 . S
H1133 C1121 0.929 . S
H1134 C1122 0.960 . S
H1135 C1122 0.962 . S
H1136 C1122 0.960 . S
H1137 C1123 0.961 . S
H1138 C1123 0.961 . S
H1139 C1123 0.961 . S
H1140 C1124 0.931 . S
H1141 C1129 0.930 . S
H1142 C1130 0.956 . S
H1143 C1130 0.961 . S
H1144 C1130 0.961 . S
H1145 C1131 0.958 . S
H1146 C1131 0.961 . S
H1147 C1131 0.960 . S
C1148 C1149 1.391 . S
C1148 C1150 1.394 . S
C1148 H1164 0.931 . S
C1149 C1148 1.391 . S
C1149 C1153 1.376 . S
C1150 C1148 1.394 . S
C1150 C1151 1.369 . S
C1150 C1154 1.531 . S
C1151 C1150 1.369 . S
C1151 C1152 1.410 . S
C1151 C1159 1.503 . S
C1152 C1151 1.410 . S
C1152 C1153 1.392 . S
C1152 C1155 1.511 . S
C1153 C1149 1.376 . S
C1153 C1152 1.392 . S
C1153 H1165 0.929 . S
C1154 C1150 1.531 . S
C1154 H1166 0.960 . S
C1154 H1167 0.962 . S
C1154 H1168 0.960 . S
C1155 C1152 1.511 . S
C1155 H1169 0.961 . S
C1155 H1170 0.961 . S
C1155 H1171 0.961 . S
C1156 C1157 1.370 . S
C1156 C1158 1.363 . S
C1156 H1172 0.931 . S
C1157 C1156 1.370 . S
C1157 C1161 1.408 . S
C1158 C1156 1.363 . S
C1158 C1159 1.370 . S
C1158 C1162 1.524 . S
C1159 C1151 1.503 . S
C1159 C1158 1.370 . S
C1159 C1160 1.403 . S
C1160 C1159 1.403 . S
C1160 C1161 1.404 . S
C1160 C1163 1.539 . S
C1161 C1157 1.408 . S
C1161 C1160 1.404 . S
C1161 H1173 0.930 . S
C1162 C1158 1.524 . S
C1162 H1174 0.956 . S
C1162 H1175 0.961 . S
C1162 H1176 0.961 . S
C1163 C1160 1.539 . S
C1163 H1177 0.958 . S
C1163 H1178 0.961 . S
C1163 H1179 0.960 . S
H1164 C1148 0.931 . S
H1165 C1153 0.929 . S
H1166 C1154 0.960 . S
H1167 C1154 0.962 . S
H1168 C1154 0.960 . S
H1169 C1155 0.961 . S
H1170 C1155 0.961 . S
H1171 C1155 0.961 . S
H1172 C1156 0.931 . S
H1173 C1161 0.930 . S
H1174 C1162 0.956 . S
H1175 C1162 0.961 . S
H1176 C1162 0.961 . S
H1177 C1163 0.958 . S
H1178 C1163 0.961 . S
H1179 C1163 0.960 . S
C1180 C1181 1.391 . S
C1180 C1182 1.394 . S
C1180 H1196 0.931 . S
C1181 C1180 1.391 . S
C1181 C1185 1.376 . S
C1182 C1180 1.394 . S
C1182 C1183 1.369 . S
C1182 C1186 1.531 . S
C1183 C1182 1.369 . S
C1183 C1184 1.410 . S
C1183 C1191 1.503 . S
C1184 C1183 1.410 . S
C1184 C1185 1.392 . S
C1184 C1187 1.511 . S
C1185 C1181 1.376 . S
C1185 C1184 1.392 . S
C1185 H1197 0.929 . S
C1186 C1182 1.531 . S
C1186 H1198 0.960 . S
C1186 H1199 0.962 . S
C1186 H1200 0.960 . S
C1187 C1184 1.511 . S
C1187 H1201 0.961 . S
C1187 H1202 0.961 . S
C1187 H1203 0.961 . S
C1188 C1189 1.370 . S
C1188 C1190 1.363 . S
C1188 H1204 0.931 . S
C1189 C1188 1.370 . S
C1189 C1193 1.408 . S
C1190 C1188 1.363 . S
C1190 C1191 1.370 . S
C1190 C1194 1.524 . S
C1191 C1183 1.503 . S
C1191 C1190 1.370 . S
C1191 C1192 1.403 . S
C1192 C1191 1.403 . S
C1192 C1193 1.404 . S
C1192 C1195 1.539 . S
C1193 C1189 1.408 . S
C1193 C1192 1.404 . S
C1193 H1205 0.930 . S
C1194 C1190 1.524 . S
C1194 H1206 0.956 . S
C1194 H1207 0.961 . S
C1194 H1208 0.961 . S
C1195 C1192 1.539 . S
C1195 H1209 0.958 . S
C1195 H1210 0.961 . S
C1195 H1211 0.960 . S
H1196 C1180 0.931 . S
H1197 C1185 0.929 . S
H1198 C1186 0.960 . S
H1199 C1186 0.962 . S
H1200 C1186 0.960 . S
H1201 C1187 0.961 . S
H1202 C1187 0.961 . S
H1203 C1187 0.961 . S
H1204 C1188 0.931 . S
H1205 C1193 0.930 . S
H1206 C1194 0.956 . S
H1207 C1194 0.961 . S
H1208 C1194 0.961 . S
H1209 C1195 0.958 . S
H1210 C1195 0.961 . S
H1211 C1195 0.960 . S
C1212 C1213 1.391 . S
C1212 C1214 1.394 . S
C1212 H1228 0.931 . S
C1213 C1212 1.391 . S
C1213 C1217 1.376 . S
C1214 C1212 1.394 . S
C1214 C1215 1.369 . S
C1214 C1218 1.531 . S
C1215 C1214 1.369 . S
C1215 C1216 1.410 . S
C1215 C1223 1.503 . S
C1216 C1215 1.410 . S
C1216 C1217 1.392 . S
C1216 C1219 1.511 . S
C1217 C1213 1.376 . S
C1217 C1216 1.392 . S
C1217 H1229 0.929 . S
C1218 C1214 1.531 . S
C1218 H1230 0.960 . S
C1218 H1231 0.962 . S
C1218 H1232 0.960 . S
C1219 C1216 1.511 . S
C1219 H1233 0.961 . S
C1219 H1234 0.961 . S
C1219 H1235 0.961 . S
C1220 C1221 1.370 . S
C1220 C1222 1.363 . S
C1220 H1236 0.931 . S
C1221 C1220 1.370 . S
C1221 C1225 1.408 . S
C1222 C1220 1.363 . S
C1222 C1223 1.370 . S
C1222 C1226 1.524 . S
C1223 C1215 1.503 . S
C1223 C1222 1.370 . S
C1223 C1224 1.403 . S
C1224 C1223 1.403 . S
C1224 C1225 1.404 . S
C1224 C1227 1.539 . S
C1225 C1221 1.408 . S
C1225 C1224 1.404 . S
C1225 H1237 0.930 . S
C1226 C1222 1.524 . S
C1226 H1238 0.956 . S
C1226 H1239 0.961 . S
C1226 H1240 0.961 . S
C1227 C1224 1.539 . S
C1227 H1241 0.958 . S
C1227 H1242 0.961 . S
C1227 H1243 0.960 . S
H1228 C1212 0.931 . S
H1229 C1217 0.929 . S
H1230 C1218 0.960 . S
H1231 C1218 0.962 . S
H1232 C1218 0.960 . S
H1233 C1219 0.961 . S
H1234 C1219 0.961 . S
H1235 C1219 0.961 . S
H1236 C1220 0.931 . S
H1237 C1225 0.930 . S
H1238 C1226 0.956 . S
H1239 C1226 0.961 . S
H1240 C1226 0.961 . S
H1241 C1227 0.958 . S
H1242 C1227 0.961 . S
H1243 C1227 0.960 . S
C1244 C1245 1.391 . S
C1244 C1246 1.394 . S
C1244 H1260 0.931 . S
C1245 C1244 1.391 . S
C1245 C1249 1.376 . S
C1246 C1244 1.394 . S
C1246 C1247 1.369 . S
C1246 C1250 1.531 1_545 S
C1247 C1246 1.369 . S
C1247 C1248 1.410 . S
C1247 C1255 1.503 1_545 S
C1248 C1247 1.410 . S
C1248 C1249 1.392 . S
C1248 C1251 1.511 . S
C1249 C1245 1.376 . S
C1249 C1248 1.392 . S
C1249 H1261 0.929 . S
C1250 C1246 1.531 1_565 S
C1250 H1262 0.960 . S
C1250 H1263 0.962 . S
C1250 H1264 0.960 . S
C1251 C1248 1.511 . S
C1251 H1265 0.961 . S
C1251 H1266 0.961 . S
C1251 H1267 0.961 . S
C1252 C1253 1.370 . S
C1252 C1254 1.363 . S
C1252 H1268 0.931 . S
C1253 C1252 1.370 . S
C1253 C1257 1.408 . S
C1254 C1252 1.363 . S
C1254 C1255 1.370 . S
C1254 C1258 1.549 . S
C1255 C1247 1.503 1_565 S
C1255 C1254 1.370 . S
C1255 C1256 1.403 . S
C1256 C1255 1.403 . S
C1256 C1257 1.404 . S
C1256 C1259 1.539 . S
C1257 C1253 1.408 . S
C1257 C1256 1.404 . S
C1257 H1269 0.930 . S
C1258 C1254 1.549 . S
C1258 H1270 0.945 1_565 S
C1258 H1271 0.947 1_565 S
C1258 H1272 0.961 . S
C1259 C1256 1.539 . S
C1259 H1273 0.958 . S
C1259 H1274 0.961 . S
C1259 H1275 0.960 . S
H1260 C1244 0.931 . S
H1261 C1249 0.929 . S
H1262 C1250 0.960 . S
H1263 C1250 0.962 . S
H1264 C1250 0.960 . S
H1265 C1251 0.961 . S
H1266 C1251 0.961 . S
H1267 C1251 0.961 . S
H1268 C1252 0.931 . S
H1269 C1257 0.930 . S
H1270 C1258 0.945 1_545 S
H1271 C1258 0.947 1_545 S
H1272 C1258 0.961 . S
H1273 C1259 0.958 . S
H1274 C1259 0.961 . S
H1275 C1259 0.960 . S
C1276 C1277 1.391 . S
C1276 C1278 1.394 . S
C1276 H1292 0.931 . S
C1277 C1276 1.391 . S
C1277 C1281 1.376 . S
C1278 C1276 1.394 . S
C1278 C1279 1.369 . S
C1278 C1282 1.531 . S
C1279 C1278 1.369 . S
C1279 C1280 1.410 . S
C1279 C1287 1.503 1_455 S
C1280 C1279 1.410 . S
C1280 C1281 1.392 . S
C1280 C1283 1.512 1_455 S
C1281 C1277 1.376 . S
C1281 C1280 1.392 . S
C1281 H1293 0.929 . S
C1282 C1278 1.531 . S
C1282 H1294 0.960 . S
C1282 H1295 0.962 . S
C1282 H1296 0.960 . S
C1283 C1280 1.512 1_655 S
C1283 H1297 0.961 1_655 S
C1283 H1298 0.960 . S
C1283 H1299 0.947 1_655 S
C1284 C1285 1.370 . S
C1284 C1286 1.363 . S
C1284 H1300 0.931 . S
C1285 C1284 1.370 . S
C1285 C1289 1.408 . S
C1286 C1284 1.363 . S
C1286 C1287 1.370 . S
C1286 C1290 1.524 . S
C1287 C1279 1.503 1_655 S
C1287 C1286 1.370 . S
C1287 C1288 1.403 . S
C1288 C1287 1.403 . S
C1288 C1289 1.404 . S
C1288 C1291 1.539 . S
C1289 C1285 1.408 . S
C1289 C1288 1.404 . S
C1289 H1301 0.930 . S
C1290 C1286 1.524 . S
C1290 H1302 0.956 . S
C1290 H1303 0.961 . S
C1290 H1304 0.961 . S
C1291 C1288 1.539 . S
C1291 H1305 0.958 1_655 S
C1291 H1306 0.961 . S
C1291 H1307 0.960 1_655 S
H1292 C1276 0.931 . S
H1293 C1281 0.929 . S
H1294 C1282 0.960 . S
H1295 C1282 0.962 . S
H1296 C1282 0.960 . S
H1297 C1283 0.961 1_455 S
H1298 C1283 0.960 . S
H1299 C1283 0.947 1_455 S
H1300 C1284 0.931 . S
H1301 C1289 0.930 . S
H1302 C1290 0.956 . S
H1303 C1290 0.961 . S
H1304 C1290 0.961 . S
H1305 C1291 0.958 1_455 S
H1306 C1291 0.961 . S
H1307 C1291 0.960 1_455 S
C1308 C1309 1.391 . S
C1308 C1310 1.394 . S
C1308 H1324 0.931 . S
C1309 C1308 1.391 . S
C1309 C1313 1.376 . S
C1310 C1308 1.394 . S
C1310 C1311 1.369 . S
C1310 C1314 1.531 . S
C1311 C1310 1.369 . S
C1311 C1312 1.410 . S
C1311 C1319 1.503 . S
C1312 C1311 1.410 . S
C1312 C1313 1.392 . S
C1312 C1315 1.511 . S
C1313 C1309 1.376 . S
C1313 C1312 1.392 . S
C1313 H1325 0.929 . S
C1314 C1310 1.531 . S
C1314 H1326 0.960 . S
C1314 H1327 0.962 . S
C1314 H1328 0.960 . S
C1315 C1312 1.511 . S
C1315 H1329 0.961 . S
C1315 H1330 0.961 . S
C1315 H1331 0.961 . S
C1316 C1317 1.370 . S
C1316 C1318 1.363 . S
C1316 H1332 0.931 . S
C1317 C1316 1.370 . S
C1317 C1321 1.408 . S
C1318 C1316 1.363 . S
C1318 C1319 1.370 . S
C1318 C1322 1.524 . S
C1319 C1311 1.503 . S
C1319 C1318 1.370 . S
C1319 C1320 1.403 . S
C1320 C1319 1.403 . S
C1320 C1321 1.404 . S
C1320 C1323 1.539 . S
C1321 C1317 1.408 . S
C1321 C1320 1.404 . S
C1321 H1333 0.930 . S
C1322 C1318 1.524 . S
C1322 H1334 0.956 . S
C1322 H1335 0.961 . S
C1322 H1336 0.961 . S
C1323 C1320 1.539 . S
C1323 H1337 0.958 . S
C1323 H1338 0.961 . S
C1323 H1339 0.960 . S
H1324 C1308 0.931 . S
H1325 C1313 0.929 . S
H1326 C1314 0.960 . S
H1327 C1314 0.962 . S
H1328 C1314 0.960 . S
H1329 C1315 0.961 . S
H1330 C1315 0.961 . S
H1331 C1315 0.961 . S
H1332 C1316 0.931 . S
H1333 C1321 0.930 . S
H1334 C1322 0.956 . S
H1335 C1322 0.961 . S
H1336 C1322 0.961 . S
H1337 C1323 0.958 . S
H1338 C1323 0.961 . S
H1339 C1323 0.960 . S
C1340 C1341 1.391 . S
C1340 C1342 1.394 . S
C1340 H1356 0.931 . S
C1341 C1340 1.391 . S
C1341 C1345 1.376 . S
C1342 C1340 1.394 . S
C1342 C1343 1.369 . S
C1342 C1346 1.531 . S
C1343 C1342 1.369 . S
C1343 C1344 1.410 . S
C1343 C1351 1.503 1_545 S
C1344 C1343 1.410 . S
C1344 C1345 1.392 . S
C1344 C1347 1.511 . S
C1345 C1341 1.376 . S
C1345 C1344 1.392 . S
C1345 H1357 0.929 . S
C1346 C1342 1.531 . S
C1346 H1358 0.960 . S
C1346 H1359 0.962 . S
C1346 H1360 0.960 . S
C1347 C1344 1.511 . S
C1347 H1361 0.961 . S
C1347 H1362 0.961 1_545 S
C1347 H1363 0.961 . S
C1348 C1349 1.370 . S
C1348 C1350 1.363 . S
C1348 H1364 0.931 . S
C1349 C1348 1.370 . S
C1349 C1353 1.408 . S
C1350 C1348 1.363 . S
C1350 C1351 1.370 . S
C1350 C1354 1.524 . S
C1351 C1343 1.503 1_565 S
C1351 C1350 1.370 . S
C1351 C1352 1.403 . S
C1352 C1351 1.403 . S
C1352 C1353 1.404 . S
C1352 C1355 1.539 1_565 S
C1353 C1349 1.408 . S
C1353 C1352 1.404 . S
C1353 H1365 0.930 . S
C1354 C1350 1.524 . S
C1354 H1366 0.956 . S
C1354 H1367 0.961 . S
C1354 H1368 0.961 . S
C1355 C1352 1.539 1_545 S
C1355 H1369 0.958 . S
C1355 H1370 0.961 1_545 S
C1355 H1371 0.960 . S
H1356 C1340 0.931 . S
H1357 C1345 0.929 . S
H1358 C1346 0.960 . S
H1359 C1346 0.962 . S
H1360 C1346 0.960 . S
H1361 C1347 0.961 . S
H1362 C1347 0.961 1_565 S
H1363 C1347 0.961 . S
H1364 C1348 0.931 . S
H1365 C1353 0.930 . S
H1366 C1354 0.956 . S
H1367 C1354 0.961 . S
H1368 C1354 0.961 . S
H1369 C1355 0.958 . S
H1370 C1355 0.961 1_565 S
H1371 C1355 0.960 . S
C1372 C1373 1.391 . S
C1372 C1374 1.394 . S
C1372 H1388 0.931 . S
C1373 C1372 1.391 . S
C1373 C1377 1.376 . S
C1374 C1372 1.394 . S
C1374 C1375 1.369 . S
C1374 C1378 1.531 . S
C1375 C1374 1.369 . S
C1375 C1376 1.410 . S
C1375 C1383 1.503 1_455 S
C1376 C1375 1.410 . S
C1376 C1377 1.392 . S
C1376 C1379 1.511 1_455 S
C1377 C1373 1.376 . S
C1377 C1376 1.392 . S
C1377 H1389 0.929 . S
C1378 C1374 1.531 . S
C1378 H1390 0.960 . S
C1378 H1391 0.962 . S
C1378 H1392 0.960 . S
C1379 C1376 1.511 1_655 S
C1379 H1393 0.962 1_655 S
C1379 H1394 0.961 . S
C1379 H1395 0.961 . S
C1380 C1381 1.370 . S
C1380 C1382 1.363 . S
C1380 H1396 0.931 . S
C1381 C1380 1.370 . S
C1381 C1385 1.408 . S
C1382 C1380 1.363 . S
C1382 C1383 1.370 . S
C1382 C1386 1.524 . S
C1383 C1375 1.503 1_655 S
C1383 C1382 1.370 . S
C1383 C1384 1.403 . S
C1384 C1383 1.403 . S
C1384 C1385 1.404 . S
C1384 C1387 1.539 . S
C1385 C1381 1.408 . S
C1385 C1384 1.404 . S
C1385 H1397 0.930 . S
C1386 C1382 1.524 . S
C1386 H1398 0.956 1_655 S
C1386 H1399 0.961 1_655 S
C1386 H1400 0.961 . S
C1387 C1384 1.539 . S
C1387 H1401 0.958 . S
C1387 H1402 0.961 . S
C1387 H1403 0.960 . S
H1388 C1372 0.931 . S
H1389 C1377 0.929 . S
H1390 C1378 0.960 . S
H1391 C1378 0.962 . S
H1392 C1378 0.960 . S
H1393 C1379 0.962 1_455 S
H1394 C1379 0.961 . S
H1395 C1379 0.961 . S
H1396 C1380 0.931 . S
H1397 C1385 0.930 . S
H1398 C1386 0.956 1_455 S
H1399 C1386 0.961 1_455 S
H1400 C1386 0.961 . S
H1401 C1387 0.958 . S
H1402 C1387 0.961 . S
H1403 C1387 0.960 . S
C253 C57 1.219 . S
C261 C1 1.217 . S
C285 C70 1.215 . S
C293 C14 1.218 . S
C317 C28 1.216 . S
C325 C43 1.218 . S
C349 C56 1.214 . S
C357 C0 1.219 . S
C381 C71 1.213 . S
C389 C15 1.220 . S
C413 C29 1.213 . S
C421 C42 1.220 . S
C445 C153 1.212 . S
C453 C84 1.220 . S
C477 C155 1.218 . S
C485 C110 1.218 . S
C509 C112 1.217 . S
C517 C139 1.218 . S
C541 C85 1.215 . S
C549 C152 1.219 . S
C573 C154 1.215 . S
C581 C111 1.219 . S
C605 C138 1.219 . S
C613 C113 1.218 . S
C637 C237 1.218 . S
C645 C168 1.218 . S
C669 C182 1.218 . S
C677 C238 1.218 . S
C701 C211 1.218 . S
C709 C209 1.217 . S
C733 C236 1.216 . S
C741 C169 1.218 . S
C765 C239 1.218 . S
C773 C183 1.217 . S
C797 C208 1.212 . S
C805 C210 1.220 . S
C829 C13 1.517 . S
C837 C127 1.524 . S
C861 C141 1.517 . S
C869 C26 1.526 . S
C893 C167 1.526 . S
C901 C40 1.523 . S
C925 C55 1.524 . S
C933 C180 1.523 . S
C957 C194 1.517 . S
C965 C69 1.527 . S
C989 C197 1.525 . S
C997 C82 1.523 . S
C1021 C222 1.518 . S
C1029 C12 1.528 . S
C1053 C224 1.522 . S
C1061 C27 1.524 . S
C1085 C251 1.516 . S
C1093 C41 1.527 . S
C1117 C54 1.520 . S
C1125 C97 1.525 . S
C1149 C68 1.521 . S
C1157 C99 1.525 . S
C1181 C125 1.524 . S
C1189 C83 1.524 . S
C1213 C223 1.517 . S
C1221 C96 1.526 . S
C1245 C225 1.523 . S
C1253 C98 1.524 . S
C1277 C124 1.518 . S
C1285 C250 1.526 . S
C1309 C181 1.525 . S
C1317 C126 1.523 . S
C1341 C195 1.517 . S
C1349 C140 1.527 . S
C1373 C166 1.523 . S
C1381 C196 1.524 . S
