# Generated by pormake.
# Topology hal, (4)-cn, num edge types: 1
# Building blocks:
#     Node 0, Type 0, BuildingBlock: AZAVOO_clean_sbu_0, # of connection points: 4
#     Node 1, Type 0, BuildingBlock: AZAVOO_clean_sbu_0, # of connection points: 4
#     Node 2, Type 0, BuildingBlock: AZAVOO_clean_sbu_0, # of connection points: 4
#     Node 3, Type 0, BuildingBlock: AZAVOO_clean_sbu_0, # of connection points: 4
#     Node 4, Type 0, BuildingBlock: AZAVOO_clean_sbu_0, # of connection points: 4
#     Node 5, Type 0, BuildingBlock: AZAVOO_clean_sbu_0, # of connection points: 4
#     Node 6, Type 0, BuildingBlock: AZAVOO_clean_sbu_0, # of connection points: 4
#     Node 7, Type 0, BuildingBlock: AZAVOO_clean_sbu_0, # of connection points: 4
#     Node 8, Type 0, BuildingBlock: AZAVOO_clean_sbu_0, # of connection points: 4
#     Node 9, Type 0, BuildingBlock: AZAVOO_clean_sbu_0, # of connection points: 4
#     Node 10, Type 0, BuildingBlock: AZAVOO_clean_sbu_0, # of connection points: 4
#     Node 11, Type 0, BuildingBlock: AZAVOO_clean_sbu_0, # of connection points: 4
#     Node 12, Type 0, BuildingBlock: AZAVOO_clean_sbu_0, # of connection points: 4
#     Node 13, Type 0, BuildingBlock: AZAVOO_clean_sbu_0, # of connection points: 4
#     Node 14, Type 0, BuildingBlock: AZAVOO_clean_sbu_0, # of connection points: 4
#     Node 15, Type 0, BuildingBlock: AZAVOO_clean_sbu_0, # of connection points: 4
#     Node 16, Type 0, BuildingBlock: AZAVOO_clean_sbu_0, # of connection points: 4
#     Node 17, Type 0, BuildingBlock: AZAVOO_clean_sbu_0, # of connection points: 4
#     Node 18, Type 0, BuildingBlock: AZAVOO_clean_sbu_0, # of connection points: 4
#     Node 19, Type 0, BuildingBlock: AZAVOO_clean_sbu_0, # of connection points: 4
#     Node 20, Type 0, BuildingBlock: AZAVOO_clean_sbu_0, # of connection points: 4
#     Node 21, Type 0, BuildingBlock: AZAVOO_clean_sbu_0, # of connection points: 4
#     Node 22, Type 0, BuildingBlock: AZAVOO_clean_sbu_0, # of connection points: 4
#     Node 23, Type 0, BuildingBlock: AZAVOO_clean_sbu_0, # of connection points: 4
#     Node 24, Type 0, BuildingBlock: AZAVOO_clean_sbu_0, # of connection points: 4
#     Node 25, Type 0, BuildingBlock: AZAVOO_clean_sbu_0, # of connection points: 4
#     Node 26, Type 0, BuildingBlock: AZAVOO_clean_sbu_0, # of connection points: 4
#     Node 27, Type 0, BuildingBlock: AZAVOO_clean_sbu_0, # of connection points: 4
#     Node 28, Type 0, BuildingBlock: AZAVOO_clean_sbu_0, # of connection points: 4
#     Node 29, Type 0, BuildingBlock: AZAVOO_clean_sbu_0, # of connection points: 4
#     Node 30, Type 0, BuildingBlock: AZAVOO_clean_sbu_0, # of connection points: 4
#     Node 31, Type 0, BuildingBlock: AZAVOO_clean_sbu_0, # of connection points: 4
#     Node 32, Type 0, BuildingBlock: AZAVOO_clean_sbu_0, # of connection points: 4
#     Node 33, Type 0, BuildingBlock: AZAVOO_clean_sbu_0, # of connection points: 4
#     Node 34, Type 0, BuildingBlock: AZAVOO_clean_sbu_0, # of connection points: 4
#     Node 35, Type 0, BuildingBlock: AZAVOO_clean_sbu_0, # of connection points: 4
#     Node 36, Type 0, BuildingBlock: AZAVOO_clean_sbu_0, # of connection points: 4
#     Node 37, Type 0, BuildingBlock: AZAVOO_clean_sbu_0, # of connection points: 4
#     Node 38, Type 0, BuildingBlock: AZAVOO_clean_sbu_0, # of connection points: 4
#     Node 39, Type 0, BuildingBlock: AZAVOO_clean_sbu_0, # of connection points: 4
#     Node 40, Type 0, BuildingBlock: AZAVOO_clean_sbu_0, # of connection points: 4
#     Node 41, Type 0, BuildingBlock: AZAVOO_clean_sbu_0, # of connection points: 4
#     Node 42, Type 0, BuildingBlock: AZAVOO_clean_sbu_0, # of connection points: 4
#     Node 43, Type 0, BuildingBlock: AZAVOO_clean_sbu_0, # of connection points: 4
#     Node 44, Type 0, BuildingBlock: AZAVOO_clean_sbu_0, # of connection points: 4
#     Node 45, Type 0, BuildingBlock: AZAVOO_clean_sbu_0, # of connection points: 4
#     Node 46, Type 0, BuildingBlock: AZAVOO_clean_sbu_0, # of connection points: 4
#     Node 47, Type 0, BuildingBlock: AZAVOO_clean_sbu_0, # of connection points: 4
#     Node 48, Type 0, BuildingBlock: AZAVOO_clean_sbu_0, # of connection points: 4
#     Node 49, Type 0, BuildingBlock: AZAVOO_clean_sbu_0, # of connection points: 4
#     Node 50, Type 0, BuildingBlock: AZAVOO_clean_sbu_0, # of connection points: 4
#     Node 51, Type 0, BuildingBlock: AZAVOO_clean_sbu_0, # of connection points: 4
#     Node 52, Type 0, BuildingBlock: AZAVOO_clean_sbu_0, # of connection points: 4
#     Node 53, Type 0, BuildingBlock: AZAVOO_clean_sbu_0, # of connection points: 4
#     Node 54, Type 0, BuildingBlock: AZAVOO_clean_sbu_0, # of connection points: 4
#     Node 55, Type 0, BuildingBlock: AZAVOO_clean_sbu_0, # of connection points: 4
#     Node 56, Type 0, BuildingBlock: AZAVOO_clean_sbu_0, # of connection points: 4
#     Node 57, Type 0, BuildingBlock: AZAVOO_clean_sbu_0, # of connection points: 4
#     Node 58, Type 0, BuildingBlock: AZAVOO_clean_sbu_0, # of connection points: 4
#     Node 59, Type 0, BuildingBlock: AZAVOO_clean_sbu_0, # of connection points: 4
#     Node 60, Type 0, BuildingBlock: AZAVOO_clean_sbu_0, # of connection points: 4
#     Node 61, Type 0, BuildingBlock: AZAVOO_clean_sbu_0, # of connection points: 4
#     Node 62, Type 0, BuildingBlock: AZAVOO_clean_sbu_0, # of connection points: 4
#     Node 63, Type 0, BuildingBlock: AZAVOO_clean_sbu_0, # of connection points: 4
#     Node 64, Type 0, BuildingBlock: AZAVOO_clean_sbu_0, # of connection points: 4
#     Node 65, Type 0, BuildingBlock: AZAVOO_clean_sbu_0, # of connection points: 4
#     Node 66, Type 0, BuildingBlock: AZAVOO_clean_sbu_0, # of connection points: 4
#     Node 67, Type 0, BuildingBlock: AZAVOO_clean_sbu_0, # of connection points: 4
#     Node 68, Type 0, BuildingBlock: AZAVOO_clean_sbu_0, # of connection points: 4
#     Node 69, Type 0, BuildingBlock: AZAVOO_clean_sbu_0, # of connection points: 4
#     Node 70, Type 0, BuildingBlock: AZAVOO_clean_sbu_0, # of connection points: 4
#     Node 71, Type 0, BuildingBlock: AZAVOO_clean_sbu_0, # of connection points: 4
#     Node 72, Type 0, BuildingBlock: AZAVOO_clean_sbu_0, # of connection points: 4
#     Node 73, Type 0, BuildingBlock: AZAVOO_clean_sbu_0, # of connection points: 4
#     Node 74, Type 0, BuildingBlock: AZAVOO_clean_sbu_0, # of connection points: 4
#     Node 75, Type 0, BuildingBlock: AZAVOO_clean_sbu_0, # of connection points: 4
#     Node 76, Type 0, BuildingBlock: AZAVOO_clean_sbu_0, # of connection points: 4
#     Node 77, Type 0, BuildingBlock: AZAVOO_clean_sbu_0, # of connection points: 4
#     Node 78, Type 0, BuildingBlock: AZAVOO_clean_sbu_0, # of connection points: 4
#     Node 79, Type 0, BuildingBlock: AZAVOO_clean_sbu_0, # of connection points: 4
#     Node 80, Type 0, BuildingBlock: AZAVOO_clean_sbu_0, # of connection points: 4
#     Node 81, Type 0, BuildingBlock: AZAVOO_clean_sbu_0, # of connection points: 4
#     Node 82, Type 0, BuildingBlock: AZAVOO_clean_sbu_0, # of connection points: 4
#     Node 83, Type 0, BuildingBlock: AZAVOO_clean_sbu_0, # of connection points: 4
#     Node 84, Type 0, BuildingBlock: AZAVOO_clean_sbu_0, # of connection points: 4
#     Node 85, Type 0, BuildingBlock: AZAVOO_clean_sbu_0, # of connection points: 4
#     Node 86, Type 0, BuildingBlock: AZAVOO_clean_sbu_0, # of connection points: 4
#     Node 87, Type 0, BuildingBlock: AZAVOO_clean_sbu_0, # of connection points: 4
#     Node 88, Type 0, BuildingBlock: AZAVOO_clean_sbu_0, # of connection points: 4
#     Node 89, Type 0, BuildingBlock: AZAVOO_clean_sbu_0, # of connection points: 4
#     Node 90, Type 0, BuildingBlock: AZAVOO_clean_sbu_0, # of connection points: 4
#     Node 91, Type 0, BuildingBlock: AZAVOO_clean_sbu_0, # of connection points: 4
#     Node 92, Type 0, BuildingBlock: AZAVOO_clean_sbu_0, # of connection points: 4
#     Node 93, Type 0, BuildingBlock: AZAVOO_clean_sbu_0, # of connection points: 4
#     Node 94, Type 0, BuildingBlock: AZAVOO_clean_sbu_0, # of connection points: 4
#     Node 95, Type 0, BuildingBlock: AZAVOO_clean_sbu_0, # of connection points: 4
#     Edge 96, Type (0, 0), BuildingBlock: CIFDUS_clean_linker_0, # of connection points: 2
#     Edge 97, Type (0, 0), BuildingBlock: CIFDUS_clean_linker_0, # of connection points: 2
#     Edge 98, Type (0, 0), BuildingBlock: CIFDUS_clean_linker_0, # of connection points: 2
#     Edge 99, Type (0, 0), BuildingBlock: CIFDUS_clean_linker_0, # of connection points: 2
#     Edge 100, Type (0, 0), BuildingBlock: CIFDUS_clean_linker_0, # of connection points: 2
#     Edge 101, Type (0, 0), BuildingBlock: CIFDUS_clean_linker_0, # of connection points: 2
#     Edge 102, Type (0, 0), BuildingBlock: CIFDUS_clean_linker_0, # of connection points: 2
#     Edge 103, Type (0, 0), BuildingBlock: CIFDUS_clean_linker_0, # of connection points: 2
#     Edge 104, Type (0, 0), BuildingBlock: CIFDUS_clean_linker_0, # of connection points: 2
#     Edge 105, Type (0, 0), BuildingBlock: CIFDUS_clean_linker_0, # of connection points: 2
#     Edge 106, Type (0, 0), BuildingBlock: CIFDUS_clean_linker_0, # of connection points: 2
#     Edge 107, Type (0, 0), BuildingBlock: CIFDUS_clean_linker_0, # of connection points: 2
#     Edge 108, Type (0, 0), BuildingBlock: CIFDUS_clean_linker_0, # of connection points: 2
#     Edge 109, Type (0, 0), BuildingBlock: CIFDUS_clean_linker_0, # of connection points: 2
#     Edge 110, Type (0, 0), BuildingBlock: CIFDUS_clean_linker_0, # of connection points: 2
#     Edge 111, Type (0, 0), BuildingBlock: CIFDUS_clean_linker_0, # of connection points: 2
#     Edge 112, Type (0, 0), BuildingBlock: CIFDUS_clean_linker_0, # of connection points: 2
#     Edge 113, Type (0, 0), BuildingBlock: CIFDUS_clean_linker_0, # of connection points: 2
#     Edge 114, Type (0, 0), BuildingBlock: CIFDUS_clean_linker_0, # of connection points: 2
#     Edge 115, Type (0, 0), BuildingBlock: CIFDUS_clean_linker_0, # of connection points: 2
#     Edge 116, Type (0, 0), BuildingBlock: CIFDUS_clean_linker_0, # of connection points: 2
#     Edge 117, Type (0, 0), BuildingBlock: CIFDUS_clean_linker_0, # of connection points: 2
#     Edge 118, Type (0, 0), BuildingBlock: CIFDUS_clean_linker_0, # of connection points: 2
#     Edge 119, Type (0, 0), BuildingBlock: CIFDUS_clean_linker_0, # of connection points: 2
#     Edge 120, Type (0, 0), BuildingBlock: CIFDUS_clean_linker_0, # of connection points: 2
#     Edge 121, Type (0, 0), BuildingBlock: CIFDUS_clean_linker_0, # of connection points: 2
#     Edge 122, Type (0, 0), BuildingBlock: CIFDUS_clean_linker_0, # of connection points: 2
#     Edge 123, Type (0, 0), BuildingBlock: CIFDUS_clean_linker_0, # of connection points: 2
#     Edge 124, Type (0, 0), BuildingBlock: CIFDUS_clean_linker_0, # of connection points: 2
#     Edge 125, Type (0, 0), BuildingBlock: CIFDUS_clean_linker_0, # of connection points: 2
#     Edge 126, Type (0, 0), BuildingBlock: CIFDUS_clean_linker_0, # of connection points: 2
#     Edge 127, Type (0, 0), BuildingBlock: CIFDUS_clean_linker_0, # of connection points: 2
#     Edge 128, Type (0, 0), BuildingBlock: CIFDUS_clean_linker_0, # of connection points: 2
#     Edge 129, Type (0, 0), BuildingBlock: CIFDUS_clean_linker_0, # of connection points: 2
#     Edge 130, Type (0, 0), BuildingBlock: CIFDUS_clean_linker_0, # of connection points: 2
#     Edge 131, Type (0, 0), BuildingBlock: CIFDUS_clean_linker_0, # of connection points: 2
#     Edge 132, Type (0, 0), BuildingBlock: CIFDUS_clean_linker_0, # of connection points: 2
#     Edge 133, Type (0, 0), BuildingBlock: CIFDUS_clean_linker_0, # of connection points: 2
#     Edge 134, Type (0, 0), BuildingBlock: CIFDUS_clean_linker_0, # of connection points: 2
#     Edge 135, Type (0, 0), BuildingBlock: CIFDUS_clean_linker_0, # of connection points: 2
#     Edge 136, Type (0, 0), BuildingBlock: CIFDUS_clean_linker_0, # of connection points: 2
#     Edge 137, Type (0, 0), BuildingBlock: CIFDUS_clean_linker_0, # of connection points: 2
#     Edge 138, Type (0, 0), BuildingBlock: CIFDUS_clean_linker_0, # of connection points: 2
#     Edge 139, Type (0, 0), BuildingBlock: CIFDUS_clean_linker_0, # of connection points: 2
#     Edge 140, Type (0, 0), BuildingBlock: CIFDUS_clean_linker_0, # of connection points: 2
#     Edge 141, Type (0, 0), BuildingBlock: CIFDUS_clean_linker_0, # of connection points: 2
#     Edge 142, Type (0, 0), BuildingBlock: CIFDUS_clean_linker_0, # of connection points: 2
#     Edge 143, Type (0, 0), BuildingBlock: CIFDUS_clean_linker_0, # of connection points: 2
#     Edge 144, Type (0, 0), BuildingBlock: CIFDUS_clean_linker_0, # of connection points: 2
#     Edge 145, Type (0, 0), BuildingBlock: CIFDUS_clean_linker_0, # of connection points: 2
#     Edge 146, Type (0, 0), BuildingBlock: CIFDUS_clean_linker_0, # of connection points: 2
#     Edge 147, Type (0, 0), BuildingBlock: CIFDUS_clean_linker_0, # of connection points: 2
#     Edge 148, Type (0, 0), BuildingBlock: CIFDUS_clean_linker_0, # of connection points: 2
#     Edge 149, Type (0, 0), BuildingBlock: CIFDUS_clean_linker_0, # of connection points: 2
#     Edge 150, Type (0, 0), BuildingBlock: CIFDUS_clean_linker_0, # of connection points: 2
#     Edge 151, Type (0, 0), BuildingBlock: CIFDUS_clean_linker_0, # of connection points: 2
#     Edge 152, Type (0, 0), BuildingBlock: CIFDUS_clean_linker_0, # of connection points: 2
#     Edge 153, Type (0, 0), BuildingBlock: CIFDUS_clean_linker_0, # of connection points: 2
#     Edge 154, Type (0, 0), BuildingBlock: CIFDUS_clean_linker_0, # of connection points: 2
#     Edge 155, Type (0, 0), BuildingBlock: CIFDUS_clean_linker_0, # of connection points: 2
#     Edge 156, Type (0, 0), BuildingBlock: CIFDUS_clean_linker_0, # of connection points: 2
#     Edge 157, Type (0, 0), BuildingBlock: CIFDUS_clean_linker_0, # of connection points: 2
#     Edge 158, Type (0, 0), BuildingBlock: CIFDUS_clean_linker_0, # of connection points: 2
#     Edge 159, Type (0, 0), BuildingBlock: CIFDUS_clean_linker_0, # of connection points: 2
#     Edge 160, Type (0, 0), BuildingBlock: CIFDUS_clean_linker_0, # of connection points: 2
#     Edge 161, Type (0, 0), BuildingBlock: CIFDUS_clean_linker_0, # of connection points: 2
#     Edge 162, Type (0, 0), BuildingBlock: CIFDUS_clean_linker_0, # of connection points: 2
#     Edge 163, Type (0, 0), BuildingBlock: CIFDUS_clean_linker_0, # of connection points: 2
#     Edge 164, Type (0, 0), BuildingBlock: CIFDUS_clean_linker_0, # of connection points: 2
#     Edge 165, Type (0, 0), BuildingBlock: CIFDUS_clean_linker_0, # of connection points: 2
#     Edge 166, Type (0, 0), BuildingBlock: CIFDUS_clean_linker_0, # of connection points: 2
#     Edge 167, Type (0, 0), BuildingBlock: CIFDUS_clean_linker_0, # of connection points: 2
#     Edge 168, Type (0, 0), BuildingBlock: CIFDUS_clean_linker_0, # of connection points: 2
#     Edge 169, Type (0, 0), BuildingBlock: CIFDUS_clean_linker_0, # of connection points: 2
#     Edge 170, Type (0, 0), BuildingBlock: CIFDUS_clean_linker_0, # of connection points: 2
#     Edge 171, Type (0, 0), BuildingBlock: CIFDUS_clean_linker_0, # of connection points: 2
#     Edge 172, Type (0, 0), BuildingBlock: CIFDUS_clean_linker_0, # of connection points: 2
#     Edge 173, Type (0, 0), BuildingBlock: CIFDUS_clean_linker_0, # of connection points: 2
#     Edge 174, Type (0, 0), BuildingBlock: CIFDUS_clean_linker_0, # of connection points: 2
#     Edge 175, Type (0, 0), BuildingBlock: CIFDUS_clean_linker_0, # of connection points: 2
#     Edge 176, Type (0, 0), BuildingBlock: CIFDUS_clean_linker_0, # of connection points: 2
#     Edge 177, Type (0, 0), BuildingBlock: CIFDUS_clean_linker_0, # of connection points: 2
#     Edge 178, Type (0, 0), BuildingBlock: CIFDUS_clean_linker_0, # of connection points: 2
#     Edge 179, Type (0, 0), BuildingBlock: CIFDUS_clean_linker_0, # of connection points: 2
#     Edge 180, Type (0, 0), BuildingBlock: CIFDUS_clean_linker_0, # of connection points: 2
#     Edge 181, Type (0, 0), BuildingBlock: CIFDUS_clean_linker_0, # of connection points: 2
#     Edge 182, Type (0, 0), BuildingBlock: CIFDUS_clean_linker_0, # of connection points: 2
#     Edge 183, Type (0, 0), BuildingBlock: CIFDUS_clean_linker_0, # of connection points: 2
#     Edge 184, Type (0, 0), BuildingBlock: CIFDUS_clean_linker_0, # of connection points: 2
#     Edge 185, Type (0, 0), BuildingBlock: CIFDUS_clean_linker_0, # of connection points: 2
#     Edge 186, Type (0, 0), BuildingBlock: CIFDUS_clean_linker_0, # of connection points: 2
#     Edge 187, Type (0, 0), BuildingBlock: CIFDUS_clean_linker_0, # of connection points: 2
#     Edge 188, Type (0, 0), BuildingBlock: CIFDUS_clean_linker_0, # of connection points: 2
#     Edge 189, Type (0, 0), BuildingBlock: CIFDUS_clean_linker_0, # of connection points: 2
#     Edge 190, Type (0, 0), BuildingBlock: CIFDUS_clean_linker_0, # of connection points: 2
#     Edge 191, Type (0, 0), BuildingBlock: CIFDUS_clean_linker_0, # of connection points: 2
#     Edge 192, Type (0, 0), BuildingBlock: CIFDUS_clean_linker_0, # of connection points: 2
#     Edge 193, Type (0, 0), BuildingBlock: CIFDUS_clean_linker_0, # of connection points: 2
#     Edge 194, Type (0, 0), BuildingBlock: CIFDUS_clean_linker_0, # of connection points: 2
#     Edge 195, Type (0, 0), BuildingBlock: CIFDUS_clean_linker_0, # of connection points: 2
#     Edge 196, Type (0, 0), BuildingBlock: CIFDUS_clean_linker_0, # of connection points: 2
#     Edge 197, Type (0, 0), BuildingBlock: CIFDUS_clean_linker_0, # of connection points: 2
#     Edge 198, Type (0, 0), BuildingBlock: CIFDUS_clean_linker_0, # of connection points: 2
#     Edge 199, Type (0, 0), BuildingBlock: CIFDUS_clean_linker_0, # of connection points: 2
#     Edge 200, Type (0, 0), BuildingBlock: CIFDUS_clean_linker_0, # of connection points: 2
#     Edge 201, Type (0, 0), BuildingBlock: CIFDUS_clean_linker_0, # of connection points: 2
#     Edge 202, Type (0, 0), BuildingBlock: CIFDUS_clean_linker_0, # of connection points: 2
#     Edge 203, Type (0, 0), BuildingBlock: CIFDUS_clean_linker_0, # of connection points: 2
#     Edge 204, Type (0, 0), BuildingBlock: CIFDUS_clean_linker_0, # of connection points: 2
#     Edge 205, Type (0, 0), BuildingBlock: CIFDUS_clean_linker_0, # of connection points: 2
#     Edge 206, Type (0, 0), BuildingBlock: CIFDUS_clean_linker_0, # of connection points: 2
#     Edge 207, Type (0, 0), BuildingBlock: CIFDUS_clean_linker_0, # of connection points: 2
#     Edge 208, Type (0, 0), BuildingBlock: CIFDUS_clean_linker_0, # of connection points: 2
#     Edge 209, Type (0, 0), BuildingBlock: CIFDUS_clean_linker_0, # of connection points: 2
#     Edge 210, Type (0, 0), BuildingBlock: CIFDUS_clean_linker_0, # of connection points: 2
#     Edge 211, Type (0, 0), BuildingBlock: CIFDUS_clean_linker_0, # of connection points: 2
#     Edge 212, Type (0, 0), BuildingBlock: CIFDUS_clean_linker_0, # of connection points: 2
#     Edge 213, Type (0, 0), BuildingBlock: CIFDUS_clean_linker_0, # of connection points: 2
#     Edge 214, Type (0, 0), BuildingBlock: CIFDUS_clean_linker_0, # of connection points: 2
#     Edge 215, Type (0, 0), BuildingBlock: CIFDUS_clean_linker_0, # of connection points: 2
#     Edge 216, Type (0, 0), BuildingBlock: CIFDUS_clean_linker_0, # of connection points: 2
#     Edge 217, Type (0, 0), BuildingBlock: CIFDUS_clean_linker_0, # of connection points: 2
#     Edge 218, Type (0, 0), BuildingBlock: CIFDUS_clean_linker_0, # of connection points: 2
#     Edge 219, Type (0, 0), BuildingBlock: CIFDUS_clean_linker_0, # of connection points: 2
#     Edge 220, Type (0, 0), BuildingBlock: CIFDUS_clean_linker_0, # of connection points: 2
#     Edge 221, Type (0, 0), BuildingBlock: CIFDUS_clean_linker_0, # of connection points: 2
#     Edge 222, Type (0, 0), BuildingBlock: CIFDUS_clean_linker_0, # of connection points: 2
#     Edge 223, Type (0, 0), BuildingBlock: CIFDUS_clean_linker_0, # of connection points: 2
#     Edge 224, Type (0, 0), BuildingBlock: CIFDUS_clean_linker_0, # of connection points: 2
#     Edge 225, Type (0, 0), BuildingBlock: CIFDUS_clean_linker_0, # of connection points: 2
#     Edge 226, Type (0, 0), BuildingBlock: CIFDUS_clean_linker_0, # of connection points: 2
#     Edge 227, Type (0, 0), BuildingBlock: CIFDUS_clean_linker_0, # of connection points: 2
#     Edge 228, Type (0, 0), BuildingBlock: CIFDUS_clean_linker_0, # of connection points: 2
#     Edge 229, Type (0, 0), BuildingBlock: CIFDUS_clean_linker_0, # of connection points: 2
#     Edge 230, Type (0, 0), BuildingBlock: CIFDUS_clean_linker_0, # of connection points: 2
#     Edge 231, Type (0, 0), BuildingBlock: CIFDUS_clean_linker_0, # of connection points: 2
#     Edge 232, Type (0, 0), BuildingBlock: CIFDUS_clean_linker_0, # of connection points: 2
#     Edge 233, Type (0, 0), BuildingBlock: CIFDUS_clean_linker_0, # of connection points: 2
#     Edge 234, Type (0, 0), BuildingBlock: CIFDUS_clean_linker_0, # of connection points: 2
#     Edge 235, Type (0, 0), BuildingBlock: CIFDUS_clean_linker_0, # of connection points: 2
#     Edge 236, Type (0, 0), BuildingBlock: CIFDUS_clean_linker_0, # of connection points: 2
#     Edge 237, Type (0, 0), BuildingBlock: CIFDUS_clean_linker_0, # of connection points: 2
#     Edge 238, Type (0, 0), BuildingBlock: CIFDUS_clean_linker_0, # of connection points: 2
#     Edge 239, Type (0, 0), BuildingBlock: CIFDUS_clean_linker_0, # of connection points: 2
#     Edge 240, Type (0, 0), BuildingBlock: CIFDUS_clean_linker_0, # of connection points: 2
#     Edge 241, Type (0, 0), BuildingBlock: CIFDUS_clean_linker_0, # of connection points: 2
#     Edge 242, Type (0, 0), BuildingBlock: CIFDUS_clean_linker_0, # of connection points: 2
#     Edge 243, Type (0, 0), BuildingBlock: CIFDUS_clean_linker_0, # of connection points: 2
#     Edge 244, Type (0, 0), BuildingBlock: CIFDUS_clean_linker_0, # of connection points: 2
#     Edge 245, Type (0, 0), BuildingBlock: CIFDUS_clean_linker_0, # of connection points: 2
#     Edge 246, Type (0, 0), BuildingBlock: CIFDUS_clean_linker_0, # of connection points: 2
#     Edge 247, Type (0, 0), BuildingBlock: CIFDUS_clean_linker_0, # of connection points: 2
#     Edge 248, Type (0, 0), BuildingBlock: CIFDUS_clean_linker_0, # of connection points: 2
#     Edge 249, Type (0, 0), BuildingBlock: CIFDUS_clean_linker_0, # of connection points: 2
#     Edge 250, Type (0, 0), BuildingBlock: CIFDUS_clean_linker_0, # of connection points: 2
#     Edge 251, Type (0, 0), BuildingBlock: CIFDUS_clean_linker_0, # of connection points: 2
#     Edge 252, Type (0, 0), BuildingBlock: CIFDUS_clean_linker_0, # of connection points: 2
#     Edge 253, Type (0, 0), BuildingBlock: CIFDUS_clean_linker_0, # of connection points: 2
#     Edge 254, Type (0, 0), BuildingBlock: CIFDUS_clean_linker_0, # of connection points: 2
#     Edge 255, Type (0, 0), BuildingBlock: CIFDUS_clean_linker_0, # of connection points: 2
#     Edge 256, Type (0, 0), BuildingBlock: CIFDUS_clean_linker_0, # of connection points: 2
#     Edge 257, Type (0, 0), BuildingBlock: CIFDUS_clean_linker_0, # of connection points: 2
#     Edge 258, Type (0, 0), BuildingBlock: CIFDUS_clean_linker_0, # of connection points: 2
#     Edge 259, Type (0, 0), BuildingBlock: CIFDUS_clean_linker_0, # of connection points: 2
#     Edge 260, Type (0, 0), BuildingBlock: CIFDUS_clean_linker_0, # of connection points: 2
#     Edge 261, Type (0, 0), BuildingBlock: CIFDUS_clean_linker_0, # of connection points: 2
#     Edge 262, Type (0, 0), BuildingBlock: CIFDUS_clean_linker_0, # of connection points: 2
#     Edge 263, Type (0, 0), BuildingBlock: CIFDUS_clean_linker_0, # of connection points: 2
#     Edge 264, Type (0, 0), BuildingBlock: CIFDUS_clean_linker_0, # of connection points: 2
#     Edge 265, Type (0, 0), BuildingBlock: CIFDUS_clean_linker_0, # of connection points: 2
#     Edge 266, Type (0, 0), BuildingBlock: CIFDUS_clean_linker_0, # of connection points: 2
#     Edge 267, Type (0, 0), BuildingBlock: CIFDUS_clean_linker_0, # of connection points: 2
#     Edge 268, Type (0, 0), BuildingBlock: CIFDUS_clean_linker_0, # of connection points: 2
#     Edge 269, Type (0, 0), BuildingBlock: CIFDUS_clean_linker_0, # of connection points: 2
#     Edge 270, Type (0, 0), BuildingBlock: CIFDUS_clean_linker_0, # of connection points: 2
#     Edge 271, Type (0, 0), BuildingBlock: CIFDUS_clean_linker_0, # of connection points: 2
#     Edge 272, Type (0, 0), BuildingBlock: CIFDUS_clean_linker_0, # of connection points: 2
#     Edge 273, Type (0, 0), BuildingBlock: CIFDUS_clean_linker_0, # of connection points: 2
#     Edge 274, Type (0, 0), BuildingBlock: CIFDUS_clean_linker_0, # of connection points: 2
#     Edge 275, Type (0, 0), BuildingBlock: CIFDUS_clean_linker_0, # of connection points: 2
#     Edge 276, Type (0, 0), BuildingBlock: CIFDUS_clean_linker_0, # of connection points: 2
#     Edge 277, Type (0, 0), BuildingBlock: CIFDUS_clean_linker_0, # of connection points: 2
#     Edge 278, Type (0, 0), BuildingBlock: CIFDUS_clean_linker_0, # of connection points: 2
#     Edge 279, Type (0, 0), BuildingBlock: CIFDUS_clean_linker_0, # of connection points: 2
#     Edge 280, Type (0, 0), BuildingBlock: CIFDUS_clean_linker_0, # of connection points: 2
#     Edge 281, Type (0, 0), BuildingBlock: CIFDUS_clean_linker_0, # of connection points: 2
#     Edge 282, Type (0, 0), BuildingBlock: CIFDUS_clean_linker_0, # of connection points: 2
#     Edge 283, Type (0, 0), BuildingBlock: CIFDUS_clean_linker_0, # of connection points: 2
#     Edge 284, Type (0, 0), BuildingBlock: CIFDUS_clean_linker_0, # of connection points: 2
#     Edge 285, Type (0, 0), BuildingBlock: CIFDUS_clean_linker_0, # of connection points: 2
#     Edge 286, Type (0, 0), BuildingBlock: CIFDUS_clean_linker_0, # of connection points: 2
#     Edge 287, Type (0, 0), BuildingBlock: CIFDUS_clean_linker_0, # of connection points: 2
# Relax obj value: 0.386
# Max RMSD: 0.326
# Mean RMSD: 0.301
data_MOF--net-hal--node1-AZAVOO_clean_sbu_0--edge1-CIFDUS_clean_linker_0
_symmetry_space_group_name_H-M    P1
_symmetry_Int_Tables_number       1
_symmetry_cell_setting            triclinic
loop_
_symmetry_equiv_pos_as_xyz
'x, y, z'
_cell_length_a     80.617222
_cell_length_b     74.380751
_cell_length_c     74.409285
_cell_angle_alpha  90.042252
_cell_angle_beta   90.031504
_cell_angle_gamma 89.967559
loop_
_atom_site_label
_atom_site_type_symbol
_atom_site_fract_x
_atom_site_fract_y
_atom_site_fract_z
_atom_type_partial_charge
Mg0 Mg 0.05875 0.14738 0.28157 0.0
O1 O 0.07668 0.15889 0.30297 0.0
O2 O 0.07197 0.18841 0.30607 0.0
Mg3 Mg 0.0501 0.19564 0.28827 0.0
C4 C 0.07998 0.17415 0.31002 0.0
C5 C 0.07566 0.10599 0.28913 0.0
O6 O 0.07212 0.08973 0.29485 0.0
O7 O 0.03789 0.14786 0.30239 0.0
O8 O 0.0341 0.17745 0.30593 0.0
O9 O 0.07634 0.15613 0.25935 0.0
O10 O 0.05639 0.17301 0.27058 0.0
C11 C 0.0308 0.16117 0.31003 0.0
C12 C 0.06892 0.17151 0.2601 0.0
O13 O 0.06412 0.11775 0.28933 0.0
Mg14 Mg 0.80817 0.06918 0.2991 0.0
O15 O 0.79603 0.08497 0.32175 0.0
O16 O 0.77131 0.07333 0.32827 0.0
Mg17 Mg 0.76783 0.04933 0.30938 0.0
C18 C 0.78265 0.08499 0.33085 0.0
C19 C 0.83759 0.0936 0.29182 0.0
O20 O 0.831 0.09149 0.27581 0.0
O21 O 0.81494 0.04611 0.31812 0.0
O22 O 0.78967 0.03459 0.32266 0.0
O23 O 0.79499 0.08649 0.27922 0.0
O24 O 0.78518 0.06068 0.28946 0.0
C25 C 0.80537 0.03436 0.32516 0.0
C26 C 0.78322 0.07468 0.27953 0.0
O27 O 0.8317 0.0847 0.3049 0.0
Mg28 Mg 0.93111 0.8387 0.28789 0.0
O29 O 0.91655 0.81922 0.30529 0.0
O30 O 0.92666 0.79154 0.30769 0.0
Mg31 Mg 0.95176 0.79498 0.29368 0.0
C32 C 0.91554 0.80321 0.31118 0.0
C33 C 0.89765 0.85501 0.29374 0.0
O34 O 0.89528 0.83866 0.28762 0.0
O35 O 0.94751 0.844 0.31231 0.0
O36 O 0.9581 0.81629 0.31494 0.0
O37 O 0.91988 0.82689 0.26312 0.0
O38 O 0.94293 0.81668 0.27567 0.0
C39 C 0.95628 0.83239 0.32064 0.0
C40 C 0.93168 0.81514 0.26348 0.0
O41 O 0.91243 0.86074 0.29541 0.0
Mg42 Mg 0.17273 0.9256 0.2834 0.0
O43 O 0.18582 0.91536 0.30815 0.0
O44 O 0.20898 0.9298 0.31536 0.0
Mg45 Mg 0.20919 0.95263 0.29452 0.0
C46 C 0.19842 0.91738 0.31818 0.0
C47 C 0.15383 0.89204 0.29761 0.0
O48 O 0.16896 0.88549 0.29697 0.0
O49 O 0.16187 0.94874 0.29945 0.0
O50 O 0.18477 0.96437 0.30603 0.0
O51 O 0.18931 0.9089 0.26606 0.0
O52 O 0.19495 0.93681 0.27425 0.0
C53 C 0.16906 0.96203 0.30697 0.0
C54 C 0.19941 0.92243 0.2659 0.0
O55 O 0.15107 0.90775 0.29152 0.0
Mg56 Mg 0.08308 0.79393 0.70653 0.0
O57 O 0.09463 0.7886 0.67896 0.0
O58 O 0.0872 0.76111 0.66981 0.0
Mg59 Mg 0.07084 0.74894 0.69163 0.0
C60 C 0.09479 0.77596 0.66733 0.0
C61 C 0.09615 0.83179 0.7166 0.0
O62 O 0.09965 0.82309 0.73149 0.0
O63 O 0.05821 0.79811 0.69302 0.0
O64 O 0.05092 0.77023 0.68503 0.0
O65 O 0.10492 0.7817 0.72074 0.0
O66 O 0.08282 0.76672 0.7114 0.0
C67 C 0.04801 0.78711 0.68588 0.0
C68 C 0.09735 0.76652 0.71856 0.0
O69 O 0.08903 0.82348 0.70384 0.0
Mg70 Mg 0.16595 0.11198 0.70975 0.0
O71 O 0.18411 0.11597 0.68739 0.0
O72 O 0.20903 0.1034 0.68991 0.0
Mg73 Mg 0.2048 0.08685 0.71561 0.0
C74 C 0.19853 0.11285 0.68128 0.0
C75 C 0.14933 0.13958 0.68277 0.0
O76 O 0.16435 0.14642 0.6826 0.0
O77 O 0.15996 0.08509 0.69657 0.0
O78 O 0.18479 0.07185 0.69958 0.0
O79 O 0.17819 0.13352 0.72647 0.0
O80 O 0.18525 0.10475 0.72652 0.0
C81 C 0.1699 0.07205 0.69363 0.0
C82 C 0.18765 0.12076 0.7324 0.0
O83 O 0.14626 0.12607 0.69273 0.0
Mg84 Mg 0.92587 0.16385 0.70401 0.0
O85 O 0.90233 0.16596 0.68666 0.0
O86 O 0.89859 0.19521 0.68096 0.0
Mg87 Mg 0.91814 0.21204 0.69536 0.0
C88 C 0.89431 0.17877 0.67917 0.0
C89 C 0.91952 0.12047 0.69603 0.0
O90 O 0.92466 0.1053 0.68892 0.0
O91 O 0.94152 0.17104 0.67957 0.0
O92 O 0.93804 0.20065 0.6762 0.0
O93 O 0.91182 0.1677 0.73054 0.0
O94 O 0.92154 0.18962 0.71399 0.0
C95 C 0.94485 0.18581 0.67161 0.0
C96 C 0.91349 0.18476 0.72794 0.0
O97 O 0.92931 0.13391 0.69628 0.0
Mg98 Mg 0.80909 0.91136 0.69673 0.0
O99 O 0.80463 0.89977 0.66865 0.0
O100 O 0.78096 0.91128 0.65834 0.0
Mg101 Mg 0.77013 0.92961 0.6802 0.0
C102 C 0.79368 0.90123 0.65638 0.0
C103 C 0.84341 0.89839 0.70939 0.0
O104 O 0.83676 0.90321 0.72478 0.0
O105 O 0.81645 0.9387 0.68533 0.0
O106 O 0.79183 0.94974 0.67705 0.0
O107 O 0.79483 0.88873 0.709 0.0
O108 O 0.78377 0.91476 0.70125 0.0
C109 C 0.80752 0.95141 0.67904 0.0
C110 C 0.7818 0.89885 0.70778 0.0
O111 O 0.83531 0.90099 0.695 0.0
Mg112 Mg 0.3353 0.0532 0.20776 0.0
O113 O 0.33375 0.08079 0.19337 0.0
O114 O 0.31481 0.07529 0.17184 0.0
Mg115 Mg 0.30783 0.04583 0.169 0.0
C116 C 0.32419 0.086 0.18063 0.0
C117 C 0.35568 0.07539 0.2399 0.0
O118 O 0.35899 0.07635 0.25716 0.0
O119 O 0.30904 0.05786 0.21778 0.0
O120 O 0.29265 0.05062 0.19457 0.0
O121 O 0.35677 0.04172 0.19139 0.0
O122 O 0.33051 0.04091 0.18387 0.0
C123 C 0.29471 0.05552 0.21088 0.0
C124 C 0.34542 0.03626 0.18034 0.0
O125 O 0.34547 0.0636 0.23446 0.0
Mg126 Mg 0.92777 0.28675 0.17961 0.0
O127 O 0.90627 0.30634 0.17382 0.0
O128 O 0.90434 0.32227 0.1994 0.0
Mg129 Mg 0.92024 0.31065 0.22187 0.0
C130 C 0.90019 0.31922 0.18312 0.0
C131 C 0.92774 0.28199 0.13464 0.0
O132 O 0.93582 0.27524 0.12087 0.0
O133 O 0.94562 0.31038 0.17964 0.0
O134 O 0.94309 0.32202 0.20719 0.0
O135 O 0.91103 0.26437 0.18877 0.0
O136 O 0.92079 0.28568 0.20632 0.0
C137 C 0.95019 0.32141 0.19184 0.0
C138 C 0.91206 0.27132 0.2047 0.0
O139 O 0.93418 0.2807 0.15018 0.0
Mg140 Mg 0.65578 0.93914 0.17956 0.0
O141 O 0.67296 0.92074 0.16377 0.0
O142 O 0.694 0.93581 0.1513 0.0
Mg143 Mg 0.69044 0.96492 0.16067 0.0
C144 C 0.68623 0.9212 0.15443 0.0
C145 C 0.63586 0.90291 0.18168 0.0
O146 O 0.63609 0.90454 0.1641 0.0
O147 O 0.675 0.93915 0.20221 0.0
O148 O 0.69552 0.95477 0.18925 0.0
O149 O 0.64098 0.94673 0.15478 0.0
O150 O 0.66376 0.96028 0.16431 0.0
C151 C 0.68951 0.94603 0.20253 0.0
C152 C 0.65228 0.95885 0.15242 0.0
O153 O 0.6428 0.91483 0.19135 0.0
Mg154 Mg 0.08325 0.71761 0.19766 0.0
O155 O 0.10196 0.69456 0.19626 0.0
O156 O 0.09673 0.67563 0.21885 0.0
Mg157 Mg 0.07475 0.68666 0.23477 0.0
C158 C 0.10513 0.68026 0.20507 0.0
C159 C 0.08111 0.72697 0.15609 0.0
O160 O 0.06506 0.72515 0.15853 0.0
O161 O 0.06335 0.69889 0.18686 0.0
O162 O 0.05744 0.68155 0.21049 0.0
O163 O 0.09947 0.73345 0.21626 0.0
O164 O 0.08054 0.7139 0.22511 0.0
C165 C 0.05488 0.68643 0.19423 0.0
C166 C 0.09217 0.72498 0.22925 0.0
O167 O 0.09089 0.72548 0.16942 0.0
Mg168 Mg 0.32774 0.93931 0.79583 0.0
O169 O 0.31248 0.92472 0.81721 0.0
O170 O 0.29151 0.94175 0.82713 0.0
Mg171 Mg 0.2927 0.96753 0.8106 0.0
C172 C 0.2998 0.92713 0.82722 0.0
C173 C 0.34863 0.90446 0.80228 0.0
O174 O 0.34488 0.90872 0.81893 0.0
O175 O 0.30725 0.93241 0.77564 0.0
O176 O 0.28682 0.95005 0.78607 0.0
O177 O 0.34332 0.95411 0.81643 0.0
O178 O 0.31918 0.96334 0.80579 0.0
C179 C 0.29238 0.93835 0.77501 0.0
C180 C 0.33141 0.96577 0.81654 0.0
O181 O 0.34264 0.91388 0.78956 0.0
Mg182 Mg 0.06416 0.26709 0.82515 0.0
O183 O 0.08469 0.28819 0.82999 0.0
O184 O 0.0789 0.3101 0.81026 0.0
Mg185 Mg 0.05774 0.3027 0.79165 0.0
C186 C 0.08753 0.30367 0.82313 0.0
C187 C 0.07799 0.25248 0.86468 0.0
O188 O 0.07651 0.24054 0.87758 0.0
O189 O 0.04456 0.28553 0.83761 0.0
O190 O 0.0398 0.30492 0.81531 0.0
O191 O 0.08019 0.25235 0.80518 0.0
O192 O 0.06352 0.27494 0.7986 0.0
C193 C 0.0365 0.29872 0.8309 0.0
C194 C 0.07456 0.26362 0.79343 0.0
O195 O 0.06767 0.25217 0.85178 0.0
Mg196 Mg 0.67351 0.04624 0.82647 0.0
O197 O 0.67992 0.06925 0.84562 0.0
O198 O 0.70602 0.06622 0.85498 0.0
Mg199 Mg 0.71587 0.0403 0.84224 0.0
C200 C 0.69234 0.07483 0.85466 0.0
C201 C 0.64044 0.0675 0.82865 0.0
O202 O 0.64272 0.06445 0.84587 0.0
O203 O 0.68916 0.05901 0.80456 0.0
O204 O 0.71502 0.05428 0.81447 0.0
O205 O 0.66478 0.02868 0.84869 0.0
O206 O 0.69052 0.02932 0.83855 0.0
C207 C 0.70485 0.06029 0.80271 0.0
C208 C 0.67975 0.02234 0.84928 0.0
O209 O 0.65089 0.06152 0.81738 0.0
Mg210 Mg 0.93571 0.7056 0.84946 0.0
O211 O 0.91082 0.68906 0.85044 0.0
O212 O 0.90575 0.67886 0.82243 0.0
Mg213 Mg 0.93108 0.67647 0.80996 0.0
C214 C 0.90126 0.68185 0.83863 0.0
C215 C 0.92542 0.71189 0.89155 0.0
O216 O 0.92878 0.71852 0.90749 0.0
O217 O 0.95117 0.68109 0.85747 0.0
O218 O 0.93697 0.66652 0.8379 0.0
O219 O 0.92308 0.72719 0.83388 0.0
O220 O 0.9351 0.70384 0.8209 0.0
C221 C 0.95105 0.67018 0.84439 0.0
C222 C 0.92634 0.71825 0.81936 0.0
O223 O 0.93531 0.71492 0.87867 0.0
Mg224 Mg 0.17389 0.29079 0.0861 0.0
O225 O 0.18941 0.3107 0.10172 0.0
O226 O 0.21613 0.31177 0.09424 0.0
Mg227 Mg 0.21756 0.29138 0.07131 0.0
C228 C 0.20391 0.31715 0.1037 0.0
C229 C 0.15202 0.30395 0.11646 0.0
O230 O 0.16571 0.29845 0.12427 0.0
O231 O 0.17376 0.31135 0.06332 0.0
O232 O 0.20059 0.31058 0.05553 0.0
O233 O 0.18055 0.26831 0.10453 0.0
O234 O 0.19559 0.27657 0.08103 0.0
C235 C 0.18589 0.31685 0.05373 0.0
C236 C 0.19392 0.26667 0.09509 0.0
O237 O 0.15074 0.30252 0.09945 0.0
Mg238 Mg 0.18093 0.68497 0.88922 0.0
O239 O 0.19489 0.66117 0.87836 0.0
O240 O 0.2216 0.66016 0.88608 0.0
Mg241 Mg 0.22419 0.68479 0.90452 0.0
C242 C 0.20902 0.65358 0.87806 0.0
C243 C 0.14381 0.68149 0.87843 0.0
O244 O 0.14378 0.69719 0.88654 0.0
O245 O 0.17952 0.67013 0.91599 0.0
O246 O 0.20622 0.67106 0.92428 0.0
O247 O 0.18952 0.70271 0.8667 0.0
O248 O 0.2029 0.69922 0.89247 0.0
C249 C 0.19115 0.66643 0.9271 0.0
C250 C 0.20208 0.70651 0.87684 0.0
O251 O 0.15712 0.67236 0.87837 0.0
Mg252 Mg 0.31821 0.18509 0.95702 0.0
O253 O 0.30434 0.16523 0.93901 0.0
O254 O 0.28134 0.15572 0.95279 0.0
Mg255 Mg 0.28038 0.17017 0.97984 0.0
C256 C 0.29111 0.15579 0.9393 0.0
C257 C 0.34882 0.19961 0.93531 0.0
O258 O 0.35449 0.20289 0.95154 0.0
O259 O 0.29909 0.20656 0.94994 0.0
O260 O 0.27648 0.19659 0.96429 0.0
O261 O 0.33202 0.16283 0.97085 0.0
O262 O 0.30753 0.17335 0.9792 0.0
C263 C 0.28382 0.20803 0.95426 0.0
C264 C 0.31933 0.1619 0.98146 0.0
O265 O 0.33446 0.19284 0.93344 0.0
Mg266 Mg 0.80113 0.30379 0.91638 0.0
O267 O 0.79431 0.32104 0.89198 0.0
O268 O 0.76797 0.32966 0.89514 0.0
Mg269 Mg 0.75725 0.31537 0.91983 0.0
C270 C 0.78173 0.32997 0.88664 0.0
C271 C 0.83682 0.29336 0.90742 0.0
O272 O 0.83045 0.27789 0.91239 0.0
O273 O 0.80075 0.32868 0.93414 0.0
O274 O 0.77359 0.33313 0.93823 0.0
O275 O 0.79423 0.27832 0.90248 0.0
O276 O 0.77685 0.2947 0.91865 0.0
C277 C 0.78874 0.33702 0.94163 0.0
C278 C 0.77942 0.2808 0.90869 0.0
O279 O 0.82811 0.30749 0.9091 0.0
Mg280 Mg 0.67819 0.81346 0.93301 0.0
O281 O 0.69343 0.83166 0.91474 0.0
O282 O 0.71561 0.84241 0.92927 0.0
Mg283 Mg 0.71432 0.83061 0.95766 0.0
C284 C 0.70675 0.84092 0.91513 0.0
C285 C 0.65106 0.80805 0.90149 0.0
O286 O 0.6436 0.82234 0.90802 0.0
O287 O 0.69784 0.79185 0.92973 0.0
O288 O 0.71942 0.80259 0.94537 0.0
O289 O 0.66306 0.83616 0.94496 0.0
O290 O 0.68728 0.82673 0.95512 0.0
C291 C 0.71262 0.79044 0.93569 0.0
C292 C 0.67496 0.83758 0.95657 0.0
O293 O 0.66433 0.80238 0.90879 0.0
Mg294 Mg 0.80212 0.69027 0.09897 0.0
O295 O 0.78617 0.66892 0.1121 0.0
O296 O 0.76098 0.66638 0.09987 0.0
Mg297 Mg 0.76066 0.68813 0.07805 0.0
C298 C 0.77192 0.66157 0.11127 0.0
C299 C 0.82406 0.67685 0.13123 0.0
O300 O 0.80964 0.67879 0.1392 0.0
O301 O 0.80617 0.67145 0.07464 0.0
O302 O 0.78045 0.67196 0.06323 0.0
O303 O 0.79129 0.71167 0.11697 0.0
O304 O 0.78081 0.70369 0.09075 0.0
C305 C 0.79551 0.66663 0.06279 0.0
C306 C 0.77991 0.7136 0.10485 0.0
O307 O 0.82509 0.67998 0.11442 0.0
Mg308 Mg 0.31065 0.80807 0.04734 0.0
O309 O 0.30492 0.82916 0.06866 0.0
O310 O 0.28127 0.84323 0.06197 0.0
Mg311 Mg 0.27248 0.83178 0.035 0.0
C312 C 0.29368 0.84066 0.07232 0.0
C313 C 0.34495 0.79734 0.06457 0.0
O314 O 0.35076 0.80638 0.05078 0.0
O315 O 0.28989 0.79024 0.05798 0.0
O316 O 0.26708 0.80454 0.04852 0.0
O317 O 0.32484 0.82772 0.03043 0.0
O318 O 0.29789 0.82287 0.02839 0.0
C319 C 0.27414 0.79126 0.0563 0.0
C320 C 0.31077 0.8314 0.02286 0.0
O321 O 0.32937 0.79548 0.06635 0.0
Mg322 Mg 0.69737 0.1931 0.07996 0.0
O323 O 0.71101 0.16881 0.09046 0.0
O324 O 0.72662 0.15533 0.06973 0.0
Mg325 Mg 0.72261 0.17241 0.04437 0.0
C326 C 0.7211 0.15651 0.08576 0.0
C327 C 0.68243 0.20654 0.11984 0.0
O328 O 0.68642 0.21053 0.13651 0.0
O329 O 0.72133 0.20867 0.07954 0.0
O330 O 0.73632 0.19624 0.05749 0.0
O331 O 0.67591 0.17561 0.07032 0.0
O332 O 0.69831 0.18218 0.05455 0.0
C333 C 0.73441 0.2079 0.06994 0.0
C334 C 0.68453 0.17369 0.05576 0.0
O335 O 0.69403 0.20195 0.10922 0.0
Mg336 Mg 0.9221 0.78639 0.70136 0.0
O337 O 0.91089 0.81295 0.71072 0.0
O338 O 0.92135 0.82047 0.73754 0.0
Mg339 Mg 0.94019 0.79883 0.74488 0.0
C340 C 0.91184 0.82355 0.72418 0.0
C341 C 0.89871 0.79802 0.66824 0.0
O342 O 0.8886 0.80462 0.68041 0.0
O343 O 0.94588 0.80078 0.69391 0.0
O344 O 0.95648 0.80737 0.72092 0.0
O345 O 0.90292 0.77042 0.71638 0.0
O346 O 0.92684 0.77966 0.72771 0.0
C347 C 0.95722 0.80757 0.70376 0.0
C348 C 0.91287 0.77174 0.72999 0.0
O349 O 0.91212 0.79043 0.6731 0.0
Mg350 Mg 0.17778 0.94683 0.69851 0.0
O351 O 0.18343 0.9284 0.67475 0.0
O352 O 0.2051 0.93982 0.65993 0.0
Mg353 Mg 0.21202 0.96655 0.67298 0.0
C354 C 0.19419 0.9276 0.66221 0.0
C355 C 0.14835 0.92106 0.70384 0.0
O356 O 0.14364 0.92998 0.68949 0.0
O357 O 0.20107 0.93681 0.71257 0.0
O358 O 0.22143 0.95049 0.69739 0.0
O359 O 0.16005 0.9634 0.68241 0.0
O360 O 0.18694 0.9686 0.68456 0.0
C361 C 0.21642 0.94027 0.71008 0.0
C362 C 0.17275 0.97307 0.67799 0.0
O363 O 0.16215 0.92492 0.71112 0.0
Mg364 Mg 0.05975 0.24652 0.65824 0.0
O365 O 0.0787 0.22356 0.65303 0.0
O366 O 0.07152 0.20204 0.67262 0.0
Mg367 Mg 0.05058 0.21077 0.69084 0.0
C368 C 0.08058 0.20788 0.65983 0.0
C369 C 0.07422 0.25869 0.61863 0.0
O370 O 0.07497 0.27079 0.60582 0.0
O371 O 0.0385 0.2307 0.64512 0.0
O372 O 0.03332 0.2105 0.66659 0.0
O373 O 0.0771 0.25889 0.67846 0.0
O374 O 0.05844 0.23815 0.68476 0.0
C375 C 0.03016 0.21751 0.65132 0.0
C376 C 0.0706 0.248 0.69003 0.0
O377 O 0.06479 0.26153 0.632 0.0
Mg378 Mg 0.80403 0.08052 0.71051 0.0
O379 O 0.79776 0.09656 0.68519 0.0
O380 O 0.77738 0.0821 0.67078 0.0
Mg381 Mg 0.77243 0.0554 0.68534 0.0
C382 C 0.78747 0.09528 0.6722 0.0
C383 C 0.82527 0.11694 0.7274 0.0
O384 O 0.82254 0.13037 0.7385 0.0
O385 O 0.7793 0.08701 0.72349 0.0
O386 O 0.76071 0.06945 0.70993 0.0
O387 O 0.82394 0.06436 0.69555 0.0
O388 O 0.79754 0.05721 0.69713 0.0
C389 C 0.76464 0.08073 0.72216 0.0
C390 C 0.81198 0.05372 0.69092 0.0
O391 O 0.81347 0.10601 0.72448 0.0
Mg392 Mg 0.91266 0.20655 0.32566 0.0
O393 O 0.89773 0.18579 0.30972 0.0
O394 O 0.90711 0.18364 0.28152 0.0
Mg395 Mg 0.92967 0.20192 0.28004 0.0
C396 C 0.8971 0.17903 0.29395 0.0
C397 C 0.89861 0.20763 0.36482 0.0
O398 O 0.90832 0.2218 0.36544 0.0
O399 O 0.93277 0.18531 0.32935 0.0
O400 O 0.94167 0.18325 0.3009 0.0
O401 O 0.89701 0.22919 0.31492 0.0
O402 O 0.91952 0.21872 0.30158 0.0
C403 C 0.94197 0.17822 0.31732 0.0
C404 C 0.90687 0.22924 0.30122 0.0
O405 O 0.89896 0.19775 0.35089 0.0
Mg406 Mg 0.80278 0.92174 0.27949 0.0
O407 O 0.79391 0.90324 0.30218 0.0
O408 O 0.77812 0.91978 0.32057 0.0
Mg409 Mg 0.77868 0.94907 0.31083 0.0
C410 C 0.78472 0.9048 0.31609 0.0
C411 C 0.81314 0.88316 0.26215 0.0
O412 O 0.81101 0.87078 0.24976 0.0
O413 O 0.77713 0.92399 0.26822 0.0
O414 O 0.7625 0.94236 0.28581 0.0
O415 O 0.82638 0.92868 0.29466 0.0
O416 O 0.80248 0.94288 0.29712 0.0
C417 C 0.76394 0.93268 0.2717 0.0
C418 C 0.8176 0.94114 0.30224 0.0
O419 O 0.80566 0.89803 0.26051 0.0
Mg420 Mg 0.06699 0.78733 0.34799 0.0
O421 O 0.08754 0.80912 0.34468 0.0
O422 O 0.08391 0.81884 0.31634 0.0
Mg423 Mg 0.06363 0.80411 0.3017 0.0
C424 C 0.09129 0.81944 0.3315 0.0
C425 C 0.07788 0.79293 0.38989 0.0
O426 O 0.0746 0.79155 0.40712 0.0
O427 O 0.04764 0.80971 0.34952 0.0
O428 O 0.04617 0.81879 0.32094 0.0
O429 O 0.0845 0.76578 0.338 0.0
O430 O 0.06847 0.78265 0.32083 0.0
C431 C 0.04184 0.82007 0.33739 0.0
C432 C 0.08008 0.77092 0.32208 0.0
O433 O 0.06761 0.78669 0.3786 0.0
Mg434 Mg 0.18402 0.07555 0.28786 0.0
O435 O 0.19402 0.09035 0.31228 0.0
O436 O 0.20563 0.07119 0.33171 0.0
Mg437 Mg 0.20308 0.04323 0.31916 0.0
C438 C 0.20148 0.08709 0.32705 0.0
C439 C 0.17198 0.11215 0.26622 0.0
O440 O 0.176 0.12725 0.25818 0.0
O441 O 0.21023 0.07126 0.27779 0.0
O442 O 0.22134 0.05148 0.29699 0.0
O443 O 0.15958 0.07049 0.3026 0.0
O444 O 0.18162 0.05295 0.30349 0.0
C445 C 0.22232 0.06157 0.28315 0.0
C446 C 0.16693 0.05644 0.30902 0.0
O447 O 0.18354 0.10209 0.27206 0.0
Mg448 Mg 0.6812 0.89456 0.79385 0.0
O449 O 0.69904 0.87905 0.81147 0.0
O450 O 0.72355 0.89264 0.81422 0.0
Mg451 Mg 0.72168 0.91725 0.79578 0.0
C452 C 0.7136 0.87988 0.818 0.0
C453 C 0.66121 0.86043 0.80766 0.0
O454 O 0.67559 0.85257 0.80504 0.0
O455 O 0.6782 0.91499 0.81685 0.0
O456 O 0.70308 0.92837 0.81616 0.0
O457 O 0.69077 0.88086 0.7688 0.0
O458 O 0.70081 0.9061 0.78008 0.0
C459 C 0.68854 0.92662 0.82281 0.0
C460 C 0.70133 0.89393 0.76786 0.0
O461 O 0.65971 0.87714 0.80426 0.0
Mg462 Mg 0.05815 0.66004 0.7678 0.0
O463 O 0.0722 0.66749 0.79397 0.0
O464 O 0.0744 0.69757 0.79362 0.0
Mg465 Mg 0.06354 0.70895 0.76772 0.0
C466 C 0.07672 0.68235 0.80118 0.0
C467 C 0.05449 0.623 0.79113 0.0
O468 O 0.04516 0.60968 0.79679 0.0
O469 O 0.03509 0.67199 0.77952 0.0
O470 O 0.03782 0.70184 0.77928 0.0
O471 O 0.08248 0.65725 0.75257 0.0
O472 O 0.06797 0.68223 0.75594 0.0
C473 C 0.02952 0.68765 0.7828 0.0
C474 C 0.08117 0.67445 0.75033 0.0
O475 O 0.04882 0.6334 0.7791 0.0
Mg476 Mg 0.29287 0.09246 0.80517 0.0
O477 O 0.2887 0.1077 0.83135 0.0
O478 O 0.26574 0.09742 0.84455 0.0
Mg479 Mg 0.25464 0.07617 0.82595 0.0
C480 C 0.27839 0.10773 0.84434 0.0
C481 C 0.32756 0.1035 0.78992 0.0
O482 O 0.32172 0.09531 0.7756 0.0
O483 O 0.30115 0.06802 0.82134 0.0
O484 O 0.27704 0.058 0.83224 0.0
O485 O 0.27771 0.11237 0.78985 0.0
O486 O 0.26759 0.08792 0.80262 0.0
C487 C 0.29276 0.05659 0.83036 0.0
C488 C 0.26497 0.10249 0.79369 0.0
O489 O 0.31891 0.1038 0.80418 0.0
Mg490 Mg 0.91198 0.30595 0.79407 0.0
O491 O 0.9008 0.29373 0.81929 0.0
O492 O 0.91156 0.26674 0.82543 0.0
Mg493 Mg 0.93151 0.26242 0.80411 0.0
C494 C 0.90173 0.27968 0.82905 0.0
C495 C 0.90068 0.34711 0.79303 0.0
O496 O 0.91289 0.3487 0.78145 0.0
O497 O 0.93459 0.314 0.81063 0.0
O498 O 0.94531 0.28676 0.81594 0.0
O499 O 0.89415 0.29109 0.77633 0.0
O500 O 0.91825 0.28006 0.78516 0.0
C501 C 0.94554 0.30386 0.81778 0.0
C502 C 0.90446 0.27776 0.77673 0.0
O503 O 0.89824 0.33201 0.80056 0.0
Mg504 Mg 0.68578 0.06816 0.18763 0.0
O505 O 0.70252 0.08727 0.1723 0.0
O506 O 0.72674 0.0741 0.16585 0.0
Mg507 Mg 0.72584 0.04648 0.17924 0.0
C508 C 0.71687 0.08749 0.16513 0.0
C509 C 0.66097 0.09684 0.16927 0.0
O510 O 0.67228 0.09829 0.15666 0.0
O511 O 0.68142 0.05191 0.16209 0.0
O512 O 0.70583 0.03805 0.15879 0.0
O513 O 0.69601 0.07857 0.21334 0.0
O514 O 0.70651 0.05549 0.1983 0.0
C515 C 0.69091 0.041 0.15371 0.0
C516 C 0.70744 0.06643 0.21169 0.0
O517 O 0.66325 0.086 0.18226 0.0
Mg518 Mg 0.9321 0.68704 0.21831 0.0
O519 O 0.91259 0.68089 0.19607 0.0
O520 O 0.91944 0.69998 0.17402 0.0
Mg521 Mg 0.93982 0.71945 0.18263 0.0
C522 C 0.91058 0.68714 0.18017 0.0
C523 C 0.91959 0.648 0.23491 0.0
O524 O 0.92157 0.63576 0.24745 0.0
O525 O 0.95268 0.67452 0.2017 0.0
O526 O 0.95891 0.69636 0.18231 0.0
O527 O 0.91504 0.70659 0.23169 0.0
O528 O 0.93309 0.71362 0.21056 0.0
C529 C 0.96179 0.68095 0.18926 0.0
C530 C 0.92179 0.71876 0.22164 0.0
O531 O 0.92949 0.66119 0.23441 0.0
Mg532 Mg 0.31181 0.90557 0.19785 0.0
O533 O 0.30032 0.89726 0.17122 0.0
O534 O 0.2799 0.91586 0.16336 0.0
Mg535 Mg 0.27914 0.93717 0.18562 0.0
C536 C 0.28894 0.9021 0.16036 0.0
C537 C 0.34001 0.87875 0.20579 0.0
O538 O 0.33578 0.88364 0.22213 0.0
O539 O 0.32583 0.92805 0.18385 0.0
O540 O 0.30524 0.94703 0.17706 0.0
O541 O 0.29287 0.8897 0.21271 0.0
O542 O 0.28994 0.91842 0.20562 0.0
C543 C 0.32062 0.94271 0.17695 0.0
C544 C 0.28383 0.9041 0.21279 0.0
O545 O 0.33261 0.88583 0.19251 0.0
Mg546 Mg 0.06916 0.30623 0.23454 0.0
O547 O 0.08707 0.31121 0.21075 0.0
O548 O 0.0756 0.29637 0.18767 0.0
Mg549 Mg 0.05286 0.28069 0.1962 0.0
C550 C 0.08676 0.30668 0.19414 0.0
C551 C 0.08839 0.34255 0.25401 0.0
O552 O 0.09036 0.34951 0.27011 0.0
O553 O 0.04978 0.32518 0.22231 0.0
O554 O 0.03995 0.30771 0.2003 0.0
O555 O 0.08303 0.28122 0.24286 0.0
O556 O 0.06232 0.28159 0.22364 0.0
C557 C 0.03986 0.32239 0.20922 0.0
C558 C 0.07333 0.27244 0.23213 0.0
O559 O 0.07966 0.32838 0.25265 0.0
Mg560 Mg 0.81104 0.68767 0.93688 0.0
O561 O 0.79672 0.66522 0.92275 0.0
O562 O 0.77554 0.65614 0.9399 0.0
Mg563 Mg 0.77627 0.67356 0.96529 0.0
C564 C 0.7841 0.65523 0.92551 0.0
C565 C 0.83469 0.68143 0.90495 0.0
O566 O 0.83325 0.6651 0.91148 0.0
O567 O 0.79052 0.70738 0.92981 0.0
O568 O 0.77013 0.69875 0.94834 0.0
O569 O 0.82744 0.66856 0.95213 0.0
O570 O 0.803 0.67824 0.96146 0.0
C571 C 0.77596 0.70928 0.93631 0.0
C572 C 0.81592 0.66848 0.96424 0.0
O573 O 0.82573 0.69387 0.91153 0.0
Mg574 Mg 0.81748 0.32025 0.05882 0.0
O575 O 0.80823 0.33838 0.08133 0.0
O576 O 0.78397 0.35074 0.07372 0.0
Mg577 Mg 0.77826 0.3413 0.04516 0.0
C578 C 0.79565 0.34812 0.08501 0.0
C579 C 0.84525 0.31602 0.08871 0.0
O580 O 0.84377 0.33358 0.08958 0.0
O581 O 0.79776 0.30002 0.06671 0.0
O582 O 0.77431 0.31325 0.05731 0.0
O583 O 0.83092 0.34241 0.04428 0.0
O584 O 0.80464 0.33533 0.04022 0.0
C585 C 0.78204 0.30017 0.06466 0.0
C586 C 0.81709 0.34519 0.03584 0.0
O587 O 0.8363 0.30726 0.07767 0.0
Mg588 Mg 0.68199 0.80577 0.09135 0.0
O589 O 0.69837 0.82815 0.10119 0.0
O590 O 0.72144 0.83286 0.08551 0.0
Mg591 Mg 0.71958 0.81098 0.06376 0.0
C592 C 0.71177 0.83672 0.09848 0.0
C593 C 0.66695 0.81737 0.12746 0.0
O594 O 0.6823 0.81302 0.13147 0.0
O595 O 0.67314 0.82407 0.06822 0.0
O596 O 0.69684 0.82574 0.0526 0.0
O597 O 0.69649 0.78553 0.10727 0.0
O598 O 0.7026 0.79357 0.07949 0.0
C599 C 0.68156 0.82981 0.05481 0.0
C600 C 0.70614 0.78411 0.09345 0.0
O601 O 0.66215 0.81576 0.11121 0.0
Mg602 Mg 0.16895 0.69755 0.0494 0.0
O603 O 0.17893 0.67569 0.06837 0.0
O604 O 0.20182 0.66432 0.05578 0.0
Mg605 Mg 0.20566 0.67765 0.02848 0.0
C606 C 0.19139 0.66507 0.06869 0.0
C607 C 0.13772 0.71165 0.07084 0.0
O608 O 0.12973 0.70761 0.05598 0.0
O609 O 0.19024 0.71599 0.05742 0.0
O610 O 0.21206 0.70392 0.04332 0.0
O611 O 0.15304 0.67779 0.0343 0.0
O612 O 0.17906 0.68437 0.02776 0.0
C613 C 0.2056 0.71604 0.05329 0.0
C614 C 0.16597 0.67513 0.0243 0.0
O615 O 0.15323 0.70879 0.07185 0.0
Mg616 Mg 0.30194 0.19476 0.0974 0.0
O617 O 0.29945 0.17795 0.12277 0.0
O618 O 0.27405 0.16614 0.12306 0.0
Mg619 Mg 0.25976 0.17708 0.0988 0.0
C620 C 0.28845 0.16802 0.12996 0.0
C621 C 0.33721 0.2086 0.10584 0.0
O622 O 0.3292 0.22396 0.1049 0.0
O623 O 0.30295 0.16929 0.0808 0.0
O624 O 0.27642 0.16071 0.07946 0.0
O625 O 0.29303 0.21947 0.1113 0.0
O626 O 0.27673 0.20029 0.09704 0.0
C627 C 0.29161 0.15891 0.07481 0.0
C628 C 0.27824 0.21474 0.10644 0.0
O629 O 0.32957 0.19418 0.10206 0.0
Mg630 Mg 0.18062 0.30332 0.93375 0.0
O631 O 0.19505 0.32422 0.91779 0.0
O632 O 0.2146 0.33675 0.93513 0.0
Mg633 Mg 0.21254 0.32338 0.96269 0.0
C634 C 0.20711 0.33512 0.9201 0.0
C635 C 0.15722 0.30115 0.90029 0.0
O636 O 0.15411 0.31769 0.90548 0.0
O637 O 0.20258 0.2841 0.9315 0.0
O638 O 0.22111 0.29659 0.95015 0.0
O639 O 0.16244 0.32364 0.94456 0.0
O640 O 0.18648 0.31675 0.957 0.0
C641 C 0.2167 0.28412 0.93932 0.0
C642 C 0.17308 0.32614 0.95735 0.0
O643 O 0.16831 0.29217 0.90851 0.0
Mg644 Mg 0.67397 0.20178 0.9192 0.0
O645 O 0.68608 0.1768 0.90679 0.0
O646 O 0.7112 0.17271 0.91873 0.0
Mg647 Mg 0.71506 0.19534 0.93909 0.0
C648 C 0.69957 0.1679 0.90812 0.0
C649 C 0.64311 0.20746 0.89746 0.0
O650 O 0.64904 0.22365 0.9004 0.0
O651 O 0.66826 0.18585 0.94468 0.0
O652 O 0.69384 0.18337 0.95616 0.0
O653 O 0.68551 0.22002 0.89905 0.0
O654 O 0.69726 0.21274 0.9249 0.0
C655 C 0.6782 0.18051 0.95694 0.0
C656 C 0.69803 0.22125 0.90985 0.0
O657 O 0.6499 0.19422 0.90535 0.0
Mg658 Mg 0.29758 0.79764 0.88864 0.0
O659 O 0.28886 0.82201 0.87345 0.0
O660 O 0.26555 0.83383 0.88426 0.0
Mg661 Mg 0.25819 0.81423 0.90673 0.0
C662 C 0.27761 0.83396 0.87319 0.0
C663 C 0.3221 0.80346 0.85779 0.0
O664 O 0.30798 0.80094 0.84934 0.0
O665 O 0.30525 0.81582 0.91185 0.0
O666 O 0.28069 0.82422 0.92298 0.0
O667 O 0.28306 0.77924 0.87081 0.0
O668 O 0.27317 0.79163 0.89558 0.0
C669 C 0.29655 0.82434 0.9234 0.0
C670 C 0.27074 0.78153 0.88175 0.0
O671 O 0.32249 0.80171 0.87479 0.0
Mg672 Mg 0.81426 0.57974 0.81426 0.0
O673 O 0.79678 0.59227 0.83481 0.0
O674 O 0.77164 0.57987 0.83734 0.0
Mg675 Mg 0.77777 0.55281 0.82414 0.0
C676 C 0.78207 0.59224 0.84106 0.0
C677 C 0.82788 0.61714 0.82128 0.0
O678 O 0.81332 0.61983 0.81384 0.0
O679 O 0.82466 0.55745 0.83266 0.0
O680 O 0.79972 0.55521 0.84329 0.0
O681 O 0.79944 0.59337 0.79326 0.0
O682 O 0.79361 0.56583 0.80264 0.0
C683 C 0.81389 0.54819 0.84102 0.0
C684 C 0.7899 0.57942 0.79263 0.0
O685 O 0.83304 0.60106 0.82327 0.0
Mg686 Mg 0.18537 0.40053 0.7988 0.0
O687 O 0.20018 0.38646 0.82031 0.0
O688 O 0.22487 0.39903 0.82536 0.0
Mg689 Mg 0.22572 0.42225 0.80511 0.0
C690 C 0.21398 0.38704 0.82856 0.0
C691 C 0.16247 0.36966 0.81377 0.0
O692 O 0.17649 0.36068 0.81332 0.0
O693 O 0.17995 0.42352 0.81806 0.0
O694 O 0.20486 0.43643 0.8208 0.0
O695 O 0.19733 0.38291 0.77818 0.0
O696 O 0.20722 0.40924 0.78717 0.0
C697 C 0.1894 0.43565 0.82458 0.0
C698 C 0.2089 0.39499 0.77752 0.0
O699 O 0.16216 0.38583 0.80823 0.0
Mg700 Mg 0.17753 0.57768 0.18784 0.0
O701 O 0.18147 0.6006 0.16755 0.0
O702 O 0.20836 0.59927 0.16017 0.0
Mg703 Mg 0.22185 0.57843 0.17736 0.0
C704 C 0.19386 0.60598 0.15828 0.0
C705 C 0.13836 0.58689 0.1799 0.0
O706 O 0.12397 0.58162 0.17351 0.0
O707 O 0.1815 0.55807 0.16534 0.0
O708 O 0.20875 0.5562 0.16058 0.0
O709 O 0.18218 0.59561 0.21198 0.0
O710 O 0.20147 0.58096 0.19691 0.0
C711 C 0.19387 0.55128 0.15717 0.0
C712 C 0.19773 0.59189 0.20962 0.0
O713 O 0.1501 0.5756 0.18087 0.0
Mg714 Mg 0.81263 0.41803 0.19902 0.0
O715 O 0.79544 0.40183 0.18179 0.0
O716 O 0.76983 0.41265 0.17974 0.0
Mg717 Mg 0.77088 0.43762 0.19786 0.0
C718 C 0.7808 0.40103 0.17555 0.0
C719 C 0.84595 0.40511 0.17862 0.0
O720 O 0.84884 0.42222 0.17557 0.0
O721 O 0.8143 0.43857 0.17617 0.0
O722 O 0.78861 0.44995 0.1772 0.0
O723 O 0.80415 0.40352 0.22385 0.0
O724 O 0.79279 0.42847 0.21337 0.0
C725 C 0.80316 0.44937 0.17038 0.0
C726 C 0.79299 0.41597 0.22526 0.0
O727 O 0.83326 0.40048 0.18762 0.0
Mg728 Mg 0.32148 0.55957 0.71825 0.0
O729 O 0.31469 0.58149 0.69726 0.0
O730 O 0.29671 0.56724 0.67904 0.0
Mg731 Mg 0.29423 0.53754 0.68549 0.0
C732 C 0.30444 0.58138 0.68405 0.0
C733 C 0.33921 0.59194 0.74319 0.0
O734 O 0.34137 0.59785 0.75967 0.0
O735 O 0.29541 0.56203 0.72917 0.0
O736 O 0.2792 0.54683 0.71012 0.0
O737 O 0.34405 0.54938 0.70295 0.0
O738 O 0.31823 0.54079 0.69867 0.0
C739 C 0.28125 0.55606 0.72443 0.0
C740 C 0.33355 0.53948 0.69426 0.0
O741 O 0.32994 0.5784 0.74071 0.0
Mg742 Mg 0.66139 0.45575 0.67629 0.0
O743 O 0.67585 0.43606 0.65922 0.0
O744 O 0.69962 0.4476 0.6491 0.0
Mg745 Mg 0.70002 0.47627 0.66032 0.0
C746 C 0.6894 0.43458 0.65052 0.0
C747 C 0.63876 0.4212 0.67549 0.0
O748 O 0.64097 0.4225 0.65805 0.0
O749 O 0.67976 0.45062 0.69906 0.0
O750 O 0.70283 0.46343 0.68819 0.0
O751 O 0.64847 0.46812 0.65232 0.0
O752 O 0.67282 0.47638 0.66318 0.0
C753 C 0.69506 0.45483 0.70042 0.0
C754 C 0.66142 0.47836 0.65128 0.0
O755 O 0.64508 0.43294 0.68587 0.0
Mg756 Mg 0.31273 0.42551 0.28052 0.0
O757 O 0.29736 0.4188 0.30474 0.0
O758 O 0.28126 0.44091 0.31515 0.0
Mg759 Mg 0.28673 0.46351 0.29496 0.0
C760 C 0.28688 0.42491 0.31596 0.0
C761 C 0.32663 0.38301 0.27531 0.0
O762 O 0.32186 0.36637 0.27238 0.0
O763 O 0.28985 0.42399 0.26311 0.0
O764 O 0.27407 0.4466 0.27315 0.0
O765 O 0.3323 0.43627 0.29972 0.0
O766 O 0.31161 0.45213 0.28828 0.0
C767 C 0.27644 0.43306 0.26292 0.0
C768 C 0.324 0.45115 0.29904 0.0
O769 O 0.31556 0.39517 0.27582 0.0
Mg770 Mg 0.69865 0.56812 0.30373 0.0
O771 O 0.7 0.5876 0.32753 0.0
O772 O 0.71314 0.57235 0.34924 0.0
Mg773 Mg 0.71485 0.54231 0.3415 0.0
C774 C 0.70673 0.58685 0.34307 0.0
C775 C 0.68645 0.59762 0.27454 0.0
O776 O 0.68967 0.60923 0.26172 0.0
O777 O 0.7266 0.56853 0.30131 0.0
O778 O 0.73544 0.54756 0.32053 0.0
O779 O 0.67246 0.55828 0.31001 0.0
O780 O 0.69547 0.54732 0.32137 0.0
C781 C 0.73797 0.55836 0.30747 0.0
C782 C 0.67963 0.54661 0.32032 0.0
O783 O 0.69842 0.5907 0.28316 0.0
Mg784 Mg 0.18965 0.81196 0.57803 0.0
O785 O 0.19879 0.83491 0.59574 0.0
O786 O 0.22538 0.84035 0.58935 0.0
Mg787 Mg 0.23353 0.81986 0.56828 0.0
C788 C 0.21211 0.84389 0.59801 0.0
C789 C 0.15465 0.80346 0.58751 0.0
O790 O 0.16077 0.78866 0.58047 0.0
O791 O 0.18889 0.83105 0.55422 0.0
O792 O 0.21593 0.83349 0.54801 0.0
O793 O 0.19705 0.7915 0.59814 0.0
O794 O 0.21358 0.80156 0.57667 0.0
C795 C 0.20073 0.83701 0.5445 0.0
C796 C 0.21148 0.79148 0.59057 0.0
O797 O 0.16325 0.81772 0.5866 0.0
Mg798 Mg 0.17898 0.20913 0.40485 0.0
O799 O 0.18892 0.18574 0.38816 0.0
O800 O 0.21362 0.1765 0.39827 0.0
Mg801 Mg 0.21954 0.19465 0.42213 0.0
C802 C 0.2015 0.17536 0.3873 0.0
C803 C 0.15315 0.20296 0.3753 0.0
O804 O 0.16709 0.20332 0.36621 0.0
O805 O 0.17257 0.18937 0.4271 0.0
O806 O 0.19768 0.18169 0.43719 0.0
O807 O 0.19171 0.22865 0.38698 0.0
O808 O 0.20346 0.21583 0.41065 0.0
C809 C 0.18187 0.18046 0.43773 0.0
C810 C 0.20485 0.22585 0.39659 0.0
O811 O 0.15345 0.20563 0.39217 0.0
Mg812 Mg 0.31492 0.67895 0.44311 0.0
O813 O 0.30558 0.65983 0.42158 0.0
O814 O 0.27909 0.65281 0.42681 0.0
Mg815 Mg 0.27155 0.66813 0.45217 0.0
C816 C 0.29229 0.65152 0.41743 0.0
C817 C 0.35133 0.68473 0.43543 0.0
O818 O 0.35066 0.68153 0.45278 0.0
O819 O 0.30065 0.70183 0.43013 0.0
O820 O 0.27433 0.69493 0.43663 0.0
O821 O 0.32249 0.65607 0.46051 0.0
O822 O 0.29769 0.66878 0.46113 0.0
C823 C 0.28515 0.70528 0.42949 0.0
C824 C 0.30764 0.65657 0.4671 0.0
O825 O 0.33789 0.68488 0.42652 0.0
Mg826 Mg 0.81008 0.78147 0.39525 0.0
O827 O 0.8017 0.80556 0.37827 0.0
O828 O 0.77988 0.81858 0.39131 0.0
Mg829 Mg 0.77433 0.80252 0.41679 0.0
C830 C 0.79055 0.81775 0.37868 0.0
C831 C 0.84359 0.76811 0.376 0.0
O832 O 0.84025 0.75212 0.38254 0.0
O833 O 0.82151 0.80051 0.4158 0.0
O834 O 0.79912 0.81234 0.42895 0.0
O835 O 0.79278 0.7635 0.38034 0.0
O836 O 0.78609 0.77826 0.40509 0.0
C837 C 0.81487 0.81093 0.42738 0.0
C838 C 0.78161 0.76789 0.39206 0.0
O839 O 0.83394 0.78122 0.37932 0.0
Mg840 Mg 0.66447 0.31315 0.44115 0.0
O841 O 0.67312 0.33783 0.42582 0.0
O842 O 0.69876 0.34561 0.43406 0.0
Mg843 Mg 0.7064 0.3257 0.45591 0.0
C844 C 0.68581 0.34796 0.42446 0.0
C845 C 0.63194 0.32026 0.418 0.0
O846 O 0.63036 0.33441 0.42844 0.0
O847 O 0.68153 0.29547 0.4244 0.0
O848 O 0.70667 0.30349 0.43445 0.0
O849 O 0.6545 0.32993 0.46409 0.0
O850 O 0.6802 0.31984 0.46193 0.0
C851 C 0.6973 0.2941 0.42425 0.0
C852 C 0.66939 0.32909 0.47058 0.0
O853 O 0.64391 0.30942 0.42049 0.0
Mg854 Mg 0.82386 0.20437 0.57744 0.0
O855 O 0.81625 0.18074 0.5956 0.0
O856 O 0.78854 0.17914 0.59499 0.0
Mg857 Mg 0.77838 0.20191 0.57757 0.0
C858 C 0.80261 0.17344 0.60045 0.0
C859 C 0.86022 0.18453 0.58374 0.0
O860 O 0.8735 0.17744 0.57634 0.0
O861 O 0.81703 0.18906 0.55216 0.0
O862 O 0.78935 0.18904 0.55196 0.0
O863 O 0.82207 0.2236 0.60121 0.0
O864 O 0.80142 0.21684 0.58303 0.0
C865 C 0.80327 0.18514 0.54471 0.0
C866 C 0.80653 0.22502 0.59713 0.0
O867 O 0.84987 0.1926 0.57369 0.0
Mg868 Mg 0.28973 0.3137 0.55684 0.0
O869 O 0.28389 0.33464 0.57813 0.0
O870 O 0.26075 0.34934 0.57069 0.0
Mg871 Mg 0.25201 0.33746 0.5439 0.0
C872 C 0.27292 0.34657 0.58132 0.0
C873 C 0.32322 0.29917 0.5709 0.0
O874 O 0.32782 0.30524 0.55509 0.0
O875 O 0.26899 0.29601 0.56696 0.0
O876 O 0.24613 0.31024 0.55763 0.0
O877 O 0.30457 0.33351 0.5416 0.0
O878 O 0.2777 0.32894 0.53763 0.0
C879 C 0.25326 0.29697 0.56539 0.0
C880 C 0.29095 0.33764 0.53334 0.0
O881 O 0.30812 0.30053 0.57558 0.0
Mg882 Mg 0.69215 0.70875 0.56841 0.0
O883 O 0.70053 0.68467 0.58514 0.0
O884 O 0.71435 0.66595 0.56705 0.0
Mg885 Mg 0.71212 0.6767 0.53819 0.0
C886 C 0.70905 0.67043 0.58261 0.0
C887 C 0.68031 0.72558 0.60577 0.0
O888 O 0.68229 0.73547 0.62023 0.0
O889 O 0.71845 0.71764 0.5654 0.0
O890 O 0.73048 0.69974 0.54513 0.0
O891 O 0.66713 0.69648 0.56195 0.0
O892 O 0.68998 0.69258 0.54619 0.0
C893 C 0.7308 0.71329 0.55571 0.0
C894 C 0.67447 0.68923 0.54826 0.0
O895 O 0.69128 0.72583 0.59365 0.0
Mg896 Mg 0.16491 0.43803 0.17722 0.0
O897 O 0.17395 0.41461 0.16028 0.0
O898 O 0.19765 0.42198 0.14657 0.0
Mg899 Mg 0.20317 0.45116 0.15367 0.0
C900 C 0.18629 0.41064 0.15032 0.0
C901 C 0.1386 0.40657 0.18772 0.0
O902 O 0.13633 0.40386 0.17044 0.0
O903 O 0.18561 0.43223 0.19717 0.0
O904 O 0.2082 0.44117 0.18211 0.0
O905 O 0.1506 0.45093 0.15427 0.0
O906 O 0.17694 0.45555 0.16034 0.0
C907 C 0.20124 0.43462 0.19606 0.0
C908 C 0.16436 0.45904 0.15041 0.0
O909 O 0.14809 0.41917 0.19302 0.0
Mg910 Mg 0.82638 0.56384 0.19496 0.0
O911 O 0.80812 0.58049 0.17938 0.0
O912 O 0.78544 0.56505 0.17179 0.0
Mg913 Mg 0.79061 0.53641 0.18253 0.0
C914 C 0.79381 0.57962 0.17223 0.0
C915 C 0.84469 0.60099 0.19245 0.0
O916 O 0.84375 0.59803 0.17508 0.0
O917 O 0.8091 0.56594 0.21887 0.0
O918 O 0.7885 0.54699 0.21174 0.0
O919 O 0.83953 0.55425 0.17009 0.0
O920 O 0.81767 0.54123 0.18246 0.0
C921 C 0.79569 0.55772 0.22269 0.0
C922 C 0.82846 0.54166 0.16973 0.0
O923 O 0.83918 0.58936 0.20342 0.0
Mg924 Mg 0.80464 0.42859 0.78233 0.0
O925 O 0.79531 0.41044 0.80536 0.0
O926 O 0.77742 0.42728 0.8211 0.0
Mg927 Mg 0.77743 0.45619 0.81055 0.0
C928 C 0.78478 0.41235 0.81809 0.0
C929 C 0.82314 0.39464 0.76027 0.0
O930 O 0.82092 0.38236 0.74781 0.0
O931 O 0.77924 0.42804 0.76937 0.0
O932 O 0.76336 0.44686 0.7852 0.0
O933 O 0.82689 0.43852 0.79834 0.0
O934 O 0.80197 0.45063 0.79871 0.0
C935 C 0.76556 0.43628 0.77188 0.0
C936 C 0.81694 0.45072 0.80454 0.0
O937 O 0.81096 0.40455 0.76459 0.0
Mg938 Mg 0.16151 0.55261 0.79732 0.0
O939 O 0.17536 0.56512 0.82081 0.0
O940 O 0.1957 0.54741 0.83121 0.0
Mg941 Mg 0.19434 0.52224 0.81361 0.0
C942 C 0.18731 0.56194 0.83156 0.0
C943 C 0.14309 0.58885 0.80391 0.0
O944 O 0.14569 0.58368 0.82056 0.0
O945 O 0.18353 0.55907 0.77903 0.0
O946 O 0.2024 0.53994 0.7902 0.0
O947 O 0.1439 0.53849 0.81622 0.0
O948 O 0.1682 0.52792 0.80723 0.0
C949 C 0.19807 0.55222 0.77918 0.0
C950 C 0.15528 0.52626 0.8172 0.0
O951 O 0.14876 0.57928 0.79114 0.0
Mg952 Mg 0.68492 0.40874 0.29847 0.0
O953 O 0.69304 0.40322 0.32704 0.0
O954 O 0.71485 0.41974 0.33527 0.0
Mg955 Mg 0.71927 0.4384 0.31129 0.0
C956 C 0.70389 0.40785 0.33859 0.0
C957 C 0.66292 0.37844 0.28936 0.0
O958 O 0.6722 0.38204 0.27531 0.0
O959 O 0.67103 0.43397 0.30829 0.0
O960 O 0.69331 0.4504 0.31572 0.0
O961 O 0.7044 0.39013 0.2878 0.0
O962 O 0.70836 0.41914 0.29218 0.0
C963 C 0.6776 0.44833 0.31456 0.0
C964 C 0.71421 0.40383 0.28715 0.0
O965 O 0.66345 0.38918 0.30264 0.0
Mg966 Mg 0.30006 0.58807 0.29173 0.0
O967 O 0.28963 0.59567 0.31875 0.0
O968 O 0.26762 0.57935 0.32653 0.0
Mg969 Mg 0.26378 0.5603 0.3026 0.0
C970 C 0.27822 0.59164 0.32984 0.0
C971 C 0.33774 0.59695 0.29996 0.0
O972 O 0.33965 0.58034 0.29431 0.0
O973 O 0.31078 0.56253 0.30376 0.0
O974 O 0.28843 0.54564 0.30923 0.0
O975 O 0.28303 0.60733 0.27767 0.0
O976 O 0.27652 0.57915 0.28392 0.0
C977 C 0.30416 0.54797 0.30923 0.0
C978 C 0.27215 0.59452 0.27751 0.0
O979 O 0.32338 0.60403 0.29952 0.0
Mg980 Mg 0.6927 0.58936 0.70094 0.0
O981 O 0.70302 0.61103 0.68239 0.0
O982 O 0.72834 0.6029 0.67341 0.0
Mg983 Mg 0.73497 0.57703 0.68849 0.0
C984 C 0.71599 0.61363 0.67295 0.0
C985 C 0.65676 0.60248 0.70996 0.0
O986 O 0.66074 0.59585 0.72575 0.0
O987 O 0.68957 0.57137 0.67645 0.0
O988 O 0.71563 0.56298 0.67045 0.0
O989 O 0.70297 0.60309 0.72508 0.0
O990 O 0.71623 0.58205 0.70965 0.0
C991 C 0.70006 0.56252 0.6671 0.0
C992 C 0.7161 0.59331 0.72281 0.0
O993 O 0.66712 0.60143 0.69714 0.0
Mg994 Mg 0.32106 0.40605 0.70759 0.0
O995 O 0.30946 0.3954 0.68173 0.0
O996 O 0.288 0.41254 0.67371 0.0
Mg997 Mg 0.28635 0.43506 0.69447 0.0
C998 C 0.2975 0.39906 0.67113 0.0
C999 C 0.35111 0.38122 0.71638 0.0
O1000 O 0.34793 0.38745 0.73254 0.0
O1001 O 0.33386 0.42888 0.69224 0.0
O1002 O 0.31174 0.44577 0.68558 0.0
O1003 O 0.30271 0.39027 0.72385 0.0
O1004 O 0.29877 0.41819 0.71473 0.0
C1005 C 0.32738 0.44288 0.68516 0.0
C1006 C 0.29313 0.40422 0.72284 0.0
O1007 O 0.34258 0.38684 0.70317 0.0
Mg1008 Mg 0.79094 0.20862 0.41485 0.0
O1009 O 0.79018 0.18276 0.39805 0.0
O1010 O 0.77353 0.16387 0.41295 0.0
Mg1011 Mg 0.76608 0.17612 0.43996 0.0
C1012 C 0.78262 0.16771 0.39942 0.0
C1013 C 0.8106 0.23336 0.38483 0.0
O1014 O 0.80939 0.24452 0.37122 0.0
O1015 O 0.76422 0.21436 0.40807 0.0
O1016 O 0.74905 0.19671 0.42581 0.0
O1017 O 0.8138 0.1997 0.43011 0.0
O1018 O 0.78807 0.19371 0.4379 0.0
C1019 C 0.75024 0.20929 0.41419 0.0
C1020 C 0.80362 0.19216 0.44129 0.0
O1021 O 0.7975 0.226 0.39073 0.0
Mg1022 Mg 0.83164 0.80764 0.54564 0.0
O1023 O 0.82667 0.82859 0.5682 0.0
O1024 O 0.80506 0.84456 0.55815 0.0
Mg1025 Mg 0.79773 0.83626 0.52976 0.0
C1026 C 0.81568 0.84085 0.57035 0.0
C1027 C 0.85621 0.78087 0.5741 0.0
O1028 O 0.86118 0.76493 0.56869 0.0
O1029 O 0.80823 0.79252 0.55337 0.0
O1030 O 0.78816 0.80976 0.54161 0.0
O1031 O 0.84954 0.82519 0.53016 0.0
O1032 O 0.82243 0.82481 0.52676 0.0
C1033 C 0.793 0.79561 0.54982 0.0
C1034 C 0.83653 0.831 0.52175 0.0
O1035 O 0.84736 0.79046 0.56382 0.0
Mg1036 Mg 0.70469 0.30307 0.6081 0.0
O1037 O 0.71399 0.33046 0.61564 0.0
O1038 O 0.73572 0.33977 0.59973 0.0
Mg1039 Mg 0.74133 0.31571 0.58131 0.0
C1040 C 0.72467 0.34241 0.6117 0.0
C1041 C 0.66678 0.31116 0.61656 0.0
O1042 O 0.66538 0.30676 0.59953 0.0
O1043 O 0.69419 0.31548 0.58242 0.0
O1044 O 0.71688 0.32189 0.56639 0.0
O1045 O 0.72218 0.28923 0.62732 0.0
O1046 O 0.72849 0.29649 0.59937 0.0
C1047 C 0.70111 0.32155 0.56824 0.0
C1048 C 0.73305 0.28984 0.61453 0.0
O1049 O 0.68091 0.3099 0.62409 0.0
Mg1050 Mg 0.17446 0.18473 0.56042 0.0
O1051 O 0.18135 0.16285 0.58009 0.0
O1052 O 0.20527 0.14988 0.57195 0.0
Mg1053 Mg 0.21195 0.16189 0.54453 0.0
C1054 C 0.19308 0.15166 0.58274 0.0
C1055 C 0.14371 0.19199 0.587 0.0
O1056 O 0.13827 0.17621 0.58166 0.0
O1057 O 0.19585 0.20197 0.57013 0.0
O1058 O 0.21828 0.1888 0.55833 0.0
O1059 O 0.15902 0.16592 0.54389 0.0
O1060 O 0.1859 0.17039 0.54036 0.0
C1061 C 0.21144 0.20151 0.56722 0.0
C1062 C 0.1726 0.16228 0.53531 0.0
O1063 O 0.15734 0.19797 0.58085 0.0
Mg1064 Mg 0.28891 0.68451 0.58847 0.0
O1065 O 0.28302 0.66488 0.61101 0.0
O1066 O 0.25631 0.65737 0.61021 0.0
Mg1067 Mg 0.2445 0.67418 0.58769 0.0
C1068 C 0.27077 0.656 0.61707 0.0
C1069 C 0.32052 0.68076 0.6096 0.0
O1070 O 0.30908 0.68405 0.62169 0.0
O1071 O 0.28656 0.66172 0.56837 0.0
O1072 O 0.25906 0.65834 0.56608 0.0
O1073 O 0.28359 0.70837 0.60543 0.0
O1074 O 0.26476 0.6941 0.58915 0.0
C1075 C 0.27383 0.65459 0.56101 0.0
C1076 C 0.26834 0.70683 0.60023 0.0
O1077 O 0.31651 0.67995 0.59311 0.0
Mg1078 Mg 0.20147 0.81601 0.41754 0.0
O1079 O 0.2101 0.83767 0.39828 0.0
O1080 O 0.23472 0.84842 0.40677 0.0
Mg1081 Mg 0.24135 0.8337 0.43295 0.0
C1082 C 0.22235 0.84827 0.39606 0.0
C1083 C 0.17109 0.81822 0.3921 0.0
O1084 O 0.17307 0.8352 0.39646 0.0
O1085 O 0.22032 0.79594 0.40689 0.0
O1086 O 0.2439 0.80609 0.41897 0.0
O1087 O 0.18863 0.83641 0.43453 0.0
O1088 O 0.21479 0.82824 0.43804 0.0
C1089 C 0.2358 0.79424 0.41012 0.0
C1090 C 0.20254 0.83817 0.44306 0.0
O1091 O 0.18155 0.80677 0.39782 0.0
Mg1092 Mg 0.66729 0.70894 0.41569 0.0
O1093 O 0.67938 0.68631 0.39947 0.0
O1094 O 0.70502 0.68106 0.40935 0.0
Mg1095 Mg 0.70932 0.70081 0.43251 0.0
C1096 C 0.69301 0.67766 0.39871 0.0
C1097 C 0.63454 0.71429 0.39479 0.0
O1098 O 0.63848 0.73106 0.39834 0.0
O1099 O 0.66281 0.68975 0.43953 0.0
O1100 O 0.68913 0.68632 0.44854 0.0
O1101 O 0.67883 0.72933 0.39732 0.0
O1102 O 0.69033 0.71965 0.42254 0.0
C1103 C 0.67365 0.68299 0.45015 0.0
C1104 C 0.69118 0.72951 0.40841 0.0
O1105 O 0.64322 0.70175 0.4016 0.0
Mg1106 Mg 0.30469 0.30767 0.4001 0.0
O1107 O 0.29603 0.33156 0.38412 0.0
O1108 O 0.26974 0.33923 0.38942 0.0
Mg1109 Mg 0.26113 0.31852 0.41012 0.0
C1110 C 0.2836 0.34182 0.38161 0.0
C1111 C 0.34358 0.30481 0.39547 0.0
O1112 O 0.3417 0.2911 0.40642 0.0
O1113 O 0.30645 0.32626 0.42421 0.0
O1114 O 0.27959 0.33133 0.42987 0.0
O1115 O 0.29533 0.28819 0.37949 0.0
O1116 O 0.28039 0.29911 0.40199 0.0
C1117 C 0.29497 0.33361 0.43349 0.0
C1118 C 0.28124 0.28939 0.38774 0.0
O1119 O 0.33099 0.31411 0.39117 0.0
Mg1120 Mg 0.5716 0.17814 0.77973 0.0
O1121 O 0.58588 0.19229 0.8024 0.0
O1122 O 0.57782 0.22103 0.80397 0.0
Mg1123 Mg 0.55725 0.22464 0.78338 0.0
C1124 C 0.58673 0.20794 0.80944 0.0
C1125 C 0.58435 0.13886 0.77859 0.0
O1126 O 0.58166 0.14132 0.76135 0.0
O1127 O 0.54956 0.17618 0.79854 0.0
O1128 O 0.54185 0.205 0.80056 0.0
O1129 O 0.59022 0.18739 0.75942 0.0
O1130 O 0.56769 0.20253 0.76741 0.0
C1131 C 0.5403 0.18848 0.80501 0.0
C1132 C 0.58133 0.20185 0.75848 0.0
O1133 O 0.5812 0.1515 0.78952 0.0
Mg1134 Mg 0.44264 0.82736 0.79106 0.0
O1135 O 0.41874 0.82808 0.80816 0.0
O1136 O 0.41486 0.79936 0.81652 0.0
Mg1137 Mg 0.43385 0.78072 0.80382 0.0
C1138 C 0.4108 0.81594 0.81676 0.0
C1139 C 0.439 0.87073 0.79823 0.0
O1140 O 0.44594 0.88667 0.79924 0.0
O1141 O 0.45785 0.82235 0.81632 0.0
O1142 O 0.45387 0.79323 0.82205 0.0
O1143 O 0.42825 0.82323 0.76533 0.0
O1144 O 0.43682 0.80154 0.7833 0.0
C1145 C 0.46085 0.80826 0.82554 0.0
C1146 C 0.42872 0.80627 0.76921 0.0
O1147 O 0.44785 0.85734 0.79381 0.0
Mg1148 Mg 0.5715 0.81124 0.23156 0.0
O1149 O 0.58958 0.82024 0.20889 0.0
O1150 O 0.58627 0.79881 0.1879 0.0
Mg1151 Mg 0.57039 0.77559 0.19758 0.0
C1152 C 0.59241 0.8137 0.19325 0.0
C1153 C 0.57653 0.85301 0.24807 0.0
O1154 O 0.57096 0.86468 0.25989 0.0
O1155 O 0.5493 0.81804 0.21374 0.0
O1156 O 0.54794 0.79436 0.19532 0.0
O1157 O 0.59135 0.79607 0.24655 0.0
O1158 O 0.57609 0.78481 0.22479 0.0
C1159 C 0.54215 0.80923 0.20121 0.0
C1160 C 0.58758 0.78243 0.23653 0.0
O1161 O 0.56895 0.83816 0.2463 0.0
Mg1162 Mg 0.42232 0.19225 0.21047 0.0
O1163 O 0.41025 0.20323 0.18493 0.0
O1164 O 0.42375 0.22772 0.17526 0.0
Mg1165 Mg 0.44649 0.23035 0.19317 0.0
C1166 C 0.41198 0.21633 0.17401 0.0
C1167 C 0.39134 0.1662 0.20425 0.0
O1168 O 0.38377 0.18112 0.19956 0.0
O1169 O 0.44204 0.17879 0.19326 0.0
O1170 O 0.45552 0.20285 0.18278 0.0
O1171 O 0.40801 0.21178 0.22745 0.0
O1172 O 0.43229 0.21775 0.21502 0.0
C1173 C 0.45324 0.18586 0.18346 0.0
C1174 C 0.4196 0.2233 0.22396 0.0
O1175 O 0.40647 0.16681 0.20915 0.0
Mg1176 Mg 0.42843 0.27108 0.65904 0.0
O1177 O 0.41268 0.29302 0.67277 0.0
O1178 O 0.42283 0.29887 0.70007 0.0
Mg1179 Mg 0.44549 0.28104 0.70383 0.0
C1180 C 0.41225 0.30162 0.68764 0.0
C1181 C 0.39902 0.27435 0.63467 0.0
O1182 O 0.39322 0.26906 0.65027 0.0
O1183 O 0.44846 0.29203 0.65303 0.0
O1184 O 0.45784 0.2967 0.68097 0.0
O1185 O 0.41343 0.24923 0.67192 0.0
O1186 O 0.43551 0.26178 0.6843 0.0
C1187 C 0.4581 0.29997 0.66411 0.0
C1188 C 0.42307 0.25106 0.68566 0.0
O1189 O 0.41456 0.27671 0.633 0.0
Mg1190 Mg 0.57465 0.70685 0.65826 0.0
O1191 O 0.58618 0.68157 0.66983 0.0
O1192 O 0.57451 0.67362 0.69574 0.0
Mg1193 Mg 0.5531 0.69353 0.69927 0.0
C1194 C 0.58526 0.67122 0.68341 0.0
C1195 C 0.58871 0.70652 0.61741 0.0
O1196 O 0.57569 0.71595 0.6125 0.0
O1197 O 0.55301 0.69072 0.64736 0.0
O1198 O 0.54086 0.68324 0.67329 0.0
O1199 O 0.59146 0.72296 0.67585 0.0
O1200 O 0.56614 0.71446 0.68365 0.0
C1201 C 0.54158 0.68275 0.65612 0.0
C1202 C 0.57993 0.72208 0.6879 0.0
O1203 O 0.59018 0.70155 0.63365 0.0
Mg1204 Mg 0.57252 0.26772 0.31024 0.0
O1205 O 0.5964 0.28543 0.31148 0.0
O1206 O 0.59564 0.29897 0.28447 0.0
Mg1207 Mg 0.57377 0.2915 0.26706 0.0
C1208 C 0.60245 0.29625 0.29974 0.0
C1209 C 0.57444 0.26476 0.35588 0.0
O1210 O 0.56798 0.25567 0.36928 0.0
O1211 O 0.55781 0.29324 0.31495 0.0
O1212 O 0.55773 0.30634 0.28794 0.0
O1213 O 0.58521 0.244 0.29713 0.0
O1214 O 0.57437 0.26687 0.28258 0.0
C1215 C 0.55351 0.306 0.3045 0.0
C1216 C 0.58217 0.25184 0.28197 0.0
O1217 O 0.57046 0.26034 0.33997 0.0
Mg1218 Mg 0.42912 0.70465 0.33056 0.0
O1219 O 0.40926 0.68187 0.33287 0.0
O1220 O 0.41062 0.66917 0.30545 0.0
Mg1221 Mg 0.42763 0.68356 0.28604 0.0
C1222 C 0.40488 0.66982 0.32144 0.0
C1223 C 0.43106 0.70913 0.37712 0.0
O1224 O 0.44291 0.71432 0.38809 0.0
O1225 O 0.44964 0.68374 0.33059 0.0
O1226 O 0.44962 0.6731 0.30254 0.0
O1227 O 0.41015 0.72519 0.32152 0.0
O1228 O 0.42356 0.70642 0.30381 0.0
C1229 C 0.45573 0.6737 0.31837 0.0
C1230 C 0.41267 0.71887 0.30553 0.0
O1231 O 0.43415 0.709 0.36039 0.0
Mg1232 Mg 0.41815 0.76492 0.17977 0.0
O1233 O 0.40483 0.78922 0.19238 0.0
O1234 O 0.41423 0.79308 0.22041 0.0
Mg1235 Mg 0.43412 0.77204 0.22548 0.0
C1236 C 0.4048 0.7976 0.2074 0.0
C1237 C 0.41426 0.77624 0.13806 0.0
O1238 O 0.43051 0.77741 0.13756 0.0
O1239 O 0.44121 0.78232 0.17525 0.0
O1240 O 0.4497 0.78569 0.20369 0.0
O1241 O 0.39921 0.74629 0.19168 0.0
O1242 O 0.42231 0.75486 0.20531 0.0
C1243 C 0.45125 0.78875 0.18688 0.0
C1244 C 0.40833 0.74659 0.20598 0.0
O1245 O 0.40704 0.77193 0.15262 0.0
Mg1246 Mg 0.56924 0.20836 0.15094 0.0
O1247 O 0.58819 0.18498 0.15359 0.0
O1248 O 0.58315 0.17191 0.1801 0.0
Mg1249 Mg 0.56284 0.18678 0.1952 0.0
C1250 C 0.59116 0.17284 0.16533 0.0
C1251 C 0.58405 0.21132 0.10818 0.0
O1252 O 0.57977 0.21242 0.09117 0.0
O1253 O 0.54843 0.18802 0.14645 0.0
O1254 O 0.54393 0.17758 0.17415 0.0
O1255 O 0.58552 0.22915 0.1652 0.0
O1256 O 0.56886 0.21051 0.17907 0.0
C1257 C 0.5402 0.17835 0.15747 0.0
C1258 C 0.5798 0.22295 0.18015 0.0
O1259 O 0.5725 0.21073 0.11993 0.0
Mg1260 Mg 0.42268 0.20749 0.81652 0.0
O1261 O 0.40459 0.18502 0.80925 0.0
O1262 O 0.41178 0.1724 0.78318 0.0
Mg1263 Mg 0.43488 0.18718 0.77354 0.0
C1264 C 0.40227 0.17345 0.79683 0.0
C1265 C 0.4166 0.21478 0.8587 0.0
O1266 O 0.43117 0.22268 0.85894 0.0
O1267 O 0.44211 0.18677 0.82462 0.0
O1268 O 0.44939 0.17615 0.79763 0.0
O1269 O 0.40783 0.22757 0.80106 0.0
O1270 O 0.42801 0.21101 0.7895 0.0
C1271 C 0.45093 0.17649 0.81472 0.0
C1272 C 0.41635 0.22259 0.78719 0.0
O1273 O 0.4112 0.20792 0.84421 0.0
Mg1274 Mg 0.57126 0.7478 0.82531 0.0
O1275 O 0.59072 0.77087 0.82623 0.0
O1276 O 0.58025 0.79236 0.8085 0.0
Mg1277 Mg 0.55605 0.7836 0.7957 0.0
C1278 C 0.59144 0.78653 0.81913 0.0
C1279 C 0.59323 0.73545 0.86067 0.0
O1280 O 0.59766 0.72247 0.87164 0.0
O1281 O 0.55332 0.76346 0.84349 0.0
O1282 O 0.54447 0.7839 0.82365 0.0
O1283 O 0.58373 0.7358 0.80109 0.0
O1284 O 0.56359 0.75581 0.79994 0.0
C1285 C 0.54428 0.77696 0.83934 0.0
C1286 C 0.57405 0.74587 0.79153 0.0
O1287 O 0.58233 0.7322 0.8488 0.0
Mg1288 Mg 0.57967 0.65258 0.27288 0.0
O1289 O 0.58886 0.66658 0.29851 0.0
O1290 O 0.57734 0.69379 0.30083 0.0
Mg1291 Mg 0.55928 0.69635 0.27735 0.0
C1292 C 0.58698 0.68153 0.30673 0.0
C1293 C 0.59308 0.61384 0.27094 0.0
O1294 O 0.58371 0.61436 0.25649 0.0
O1295 O 0.55559 0.64526 0.2872 0.0
O1296 O 0.5447 0.67289 0.28953 0.0
O1297 O 0.59926 0.6668 0.25684 0.0
O1298 O 0.57391 0.67728 0.26145 0.0
C1299 C 0.54422 0.65598 0.29247 0.0
C1300 C 0.58851 0.67956 0.25493 0.0
O1301 O 0.59256 0.62704 0.28176 0.0
Mg1302 Mg 0.43737 0.34229 0.29211 0.0
O1303 O 0.41967 0.33644 0.31609 0.0
O1304 O 0.42365 0.30781 0.32432 0.0
Mg1305 Mg 0.44318 0.29505 0.30652 0.0
C1306 C 0.41642 0.32296 0.32617 0.0
C1307 C 0.42422 0.38584 0.29319 0.0
O1308 O 0.4293 0.40248 0.29538 0.0
O1309 O 0.45926 0.34324 0.3115 0.0
O1310 O 0.46233 0.31423 0.31862 0.0
O1311 O 0.41911 0.33159 0.27114 0.0
O1312 O 0.43702 0.31499 0.28602 0.0
C1313 C 0.46675 0.33067 0.31989 0.0
C1314 C 0.42503 0.31587 0.2748 0.0
O1315 O 0.43496 0.37328 0.2945 0.0
Mg1316 Mg 0.42281 0.69318 0.69333 0.0
O1317 O 0.40639 0.69694 0.66889 0.0
O1318 O 0.41472 0.72001 0.65205 0.0
Mg1319 Mg 0.43748 0.73126 0.66658 0.0
C1320 C 0.40494 0.70688 0.65504 0.0
C1321 C 0.39586 0.66288 0.69661 0.0
O1322 O 0.38629 0.67614 0.69126 0.0
O1323 O 0.44225 0.68091 0.67524 0.0
O1324 O 0.45142 0.70485 0.66009 0.0
O1325 O 0.40784 0.71215 0.70974 0.0
O1326 O 0.42899 0.72047 0.6928 0.0
C1327 C 0.45184 0.68802 0.66363 0.0
C1328 C 0.41724 0.7249 0.70371 0.0
O1329 O 0.41132 0.66567 0.69859 0.0
Mg1330 Mg 0.56863 0.33021 0.7195 0.0
O1331 O 0.59053 0.33584 0.69953 0.0
O1332 O 0.58886 0.31172 0.6814 0.0
Mg1333 Mg 0.57006 0.2909 0.68998 0.0
C1334 C 0.59528 0.32681 0.68573 0.0
C1335 C 0.5722 0.37296 0.73371 0.0
O1336 O 0.56508 0.38549 0.74349 0.0
O1337 O 0.5497 0.33617 0.69756 0.0
O1338 O 0.54953 0.31063 0.6818 0.0
O1339 O 0.58544 0.31641 0.73914 0.0
O1340 O 0.57296 0.30308 0.71644 0.0
C1341 C 0.54389 0.32637 0.68496 0.0
C1342 C 0.58277 0.30187 0.73002 0.0
O1343 O 0.56469 0.35816 0.73148 0.0
H1344 H 0.09528 0.24913 0.2478 0.0
H1345 H 0.05145 0.25094 0.21446 0.0
H1346 H 0.04779 0.2187 0.2179 0.0
H1347 H 0.05424 0.19107 0.23446 0.0
H1348 H 0.09776 0.18865 0.26787 0.0
H1349 H 0.10451 0.21991 0.26022 0.0
C1350 C 0.08516 0.24239 0.24096 0.0
C1351 C 0.07351 0.25254 0.23114 0.0
C1352 C 0.08299 0.22373 0.24314 0.0
C1353 C 0.06055 0.24356 0.22221 0.0
C1354 C 0.05838 0.22508 0.22423 0.0
C1355 C 0.06551 0.19725 0.23951 0.0
C1356 C 0.07558 0.18773 0.25155 0.0
C1357 C 0.06911 0.21519 0.23524 0.0
C1358 C 0.09003 0.19576 0.25831 0.0
C1359 C 0.09375 0.21367 0.2541 0.0
H1360 H 0.72252 0.09388 0.22943 0.0
H1361 H 0.7233 0.03632 0.22244 0.0
H1362 H 0.74601 0.03378 0.24404 0.0
H1363 H 0.76601 0.04791 0.26428 0.0
H1364 H 0.76764 0.10563 0.26902 0.0
H1365 H 0.74355 0.10824 0.24899 0.0
C1366 C 0.72768 0.08082 0.23273 0.0
C1367 C 0.72128 0.06528 0.2245 0.0
C1368 C 0.7411 0.07953 0.24472 0.0
C1369 C 0.72813 0.04844 0.2286 0.0
C1370 C 0.74105 0.04698 0.24097 0.0
C1371 C 0.76097 0.06105 0.26105 0.0
C1372 C 0.76837 0.07654 0.2682 0.0
C1373 C 0.74766 0.06242 0.24904 0.0
C1374 C 0.76203 0.09353 0.26366 0.0
C1375 C 0.74831 0.09501 0.25222 0.0
H1376 H 0.94463 0.7448 0.21936 0.0
H1377 H 0.89358 0.73532 0.23367 0.0
H1378 H 0.89148 0.76589 0.24586 0.0
H1379 H 0.90537 0.79382 0.25586 0.0
H1380 H 0.95757 0.80076 0.24556 0.0
H1381 H 0.95814 0.77272 0.22838 0.0
C1382 C 0.93291 0.74961 0.22471 0.0
C1383 C 0.91922 0.73798 0.22548 0.0
C1384 C 0.93216 0.76666 0.23268 0.0
C1385 C 0.90424 0.74415 0.23285 0.0
C1386 C 0.90309 0.76155 0.23993 0.0
C1387 C 0.91675 0.78927 0.24954 0.0
C1388 C 0.9314 0.79924 0.25178 0.0
C1389 C 0.91713 0.7727 0.24045 0.0
C1390 C 0.94619 0.79319 0.24393 0.0
C1391 C 0.9465 0.77721 0.23413 0.0
H1392 H 0.26726 0.93316 0.22515 0.0
H1393 H 0.26371 0.8755 0.22047 0.0
H1394 H 0.23716 0.87597 0.23645 0.0
H1395 H 0.21512 0.89287 0.25219 0.0
H1396 H 0.21987 0.95038 0.25816 0.0
H1397 H 0.24583 0.94982 0.24142 0.0
C1398 C 0.2606 0.92071 0.22748 0.0
C1399 C 0.26734 0.90435 0.22149 0.0
C1400 C 0.24562 0.92104 0.23708 0.0
C1401 C 0.25873 0.88829 0.22489 0.0
C1402 C 0.24357 0.88854 0.23406 0.0
C1403 C 0.22186 0.90526 0.24985 0.0
C1404 C 0.21554 0.92164 0.25642 0.0
C1405 C 0.23694 0.90484 0.24032 0.0
C1406 C 0.22447 0.93757 0.25334 0.0
C1407 C 0.2393 0.93729 0.24369 0.0
H1408 H 0.10016 0.69965 0.7658 0.0
H1409 H 0.08896 0.67467 0.71505 0.0
H1410 H 0.09733 0.70196 0.69917 0.0
H1411 H 0.09954 0.73493 0.70095 0.0
H1412 H 0.10958 0.76025 0.75187 0.0
H1413 H 0.11038 0.73084 0.76656 0.0
C1414 C 0.10048 0.69992 0.75122 0.0
C1415 C 0.09383 0.68542 0.74152 0.0
C1416 C 0.10464 0.7159 0.74232 0.0
C1417 C 0.09415 0.68573 0.72269 0.0
C1418 C 0.09865 0.70145 0.71366 0.0
C1419 C 0.10254 0.73387 0.71512 0.0
C1420 C 0.10409 0.74955 0.72548 0.0
C1421 C 0.10265 0.71698 0.72346 0.0
C1422 C 0.10827 0.74824 0.74373 0.0
C1423 C 0.10857 0.73145 0.75214 0.0
H1424 H 0.25589 0.13012 0.77148 0.0
H1425 H 0.23627 0.08462 0.8006 0.0
H1426 H 0.20965 0.08832 0.78584 0.0
H1427 H 0.19331 0.10146 0.76169 0.0
H1428 H 0.21226 0.1463 0.7315 0.0
H1429 H 0.23775 0.14608 0.74973 0.0
C1430 C 0.24569 0.12124 0.77484 0.0
C1431 C 0.24818 0.10695 0.787 0.0
C1432 C 0.23037 0.12323 0.76597 0.0
C1433 C 0.2348 0.09564 0.79126 0.0
C1434 C 0.21954 0.0977 0.78276 0.0
C1435 C 0.2029 0.11143 0.7594 0.0
C1436 C 0.20113 0.12377 0.74532 0.0
C1437 C 0.21741 0.11099 0.76966 0.0
C1438 C 0.21345 0.13674 0.7424 0.0
C1439 C 0.22803 0.13649 0.75271 0.0
H1440 H 0.89711 0.21555 0.72048 0.0
H1441 H 0.91755 0.18472 0.76417 0.0
H1442 H 0.91521 0.21083 0.78414 0.0
H1443 H 0.91113 0.24359 0.78765 0.0
H1444 H 0.88995 0.27411 0.74409 0.0
H1445 H 0.88862 0.24696 0.72555 0.0
C1446 C 0.9007 0.21449 0.73448 0.0
C1447 C 0.9077 0.19841 0.74085 0.0
C1448 C 0.89941 0.22956 0.74577 0.0
C1449 C 0.91207 0.19699 0.75905 0.0
C1450 C 0.9109 0.21197 0.77039 0.0
C1451 C 0.90608 0.24422 0.77417 0.0
C1452 C 0.90101 0.26084 0.76705 0.0
C1453 C 0.90523 0.22852 0.76367 0.0
C1454 C 0.89401 0.26144 0.74978 0.0
C1455 C 0.89332 0.24595 0.73916 0.0
H1456 H 0.72304 0.86872 0.75495 0.0
H1457 H 0.70666 0.92347 0.74821 0.0
H1458 H 0.72875 0.92895 0.72653 0.0
H1459 H 0.75455 0.9195 0.71248 0.0
H1460 H 0.77305 0.86577 0.7211 0.0
H1461 H 0.74833 0.85846 0.73875 0.0
C1462 C 0.72421 0.88169 0.74841 0.0
C1463 C 0.71336 0.89571 0.75311 0.0
C1464 C 0.73741 0.88497 0.73643 0.0
C1465 C 0.715 0.91255 0.74481 0.0
C1466 C 0.72761 0.91569 0.73243 0.0
C1467 C 0.75307 0.90607 0.71792 0.0
C1468 C 0.7657 0.89327 0.71558 0.0
C1469 C 0.73919 0.9022 0.72858 0.0
C1470 C 0.76354 0.87593 0.72277 0.0
C1471 C 0.74943 0.87176 0.73294 0.0
H1472 H 0.2925 0.05253 0.24707 0.0
H1473 H 0.26378 0.06521 0.19978 0.0
H1474 H 0.23906 0.06952 0.21827 0.0
H1475 H 0.22541 0.06845 0.24765 0.0
H1476 H 0.25362 0.05366 0.29468 0.0
H1477 H 0.27881 0.05149 0.27652 0.0
C1478 C 0.28084 0.05635 0.24085 0.0
C1479 C 0.27993 0.05853 0.22213 0.0
C1480 C 0.26662 0.05839 0.25149 0.0
C1481 C 0.26474 0.06332 0.21418 0.0
C1482 C 0.25063 0.06583 0.22473 0.0
C1483 C 0.23711 0.06494 0.25395 0.0
C1484 C 0.2377 0.06127 0.27245 0.0
C1485 C 0.2514 0.06323 0.24337 0.0
C1486 C 0.25287 0.05648 0.28042 0.0
C1487 C 0.26726 0.05525 0.27006 0.0
H1488 H 0.907 0.28493 0.23829 0.0
H1489 H 0.90314 0.23612 0.2072 0.0
H1490 H 0.89942 0.21873 0.2347 0.0
H1491 H 0.90149 0.21696 0.26767 0.0
H1492 H 0.90476 0.26558 0.29889 0.0
H1493 H 0.9044 0.28359 0.27127 0.0
C1494 C 0.90501 0.27055 0.2375 0.0
C1495 C 0.90568 0.26181 0.22074 0.0
C1496 C 0.90301 0.2606 0.25341 0.0
C1497 C 0.90277 0.24319 0.21992 0.0
C1498 C 0.90077 0.2332 0.23567 0.0
C1499 C 0.90183 0.23151 0.26836 0.0
C1500 C 0.90339 0.24002 0.28511 0.0
C1501 C 0.90155 0.24168 0.25249 0.0
C1502 C 0.90357 0.25884 0.28604 0.0
C1503 C 0.90345 0.26909 0.27027 0.0
H1504 H 0.72172 0.93809 0.20101 0.0
H1505 H 0.68182 0.94644 0.23856 0.0
H1506 H 0.7013 0.94295 0.26383 0.0
H1507 H 0.73029 0.93868 0.27494 0.0
H1508 H 0.76909 0.92841 0.2362 0.0
H1509 H 0.74944 0.93146 0.21176 0.0
C1510 C 0.71729 0.93913 0.21475 0.0
C1511 C 0.70051 0.94278 0.21801 0.0
C1512 C 0.72838 0.93677 0.22898 0.0
C1513 C 0.69477 0.9437 0.23581 0.0
C1514 C 0.7059 0.94176 0.2502 0.0
C1515 C 0.73434 0.93701 0.26115 0.0
C1516 C 0.75115 0.93337 0.25745 0.0
C1517 C 0.72282 0.93847 0.24694 0.0
C1518 C 0.75623 0.93109 0.2395 0.0
C1519 C 0.74502 0.93291 0.22544 0.0
H1520 H 0.10091 0.75726 0.24269 0.0
H1521 H 0.09006 0.70276 0.25834 0.0
H1522 H 0.0883 0.71192 0.28981 0.0
H1523 H 0.08498 0.73637 0.31198 0.0
H1524 H 0.09311 0.79113 0.29546 0.0
H1525 H 0.10104 0.78108 0.26543 0.0
C1526 C 0.09866 0.74732 0.25307 0.0
C1527 C 0.09538 0.72944 0.24823 0.0
C1528 C 0.09693 0.75285 0.27101 0.0
C1529 C 0.09233 0.71668 0.26175 0.0
C1530 C 0.09131 0.72192 0.27974 0.0
C1531 C 0.08896 0.74597 0.3019 0.0
C1532 C 0.08834 0.76442 0.30573 0.0
C1533 C 0.09282 0.74011 0.28442 0.0
C1534 C 0.09331 0.77686 0.29263 0.0
C1535 C 0.09783 0.77112 0.27548 0.0
H1536 H 0.24965 0.93579 0.70537 0.0
H1537 H 0.21071 0.93069 0.74485 0.0
H1538 H 0.23134 0.92666 0.76848 0.0
H1539 H 0.2602 0.92979 0.77844 0.0
H1540 H 0.29931 0.9347 0.73932 0.0
H1541 H 0.27889 0.93324 0.71492 0.0
C1542 C 0.2457 0.93346 0.7191 0.0
C1543 C 0.2287 0.93397 0.72343 0.0
C1544 C 0.25764 0.93125 0.73266 0.0
C1545 C 0.22372 0.93053 0.74119 0.0
C1546 C 0.23551 0.92831 0.75474 0.0
C1547 C 0.26424 0.93007 0.76453 0.0
C1548 C 0.2811 0.93263 0.76057 0.0
C1549 C 0.25246 0.92943 0.75072 0.0
C1550 C 0.28635 0.93275 0.7426 0.0
C1551 C 0.27466 0.93208 0.7287 0.0
H1552 H 0.08024 0.27585 0.71079 0.0
H1553 H 0.07359 0.21838 0.71126 0.0
H1554 H 0.07746 0.21782 0.74382 0.0
H1555 H 0.07819 0.23431 0.77249 0.0
H1556 H 0.08198 0.29207 0.77211 0.0
H1557 H 0.08417 0.29198 0.73933 0.0
C1558 C 0.08006 0.26319 0.71802 0.0
C1559 C 0.07633 0.24723 0.7088 0.0
C1560 C 0.08165 0.26309 0.73681 0.0
C1561 C 0.07604 0.23088 0.71821 0.0
C1562 C 0.0783 0.23056 0.73681 0.0
C1563 C 0.07998 0.24679 0.7652 0.0
C1564 C 0.07977 0.26318 0.77452 0.0
C1565 C 0.08042 0.24666 0.74633 0.0
C1566 C 0.08188 0.27933 0.76506 0.0
C1567 C 0.08311 0.27927 0.74635 0.0
H1568 H 0.732 0.07084 0.72463 0.0
H1569 H 0.77115 0.0974 0.75411 0.0
H1570 H 0.75514 0.09504 0.78168 0.0
H1571 H 0.73222 0.08091 0.79828 0.0
H1572 H 0.69259 0.05528 0.76902 0.0
H1573 H 0.70652 0.06188 0.74057 0.0
C1574 C 0.73688 0.0765 0.73699 0.0
C1575 C 0.75299 0.08382 0.73731 0.0
C1576 C 0.72764 0.07498 0.75295 0.0
C1577 C 0.75892 0.09143 0.75342 0.0
C1578 C 0.74981 0.08998 0.76929 0.0
C1579 C 0.72652 0.07708 0.78563 0.0
C1580 C 0.71161 0.06734 0.78569 0.0
C1581 C 0.73453 0.08103 0.76935 0.0
C1582 C 0.70413 0.06273 0.76927 0.0
C1583 C 0.71213 0.06642 0.75301 0.0
H1584 H 0.91372 0.73673 0.73801 0.0
H1585 H 0.90543 0.78912 0.7609 0.0
H1586 H 0.90668 0.7764 0.79127 0.0
H1587 H 0.91413 0.7512 0.811 0.0
H1588 H 0.92576 0.69958 0.78767 0.0
H1589 H 0.91915 0.711 0.75787 0.0
C1590 C 0.91163 0.74516 0.74971 0.0
C1591 C 0.90917 0.76367 0.74745 0.0
C1592 C 0.91331 0.73792 0.76702 0.0
C1593 C 0.90702 0.77474 0.76251 0.0
C1594 C 0.90792 0.7675 0.77981 0.0
C1595 C 0.91494 0.74236 0.79944 0.0
C1596 C 0.9205 0.72457 0.8016 0.0
C1597 C 0.91168 0.74923 0.78221 0.0
C1598 C 0.92159 0.71333 0.78645 0.0
C1599 C 0.91781 0.71987 0.76935 0.0
H1600 H 0.22533 0.27613 0.1027 0.0
H1601 H 0.19229 0.23072 0.10031 0.0
H1602 H 0.21559 0.2102 0.10574 0.0
H1603 H 0.24571 0.20533 0.10779 0.0
H1604 H 0.2786 0.25093 0.11128 0.0
H1605 H 0.25494 0.27137 0.10928 0.0
C1606 C 0.22329 0.26174 0.10358 0.0
C1607 C 0.20736 0.25476 0.10083 0.0
C1608 C 0.23666 0.25017 0.10693 0.0
C1609 C 0.20459 0.23623 0.10233 0.0
C1610 C 0.21788 0.22455 0.10538 0.0
C1611 C 0.24767 0.21972 0.10841 0.0
C1612 C 0.26386 0.22663 0.10935 0.0
C1613 C 0.23403 0.23137 0.10721 0.0
C1614 C 0.26622 0.2453 0.11052 0.0
C1615 C 0.25273 0.257 0.10922 0.0
H1616 H 0.20484 0.73837 0.89258 0.0
H1617 H 0.22615 0.7056 0.85087 0.0
H1618 H 0.24875 0.72752 0.84701 0.0
H1619 H 0.26389 0.75426 0.85825 0.0
H1620 H 0.24216 0.78621 0.90065 0.0
H1621 H 0.21804 0.76665 0.90119 0.0
C1622 C 0.2143 0.73626 0.88242 0.0
C1623 C 0.21404 0.72054 0.87206 0.0
C1624 C 0.22715 0.74876 0.88046 0.0
C1625 C 0.22621 0.71775 0.8589 0.0
C1626 C 0.23911 0.73022 0.85679 0.0
C1627 C 0.25373 0.75714 0.86735 0.0
C1628 C 0.25496 0.7716 0.87954 0.0
C1629 C 0.23994 0.74554 0.86787 0.0
C1630 C 0.24165 0.77515 0.89122 0.0
C1631 C 0.22784 0.76391 0.8916 0.0
H1632 H 0.25031 0.28327 0.94183 0.0
H1633 H 0.20761 0.24944 0.93299 0.0
H1634 H 0.22499 0.22265 0.93561 0.0
H1635 H 0.25172 0.20892 0.94384 0.0
H1636 H 0.29471 0.24256 0.95127 0.0
H1637 H 0.27787 0.26939 0.94564 0.0
C1638 C 0.24488 0.27002 0.9402 0.0
C1639 C 0.22768 0.26831 0.93749 0.0
C1640 C 0.25496 0.25469 0.94164 0.0
C1641 C 0.22082 0.25111 0.9351 0.0
C1642 C 0.23073 0.23578 0.93672 0.0
C1643 C 0.2574 0.22213 0.94399 0.0
C1644 C 0.27431 0.22386 0.94823 0.0
C1645 C 0.2477 0.23742 0.94054 0.0
C1646 C 0.28168 0.24096 0.94808 0.0
C1647 C 0.27205 0.25628 0.94494 0.0
H1648 H 0.73106 0.21476 0.91301 0.0
H1649 H 0.69556 0.25542 0.8981 0.0
H1650 H 0.71775 0.27771 0.89559 0.0
H1651 H 0.74707 0.28613 0.90021 0.0
H1652 H 0.78295 0.24487 0.91209 0.0
H1653 H 0.76094 0.22223 0.91301 0.0
C1654 C 0.7283 0.22845 0.909 0.0
C1655 C 0.71179 0.2336 0.90596 0.0
C1656 C 0.74117 0.24105 0.9071 0.0
C1657 C 0.70825 0.25125 0.90049 0.0
C1658 C 0.7209 0.26399 0.89914 0.0
C1659 C 0.75001 0.27212 0.90272 0.0
C1660 C 0.76646 0.26711 0.90627 0.0
C1661 C 0.73736 0.25914 0.90279 0.0
C1662 C 0.7703 0.24894 0.90929 0.0
C1663 C 0.75774 0.23604 0.90992 0.0
H1664 H 0.74246 0.71245 0.93477 0.0
H1665 H 0.78777 0.74238 0.92751 0.0
H1666 H 0.77199 0.77037 0.92549 0.0
H1667 H 0.74555 0.78661 0.92933 0.0
H1668 H 0.70012 0.75656 0.93488 0.0
H1669 H 0.71566 0.72833 0.9339 0.0
C1670 C 0.74882 0.72508 0.93244 0.0
C1671 C 0.76623 0.72541 0.93155 0.0
C1672 C 0.73967 0.7411 0.93118 0.0
C1673 C 0.77436 0.74179 0.92824 0.0
C1674 C 0.76536 0.75782 0.92723 0.0
C1675 C 0.73908 0.77384 0.9301 0.0
C1676 C 0.7218 0.77359 0.93247 0.0
C1677 C 0.74806 0.75768 0.92925 0.0
C1678 C 0.71345 0.75704 0.93311 0.0
C1679 C 0.72233 0.74091 0.93263 0.0
H1680 H 0.72224 0.76883 0.1221 0.0
H1681 H 0.72218 0.77159 0.06412 0.0
H1682 H 0.74466 0.74983 0.06278 0.0
H1683 H 0.76391 0.72962 0.07774 0.0
H1684 H 0.76598 0.72765 0.13558 0.0
H1685 H 0.74313 0.74951 0.13737 0.0
C1686 C 0.72723 0.7647 0.10921 0.0
C1687 C 0.72051 0.77178 0.09323 0.0
C1688 C 0.74043 0.75229 0.10851 0.0
C1689 C 0.72716 0.76643 0.07662 0.0
C1690 C 0.73998 0.75391 0.07582 0.0
C1691 C 0.75933 0.73391 0.09076 0.0
C1692 C 0.76641 0.7269 0.1065 0.0
C1693 C 0.74661 0.74668 0.09163 0.0
C1694 C 0.76062 0.73285 0.12328 0.0
C1695 C 0.74759 0.74532 0.12429 0.0
H1696 H 0.24088 0.79053 0.06241 0.0
H1697 H 0.28423 0.75648 0.06071 0.0
H1698 H 0.26665 0.72981 0.06164 0.0
H1699 H 0.23895 0.71634 0.05837 0.0
H1700 H 0.1956 0.75031 0.06047 0.0
H1701 H 0.21319 0.7768 0.06412 0.0
C1702 C 0.24649 0.77727 0.06258 0.0
C1703 C 0.26382 0.77551 0.06111 0.0
C1704 C 0.23631 0.76197 0.06295 0.0
C1705 C 0.27093 0.75825 0.06171 0.0
C1706 C 0.26087 0.74296 0.06211 0.0
C1707 C 0.23337 0.72952 0.0599 0.0
C1708 C 0.21604 0.73142 0.05879 0.0
C1709 C 0.24355 0.74469 0.06199 0.0
C1710 C 0.20892 0.74851 0.06117 0.0
C1711 C 0.21897 0.76368 0.06318 0.0
H1712 H 0.79112 0.26526 0.06201 0.0
H1713 H 0.75121 0.29986 0.07918 0.0
H1714 H 0.73372 0.27369 0.085 0.0
H1715 H 0.7288 0.24151 0.08195 0.0
H1716 H 0.76743 0.20699 0.06142 0.0
H1717 H 0.78656 0.23255 0.06037 0.0
C1718 C 0.77869 0.26698 0.06732 0.0
C1719 C 0.77238 0.28435 0.07014 0.0
C1720 C 0.7685 0.25192 0.0699 0.0
C1721 C 0.75622 0.28655 0.07681 0.0
C1722 C 0.74625 0.27162 0.08013 0.0
C1723 C 0.74151 0.23949 0.07758 0.0
C1724 C 0.74672 0.22244 0.07174 0.0
C1725 C 0.75211 0.25431 0.07625 0.0
C1726 C 0.76314 0.22005 0.06589 0.0
C1727 C 0.77404 0.23465 0.06525 0.0
H1728 H 0.73352 0.56527 0.73564 0.0
H1729 H 0.72912 0.62289 0.73924 0.0
H1730 H 0.75165 0.62372 0.76141 0.0
H1731 H 0.77264 0.6079 0.77963 0.0
H1732 H 0.77508 0.54998 0.77803 0.0
H1733 H 0.75305 0.54932 0.75542 0.0
C1734 C 0.73762 0.578 0.74121 0.0
C1735 C 0.72998 0.59404 0.73565 0.0
C1736 C 0.75005 0.57826 0.75441 0.0
C1737 C 0.735 0.61043 0.74325 0.0
C1738 C 0.74781 0.61088 0.75593 0.0
C1739 C 0.76827 0.59514 0.77437 0.0
C1740 C 0.77552 0.57901 0.78035 0.0
C1741 C 0.75541 0.59486 0.76162 0.0
C1742 C 0.76963 0.56256 0.77365 0.0
C1743 C 0.75713 0.56218 0.76065 0.0
H1744 H 0.22472 0.42089 0.75965 0.0
H1745 H 0.22628 0.36405 0.77051 0.0
H1746 H 0.25251 0.36152 0.75383 0.0
H1747 H 0.27572 0.37616 0.7375 0.0
H1748 H 0.27281 0.43306 0.72623 0.0
H1749 H 0.24625 0.43481 0.74146 0.0
C1750 C 0.23079 0.40793 0.75827 0.0
C1751 C 0.22382 0.39272 0.76639 0.0
C1752 C 0.24558 0.4066 0.74855 0.0
C1753 C 0.23152 0.37593 0.76432 0.0
C1754 C 0.24651 0.37452 0.75486 0.0
C1755 C 0.26919 0.38889 0.73828 0.0
C1756 C 0.27633 0.40447 0.73082 0.0
C1757 C 0.25377 0.38985 0.74711 0.0
C1758 C 0.26765 0.42084 0.7318 0.0
C1759 C 0.25246 0.42191 0.74059 0.0
H1760 H 0.20047 0.5865 0.24526 0.0
H1761 H 0.22472 0.61142 0.20018 0.0
H1762 H 0.24934 0.61729 0.21863 0.0
H1763 H 0.26529 0.61138 0.24625 0.0
H1764 H 0.24234 0.58245 0.28977 0.0
H1765 H 0.21591 0.58217 0.27355 0.0
C1766 C 0.211 0.59368 0.23972 0.0
C1767 C 0.21081 0.59879 0.22156 0.0
C1768 C 0.22543 0.59599 0.25011 0.0
C1769 C 0.22462 0.60759 0.21423 0.0
C1770 C 0.23871 0.61081 0.22473 0.0
C1771 C 0.25437 0.60538 0.2523 0.0
C1772 C 0.25569 0.59692 0.26913 0.0
C1773 C 0.23947 0.60451 0.2425 0.0
C1774 C 0.2416 0.58892 0.27676 0.0
C1775 C 0.2265 0.58876 0.26749 0.0
H1776 H 0.77826 0.38711 0.24153 0.0
H1777 H 0.7795 0.44509 0.24087 0.0
H1778 H 0.75671 0.44629 0.2623 0.0
H1779 H 0.73462 0.4312 0.27851 0.0
H1780 H 0.73119 0.37334 0.27747 0.0
H1781 H 0.75672 0.3717 0.25971 0.0
C1782 C 0.77364 0.39994 0.24633 0.0
C1783 C 0.78039 0.41599 0.23957 0.0
C1784 C 0.7601 0.40056 0.25826 0.0
C1785 C 0.77432 0.43257 0.24575 0.0
C1786 C 0.76132 0.43328 0.25802 0.0
C1787 C 0.73959 0.41819 0.2747 0.0
C1788 C 0.73097 0.40244 0.27921 0.0
C1789 C 0.75383 0.4174 0.26398 0.0
C1790 C 0.73758 0.38569 0.2741 0.0
C1791 C 0.75213 0.38475 0.26387 0.0
H1792 H 0.24839 0.55593 0.71561 0.0
H1793 H 0.28205 0.56384 0.76009 0.0
H1794 H 0.25872 0.56612 0.78072 0.0
H1795 H 0.22915 0.56204 0.78666 0.0
H1796 H 0.19507 0.55452 0.74271 0.0
H1797 H 0.21812 0.55634 0.72119 0.0
C1798 C 0.25058 0.55829 0.7298 0.0
C1799 C 0.26693 0.55932 0.73637 0.0
C1800 C 0.23706 0.55971 0.74163 0.0
C1801 C 0.2696 0.56282 0.75471 0.0
C1802 C 0.25627 0.56412 0.76653 0.0
C1803 C 0.22677 0.56126 0.77231 0.0
C1804 C 0.21062 0.55802 0.76615 0.0
C1805 C 0.24002 0.56207 0.76021 0.0
C1806 C 0.20749 0.55712 0.74763 0.0
C1807 C 0.22067 0.55795 0.7354 0.0
H1808 H 0.72402 0.43731 0.70058 0.0
H1809 H 0.6872 0.4602 0.73571 0.0
H1810 H 0.70539 0.4551 0.76173 0.0
H1811 H 0.73307 0.44696 0.77369 0.0
H1812 H 0.76914 0.42294 0.73805 0.0
H1813 H 0.74981 0.42532 0.71309 0.0
C1814 C 0.71993 0.44092 0.71401 0.0
C1815 C 0.70452 0.4493 0.71636 0.0
C1816 C 0.73033 0.43781 0.72875 0.0
C1817 C 0.6991 0.45374 0.73372 0.0
C1818 C 0.70952 0.4509 0.74852 0.0
C1819 C 0.7366 0.44203 0.76052 0.0
C1820 C 0.75267 0.4351 0.75772 0.0
C1821 C 0.72537 0.44338 0.74611 0.0
C1822 C 0.75693 0.42847 0.74062 0.0
C1823 C 0.74591 0.42989 0.72627 0.0
H1824 H 0.2319 0.42051 0.19528 0.0
H1825 H 0.1943 0.44024 0.23145 0.0
H1826 H 0.21426 0.43986 0.2563 0.0
H1827 H 0.24331 0.4379 0.2664 0.0
H1828 H 0.28065 0.41756 0.23014 0.0
H1829 H 0.2598 0.41397 0.2066 0.0
C1830 C 0.22804 0.42441 0.2087 0.0
C1831 C 0.21186 0.43072 0.21159 0.0
C1832 C 0.23954 0.42423 0.22277 0.0
C1833 C 0.20678 0.43541 0.229 0.0
C1834 C 0.2182 0.43532 0.24313 0.0
C1835 C 0.24681 0.4325 0.25339 0.0
C1836 C 0.2635 0.4284 0.24979 0.0
C1837 C 0.23476 0.43042 0.23997 0.0
C1838 C 0.26788 0.42097 0.23311 0.0
C1839 C 0.25599 0.41896 0.21965 0.0
H1840 H 0.78791 0.53367 0.24854 0.0
H1841 H 0.78588 0.59004 0.23548 0.0
H1842 H 0.76963 0.59597 0.26269 0.0
H1843 H 0.75319 0.58431 0.28797 0.0
H1844 H 0.75626 0.5281 0.3018 0.0
H1845 H 0.77545 0.52296 0.27692 0.0
C1846 C 0.78406 0.54725 0.25186 0.0
C1847 C 0.78773 0.56139 0.24005 0.0
C1848 C 0.77505 0.55057 0.26767 0.0
C1849 C 0.78302 0.579 0.24446 0.0
C1850 C 0.77376 0.58236 0.25996 0.0
C1851 C 0.75844 0.57105 0.28582 0.0
C1852 C 0.75315 0.55657 0.29651 0.0
C1853 C 0.76933 0.56817 0.2714 0.0
C1854 C 0.76016 0.53948 0.29377 0.0
C1855 C 0.77097 0.53648 0.27939 0.0
H1856 H 0.20686 0.75793 0.60282 0.0
H1857 H 0.24498 0.79672 0.59084 0.0
H1858 H 0.26639 0.77401 0.59632 0.0
H1859 H 0.2739 0.74232 0.60051 0.0
H1860 H 0.23551 0.70271 0.60782 0.0
H1861 H 0.21447 0.7265 0.60855 0.0
C1862 C 0.21988 0.76146 0.60181 0.0
C1863 C 0.22443 0.77888 0.59644 0.0
C1864 C 0.23199 0.74813 0.60406 0.0
C1865 C 0.24126 0.78332 0.59484 0.0
C1866 C 0.25346 0.77036 0.59797 0.0
C1867 C 0.26095 0.739 0.60274 0.0
C1868 C 0.25615 0.72092 0.60424 0.0
C1869 C 0.24894 0.7526 0.60202 0.0
C1870 C 0.23938 0.7166 0.60669 0.0
C1871 C 0.2274 0.73017 0.60702 0.0
H1872 H 0.20986 0.2584 0.38162 0.0
H1873 H 0.23568 0.21116 0.40015 0.0
H1874 H 0.26232 0.22597 0.39529 0.0
H1875 H 0.27798 0.25375 0.38984 0.0
H1876 H 0.25201 0.3021 0.37504 0.0
H1877 H 0.22575 0.2855 0.37377 0.0
C1878 C 0.22135 0.25129 0.38429 0.0
C1879 C 0.22087 0.23388 0.39156 0.0
C1880 C 0.23658 0.26014 0.38204 0.0
C1881 C 0.23577 0.22475 0.39502 0.0
C1882 C 0.251 0.23317 0.39212 0.0
C1883 C 0.26661 0.26042 0.38575 0.0
C1884 C 0.26676 0.27892 0.38225 0.0
C1885 C 0.25153 0.25105 0.3862 0.0
C1886 C 0.25204 0.28774 0.3775 0.0
C1887 C 0.23707 0.27831 0.37698 0.0
H1888 H 0.26868 0.78587 0.41248 0.0
H1889 H 0.22078 0.76255 0.40097 0.0
H1890 H 0.2324 0.73249 0.40419 0.0
H1891 H 0.25499 0.71309 0.41509 0.0
H1892 H 0.3029 0.73632 0.42642 0.0
H1893 H 0.29245 0.76606 0.41838 0.0
C1894 C 0.26085 0.77422 0.41026 0.0
C1895 C 0.24379 0.77654 0.4069 0.0
C1896 C 0.26754 0.75691 0.41243 0.0
C1897 C 0.23392 0.76125 0.40373 0.0
C1898 C 0.24052 0.744 0.40573 0.0
C1899 C 0.2632 0.72463 0.41554 0.0
C1900 C 0.27959 0.72256 0.42169 0.0
C1901 C 0.25712 0.74171 0.41089 0.0
C1902 C 0.29019 0.73756 0.42185 0.0
C1903 C 0.28421 0.7546 0.41731 0.0
H1904 H 0.7556 0.77594 0.41378 0.0
H1905 H 0.76904 0.744 0.36759 0.0
H1906 H 0.7414 0.73045 0.36731 0.0
H1907 H 0.71401 0.72598 0.38181 0.0
H1908 H 0.70158 0.75703 0.42879 0.0
H1909 H 0.72803 0.77299 0.42692 0.0
C1910 C 0.75246 0.76623 0.40347 0.0
C1911 C 0.76441 0.761 0.39076 0.0
C1912 C 0.73665 0.75837 0.40351 0.0
C1913 C 0.76007 0.7483 0.37755 0.0
C1914 C 0.74427 0.74051 0.37739 0.0
C1915 C 0.71706 0.7365 0.39135 0.0
C1916 C 0.70599 0.74052 0.40533 0.0
C1917 C 0.73254 0.74522 0.3905 0.0
C1918 C 0.71002 0.75387 0.4179 0.0
C1919 C 0.72512 0.76291 0.41687 0.0
H1920 H 0.6892 0.25906 0.42517 0.0
H1921 H 0.72346 0.29666 0.40156 0.0
H1922 H 0.74126 0.27188 0.3918 0.0
H1923 H 0.74981 0.24085 0.39603 0.0
H1924 H 0.71775 0.2038 0.42408 0.0
H1925 H 0.69612 0.22679 0.42557 0.0
C1926 C 0.70027 0.26168 0.41731 0.0
C1927 C 0.70513 0.27951 0.41404 0.0
C1928 C 0.71095 0.24746 0.41285 0.0
C1929 C 0.71958 0.28296 0.40416 0.0
C1930 C 0.72977 0.26882 0.39871 0.0
C1931 C 0.73796 0.23758 0.4021 0.0
C1932 C 0.7356 0.22076 0.41039 0.0
C1933 C 0.72604 0.25115 0.4039 0.0
C1934 C 0.72003 0.21673 0.41788 0.0
C1935 C 0.70768 0.22992 0.41884 0.0
H1936 H 0.80433 0.26103 0.59905 0.0
H1937 H 0.78157 0.21217 0.61769 0.0
H1938 H 0.75745 0.22912 0.62843 0.0
H1939 H 0.74091 0.25699 0.6274 0.0
H1940 H 0.76239 0.305 0.60501 0.0
H1941 H 0.78896 0.28957 0.60115 0.0
C1942 C 0.79432 0.25428 0.60608 0.0
C1943 C 0.7947 0.23551 0.60788 0.0
C1944 C 0.78014 0.264 0.61126 0.0
C1945 C 0.78154 0.22668 0.61646 0.0
C1946 C 0.76771 0.23635 0.62243 0.0
C1947 C 0.75159 0.26416 0.62222 0.0
C1948 C 0.74977 0.28203 0.61644 0.0
C1949 C 0.76657 0.25491 0.6192 0.0
C1950 C 0.76354 0.29118 0.60942 0.0
C1951 C 0.7787 0.28235 0.60717 0.0
H1952 H 0.20057 0.23549 0.57315 0.0
H1953 H 0.24506 0.20321 0.57169 0.0
H1954 H 0.26203 0.23033 0.57394 0.0
H1955 H 0.26416 0.26307 0.57191 0.0
H1956 H 0.21964 0.29535 0.57042 0.0
H1957 H 0.20273 0.26833 0.57398 0.0
C1958 C 0.21397 0.23434 0.57373 0.0
C1959 C 0.22155 0.21737 0.57209 0.0
C1960 C 0.22364 0.25001 0.57428 0.0
C1961 C 0.23893 0.21613 0.57277 0.0
C1962 C 0.24864 0.23163 0.57401 0.0
C1963 C 0.25077 0.26428 0.57272 0.0
C1964 C 0.24317 0.28121 0.57069 0.0
C1965 C 0.24112 0.24865 0.57408 0.0
C1966 C 0.2258 0.28247 0.57175 0.0
C1967 C 0.21613 0.26702 0.57376 0.0
H1968 H 0.79615 0.75941 0.54723 0.0
H1969 H 0.76171 0.80144 0.56159 0.0
H1970 H 0.73983 0.7792 0.56599 0.0
H1971 H 0.73011 0.74842 0.56385 0.0
H1972 H 0.76331 0.70624 0.54671 0.0
H1973 H 0.7862 0.72797 0.54526 0.0
C1974 C 0.78391 0.76358 0.55161 0.0
C1975 C 0.7805 0.78195 0.55425 0.0
C1976 C 0.77122 0.75078 0.55343 0.0
C1977 C 0.76456 0.78735 0.55954 0.0
C1978 C 0.75207 0.77467 0.56201 0.0
C1979 C 0.74239 0.74387 0.56001 0.0
C1980 C 0.74506 0.72574 0.55551 0.0
C1981 C 0.75521 0.75643 0.55871 0.0
C1982 C 0.76097 0.72015 0.55022 0.0
C1983 C 0.77403 0.73255 0.54942 0.0
H1984 H 0.5945 0.2314 0.77331 0.0
H1985 H 0.58002 0.20811 0.72271 0.0
H1986 H 0.5821 0.23759 0.70817 0.0
H1987 H 0.5831 0.27038 0.71144 0.0
H1988 H 0.59655 0.29379 0.76248 0.0
H1989 H 0.60028 0.26384 0.77524 0.0
C1990 C 0.59231 0.2328 0.75899 0.0
C1991 C 0.58708 0.21787 0.749 0.0
C1992 C 0.59316 0.24979 0.75092 0.0
C1993 C 0.58418 0.21956 0.73051 0.0
C1994 C 0.58524 0.2364 0.72228 0.0
C1995 C 0.58717 0.26896 0.72524 0.0
C1996 C 0.58911 0.28427 0.73612 0.0
C1997 C 0.58895 0.25171 0.73257 0.0
C1998 C 0.59478 0.28221 0.75386 0.0
C1999 C 0.59682 0.26508 0.76121 0.0
H2000 H 0.40329 0.7347 0.73523 0.0
H2001 H 0.42947 0.75618 0.68951 0.0
H2002 H 0.43264 0.78501 0.70497 0.0
H2003 H 0.43175 0.80238 0.73326 0.0
H2004 H 0.40872 0.77915 0.78002 0.0
H2005 H 0.4003 0.75288 0.76244 0.0
C2006 C 0.40934 0.74582 0.72846 0.0
C2007 C 0.41622 0.74327 0.71128 0.0
C2008 C 0.41182 0.76202 0.73778 0.0
C2009 C 0.42415 0.75776 0.70277 0.0
C2010 C 0.42602 0.77423 0.71164 0.0
C2011 C 0.4245 0.79175 0.73939 0.0
C2012 C 0.42081 0.79257 0.75782 0.0
C2013 C 0.42046 0.77628 0.72941 0.0
C2014 C 0.4117 0.77867 0.76583 0.0
C2015 C 0.40694 0.76366 0.7558 0.0
H2016 H 0.60395 0.70769 0.27063 0.0
H2017 H 0.58142 0.68999 0.22122 0.0
H2018 H 0.58202 0.72072 0.20953 0.0
H2019 H 0.58466 0.75283 0.21548 0.0
H2020 H 0.60559 0.77114 0.2656 0.0
H2021 H 0.61041 0.74 0.27476 0.0
C2022 C 0.59972 0.71059 0.2571 0.0
C2023 C 0.59277 0.6968 0.24665 0.0
C2024 C 0.59965 0.72839 0.25072 0.0
C2025 C 0.58695 0.70052 0.22931 0.0
C2026 C 0.5872 0.71806 0.22271 0.0
C2027 C 0.59059 0.75007 0.22823 0.0
C2028 C 0.59443 0.76429 0.23996 0.0
C2029 C 0.59287 0.73218 0.2336 0.0
C2030 C 0.6024 0.76044 0.25634 0.0
C2031 C 0.60504 0.74262 0.26166 0.0
H2032 H 0.42684 0.306 0.24006 0.0
H2033 H 0.40999 0.28836 0.29201 0.0
H2034 H 0.40472 0.25817 0.28009 0.0
H2035 H 0.40826 0.23594 0.25577 0.0
H2036 H 0.42784 0.25311 0.20472 0.0
H2037 H 0.42873 0.28419 0.21521 0.0
C2038 C 0.42156 0.29562 0.24855 0.0
C2039 C 0.41852 0.29929 0.26674 0.0
C2040 C 0.4194 0.27812 0.24181 0.0
C2041 C 0.41217 0.28574 0.27788 0.0
C2042 C 0.4093 0.26849 0.2711 0.0
C2043 C 0.41246 0.24658 0.2469 0.0
C2044 C 0.41823 0.24226 0.22962 0.0
C2045 C 0.41337 0.26437 0.25323 0.0
C2046 C 0.42373 0.25606 0.21823 0.0
C2047 C 0.42413 0.27387 0.22419 0.0
H2048 H 0.41517 0.20488 0.75551 0.0
H2049 H 0.4111 0.25762 0.7791 0.0
H2050 H 0.41184 0.2713 0.74917 0.0
H2051 H 0.41683 0.2682 0.71671 0.0
H2052 H 0.41996 0.21552 0.69292 0.0
H2053 H 0.41643 0.20165 0.7226 0.0
C2054 C 0.41432 0.21934 0.75403 0.0
C2055 C 0.41343 0.23032 0.76934 0.0
C2056 C 0.41476 0.22703 0.73685 0.0
C2057 C 0.41181 0.24899 0.76739 0.0
C2058 C 0.41237 0.25679 0.75034 0.0
C2059 C 0.41662 0.2537 0.71808 0.0
C2060 C 0.41897 0.2428 0.70293 0.0
C2061 C 0.41437 0.24595 0.73505 0.0
C2062 C 0.41827 0.22405 0.70458 0.0
C2063 C 0.4163 0.21618 0.72149 0.0
H2064 H 0.55825 0.73912 0.70921 0.0
H2065 H 0.60794 0.71784 0.70811 0.0
H2066 H 0.61106 0.72416 0.74034 0.0
H2067 H 0.59855 0.73361 0.76928 0.0
H2068 H 0.54933 0.75653 0.76934 0.0
H2069 H 0.54719 0.75195 0.73703 0.0
C2070 C 0.56982 0.73608 0.71604 0.0
C2071 C 0.58278 0.7279 0.70652 0.0
C2072 C 0.57157 0.74001 0.73435 0.0
C2073 C 0.59782 0.72419 0.71529 0.0
C2074 C 0.59955 0.72772 0.73368 0.0
C2075 C 0.58747 0.73778 0.76214 0.0
C2076 C 0.57405 0.74519 0.77171 0.0
C2077 C 0.58637 0.7353 0.74343 0.0
C2078 C 0.55983 0.75077 0.7623 0.0
C2079 C 0.55855 0.74809 0.74382 0.0
H2080 H 0.58263 0.20519 0.2119 0.0
H2081 H 0.5884 0.25745 0.18772 0.0
H2082 H 0.5917 0.27102 0.21749 0.0
H2083 H 0.58932 0.2684 0.25036 0.0
H2084 H 0.58375 0.2161 0.27453 0.0
H2085 H 0.58427 0.20206 0.2448 0.0
C2086 C 0.58472 0.21951 0.21316 0.0
C2087 C 0.58487 0.23038 0.19772 0.0
C2088 C 0.58659 0.22719 0.2303 0.0
C2089 C 0.58815 0.24884 0.19946 0.0
C2090 C 0.58994 0.25661 0.21647 0.0
C2091 C 0.5884 0.25393 0.24912 0.0
C2092 C 0.58614 0.24333 0.26455 0.0
C2093 C 0.58861 0.24599 0.23199 0.0
C2094 C 0.58546 0.22454 0.26282 0.0
C2095 C 0.58562 0.21652 0.24582 0.0
H2096 H 0.40293 0.76435 0.2369 0.0
H2097 H 0.40146 0.71163 0.21304 0.0
H2098 H 0.39918 0.69798 0.24294 0.0
H2099 H 0.40301 0.70116 0.2756 0.0
H2100 H 0.40526 0.75397 0.29934 0.0
H2101 H 0.40121 0.76766 0.26976 0.0
C2102 C 0.40172 0.74992 0.2383 0.0
C2103 C 0.40265 0.7389 0.22303 0.0
C2104 C 0.40062 0.74227 0.25546 0.0
C2105 C 0.40079 0.72026 0.22476 0.0
C2106 C 0.3996 0.7125 0.24181 0.0
C2107 C 0.40223 0.71565 0.2743 0.0
C2108 C 0.40486 0.7266 0.28942 0.0
C2109 C 0.40031 0.72335 0.25724 0.0
C2110 C 0.40334 0.74532 0.2878 0.0
C2111 C 0.40122 0.75313 0.27088 0.0
H2112 H 0.10037 0.08209 0.28197 0.0
H2113 H 0.08963 0.13866 0.28285 0.0
H2114 H 0.11819 0.14565 0.27512 0.0
H2115 H 0.14671 0.13558 0.26987 0.0
H2116 H 0.15771 0.07892 0.26799 0.0
H2117 H 0.12864 0.07189 0.27456 0.0
C2118 C 0.10425 0.09596 0.2804 0.0
C2119 C 0.09278 0.11001 0.28308 0.0
C2120 C 0.12084 0.09975 0.27602 0.0
C2121 C 0.09807 0.12777 0.2808 0.0
C2122 C 0.11448 0.13171 0.27646 0.0
C2123 C 0.14272 0.12169 0.27081 0.0
C2124 C 0.15437 0.10776 0.2691 0.0
C2125 C 0.12602 0.11781 0.2743 0.0
C2126 C 0.14902 0.08984 0.27001 0.0
C2127 C 0.1324 0.08584 0.27357 0.0
H2128 H 0.85142 0.11577 0.26703 0.0
H2129 H 0.85075 0.10435 0.32393 0.0
H2130 H 0.86844 0.13035 0.32958 0.0
H2131 H 0.88363 0.15657 0.3185 0.0
H2132 H 0.88497 0.16766 0.26159 0.0
H2133 H 0.86723 0.14162 0.25584 0.0
C2134 C 0.85524 0.11887 0.28066 0.0
C2135 C 0.84973 0.10814 0.29503 0.0
C2136 C 0.86533 0.13389 0.28384 0.0
C2137 C 0.85483 0.11235 0.3126 0.0
C2138 C 0.86487 0.12728 0.31587 0.0
C2139 C 0.8799 0.15341 0.30485 0.0
C2140 C 0.88546 0.16411 0.2905 0.0
C2141 C 0.87003 0.13824 0.30162 0.0
C2142 C 0.88079 0.15964 0.27286 0.0
C2143 C 0.87071 0.14474 0.26956 0.0
H2144 H 0.86753 0.84483 0.30465 0.0
H2145 H 0.89507 0.89115 0.28686 0.0
H2146 H 0.86909 0.90669 0.27962 0.0
H2147 H 0.83971 0.90329 0.27069 0.0
H2148 H 0.81335 0.85503 0.285 0.0
H2149 H 0.83747 0.84411 0.30161 0.0
C2150 C 0.86779 0.85857 0.29973 0.0
C2151 C 0.88306 0.86671 0.29578 0.0
C2152 C 0.85295 0.8669 0.29471 0.0
C2153 C 0.88339 0.8846 0.28982 0.0
C2154 C 0.86854 0.89337 0.28549 0.0
C2155 C 0.83911 0.89078 0.27816 0.0
C2156 C 0.82498 0.87986 0.27668 0.0
C2157 C 0.85338 0.88414 0.28671 0.0
C2158 C 0.82423 0.86352 0.286 0.0
C2159 C 0.83803 0.85726 0.29537 0.0
H2160 H 0.15659 0.86118 0.31719 0.0
H2161 H 0.12087 0.89995 0.29786 0.0
H2162 H 0.09837 0.88225 0.31063 0.0
H2163 H 0.08864 0.8541 0.32358 0.0
H2164 H 0.12365 0.81417 0.34137 0.0
H2165 H 0.14674 0.83429 0.33367 0.0
C2166 C 0.14388 0.86577 0.31582 0.0
C2167 C 0.14037 0.88165 0.30619 0.0
C2168 C 0.13094 0.85544 0.32314 0.0
C2169 C 0.12389 0.88765 0.30492 0.0
C2170 C 0.11102 0.87758 0.31229 0.0
C2171 C 0.10136 0.85008 0.32626 0.0
C2172 C 0.10457 0.83282 0.33299 0.0
C2173 C 0.11438 0.86127 0.32096 0.0
C2174 C 0.12097 0.82756 0.33644 0.0
C2175 C 0.13413 0.83893 0.33171 0.0
H2176 H 0.11868 0.8501 0.73663 0.0
H2177 H 0.08702 0.85503 0.69008 0.0
H2178 H 0.09937 0.88412 0.68305 0.0
H2179 H 0.12094 0.90661 0.68842 0.0
H2180 H 0.1536 0.90102 0.73409 0.0
H2181 H 0.13897 0.87379 0.74324 0.0
C2182 C 0.11432 0.85765 0.72509 0.0
C2183 C 0.1021 0.85033 0.71378 0.0
C2184 C 0.12175 0.87417 0.72087 0.0
C2185 C 0.09655 0.86029 0.69889 0.0
C2186 C 0.10362 0.87692 0.69485 0.0
C2187 C 0.12477 0.89956 0.70048 0.0
C2188 C 0.13846 0.90571 0.71043 0.0
C2189 C 0.11653 0.88374 0.70546 0.0
C2190 C 0.14319 0.89646 0.72608 0.0
C2191 C 0.13484 0.88088 0.73133 0.0
H2192 H 0.14963 0.17259 0.66667 0.0
H2193 H 0.11837 0.12648 0.67641 0.0
H2194 H 0.0944 0.14292 0.66516 0.0
H2195 H 0.08159 0.17186 0.65853 0.0
H2196 H 0.11205 0.21889 0.65144 0.0
H2197 H 0.1371 0.20053 0.65477 0.0
C2198 C 0.13763 0.16603 0.66601 0.0
C2199 C 0.13568 0.14851 0.6729 0.0
C2200 C 0.12375 0.17577 0.65996 0.0
C2201 C 0.12013 0.1401 0.67165 0.0
C2202 C 0.10641 0.14948 0.66516 0.0
C2203 C 0.09375 0.17797 0.65718 0.0
C2204 C 0.09503 0.19668 0.65507 0.0
C2205 C 0.10794 0.16756 0.66017 0.0
C2206 C 0.11078 0.20449 0.65305 0.0
C2207 C 0.12509 0.19402 0.65526 0.0
H2208 H 0.8539 0.1301 0.74025 0.0
H2209 H 0.83364 0.09977 0.69599 0.0
H2210 H 0.86119 0.09845 0.68197 0.0
H2211 H 0.89108 0.10652 0.68233 0.0
H2212 H 0.91108 0.13495 0.72775 0.0
H2213 H 0.88345 0.13696 0.74125 0.0
C2214 C 0.85549 0.12317 0.72753 0.0
C2215 C 0.84181 0.11498 0.71916 0.0
C2216 C 0.87124 0.1225 0.71968 0.0
C2217 C 0.84407 0.10594 0.70278 0.0
C2218 C 0.85977 0.10533 0.69472 0.0
C2219 C 0.88926 0.11323 0.69512 0.0
C2220 C 0.90279 0.12153 0.70373 0.0
C2221 C 0.87343 0.11364 0.70303 0.0
C2222 C 0.90053 0.12972 0.72046 0.0
C2223 C 0.88486 0.13044 0.72831 0.0
H2224 H 0.86185 0.88704 0.73784 0.0
H2225 H 0.8588 0.88433 0.67993 0.0
H2226 H 0.88059 0.86165 0.67943 0.0
H2227 H 0.89842 0.84049 0.69551 0.0
H2228 H 0.90158 0.84289 0.75337 0.0
H2229 H 0.88188 0.86789 0.75378 0.0
C2230 C 0.86612 0.88169 0.72509 0.0
C2231 C 0.85851 0.88716 0.70899 0.0
C2232 C 0.87853 0.86846 0.72488 0.0
C2233 C 0.86432 0.88023 0.69256 0.0
C2234 C 0.87675 0.8672 0.69224 0.0
C2235 C 0.89486 0.84654 0.70821 0.0
C2236 C 0.90121 0.83968 0.7244 0.0
C2237 C 0.88356 0.86084 0.70834 0.0
C2238 C 0.89677 0.84789 0.74072 0.0
C2239 C 0.88549 0.86215 0.74097 0.0
H2240 H 0.2958 0.10383 0.18286 0.0
H2241 H 0.34733 0.11067 0.16941 0.0
H2242 H 0.34091 0.13956 0.15488 0.0
H2243 H 0.31971 0.15923 0.14104 0.0
H2244 H 0.26793 0.1505 0.15315 0.0
H2245 H 0.27536 0.12612 0.17347 0.0
C2246 C 0.30567 0.11196 0.17717 0.0
C2247 C 0.32193 0.10522 0.17689 0.0
C2248 C 0.30175 0.12801 0.16838 0.0
C2249 C 0.33473 0.11571 0.16968 0.0
C2250 C 0.331 0.13209 0.16126 0.0
C2251 C 0.31008 0.1523 0.14848 0.0
C2252 C 0.29323 0.15641 0.14526 0.0
C2253 C 0.31442 0.13786 0.15973 0.0
C2254 C 0.28093 0.14739 0.15511 0.0
C2255 C 0.28517 0.13342 0.16672 0.0
H2256 H 0.86791 0.33065 0.1118 0.0
H2257 H 0.85161 0.28002 0.08945 0.0
H2258 H 0.87476 0.26468 0.10383 0.0
H2259 H 0.90132 0.2661 0.11982 0.0
H2260 H 0.91852 0.31655 0.14116 0.0
H2261 H 0.89324 0.3315 0.13042 0.0
C2262 C 0.86931 0.31623 0.11024 0.0
C2263 C 0.85818 0.30658 0.09927 0.0
C2264 C 0.88282 0.30747 0.11839 0.0
C2265 C 0.86009 0.28786 0.09759 0.0
C2266 C 0.87334 0.27904 0.10581 0.0
C2267 C 0.89927 0.28028 0.12245 0.0
C2268 C 0.91145 0.29022 0.13153 0.0
C2269 C 0.88501 0.28877 0.1158 0.0
C2270 C 0.90901 0.30863 0.13459 0.0
C2271 C 0.89468 0.31717 0.12827 0.0
H2272 H 0.70782 0.91556 0.12654 0.0
H2273 H 0.67999 0.88808 0.16784 0.0
H2274 H 0.68899 0.85919 0.15615 0.0
H2275 H 0.70164 0.84181 0.13233 0.0
H2276 H 0.72706 0.86834 0.08889 0.0
H2277 H 0.72297 0.89748 0.10376 0.0
C2278 C 0.70391 0.90324 0.13306 0.0
C2279 C 0.69298 0.90397 0.14781 0.0
C2280 C 0.70886 0.88652 0.126 0.0
C2281 C 0.6881 0.8879 0.15623 0.0
C2282 C 0.69334 0.87136 0.14965 0.0
C2283 C 0.70654 0.85393 0.12626 0.0
C2284 C 0.71432 0.85302 0.10942 0.0
C2285 C 0.70327 0.87052 0.13427 0.0
C2286 C 0.721 0.86873 0.10188 0.0
C2287 C 0.71843 0.8854 0.11024 0.0
H2288 H 0.11264 0.73498 0.14704 0.0
H2289 H 0.06547 0.71999 0.12408 0.0
H2290 H 0.07865 0.71555 0.09478 0.0
H2291 H 0.10426 0.71246 0.07676 0.0
H2292 H 0.15134 0.72645 0.10073 0.0
H2293 H 0.13747 0.73477 0.12852 0.0
C2294 C 0.10517 0.73096 0.13558 0.0
C2295 C 0.08817 0.72755 0.13779 0.0
C2296 C 0.11286 0.72804 0.11899 0.0
C2297 C 0.07862 0.72264 0.12275 0.0
C2298 C 0.08617 0.71998 0.10602 0.0
C2299 C 0.11144 0.71754 0.08799 0.0
C2300 C 0.12883 0.71853 0.08677 0.0
C2301 C 0.10339 0.72208 0.10414 0.0
C2302 C 0.13796 0.72527 0.1014 0.0
C2303 C 0.13005 0.73007 0.11731 0.0
H2304 H 0.26734 0.86863 0.87778 0.0
H2305 H 0.29437 0.83386 0.84169 0.0
H2306 H 0.30388 0.85975 0.82465 0.0
H2307 H 0.30604 0.8921 0.82106 0.0
H2308 H 0.27898 0.92754 0.85642 0.0
H2309 H 0.26804 0.90153 0.8728 0.0
C2310 C 0.27498 0.86674 0.86594 0.0
C2311 C 0.28021 0.84937 0.86106 0.0
C2312 C 0.28068 0.88179 0.85631 0.0
C2313 C 0.29026 0.84711 0.84579 0.0
C2314 C 0.29579 0.8619 0.83608 0.0
C2315 C 0.29784 0.8942 0.83243 0.0
C2316 C 0.29355 0.91172 0.83771 0.0
C2317 C 0.29142 0.87929 0.8415 0.0
C2318 C 0.28259 0.91416 0.85221 0.0
C2319 C 0.27628 0.89931 0.86151 0.0
H2320 H 0.12706 0.31275 0.8884 0.0
H2321 H 0.16129 0.26824 0.88473 0.0
H2322 H 0.13995 0.2499 0.87044 0.0
H2323 H 0.11045 0.24493 0.86384 0.0
H2324 H 0.07577 0.28865 0.86892 0.0
H2325 H 0.09834 0.30897 0.87775 0.0
C2326 C 0.12997 0.29918 0.88412 0.0
C2327 C 0.14565 0.29174 0.888 0.0
C2328 C 0.11746 0.2885 0.87642 0.0
C2329 C 0.14925 0.27419 0.88218 0.0
C2330 C 0.13703 0.26366 0.87406 0.0
C2331 C 0.108 0.25905 0.86639 0.0
C2332 C 0.09166 0.26545 0.8656 0.0
C2333 C 0.12093 0.27042 0.87186 0.0
C2334 C 0.08838 0.28361 0.86923 0.0
C2335 C 0.10124 0.29513 0.87442 0.0
H2336 H 0.67565 0.15022 0.88931 0.0
H2337 H 0.72728 0.14684 0.90447 0.0
H2338 H 0.72952 0.11769 0.88956 0.0
H2339 H 0.71672 0.09291 0.87266 0.0
H2340 H 0.66498 0.09634 0.85785 0.0
H2341 H 0.66294 0.12564 0.87232 0.0
C2342 C 0.68745 0.14321 0.88926 0.0
C2343 C 0.70127 0.15079 0.89801 0.0
C2344 C 0.68861 0.12635 0.88086 0.0
C2345 C 0.71641 0.14137 0.89787 0.0
C2346 C 0.71771 0.12465 0.88938 0.0
C2347 C 0.70496 0.1 0.87266 0.0
C2348 C 0.69102 0.09231 0.8642 0.0
C2349 C 0.70385 0.11694 0.88096 0.0
C2350 C 0.67593 0.10183 0.86427 0.0
C2351 C 0.67473 0.11865 0.87251 0.0
H2352 H 0.89651 0.72326 0.87762 0.0
H2353 H 0.92073 0.6773 0.90106 0.0
H2354 H 0.89408 0.6617 0.90351 0.0
H2355 H 0.86383 0.66347 0.90381 0.0
H2356 H 0.83932 0.71089 0.8836 0.0
H2357 H 0.86605 0.72329 0.87421 0.0
C2358 C 0.89588 0.70962 0.88276 0.0
C2359 C 0.91034 0.70128 0.88912 0.0
C2360 C 0.88047 0.70108 0.88471 0.0
C2361 C 0.90962 0.6838 0.89604 0.0
C2362 C 0.89442 0.67497 0.89752 0.0
C2363 C 0.86427 0.6763 0.89691 0.0
C2364 C 0.84968 0.68642 0.89469 0.0
C2365 C 0.87971 0.68378 0.89258 0.0
C2366 C 0.85044 0.70298 0.88565 0.0
C2367 C 0.86572 0.71012 0.88041 0.0
H2368 H 0.15299 0.31443 0.1513 0.0
H2369 H 0.1193 0.30611 0.10695 0.0
H2370 H 0.09567 0.30934 0.12727 0.0
H2371 H 0.08501 0.30947 0.15804 0.0
H2372 H 0.11855 0.3168 0.20266 0.0
H2373 H 0.14188 0.31942 0.18173 0.0
C2374 C 0.14046 0.31356 0.14604 0.0
C2375 C 0.13786 0.30953 0.12775 0.0
C2376 C 0.12697 0.31511 0.15785 0.0
C2377 C 0.12161 0.30896 0.12101 0.0
C2378 C 0.10811 0.31073 0.13264 0.0
C2379 C 0.0974 0.31188 0.1632 0.0
C2380 C 0.10017 0.31236 0.18187 0.0
C2381 C 0.1107 0.31299 0.15116 0.0
C2382 C 0.11616 0.31609 0.18835 0.0
C2383 C 0.1295 0.31749 0.17639 0.0
H2384 H 0.11594 0.70069 0.8715 0.0
H2385 H 0.14043 0.65084 0.85815 0.0
H2386 H 0.12022 0.64539 0.83424 0.0
H2387 H 0.09796 0.65701 0.81444 0.0
H2388 H 0.07499 0.70785 0.82706 0.0
H2389 H 0.09211 0.71063 0.85392 0.0
C2390 C 0.11672 0.68847 0.86359 0.0
C2391 C 0.12986 0.67637 0.86645 0.0
C2392 C 0.1054 0.6857 0.84953 0.0
C2393 C 0.13055 0.66051 0.85614 0.0
C2394 C 0.11902 0.6574 0.84239 0.0
C2395 C 0.09649 0.66846 0.82332 0.0
C2396 C 0.08537 0.68228 0.8187 0.0
C2397 C 0.10675 0.67023 0.83854 0.0
C2398 C 0.08364 0.69715 0.83021 0.0
C2399 C 0.09342 0.69875 0.84558 0.0
H2400 H 0.30579 0.15704 0.90648 0.0
H2401 H 0.26597 0.13131 0.93552 0.0
H2402 H 0.25801 0.11489 0.90844 0.0
H2403 H 0.2626 0.10752 0.8767 0.0
H2404 H 0.30253 0.13328 0.84782 0.0
H2405 H 0.31004 0.15015 0.8747 0.0
C2406 C 0.29541 0.14778 0.90696 0.0
C2407 C 0.28657 0.14536 0.92307 0.0
C2408 C 0.29082 0.13848 0.89134 0.0
C2409 C 0.27304 0.13342 0.92333 0.0
C2410 C 0.26845 0.12405 0.90784 0.0
C2411 C 0.27286 0.11693 0.87621 0.0
C2412 C 0.28198 0.11907 0.86023 0.0
C2413 C 0.27725 0.12647 0.89177 0.0
C2414 C 0.29529 0.13131 0.85991 0.0
C2415 C 0.29964 0.14094 0.8753 0.0
H2416 H 0.85429 0.26484 0.89452 0.0
H2417 H 0.8529 0.3229 0.89449 0.0
H2418 H 0.87368 0.32362 0.87072 0.0
H2419 H 0.88976 0.30785 0.84781 0.0
H2420 H 0.89117 0.24986 0.84732 0.0
H2421 H 0.87277 0.24902 0.87349 0.0
C2422 C 0.85875 0.27766 0.88956 0.0
C2423 C 0.85184 0.29379 0.89606 0.0
C2424 C 0.87045 0.27798 0.8756 0.0
C2425 C 0.85788 0.31028 0.88959 0.0
C2426 C 0.86969 0.31071 0.87593 0.0
C2427 C 0.88606 0.29501 0.85344 0.0
C2428 C 0.8915 0.27893 0.84545 0.0
C2429 C 0.87559 0.29465 0.86842 0.0
C2430 C 0.88698 0.26241 0.85315 0.0
C2431 C 0.87649 0.26194 0.8681 0.0
H2432 H 0.70215 0.82808 0.8817 0.0
H2433 H 0.72466 0.87191 0.91077 0.0
H2434 H 0.73206 0.88649 0.88233 0.0
H2435 H 0.72861 0.88848 0.84939 0.0
H2436 H 0.70553 0.84465 0.82084 0.0
H2437 H 0.70235 0.82801 0.84888 0.0
C2438 C 0.70875 0.8408 0.88181 0.0
C2439 C 0.71249 0.84918 0.89823 0.0
C2440 C 0.713 0.84896 0.8655 0.0
C2441 C 0.72147 0.86536 0.89824 0.0
C2442 C 0.72572 0.87365 0.882 0.0
C2443 C 0.72349 0.87499 0.84926 0.0
C2444 C 0.71718 0.86781 0.83316 0.0
C2445 C 0.72115 0.86579 0.86555 0.0
C2446 C 0.71037 0.85044 0.83313 0.0
C2447 C 0.7084 0.84101 0.84917 0.0
H2448 H 0.85637 0.67825 0.12049 0.0
H2449 H 0.82574 0.66798 0.16689 0.0
H2450 H 0.85034 0.66737 0.1861 0.0
H2451 H 0.88014 0.67426 0.19032 0.0
H2452 H 0.91025 0.68575 0.14381 0.0
H2453 H 0.88642 0.6812 0.12418 0.0
C2454 C 0.85507 0.67561 0.13475 0.0
C2455 C 0.83917 0.67354 0.14224 0.0
C2456 C 0.86923 0.6757 0.14582 0.0
C2457 C 0.83779 0.66994 0.16076 0.0
C2458 C 0.85187 0.66961 0.1718 0.0
C2459 C 0.88154 0.67533 0.17586 0.0
C2460 C 0.8969 0.68058 0.16857 0.0
C2461 C 0.86761 0.67315 0.16458 0.0
C2462 C 0.89851 0.68196 0.14979 0.0
C2463 C 0.88487 0.6794 0.13853 0.0
H2464 H 0.30899 0.87584 0.14753 0.0
H2465 H 0.26433 0.90537 0.13497 0.0
H2466 H 0.26182 0.88898 0.10658 0.0
H2467 H 0.2726 0.86651 0.08517 0.0
H2468 H 0.3176 0.83762 0.09807 0.0
H2469 H 0.31964 0.85365 0.12647 0.0
C2470 C 0.29862 0.87868 0.13867 0.0
C2471 C 0.28686 0.89183 0.14343 0.0
C2472 C 0.29736 0.86939 0.12236 0.0
C2473 C 0.27359 0.89535 0.13166 0.0
C2474 C 0.27215 0.88599 0.11541 0.0
C2475 C 0.28287 0.86373 0.09417 0.0
C2476 C 0.29493 0.85086 0.08939 0.0
C2477 C 0.28403 0.87304 0.11057 0.0
C2478 C 0.30814 0.84746 0.10129 0.0
C2479 C 0.30932 0.8566 0.11759 0.0
H2480 H 0.71596 0.15868 0.12148 0.0
H2481 H 0.73639 0.12377 0.08072 0.0
H2482 H 0.73962 0.09982 0.10303 0.0
H2483 H 0.7328 0.08764 0.13306 0.0
H2484 H 0.70998 0.12228 0.17246 0.0
H2485 H 0.71171 0.14765 0.15177 0.0
C2486 C 0.72127 0.1459 0.11743 0.0
C2487 C 0.7256 0.14289 0.09937 0.0
C2488 C 0.72261 0.13214 0.13011 0.0
C2489 C 0.7328 0.12638 0.0945 0.0
C2490 C 0.7346 0.11267 0.10724 0.0
C2491 C 0.72864 0.10088 0.13721 0.0
C2492 C 0.72122 0.10319 0.15416 0.0
C2493 C 0.72901 0.11522 0.12494 0.0
C2494 C 0.71566 0.12027 0.15941 0.0
C2495 C 0.71658 0.13472 0.14758 0.0
H2496 H 0.08193 0.627 0.77109 0.0
H2497 H 0.06504 0.62094 0.82562 0.0
H2498 H 0.09329 0.61408 0.83546 0.0
H2499 H 0.12081 0.60309 0.82719 0.0
H2500 H 0.13673 0.60551 0.77188 0.0
H2501 H 0.11117 0.62118 0.76375 0.0
C2502 C 0.08465 0.62497 0.78522 0.0
C2503 C 0.0716 0.62441 0.79765 0.0
C2504 C 0.10072 0.62004 0.79053 0.0
C2505 C 0.07501 0.62132 0.81587 0.0
C2506 C 0.09111 0.61729 0.82145 0.0
C2507 C 0.11891 0.60746 0.81344 0.0
C2508 C 0.13039 0.60266 0.80005 0.0
C2509 C 0.10382 0.61555 0.8087 0.0
C2510 C 0.12787 0.60869 0.78236 0.0
C2511 C 0.11323 0.61758 0.77769 0.0
H2512 H 0.87096 0.68708 0.82458 0.0
H2513 H 0.89786 0.65553 0.86332 0.0
H2514 H 0.87614 0.63258 0.86274 0.0
H2515 H 0.85249 0.61895 0.84646 0.0
H2516 H 0.82599 0.65068 0.80731 0.0
H2517 H 0.84452 0.67598 0.81264 0.0
C2518 C 0.87163 0.67554 0.83347 0.0
C2519 C 0.88583 0.67297 0.84405 0.0
C2520 C 0.85948 0.66211 0.83245 0.0
C2521 C 0.88681 0.65792 0.85537 0.0
C2522 C 0.87457 0.64462 0.85473 0.0
C2523 C 0.85072 0.63147 0.83926 0.0
C2524 C 0.83822 0.63278 0.82615 0.0
C2525 C 0.86136 0.6461 0.84252 0.0
C2526 C 0.83571 0.64923 0.81726 0.0
C2527 C 0.84627 0.66375 0.82033 0.0
H2528 H 0.89625 0.37602 0.7711 0.0
H2529 H 0.87527 0.34925 0.81722 0.0
H2530 H 0.84964 0.36634 0.81374 0.0
H2531 H 0.83123 0.38309 0.79332 0.0
H2532 H 0.85143 0.40711 0.74551 0.0
H2533 H 0.87933 0.39751 0.75413 0.0
C2534 C 0.88627 0.37431 0.78072 0.0
C2535 C 0.8875 0.36099 0.79407 0.0
C2536 C 0.8713 0.38368 0.77821 0.0
C2537 C 0.87451 0.35912 0.80656 0.0
C2538 C 0.85981 0.36888 0.80456 0.0
C2539 C 0.8419 0.38693 0.78531 0.0
C2540 C 0.83944 0.39583 0.76892 0.0
C2541 C 0.85773 0.38037 0.78981 0.0
C2542 C 0.85318 0.40043 0.75831 0.0
C2543 C 0.86908 0.39471 0.76311 0.0
H2544 H 0.15886 0.33558 0.82672 0.0
H2545 H 0.13124 0.38371 0.81395 0.0
H2546 H 0.10529 0.36792 0.81944 0.0
H2547 H 0.09054 0.33959 0.82327 0.0
H2548 H 0.11768 0.29091 0.83439 0.0
H2549 H 0.14372 0.3079 0.8349 0.0
C2550 C 0.14717 0.34267 0.82533 0.0
C2551 C 0.14699 0.36067 0.81946 0.0
C2552 C 0.13223 0.33342 0.82828 0.0
C2553 C 0.13175 0.36977 0.81812 0.0
C2554 C 0.11689 0.36077 0.82129 0.0
C2555 C 0.10214 0.33277 0.82617 0.0
C2556 C 0.10229 0.31404 0.82849 0.0
C2557 C 0.11699 0.34246 0.82569 0.0
C2558 C 0.1173 0.30535 0.83255 0.0
C2559 C 0.13219 0.31502 0.8326 0.0
H2560 H 0.11636 0.36176 0.25509 0.0
H2561 H 0.07839 0.34374 0.21858 0.0
H2562 H 0.09133 0.36084 0.19409 0.0
H2563 H 0.1125 0.38301 0.18387 0.0
H2564 H 0.14886 0.40217 0.22204 0.0
H2565 H 0.13736 0.38278 0.24508 0.0
C2566 C 0.11094 0.36147 0.24174 0.0
C2567 C 0.0966 0.35127 0.23855 0.0
C2568 C 0.11805 0.37183 0.22809 0.0
C2569 C 0.08972 0.35104 0.22121 0.0
C2570 C 0.09699 0.36105 0.2073 0.0
C2571 C 0.1179 0.38287 0.19722 0.0
C2572 C 0.1314 0.39423 0.20125 0.0
C2573 C 0.11103 0.37178 0.21067 0.0
C2574 C 0.13831 0.39383 0.2186 0.0
C2575 C 0.1318 0.38267 0.23182 0.0
H2576 H 0.13411 0.61712 0.1608 0.0
H2577 H 0.14542 0.59749 0.21381 0.0
H2578 H 0.13861 0.62691 0.2267 0.0
H2579 H 0.12369 0.65567 0.22313 0.0
H2580 H 0.11282 0.6753 0.16985 0.0
H2581 H 0.12564 0.64865 0.1567 0.0
C2582 C 0.13567 0.61959 0.17508 0.0
C2583 C 0.14006 0.60535 0.18645 0.0
C2584 C 0.13156 0.6364 0.18232 0.0
C2585 C 0.14212 0.60844 0.2049 0.0
C2586 C 0.13804 0.62516 0.21225 0.0
C2587 C 0.12456 0.65431 0.20864 0.0
C2588 C 0.11695 0.66714 0.19748 0.0
C2589 C 0.13186 0.63889 0.20117 0.0
C2590 C 0.11845 0.6655 0.17873 0.0
C2591 C 0.12567 0.6502 0.17119 0.0
H2592 H 0.87188 0.61666 0.17777 0.0
H2593 H 0.83897 0.61897 0.22339 0.0
H2594 H 0.85867 0.6379 0.23953 0.0
H2595 H 0.88743 0.64766 0.24309 0.0
H2596 H 0.92153 0.64297 0.19886 0.0
H2597 H 0.89928 0.6313 0.17959 0.0
C2598 C 0.86886 0.62181 0.19101 0.0
C2599 C 0.85426 0.61618 0.19962 0.0
C2600 C 0.88061 0.63197 0.20054 0.0
C2601 C 0.85034 0.62292 0.21672 0.0
C2602 C 0.86161 0.63367 0.22596 0.0
C2603 C 0.88976 0.64463 0.22904 0.0
C2604 C 0.90587 0.64612 0.22224 0.0
C2605 C 0.87714 0.63735 0.21841 0.0
C2606 C 0.90905 0.64201 0.20418 0.0
C2607 C 0.8964 0.6352 0.19327 0.0
H2608 H 0.84002 0.36978 0.17243 0.0
H2609 H 0.87921 0.40926 0.17326 0.0
H2610 H 0.89995 0.38536 0.17105 0.0
H2611 H 0.90677 0.35332 0.17464 0.0
H2612 H 0.86778 0.3138 0.17441 0.0
H2613 H 0.84702 0.33759 0.17017 0.0
C2614 C 0.85311 0.37314 0.17182 0.0
C2615 C 0.85815 0.39119 0.17351 0.0
C2616 C 0.86493 0.35933 0.1707 0.0
C2617 C 0.87506 0.39545 0.17221 0.0
C2618 C 0.88691 0.38179 0.17101 0.0
C2619 C 0.89375 0.34996 0.17303 0.0
C2620 C 0.88865 0.33203 0.17491 0.0
C2621 C 0.88199 0.3637 0.17107 0.0
C2622 C 0.87186 0.32759 0.17289 0.0
C2623 C 0.86004 0.34119 0.17068 0.0
H2624 H 0.29942 0.65077 0.63598 0.0
H2625 H 0.24904 0.63151 0.63101 0.0
H2626 H 0.25494 0.60762 0.65248 0.0
H2627 H 0.27485 0.59075 0.67055 0.0
H2628 H 0.32524 0.60941 0.67572 0.0
H2629 H 0.31883 0.63527 0.6564 0.0
C2630 C 0.28966 0.64147 0.6397 0.0
C2631 C 0.27384 0.64284 0.63166 0.0
C2632 C 0.29316 0.62766 0.652 0.0
C2633 C 0.26133 0.63075 0.63684 0.0
C2634 C 0.26471 0.61704 0.6491 0.0
C2635 C 0.28442 0.60054 0.66752 0.0
C2636 C 0.30055 0.59813 0.67432 0.0
C2637 C 0.28065 0.61514 0.6564 0.0
C2638 C 0.31274 0.61106 0.67065 0.0
C2639 C 0.30909 0.62574 0.65952 0.0
H2640 H 0.86909 0.80781 0.65295 0.0
H2641 H 0.91787 0.78732 0.6402 0.0
H2642 H 0.90921 0.78149 0.60947 0.0
H2643 H 0.887 0.77855 0.58735 0.0
H2644 H 0.8385 0.79995 0.59884 0.0
H2645 H 0.84779 0.80912 0.62893 0.0
C2646 C 0.87787 0.80229 0.64338 0.0
C2647 C 0.89395 0.79749 0.64904 0.0
C2648 C 0.8728 0.79886 0.62562 0.0
C2649 C 0.90529 0.79072 0.63636 0.0
C2650 C 0.90037 0.78736 0.61876 0.0
C2651 C 0.87854 0.78533 0.59645 0.0
C2652 C 0.86206 0.78817 0.59128 0.0
C2653 C 0.88401 0.79071 0.61346 0.0
C2654 C 0.85123 0.79744 0.6028 0.0
C2655 C 0.85653 0.80264 0.61995 0.0
H2656 H 0.69872 0.35317 0.63168 0.0
H2657 H 0.74435 0.37266 0.60836 0.0
H2658 H 0.73739 0.40329 0.61811 0.0
H2659 H 0.7176 0.42453 0.63238 0.0
H2660 H 0.67147 0.40386 0.6537 0.0
H2661 H 0.67934 0.37367 0.64514 0.0
C2662 C 0.70733 0.364 0.6288 0.0
C2663 C 0.72208 0.36057 0.61933 0.0
C2664 C 0.70301 0.38144 0.6338 0.0
C2665 C 0.73294 0.37491 0.61571 0.0
C2666 C 0.7289 0.39242 0.62116 0.0
C2667 C 0.70923 0.41343 0.63502 0.0
C2668 C 0.69393 0.41658 0.64365 0.0
C2669 C 0.71381 0.39588 0.62999 0.0
C2670 C 0.68327 0.40199 0.64701 0.0
C2671 C 0.68779 0.38463 0.64223 0.0
H2672 H 0.11072 0.1884 0.59492 0.0
H2673 H 0.1531 0.22275 0.60388 0.0
H2674 H 0.13522 0.2457 0.61689 0.0
H2675 H 0.10726 0.25784 0.62146 0.0
H2676 H 0.06466 0.2243 0.61206 0.0
H2677 H 0.08282 0.19913 0.60362 0.0
C2678 C 0.11607 0.20076 0.60002 0.0
C2679 C 0.13317 0.20404 0.59799 0.0
C2680 C 0.10564 0.21414 0.6072 0.0
C2681 C 0.13993 0.22004 0.6049 0.0
C2682 C 0.12972 0.23321 0.61233 0.0
C2683 C 0.10205 0.24485 0.61796 0.0
C2684 C 0.08481 0.24273 0.61738 0.0
C2685 C 0.11252 0.2307 0.61286 0.0
C2686 C 0.07799 0.22603 0.61269 0.0
C2687 C 0.08835 0.21174 0.60777 0.0
H2688 H 0.26032 0.36552 0.36851 0.0
H2689 H 0.31311 0.35508 0.37062 0.0
H2690 H 0.31846 0.3816 0.35283 0.0
H2691 H 0.30852 0.40623 0.33482 0.0
H2692 H 0.2562 0.41701 0.33037 0.0
H2693 H 0.25026 0.39221 0.35139 0.0
C2694 C 0.27296 0.36909 0.36506 0.0
C2695 C 0.28623 0.35809 0.37064 0.0
C2696 C 0.27605 0.38447 0.35457 0.0
C2697 C 0.30258 0.36302 0.36624 0.0
C2698 C 0.30572 0.37829 0.35616 0.0
C2699 C 0.2958 0.40327 0.33866 0.0
C2700 C 0.28279 0.41312 0.33107 0.0
C2701 C 0.29259 0.38887 0.35003 0.0
C2702 C 0.26639 0.40951 0.33621 0.0
C2703 C 0.26303 0.39525 0.34801 0.0
H2704 H 0.1053 0.77624 0.37792 0.0
H2705 H 0.08506 0.82835 0.39036 0.0
H2706 H 0.1127 0.84183 0.38811 0.0
H2707 H 0.14278 0.8376 0.38831 0.0
H2708 H 0.16333 0.78479 0.37919 0.0
H2709 H 0.13553 0.7728 0.37399 0.0
C2710 C 0.107 0.79062 0.37961 0.0
C2711 C 0.09339 0.8014 0.38427 0.0
C2712 C 0.123 0.79804 0.37918 0.0
C2713 C 0.09551 0.81993 0.38672 0.0
C2714 C 0.11128 0.82757 0.38555 0.0
C2715 C 0.14124 0.82355 0.38479 0.0
C2716 C 0.15507 0.81201 0.38457 0.0
C2717 C 0.12519 0.8166 0.38266 0.0
C2718 C 0.15285 0.79389 0.37976 0.0
C2719 C 0.13695 0.78701 0.37686 0.0
H2720 H 0.68732 0.61669 0.33985 0.0
H2721 H 0.72654 0.59378 0.37206 0.0
H2722 H 0.72648 0.62033 0.39136 0.0
H2723 H 0.71466 0.64958 0.39979 0.0
H2724 H 0.67443 0.67177 0.36857 0.0
H2725 H 0.67561 0.64606 0.34817 0.0
C2726 C 0.69593 0.61754 0.35102 0.0
C2727 C 0.70691 0.60322 0.35448 0.0
C2728 C 0.69565 0.63274 0.36228 0.0
C2729 C 0.71788 0.60453 0.36913 0.0
C2730 C 0.71789 0.61974 0.38016 0.0
C2731 C 0.70626 0.64889 0.38842 0.0
C2732 C 0.69451 0.66262 0.38571 0.0
C2733 C 0.70675 0.63386 0.37696 0.0
C2734 C 0.68359 0.66138 0.37101 0.0
C2735 C 0.68424 0.64667 0.35933 0.0
H2736 H 0.88624 0.23381 0.38638 0.0
H2737 H 0.87768 0.17907 0.36957 0.0
H2738 H 0.84899 0.18097 0.37991 0.0
H2739 H 0.82503 0.20073 0.38567 0.0
H2740 H 0.83329 0.25658 0.39796 0.0
H2741 H 0.86326 0.25172 0.39801 0.0
C2742 C 0.87829 0.22208 0.38554 0.0
C2743 C 0.88392 0.20652 0.3767 0.0
C2744 C 0.86155 0.22363 0.39051 0.0
C2745 C 0.87352 0.19136 0.37597 0.0
C2746 C 0.85706 0.19247 0.38178 0.0
C2747 C 0.83345 0.21157 0.38916 0.0
C2748 C 0.82714 0.22896 0.39175 0.0
C2749 C 0.85067 0.20892 0.38788 0.0
C2750 C 0.838 0.24308 0.39597 0.0
C2751 C 0.85512 0.24033 0.3958 0.0
H2752 H 0.13695 0.77375 0.59621 0.0
H2753 H 0.14111 0.83045 0.60786 0.0
H2754 H 0.12217 0.82702 0.63324 0.0
H2755 H 0.10683 0.80737 0.65388 0.0
H2756 H 0.10339 0.75053 0.64253 0.0
H2757 H 0.11979 0.7546 0.61532 0.0
C2758 C 0.13352 0.78544 0.60409 0.0
C2759 C 0.14062 0.80228 0.60026 0.0
C2760 C 0.123 0.7833 0.61892 0.0
C2761 C 0.1359 0.8173 0.61055 0.0
C2762 C 0.12517 0.81533 0.62516 0.0
C2763 C 0.10962 0.79587 0.64544 0.0
C2764 C 0.10407 0.77864 0.65039 0.0
C2765 C 0.11908 0.79829 0.6298 0.0
C2766 C 0.10758 0.76394 0.63912 0.0
C2767 C 0.11695 0.76625 0.62353 0.0
H2768 H 0.14899 0.17845 0.34915 0.0
H2769 H 0.12258 0.21753 0.38097 0.0
H2770 H 0.09715 0.21156 0.36385 0.0
H2771 H 0.08301 0.19634 0.3387 0.0
H2772 H 0.10901 0.15563 0.30852 0.0
H2773 H 0.13406 0.1609 0.32628 0.0
C2774 C 0.13762 0.18559 0.35233 0.0
C2775 C 0.13758 0.19859 0.36601 0.0
C2776 C 0.12305 0.18176 0.34278 0.0
C2777 C 0.1228 0.20752 0.37038 0.0
C2778 C 0.10832 0.20414 0.3606 0.0
C2779 C 0.09414 0.18853 0.33616 0.0
C2780 C 0.09429 0.17576 0.32223 0.0
C2781 C 0.10838 0.19145 0.34661 0.0
C2782 C 0.10864 0.16551 0.31919 0.0
C2783 C 0.12297 0.1686 0.32927 0.0
H2784 H 0.3023 0.61291 0.34319 0.0
H2785 H 0.25374 0.59187 0.35565 0.0
H2786 H 0.25387 0.60838 0.38418 0.0
H2787 H 0.26777 0.6292 0.40523 0.0
H2788 H 0.31655 0.64946 0.39211 0.0
H2789 H 0.31626 0.63272 0.36409 0.0
C2790 C 0.29166 0.61192 0.35206 0.0
C2791 C 0.27796 0.60128 0.34721 0.0
C2792 C 0.29187 0.62128 0.36833 0.0
C2793 C 0.26442 0.60001 0.35904 0.0
C2794 C 0.2645 0.60945 0.37533 0.0
C2795 C 0.27835 0.62992 0.39626 0.0
C2796 C 0.29213 0.64064 0.4008 0.0
C2797 C 0.27815 0.62018 0.38007 0.0
C2798 C 0.30577 0.64133 0.38904 0.0
C2799 C 0.30563 0.63178 0.37296 0.0
H2800 H 0.85182 0.79898 0.35944 0.0
H2801 H 0.86803 0.74408 0.36612 0.0
H2802 H 0.89179 0.74984 0.34634 0.0
H2803 H 0.90794 0.77084 0.32714 0.0
H2804 H 0.89078 0.82566 0.32155 0.0
H2805 H 0.86737 0.81939 0.34077 0.0
C2806 C 0.86052 0.7882 0.35665 0.0
C2807 C 0.85815 0.77114 0.36429 0.0
C2808 C 0.87398 0.79156 0.34534 0.0
C2809 C 0.86957 0.75737 0.36042 0.0
C2810 C 0.88315 0.76065 0.3491 0.0
C2811 C 0.89905 0.78137 0.33009 0.0
C2812 C 0.90116 0.79866 0.32271 0.0
C2813 C 0.88547 0.77774 0.34146 0.0
C2814 C 0.88951 0.81216 0.32679 0.0
C2815 C 0.87607 0.80865 0.3379 0.0
H2816 H 0.71209 0.36802 0.4128 0.0
H2817 H 0.65997 0.35822 0.40324 0.0
H2818 H 0.661 0.37673 0.37636 0.0
H2819 H 0.67699 0.39339 0.35425 0.0
H2820 H 0.72904 0.40353 0.36312 0.0
H2821 H 0.7277 0.38723 0.39173 0.0
C2822 C 0.7009 0.37016 0.405 0.0
C2823 C 0.68604 0.36151 0.40993 0.0
C2824 C 0.70159 0.38068 0.38935 0.0
C2825 C 0.67163 0.36453 0.39969 0.0
C2826 C 0.67219 0.37508 0.38427 0.0
C2827 C 0.68807 0.39207 0.36244 0.0
C2828 C 0.70316 0.39934 0.35647 0.0
C2829 C 0.68718 0.38279 0.37874 0.0
C2830 C 0.7173 0.39792 0.36741 0.0
C2831 C 0.71653 0.3886 0.38373 0.0
H2832 H 0.8721 0.20156 0.66378 0.0
H2833 H 0.88843 0.14627 0.66299 0.0
H2834 H 0.87557 0.14207 0.63361 0.0
H2835 H 0.86617 0.15631 0.60549 0.0
H2836 H 0.85165 0.212 0.6057 0.0
H2837 H 0.85696 0.21383 0.63798 0.0
C2838 C 0.87246 0.18844 0.65742 0.0
C2839 C 0.88179 0.17448 0.66523 0.0
C2840 C 0.86553 0.18629 0.64025 0.0
C2841 C 0.88166 0.15739 0.65711 0.0
C2842 C 0.87441 0.15501 0.64021 0.0
C2843 C 0.86365 0.16864 0.6128 0.0
C2844 C 0.85851 0.18403 0.60339 0.0
C2845 C 0.86734 0.1697 0.6312 0.0
C2846 C 0.85521 0.19993 0.61283 0.0
C2847 C 0.85854 0.20103 0.63122 0.0
H2848 H 0.29642 0.34349 0.60724 0.0
H2849 H 0.25338 0.37474 0.59232 0.0
H2850 H 0.25706 0.39358 0.61893 0.0
H2851 H 0.27285 0.40154 0.64608 0.0
H2852 H 0.3159 0.37008 0.66063 0.0
H2853 H 0.31178 0.35099 0.63443 0.0
C2854 C 0.28779 0.3544 0.60976 0.0
C2855 C 0.27468 0.35771 0.59772 0.0
C2856 C 0.28999 0.36519 0.62501 0.0
C2857 C 0.2636 0.37187 0.60133 0.0
C2858 C 0.2657 0.38268 0.61654 0.0
C2859 C 0.28133 0.3905 0.64355 0.0
C2860 C 0.2947 0.38734 0.65532 0.0
C2861 C 0.27892 0.37952 0.62841 0.0
C2862 C 0.30551 0.3729 0.65183 0.0
C2863 C 0.30318 0.36194 0.63683 0.0
H2864 H 0.73204 0.61396 0.64095 0.0
H2865 H 0.69793 0.64467 0.67344 0.0
H2866 H 0.69329 0.66542 0.64847 0.0
H2867 H 0.69734 0.67347 0.61682 0.0
H2868 H 0.73021 0.64163 0.58381 0.0
H2869 H 0.73681 0.62264 0.60956 0.0
C2870 C 0.72387 0.62542 0.6427 0.0
C2871 C 0.71542 0.62783 0.65906 0.0
C2872 C 0.72081 0.63691 0.62809 0.0
C2873 C 0.70462 0.64256 0.66099 0.0
C2874 C 0.70189 0.65436 0.64669 0.0
C2875 C 0.706 0.66242 0.61523 0.0
C2876 C 0.71317 0.65896 0.59832 0.0
C2877 C 0.70962 0.65142 0.63006 0.0
C2878 C 0.72438 0.64456 0.59659 0.0
C2879 C 0.72823 0.63371 0.61134 0.0
H2880 H 0.62991 0.07231 0.79444 0.0
H2881 H 0.62082 0.08947 0.849 0.0
H2882 H 0.60123 0.11209 0.83824 0.0
H2883 H 0.58897 0.12885 0.81323 0.0
H2884 H 0.59849 0.11208 0.75862 0.0
H2885 H 0.61553 0.08723 0.76957 0.0
C2886 C 0.62352 0.08089 0.804 0.0
C2887 C 0.62698 0.07942 0.82246 0.0
C2888 C 0.61244 0.09395 0.79771 0.0
C2889 C 0.61843 0.0904 0.83471 0.0
C2890 C 0.60728 0.10338 0.82856 0.0
C2891 C 0.59464 0.11966 0.80371 0.0
C2892 C 0.59271 0.12247 0.78513 0.0
C2893 C 0.60455 0.10557 0.81007 0.0
C2894 C 0.59989 0.11029 0.77298 0.0
C2895 C 0.60968 0.09612 0.77923 0.0
H2896 H 0.39184 0.14854 0.77236 0.0
H2897 H 0.38108 0.16972 0.82519 0.0
H2898 H 0.35778 0.14912 0.82804 0.0
H2899 H 0.33992 0.12591 0.81531 0.0
H2900 H 0.34989 0.10512 0.76221 0.0
H2901 H 0.37419 0.12465 0.75982 0.0
C2902 C 0.38443 0.14864 0.78452 0.0
C2903 C 0.38821 0.16075 0.79849 0.0
C2904 C 0.37094 0.1368 0.78607 0.0
C2905 C 0.37845 0.16064 0.81416 0.0
C2906 C 0.36512 0.14883 0.81584 0.0
C2907 C 0.34746 0.1255 0.80325 0.0
C2908 C 0.34306 0.11409 0.78895 0.0
C2909 C 0.3612 0.13695 0.80185 0.0
C2910 C 0.35298 0.11381 0.77342 0.0
C2911 C 0.36685 0.125 0.77202 0.0
H2912 H 0.4143 0.8704 0.774 0.0
H2913 H 0.4243 0.86886 0.8308 0.0
H2914 H 0.39517 0.87557 0.8373 0.0
H2915 H 0.36879 0.88808 0.82662 0.0
H2916 H 0.35961 0.89239 0.76963 0.0
H2917 H 0.38623 0.87806 0.76335 0.0
C2918 C 0.40988 0.87092 0.78776 0.0
C2919 C 0.42122 0.86913 0.80194 0.0
C2920 C 0.39333 0.87565 0.79132 0.0
C2921 C 0.41562 0.8701 0.81974 0.0
C2922 C 0.39903 0.87409 0.82342 0.0
C2923 C 0.37241 0.88551 0.81282 0.0
C2924 C 0.36242 0.89178 0.79861 0.0
C2925 C 0.38801 0.87787 0.8093 0.0
C2926 C 0.36721 0.88805 0.78083 0.0
C2927 C 0.38247 0.87989 0.77721 0.0
H2928 H 0.66063 0.8255 0.81904 0.0
H2929 H 0.62882 0.87104 0.80845 0.0
H2930 H 0.60442 0.85242 0.81352 0.0
H2931 H 0.59213 0.8227 0.81741 0.0
H2932 H 0.62341 0.77677 0.82757 0.0
H2933 H 0.64801 0.79615 0.82676 0.0
C2934 C 0.64836 0.83139 0.818 0.0
C2935 C 0.64658 0.84958 0.81298 0.0
C2936 C 0.6343 0.82054 0.82084 0.0
C2937 C 0.63059 0.85706 0.81206 0.0
C2938 C 0.6166 0.84641 0.81494 0.0
C2939 C 0.60432 0.81693 0.81964 0.0
C2940 C 0.60599 0.79828 0.82219 0.0
C2941 C 0.61832 0.82805 0.81878 0.0
C2942 C 0.62181 0.79108 0.8255 0.0
C2943 C 0.63588 0.80214 0.82487 0.0
H2944 H 0.63819 0.8915 0.21602 0.0
H2945 H 0.61113 0.88246 0.1668 0.0
H2946 H 0.59124 0.86358 0.1829 0.0
H2947 H 0.57915 0.85397 0.2119 0.0
H2948 H 0.60611 0.86375 0.26093 0.0
H2949 H 0.62848 0.87806 0.24402 0.0
C2950 C 0.62808 0.88518 0.20876 0.0
C2951 C 0.62586 0.88874 0.19039 0.0
C2952 C 0.61663 0.87459 0.21811 0.0
C2953 C 0.61297 0.88011 0.18103 0.0
C2954 C 0.60155 0.86938 0.19023 0.0
C2955 C 0.59027 0.85859 0.21871 0.0
C2956 C 0.59124 0.85762 0.2375 0.0
C2957 C 0.60291 0.86711 0.2089 0.0
C2958 C 0.6053 0.86425 0.2464 0.0
C2959 C 0.61801 0.87248 0.23676 0.0
H2960 H 0.5965 0.14211 0.1838 0.0
H2961 H 0.61577 0.17333 0.13963 0.0
H2962 H 0.63882 0.15213 0.13635 0.0
H2963 H 0.6542 0.12538 0.14717 0.0
H2964 H 0.63425 0.09464 0.19142 0.0
H2965 H 0.6107 0.11497 0.19337 0.0
C2966 C 0.60569 0.14433 0.1734 0.0
C2967 C 0.60451 0.15948 0.16217 0.0
C2968 C 0.61882 0.13213 0.17159 0.0
C2969 C 0.61643 0.16189 0.14858 0.0
C2970 C 0.62963 0.14976 0.1467 0.0
C2971 C 0.64462 0.12305 0.15713 0.0
C2972 C 0.6461 0.10856 0.16923 0.0
C2973 C 0.63106 0.13493 0.1583 0.0
C2974 C 0.63355 0.10574 0.18203 0.0
C2975 C 0.62005 0.11737 0.18318 0.0
H2976 H 0.342 0.10328 0.22207 0.0
H2977 H 0.38824 0.07609 0.23212 0.0
H2978 H 0.4036 0.1014 0.21941 0.0
H2979 H 0.40392 0.1329 0.21013 0.0
H2980 H 0.35776 0.161 0.20141 0.0
H2981 H 0.34228 0.13365 0.20853 0.0
C2982 C 0.35539 0.1027 0.22076 0.0
C2983 C 0.36406 0.08788 0.2277 0.0
C2984 C 0.36413 0.1176 0.21405 0.0
C2985 C 0.38141 0.08734 0.22657 0.0
C2986 C 0.39016 0.10186 0.21948 0.0
C2987 C 0.39048 0.13301 0.20956 0.0
C2988 C 0.38202 0.14909 0.20569 0.0
C2989 C 0.38168 0.11736 0.21394 0.0
C2990 C 0.3646 0.14888 0.20463 0.0
C2991 C 0.35572 0.13325 0.20873 0.0
H2992 H 0.38744 0.81569 0.18171 0.0
H2993 H 0.39675 0.81432 0.23887 0.0
H2994 H 0.37796 0.83959 0.24329 0.0
H2995 H 0.35846 0.86169 0.23111 0.0
H2996 H 0.34925 0.86335 0.17396 0.0
H2997 H 0.3685 0.83843 0.1694 0.0
C2998 C 0.38534 0.82089 0.19514 0.0
C2999 C 0.39346 0.81304 0.20992 0.0
C3000 C 0.37457 0.83551 0.19761 0.0
C3001 C 0.3907 0.82009 0.22722 0.0
C3002 C 0.37993 0.83455 0.22979 0.0
C3003 C 0.3607 0.85666 0.21764 0.0
C3004 C 0.35237 0.86433 0.20293 0.0
C3005 C 0.37176 0.84232 0.2151 0.0
C3006 C 0.35548 0.85769 0.18555 0.0
C3007 C 0.36647 0.8434 0.18292 0.0
H3008 H 0.77784 0.14995 0.60821 0.0
H3009 H 0.82804 0.16385 0.62288 0.0
H3010 H 0.8277 0.1411 0.64654 0.0
H3011 H 0.8128 0.11784 0.66364 0.0
H3012 H 0.76286 0.10349 0.64835 0.0
H3013 H 0.76341 0.12596 0.62445 0.0
C3014 C 0.78874 0.14797 0.61653 0.0
C3015 C 0.80293 0.15864 0.61377 0.0
C3016 C 0.78845 0.13489 0.63011 0.0
C3017 C 0.81699 0.15576 0.62459 0.0
C3018 C 0.81677 0.14283 0.63822 0.0
C3019 C 0.802 0.1197 0.65514 0.0
C3020 C 0.78774 0.10912 0.6579 0.0
C3021 C 0.80249 0.13245 0.64122 0.0
C3022 C 0.77397 0.11148 0.64656 0.0
C3023 C 0.77428 0.12432 0.63287 0.0
H3024 H 0.36589 0.26943 0.63491 0.0
H3025 H 0.40589 0.28828 0.60131 0.0
H3026 H 0.3859 0.29664 0.57795 0.0
H3027 H 0.35689 0.3001 0.56797 0.0
H3028 H 0.31721 0.28183 0.6024 0.0
H3029 H 0.33736 0.27163 0.62457 0.0
C3030 C 0.37031 0.27529 0.62246 0.0
C3031 C 0.38734 0.27836 0.6199 0.0
C3032 C 0.3588 0.28021 0.60928 0.0
C3033 C 0.39282 0.28584 0.60362 0.0
C3034 C 0.3814 0.29064 0.59029 0.0
C3035 C 0.35267 0.29375 0.58026 0.0
C3036 C 0.33557 0.29185 0.58359 0.0
C3037 C 0.36433 0.28811 0.5931 0.0
C3038 C 0.33029 0.28359 0.59957 0.0
C3039 C 0.3418 0.27775 0.61226 0.0
H3040 H 0.18659 0.85506 0.61916 0.0
H3041 H 0.2368 0.86843 0.60392 0.0
H3042 H 0.23543 0.89573 0.62201 0.0
H3043 H 0.21986 0.91607 0.64165 0.0
H3044 H 0.16987 0.90247 0.65737 0.0
H3045 H 0.17127 0.87502 0.6394 0.0
C3046 C 0.19728 0.86388 0.61984 0.0
C3047 C 0.21175 0.85969 0.61011 0.0
C3048 C 0.19641 0.8796 0.6302 0.0
C3049 C 0.2255 0.87127 0.61125 0.0
C3050 C 0.22471 0.88695 0.62154 0.0
C3051 C 0.20921 0.90719 0.64104 0.0
C3052 C 0.19473 0.9114 0.65071 0.0
C3053 C 0.21018 0.89132 0.63092 0.0
C3054 C 0.18115 0.89958 0.65001 0.0
C3055 C 0.18195 0.88386 0.63977 0.0
H3056 H 0.61539 0.68526 0.62231 0.0
H3057 H 0.59618 0.72684 0.58765 0.0
H3058 H 0.6243 0.73372 0.57746 0.0
H3059 H 0.65421 0.73325 0.58474 0.0
H3060 H 0.67279 0.69473 0.62296 0.0
H3061 H 0.6452 0.68126 0.62554 0.0
C3062 C 0.61731 0.69552 0.61215 0.0
C3063 C 0.60384 0.706 0.60624 0.0
C3064 C 0.63351 0.70021 0.60737 0.0
C3065 C 0.60639 0.71881 0.59266 0.0
C3066 C 0.6225 0.72289 0.587 0.0
C3067 C 0.6522 0.72154 0.59314 0.0
C3068 C 0.66525 0.7149 0.60371 0.0
C3069 C 0.63616 0.71455 0.59524 0.0
C3070 C 0.66276 0.69991 0.61474 0.0
C3071 C 0.64703 0.69231 0.61625 0.0
H3072 H 0.77051 0.84722 0.37641 0.0
H3073 H 0.81054 0.82 0.349 0.0
H3074 H 0.81154 0.84396 0.32666 0.0
H3075 H 0.80203 0.87334 0.31575 0.0
H3076 H 0.76255 0.90092 0.34364 0.0
H3077 H 0.76035 0.87605 0.36486 0.0
C3078 C 0.77939 0.84642 0.3655 0.0
C3079 C 0.79046 0.83179 0.36449 0.0
C3080 C 0.78004 0.86035 0.35277 0.0
C3081 C 0.80188 0.83108 0.3502 0.0
C3082 C 0.80248 0.84479 0.33739 0.0
C3083 C 0.7928 0.87384 0.32633 0.0
C3084 C 0.7825 0.88903 0.32806 0.0
C3085 C 0.79175 0.85959 0.33866 0.0
C3086 C 0.77071 0.88946 0.34199 0.0
C3087 C 0.76944 0.87523 0.35416 0.0
H3088 H 0.56897 0.29279 0.37771 0.0
H3089 H 0.6062 0.26822 0.34427 0.0
H3090 H 0.62788 0.28559 0.35952 0.0
H3091 H 0.63631 0.30303 0.38626 0.0
H3092 H 0.5989 0.32767 0.41959 0.0
H3093 H 0.57711 0.31519 0.40041 0.0
C3094 C 0.58179 0.2918 0.37336 0.0
C3095 C 0.58612 0.2793 0.36002 0.0
C3096 C 0.59411 0.3015 0.38246 0.0
C3097 C 0.60266 0.27796 0.3544 0.0
C3098 C 0.61504 0.28767 0.36331 0.0
C3099 C 0.62338 0.30591 0.38909 0.0
C3100 C 0.61914 0.31582 0.40454 0.0
C3101 C 0.61096 0.29873 0.37798 0.0
C3102 C 0.60242 0.3199 0.40788 0.0
C3103 C 0.58997 0.31272 0.39695 0.0
H3104 H 0.18964 0.12097 0.32418 0.0
H3105 H 0.22034 0.08729 0.35781 0.0
H3106 H 0.22412 0.11222 0.37888 0.0
H3107 H 0.2174 0.14313 0.38846 0.0
H3108 H 0.18558 0.17583 0.35515 0.0
H3109 H 0.18361 0.15168 0.33317 0.0
C3110 C 0.19729 0.11905 0.33603 0.0
C3111 C 0.20466 0.10226 0.33942 0.0
C3112 C 0.19916 0.13325 0.34817 0.0
C3113 C 0.21445 0.10006 0.35491 0.0
C3114 C 0.21663 0.1143 0.36696 0.0
C3115 C 0.21021 0.14501 0.37627 0.0
C3116 C 0.20158 0.1612 0.37345 0.0
C3117 C 0.20887 0.1309 0.36382 0.0
C3118 C 0.19219 0.16343 0.35771 0.0
C3119 C 0.19108 0.14964 0.34511 0.0
H3120 H 0.35747 0.69066 0.39975 0.0
H3121 H 0.38152 0.68663 0.45151 0.0
H3122 H 0.40819 0.69313 0.43774 0.0
H3123 H 0.42458 0.70076 0.41148 0.0
H3124 H 0.40128 0.70525 0.35948 0.0
H3125 H 0.3744 0.6975 0.37284 0.0
C3126 C 0.36856 0.69118 0.40799 0.0
C3127 C 0.36746 0.68827 0.42667 0.0
C3128 C 0.38396 0.69494 0.39997 0.0
C3129 C 0.38196 0.68888 0.43714 0.0
C3130 C 0.39724 0.6926 0.42929 0.0
C3131 C 0.41364 0.70004 0.40302 0.0
C3132 C 0.41489 0.70357 0.38453 0.0
C3133 C 0.39835 0.69578 0.41078 0.0
C3134 C 0.40063 0.70241 0.37373 0.0
C3135 C 0.38527 0.69811 0.38139 0.0
H3136 H 0.59668 0.32687 0.64991 0.0
H3137 H 0.62608 0.33796 0.69693 0.0
H3138 H 0.65155 0.33544 0.67896 0.0
H3139 H 0.66524 0.32473 0.65094 0.0
H3140 H 0.63493 0.31237 0.60465 0.0
H3141 H 0.6101 0.32055 0.62127 0.0
C3142 C 0.60867 0.32933 0.65608 0.0
C3143 C 0.60957 0.33243 0.67468 0.0
C3144 C 0.62312 0.32702 0.64589 0.0
C3145 C 0.6251 0.33567 0.68259 0.0
C3146 C 0.63965 0.33389 0.67236 0.0
C3147 C 0.65321 0.32394 0.64447 0.0
C3148 C 0.65198 0.31748 0.62666 0.0
C3149 C 0.63881 0.32863 0.6542 0.0
C3150 C 0.6363 0.31695 0.61839 0.0
C3151 C 0.62205 0.32171 0.62786 0.0
H3152 H 0.58713 0.71179 0.32753 0.0
H3153 H 0.6071 0.65794 0.3246 0.0
H3154 H 0.62216 0.6628 0.35257 0.0
H3155 H 0.63078 0.68268 0.37702 0.0
H3156 H 0.61184 0.73692 0.37951 0.0
H3157 H 0.59501 0.73139 0.35272 0.0
C3158 C 0.59473 0.70108 0.33301 0.0
C3159 C 0.59602 0.68455 0.32384 0.0
C3160 C 0.60347 0.70398 0.34909 0.0
C3161 C 0.60592 0.67084 0.33124 0.0
C3162 C 0.61452 0.67358 0.34729 0.0
C3163 C 0.62278 0.69323 0.37189 0.0
C3164 C 0.62258 0.7102 0.38026 0.0
C3165 C 0.6135 0.69013 0.35624 0.0
C3166 C 0.61223 0.72374 0.37332 0.0
C3167 C 0.60267 0.72062 0.35795 0.0
H3168 H 0.76414 0.13762 0.39429 0.0
H3169 H 0.80553 0.16712 0.37225 0.0
H3170 H 0.80917 0.14408 0.34917 0.0
H3171 H 0.80082 0.11544 0.33552 0.0
H3172 H 0.75907 0.08631 0.35725 0.0
H3173 H 0.75539 0.10941 0.38023 0.0
C3174 C 0.77398 0.13904 0.38446 0.0
C3175 C 0.78458 0.15407 0.38507 0.0
C3176 C 0.77596 0.12581 0.37119 0.0
C3177 C 0.79716 0.15573 0.37209 0.0
C3178 C 0.79928 0.14253 0.35891 0.0
C3179 C 0.79092 0.1141 0.34529 0.0
C3180 C 0.78028 0.09909 0.34469 0.0
C3181 C 0.78879 0.12749 0.35838 0.0
C3182 C 0.76743 0.0977 0.35737 0.0
C3183 C 0.76533 0.1109 0.37054 0.0
H3184 H 0.41199 0.30152 0.35515 0.0
H3185 H 0.39099 0.34741 0.32787 0.0
H3186 H 0.36715 0.34684 0.3482 0.0
H3187 H 0.35113 0.33146 0.37174 0.0
H3188 H 0.37213 0.28522 0.39852 0.0
H3189 H 0.39724 0.28794 0.38043 0.0
C3190 C 0.40227 0.31151 0.35373 0.0
C3191 C 0.40316 0.32433 0.33986 0.0
C3192 C 0.38858 0.31099 0.36531 0.0
C3193 C 0.39061 0.33737 0.3384 0.0
C3194 C 0.37693 0.33699 0.34997 0.0
C3195 C 0.36126 0.32208 0.37378 0.0
C3196 C 0.35962 0.30798 0.3863 0.0
C3197 C 0.37561 0.32358 0.36318 0.0
C3198 C 0.37297 0.2961 0.38889 0.0
C3199 C 0.38733 0.29761 0.37852 0.0
H3200 H 0.22656 0.91031 0.33787 0.0
H3201 H 0.17504 0.8953 0.33213 0.0
H3202 H 0.17831 0.87223 0.35479 0.0
H3203 H 0.19543 0.85616 0.37605 0.0
H3204 H 0.24672 0.87102 0.38352 0.0
H3205 H 0.24389 0.89424 0.36033 0.0
C3206 C 0.21606 0.90207 0.3417 0.0
C3207 C 0.20064 0.90443 0.33309 0.0
C3208 C 0.21796 0.88871 0.35496 0.0
C3209 C 0.18713 0.89363 0.33824 0.0
C3210 C 0.18895 0.88041 0.35127 0.0
C3211 C 0.20608 0.86435 0.3726 0.0
C3212 C 0.22129 0.86174 0.38146 0.0
C3213 C 0.2043 0.87776 0.3596 0.0
C3214 C 0.23486 0.87269 0.37686 0.0
C3215 C 0.23324 0.886 0.36365 0.0
H3216 H 0.34478 0.70404 0.60094 0.0
H3217 H 0.33412 0.65677 0.63227 0.0
H3218 H 0.36073 0.65965 0.64783 0.0
H3219 H 0.38498 0.67766 0.65503 0.0
H3220 H 0.39458 0.72685 0.62606 0.0
H3221 H 0.37051 0.72113 0.60685 0.0
C3222 C 0.34862 0.69412 0.61078 0.0
C3223 C 0.33781 0.68009 0.6154 0.0
C3224 C 0.36351 0.69644 0.62029 0.0
C3225 C 0.34249 0.66752 0.62846 0.0
C3226 C 0.35757 0.66926 0.63743 0.0
C3227 C 0.38186 0.68718 0.64454 0.0
C3228 C 0.39135 0.70288 0.64228 0.0
C3229 C 0.36786 0.68405 0.63391 0.0
C3230 C 0.38736 0.71477 0.62825 0.0
C3231 C 0.3736 0.71151 0.61726 0.0
H3232 H 0.79225 0.86513 0.5798 0.0
H3233 H 0.83608 0.83866 0.60017 0.0
H3234 H 0.83315 0.85493 0.62867 0.0
H3235 H 0.81802 0.87688 0.64769 0.0
H3236 H 0.77397 0.90251 0.62663 0.0
H3237 H 0.77718 0.88624 0.5985 0.0
C3238 C 0.80128 0.86289 0.59038 0.0
C3239 C 0.81446 0.85075 0.58769 0.0
C3240 C 0.79946 0.87214 0.60666 0.0
C3241 C 0.82587 0.84799 0.60176 0.0
C3242 C 0.82417 0.85728 0.61808 0.0
C3243 C 0.80912 0.87893 0.63695 0.0
C3244 C 0.79578 0.89103 0.63934 0.0
C3245 C 0.811 0.86943 0.62067 0.0
C3246 C 0.78436 0.89337 0.62525 0.0
C3247 C 0.78619 0.88407 0.60911 0.0
H3248 H 0.21882 0.14215 0.60463 0.0
H3249 H 0.16577 0.13769 0.59795 0.0
H3250 H 0.16332 0.12405 0.62753 0.0
H3251 H 0.17557 0.11602 0.65585 0.0
H3252 H 0.22827 0.12108 0.66448 0.0
H3253 H 0.23166 0.13179 0.63335 0.0
C3254 C 0.20682 0.13784 0.6096 0.0
C3255 C 0.19246 0.14097 0.59929 0.0
C3256 C 0.20543 0.13042 0.62692 0.0
C3257 C 0.17693 0.13551 0.60578 0.0
C3258 C 0.17552 0.12777 0.62267 0.0
C3259 C 0.18785 0.11954 0.65103 0.0
C3260 C 0.20161 0.11826 0.66253 0.0
C3261 C 0.18959 0.12568 0.63348 0.0
C3262 C 0.21748 0.12222 0.65588 0.0
C3263 C 0.21938 0.12832 0.63814 0.0
H3264 H 0.614 0.608 0.29906 0.0
H3265 H 0.60538 0.59312 0.24375 0.0
H3266 H 0.63406 0.58324 0.24094 0.0
H3267 H 0.66273 0.58606 0.25198 0.0
H3268 H 0.67163 0.60114 0.30702 0.0
H3269 H 0.64172 0.6036 0.31228 0.0
C3270 C 0.61827 0.60206 0.28657 0.0
C3271 C 0.60777 0.60194 0.27144 0.0
C3272 C 0.63492 0.59681 0.28491 0.0
C3273 C 0.61329 0.59373 0.25551 0.0
C3274 C 0.62976 0.58821 0.25382 0.0
C3275 C 0.65802 0.58926 0.26526 0.0
C3276 C 0.66915 0.59365 0.27905 0.0
C3277 C 0.64089 0.59082 0.26806 0.0
C3278 C 0.66314 0.59771 0.29626 0.0
C3279 C 0.64607 0.59925 0.2992 0.0
H3280 H 0.40609 0.63455 0.3149 0.0
H3281 H 0.37418 0.67594 0.33596 0.0
H3282 H 0.35005 0.6561 0.33233 0.0
H3283 H 0.33781 0.6288 0.31846 0.0
H3284 H 0.37033 0.58806 0.29674 0.0
H3285 H 0.39444 0.60583 0.30526 0.0
C3286 C 0.3939 0.63898 0.31924 0.0
C3287 C 0.39182 0.65662 0.32558 0.0
C3288 C 0.38016 0.6278 0.31649 0.0
C3289 C 0.37605 0.66232 0.3312 0.0
C3290 C 0.36225 0.65108 0.32882 0.0
C3291 C 0.35018 0.62378 0.3157 0.0
C3292 C 0.35223 0.6073 0.30655 0.0
C3293 C 0.36408 0.63411 0.32067 0.0
C3294 C 0.36835 0.60079 0.30348 0.0
C3295 C 0.38217 0.61092 0.3084 0.0
H3296 H 0.40012 0.41045 0.28585 0.0
H3297 H 0.40818 0.35368 0.29221 0.0
H3298 H 0.37884 0.34781 0.28763 0.0
H3299 H 0.35082 0.35894 0.2822 0.0
H3300 H 0.34249 0.4156 0.27398 0.0
H3301 H 0.37197 0.42158 0.27916 0.0
C3302 C 0.39548 0.39678 0.28621 0.0
C3303 C 0.40644 0.38237 0.28952 0.0
C3304 C 0.37849 0.39362 0.28339 0.0
C3305 C 0.40013 0.36485 0.28977 0.0
C3306 C 0.38329 0.36155 0.28715 0.0
C3307 C 0.35542 0.37263 0.28151 0.0
C3308 C 0.3444 0.3869 0.27817 0.0
C3309 C 0.37236 0.37585 0.28403 0.0
C3310 C 0.35062 0.40449 0.27718 0.0
C3311 C 0.3675 0.40786 0.27991 0.0
H3312 H 0.64528 0.36386 0.31756 0.0
H3313 H 0.66025 0.35396 0.26265 0.0
H3314 H 0.6458 0.32541 0.26283 0.0
H3315 H 0.62676 0.30471 0.27709 0.0
H3316 H 0.60951 0.31456 0.33096 0.0
H3317 H 0.62757 0.34112 0.33305 0.0
C3318 C 0.64534 0.35544 0.30566 0.0
C3319 C 0.65364 0.36126 0.29002 0.0
C3320 C 0.63683 0.33886 0.30577 0.0
C3321 C 0.65382 0.35003 0.27481 0.0
C3322 C 0.64564 0.33358 0.2749 0.0
C3323 C 0.62729 0.31242 0.28948 0.0
C3324 C 0.61682 0.30781 0.3038 0.0
C3325 C 0.6369 0.32804 0.29014 0.0
C3326 C 0.61763 0.31777 0.31982 0.0
C3327 C 0.62771 0.33314 0.32086 0.0
H3328 H 0.58032 0.37075 0.69861 0.0
H3329 H 0.59948 0.38476 0.75082 0.0
H3330 H 0.6237 0.39879 0.737 0.0
H3331 H 0.63664 0.41138 0.71029 0.0
H3332 H 0.61692 0.39911 0.65778 0.0
H3333 H 0.59596 0.37958 0.6714 0.0
C3334 C 0.59018 0.37625 0.70688 0.0
C3335 C 0.58835 0.37669 0.72562 0.0
C3336 C 0.60375 0.38487 0.69878 0.0
C3337 C 0.60082 0.38427 0.73634 0.0
C3338 C 0.61457 0.39237 0.72845 0.0
C3339 C 0.62788 0.40429 0.70178 0.0
C3340 C 0.62798 0.4071 0.68313 0.0
C3341 C 0.61572 0.39349 0.7097 0.0
C3342 C 0.61688 0.39741 0.67223 0.0
C3343 C 0.60488 0.38629 0.68001 0.0
H3344 H 0.64554 0.6178 0.67929 0.0
H3345 H 0.63295 0.6102 0.73514 0.0
H3346 H 0.60877 0.62975 0.73154 0.0
H3347 H 0.59254 0.65094 0.71304 0.0
H3348 H 0.60609 0.65887 0.65743 0.0
H3349 H 0.6285 0.63721 0.66049 0.0
C3350 C 0.63745 0.62027 0.69067 0.0
C3351 C 0.64116 0.6127 0.70749 0.0
C3352 C 0.62377 0.6317 0.68859 0.0
C3353 C 0.63044 0.61594 0.72205 0.0
C3354 C 0.61663 0.62716 0.72001 0.0
C3355 C 0.60027 0.64776 0.70154 0.0
C3356 C 0.5977 0.65667 0.68509 0.0
C3357 C 0.61336 0.63541 0.70342 0.0
C3358 C 0.60786 0.65238 0.67032 0.0
C3359 C 0.6207 0.63997 0.67203 0.0
H3360 H 0.36419 0.65133 0.69129 0.0
H3361 H 0.41089 0.63574 0.71513 0.0
H3362 H 0.39761 0.60999 0.72933 0.0
H3363 H 0.372 0.59493 0.73888 0.0
H3364 H 0.32521 0.61073 0.71591 0.0
H3365 H 0.33921 0.63321 0.69722 0.0
C3366 C 0.37151 0.64214 0.69938 0.0
C3367 C 0.38841 0.6457 0.70251 0.0
C3368 C 0.36375 0.62742 0.70767 0.0
C3369 C 0.39781 0.63347 0.7127 0.0
C3370 C 0.39022 0.61874 0.72087 0.0
C3371 C 0.36502 0.6029 0.72927 0.0
C3372 C 0.34773 0.60117 0.72849 0.0
C3373 C 0.37311 0.616 0.71899 0.0
C3374 C 0.33861 0.61163 0.71632 0.0
C3375 C 0.3466 0.62463 0.70587 0.0
H3376 H 0.35614 0.36094 0.68646 0.0
H3377 H 0.37421 0.36932 0.74045 0.0
H3378 H 0.39448 0.34525 0.73639 0.0
H3379 H 0.40704 0.3219 0.71758 0.0
H3380 H 0.38868 0.31315 0.66371 0.0
H3381 H 0.36846 0.33723 0.66777 0.0
C3382 C 0.36457 0.35757 0.69732 0.0
C3383 C 0.36371 0.36699 0.71371 0.0
C3384 C 0.37607 0.34359 0.69497 0.0
C3385 C 0.37461 0.36232 0.7277 0.0
C3386 C 0.3862 0.34854 0.72539 0.0
C3387 C 0.39861 0.3252 0.7067 0.0
C3388 C 0.39947 0.31571 0.69034 0.0
C3389 C 0.38701 0.33907 0.7091 0.0
C3390 C 0.38836 0.32019 0.67646 0.0
C3391 C 0.37679 0.33401 0.67874 0.0
H3392 H 0.77213 0.58431 0.1441 0.0
H3393 H 0.80003 0.61293 0.18459 0.0
H3394 H 0.79277 0.64145 0.17085 0.0
H3395 H 0.78219 0.65788 0.14518 0.0
H3396 H 0.75571 0.63017 0.10323 0.0
H3397 H 0.75814 0.60181 0.11991 0.0
C3398 C 0.7763 0.59683 0.15005 0.0
C3399 C 0.78689 0.59651 0.16508 0.0
C3400 C 0.77235 0.61334 0.14181 0.0
C3401 C 0.79216 0.61281 0.17277 0.0
C3402 C 0.78798 0.62915 0.16498 0.0
C3403 C 0.77667 0.64568 0.13988 0.0
C3404 C 0.76906 0.64595 0.12297 0.0
C3405 C 0.77865 0.62952 0.14915 0.0
C3406 C 0.76164 0.63021 0.1163 0.0
C3407 C 0.7632 0.61399 0.12573 0.0
H3408 H 0.37869 0.80074 0.0664 0.0
H3409 H 0.33653 0.77892 0.09479 0.0
H3410 H 0.35444 0.76996 0.11953 0.0
H3411 H 0.38156 0.76962 0.13382 0.0
H3412 H 0.42408 0.79128 0.10606 0.0
H3413 H 0.40651 0.79891 0.08028 0.0
C3414 C 0.37344 0.79391 0.07794 0.0
C3415 C 0.35624 0.79066 0.07877 0.0
C3416 C 0.38383 0.78884 0.09226 0.0
C3417 C 0.34968 0.7817 0.0938 0.0
C3418 C 0.35991 0.77658 0.10799 0.0
C3419 C 0.38705 0.77599 0.12214 0.0
C3420 C 0.40408 0.78005 0.12195 0.0
C3421 C 0.37693 0.78032 0.10748 0.0
C3422 C 0.41098 0.78807 0.10658 0.0
C3423 C 0.40094 0.79246 0.09186 0.0
H3424 H 0.21266 0.39546 0.13306 0.0
H3425 H 0.16384 0.38352 0.1539 0.0
H3426 H 0.16648 0.35253 0.14393 0.0
H3427 H 0.18154 0.32965 0.12754 0.0
H3428 H 0.22966 0.34136 0.10498 0.0
H3429 H 0.22869 0.37151 0.11814 0.0
C3430 C 0.20258 0.3861 0.13538 0.0
C3431 C 0.18796 0.39192 0.14396 0.0
C3432 C 0.20415 0.36824 0.12958 0.0
C3433 C 0.17515 0.37951 0.14714 0.0
C3434 C 0.17667 0.36174 0.14154 0.0
C3435 C 0.19196 0.33865 0.12565 0.0
C3436 C 0.20552 0.33334 0.11504 0.0
C3437 C 0.191 0.35607 0.13255 0.0
C3438 C 0.21903 0.34511 0.11306 0.0
C3439 C 0.21839 0.36242 0.12039 0.0
H3440 H 0.61062 0.20804 0.08559 0.0
H3441 H 0.59777 0.21389 0.14125 0.0
H3442 H 0.62679 0.2125 0.14988 0.0
H3443 H 0.65582 0.20939 0.14152 0.0
H3444 H 0.66951 0.20611 0.08562 0.0
H3445 H 0.64021 0.20647 0.07699 0.0
C3446 C 0.61416 0.209 0.09962 0.0
C3447 C 0.60188 0.21073 0.11301 0.0
C3448 C 0.63107 0.20848 0.10431 0.0
C3449 C 0.60683 0.2122 0.13095 0.0
C3450 C 0.62349 0.2115 0.13579 0.0
C3451 C 0.65246 0.20877 0.12741 0.0
C3452 C 0.66484 0.20719 0.11423 0.0
C3453 C 0.6357 0.20955 0.12259 0.0
C3454 C 0.66021 0.20661 0.09604 0.0
C3455 C 0.64345 0.20706 0.09111 0.0
H3456 H 0.80345 0.38217 0.82389 0.0
H3457 H 0.75764 0.40798 0.83938 0.0
H3458 H 0.75198 0.3839 0.86067 0.0
H3459 H 0.76077 0.35668 0.87635 0.0
H3460 H 0.80721 0.33143 0.86227 0.0
H3461 H 0.81176 0.35398 0.83891 0.0
C3462 C 0.79216 0.38243 0.8318 0.0
C3463 C 0.78106 0.39695 0.83009 0.0
C3464 C 0.78908 0.36865 0.84434 0.0
C3465 C 0.7665 0.39709 0.84052 0.0
C3466 C 0.76322 0.38329 0.8527 0.0
C3467 C 0.7718 0.35593 0.86803 0.0
C3468 C 0.78363 0.34237 0.87114 0.0
C3469 C 0.77454 0.36917 0.85493 0.0
C3470 C 0.79789 0.34174 0.86025 0.0
C3471 C 0.80053 0.35466 0.84689 0.0
H3472 H 0.61857 0.80842 0.89079 0.0
H3473 H 0.66544 0.78196 0.88129 0.0
H3474 H 0.65146 0.75827 0.86457 0.0
H3475 H 0.62568 0.74215 0.85806 0.0
H3476 H 0.57864 0.76761 0.8681 0.0
H3477 H 0.59282 0.79473 0.87891 0.0
C3478 C 0.62575 0.79772 0.88467 0.0
C3479 C 0.64295 0.79664 0.88777 0.0
C3480 C 0.61756 0.78383 0.87537 0.0
C3481 C 0.65212 0.78284 0.87951 0.0
C3482 C 0.64415 0.76926 0.86996 0.0
C3483 C 0.61861 0.75389 0.86214 0.0
C3484 C 0.60126 0.75304 0.86239 0.0
C3485 C 0.62683 0.76913 0.86867 0.0
C3486 C 0.59206 0.76815 0.86768 0.0
C3487 C 0.60017 0.78355 0.87401 0.0
H3488 H 0.18578 0.62861 0.88161 0.0
H3489 H 0.2338 0.63774 0.8579 0.0
H3490 H 0.23238 0.60817 0.84301 0.0
H3491 H 0.21568 0.58134 0.83427 0.0
H3492 H 0.16715 0.57401 0.85743 0.0
H3493 H 0.17063 0.60121 0.87543 0.0
C3494 C 0.19599 0.62409 0.87323 0.0
C3495 C 0.20969 0.63536 0.87044 0.0
C3496 C 0.19498 0.6074 0.86478 0.0
C3497 C 0.22306 0.62925 0.86003 0.0
C3498 C 0.22221 0.61242 0.85154 0.0
C3499 C 0.20614 0.58554 0.84367 0.0
C3500 C 0.19122 0.57584 0.84477 0.0
C3501 C 0.20802 0.60158 0.85348 0.0
C3502 C 0.17872 0.58137 0.85659 0.0
C3503 C 0.18067 0.59692 0.86674 0.0
H3504 H 0.38016 0.21369 0.934 0.0
H3505 H 0.34113 0.19206 0.90054 0.0
H3506 H 0.35865 0.19513 0.87415 0.0
H3507 H 0.38502 0.20302 0.86064 0.0
H3508 H 0.42444 0.22487 0.89328 0.0
H3509 H 0.40672 0.22268 0.91996 0.0
C3510 C 0.37547 0.20973 0.92093 0.0
C3511 C 0.35936 0.20257 0.91931 0.0
C3512 C 0.38567 0.2115 0.90569 0.0
C3513 C 0.35347 0.19758 0.90223 0.0
C3514 C 0.36349 0.19929 0.8871 0.0
C3515 C 0.38981 0.20732 0.87356 0.0
C3516 C 0.40608 0.21397 0.87497 0.0
C3517 C 0.37962 0.20607 0.88871 0.0
C3518 C 0.41197 0.21964 0.89183 0.0
C3519 C 0.40185 0.21838 0.90708 0.0
H3520 H 0.62493 0.82139 0.19834 0.0
H3521 H 0.58534 0.82466 0.15964 0.0
H3522 H 0.60536 0.82899 0.13539 0.0
H3523 H 0.63399 0.82551 0.12469 0.0
H3524 H 0.67371 0.82043 0.16327 0.0
H3525 H 0.65396 0.82322 0.1879 0.0
C3526 C 0.62075 0.82378 0.18469 0.0
C3527 C 0.60378 0.82266 0.18067 0.0
C3528 C 0.6324 0.82536 0.17068 0.0
C3529 C 0.59841 0.82551 0.16294 0.0
C3530 C 0.60985 0.82778 0.14907 0.0
C3531 C 0.63836 0.82532 0.13848 0.0
C3532 C 0.65524 0.82221 0.14208 0.0
C3533 C 0.62689 0.82666 0.15265 0.0
C3534 C 0.66072 0.82238 0.16005 0.0
C3535 C 0.64943 0.82401 0.17421 0.0
H3536 H 0.62927 0.23276 0.87599 0.0
H3537 H 0.63037 0.17549 0.88541 0.0
H3538 H 0.61342 0.17057 0.85861 0.0
H3539 H 0.59909 0.18249 0.83199 0.0
H3540 H 0.59809 0.23979 0.82278 0.0
H3541 H 0.61446 0.24469 0.84993 0.0
C3542 C 0.62569 0.21919 0.87232 0.0
C3543 C 0.63112 0.20452 0.88269 0.0
C3544 C 0.61617 0.21644 0.85679 0.0
C3545 C 0.62633 0.18704 0.8777 0.0
C3546 C 0.61673 0.1842 0.86231 0.0
C3547 C 0.60257 0.19604 0.83584 0.0
C3548 C 0.59747 0.21074 0.8253 0.0
C3549 C 0.61179 0.19879 0.85161 0.0
C3550 C 0.60187 0.22824 0.83063 0.0
C3551 C 0.61119 0.23106 0.84619 0.0
H3552 H 0.76827 0.58989 0.87435 0.0
H3553 H 0.78729 0.62747 0.83542 0.0
H3554 H 0.78845 0.65099 0.85821 0.0
H3555 H 0.78789 0.65951 0.88986 0.0
H3556 H 0.76915 0.62239 0.9294 0.0
H3557 H 0.76395 0.60005 0.9058 0.0
C3558 C 0.77209 0.60341 0.87081 0.0
C3559 C 0.7778 0.60701 0.85334 0.0
C3560 C 0.77315 0.61678 0.88416 0.0
C3561 C 0.78295 0.62446 0.84886 0.0
C3562 C 0.78372 0.63786 0.86189 0.0
C3563 C 0.78254 0.64657 0.89328 0.0
C3564 C 0.77924 0.64241 0.91131 0.0
C3565 C 0.77955 0.63393 0.87972 0.0
C3566 C 0.77193 0.6258 0.91557 0.0
C3567 C 0.76897 0.61304 0.9021 0.0
H3568 H 0.35265 0.8119 0.8711 0.0
H3569 H 0.32502 0.80765 0.82155 0.0
H3570 H 0.34985 0.81499 0.80441 0.0
H3571 H 0.38013 0.81881 0.80328 0.0
H3572 H 0.40805 0.8214 0.85252 0.0
H3573 H 0.38241 0.81909 0.87006 0.0
C3574 C 0.35204 0.81267 0.85656 0.0
C3575 C 0.33707 0.80883 0.84763 0.0
C3576 C 0.36642 0.81681 0.84674 0.0
C3577 C 0.33643 0.81022 0.82879 0.0
C3578 C 0.35062 0.8145 0.81894 0.0
C3579 C 0.38044 0.81953 0.81785 0.0
C3580 C 0.39575 0.82051 0.82672 0.0
C3581 C 0.36576 0.81737 0.82774 0.0
C3582 C 0.39626 0.82097 0.84554 0.0
C3583 C 0.38165 0.8194 0.85552 0.0
H3584 H 0.22645 0.39295 0.86198 0.0
H3585 H 0.20656 0.35178 0.82733 0.0
H3586 H 0.20382 0.3314 0.85279 0.0
H3587 H 0.20372 0.32674 0.88514 0.0
H3588 H 0.22305 0.36768 0.92048 0.0
H3589 H 0.22952 0.3867 0.89453 0.0
C3590 C 0.22199 0.37934 0.86002 0.0
C3591 C 0.2165 0.37385 0.84296 0.0
C3592 C 0.22006 0.36782 0.87484 0.0
C3593 C 0.21062 0.35628 0.84046 0.0
C3594 C 0.209 0.34466 0.85499 0.0
C3595 C 0.20944 0.33979 0.88717 0.0
C3596 C 0.21257 0.34599 0.90465 0.0
C3597 C 0.21306 0.35056 0.8723 0.0
C3598 C 0.22037 0.36271 0.9071 0.0
C3599 C 0.22406 0.37358 0.89229 0.0
H3600 H 0.39815 0.18981 0.15458 0.0
H3601 H 0.3987 0.24739 0.1611 0.0
H3602 H 0.37646 0.25038 0.13884 0.0
H3603 H 0.35536 0.23623 0.11957 0.0
H3604 H 0.35549 0.17854 0.11275 0.0
H3605 H 0.37931 0.17603 0.13272 0.0
C3606 C 0.39345 0.203 0.15098 0.0
C3607 C 0.39978 0.21834 0.15951 0.0
C3608 C 0.38089 0.20459 0.13809 0.0
C3609 C 0.39391 0.23542 0.15463 0.0
C3610 C 0.3812 0.23711 0.14196 0.0
C3611 C 0.36077 0.22314 0.1222 0.0
C3612 C 0.35347 0.20759 0.11492 0.0
C3613 C 0.3744 0.22174 0.13386 0.0
C3614 C 0.36075 0.19074 0.11832 0.0
C3615 C 0.37433 0.18925 0.12982 0.0
H3616 H 0.80085 0.37394 0.16515 0.0
H3617 H 0.75495 0.4005 0.15132 0.0
H3618 H 0.75511 0.38562 0.12196 0.0
H3619 H 0.77028 0.36822 0.09895 0.0
H3620 H 0.81728 0.34383 0.11283 0.0
H3621 H 0.81489 0.35526 0.14329 0.0
C3622 C 0.79069 0.37632 0.15586 0.0
C3623 C 0.77805 0.38857 0.16033 0.0
C3624 C 0.79133 0.36854 0.13879 0.0
C3625 C 0.76487 0.39118 0.14823 0.0
C3626 C 0.76508 0.38286 0.13134 0.0
C3627 C 0.78001 0.36541 0.10863 0.0
C3628 C 0.79408 0.35541 0.10344 0.0
C3629 C 0.77862 0.37211 0.12622 0.0
C3630 C 0.80643 0.3517 0.11627 0.0
C3631 C 0.80503 0.35811 0.13378 0.0
H3632 H 0.21496 0.61399 0.13117 0.0
H3633 H 0.16659 0.62736 0.1522 0.0
H3634 H 0.1616 0.64711 0.12645 0.0
H3635 H 0.17068 0.65967 0.09735 0.0
H3636 H 0.21879 0.64498 0.07632 0.0
H3637 H 0.22406 0.62657 0.1027 0.0
C3638 C 0.20336 0.62134 0.13029 0.0
C3639 C 0.19118 0.61918 0.14365 0.0
C3640 C 0.20045 0.63231 0.11533 0.0
C3641 C 0.17618 0.62873 0.14211 0.0
C3642 C 0.17331 0.64 0.12736 0.0
C3643 C 0.18232 0.65245 0.09853 0.0
C3644 C 0.19427 0.6537 0.08476 0.0
C3645 C 0.18528 0.64171 0.11376 0.0
C3646 C 0.20929 0.64422 0.08657 0.0
C3647 C 0.21237 0.63371 0.10171 0.0
H3648 H 0.96518 0.18309 0.34278 0.0
H3649 H 0.94862 0.14587 0.30225 0.0
H3650 H 0.97613 0.13214 0.30114 0.0
H3651 H 0.00589 0.13778 0.30435 0.0
H3652 H 0.02285 0.17882 0.34082 0.0
H3653 H 0.99453 0.18359 0.35145 0.0
C3654 C 0.96746 0.17139 0.33441 0.0
C3655 C 0.95516 0.16561 0.32241 0.0
C3656 C 0.98363 0.16456 0.33284 0.0
C3657 C 0.95809 0.15056 0.31147 0.0
C3658 C 0.97385 0.14285 0.31072 0.0
C3659 C 0.00343 0.14711 0.31524 0.0
C3660 C 0.01623 0.15823 0.32154 0.0
C3661 C 0.98698 0.15075 0.32021 0.0
C3662 C 0.01304 0.17032 0.33563 0.0
C3663 C -0.00317 0.17317 0.34157 0.0
H3664 H 0.83455 0.01825 0.31631 0.0
H3665 H 0.79159 0.01245 0.35032 0.0
H3666 H 0.79532 0.97996 0.35072 0.0
H3667 H 0.80469 0.95413 0.33292 0.0
H3668 H 0.84612 0.95984 0.29695 0.0
H3669 H 0.84954 0.99118 0.30617 0.0
C3670 C 0.82653 0.00996 0.32456 0.0
C3671 C 0.81241 0.01761 0.33267 0.0
C3672 C 0.82825 0.99115 0.32394 0.0
C3673 C 0.80228 0.00677 0.34356 0.0
C3674 C 0.80432 0.98815 0.34365 0.0
C3675 C 0.81497 0.96203 0.32782 0.0
C3676 C 0.82481 0.95503 0.31394 0.0
C3677 C 0.81631 0.98021 0.33258 0.0
C3678 C 0.8383 0.96509 0.30757 0.0
C3679 C 0.84008 0.98311 0.31265 0.0
H3680 H 0.01684 0.81442 0.36095 0.0
H3681 H 0.03565 0.85287 0.32278 0.0
H3682 H 0.00814 0.86619 0.31977 0.0
H3683 H 0.97853 0.8591 0.31947 0.0
H3684 H 0.95982 0.81702 0.3535 0.0
H3685 H 0.98703 0.81355 0.36742 0.0
C3686 C 0.01503 0.82624 0.35264 0.0
C3687 C 0.02797 0.83226 0.34158 0.0
C3688 C -0.00106 0.83299 0.35004 0.0
C3689 C 0.02564 0.84772 0.33102 0.0
C3690 C 0.0099 0.85528 0.32923 0.0
C3691 C 0.98024 0.84996 0.33069 0.0
C3692 C 0.96751 0.83794 0.33513 0.0
C3693 C -0.00373 0.84691 0.33737 0.0
C3694 C 0.96965 0.8262 0.34973 0.0
C3695 C 0.98529 0.82401 0.35746 0.0
H3696 H 0.17571 0.98386 0.33524 0.0
H3697 H 0.13996 0.97441 0.29322 0.0
H3698 H 0.13061 0.00554 0.29519 0.0
H3699 H 0.13999 0.0365 0.30129 0.0
H3700 H 0.17679 0.04585 0.34209 0.0
H3701 H 0.17766 0.01386 0.34903 0.0
C3702 C 0.16535 0.98844 0.32713 0.0
C3703 C 0.15896 0.97717 0.31366 0.0
C3704 C 0.16034 0.00649 0.32802 0.0
C3705 C 0.14528 0.98299 0.30349 0.0
C3706 C 0.14001 0.00087 0.3045 0.0
C3707 C 0.14733 0.03164 0.31252 0.0
C3708 C 0.15883 0.04321 0.32068 0.0
C3709 C 0.14847 0.01304 0.31562 0.0
C3710 C 0.1681 0.03698 0.33539 0.0
C3711 C 0.16885 0.01862 0.3391 0.0
H3712 H 0.97191 0.79111 0.67572 0.0
H3713 H 0.97865 0.83398 0.71404 0.0
H3714 H 0.00841 0.83436 0.70782 0.0
H3715 H 0.03259 0.81729 0.69764 0.0
H3716 H 0.02585 0.77135 0.66295 0.0
H3717 H -0.00386 0.77749 0.66129 0.0
C3718 C 0.97982 0.801 0.68218 0.0
C3719 C 0.97324 0.81229 0.69553 0.0
C3720 C -0.00297 0.80021 0.6795 0.0
C3721 C 0.98355 0.82502 0.70386 0.0
C3722 C 0.00057 0.82512 0.70041 0.0
C3723 C 0.0247 0.80893 0.68929 0.0
C3724 C 0.03131 0.7936 0.68083 0.0
C3725 C 0.00753 0.81194 0.68922 0.0
C3726 C 0.02097 0.783 0.66992 0.0
C3727 C 0.00398 0.78649 0.66899 0.0
H3728 H 0.14598 0.9948 0.68026 0.0
H3729 H 0.19523 0.99153 0.6579 0.0
H3730 H 0.19682 0.02424 0.65667 0.0
H3731 H 0.18759 0.05246 0.67023 0.0
H3732 H 0.13957 0.05567 0.69544 0.0
H3733 H 0.13388 0.02442 0.68703 0.0
C3734 C 0.15675 0.00126 0.67437 0.0
C3735 C 0.17071 0.9909 0.66975 0.0
C3736 C 0.15794 0.02008 0.67475 0.0
C3737 C 0.18452 -0.00068 0.66196 0.0
C3738 C 0.18547 0.01802 0.6614 0.0
C3739 C 0.17568 0.04643 0.67339 0.0
C3740 C 0.16421 0.05598 0.6839 0.0
C3741 C 0.17283 0.02839 0.66912 0.0
C3742 C 0.14866 0.04838 0.68756 0.0
C3743 C 0.14547 0.0305 0.68286 0.0
H3744 H 0.95539 0.21398 0.651 0.0
H3745 H 0.96677 0.15874 0.66398 0.0
H3746 H 0.99488 0.16268 0.6528 0.0
H3747 H 0.01767 0.18403 0.64817 0.0
H3748 H 0.00679 0.23957 0.63682 0.0
H3749 H 0.97707 0.23319 0.63781 0.0
C3750 C 0.96385 0.20264 0.65088 0.0
C3751 C 0.9592 0.18635 0.65913 0.0
C3752 C 0.98021 0.20513 0.64489 0.0
C3753 C 0.97013 0.17161 0.65824 0.0
C3754 C 0.98628 0.17386 0.65189 0.0
C3755 C 0.00876 0.19453 0.64507 0.0
C3756 C 0.01429 0.21231 0.64297 0.0
C3757 C 0.99175 0.1909 0.6465 0.0
C3758 C 0.00277 0.22579 0.63863 0.0
C3759 C 0.98576 0.22219 0.6395 0.0
H3760 H 0.79517 0.97943 0.65977 0.0
H3761 H 0.83639 0.96436 0.69356 0.0
H3762 H 0.84413 0.99592 0.69689 0.0
H3763 H 0.83528 0.02779 0.69569 0.0
H3764 H 0.7933 0.04241 0.66298 0.0
H3765 H 0.79002 0.01124 0.65338 0.0
C3766 C 0.8061 0.983 0.66749 0.0
C3767 C 0.8149 0.96957 0.67679 0.0
C3768 C 0.81026 0.00121 0.66969 0.0
C3769 C 0.82925 0.97441 0.68642 0.0
C3770 C 0.83364 0.99251 0.68844 0.0
C3771 C 0.8259 0.02421 0.68586 0.0
C3772 C 0.81437 0.03723 0.68024 0.0
C3773 C 0.8237 0.00607 0.68093 0.0
C3774 C 0.80216 0.0325 0.66764 0.0
C3775 C 0.80021 0.01466 0.66225 0.0
H3776 H 0.31644 0.96921 0.15223 0.0
H3777 H 0.35219 0.94728 0.18938 0.0
H3778 H 0.36798 0.97522 0.18842 0.0
H3779 H 0.36617 0.00799 0.1845 0.0
H3780 H 0.3296 0.03012 0.14858 0.0
H3781 H 0.32022 -3e-05 0.14073 0.0
C3782 C 0.328 0.97035 0.15962 0.0
C3783 C 0.3328 0.95652 0.1714 0.0
C3784 C 0.33684 0.9866 0.15929 0.0
C3785 C 0.34804 0.9579 0.18048 0.0
C3786 C 0.35706 0.97393 0.18001 0.0
C3787 C 0.35683 0.00618 0.17415 0.0
C3788 C 0.34799 0.02117 0.16779 0.0
C3789 C 0.35086 0.98879 0.17053 0.0
C3790 C 0.3362 0.01869 0.15409 0.0
C3791 C 0.33064 0.00144 0.14982 0.0
H3792 H 0.96749 0.34073 0.21676 0.0
H3793 H 0.96877 0.32411 0.16115 0.0
H3794 H -0.00143 0.32931 0.16024 0.0
H3795 H 0.02426 0.3289 0.1778 0.0
H3796 H 0.02308 0.34237 0.23412 0.0
H3797 H 0.99345 0.34886 0.23203 0.0
C3798 C 0.97417 0.33881 0.20425 0.0
C3799 C 0.96607 0.33113 0.18933 0.0
C3800 C 0.99146 0.34103 0.20405 0.0
C3801 C 0.97481 0.32937 0.17306 0.0
C3802 C 0.99189 0.33229 0.17252 0.0
C3803 C 0.01762 0.334 0.18942 0.0
C3804 C 0.02558 0.33444 0.20623 0.0
C3805 C 0.00044 0.33662 0.18835 0.0
C3806 C 0.01711 0.34159 0.22109 0.0
C3807 C 9e-05 0.34505 0.21995 0.0
H3808 H 0.67545 0.96678 0.12773 0.0
H3809 H 0.62743 0.98279 0.14701 0.0
H3810 H 0.63474 0.01437 0.14322 0.0
H3811 H 0.65813 0.03534 0.14646 0.0
H3812 H 0.70723 0.01838 0.13072 0.0
H3813 H 0.69626 0.98965 0.12059 0.0
C3814 C 0.66626 0.97723 0.12996 0.0
C3815 C 0.65131 0.97272 0.13847 0.0
C3816 C 0.67112 0.99529 0.12915 0.0
C3817 C 0.63921 0.98607 0.14083 0.0
C3818 C 0.64356 0.00418 0.13906 0.0
C3819 C 0.66633 0.02569 0.14009 0.0
C3820 C 0.6836 0.02853 0.14034 0.0
C3821 C 0.66005 0.00879 0.13514 0.0
C3822 C 0.69396 0.01619 0.13141 0.0
C3823 C 0.6877 -0.00031 0.12565 0.0
H3824 H 0.98436 0.68968 0.16342 0.0
H3825 H 0.97609 0.65279 0.20728 0.0
H3826 H 0.0058 0.64748 0.20967 0.0
H3827 H 0.03363 0.66006 0.20514 0.0
H3828 H 0.04178 0.69815 0.16229 0.0
H3829 H 0.0128 0.69582 0.15344 0.0
C3830 C 0.98899 0.68004 0.17314 0.0
C3831 C 0.97808 0.67236 0.18574 0.0
C3832 C 0.00617 0.67755 0.17492 0.0
C3833 C 0.98423 0.65935 0.19775 0.0
C3834 C 0.00129 0.65638 0.19924 0.0
C3835 C 0.02921 0.66747 0.19354 0.0
C3836 C 0.03968 0.67997 0.18501 0.0
C3837 C 0.01237 0.66651 0.18884 0.0
C3838 C 0.03389 0.68889 0.16954 0.0
C3839 C 0.01725 0.68762 0.16448 0.0
H3840 H 0.30871 0.97604 0.84069 0.0
H3841 H 0.35418 0.99254 0.81537 0.0
H3842 H 0.34741 0.02412 0.82113 0.0
H3843 H 0.32509 0.04631 0.82579 0.0
H3844 H 0.27882 0.02916 0.84952 0.0
H3845 H 0.28943 -0.00131 0.85226 0.0
C3846 C 0.31745 0.98657 0.83722 0.0
C3847 C 0.33173 0.98219 0.82742 0.0
C3848 C 0.31306 0.00461 0.83979 0.0
C3849 C 0.34312 0.99573 0.82301 0.0
C3850 C 0.33908 0.01379 0.82601 0.0
C3851 C 0.31748 0.03604 0.83202 0.0
C3852 C 0.30093 0.03989 0.83674 0.0
C3853 C 0.32352 0.01835 0.83319 0.0
C3854 C 0.29143 0.0265 0.84524 0.0
C3855 C 0.29748 0.00902 0.84684 0.0
H3856 H 0.96301 0.2904 0.84564 0.0
H3857 H 0.96146 0.33489 0.80858 0.0
H3858 H 0.99077 0.34105 0.81429 0.0
H3859 H 0.01765 0.32793 0.82261 0.0
H3860 H 0.01923 0.28179 0.85774 0.0
H3861 H 0.98917 0.28271 0.86074 0.0
C3862 C 0.96898 0.30185 0.83933 0.0
C3863 C 0.96037 0.31179 0.82625 0.0
C3864 C 0.98594 0.30485 0.84217 0.0
C3865 C 0.96796 0.32689 0.81851 0.0
C3866 C 0.98477 0.3303 0.82165 0.0
C3867 C 0.01147 0.31845 0.83143 0.0
C3868 C 0.02056 0.30423 0.83916 0.0
C3869 C 0.9941 0.31848 0.83235 0.0
C3870 C 0.0125 0.29255 0.85116 0.0
C3871 C 0.99525 0.29294 0.85275 0.0
H3872 H 0.70833 0.94753 0.84346 0.0
H3873 H 0.65684 0.93632 0.83226 0.0
H3874 H 0.64887 0.96473 0.84631 0.0
H3875 H 0.65736 0.99563 0.85327 0.0
H3876 H 0.70924 0.00798 0.86007 0.0
H3877 H 0.71621 0.97618 0.85705 0.0
C3878 C 0.69531 0.95108 0.84449 0.0
C3879 C 0.68324 0.9402 0.83619 0.0
C3880 C 0.69093 0.96781 0.85173 0.0
C3881 C 0.66641 0.94464 0.8382 0.0
C3882 C 0.66185 0.96096 0.84615 0.0
C3883 C 0.67011 0.99126 0.85491 0.0
C3884 C 0.68285 0.00413 0.85635 0.0
C3885 C 0.67411 0.97317 0.85174 0.0
C3886 C 0.69928 -0.00169 0.85866 0.0
C3887 C 0.70327 0.98015 0.85669 0.0
H3888 H 0.00553 0.6625 0.78475 0.0
H3889 H 0.01844 0.71554 0.80368 0.0
H3890 H 0.99507 0.7149 0.82464 0.0
H3891 H 0.97242 0.69816 0.83917 0.0
H3892 H 0.95966 0.64518 0.81997 0.0
H3893 H 0.9818 0.64678 0.79759 0.0
C3894 C 0.00314 0.67401 0.79332 0.0
C3895 C 0.0138 0.68894 0.79284 0.0
C3896 C 0.98995 0.6734 0.80549 0.0
C3897 C 0.01039 0.70389 0.80379 0.0
C3898 C -0.00285 0.70345 0.8159 0.0
C3899 C 0.9746 0.68692 0.83018 0.0
C3900 C 0.96473 0.67138 0.8314 0.0
C3901 C 0.98715 0.68806 0.8172 0.0
C3902 C 0.96732 0.65714 0.81936 0.0
C3903 C 0.97988 0.65809 0.80655 0.0
H3904 H 0.15702 0.3221 0.03535 0.0
H3905 H 0.20811 0.33921 0.0378 0.0
H3906 H 0.20639 0.35052 0.00717 0.0
H3907 H 0.19333 0.34636 0.97783 0.0
H3908 H 0.14331 0.32644 0.97451 0.0
H3909 H 0.14123 0.3264 0.00726 0.0
C3910 C 0.16756 0.32893 0.02941 0.0
C3911 C 0.18287 0.32913 0.03848 0.0
C3912 C 0.16669 0.33475 0.01147 0.0
C3913 C 0.19634 0.33835 0.03081 0.0
C3914 C 0.19538 0.34482 0.01328 0.0
C3915 C 0.18174 0.34282 0.98433 0.0
C3916 C 0.16877 0.3357 0.97399 0.0
C3917 C 0.18106 0.34172 0.00309 0.0
C3918 C 0.15358 0.33171 0.98231 0.0
C3919 C 0.1525 0.33136 0.00106 0.0
H3920 H 0.19061 0.6558 0.0092 0.0
H3921 H 0.13965 0.67145 0.00163 0.0
H3922 H 0.14202 0.66573 0.96936 0.0
H3923 H 0.16076 0.66457 0.9432 0.0
H3924 H 0.21236 0.65115 0.95119 0.0
H3925 H 0.20756 0.6475 0.98326 0.0
C3926 C 0.1799 0.65742 0.00053 0.0
C3927 C 0.16519 0.66462 0.00755 0.0
C3928 C 0.18162 0.65494 0.98197 0.0
C3929 C 0.15118 0.66609 0.99642 0.0
C3930 C 0.15261 0.66306 0.97793 0.0
C3931 C 0.17083 0.6603 0.95186 0.0
C3932 C 0.18702 0.65884 0.94492 0.0
C3933 C 0.16812 0.65878 0.97045 0.0
C3934 C 0.19987 0.65292 0.95627 0.0
C3935 C 0.19716 0.65083 0.97464 0.0
H3936 H 0.3222 0.15071 0.06149 0.0
H3937 H 0.27 0.1416 0.05224 0.0
H3938 H 0.27544 0.13582 0.0206 0.0
H3939 H 0.29337 0.14349 0.99506 0.0
H3940 H 0.34502 0.15514 0.00406 0.0
H3941 H 0.34165 0.14921 0.03614 0.0
C3942 C 0.31208 0.14682 0.0527 0.0
C3943 C 0.29562 0.1476 0.05899 0.0
C3944 C 0.3152 0.14433 0.03432 0.0
C3945 C 0.28274 0.14174 0.04764 0.0
C3946 C 0.28582 0.13855 0.02946 0.0
C3947 C 0.30399 0.14403 0.004 0.0
C3948 C 0.31922 0.15041 0.99751 0.0
C3949 C 0.30175 0.14142 0.02247 0.0
C3950 C 0.3331 0.15048 0.0089 0.0
C3951 C 0.33112 0.14732 0.02729 0.0
H3952 H 0.79035 0.36085 0.02035 0.0
H3953 H 0.84246 0.35083 0.01229 0.0
H3954 H 0.83858 0.35213 0.97979 0.0
H3955 H 0.8191 0.34659 0.95494 0.0
H3956 H 0.7666 0.35433 0.96355 0.0
H3957 H 0.77192 0.36378 0.99432 0.0
C3958 C 0.80096 0.35969 0.01147 0.0
C3959 C 0.8165 0.35501 0.01862 0.0
C3960 C 0.79845 0.35949 0.99282 0.0
C3961 C 0.83028 0.35414 0.00709 0.0
C3962 C 0.82801 0.3546 0.98846 0.0
C3963 C 0.80885 0.35089 0.96334 0.0
C3964 C 0.79241 0.3489 0.95718 0.0
C3965 C 0.81194 0.35573 0.98128 0.0
C3966 C 0.77935 0.35514 0.96807 0.0
C3967 C 0.78237 0.36052 0.98575 0.0
H3968 H 0.64993 0.83604 0.9804 0.0
H3969 H 0.69719 0.86105 0.97044 0.0
H3970 H 0.70114 0.86582 0.00261 0.0
H3971 H 0.69515 0.85436 0.03266 0.0
H3972 H 0.64971 0.82555 0.04259 0.0
H3973 H 0.64074 0.83116 0.01167 0.0
C3974 C 0.66064 0.84341 0.98529 0.0
C3975 C 0.67334 0.84807 0.97322 0.0
C3976 C 0.66335 0.84486 0.00391 0.0
C3977 C 0.68729 0.85737 0.97957 0.0
C3978 C 0.68964 0.85985 0.99798 0.0
C3979 C 0.683 0.84989 0.02822 0.0
C3980 C 0.67333 0.8391 0.03965 0.0
C3981 C 0.67839 0.85233 0.01023 0.0
C3982 C 0.65747 0.83371 0.03396 0.0
C3983 C 0.65243 0.83675 0.0162 0.0
H3984 H 0.82557 0.66769 0.04581 0.0
H3985 H 0.77674 0.64422 0.04257 0.0
H3986 H 0.78047 0.63862 0.01061 0.0
H3987 H 0.79435 0.64811 0.98288 0.0
H3988 H 0.843 0.67176 0.98556 0.0
H3989 H 0.84284 0.66922 0.01835 0.0
C3990 C 0.81607 0.66063 0.03827 0.0
C3991 C 0.80069 0.65694 0.04636 0.0
C3992 C 0.81813 0.65786 0.01968 0.0
C3993 C 0.78854 0.6476 0.03649 0.0
C3994 C 0.79061 0.64448 0.01817 0.0
C3995 C 0.80517 0.65198 0.99065 0.0
C3996 C 0.8185 0.6604 0.98203 0.0
C3997 C 0.80484 0.65076 0.00944 0.0
C3998 C 0.83258 0.66525 0.99204 0.0
C3999 C 0.83241 0.66399 0.0108 0.0
H4000 H 0.28276 0.84612 0.9486 0.0
H4001 H 0.329 0.82072 0.934 0.0
H4002 H 0.33984 0.82623 0.96411 0.0
H4003 H 0.33321 0.8307 0.99604 0.0
H4004 H 0.28576 0.85283 0.01094 0.0
H4005 H 0.27859 0.8568 0.97932 0.0
C4006 C 0.29536 0.84217 0.95184 0.0
C4007 C 0.3048 0.8324 0.93928 0.0
C4008 C 0.30126 0.84471 0.96938 0.0
C4009 C 0.32129 0.8279 0.94353 0.0
C4010 C 0.3275 0.83098 0.96081 0.0
C4011 C 0.32164 0.83717 0.99234 0.0
C4012 C 0.30984 0.84111 0.00568 0.0
C4013 C 0.31718 0.83828 0.97413 0.0
C4014 C 0.29489 0.84946 0.00081 0.0
C4015 C 0.29073 0.85155 0.98273 0.0
H4016 H 0.65707 0.18037 0.03617 0.0
H4017 H 0.69996 0.14603 0.03937 0.0
H4018 H 0.69933 0.14149 0.00691 0.0
H4019 H 0.69179 0.15475 0.97787 0.0
H4020 H 0.64992 0.1906 0.97435 0.0
H4021 H 0.64464 0.18688 0.0065 0.0
C4022 C 0.66563 0.17107 0.02982 0.0
C4023 C 0.67869 0.16374 0.03995 0.0
C4024 C 0.6657 0.16934 0.01099 0.0
C4025 C 0.68986 0.15185 0.03171 0.0
C4026 C 0.68965 0.14949 0.01311 0.0
C4027 C 0.68114 0.1612 0.98405 0.0
C4028 C 0.67153 0.17329 0.97396 0.0
C4029 C 0.67846 0.15934 0.00257 0.0
C4030 C 0.65759 0.18135 0.98193 0.0
C4031 C 0.65465 0.17934 0.00036 0.0
H4032 H 0.83896 0.52718 0.82738 0.0
H4033 H 0.79193 0.52427 0.855 0.0
H4034 H 0.79051 0.49211 0.8492 0.0
H4035 H 0.79992 0.46634 0.8315 0.0
H4036 H 0.84621 0.46902 0.8028 0.0
H4037 H 0.85095 0.49949 0.8143 0.0
C4038 C 0.82859 0.51945 0.83248 0.0
C4039 C 0.81532 0.52828 0.84113 0.0
C4040 C 0.82768 0.5009 0.82882 0.0
C4041 C 0.80214 0.51794 0.84795 0.0
C4042 C 0.80129 0.49952 0.84463 0.0
C4043 C 0.81123 0.47345 0.82814 0.0
C4044 C 0.82253 0.46569 0.81606 0.0
C4045 C 0.81357 0.49107 0.83433 0.0
C4046 C 0.83734 0.47478 0.8121 0.0
C4047 C 0.83993 0.49228 0.81849 0.0
H4048 H 0.17697 0.51462 0.84181 0.0
H4049 H 0.13053 0.50153 0.81652 0.0
H4050 H 0.13551 0.46951 0.82178 0.0
H4051 H 0.15706 0.44622 0.82428 0.0
H4052 H 0.20501 0.46007 0.84611 0.0
H4053 H 0.19548 0.49061 0.85186 0.0
C4054 C 0.16764 0.50473 0.83823 0.0
C4055 C 0.1537 0.51015 0.82836 0.0
C4056 C 0.17118 0.48642 0.84018 0.0
C4057 C 0.14143 0.49751 0.82404 0.0
C4058 C 0.14444 0.47919 0.82677 0.0
C4059 C 0.16522 0.45571 0.83093 0.0
C4060 C 0.18192 0.45113 0.83408 0.0
C4061 C 0.15991 0.47352 0.83338 0.0
C4062 C 0.19224 0.46346 0.84304 0.0
C4063 C 0.18682 0.48095 0.8463 0.0
H4064 H 0.19119 0.47238 0.13306 0.0
H4065 H 0.13926 0.4824 0.14223 0.0
H4066 H 0.14406 0.5147 0.13987 0.0
H4067 H 0.16399 0.53885 0.14575 0.0
H4068 H 0.21654 0.52805 0.14222 0.0
H4069 H 0.21069 0.49754 0.13194 0.0
C4070 C 0.18085 0.48164 0.13397 0.0
C4071 C 0.16509 0.47514 0.13883 0.0
C4072 C 0.18401 0.50015 0.13436 0.0
C4073 C 0.1516 0.48709 0.13892 0.0
C4074 C 0.15442 0.50562 0.13794 0.0
C4075 C 0.1742 0.52999 0.14231 0.0
C4076 C 0.19069 0.53546 0.14553 0.0
C4077 C 0.17075 0.51219 0.1374 0.0
C4078 C 0.20374 0.52405 0.14035 0.0
C4079 C 0.20039 0.50655 0.13451 0.0
H4080 H 0.80424 0.52727 0.14949 0.0
H4081 H 0.85544 0.52067 0.16444 0.0
H4082 H 0.8532 0.48818 0.16035 0.0
H4083 H 0.83407 0.4625 0.16318 0.0
H4084 H 0.7824 0.46959 0.14976 0.0
H4085 H 0.78751 0.50082 0.14184 0.0
C4086 C 0.81511 0.51876 0.15081 0.0
C4087 C 0.82979 0.52606 0.15777 0.0
C4088 C 0.81349 0.50008 0.1492 0.0
C4089 C 0.84395 0.51518 0.15923 0.0
C4090 C 0.84258 0.49655 0.15719 0.0
C4091 C 0.82409 0.47063 0.15773 0.0
C4092 C 0.80772 0.4641 0.158 0.0
C4093 C 0.827 0.48883 0.15382 0.0
C4094 C 0.79501 0.47458 0.15037 0.0
C4095 C 0.7979 0.49249 0.1459 0.0
H4096 H 0.35822 0.51544 0.69933 0.0
H4097 H 0.31933 0.53039 0.66256 0.0
H4098 H 0.31774 0.49957 0.6515 0.0
H4099 H 0.3208 0.46796 0.6599 0.0
H4100 H 0.35739 0.45262 0.69924 0.0
H4101 H 0.36697 0.48369 0.70121 0.0
C4102 C 0.35007 0.51209 0.68821 0.0
C4103 C 0.33861 0.52493 0.68203 0.0
C4104 C 0.3485 0.49406 0.68276 0.0
C4105 C 0.32808 0.52057 0.66765 0.0
C4106 C 0.32705 0.5029 0.66148 0.0
C4107 C 0.33136 0.47132 0.6683 0.0
C4108 C 0.33796 0.45822 0.6799 0.0
C4109 C 0.33616 0.48935 0.67009 0.0
C4110 C 0.35191 0.46254 0.69039 0.0
C4111 C 0.35725 0.48039 0.6917 0.0
H4112 H 0.66793 0.55555 0.65777 0.0
H4113 H 0.71839 0.54041 0.6454 0.0
H4114 H 0.7086 0.51308 0.63092 0.0
H4115 H 0.68708 0.48993 0.63129 0.0
H4116 H 0.63738 0.50361 0.64715 0.0
H4117 H 0.64509 0.53524 0.64941 0.0
C4118 C 0.67677 0.54655 0.65144 0.0
C4119 C 0.69391 0.54955 0.65351 0.0
C4120 C 0.67109 0.53049 0.64369 0.0
C4121 C 0.70514 0.5381 0.64463 0.0
C4122 C 0.69955 0.52244 0.63628 0.0
C4123 C 0.67776 0.50005 0.63424 0.0
C4124 C 0.66201 0.49453 0.64002 0.0
C4125 C 0.68272 0.51787 0.63708 0.0
C4126 C 0.64975 0.50758 0.64309 0.0
C4127 C 0.65429 0.52564 0.64485 0.0
H4128 H 0.34447 0.47923 0.29435 0.0
H4129 H 0.30806 0.45716 0.33031 0.0
H4130 H 0.29993 0.48736 0.33975 0.0
H4131 H 0.29807 0.51928 0.33099 0.0
H4132 H 0.33455 0.54129 0.29478 0.0
H4133 H 0.34805 0.51207 0.29254 0.0
C4134 C 0.33549 0.48107 0.30505 0.0
C4135 C 0.32665 0.46617 0.31145 0.0
C4136 C 0.33052 0.49852 0.30991 0.0
C4137 C 0.31494 0.46856 0.32519 0.0
C4138 C 0.31011 0.48584 0.33036 0.0
C4139 C 0.30929 0.51778 0.32308 0.0
C4140 C 0.31497 0.53225 0.31261 0.0
C4141 C 0.31695 0.50086 0.32173 0.0
C4142 C 0.32976 0.5303 0.30277 0.0
C4143 C 0.33747 0.51353 0.3014 0.0
H4144 H 0.65673 0.52602 0.30347 0.0
H4145 H 0.68439 0.53101 0.35277 0.0
H4146 H 0.68168 0.49881 0.35815 0.0
H4147 H 0.67934 0.46923 0.34393 0.0
H4148 H 0.65406 0.46379 0.29326 0.0
H4149 H 0.64751 0.49594 0.29341 0.0
C4150 C 0.66136 0.52017 0.31585 0.0
C4151 C 0.67105 0.5307 0.32755 0.0
C4152 C 0.66058 0.50141 0.31829 0.0
C4153 C 0.67706 0.52305 0.34351 0.0
C4154 C 0.67567 0.5046 0.34647 0.0
C4155 C 0.6717 0.47498 0.33338 0.0
C4156 C 0.66744 0.46435 0.31846 0.0
C4157 C 0.66867 0.49354 0.33322 0.0
C4158 C 0.65749 0.47177 0.30487 0.0
C4159 C 0.65395 0.49022 0.30485 0.0
H4160 H 0.17731 0.8448 0.46602 0.0
H4161 H 0.22986 0.85282 0.4589 0.0
H4162 H 0.23311 0.85818 0.49106 0.0
H4163 H 0.22232 0.85244 0.52115 0.0
H4164 H 0.17028 0.84084 0.5284 0.0
H4165 H 0.16543 0.84554 0.4964 0.0
C4166 C 0.18935 0.84841 0.47143 0.0
C4167 C 0.20342 0.84793 0.46027 0.0
C4168 C 0.19126 0.85041 0.49007 0.0
C4169 C 0.21893 0.85274 0.46735 0.0
C4170 C 0.2208 0.8557 0.48575 0.0
C4171 C 0.20982 0.85138 0.51584 0.0
C4172 C 0.19682 0.84558 0.52703 0.0
C4173 C 0.20727 0.85324 0.49732 0.0
C4174 C 0.18062 0.84486 0.52003 0.0
C4175 C 0.17783 0.84745 0.50168 0.0
H4176 H 0.19681 0.15572 0.45907 0.0
H4177 H 0.14985 0.18211 0.45004 0.0
H4178 H 0.14027 0.17259 0.47963 0.0
H4179 H 0.14845 0.16464 0.51041 0.0
H4180 H 0.19668 0.14163 0.52014 0.0
H4181 H 0.20228 0.14115 0.48792 0.0
C4182 C 0.18432 0.15901 0.46339 0.0
C4183 C 0.17432 0.17024 0.4527 0.0
C4184 C 0.17916 0.15412 0.48068 0.0
C4185 C 0.15796 0.17385 0.45819 0.0
C4186 C 0.15249 0.16846 0.47517 0.0
C4187 C 0.15984 0.1587 0.50538 0.0
C4188 C 0.17235 0.15366 0.51753 0.0
C4189 C 0.16342 0.15971 0.48696 0.0
C4190 C 0.18701 0.14588 0.51096 0.0
C4191 C 0.19029 0.14583 0.49255 0.0
H4192 H 0.30244 0.64051 0.54747 0.0
H4193 H 0.25049 0.6476 0.53525 0.0
H4194 H 0.25627 0.64418 0.50334 0.0
H4195 H 0.27689 0.64807 0.47935 0.0
H4196 H 0.3289 0.64204 0.49153 0.0
H4197 H 0.32226 0.63571 0.52285 0.0
C4198 C 0.2923 0.6407 0.53788 0.0
C4199 C 0.2762 0.64516 0.54366 0.0
C4200 C 0.29577 0.6393 0.51946 0.0
C4201 C 0.26309 0.64467 0.53116 0.0
C4202 C 0.2664 0.64287 0.51283 0.0
C4203 C 0.28671 0.64479 0.48874 0.0
C4204 C 0.30335 0.64622 0.48335 0.0
C4205 C 0.28283 0.64161 0.50683 0.0
C4206 C 0.31597 0.64136 0.49545 0.0
C4207 C 0.3122 0.63787 0.51343 0.0
H4208 H 0.85776 0.82247 0.49518 0.0
H4209 H 0.81656 0.85701 0.50808 0.0
H4210 H 0.80768 0.85676 0.47674 0.0
H4211 H 0.80694 0.83931 0.44877 0.0
H4212 H 0.84683 0.80254 0.43665 0.0
H4213 H 0.86097 0.81113 0.46435 0.0
C4214 C 0.8474 0.83076 0.49091 0.0
C4215 C 0.83752 0.83935 0.50389 0.0
C4216 C 0.84171 0.82947 0.4731 0.0
C4217 C 0.82419 0.85011 0.49827 0.0
C4218 C 0.81894 0.84968 0.4804 0.0
C4219 C 0.81894 0.83352 0.45195 0.0
C4220 C 0.82551 0.81983 0.441 0.0
C4221 C 0.8268 0.83817 0.46813 0.0
C4222 C 0.84131 0.81286 0.44502 0.0
C4223 C 0.8494 0.81773 0.46091 0.0
H4224 H 0.71042 0.34124 0.53925 0.0
H4225 H 0.66818 0.31428 0.56249 0.0
H4226 H 0.65267 0.31834 0.5346 0.0
H4227 H 0.65324 0.32428 0.50196 0.0
H4228 H 0.69625 0.34934 0.47856 0.0
H4229 H 0.70915 0.35179 0.50817 0.0
C4230 C 0.69773 0.33649 0.53833 0.0
C4231 C 0.69065 0.32705 0.55279 0.0
C4232 C 0.68901 0.33854 0.52215 0.0
C4233 C 0.67404 0.32139 0.55151 0.0
C4234 C 0.66515 0.32367 0.53552 0.0
C4235 C 0.66512 0.33095 0.50352 0.0
C4236 C 0.67391 0.3365 0.48822 0.0
C4237 C 0.67278 0.33151 0.5205 0.0
C4238 C 0.68938 0.34488 0.49023 0.0
C4239 C 0.6968 0.34613 0.50712 0.0
H4240 H 0.7855 0.17229 0.46454 0.0
H4241 H 0.83395 0.1958 0.45761 0.0
H4242 H 0.83953 0.19202 0.48971 0.0
H4243 H 0.82815 0.18823 0.52019 0.0
H4244 H 0.77846 0.16768 0.52687 0.0
H4245 H 0.7759 0.16392 0.49441 0.0
C4246 C 0.79743 0.17623 0.46992 0.0
C4247 C 0.8091 0.18477 0.45878 0.0
C4248 C 0.8002 0.17482 0.48846 0.0
C4249 C 0.82467 0.18936 0.46592 0.0
C4250 C 0.8278 0.18736 0.48433 0.0
C4251 C 0.81693 0.18246 0.5146 0.0
C4252 C 0.80337 0.17858 0.52591 0.0
C4253 C 0.81528 0.18106 0.49584 0.0
C4254 C 0.78896 0.17105 0.51844 0.0
C4255 C 0.78748 0.16894 0.49987 0.0
H4256 H 0.2743 0.35237 0.45527 0.0
H4257 H 0.32536 0.33561 0.45001 0.0
H4258 H 0.32998 0.34162 0.48183 0.0
H4259 H 0.31737 0.34288 0.51173 0.0
H4260 H 0.26533 0.35524 0.51705 0.0
H4261 H 0.26334 0.36037 0.48475 0.0
C4262 C 0.28657 0.35045 0.46096 0.0
C4263 C 0.29926 0.34278 0.4505 0.0
C4264 C 0.28888 0.35299 0.47942 0.0
C4265 C 0.31523 0.34103 0.45789 0.0
C4266 C 0.31787 0.34439 0.47613 0.0
C4267 C 0.30576 0.34742 0.50592 0.0
C4268 C 0.29137 0.34809 0.51656 0.0
C4269 C 0.30446 0.34906 0.48721 0.0
C4270 C 0.27647 0.35423 0.50898 0.0
C4271 C 0.27531 0.35701 0.4905 0.0
H4272 H 0.64799 0.69131 0.4724 0.0
H4273 H 0.6887 0.65436 0.46557 0.0
H4274 H 0.68916 0.64849 0.49777 0.0
H4275 H 0.68397 0.66133 0.52755 0.0
H4276 H 0.64467 0.69986 0.53472 0.0
H4277 H 0.6372 0.69721 0.50298 0.0
C4278 C 0.65636 0.68129 0.47787 0.0
C4279 C 0.6686 0.67364 0.46677 0.0
C4280 C 0.65706 0.67862 0.4966 0.0
C4281 C 0.67936 0.66063 0.47396 0.0
C4282 C 0.67972 0.65739 0.49241 0.0
C4283 C 0.67329 0.66848 0.5223 0.0
C4284 C 0.66521 0.68115 0.5332 0.0
C4285 C 0.66957 0.66744 0.50391 0.0
C4286 C 0.65118 0.69013 0.52649 0.0
C4287 C 0.64707 0.68881 0.50824 0.0
H4288 H 0.52224 0.15782 0.80357 0.0
H4289 H 0.52654 0.20815 0.83198 0.0
H4290 H 0.49868 0.20437 0.84421 0.0
H4291 H 0.47118 0.19186 0.83888 0.0
H4292 H 0.46574 0.14468 0.80581 0.0
H4293 H 0.49585 0.14137 0.80424 0.0
C4294 C 0.51727 0.16761 0.81295 0.0
C4295 C 0.52612 0.1835 0.81645 0.0
C4296 C 0.50086 0.16589 0.819 0.0
C4297 C 0.51969 0.19604 0.82874 0.0
C4298 C 0.50377 0.19387 0.83573 0.0
C4299 C 0.47659 0.18032 0.83212 0.0
C4300 C 0.46639 0.16886 0.822 0.0
C4301 C 0.49384 0.17959 0.82982 0.0
C4302 C 0.47346 0.15385 0.81345 0.0
C4303 C 0.49068 0.15215 0.81229 0.0
H4304 H 0.53372 0.81074 0.84574 0.0
H4305 H 0.5232 0.75537 0.85804 0.0
H4306 H 0.49364 0.76219 0.86004 0.0
H4307 H 0.47149 0.78115 0.84746 0.0
H4308 H 0.48244 0.83591 0.83229 0.0
H4309 H 0.51086 0.83229 0.84267 0.0
C4310 C 0.525 0.80041 0.84984 0.0
C4311 C 0.53042 0.78249 0.85099 0.0
C4312 C 0.50797 0.80422 0.84974 0.0
C4313 C 0.51924 0.76924 0.85676 0.0
C4314 C 0.50227 0.77308 0.85755 0.0
C4315 C 0.47992 0.7925 0.84698 0.0
C4316 C 0.47511 0.80844 0.83818 0.0
C4317 C 0.49649 0.79011 0.85231 0.0
C4318 C 0.48597 0.82324 0.83838 0.0
C4319 C 0.5023 0.82118 0.84427 0.0
H4320 H 0.52538 0.79794 0.17151 0.0
H4321 H 0.52082 0.83243 0.21794 0.0
H4322 H 0.49077 0.83277 0.21443 0.0
H4323 H 0.46624 0.81667 0.2033 0.0
H4324 H 0.4707 0.78098 0.1579 0.0
H4325 H 0.50025 0.78805 0.15554 0.0
C4326 C 0.51785 0.80595 0.18056 0.0
C4327 C 0.52526 0.81453 0.19541 0.0
C4328 C 0.50052 0.80563 0.17879 0.0
C4329 C 0.51541 0.82536 0.20664 0.0
C4330 C 0.49819 0.82546 0.20471 0.0
C4331 C 0.4736 0.81096 0.1925 0.0
C4332 C 0.46653 0.79795 0.18112 0.0
C4333 C 0.49062 0.81462 0.19164 0.0
C4334 C 0.47596 0.7909 0.16692 0.0
C4335 C 0.4929 0.79479 0.16571 0.0
H4336 H 0.52146 0.15291 0.17413 0.0
H4337 H 0.52121 0.18933 0.12904 0.0
H4338 H 0.49109 0.19105 0.13032 0.0
H4339 H 0.4671 0.1906 0.15077 0.0
H4340 H 0.46757 0.15557 0.19687 0.0
H4341 H 0.49512 0.14467 0.18857 0.0
C4342 C 0.51476 0.16062 0.1641 0.0
C4343 C 0.52356 0.1718 0.1522 0.0
C4344 C 0.49747 0.16223 0.16548 0.0
C4345 C 0.51476 0.18106 0.13876 0.0
C4346 C 0.4975 0.18224 0.13962 0.0
C4347 C 0.47299 0.18003 0.15854 0.0
C4348 C 0.46572 0.17434 0.17472 0.0
C4349 C 0.48899 0.17425 0.15397 0.0
C4350 C 0.47312 0.16034 0.1845 0.0
C4351 C 0.48894 0.15422 0.17984 0.0
H4352 H 0.46895 0.33131 0.67794 0.0
H4353 H 0.47886 0.29253 0.63629 0.0
H4354 H 0.50796 0.30169 0.6356 0.0
H4355 H 0.53111 0.31354 0.65363 0.0
H4356 H 0.5211 0.35097 0.69663 0.0
H4357 H 0.4916 0.35009 0.68959 0.0
C4358 C 0.47736 0.32551 0.66813 0.0
C4359 C 0.47203 0.31093 0.65758 0.0
C4360 C 0.49416 0.33031 0.66839 0.0
C4361 C 0.48279 0.30366 0.64466 0.0
C4362 C 0.49949 0.30873 0.64446 0.0
C4363 C 0.52253 0.322 0.66104 0.0
C4364 C 0.52815 0.33162 0.67616 0.0
C4365 C 0.50549 0.32093 0.65733 0.0
C4366 C 0.51705 0.34305 0.68522 0.0
C4367 C 0.50012 0.34245 0.68129 0.0
H4368 H 0.52086 0.65591 0.66598 0.0
H4369 H 0.52831 0.69627 0.62526 0.0
H4370 H 0.4985 0.6978 0.62 0.0
H4371 H 0.47124 0.69538 0.63463 0.0
H4372 H 0.46409 0.65642 0.67688 0.0
H4373 H 0.49261 0.64627 0.67353 0.0
C4374 C 0.51598 0.6644 0.65536 0.0
C4375 C 0.52656 0.67659 0.64664 0.0
C4376 C 0.49878 0.66587 0.65309 0.0
C4377 C 0.52031 0.68707 0.63247 0.0
C4378 C 0.50321 0.68814 0.62964 0.0
C4379 C 0.47576 0.68424 0.64266 0.0
C4380 C 0.46589 0.67733 0.65661 0.0
C4381 C 0.49237 0.67887 0.64109 0.0
C4382 C 0.47161 0.66239 0.6664 0.0
C4383 C 0.48799 0.65661 0.66457 0.0
H4384 H 0.49044 0.35184 0.3059 0.0
H4385 H 0.48041 0.31598 0.35 0.0
H4386 H 0.50987 0.30879 0.35241 0.0
H4387 H 0.53561 0.30507 0.33544 0.0
H4388 H 0.54423 0.33743 0.28822 0.0
H4389 H 0.51852 0.3538 0.29366 0.0
C4390 C 0.49485 0.34318 0.31662 0.0
C4391 C 0.48335 0.334 0.3274 0.0
C4392 C 0.51155 0.33792 0.31685 0.0
C4393 C 0.48911 0.32294 0.34136 0.0
C4394 C 0.50592 0.31862 0.34254 0.0
C4395 C 0.53214 0.31607 0.32664 0.0
C4396 C 0.54139 0.31947 0.31098 0.0
C4397 C 0.5169 0.32475 0.32929 0.0
C4398 C 0.53699 0.33411 0.30002 0.0
C4399 C 0.52227 0.34349 0.30312 0.0
H4400 H 0.46961 0.64629 0.29935 0.0
H4401 H 0.47837 0.68148 0.34454 0.0
H4402 H 0.50791 0.67476 0.34331 0.0
H4403 H 0.53131 0.66577 0.32418 0.0
H4404 H 0.52283 0.63162 0.27836 0.0
H4405 H 0.49316 0.63061 0.28526 0.0
C4406 C 0.47793 0.65206 0.30927 0.0
C4407 C 0.47193 0.66492 0.32153 0.0
C4408 C 0.49499 0.64848 0.3082 0.0
C4409 C 0.48271 0.67184 0.33469 0.0
C4410 C 0.49965 0.66809 0.33393 0.0
C4411 C 0.52302 0.65745 0.31625 0.0
C4412 C 0.529 0.64903 0.30067 0.0
C4413 C 0.50599 0.65746 0.31997 0.0
C4414 C 0.51837 0.63819 0.29042 0.0
C4415 C 0.50139 0.63783 0.29424 0.0
loop_
_geom_bond_atom_site_label_1
_geom_bond_atom_site_label_2
_geom_bond_distance
_geom_bond_site_symmetry_2
_ccdc_geom_bond_type
Mg0 O1 2.028 . S
Mg0 O7 1.986 . S
Mg0 O9 2.114 . S
Mg0 O10 2.251 . S
Mg0 O13 2.010 . S
O1 Mg0 2.028 . S
O1 C4 1.250 . S
O2 Mg3 2.028 . S
O2 C4 1.248 . S
Mg3 O2 2.028 . S
Mg3 O8 2.032 . S
Mg3 O10 2.079 . S
C4 O1 1.250 . S
C4 O2 1.248 . S
C5 O6 1.264 . S
C5 O13 1.249 . S
O6 C5 1.264 . S
O7 Mg0 1.986 . S
O7 C11 1.246 . S
O8 Mg3 2.032 . S
O8 C11 1.259 . S
O9 Mg0 2.114 . S
O9 C12 1.252 . S
O10 Mg0 2.251 . S
O10 Mg3 2.079 . S
O10 C12 1.273 . S
C11 O7 1.246 . S
C11 O8 1.259 . S
C12 O9 1.252 . S
C12 O10 1.273 . S
O13 Mg0 2.010 . S
O13 C5 1.249 . S
Mg14 O15 2.028 . S
Mg14 O21 1.986 . S
Mg14 O23 2.114 . S
Mg14 O24 2.251 . S
Mg14 O27 2.010 . S
O15 Mg14 2.028 . S
O15 C18 1.250 . S
O16 Mg17 2.028 . S
O16 C18 1.248 . S
Mg17 O16 2.028 . S
Mg17 O22 2.032 . S
Mg17 O24 2.079 . S
C18 O15 1.250 . S
C18 O16 1.248 . S
C19 O20 1.264 . S
C19 O27 1.249 . S
O20 C19 1.264 . S
O21 Mg14 1.986 . S
O21 C25 1.246 . S
O22 Mg17 2.032 . S
O22 C25 1.259 . S
O23 Mg14 2.114 . S
O23 C26 1.252 . S
O24 Mg14 2.251 . S
O24 Mg17 2.079 . S
O24 C26 1.273 . S
C25 O21 1.246 . S
C25 O22 1.259 . S
C26 O23 1.252 . S
C26 O24 1.273 . S
O27 Mg14 2.010 . S
O27 C19 1.249 . S
Mg28 O29 2.028 . S
Mg28 O35 1.986 . S
Mg28 O37 2.114 . S
Mg28 O38 2.251 . S
Mg28 O41 2.010 . S
O29 Mg28 2.028 . S
O29 C32 1.250 . S
O30 Mg31 2.028 . S
O30 C32 1.248 . S
Mg31 O30 2.028 . S
Mg31 O36 2.032 . S
Mg31 O38 2.079 . S
C32 O29 1.250 . S
C32 O30 1.248 . S
C33 O34 1.264 . S
C33 O41 1.249 . S
O34 C33 1.264 . S
O35 Mg28 1.986 . S
O35 C39 1.246 . S
O36 Mg31 2.032 . S
O36 C39 1.259 . S
O37 Mg28 2.114 . S
O37 C40 1.252 . S
O38 Mg28 2.251 . S
O38 Mg31 2.079 . S
O38 C40 1.273 . S
C39 O35 1.246 . S
C39 O36 1.259 . S
C40 O37 1.252 . S
C40 O38 1.273 . S
O41 Mg28 2.010 . S
O41 C33 1.249 . S
Mg42 O43 2.028 . S
Mg42 O49 1.986 . S
Mg42 O51 2.114 . S
Mg42 O52 2.251 . S
Mg42 O55 2.010 . S
O43 Mg42 2.028 . S
O43 C46 1.250 . S
O44 Mg45 2.028 . S
O44 C46 1.248 . S
Mg45 O44 2.028 . S
Mg45 O50 2.032 . S
Mg45 O52 2.079 . S
C46 O43 1.250 . S
C46 O44 1.248 . S
C47 O48 1.264 . S
C47 O55 1.249 . S
O48 C47 1.264 . S
O49 Mg42 1.986 . S
O49 C53 1.246 . S
O50 Mg45 2.032 . S
O50 C53 1.259 . S
O51 Mg42 2.114 . S
O51 C54 1.252 . S
O52 Mg42 2.251 . S
O52 Mg45 2.079 . S
O52 C54 1.273 . S
C53 O49 1.246 . S
C53 O50 1.259 . S
C54 O51 1.252 . S
C54 O52 1.273 . S
O55 Mg42 2.010 . S
O55 C47 1.249 . S
Mg56 O57 2.028 . S
Mg56 O63 1.986 . S
Mg56 O65 2.114 . S
Mg56 O66 2.251 . S
Mg56 O69 2.010 . S
O57 Mg56 2.028 . S
O57 C60 1.250 . S
O58 Mg59 2.028 . S
O58 C60 1.248 . S
Mg59 O58 2.028 . S
Mg59 O64 2.032 . S
Mg59 O66 2.079 . S
C60 O57 1.250 . S
C60 O58 1.248 . S
C61 O62 1.264 . S
C61 O69 1.249 . S
O62 C61 1.264 . S
O63 Mg56 1.986 . S
O63 C67 1.246 . S
O64 Mg59 2.032 . S
O64 C67 1.259 . S
O65 Mg56 2.114 . S
O65 C68 1.252 . S
O66 Mg56 2.251 . S
O66 Mg59 2.079 . S
O66 C68 1.273 . S
C67 O63 1.246 . S
C67 O64 1.259 . S
C68 O65 1.252 . S
C68 O66 1.273 . S
O69 Mg56 2.010 . S
O69 C61 1.249 . S
Mg70 O71 2.028 . S
Mg70 O77 1.986 . S
Mg70 O79 2.114 . S
Mg70 O80 2.251 . S
Mg70 O83 2.010 . S
O71 Mg70 2.028 . S
O71 C74 1.250 . S
O72 Mg73 2.028 . S
O72 C74 1.248 . S
Mg73 O72 2.028 . S
Mg73 O78 2.032 . S
Mg73 O80 2.079 . S
C74 O71 1.250 . S
C74 O72 1.248 . S
C75 O76 1.264 . S
C75 O83 1.249 . S
O76 C75 1.264 . S
O77 Mg70 1.986 . S
O77 C81 1.246 . S
O78 Mg73 2.032 . S
O78 C81 1.259 . S
O79 Mg70 2.114 . S
O79 C82 1.252 . S
O80 Mg70 2.251 . S
O80 Mg73 2.079 . S
O80 C82 1.273 . S
C81 O77 1.246 . S
C81 O78 1.259 . S
C82 O79 1.252 . S
C82 O80 1.273 . S
O83 Mg70 2.010 . S
O83 C75 1.249 . S
Mg84 O85 2.028 . S
Mg84 O91 1.986 . S
Mg84 O93 2.114 . S
Mg84 O94 2.251 . S
Mg84 O97 2.010 . S
O85 Mg84 2.028 . S
O85 C88 1.250 . S
O86 Mg87 2.028 . S
O86 C88 1.248 . S
Mg87 O86 2.028 . S
Mg87 O92 2.032 . S
Mg87 O94 2.079 . S
C88 O85 1.250 . S
C88 O86 1.248 . S
C89 O90 1.264 . S
C89 O97 1.249 . S
O90 C89 1.264 . S
O91 Mg84 1.986 . S
O91 C95 1.246 . S
O92 Mg87 2.032 . S
O92 C95 1.259 . S
O93 Mg84 2.114 . S
O93 C96 1.252 . S
O94 Mg84 2.251 . S
O94 Mg87 2.079 . S
O94 C96 1.273 . S
C95 O91 1.246 . S
C95 O92 1.259 . S
C96 O93 1.252 . S
C96 O94 1.273 . S
O97 Mg84 2.010 . S
O97 C89 1.249 . S
Mg98 O99 2.028 . S
Mg98 O105 1.986 . S
Mg98 O107 2.114 . S
Mg98 O108 2.251 . S
Mg98 O111 2.010 . S
O99 Mg98 2.028 . S
O99 C102 1.250 . S
O100 Mg101 2.028 . S
O100 C102 1.248 . S
Mg101 O100 2.028 . S
Mg101 O106 2.032 . S
Mg101 O108 2.079 . S
C102 O99 1.250 . S
C102 O100 1.248 . S
C103 O104 1.264 . S
C103 O111 1.249 . S
O104 C103 1.264 . S
O105 Mg98 1.986 . S
O105 C109 1.246 . S
O106 Mg101 2.032 . S
O106 C109 1.259 . S
O107 Mg98 2.114 . S
O107 C110 1.252 . S
O108 Mg98 2.251 . S
O108 Mg101 2.079 . S
O108 C110 1.273 . S
C109 O105 1.246 . S
C109 O106 1.259 . S
C110 O107 1.252 . S
C110 O108 1.273 . S
O111 Mg98 2.010 . S
O111 C103 1.249 . S
Mg112 O113 2.028 . S
Mg112 O119 1.986 . S
Mg112 O121 2.114 . S
Mg112 O122 2.251 . S
Mg112 O125 2.010 . S
O113 Mg112 2.028 . S
O113 C116 1.250 . S
O114 Mg115 2.028 . S
O114 C116 1.248 . S
Mg115 O114 2.028 . S
Mg115 O120 2.032 . S
Mg115 O122 2.079 . S
C116 O113 1.250 . S
C116 O114 1.248 . S
C117 O118 1.264 . S
C117 O125 1.249 . S
O118 C117 1.264 . S
O119 Mg112 1.986 . S
O119 C123 1.246 . S
O120 Mg115 2.032 . S
O120 C123 1.259 . S
O121 Mg112 2.114 . S
O121 C124 1.252 . S
O122 Mg112 2.251 . S
O122 Mg115 2.079 . S
O122 C124 1.273 . S
C123 O119 1.246 . S
C123 O120 1.259 . S
C124 O121 1.252 . S
C124 O122 1.273 . S
O125 Mg112 2.010 . S
O125 C117 1.249 . S
Mg126 O127 2.028 . S
Mg126 O133 1.986 . S
Mg126 O135 2.114 . S
Mg126 O136 2.251 . S
Mg126 O139 2.010 . S
O127 Mg126 2.028 . S
O127 C130 1.250 . S
O128 Mg129 2.028 . S
O128 C130 1.248 . S
Mg129 O128 2.028 . S
Mg129 O134 2.032 . S
Mg129 O136 2.079 . S
C130 O127 1.250 . S
C130 O128 1.248 . S
C131 O132 1.264 . S
C131 O139 1.249 . S
O132 C131 1.264 . S
O133 Mg126 1.986 . S
O133 C137 1.246 . S
O134 Mg129 2.032 . S
O134 C137 1.259 . S
O135 Mg126 2.114 . S
O135 C138 1.252 . S
O136 Mg126 2.251 . S
O136 Mg129 2.079 . S
O136 C138 1.273 . S
C137 O133 1.246 . S
C137 O134 1.259 . S
C138 O135 1.252 . S
C138 O136 1.273 . S
O139 Mg126 2.010 . S
O139 C131 1.249 . S
Mg140 O141 2.028 . S
Mg140 O147 1.986 . S
Mg140 O149 2.114 . S
Mg140 O150 2.251 . S
Mg140 O153 2.010 . S
O141 Mg140 2.028 . S
O141 C144 1.250 . S
O142 Mg143 2.028 . S
O142 C144 1.248 . S
Mg143 O142 2.028 . S
Mg143 O148 2.032 . S
Mg143 O150 2.079 . S
C144 O141 1.250 . S
C144 O142 1.248 . S
C145 O146 1.264 . S
C145 O153 1.249 . S
O146 C145 1.264 . S
O147 Mg140 1.986 . S
O147 C151 1.246 . S
O148 Mg143 2.032 . S
O148 C151 1.259 . S
O149 Mg140 2.114 . S
O149 C152 1.252 . S
O150 Mg140 2.251 . S
O150 Mg143 2.079 . S
O150 C152 1.273 . S
C151 O147 1.246 . S
C151 O148 1.259 . S
C152 O149 1.252 . S
C152 O150 1.273 . S
O153 Mg140 2.010 . S
O153 C145 1.249 . S
Mg154 O155 2.028 . S
Mg154 O161 1.986 . S
Mg154 O163 2.114 . S
Mg154 O164 2.251 . S
Mg154 O167 2.010 . S
O155 Mg154 2.028 . S
O155 C158 1.250 . S
O156 Mg157 2.028 . S
O156 C158 1.248 . S
Mg157 O156 2.028 . S
Mg157 O162 2.032 . S
Mg157 O164 2.079 . S
C158 O155 1.250 . S
C158 O156 1.248 . S
C159 O160 1.264 . S
C159 O167 1.249 . S
O160 C159 1.264 . S
O161 Mg154 1.986 . S
O161 C165 1.246 . S
O162 Mg157 2.032 . S
O162 C165 1.259 . S
O163 Mg154 2.114 . S
O163 C166 1.252 . S
O164 Mg154 2.251 . S
O164 Mg157 2.079 . S
O164 C166 1.273 . S
C165 O161 1.246 . S
C165 O162 1.259 . S
C166 O163 1.252 . S
C166 O164 1.273 . S
O167 Mg154 2.010 . S
O167 C159 1.249 . S
Mg168 O169 2.028 . S
Mg168 O175 1.986 . S
Mg168 O177 2.114 . S
Mg168 O178 2.251 . S
Mg168 O181 2.010 . S
O169 Mg168 2.028 . S
O169 C172 1.250 . S
O170 Mg171 2.028 . S
O170 C172 1.248 . S
Mg171 O170 2.028 . S
Mg171 O176 2.032 . S
Mg171 O178 2.079 . S
C172 O169 1.250 . S
C172 O170 1.248 . S
C173 O174 1.264 . S
C173 O181 1.249 . S
O174 C173 1.264 . S
O175 Mg168 1.986 . S
O175 C179 1.246 . S
O176 Mg171 2.032 . S
O176 C179 1.259 . S
O177 Mg168 2.114 . S
O177 C180 1.252 . S
O178 Mg168 2.251 . S
O178 Mg171 2.079 . S
O178 C180 1.273 . S
C179 O175 1.246 . S
C179 O176 1.259 . S
C180 O177 1.252 . S
C180 O178 1.273 . S
O181 Mg168 2.010 . S
O181 C173 1.249 . S
Mg182 O183 2.028 . S
Mg182 O189 1.986 . S
Mg182 O191 2.114 . S
Mg182 O192 2.251 . S
Mg182 O195 2.010 . S
O183 Mg182 2.028 . S
O183 C186 1.250 . S
O184 Mg185 2.028 . S
O184 C186 1.248 . S
Mg185 O184 2.028 . S
Mg185 O190 2.032 . S
Mg185 O192 2.079 . S
C186 O183 1.250 . S
C186 O184 1.248 . S
C187 O188 1.264 . S
C187 O195 1.249 . S
O188 C187 1.264 . S
O189 Mg182 1.986 . S
O189 C193 1.246 . S
O190 Mg185 2.032 . S
O190 C193 1.259 . S
O191 Mg182 2.114 . S
O191 C194 1.252 . S
O192 Mg182 2.251 . S
O192 Mg185 2.079 . S
O192 C194 1.273 . S
C193 O189 1.246 . S
C193 O190 1.259 . S
C194 O191 1.252 . S
C194 O192 1.273 . S
O195 Mg182 2.010 . S
O195 C187 1.249 . S
Mg196 O197 2.028 . S
Mg196 O203 1.986 . S
Mg196 O205 2.114 . S
Mg196 O206 2.251 . S
Mg196 O209 2.010 . S
O197 Mg196 2.028 . S
O197 C200 1.250 . S
O198 Mg199 2.028 . S
O198 C200 1.248 . S
Mg199 O198 2.028 . S
Mg199 O204 2.032 . S
Mg199 O206 2.079 . S
C200 O197 1.250 . S
C200 O198 1.248 . S
C201 O202 1.264 . S
C201 O209 1.249 . S
O202 C201 1.264 . S
O203 Mg196 1.986 . S
O203 C207 1.246 . S
O204 Mg199 2.032 . S
O204 C207 1.259 . S
O205 Mg196 2.114 . S
O205 C208 1.252 . S
O206 Mg196 2.251 . S
O206 Mg199 2.079 . S
O206 C208 1.273 . S
C207 O203 1.246 . S
C207 O204 1.259 . S
C208 O205 1.252 . S
C208 O206 1.273 . S
O209 Mg196 2.010 . S
O209 C201 1.249 . S
Mg210 O211 2.028 . S
Mg210 O217 1.986 . S
Mg210 O219 2.114 . S
Mg210 O220 2.251 . S
Mg210 O223 2.010 . S
O211 Mg210 2.028 . S
O211 C214 1.250 . S
O212 Mg213 2.028 . S
O212 C214 1.248 . S
Mg213 O212 2.028 . S
Mg213 O218 2.032 . S
Mg213 O220 2.079 . S
C214 O211 1.250 . S
C214 O212 1.248 . S
C215 O216 1.264 . S
C215 O223 1.249 . S
O216 C215 1.264 . S
O217 Mg210 1.986 . S
O217 C221 1.246 . S
O218 Mg213 2.032 . S
O218 C221 1.259 . S
O219 Mg210 2.114 . S
O219 C222 1.252 . S
O220 Mg210 2.251 . S
O220 Mg213 2.079 . S
O220 C222 1.273 . S
C221 O217 1.246 . S
C221 O218 1.259 . S
C222 O219 1.252 . S
C222 O220 1.273 . S
O223 Mg210 2.010 . S
O223 C215 1.249 . S
Mg224 O225 2.028 . S
Mg224 O231 1.986 . S
Mg224 O233 2.114 . S
Mg224 O234 2.251 . S
Mg224 O237 2.010 . S
O225 Mg224 2.028 . S
O225 C228 1.250 . S
O226 Mg227 2.028 . S
O226 C228 1.248 . S
Mg227 O226 2.028 . S
Mg227 O232 2.032 . S
Mg227 O234 2.079 . S
C228 O225 1.250 . S
C228 O226 1.248 . S
C229 O230 1.264 . S
C229 O237 1.249 . S
O230 C229 1.264 . S
O231 Mg224 1.986 . S
O231 C235 1.246 . S
O232 Mg227 2.032 . S
O232 C235 1.259 . S
O233 Mg224 2.114 . S
O233 C236 1.252 . S
O234 Mg224 2.251 . S
O234 Mg227 2.079 . S
O234 C236 1.273 . S
C235 O231 1.246 . S
C235 O232 1.259 . S
C236 O233 1.252 . S
C236 O234 1.273 . S
O237 Mg224 2.010 . S
O237 C229 1.249 . S
Mg238 O239 2.028 . S
Mg238 O245 1.986 . S
Mg238 O247 2.114 . S
Mg238 O248 2.251 . S
Mg238 O251 2.010 . S
O239 Mg238 2.028 . S
O239 C242 1.250 . S
O240 Mg241 2.028 . S
O240 C242 1.248 . S
Mg241 O240 2.028 . S
Mg241 O246 2.032 . S
Mg241 O248 2.079 . S
C242 O239 1.250 . S
C242 O240 1.248 . S
C243 O244 1.264 . S
C243 O251 1.249 . S
O244 C243 1.264 . S
O245 Mg238 1.986 . S
O245 C249 1.246 . S
O246 Mg241 2.032 . S
O246 C249 1.259 . S
O247 Mg238 2.114 . S
O247 C250 1.252 . S
O248 Mg238 2.251 . S
O248 Mg241 2.079 . S
O248 C250 1.273 . S
C249 O245 1.246 . S
C249 O246 1.259 . S
C250 O247 1.252 . S
C250 O248 1.273 . S
O251 Mg238 2.010 . S
O251 C243 1.249 . S
Mg252 O253 2.028 . S
Mg252 O259 1.986 . S
Mg252 O261 2.114 . S
Mg252 O262 2.251 . S
Mg252 O265 2.010 . S
O253 Mg252 2.028 . S
O253 C256 1.250 . S
O254 Mg255 2.028 . S
O254 C256 1.248 . S
Mg255 O254 2.028 . S
Mg255 O260 2.032 . S
Mg255 O262 2.079 . S
C256 O253 1.250 . S
C256 O254 1.248 . S
C257 O258 1.264 . S
C257 O265 1.249 . S
O258 C257 1.264 . S
O259 Mg252 1.986 . S
O259 C263 1.246 . S
O260 Mg255 2.032 . S
O260 C263 1.259 . S
O261 Mg252 2.114 . S
O261 C264 1.252 . S
O262 Mg252 2.251 . S
O262 Mg255 2.079 . S
O262 C264 1.273 . S
C263 O259 1.246 . S
C263 O260 1.259 . S
C264 O261 1.252 . S
C264 O262 1.273 . S
O265 Mg252 2.010 . S
O265 C257 1.249 . S
Mg266 O267 2.028 . S
Mg266 O273 1.986 . S
Mg266 O275 2.114 . S
Mg266 O276 2.251 . S
Mg266 O279 2.010 . S
O267 Mg266 2.028 . S
O267 C270 1.250 . S
O268 Mg269 2.028 . S
O268 C270 1.248 . S
Mg269 O268 2.028 . S
Mg269 O274 2.032 . S
Mg269 O276 2.079 . S
C270 O267 1.250 . S
C270 O268 1.248 . S
C271 O272 1.264 . S
C271 O279 1.249 . S
O272 C271 1.264 . S
O273 Mg266 1.986 . S
O273 C277 1.246 . S
O274 Mg269 2.032 . S
O274 C277 1.259 . S
O275 Mg266 2.114 . S
O275 C278 1.252 . S
O276 Mg266 2.251 . S
O276 Mg269 2.079 . S
O276 C278 1.273 . S
C277 O273 1.246 . S
C277 O274 1.259 . S
C278 O275 1.252 . S
C278 O276 1.273 . S
O279 Mg266 2.010 . S
O279 C271 1.249 . S
Mg280 O281 2.028 . S
Mg280 O287 1.986 . S
Mg280 O289 2.114 . S
Mg280 O290 2.251 . S
Mg280 O293 2.010 . S
O281 Mg280 2.028 . S
O281 C284 1.250 . S
O282 Mg283 2.028 . S
O282 C284 1.248 . S
Mg283 O282 2.028 . S
Mg283 O288 2.032 . S
Mg283 O290 2.079 . S
C284 O281 1.250 . S
C284 O282 1.248 . S
C285 O286 1.264 . S
C285 O293 1.249 . S
O286 C285 1.264 . S
O287 Mg280 1.986 . S
O287 C291 1.246 . S
O288 Mg283 2.032 . S
O288 C291 1.259 . S
O289 Mg280 2.114 . S
O289 C292 1.252 . S
O290 Mg280 2.251 . S
O290 Mg283 2.079 . S
O290 C292 1.273 . S
C291 O287 1.246 . S
C291 O288 1.259 . S
C292 O289 1.252 . S
C292 O290 1.273 . S
O293 Mg280 2.010 . S
O293 C285 1.249 . S
Mg294 O295 2.028 . S
Mg294 O301 1.986 . S
Mg294 O303 2.114 . S
Mg294 O304 2.251 . S
Mg294 O307 2.010 . S
O295 Mg294 2.028 . S
O295 C298 1.250 . S
O296 Mg297 2.028 . S
O296 C298 1.248 . S
Mg297 O296 2.028 . S
Mg297 O302 2.032 . S
Mg297 O304 2.079 . S
C298 O295 1.250 . S
C298 O296 1.248 . S
C299 O300 1.264 . S
C299 O307 1.249 . S
O300 C299 1.264 . S
O301 Mg294 1.986 . S
O301 C305 1.246 . S
O302 Mg297 2.032 . S
O302 C305 1.259 . S
O303 Mg294 2.114 . S
O303 C306 1.252 . S
O304 Mg294 2.251 . S
O304 Mg297 2.079 . S
O304 C306 1.273 . S
C305 O301 1.246 . S
C305 O302 1.259 . S
C306 O303 1.252 . S
C306 O304 1.273 . S
O307 Mg294 2.010 . S
O307 C299 1.249 . S
Mg308 O309 2.028 . S
Mg308 O315 1.986 . S
Mg308 O317 2.114 . S
Mg308 O318 2.251 . S
Mg308 O321 2.010 . S
O309 Mg308 2.028 . S
O309 C312 1.250 . S
O310 Mg311 2.028 . S
O310 C312 1.248 . S
Mg311 O310 2.028 . S
Mg311 O316 2.032 . S
Mg311 O318 2.079 . S
C312 O309 1.250 . S
C312 O310 1.248 . S
C313 O314 1.264 . S
C313 O321 1.249 . S
O314 C313 1.264 . S
O315 Mg308 1.986 . S
O315 C319 1.246 . S
O316 Mg311 2.032 . S
O316 C319 1.259 . S
O317 Mg308 2.114 . S
O317 C320 1.252 . S
O318 Mg308 2.251 . S
O318 Mg311 2.079 . S
O318 C320 1.273 . S
C319 O315 1.246 . S
C319 O316 1.259 . S
C320 O317 1.252 . S
C320 O318 1.273 . S
O321 Mg308 2.010 . S
O321 C313 1.249 . S
Mg322 O323 2.028 . S
Mg322 O329 1.986 . S
Mg322 O331 2.114 . S
Mg322 O332 2.251 . S
Mg322 O335 2.010 . S
O323 Mg322 2.028 . S
O323 C326 1.250 . S
O324 Mg325 2.028 . S
O324 C326 1.248 . S
Mg325 O324 2.028 . S
Mg325 O330 2.032 . S
Mg325 O332 2.079 . S
C326 O323 1.250 . S
C326 O324 1.248 . S
C327 O328 1.264 . S
C327 O335 1.249 . S
O328 C327 1.264 . S
O329 Mg322 1.986 . S
O329 C333 1.246 . S
O330 Mg325 2.032 . S
O330 C333 1.259 . S
O331 Mg322 2.114 . S
O331 C334 1.252 . S
O332 Mg322 2.251 . S
O332 Mg325 2.079 . S
O332 C334 1.273 . S
C333 O329 1.246 . S
C333 O330 1.259 . S
C334 O331 1.252 . S
C334 O332 1.273 . S
O335 Mg322 2.010 . S
O335 C327 1.249 . S
Mg336 O337 2.028 . S
Mg336 O343 1.986 . S
Mg336 O345 2.114 . S
Mg336 O346 2.251 . S
Mg336 O349 2.010 . S
O337 Mg336 2.028 . S
O337 C340 1.250 . S
O338 Mg339 2.028 . S
O338 C340 1.248 . S
Mg339 O338 2.028 . S
Mg339 O344 2.032 . S
Mg339 O346 2.079 . S
C340 O337 1.250 . S
C340 O338 1.248 . S
C341 O342 1.264 . S
C341 O349 1.249 . S
O342 C341 1.264 . S
O343 Mg336 1.986 . S
O343 C347 1.246 . S
O344 Mg339 2.032 . S
O344 C347 1.259 . S
O345 Mg336 2.114 . S
O345 C348 1.252 . S
O346 Mg336 2.251 . S
O346 Mg339 2.079 . S
O346 C348 1.273 . S
C347 O343 1.246 . S
C347 O344 1.259 . S
C348 O345 1.252 . S
C348 O346 1.273 . S
O349 Mg336 2.010 . S
O349 C341 1.249 . S
Mg350 O351 2.028 . S
Mg350 O357 1.986 . S
Mg350 O359 2.114 . S
Mg350 O360 2.251 . S
Mg350 O363 2.010 . S
O351 Mg350 2.028 . S
O351 C354 1.250 . S
O352 Mg353 2.028 . S
O352 C354 1.248 . S
Mg353 O352 2.028 . S
Mg353 O358 2.032 . S
Mg353 O360 2.079 . S
C354 O351 1.250 . S
C354 O352 1.248 . S
C355 O356 1.264 . S
C355 O363 1.249 . S
O356 C355 1.264 . S
O357 Mg350 1.986 . S
O357 C361 1.246 . S
O358 Mg353 2.032 . S
O358 C361 1.259 . S
O359 Mg350 2.114 . S
O359 C362 1.252 . S
O360 Mg350 2.251 . S
O360 Mg353 2.079 . S
O360 C362 1.273 . S
C361 O357 1.246 . S
C361 O358 1.259 . S
C362 O359 1.252 . S
C362 O360 1.273 . S
O363 Mg350 2.010 . S
O363 C355 1.249 . S
Mg364 O365 2.028 . S
Mg364 O371 1.986 . S
Mg364 O373 2.114 . S
Mg364 O374 2.251 . S
Mg364 O377 2.010 . S
O365 Mg364 2.028 . S
O365 C368 1.250 . S
O366 Mg367 2.028 . S
O366 C368 1.248 . S
Mg367 O366 2.028 . S
Mg367 O372 2.032 . S
Mg367 O374 2.079 . S
C368 O365 1.250 . S
C368 O366 1.248 . S
C369 O370 1.264 . S
C369 O377 1.249 . S
O370 C369 1.264 . S
O371 Mg364 1.986 . S
O371 C375 1.246 . S
O372 Mg367 2.032 . S
O372 C375 1.259 . S
O373 Mg364 2.114 . S
O373 C376 1.252 . S
O374 Mg364 2.251 . S
O374 Mg367 2.079 . S
O374 C376 1.273 . S
C375 O371 1.246 . S
C375 O372 1.259 . S
C376 O373 1.252 . S
C376 O374 1.273 . S
O377 Mg364 2.010 . S
O377 C369 1.249 . S
Mg378 O379 2.028 . S
Mg378 O385 1.986 . S
Mg378 O387 2.114 . S
Mg378 O388 2.251 . S
Mg378 O391 2.010 . S
O379 Mg378 2.028 . S
O379 C382 1.250 . S
O380 Mg381 2.028 . S
O380 C382 1.248 . S
Mg381 O380 2.028 . S
Mg381 O386 2.032 . S
Mg381 O388 2.079 . S
C382 O379 1.250 . S
C382 O380 1.248 . S
C383 O384 1.264 . S
C383 O391 1.249 . S
O384 C383 1.264 . S
O385 Mg378 1.986 . S
O385 C389 1.246 . S
O386 Mg381 2.032 . S
O386 C389 1.259 . S
O387 Mg378 2.114 . S
O387 C390 1.252 . S
O388 Mg378 2.251 . S
O388 Mg381 2.079 . S
O388 C390 1.273 . S
C389 O385 1.246 . S
C389 O386 1.259 . S
C390 O387 1.252 . S
C390 O388 1.273 . S
O391 Mg378 2.010 . S
O391 C383 1.249 . S
Mg392 O393 2.028 . S
Mg392 O399 1.986 . S
Mg392 O401 2.114 . S
Mg392 O402 2.251 . S
Mg392 O405 2.010 . S
O393 Mg392 2.028 . S
O393 C396 1.250 . S
O394 Mg395 2.028 . S
O394 C396 1.248 . S
Mg395 O394 2.028 . S
Mg395 O400 2.032 . S
Mg395 O402 2.079 . S
C396 O393 1.250 . S
C396 O394 1.248 . S
C397 O398 1.264 . S
C397 O405 1.249 . S
O398 C397 1.264 . S
O399 Mg392 1.986 . S
O399 C403 1.246 . S
O400 Mg395 2.032 . S
O400 C403 1.259 . S
O401 Mg392 2.114 . S
O401 C404 1.252 . S
O402 Mg392 2.251 . S
O402 Mg395 2.079 . S
O402 C404 1.273 . S
C403 O399 1.246 . S
C403 O400 1.259 . S
C404 O401 1.252 . S
C404 O402 1.273 . S
O405 Mg392 2.010 . S
O405 C397 1.249 . S
Mg406 O407 2.028 . S
Mg406 O413 1.986 . S
Mg406 O415 2.114 . S
Mg406 O416 2.251 . S
Mg406 O419 2.010 . S
O407 Mg406 2.028 . S
O407 C410 1.250 . S
O408 Mg409 2.028 . S
O408 C410 1.248 . S
Mg409 O408 2.028 . S
Mg409 O414 2.032 . S
Mg409 O416 2.079 . S
C410 O407 1.250 . S
C410 O408 1.248 . S
C411 O412 1.264 . S
C411 O419 1.249 . S
O412 C411 1.264 . S
O413 Mg406 1.986 . S
O413 C417 1.246 . S
O414 Mg409 2.032 . S
O414 C417 1.259 . S
O415 Mg406 2.114 . S
O415 C418 1.252 . S
O416 Mg406 2.251 . S
O416 Mg409 2.079 . S
O416 C418 1.273 . S
C417 O413 1.246 . S
C417 O414 1.259 . S
C418 O415 1.252 . S
C418 O416 1.273 . S
O419 Mg406 2.010 . S
O419 C411 1.249 . S
Mg420 O421 2.028 . S
Mg420 O427 1.986 . S
Mg420 O429 2.114 . S
Mg420 O430 2.251 . S
Mg420 O433 2.010 . S
O421 Mg420 2.028 . S
O421 C424 1.250 . S
O422 Mg423 2.028 . S
O422 C424 1.248 . S
Mg423 O422 2.028 . S
Mg423 O428 2.032 . S
Mg423 O430 2.079 . S
C424 O421 1.250 . S
C424 O422 1.248 . S
C425 O426 1.264 . S
C425 O433 1.249 . S
O426 C425 1.264 . S
O427 Mg420 1.986 . S
O427 C431 1.246 . S
O428 Mg423 2.032 . S
O428 C431 1.259 . S
O429 Mg420 2.114 . S
O429 C432 1.252 . S
O430 Mg420 2.251 . S
O430 Mg423 2.079 . S
O430 C432 1.273 . S
C431 O427 1.246 . S
C431 O428 1.259 . S
C432 O429 1.252 . S
C432 O430 1.273 . S
O433 Mg420 2.010 . S
O433 C425 1.249 . S
Mg434 O435 2.028 . S
Mg434 O441 1.986 . S
Mg434 O443 2.114 . S
Mg434 O444 2.251 . S
Mg434 O447 2.010 . S
O435 Mg434 2.028 . S
O435 C438 1.250 . S
O436 Mg437 2.028 . S
O436 C438 1.248 . S
Mg437 O436 2.028 . S
Mg437 O442 2.032 . S
Mg437 O444 2.079 . S
C438 O435 1.250 . S
C438 O436 1.248 . S
C439 O440 1.264 . S
C439 O447 1.249 . S
O440 C439 1.264 . S
O441 Mg434 1.986 . S
O441 C445 1.246 . S
O442 Mg437 2.032 . S
O442 C445 1.259 . S
O443 Mg434 2.114 . S
O443 C446 1.252 . S
O444 Mg434 2.251 . S
O444 Mg437 2.079 . S
O444 C446 1.273 . S
C445 O441 1.246 . S
C445 O442 1.259 . S
C446 O443 1.252 . S
C446 O444 1.273 . S
O447 Mg434 2.010 . S
O447 C439 1.249 . S
Mg448 O449 2.028 . S
Mg448 O455 1.986 . S
Mg448 O457 2.114 . S
Mg448 O458 2.251 . S
Mg448 O461 2.010 . S
O449 Mg448 2.028 . S
O449 C452 1.250 . S
O450 Mg451 2.028 . S
O450 C452 1.248 . S
Mg451 O450 2.028 . S
Mg451 O456 2.032 . S
Mg451 O458 2.079 . S
C452 O449 1.250 . S
C452 O450 1.248 . S
C453 O454 1.264 . S
C453 O461 1.249 . S
O454 C453 1.264 . S
O455 Mg448 1.986 . S
O455 C459 1.246 . S
O456 Mg451 2.032 . S
O456 C459 1.259 . S
O457 Mg448 2.114 . S
O457 C460 1.252 . S
O458 Mg448 2.251 . S
O458 Mg451 2.079 . S
O458 C460 1.273 . S
C459 O455 1.246 . S
C459 O456 1.259 . S
C460 O457 1.252 . S
C460 O458 1.273 . S
O461 Mg448 2.010 . S
O461 C453 1.249 . S
Mg462 O463 2.028 . S
Mg462 O469 1.986 . S
Mg462 O471 2.114 . S
Mg462 O472 2.251 . S
Mg462 O475 2.010 . S
O463 Mg462 2.028 . S
O463 C466 1.250 . S
O464 Mg465 2.028 . S
O464 C466 1.248 . S
Mg465 O464 2.028 . S
Mg465 O470 2.032 . S
Mg465 O472 2.079 . S
C466 O463 1.250 . S
C466 O464 1.248 . S
C467 O468 1.264 . S
C467 O475 1.249 . S
O468 C467 1.264 . S
O469 Mg462 1.986 . S
O469 C473 1.246 . S
O470 Mg465 2.032 . S
O470 C473 1.259 . S
O471 Mg462 2.114 . S
O471 C474 1.252 . S
O472 Mg462 2.251 . S
O472 Mg465 2.079 . S
O472 C474 1.273 . S
C473 O469 1.246 . S
C473 O470 1.259 . S
C474 O471 1.252 . S
C474 O472 1.273 . S
O475 Mg462 2.010 . S
O475 C467 1.249 . S
Mg476 O477 2.028 . S
Mg476 O483 1.986 . S
Mg476 O485 2.114 . S
Mg476 O486 2.251 . S
Mg476 O489 2.010 . S
O477 Mg476 2.028 . S
O477 C480 1.250 . S
O478 Mg479 2.028 . S
O478 C480 1.248 . S
Mg479 O478 2.028 . S
Mg479 O484 2.032 . S
Mg479 O486 2.079 . S
C480 O477 1.250 . S
C480 O478 1.248 . S
C481 O482 1.264 . S
C481 O489 1.249 . S
O482 C481 1.264 . S
O483 Mg476 1.986 . S
O483 C487 1.246 . S
O484 Mg479 2.032 . S
O484 C487 1.259 . S
O485 Mg476 2.114 . S
O485 C488 1.252 . S
O486 Mg476 2.251 . S
O486 Mg479 2.079 . S
O486 C488 1.273 . S
C487 O483 1.246 . S
C487 O484 1.259 . S
C488 O485 1.252 . S
C488 O486 1.273 . S
O489 Mg476 2.010 . S
O489 C481 1.249 . S
Mg490 O491 2.028 . S
Mg490 O497 1.986 . S
Mg490 O499 2.114 . S
Mg490 O500 2.251 . S
Mg490 O503 2.010 . S
O491 Mg490 2.028 . S
O491 C494 1.250 . S
O492 Mg493 2.028 . S
O492 C494 1.248 . S
Mg493 O492 2.028 . S
Mg493 O498 2.032 . S
Mg493 O500 2.079 . S
C494 O491 1.250 . S
C494 O492 1.248 . S
C495 O496 1.264 . S
C495 O503 1.249 . S
O496 C495 1.264 . S
O497 Mg490 1.986 . S
O497 C501 1.246 . S
O498 Mg493 2.032 . S
O498 C501 1.259 . S
O499 Mg490 2.114 . S
O499 C502 1.252 . S
O500 Mg490 2.251 . S
O500 Mg493 2.079 . S
O500 C502 1.273 . S
C501 O497 1.246 . S
C501 O498 1.259 . S
C502 O499 1.252 . S
C502 O500 1.273 . S
O503 Mg490 2.010 . S
O503 C495 1.249 . S
Mg504 O505 2.028 . S
Mg504 O511 1.986 . S
Mg504 O513 2.114 . S
Mg504 O514 2.251 . S
Mg504 O517 2.010 . S
O505 Mg504 2.028 . S
O505 C508 1.250 . S
O506 Mg507 2.028 . S
O506 C508 1.248 . S
Mg507 O506 2.028 . S
Mg507 O512 2.032 . S
Mg507 O514 2.079 . S
C508 O505 1.250 . S
C508 O506 1.248 . S
C509 O510 1.264 . S
C509 O517 1.249 . S
O510 C509 1.264 . S
O511 Mg504 1.986 . S
O511 C515 1.246 . S
O512 Mg507 2.032 . S
O512 C515 1.259 . S
O513 Mg504 2.114 . S
O513 C516 1.252 . S
O514 Mg504 2.251 . S
O514 Mg507 2.079 . S
O514 C516 1.273 . S
C515 O511 1.246 . S
C515 O512 1.259 . S
C516 O513 1.252 . S
C516 O514 1.273 . S
O517 Mg504 2.010 . S
O517 C509 1.249 . S
Mg518 O519 2.028 . S
Mg518 O525 1.986 . S
Mg518 O527 2.114 . S
Mg518 O528 2.251 . S
Mg518 O531 2.010 . S
O519 Mg518 2.028 . S
O519 C522 1.250 . S
O520 Mg521 2.028 . S
O520 C522 1.248 . S
Mg521 O520 2.028 . S
Mg521 O526 2.032 . S
Mg521 O528 2.079 . S
C522 O519 1.250 . S
C522 O520 1.248 . S
C523 O524 1.264 . S
C523 O531 1.249 . S
O524 C523 1.264 . S
O525 Mg518 1.986 . S
O525 C529 1.246 . S
O526 Mg521 2.032 . S
O526 C529 1.259 . S
O527 Mg518 2.114 . S
O527 C530 1.252 . S
O528 Mg518 2.251 . S
O528 Mg521 2.079 . S
O528 C530 1.273 . S
C529 O525 1.246 . S
C529 O526 1.259 . S
C530 O527 1.252 . S
C530 O528 1.273 . S
O531 Mg518 2.010 . S
O531 C523 1.249 . S
Mg532 O533 2.028 . S
Mg532 O539 1.986 . S
Mg532 O541 2.114 . S
Mg532 O542 2.251 . S
Mg532 O545 2.010 . S
O533 Mg532 2.028 . S
O533 C536 1.250 . S
O534 Mg535 2.028 . S
O534 C536 1.248 . S
Mg535 O534 2.028 . S
Mg535 O540 2.032 . S
Mg535 O542 2.079 . S
C536 O533 1.250 . S
C536 O534 1.248 . S
C537 O538 1.264 . S
C537 O545 1.249 . S
O538 C537 1.264 . S
O539 Mg532 1.986 . S
O539 C543 1.246 . S
O540 Mg535 2.032 . S
O540 C543 1.259 . S
O541 Mg532 2.114 . S
O541 C544 1.252 . S
O542 Mg532 2.251 . S
O542 Mg535 2.079 . S
O542 C544 1.273 . S
C543 O539 1.246 . S
C543 O540 1.259 . S
C544 O541 1.252 . S
C544 O542 1.273 . S
O545 Mg532 2.010 . S
O545 C537 1.249 . S
Mg546 O547 2.028 . S
Mg546 O553 1.986 . S
Mg546 O555 2.114 . S
Mg546 O556 2.251 . S
Mg546 O559 2.010 . S
O547 Mg546 2.028 . S
O547 C550 1.250 . S
O548 Mg549 2.028 . S
O548 C550 1.248 . S
Mg549 O548 2.028 . S
Mg549 O554 2.032 . S
Mg549 O556 2.079 . S
C550 O547 1.250 . S
C550 O548 1.248 . S
C551 O552 1.264 . S
C551 O559 1.249 . S
O552 C551 1.264 . S
O553 Mg546 1.986 . S
O553 C557 1.246 . S
O554 Mg549 2.032 . S
O554 C557 1.259 . S
O555 Mg546 2.114 . S
O555 C558 1.252 . S
O556 Mg546 2.251 . S
O556 Mg549 2.079 . S
O556 C558 1.273 . S
C557 O553 1.246 . S
C557 O554 1.259 . S
C558 O555 1.252 . S
C558 O556 1.273 . S
O559 Mg546 2.010 . S
O559 C551 1.249 . S
Mg560 O561 2.028 . S
Mg560 O567 1.986 . S
Mg560 O569 2.114 . S
Mg560 O570 2.251 . S
Mg560 O573 2.010 . S
O561 Mg560 2.028 . S
O561 C564 1.250 . S
O562 Mg563 2.028 . S
O562 C564 1.248 . S
Mg563 O562 2.028 . S
Mg563 O568 2.032 . S
Mg563 O570 2.079 . S
C564 O561 1.250 . S
C564 O562 1.248 . S
C565 O566 1.264 . S
C565 O573 1.249 . S
O566 C565 1.264 . S
O567 Mg560 1.986 . S
O567 C571 1.246 . S
O568 Mg563 2.032 . S
O568 C571 1.259 . S
O569 Mg560 2.114 . S
O569 C572 1.252 . S
O570 Mg560 2.251 . S
O570 Mg563 2.079 . S
O570 C572 1.273 . S
C571 O567 1.246 . S
C571 O568 1.259 . S
C572 O569 1.252 . S
C572 O570 1.273 . S
O573 Mg560 2.010 . S
O573 C565 1.249 . S
Mg574 O575 2.028 . S
Mg574 O581 1.986 . S
Mg574 O583 2.114 . S
Mg574 O584 2.251 . S
Mg574 O587 2.010 . S
O575 Mg574 2.028 . S
O575 C578 1.250 . S
O576 Mg577 2.028 . S
O576 C578 1.248 . S
Mg577 O576 2.028 . S
Mg577 O582 2.032 . S
Mg577 O584 2.079 . S
C578 O575 1.250 . S
C578 O576 1.248 . S
C579 O580 1.264 . S
C579 O587 1.249 . S
O580 C579 1.264 . S
O581 Mg574 1.986 . S
O581 C585 1.246 . S
O582 Mg577 2.032 . S
O582 C585 1.259 . S
O583 Mg574 2.114 . S
O583 C586 1.252 . S
O584 Mg574 2.251 . S
O584 Mg577 2.079 . S
O584 C586 1.273 . S
C585 O581 1.246 . S
C585 O582 1.259 . S
C586 O583 1.252 . S
C586 O584 1.273 . S
O587 Mg574 2.010 . S
O587 C579 1.249 . S
Mg588 O589 2.028 . S
Mg588 O595 1.986 . S
Mg588 O597 2.114 . S
Mg588 O598 2.251 . S
Mg588 O601 2.010 . S
O589 Mg588 2.028 . S
O589 C592 1.250 . S
O590 Mg591 2.028 . S
O590 C592 1.248 . S
Mg591 O590 2.028 . S
Mg591 O596 2.032 . S
Mg591 O598 2.079 . S
C592 O589 1.250 . S
C592 O590 1.248 . S
C593 O594 1.264 . S
C593 O601 1.249 . S
O594 C593 1.264 . S
O595 Mg588 1.986 . S
O595 C599 1.246 . S
O596 Mg591 2.032 . S
O596 C599 1.259 . S
O597 Mg588 2.114 . S
O597 C600 1.252 . S
O598 Mg588 2.251 . S
O598 Mg591 2.079 . S
O598 C600 1.273 . S
C599 O595 1.246 . S
C599 O596 1.259 . S
C600 O597 1.252 . S
C600 O598 1.273 . S
O601 Mg588 2.010 . S
O601 C593 1.249 . S
Mg602 O603 2.028 . S
Mg602 O609 1.986 . S
Mg602 O611 2.114 . S
Mg602 O612 2.251 . S
Mg602 O615 2.010 . S
O603 Mg602 2.028 . S
O603 C606 1.250 . S
O604 Mg605 2.028 . S
O604 C606 1.248 . S
Mg605 O604 2.028 . S
Mg605 O610 2.032 . S
Mg605 O612 2.079 . S
C606 O603 1.250 . S
C606 O604 1.248 . S
C607 O608 1.264 . S
C607 O615 1.249 . S
O608 C607 1.264 . S
O609 Mg602 1.986 . S
O609 C613 1.246 . S
O610 Mg605 2.032 . S
O610 C613 1.259 . S
O611 Mg602 2.114 . S
O611 C614 1.252 . S
O612 Mg602 2.251 . S
O612 Mg605 2.079 . S
O612 C614 1.273 . S
C613 O609 1.246 . S
C613 O610 1.259 . S
C614 O611 1.252 . S
C614 O612 1.273 . S
O615 Mg602 2.010 . S
O615 C607 1.249 . S
Mg616 O617 2.028 . S
Mg616 O623 1.986 . S
Mg616 O625 2.114 . S
Mg616 O626 2.251 . S
Mg616 O629 2.010 . S
O617 Mg616 2.028 . S
O617 C620 1.250 . S
O618 Mg619 2.028 . S
O618 C620 1.248 . S
Mg619 O618 2.028 . S
Mg619 O624 2.032 . S
Mg619 O626 2.079 . S
C620 O617 1.250 . S
C620 O618 1.248 . S
C621 O622 1.264 . S
C621 O629 1.249 . S
O622 C621 1.264 . S
O623 Mg616 1.986 . S
O623 C627 1.246 . S
O624 Mg619 2.032 . S
O624 C627 1.259 . S
O625 Mg616 2.114 . S
O625 C628 1.252 . S
O626 Mg616 2.251 . S
O626 Mg619 2.079 . S
O626 C628 1.273 . S
C627 O623 1.246 . S
C627 O624 1.259 . S
C628 O625 1.252 . S
C628 O626 1.273 . S
O629 Mg616 2.010 . S
O629 C621 1.249 . S
Mg630 O631 2.028 . S
Mg630 O637 1.986 . S
Mg630 O639 2.114 . S
Mg630 O640 2.251 . S
Mg630 O643 2.010 . S
O631 Mg630 2.028 . S
O631 C634 1.250 . S
O632 Mg633 2.028 . S
O632 C634 1.248 . S
Mg633 O632 2.028 . S
Mg633 O638 2.032 . S
Mg633 O640 2.079 . S
C634 O631 1.250 . S
C634 O632 1.248 . S
C635 O636 1.264 . S
C635 O643 1.249 . S
O636 C635 1.264 . S
O637 Mg630 1.986 . S
O637 C641 1.246 . S
O638 Mg633 2.032 . S
O638 C641 1.259 . S
O639 Mg630 2.114 . S
O639 C642 1.252 . S
O640 Mg630 2.251 . S
O640 Mg633 2.079 . S
O640 C642 1.273 . S
C641 O637 1.246 . S
C641 O638 1.259 . S
C642 O639 1.252 . S
C642 O640 1.273 . S
O643 Mg630 2.010 . S
O643 C635 1.249 . S
Mg644 O645 2.028 . S
Mg644 O651 1.986 . S
Mg644 O653 2.114 . S
Mg644 O654 2.251 . S
Mg644 O657 2.010 . S
O645 Mg644 2.028 . S
O645 C648 1.250 . S
O646 Mg647 2.028 . S
O646 C648 1.248 . S
Mg647 O646 2.028 . S
Mg647 O652 2.032 . S
Mg647 O654 2.079 . S
C648 O645 1.250 . S
C648 O646 1.248 . S
C649 O650 1.264 . S
C649 O657 1.249 . S
O650 C649 1.264 . S
O651 Mg644 1.986 . S
O651 C655 1.246 . S
O652 Mg647 2.032 . S
O652 C655 1.259 . S
O653 Mg644 2.114 . S
O653 C656 1.252 . S
O654 Mg644 2.251 . S
O654 Mg647 2.079 . S
O654 C656 1.273 . S
C655 O651 1.246 . S
C655 O652 1.259 . S
C656 O653 1.252 . S
C656 O654 1.273 . S
O657 Mg644 2.010 . S
O657 C649 1.249 . S
Mg658 O659 2.028 . S
Mg658 O665 1.986 . S
Mg658 O667 2.114 . S
Mg658 O668 2.251 . S
Mg658 O671 2.010 . S
O659 Mg658 2.028 . S
O659 C662 1.250 . S
O660 Mg661 2.028 . S
O660 C662 1.248 . S
Mg661 O660 2.028 . S
Mg661 O666 2.032 . S
Mg661 O668 2.079 . S
C662 O659 1.250 . S
C662 O660 1.248 . S
C663 O664 1.264 . S
C663 O671 1.249 . S
O664 C663 1.264 . S
O665 Mg658 1.986 . S
O665 C669 1.246 . S
O666 Mg661 2.032 . S
O666 C669 1.259 . S
O667 Mg658 2.114 . S
O667 C670 1.252 . S
O668 Mg658 2.251 . S
O668 Mg661 2.079 . S
O668 C670 1.273 . S
C669 O665 1.246 . S
C669 O666 1.259 . S
C670 O667 1.252 . S
C670 O668 1.273 . S
O671 Mg658 2.010 . S
O671 C663 1.249 . S
Mg672 O673 2.028 . S
Mg672 O679 1.986 . S
Mg672 O681 2.114 . S
Mg672 O682 2.251 . S
Mg672 O685 2.010 . S
O673 Mg672 2.028 . S
O673 C676 1.250 . S
O674 Mg675 2.028 . S
O674 C676 1.248 . S
Mg675 O674 2.028 . S
Mg675 O680 2.032 . S
Mg675 O682 2.079 . S
C676 O673 1.250 . S
C676 O674 1.248 . S
C677 O678 1.264 . S
C677 O685 1.249 . S
O678 C677 1.264 . S
O679 Mg672 1.986 . S
O679 C683 1.246 . S
O680 Mg675 2.032 . S
O680 C683 1.259 . S
O681 Mg672 2.114 . S
O681 C684 1.252 . S
O682 Mg672 2.251 . S
O682 Mg675 2.079 . S
O682 C684 1.273 . S
C683 O679 1.246 . S
C683 O680 1.259 . S
C684 O681 1.252 . S
C684 O682 1.273 . S
O685 Mg672 2.010 . S
O685 C677 1.249 . S
Mg686 O687 2.028 . S
Mg686 O693 1.986 . S
Mg686 O695 2.114 . S
Mg686 O696 2.251 . S
Mg686 O699 2.010 . S
O687 Mg686 2.028 . S
O687 C690 1.250 . S
O688 Mg689 2.028 . S
O688 C690 1.248 . S
Mg689 O688 2.028 . S
Mg689 O694 2.032 . S
Mg689 O696 2.079 . S
C690 O687 1.250 . S
C690 O688 1.248 . S
C691 O692 1.264 . S
C691 O699 1.249 . S
O692 C691 1.264 . S
O693 Mg686 1.986 . S
O693 C697 1.246 . S
O694 Mg689 2.032 . S
O694 C697 1.259 . S
O695 Mg686 2.114 . S
O695 C698 1.252 . S
O696 Mg686 2.251 . S
O696 Mg689 2.079 . S
O696 C698 1.273 . S
C697 O693 1.246 . S
C697 O694 1.259 . S
C698 O695 1.252 . S
C698 O696 1.273 . S
O699 Mg686 2.010 . S
O699 C691 1.249 . S
Mg700 O701 2.028 . S
Mg700 O707 1.986 . S
Mg700 O709 2.114 . S
Mg700 O710 2.251 . S
Mg700 O713 2.010 . S
O701 Mg700 2.028 . S
O701 C704 1.250 . S
O702 Mg703 2.028 . S
O702 C704 1.248 . S
Mg703 O702 2.028 . S
Mg703 O708 2.032 . S
Mg703 O710 2.079 . S
C704 O701 1.250 . S
C704 O702 1.248 . S
C705 O706 1.264 . S
C705 O713 1.249 . S
O706 C705 1.264 . S
O707 Mg700 1.986 . S
O707 C711 1.246 . S
O708 Mg703 2.032 . S
O708 C711 1.259 . S
O709 Mg700 2.114 . S
O709 C712 1.252 . S
O710 Mg700 2.251 . S
O710 Mg703 2.079 . S
O710 C712 1.273 . S
C711 O707 1.246 . S
C711 O708 1.259 . S
C712 O709 1.252 . S
C712 O710 1.273 . S
O713 Mg700 2.010 . S
O713 C705 1.249 . S
Mg714 O715 2.028 . S
Mg714 O721 1.986 . S
Mg714 O723 2.114 . S
Mg714 O724 2.251 . S
Mg714 O727 2.010 . S
O715 Mg714 2.028 . S
O715 C718 1.250 . S
O716 Mg717 2.028 . S
O716 C718 1.248 . S
Mg717 O716 2.028 . S
Mg717 O722 2.032 . S
Mg717 O724 2.079 . S
C718 O715 1.250 . S
C718 O716 1.248 . S
C719 O720 1.264 . S
C719 O727 1.249 . S
O720 C719 1.264 . S
O721 Mg714 1.986 . S
O721 C725 1.246 . S
O722 Mg717 2.032 . S
O722 C725 1.259 . S
O723 Mg714 2.114 . S
O723 C726 1.252 . S
O724 Mg714 2.251 . S
O724 Mg717 2.079 . S
O724 C726 1.273 . S
C725 O721 1.246 . S
C725 O722 1.259 . S
C726 O723 1.252 . S
C726 O724 1.273 . S
O727 Mg714 2.010 . S
O727 C719 1.249 . S
Mg728 O729 2.028 . S
Mg728 O735 1.986 . S
Mg728 O737 2.114 . S
Mg728 O738 2.251 . S
Mg728 O741 2.010 . S
O729 Mg728 2.028 . S
O729 C732 1.250 . S
O730 Mg731 2.028 . S
O730 C732 1.248 . S
Mg731 O730 2.028 . S
Mg731 O736 2.032 . S
Mg731 O738 2.079 . S
C732 O729 1.250 . S
C732 O730 1.248 . S
C733 O734 1.264 . S
C733 O741 1.249 . S
O734 C733 1.264 . S
O735 Mg728 1.986 . S
O735 C739 1.246 . S
O736 Mg731 2.032 . S
O736 C739 1.259 . S
O737 Mg728 2.114 . S
O737 C740 1.252 . S
O738 Mg728 2.251 . S
O738 Mg731 2.079 . S
O738 C740 1.273 . S
C739 O735 1.246 . S
C739 O736 1.259 . S
C740 O737 1.252 . S
C740 O738 1.273 . S
O741 Mg728 2.010 . S
O741 C733 1.249 . S
Mg742 O743 2.028 . S
Mg742 O749 1.986 . S
Mg742 O751 2.114 . S
Mg742 O752 2.251 . S
Mg742 O755 2.010 . S
O743 Mg742 2.028 . S
O743 C746 1.250 . S
O744 Mg745 2.028 . S
O744 C746 1.248 . S
Mg745 O744 2.028 . S
Mg745 O750 2.032 . S
Mg745 O752 2.079 . S
C746 O743 1.250 . S
C746 O744 1.248 . S
C747 O748 1.264 . S
C747 O755 1.249 . S
O748 C747 1.264 . S
O749 Mg742 1.986 . S
O749 C753 1.246 . S
O750 Mg745 2.032 . S
O750 C753 1.259 . S
O751 Mg742 2.114 . S
O751 C754 1.252 . S
O752 Mg742 2.251 . S
O752 Mg745 2.079 . S
O752 C754 1.273 . S
C753 O749 1.246 . S
C753 O750 1.259 . S
C754 O751 1.252 . S
C754 O752 1.273 . S
O755 Mg742 2.010 . S
O755 C747 1.249 . S
Mg756 O757 2.028 . S
Mg756 O763 1.986 . S
Mg756 O765 2.114 . S
Mg756 O766 2.251 . S
Mg756 O769 2.010 . S
O757 Mg756 2.028 . S
O757 C760 1.250 . S
O758 Mg759 2.028 . S
O758 C760 1.248 . S
Mg759 O758 2.028 . S
Mg759 O764 2.032 . S
Mg759 O766 2.079 . S
C760 O757 1.250 . S
C760 O758 1.248 . S
C761 O762 1.264 . S
C761 O769 1.249 . S
O762 C761 1.264 . S
O763 Mg756 1.986 . S
O763 C767 1.246 . S
O764 Mg759 2.032 . S
O764 C767 1.259 . S
O765 Mg756 2.114 . S
O765 C768 1.252 . S
O766 Mg756 2.251 . S
O766 Mg759 2.079 . S
O766 C768 1.273 . S
C767 O763 1.246 . S
C767 O764 1.259 . S
C768 O765 1.252 . S
C768 O766 1.273 . S
O769 Mg756 2.010 . S
O769 C761 1.249 . S
Mg770 O771 2.028 . S
Mg770 O777 1.986 . S
Mg770 O779 2.114 . S
Mg770 O780 2.251 . S
Mg770 O783 2.010 . S
O771 Mg770 2.028 . S
O771 C774 1.250 . S
O772 Mg773 2.028 . S
O772 C774 1.248 . S
Mg773 O772 2.028 . S
Mg773 O778 2.032 . S
Mg773 O780 2.079 . S
C774 O771 1.250 . S
C774 O772 1.248 . S
C775 O776 1.264 . S
C775 O783 1.249 . S
O776 C775 1.264 . S
O777 Mg770 1.986 . S
O777 C781 1.246 . S
O778 Mg773 2.032 . S
O778 C781 1.259 . S
O779 Mg770 2.114 . S
O779 C782 1.252 . S
O780 Mg770 2.251 . S
O780 Mg773 2.079 . S
O780 C782 1.273 . S
C781 O777 1.246 . S
C781 O778 1.259 . S
C782 O779 1.252 . S
C782 O780 1.273 . S
O783 Mg770 2.010 . S
O783 C775 1.249 . S
Mg784 O785 2.028 . S
Mg784 O791 1.986 . S
Mg784 O793 2.114 . S
Mg784 O794 2.251 . S
Mg784 O797 2.010 . S
O785 Mg784 2.028 . S
O785 C788 1.250 . S
O786 Mg787 2.028 . S
O786 C788 1.248 . S
Mg787 O786 2.028 . S
Mg787 O792 2.032 . S
Mg787 O794 2.079 . S
C788 O785 1.250 . S
C788 O786 1.248 . S
C789 O790 1.264 . S
C789 O797 1.249 . S
O790 C789 1.264 . S
O791 Mg784 1.986 . S
O791 C795 1.246 . S
O792 Mg787 2.032 . S
O792 C795 1.259 . S
O793 Mg784 2.114 . S
O793 C796 1.252 . S
O794 Mg784 2.251 . S
O794 Mg787 2.079 . S
O794 C796 1.273 . S
C795 O791 1.246 . S
C795 O792 1.259 . S
C796 O793 1.252 . S
C796 O794 1.273 . S
O797 Mg784 2.010 . S
O797 C789 1.249 . S
Mg798 O799 2.028 . S
Mg798 O805 1.986 . S
Mg798 O807 2.114 . S
Mg798 O808 2.251 . S
Mg798 O811 2.010 . S
O799 Mg798 2.028 . S
O799 C802 1.250 . S
O800 Mg801 2.028 . S
O800 C802 1.248 . S
Mg801 O800 2.028 . S
Mg801 O806 2.032 . S
Mg801 O808 2.079 . S
C802 O799 1.250 . S
C802 O800 1.248 . S
C803 O804 1.264 . S
C803 O811 1.249 . S
O804 C803 1.264 . S
O805 Mg798 1.986 . S
O805 C809 1.246 . S
O806 Mg801 2.032 . S
O806 C809 1.259 . S
O807 Mg798 2.114 . S
O807 C810 1.252 . S
O808 Mg798 2.251 . S
O808 Mg801 2.079 . S
O808 C810 1.273 . S
C809 O805 1.246 . S
C809 O806 1.259 . S
C810 O807 1.252 . S
C810 O808 1.273 . S
O811 Mg798 2.010 . S
O811 C803 1.249 . S
Mg812 O813 2.028 . S
Mg812 O819 1.986 . S
Mg812 O821 2.114 . S
Mg812 O822 2.251 . S
Mg812 O825 2.010 . S
O813 Mg812 2.028 . S
O813 C816 1.250 . S
O814 Mg815 2.028 . S
O814 C816 1.248 . S
Mg815 O814 2.028 . S
Mg815 O820 2.032 . S
Mg815 O822 2.079 . S
C816 O813 1.250 . S
C816 O814 1.248 . S
C817 O818 1.264 . S
C817 O825 1.249 . S
O818 C817 1.264 . S
O819 Mg812 1.986 . S
O819 C823 1.246 . S
O820 Mg815 2.032 . S
O820 C823 1.259 . S
O821 Mg812 2.114 . S
O821 C824 1.252 . S
O822 Mg812 2.251 . S
O822 Mg815 2.079 . S
O822 C824 1.273 . S
C823 O819 1.246 . S
C823 O820 1.259 . S
C824 O821 1.252 . S
C824 O822 1.273 . S
O825 Mg812 2.010 . S
O825 C817 1.249 . S
Mg826 O827 2.028 . S
Mg826 O833 1.986 . S
Mg826 O835 2.114 . S
Mg826 O836 2.251 . S
Mg826 O839 2.010 . S
O827 Mg826 2.028 . S
O827 C830 1.250 . S
O828 Mg829 2.028 . S
O828 C830 1.248 . S
Mg829 O828 2.028 . S
Mg829 O834 2.032 . S
Mg829 O836 2.079 . S
C830 O827 1.250 . S
C830 O828 1.248 . S
C831 O832 1.264 . S
C831 O839 1.249 . S
O832 C831 1.264 . S
O833 Mg826 1.986 . S
O833 C837 1.246 . S
O834 Mg829 2.032 . S
O834 C837 1.259 . S
O835 Mg826 2.114 . S
O835 C838 1.252 . S
O836 Mg826 2.251 . S
O836 Mg829 2.079 . S
O836 C838 1.273 . S
C837 O833 1.246 . S
C837 O834 1.259 . S
C838 O835 1.252 . S
C838 O836 1.273 . S
O839 Mg826 2.010 . S
O839 C831 1.249 . S
Mg840 O841 2.028 . S
Mg840 O847 1.986 . S
Mg840 O849 2.114 . S
Mg840 O850 2.251 . S
Mg840 O853 2.010 . S
O841 Mg840 2.028 . S
O841 C844 1.250 . S
O842 Mg843 2.028 . S
O842 C844 1.248 . S
Mg843 O842 2.028 . S
Mg843 O848 2.032 . S
Mg843 O850 2.079 . S
C844 O841 1.250 . S
C844 O842 1.248 . S
C845 O846 1.264 . S
C845 O853 1.249 . S
O846 C845 1.264 . S
O847 Mg840 1.986 . S
O847 C851 1.246 . S
O848 Mg843 2.032 . S
O848 C851 1.259 . S
O849 Mg840 2.114 . S
O849 C852 1.252 . S
O850 Mg840 2.251 . S
O850 Mg843 2.079 . S
O850 C852 1.273 . S
C851 O847 1.246 . S
C851 O848 1.259 . S
C852 O849 1.252 . S
C852 O850 1.273 . S
O853 Mg840 2.010 . S
O853 C845 1.249 . S
Mg854 O855 2.028 . S
Mg854 O861 1.986 . S
Mg854 O863 2.114 . S
Mg854 O864 2.251 . S
Mg854 O867 2.010 . S
O855 Mg854 2.028 . S
O855 C858 1.250 . S
O856 Mg857 2.028 . S
O856 C858 1.248 . S
Mg857 O856 2.028 . S
Mg857 O862 2.032 . S
Mg857 O864 2.079 . S
C858 O855 1.250 . S
C858 O856 1.248 . S
C859 O860 1.264 . S
C859 O867 1.249 . S
O860 C859 1.264 . S
O861 Mg854 1.986 . S
O861 C865 1.246 . S
O862 Mg857 2.032 . S
O862 C865 1.259 . S
O863 Mg854 2.114 . S
O863 C866 1.252 . S
O864 Mg854 2.251 . S
O864 Mg857 2.079 . S
O864 C866 1.273 . S
C865 O861 1.246 . S
C865 O862 1.259 . S
C866 O863 1.252 . S
C866 O864 1.273 . S
O867 Mg854 2.010 . S
O867 C859 1.249 . S
Mg868 O869 2.028 . S
Mg868 O875 1.986 . S
Mg868 O877 2.114 . S
Mg868 O878 2.251 . S
Mg868 O881 2.010 . S
O869 Mg868 2.028 . S
O869 C872 1.250 . S
O870 Mg871 2.028 . S
O870 C872 1.248 . S
Mg871 O870 2.028 . S
Mg871 O876 2.032 . S
Mg871 O878 2.079 . S
C872 O869 1.250 . S
C872 O870 1.248 . S
C873 O874 1.264 . S
C873 O881 1.249 . S
O874 C873 1.264 . S
O875 Mg868 1.986 . S
O875 C879 1.246 . S
O876 Mg871 2.032 . S
O876 C879 1.259 . S
O877 Mg868 2.114 . S
O877 C880 1.252 . S
O878 Mg868 2.251 . S
O878 Mg871 2.079 . S
O878 C880 1.273 . S
C879 O875 1.246 . S
C879 O876 1.259 . S
C880 O877 1.252 . S
C880 O878 1.273 . S
O881 Mg868 2.010 . S
O881 C873 1.249 . S
Mg882 O883 2.028 . S
Mg882 O889 1.986 . S
Mg882 O891 2.114 . S
Mg882 O892 2.251 . S
Mg882 O895 2.010 . S
O883 Mg882 2.028 . S
O883 C886 1.250 . S
O884 Mg885 2.028 . S
O884 C886 1.248 . S
Mg885 O884 2.028 . S
Mg885 O890 2.032 . S
Mg885 O892 2.079 . S
C886 O883 1.250 . S
C886 O884 1.248 . S
C887 O888 1.264 . S
C887 O895 1.249 . S
O888 C887 1.264 . S
O889 Mg882 1.986 . S
O889 C893 1.246 . S
O890 Mg885 2.032 . S
O890 C893 1.259 . S
O891 Mg882 2.114 . S
O891 C894 1.252 . S
O892 Mg882 2.251 . S
O892 Mg885 2.079 . S
O892 C894 1.273 . S
C893 O889 1.246 . S
C893 O890 1.259 . S
C894 O891 1.252 . S
C894 O892 1.273 . S
O895 Mg882 2.010 . S
O895 C887 1.249 . S
Mg896 O897 2.028 . S
Mg896 O903 1.986 . S
Mg896 O905 2.114 . S
Mg896 O906 2.251 . S
Mg896 O909 2.010 . S
O897 Mg896 2.028 . S
O897 C900 1.250 . S
O898 Mg899 2.028 . S
O898 C900 1.248 . S
Mg899 O898 2.028 . S
Mg899 O904 2.032 . S
Mg899 O906 2.079 . S
C900 O897 1.250 . S
C900 O898 1.248 . S
C901 O902 1.264 . S
C901 O909 1.249 . S
O902 C901 1.264 . S
O903 Mg896 1.986 . S
O903 C907 1.246 . S
O904 Mg899 2.032 . S
O904 C907 1.259 . S
O905 Mg896 2.114 . S
O905 C908 1.252 . S
O906 Mg896 2.251 . S
O906 Mg899 2.079 . S
O906 C908 1.273 . S
C907 O903 1.246 . S
C907 O904 1.259 . S
C908 O905 1.252 . S
C908 O906 1.273 . S
O909 Mg896 2.010 . S
O909 C901 1.249 . S
Mg910 O911 2.028 . S
Mg910 O917 1.986 . S
Mg910 O919 2.114 . S
Mg910 O920 2.251 . S
Mg910 O923 2.010 . S
O911 Mg910 2.028 . S
O911 C914 1.250 . S
O912 Mg913 2.028 . S
O912 C914 1.248 . S
Mg913 O912 2.028 . S
Mg913 O918 2.032 . S
Mg913 O920 2.079 . S
C914 O911 1.250 . S
C914 O912 1.248 . S
C915 O916 1.264 . S
C915 O923 1.249 . S
O916 C915 1.264 . S
O917 Mg910 1.986 . S
O917 C921 1.246 . S
O918 Mg913 2.032 . S
O918 C921 1.259 . S
O919 Mg910 2.114 . S
O919 C922 1.252 . S
O920 Mg910 2.251 . S
O920 Mg913 2.079 . S
O920 C922 1.273 . S
C921 O917 1.246 . S
C921 O918 1.259 . S
C922 O919 1.252 . S
C922 O920 1.273 . S
O923 Mg910 2.010 . S
O923 C915 1.249 . S
Mg924 O925 2.028 . S
Mg924 O931 1.986 . S
Mg924 O933 2.114 . S
Mg924 O934 2.251 . S
Mg924 O937 2.010 . S
O925 Mg924 2.028 . S
O925 C928 1.250 . S
O926 Mg927 2.028 . S
O926 C928 1.248 . S
Mg927 O926 2.028 . S
Mg927 O932 2.032 . S
Mg927 O934 2.079 . S
C928 O925 1.250 . S
C928 O926 1.248 . S
C929 O930 1.264 . S
C929 O937 1.249 . S
O930 C929 1.264 . S
O931 Mg924 1.986 . S
O931 C935 1.246 . S
O932 Mg927 2.032 . S
O932 C935 1.259 . S
O933 Mg924 2.114 . S
O933 C936 1.252 . S
O934 Mg924 2.251 . S
O934 Mg927 2.079 . S
O934 C936 1.273 . S
C935 O931 1.246 . S
C935 O932 1.259 . S
C936 O933 1.252 . S
C936 O934 1.273 . S
O937 Mg924 2.010 . S
O937 C929 1.249 . S
Mg938 O939 2.028 . S
Mg938 O945 1.986 . S
Mg938 O947 2.114 . S
Mg938 O948 2.251 . S
Mg938 O951 2.010 . S
O939 Mg938 2.028 . S
O939 C942 1.250 . S
O940 Mg941 2.028 . S
O940 C942 1.248 . S
Mg941 O940 2.028 . S
Mg941 O946 2.032 . S
Mg941 O948 2.079 . S
C942 O939 1.250 . S
C942 O940 1.248 . S
C943 O944 1.264 . S
C943 O951 1.249 . S
O944 C943 1.264 . S
O945 Mg938 1.986 . S
O945 C949 1.246 . S
O946 Mg941 2.032 . S
O946 C949 1.259 . S
O947 Mg938 2.114 . S
O947 C950 1.252 . S
O948 Mg938 2.251 . S
O948 Mg941 2.079 . S
O948 C950 1.273 . S
C949 O945 1.246 . S
C949 O946 1.259 . S
C950 O947 1.252 . S
C950 O948 1.273 . S
O951 Mg938 2.010 . S
O951 C943 1.249 . S
Mg952 O953 2.028 . S
Mg952 O959 1.986 . S
Mg952 O961 2.114 . S
Mg952 O962 2.251 . S
Mg952 O965 2.010 . S
O953 Mg952 2.028 . S
O953 C956 1.250 . S
O954 Mg955 2.028 . S
O954 C956 1.248 . S
Mg955 O954 2.028 . S
Mg955 O960 2.032 . S
Mg955 O962 2.079 . S
C956 O953 1.250 . S
C956 O954 1.248 . S
C957 O958 1.264 . S
C957 O965 1.249 . S
O958 C957 1.264 . S
O959 Mg952 1.986 . S
O959 C963 1.246 . S
O960 Mg955 2.032 . S
O960 C963 1.259 . S
O961 Mg952 2.114 . S
O961 C964 1.252 . S
O962 Mg952 2.251 . S
O962 Mg955 2.079 . S
O962 C964 1.273 . S
C963 O959 1.246 . S
C963 O960 1.259 . S
C964 O961 1.252 . S
C964 O962 1.273 . S
O965 Mg952 2.010 . S
O965 C957 1.249 . S
Mg966 O967 2.028 . S
Mg966 O973 1.986 . S
Mg966 O975 2.114 . S
Mg966 O976 2.251 . S
Mg966 O979 2.010 . S
O967 Mg966 2.028 . S
O967 C970 1.250 . S
O968 Mg969 2.028 . S
O968 C970 1.248 . S
Mg969 O968 2.028 . S
Mg969 O974 2.032 . S
Mg969 O976 2.079 . S
C970 O967 1.250 . S
C970 O968 1.248 . S
C971 O972 1.264 . S
C971 O979 1.249 . S
O972 C971 1.264 . S
O973 Mg966 1.986 . S
O973 C977 1.246 . S
O974 Mg969 2.032 . S
O974 C977 1.259 . S
O975 Mg966 2.114 . S
O975 C978 1.252 . S
O976 Mg966 2.251 . S
O976 Mg969 2.079 . S
O976 C978 1.273 . S
C977 O973 1.246 . S
C977 O974 1.259 . S
C978 O975 1.252 . S
C978 O976 1.273 . S
O979 Mg966 2.010 . S
O979 C971 1.249 . S
Mg980 O981 2.028 . S
Mg980 O987 1.986 . S
Mg980 O989 2.114 . S
Mg980 O990 2.251 . S
Mg980 O993 2.010 . S
O981 Mg980 2.028 . S
O981 C984 1.250 . S
O982 Mg983 2.028 . S
O982 C984 1.248 . S
Mg983 O982 2.028 . S
Mg983 O988 2.032 . S
Mg983 O990 2.079 . S
C984 O981 1.250 . S
C984 O982 1.248 . S
C985 O986 1.264 . S
C985 O993 1.249 . S
O986 C985 1.264 . S
O987 Mg980 1.986 . S
O987 C991 1.246 . S
O988 Mg983 2.032 . S
O988 C991 1.259 . S
O989 Mg980 2.114 . S
O989 C992 1.252 . S
O990 Mg980 2.251 . S
O990 Mg983 2.079 . S
O990 C992 1.273 . S
C991 O987 1.246 . S
C991 O988 1.259 . S
C992 O989 1.252 . S
C992 O990 1.273 . S
O993 Mg980 2.010 . S
O993 C985 1.249 . S
Mg994 O995 2.028 . S
Mg994 O1001 1.986 . S
Mg994 O1003 2.114 . S
Mg994 O1004 2.251 . S
Mg994 O1007 2.010 . S
O995 Mg994 2.028 . S
O995 C998 1.250 . S
O996 Mg997 2.028 . S
O996 C998 1.248 . S
Mg997 O996 2.028 . S
Mg997 O1002 2.032 . S
Mg997 O1004 2.079 . S
C998 O995 1.250 . S
C998 O996 1.248 . S
C999 O1000 1.264 . S
C999 O1007 1.249 . S
O1000 C999 1.264 . S
O1001 Mg994 1.986 . S
O1001 C1005 1.246 . S
O1002 Mg997 2.032 . S
O1002 C1005 1.259 . S
O1003 Mg994 2.114 . S
O1003 C1006 1.252 . S
O1004 Mg994 2.251 . S
O1004 Mg997 2.079 . S
O1004 C1006 1.273 . S
C1005 O1001 1.246 . S
C1005 O1002 1.259 . S
C1006 O1003 1.252 . S
C1006 O1004 1.273 . S
O1007 Mg994 2.010 . S
O1007 C999 1.249 . S
Mg1008 O1009 2.028 . S
Mg1008 O1015 1.986 . S
Mg1008 O1017 2.114 . S
Mg1008 O1018 2.251 . S
Mg1008 O1021 2.010 . S
O1009 Mg1008 2.028 . S
O1009 C1012 1.250 . S
O1010 Mg1011 2.028 . S
O1010 C1012 1.248 . S
Mg1011 O1010 2.028 . S
Mg1011 O1016 2.032 . S
Mg1011 O1018 2.079 . S
C1012 O1009 1.250 . S
C1012 O1010 1.248 . S
C1013 O1014 1.264 . S
C1013 O1021 1.249 . S
O1014 C1013 1.264 . S
O1015 Mg1008 1.986 . S
O1015 C1019 1.246 . S
O1016 Mg1011 2.032 . S
O1016 C1019 1.259 . S
O1017 Mg1008 2.114 . S
O1017 C1020 1.252 . S
O1018 Mg1008 2.251 . S
O1018 Mg1011 2.079 . S
O1018 C1020 1.273 . S
C1019 O1015 1.246 . S
C1019 O1016 1.259 . S
C1020 O1017 1.252 . S
C1020 O1018 1.273 . S
O1021 Mg1008 2.010 . S
O1021 C1013 1.249 . S
Mg1022 O1023 2.028 . S
Mg1022 O1029 1.986 . S
Mg1022 O1031 2.114 . S
Mg1022 O1032 2.251 . S
Mg1022 O1035 2.010 . S
O1023 Mg1022 2.028 . S
O1023 C1026 1.250 . S
O1024 Mg1025 2.028 . S
O1024 C1026 1.248 . S
Mg1025 O1024 2.028 . S
Mg1025 O1030 2.032 . S
Mg1025 O1032 2.079 . S
C1026 O1023 1.250 . S
C1026 O1024 1.248 . S
C1027 O1028 1.264 . S
C1027 O1035 1.249 . S
O1028 C1027 1.264 . S
O1029 Mg1022 1.986 . S
O1029 C1033 1.246 . S
O1030 Mg1025 2.032 . S
O1030 C1033 1.259 . S
O1031 Mg1022 2.114 . S
O1031 C1034 1.252 . S
O1032 Mg1022 2.251 . S
O1032 Mg1025 2.079 . S
O1032 C1034 1.273 . S
C1033 O1029 1.246 . S
C1033 O1030 1.259 . S
C1034 O1031 1.252 . S
C1034 O1032 1.273 . S
O1035 Mg1022 2.010 . S
O1035 C1027 1.249 . S
Mg1036 O1037 2.028 . S
Mg1036 O1043 1.986 . S
Mg1036 O1045 2.114 . S
Mg1036 O1046 2.251 . S
Mg1036 O1049 2.010 . S
O1037 Mg1036 2.028 . S
O1037 C1040 1.250 . S
O1038 Mg1039 2.028 . S
O1038 C1040 1.248 . S
Mg1039 O1038 2.028 . S
Mg1039 O1044 2.032 . S
Mg1039 O1046 2.079 . S
C1040 O1037 1.250 . S
C1040 O1038 1.248 . S
C1041 O1042 1.264 . S
C1041 O1049 1.249 . S
O1042 C1041 1.264 . S
O1043 Mg1036 1.986 . S
O1043 C1047 1.246 . S
O1044 Mg1039 2.032 . S
O1044 C1047 1.259 . S
O1045 Mg1036 2.114 . S
O1045 C1048 1.252 . S
O1046 Mg1036 2.251 . S
O1046 Mg1039 2.079 . S
O1046 C1048 1.273 . S
C1047 O1043 1.246 . S
C1047 O1044 1.259 . S
C1048 O1045 1.252 . S
C1048 O1046 1.273 . S
O1049 Mg1036 2.010 . S
O1049 C1041 1.249 . S
Mg1050 O1051 2.028 . S
Mg1050 O1057 1.986 . S
Mg1050 O1059 2.114 . S
Mg1050 O1060 2.251 . S
Mg1050 O1063 2.010 . S
O1051 Mg1050 2.028 . S
O1051 C1054 1.250 . S
O1052 Mg1053 2.028 . S
O1052 C1054 1.248 . S
Mg1053 O1052 2.028 . S
Mg1053 O1058 2.032 . S
Mg1053 O1060 2.079 . S
C1054 O1051 1.250 . S
C1054 O1052 1.248 . S
C1055 O1056 1.264 . S
C1055 O1063 1.249 . S
O1056 C1055 1.264 . S
O1057 Mg1050 1.986 . S
O1057 C1061 1.246 . S
O1058 Mg1053 2.032 . S
O1058 C1061 1.259 . S
O1059 Mg1050 2.114 . S
O1059 C1062 1.252 . S
O1060 Mg1050 2.251 . S
O1060 Mg1053 2.079 . S
O1060 C1062 1.273 . S
C1061 O1057 1.246 . S
C1061 O1058 1.259 . S
C1062 O1059 1.252 . S
C1062 O1060 1.273 . S
O1063 Mg1050 2.010 . S
O1063 C1055 1.249 . S
Mg1064 O1065 2.028 . S
Mg1064 O1071 1.986 . S
Mg1064 O1073 2.114 . S
Mg1064 O1074 2.251 . S
Mg1064 O1077 2.010 . S
O1065 Mg1064 2.028 . S
O1065 C1068 1.250 . S
O1066 Mg1067 2.028 . S
O1066 C1068 1.248 . S
Mg1067 O1066 2.028 . S
Mg1067 O1072 2.032 . S
Mg1067 O1074 2.079 . S
C1068 O1065 1.250 . S
C1068 O1066 1.248 . S
C1069 O1070 1.264 . S
C1069 O1077 1.249 . S
O1070 C1069 1.264 . S
O1071 Mg1064 1.986 . S
O1071 C1075 1.246 . S
O1072 Mg1067 2.032 . S
O1072 C1075 1.259 . S
O1073 Mg1064 2.114 . S
O1073 C1076 1.252 . S
O1074 Mg1064 2.251 . S
O1074 Mg1067 2.079 . S
O1074 C1076 1.273 . S
C1075 O1071 1.246 . S
C1075 O1072 1.259 . S
C1076 O1073 1.252 . S
C1076 O1074 1.273 . S
O1077 Mg1064 2.010 . S
O1077 C1069 1.249 . S
Mg1078 O1079 2.028 . S
Mg1078 O1085 1.986 . S
Mg1078 O1087 2.114 . S
Mg1078 O1088 2.251 . S
Mg1078 O1091 2.010 . S
O1079 Mg1078 2.028 . S
O1079 C1082 1.250 . S
O1080 Mg1081 2.028 . S
O1080 C1082 1.248 . S
Mg1081 O1080 2.028 . S
Mg1081 O1086 2.032 . S
Mg1081 O1088 2.079 . S
C1082 O1079 1.250 . S
C1082 O1080 1.248 . S
C1083 O1084 1.264 . S
C1083 O1091 1.249 . S
O1084 C1083 1.264 . S
O1085 Mg1078 1.986 . S
O1085 C1089 1.246 . S
O1086 Mg1081 2.032 . S
O1086 C1089 1.259 . S
O1087 Mg1078 2.114 . S
O1087 C1090 1.252 . S
O1088 Mg1078 2.251 . S
O1088 Mg1081 2.079 . S
O1088 C1090 1.273 . S
C1089 O1085 1.246 . S
C1089 O1086 1.259 . S
C1090 O1087 1.252 . S
C1090 O1088 1.273 . S
O1091 Mg1078 2.010 . S
O1091 C1083 1.249 . S
Mg1092 O1093 2.028 . S
Mg1092 O1099 1.986 . S
Mg1092 O1101 2.114 . S
Mg1092 O1102 2.251 . S
Mg1092 O1105 2.010 . S
O1093 Mg1092 2.028 . S
O1093 C1096 1.250 . S
O1094 Mg1095 2.028 . S
O1094 C1096 1.248 . S
Mg1095 O1094 2.028 . S
Mg1095 O1100 2.032 . S
Mg1095 O1102 2.079 . S
C1096 O1093 1.250 . S
C1096 O1094 1.248 . S
C1097 O1098 1.264 . S
C1097 O1105 1.249 . S
O1098 C1097 1.264 . S
O1099 Mg1092 1.986 . S
O1099 C1103 1.246 . S
O1100 Mg1095 2.032 . S
O1100 C1103 1.259 . S
O1101 Mg1092 2.114 . S
O1101 C1104 1.252 . S
O1102 Mg1092 2.251 . S
O1102 Mg1095 2.079 . S
O1102 C1104 1.273 . S
C1103 O1099 1.246 . S
C1103 O1100 1.259 . S
C1104 O1101 1.252 . S
C1104 O1102 1.273 . S
O1105 Mg1092 2.010 . S
O1105 C1097 1.249 . S
Mg1106 O1107 2.028 . S
Mg1106 O1113 1.986 . S
Mg1106 O1115 2.114 . S
Mg1106 O1116 2.251 . S
Mg1106 O1119 2.010 . S
O1107 Mg1106 2.028 . S
O1107 C1110 1.250 . S
O1108 Mg1109 2.028 . S
O1108 C1110 1.248 . S
Mg1109 O1108 2.028 . S
Mg1109 O1114 2.032 . S
Mg1109 O1116 2.079 . S
C1110 O1107 1.250 . S
C1110 O1108 1.248 . S
C1111 O1112 1.264 . S
C1111 O1119 1.249 . S
O1112 C1111 1.264 . S
O1113 Mg1106 1.986 . S
O1113 C1117 1.246 . S
O1114 Mg1109 2.032 . S
O1114 C1117 1.259 . S
O1115 Mg1106 2.114 . S
O1115 C1118 1.252 . S
O1116 Mg1106 2.251 . S
O1116 Mg1109 2.079 . S
O1116 C1118 1.273 . S
C1117 O1113 1.246 . S
C1117 O1114 1.259 . S
C1118 O1115 1.252 . S
C1118 O1116 1.273 . S
O1119 Mg1106 2.010 . S
O1119 C1111 1.249 . S
Mg1120 O1121 2.028 . S
Mg1120 O1127 1.986 . S
Mg1120 O1129 2.114 . S
Mg1120 O1130 2.251 . S
Mg1120 O1133 2.010 . S
O1121 Mg1120 2.028 . S
O1121 C1124 1.250 . S
O1122 Mg1123 2.028 . S
O1122 C1124 1.248 . S
Mg1123 O1122 2.028 . S
Mg1123 O1128 2.032 . S
Mg1123 O1130 2.079 . S
C1124 O1121 1.250 . S
C1124 O1122 1.248 . S
C1125 O1126 1.264 . S
C1125 O1133 1.249 . S
O1126 C1125 1.264 . S
O1127 Mg1120 1.986 . S
O1127 C1131 1.246 . S
O1128 Mg1123 2.032 . S
O1128 C1131 1.259 . S
O1129 Mg1120 2.114 . S
O1129 C1132 1.252 . S
O1130 Mg1120 2.251 . S
O1130 Mg1123 2.079 . S
O1130 C1132 1.273 . S
C1131 O1127 1.246 . S
C1131 O1128 1.259 . S
C1132 O1129 1.252 . S
C1132 O1130 1.273 . S
O1133 Mg1120 2.010 . S
O1133 C1125 1.249 . S
Mg1134 O1135 2.028 . S
Mg1134 O1141 1.986 . S
Mg1134 O1143 2.114 . S
Mg1134 O1144 2.251 . S
Mg1134 O1147 2.010 . S
O1135 Mg1134 2.028 . S
O1135 C1138 1.250 . S
O1136 Mg1137 2.028 . S
O1136 C1138 1.248 . S
Mg1137 O1136 2.028 . S
Mg1137 O1142 2.032 . S
Mg1137 O1144 2.079 . S
C1138 O1135 1.250 . S
C1138 O1136 1.248 . S
C1139 O1140 1.264 . S
C1139 O1147 1.249 . S
O1140 C1139 1.264 . S
O1141 Mg1134 1.986 . S
O1141 C1145 1.246 . S
O1142 Mg1137 2.032 . S
O1142 C1145 1.259 . S
O1143 Mg1134 2.114 . S
O1143 C1146 1.252 . S
O1144 Mg1134 2.251 . S
O1144 Mg1137 2.079 . S
O1144 C1146 1.273 . S
C1145 O1141 1.246 . S
C1145 O1142 1.259 . S
C1146 O1143 1.252 . S
C1146 O1144 1.273 . S
O1147 Mg1134 2.010 . S
O1147 C1139 1.249 . S
Mg1148 O1149 2.028 . S
Mg1148 O1155 1.986 . S
Mg1148 O1157 2.114 . S
Mg1148 O1158 2.251 . S
Mg1148 O1161 2.010 . S
O1149 Mg1148 2.028 . S
O1149 C1152 1.250 . S
O1150 Mg1151 2.028 . S
O1150 C1152 1.248 . S
Mg1151 O1150 2.028 . S
Mg1151 O1156 2.032 . S
Mg1151 O1158 2.079 . S
C1152 O1149 1.250 . S
C1152 O1150 1.248 . S
C1153 O1154 1.264 . S
C1153 O1161 1.249 . S
O1154 C1153 1.264 . S
O1155 Mg1148 1.986 . S
O1155 C1159 1.246 . S
O1156 Mg1151 2.032 . S
O1156 C1159 1.259 . S
O1157 Mg1148 2.114 . S
O1157 C1160 1.252 . S
O1158 Mg1148 2.251 . S
O1158 Mg1151 2.079 . S
O1158 C1160 1.273 . S
C1159 O1155 1.246 . S
C1159 O1156 1.259 . S
C1160 O1157 1.252 . S
C1160 O1158 1.273 . S
O1161 Mg1148 2.010 . S
O1161 C1153 1.249 . S
Mg1162 O1163 2.028 . S
Mg1162 O1169 1.986 . S
Mg1162 O1171 2.114 . S
Mg1162 O1172 2.251 . S
Mg1162 O1175 2.010 . S
O1163 Mg1162 2.028 . S
O1163 C1166 1.250 . S
O1164 Mg1165 2.028 . S
O1164 C1166 1.248 . S
Mg1165 O1164 2.028 . S
Mg1165 O1170 2.032 . S
Mg1165 O1172 2.079 . S
C1166 O1163 1.250 . S
C1166 O1164 1.248 . S
C1167 O1168 1.264 . S
C1167 O1175 1.249 . S
O1168 C1167 1.264 . S
O1169 Mg1162 1.986 . S
O1169 C1173 1.246 . S
O1170 Mg1165 2.032 . S
O1170 C1173 1.259 . S
O1171 Mg1162 2.114 . S
O1171 C1174 1.252 . S
O1172 Mg1162 2.251 . S
O1172 Mg1165 2.079 . S
O1172 C1174 1.273 . S
C1173 O1169 1.246 . S
C1173 O1170 1.259 . S
C1174 O1171 1.252 . S
C1174 O1172 1.273 . S
O1175 Mg1162 2.010 . S
O1175 C1167 1.249 . S
Mg1176 O1177 2.028 . S
Mg1176 O1183 1.986 . S
Mg1176 O1185 2.114 . S
Mg1176 O1186 2.251 . S
Mg1176 O1189 2.010 . S
O1177 Mg1176 2.028 . S
O1177 C1180 1.250 . S
O1178 Mg1179 2.028 . S
O1178 C1180 1.248 . S
Mg1179 O1178 2.028 . S
Mg1179 O1184 2.032 . S
Mg1179 O1186 2.079 . S
C1180 O1177 1.250 . S
C1180 O1178 1.248 . S
C1181 O1182 1.264 . S
C1181 O1189 1.249 . S
O1182 C1181 1.264 . S
O1183 Mg1176 1.986 . S
O1183 C1187 1.246 . S
O1184 Mg1179 2.032 . S
O1184 C1187 1.259 . S
O1185 Mg1176 2.114 . S
O1185 C1188 1.252 . S
O1186 Mg1176 2.251 . S
O1186 Mg1179 2.079 . S
O1186 C1188 1.273 . S
C1187 O1183 1.246 . S
C1187 O1184 1.259 . S
C1188 O1185 1.252 . S
C1188 O1186 1.273 . S
O1189 Mg1176 2.010 . S
O1189 C1181 1.249 . S
Mg1190 O1191 2.028 . S
Mg1190 O1197 1.986 . S
Mg1190 O1199 2.114 . S
Mg1190 O1200 2.251 . S
Mg1190 O1203 2.010 . S
O1191 Mg1190 2.028 . S
O1191 C1194 1.250 . S
O1192 Mg1193 2.028 . S
O1192 C1194 1.248 . S
Mg1193 O1192 2.028 . S
Mg1193 O1198 2.032 . S
Mg1193 O1200 2.079 . S
C1194 O1191 1.250 . S
C1194 O1192 1.248 . S
C1195 O1196 1.264 . S
C1195 O1203 1.249 . S
O1196 C1195 1.264 . S
O1197 Mg1190 1.986 . S
O1197 C1201 1.246 . S
O1198 Mg1193 2.032 . S
O1198 C1201 1.259 . S
O1199 Mg1190 2.114 . S
O1199 C1202 1.252 . S
O1200 Mg1190 2.251 . S
O1200 Mg1193 2.079 . S
O1200 C1202 1.273 . S
C1201 O1197 1.246 . S
C1201 O1198 1.259 . S
C1202 O1199 1.252 . S
C1202 O1200 1.273 . S
O1203 Mg1190 2.010 . S
O1203 C1195 1.249 . S
Mg1204 O1205 2.028 . S
Mg1204 O1211 1.986 . S
Mg1204 O1213 2.114 . S
Mg1204 O1214 2.251 . S
Mg1204 O1217 2.010 . S
O1205 Mg1204 2.028 . S
O1205 C1208 1.250 . S
O1206 Mg1207 2.028 . S
O1206 C1208 1.248 . S
Mg1207 O1206 2.028 . S
Mg1207 O1212 2.032 . S
Mg1207 O1214 2.079 . S
C1208 O1205 1.250 . S
C1208 O1206 1.248 . S
C1209 O1210 1.264 . S
C1209 O1217 1.249 . S
O1210 C1209 1.264 . S
O1211 Mg1204 1.986 . S
O1211 C1215 1.246 . S
O1212 Mg1207 2.032 . S
O1212 C1215 1.259 . S
O1213 Mg1204 2.114 . S
O1213 C1216 1.252 . S
O1214 Mg1204 2.251 . S
O1214 Mg1207 2.079 . S
O1214 C1216 1.273 . S
C1215 O1211 1.246 . S
C1215 O1212 1.259 . S
C1216 O1213 1.252 . S
C1216 O1214 1.273 . S
O1217 Mg1204 2.010 . S
O1217 C1209 1.249 . S
Mg1218 O1219 2.028 . S
Mg1218 O1225 1.986 . S
Mg1218 O1227 2.114 . S
Mg1218 O1228 2.251 . S
Mg1218 O1231 2.010 . S
O1219 Mg1218 2.028 . S
O1219 C1222 1.250 . S
O1220 Mg1221 2.028 . S
O1220 C1222 1.248 . S
Mg1221 O1220 2.028 . S
Mg1221 O1226 2.032 . S
Mg1221 O1228 2.079 . S
C1222 O1219 1.250 . S
C1222 O1220 1.248 . S
C1223 O1224 1.264 . S
C1223 O1231 1.249 . S
O1224 C1223 1.264 . S
O1225 Mg1218 1.986 . S
O1225 C1229 1.246 . S
O1226 Mg1221 2.032 . S
O1226 C1229 1.259 . S
O1227 Mg1218 2.114 . S
O1227 C1230 1.252 . S
O1228 Mg1218 2.251 . S
O1228 Mg1221 2.079 . S
O1228 C1230 1.273 . S
C1229 O1225 1.246 . S
C1229 O1226 1.259 . S
C1230 O1227 1.252 . S
C1230 O1228 1.273 . S
O1231 Mg1218 2.010 . S
O1231 C1223 1.249 . S
Mg1232 O1233 2.028 . S
Mg1232 O1239 1.986 . S
Mg1232 O1241 2.114 . S
Mg1232 O1242 2.251 . S
Mg1232 O1245 2.010 . S
O1233 Mg1232 2.028 . S
O1233 C1236 1.250 . S
O1234 Mg1235 2.028 . S
O1234 C1236 1.248 . S
Mg1235 O1234 2.028 . S
Mg1235 O1240 2.032 . S
Mg1235 O1242 2.079 . S
C1236 O1233 1.250 . S
C1236 O1234 1.248 . S
C1237 O1238 1.264 . S
C1237 O1245 1.249 . S
O1238 C1237 1.264 . S
O1239 Mg1232 1.986 . S
O1239 C1243 1.246 . S
O1240 Mg1235 2.032 . S
O1240 C1243 1.259 . S
O1241 Mg1232 2.114 . S
O1241 C1244 1.252 . S
O1242 Mg1232 2.251 . S
O1242 Mg1235 2.079 . S
O1242 C1244 1.273 . S
C1243 O1239 1.246 . S
C1243 O1240 1.259 . S
C1244 O1241 1.252 . S
C1244 O1242 1.273 . S
O1245 Mg1232 2.010 . S
O1245 C1237 1.249 . S
Mg1246 O1247 2.028 . S
Mg1246 O1253 1.986 . S
Mg1246 O1255 2.114 . S
Mg1246 O1256 2.251 . S
Mg1246 O1259 2.010 . S
O1247 Mg1246 2.028 . S
O1247 C1250 1.250 . S
O1248 Mg1249 2.028 . S
O1248 C1250 1.248 . S
Mg1249 O1248 2.028 . S
Mg1249 O1254 2.032 . S
Mg1249 O1256 2.079 . S
C1250 O1247 1.250 . S
C1250 O1248 1.248 . S
C1251 O1252 1.264 . S
C1251 O1259 1.249 . S
O1252 C1251 1.264 . S
O1253 Mg1246 1.986 . S
O1253 C1257 1.246 . S
O1254 Mg1249 2.032 . S
O1254 C1257 1.259 . S
O1255 Mg1246 2.114 . S
O1255 C1258 1.252 . S
O1256 Mg1246 2.251 . S
O1256 Mg1249 2.079 . S
O1256 C1258 1.273 . S
C1257 O1253 1.246 . S
C1257 O1254 1.259 . S
C1258 O1255 1.252 . S
C1258 O1256 1.273 . S
O1259 Mg1246 2.010 . S
O1259 C1251 1.249 . S
Mg1260 O1261 2.028 . S
Mg1260 O1267 1.986 . S
Mg1260 O1269 2.114 . S
Mg1260 O1270 2.251 . S
Mg1260 O1273 2.010 . S
O1261 Mg1260 2.028 . S
O1261 C1264 1.250 . S
O1262 Mg1263 2.028 . S
O1262 C1264 1.248 . S
Mg1263 O1262 2.028 . S
Mg1263 O1268 2.032 . S
Mg1263 O1270 2.079 . S
C1264 O1261 1.250 . S
C1264 O1262 1.248 . S
C1265 O1266 1.264 . S
C1265 O1273 1.249 . S
O1266 C1265 1.264 . S
O1267 Mg1260 1.986 . S
O1267 C1271 1.246 . S
O1268 Mg1263 2.032 . S
O1268 C1271 1.259 . S
O1269 Mg1260 2.114 . S
O1269 C1272 1.252 . S
O1270 Mg1260 2.251 . S
O1270 Mg1263 2.079 . S
O1270 C1272 1.273 . S
C1271 O1267 1.246 . S
C1271 O1268 1.259 . S
C1272 O1269 1.252 . S
C1272 O1270 1.273 . S
O1273 Mg1260 2.010 . S
O1273 C1265 1.249 . S
Mg1274 O1275 2.028 . S
Mg1274 O1281 1.986 . S
Mg1274 O1283 2.114 . S
Mg1274 O1284 2.251 . S
Mg1274 O1287 2.010 . S
O1275 Mg1274 2.028 . S
O1275 C1278 1.250 . S
O1276 Mg1277 2.028 . S
O1276 C1278 1.248 . S
Mg1277 O1276 2.028 . S
Mg1277 O1282 2.032 . S
Mg1277 O1284 2.079 . S
C1278 O1275 1.250 . S
C1278 O1276 1.248 . S
C1279 O1280 1.264 . S
C1279 O1287 1.249 . S
O1280 C1279 1.264 . S
O1281 Mg1274 1.986 . S
O1281 C1285 1.246 . S
O1282 Mg1277 2.032 . S
O1282 C1285 1.259 . S
O1283 Mg1274 2.114 . S
O1283 C1286 1.252 . S
O1284 Mg1274 2.251 . S
O1284 Mg1277 2.079 . S
O1284 C1286 1.273 . S
C1285 O1281 1.246 . S
C1285 O1282 1.259 . S
C1286 O1283 1.252 . S
C1286 O1284 1.273 . S
O1287 Mg1274 2.010 . S
O1287 C1279 1.249 . S
Mg1288 O1289 2.028 . S
Mg1288 O1295 1.986 . S
Mg1288 O1297 2.114 . S
Mg1288 O1298 2.251 . S
Mg1288 O1301 2.010 . S
O1289 Mg1288 2.028 . S
O1289 C1292 1.250 . S
O1290 Mg1291 2.028 . S
O1290 C1292 1.248 . S
Mg1291 O1290 2.028 . S
Mg1291 O1296 2.032 . S
Mg1291 O1298 2.079 . S
C1292 O1289 1.250 . S
C1292 O1290 1.248 . S
C1293 O1294 1.264 . S
C1293 O1301 1.249 . S
O1294 C1293 1.264 . S
O1295 Mg1288 1.986 . S
O1295 C1299 1.246 . S
O1296 Mg1291 2.032 . S
O1296 C1299 1.259 . S
O1297 Mg1288 2.114 . S
O1297 C1300 1.252 . S
O1298 Mg1288 2.251 . S
O1298 Mg1291 2.079 . S
O1298 C1300 1.273 . S
C1299 O1295 1.246 . S
C1299 O1296 1.259 . S
C1300 O1297 1.252 . S
C1300 O1298 1.273 . S
O1301 Mg1288 2.010 . S
O1301 C1293 1.249 . S
Mg1302 O1303 2.028 . S
Mg1302 O1309 1.986 . S
Mg1302 O1311 2.114 . S
Mg1302 O1312 2.251 . S
Mg1302 O1315 2.010 . S
O1303 Mg1302 2.028 . S
O1303 C1306 1.250 . S
O1304 Mg1305 2.028 . S
O1304 C1306 1.248 . S
Mg1305 O1304 2.028 . S
Mg1305 O1310 2.032 . S
Mg1305 O1312 2.079 . S
C1306 O1303 1.250 . S
C1306 O1304 1.248 . S
C1307 O1308 1.264 . S
C1307 O1315 1.249 . S
O1308 C1307 1.264 . S
O1309 Mg1302 1.986 . S
O1309 C1313 1.246 . S
O1310 Mg1305 2.032 . S
O1310 C1313 1.259 . S
O1311 Mg1302 2.114 . S
O1311 C1314 1.252 . S
O1312 Mg1302 2.251 . S
O1312 Mg1305 2.079 . S
O1312 C1314 1.273 . S
C1313 O1309 1.246 . S
C1313 O1310 1.259 . S
C1314 O1311 1.252 . S
C1314 O1312 1.273 . S
O1315 Mg1302 2.010 . S
O1315 C1307 1.249 . S
Mg1316 O1317 2.028 . S
Mg1316 O1323 1.986 . S
Mg1316 O1325 2.114 . S
Mg1316 O1326 2.251 . S
Mg1316 O1329 2.010 . S
O1317 Mg1316 2.028 . S
O1317 C1320 1.250 . S
O1318 Mg1319 2.028 . S
O1318 C1320 1.248 . S
Mg1319 O1318 2.028 . S
Mg1319 O1324 2.032 . S
Mg1319 O1326 2.079 . S
C1320 O1317 1.250 . S
C1320 O1318 1.248 . S
C1321 O1322 1.264 . S
C1321 O1329 1.249 . S
O1322 C1321 1.264 . S
O1323 Mg1316 1.986 . S
O1323 C1327 1.246 . S
O1324 Mg1319 2.032 . S
O1324 C1327 1.259 . S
O1325 Mg1316 2.114 . S
O1325 C1328 1.252 . S
O1326 Mg1316 2.251 . S
O1326 Mg1319 2.079 . S
O1326 C1328 1.273 . S
C1327 O1323 1.246 . S
C1327 O1324 1.259 . S
C1328 O1325 1.252 . S
C1328 O1326 1.273 . S
O1329 Mg1316 2.010 . S
O1329 C1321 1.249 . S
Mg1330 O1331 2.028 . S
Mg1330 O1337 1.986 . S
Mg1330 O1339 2.114 . S
Mg1330 O1340 2.251 . S
Mg1330 O1343 2.010 . S
O1331 Mg1330 2.028 . S
O1331 C1334 1.250 . S
O1332 Mg1333 2.028 . S
O1332 C1334 1.248 . S
Mg1333 O1332 2.028 . S
Mg1333 O1338 2.032 . S
Mg1333 O1340 2.079 . S
C1334 O1331 1.250 . S
C1334 O1332 1.248 . S
C1335 O1336 1.264 . S
C1335 O1343 1.249 . S
O1336 C1335 1.264 . S
O1337 Mg1330 1.986 . S
O1337 C1341 1.246 . S
O1338 Mg1333 2.032 . S
O1338 C1341 1.259 . S
O1339 Mg1330 2.114 . S
O1339 C1342 1.252 . S
O1340 Mg1330 2.251 . S
O1340 Mg1333 2.079 . S
O1340 C1342 1.273 . S
C1341 O1337 1.246 . S
C1341 O1338 1.259 . S
C1342 O1339 1.252 . S
C1342 O1340 1.273 . S
O1343 Mg1330 2.010 . S
O1343 C1335 1.249 . S
H1344 C1350 0.930 . S
H1345 C1353 0.930 . S
H1346 C1354 0.930 . S
H1347 C1355 0.930 . S
H1348 C1358 0.930 . S
H1349 C1359 0.930 . S
C1350 H1344 0.930 . S
C1350 C1351 1.355 . S
C1350 C1352 1.415 . S
C1351 C1350 1.355 . S
C1351 C1353 1.419 . S
C1352 C1350 1.415 . S
C1352 C1357 1.425 . S
C1352 C1359 1.409 . S
C1353 H1345 0.930 . S
C1353 C1351 1.419 . S
C1353 C1354 1.362 . S
C1354 H1346 0.930 . S
C1354 C1353 1.362 . S
C1354 C1357 1.409 . S
C1355 H1347 0.930 . S
C1355 C1356 1.355 . S
C1355 C1357 1.415 . S
C1356 C1355 1.355 . S
C1356 C1358 1.419 . S
C1357 C1352 1.425 . S
C1357 C1354 1.409 . S
C1357 C1355 1.415 . S
C1358 H1348 0.930 . S
C1358 C1356 1.419 . S
C1358 C1359 1.362 . S
C1359 H1349 0.930 . S
C1359 C1352 1.409 . S
C1359 C1358 1.362 . S
H1360 C1366 0.930 . S
H1361 C1369 0.930 . S
H1362 C1370 0.930 . S
H1363 C1371 0.930 . S
H1364 C1374 0.930 . S
H1365 C1375 0.930 . S
C1366 H1360 0.930 . S
C1366 C1367 1.355 . S
C1366 C1368 1.415 . S
C1367 C1366 1.355 . S
C1367 C1369 1.419 . S
C1368 C1366 1.415 . S
C1368 C1373 1.425 . S
C1368 C1375 1.409 . S
C1369 H1361 0.930 . S
C1369 C1367 1.419 . S
C1369 C1370 1.362 . S
C1370 H1362 0.930 . S
C1370 C1369 1.362 . S
C1370 C1373 1.409 . S
C1371 H1363 0.930 . S
C1371 C1372 1.355 . S
C1371 C1373 1.415 . S
C1372 C1371 1.355 . S
C1372 C1374 1.419 . S
C1373 C1368 1.425 . S
C1373 C1370 1.409 . S
C1373 C1371 1.415 . S
C1374 H1364 0.930 . S
C1374 C1372 1.419 . S
C1374 C1375 1.362 . S
C1375 H1365 0.930 . S
C1375 C1368 1.409 . S
C1375 C1374 1.362 . S
H1376 C1382 0.930 . S
H1377 C1385 0.930 . S
H1378 C1386 0.930 . S
H1379 C1387 0.930 . S
H1380 C1390 0.930 . S
H1381 C1391 0.930 . S
C1382 H1376 0.930 . S
C1382 C1383 1.355 . S
C1382 C1384 1.415 . S
C1383 C1382 1.355 . S
C1383 C1385 1.419 . S
C1384 C1382 1.415 . S
C1384 C1389 1.425 . S
C1384 C1391 1.409 . S
C1385 H1377 0.930 . S
C1385 C1383 1.419 . S
C1385 C1386 1.362 . S
C1386 H1378 0.930 . S
C1386 C1385 1.362 . S
C1386 C1389 1.409 . S
C1387 H1379 0.930 . S
C1387 C1388 1.355 . S
C1387 C1389 1.415 . S
C1388 C1387 1.355 . S
C1388 C1390 1.419 . S
C1389 C1384 1.425 . S
C1389 C1386 1.409 . S
C1389 C1387 1.415 . S
C1390 H1380 0.930 . S
C1390 C1388 1.419 . S
C1390 C1391 1.362 . S
C1391 H1381 0.930 . S
C1391 C1384 1.409 . S
C1391 C1390 1.362 . S
H1392 C1398 0.930 . S
H1393 C1401 0.930 . S
H1394 C1402 0.930 . S
H1395 C1403 0.930 . S
H1396 C1406 0.930 . S
H1397 C1407 0.930 . S
C1398 H1392 0.930 . S
C1398 C1399 1.355 . S
C1398 C1400 1.415 . S
C1399 C1398 1.355 . S
C1399 C1401 1.419 . S
C1400 C1398 1.415 . S
C1400 C1405 1.425 . S
C1400 C1407 1.409 . S
C1401 H1393 0.930 . S
C1401 C1399 1.419 . S
C1401 C1402 1.362 . S
C1402 H1394 0.930 . S
C1402 C1401 1.362 . S
C1402 C1405 1.409 . S
C1403 H1395 0.930 . S
C1403 C1404 1.355 . S
C1403 C1405 1.415 . S
C1404 C1403 1.355 . S
C1404 C1406 1.419 . S
C1405 C1400 1.425 . S
C1405 C1402 1.409 . S
C1405 C1403 1.415 . S
C1406 H1396 0.930 . S
C1406 C1404 1.419 . S
C1406 C1407 1.362 . S
C1407 H1397 0.930 . S
C1407 C1400 1.409 . S
C1407 C1406 1.362 . S
H1408 C1414 0.930 . S
H1409 C1417 0.930 . S
H1410 C1418 0.930 . S
H1411 C1419 0.930 . S
H1412 C1422 0.930 . S
H1413 C1423 0.930 . S
C1414 H1408 0.930 . S
C1414 C1415 1.355 . S
C1414 C1416 1.415 . S
C1415 C1414 1.355 . S
C1415 C1417 1.419 . S
C1416 C1414 1.415 . S
C1416 C1421 1.425 . S
C1416 C1423 1.409 . S
C1417 H1409 0.930 . S
C1417 C1415 1.419 . S
C1417 C1418 1.362 . S
C1418 H1410 0.930 . S
C1418 C1417 1.362 . S
C1418 C1421 1.409 . S
C1419 H1411 0.930 . S
C1419 C1420 1.355 . S
C1419 C1421 1.415 . S
C1420 C1419 1.355 . S
C1420 C1422 1.419 . S
C1421 C1416 1.425 . S
C1421 C1418 1.409 . S
C1421 C1419 1.415 . S
C1422 H1412 0.930 . S
C1422 C1420 1.419 . S
C1422 C1423 1.362 . S
C1423 H1413 0.930 . S
C1423 C1416 1.409 . S
C1423 C1422 1.362 . S
H1424 C1430 0.930 . S
H1425 C1433 0.930 . S
H1426 C1434 0.930 . S
H1427 C1435 0.930 . S
H1428 C1438 0.930 . S
H1429 C1439 0.930 . S
C1430 H1424 0.930 . S
C1430 C1431 1.355 . S
C1430 C1432 1.415 . S
C1431 C1430 1.355 . S
C1431 C1433 1.419 . S
C1432 C1430 1.415 . S
C1432 C1437 1.425 . S
C1432 C1439 1.409 . S
C1433 H1425 0.930 . S
C1433 C1431 1.419 . S
C1433 C1434 1.362 . S
C1434 H1426 0.930 . S
C1434 C1433 1.362 . S
C1434 C1437 1.409 . S
C1435 H1427 0.930 . S
C1435 C1436 1.355 . S
C1435 C1437 1.415 . S
C1436 C1435 1.355 . S
C1436 C1438 1.419 . S
C1437 C1432 1.425 . S
C1437 C1434 1.409 . S
C1437 C1435 1.415 . S
C1438 H1428 0.930 . S
C1438 C1436 1.419 . S
C1438 C1439 1.362 . S
C1439 H1429 0.930 . S
C1439 C1432 1.409 . S
C1439 C1438 1.362 . S
H1440 C1446 0.930 . S
H1441 C1449 0.930 . S
H1442 C1450 0.930 . S
H1443 C1451 0.930 . S
H1444 C1454 0.930 . S
H1445 C1455 0.930 . S
C1446 H1440 0.930 . S
C1446 C1447 1.355 . S
C1446 C1448 1.415 . S
C1447 C1446 1.355 . S
C1447 C1449 1.419 . S
C1448 C1446 1.415 . S
C1448 C1453 1.425 . S
C1448 C1455 1.409 . S
C1449 H1441 0.930 . S
C1449 C1447 1.419 . S
C1449 C1450 1.362 . S
C1450 H1442 0.930 . S
C1450 C1449 1.362 . S
C1450 C1453 1.409 . S
C1451 H1443 0.930 . S
C1451 C1452 1.355 . S
C1451 C1453 1.415 . S
C1452 C1451 1.355 . S
C1452 C1454 1.419 . S
C1453 C1448 1.425 . S
C1453 C1450 1.409 . S
C1453 C1451 1.415 . S
C1454 H1444 0.930 . S
C1454 C1452 1.419 . S
C1454 C1455 1.362 . S
C1455 H1445 0.930 . S
C1455 C1448 1.409 . S
C1455 C1454 1.362 . S
H1456 C1462 0.930 . S
H1457 C1465 0.930 . S
H1458 C1466 0.930 . S
H1459 C1467 0.930 . S
H1460 C1470 0.930 . S
H1461 C1471 0.930 . S
C1462 H1456 0.930 . S
C1462 C1463 1.355 . S
C1462 C1464 1.415 . S
C1463 C1462 1.355 . S
C1463 C1465 1.419 . S
C1464 C1462 1.415 . S
C1464 C1469 1.425 . S
C1464 C1471 1.409 . S
C1465 H1457 0.930 . S
C1465 C1463 1.419 . S
C1465 C1466 1.362 . S
C1466 H1458 0.930 . S
C1466 C1465 1.362 . S
C1466 C1469 1.409 . S
C1467 H1459 0.930 . S
C1467 C1468 1.355 . S
C1467 C1469 1.415 . S
C1468 C1467 1.355 . S
C1468 C1470 1.419 . S
C1469 C1464 1.425 . S
C1469 C1466 1.409 . S
C1469 C1467 1.415 . S
C1470 H1460 0.930 . S
C1470 C1468 1.419 . S
C1470 C1471 1.362 . S
C1471 H1461 0.930 . S
C1471 C1464 1.409 . S
C1471 C1470 1.362 . S
H1472 C1478 0.930 . S
H1473 C1481 0.930 . S
H1474 C1482 0.930 . S
H1475 C1483 0.930 . S
H1476 C1486 0.930 . S
H1477 C1487 0.930 . S
C1478 H1472 0.930 . S
C1478 C1479 1.355 . S
C1478 C1480 1.415 . S
C1479 C1478 1.355 . S
C1479 C1481 1.419 . S
C1480 C1478 1.415 . S
C1480 C1485 1.425 . S
C1480 C1487 1.409 . S
C1481 H1473 0.930 . S
C1481 C1479 1.419 . S
C1481 C1482 1.362 . S
C1482 H1474 0.930 . S
C1482 C1481 1.362 . S
C1482 C1485 1.409 . S
C1483 H1475 0.930 . S
C1483 C1484 1.355 . S
C1483 C1485 1.415 . S
C1484 C1483 1.355 . S
C1484 C1486 1.419 . S
C1485 C1480 1.425 . S
C1485 C1482 1.409 . S
C1485 C1483 1.415 . S
C1486 H1476 0.930 . S
C1486 C1484 1.419 . S
C1486 C1487 1.362 . S
C1487 H1477 0.930 . S
C1487 C1480 1.409 . S
C1487 C1486 1.362 . S
H1488 C1494 0.930 . S
H1489 C1497 0.930 . S
H1490 C1498 0.930 . S
H1491 C1499 0.930 . S
H1492 C1502 0.930 . S
H1493 C1503 0.930 . S
C1494 H1488 0.930 . S
C1494 C1495 1.355 . S
C1494 C1496 1.415 . S
C1495 C1494 1.355 . S
C1495 C1497 1.419 . S
C1496 C1494 1.415 . S
C1496 C1501 1.425 . S
C1496 C1503 1.409 . S
C1497 H1489 0.930 . S
C1497 C1495 1.419 . S
C1497 C1498 1.362 . S
C1498 H1490 0.930 . S
C1498 C1497 1.362 . S
C1498 C1501 1.409 . S
C1499 H1491 0.930 . S
C1499 C1500 1.355 . S
C1499 C1501 1.415 . S
C1500 C1499 1.355 . S
C1500 C1502 1.419 . S
C1501 C1496 1.425 . S
C1501 C1498 1.409 . S
C1501 C1499 1.415 . S
C1502 H1492 0.930 . S
C1502 C1500 1.419 . S
C1502 C1503 1.362 . S
C1503 H1493 0.930 . S
C1503 C1496 1.409 . S
C1503 C1502 1.362 . S
H1504 C1510 0.930 . S
H1505 C1513 0.930 . S
H1506 C1514 0.930 . S
H1507 C1515 0.930 . S
H1508 C1518 0.930 . S
H1509 C1519 0.930 . S
C1510 H1504 0.930 . S
C1510 C1511 1.355 . S
C1510 C1512 1.415 . S
C1511 C1510 1.355 . S
C1511 C1513 1.419 . S
C1512 C1510 1.415 . S
C1512 C1517 1.425 . S
C1512 C1519 1.409 . S
C1513 H1505 0.930 . S
C1513 C1511 1.419 . S
C1513 C1514 1.362 . S
C1514 H1506 0.930 . S
C1514 C1513 1.362 . S
C1514 C1517 1.409 . S
C1515 H1507 0.930 . S
C1515 C1516 1.355 . S
C1515 C1517 1.415 . S
C1516 C1515 1.355 . S
C1516 C1518 1.419 . S
C1517 C1512 1.425 . S
C1517 C1514 1.409 . S
C1517 C1515 1.415 . S
C1518 H1508 0.930 . S
C1518 C1516 1.419 . S
C1518 C1519 1.362 . S
C1519 H1509 0.930 . S
C1519 C1512 1.409 . S
C1519 C1518 1.362 . S
H1520 C1526 0.930 . S
H1521 C1529 0.930 . S
H1522 C1530 0.930 . S
H1523 C1531 0.930 . S
H1524 C1534 0.930 . S
H1525 C1535 0.930 . S
C1526 H1520 0.930 . S
C1526 C1527 1.355 . S
C1526 C1528 1.415 . S
C1527 C1526 1.355 . S
C1527 C1529 1.419 . S
C1528 C1526 1.415 . S
C1528 C1533 1.425 . S
C1528 C1535 1.409 . S
C1529 H1521 0.930 . S
C1529 C1527 1.419 . S
C1529 C1530 1.362 . S
C1530 H1522 0.930 . S
C1530 C1529 1.362 . S
C1530 C1533 1.409 . S
C1531 H1523 0.930 . S
C1531 C1532 1.355 . S
C1531 C1533 1.415 . S
C1532 C1531 1.355 . S
C1532 C1534 1.419 . S
C1533 C1528 1.425 . S
C1533 C1530 1.409 . S
C1533 C1531 1.415 . S
C1534 H1524 0.930 . S
C1534 C1532 1.419 . S
C1534 C1535 1.362 . S
C1535 H1525 0.930 . S
C1535 C1528 1.409 . S
C1535 C1534 1.362 . S
H1536 C1542 0.930 . S
H1537 C1545 0.930 . S
H1538 C1546 0.930 . S
H1539 C1547 0.930 . S
H1540 C1550 0.930 . S
H1541 C1551 0.930 . S
C1542 H1536 0.930 . S
C1542 C1543 1.355 . S
C1542 C1544 1.415 . S
C1543 C1542 1.355 . S
C1543 C1545 1.419 . S
C1544 C1542 1.415 . S
C1544 C1549 1.425 . S
C1544 C1551 1.409 . S
C1545 H1537 0.930 . S
C1545 C1543 1.419 . S
C1545 C1546 1.362 . S
C1546 H1538 0.930 . S
C1546 C1545 1.362 . S
C1546 C1549 1.409 . S
C1547 H1539 0.930 . S
C1547 C1548 1.355 . S
C1547 C1549 1.415 . S
C1548 C1547 1.355 . S
C1548 C1550 1.419 . S
C1549 C1544 1.425 . S
C1549 C1546 1.409 . S
C1549 C1547 1.415 . S
C1550 H1540 0.930 . S
C1550 C1548 1.419 . S
C1550 C1551 1.362 . S
C1551 H1541 0.930 . S
C1551 C1544 1.409 . S
C1551 C1550 1.362 . S
H1552 C1558 0.930 . S
H1553 C1561 0.930 . S
H1554 C1562 0.930 . S
H1555 C1563 0.930 . S
H1556 C1566 0.930 . S
H1557 C1567 0.930 . S
C1558 H1552 0.930 . S
C1558 C1559 1.355 . S
C1558 C1560 1.415 . S
C1559 C1558 1.355 . S
C1559 C1561 1.419 . S
C1560 C1558 1.415 . S
C1560 C1565 1.425 . S
C1560 C1567 1.409 . S
C1561 H1553 0.930 . S
C1561 C1559 1.419 . S
C1561 C1562 1.362 . S
C1562 H1554 0.930 . S
C1562 C1561 1.362 . S
C1562 C1565 1.409 . S
C1563 H1555 0.930 . S
C1563 C1564 1.355 . S
C1563 C1565 1.415 . S
C1564 C1563 1.355 . S
C1564 C1566 1.419 . S
C1565 C1560 1.425 . S
C1565 C1562 1.409 . S
C1565 C1563 1.415 . S
C1566 H1556 0.930 . S
C1566 C1564 1.419 . S
C1566 C1567 1.362 . S
C1567 H1557 0.930 . S
C1567 C1560 1.409 . S
C1567 C1566 1.362 . S
H1568 C1574 0.930 . S
H1569 C1577 0.930 . S
H1570 C1578 0.930 . S
H1571 C1579 0.930 . S
H1572 C1582 0.930 . S
H1573 C1583 0.930 . S
C1574 H1568 0.930 . S
C1574 C1575 1.355 . S
C1574 C1576 1.415 . S
C1575 C1574 1.355 . S
C1575 C1577 1.419 . S
C1576 C1574 1.415 . S
C1576 C1581 1.425 . S
C1576 C1583 1.409 . S
C1577 H1569 0.930 . S
C1577 C1575 1.419 . S
C1577 C1578 1.362 . S
C1578 H1570 0.930 . S
C1578 C1577 1.362 . S
C1578 C1581 1.409 . S
C1579 H1571 0.930 . S
C1579 C1580 1.355 . S
C1579 C1581 1.415 . S
C1580 C1579 1.355 . S
C1580 C1582 1.419 . S
C1581 C1576 1.425 . S
C1581 C1578 1.409 . S
C1581 C1579 1.415 . S
C1582 H1572 0.930 . S
C1582 C1580 1.419 . S
C1582 C1583 1.362 . S
C1583 H1573 0.930 . S
C1583 C1576 1.409 . S
C1583 C1582 1.362 . S
H1584 C1590 0.930 . S
H1585 C1593 0.930 . S
H1586 C1594 0.930 . S
H1587 C1595 0.930 . S
H1588 C1598 0.930 . S
H1589 C1599 0.930 . S
C1590 H1584 0.930 . S
C1590 C1591 1.355 . S
C1590 C1592 1.415 . S
C1591 C1590 1.355 . S
C1591 C1593 1.419 . S
C1592 C1590 1.415 . S
C1592 C1597 1.425 . S
C1592 C1599 1.409 . S
C1593 H1585 0.930 . S
C1593 C1591 1.419 . S
C1593 C1594 1.362 . S
C1594 H1586 0.930 . S
C1594 C1593 1.362 . S
C1594 C1597 1.409 . S
C1595 H1587 0.930 . S
C1595 C1596 1.355 . S
C1595 C1597 1.415 . S
C1596 C1595 1.355 . S
C1596 C1598 1.419 . S
C1597 C1592 1.425 . S
C1597 C1594 1.409 . S
C1597 C1595 1.415 . S
C1598 H1588 0.930 . S
C1598 C1596 1.419 . S
C1598 C1599 1.362 . S
C1599 H1589 0.930 . S
C1599 C1592 1.409 . S
C1599 C1598 1.362 . S
H1600 C1606 0.930 . S
H1601 C1609 0.930 . S
H1602 C1610 0.930 . S
H1603 C1611 0.930 . S
H1604 C1614 0.930 . S
H1605 C1615 0.930 . S
C1606 H1600 0.930 . S
C1606 C1607 1.355 . S
C1606 C1608 1.415 . S
C1607 C1606 1.355 . S
C1607 C1609 1.419 . S
C1608 C1606 1.415 . S
C1608 C1613 1.425 . S
C1608 C1615 1.409 . S
C1609 H1601 0.930 . S
C1609 C1607 1.419 . S
C1609 C1610 1.362 . S
C1610 H1602 0.930 . S
C1610 C1609 1.362 . S
C1610 C1613 1.409 . S
C1611 H1603 0.930 . S
C1611 C1612 1.355 . S
C1611 C1613 1.415 . S
C1612 C1611 1.355 . S
C1612 C1614 1.419 . S
C1613 C1608 1.425 . S
C1613 C1610 1.409 . S
C1613 C1611 1.415 . S
C1614 H1604 0.930 . S
C1614 C1612 1.419 . S
C1614 C1615 1.362 . S
C1615 H1605 0.930 . S
C1615 C1608 1.409 . S
C1615 C1614 1.362 . S
H1616 C1622 0.930 . S
H1617 C1625 0.930 . S
H1618 C1626 0.930 . S
H1619 C1627 0.930 . S
H1620 C1630 0.930 . S
H1621 C1631 0.930 . S
C1622 H1616 0.930 . S
C1622 C1623 1.355 . S
C1622 C1624 1.415 . S
C1623 C1622 1.355 . S
C1623 C1625 1.419 . S
C1624 C1622 1.415 . S
C1624 C1629 1.425 . S
C1624 C1631 1.409 . S
C1625 H1617 0.930 . S
C1625 C1623 1.419 . S
C1625 C1626 1.362 . S
C1626 H1618 0.930 . S
C1626 C1625 1.362 . S
C1626 C1629 1.409 . S
C1627 H1619 0.930 . S
C1627 C1628 1.355 . S
C1627 C1629 1.415 . S
C1628 C1627 1.355 . S
C1628 C1630 1.419 . S
C1629 C1624 1.425 . S
C1629 C1626 1.409 . S
C1629 C1627 1.415 . S
C1630 H1620 0.930 . S
C1630 C1628 1.419 . S
C1630 C1631 1.362 . S
C1631 H1621 0.930 . S
C1631 C1624 1.409 . S
C1631 C1630 1.362 . S
H1632 C1638 0.930 . S
H1633 C1641 0.930 . S
H1634 C1642 0.930 . S
H1635 C1643 0.930 . S
H1636 C1646 0.930 . S
H1637 C1647 0.930 . S
C1638 H1632 0.930 . S
C1638 C1639 1.355 . S
C1638 C1640 1.415 . S
C1639 C1638 1.355 . S
C1639 C1641 1.419 . S
C1640 C1638 1.415 . S
C1640 C1645 1.425 . S
C1640 C1647 1.409 . S
C1641 H1633 0.930 . S
C1641 C1639 1.419 . S
C1641 C1642 1.362 . S
C1642 H1634 0.930 . S
C1642 C1641 1.362 . S
C1642 C1645 1.409 . S
C1643 H1635 0.930 . S
C1643 C1644 1.355 . S
C1643 C1645 1.415 . S
C1644 C1643 1.355 . S
C1644 C1646 1.419 . S
C1645 C1640 1.425 . S
C1645 C1642 1.409 . S
C1645 C1643 1.415 . S
C1646 H1636 0.930 . S
C1646 C1644 1.419 . S
C1646 C1647 1.362 . S
C1647 H1637 0.930 . S
C1647 C1640 1.409 . S
C1647 C1646 1.362 . S
H1648 C1654 0.930 . S
H1649 C1657 0.930 . S
H1650 C1658 0.930 . S
H1651 C1659 0.930 . S
H1652 C1662 0.930 . S
H1653 C1663 0.930 . S
C1654 H1648 0.930 . S
C1654 C1655 1.355 . S
C1654 C1656 1.415 . S
C1655 C1654 1.355 . S
C1655 C1657 1.419 . S
C1656 C1654 1.415 . S
C1656 C1661 1.425 . S
C1656 C1663 1.409 . S
C1657 H1649 0.930 . S
C1657 C1655 1.419 . S
C1657 C1658 1.362 . S
C1658 H1650 0.930 . S
C1658 C1657 1.362 . S
C1658 C1661 1.409 . S
C1659 H1651 0.930 . S
C1659 C1660 1.355 . S
C1659 C1661 1.415 . S
C1660 C1659 1.355 . S
C1660 C1662 1.419 . S
C1661 C1656 1.425 . S
C1661 C1658 1.409 . S
C1661 C1659 1.415 . S
C1662 H1652 0.930 . S
C1662 C1660 1.419 . S
C1662 C1663 1.362 . S
C1663 H1653 0.930 . S
C1663 C1656 1.409 . S
C1663 C1662 1.362 . S
H1664 C1670 0.930 . S
H1665 C1673 0.930 . S
H1666 C1674 0.930 . S
H1667 C1675 0.930 . S
H1668 C1678 0.930 . S
H1669 C1679 0.930 . S
C1670 H1664 0.930 . S
C1670 C1671 1.355 . S
C1670 C1672 1.415 . S
C1671 C1670 1.355 . S
C1671 C1673 1.419 . S
C1672 C1670 1.415 . S
C1672 C1677 1.425 . S
C1672 C1679 1.409 . S
C1673 H1665 0.930 . S
C1673 C1671 1.419 . S
C1673 C1674 1.362 . S
C1674 H1666 0.930 . S
C1674 C1673 1.362 . S
C1674 C1677 1.409 . S
C1675 H1667 0.930 . S
C1675 C1676 1.355 . S
C1675 C1677 1.415 . S
C1676 C1675 1.355 . S
C1676 C1678 1.419 . S
C1677 C1672 1.425 . S
C1677 C1674 1.409 . S
C1677 C1675 1.415 . S
C1678 H1668 0.930 . S
C1678 C1676 1.419 . S
C1678 C1679 1.362 . S
C1679 H1669 0.930 . S
C1679 C1672 1.409 . S
C1679 C1678 1.362 . S
H1680 C1686 0.930 . S
H1681 C1689 0.930 . S
H1682 C1690 0.930 . S
H1683 C1691 0.930 . S
H1684 C1694 0.930 . S
H1685 C1695 0.930 . S
C1686 H1680 0.930 . S
C1686 C1687 1.355 . S
C1686 C1688 1.415 . S
C1687 C1686 1.355 . S
C1687 C1689 1.419 . S
C1688 C1686 1.415 . S
C1688 C1693 1.425 . S
C1688 C1695 1.409 . S
C1689 H1681 0.930 . S
C1689 C1687 1.419 . S
C1689 C1690 1.362 . S
C1690 H1682 0.930 . S
C1690 C1689 1.362 . S
C1690 C1693 1.409 . S
C1691 H1683 0.930 . S
C1691 C1692 1.355 . S
C1691 C1693 1.415 . S
C1692 C1691 1.355 . S
C1692 C1694 1.419 . S
C1693 C1688 1.425 . S
C1693 C1690 1.409 . S
C1693 C1691 1.415 . S
C1694 H1684 0.930 . S
C1694 C1692 1.419 . S
C1694 C1695 1.362 . S
C1695 H1685 0.930 . S
C1695 C1688 1.409 . S
C1695 C1694 1.362 . S
H1696 C1702 0.930 . S
H1697 C1705 0.930 . S
H1698 C1706 0.930 . S
H1699 C1707 0.930 . S
H1700 C1710 0.930 . S
H1701 C1711 0.930 . S
C1702 H1696 0.930 . S
C1702 C1703 1.355 . S
C1702 C1704 1.415 . S
C1703 C1702 1.355 . S
C1703 C1705 1.419 . S
C1704 C1702 1.415 . S
C1704 C1709 1.425 . S
C1704 C1711 1.409 . S
C1705 H1697 0.930 . S
C1705 C1703 1.419 . S
C1705 C1706 1.362 . S
C1706 H1698 0.930 . S
C1706 C1705 1.362 . S
C1706 C1709 1.409 . S
C1707 H1699 0.930 . S
C1707 C1708 1.355 . S
C1707 C1709 1.415 . S
C1708 C1707 1.355 . S
C1708 C1710 1.419 . S
C1709 C1704 1.425 . S
C1709 C1706 1.409 . S
C1709 C1707 1.415 . S
C1710 H1700 0.930 . S
C1710 C1708 1.419 . S
C1710 C1711 1.362 . S
C1711 H1701 0.930 . S
C1711 C1704 1.409 . S
C1711 C1710 1.362 . S
H1712 C1718 0.930 . S
H1713 C1721 0.930 . S
H1714 C1722 0.930 . S
H1715 C1723 0.930 . S
H1716 C1726 0.930 . S
H1717 C1727 0.930 . S
C1718 H1712 0.930 . S
C1718 C1719 1.355 . S
C1718 C1720 1.415 . S
C1719 C1718 1.355 . S
C1719 C1721 1.419 . S
C1720 C1718 1.415 . S
C1720 C1725 1.425 . S
C1720 C1727 1.409 . S
C1721 H1713 0.930 . S
C1721 C1719 1.419 . S
C1721 C1722 1.362 . S
C1722 H1714 0.930 . S
C1722 C1721 1.362 . S
C1722 C1725 1.409 . S
C1723 H1715 0.930 . S
C1723 C1724 1.355 . S
C1723 C1725 1.415 . S
C1724 C1723 1.355 . S
C1724 C1726 1.419 . S
C1725 C1720 1.425 . S
C1725 C1722 1.409 . S
C1725 C1723 1.415 . S
C1726 H1716 0.930 . S
C1726 C1724 1.419 . S
C1726 C1727 1.362 . S
C1727 H1717 0.930 . S
C1727 C1720 1.409 . S
C1727 C1726 1.362 . S
H1728 C1734 0.930 . S
H1729 C1737 0.930 . S
H1730 C1738 0.930 . S
H1731 C1739 0.930 . S
H1732 C1742 0.930 . S
H1733 C1743 0.930 . S
C1734 H1728 0.930 . S
C1734 C1735 1.355 . S
C1734 C1736 1.415 . S
C1735 C1734 1.355 . S
C1735 C1737 1.419 . S
C1736 C1734 1.415 . S
C1736 C1741 1.425 . S
C1736 C1743 1.409 . S
C1737 H1729 0.930 . S
C1737 C1735 1.419 . S
C1737 C1738 1.362 . S
C1738 H1730 0.930 . S
C1738 C1737 1.362 . S
C1738 C1741 1.409 . S
C1739 H1731 0.930 . S
C1739 C1740 1.355 . S
C1739 C1741 1.415 . S
C1740 C1739 1.355 . S
C1740 C1742 1.419 . S
C1741 C1736 1.425 . S
C1741 C1738 1.409 . S
C1741 C1739 1.415 . S
C1742 H1732 0.930 . S
C1742 C1740 1.419 . S
C1742 C1743 1.362 . S
C1743 H1733 0.930 . S
C1743 C1736 1.409 . S
C1743 C1742 1.362 . S
H1744 C1750 0.930 . S
H1745 C1753 0.930 . S
H1746 C1754 0.930 . S
H1747 C1755 0.930 . S
H1748 C1758 0.930 . S
H1749 C1759 0.930 . S
C1750 H1744 0.930 . S
C1750 C1751 1.355 . S
C1750 C1752 1.415 . S
C1751 C1750 1.355 . S
C1751 C1753 1.419 . S
C1752 C1750 1.415 . S
C1752 C1757 1.425 . S
C1752 C1759 1.409 . S
C1753 H1745 0.930 . S
C1753 C1751 1.419 . S
C1753 C1754 1.362 . S
C1754 H1746 0.930 . S
C1754 C1753 1.362 . S
C1754 C1757 1.409 . S
C1755 H1747 0.930 . S
C1755 C1756 1.355 . S
C1755 C1757 1.415 . S
C1756 C1755 1.355 . S
C1756 C1758 1.419 . S
C1757 C1752 1.425 . S
C1757 C1754 1.409 . S
C1757 C1755 1.415 . S
C1758 H1748 0.930 . S
C1758 C1756 1.419 . S
C1758 C1759 1.362 . S
C1759 H1749 0.930 . S
C1759 C1752 1.409 . S
C1759 C1758 1.362 . S
H1760 C1766 0.930 . S
H1761 C1769 0.930 . S
H1762 C1770 0.930 . S
H1763 C1771 0.930 . S
H1764 C1774 0.930 . S
H1765 C1775 0.930 . S
C1766 H1760 0.930 . S
C1766 C1767 1.355 . S
C1766 C1768 1.415 . S
C1767 C1766 1.355 . S
C1767 C1769 1.419 . S
C1768 C1766 1.415 . S
C1768 C1773 1.425 . S
C1768 C1775 1.409 . S
C1769 H1761 0.930 . S
C1769 C1767 1.419 . S
C1769 C1770 1.362 . S
C1770 H1762 0.930 . S
C1770 C1769 1.362 . S
C1770 C1773 1.409 . S
C1771 H1763 0.930 . S
C1771 C1772 1.355 . S
C1771 C1773 1.415 . S
C1772 C1771 1.355 . S
C1772 C1774 1.419 . S
C1773 C1768 1.425 . S
C1773 C1770 1.409 . S
C1773 C1771 1.415 . S
C1774 H1764 0.930 . S
C1774 C1772 1.419 . S
C1774 C1775 1.362 . S
C1775 H1765 0.930 . S
C1775 C1768 1.409 . S
C1775 C1774 1.362 . S
H1776 C1782 0.930 . S
H1777 C1785 0.930 . S
H1778 C1786 0.930 . S
H1779 C1787 0.930 . S
H1780 C1790 0.930 . S
H1781 C1791 0.930 . S
C1782 H1776 0.930 . S
C1782 C1783 1.355 . S
C1782 C1784 1.415 . S
C1783 C1782 1.355 . S
C1783 C1785 1.419 . S
C1784 C1782 1.415 . S
C1784 C1789 1.425 . S
C1784 C1791 1.409 . S
C1785 H1777 0.930 . S
C1785 C1783 1.419 . S
C1785 C1786 1.362 . S
C1786 H1778 0.930 . S
C1786 C1785 1.362 . S
C1786 C1789 1.409 . S
C1787 H1779 0.930 . S
C1787 C1788 1.355 . S
C1787 C1789 1.415 . S
C1788 C1787 1.355 . S
C1788 C1790 1.419 . S
C1789 C1784 1.425 . S
C1789 C1786 1.409 . S
C1789 C1787 1.415 . S
C1790 H1780 0.930 . S
C1790 C1788 1.419 . S
C1790 C1791 1.362 . S
C1791 H1781 0.930 . S
C1791 C1784 1.409 . S
C1791 C1790 1.362 . S
H1792 C1798 0.930 . S
H1793 C1801 0.930 . S
H1794 C1802 0.930 . S
H1795 C1803 0.930 . S
H1796 C1806 0.930 . S
H1797 C1807 0.930 . S
C1798 H1792 0.930 . S
C1798 C1799 1.355 . S
C1798 C1800 1.415 . S
C1799 C1798 1.355 . S
C1799 C1801 1.419 . S
C1800 C1798 1.415 . S
C1800 C1805 1.425 . S
C1800 C1807 1.409 . S
C1801 H1793 0.930 . S
C1801 C1799 1.419 . S
C1801 C1802 1.362 . S
C1802 H1794 0.930 . S
C1802 C1801 1.362 . S
C1802 C1805 1.409 . S
C1803 H1795 0.930 . S
C1803 C1804 1.355 . S
C1803 C1805 1.415 . S
C1804 C1803 1.355 . S
C1804 C1806 1.419 . S
C1805 C1800 1.425 . S
C1805 C1802 1.409 . S
C1805 C1803 1.415 . S
C1806 H1796 0.930 . S
C1806 C1804 1.419 . S
C1806 C1807 1.362 . S
C1807 H1797 0.930 . S
C1807 C1800 1.409 . S
C1807 C1806 1.362 . S
H1808 C1814 0.930 . S
H1809 C1817 0.930 . S
H1810 C1818 0.930 . S
H1811 C1819 0.930 . S
H1812 C1822 0.930 . S
H1813 C1823 0.930 . S
C1814 H1808 0.930 . S
C1814 C1815 1.355 . S
C1814 C1816 1.415 . S
C1815 C1814 1.355 . S
C1815 C1817 1.419 . S
C1816 C1814 1.415 . S
C1816 C1821 1.425 . S
C1816 C1823 1.409 . S
C1817 H1809 0.930 . S
C1817 C1815 1.419 . S
C1817 C1818 1.362 . S
C1818 H1810 0.930 . S
C1818 C1817 1.362 . S
C1818 C1821 1.409 . S
C1819 H1811 0.930 . S
C1819 C1820 1.355 . S
C1819 C1821 1.415 . S
C1820 C1819 1.355 . S
C1820 C1822 1.419 . S
C1821 C1816 1.425 . S
C1821 C1818 1.409 . S
C1821 C1819 1.415 . S
C1822 H1812 0.930 . S
C1822 C1820 1.419 . S
C1822 C1823 1.362 . S
C1823 H1813 0.930 . S
C1823 C1816 1.409 . S
C1823 C1822 1.362 . S
H1824 C1830 0.930 . S
H1825 C1833 0.930 . S
H1826 C1834 0.930 . S
H1827 C1835 0.930 . S
H1828 C1838 0.930 . S
H1829 C1839 0.930 . S
C1830 H1824 0.930 . S
C1830 C1831 1.355 . S
C1830 C1832 1.415 . S
C1831 C1830 1.355 . S
C1831 C1833 1.419 . S
C1832 C1830 1.415 . S
C1832 C1837 1.425 . S
C1832 C1839 1.409 . S
C1833 H1825 0.930 . S
C1833 C1831 1.419 . S
C1833 C1834 1.362 . S
C1834 H1826 0.930 . S
C1834 C1833 1.362 . S
C1834 C1837 1.409 . S
C1835 H1827 0.930 . S
C1835 C1836 1.355 . S
C1835 C1837 1.415 . S
C1836 C1835 1.355 . S
C1836 C1838 1.419 . S
C1837 C1832 1.425 . S
C1837 C1834 1.409 . S
C1837 C1835 1.415 . S
C1838 H1828 0.930 . S
C1838 C1836 1.419 . S
C1838 C1839 1.362 . S
C1839 H1829 0.930 . S
C1839 C1832 1.409 . S
C1839 C1838 1.362 . S
H1840 C1846 0.930 . S
H1841 C1849 0.930 . S
H1842 C1850 0.930 . S
H1843 C1851 0.930 . S
H1844 C1854 0.930 . S
H1845 C1855 0.930 . S
C1846 H1840 0.930 . S
C1846 C1847 1.355 . S
C1846 C1848 1.415 . S
C1847 C1846 1.355 . S
C1847 C1849 1.419 . S
C1848 C1846 1.415 . S
C1848 C1853 1.425 . S
C1848 C1855 1.409 . S
C1849 H1841 0.930 . S
C1849 C1847 1.419 . S
C1849 C1850 1.362 . S
C1850 H1842 0.930 . S
C1850 C1849 1.362 . S
C1850 C1853 1.409 . S
C1851 H1843 0.930 . S
C1851 C1852 1.355 . S
C1851 C1853 1.415 . S
C1852 C1851 1.355 . S
C1852 C1854 1.419 . S
C1853 C1848 1.425 . S
C1853 C1850 1.409 . S
C1853 C1851 1.415 . S
C1854 H1844 0.930 . S
C1854 C1852 1.419 . S
C1854 C1855 1.362 . S
C1855 H1845 0.930 . S
C1855 C1848 1.409 . S
C1855 C1854 1.362 . S
H1856 C1862 0.930 . S
H1857 C1865 0.930 . S
H1858 C1866 0.930 . S
H1859 C1867 0.930 . S
H1860 C1870 0.930 . S
H1861 C1871 0.930 . S
C1862 H1856 0.930 . S
C1862 C1863 1.355 . S
C1862 C1864 1.415 . S
C1863 C1862 1.355 . S
C1863 C1865 1.419 . S
C1864 C1862 1.415 . S
C1864 C1869 1.425 . S
C1864 C1871 1.409 . S
C1865 H1857 0.930 . S
C1865 C1863 1.419 . S
C1865 C1866 1.362 . S
C1866 H1858 0.930 . S
C1866 C1865 1.362 . S
C1866 C1869 1.409 . S
C1867 H1859 0.930 . S
C1867 C1868 1.355 . S
C1867 C1869 1.415 . S
C1868 C1867 1.355 . S
C1868 C1870 1.419 . S
C1869 C1864 1.425 . S
C1869 C1866 1.409 . S
C1869 C1867 1.415 . S
C1870 H1860 0.930 . S
C1870 C1868 1.419 . S
C1870 C1871 1.362 . S
C1871 H1861 0.930 . S
C1871 C1864 1.409 . S
C1871 C1870 1.362 . S
H1872 C1878 0.930 . S
H1873 C1881 0.930 . S
H1874 C1882 0.930 . S
H1875 C1883 0.930 . S
H1876 C1886 0.930 . S
H1877 C1887 0.930 . S
C1878 H1872 0.930 . S
C1878 C1879 1.355 . S
C1878 C1880 1.415 . S
C1879 C1878 1.355 . S
C1879 C1881 1.419 . S
C1880 C1878 1.415 . S
C1880 C1885 1.425 . S
C1880 C1887 1.409 . S
C1881 H1873 0.930 . S
C1881 C1879 1.419 . S
C1881 C1882 1.362 . S
C1882 H1874 0.930 . S
C1882 C1881 1.362 . S
C1882 C1885 1.409 . S
C1883 H1875 0.930 . S
C1883 C1884 1.355 . S
C1883 C1885 1.415 . S
C1884 C1883 1.355 . S
C1884 C1886 1.419 . S
C1885 C1880 1.425 . S
C1885 C1882 1.409 . S
C1885 C1883 1.415 . S
C1886 H1876 0.930 . S
C1886 C1884 1.419 . S
C1886 C1887 1.362 . S
C1887 H1877 0.930 . S
C1887 C1880 1.409 . S
C1887 C1886 1.362 . S
H1888 C1894 0.930 . S
H1889 C1897 0.930 . S
H1890 C1898 0.930 . S
H1891 C1899 0.930 . S
H1892 C1902 0.930 . S
H1893 C1903 0.930 . S
C1894 H1888 0.930 . S
C1894 C1895 1.355 . S
C1894 C1896 1.415 . S
C1895 C1894 1.355 . S
C1895 C1897 1.419 . S
C1896 C1894 1.415 . S
C1896 C1901 1.425 . S
C1896 C1903 1.409 . S
C1897 H1889 0.930 . S
C1897 C1895 1.419 . S
C1897 C1898 1.362 . S
C1898 H1890 0.930 . S
C1898 C1897 1.362 . S
C1898 C1901 1.409 . S
C1899 H1891 0.930 . S
C1899 C1900 1.355 . S
C1899 C1901 1.415 . S
C1900 C1899 1.355 . S
C1900 C1902 1.419 . S
C1901 C1896 1.425 . S
C1901 C1898 1.409 . S
C1901 C1899 1.415 . S
C1902 H1892 0.930 . S
C1902 C1900 1.419 . S
C1902 C1903 1.362 . S
C1903 H1893 0.930 . S
C1903 C1896 1.409 . S
C1903 C1902 1.362 . S
H1904 C1910 0.930 . S
H1905 C1913 0.930 . S
H1906 C1914 0.930 . S
H1907 C1915 0.930 . S
H1908 C1918 0.930 . S
H1909 C1919 0.930 . S
C1910 H1904 0.930 . S
C1910 C1911 1.355 . S
C1910 C1912 1.415 . S
C1911 C1910 1.355 . S
C1911 C1913 1.419 . S
C1912 C1910 1.415 . S
C1912 C1917 1.425 . S
C1912 C1919 1.409 . S
C1913 H1905 0.930 . S
C1913 C1911 1.419 . S
C1913 C1914 1.362 . S
C1914 H1906 0.930 . S
C1914 C1913 1.362 . S
C1914 C1917 1.409 . S
C1915 H1907 0.930 . S
C1915 C1916 1.355 . S
C1915 C1917 1.415 . S
C1916 C1915 1.355 . S
C1916 C1918 1.419 . S
C1917 C1912 1.425 . S
C1917 C1914 1.409 . S
C1917 C1915 1.415 . S
C1918 H1908 0.930 . S
C1918 C1916 1.419 . S
C1918 C1919 1.362 . S
C1919 H1909 0.930 . S
C1919 C1912 1.409 . S
C1919 C1918 1.362 . S
H1920 C1926 0.930 . S
H1921 C1929 0.930 . S
H1922 C1930 0.930 . S
H1923 C1931 0.930 . S
H1924 C1934 0.930 . S
H1925 C1935 0.930 . S
C1926 H1920 0.930 . S
C1926 C1927 1.355 . S
C1926 C1928 1.415 . S
C1927 C1926 1.355 . S
C1927 C1929 1.419 . S
C1928 C1926 1.415 . S
C1928 C1933 1.425 . S
C1928 C1935 1.409 . S
C1929 H1921 0.930 . S
C1929 C1927 1.419 . S
C1929 C1930 1.362 . S
C1930 H1922 0.930 . S
C1930 C1929 1.362 . S
C1930 C1933 1.409 . S
C1931 H1923 0.930 . S
C1931 C1932 1.355 . S
C1931 C1933 1.415 . S
C1932 C1931 1.355 . S
C1932 C1934 1.419 . S
C1933 C1928 1.425 . S
C1933 C1930 1.409 . S
C1933 C1931 1.415 . S
C1934 H1924 0.930 . S
C1934 C1932 1.419 . S
C1934 C1935 1.362 . S
C1935 H1925 0.930 . S
C1935 C1928 1.409 . S
C1935 C1934 1.362 . S
H1936 C1942 0.930 . S
H1937 C1945 0.930 . S
H1938 C1946 0.930 . S
H1939 C1947 0.930 . S
H1940 C1950 0.930 . S
H1941 C1951 0.930 . S
C1942 H1936 0.930 . S
C1942 C1943 1.355 . S
C1942 C1944 1.415 . S
C1943 C1942 1.355 . S
C1943 C1945 1.419 . S
C1944 C1942 1.415 . S
C1944 C1949 1.425 . S
C1944 C1951 1.409 . S
C1945 H1937 0.930 . S
C1945 C1943 1.419 . S
C1945 C1946 1.362 . S
C1946 H1938 0.930 . S
C1946 C1945 1.362 . S
C1946 C1949 1.409 . S
C1947 H1939 0.930 . S
C1947 C1948 1.355 . S
C1947 C1949 1.415 . S
C1948 C1947 1.355 . S
C1948 C1950 1.419 . S
C1949 C1944 1.425 . S
C1949 C1946 1.409 . S
C1949 C1947 1.415 . S
C1950 H1940 0.930 . S
C1950 C1948 1.419 . S
C1950 C1951 1.362 . S
C1951 H1941 0.930 . S
C1951 C1944 1.409 . S
C1951 C1950 1.362 . S
H1952 C1958 0.930 . S
H1953 C1961 0.930 . S
H1954 C1962 0.930 . S
H1955 C1963 0.930 . S
H1956 C1966 0.930 . S
H1957 C1967 0.930 . S
C1958 H1952 0.930 . S
C1958 C1959 1.355 . S
C1958 C1960 1.415 . S
C1959 C1958 1.355 . S
C1959 C1961 1.419 . S
C1960 C1958 1.415 . S
C1960 C1965 1.425 . S
C1960 C1967 1.409 . S
C1961 H1953 0.930 . S
C1961 C1959 1.419 . S
C1961 C1962 1.362 . S
C1962 H1954 0.930 . S
C1962 C1961 1.362 . S
C1962 C1965 1.409 . S
C1963 H1955 0.930 . S
C1963 C1964 1.355 . S
C1963 C1965 1.415 . S
C1964 C1963 1.355 . S
C1964 C1966 1.419 . S
C1965 C1960 1.425 . S
C1965 C1962 1.409 . S
C1965 C1963 1.415 . S
C1966 H1956 0.930 . S
C1966 C1964 1.419 . S
C1966 C1967 1.362 . S
C1967 H1957 0.930 . S
C1967 C1960 1.409 . S
C1967 C1966 1.362 . S
H1968 C1974 0.930 . S
H1969 C1977 0.930 . S
H1970 C1978 0.930 . S
H1971 C1979 0.930 . S
H1972 C1982 0.930 . S
H1973 C1983 0.930 . S
C1974 H1968 0.930 . S
C1974 C1975 1.355 . S
C1974 C1976 1.415 . S
C1975 C1974 1.355 . S
C1975 C1977 1.419 . S
C1976 C1974 1.415 . S
C1976 C1981 1.425 . S
C1976 C1983 1.409 . S
C1977 H1969 0.930 . S
C1977 C1975 1.419 . S
C1977 C1978 1.362 . S
C1978 H1970 0.930 . S
C1978 C1977 1.362 . S
C1978 C1981 1.409 . S
C1979 H1971 0.930 . S
C1979 C1980 1.355 . S
C1979 C1981 1.415 . S
C1980 C1979 1.355 . S
C1980 C1982 1.419 . S
C1981 C1976 1.425 . S
C1981 C1978 1.409 . S
C1981 C1979 1.415 . S
C1982 H1972 0.930 . S
C1982 C1980 1.419 . S
C1982 C1983 1.362 . S
C1983 H1973 0.930 . S
C1983 C1976 1.409 . S
C1983 C1982 1.362 . S
H1984 C1990 0.930 . S
H1985 C1993 0.930 . S
H1986 C1994 0.930 . S
H1987 C1995 0.930 . S
H1988 C1998 0.930 . S
H1989 C1999 0.930 . S
C1990 H1984 0.930 . S
C1990 C1991 1.355 . S
C1990 C1992 1.415 . S
C1991 C1990 1.355 . S
C1991 C1993 1.419 . S
C1992 C1990 1.415 . S
C1992 C1997 1.425 . S
C1992 C1999 1.409 . S
C1993 H1985 0.930 . S
C1993 C1991 1.419 . S
C1993 C1994 1.362 . S
C1994 H1986 0.930 . S
C1994 C1993 1.362 . S
C1994 C1997 1.409 . S
C1995 H1987 0.930 . S
C1995 C1996 1.355 . S
C1995 C1997 1.415 . S
C1996 C1995 1.355 . S
C1996 C1998 1.419 . S
C1997 C1992 1.425 . S
C1997 C1994 1.409 . S
C1997 C1995 1.415 . S
C1998 H1988 0.930 . S
C1998 C1996 1.419 . S
C1998 C1999 1.362 . S
C1999 H1989 0.930 . S
C1999 C1992 1.409 . S
C1999 C1998 1.362 . S
H2000 C2006 0.930 . S
H2001 C2009 0.930 . S
H2002 C2010 0.930 . S
H2003 C2011 0.930 . S
H2004 C2014 0.930 . S
H2005 C2015 0.930 . S
C2006 H2000 0.930 . S
C2006 C2007 1.355 . S
C2006 C2008 1.415 . S
C2007 C2006 1.355 . S
C2007 C2009 1.419 . S
C2008 C2006 1.415 . S
C2008 C2013 1.425 . S
C2008 C2015 1.409 . S
C2009 H2001 0.930 . S
C2009 C2007 1.419 . S
C2009 C2010 1.362 . S
C2010 H2002 0.930 . S
C2010 C2009 1.362 . S
C2010 C2013 1.409 . S
C2011 H2003 0.930 . S
C2011 C2012 1.355 . S
C2011 C2013 1.415 . S
C2012 C2011 1.355 . S
C2012 C2014 1.419 . S
C2013 C2008 1.425 . S
C2013 C2010 1.409 . S
C2013 C2011 1.415 . S
C2014 H2004 0.930 . S
C2014 C2012 1.419 . S
C2014 C2015 1.362 . S
C2015 H2005 0.930 . S
C2015 C2008 1.409 . S
C2015 C2014 1.362 . S
H2016 C2022 0.930 . S
H2017 C2025 0.930 . S
H2018 C2026 0.930 . S
H2019 C2027 0.930 . S
H2020 C2030 0.930 . S
H2021 C2031 0.930 . S
C2022 H2016 0.930 . S
C2022 C2023 1.355 . S
C2022 C2024 1.415 . S
C2023 C2022 1.355 . S
C2023 C2025 1.419 . S
C2024 C2022 1.415 . S
C2024 C2029 1.425 . S
C2024 C2031 1.409 . S
C2025 H2017 0.930 . S
C2025 C2023 1.419 . S
C2025 C2026 1.362 . S
C2026 H2018 0.930 . S
C2026 C2025 1.362 . S
C2026 C2029 1.409 . S
C2027 H2019 0.930 . S
C2027 C2028 1.355 . S
C2027 C2029 1.415 . S
C2028 C2027 1.355 . S
C2028 C2030 1.419 . S
C2029 C2024 1.425 . S
C2029 C2026 1.409 . S
C2029 C2027 1.415 . S
C2030 H2020 0.930 . S
C2030 C2028 1.419 . S
C2030 C2031 1.362 . S
C2031 H2021 0.930 . S
C2031 C2024 1.409 . S
C2031 C2030 1.362 . S
H2032 C2038 0.930 . S
H2033 C2041 0.930 . S
H2034 C2042 0.930 . S
H2035 C2043 0.930 . S
H2036 C2046 0.930 . S
H2037 C2047 0.930 . S
C2038 H2032 0.930 . S
C2038 C2039 1.355 . S
C2038 C2040 1.415 . S
C2039 C2038 1.355 . S
C2039 C2041 1.419 . S
C2040 C2038 1.415 . S
C2040 C2045 1.425 . S
C2040 C2047 1.409 . S
C2041 H2033 0.930 . S
C2041 C2039 1.419 . S
C2041 C2042 1.362 . S
C2042 H2034 0.930 . S
C2042 C2041 1.362 . S
C2042 C2045 1.409 . S
C2043 H2035 0.930 . S
C2043 C2044 1.355 . S
C2043 C2045 1.415 . S
C2044 C2043 1.355 . S
C2044 C2046 1.419 . S
C2045 C2040 1.425 . S
C2045 C2042 1.409 . S
C2045 C2043 1.415 . S
C2046 H2036 0.930 . S
C2046 C2044 1.419 . S
C2046 C2047 1.362 . S
C2047 H2037 0.930 . S
C2047 C2040 1.409 . S
C2047 C2046 1.362 . S
H2048 C2054 0.930 . S
H2049 C2057 0.930 . S
H2050 C2058 0.930 . S
H2051 C2059 0.930 . S
H2052 C2062 0.930 . S
H2053 C2063 0.930 . S
C2054 H2048 0.930 . S
C2054 C2055 1.355 . S
C2054 C2056 1.415 . S
C2055 C2054 1.355 . S
C2055 C2057 1.419 . S
C2056 C2054 1.415 . S
C2056 C2061 1.425 . S
C2056 C2063 1.409 . S
C2057 H2049 0.930 . S
C2057 C2055 1.419 . S
C2057 C2058 1.362 . S
C2058 H2050 0.930 . S
C2058 C2057 1.362 . S
C2058 C2061 1.409 . S
C2059 H2051 0.930 . S
C2059 C2060 1.355 . S
C2059 C2061 1.415 . S
C2060 C2059 1.355 . S
C2060 C2062 1.419 . S
C2061 C2056 1.425 . S
C2061 C2058 1.409 . S
C2061 C2059 1.415 . S
C2062 H2052 0.930 . S
C2062 C2060 1.419 . S
C2062 C2063 1.362 . S
C2063 H2053 0.930 . S
C2063 C2056 1.409 . S
C2063 C2062 1.362 . S
H2064 C2070 0.930 . S
H2065 C2073 0.930 . S
H2066 C2074 0.930 . S
H2067 C2075 0.930 . S
H2068 C2078 0.930 . S
H2069 C2079 0.930 . S
C2070 H2064 0.930 . S
C2070 C2071 1.355 . S
C2070 C2072 1.415 . S
C2071 C2070 1.355 . S
C2071 C2073 1.419 . S
C2072 C2070 1.415 . S
C2072 C2077 1.425 . S
C2072 C2079 1.409 . S
C2073 H2065 0.930 . S
C2073 C2071 1.419 . S
C2073 C2074 1.362 . S
C2074 H2066 0.930 . S
C2074 C2073 1.362 . S
C2074 C2077 1.409 . S
C2075 H2067 0.930 . S
C2075 C2076 1.355 . S
C2075 C2077 1.415 . S
C2076 C2075 1.355 . S
C2076 C2078 1.419 . S
C2077 C2072 1.425 . S
C2077 C2074 1.409 . S
C2077 C2075 1.415 . S
C2078 H2068 0.930 . S
C2078 C2076 1.419 . S
C2078 C2079 1.362 . S
C2079 H2069 0.930 . S
C2079 C2072 1.409 . S
C2079 C2078 1.362 . S
H2080 C2086 0.930 . S
H2081 C2089 0.930 . S
H2082 C2090 0.930 . S
H2083 C2091 0.930 . S
H2084 C2094 0.930 . S
H2085 C2095 0.930 . S
C2086 H2080 0.930 . S
C2086 C2087 1.355 . S
C2086 C2088 1.415 . S
C2087 C2086 1.355 . S
C2087 C2089 1.419 . S
C2088 C2086 1.415 . S
C2088 C2093 1.425 . S
C2088 C2095 1.409 . S
C2089 H2081 0.930 . S
C2089 C2087 1.419 . S
C2089 C2090 1.362 . S
C2090 H2082 0.930 . S
C2090 C2089 1.362 . S
C2090 C2093 1.409 . S
C2091 H2083 0.930 . S
C2091 C2092 1.355 . S
C2091 C2093 1.415 . S
C2092 C2091 1.355 . S
C2092 C2094 1.419 . S
C2093 C2088 1.425 . S
C2093 C2090 1.409 . S
C2093 C2091 1.415 . S
C2094 H2084 0.930 . S
C2094 C2092 1.419 . S
C2094 C2095 1.362 . S
C2095 H2085 0.930 . S
C2095 C2088 1.409 . S
C2095 C2094 1.362 . S
H2096 C2102 0.930 . S
H2097 C2105 0.930 . S
H2098 C2106 0.930 . S
H2099 C2107 0.930 . S
H2100 C2110 0.930 . S
H2101 C2111 0.930 . S
C2102 H2096 0.930 . S
C2102 C2103 1.355 . S
C2102 C2104 1.415 . S
C2103 C2102 1.355 . S
C2103 C2105 1.419 . S
C2104 C2102 1.415 . S
C2104 C2109 1.425 . S
C2104 C2111 1.409 . S
C2105 H2097 0.930 . S
C2105 C2103 1.419 . S
C2105 C2106 1.362 . S
C2106 H2098 0.930 . S
C2106 C2105 1.362 . S
C2106 C2109 1.409 . S
C2107 H2099 0.930 . S
C2107 C2108 1.355 . S
C2107 C2109 1.415 . S
C2108 C2107 1.355 . S
C2108 C2110 1.419 . S
C2109 C2104 1.425 . S
C2109 C2106 1.409 . S
C2109 C2107 1.415 . S
C2110 H2100 0.930 . S
C2110 C2108 1.419 . S
C2110 C2111 1.362 . S
C2111 H2101 0.930 . S
C2111 C2104 1.409 . S
C2111 C2110 1.362 . S
H2112 C2118 0.930 . S
H2113 C2121 0.930 . S
H2114 C2122 0.930 . S
H2115 C2123 0.930 . S
H2116 C2126 0.930 . S
H2117 C2127 0.930 . S
C2118 H2112 0.930 . S
C2118 C2119 1.355 . S
C2118 C2120 1.415 . S
C2119 C2118 1.355 . S
C2119 C2121 1.419 . S
C2120 C2118 1.415 . S
C2120 C2125 1.425 . S
C2120 C2127 1.409 . S
C2121 H2113 0.930 . S
C2121 C2119 1.419 . S
C2121 C2122 1.362 . S
C2122 H2114 0.930 . S
C2122 C2121 1.362 . S
C2122 C2125 1.409 . S
C2123 H2115 0.930 . S
C2123 C2124 1.355 . S
C2123 C2125 1.415 . S
C2124 C2123 1.355 . S
C2124 C2126 1.419 . S
C2125 C2120 1.425 . S
C2125 C2122 1.409 . S
C2125 C2123 1.415 . S
C2126 H2116 0.930 . S
C2126 C2124 1.419 . S
C2126 C2127 1.362 . S
C2127 H2117 0.930 . S
C2127 C2120 1.409 . S
C2127 C2126 1.362 . S
H2128 C2134 0.930 . S
H2129 C2137 0.930 . S
H2130 C2138 0.930 . S
H2131 C2139 0.930 . S
H2132 C2142 0.930 . S
H2133 C2143 0.930 . S
C2134 H2128 0.930 . S
C2134 C2135 1.355 . S
C2134 C2136 1.415 . S
C2135 C2134 1.355 . S
C2135 C2137 1.419 . S
C2136 C2134 1.415 . S
C2136 C2141 1.425 . S
C2136 C2143 1.409 . S
C2137 H2129 0.930 . S
C2137 C2135 1.419 . S
C2137 C2138 1.362 . S
C2138 H2130 0.930 . S
C2138 C2137 1.362 . S
C2138 C2141 1.409 . S
C2139 H2131 0.930 . S
C2139 C2140 1.355 . S
C2139 C2141 1.415 . S
C2140 C2139 1.355 . S
C2140 C2142 1.419 . S
C2141 C2136 1.425 . S
C2141 C2138 1.409 . S
C2141 C2139 1.415 . S
C2142 H2132 0.930 . S
C2142 C2140 1.419 . S
C2142 C2143 1.362 . S
C2143 H2133 0.930 . S
C2143 C2136 1.409 . S
C2143 C2142 1.362 . S
H2144 C2150 0.930 . S
H2145 C2153 0.930 . S
H2146 C2154 0.930 . S
H2147 C2155 0.930 . S
H2148 C2158 0.930 . S
H2149 C2159 0.930 . S
C2150 H2144 0.930 . S
C2150 C2151 1.355 . S
C2150 C2152 1.415 . S
C2151 C2150 1.355 . S
C2151 C2153 1.419 . S
C2152 C2150 1.415 . S
C2152 C2157 1.425 . S
C2152 C2159 1.409 . S
C2153 H2145 0.930 . S
C2153 C2151 1.419 . S
C2153 C2154 1.362 . S
C2154 H2146 0.930 . S
C2154 C2153 1.362 . S
C2154 C2157 1.409 . S
C2155 H2147 0.930 . S
C2155 C2156 1.355 . S
C2155 C2157 1.415 . S
C2156 C2155 1.355 . S
C2156 C2158 1.419 . S
C2157 C2152 1.425 . S
C2157 C2154 1.409 . S
C2157 C2155 1.415 . S
C2158 H2148 0.930 . S
C2158 C2156 1.419 . S
C2158 C2159 1.362 . S
C2159 H2149 0.930 . S
C2159 C2152 1.409 . S
C2159 C2158 1.362 . S
H2160 C2166 0.930 . S
H2161 C2169 0.930 . S
H2162 C2170 0.930 . S
H2163 C2171 0.930 . S
H2164 C2174 0.930 . S
H2165 C2175 0.930 . S
C2166 H2160 0.930 . S
C2166 C2167 1.355 . S
C2166 C2168 1.415 . S
C2167 C2166 1.355 . S
C2167 C2169 1.419 . S
C2168 C2166 1.415 . S
C2168 C2173 1.425 . S
C2168 C2175 1.409 . S
C2169 H2161 0.930 . S
C2169 C2167 1.419 . S
C2169 C2170 1.362 . S
C2170 H2162 0.930 . S
C2170 C2169 1.362 . S
C2170 C2173 1.409 . S
C2171 H2163 0.930 . S
C2171 C2172 1.355 . S
C2171 C2173 1.415 . S
C2172 C2171 1.355 . S
C2172 C2174 1.419 . S
C2173 C2168 1.425 . S
C2173 C2170 1.409 . S
C2173 C2171 1.415 . S
C2174 H2164 0.930 . S
C2174 C2172 1.419 . S
C2174 C2175 1.362 . S
C2175 H2165 0.930 . S
C2175 C2168 1.409 . S
C2175 C2174 1.362 . S
H2176 C2182 0.930 . S
H2177 C2185 0.930 . S
H2178 C2186 0.930 . S
H2179 C2187 0.930 . S
H2180 C2190 0.930 . S
H2181 C2191 0.930 . S
C2182 H2176 0.930 . S
C2182 C2183 1.355 . S
C2182 C2184 1.415 . S
C2183 C2182 1.355 . S
C2183 C2185 1.419 . S
C2184 C2182 1.415 . S
C2184 C2189 1.425 . S
C2184 C2191 1.409 . S
C2185 H2177 0.930 . S
C2185 C2183 1.419 . S
C2185 C2186 1.362 . S
C2186 H2178 0.930 . S
C2186 C2185 1.362 . S
C2186 C2189 1.409 . S
C2187 H2179 0.930 . S
C2187 C2188 1.355 . S
C2187 C2189 1.415 . S
C2188 C2187 1.355 . S
C2188 C2190 1.419 . S
C2189 C2184 1.425 . S
C2189 C2186 1.409 . S
C2189 C2187 1.415 . S
C2190 H2180 0.930 . S
C2190 C2188 1.419 . S
C2190 C2191 1.362 . S
C2191 H2181 0.930 . S
C2191 C2184 1.409 . S
C2191 C2190 1.362 . S
H2192 C2198 0.930 . S
H2193 C2201 0.930 . S
H2194 C2202 0.930 . S
H2195 C2203 0.930 . S
H2196 C2206 0.930 . S
H2197 C2207 0.930 . S
C2198 H2192 0.930 . S
C2198 C2199 1.355 . S
C2198 C2200 1.415 . S
C2199 C2198 1.355 . S
C2199 C2201 1.419 . S
C2200 C2198 1.415 . S
C2200 C2205 1.425 . S
C2200 C2207 1.409 . S
C2201 H2193 0.930 . S
C2201 C2199 1.419 . S
C2201 C2202 1.362 . S
C2202 H2194 0.930 . S
C2202 C2201 1.362 . S
C2202 C2205 1.409 . S
C2203 H2195 0.930 . S
C2203 C2204 1.355 . S
C2203 C2205 1.415 . S
C2204 C2203 1.355 . S
C2204 C2206 1.419 . S
C2205 C2200 1.425 . S
C2205 C2202 1.409 . S
C2205 C2203 1.415 . S
C2206 H2196 0.930 . S
C2206 C2204 1.419 . S
C2206 C2207 1.362 . S
C2207 H2197 0.930 . S
C2207 C2200 1.409 . S
C2207 C2206 1.362 . S
H2208 C2214 0.930 . S
H2209 C2217 0.930 . S
H2210 C2218 0.930 . S
H2211 C2219 0.930 . S
H2212 C2222 0.930 . S
H2213 C2223 0.930 . S
C2214 H2208 0.930 . S
C2214 C2215 1.355 . S
C2214 C2216 1.415 . S
C2215 C2214 1.355 . S
C2215 C2217 1.419 . S
C2216 C2214 1.415 . S
C2216 C2221 1.425 . S
C2216 C2223 1.409 . S
C2217 H2209 0.930 . S
C2217 C2215 1.419 . S
C2217 C2218 1.362 . S
C2218 H2210 0.930 . S
C2218 C2217 1.362 . S
C2218 C2221 1.409 . S
C2219 H2211 0.930 . S
C2219 C2220 1.355 . S
C2219 C2221 1.415 . S
C2220 C2219 1.355 . S
C2220 C2222 1.419 . S
C2221 C2216 1.425 . S
C2221 C2218 1.409 . S
C2221 C2219 1.415 . S
C2222 H2212 0.930 . S
C2222 C2220 1.419 . S
C2222 C2223 1.362 . S
C2223 H2213 0.930 . S
C2223 C2216 1.409 . S
C2223 C2222 1.362 . S
H2224 C2230 0.930 . S
H2225 C2233 0.930 . S
H2226 C2234 0.930 . S
H2227 C2235 0.930 . S
H2228 C2238 0.930 . S
H2229 C2239 0.930 . S
C2230 H2224 0.930 . S
C2230 C2231 1.355 . S
C2230 C2232 1.415 . S
C2231 C2230 1.355 . S
C2231 C2233 1.419 . S
C2232 C2230 1.415 . S
C2232 C2237 1.425 . S
C2232 C2239 1.409 . S
C2233 H2225 0.930 . S
C2233 C2231 1.419 . S
C2233 C2234 1.362 . S
C2234 H2226 0.930 . S
C2234 C2233 1.362 . S
C2234 C2237 1.409 . S
C2235 H2227 0.930 . S
C2235 C2236 1.355 . S
C2235 C2237 1.415 . S
C2236 C2235 1.355 . S
C2236 C2238 1.419 . S
C2237 C2232 1.425 . S
C2237 C2234 1.409 . S
C2237 C2235 1.415 . S
C2238 H2228 0.930 . S
C2238 C2236 1.419 . S
C2238 C2239 1.362 . S
C2239 H2229 0.930 . S
C2239 C2232 1.409 . S
C2239 C2238 1.362 . S
H2240 C2246 0.930 . S
H2241 C2249 0.930 . S
H2242 C2250 0.930 . S
H2243 C2251 0.930 . S
H2244 C2254 0.930 . S
H2245 C2255 0.930 . S
C2246 H2240 0.930 . S
C2246 C2247 1.355 . S
C2246 C2248 1.415 . S
C2247 C2246 1.355 . S
C2247 C2249 1.419 . S
C2248 C2246 1.415 . S
C2248 C2253 1.425 . S
C2248 C2255 1.409 . S
C2249 H2241 0.930 . S
C2249 C2247 1.419 . S
C2249 C2250 1.362 . S
C2250 H2242 0.930 . S
C2250 C2249 1.362 . S
C2250 C2253 1.409 . S
C2251 H2243 0.930 . S
C2251 C2252 1.355 . S
C2251 C2253 1.415 . S
C2252 C2251 1.355 . S
C2252 C2254 1.419 . S
C2253 C2248 1.425 . S
C2253 C2250 1.409 . S
C2253 C2251 1.415 . S
C2254 H2244 0.930 . S
C2254 C2252 1.419 . S
C2254 C2255 1.362 . S
C2255 H2245 0.930 . S
C2255 C2248 1.409 . S
C2255 C2254 1.362 . S
H2256 C2262 0.930 . S
H2257 C2265 0.930 . S
H2258 C2266 0.930 . S
H2259 C2267 0.930 . S
H2260 C2270 0.930 . S
H2261 C2271 0.930 . S
C2262 H2256 0.930 . S
C2262 C2263 1.355 . S
C2262 C2264 1.415 . S
C2263 C2262 1.355 . S
C2263 C2265 1.419 . S
C2264 C2262 1.415 . S
C2264 C2269 1.425 . S
C2264 C2271 1.409 . S
C2265 H2257 0.930 . S
C2265 C2263 1.419 . S
C2265 C2266 1.362 . S
C2266 H2258 0.930 . S
C2266 C2265 1.362 . S
C2266 C2269 1.409 . S
C2267 H2259 0.930 . S
C2267 C2268 1.355 . S
C2267 C2269 1.415 . S
C2268 C2267 1.355 . S
C2268 C2270 1.419 . S
C2269 C2264 1.425 . S
C2269 C2266 1.409 . S
C2269 C2267 1.415 . S
C2270 H2260 0.930 . S
C2270 C2268 1.419 . S
C2270 C2271 1.362 . S
C2271 H2261 0.930 . S
C2271 C2264 1.409 . S
C2271 C2270 1.362 . S
H2272 C2278 0.930 . S
H2273 C2281 0.930 . S
H2274 C2282 0.930 . S
H2275 C2283 0.930 . S
H2276 C2286 0.930 . S
H2277 C2287 0.930 . S
C2278 H2272 0.930 . S
C2278 C2279 1.355 . S
C2278 C2280 1.415 . S
C2279 C2278 1.355 . S
C2279 C2281 1.419 . S
C2280 C2278 1.415 . S
C2280 C2285 1.425 . S
C2280 C2287 1.409 . S
C2281 H2273 0.930 . S
C2281 C2279 1.419 . S
C2281 C2282 1.362 . S
C2282 H2274 0.930 . S
C2282 C2281 1.362 . S
C2282 C2285 1.409 . S
C2283 H2275 0.930 . S
C2283 C2284 1.355 . S
C2283 C2285 1.415 . S
C2284 C2283 1.355 . S
C2284 C2286 1.419 . S
C2285 C2280 1.425 . S
C2285 C2282 1.409 . S
C2285 C2283 1.415 . S
C2286 H2276 0.930 . S
C2286 C2284 1.419 . S
C2286 C2287 1.362 . S
C2287 H2277 0.930 . S
C2287 C2280 1.409 . S
C2287 C2286 1.362 . S
H2288 C2294 0.930 . S
H2289 C2297 0.930 . S
H2290 C2298 0.930 . S
H2291 C2299 0.930 . S
H2292 C2302 0.930 . S
H2293 C2303 0.930 . S
C2294 H2288 0.930 . S
C2294 C2295 1.355 . S
C2294 C2296 1.415 . S
C2295 C2294 1.355 . S
C2295 C2297 1.419 . S
C2296 C2294 1.415 . S
C2296 C2301 1.425 . S
C2296 C2303 1.409 . S
C2297 H2289 0.930 . S
C2297 C2295 1.419 . S
C2297 C2298 1.362 . S
C2298 H2290 0.930 . S
C2298 C2297 1.362 . S
C2298 C2301 1.409 . S
C2299 H2291 0.930 . S
C2299 C2300 1.355 . S
C2299 C2301 1.415 . S
C2300 C2299 1.355 . S
C2300 C2302 1.419 . S
C2301 C2296 1.425 . S
C2301 C2298 1.409 . S
C2301 C2299 1.415 . S
C2302 H2292 0.930 . S
C2302 C2300 1.419 . S
C2302 C2303 1.362 . S
C2303 H2293 0.930 . S
C2303 C2296 1.409 . S
C2303 C2302 1.362 . S
H2304 C2310 0.930 . S
H2305 C2313 0.930 . S
H2306 C2314 0.930 . S
H2307 C2315 0.930 . S
H2308 C2318 0.930 . S
H2309 C2319 0.930 . S
C2310 H2304 0.930 . S
C2310 C2311 1.355 . S
C2310 C2312 1.415 . S
C2311 C2310 1.355 . S
C2311 C2313 1.419 . S
C2312 C2310 1.415 . S
C2312 C2317 1.425 . S
C2312 C2319 1.409 . S
C2313 H2305 0.930 . S
C2313 C2311 1.419 . S
C2313 C2314 1.362 . S
C2314 H2306 0.930 . S
C2314 C2313 1.362 . S
C2314 C2317 1.409 . S
C2315 H2307 0.930 . S
C2315 C2316 1.355 . S
C2315 C2317 1.415 . S
C2316 C2315 1.355 . S
C2316 C2318 1.419 . S
C2317 C2312 1.425 . S
C2317 C2314 1.409 . S
C2317 C2315 1.415 . S
C2318 H2308 0.930 . S
C2318 C2316 1.419 . S
C2318 C2319 1.362 . S
C2319 H2309 0.930 . S
C2319 C2312 1.409 . S
C2319 C2318 1.362 . S
H2320 C2326 0.930 . S
H2321 C2329 0.930 . S
H2322 C2330 0.930 . S
H2323 C2331 0.930 . S
H2324 C2334 0.930 . S
H2325 C2335 0.930 . S
C2326 H2320 0.930 . S
C2326 C2327 1.355 . S
C2326 C2328 1.415 . S
C2327 C2326 1.355 . S
C2327 C2329 1.419 . S
C2328 C2326 1.415 . S
C2328 C2333 1.425 . S
C2328 C2335 1.409 . S
C2329 H2321 0.930 . S
C2329 C2327 1.419 . S
C2329 C2330 1.362 . S
C2330 H2322 0.930 . S
C2330 C2329 1.362 . S
C2330 C2333 1.409 . S
C2331 H2323 0.930 . S
C2331 C2332 1.355 . S
C2331 C2333 1.415 . S
C2332 C2331 1.355 . S
C2332 C2334 1.419 . S
C2333 C2328 1.425 . S
C2333 C2330 1.409 . S
C2333 C2331 1.415 . S
C2334 H2324 0.930 . S
C2334 C2332 1.419 . S
C2334 C2335 1.362 . S
C2335 H2325 0.930 . S
C2335 C2328 1.409 . S
C2335 C2334 1.362 . S
H2336 C2342 0.930 . S
H2337 C2345 0.930 . S
H2338 C2346 0.930 . S
H2339 C2347 0.930 . S
H2340 C2350 0.930 . S
H2341 C2351 0.930 . S
C2342 H2336 0.930 . S
C2342 C2343 1.355 . S
C2342 C2344 1.415 . S
C2343 C2342 1.355 . S
C2343 C2345 1.419 . S
C2344 C2342 1.415 . S
C2344 C2349 1.425 . S
C2344 C2351 1.409 . S
C2345 H2337 0.930 . S
C2345 C2343 1.419 . S
C2345 C2346 1.362 . S
C2346 H2338 0.930 . S
C2346 C2345 1.362 . S
C2346 C2349 1.409 . S
C2347 H2339 0.930 . S
C2347 C2348 1.355 . S
C2347 C2349 1.415 . S
C2348 C2347 1.355 . S
C2348 C2350 1.419 . S
C2349 C2344 1.425 . S
C2349 C2346 1.409 . S
C2349 C2347 1.415 . S
C2350 H2340 0.930 . S
C2350 C2348 1.419 . S
C2350 C2351 1.362 . S
C2351 H2341 0.930 . S
C2351 C2344 1.409 . S
C2351 C2350 1.362 . S
H2352 C2358 0.930 . S
H2353 C2361 0.930 . S
H2354 C2362 0.930 . S
H2355 C2363 0.930 . S
H2356 C2366 0.930 . S
H2357 C2367 0.930 . S
C2358 H2352 0.930 . S
C2358 C2359 1.355 . S
C2358 C2360 1.415 . S
C2359 C2358 1.355 . S
C2359 C2361 1.419 . S
C2360 C2358 1.415 . S
C2360 C2365 1.425 . S
C2360 C2367 1.409 . S
C2361 H2353 0.930 . S
C2361 C2359 1.419 . S
C2361 C2362 1.362 . S
C2362 H2354 0.930 . S
C2362 C2361 1.362 . S
C2362 C2365 1.409 . S
C2363 H2355 0.930 . S
C2363 C2364 1.355 . S
C2363 C2365 1.415 . S
C2364 C2363 1.355 . S
C2364 C2366 1.419 . S
C2365 C2360 1.425 . S
C2365 C2362 1.409 . S
C2365 C2363 1.415 . S
C2366 H2356 0.930 . S
C2366 C2364 1.419 . S
C2366 C2367 1.362 . S
C2367 H2357 0.930 . S
C2367 C2360 1.409 . S
C2367 C2366 1.362 . S
H2368 C2374 0.930 . S
H2369 C2377 0.930 . S
H2370 C2378 0.930 . S
H2371 C2379 0.930 . S
H2372 C2382 0.930 . S
H2373 C2383 0.930 . S
C2374 H2368 0.930 . S
C2374 C2375 1.355 . S
C2374 C2376 1.415 . S
C2375 C2374 1.355 . S
C2375 C2377 1.419 . S
C2376 C2374 1.415 . S
C2376 C2381 1.425 . S
C2376 C2383 1.409 . S
C2377 H2369 0.930 . S
C2377 C2375 1.419 . S
C2377 C2378 1.362 . S
C2378 H2370 0.930 . S
C2378 C2377 1.362 . S
C2378 C2381 1.409 . S
C2379 H2371 0.930 . S
C2379 C2380 1.355 . S
C2379 C2381 1.415 . S
C2380 C2379 1.355 . S
C2380 C2382 1.419 . S
C2381 C2376 1.425 . S
C2381 C2378 1.409 . S
C2381 C2379 1.415 . S
C2382 H2372 0.930 . S
C2382 C2380 1.419 . S
C2382 C2383 1.362 . S
C2383 H2373 0.930 . S
C2383 C2376 1.409 . S
C2383 C2382 1.362 . S
H2384 C2390 0.930 . S
H2385 C2393 0.930 . S
H2386 C2394 0.930 . S
H2387 C2395 0.930 . S
H2388 C2398 0.930 . S
H2389 C2399 0.930 . S
C2390 H2384 0.930 . S
C2390 C2391 1.355 . S
C2390 C2392 1.415 . S
C2391 C2390 1.355 . S
C2391 C2393 1.419 . S
C2392 C2390 1.415 . S
C2392 C2397 1.425 . S
C2392 C2399 1.409 . S
C2393 H2385 0.930 . S
C2393 C2391 1.419 . S
C2393 C2394 1.362 . S
C2394 H2386 0.930 . S
C2394 C2393 1.362 . S
C2394 C2397 1.409 . S
C2395 H2387 0.930 . S
C2395 C2396 1.355 . S
C2395 C2397 1.415 . S
C2396 C2395 1.355 . S
C2396 C2398 1.419 . S
C2397 C2392 1.425 . S
C2397 C2394 1.409 . S
C2397 C2395 1.415 . S
C2398 H2388 0.930 . S
C2398 C2396 1.419 . S
C2398 C2399 1.362 . S
C2399 H2389 0.930 . S
C2399 C2392 1.409 . S
C2399 C2398 1.362 . S
H2400 C2406 0.930 . S
H2401 C2409 0.930 . S
H2402 C2410 0.930 . S
H2403 C2411 0.930 . S
H2404 C2414 0.930 . S
H2405 C2415 0.930 . S
C2406 H2400 0.930 . S
C2406 C2407 1.355 . S
C2406 C2408 1.415 . S
C2407 C2406 1.355 . S
C2407 C2409 1.419 . S
C2408 C2406 1.415 . S
C2408 C2413 1.425 . S
C2408 C2415 1.409 . S
C2409 H2401 0.930 . S
C2409 C2407 1.419 . S
C2409 C2410 1.362 . S
C2410 H2402 0.930 . S
C2410 C2409 1.362 . S
C2410 C2413 1.409 . S
C2411 H2403 0.930 . S
C2411 C2412 1.355 . S
C2411 C2413 1.415 . S
C2412 C2411 1.355 . S
C2412 C2414 1.419 . S
C2413 C2408 1.425 . S
C2413 C2410 1.409 . S
C2413 C2411 1.415 . S
C2414 H2404 0.930 . S
C2414 C2412 1.419 . S
C2414 C2415 1.362 . S
C2415 H2405 0.930 . S
C2415 C2408 1.409 . S
C2415 C2414 1.362 . S
H2416 C2422 0.930 . S
H2417 C2425 0.930 . S
H2418 C2426 0.930 . S
H2419 C2427 0.930 . S
H2420 C2430 0.930 . S
H2421 C2431 0.930 . S
C2422 H2416 0.930 . S
C2422 C2423 1.355 . S
C2422 C2424 1.415 . S
C2423 C2422 1.355 . S
C2423 C2425 1.419 . S
C2424 C2422 1.415 . S
C2424 C2429 1.425 . S
C2424 C2431 1.409 . S
C2425 H2417 0.930 . S
C2425 C2423 1.419 . S
C2425 C2426 1.362 . S
C2426 H2418 0.930 . S
C2426 C2425 1.362 . S
C2426 C2429 1.409 . S
C2427 H2419 0.930 . S
C2427 C2428 1.355 . S
C2427 C2429 1.415 . S
C2428 C2427 1.355 . S
C2428 C2430 1.419 . S
C2429 C2424 1.425 . S
C2429 C2426 1.409 . S
C2429 C2427 1.415 . S
C2430 H2420 0.930 . S
C2430 C2428 1.419 . S
C2430 C2431 1.362 . S
C2431 H2421 0.930 . S
C2431 C2424 1.409 . S
C2431 C2430 1.362 . S
H2432 C2438 0.930 . S
H2433 C2441 0.930 . S
H2434 C2442 0.930 . S
H2435 C2443 0.930 . S
H2436 C2446 0.930 . S
H2437 C2447 0.930 . S
C2438 H2432 0.930 . S
C2438 C2439 1.355 . S
C2438 C2440 1.415 . S
C2439 C2438 1.355 . S
C2439 C2441 1.419 . S
C2440 C2438 1.415 . S
C2440 C2445 1.425 . S
C2440 C2447 1.409 . S
C2441 H2433 0.930 . S
C2441 C2439 1.419 . S
C2441 C2442 1.362 . S
C2442 H2434 0.930 . S
C2442 C2441 1.362 . S
C2442 C2445 1.409 . S
C2443 H2435 0.930 . S
C2443 C2444 1.355 . S
C2443 C2445 1.415 . S
C2444 C2443 1.355 . S
C2444 C2446 1.419 . S
C2445 C2440 1.425 . S
C2445 C2442 1.409 . S
C2445 C2443 1.415 . S
C2446 H2436 0.930 . S
C2446 C2444 1.419 . S
C2446 C2447 1.362 . S
C2447 H2437 0.930 . S
C2447 C2440 1.409 . S
C2447 C2446 1.362 . S
H2448 C2454 0.930 . S
H2449 C2457 0.930 . S
H2450 C2458 0.930 . S
H2451 C2459 0.930 . S
H2452 C2462 0.930 . S
H2453 C2463 0.930 . S
C2454 H2448 0.930 . S
C2454 C2455 1.355 . S
C2454 C2456 1.415 . S
C2455 C2454 1.355 . S
C2455 C2457 1.419 . S
C2456 C2454 1.415 . S
C2456 C2461 1.425 . S
C2456 C2463 1.409 . S
C2457 H2449 0.930 . S
C2457 C2455 1.419 . S
C2457 C2458 1.362 . S
C2458 H2450 0.930 . S
C2458 C2457 1.362 . S
C2458 C2461 1.409 . S
C2459 H2451 0.930 . S
C2459 C2460 1.355 . S
C2459 C2461 1.415 . S
C2460 C2459 1.355 . S
C2460 C2462 1.419 . S
C2461 C2456 1.425 . S
C2461 C2458 1.409 . S
C2461 C2459 1.415 . S
C2462 H2452 0.930 . S
C2462 C2460 1.419 . S
C2462 C2463 1.362 . S
C2463 H2453 0.930 . S
C2463 C2456 1.409 . S
C2463 C2462 1.362 . S
H2464 C2470 0.930 . S
H2465 C2473 0.930 . S
H2466 C2474 0.930 . S
H2467 C2475 0.930 . S
H2468 C2478 0.930 . S
H2469 C2479 0.930 . S
C2470 H2464 0.930 . S
C2470 C2471 1.355 . S
C2470 C2472 1.415 . S
C2471 C2470 1.355 . S
C2471 C2473 1.419 . S
C2472 C2470 1.415 . S
C2472 C2477 1.425 . S
C2472 C2479 1.409 . S
C2473 H2465 0.930 . S
C2473 C2471 1.419 . S
C2473 C2474 1.362 . S
C2474 H2466 0.930 . S
C2474 C2473 1.362 . S
C2474 C2477 1.409 . S
C2475 H2467 0.930 . S
C2475 C2476 1.355 . S
C2475 C2477 1.415 . S
C2476 C2475 1.355 . S
C2476 C2478 1.419 . S
C2477 C2472 1.425 . S
C2477 C2474 1.409 . S
C2477 C2475 1.415 . S
C2478 H2468 0.930 . S
C2478 C2476 1.419 . S
C2478 C2479 1.362 . S
C2479 H2469 0.930 . S
C2479 C2472 1.409 . S
C2479 C2478 1.362 . S
H2480 C2486 0.930 . S
H2481 C2489 0.930 . S
H2482 C2490 0.930 . S
H2483 C2491 0.930 . S
H2484 C2494 0.930 . S
H2485 C2495 0.930 . S
C2486 H2480 0.930 . S
C2486 C2487 1.355 . S
C2486 C2488 1.415 . S
C2487 C2486 1.355 . S
C2487 C2489 1.419 . S
C2488 C2486 1.415 . S
C2488 C2493 1.425 . S
C2488 C2495 1.409 . S
C2489 H2481 0.930 . S
C2489 C2487 1.419 . S
C2489 C2490 1.362 . S
C2490 H2482 0.930 . S
C2490 C2489 1.362 . S
C2490 C2493 1.409 . S
C2491 H2483 0.930 . S
C2491 C2492 1.355 . S
C2491 C2493 1.415 . S
C2492 C2491 1.355 . S
C2492 C2494 1.419 . S
C2493 C2488 1.425 . S
C2493 C2490 1.409 . S
C2493 C2491 1.415 . S
C2494 H2484 0.930 . S
C2494 C2492 1.419 . S
C2494 C2495 1.362 . S
C2495 H2485 0.930 . S
C2495 C2488 1.409 . S
C2495 C2494 1.362 . S
H2496 C2502 0.930 . S
H2497 C2505 0.930 . S
H2498 C2506 0.930 . S
H2499 C2507 0.930 . S
H2500 C2510 0.930 . S
H2501 C2511 0.930 . S
C2502 H2496 0.930 . S
C2502 C2503 1.355 . S
C2502 C2504 1.415 . S
C2503 C2502 1.355 . S
C2503 C2505 1.419 . S
C2504 C2502 1.415 . S
C2504 C2509 1.425 . S
C2504 C2511 1.409 . S
C2505 H2497 0.930 . S
C2505 C2503 1.419 . S
C2505 C2506 1.362 . S
C2506 H2498 0.930 . S
C2506 C2505 1.362 . S
C2506 C2509 1.409 . S
C2507 H2499 0.930 . S
C2507 C2508 1.355 . S
C2507 C2509 1.415 . S
C2508 C2507 1.355 . S
C2508 C2510 1.419 . S
C2509 C2504 1.425 . S
C2509 C2506 1.409 . S
C2509 C2507 1.415 . S
C2510 H2500 0.930 . S
C2510 C2508 1.419 . S
C2510 C2511 1.362 . S
C2511 H2501 0.930 . S
C2511 C2504 1.409 . S
C2511 C2510 1.362 . S
H2512 C2518 0.930 . S
H2513 C2521 0.930 . S
H2514 C2522 0.930 . S
H2515 C2523 0.930 . S
H2516 C2526 0.930 . S
H2517 C2527 0.930 . S
C2518 H2512 0.930 . S
C2518 C2519 1.355 . S
C2518 C2520 1.415 . S
C2519 C2518 1.355 . S
C2519 C2521 1.419 . S
C2520 C2518 1.415 . S
C2520 C2525 1.425 . S
C2520 C2527 1.409 . S
C2521 H2513 0.930 . S
C2521 C2519 1.419 . S
C2521 C2522 1.362 . S
C2522 H2514 0.930 . S
C2522 C2521 1.362 . S
C2522 C2525 1.409 . S
C2523 H2515 0.930 . S
C2523 C2524 1.355 . S
C2523 C2525 1.415 . S
C2524 C2523 1.355 . S
C2524 C2526 1.419 . S
C2525 C2520 1.425 . S
C2525 C2522 1.409 . S
C2525 C2523 1.415 . S
C2526 H2516 0.930 . S
C2526 C2524 1.419 . S
C2526 C2527 1.362 . S
C2527 H2517 0.930 . S
C2527 C2520 1.409 . S
C2527 C2526 1.362 . S
H2528 C2534 0.930 . S
H2529 C2537 0.930 . S
H2530 C2538 0.930 . S
H2531 C2539 0.930 . S
H2532 C2542 0.930 . S
H2533 C2543 0.930 . S
C2534 H2528 0.930 . S
C2534 C2535 1.355 . S
C2534 C2536 1.415 . S
C2535 C2534 1.355 . S
C2535 C2537 1.419 . S
C2536 C2534 1.415 . S
C2536 C2541 1.425 . S
C2536 C2543 1.409 . S
C2537 H2529 0.930 . S
C2537 C2535 1.419 . S
C2537 C2538 1.362 . S
C2538 H2530 0.930 . S
C2538 C2537 1.362 . S
C2538 C2541 1.409 . S
C2539 H2531 0.930 . S
C2539 C2540 1.355 . S
C2539 C2541 1.415 . S
C2540 C2539 1.355 . S
C2540 C2542 1.419 . S
C2541 C2536 1.425 . S
C2541 C2538 1.409 . S
C2541 C2539 1.415 . S
C2542 H2532 0.930 . S
C2542 C2540 1.419 . S
C2542 C2543 1.362 . S
C2543 H2533 0.930 . S
C2543 C2536 1.409 . S
C2543 C2542 1.362 . S
H2544 C2550 0.930 . S
H2545 C2553 0.930 . S
H2546 C2554 0.930 . S
H2547 C2555 0.930 . S
H2548 C2558 0.930 . S
H2549 C2559 0.930 . S
C2550 H2544 0.930 . S
C2550 C2551 1.355 . S
C2550 C2552 1.415 . S
C2551 C2550 1.355 . S
C2551 C2553 1.419 . S
C2552 C2550 1.415 . S
C2552 C2557 1.425 . S
C2552 C2559 1.409 . S
C2553 H2545 0.930 . S
C2553 C2551 1.419 . S
C2553 C2554 1.362 . S
C2554 H2546 0.930 . S
C2554 C2553 1.362 . S
C2554 C2557 1.409 . S
C2555 H2547 0.930 . S
C2555 C2556 1.355 . S
C2555 C2557 1.415 . S
C2556 C2555 1.355 . S
C2556 C2558 1.419 . S
C2557 C2552 1.425 . S
C2557 C2554 1.409 . S
C2557 C2555 1.415 . S
C2558 H2548 0.930 . S
C2558 C2556 1.419 . S
C2558 C2559 1.362 . S
C2559 H2549 0.930 . S
C2559 C2552 1.409 . S
C2559 C2558 1.362 . S
H2560 C2566 0.930 . S
H2561 C2569 0.930 . S
H2562 C2570 0.930 . S
H2563 C2571 0.930 . S
H2564 C2574 0.930 . S
H2565 C2575 0.930 . S
C2566 H2560 0.930 . S
C2566 C2567 1.355 . S
C2566 C2568 1.415 . S
C2567 C2566 1.355 . S
C2567 C2569 1.419 . S
C2568 C2566 1.415 . S
C2568 C2573 1.425 . S
C2568 C2575 1.409 . S
C2569 H2561 0.930 . S
C2569 C2567 1.419 . S
C2569 C2570 1.362 . S
C2570 H2562 0.930 . S
C2570 C2569 1.362 . S
C2570 C2573 1.409 . S
C2571 H2563 0.930 . S
C2571 C2572 1.355 . S
C2571 C2573 1.415 . S
C2572 C2571 1.355 . S
C2572 C2574 1.419 . S
C2573 C2568 1.425 . S
C2573 C2570 1.409 . S
C2573 C2571 1.415 . S
C2574 H2564 0.930 . S
C2574 C2572 1.419 . S
C2574 C2575 1.362 . S
C2575 H2565 0.930 . S
C2575 C2568 1.409 . S
C2575 C2574 1.362 . S
H2576 C2582 0.930 . S
H2577 C2585 0.930 . S
H2578 C2586 0.930 . S
H2579 C2587 0.930 . S
H2580 C2590 0.930 . S
H2581 C2591 0.930 . S
C2582 H2576 0.930 . S
C2582 C2583 1.355 . S
C2582 C2584 1.415 . S
C2583 C2582 1.355 . S
C2583 C2585 1.419 . S
C2584 C2582 1.415 . S
C2584 C2589 1.425 . S
C2584 C2591 1.409 . S
C2585 H2577 0.930 . S
C2585 C2583 1.419 . S
C2585 C2586 1.362 . S
C2586 H2578 0.930 . S
C2586 C2585 1.362 . S
C2586 C2589 1.409 . S
C2587 H2579 0.930 . S
C2587 C2588 1.355 . S
C2587 C2589 1.415 . S
C2588 C2587 1.355 . S
C2588 C2590 1.419 . S
C2589 C2584 1.425 . S
C2589 C2586 1.409 . S
C2589 C2587 1.415 . S
C2590 H2580 0.930 . S
C2590 C2588 1.419 . S
C2590 C2591 1.362 . S
C2591 H2581 0.930 . S
C2591 C2584 1.409 . S
C2591 C2590 1.362 . S
H2592 C2598 0.930 . S
H2593 C2601 0.930 . S
H2594 C2602 0.930 . S
H2595 C2603 0.930 . S
H2596 C2606 0.930 . S
H2597 C2607 0.930 . S
C2598 H2592 0.930 . S
C2598 C2599 1.355 . S
C2598 C2600 1.415 . S
C2599 C2598 1.355 . S
C2599 C2601 1.419 . S
C2600 C2598 1.415 . S
C2600 C2605 1.425 . S
C2600 C2607 1.409 . S
C2601 H2593 0.930 . S
C2601 C2599 1.419 . S
C2601 C2602 1.362 . S
C2602 H2594 0.930 . S
C2602 C2601 1.362 . S
C2602 C2605 1.409 . S
C2603 H2595 0.930 . S
C2603 C2604 1.355 . S
C2603 C2605 1.415 . S
C2604 C2603 1.355 . S
C2604 C2606 1.419 . S
C2605 C2600 1.425 . S
C2605 C2602 1.409 . S
C2605 C2603 1.415 . S
C2606 H2596 0.930 . S
C2606 C2604 1.419 . S
C2606 C2607 1.362 . S
C2607 H2597 0.930 . S
C2607 C2600 1.409 . S
C2607 C2606 1.362 . S
H2608 C2614 0.930 . S
H2609 C2617 0.930 . S
H2610 C2618 0.930 . S
H2611 C2619 0.930 . S
H2612 C2622 0.930 . S
H2613 C2623 0.930 . S
C2614 H2608 0.930 . S
C2614 C2615 1.355 . S
C2614 C2616 1.415 . S
C2615 C2614 1.355 . S
C2615 C2617 1.419 . S
C2616 C2614 1.415 . S
C2616 C2621 1.425 . S
C2616 C2623 1.409 . S
C2617 H2609 0.930 . S
C2617 C2615 1.419 . S
C2617 C2618 1.362 . S
C2618 H2610 0.930 . S
C2618 C2617 1.362 . S
C2618 C2621 1.409 . S
C2619 H2611 0.930 . S
C2619 C2620 1.355 . S
C2619 C2621 1.415 . S
C2620 C2619 1.355 . S
C2620 C2622 1.419 . S
C2621 C2616 1.425 . S
C2621 C2618 1.409 . S
C2621 C2619 1.415 . S
C2622 H2612 0.930 . S
C2622 C2620 1.419 . S
C2622 C2623 1.362 . S
C2623 H2613 0.930 . S
C2623 C2616 1.409 . S
C2623 C2622 1.362 . S
H2624 C2630 0.930 . S
H2625 C2633 0.930 . S
H2626 C2634 0.930 . S
H2627 C2635 0.930 . S
H2628 C2638 0.930 . S
H2629 C2639 0.930 . S
C2630 H2624 0.930 . S
C2630 C2631 1.355 . S
C2630 C2632 1.415 . S
C2631 C2630 1.355 . S
C2631 C2633 1.419 . S
C2632 C2630 1.415 . S
C2632 C2637 1.425 . S
C2632 C2639 1.409 . S
C2633 H2625 0.930 . S
C2633 C2631 1.419 . S
C2633 C2634 1.362 . S
C2634 H2626 0.930 . S
C2634 C2633 1.362 . S
C2634 C2637 1.409 . S
C2635 H2627 0.930 . S
C2635 C2636 1.355 . S
C2635 C2637 1.415 . S
C2636 C2635 1.355 . S
C2636 C2638 1.419 . S
C2637 C2632 1.425 . S
C2637 C2634 1.409 . S
C2637 C2635 1.415 . S
C2638 H2628 0.930 . S
C2638 C2636 1.419 . S
C2638 C2639 1.362 . S
C2639 H2629 0.930 . S
C2639 C2632 1.409 . S
C2639 C2638 1.362 . S
H2640 C2646 0.930 . S
H2641 C2649 0.930 . S
H2642 C2650 0.930 . S
H2643 C2651 0.930 . S
H2644 C2654 0.930 . S
H2645 C2655 0.930 . S
C2646 H2640 0.930 . S
C2646 C2647 1.355 . S
C2646 C2648 1.415 . S
C2647 C2646 1.355 . S
C2647 C2649 1.419 . S
C2648 C2646 1.415 . S
C2648 C2653 1.425 . S
C2648 C2655 1.409 . S
C2649 H2641 0.930 . S
C2649 C2647 1.419 . S
C2649 C2650 1.362 . S
C2650 H2642 0.930 . S
C2650 C2649 1.362 . S
C2650 C2653 1.409 . S
C2651 H2643 0.930 . S
C2651 C2652 1.355 . S
C2651 C2653 1.415 . S
C2652 C2651 1.355 . S
C2652 C2654 1.419 . S
C2653 C2648 1.425 . S
C2653 C2650 1.409 . S
C2653 C2651 1.415 . S
C2654 H2644 0.930 . S
C2654 C2652 1.419 . S
C2654 C2655 1.362 . S
C2655 H2645 0.930 . S
C2655 C2648 1.409 . S
C2655 C2654 1.362 . S
H2656 C2662 0.930 . S
H2657 C2665 0.930 . S
H2658 C2666 0.930 . S
H2659 C2667 0.930 . S
H2660 C2670 0.930 . S
H2661 C2671 0.930 . S
C2662 H2656 0.930 . S
C2662 C2663 1.355 . S
C2662 C2664 1.415 . S
C2663 C2662 1.355 . S
C2663 C2665 1.419 . S
C2664 C2662 1.415 . S
C2664 C2669 1.425 . S
C2664 C2671 1.409 . S
C2665 H2657 0.930 . S
C2665 C2663 1.419 . S
C2665 C2666 1.362 . S
C2666 H2658 0.930 . S
C2666 C2665 1.362 . S
C2666 C2669 1.409 . S
C2667 H2659 0.930 . S
C2667 C2668 1.355 . S
C2667 C2669 1.415 . S
C2668 C2667 1.355 . S
C2668 C2670 1.419 . S
C2669 C2664 1.425 . S
C2669 C2666 1.409 . S
C2669 C2667 1.415 . S
C2670 H2660 0.930 . S
C2670 C2668 1.419 . S
C2670 C2671 1.362 . S
C2671 H2661 0.930 . S
C2671 C2664 1.409 . S
C2671 C2670 1.362 . S
H2672 C2678 0.930 . S
H2673 C2681 0.930 . S
H2674 C2682 0.930 . S
H2675 C2683 0.930 . S
H2676 C2686 0.930 . S
H2677 C2687 0.930 . S
C2678 H2672 0.930 . S
C2678 C2679 1.355 . S
C2678 C2680 1.415 . S
C2679 C2678 1.355 . S
C2679 C2681 1.419 . S
C2680 C2678 1.415 . S
C2680 C2685 1.425 . S
C2680 C2687 1.409 . S
C2681 H2673 0.930 . S
C2681 C2679 1.419 . S
C2681 C2682 1.362 . S
C2682 H2674 0.930 . S
C2682 C2681 1.362 . S
C2682 C2685 1.409 . S
C2683 H2675 0.930 . S
C2683 C2684 1.355 . S
C2683 C2685 1.415 . S
C2684 C2683 1.355 . S
C2684 C2686 1.419 . S
C2685 C2680 1.425 . S
C2685 C2682 1.409 . S
C2685 C2683 1.415 . S
C2686 H2676 0.930 . S
C2686 C2684 1.419 . S
C2686 C2687 1.362 . S
C2687 H2677 0.930 . S
C2687 C2680 1.409 . S
C2687 C2686 1.362 . S
H2688 C2694 0.930 . S
H2689 C2697 0.930 . S
H2690 C2698 0.930 . S
H2691 C2699 0.930 . S
H2692 C2702 0.930 . S
H2693 C2703 0.930 . S
C2694 H2688 0.930 . S
C2694 C2695 1.355 . S
C2694 C2696 1.415 . S
C2695 C2694 1.355 . S
C2695 C2697 1.419 . S
C2696 C2694 1.415 . S
C2696 C2701 1.425 . S
C2696 C2703 1.409 . S
C2697 H2689 0.930 . S
C2697 C2695 1.419 . S
C2697 C2698 1.362 . S
C2698 H2690 0.930 . S
C2698 C2697 1.362 . S
C2698 C2701 1.409 . S
C2699 H2691 0.930 . S
C2699 C2700 1.355 . S
C2699 C2701 1.415 . S
C2700 C2699 1.355 . S
C2700 C2702 1.419 . S
C2701 C2696 1.425 . S
C2701 C2698 1.409 . S
C2701 C2699 1.415 . S
C2702 H2692 0.930 . S
C2702 C2700 1.419 . S
C2702 C2703 1.362 . S
C2703 H2693 0.930 . S
C2703 C2696 1.409 . S
C2703 C2702 1.362 . S
H2704 C2710 0.930 . S
H2705 C2713 0.930 . S
H2706 C2714 0.930 . S
H2707 C2715 0.930 . S
H2708 C2718 0.930 . S
H2709 C2719 0.930 . S
C2710 H2704 0.930 . S
C2710 C2711 1.355 . S
C2710 C2712 1.415 . S
C2711 C2710 1.355 . S
C2711 C2713 1.419 . S
C2712 C2710 1.415 . S
C2712 C2717 1.425 . S
C2712 C2719 1.409 . S
C2713 H2705 0.930 . S
C2713 C2711 1.419 . S
C2713 C2714 1.362 . S
C2714 H2706 0.930 . S
C2714 C2713 1.362 . S
C2714 C2717 1.409 . S
C2715 H2707 0.930 . S
C2715 C2716 1.355 . S
C2715 C2717 1.415 . S
C2716 C2715 1.355 . S
C2716 C2718 1.419 . S
C2717 C2712 1.425 . S
C2717 C2714 1.409 . S
C2717 C2715 1.415 . S
C2718 H2708 0.930 . S
C2718 C2716 1.419 . S
C2718 C2719 1.362 . S
C2719 H2709 0.930 . S
C2719 C2712 1.409 . S
C2719 C2718 1.362 . S
H2720 C2726 0.930 . S
H2721 C2729 0.930 . S
H2722 C2730 0.930 . S
H2723 C2731 0.930 . S
H2724 C2734 0.930 . S
H2725 C2735 0.930 . S
C2726 H2720 0.930 . S
C2726 C2727 1.355 . S
C2726 C2728 1.415 . S
C2727 C2726 1.355 . S
C2727 C2729 1.419 . S
C2728 C2726 1.415 . S
C2728 C2733 1.425 . S
C2728 C2735 1.409 . S
C2729 H2721 0.930 . S
C2729 C2727 1.419 . S
C2729 C2730 1.362 . S
C2730 H2722 0.930 . S
C2730 C2729 1.362 . S
C2730 C2733 1.409 . S
C2731 H2723 0.930 . S
C2731 C2732 1.355 . S
C2731 C2733 1.415 . S
C2732 C2731 1.355 . S
C2732 C2734 1.419 . S
C2733 C2728 1.425 . S
C2733 C2730 1.409 . S
C2733 C2731 1.415 . S
C2734 H2724 0.930 . S
C2734 C2732 1.419 . S
C2734 C2735 1.362 . S
C2735 H2725 0.930 . S
C2735 C2728 1.409 . S
C2735 C2734 1.362 . S
H2736 C2742 0.930 . S
H2737 C2745 0.930 . S
H2738 C2746 0.930 . S
H2739 C2747 0.930 . S
H2740 C2750 0.930 . S
H2741 C2751 0.930 . S
C2742 H2736 0.930 . S
C2742 C2743 1.355 . S
C2742 C2744 1.415 . S
C2743 C2742 1.355 . S
C2743 C2745 1.419 . S
C2744 C2742 1.415 . S
C2744 C2749 1.425 . S
C2744 C2751 1.409 . S
C2745 H2737 0.930 . S
C2745 C2743 1.419 . S
C2745 C2746 1.362 . S
C2746 H2738 0.930 . S
C2746 C2745 1.362 . S
C2746 C2749 1.409 . S
C2747 H2739 0.930 . S
C2747 C2748 1.355 . S
C2747 C2749 1.415 . S
C2748 C2747 1.355 . S
C2748 C2750 1.419 . S
C2749 C2744 1.425 . S
C2749 C2746 1.409 . S
C2749 C2747 1.415 . S
C2750 H2740 0.930 . S
C2750 C2748 1.419 . S
C2750 C2751 1.362 . S
C2751 H2741 0.930 . S
C2751 C2744 1.409 . S
C2751 C2750 1.362 . S
H2752 C2758 0.930 . S
H2753 C2761 0.930 . S
H2754 C2762 0.930 . S
H2755 C2763 0.930 . S
H2756 C2766 0.930 . S
H2757 C2767 0.930 . S
C2758 H2752 0.930 . S
C2758 C2759 1.355 . S
C2758 C2760 1.415 . S
C2759 C2758 1.355 . S
C2759 C2761 1.419 . S
C2760 C2758 1.415 . S
C2760 C2765 1.425 . S
C2760 C2767 1.409 . S
C2761 H2753 0.930 . S
C2761 C2759 1.419 . S
C2761 C2762 1.362 . S
C2762 H2754 0.930 . S
C2762 C2761 1.362 . S
C2762 C2765 1.409 . S
C2763 H2755 0.930 . S
C2763 C2764 1.355 . S
C2763 C2765 1.415 . S
C2764 C2763 1.355 . S
C2764 C2766 1.419 . S
C2765 C2760 1.425 . S
C2765 C2762 1.409 . S
C2765 C2763 1.415 . S
C2766 H2756 0.930 . S
C2766 C2764 1.419 . S
C2766 C2767 1.362 . S
C2767 H2757 0.930 . S
C2767 C2760 1.409 . S
C2767 C2766 1.362 . S
H2768 C2774 0.930 . S
H2769 C2777 0.930 . S
H2770 C2778 0.930 . S
H2771 C2779 0.930 . S
H2772 C2782 0.930 . S
H2773 C2783 0.930 . S
C2774 H2768 0.930 . S
C2774 C2775 1.355 . S
C2774 C2776 1.415 . S
C2775 C2774 1.355 . S
C2775 C2777 1.419 . S
C2776 C2774 1.415 . S
C2776 C2781 1.425 . S
C2776 C2783 1.409 . S
C2777 H2769 0.930 . S
C2777 C2775 1.419 . S
C2777 C2778 1.362 . S
C2778 H2770 0.930 . S
C2778 C2777 1.362 . S
C2778 C2781 1.409 . S
C2779 H2771 0.930 . S
C2779 C2780 1.355 . S
C2779 C2781 1.415 . S
C2780 C2779 1.355 . S
C2780 C2782 1.419 . S
C2781 C2776 1.425 . S
C2781 C2778 1.409 . S
C2781 C2779 1.415 . S
C2782 H2772 0.930 . S
C2782 C2780 1.419 . S
C2782 C2783 1.362 . S
C2783 H2773 0.930 . S
C2783 C2776 1.409 . S
C2783 C2782 1.362 . S
H2784 C2790 0.930 . S
H2785 C2793 0.930 . S
H2786 C2794 0.930 . S
H2787 C2795 0.930 . S
H2788 C2798 0.930 . S
H2789 C2799 0.930 . S
C2790 H2784 0.930 . S
C2790 C2791 1.355 . S
C2790 C2792 1.415 . S
C2791 C2790 1.355 . S
C2791 C2793 1.419 . S
C2792 C2790 1.415 . S
C2792 C2797 1.425 . S
C2792 C2799 1.409 . S
C2793 H2785 0.930 . S
C2793 C2791 1.419 . S
C2793 C2794 1.362 . S
C2794 H2786 0.930 . S
C2794 C2793 1.362 . S
C2794 C2797 1.409 . S
C2795 H2787 0.930 . S
C2795 C2796 1.355 . S
C2795 C2797 1.415 . S
C2796 C2795 1.355 . S
C2796 C2798 1.419 . S
C2797 C2792 1.425 . S
C2797 C2794 1.409 . S
C2797 C2795 1.415 . S
C2798 H2788 0.930 . S
C2798 C2796 1.419 . S
C2798 C2799 1.362 . S
C2799 H2789 0.930 . S
C2799 C2792 1.409 . S
C2799 C2798 1.362 . S
H2800 C2806 0.930 . S
H2801 C2809 0.930 . S
H2802 C2810 0.930 . S
H2803 C2811 0.930 . S
H2804 C2814 0.930 . S
H2805 C2815 0.930 . S
C2806 H2800 0.930 . S
C2806 C2807 1.355 . S
C2806 C2808 1.415 . S
C2807 C2806 1.355 . S
C2807 C2809 1.419 . S
C2808 C2806 1.415 . S
C2808 C2813 1.425 . S
C2808 C2815 1.409 . S
C2809 H2801 0.930 . S
C2809 C2807 1.419 . S
C2809 C2810 1.362 . S
C2810 H2802 0.930 . S
C2810 C2809 1.362 . S
C2810 C2813 1.409 . S
C2811 H2803 0.930 . S
C2811 C2812 1.355 . S
C2811 C2813 1.415 . S
C2812 C2811 1.355 . S
C2812 C2814 1.419 . S
C2813 C2808 1.425 . S
C2813 C2810 1.409 . S
C2813 C2811 1.415 . S
C2814 H2804 0.930 . S
C2814 C2812 1.419 . S
C2814 C2815 1.362 . S
C2815 H2805 0.930 . S
C2815 C2808 1.409 . S
C2815 C2814 1.362 . S
H2816 C2822 0.930 . S
H2817 C2825 0.930 . S
H2818 C2826 0.930 . S
H2819 C2827 0.930 . S
H2820 C2830 0.930 . S
H2821 C2831 0.930 . S
C2822 H2816 0.930 . S
C2822 C2823 1.355 . S
C2822 C2824 1.415 . S
C2823 C2822 1.355 . S
C2823 C2825 1.419 . S
C2824 C2822 1.415 . S
C2824 C2829 1.425 . S
C2824 C2831 1.409 . S
C2825 H2817 0.930 . S
C2825 C2823 1.419 . S
C2825 C2826 1.362 . S
C2826 H2818 0.930 . S
C2826 C2825 1.362 . S
C2826 C2829 1.409 . S
C2827 H2819 0.930 . S
C2827 C2828 1.355 . S
C2827 C2829 1.415 . S
C2828 C2827 1.355 . S
C2828 C2830 1.419 . S
C2829 C2824 1.425 . S
C2829 C2826 1.409 . S
C2829 C2827 1.415 . S
C2830 H2820 0.930 . S
C2830 C2828 1.419 . S
C2830 C2831 1.362 . S
C2831 H2821 0.930 . S
C2831 C2824 1.409 . S
C2831 C2830 1.362 . S
H2832 C2838 0.930 . S
H2833 C2841 0.930 . S
H2834 C2842 0.930 . S
H2835 C2843 0.930 . S
H2836 C2846 0.930 . S
H2837 C2847 0.930 . S
C2838 H2832 0.930 . S
C2838 C2839 1.355 . S
C2838 C2840 1.415 . S
C2839 C2838 1.355 . S
C2839 C2841 1.419 . S
C2840 C2838 1.415 . S
C2840 C2845 1.425 . S
C2840 C2847 1.409 . S
C2841 H2833 0.930 . S
C2841 C2839 1.419 . S
C2841 C2842 1.362 . S
C2842 H2834 0.930 . S
C2842 C2841 1.362 . S
C2842 C2845 1.409 . S
C2843 H2835 0.930 . S
C2843 C2844 1.355 . S
C2843 C2845 1.415 . S
C2844 C2843 1.355 . S
C2844 C2846 1.419 . S
C2845 C2840 1.425 . S
C2845 C2842 1.409 . S
C2845 C2843 1.415 . S
C2846 H2836 0.930 . S
C2846 C2844 1.419 . S
C2846 C2847 1.362 . S
C2847 H2837 0.930 . S
C2847 C2840 1.409 . S
C2847 C2846 1.362 . S
H2848 C2854 0.930 . S
H2849 C2857 0.930 . S
H2850 C2858 0.930 . S
H2851 C2859 0.930 . S
H2852 C2862 0.930 . S
H2853 C2863 0.930 . S
C2854 H2848 0.930 . S
C2854 C2855 1.355 . S
C2854 C2856 1.415 . S
C2855 C2854 1.355 . S
C2855 C2857 1.419 . S
C2856 C2854 1.415 . S
C2856 C2861 1.425 . S
C2856 C2863 1.409 . S
C2857 H2849 0.930 . S
C2857 C2855 1.419 . S
C2857 C2858 1.362 . S
C2858 H2850 0.930 . S
C2858 C2857 1.362 . S
C2858 C2861 1.409 . S
C2859 H2851 0.930 . S
C2859 C2860 1.355 . S
C2859 C2861 1.415 . S
C2860 C2859 1.355 . S
C2860 C2862 1.419 . S
C2861 C2856 1.425 . S
C2861 C2858 1.409 . S
C2861 C2859 1.415 . S
C2862 H2852 0.930 . S
C2862 C2860 1.419 . S
C2862 C2863 1.362 . S
C2863 H2853 0.930 . S
C2863 C2856 1.409 . S
C2863 C2862 1.362 . S
H2864 C2870 0.930 . S
H2865 C2873 0.930 . S
H2866 C2874 0.930 . S
H2867 C2875 0.930 . S
H2868 C2878 0.930 . S
H2869 C2879 0.930 . S
C2870 H2864 0.930 . S
C2870 C2871 1.355 . S
C2870 C2872 1.415 . S
C2871 C2870 1.355 . S
C2871 C2873 1.419 . S
C2872 C2870 1.415 . S
C2872 C2877 1.425 . S
C2872 C2879 1.409 . S
C2873 H2865 0.930 . S
C2873 C2871 1.419 . S
C2873 C2874 1.362 . S
C2874 H2866 0.930 . S
C2874 C2873 1.362 . S
C2874 C2877 1.409 . S
C2875 H2867 0.930 . S
C2875 C2876 1.355 . S
C2875 C2877 1.415 . S
C2876 C2875 1.355 . S
C2876 C2878 1.419 . S
C2877 C2872 1.425 . S
C2877 C2874 1.409 . S
C2877 C2875 1.415 . S
C2878 H2868 0.930 . S
C2878 C2876 1.419 . S
C2878 C2879 1.362 . S
C2879 H2869 0.930 . S
C2879 C2872 1.409 . S
C2879 C2878 1.362 . S
H2880 C2886 0.930 . S
H2881 C2889 0.930 . S
H2882 C2890 0.930 . S
H2883 C2891 0.930 . S
H2884 C2894 0.930 . S
H2885 C2895 0.930 . S
C2886 H2880 0.930 . S
C2886 C2887 1.355 . S
C2886 C2888 1.415 . S
C2887 C2886 1.355 . S
C2887 C2889 1.419 . S
C2888 C2886 1.415 . S
C2888 C2893 1.425 . S
C2888 C2895 1.409 . S
C2889 H2881 0.930 . S
C2889 C2887 1.419 . S
C2889 C2890 1.362 . S
C2890 H2882 0.930 . S
C2890 C2889 1.362 . S
C2890 C2893 1.409 . S
C2891 H2883 0.930 . S
C2891 C2892 1.355 . S
C2891 C2893 1.415 . S
C2892 C2891 1.355 . S
C2892 C2894 1.419 . S
C2893 C2888 1.425 . S
C2893 C2890 1.409 . S
C2893 C2891 1.415 . S
C2894 H2884 0.930 . S
C2894 C2892 1.419 . S
C2894 C2895 1.362 . S
C2895 H2885 0.930 . S
C2895 C2888 1.409 . S
C2895 C2894 1.362 . S
H2896 C2902 0.930 . S
H2897 C2905 0.930 . S
H2898 C2906 0.930 . S
H2899 C2907 0.930 . S
H2900 C2910 0.930 . S
H2901 C2911 0.930 . S
C2902 H2896 0.930 . S
C2902 C2903 1.355 . S
C2902 C2904 1.415 . S
C2903 C2902 1.355 . S
C2903 C2905 1.419 . S
C2904 C2902 1.415 . S
C2904 C2909 1.425 . S
C2904 C2911 1.409 . S
C2905 H2897 0.930 . S
C2905 C2903 1.419 . S
C2905 C2906 1.362 . S
C2906 H2898 0.930 . S
C2906 C2905 1.362 . S
C2906 C2909 1.409 . S
C2907 H2899 0.930 . S
C2907 C2908 1.355 . S
C2907 C2909 1.415 . S
C2908 C2907 1.355 . S
C2908 C2910 1.419 . S
C2909 C2904 1.425 . S
C2909 C2906 1.409 . S
C2909 C2907 1.415 . S
C2910 H2900 0.930 . S
C2910 C2908 1.419 . S
C2910 C2911 1.362 . S
C2911 H2901 0.930 . S
C2911 C2904 1.409 . S
C2911 C2910 1.362 . S
H2912 C2918 0.930 . S
H2913 C2921 0.930 . S
H2914 C2922 0.930 . S
H2915 C2923 0.930 . S
H2916 C2926 0.930 . S
H2917 C2927 0.930 . S
C2918 H2912 0.930 . S
C2918 C2919 1.355 . S
C2918 C2920 1.415 . S
C2919 C2918 1.355 . S
C2919 C2921 1.419 . S
C2920 C2918 1.415 . S
C2920 C2925 1.425 . S
C2920 C2927 1.409 . S
C2921 H2913 0.930 . S
C2921 C2919 1.419 . S
C2921 C2922 1.362 . S
C2922 H2914 0.930 . S
C2922 C2921 1.362 . S
C2922 C2925 1.409 . S
C2923 H2915 0.930 . S
C2923 C2924 1.355 . S
C2923 C2925 1.415 . S
C2924 C2923 1.355 . S
C2924 C2926 1.419 . S
C2925 C2920 1.425 . S
C2925 C2922 1.409 . S
C2925 C2923 1.415 . S
C2926 H2916 0.930 . S
C2926 C2924 1.419 . S
C2926 C2927 1.362 . S
C2927 H2917 0.930 . S
C2927 C2920 1.409 . S
C2927 C2926 1.362 . S
H2928 C2934 0.930 . S
H2929 C2937 0.930 . S
H2930 C2938 0.930 . S
H2931 C2939 0.930 . S
H2932 C2942 0.930 . S
H2933 C2943 0.930 . S
C2934 H2928 0.930 . S
C2934 C2935 1.355 . S
C2934 C2936 1.415 . S
C2935 C2934 1.355 . S
C2935 C2937 1.419 . S
C2936 C2934 1.415 . S
C2936 C2941 1.425 . S
C2936 C2943 1.409 . S
C2937 H2929 0.930 . S
C2937 C2935 1.419 . S
C2937 C2938 1.362 . S
C2938 H2930 0.930 . S
C2938 C2937 1.362 . S
C2938 C2941 1.409 . S
C2939 H2931 0.930 . S
C2939 C2940 1.355 . S
C2939 C2941 1.415 . S
C2940 C2939 1.355 . S
C2940 C2942 1.419 . S
C2941 C2936 1.425 . S
C2941 C2938 1.409 . S
C2941 C2939 1.415 . S
C2942 H2932 0.930 . S
C2942 C2940 1.419 . S
C2942 C2943 1.362 . S
C2943 H2933 0.930 . S
C2943 C2936 1.409 . S
C2943 C2942 1.362 . S
H2944 C2950 0.930 . S
H2945 C2953 0.930 . S
H2946 C2954 0.930 . S
H2947 C2955 0.930 . S
H2948 C2958 0.930 . S
H2949 C2959 0.930 . S
C2950 H2944 0.930 . S
C2950 C2951 1.355 . S
C2950 C2952 1.415 . S
C2951 C2950 1.355 . S
C2951 C2953 1.419 . S
C2952 C2950 1.415 . S
C2952 C2957 1.425 . S
C2952 C2959 1.409 . S
C2953 H2945 0.930 . S
C2953 C2951 1.419 . S
C2953 C2954 1.362 . S
C2954 H2946 0.930 . S
C2954 C2953 1.362 . S
C2954 C2957 1.409 . S
C2955 H2947 0.930 . S
C2955 C2956 1.355 . S
C2955 C2957 1.415 . S
C2956 C2955 1.355 . S
C2956 C2958 1.419 . S
C2957 C2952 1.425 . S
C2957 C2954 1.409 . S
C2957 C2955 1.415 . S
C2958 H2948 0.930 . S
C2958 C2956 1.419 . S
C2958 C2959 1.362 . S
C2959 H2949 0.930 . S
C2959 C2952 1.409 . S
C2959 C2958 1.362 . S
H2960 C2966 0.930 . S
H2961 C2969 0.930 . S
H2962 C2970 0.930 . S
H2963 C2971 0.930 . S
H2964 C2974 0.930 . S
H2965 C2975 0.930 . S
C2966 H2960 0.930 . S
C2966 C2967 1.355 . S
C2966 C2968 1.415 . S
C2967 C2966 1.355 . S
C2967 C2969 1.419 . S
C2968 C2966 1.415 . S
C2968 C2973 1.425 . S
C2968 C2975 1.409 . S
C2969 H2961 0.930 . S
C2969 C2967 1.419 . S
C2969 C2970 1.362 . S
C2970 H2962 0.930 . S
C2970 C2969 1.362 . S
C2970 C2973 1.409 . S
C2971 H2963 0.930 . S
C2971 C2972 1.355 . S
C2971 C2973 1.415 . S
C2972 C2971 1.355 . S
C2972 C2974 1.419 . S
C2973 C2968 1.425 . S
C2973 C2970 1.409 . S
C2973 C2971 1.415 . S
C2974 H2964 0.930 . S
C2974 C2972 1.419 . S
C2974 C2975 1.362 . S
C2975 H2965 0.930 . S
C2975 C2968 1.409 . S
C2975 C2974 1.362 . S
H2976 C2982 0.930 . S
H2977 C2985 0.930 . S
H2978 C2986 0.930 . S
H2979 C2987 0.930 . S
H2980 C2990 0.930 . S
H2981 C2991 0.930 . S
C2982 H2976 0.930 . S
C2982 C2983 1.355 . S
C2982 C2984 1.415 . S
C2983 C2982 1.355 . S
C2983 C2985 1.419 . S
C2984 C2982 1.415 . S
C2984 C2989 1.425 . S
C2984 C2991 1.409 . S
C2985 H2977 0.930 . S
C2985 C2983 1.419 . S
C2985 C2986 1.362 . S
C2986 H2978 0.930 . S
C2986 C2985 1.362 . S
C2986 C2989 1.409 . S
C2987 H2979 0.930 . S
C2987 C2988 1.355 . S
C2987 C2989 1.415 . S
C2988 C2987 1.355 . S
C2988 C2990 1.419 . S
C2989 C2984 1.425 . S
C2989 C2986 1.409 . S
C2989 C2987 1.415 . S
C2990 H2980 0.930 . S
C2990 C2988 1.419 . S
C2990 C2991 1.362 . S
C2991 H2981 0.930 . S
C2991 C2984 1.409 . S
C2991 C2990 1.362 . S
H2992 C2998 0.930 . S
H2993 C3001 0.930 . S
H2994 C3002 0.930 . S
H2995 C3003 0.930 . S
H2996 C3006 0.930 . S
H2997 C3007 0.930 . S
C2998 H2992 0.930 . S
C2998 C2999 1.355 . S
C2998 C3000 1.415 . S
C2999 C2998 1.355 . S
C2999 C3001 1.419 . S
C3000 C2998 1.415 . S
C3000 C3005 1.425 . S
C3000 C3007 1.409 . S
C3001 H2993 0.930 . S
C3001 C2999 1.419 . S
C3001 C3002 1.362 . S
C3002 H2994 0.930 . S
C3002 C3001 1.362 . S
C3002 C3005 1.409 . S
C3003 H2995 0.930 . S
C3003 C3004 1.355 . S
C3003 C3005 1.415 . S
C3004 C3003 1.355 . S
C3004 C3006 1.419 . S
C3005 C3000 1.425 . S
C3005 C3002 1.409 . S
C3005 C3003 1.415 . S
C3006 H2996 0.930 . S
C3006 C3004 1.419 . S
C3006 C3007 1.362 . S
C3007 H2997 0.930 . S
C3007 C3000 1.409 . S
C3007 C3006 1.362 . S
H3008 C3014 0.930 . S
H3009 C3017 0.930 . S
H3010 C3018 0.930 . S
H3011 C3019 0.930 . S
H3012 C3022 0.930 . S
H3013 C3023 0.930 . S
C3014 H3008 0.930 . S
C3014 C3015 1.355 . S
C3014 C3016 1.415 . S
C3015 C3014 1.355 . S
C3015 C3017 1.419 . S
C3016 C3014 1.415 . S
C3016 C3021 1.425 . S
C3016 C3023 1.409 . S
C3017 H3009 0.930 . S
C3017 C3015 1.419 . S
C3017 C3018 1.362 . S
C3018 H3010 0.930 . S
C3018 C3017 1.362 . S
C3018 C3021 1.409 . S
C3019 H3011 0.930 . S
C3019 C3020 1.355 . S
C3019 C3021 1.415 . S
C3020 C3019 1.355 . S
C3020 C3022 1.419 . S
C3021 C3016 1.425 . S
C3021 C3018 1.409 . S
C3021 C3019 1.415 . S
C3022 H3012 0.930 . S
C3022 C3020 1.419 . S
C3022 C3023 1.362 . S
C3023 H3013 0.930 . S
C3023 C3016 1.409 . S
C3023 C3022 1.362 . S
H3024 C3030 0.930 . S
H3025 C3033 0.930 . S
H3026 C3034 0.930 . S
H3027 C3035 0.930 . S
H3028 C3038 0.930 . S
H3029 C3039 0.930 . S
C3030 H3024 0.930 . S
C3030 C3031 1.355 . S
C3030 C3032 1.415 . S
C3031 C3030 1.355 . S
C3031 C3033 1.419 . S
C3032 C3030 1.415 . S
C3032 C3037 1.425 . S
C3032 C3039 1.409 . S
C3033 H3025 0.930 . S
C3033 C3031 1.419 . S
C3033 C3034 1.362 . S
C3034 H3026 0.930 . S
C3034 C3033 1.362 . S
C3034 C3037 1.409 . S
C3035 H3027 0.930 . S
C3035 C3036 1.355 . S
C3035 C3037 1.415 . S
C3036 C3035 1.355 . S
C3036 C3038 1.419 . S
C3037 C3032 1.425 . S
C3037 C3034 1.409 . S
C3037 C3035 1.415 . S
C3038 H3028 0.930 . S
C3038 C3036 1.419 . S
C3038 C3039 1.362 . S
C3039 H3029 0.930 . S
C3039 C3032 1.409 . S
C3039 C3038 1.362 . S
H3040 C3046 0.930 . S
H3041 C3049 0.930 . S
H3042 C3050 0.930 . S
H3043 C3051 0.930 . S
H3044 C3054 0.930 . S
H3045 C3055 0.930 . S
C3046 H3040 0.930 . S
C3046 C3047 1.355 . S
C3046 C3048 1.415 . S
C3047 C3046 1.355 . S
C3047 C3049 1.419 . S
C3048 C3046 1.415 . S
C3048 C3053 1.425 . S
C3048 C3055 1.409 . S
C3049 H3041 0.930 . S
C3049 C3047 1.419 . S
C3049 C3050 1.362 . S
C3050 H3042 0.930 . S
C3050 C3049 1.362 . S
C3050 C3053 1.409 . S
C3051 H3043 0.930 . S
C3051 C3052 1.355 . S
C3051 C3053 1.415 . S
C3052 C3051 1.355 . S
C3052 C3054 1.419 . S
C3053 C3048 1.425 . S
C3053 C3050 1.409 . S
C3053 C3051 1.415 . S
C3054 H3044 0.930 . S
C3054 C3052 1.419 . S
C3054 C3055 1.362 . S
C3055 H3045 0.930 . S
C3055 C3048 1.409 . S
C3055 C3054 1.362 . S
H3056 C3062 0.930 . S
H3057 C3065 0.930 . S
H3058 C3066 0.930 . S
H3059 C3067 0.930 . S
H3060 C3070 0.930 . S
H3061 C3071 0.930 . S
C3062 H3056 0.930 . S
C3062 C3063 1.355 . S
C3062 C3064 1.415 . S
C3063 C3062 1.355 . S
C3063 C3065 1.419 . S
C3064 C3062 1.415 . S
C3064 C3069 1.425 . S
C3064 C3071 1.409 . S
C3065 H3057 0.930 . S
C3065 C3063 1.419 . S
C3065 C3066 1.362 . S
C3066 H3058 0.930 . S
C3066 C3065 1.362 . S
C3066 C3069 1.409 . S
C3067 H3059 0.930 . S
C3067 C3068 1.355 . S
C3067 C3069 1.415 . S
C3068 C3067 1.355 . S
C3068 C3070 1.419 . S
C3069 C3064 1.425 . S
C3069 C3066 1.409 . S
C3069 C3067 1.415 . S
C3070 H3060 0.930 . S
C3070 C3068 1.419 . S
C3070 C3071 1.362 . S
C3071 H3061 0.930 . S
C3071 C3064 1.409 . S
C3071 C3070 1.362 . S
H3072 C3078 0.930 . S
H3073 C3081 0.930 . S
H3074 C3082 0.930 . S
H3075 C3083 0.930 . S
H3076 C3086 0.930 . S
H3077 C3087 0.930 . S
C3078 H3072 0.930 . S
C3078 C3079 1.355 . S
C3078 C3080 1.415 . S
C3079 C3078 1.355 . S
C3079 C3081 1.419 . S
C3080 C3078 1.415 . S
C3080 C3085 1.425 . S
C3080 C3087 1.409 . S
C3081 H3073 0.930 . S
C3081 C3079 1.419 . S
C3081 C3082 1.362 . S
C3082 H3074 0.930 . S
C3082 C3081 1.362 . S
C3082 C3085 1.409 . S
C3083 H3075 0.930 . S
C3083 C3084 1.355 . S
C3083 C3085 1.415 . S
C3084 C3083 1.355 . S
C3084 C3086 1.419 . S
C3085 C3080 1.425 . S
C3085 C3082 1.409 . S
C3085 C3083 1.415 . S
C3086 H3076 0.930 . S
C3086 C3084 1.419 . S
C3086 C3087 1.362 . S
C3087 H3077 0.930 . S
C3087 C3080 1.409 . S
C3087 C3086 1.362 . S
H3088 C3094 0.930 . S
H3089 C3097 0.930 . S
H3090 C3098 0.930 . S
H3091 C3099 0.930 . S
H3092 C3102 0.930 . S
H3093 C3103 0.930 . S
C3094 H3088 0.930 . S
C3094 C3095 1.355 . S
C3094 C3096 1.415 . S
C3095 C3094 1.355 . S
C3095 C3097 1.419 . S
C3096 C3094 1.415 . S
C3096 C3101 1.425 . S
C3096 C3103 1.409 . S
C3097 H3089 0.930 . S
C3097 C3095 1.419 . S
C3097 C3098 1.362 . S
C3098 H3090 0.930 . S
C3098 C3097 1.362 . S
C3098 C3101 1.409 . S
C3099 H3091 0.930 . S
C3099 C3100 1.355 . S
C3099 C3101 1.415 . S
C3100 C3099 1.355 . S
C3100 C3102 1.419 . S
C3101 C3096 1.425 . S
C3101 C3098 1.409 . S
C3101 C3099 1.415 . S
C3102 H3092 0.930 . S
C3102 C3100 1.419 . S
C3102 C3103 1.362 . S
C3103 H3093 0.930 . S
C3103 C3096 1.409 . S
C3103 C3102 1.362 . S
H3104 C3110 0.930 . S
H3105 C3113 0.930 . S
H3106 C3114 0.930 . S
H3107 C3115 0.930 . S
H3108 C3118 0.930 . S
H3109 C3119 0.930 . S
C3110 H3104 0.930 . S
C3110 C3111 1.355 . S
C3110 C3112 1.415 . S
C3111 C3110 1.355 . S
C3111 C3113 1.419 . S
C3112 C3110 1.415 . S
C3112 C3117 1.425 . S
C3112 C3119 1.409 . S
C3113 H3105 0.930 . S
C3113 C3111 1.419 . S
C3113 C3114 1.362 . S
C3114 H3106 0.930 . S
C3114 C3113 1.362 . S
C3114 C3117 1.409 . S
C3115 H3107 0.930 . S
C3115 C3116 1.355 . S
C3115 C3117 1.415 . S
C3116 C3115 1.355 . S
C3116 C3118 1.419 . S
C3117 C3112 1.425 . S
C3117 C3114 1.409 . S
C3117 C3115 1.415 . S
C3118 H3108 0.930 . S
C3118 C3116 1.419 . S
C3118 C3119 1.362 . S
C3119 H3109 0.930 . S
C3119 C3112 1.409 . S
C3119 C3118 1.362 . S
H3120 C3126 0.930 . S
H3121 C3129 0.930 . S
H3122 C3130 0.930 . S
H3123 C3131 0.930 . S
H3124 C3134 0.930 . S
H3125 C3135 0.930 . S
C3126 H3120 0.930 . S
C3126 C3127 1.355 . S
C3126 C3128 1.415 . S
C3127 C3126 1.355 . S
C3127 C3129 1.419 . S
C3128 C3126 1.415 . S
C3128 C3133 1.425 . S
C3128 C3135 1.409 . S
C3129 H3121 0.930 . S
C3129 C3127 1.419 . S
C3129 C3130 1.362 . S
C3130 H3122 0.930 . S
C3130 C3129 1.362 . S
C3130 C3133 1.409 . S
C3131 H3123 0.930 . S
C3131 C3132 1.355 . S
C3131 C3133 1.415 . S
C3132 C3131 1.355 . S
C3132 C3134 1.419 . S
C3133 C3128 1.425 . S
C3133 C3130 1.409 . S
C3133 C3131 1.415 . S
C3134 H3124 0.930 . S
C3134 C3132 1.419 . S
C3134 C3135 1.362 . S
C3135 H3125 0.930 . S
C3135 C3128 1.409 . S
C3135 C3134 1.362 . S
H3136 C3142 0.930 . S
H3137 C3145 0.930 . S
H3138 C3146 0.930 . S
H3139 C3147 0.930 . S
H3140 C3150 0.930 . S
H3141 C3151 0.930 . S
C3142 H3136 0.930 . S
C3142 C3143 1.355 . S
C3142 C3144 1.415 . S
C3143 C3142 1.355 . S
C3143 C3145 1.419 . S
C3144 C3142 1.415 . S
C3144 C3149 1.425 . S
C3144 C3151 1.409 . S
C3145 H3137 0.930 . S
C3145 C3143 1.419 . S
C3145 C3146 1.362 . S
C3146 H3138 0.930 . S
C3146 C3145 1.362 . S
C3146 C3149 1.409 . S
C3147 H3139 0.930 . S
C3147 C3148 1.355 . S
C3147 C3149 1.415 . S
C3148 C3147 1.355 . S
C3148 C3150 1.419 . S
C3149 C3144 1.425 . S
C3149 C3146 1.409 . S
C3149 C3147 1.415 . S
C3150 H3140 0.930 . S
C3150 C3148 1.419 . S
C3150 C3151 1.362 . S
C3151 H3141 0.930 . S
C3151 C3144 1.409 . S
C3151 C3150 1.362 . S
H3152 C3158 0.930 . S
H3153 C3161 0.930 . S
H3154 C3162 0.930 . S
H3155 C3163 0.930 . S
H3156 C3166 0.930 . S
H3157 C3167 0.930 . S
C3158 H3152 0.930 . S
C3158 C3159 1.355 . S
C3158 C3160 1.415 . S
C3159 C3158 1.355 . S
C3159 C3161 1.419 . S
C3160 C3158 1.415 . S
C3160 C3165 1.425 . S
C3160 C3167 1.409 . S
C3161 H3153 0.930 . S
C3161 C3159 1.419 . S
C3161 C3162 1.362 . S
C3162 H3154 0.930 . S
C3162 C3161 1.362 . S
C3162 C3165 1.409 . S
C3163 H3155 0.930 . S
C3163 C3164 1.355 . S
C3163 C3165 1.415 . S
C3164 C3163 1.355 . S
C3164 C3166 1.419 . S
C3165 C3160 1.425 . S
C3165 C3162 1.409 . S
C3165 C3163 1.415 . S
C3166 H3156 0.930 . S
C3166 C3164 1.419 . S
C3166 C3167 1.362 . S
C3167 H3157 0.930 . S
C3167 C3160 1.409 . S
C3167 C3166 1.362 . S
H3168 C3174 0.930 . S
H3169 C3177 0.930 . S
H3170 C3178 0.930 . S
H3171 C3179 0.930 . S
H3172 C3182 0.930 . S
H3173 C3183 0.930 . S
C3174 H3168 0.930 . S
C3174 C3175 1.355 . S
C3174 C3176 1.415 . S
C3175 C3174 1.355 . S
C3175 C3177 1.419 . S
C3176 C3174 1.415 . S
C3176 C3181 1.425 . S
C3176 C3183 1.409 . S
C3177 H3169 0.930 . S
C3177 C3175 1.419 . S
C3177 C3178 1.362 . S
C3178 H3170 0.930 . S
C3178 C3177 1.362 . S
C3178 C3181 1.409 . S
C3179 H3171 0.930 . S
C3179 C3180 1.355 . S
C3179 C3181 1.415 . S
C3180 C3179 1.355 . S
C3180 C3182 1.419 . S
C3181 C3176 1.425 . S
C3181 C3178 1.409 . S
C3181 C3179 1.415 . S
C3182 H3172 0.930 . S
C3182 C3180 1.419 . S
C3182 C3183 1.362 . S
C3183 H3173 0.930 . S
C3183 C3176 1.409 . S
C3183 C3182 1.362 . S
H3184 C3190 0.930 . S
H3185 C3193 0.930 . S
H3186 C3194 0.930 . S
H3187 C3195 0.930 . S
H3188 C3198 0.930 . S
H3189 C3199 0.930 . S
C3190 H3184 0.930 . S
C3190 C3191 1.355 . S
C3190 C3192 1.415 . S
C3191 C3190 1.355 . S
C3191 C3193 1.419 . S
C3192 C3190 1.415 . S
C3192 C3197 1.425 . S
C3192 C3199 1.409 . S
C3193 H3185 0.930 . S
C3193 C3191 1.419 . S
C3193 C3194 1.362 . S
C3194 H3186 0.930 . S
C3194 C3193 1.362 . S
C3194 C3197 1.409 . S
C3195 H3187 0.930 . S
C3195 C3196 1.355 . S
C3195 C3197 1.415 . S
C3196 C3195 1.355 . S
C3196 C3198 1.419 . S
C3197 C3192 1.425 . S
C3197 C3194 1.409 . S
C3197 C3195 1.415 . S
C3198 H3188 0.930 . S
C3198 C3196 1.419 . S
C3198 C3199 1.362 . S
C3199 H3189 0.930 . S
C3199 C3192 1.409 . S
C3199 C3198 1.362 . S
H3200 C3206 0.930 . S
H3201 C3209 0.930 . S
H3202 C3210 0.930 . S
H3203 C3211 0.930 . S
H3204 C3214 0.930 . S
H3205 C3215 0.930 . S
C3206 H3200 0.930 . S
C3206 C3207 1.355 . S
C3206 C3208 1.415 . S
C3207 C3206 1.355 . S
C3207 C3209 1.419 . S
C3208 C3206 1.415 . S
C3208 C3213 1.425 . S
C3208 C3215 1.409 . S
C3209 H3201 0.930 . S
C3209 C3207 1.419 . S
C3209 C3210 1.362 . S
C3210 H3202 0.930 . S
C3210 C3209 1.362 . S
C3210 C3213 1.409 . S
C3211 H3203 0.930 . S
C3211 C3212 1.355 . S
C3211 C3213 1.415 . S
C3212 C3211 1.355 . S
C3212 C3214 1.419 . S
C3213 C3208 1.425 . S
C3213 C3210 1.409 . S
C3213 C3211 1.415 . S
C3214 H3204 0.930 . S
C3214 C3212 1.419 . S
C3214 C3215 1.362 . S
C3215 H3205 0.930 . S
C3215 C3208 1.409 . S
C3215 C3214 1.362 . S
H3216 C3222 0.930 . S
H3217 C3225 0.930 . S
H3218 C3226 0.930 . S
H3219 C3227 0.930 . S
H3220 C3230 0.930 . S
H3221 C3231 0.930 . S
C3222 H3216 0.930 . S
C3222 C3223 1.355 . S
C3222 C3224 1.415 . S
C3223 C3222 1.355 . S
C3223 C3225 1.419 . S
C3224 C3222 1.415 . S
C3224 C3229 1.425 . S
C3224 C3231 1.409 . S
C3225 H3217 0.930 . S
C3225 C3223 1.419 . S
C3225 C3226 1.362 . S
C3226 H3218 0.930 . S
C3226 C3225 1.362 . S
C3226 C3229 1.409 . S
C3227 H3219 0.930 . S
C3227 C3228 1.355 . S
C3227 C3229 1.415 . S
C3228 C3227 1.355 . S
C3228 C3230 1.419 . S
C3229 C3224 1.425 . S
C3229 C3226 1.409 . S
C3229 C3227 1.415 . S
C3230 H3220 0.930 . S
C3230 C3228 1.419 . S
C3230 C3231 1.362 . S
C3231 H3221 0.930 . S
C3231 C3224 1.409 . S
C3231 C3230 1.362 . S
H3232 C3238 0.930 . S
H3233 C3241 0.930 . S
H3234 C3242 0.930 . S
H3235 C3243 0.930 . S
H3236 C3246 0.930 . S
H3237 C3247 0.930 . S
C3238 H3232 0.930 . S
C3238 C3239 1.355 . S
C3238 C3240 1.415 . S
C3239 C3238 1.355 . S
C3239 C3241 1.419 . S
C3240 C3238 1.415 . S
C3240 C3245 1.425 . S
C3240 C3247 1.409 . S
C3241 H3233 0.930 . S
C3241 C3239 1.419 . S
C3241 C3242 1.362 . S
C3242 H3234 0.930 . S
C3242 C3241 1.362 . S
C3242 C3245 1.409 . S
C3243 H3235 0.930 . S
C3243 C3244 1.355 . S
C3243 C3245 1.415 . S
C3244 C3243 1.355 . S
C3244 C3246 1.419 . S
C3245 C3240 1.425 . S
C3245 C3242 1.409 . S
C3245 C3243 1.415 . S
C3246 H3236 0.930 . S
C3246 C3244 1.419 . S
C3246 C3247 1.362 . S
C3247 H3237 0.930 . S
C3247 C3240 1.409 . S
C3247 C3246 1.362 . S
H3248 C3254 0.930 . S
H3249 C3257 0.930 . S
H3250 C3258 0.930 . S
H3251 C3259 0.930 . S
H3252 C3262 0.930 . S
H3253 C3263 0.930 . S
C3254 H3248 0.930 . S
C3254 C3255 1.355 . S
C3254 C3256 1.415 . S
C3255 C3254 1.355 . S
C3255 C3257 1.419 . S
C3256 C3254 1.415 . S
C3256 C3261 1.425 . S
C3256 C3263 1.409 . S
C3257 H3249 0.930 . S
C3257 C3255 1.419 . S
C3257 C3258 1.362 . S
C3258 H3250 0.930 . S
C3258 C3257 1.362 . S
C3258 C3261 1.409 . S
C3259 H3251 0.930 . S
C3259 C3260 1.355 . S
C3259 C3261 1.415 . S
C3260 C3259 1.355 . S
C3260 C3262 1.419 . S
C3261 C3256 1.425 . S
C3261 C3258 1.409 . S
C3261 C3259 1.415 . S
C3262 H3252 0.930 . S
C3262 C3260 1.419 . S
C3262 C3263 1.362 . S
C3263 H3253 0.930 . S
C3263 C3256 1.409 . S
C3263 C3262 1.362 . S
H3264 C3270 0.930 . S
H3265 C3273 0.930 . S
H3266 C3274 0.930 . S
H3267 C3275 0.930 . S
H3268 C3278 0.930 . S
H3269 C3279 0.930 . S
C3270 H3264 0.930 . S
C3270 C3271 1.355 . S
C3270 C3272 1.415 . S
C3271 C3270 1.355 . S
C3271 C3273 1.419 . S
C3272 C3270 1.415 . S
C3272 C3277 1.425 . S
C3272 C3279 1.409 . S
C3273 H3265 0.930 . S
C3273 C3271 1.419 . S
C3273 C3274 1.362 . S
C3274 H3266 0.930 . S
C3274 C3273 1.362 . S
C3274 C3277 1.409 . S
C3275 H3267 0.930 . S
C3275 C3276 1.355 . S
C3275 C3277 1.415 . S
C3276 C3275 1.355 . S
C3276 C3278 1.419 . S
C3277 C3272 1.425 . S
C3277 C3274 1.409 . S
C3277 C3275 1.415 . S
C3278 H3268 0.930 . S
C3278 C3276 1.419 . S
C3278 C3279 1.362 . S
C3279 H3269 0.930 . S
C3279 C3272 1.409 . S
C3279 C3278 1.362 . S
H3280 C3286 0.930 . S
H3281 C3289 0.930 . S
H3282 C3290 0.930 . S
H3283 C3291 0.930 . S
H3284 C3294 0.930 . S
H3285 C3295 0.930 . S
C3286 H3280 0.930 . S
C3286 C3287 1.355 . S
C3286 C3288 1.415 . S
C3287 C3286 1.355 . S
C3287 C3289 1.419 . S
C3288 C3286 1.415 . S
C3288 C3293 1.425 . S
C3288 C3295 1.409 . S
C3289 H3281 0.930 . S
C3289 C3287 1.419 . S
C3289 C3290 1.362 . S
C3290 H3282 0.930 . S
C3290 C3289 1.362 . S
C3290 C3293 1.409 . S
C3291 H3283 0.930 . S
C3291 C3292 1.355 . S
C3291 C3293 1.415 . S
C3292 C3291 1.355 . S
C3292 C3294 1.419 . S
C3293 C3288 1.425 . S
C3293 C3290 1.409 . S
C3293 C3291 1.415 . S
C3294 H3284 0.930 . S
C3294 C3292 1.419 . S
C3294 C3295 1.362 . S
C3295 H3285 0.930 . S
C3295 C3288 1.409 . S
C3295 C3294 1.362 . S
H3296 C3302 0.930 . S
H3297 C3305 0.930 . S
H3298 C3306 0.930 . S
H3299 C3307 0.930 . S
H3300 C3310 0.930 . S
H3301 C3311 0.930 . S
C3302 H3296 0.930 . S
C3302 C3303 1.355 . S
C3302 C3304 1.415 . S
C3303 C3302 1.355 . S
C3303 C3305 1.419 . S
C3304 C3302 1.415 . S
C3304 C3309 1.425 . S
C3304 C3311 1.409 . S
C3305 H3297 0.930 . S
C3305 C3303 1.419 . S
C3305 C3306 1.362 . S
C3306 H3298 0.930 . S
C3306 C3305 1.362 . S
C3306 C3309 1.409 . S
C3307 H3299 0.930 . S
C3307 C3308 1.355 . S
C3307 C3309 1.415 . S
C3308 C3307 1.355 . S
C3308 C3310 1.419 . S
C3309 C3304 1.425 . S
C3309 C3306 1.409 . S
C3309 C3307 1.415 . S
C3310 H3300 0.930 . S
C3310 C3308 1.419 . S
C3310 C3311 1.362 . S
C3311 H3301 0.930 . S
C3311 C3304 1.409 . S
C3311 C3310 1.362 . S
H3312 C3318 0.930 . S
H3313 C3321 0.930 . S
H3314 C3322 0.930 . S
H3315 C3323 0.930 . S
H3316 C3326 0.930 . S
H3317 C3327 0.930 . S
C3318 H3312 0.930 . S
C3318 C3319 1.355 . S
C3318 C3320 1.415 . S
C3319 C3318 1.355 . S
C3319 C3321 1.419 . S
C3320 C3318 1.415 . S
C3320 C3325 1.425 . S
C3320 C3327 1.409 . S
C3321 H3313 0.930 . S
C3321 C3319 1.419 . S
C3321 C3322 1.362 . S
C3322 H3314 0.930 . S
C3322 C3321 1.362 . S
C3322 C3325 1.409 . S
C3323 H3315 0.930 . S
C3323 C3324 1.355 . S
C3323 C3325 1.415 . S
C3324 C3323 1.355 . S
C3324 C3326 1.419 . S
C3325 C3320 1.425 . S
C3325 C3322 1.409 . S
C3325 C3323 1.415 . S
C3326 H3316 0.930 . S
C3326 C3324 1.419 . S
C3326 C3327 1.362 . S
C3327 H3317 0.930 . S
C3327 C3320 1.409 . S
C3327 C3326 1.362 . S
H3328 C3334 0.930 . S
H3329 C3337 0.930 . S
H3330 C3338 0.930 . S
H3331 C3339 0.930 . S
H3332 C3342 0.930 . S
H3333 C3343 0.930 . S
C3334 H3328 0.930 . S
C3334 C3335 1.355 . S
C3334 C3336 1.415 . S
C3335 C3334 1.355 . S
C3335 C3337 1.419 . S
C3336 C3334 1.415 . S
C3336 C3341 1.425 . S
C3336 C3343 1.409 . S
C3337 H3329 0.930 . S
C3337 C3335 1.419 . S
C3337 C3338 1.362 . S
C3338 H3330 0.930 . S
C3338 C3337 1.362 . S
C3338 C3341 1.409 . S
C3339 H3331 0.930 . S
C3339 C3340 1.355 . S
C3339 C3341 1.415 . S
C3340 C3339 1.355 . S
C3340 C3342 1.419 . S
C3341 C3336 1.425 . S
C3341 C3338 1.409 . S
C3341 C3339 1.415 . S
C3342 H3332 0.930 . S
C3342 C3340 1.419 . S
C3342 C3343 1.362 . S
C3343 H3333 0.930 . S
C3343 C3336 1.409 . S
C3343 C3342 1.362 . S
H3344 C3350 0.930 . S
H3345 C3353 0.930 . S
H3346 C3354 0.930 . S
H3347 C3355 0.930 . S
H3348 C3358 0.930 . S
H3349 C3359 0.930 . S
C3350 H3344 0.930 . S
C3350 C3351 1.355 . S
C3350 C3352 1.415 . S
C3351 C3350 1.355 . S
C3351 C3353 1.419 . S
C3352 C3350 1.415 . S
C3352 C3357 1.425 . S
C3352 C3359 1.409 . S
C3353 H3345 0.930 . S
C3353 C3351 1.419 . S
C3353 C3354 1.362 . S
C3354 H3346 0.930 . S
C3354 C3353 1.362 . S
C3354 C3357 1.409 . S
C3355 H3347 0.930 . S
C3355 C3356 1.355 . S
C3355 C3357 1.415 . S
C3356 C3355 1.355 . S
C3356 C3358 1.419 . S
C3357 C3352 1.425 . S
C3357 C3354 1.409 . S
C3357 C3355 1.415 . S
C3358 H3348 0.930 . S
C3358 C3356 1.419 . S
C3358 C3359 1.362 . S
C3359 H3349 0.930 . S
C3359 C3352 1.409 . S
C3359 C3358 1.362 . S
H3360 C3366 0.930 . S
H3361 C3369 0.930 . S
H3362 C3370 0.930 . S
H3363 C3371 0.930 . S
H3364 C3374 0.930 . S
H3365 C3375 0.930 . S
C3366 H3360 0.930 . S
C3366 C3367 1.355 . S
C3366 C3368 1.415 . S
C3367 C3366 1.355 . S
C3367 C3369 1.419 . S
C3368 C3366 1.415 . S
C3368 C3373 1.425 . S
C3368 C3375 1.409 . S
C3369 H3361 0.930 . S
C3369 C3367 1.419 . S
C3369 C3370 1.362 . S
C3370 H3362 0.930 . S
C3370 C3369 1.362 . S
C3370 C3373 1.409 . S
C3371 H3363 0.930 . S
C3371 C3372 1.355 . S
C3371 C3373 1.415 . S
C3372 C3371 1.355 . S
C3372 C3374 1.419 . S
C3373 C3368 1.425 . S
C3373 C3370 1.409 . S
C3373 C3371 1.415 . S
C3374 H3364 0.930 . S
C3374 C3372 1.419 . S
C3374 C3375 1.362 . S
C3375 H3365 0.930 . S
C3375 C3368 1.409 . S
C3375 C3374 1.362 . S
H3376 C3382 0.930 . S
H3377 C3385 0.930 . S
H3378 C3386 0.930 . S
H3379 C3387 0.930 . S
H3380 C3390 0.930 . S
H3381 C3391 0.930 . S
C3382 H3376 0.930 . S
C3382 C3383 1.355 . S
C3382 C3384 1.415 . S
C3383 C3382 1.355 . S
C3383 C3385 1.419 . S
C3384 C3382 1.415 . S
C3384 C3389 1.425 . S
C3384 C3391 1.409 . S
C3385 H3377 0.930 . S
C3385 C3383 1.419 . S
C3385 C3386 1.362 . S
C3386 H3378 0.930 . S
C3386 C3385 1.362 . S
C3386 C3389 1.409 . S
C3387 H3379 0.930 . S
C3387 C3388 1.355 . S
C3387 C3389 1.415 . S
C3388 C3387 1.355 . S
C3388 C3390 1.419 . S
C3389 C3384 1.425 . S
C3389 C3386 1.409 . S
C3389 C3387 1.415 . S
C3390 H3380 0.930 . S
C3390 C3388 1.419 . S
C3390 C3391 1.362 . S
C3391 H3381 0.930 . S
C3391 C3384 1.409 . S
C3391 C3390 1.362 . S
H3392 C3398 0.930 . S
H3393 C3401 0.930 . S
H3394 C3402 0.930 . S
H3395 C3403 0.930 . S
H3396 C3406 0.930 . S
H3397 C3407 0.930 . S
C3398 H3392 0.930 . S
C3398 C3399 1.355 . S
C3398 C3400 1.415 . S
C3399 C3398 1.355 . S
C3399 C3401 1.419 . S
C3400 C3398 1.415 . S
C3400 C3405 1.425 . S
C3400 C3407 1.409 . S
C3401 H3393 0.930 . S
C3401 C3399 1.419 . S
C3401 C3402 1.362 . S
C3402 H3394 0.930 . S
C3402 C3401 1.362 . S
C3402 C3405 1.409 . S
C3403 H3395 0.930 . S
C3403 C3404 1.355 . S
C3403 C3405 1.415 . S
C3404 C3403 1.355 . S
C3404 C3406 1.419 . S
C3405 C3400 1.425 . S
C3405 C3402 1.409 . S
C3405 C3403 1.415 . S
C3406 H3396 0.930 . S
C3406 C3404 1.419 . S
C3406 C3407 1.362 . S
C3407 H3397 0.930 . S
C3407 C3400 1.409 . S
C3407 C3406 1.362 . S
H3408 C3414 0.930 . S
H3409 C3417 0.930 . S
H3410 C3418 0.930 . S
H3411 C3419 0.930 . S
H3412 C3422 0.930 . S
H3413 C3423 0.930 . S
C3414 H3408 0.930 . S
C3414 C3415 1.355 . S
C3414 C3416 1.415 . S
C3415 C3414 1.355 . S
C3415 C3417 1.419 . S
C3416 C3414 1.415 . S
C3416 C3421 1.425 . S
C3416 C3423 1.409 . S
C3417 H3409 0.930 . S
C3417 C3415 1.419 . S
C3417 C3418 1.362 . S
C3418 H3410 0.930 . S
C3418 C3417 1.362 . S
C3418 C3421 1.409 . S
C3419 H3411 0.930 . S
C3419 C3420 1.355 . S
C3419 C3421 1.415 . S
C3420 C3419 1.355 . S
C3420 C3422 1.419 . S
C3421 C3416 1.425 . S
C3421 C3418 1.409 . S
C3421 C3419 1.415 . S
C3422 H3412 0.930 . S
C3422 C3420 1.419 . S
C3422 C3423 1.362 . S
C3423 H3413 0.930 . S
C3423 C3416 1.409 . S
C3423 C3422 1.362 . S
H3424 C3430 0.930 . S
H3425 C3433 0.930 . S
H3426 C3434 0.930 . S
H3427 C3435 0.930 . S
H3428 C3438 0.930 . S
H3429 C3439 0.930 . S
C3430 H3424 0.930 . S
C3430 C3431 1.355 . S
C3430 C3432 1.415 . S
C3431 C3430 1.355 . S
C3431 C3433 1.419 . S
C3432 C3430 1.415 . S
C3432 C3437 1.425 . S
C3432 C3439 1.409 . S
C3433 H3425 0.930 . S
C3433 C3431 1.419 . S
C3433 C3434 1.362 . S
C3434 H3426 0.930 . S
C3434 C3433 1.362 . S
C3434 C3437 1.409 . S
C3435 H3427 0.930 . S
C3435 C3436 1.355 . S
C3435 C3437 1.415 . S
C3436 C3435 1.355 . S
C3436 C3438 1.419 . S
C3437 C3432 1.425 . S
C3437 C3434 1.409 . S
C3437 C3435 1.415 . S
C3438 H3428 0.930 . S
C3438 C3436 1.419 . S
C3438 C3439 1.362 . S
C3439 H3429 0.930 . S
C3439 C3432 1.409 . S
C3439 C3438 1.362 . S
H3440 C3446 0.930 . S
H3441 C3449 0.930 . S
H3442 C3450 0.930 . S
H3443 C3451 0.930 . S
H3444 C3454 0.930 . S
H3445 C3455 0.930 . S
C3446 H3440 0.930 . S
C3446 C3447 1.355 . S
C3446 C3448 1.415 . S
C3447 C3446 1.355 . S
C3447 C3449 1.419 . S
C3448 C3446 1.415 . S
C3448 C3453 1.425 . S
C3448 C3455 1.409 . S
C3449 H3441 0.930 . S
C3449 C3447 1.419 . S
C3449 C3450 1.362 . S
C3450 H3442 0.930 . S
C3450 C3449 1.362 . S
C3450 C3453 1.409 . S
C3451 H3443 0.930 . S
C3451 C3452 1.355 . S
C3451 C3453 1.415 . S
C3452 C3451 1.355 . S
C3452 C3454 1.419 . S
C3453 C3448 1.425 . S
C3453 C3450 1.409 . S
C3453 C3451 1.415 . S
C3454 H3444 0.930 . S
C3454 C3452 1.419 . S
C3454 C3455 1.362 . S
C3455 H3445 0.930 . S
C3455 C3448 1.409 . S
C3455 C3454 1.362 . S
H3456 C3462 0.930 . S
H3457 C3465 0.930 . S
H3458 C3466 0.930 . S
H3459 C3467 0.930 . S
H3460 C3470 0.930 . S
H3461 C3471 0.930 . S
C3462 H3456 0.930 . S
C3462 C3463 1.355 . S
C3462 C3464 1.415 . S
C3463 C3462 1.355 . S
C3463 C3465 1.419 . S
C3464 C3462 1.415 . S
C3464 C3469 1.425 . S
C3464 C3471 1.409 . S
C3465 H3457 0.930 . S
C3465 C3463 1.419 . S
C3465 C3466 1.362 . S
C3466 H3458 0.930 . S
C3466 C3465 1.362 . S
C3466 C3469 1.409 . S
C3467 H3459 0.930 . S
C3467 C3468 1.355 . S
C3467 C3469 1.415 . S
C3468 C3467 1.355 . S
C3468 C3470 1.419 . S
C3469 C3464 1.425 . S
C3469 C3466 1.409 . S
C3469 C3467 1.415 . S
C3470 H3460 0.930 . S
C3470 C3468 1.419 . S
C3470 C3471 1.362 . S
C3471 H3461 0.930 . S
C3471 C3464 1.409 . S
C3471 C3470 1.362 . S
H3472 C3478 0.930 . S
H3473 C3481 0.930 . S
H3474 C3482 0.930 . S
H3475 C3483 0.930 . S
H3476 C3486 0.930 . S
H3477 C3487 0.930 . S
C3478 H3472 0.930 . S
C3478 C3479 1.355 . S
C3478 C3480 1.415 . S
C3479 C3478 1.355 . S
C3479 C3481 1.419 . S
C3480 C3478 1.415 . S
C3480 C3485 1.425 . S
C3480 C3487 1.409 . S
C3481 H3473 0.930 . S
C3481 C3479 1.419 . S
C3481 C3482 1.362 . S
C3482 H3474 0.930 . S
C3482 C3481 1.362 . S
C3482 C3485 1.409 . S
C3483 H3475 0.930 . S
C3483 C3484 1.355 . S
C3483 C3485 1.415 . S
C3484 C3483 1.355 . S
C3484 C3486 1.419 . S
C3485 C3480 1.425 . S
C3485 C3482 1.409 . S
C3485 C3483 1.415 . S
C3486 H3476 0.930 . S
C3486 C3484 1.419 . S
C3486 C3487 1.362 . S
C3487 H3477 0.930 . S
C3487 C3480 1.409 . S
C3487 C3486 1.362 . S
H3488 C3494 0.930 . S
H3489 C3497 0.930 . S
H3490 C3498 0.930 . S
H3491 C3499 0.930 . S
H3492 C3502 0.930 . S
H3493 C3503 0.930 . S
C3494 H3488 0.930 . S
C3494 C3495 1.355 . S
C3494 C3496 1.415 . S
C3495 C3494 1.355 . S
C3495 C3497 1.419 . S
C3496 C3494 1.415 . S
C3496 C3501 1.425 . S
C3496 C3503 1.409 . S
C3497 H3489 0.930 . S
C3497 C3495 1.419 . S
C3497 C3498 1.362 . S
C3498 H3490 0.930 . S
C3498 C3497 1.362 . S
C3498 C3501 1.409 . S
C3499 H3491 0.930 . S
C3499 C3500 1.355 . S
C3499 C3501 1.415 . S
C3500 C3499 1.355 . S
C3500 C3502 1.419 . S
C3501 C3496 1.425 . S
C3501 C3498 1.409 . S
C3501 C3499 1.415 . S
C3502 H3492 0.930 . S
C3502 C3500 1.419 . S
C3502 C3503 1.362 . S
C3503 H3493 0.930 . S
C3503 C3496 1.409 . S
C3503 C3502 1.362 . S
H3504 C3510 0.930 . S
H3505 C3513 0.930 . S
H3506 C3514 0.930 . S
H3507 C3515 0.930 . S
H3508 C3518 0.930 . S
H3509 C3519 0.930 . S
C3510 H3504 0.930 . S
C3510 C3511 1.355 . S
C3510 C3512 1.415 . S
C3511 C3510 1.355 . S
C3511 C3513 1.419 . S
C3512 C3510 1.415 . S
C3512 C3517 1.425 . S
C3512 C3519 1.409 . S
C3513 H3505 0.930 . S
C3513 C3511 1.419 . S
C3513 C3514 1.362 . S
C3514 H3506 0.930 . S
C3514 C3513 1.362 . S
C3514 C3517 1.409 . S
C3515 H3507 0.930 . S
C3515 C3516 1.355 . S
C3515 C3517 1.415 . S
C3516 C3515 1.355 . S
C3516 C3518 1.419 . S
C3517 C3512 1.425 . S
C3517 C3514 1.409 . S
C3517 C3515 1.415 . S
C3518 H3508 0.930 . S
C3518 C3516 1.419 . S
C3518 C3519 1.362 . S
C3519 H3509 0.930 . S
C3519 C3512 1.409 . S
C3519 C3518 1.362 . S
H3520 C3526 0.930 . S
H3521 C3529 0.930 . S
H3522 C3530 0.930 . S
H3523 C3531 0.930 . S
H3524 C3534 0.930 . S
H3525 C3535 0.930 . S
C3526 H3520 0.930 . S
C3526 C3527 1.355 . S
C3526 C3528 1.415 . S
C3527 C3526 1.355 . S
C3527 C3529 1.419 . S
C3528 C3526 1.415 . S
C3528 C3533 1.425 . S
C3528 C3535 1.409 . S
C3529 H3521 0.930 . S
C3529 C3527 1.419 . S
C3529 C3530 1.362 . S
C3530 H3522 0.930 . S
C3530 C3529 1.362 . S
C3530 C3533 1.409 . S
C3531 H3523 0.930 . S
C3531 C3532 1.355 . S
C3531 C3533 1.415 . S
C3532 C3531 1.355 . S
C3532 C3534 1.419 . S
C3533 C3528 1.425 . S
C3533 C3530 1.409 . S
C3533 C3531 1.415 . S
C3534 H3524 0.930 . S
C3534 C3532 1.419 . S
C3534 C3535 1.362 . S
C3535 H3525 0.930 . S
C3535 C3528 1.409 . S
C3535 C3534 1.362 . S
H3536 C3542 0.930 . S
H3537 C3545 0.930 . S
H3538 C3546 0.930 . S
H3539 C3547 0.930 . S
H3540 C3550 0.930 . S
H3541 C3551 0.930 . S
C3542 H3536 0.930 . S
C3542 C3543 1.355 . S
C3542 C3544 1.415 . S
C3543 C3542 1.355 . S
C3543 C3545 1.419 . S
C3544 C3542 1.415 . S
C3544 C3549 1.425 . S
C3544 C3551 1.409 . S
C3545 H3537 0.930 . S
C3545 C3543 1.419 . S
C3545 C3546 1.362 . S
C3546 H3538 0.930 . S
C3546 C3545 1.362 . S
C3546 C3549 1.409 . S
C3547 H3539 0.930 . S
C3547 C3548 1.355 . S
C3547 C3549 1.415 . S
C3548 C3547 1.355 . S
C3548 C3550 1.419 . S
C3549 C3544 1.425 . S
C3549 C3546 1.409 . S
C3549 C3547 1.415 . S
C3550 H3540 0.930 . S
C3550 C3548 1.419 . S
C3550 C3551 1.362 . S
C3551 H3541 0.930 . S
C3551 C3544 1.409 . S
C3551 C3550 1.362 . S
H3552 C3558 0.930 . S
H3553 C3561 0.930 . S
H3554 C3562 0.930 . S
H3555 C3563 0.930 . S
H3556 C3566 0.930 . S
H3557 C3567 0.930 . S
C3558 H3552 0.930 . S
C3558 C3559 1.355 . S
C3558 C3560 1.415 . S
C3559 C3558 1.355 . S
C3559 C3561 1.419 . S
C3560 C3558 1.415 . S
C3560 C3565 1.425 . S
C3560 C3567 1.409 . S
C3561 H3553 0.930 . S
C3561 C3559 1.419 . S
C3561 C3562 1.362 . S
C3562 H3554 0.930 . S
C3562 C3561 1.362 . S
C3562 C3565 1.409 . S
C3563 H3555 0.930 . S
C3563 C3564 1.355 . S
C3563 C3565 1.415 . S
C3564 C3563 1.355 . S
C3564 C3566 1.419 . S
C3565 C3560 1.425 . S
C3565 C3562 1.409 . S
C3565 C3563 1.415 . S
C3566 H3556 0.930 . S
C3566 C3564 1.419 . S
C3566 C3567 1.362 . S
C3567 H3557 0.930 . S
C3567 C3560 1.409 . S
C3567 C3566 1.362 . S
H3568 C3574 0.930 . S
H3569 C3577 0.930 . S
H3570 C3578 0.930 . S
H3571 C3579 0.930 . S
H3572 C3582 0.930 . S
H3573 C3583 0.930 . S
C3574 H3568 0.930 . S
C3574 C3575 1.355 . S
C3574 C3576 1.415 . S
C3575 C3574 1.355 . S
C3575 C3577 1.419 . S
C3576 C3574 1.415 . S
C3576 C3581 1.425 . S
C3576 C3583 1.409 . S
C3577 H3569 0.930 . S
C3577 C3575 1.419 . S
C3577 C3578 1.362 . S
C3578 H3570 0.930 . S
C3578 C3577 1.362 . S
C3578 C3581 1.409 . S
C3579 H3571 0.930 . S
C3579 C3580 1.355 . S
C3579 C3581 1.415 . S
C3580 C3579 1.355 . S
C3580 C3582 1.419 . S
C3581 C3576 1.425 . S
C3581 C3578 1.409 . S
C3581 C3579 1.415 . S
C3582 H3572 0.930 . S
C3582 C3580 1.419 . S
C3582 C3583 1.362 . S
C3583 H3573 0.930 . S
C3583 C3576 1.409 . S
C3583 C3582 1.362 . S
H3584 C3590 0.930 . S
H3585 C3593 0.930 . S
H3586 C3594 0.930 . S
H3587 C3595 0.930 . S
H3588 C3598 0.930 . S
H3589 C3599 0.930 . S
C3590 H3584 0.930 . S
C3590 C3591 1.355 . S
C3590 C3592 1.415 . S
C3591 C3590 1.355 . S
C3591 C3593 1.419 . S
C3592 C3590 1.415 . S
C3592 C3597 1.425 . S
C3592 C3599 1.409 . S
C3593 H3585 0.930 . S
C3593 C3591 1.419 . S
C3593 C3594 1.362 . S
C3594 H3586 0.930 . S
C3594 C3593 1.362 . S
C3594 C3597 1.409 . S
C3595 H3587 0.930 . S
C3595 C3596 1.355 . S
C3595 C3597 1.415 . S
C3596 C3595 1.355 . S
C3596 C3598 1.419 . S
C3597 C3592 1.425 . S
C3597 C3594 1.409 . S
C3597 C3595 1.415 . S
C3598 H3588 0.930 . S
C3598 C3596 1.419 . S
C3598 C3599 1.362 . S
C3599 H3589 0.930 . S
C3599 C3592 1.409 . S
C3599 C3598 1.362 . S
H3600 C3606 0.930 . S
H3601 C3609 0.930 . S
H3602 C3610 0.930 . S
H3603 C3611 0.930 . S
H3604 C3614 0.930 . S
H3605 C3615 0.930 . S
C3606 H3600 0.930 . S
C3606 C3607 1.355 . S
C3606 C3608 1.415 . S
C3607 C3606 1.355 . S
C3607 C3609 1.419 . S
C3608 C3606 1.415 . S
C3608 C3613 1.425 . S
C3608 C3615 1.409 . S
C3609 H3601 0.930 . S
C3609 C3607 1.419 . S
C3609 C3610 1.362 . S
C3610 H3602 0.930 . S
C3610 C3609 1.362 . S
C3610 C3613 1.409 . S
C3611 H3603 0.930 . S
C3611 C3612 1.355 . S
C3611 C3613 1.415 . S
C3612 C3611 1.355 . S
C3612 C3614 1.419 . S
C3613 C3608 1.425 . S
C3613 C3610 1.409 . S
C3613 C3611 1.415 . S
C3614 H3604 0.930 . S
C3614 C3612 1.419 . S
C3614 C3615 1.362 . S
C3615 H3605 0.930 . S
C3615 C3608 1.409 . S
C3615 C3614 1.362 . S
H3616 C3622 0.930 . S
H3617 C3625 0.930 . S
H3618 C3626 0.930 . S
H3619 C3627 0.930 . S
H3620 C3630 0.930 . S
H3621 C3631 0.930 . S
C3622 H3616 0.930 . S
C3622 C3623 1.355 . S
C3622 C3624 1.415 . S
C3623 C3622 1.355 . S
C3623 C3625 1.419 . S
C3624 C3622 1.415 . S
C3624 C3629 1.425 . S
C3624 C3631 1.409 . S
C3625 H3617 0.930 . S
C3625 C3623 1.419 . S
C3625 C3626 1.362 . S
C3626 H3618 0.930 . S
C3626 C3625 1.362 . S
C3626 C3629 1.409 . S
C3627 H3619 0.930 . S
C3627 C3628 1.355 . S
C3627 C3629 1.415 . S
C3628 C3627 1.355 . S
C3628 C3630 1.419 . S
C3629 C3624 1.425 . S
C3629 C3626 1.409 . S
C3629 C3627 1.415 . S
C3630 H3620 0.930 . S
C3630 C3628 1.419 . S
C3630 C3631 1.362 . S
C3631 H3621 0.930 . S
C3631 C3624 1.409 . S
C3631 C3630 1.362 . S
H3632 C3638 0.930 . S
H3633 C3641 0.930 . S
H3634 C3642 0.930 . S
H3635 C3643 0.930 . S
H3636 C3646 0.930 . S
H3637 C3647 0.930 . S
C3638 H3632 0.930 . S
C3638 C3639 1.355 . S
C3638 C3640 1.415 . S
C3639 C3638 1.355 . S
C3639 C3641 1.419 . S
C3640 C3638 1.415 . S
C3640 C3645 1.425 . S
C3640 C3647 1.409 . S
C3641 H3633 0.930 . S
C3641 C3639 1.419 . S
C3641 C3642 1.362 . S
C3642 H3634 0.930 . S
C3642 C3641 1.362 . S
C3642 C3645 1.409 . S
C3643 H3635 0.930 . S
C3643 C3644 1.355 . S
C3643 C3645 1.415 . S
C3644 C3643 1.355 . S
C3644 C3646 1.419 . S
C3645 C3640 1.425 . S
C3645 C3642 1.409 . S
C3645 C3643 1.415 . S
C3646 H3636 0.930 . S
C3646 C3644 1.419 . S
C3646 C3647 1.362 . S
C3647 H3637 0.930 . S
C3647 C3640 1.409 . S
C3647 C3646 1.362 . S
H3648 C3654 0.930 . S
H3649 C3657 0.930 . S
H3650 C3658 0.930 . S
H3651 C3659 0.930 . S
H3652 C3662 0.930 . S
H3653 C3663 0.930 . S
C3654 H3648 0.930 . S
C3654 C3655 1.355 . S
C3654 C3656 1.415 . S
C3655 C3654 1.355 . S
C3655 C3657 1.419 . S
C3656 C3654 1.415 . S
C3656 C3661 1.425 1_655 S
C3656 C3663 1.409 1_655 S
C3657 H3649 0.930 . S
C3657 C3655 1.419 . S
C3657 C3658 1.362 . S
C3658 H3650 0.930 . S
C3658 C3657 1.362 . S
C3658 C3661 1.409 1_655 S
C3659 H3651 0.930 . S
C3659 C3660 1.355 . S
C3659 C3661 1.415 . S
C3660 C3659 1.355 . S
C3660 C3662 1.419 . S
C3661 C3656 1.425 1_455 S
C3661 C3658 1.409 1_455 S
C3661 C3659 1.415 . S
C3662 H3652 0.930 . S
C3662 C3660 1.419 . S
C3662 C3663 1.362 . S
C3663 H3653 0.930 . S
C3663 C3656 1.409 1_455 S
C3663 C3662 1.362 . S
H3664 C3670 0.930 . S
H3665 C3673 0.930 . S
H3666 C3674 0.930 . S
H3667 C3675 0.930 . S
H3668 C3678 0.930 . S
H3669 C3679 0.930 . S
C3670 H3664 0.930 . S
C3670 C3671 1.355 . S
C3670 C3672 1.415 . S
C3671 C3670 1.355 . S
C3671 C3673 1.419 . S
C3672 C3670 1.415 . S
C3672 C3677 1.425 . S
C3672 C3679 1.409 1_545 S
C3673 H3665 0.930 . S
C3673 C3671 1.419 . S
C3673 C3674 1.362 . S
C3674 H3666 0.930 . S
C3674 C3673 1.362 . S
C3674 C3677 1.409 . S
C3675 H3667 0.930 . S
C3675 C3676 1.355 . S
C3675 C3677 1.415 1_565 S
C3676 C3675 1.355 . S
C3676 C3678 1.419 . S
C3677 C3672 1.425 . S
C3677 C3674 1.409 . S
C3677 C3675 1.415 1_545 S
C3678 H3668 0.930 . S
C3678 C3676 1.419 . S
C3678 C3679 1.362 . S
C3679 H3669 0.930 . S
C3679 C3672 1.409 1_565 S
C3679 C3678 1.362 . S
H3680 C3686 0.930 . S
H3681 C3689 0.930 . S
H3682 C3690 0.930 . S
H3683 C3691 0.930 . S
H3684 C3694 0.930 . S
H3685 C3695 0.930 . S
C3686 H3680 0.930 . S
C3686 C3687 1.355 . S
C3686 C3688 1.415 . S
C3687 C3686 1.355 . S
C3687 C3689 1.419 . S
C3688 C3686 1.415 . S
C3688 C3693 1.425 1_455 S
C3688 C3695 1.409 1_455 S
C3689 H3681 0.930 . S
C3689 C3687 1.419 . S
C3689 C3690 1.362 . S
C3690 H3682 0.930 . S
C3690 C3689 1.362 . S
C3690 C3693 1.409 1_455 S
C3691 H3683 0.930 . S
C3691 C3692 1.355 . S
C3691 C3693 1.415 . S
C3692 C3691 1.355 . S
C3692 C3694 1.419 . S
C3693 C3688 1.425 1_655 S
C3693 C3690 1.409 1_655 S
C3693 C3691 1.415 . S
C3694 H3684 0.930 . S
C3694 C3692 1.419 . S
C3694 C3695 1.362 . S
C3695 H3685 0.930 . S
C3695 C3688 1.409 1_655 S
C3695 C3694 1.362 . S
H3696 C3702 0.930 . S
H3697 C3705 0.930 . S
H3698 C3706 0.930 . S
H3699 C3707 0.930 . S
H3700 C3710 0.930 . S
H3701 C3711 0.931 1_565 S
C3702 H3696 0.930 . S
C3702 C3703 1.355 . S
C3702 C3704 1.415 . S
C3703 C3702 1.355 . S
C3703 C3705 1.419 . S
C3704 C3702 1.415 . S
C3704 C3709 1.425 . S
C3704 C3711 1.409 1_565 S
C3705 H3697 0.930 . S
C3705 C3703 1.419 . S
C3705 C3706 1.362 . S
C3706 H3698 0.930 . S
C3706 C3705 1.362 . S
C3706 C3709 1.409 . S
C3707 H3699 0.930 . S
C3707 C3708 1.355 . S
C3707 C3709 1.415 1_545 S
C3708 C3707 1.355 . S
C3708 C3710 1.419 . S
C3709 C3704 1.425 . S
C3709 C3706 1.409 . S
C3709 C3707 1.415 1_565 S
C3710 H3700 0.930 . S
C3710 C3708 1.419 . S
C3710 C3711 1.362 . S
C3711 H3701 0.931 1_545 S
C3711 C3704 1.409 1_545 S
C3711 C3710 1.362 . S
H3712 C3718 0.930 . S
H3713 C3721 0.930 . S
H3714 C3722 0.930 . S
H3715 C3723 0.930 . S
H3716 C3726 0.930 . S
H3717 C3727 0.930 . S
C3718 H3712 0.930 . S
C3718 C3719 1.355 . S
C3718 C3720 1.415 . S
C3719 C3718 1.355 . S
C3719 C3721 1.419 . S
C3720 C3718 1.415 . S
C3720 C3725 1.425 1_655 S
C3720 C3727 1.409 1_655 S
C3721 H3713 0.930 . S
C3721 C3719 1.419 . S
C3721 C3722 1.362 . S
C3722 H3714 0.930 . S
C3722 C3721 1.362 . S
C3722 C3725 1.409 1_655 S
C3723 H3715 0.930 . S
C3723 C3724 1.355 . S
C3723 C3725 1.415 . S
C3724 C3723 1.355 . S
C3724 C3726 1.419 . S
C3725 C3720 1.425 1_455 S
C3725 C3722 1.409 1_455 S
C3725 C3723 1.415 . S
C3726 H3716 0.930 . S
C3726 C3724 1.419 . S
C3726 C3727 1.362 . S
C3727 H3717 0.930 . S
C3727 C3720 1.409 1_455 S
C3727 C3726 1.362 . S
H3728 C3734 0.930 . S
H3729 C3737 0.930 . S
H3730 C3738 0.930 1_545 S
H3731 C3739 0.930 . S
H3732 C3742 0.930 . S
H3733 C3743 0.930 . S
C3734 H3728 0.930 . S
C3734 C3735 1.355 . S
C3734 C3736 1.353 1_565 S
C3735 C3734 1.355 . S
C3735 C3737 1.419 . S
C3736 C3734 1.353 1_545 S
C3736 C3741 1.453 . S
C3736 C3743 1.445 . S
C3737 H3729 0.930 . S
C3737 C3735 1.419 . S
C3737 C3738 1.362 . S
C3738 H3730 0.930 1_565 S
C3738 C3737 1.362 . S
C3738 C3741 1.409 1_565 S
C3739 H3731 0.930 . S
C3739 C3740 1.355 . S
C3739 C3741 1.415 . S
C3740 C3739 1.355 . S
C3740 C3742 1.419 . S
C3741 C3736 1.453 . S
C3741 C3738 1.409 1_545 S
C3741 C3739 1.415 . S
C3742 H3732 0.930 . S
C3742 C3740 1.419 . S
C3742 C3743 1.362 . S
C3743 H3733 0.930 . S
C3743 C3736 1.445 . S
C3743 C3742 1.362 . S
H3744 C3750 0.930 . S
H3745 C3753 0.930 . S
H3746 C3754 0.930 . S
H3747 C3755 0.930 . S
H3748 C3758 0.930 . S
H3749 C3759 0.930 . S
C3750 H3744 0.930 . S
C3750 C3751 1.355 . S
C3750 C3752 1.415 . S
C3751 C3750 1.355 . S
C3751 C3753 1.419 . S
C3752 C3750 1.415 . S
C3752 C3757 1.425 1_655 S
C3752 C3759 1.409 1_655 S
C3753 H3745 0.930 . S
C3753 C3751 1.419 . S
C3753 C3754 1.362 . S
C3754 H3746 0.930 . S
C3754 C3753 1.362 . S
C3754 C3757 1.409 1_655 S
C3755 H3747 0.930 . S
C3755 C3756 1.355 . S
C3755 C3757 1.415 . S
C3756 C3755 1.355 . S
C3756 C3758 1.419 . S
C3757 C3752 1.425 1_455 S
C3757 C3754 1.409 1_455 S
C3757 C3755 1.415 . S
C3758 H3748 0.930 . S
C3758 C3756 1.419 . S
C3758 C3759 1.362 . S
C3759 H3749 0.930 . S
C3759 C3752 1.409 1_455 S
C3759 C3758 1.362 . S
H3760 C3766 0.930 . S
H3761 C3769 0.930 . S
H3762 C3770 0.930 . S
H3763 C3771 0.930 . S
H3764 C3774 0.930 . S
H3765 C3775 0.930 1_565 S
C3766 H3760 0.930 . S
C3766 C3767 1.355 . S
C3766 C3768 1.415 . S
C3767 C3766 1.355 . S
C3767 C3769 1.419 . S
C3768 C3766 1.415 . S
C3768 C3773 1.425 . S
C3768 C3775 1.409 1_565 S
C3769 H3761 0.930 . S
C3769 C3767 1.419 . S
C3769 C3770 1.362 . S
C3770 H3762 0.930 . S
C3770 C3769 1.362 . S
C3770 C3773 1.409 . S
C3771 H3763 0.930 . S
C3771 C3772 1.355 . S
C3771 C3773 1.415 1_545 S
C3772 C3771 1.355 . S
C3772 C3774 1.419 . S
C3773 C3768 1.425 . S
C3773 C3770 1.409 . S
C3773 C3771 1.415 1_565 S
C3774 H3764 0.930 . S
C3774 C3772 1.419 . S
C3774 C3775 1.362 . S
C3775 H3765 0.930 1_545 S
C3775 C3768 1.409 1_545 S
C3775 C3774 1.362 . S
H3776 C3782 0.930 . S
H3777 C3785 0.930 . S
H3778 C3786 0.930 . S
H3779 C3787 0.930 . S
H3780 C3790 0.930 . S
H3781 C3791 0.930 1_565 S
C3782 H3776 0.930 . S
C3782 C3783 1.355 . S
C3782 C3784 1.415 . S
C3783 C3782 1.355 . S
C3783 C3785 1.419 . S
C3784 C3782 1.415 . S
C3784 C3789 1.425 . S
C3784 C3791 1.409 1_565 S
C3785 H3777 0.930 . S
C3785 C3783 1.419 . S
C3785 C3786 1.362 . S
C3786 H3778 0.930 . S
C3786 C3785 1.362 . S
C3786 C3789 1.409 . S
C3787 H3779 0.930 . S
C3787 C3788 1.355 . S
C3787 C3789 1.415 1_545 S
C3788 C3787 1.355 . S
C3788 C3790 1.419 . S
C3789 C3784 1.425 . S
C3789 C3786 1.409 . S
C3789 C3787 1.415 1_565 S
C3790 H3780 0.930 . S
C3790 C3788 1.419 . S
C3790 C3791 1.362 . S
C3791 H3781 0.930 1_545 S
C3791 C3784 1.409 1_545 S
C3791 C3790 1.362 . S
H3792 C3798 0.930 . S
H3793 C3801 0.930 . S
H3794 C3802 0.930 . S
H3795 C3803 0.930 . S
H3796 C3806 0.930 . S
H3797 C3807 0.930 . S
C3798 H3792 0.930 . S
C3798 C3799 1.355 . S
C3798 C3800 1.415 . S
C3799 C3798 1.355 . S
C3799 C3801 1.419 . S
C3800 C3798 1.415 . S
C3800 C3805 1.425 1_655 S
C3800 C3807 1.409 1_655 S
C3801 H3793 0.930 . S
C3801 C3799 1.419 . S
C3801 C3802 1.362 . S
C3802 H3794 0.930 . S
C3802 C3801 1.362 . S
C3802 C3805 1.409 1_655 S
C3803 H3795 0.930 . S
C3803 C3804 1.355 . S
C3803 C3805 1.415 . S
C3804 C3803 1.355 . S
C3804 C3806 1.419 . S
C3805 C3800 1.425 1_455 S
C3805 C3802 1.409 1_455 S
C3805 C3803 1.415 . S
C3806 H3796 0.930 . S
C3806 C3804 1.419 . S
C3806 C3807 1.362 . S
C3807 H3797 0.930 . S
C3807 C3800 1.409 1_455 S
C3807 C3806 1.362 . S
H3808 C3814 0.930 . S
H3809 C3817 0.930 . S
H3810 C3818 0.930 . S
H3811 C3819 0.930 . S
H3812 C3822 0.930 . S
H3813 C3823 0.930 . S
C3814 H3808 0.930 . S
C3814 C3815 1.355 . S
C3814 C3816 1.415 1_565 S
C3815 C3814 1.355 . S
C3815 C3817 1.419 . S
C3816 C3814 1.415 1_545 S
C3816 C3821 1.425 . S
C3816 C3823 1.409 . S
C3817 H3809 0.930 . S
C3817 C3815 1.419 . S
C3817 C3818 1.362 . S
C3818 H3810 0.930 . S
C3818 C3817 1.362 . S
C3818 C3821 1.409 1_565 S
C3819 H3811 0.930 . S
C3819 C3820 1.355 . S
C3819 C3821 1.415 . S
C3820 C3819 1.355 . S
C3820 C3822 1.419 . S
C3821 C3816 1.425 . S
C3821 C3818 1.409 1_545 S
C3821 C3819 1.415 . S
C3822 H3812 0.930 . S
C3822 C3820 1.419 . S
C3822 C3823 1.362 . S
C3823 H3813 0.930 . S
C3823 C3816 1.409 . S
C3823 C3822 1.362 . S
H3824 C3830 0.930 . S
H3825 C3833 0.930 . S
H3826 C3834 0.930 . S
H3827 C3835 0.930 . S
H3828 C3838 0.930 . S
H3829 C3839 0.930 . S
C3830 H3824 0.930 . S
C3830 C3831 1.355 . S
C3830 C3832 1.415 . S
C3831 C3830 1.355 . S
C3831 C3833 1.419 . S
C3832 C3830 1.415 . S
C3832 C3837 1.425 1_655 S
C3832 C3839 1.409 1_655 S
C3833 H3825 0.930 . S
C3833 C3831 1.419 . S
C3833 C3834 1.362 . S
C3834 H3826 0.930 . S
C3834 C3833 1.362 . S
C3834 C3837 1.409 1_655 S
C3835 H3827 0.930 . S
C3835 C3836 1.355 . S
C3835 C3837 1.415 . S
C3836 C3835 1.355 . S
C3836 C3838 1.419 . S
C3837 C3832 1.425 1_455 S
C3837 C3834 1.409 1_455 S
C3837 C3835 1.415 . S
C3838 H3828 0.930 . S
C3838 C3836 1.419 . S
C3838 C3839 1.362 . S
C3839 H3829 0.930 . S
C3839 C3832 1.409 1_455 S
C3839 C3838 1.362 . S
H3840 C3846 0.930 . S
H3841 C3849 0.930 . S
H3842 C3850 0.940 . S
H3843 C3851 0.930 . S
H3844 C3854 0.930 . S
H3845 C3855 0.930 . S
C3846 H3840 0.930 . S
C3846 C3847 1.355 . S
C3846 C3848 1.415 1_565 S
C3847 C3846 1.355 . S
C3847 C3849 1.419 . S
C3848 C3846 1.415 1_545 S
C3848 C3853 1.425 . S
C3848 C3855 1.409 . S
C3849 H3841 0.930 . S
C3849 C3847 1.419 . S
C3849 C3850 1.362 . S
C3850 H3842 0.940 . S
C3850 C3849 1.362 . S
C3850 C3853 1.409 1_565 S
C3851 H3843 0.930 . S
C3851 C3852 1.355 . S
C3851 C3853 1.415 . S
C3852 C3851 1.355 . S
C3852 C3854 1.419 . S
C3853 C3848 1.425 . S
C3853 C3850 1.409 1_545 S
C3853 C3851 1.415 . S
C3854 H3844 0.930 . S
C3854 C3852 1.419 . S
C3854 C3855 1.362 . S
C3855 H3845 0.930 . S
C3855 C3848 1.409 . S
C3855 C3854 1.362 . S
H3856 C3862 0.930 . S
H3857 C3865 0.930 . S
H3858 C3866 0.930 . S
H3859 C3867 0.930 . S
H3860 C3870 0.930 . S
H3861 C3871 0.930 . S
C3862 H3856 0.930 . S
C3862 C3863 1.355 . S
C3862 C3864 1.415 . S
C3863 C3862 1.355 . S
C3863 C3865 1.419 . S
C3864 C3862 1.415 . S
C3864 C3869 1.425 1_655 S
C3864 C3871 1.409 1_655 S
C3865 H3857 0.930 . S
C3865 C3863 1.419 . S
C3865 C3866 1.362 . S
C3866 H3858 0.930 . S
C3866 C3865 1.362 . S
C3866 C3869 1.409 1_655 S
C3867 H3859 0.930 . S
C3867 C3868 1.355 . S
C3867 C3869 1.415 . S
C3868 C3867 1.355 . S
C3868 C3870 1.419 . S
C3869 C3864 1.425 1_455 S
C3869 C3866 1.409 1_455 S
C3869 C3867 1.415 . S
C3870 H3860 0.930 . S
C3870 C3868 1.419 . S
C3870 C3871 1.362 . S
C3871 H3861 0.930 . S
C3871 C3864 1.409 1_455 S
C3871 C3870 1.362 . S
H3872 C3878 0.930 . S
H3873 C3881 0.930 . S
H3874 C3882 0.930 . S
H3875 C3883 0.930 . S
H3876 C3886 0.930 . S
H3877 C3887 0.930 1_565 S
C3878 H3872 0.930 . S
C3878 C3879 1.355 . S
C3878 C3880 1.415 . S
C3879 C3878 1.355 . S
C3879 C3881 1.419 . S
C3880 C3878 1.415 . S
C3880 C3885 1.425 . S
C3880 C3887 1.409 1_565 S
C3881 H3873 0.930 . S
C3881 C3879 1.419 . S
C3881 C3882 1.362 . S
C3882 H3874 0.930 . S
C3882 C3881 1.362 . S
C3882 C3885 1.409 . S
C3883 H3875 0.930 . S
C3883 C3884 1.355 . S
C3883 C3885 1.415 1_545 S
C3884 C3883 1.355 . S
C3884 C3886 1.419 . S
C3885 C3880 1.425 . S
C3885 C3882 1.409 . S
C3885 C3883 1.415 1_565 S
C3886 H3876 0.930 . S
C3886 C3884 1.419 . S
C3886 C3887 1.362 . S
C3887 H3877 0.930 1_545 S
C3887 C3880 1.409 1_545 S
C3887 C3886 1.362 . S
H3888 C3894 0.930 . S
H3889 C3897 0.930 . S
H3890 C3898 0.930 . S
H3891 C3899 0.930 . S
H3892 C3902 0.930 . S
H3893 C3903 0.930 . S
C3894 H3888 0.930 . S
C3894 C3895 1.355 . S
C3894 C3896 1.415 . S
C3895 C3894 1.355 . S
C3895 C3897 1.419 . S
C3896 C3894 1.415 . S
C3896 C3901 1.425 1_455 S
C3896 C3903 1.409 1_455 S
C3897 H3889 0.930 . S
C3897 C3895 1.419 . S
C3897 C3898 1.362 . S
C3898 H3890 0.930 . S
C3898 C3897 1.362 . S
C3898 C3901 1.409 1_455 S
C3899 H3891 0.930 . S
C3899 C3900 1.355 . S
C3899 C3901 1.415 . S
C3900 C3899 1.355 . S
C3900 C3902 1.419 . S
C3901 C3896 1.425 1_655 S
C3901 C3898 1.409 1_655 S
C3901 C3899 1.415 . S
C3902 H3892 0.930 . S
C3902 C3900 1.419 . S
C3902 C3903 1.362 . S
C3903 H3893 0.930 . S
C3903 C3896 1.409 1_655 S
C3903 C3902 1.362 . S
H3904 C3910 0.930 . S
H3905 C3913 0.930 . S
H3906 C3914 0.930 . S
H3907 C3915 0.930 . S
H3908 C3918 0.930 . S
H3909 C3919 0.930 . S
C3910 H3904 0.930 . S
C3910 C3911 1.355 . S
C3910 C3912 1.415 . S
C3911 C3910 1.355 . S
C3911 C3913 1.419 . S
C3912 C3910 1.415 . S
C3912 C3917 1.425 . S
C3912 C3919 1.409 1_554 S
C3913 H3905 0.930 . S
C3913 C3911 1.419 . S
C3913 C3914 1.362 . S
C3914 H3906 0.930 . S
C3914 C3913 1.362 . S
C3914 C3917 1.409 . S
C3915 H3907 0.930 . S
C3915 C3916 1.355 . S
C3915 C3917 1.415 1_556 S
C3916 C3915 1.355 . S
C3916 C3918 1.419 . S
C3917 C3912 1.425 . S
C3917 C3914 1.409 . S
C3917 C3915 1.415 1_554 S
C3918 H3908 0.930 . S
C3918 C3916 1.419 . S
C3918 C3919 1.362 . S
C3919 H3909 0.930 . S
C3919 C3912 1.409 1_556 S
C3919 C3918 1.362 . S
H3920 C3926 0.930 . S
H3921 C3929 0.930 . S
H3922 C3930 0.930 . S
H3923 C3931 0.930 . S
H3924 C3934 0.930 . S
H3925 C3935 0.930 . S
C3926 H3920 0.930 . S
C3926 C3927 1.355 . S
C3926 C3928 1.415 1_554 S
C3927 C3926 1.355 . S
C3927 C3929 1.419 . S
C3928 C3926 1.415 1_556 S
C3928 C3933 1.425 . S
C3928 C3935 1.409 . S
C3929 H3921 0.930 . S
C3929 C3927 1.419 . S
C3929 C3930 1.362 . S
C3930 H3922 0.930 . S
C3930 C3929 1.362 . S
C3930 C3933 1.409 1_554 S
C3931 H3923 0.930 . S
C3931 C3932 1.355 . S
C3931 C3933 1.415 . S
C3932 C3931 1.355 . S
C3932 C3934 1.419 . S
C3933 C3928 1.425 . S
C3933 C3930 1.409 1_556 S
C3933 C3931 1.415 . S
C3934 H3924 0.930 . S
C3934 C3932 1.419 . S
C3934 C3935 1.362 . S
C3935 H3925 0.930 . S
C3935 C3928 1.409 . S
C3935 C3934 1.362 . S
H3936 C3942 0.930 . S
H3937 C3945 0.930 . S
H3938 C3946 0.930 . S
H3939 C3947 0.930 . S
H3940 C3950 0.930 . S
H3941 C3951 0.930 . S
C3942 H3936 0.930 . S
C3942 C3943 1.355 . S
C3942 C3944 1.415 . S
C3943 C3942 1.355 . S
C3943 C3945 1.419 . S
C3944 C3942 1.415 . S
C3944 C3949 1.425 . S
C3944 C3951 1.409 1_554 S
C3945 H3937 0.930 . S
C3945 C3943 1.419 . S
C3945 C3946 1.362 . S
C3946 H3938 0.930 . S
C3946 C3945 1.362 . S
C3946 C3949 1.409 . S
C3947 H3939 0.930 . S
C3947 C3948 1.355 . S
C3947 C3949 1.415 1_556 S
C3948 C3947 1.355 . S
C3948 C3950 1.419 . S
C3949 C3944 1.425 . S
C3949 C3946 1.409 . S
C3949 C3947 1.415 1_554 S
C3950 H3940 0.930 . S
C3950 C3948 1.419 . S
C3950 C3951 1.362 . S
C3951 H3941 0.930 . S
C3951 C3944 1.409 1_556 S
C3951 C3950 1.362 . S
H3952 C3958 0.930 . S
H3953 C3961 0.930 . S
H3954 C3962 0.930 . S
H3955 C3963 0.930 . S
H3956 C3966 0.930 . S
H3957 C3967 0.930 . S
C3958 H3952 0.930 . S
C3958 C3959 1.355 . S
C3958 C3960 1.415 1_554 S
C3959 C3958 1.355 . S
C3959 C3961 1.419 . S
C3960 C3958 1.415 1_556 S
C3960 C3965 1.425 . S
C3960 C3967 1.409 . S
C3961 H3953 0.930 . S
C3961 C3959 1.419 . S
C3961 C3962 1.362 . S
C3962 H3954 0.930 . S
C3962 C3961 1.362 . S
C3962 C3965 1.409 1_554 S
C3963 H3955 0.930 . S
C3963 C3964 1.355 . S
C3963 C3965 1.415 . S
C3964 C3963 1.355 . S
C3964 C3966 1.419 . S
C3965 C3960 1.425 . S
C3965 C3962 1.409 1_556 S
C3965 C3963 1.415 . S
C3966 H3956 0.930 . S
C3966 C3964 1.419 . S
C3966 C3967 1.362 . S
C3967 H3957 0.930 . S
C3967 C3960 1.409 . S
C3967 C3966 1.362 . S
H3968 C3974 0.930 . S
H3969 C3977 0.930 . S
H3970 C3978 0.930 1_554 S
H3971 C3979 0.930 . S
H3972 C3982 0.930 . S
H3973 C3983 0.930 . S
C3974 H3968 0.930 . S
C3974 C3975 1.355 . S
C3974 C3976 1.415 1_556 S
C3975 C3974 1.355 . S
C3975 C3977 1.419 . S
C3976 C3974 1.415 1_554 S
C3976 C3981 1.425 . S
C3976 C3983 1.409 . S
C3977 H3969 0.930 . S
C3977 C3975 1.419 . S
C3977 C3978 1.362 . S
C3978 H3970 0.930 1_556 S
C3978 C3977 1.362 . S
C3978 C3981 1.409 1_556 S
C3979 H3971 0.930 . S
C3979 C3980 1.355 . S
C3979 C3981 1.415 . S
C3980 C3979 1.355 . S
C3980 C3982 1.419 . S
C3981 C3976 1.425 . S
C3981 C3978 1.409 1_554 S
C3981 C3979 1.415 . S
C3982 H3972 0.930 . S
C3982 C3980 1.419 . S
C3982 C3983 1.362 . S
C3983 H3973 0.930 . S
C3983 C3976 1.409 . S
C3983 C3982 1.362 . S
H3984 C3990 0.930 . S
H3985 C3993 0.930 . S
H3986 C3994 0.930 . S
H3987 C3995 0.930 . S
H3988 C3998 0.930 . S
H3989 C3999 0.930 . S
C3990 H3984 0.930 . S
C3990 C3991 1.355 . S
C3990 C3992 1.415 . S
C3991 C3990 1.355 . S
C3991 C3993 1.419 . S
C3992 C3990 1.415 . S
C3992 C3997 1.425 . S
C3992 C3999 1.409 1_554 S
C3993 H3985 0.930 . S
C3993 C3991 1.419 . S
C3993 C3994 1.362 . S
C3994 H3986 0.930 . S
C3994 C3993 1.362 . S
C3994 C3997 1.409 . S
C3995 H3987 0.930 . S
C3995 C3996 1.355 . S
C3995 C3997 1.415 1_556 S
C3996 C3995 1.355 . S
C3996 C3998 1.419 . S
C3997 C3992 1.425 . S
C3997 C3994 1.409 . S
C3997 C3995 1.415 1_554 S
C3998 H3988 0.930 . S
C3998 C3996 1.419 . S
C3998 C3999 1.362 . S
C3999 H3989 0.930 . S
C3999 C3992 1.409 1_556 S
C3999 C3998 1.362 . S
H4000 C4006 0.930 . S
H4001 C4009 0.930 . S
H4002 C4010 0.930 . S
H4003 C4011 0.930 . S
H4004 C4014 0.930 . S
H4005 C4015 0.930 1_556 S
C4006 H4000 0.930 . S
C4006 C4007 1.355 . S
C4006 C4008 1.415 . S
C4007 C4006 1.355 . S
C4007 C4009 1.419 . S
C4008 C4006 1.415 . S
C4008 C4013 1.454 . S
C4008 C4015 1.409 1_556 S
C4009 H4001 0.930 . S
C4009 C4007 1.419 . S
C4009 C4010 1.362 . S
C4010 H4002 0.930 . S
C4010 C4009 1.362 . S
C4010 C4013 1.446 . S
C4011 H4003 0.930 . S
C4011 C4012 1.355 . S
C4011 C4013 1.353 1_554 S
C4012 C4011 1.355 . S
C4012 C4014 1.419 . S
C4013 C4008 1.454 . S
C4013 C4010 1.446 . S
C4013 C4011 1.353 1_556 S
C4014 H4004 0.930 . S
C4014 C4012 1.419 . S
C4014 C4015 1.362 . S
C4015 H4005 0.930 1_554 S
C4015 C4008 1.409 1_554 S
C4015 C4014 1.362 . S
H4016 C4022 0.930 . S
H4017 C4025 0.930 . S
H4018 C4026 0.930 1_556 S
H4019 C4027 0.930 . S
H4020 C4030 0.930 . S
H4021 C4031 0.930 . S
C4022 H4016 0.930 . S
C4022 C4023 1.355 . S
C4022 C4024 1.415 1_554 S
C4023 C4022 1.355 . S
C4023 C4025 1.419 . S
C4024 C4022 1.415 1_556 S
C4024 C4029 1.425 . S
C4024 C4031 1.409 . S
C4025 H4017 0.930 . S
C4025 C4023 1.419 . S
C4025 C4026 1.362 . S
C4026 H4018 0.930 1_554 S
C4026 C4025 1.362 . S
C4026 C4029 1.409 1_554 S
C4027 H4019 0.930 . S
C4027 C4028 1.355 . S
C4027 C4029 1.415 . S
C4028 C4027 1.355 . S
C4028 C4030 1.419 . S
C4029 C4024 1.425 . S
C4029 C4026 1.409 1_556 S
C4029 C4027 1.415 . S
C4030 H4020 0.930 . S
C4030 C4028 1.419 . S
C4030 C4031 1.362 . S
C4031 H4021 0.930 . S
C4031 C4024 1.409 . S
C4031 C4030 1.362 . S
H4032 C4038 0.930 . S
H4033 C4041 0.930 . S
H4034 C4042 0.930 . S
H4035 C4043 0.930 . S
H4036 C4046 0.930 . S
H4037 C4047 0.930 . S
C4038 H4032 0.930 . S
C4038 C4039 1.355 . S
C4038 C4040 1.415 . S
C4039 C4038 1.355 . S
C4039 C4041 1.419 . S
C4040 C4038 1.415 . S
C4040 C4045 1.425 . S
C4040 C4047 1.409 . S
C4041 H4033 0.930 . S
C4041 C4039 1.419 . S
C4041 C4042 1.362 . S
C4042 H4034 0.930 . S
C4042 C4041 1.362 . S
C4042 C4045 1.409 . S
C4043 H4035 0.930 . S
C4043 C4044 1.355 . S
C4043 C4045 1.415 . S
C4044 C4043 1.355 . S
C4044 C4046 1.419 . S
C4045 C4040 1.425 . S
C4045 C4042 1.409 . S
C4045 C4043 1.415 . S
C4046 H4036 0.930 . S
C4046 C4044 1.419 . S
C4046 C4047 1.362 . S
C4047 H4037 0.930 . S
C4047 C4040 1.409 . S
C4047 C4046 1.362 . S
H4048 C4054 0.930 . S
H4049 C4057 0.930 . S
H4050 C4058 0.930 . S
H4051 C4059 0.930 . S
H4052 C4062 0.930 . S
H4053 C4063 0.930 . S
C4054 H4048 0.930 . S
C4054 C4055 1.355 . S
C4054 C4056 1.415 . S
C4055 C4054 1.355 . S
C4055 C4057 1.419 . S
C4056 C4054 1.415 . S
C4056 C4061 1.425 . S
C4056 C4063 1.409 . S
C4057 H4049 0.930 . S
C4057 C4055 1.419 . S
C4057 C4058 1.362 . S
C4058 H4050 0.930 . S
C4058 C4057 1.362 . S
C4058 C4061 1.409 . S
C4059 H4051 0.930 . S
C4059 C4060 1.355 . S
C4059 C4061 1.415 . S
C4060 C4059 1.355 . S
C4060 C4062 1.419 . S
C4061 C4056 1.425 . S
C4061 C4058 1.409 . S
C4061 C4059 1.415 . S
C4062 H4052 0.930 . S
C4062 C4060 1.419 . S
C4062 C4063 1.362 . S
C4063 H4053 0.930 . S
C4063 C4056 1.409 . S
C4063 C4062 1.362 . S
H4064 C4070 0.930 . S
H4065 C4073 0.930 . S
H4066 C4074 0.930 . S
H4067 C4075 0.930 . S
H4068 C4078 0.930 . S
H4069 C4079 0.930 . S
C4070 H4064 0.930 . S
C4070 C4071 1.355 . S
C4070 C4072 1.415 . S
C4071 C4070 1.355 . S
C4071 C4073 1.419 . S
C4072 C4070 1.415 . S
C4072 C4077 1.425 . S
C4072 C4079 1.409 . S
C4073 H4065 0.930 . S
C4073 C4071 1.419 . S
C4073 C4074 1.362 . S
C4074 H4066 0.930 . S
C4074 C4073 1.362 . S
C4074 C4077 1.409 . S
C4075 H4067 0.930 . S
C4075 C4076 1.355 . S
C4075 C4077 1.415 . S
C4076 C4075 1.355 . S
C4076 C4078 1.419 . S
C4077 C4072 1.425 . S
C4077 C4074 1.409 . S
C4077 C4075 1.415 . S
C4078 H4068 0.930 . S
C4078 C4076 1.419 . S
C4078 C4079 1.362 . S
C4079 H4069 0.930 . S
C4079 C4072 1.409 . S
C4079 C4078 1.362 . S
H4080 C4086 0.930 . S
H4081 C4089 0.930 . S
H4082 C4090 0.930 . S
H4083 C4091 0.930 . S
H4084 C4094 0.930 . S
H4085 C4095 0.930 . S
C4086 H4080 0.930 . S
C4086 C4087 1.355 . S
C4086 C4088 1.415 . S
C4087 C4086 1.355 . S
C4087 C4089 1.419 . S
C4088 C4086 1.415 . S
C4088 C4093 1.425 . S
C4088 C4095 1.409 . S
C4089 H4081 0.930 . S
C4089 C4087 1.419 . S
C4089 C4090 1.362 . S
C4090 H4082 0.930 . S
C4090 C4089 1.362 . S
C4090 C4093 1.409 . S
C4091 H4083 0.930 . S
C4091 C4092 1.355 . S
C4091 C4093 1.415 . S
C4092 C4091 1.355 . S
C4092 C4094 1.419 . S
C4093 C4088 1.425 . S
C4093 C4090 1.409 . S
C4093 C4091 1.415 . S
C4094 H4084 0.930 . S
C4094 C4092 1.419 . S
C4094 C4095 1.362 . S
C4095 H4085 0.930 . S
C4095 C4088 1.409 . S
C4095 C4094 1.362 . S
H4096 C4102 0.930 . S
H4097 C4105 0.930 . S
H4098 C4106 0.930 . S
H4099 C4107 0.930 . S
H4100 C4110 0.930 . S
H4101 C4111 0.930 . S
C4102 H4096 0.930 . S
C4102 C4103 1.355 . S
C4102 C4104 1.415 . S
C4103 C4102 1.355 . S
C4103 C4105 1.419 . S
C4104 C4102 1.415 . S
C4104 C4109 1.425 . S
C4104 C4111 1.409 . S
C4105 H4097 0.930 . S
C4105 C4103 1.419 . S
C4105 C4106 1.362 . S
C4106 H4098 0.930 . S
C4106 C4105 1.362 . S
C4106 C4109 1.409 . S
C4107 H4099 0.930 . S
C4107 C4108 1.355 . S
C4107 C4109 1.415 . S
C4108 C4107 1.355 . S
C4108 C4110 1.419 . S
C4109 C4104 1.425 . S
C4109 C4106 1.409 . S
C4109 C4107 1.415 . S
C4110 H4100 0.930 . S
C4110 C4108 1.419 . S
C4110 C4111 1.362 . S
C4111 H4101 0.930 . S
C4111 C4104 1.409 . S
C4111 C4110 1.362 . S
H4112 C4118 0.930 . S
H4113 C4121 0.930 . S
H4114 C4122 0.930 . S
H4115 C4123 0.930 . S
H4116 C4126 0.930 . S
H4117 C4127 0.930 . S
C4118 H4112 0.930 . S
C4118 C4119 1.355 . S
C4118 C4120 1.415 . S
C4119 C4118 1.355 . S
C4119 C4121 1.419 . S
C4120 C4118 1.415 . S
C4120 C4125 1.425 . S
C4120 C4127 1.409 . S
C4121 H4113 0.930 . S
C4121 C4119 1.419 . S
C4121 C4122 1.362 . S
C4122 H4114 0.930 . S
C4122 C4121 1.362 . S
C4122 C4125 1.409 . S
C4123 H4115 0.930 . S
C4123 C4124 1.355 . S
C4123 C4125 1.415 . S
C4124 C4123 1.355 . S
C4124 C4126 1.419 . S
C4125 C4120 1.425 . S
C4125 C4122 1.409 . S
C4125 C4123 1.415 . S
C4126 H4116 0.930 . S
C4126 C4124 1.419 . S
C4126 C4127 1.362 . S
C4127 H4117 0.930 . S
C4127 C4120 1.409 . S
C4127 C4126 1.362 . S
H4128 C4134 0.930 . S
H4129 C4137 0.930 . S
H4130 C4138 0.930 . S
H4131 C4139 0.930 . S
H4132 C4142 0.930 . S
H4133 C4143 0.930 . S
C4134 H4128 0.930 . S
C4134 C4135 1.355 . S
C4134 C4136 1.415 . S
C4135 C4134 1.355 . S
C4135 C4137 1.419 . S
C4136 C4134 1.415 . S
C4136 C4141 1.425 . S
C4136 C4143 1.409 . S
C4137 H4129 0.930 . S
C4137 C4135 1.419 . S
C4137 C4138 1.362 . S
C4138 H4130 0.930 . S
C4138 C4137 1.362 . S
C4138 C4141 1.409 . S
C4139 H4131 0.930 . S
C4139 C4140 1.355 . S
C4139 C4141 1.415 . S
C4140 C4139 1.355 . S
C4140 C4142 1.419 . S
C4141 C4136 1.425 . S
C4141 C4138 1.409 . S
C4141 C4139 1.415 . S
C4142 H4132 0.930 . S
C4142 C4140 1.419 . S
C4142 C4143 1.362 . S
C4143 H4133 0.930 . S
C4143 C4136 1.409 . S
C4143 C4142 1.362 . S
H4144 C4150 0.930 . S
H4145 C4153 0.930 . S
H4146 C4154 0.930 . S
H4147 C4155 0.930 . S
H4148 C4158 0.930 . S
H4149 C4159 0.930 . S
C4150 H4144 0.930 . S
C4150 C4151 1.355 . S
C4150 C4152 1.415 . S
C4151 C4150 1.355 . S
C4151 C4153 1.419 . S
C4152 C4150 1.415 . S
C4152 C4157 1.425 . S
C4152 C4159 1.409 . S
C4153 H4145 0.930 . S
C4153 C4151 1.419 . S
C4153 C4154 1.362 . S
C4154 H4146 0.930 . S
C4154 C4153 1.362 . S
C4154 C4157 1.409 . S
C4155 H4147 0.930 . S
C4155 C4156 1.355 . S
C4155 C4157 1.415 . S
C4156 C4155 1.355 . S
C4156 C4158 1.419 . S
C4157 C4152 1.425 . S
C4157 C4154 1.409 . S
C4157 C4155 1.415 . S
C4158 H4148 0.930 . S
C4158 C4156 1.419 . S
C4158 C4159 1.362 . S
C4159 H4149 0.930 . S
C4159 C4152 1.409 . S
C4159 C4158 1.362 . S
H4160 C4166 0.930 . S
H4161 C4169 0.930 . S
H4162 C4170 0.930 . S
H4163 C4171 0.930 . S
H4164 C4174 0.930 . S
H4165 C4175 0.930 . S
C4166 H4160 0.930 . S
C4166 C4167 1.355 . S
C4166 C4168 1.415 . S
C4167 C4166 1.355 . S
C4167 C4169 1.419 . S
C4168 C4166 1.415 . S
C4168 C4173 1.425 . S
C4168 C4175 1.409 . S
C4169 H4161 0.930 . S
C4169 C4167 1.419 . S
C4169 C4170 1.362 . S
C4170 H4162 0.930 . S
C4170 C4169 1.362 . S
C4170 C4173 1.409 . S
C4171 H4163 0.930 . S
C4171 C4172 1.355 . S
C4171 C4173 1.415 . S
C4172 C4171 1.355 . S
C4172 C4174 1.419 . S
C4173 C4168 1.425 . S
C4173 C4170 1.409 . S
C4173 C4171 1.415 . S
C4174 H4164 0.930 . S
C4174 C4172 1.419 . S
C4174 C4175 1.362 . S
C4175 H4165 0.930 . S
C4175 C4168 1.409 . S
C4175 C4174 1.362 . S
H4176 C4182 0.930 . S
H4177 C4185 0.930 . S
H4178 C4186 0.930 . S
H4179 C4187 0.930 . S
H4180 C4190 0.930 . S
H4181 C4191 0.930 . S
C4182 H4176 0.930 . S
C4182 C4183 1.355 . S
C4182 C4184 1.415 . S
C4183 C4182 1.355 . S
C4183 C4185 1.419 . S
C4184 C4182 1.415 . S
C4184 C4189 1.425 . S
C4184 C4191 1.409 . S
C4185 H4177 0.930 . S
C4185 C4183 1.419 . S
C4185 C4186 1.362 . S
C4186 H4178 0.930 . S
C4186 C4185 1.362 . S
C4186 C4189 1.409 . S
C4187 H4179 0.930 . S
C4187 C4188 1.355 . S
C4187 C4189 1.415 . S
C4188 C4187 1.355 . S
C4188 C4190 1.419 . S
C4189 C4184 1.425 . S
C4189 C4186 1.409 . S
C4189 C4187 1.415 . S
C4190 H4180 0.930 . S
C4190 C4188 1.419 . S
C4190 C4191 1.362 . S
C4191 H4181 0.930 . S
C4191 C4184 1.409 . S
C4191 C4190 1.362 . S
H4192 C4198 0.930 . S
H4193 C4201 0.930 . S
H4194 C4202 0.930 . S
H4195 C4203 0.930 . S
H4196 C4206 0.930 . S
H4197 C4207 0.930 . S
C4198 H4192 0.930 . S
C4198 C4199 1.355 . S
C4198 C4200 1.415 . S
C4199 C4198 1.355 . S
C4199 C4201 1.419 . S
C4200 C4198 1.415 . S
C4200 C4205 1.425 . S
C4200 C4207 1.409 . S
C4201 H4193 0.930 . S
C4201 C4199 1.419 . S
C4201 C4202 1.362 . S
C4202 H4194 0.930 . S
C4202 C4201 1.362 . S
C4202 C4205 1.409 . S
C4203 H4195 0.930 . S
C4203 C4204 1.355 . S
C4203 C4205 1.415 . S
C4204 C4203 1.355 . S
C4204 C4206 1.419 . S
C4205 C4200 1.425 . S
C4205 C4202 1.409 . S
C4205 C4203 1.415 . S
C4206 H4196 0.930 . S
C4206 C4204 1.419 . S
C4206 C4207 1.362 . S
C4207 H4197 0.930 . S
C4207 C4200 1.409 . S
C4207 C4206 1.362 . S
H4208 C4214 0.930 . S
H4209 C4217 0.930 . S
H4210 C4218 0.930 . S
H4211 C4219 0.930 . S
H4212 C4222 0.930 . S
H4213 C4223 0.930 . S
C4214 H4208 0.930 . S
C4214 C4215 1.355 . S
C4214 C4216 1.415 . S
C4215 C4214 1.355 . S
C4215 C4217 1.419 . S
C4216 C4214 1.415 . S
C4216 C4221 1.425 . S
C4216 C4223 1.409 . S
C4217 H4209 0.930 . S
C4217 C4215 1.419 . S
C4217 C4218 1.362 . S
C4218 H4210 0.930 . S
C4218 C4217 1.362 . S
C4218 C4221 1.409 . S
C4219 H4211 0.930 . S
C4219 C4220 1.355 . S
C4219 C4221 1.415 . S
C4220 C4219 1.355 . S
C4220 C4222 1.419 . S
C4221 C4216 1.425 . S
C4221 C4218 1.409 . S
C4221 C4219 1.415 . S
C4222 H4212 0.930 . S
C4222 C4220 1.419 . S
C4222 C4223 1.362 . S
C4223 H4213 0.930 . S
C4223 C4216 1.409 . S
C4223 C4222 1.362 . S
H4224 C4230 0.930 . S
H4225 C4233 0.930 . S
H4226 C4234 0.930 . S
H4227 C4235 0.930 . S
H4228 C4238 0.930 . S
H4229 C4239 0.930 . S
C4230 H4224 0.930 . S
C4230 C4231 1.355 . S
C4230 C4232 1.415 . S
C4231 C4230 1.355 . S
C4231 C4233 1.419 . S
C4232 C4230 1.415 . S
C4232 C4237 1.425 . S
C4232 C4239 1.409 . S
C4233 H4225 0.930 . S
C4233 C4231 1.419 . S
C4233 C4234 1.362 . S
C4234 H4226 0.930 . S
C4234 C4233 1.362 . S
C4234 C4237 1.409 . S
C4235 H4227 0.930 . S
C4235 C4236 1.355 . S
C4235 C4237 1.415 . S
C4236 C4235 1.355 . S
C4236 C4238 1.419 . S
C4237 C4232 1.425 . S
C4237 C4234 1.409 . S
C4237 C4235 1.415 . S
C4238 H4228 0.930 . S
C4238 C4236 1.419 . S
C4238 C4239 1.362 . S
C4239 H4229 0.930 . S
C4239 C4232 1.409 . S
C4239 C4238 1.362 . S
H4240 C4246 0.930 . S
H4241 C4249 0.930 . S
H4242 C4250 0.930 . S
H4243 C4251 0.930 . S
H4244 C4254 0.930 . S
H4245 C4255 0.930 . S
C4246 H4240 0.930 . S
C4246 C4247 1.355 . S
C4246 C4248 1.415 . S
C4247 C4246 1.355 . S
C4247 C4249 1.419 . S
C4248 C4246 1.415 . S
C4248 C4253 1.425 . S
C4248 C4255 1.409 . S
C4249 H4241 0.930 . S
C4249 C4247 1.419 . S
C4249 C4250 1.362 . S
C4250 H4242 0.930 . S
C4250 C4249 1.362 . S
C4250 C4253 1.409 . S
C4251 H4243 0.930 . S
C4251 C4252 1.355 . S
C4251 C4253 1.415 . S
C4252 C4251 1.355 . S
C4252 C4254 1.419 . S
C4253 C4248 1.425 . S
C4253 C4250 1.409 . S
C4253 C4251 1.415 . S
C4254 H4244 0.930 . S
C4254 C4252 1.419 . S
C4254 C4255 1.362 . S
C4255 H4245 0.930 . S
C4255 C4248 1.409 . S
C4255 C4254 1.362 . S
H4256 C4262 0.930 . S
H4257 C4265 0.930 . S
H4258 C4266 0.930 . S
H4259 C4267 0.930 . S
H4260 C4270 0.930 . S
H4261 C4271 0.930 . S
C4262 H4256 0.930 . S
C4262 C4263 1.355 . S
C4262 C4264 1.415 . S
C4263 C4262 1.355 . S
C4263 C4265 1.419 . S
C4264 C4262 1.415 . S
C4264 C4269 1.425 . S
C4264 C4271 1.409 . S
C4265 H4257 0.930 . S
C4265 C4263 1.419 . S
C4265 C4266 1.362 . S
C4266 H4258 0.930 . S
C4266 C4265 1.362 . S
C4266 C4269 1.409 . S
C4267 H4259 0.930 . S
C4267 C4268 1.355 . S
C4267 C4269 1.415 . S
C4268 C4267 1.355 . S
C4268 C4270 1.419 . S
C4269 C4264 1.425 . S
C4269 C4266 1.409 . S
C4269 C4267 1.415 . S
C4270 H4260 0.930 . S
C4270 C4268 1.419 . S
C4270 C4271 1.362 . S
C4271 H4261 0.930 . S
C4271 C4264 1.409 . S
C4271 C4270 1.362 . S
H4272 C4278 0.930 . S
H4273 C4281 0.930 . S
H4274 C4282 0.930 . S
H4275 C4283 0.930 . S
H4276 C4286 0.930 . S
H4277 C4287 0.930 . S
C4278 H4272 0.930 . S
C4278 C4279 1.355 . S
C4278 C4280 1.415 . S
C4279 C4278 1.355 . S
C4279 C4281 1.419 . S
C4280 C4278 1.415 . S
C4280 C4285 1.425 . S
C4280 C4287 1.409 . S
C4281 H4273 0.930 . S
C4281 C4279 1.419 . S
C4281 C4282 1.362 . S
C4282 H4274 0.930 . S
C4282 C4281 1.362 . S
C4282 C4285 1.409 . S
C4283 H4275 0.930 . S
C4283 C4284 1.355 . S
C4283 C4285 1.415 . S
C4284 C4283 1.355 . S
C4284 C4286 1.419 . S
C4285 C4280 1.425 . S
C4285 C4282 1.409 . S
C4285 C4283 1.415 . S
C4286 H4276 0.930 . S
C4286 C4284 1.419 . S
C4286 C4287 1.362 . S
C4287 H4277 0.930 . S
C4287 C4280 1.409 . S
C4287 C4286 1.362 . S
H4288 C4294 0.930 . S
H4289 C4297 0.930 . S
H4290 C4298 0.930 . S
H4291 C4299 0.930 . S
H4292 C4302 0.930 . S
H4293 C4303 0.930 . S
C4294 H4288 0.930 . S
C4294 C4295 1.355 . S
C4294 C4296 1.415 . S
C4295 C4294 1.355 . S
C4295 C4297 1.419 . S
C4296 C4294 1.415 . S
C4296 C4301 1.425 . S
C4296 C4303 1.409 . S
C4297 H4289 0.930 . S
C4297 C4295 1.419 . S
C4297 C4298 1.362 . S
C4298 H4290 0.930 . S
C4298 C4297 1.362 . S
C4298 C4301 1.409 . S
C4299 H4291 0.930 . S
C4299 C4300 1.355 . S
C4299 C4301 1.415 . S
C4300 C4299 1.355 . S
C4300 C4302 1.419 . S
C4301 C4296 1.425 . S
C4301 C4298 1.409 . S
C4301 C4299 1.415 . S
C4302 H4292 0.930 . S
C4302 C4300 1.419 . S
C4302 C4303 1.362 . S
C4303 H4293 0.930 . S
C4303 C4296 1.409 . S
C4303 C4302 1.362 . S
H4304 C4310 0.930 . S
H4305 C4313 0.930 . S
H4306 C4314 0.930 . S
H4307 C4315 0.930 . S
H4308 C4318 0.930 . S
H4309 C4319 0.930 . S
C4310 H4304 0.930 . S
C4310 C4311 1.355 . S
C4310 C4312 1.415 . S
C4311 C4310 1.355 . S
C4311 C4313 1.419 . S
C4312 C4310 1.415 . S
C4312 C4317 1.425 . S
C4312 C4319 1.409 . S
C4313 H4305 0.930 . S
C4313 C4311 1.419 . S
C4313 C4314 1.362 . S
C4314 H4306 0.930 . S
C4314 C4313 1.362 . S
C4314 C4317 1.409 . S
C4315 H4307 0.930 . S
C4315 C4316 1.355 . S
C4315 C4317 1.415 . S
C4316 C4315 1.355 . S
C4316 C4318 1.419 . S
C4317 C4312 1.425 . S
C4317 C4314 1.409 . S
C4317 C4315 1.415 . S
C4318 H4308 0.930 . S
C4318 C4316 1.419 . S
C4318 C4319 1.362 . S
C4319 H4309 0.930 . S
C4319 C4312 1.409 . S
C4319 C4318 1.362 . S
H4320 C4326 0.930 . S
H4321 C4329 0.930 . S
H4322 C4330 0.930 . S
H4323 C4331 0.930 . S
H4324 C4334 0.930 . S
H4325 C4335 0.930 . S
C4326 H4320 0.930 . S
C4326 C4327 1.355 . S
C4326 C4328 1.415 . S
C4327 C4326 1.355 . S
C4327 C4329 1.419 . S
C4328 C4326 1.415 . S
C4328 C4333 1.425 . S
C4328 C4335 1.409 . S
C4329 H4321 0.930 . S
C4329 C4327 1.419 . S
C4329 C4330 1.362 . S
C4330 H4322 0.930 . S
C4330 C4329 1.362 . S
C4330 C4333 1.409 . S
C4331 H4323 0.930 . S
C4331 C4332 1.355 . S
C4331 C4333 1.415 . S
C4332 C4331 1.355 . S
C4332 C4334 1.419 . S
C4333 C4328 1.425 . S
C4333 C4330 1.409 . S
C4333 C4331 1.415 . S
C4334 H4324 0.930 . S
C4334 C4332 1.419 . S
C4334 C4335 1.362 . S
C4335 H4325 0.930 . S
C4335 C4328 1.409 . S
C4335 C4334 1.362 . S
H4336 C4342 0.930 . S
H4337 C4345 0.930 . S
H4338 C4346 0.930 . S
H4339 C4347 0.930 . S
H4340 C4350 0.930 . S
H4341 C4351 0.930 . S
C4342 H4336 0.930 . S
C4342 C4343 1.355 . S
C4342 C4344 1.415 . S
C4343 C4342 1.355 . S
C4343 C4345 1.419 . S
C4344 C4342 1.415 . S
C4344 C4349 1.425 . S
C4344 C4351 1.409 . S
C4345 H4337 0.930 . S
C4345 C4343 1.419 . S
C4345 C4346 1.362 . S
C4346 H4338 0.930 . S
C4346 C4345 1.362 . S
C4346 C4349 1.409 . S
C4347 H4339 0.930 . S
C4347 C4348 1.355 . S
C4347 C4349 1.415 . S
C4348 C4347 1.355 . S
C4348 C4350 1.419 . S
C4349 C4344 1.425 . S
C4349 C4346 1.409 . S
C4349 C4347 1.415 . S
C4350 H4340 0.930 . S
C4350 C4348 1.419 . S
C4350 C4351 1.362 . S
C4351 H4341 0.930 . S
C4351 C4344 1.409 . S
C4351 C4350 1.362 . S
H4352 C4358 0.930 . S
H4353 C4361 0.930 . S
H4354 C4362 0.930 . S
H4355 C4363 0.930 . S
H4356 C4366 0.930 . S
H4357 C4367 0.930 . S
C4358 H4352 0.930 . S
C4358 C4359 1.355 . S
C4358 C4360 1.415 . S
C4359 C4358 1.355 . S
C4359 C4361 1.419 . S
C4360 C4358 1.415 . S
C4360 C4365 1.425 . S
C4360 C4367 1.409 . S
C4361 H4353 0.930 . S
C4361 C4359 1.419 . S
C4361 C4362 1.362 . S
C4362 H4354 0.930 . S
C4362 C4361 1.362 . S
C4362 C4365 1.409 . S
C4363 H4355 0.930 . S
C4363 C4364 1.355 . S
C4363 C4365 1.415 . S
C4364 C4363 1.355 . S
C4364 C4366 1.419 . S
C4365 C4360 1.425 . S
C4365 C4362 1.409 . S
C4365 C4363 1.415 . S
C4366 H4356 0.930 . S
C4366 C4364 1.419 . S
C4366 C4367 1.362 . S
C4367 H4357 0.930 . S
C4367 C4360 1.409 . S
C4367 C4366 1.362 . S
H4368 C4374 0.930 . S
H4369 C4377 0.930 . S
H4370 C4378 0.930 . S
H4371 C4379 0.930 . S
H4372 C4382 0.930 . S
H4373 C4383 0.930 . S
C4374 H4368 0.930 . S
C4374 C4375 1.355 . S
C4374 C4376 1.415 . S
C4375 C4374 1.355 . S
C4375 C4377 1.419 . S
C4376 C4374 1.415 . S
C4376 C4381 1.425 . S
C4376 C4383 1.409 . S
C4377 H4369 0.930 . S
C4377 C4375 1.419 . S
C4377 C4378 1.362 . S
C4378 H4370 0.930 . S
C4378 C4377 1.362 . S
C4378 C4381 1.409 . S
C4379 H4371 0.930 . S
C4379 C4380 1.355 . S
C4379 C4381 1.415 . S
C4380 C4379 1.355 . S
C4380 C4382 1.419 . S
C4381 C4376 1.425 . S
C4381 C4378 1.409 . S
C4381 C4379 1.415 . S
C4382 H4372 0.930 . S
C4382 C4380 1.419 . S
C4382 C4383 1.362 . S
C4383 H4373 0.930 . S
C4383 C4376 1.409 . S
C4383 C4382 1.362 . S
H4384 C4390 0.930 . S
H4385 C4393 0.930 . S
H4386 C4394 0.930 . S
H4387 C4395 0.930 . S
H4388 C4398 0.930 . S
H4389 C4399 0.930 . S
C4390 H4384 0.930 . S
C4390 C4391 1.355 . S
C4390 C4392 1.415 . S
C4391 C4390 1.355 . S
C4391 C4393 1.419 . S
C4392 C4390 1.415 . S
C4392 C4397 1.425 . S
C4392 C4399 1.409 . S
C4393 H4385 0.930 . S
C4393 C4391 1.419 . S
C4393 C4394 1.362 . S
C4394 H4386 0.930 . S
C4394 C4393 1.362 . S
C4394 C4397 1.409 . S
C4395 H4387 0.930 . S
C4395 C4396 1.355 . S
C4395 C4397 1.415 . S
C4396 C4395 1.355 . S
C4396 C4398 1.419 . S
C4397 C4392 1.425 . S
C4397 C4394 1.409 . S
C4397 C4395 1.415 . S
C4398 H4388 0.930 . S
C4398 C4396 1.419 . S
C4398 C4399 1.362 . S
C4399 H4389 0.930 . S
C4399 C4392 1.409 . S
C4399 C4398 1.362 . S
H4400 C4406 0.930 . S
H4401 C4409 0.930 . S
H4402 C4410 0.930 . S
H4403 C4411 0.930 . S
H4404 C4414 0.930 . S
H4405 C4415 0.930 . S
C4406 H4400 0.930 . S
C4406 C4407 1.355 . S
C4406 C4408 1.415 . S
C4407 C4406 1.355 . S
C4407 C4409 1.419 . S
C4408 C4406 1.415 . S
C4408 C4413 1.425 . S
C4408 C4415 1.409 . S
C4409 H4401 0.930 . S
C4409 C4407 1.419 . S
C4409 C4410 1.362 . S
C4410 H4402 0.930 . S
C4410 C4409 1.362 . S
C4410 C4413 1.409 . S
C4411 H4403 0.930 . S
C4411 C4412 1.355 . S
C4411 C4413 1.415 . S
C4412 C4411 1.355 . S
C4412 C4414 1.419 . S
C4413 C4408 1.425 . S
C4413 C4410 1.409 . S
C4413 C4411 1.415 . S
C4414 H4404 0.930 . S
C4414 C4412 1.419 . S
C4414 C4415 1.362 . S
C4415 H4405 0.930 . S
C4415 C4408 1.409 . S
C4415 C4414 1.362 . S
C1351 C558 1.332 . S
C1356 C12 1.345 . S
C1367 C516 1.561 . S
C1372 C26 1.573 . S
C1383 C530 1.346 . S
C1388 C40 1.333 . S
C1399 C544 1.573 . S
C1404 C54 1.561 . S
C1415 C474 1.333 . S
C1420 C68 1.346 . S
C1431 C488 1.574 . S
C1436 C82 1.560 . S
C1447 C96 1.339 . S
C1452 C502 1.343 . S
C1463 C460 1.559 . S
C1468 C110 1.566 . S
C1479 C123 1.359 . S
C1484 C445 1.321 . S
C1495 C138 1.335 . S
C1500 C404 1.345 . S
C1511 C151 1.360 . S
C1516 C417 1.337 . S
C1527 C166 1.346 . S
C1532 C432 1.332 . S
C1543 C361 1.353 . S
C1548 C179 1.349 . S
C1559 C376 1.334 . S
C1564 C194 1.340 . S
C1575 C389 1.357 . S
C1580 C207 1.344 . S
C1591 C348 1.336 . S
C1596 C222 1.338 . S
C1607 C236 1.556 . S
C1612 C628 1.572 . S
C1623 C250 1.573 . S
C1628 C670 1.560 . S
C1639 C641 1.352 . S
C1644 C263 1.350 . S
C1655 C656 1.562 . S
C1660 C278 1.564 . S
C1671 C571 1.358 . S
C1676 C291 1.343 . S
C1687 C600 1.556 . S
C1692 C306 1.575 . S
C1703 C319 1.359 . S
C1708 C613 1.341 . S
C1719 C585 1.317 . S
C1724 C333 1.334 . S
C1735 C992 1.575 . S
C1740 C684 1.556 . S
C1751 C698 1.572 . S
C1756 C1006 1.562 . S
C1767 C712 1.570 . S
C1772 C978 1.565 . S
C1783 C726 1.555 . S
C1788 C964 1.573 . S
C1799 C739 1.360 . S
C1804 C949 1.338 . S
C1815 C753 1.357 . S
C1820 C935 1.344 . S
C1831 C907 1.350 . S
C1836 C767 1.353 . S
C1847 C921 1.362 . S
C1852 C781 1.327 . S
C1863 C796 1.574 . S
C1868 C1076 1.558 . S
C1879 C810 1.565 . S
C1884 C1118 1.569 . S
C1895 C1089 1.356 . S
C1900 C823 1.346 . S
C1911 C838 1.557 . S
C1916 C1104 1.569 . S
C1927 C851 1.320 . S
C1932 C1019 1.329 . S
C1943 C866 1.568 . S
C1948 C1048 1.567 . S
C1959 C1061 1.315 . S
C1964 C879 1.339 . S
C1975 C1033 1.343 . S
C1980 C893 1.358 . S
C1991 C1132 1.342 . S
C1996 C1342 1.339 . S
C2007 C1328 1.337 . S
C2012 C1146 1.337 . S
C2023 C1300 1.336 . S
C2028 C1160 1.345 . S
C2039 C1314 1.337 . S
C2044 C1174 1.337 . S
C2055 C1272 1.340 . S
C2060 C1188 1.342 . S
C2071 C1202 1.345 . S
C2076 C1286 1.336 . S
C2087 C1258 1.344 . S
C2092 C1216 1.337 . S
C2103 C1244 1.345 . S
C2108 C1230 1.336 . S
C2119 C5 0.790 . S
C2124 C439 0.644 . S
C2135 C19 0.930 . S
C2140 C396 0.881 . S
C2151 C33 0.675 . S
C2156 C411 0.847 . S
C2167 C47 0.771 . S
C2172 C424 0.882 . S
C2183 C61 0.711 . S
C2188 C355 0.815 . S
C2199 C75 0.793 . S
C2204 C368 0.872 . S
C2215 C383 0.746 . S
C2220 C89 0.719 . S
C2231 C103 0.913 . S
C2236 C340 0.862 . S
C2247 C116 0.953 . S
C2252 C620 0.940 . S
C2263 C579 0.627 . S
C2268 C131 0.812 . S
C2279 C144 0.924 . S
C2284 C592 0.913 . S
C2295 C159 0.716 . S
C2300 C607 0.809 . S
C2311 C662 0.949 . S
C2316 C172 0.936 . S
C2327 C635 0.627 . S
C2332 C187 0.812 . S
C2343 C648 0.913 . S
C2348 C200 0.922 . S
C2359 C215 0.747 . S
C2364 C565 0.770 . S
C2375 C229 0.821 . S
C2380 C550 0.865 . S
C2391 C243 0.932 . S
C2396 C466 0.871 . S
C2407 C256 0.935 . S
C2412 C480 0.949 . S
C2423 C271 0.933 . S
C2428 C494 0.877 . S
C2439 C284 0.928 . S
C2444 C452 0.947 . S
C2455 C299 0.921 . S
C2460 C522 0.887 . S
C2471 C536 0.920 . S
C2476 C312 0.941 . S
C2487 C326 0.916 . S
C2492 C508 0.940 . S
C2503 C467 0.732 . S
C2508 C943 0.789 . S
C2519 C214 0.893 . S
C2524 C677 0.909 . S
C2535 C495 0.808 . S
C2540 C929 0.626 . S
C2551 C691 0.891 . S
C2556 C186 0.859 . S
C2567 C551 0.733 . S
C2572 C901 0.788 . S
C2583 C705 0.870 . S
C2588 C158 0.901 . S
C2599 C915 0.698 . S
C2604 C523 0.789 . S
C2615 C719 0.793 . S
C2620 C130 0.872 . S
C2631 C1068 0.914 . S
C2636 C732 0.928 . S
C2647 C341 0.702 . S
C2652 C1027 0.824 . S
C2663 C1040 0.917 . S
C2668 C746 0.910 . S
C2679 C1055 0.672 . S
C2684 C369 0.801 . S
C2695 C1110 0.945 . S
C2700 C760 0.924 . S
C2711 C425 0.721 . S
C2716 C1083 0.804 . S
C2727 C774 0.934 . S
C2732 C1096 0.949 . S
C2743 C397 0.782 . S
C2748 C1013 0.654 . S
C2759 C789 0.932 . S
C2764 C60 0.871 . S
C2775 C803 0.775 . S
C2780 C4 0.880 . S
C2791 C970 0.934 . S
C2796 C816 0.909 . S
C2807 C831 0.775 . S
C2812 C32 0.898 . S
C2823 C844 0.915 . S
C2828 C956 0.914 . S
C2839 C88 0.903 . S
C2844 C859 0.797 . S
C2855 C872 0.922 . S
C2860 C998 0.944 . S
C2871 C984 0.929 . S
C2876 C886 0.950 . S
C2887 C201 0.851 . S
C2892 C1125 0.669 . S
C2903 C1264 0.902 . S
C2908 C481 0.865 . S
C2919 C1139 0.746 . S
C2924 C173 0.771 . S
C2935 C453 0.820 . S
C2940 C1278 0.865 . S
C2951 C145 0.838 . S
C2956 C1153 0.662 . S
C2967 C1250 0.860 . S
C2972 C509 0.858 . S
C2983 C117 0.689 . S
C2988 C1167 0.757 . S
C2999 C1236 0.861 . S
C3004 C537 0.910 . S
C3015 C858 0.941 . S
C3020 C382 0.953 . S
C3031 C1181 0.796 . S
C3036 C873 0.685 . S
C3047 C788 0.935 . S
C3052 C354 0.911 . S
C3063 C1195 0.672 . S
C3068 C887 0.849 . S
C3079 C830 0.945 . S
C3084 C410 0.923 . S
C3095 C1209 0.744 . S
C3100 C845 0.709 . S
C3111 C438 0.920 . S
C3116 C802 0.943 . S
C3127 C817 0.780 . S
C3132 C1223 0.697 . S
C3143 C1334 0.863 . S
C3148 C1041 0.829 . S
C3159 C1292 0.879 . S
C3164 C1097 0.777 . S
C3175 C1012 0.907 . S
C3180 C18 0.922 . S
C3191 C1306 0.873 . S
C3196 C1111 0.790 . S
C3207 C46 0.949 . S
C3212 C1082 0.936 . S
C3223 C1069 0.933 . S
C3228 C1320 0.877 . S
C3239 C1026 0.906 . S
C3244 C102 0.924 . S
C3255 C1054 0.946 . S
C3260 C74 0.924 . S
C3271 C1293 0.698 . S
C3276 C775 0.828 . S
C3287 C1222 0.868 . S
C3292 C971 0.808 . S
C3303 C1307 0.792 . S
C3308 C761 0.642 . S
C3319 C957 0.923 . S
C3324 C1208 0.886 . S
C3335 C1335 0.703 . S
C3340 C747 0.769 . S
C3351 C985 0.895 . S
C3356 C1194 0.897 . S
C3367 C1321 0.689 . S
C3372 C733 0.836 . S
C3383 C999 0.789 . S
C3388 C1180 0.902 . S
C3399 C914 0.910 . S
C3404 C298 0.917 . S
C3415 C313 0.771 . S
C3420 C1237 0.746 . S
C3431 C900 0.942 . S
C3436 C228 0.921 . S
C3447 C1251 0.768 . S
C3452 C327 0.674 . S
C3463 C928 0.913 . S
C3468 C270 0.938 . S
C3479 C285 0.736 . S
C3484 C1279 0.769 . S
C3495 C242 0.922 . S
C3500 C942 0.944 . S
C3511 C257 0.843 . S
C3516 C1265 0.681 . S
C3527 C1152 0.903 . S
C3532 C593 0.854 . S
C3543 C649 0.927 . S
C3548 C1124 0.884 . S
C3559 C676 0.922 . S
C3564 C564 0.944 . S
C3575 C663 0.932 . S
C3580 C1138 0.871 . S
C3591 C690 0.940 . S
C3596 C634 0.916 . S
C3607 C1166 0.859 . S
C3612 C621 0.868 . S
C3623 C718 0.924 . S
C3628 C578 0.906 . S
C3639 C704 0.930 . S
C3644 C606 0.951 . S
C3655 C403 0.949 . S
C3660 C11 1.021 . S
C3671 C25 1.163 . S
C3676 C418 1.172 . S
C3687 C431 0.951 . S
C3692 C39 1.002 . S
C3703 C53 1.206 . S
C3708 C446 1.176 . S
C3719 C347 0.963 . S
C3724 C67 0.977 . S
C3735 C362 1.225 . S
C3740 C81 1.202 . S
C3751 C95 1.036 . S
C3756 C375 1.034 . S
C3767 C109 1.218 . S
C3772 C390 1.187 . S
C3783 C543 1.216 . S
C3788 C124 1.185 . S
C3799 C137 1.024 . S
C3804 C557 1.044 . S
C3815 C152 1.183 . S
C3820 C515 1.143 . S
C3831 C529 1.050 . S
C3836 C165 0.971 . S
C3847 C180 1.207 . S
C3852 C487 1.139 . S
C3863 C501 1.045 . S
C3868 C193 1.022 . S
C3879 C459 1.215 . S
C3884 C208 1.184 . S
C3895 C473 1.035 . S
C3900 C221 0.954 . S
C3911 C235 1.149 . S
C3916 C642 1.219 . S
C3927 C614 1.201 . S
C3932 C249 1.137 . S
C3943 C627 1.138 . S
C3948 C264 1.191 . S
C3959 C586 1.171 . S
C3964 C277 1.164 . S
C3975 C292 1.227 . S
C3980 C599 1.168 . S
C3991 C305 1.152 . S
C3996 C572 1.176 . S
C4007 C669 1.209 . S
C4012 C320 1.221 . S
C4023 C334 1.210 . S
C4028 C655 1.219 . S
C4039 C683 1.161 . S
C4044 C936 1.225 . S
C4055 C950 1.183 . S
C4060 C697 1.143 . S
C4071 C908 1.171 . S
C4076 C711 1.164 . S
C4087 C922 1.174 . S
C4092 C725 1.201 . S
C4103 C740 1.228 . S
C4108 C1005 1.190 . S
C4119 C991 1.139 . S
C4124 C754 1.189 . S
C4135 C768 1.226 . S
C4140 C977 1.198 . S
C4151 C782 1.215 . S
C4156 C963 1.144 . S
C4167 C1090 1.224 . S
C4172 C795 1.204 . S
C4183 C809 1.221 . S
C4188 C1062 1.197 . S
C4199 C1075 1.138 . S
C4204 C824 1.204 . S
C4215 C1034 1.224 . S
C4220 C837 1.158 . S
C4231 C1047 1.205 . S
C4236 C852 1.176 . S
C4247 C1020 1.176 . S
C4252 C865 1.152 . S
C4263 C1117 1.206 . S
C4268 C880 1.223 . S
C4279 C1103 1.153 . S
C4284 C894 1.176 . S
C4295 C1131 0.984 . S
C4300 C1271 0.958 . S
C4311 C1285 1.019 . S
C4316 C1145 1.047 . S
C4327 C1159 0.977 . S
C4332 C1243 1.052 . S
C4343 C1257 1.052 . S
C4348 C1173 1.007 . S
C4359 C1187 1.041 . S
C4364 C1341 1.028 . S
C4375 C1201 1.052 . S
C4380 C1327 0.975 . S
C4391 C1313 1.025 . S
C4396 C1215 0.950 . S
C4407 C1229 1.049 . S
C4412 C1299 0.968 . S
