# Generated by pormake.
# Topology npo, (4)-cn, num edge types: 1
# Building blocks:
#     Node 0, Type 0, BuildingBlock: ICAMEG_clean_sbu_1, # of connection points: 4
#     Node 1, Type 0, BuildingBlock: ICAMEG_clean_sbu_1, # of connection points: 4
#     Node 2, Type 0, BuildingBlock: ICAMEG_clean_sbu_1, # of connection points: 4
#     Node 3, Type 0, BuildingBlock: ICAMEG_clean_sbu_1, # of connection points: 4
#     Node 4, Type 0, BuildingBlock: ICAMEG_clean_sbu_1, # of connection points: 4
#     Node 5, Type 0, BuildingBlock: ICAMEG_clean_sbu_1, # of connection points: 4
#     Edge 6, Type (0, 0), BuildingBlock: UVAHIK_clean_linker_0, # of connection points: 2
#     Edge 7, Type (0, 0), BuildingBlock: UVAHIK_clean_linker_0, # of connection points: 2
#     Edge 8, Type (0, 0), BuildingBlock: UVAHIK_clean_linker_0, # of connection points: 2
#     Edge 9, Type (0, 0), BuildingBlock: UVAHIK_clean_linker_0, # of connection points: 2
#     Edge 10, Type (0, 0), BuildingBlock: UVAHIK_clean_linker_0, # of connection points: 2
#     Edge 11, Type (0, 0), BuildingBlock: UVAHIK_clean_linker_0, # of connection points: 2
#     Edge 12, Type (0, 0), BuildingBlock: UVAHIK_clean_linker_0, # of connection points: 2
#     Edge 13, Type (0, 0), BuildingBlock: UVAHIK_clean_linker_0, # of connection points: 2
#     Edge 14, Type (0, 0), BuildingBlock: UVAHIK_clean_linker_0, # of connection points: 2
#     Edge 15, Type (0, 0), BuildingBlock: UVAHIK_clean_linker_0, # of connection points: 2
#     Edge 16, Type (0, 0), BuildingBlock: UVAHIK_clean_linker_0, # of connection points: 2
#     Edge 17, Type (0, 0), BuildingBlock: UVAHIK_clean_linker_0, # of connection points: 2
# Relax obj value: 0.245
# Max RMSD: 0.244
# Mean RMSD: 0.244
data_MOF--net-npo--node1-ICAMEG_clean_sbu_1--edge1-UVAHIK_clean_linker_0
_symmetry_space_group_name_H-M    P1
_symmetry_Int_Tables_number       1
_symmetry_cell_setting            triclinic
loop_
_symmetry_equiv_pos_as_xyz
'x, y, z'
_cell_length_a     58.982077
_cell_length_b     58.964687
_cell_length_c     33.160343
_cell_angle_alpha  90.047959
_cell_angle_beta   90.140047
_cell_angle_gamma 120.02888
loop_
_atom_site_label
_atom_site_type_symbol
_atom_site_fract_x
_atom_site_fract_y
_atom_site_fract_z
_atom_type_partial_charge
Co0 Co 0.56224 0.12058 0.21498 0.0
Co1 Co 0.5659 0.12562 0.31831 0.0
O2 O 0.55339 0.10447 0.2688 0.0
C3 C 0.51156 0.09611 0.1717 0.0
O4 O 0.51579 0.11994 0.16573 0.0
C5 C 0.56809 0.07623 0.33712 0.0
O6 O 0.56159 0.06725 0.30019 0.0
O7 O 0.60267 0.1421 0.29894 0.0
O8 O 0.59754 0.14856 0.23379 0.0
H9 H 0.61972 0.20926 0.39574 0.0
H10 H 0.54315 0.06365 0.22108 0.0
O11 O 0.52711 0.09261 0.19432 0.0
H12 H 0.6318 0.10211 0.16356 0.0
H13 H 0.56783 0.12018 0.06314 0.0
H14 H 0.58594 0.17499 0.18464 0.0
H15 H 0.61294 0.13001 0.17983 0.0
H16 H 0.5571 0.1001 0.13065 0.0
O17 O 0.57055 0.09822 0.34704 0.0
H18 H 0.60282 0.18186 0.33467 0.0
H19 H 0.55658 0.11468 0.40659 0.0
H20 H 0.59702 0.19586 0.11768 0.0
H21 H 0.5611 0.03496 0.20458 0.0
H22 H 0.58795 0.1684 0.05632 0.0
H23 H 0.60578 0.05418 0.17574 0.0
O24 O 0.54737 0.14338 0.22949 0.0
H25 H 0.47475 0.05066 0.34328 0.0
H26 H 0.53357 0.14606 0.35516 0.0
H27 H 0.48789 0.12645 0.37805 0.0
H28 H 0.45814 0.07837 0.37242 0.0
H29 H 0.52041 0.07111 0.32027 0.0
H30 H 0.57316 0.14134 0.46844 0.0
H31 H 0.60488 0.18901 0.46324 0.0
O32 O 0.56192 0.15411 0.29297 0.0
C33 C 0.61183 0.15299 0.26501 0.0
C34 C 0.60584 0.18852 0.3984 0.0
C35 C 0.57974 0.1504 0.43919 0.0
N36 N 0.57859 0.14673 0.36699 0.0
C37 C 0.59616 0.17291 0.36391 0.0
C38 C 0.57048 0.13539 0.40405 0.0
C39 C 0.59753 0.17714 0.43626 0.0
C40 C 0.56253 0.07216 0.20827 0.0
N41 N 0.57697 0.09852 0.20158 0.0
C42 C 0.57263 0.05582 0.19911 0.0
C43 C 0.59771 0.06661 0.18299 0.0
C44 C 0.61233 0.09351 0.17621 0.0
C45 C 0.6016 0.10924 0.18574 0.0
C46 C 0.5719 0.13236 0.08965 0.0
C47 C 0.58193 0.16289 0.1581 0.0
C48 C 0.56588 0.12111 0.12798 0.0
N49 N 0.57087 0.13635 0.16163 0.0
C50 C 0.58826 0.17483 0.12026 0.0
C51 C 0.58317 0.15941 0.08584 0.0
C52 C 0.55197 0.15749 0.261 0.0
C53 C 0.48757 0.07161 0.34618 0.0
C54 C 0.5208 0.12513 0.35255 0.0
C55 C 0.49492 0.11413 0.36562 0.0
C56 C 0.47825 0.08716 0.36246 0.0
N57 N 0.52992 0.10972 0.33702 0.0
C58 C 0.51357 0.0833 0.33342 0.0
Co59 Co 0.44683 0.5664 0.69642 0.0
Co60 Co 0.4346 0.55436 0.79935 0.0
O61 O 0.44982 0.55126 0.74798 0.0
C62 C 0.43174 0.5104 0.67388 0.0
O63 O 0.43296 0.50371 0.71121 0.0
C64 C 0.49067 0.57006 0.8219 0.0
O65 O 0.49771 0.57089 0.7842 0.0
O66 O 0.44717 0.59248 0.79015 0.0
O67 O 0.45645 0.59967 0.72421 0.0
H68 H 0.38137 0.58071 0.885 0.0
H69 H 0.48104 0.54258 0.70225 0.0
O70 O 0.4367 0.53347 0.66532 0.0
H71 H 0.53924 0.63376 0.65946 0.0
H72 H 0.45936 0.58476 0.54724 0.0
H73 H 0.4247 0.59996 0.67327 0.0
H74 H 0.49231 0.61732 0.67097 0.0
H75 H 0.46312 0.56566 0.61128 0.0
O76 O 0.46739 0.56424 0.83075 0.0
H77 H 0.40113 0.57666 0.82193 0.0
H78 H 0.43502 0.53803 0.88464 0.0
H79 H 0.42079 0.61965 0.60995 0.0
H80 H 0.52767 0.55802 0.69034 0.0
H81 H 0.43817 0.61207 0.54633 0.0
H82 H 0.55721 0.60397 0.66892 0.0
O83 O 0.40877 0.55382 0.70532 0.0
H84 H 0.44318 0.47369 0.80623 0.0
H85 H 0.38365 0.50883 0.82472 0.0
H86 H 0.36729 0.46189 0.83633 0.0
H87 H 0.39719 0.44403 0.8273 0.0
H88 H 0.45855 0.52035 0.79421 0.0
H89 H 0.41584 0.54191 0.94842 0.0
H90 H 0.3887 0.56328 0.94885 0.0
O91 O 0.40135 0.54465 0.77128 0.0
C92 C 0.45516 0.60748 0.7594 0.0
C93 C 0.39311 0.57131 0.88519 0.0
C94 C 0.41249 0.54957 0.92079 0.0
N95 N 0.41913 0.55703 0.84951 0.0
C96 C 0.4043 0.5689 0.84954 0.0
C97 C 0.42337 0.54751 0.88458 0.0
C98 C 0.39725 0.56155 0.92101 0.0
C99 C 0.49355 0.56244 0.69232 0.0
N100 N 0.48376 0.57889 0.68694 0.0
C101 C 0.52005 0.57115 0.6859 0.0
C102 C 0.53663 0.59695 0.67398 0.0
C103 C 0.52657 0.61368 0.66872 0.0
C104 C 0.49997 0.60427 0.67546 0.0
C105 C 0.45173 0.58822 0.57478 0.0
C106 C 0.43245 0.59669 0.64577 0.0
C107 C 0.45372 0.57739 0.61113 0.0
N108 N 0.44424 0.58178 0.64607 0.0
C109 C 0.43012 0.60783 0.60998 0.0
C110 C 0.43985 0.60355 0.57429 0.0
C111 C 0.39367 0.54574 0.73589 0.0
C112 C 0.42999 0.48125 0.81043 0.0
C113 C 0.39672 0.5012 0.82037 0.0
C114 C 0.38738 0.47461 0.82719 0.0
C115 C 0.40417 0.46461 0.82217 0.0
N116 N 0.42211 0.51745 0.80901 0.0
C117 C 0.43865 0.50775 0.80392 0.0
Co118 Co 0.88065 0.43766 0.29976 0.0
Co119 Co 0.87664 0.44179 0.197 0.0
O120 O 0.89724 0.4519 0.24735 0.0
C121 C 0.92298 0.49388 0.31908 0.0
O122 O 0.93095 0.49931 0.2816 0.0
C123 C 0.92106 0.43418 0.17006 0.0
O124 O 0.91786 0.41919 0.20128 0.0
O125 O 0.86366 0.40395 0.20776 0.0
O126 O 0.85657 0.403 0.27431 0.0
H127 H 0.79641 0.38801 0.11207 0.0
H128 H 0.93819 0.46069 0.28638 0.0
O129 O 0.90394 0.47151 0.32865 0.0
H130 H 0.90814 0.37291 0.34249 0.0
H131 H 0.87831 0.42379 0.45007 0.0
H132 H 0.82561 0.4041 0.32576 0.0
H133 H 0.87709 0.38873 0.33195 0.0
H134 H 0.89965 0.44121 0.3846 0.0
O135 O 0.90707 0.44488 0.16594 0.0
H136 H 0.82239 0.40135 0.17482 0.0
H137 H 0.88759 0.46112 0.11206 0.0
H138 H 0.80352 0.386 0.39056 0.0
H139 H 0.96994 0.44586 0.29698 0.0
H140 H 0.82991 0.39584 0.45332 0.0
H141 H 0.95503 0.40162 0.32518 0.0
O142 O 0.85483 0.44968 0.29 0.0
H143 H 0.94493 0.53698 0.18603 0.0
H144 H 0.85071 0.47254 0.17469 0.0
H145 H 0.86604 0.5193 0.16324 0.0
H146 H 0.91348 0.5519 0.16878 0.0
H147 H 0.9287 0.49001 0.19769 0.0
H148 H 0.86241 0.44829 0.04852 0.0
H149 H 0.81642 0.41153 0.04827 0.0
O150 O 0.84546 0.43863 0.22507 0.0
C151 C 0.85346 0.39156 0.24039 0.0
C152 C 0.81644 0.40404 0.11176 0.0
C153 C 0.85349 0.43784 0.07609 0.0
N154 N 0.85656 0.4319 0.14714 0.0
C155 C 0.83126 0.41168 0.14722 0.0
C156 C 0.86771 0.44493 0.11214 0.0
C157 C 0.82768 0.41723 0.07598 0.0
C158 C 0.93148 0.44164 0.29927 0.0
N159 N 0.90573 0.42586 0.30917 0.0
C160 C 0.94959 0.43324 0.30494 0.0
C161 C 0.94121 0.4084 0.32067 0.0
C162 C 0.91492 0.39229 0.33036 0.0
C163 C 0.89738 0.40135 0.32423 0.0
C164 C 0.86659 0.41934 0.42292 0.0
C165 C 0.83726 0.40834 0.35288 0.0
C166 C 0.87856 0.42923 0.38576 0.0
N167 N 0.8639 0.42356 0.35128 0.0
C168 C 0.82462 0.3981 0.38951 0.0
C169 C 0.83944 0.40365 0.42472 0.0
C170 C 0.84045 0.44529 0.25888 0.0
C171 C 0.92421 0.52297 0.1835 0.0
C172 C 0.87136 0.4866 0.1775 0.0
C173 C 0.87994 0.51305 0.1708 0.0
C174 C 0.90656 0.53133 0.17387 0.0
N175 N 0.88881 0.47855 0.18698 0.0
C176 C 0.91492 0.49634 0.18998 0.0
Co177 Co 0.44942 0.8807 0.81059 0.0
Co178 Co 0.42868 0.88067 0.71221 0.0
O179 O 0.44815 0.89883 0.76145 0.0
C180 C 0.4321 0.91801 0.84189 0.0
O181 O 0.42347 0.92017 0.8064 0.0
C182 C 0.48356 0.91601 0.68178 0.0
O183 O 0.49379 0.91649 0.71718 0.0
O184 O 0.44109 0.85458 0.71477 0.0
O185 O 0.45665 0.85721 0.77749 0.0
H186 H 0.36735 0.8016 0.63031 0.0
H187 H 0.482 0.93852 0.8048 0.0
O188 O 0.44244 0.90374 0.84666 0.0
H189 H 0.54458 0.90716 0.82489 0.0
H190 H 0.47509 0.87519 0.9538 0.0
H191 H 0.42929 0.82503 0.83188 0.0
H192 H 0.49708 0.87597 0.82254 0.0
H193 H 0.47317 0.89791 0.89263 0.0
O194 O 0.45889 0.90336 0.67642 0.0
H195 H 0.39258 0.82506 0.69086 0.0
H196 H 0.42262 0.89785 0.63004 0.0
H197 H 0.43098 0.80156 0.89229 0.0
H198 H 0.52931 0.97044 0.80754 0.0
H199 H 0.45399 0.82667 0.95384 0.0
H200 H 0.56097 0.9548 0.81749 0.0
O201 O 0.4108 0.85491 0.80805 0.0
H202 H 0.43977 0.97088 0.71424 0.0
H203 H 0.37651 0.87648 0.70057 0.0
H204 H 0.36076 0.9081 0.69788 0.0
H205 H 0.39251 0.9557 0.70461 0.0
H206 H 0.4546 0.93854 0.71731 0.0
H207 H 0.39791 0.87514 0.56873 0.0
H208 H 0.36994 0.82668 0.56865 0.0
O209 O 0.39789 0.85753 0.74526 0.0
C210 C 0.45201 0.84793 0.74193 0.0
C211 C 0.37943 0.82273 0.62999 0.0
C212 C 0.39661 0.864 0.59541 0.0
N213 N 0.40898 0.8628 0.66408 0.0
C214 C 0.39372 0.83613 0.66422 0.0
C215 C 0.41062 0.87674 0.6302 0.0
C216 C 0.38091 0.83681 0.5954 0.0
C217 C 0.49562 0.93157 0.80956 0.0
N218 N 0.48676 0.9054 0.81361 0.0
C219 C 0.5224 0.94974 0.8109 0.0
C220 C 0.54016 0.94095 0.81641 0.0
C221 C 0.53098 0.91422 0.82052 0.0
C222 C 0.50406 0.89663 0.81898 0.0
C223 C 0.46501 0.86403 0.92717 0.0
C224 C 0.43943 0.83612 0.85849 0.0
C225 C 0.46377 0.87678 0.89246 0.0
N226 N 0.45117 0.86282 0.85864 0.0
C227 C 0.44028 0.82271 0.89263 0.0
C228 C 0.45318 0.83681 0.92716 0.0
C229 C 0.39323 0.84837 0.78084 0.0
C230 C 0.42575 0.9502 0.71118 0.0
C231 C 0.39041 0.89714 0.70384 0.0
C232 C 0.38139 0.91496 0.70211 0.0
C233 C 0.39922 0.94167 0.70584 0.0
N234 N 0.41646 0.90566 0.70905 0.0
C235 C 0.43405 0.9318 0.71272 0.0
Co236 Co 0.55109 0.43568 0.19865 0.0
Co237 Co 0.56272 0.44867 0.30164 0.0
O238 O 0.54774 0.45125 0.24956 0.0
C239 C 0.56497 0.49106 0.17441 0.0
O240 O 0.56391 0.49816 0.21154 0.0
C241 C 0.50659 0.43303 0.32293 0.0
O242 O 0.49928 0.43091 0.28507 0.0
O243 O 0.54946 0.41033 0.29383 0.0
O244 O 0.54213 0.40288 0.22743 0.0
H245 H 0.61476 0.42237 0.39059 0.0
H246 H 0.51597 0.4585 0.20269 0.0
O247 O 0.56048 0.46804 0.16653 0.0
H248 H 0.45911 0.36649 0.16187 0.0
H249 H 0.5386 0.41515 0.04991 0.0
H250 H 0.57433 0.40282 0.17734 0.0
H251 H 0.50621 0.38396 0.17392 0.0
H252 H 0.53446 0.43483 0.11309 0.0
O253 O 0.53006 0.43975 0.33223 0.0
H254 H 0.59523 0.42571 0.32664 0.0
H255 H 0.56267 0.46668 0.38601 0.0
H256 H 0.57863 0.38257 0.1149 0.0
H257 H 0.46916 0.44203 0.19019 0.0
H258 H 0.56071 0.3887 0.05058 0.0
H259 H 0.44029 0.39565 0.16976 0.0
O260 O 0.58931 0.44912 0.20814 0.0
H261 H 0.55517 0.52994 0.30482 0.0
H262 H 0.61407 0.4943 0.32626 0.0
H263 H 0.63093 0.54152 0.33605 0.0
H264 H 0.60135 0.55963 0.32551 0.0
H265 H 0.53932 0.48296 0.29464 0.0
H266 H 0.58163 0.46353 0.45065 0.0
H267 H 0.608 0.44136 0.4532 0.0
O268 O 0.5959 0.45736 0.27448 0.0
C269 C 0.54237 0.39519 0.26314 0.0
C270 C 0.60337 0.43214 0.38985 0.0
C271 C 0.58474 0.45521 0.42357 0.0
N272 N 0.57794 0.4465 0.35248 0.0
C273 C 0.59231 0.43416 0.3537 0.0
C274 C 0.57399 0.45686 0.38687 0.0
C275 C 0.59954 0.44278 0.42497 0.0
C276 C 0.50376 0.43846 0.19318 0.0
N277 N 0.51402 0.42235 0.18867 0.0
C278 C 0.47715 0.42916 0.18643 0.0
C279 C 0.46095 0.40313 0.17507 0.0
C280 C 0.47149 0.38676 0.17069 0.0
C281 C 0.49818 0.39674 0.17773 0.0
C282 C 0.54647 0.41232 0.07775 0.0
C283 C 0.56634 0.40546 0.14952 0.0
C284 C 0.54426 0.42348 0.11362 0.0
N285 N 0.55404 0.41989 0.14896 0.0
C286 C 0.5689 0.394 0.11423 0.0
C287 C 0.55886 0.39747 0.07815 0.0
C288 C 0.60403 0.45666 0.23932 0.0
C289 C 0.56824 0.52228 0.30963 0.0
C290 C 0.60116 0.50204 0.3212 0.0
C291 C 0.61077 0.52879 0.32701 0.0
C292 C 0.59416 0.53893 0.32115 0.0
N293 N 0.57569 0.4858 0.30996 0.0
C294 C 0.55931 0.49563 0.30413 0.0
Co295 Co 0.12325 0.55735 0.6882 0.0
Co296 Co 0.11596 0.56228 0.79159 0.0
O297 O 0.1017 0.55033 0.73694 0.0
C298 C 0.08352 0.57335 0.66458 0.0
O299 O 0.07801 0.57514 0.70233 0.0
C300 C 0.09511 0.51366 0.83928 0.0
O301 O 0.1196 0.52033 0.8463 0.0
O302 O 0.14233 0.5506 0.78442 0.0
O303 O 0.14629 0.54755 0.71755 0.0
H304 H 0.1879 0.60881 0.89375 0.0
H305 H 0.06573 0.52108 0.68549 0.0
O306 O 0.10067 0.5671 0.65573 0.0
H307 H 0.10487 0.46865 0.64008 0.0
H308 H 0.13918 0.55436 0.53949 0.0
H309 H 0.18037 0.58338 0.67339 0.0
H310 H 0.13291 0.51515 0.65844 0.0
H311 H 0.11203 0.54562 0.60022 0.0
O312 O 0.08991 0.52708 0.81456 0.0
H313 H 0.16943 0.59286 0.82599 0.0
H314 H 0.09228 0.55816 0.87303 0.0
H315 H 0.20824 0.59229 0.61345 0.0
H316 H 0.03695 0.47476 0.66689 0.0
H317 H 0.18764 0.57775 0.54589 0.0
H318 H 0.05649 0.44818 0.64407 0.0
O319 O 0.14655 0.59505 0.70365 0.0
H320 H 0.02593 0.55155 0.78711 0.0
H321 H 0.11893 0.61209 0.81872 0.0
H322 H 0.08698 0.62711 0.82646 0.0
H323 H 0.04005 0.59669 0.81079 0.0
H324 H 0.05864 0.53752 0.77903 0.0
H325 H 0.10993 0.57365 0.94131 0.0
H326 H 0.15807 0.5992 0.95201 0.0
O327 O 0.14177 0.59719 0.7705 0.0
C328 C 0.15218 0.54563 0.75378 0.0
C329 C 0.16689 0.59767 0.88948 0.0
C330 C 0.12313 0.57795 0.91617 0.0
N331 N 0.12981 0.57451 0.84551 0.0
C332 C 0.15631 0.58857 0.85117 0.0
C333 C 0.11326 0.56921 0.87743 0.0
C334 C 0.15014 0.59228 0.92215 0.0
C335 C 0.07441 0.50974 0.67528 0.0
N336 N 0.101 0.52089 0.67288 0.0
C337 C 0.058 0.48347 0.66492 0.0
C338 C 0.06897 0.46856 0.65217 0.0
C339 C 0.09611 0.48002 0.64996 0.0
C340 C 0.1119 0.50635 0.66056 0.0
C341 C 0.14838 0.56079 0.56876 0.0
C342 C 0.17125 0.57689 0.64412 0.0
C343 C 0.13311 0.55598 0.60327 0.0
N344 N 0.1446 0.56392 0.64038 0.0
C345 C 0.18714 0.58204 0.61028 0.0
C346 C 0.17557 0.5739 0.57238 0.0
C347 C 0.15223 0.60763 0.73701 0.0
C348 C 0.04631 0.56497 0.79411 0.0
C349 C 0.09863 0.59885 0.81136 0.0
C350 C 0.08058 0.60741 0.81605 0.0
C351 C 0.05425 0.59031 0.80732 0.0
N352 N 0.0907 0.57395 0.7984 0.0
C353 C 0.06491 0.55709 0.78979 0.0
C354 C 0.53574 0.18517 0.22738 0.0
C355 C 0.54644 0.17944 0.26115 0.0
C356 C 0.53128 0.20641 0.22823 0.0
C357 C 0.52563 0.2526 0.299 0.0
H358 H 0.54515 0.29772 0.20538 0.0
C359 C 0.54399 0.35921 0.30181 0.0
C360 C 0.53601 0.36758 0.26768 0.0
C361 C 0.54157 0.3343 0.30248 0.0
C362 C 0.53925 0.28514 0.23163 0.0
H363 H 0.56073 0.19173 0.32239 0.0
H364 H 0.55342 0.22851 0.32343 0.0
H365 H 0.54752 0.25773 0.20247 0.0
H366 H 0.51757 0.35552 0.20873 0.0
H367 H 0.51313 0.31243 0.21028 0.0
H368 H 0.51802 0.28052 0.32842 0.0
C369 C 0.54793 0.21642 0.29656 0.0
C370 C 0.54055 0.26215 0.2299 0.0
C371 C 0.55234 0.19531 0.29576 0.0
C372 C 0.52422 0.34996 0.23538 0.0
C373 C 0.5218 0.32522 0.23609 0.0
C374 C 0.52445 0.2757 0.30079 0.0
C375 C 0.53743 0.22233 0.26285 0.0
C376 C 0.53401 0.2457 0.26368 0.0
C377 C 0.53113 0.31736 0.26906 0.0
C378 C 0.53141 0.29231 0.26719 0.0
H379 H 0.53095 0.17338 0.20026 0.0
H380 H 0.52296 0.21031 0.20181 0.0
H381 H 0.52004 0.24018 0.32541 0.0
H382 H 0.55323 0.3723 0.32713 0.0
H383 H 0.54901 0.32882 0.32834 0.0
C384 C 0.34755 0.52255 0.76011 0.0
C385 C 0.36612 0.53933 0.73189 0.0
C386 C 0.3228 0.52003 0.76192 0.0
C387 C 0.27601 0.53364 0.70748 0.0
H388 H 0.25089 0.53386 0.8155 0.0
C389 C 0.19306 0.55209 0.7875 0.0
C390 C 0.17289 0.53883 0.75922 0.0
C391 C 0.21552 0.54967 0.78617 0.0
C392 C 0.25767 0.53391 0.78516 0.0
H393 H 0.37279 0.56562 0.68198 0.0
H394 H 0.32942 0.56143 0.68529 0.0
H395 H 0.29232 0.53477 0.80649 0.0
H396 H 0.15917 0.51089 0.70995 0.0
H397 H 0.19772 0.50605 0.70838 0.0
H398 H 0.24186 0.53374 0.68612 0.0
C399 C 0.334 0.55003 0.70588 0.0
C400 C 0.28127 0.5341 0.77994 0.0
C401 C 0.35883 0.5524 0.70387 0.0
C402 C 0.17465 0.52168 0.73166 0.0
C403 C 0.19684 0.51908 0.73057 0.0
C404 C 0.25245 0.53351 0.7127 0.0
C405 C 0.31599 0.53439 0.73575 0.0
C406 C 0.29071 0.53391 0.74103 0.0
C407 C 0.21799 0.53378 0.75675 0.0
C408 C 0.24294 0.53357 0.7516 0.0
H409 H 0.35243 0.51192 0.78175 0.0
H410 H 0.30917 0.50724 0.78451 0.0
H411 H 0.28261 0.53335 0.67714 0.0
H412 H 0.19226 0.56558 0.80885 0.0
H413 H 0.23147 0.56131 0.80677 0.0
C414 C 0.65045 0.18485 0.22427 0.0
C415 C 0.63997 0.17306 0.26174 0.0
C416 C 0.67624 0.2054 0.22131 0.0
C417 C 0.72676 0.2581 0.28288 0.0
H418 H 0.77158 0.26872 0.19094 0.0
C419 C 0.8279 0.34879 0.27573 0.0
C420 C 0.83482 0.36294 0.2394 0.0
C421 C 0.80702 0.3232 0.27725 0.0
C422 C 0.75922 0.26607 0.21667 0.0
H423 H 0.64893 0.17311 0.32524 0.0
H424 H 0.69409 0.20896 0.31999 0.0
H425 H 0.72958 0.22796 0.19682 0.0
H426 H 0.82625 0.36038 0.17539 0.0
H427 H 0.789 0.31565 0.17825 0.0
H428 H 0.75578 0.29625 0.30235 0.0
C429 C 0.68213 0.2024 0.29297 0.0
C430 C 0.7352 0.24273 0.2201 0.0
C431 C 0.65629 0.18176 0.29595 0.0
C432 C 0.82137 0.35013 0.20392 0.0
C433 C 0.80007 0.32444 0.20556 0.0
C434 C 0.75064 0.28134 0.27944 0.0
C435 C 0.69225 0.21477 0.25572 0.0
C436 C 0.71863 0.23856 0.25317 0.0
C437 C 0.7921 0.31108 0.24261 0.0
C438 C 0.76717 0.2857 0.24628 0.0
H439 H 0.63854 0.17873 0.19719 0.0
H440 H 0.68326 0.21465 0.19227 0.0
H441 H 0.71425 0.25584 0.30823 0.0
H442 H 0.83788 0.3578 0.30364 0.0
H443 H 0.80194 0.31323 0.30606 0.0
C444 C 0.4776 0.82581 0.7565 0.0
C445 C 0.45763 0.82652 0.73431 0.0
C446 C 0.47957 0.80323 0.75733 0.0
C447 C 0.45825 0.7394 0.70853 0.0
H448 H 0.46883 0.7197 0.81566 0.0
C449 C 0.47533 0.65286 0.73211 0.0
C450 C 0.46082 0.6349 0.76267 0.0
C451 C 0.47661 0.67707 0.7298 0.0
C452 C 0.46574 0.72485 0.78562 0.0
H453 H 0.42508 0.80468 0.69344 0.0
H454 H 0.42857 0.76497 0.69468 0.0
H455 H 0.46769 0.76016 0.80633 0.0
H456 H 0.43751 0.62901 0.81621 0.0
H457 H 0.43986 0.67162 0.8123 0.0
H458 H 0.45584 0.70385 0.68794 0.0
C459 C 0.44272 0.782 0.71147 0.0
C460 C 0.46537 0.74817 0.78015 0.0
C461 C 0.44079 0.80476 0.71056 0.0
C462 C 0.44897 0.64244 0.79245 0.0
C463 C 0.45024 0.66681 0.79009 0.0
C464 C 0.45873 0.71613 0.71398 0.0
C465 C 0.46157 0.78073 0.73606 0.0
C466 C 0.46176 0.7558 0.74151 0.0
C467 C 0.46341 0.68402 0.75796 0.0
C468 C 0.46262 0.70865 0.75256 0.0
H469 H 0.49111 0.8424 0.77467 0.0
H470 H 0.49477 0.80316 0.77563 0.0
H471 H 0.45547 0.74472 0.67842 0.0
H472 H 0.48498 0.64787 0.70894 0.0
H473 H 0.48751 0.69015 0.70534 0.0
C474 C 0.63969 0.45226 0.20514 0.0
C475 C 0.63158 0.46275 0.23627 0.0
C476 C 0.6643 0.45409 0.20693 0.0
C477 C 0.71326 0.46079 0.28257 0.0
H478 H 0.75621 0.46958 0.18918 0.0
C479 C 0.81273 0.46193 0.29129 0.0
C480 C 0.81679 0.44802 0.26041 0.0
C481 C 0.79128 0.46608 0.28949 0.0
C482 C 0.74434 0.46696 0.21555 0.0
H483 H 0.64384 0.48515 0.292 0.0
H484 H 0.68659 0.48873 0.29459 0.0
H485 H 0.71714 0.47346 0.18172 0.0
H486 H 0.80063 0.42641 0.20457 0.0
H487 H 0.76364 0.43329 0.20193 0.0
H488 H 0.74023 0.45381 0.31625 0.0
C489 C 0.67376 0.47845 0.26943 0.0
C490 C 0.72196 0.46917 0.21122 0.0
C491 C 0.64925 0.47654 0.26773 0.0
C492 C 0.79849 0.43761 0.22864 0.0
C493 C 0.77726 0.4417 0.22689 0.0
C494 C 0.73566 0.45855 0.2869 0.0
C495 C 0.68128 0.46655 0.23978 0.0
C496 C 0.70597 0.4658 0.24457 0.0
C497 C 0.7736 0.45637 0.25679 0.0
C498 C 0.75121 0.46117 0.2533 0.0
H499 H 0.62652 0.4414 0.1806 0.0
H500 H 0.66947 0.44462 0.18363 0.0
H501 H 0.70118 0.45772 0.30883 0.0
H502 H 0.82646 0.4702 0.31614 0.0
H503 H 0.78891 0.47743 0.31308 0.0
C504 C 0.34543 0.82738 0.76788 0.0
C505 C 0.36619 0.82705 0.78821 0.0
C506 C 0.32089 0.80484 0.76537 0.0
C507 C 0.28041 0.75117 0.73595 0.0
H508 H 0.24673 0.70053 0.82142 0.0
C509 C 0.1933 0.6457 0.70882 0.0
C510 C 0.17386 0.63525 0.73871 0.0
C511 C 0.21596 0.67012 0.71456 0.0
C512 C 0.25577 0.71458 0.79727 0.0
H513 H 0.37711 0.80335 0.82415 0.0
H514 H 0.33399 0.76369 0.81986 0.0
H515 H 0.28713 0.7414 0.83558 0.0
H516 H 0.16233 0.64318 0.79684 0.0
H517 H 0.2012 0.6856 0.80621 0.0
H518 H 0.24893 0.72449 0.69774 0.0
C519 C 0.33672 0.78149 0.80596 0.0
C520 C 0.27907 0.73789 0.80534 0.0
C521 C 0.36137 0.80422 0.80866 0.0
C522 C 0.17694 0.65041 0.77328 0.0
C523 C 0.19941 0.67471 0.77891 0.0
C524 C 0.25714 0.72786 0.72787 0.0
C525 C 0.31652 0.78133 0.78293 0.0
C526 C 0.29161 0.75653 0.77483 0.0
C527 C 0.21955 0.68456 0.75023 0.0
C528 C 0.24446 0.70932 0.75847 0.0
H529 H 0.34853 0.8448 0.75218 0.0
H530 H 0.30557 0.8056 0.74841 0.0
H531 H 0.28981 0.76489 0.71151 0.0
H532 H 0.19166 0.63449 0.68197 0.0
H533 H 0.23115 0.67714 0.69186 0.0
C534 C 0.43494 0.92589 0.91599 0.0
C535 C 0.43207 0.93356 0.87704 0.0
C536 C 0.43851 0.94179 0.94927 0.0
C537 C 0.434 0.99839 0.98749 0.0
H538 H 0.49012 0.00628 0.0579 0.0
C539 C 0.48402 0.08028 0.10897 0.0
C540 C 0.49392 0.0747 0.1439 0.0
C541 C 0.47219 0.06151 0.0784 0.0
C542 C 0.47405 0.00399 0.03913 0.0
H543 H 0.42927 0.96336 0.84285 0.0
H544 H 0.43583 0.99154 0.90147 0.0
H545 H 0.47763 0.97705 1.00034 0.0
H546 H 0.49712 0.04425 0.17552 0.0
H547 H 0.47587 0.01135 0.1229 0.0
H548 H 0.43074 0.02573 0.02642 0.0
C549 C 0.43516 0.97303 0.90604 0.0
C550 C 0.46693 0.98724 0.00592 0.0
C551 C 0.43143 0.95693 0.87247 0.0
C552 C 0.48994 0.0493 0.14888 0.0
C553 C 0.47797 0.0305 0.11848 0.0
C554 C 0.44112 0.01521 0.02098 0.0
C555 C 0.43949 0.96594 0.94465 0.0
C556 C 0.44676 0.9841 0.97974 0.0
C557 C 0.46985 0.03667 0.08217 0.0
C558 C 0.46121 0.01814 0.04731 0.0
H559 H 0.43506 0.90778 0.92074 0.0
H560 H 0.4411 0.93539 0.97867 0.0
H561 H 0.41831 0.99631 0.96801 0.0
H562 H 0.48679 0.09967 0.10404 0.0
H563 H 0.46628 0.06702 0.05088 0.0
C564 C 0.49405 0.42574 0.39545 0.0
C565 C 0.48891 0.43096 0.35614 0.0
C566 C 0.48051 0.4278 0.42838 0.0
C567 C 0.44993 0.46518 0.45989 0.0
H568 H 0.43032 0.42093 0.55472 0.0
C569 C 0.41803 0.49561 0.60318 0.0
C570 C 0.42848 0.49285 0.63974 0.0
C571 C 0.4191 0.48289 0.56833 0.0
C572 C 0.43584 0.43358 0.5286 0.0
H573 H 0.46461 0.4412 0.32031 0.0
H574 H 0.44094 0.44509 0.37823 0.0
H575 H 0.4431 0.40744 0.49314 0.0
H576 H 0.44716 0.47364 0.66899 0.0
H577 H 0.44984 0.45196 0.6078 0.0
H578 H 0.4441 0.49198 0.49541 0.0
C579 C 0.45554 0.43939 0.38339 0.0
C580 C 0.44302 0.42577 0.49324 0.0
C581 C 0.46893 0.43698 0.35022 0.0
C582 C 0.43876 0.47594 0.64128 0.0
C583 C 0.44025 0.4635 0.60612 0.0
C584 C 0.44299 0.47309 0.49524 0.0
C585 C 0.46164 0.43541 0.42292 0.0
C586 C 0.45056 0.4417 0.45867 0.0
C587 C 0.43116 0.46748 0.56888 0.0
C588 C 0.4362 0.45762 0.53033 0.0
H589 H 0.50929 0.42095 0.40099 0.0
H590 H 0.48588 0.42484 0.45836 0.0
H591 H 0.4561 0.47815 0.43408 0.0
H592 H 0.40976 0.50837 0.6012 0.0
H593 H 0.41118 0.48585 0.54063 0.0
C594 C 0.04981 0.49357 0.86794 0.0
C595 C 0.07457 0.49557 0.86766 0.0
C596 C 0.03229 0.48079 0.89947 0.0
C597 C 0.03255 0.46422 0.00672 0.0
H598 H 0.95727 0.42986 0.99281 0.0
C599 C 0.95735 0.42842 0.14017 0.0
C600 C 0.9394 0.43745 0.13697 0.0
C601 C 0.9738 0.43118 0.10764 0.0
C602 C 0.97827 0.43931 0.99716 0.0
H603 H 0.09956 0.48405 0.89899 0.0
H604 H 0.06879 0.46131 0.9535 0.0
H605 H 0.98535 0.44106 0.9337 0.0
H606 H 0.92495 0.45663 0.09695 0.0
H607 H 0.95301 0.46099 0.04101 0.0
H608 H 0.02527 0.46283 0.07034 0.0
C609 C 0.06315 0.47017 0.92983 0.0
C610 C 0.99438 0.44584 0.96329 0.0
C611 C 0.08071 0.48302 0.89832 0.0
C612 C 0.93837 0.44931 0.10072 0.0
C613 C 0.95438 0.45168 0.06834 0.0
C614 C 0.01637 0.4575 0.04068 0.0
C615 C 0.03902 0.46954 0.93143 0.0
C616 C 0.02178 0.45911 0.96753 0.0
C617 C 0.97217 0.44255 0.07123 0.0
C618 C 0.98912 0.44571 0.03615 0.0
H619 H 0.04443 0.50309 0.84498 0.0
H620 H 0.01403 0.48098 0.89979 0.0
H621 H 0.05357 0.47465 0.01121 0.0
H622 H 0.95869 0.41925 0.16766 0.0
H623 H 0.98746 0.42407 0.11069 0.0
C624 C 0.58185 0.07077 0.40598 0.0
C625 C 0.56851 0.05936 0.36981 0.0
C626 C 0.57908 0.05525 0.43949 0.0
C627 C 0.55136 0.9858 0.47392 0.0
H628 H 0.54361 0.01425 0.5751 0.0
C629 C 0.49081 0.92295 0.60782 0.0
C630 C 0.50013 0.93106 0.6473 0.0
C631 C 0.50449 0.93827 0.57477 0.0
C632 C 0.5462 0.00618 0.54729 0.0
H633 H 0.54262 0.02262 0.33987 0.0
H634 H 0.53702 0.99549 0.39865 0.0
H635 H 0.55743 0.0416 0.51523 0.0
H636 H 0.53155 0.96122 0.68307 0.0
H637 H 0.55538 0.98852 0.62488 0.0
H638 H 0.53858 0.94986 0.50601 0.0
C639 C 0.55018 0.01641 0.40104 0.0
C640 C 0.5542 0.02188 0.5128 0.0
C641 C 0.55331 0.03196 0.36724 0.0
C642 C 0.52398 0.95446 0.65297 0.0
C643 C 0.5375 0.9701 0.61975 0.0
C644 C 0.54306 0.97001 0.50837 0.0
C645 C 0.56249 0.02791 0.43798 0.0
C646 C 0.55648 0.01181 0.47541 0.0
C647 C 0.52766 0.9623 0.58034 0.0
C648 C 0.53995 0.97991 0.54526 0.0
H649 H 0.59392 0.09185 0.40877 0.0
H650 H 0.58947 0.06483 0.46692 0.0
H651 H 0.55337 0.97746 0.44598 0.0
H652 H 0.47253 0.90494 0.60247 0.0
H653 H 0.49624 0.93184 0.5449 0.0
C654 C 0.5274 0.56479 0.85008 0.0
C655 C 0.50804 0.57173 0.85552 0.0
C656 C 0.54029 0.56181 0.88352 0.0
C657 C 0.55292 0.57527 0.99349 0.0
H658 H 0.54978 0.50807 0.9955 0.0
C659 C 0.55772 0.52533 0.14153 0.0
C660 C 0.56753 0.50802 0.1398 0.0
C661 C 0.55585 0.53752 0.10636 0.0
C662 C 0.55145 0.52721 0.99538 0.0
H663 H 0.48831 0.58275 0.89991 0.0
H664 H 0.51091 0.57788 0.95782 0.0
H665 H 0.5381 0.52234 0.93424 0.0
H666 H 0.58496 0.49148 0.10069 0.0
H667 H 0.58285 0.51352 0.04008 0.0
H668 H 0.56596 0.57998 0.05489 0.0
C669 C 0.51615 0.57463 0.92796 0.0
C670 C 0.54468 0.53537 0.96007 0.0
C671 C 0.50308 0.57728 0.89472 0.0
C672 C 0.57704 0.50453 0.10288 0.0
C673 C 0.57558 0.51699 0.068 0.0
C674 C 0.55995 0.5672 0.0288 0.0
C675 C 0.53433 0.56609 0.92291 0.0
C676 C 0.54487 0.55927 0.95887 0.0
C677 C 0.56408 0.5329 0.06886 0.0
C678 C 0.55889 0.54284 0.03046 0.0
H679 H 0.53157 0.56028 0.82029 0.0
H680 H 0.55439 0.55542 0.87866 0.0
H681 H 0.55346 0.5939 0.99341 0.0
H682 H 0.55005 0.52823 0.16951 0.0
H683 H 0.54669 0.54946 0.10831 0.0
C684 C 0.0772 0.5789 0.5915 0.0
C685 C 0.06756 0.57484 0.63118 0.0
C686 C 0.06112 0.57637 0.55881 0.0
C687 C 0.99233 0.54005 0.52984 0.0
H688 H 0.01611 0.5826 0.43321 0.0
C689 C 0.92645 0.50985 0.38973 0.0
C690 C 0.93852 0.5116 0.35248 0.0
C691 C 0.94139 0.52257 0.42383 0.0
C692 C 0.00919 0.5704 0.45983 0.0
H693 H 0.03378 0.56614 0.66774 0.0
H694 H 0.00547 0.56152 0.61035 0.0
H695 H 0.04383 0.59619 0.49344 0.0
H696 H 0.9757 0.52906 0.32134 0.0
H697 H 0.00199 0.55074 0.38111 0.0
H698 H 0.95837 0.51359 0.49618 0.0
C699 C 0.02555 0.56662 0.60469 0.0
C700 C 0.02504 0.57828 0.49442 0.0
C701 C 0.0418 0.56946 0.63756 0.0
C702 C 0.96582 0.52755 0.34956 0.0
C703 C 0.98088 0.53999 0.38394 0.0
C704 C 0.97661 0.53206 0.49525 0.0
C705 C 0.03489 0.56948 0.56489 0.0
C706 C 0.01694 0.56299 0.52966 0.0
C707 C 0.9689 0.537 0.42184 0.0
C708 C 0.98492 0.54693 0.45954 0.0
H709 H 0.09701 0.58317 0.58555 0.0
H710 H 0.06889 0.57849 0.52862 0.0
H711 H 0.98569 0.52756 0.55619 0.0
H712 H 0.90539 0.49785 0.39284 0.0
H713 H 0.93135 0.52038 0.45209 0.0
loop_
_geom_bond_atom_site_label_1
_geom_bond_atom_site_label_2
_geom_bond_distance
_geom_bond_site_symmetry_2
_ccdc_geom_bond_type
Co0 O2 2.143 . S
Co0 O8 2.074 . S
Co0 O11 2.093 . S
Co0 O24 2.097 . S
Co0 N41 2.151 . S
Co0 N49 2.214 . S
Co1 O2 2.160 . S
Co1 O7 2.058 . S
Co1 O17 2.057 . S
Co1 O32 2.037 . S
Co1 N36 2.145 . S
Co1 N57 2.257 . S
O2 Co0 2.143 . S
O2 Co1 2.160 . S
C3 O4 1.278 . S
C3 O11 1.224 . S
O4 C3 1.278 . S
C5 O6 1.245 . S
C5 O17 1.232 . S
O6 C5 1.245 . S
O7 Co1 2.058 . S
O7 C33 1.269 . S
O8 Co0 2.074 . S
O8 C33 1.257 . S
H9 C34 0.930 . S
H10 C40 0.930 . S
O11 Co0 2.093 . S
O11 C3 1.224 . S
H12 C44 0.929 . S
H13 C46 0.930 . S
H14 C47 0.930 . S
H15 C45 0.929 . S
H16 C48 0.928 . S
O17 Co1 2.057 . S
O17 C5 1.232 . S
H18 C37 0.929 . S
H19 C38 0.929 . S
H20 C50 0.931 . S
H21 C42 0.929 . S
H22 C51 0.930 . S
H23 C43 0.931 . S
O24 Co0 2.097 . S
O24 C52 1.214 . S
H25 C53 0.929 . S
H26 C54 0.929 . S
H27 C55 0.930 . S
H28 C56 0.929 . S
H29 C58 0.930 . S
H30 C35 0.930 . S
H31 C39 0.930 . S
O32 Co1 2.037 . S
O32 C52 1.234 . S
C33 O7 1.269 . S
C33 O8 1.257 . S
C34 H9 0.930 . S
C34 C37 1.388 . S
C34 C39 1.418 . S
C35 H30 0.930 . S
C35 C38 1.404 . S
C35 C39 1.353 . S
N36 Co1 2.145 . S
N36 C37 1.397 . S
N36 C38 1.334 . S
C37 H18 0.929 . S
C37 C34 1.388 . S
C37 N36 1.397 . S
C38 H19 0.929 . S
C38 C35 1.404 . S
C38 N36 1.334 . S
C39 H31 0.930 . S
C39 C34 1.418 . S
C39 C35 1.353 . S
C40 H10 0.930 . S
C40 N41 1.330 . S
C40 C42 1.446 . S
N41 Co0 2.151 . S
N41 C40 1.330 . S
N41 C45 1.418 . S
C42 H21 0.929 . S
C42 C40 1.446 . S
C42 C43 1.332 . S
C43 H23 0.931 . S
C43 C42 1.332 . S
C43 C44 1.267 . S
C44 H12 0.929 . S
C44 C43 1.267 . S
C44 C45 1.251 . S
C45 H15 0.929 . S
C45 N41 1.418 . S
C45 C44 1.251 . S
C46 H13 0.930 . S
C46 C48 1.406 . S
C46 C51 1.261 . S
C47 H14 0.930 . S
C47 N49 1.325 . S
C47 C50 1.357 . S
C48 H16 0.928 . S
C48 C46 1.406 . S
C48 N49 1.261 . S
N49 Co0 2.214 . S
N49 C47 1.325 . S
N49 C48 1.261 . S
C50 H20 0.931 . S
C50 C47 1.357 . S
C50 C51 1.312 . S
C51 H22 0.930 . S
C51 C46 1.261 . S
C51 C50 1.312 . S
C52 O24 1.214 . S
C52 O32 1.234 . S
C53 H25 0.929 . S
C53 C56 1.391 . S
C53 C58 1.391 . S
C54 H26 0.929 . S
C54 C55 1.390 . S
C54 N57 1.391 . S
C55 H27 0.930 . S
C55 C54 1.390 . S
C55 C56 1.392 . S
C56 H28 0.929 . S
C56 C53 1.391 . S
C56 C55 1.392 . S
N57 Co1 2.257 . S
N57 C54 1.391 . S
N57 C58 1.388 . S
C58 H29 0.930 . S
C58 C53 1.391 . S
C58 N57 1.388 . S
Co59 O61 2.143 . S
Co59 O67 2.074 . S
Co59 O70 2.093 . S
Co59 O83 2.097 . S
Co59 N100 2.151 . S
Co59 N108 2.214 . S
Co60 O61 2.160 . S
Co60 O66 2.058 . S
Co60 O76 2.057 . S
Co60 O91 2.037 . S
Co60 N95 2.145 . S
Co60 N116 2.257 . S
O61 Co59 2.143 . S
O61 Co60 2.160 . S
C62 O63 1.278 . S
C62 O70 1.224 . S
O63 C62 1.278 . S
C64 O65 1.245 . S
C64 O76 1.232 . S
O65 C64 1.245 . S
O66 Co60 2.058 . S
O66 C92 1.269 . S
O67 Co59 2.074 . S
O67 C92 1.257 . S
H68 C93 0.930 . S
H69 C99 0.930 . S
O70 Co59 2.093 . S
O70 C62 1.224 . S
H71 C103 0.929 . S
H72 C105 0.930 . S
H73 C106 0.930 . S
H74 C104 0.929 . S
H75 C107 0.928 . S
O76 Co60 2.057 . S
O76 C64 1.232 . S
H77 C96 0.929 . S
H78 C97 0.929 . S
H79 C109 0.931 . S
H80 C101 0.929 . S
H81 C110 0.930 . S
H82 C102 0.931 . S
O83 Co59 2.097 . S
O83 C111 1.214 . S
H84 C112 0.929 . S
H85 C113 0.929 . S
H86 C114 0.930 . S
H87 C115 0.929 . S
H88 C117 0.930 . S
H89 C94 0.930 . S
H90 C98 0.930 . S
O91 Co60 2.037 . S
O91 C111 1.234 . S
C92 O66 1.269 . S
C92 O67 1.257 . S
C93 H68 0.930 . S
C93 C96 1.388 . S
C93 C98 1.418 . S
C94 H89 0.930 . S
C94 C97 1.404 . S
C94 C98 1.353 . S
N95 Co60 2.145 . S
N95 C96 1.397 . S
N95 C97 1.334 . S
C96 H77 0.929 . S
C96 C93 1.388 . S
C96 N95 1.397 . S
C97 H78 0.929 . S
C97 C94 1.404 . S
C97 N95 1.334 . S
C98 H90 0.930 . S
C98 C93 1.418 . S
C98 C94 1.353 . S
C99 H69 0.930 . S
C99 N100 1.330 . S
C99 C101 1.446 . S
N100 Co59 2.151 . S
N100 C99 1.330 . S
N100 C104 1.418 . S
C101 H80 0.929 . S
C101 C99 1.446 . S
C101 C102 1.332 . S
C102 H82 0.931 . S
C102 C101 1.332 . S
C102 C103 1.267 . S
C103 H71 0.929 . S
C103 C102 1.267 . S
C103 C104 1.251 . S
C104 H74 0.929 . S
C104 N100 1.418 . S
C104 C103 1.251 . S
C105 H72 0.930 . S
C105 C107 1.406 . S
C105 C110 1.261 . S
C106 H73 0.930 . S
C106 N108 1.325 . S
C106 C109 1.357 . S
C107 H75 0.928 . S
C107 C105 1.406 . S
C107 N108 1.261 . S
N108 Co59 2.214 . S
N108 C106 1.325 . S
N108 C107 1.261 . S
C109 H79 0.931 . S
C109 C106 1.357 . S
C109 C110 1.312 . S
C110 H81 0.930 . S
C110 C105 1.261 . S
C110 C109 1.312 . S
C111 O83 1.214 . S
C111 O91 1.234 . S
C112 H84 0.929 . S
C112 C115 1.391 . S
C112 C117 1.391 . S
C113 H85 0.929 . S
C113 C114 1.390 . S
C113 N116 1.391 . S
C114 H86 0.930 . S
C114 C113 1.390 . S
C114 C115 1.392 . S
C115 H87 0.929 . S
C115 C112 1.391 . S
C115 C114 1.392 . S
N116 Co60 2.257 . S
N116 C113 1.391 . S
N116 C117 1.388 . S
C117 H88 0.930 . S
C117 C112 1.391 . S
C117 N116 1.388 . S
Co118 O120 2.143 . S
Co118 O126 2.074 . S
Co118 O129 2.093 . S
Co118 O142 2.097 . S
Co118 N159 2.151 . S
Co118 N167 2.214 . S
Co119 O120 2.160 . S
Co119 O125 2.058 . S
Co119 O135 2.057 . S
Co119 O150 2.037 . S
Co119 N154 2.145 . S
Co119 N175 2.257 . S
O120 Co118 2.143 . S
O120 Co119 2.160 . S
C121 O122 1.278 . S
C121 O129 1.224 . S
O122 C121 1.278 . S
C123 O124 1.245 . S
C123 O135 1.232 . S
O124 C123 1.245 . S
O125 Co119 2.058 . S
O125 C151 1.269 . S
O126 Co118 2.074 . S
O126 C151 1.257 . S
H127 C152 0.930 . S
H128 C158 0.930 . S
O129 Co118 2.093 . S
O129 C121 1.224 . S
H130 C162 0.929 . S
H131 C164 0.930 . S
H132 C165 0.930 . S
H133 C163 0.929 . S
H134 C166 0.928 . S
O135 Co119 2.057 . S
O135 C123 1.232 . S
H136 C155 0.929 . S
H137 C156 0.929 . S
H138 C168 0.931 . S
H139 C160 0.929 . S
H140 C169 0.930 . S
H141 C161 0.931 . S
O142 Co118 2.097 . S
O142 C170 1.214 . S
H143 C171 0.929 . S
H144 C172 0.929 . S
H145 C173 0.930 . S
H146 C174 0.929 . S
H147 C176 0.930 . S
H148 C153 0.930 . S
H149 C157 0.930 . S
O150 Co119 2.037 . S
O150 C170 1.234 . S
C151 O125 1.269 . S
C151 O126 1.257 . S
C152 H127 0.930 . S
C152 C155 1.388 . S
C152 C157 1.418 . S
C153 H148 0.930 . S
C153 C156 1.404 . S
C153 C157 1.353 . S
N154 Co119 2.145 . S
N154 C155 1.397 . S
N154 C156 1.334 . S
C155 H136 0.929 . S
C155 C152 1.388 . S
C155 N154 1.397 . S
C156 H137 0.929 . S
C156 C153 1.404 . S
C156 N154 1.334 . S
C157 H149 0.930 . S
C157 C152 1.418 . S
C157 C153 1.353 . S
C158 H128 0.930 . S
C158 N159 1.330 . S
C158 C160 1.446 . S
N159 Co118 2.151 . S
N159 C158 1.330 . S
N159 C163 1.418 . S
C160 H139 0.929 . S
C160 C158 1.446 . S
C160 C161 1.332 . S
C161 H141 0.931 . S
C161 C160 1.332 . S
C161 C162 1.267 . S
C162 H130 0.929 . S
C162 C161 1.267 . S
C162 C163 1.251 . S
C163 H133 0.929 . S
C163 N159 1.418 . S
C163 C162 1.251 . S
C164 H131 0.930 . S
C164 C166 1.406 . S
C164 C169 1.261 . S
C165 H132 0.930 . S
C165 N167 1.325 . S
C165 C168 1.357 . S
C166 H134 0.928 . S
C166 C164 1.406 . S
C166 N167 1.261 . S
N167 Co118 2.214 . S
N167 C165 1.325 . S
N167 C166 1.261 . S
C168 H138 0.931 . S
C168 C165 1.357 . S
C168 C169 1.312 . S
C169 H140 0.930 . S
C169 C164 1.261 . S
C169 C168 1.312 . S
C170 O142 1.214 . S
C170 O150 1.234 . S
C171 H143 0.929 . S
C171 C174 1.391 . S
C171 C176 1.391 . S
C172 H144 0.929 . S
C172 C173 1.390 . S
C172 N175 1.391 . S
C173 H145 0.930 . S
C173 C172 1.390 . S
C173 C174 1.392 . S
C174 H146 0.929 . S
C174 C171 1.391 . S
C174 C173 1.392 . S
N175 Co119 2.257 . S
N175 C172 1.391 . S
N175 C176 1.388 . S
C176 H147 0.930 . S
C176 C171 1.391 . S
C176 N175 1.388 . S
Co177 O179 2.143 . S
Co177 O185 2.074 . S
Co177 O188 2.093 . S
Co177 O201 2.097 . S
Co177 N218 2.151 . S
Co177 N226 2.214 . S
Co178 O179 2.160 . S
Co178 O184 2.058 . S
Co178 O194 2.057 . S
Co178 O209 2.037 . S
Co178 N213 2.145 . S
Co178 N234 2.257 . S
O179 Co177 2.143 . S
O179 Co178 2.160 . S
C180 O181 1.278 . S
C180 O188 1.224 . S
O181 C180 1.278 . S
C182 O183 1.245 . S
C182 O194 1.232 . S
O183 C182 1.245 . S
O184 Co178 2.058 . S
O184 C210 1.269 . S
O185 Co177 2.074 . S
O185 C210 1.257 . S
H186 C211 0.930 . S
H187 C217 0.930 . S
O188 Co177 2.093 . S
O188 C180 1.224 . S
H189 C221 0.929 . S
H190 C223 0.930 . S
H191 C224 0.930 . S
H192 C222 0.929 . S
H193 C225 0.928 . S
O194 Co178 2.057 . S
O194 C182 1.232 . S
H195 C214 0.929 . S
H196 C215 0.929 . S
H197 C227 0.931 . S
H198 C219 0.929 . S
H199 C228 0.930 . S
H200 C220 0.931 . S
O201 Co177 2.097 . S
O201 C229 1.214 . S
H202 C230 0.929 . S
H203 C231 0.929 . S
H204 C232 0.930 . S
H205 C233 0.929 . S
H206 C235 0.930 . S
H207 C212 0.930 . S
H208 C216 0.930 . S
O209 Co178 2.037 . S
O209 C229 1.234 . S
C210 O184 1.269 . S
C210 O185 1.257 . S
C211 H186 0.930 . S
C211 C214 1.388 . S
C211 C216 1.418 . S
C212 H207 0.930 . S
C212 C215 1.404 . S
C212 C216 1.353 . S
N213 Co178 2.145 . S
N213 C214 1.397 . S
N213 C215 1.334 . S
C214 H195 0.929 . S
C214 C211 1.388 . S
C214 N213 1.397 . S
C215 H196 0.929 . S
C215 C212 1.404 . S
C215 N213 1.334 . S
C216 H208 0.930 . S
C216 C211 1.418 . S
C216 C212 1.353 . S
C217 H187 0.930 . S
C217 N218 1.330 . S
C217 C219 1.446 . S
N218 Co177 2.151 . S
N218 C217 1.330 . S
N218 C222 1.418 . S
C219 H198 0.929 . S
C219 C217 1.446 . S
C219 C220 1.332 . S
C220 H200 0.931 . S
C220 C219 1.332 . S
C220 C221 1.267 . S
C221 H189 0.929 . S
C221 C220 1.267 . S
C221 C222 1.251 . S
C222 H192 0.929 . S
C222 N218 1.418 . S
C222 C221 1.251 . S
C223 H190 0.930 . S
C223 C225 1.406 . S
C223 C228 1.261 . S
C224 H191 0.930 . S
C224 N226 1.325 . S
C224 C227 1.357 . S
C225 H193 0.928 . S
C225 C223 1.406 . S
C225 N226 1.261 . S
N226 Co177 2.214 . S
N226 C224 1.325 . S
N226 C225 1.261 . S
C227 H197 0.931 . S
C227 C224 1.357 . S
C227 C228 1.312 . S
C228 H199 0.930 . S
C228 C223 1.261 . S
C228 C227 1.312 . S
C229 O201 1.214 . S
C229 O209 1.234 . S
C230 H202 0.929 . S
C230 C233 1.391 . S
C230 C235 1.391 . S
C231 H203 0.929 . S
C231 C232 1.390 . S
C231 N234 1.391 . S
C232 H204 0.930 . S
C232 C231 1.390 . S
C232 C233 1.392 . S
C233 H205 0.929 . S
C233 C230 1.391 . S
C233 C232 1.392 . S
N234 Co178 2.257 . S
N234 C231 1.391 . S
N234 C235 1.388 . S
C235 H206 0.930 . S
C235 C230 1.391 . S
C235 N234 1.388 . S
Co236 O238 2.143 . S
Co236 O244 2.074 . S
Co236 O247 2.093 . S
Co236 O260 2.097 . S
Co236 N277 2.151 . S
Co236 N285 2.214 . S
Co237 O238 2.160 . S
Co237 O243 2.058 . S
Co237 O253 2.057 . S
Co237 O268 2.037 . S
Co237 N272 2.145 . S
Co237 N293 2.257 . S
O238 Co236 2.143 . S
O238 Co237 2.160 . S
C239 O240 1.278 . S
C239 O247 1.224 . S
O240 C239 1.278 . S
C241 O242 1.245 . S
C241 O253 1.232 . S
O242 C241 1.245 . S
O243 Co237 2.058 . S
O243 C269 1.269 . S
O244 Co236 2.074 . S
O244 C269 1.257 . S
H245 C270 0.930 . S
H246 C276 0.930 . S
O247 Co236 2.093 . S
O247 C239 1.224 . S
H248 C280 0.929 . S
H249 C282 0.930 . S
H250 C283 0.930 . S
H251 C281 0.929 . S
H252 C284 0.928 . S
O253 Co237 2.057 . S
O253 C241 1.232 . S
H254 C273 0.929 . S
H255 C274 0.929 . S
H256 C286 0.931 . S
H257 C278 0.929 . S
H258 C287 0.930 . S
H259 C279 0.931 . S
O260 Co236 2.097 . S
O260 C288 1.214 . S
H261 C289 0.929 . S
H262 C290 0.929 . S
H263 C291 0.930 . S
H264 C292 0.929 . S
H265 C294 0.930 . S
H266 C271 0.930 . S
H267 C275 0.930 . S
O268 Co237 2.037 . S
O268 C288 1.234 . S
C269 O243 1.269 . S
C269 O244 1.257 . S
C270 H245 0.930 . S
C270 C273 1.388 . S
C270 C275 1.418 . S
C271 H266 0.930 . S
C271 C274 1.404 . S
C271 C275 1.353 . S
N272 Co237 2.145 . S
N272 C273 1.397 . S
N272 C274 1.334 . S
C273 H254 0.929 . S
C273 C270 1.388 . S
C273 N272 1.397 . S
C274 H255 0.929 . S
C274 C271 1.404 . S
C274 N272 1.334 . S
C275 H267 0.930 . S
C275 C270 1.418 . S
C275 C271 1.353 . S
C276 H246 0.930 . S
C276 N277 1.330 . S
C276 C278 1.446 . S
N277 Co236 2.151 . S
N277 C276 1.330 . S
N277 C281 1.418 . S
C278 H257 0.929 . S
C278 C276 1.446 . S
C278 C279 1.332 . S
C279 H259 0.931 . S
C279 C278 1.332 . S
C279 C280 1.267 . S
C280 H248 0.929 . S
C280 C279 1.267 . S
C280 C281 1.251 . S
C281 H251 0.929 . S
C281 N277 1.418 . S
C281 C280 1.251 . S
C282 H249 0.930 . S
C282 C284 1.406 . S
C282 C287 1.261 . S
C283 H250 0.930 . S
C283 N285 1.325 . S
C283 C286 1.357 . S
C284 H252 0.928 . S
C284 C282 1.406 . S
C284 N285 1.261 . S
N285 Co236 2.214 . S
N285 C283 1.325 . S
N285 C284 1.261 . S
C286 H256 0.931 . S
C286 C283 1.357 . S
C286 C287 1.312 . S
C287 H258 0.930 . S
C287 C282 1.261 . S
C287 C286 1.312 . S
C288 O260 1.214 . S
C288 O268 1.234 . S
C289 H261 0.929 . S
C289 C292 1.391 . S
C289 C294 1.391 . S
C290 H262 0.929 . S
C290 C291 1.390 . S
C290 N293 1.391 . S
C291 H263 0.930 . S
C291 C290 1.390 . S
C291 C292 1.392 . S
C292 H264 0.929 . S
C292 C289 1.391 . S
C292 C291 1.392 . S
N293 Co237 2.257 . S
N293 C290 1.391 . S
N293 C294 1.388 . S
C294 H265 0.930 . S
C294 C289 1.391 . S
C294 N293 1.388 . S
Co295 O297 2.143 . S
Co295 O303 2.074 . S
Co295 O306 2.093 . S
Co295 O319 2.097 . S
Co295 N336 2.151 . S
Co295 N344 2.214 . S
Co296 O297 2.160 . S
Co296 O302 2.058 . S
Co296 O312 2.057 . S
Co296 O327 2.037 . S
Co296 N331 2.145 . S
Co296 N352 2.257 . S
O297 Co295 2.143 . S
O297 Co296 2.160 . S
C298 O299 1.278 . S
C298 O306 1.224 . S
O299 C298 1.278 . S
C300 O301 1.245 . S
C300 O312 1.232 . S
O301 C300 1.245 . S
O302 Co296 2.058 . S
O302 C328 1.269 . S
O303 Co295 2.074 . S
O303 C328 1.257 . S
H304 C329 0.930 . S
H305 C335 0.930 . S
O306 Co295 2.093 . S
O306 C298 1.224 . S
H307 C339 0.929 . S
H308 C341 0.930 . S
H309 C342 0.930 . S
H310 C340 0.929 . S
H311 C343 0.928 . S
O312 Co296 2.057 . S
O312 C300 1.232 . S
H313 C332 0.929 . S
H314 C333 0.929 . S
H315 C345 0.931 . S
H316 C337 0.929 . S
H317 C346 0.930 . S
H318 C338 0.931 . S
O319 Co295 2.097 . S
O319 C347 1.214 . S
H320 C348 0.929 . S
H321 C349 0.929 . S
H322 C350 0.930 . S
H323 C351 0.929 . S
H324 C353 0.930 . S
H325 C330 0.930 . S
H326 C334 0.930 . S
O327 Co296 2.037 . S
O327 C347 1.234 . S
C328 O302 1.269 . S
C328 O303 1.257 . S
C329 H304 0.930 . S
C329 C332 1.388 . S
C329 C334 1.418 . S
C330 H325 0.930 . S
C330 C333 1.404 . S
C330 C334 1.353 . S
N331 Co296 2.145 . S
N331 C332 1.397 . S
N331 C333 1.334 . S
C332 H313 0.929 . S
C332 C329 1.388 . S
C332 N331 1.397 . S
C333 H314 0.929 . S
C333 C330 1.404 . S
C333 N331 1.334 . S
C334 H326 0.930 . S
C334 C329 1.418 . S
C334 C330 1.353 . S
C335 H305 0.930 . S
C335 N336 1.330 . S
C335 C337 1.446 . S
N336 Co295 2.151 . S
N336 C335 1.330 . S
N336 C340 1.418 . S
C337 H316 0.929 . S
C337 C335 1.446 . S
C337 C338 1.332 . S
C338 H318 0.931 . S
C338 C337 1.332 . S
C338 C339 1.267 . S
C339 H307 0.929 . S
C339 C338 1.267 . S
C339 C340 1.251 . S
C340 H310 0.929 . S
C340 N336 1.418 . S
C340 C339 1.251 . S
C341 H308 0.930 . S
C341 C343 1.406 . S
C341 C346 1.261 . S
C342 H309 0.930 . S
C342 N344 1.325 . S
C342 C345 1.357 . S
C343 H311 0.928 . S
C343 C341 1.406 . S
C343 N344 1.261 . S
N344 Co295 2.214 . S
N344 C342 1.325 . S
N344 C343 1.261 . S
C345 H315 0.931 . S
C345 C342 1.357 . S
C345 C346 1.312 . S
C346 H317 0.930 . S
C346 C341 1.261 . S
C346 C345 1.312 . S
C347 O319 1.214 . S
C347 O327 1.234 . S
C348 H320 0.929 . S
C348 C351 1.391 . S
C348 C353 1.391 . S
C349 H321 0.929 . S
C349 C350 1.390 . S
C349 N352 1.391 . S
C350 H322 0.930 . S
C350 C349 1.390 . S
C350 C351 1.392 . S
C351 H323 0.929 . S
C351 C348 1.391 . S
C351 C350 1.392 . S
N352 Co296 2.257 . S
N352 C349 1.391 . S
N352 C353 1.388 . S
C353 H324 0.930 . S
C353 C348 1.391 . S
C353 N352 1.388 . S
C354 C355 1.349 . S
C354 C356 1.327 . S
C354 H379 0.950 . S
C355 C354 1.349 . S
C355 C371 1.349 . S
C356 C354 1.327 . S
C356 C375 1.429 . S
C356 H380 0.950 . S
C357 C374 1.574 . S
C357 C376 1.368 . S
C357 H381 0.949 . S
H358 C362 0.949 . S
C359 C360 1.349 . S
C359 C361 1.327 . S
C359 H382 0.950 . S
C360 C359 1.349 . S
C360 C372 1.349 . S
C361 C359 1.327 . S
C361 C377 1.429 . S
C361 H383 0.950 . S
C362 H358 0.949 . S
C362 C370 1.574 . S
C362 C378 1.368 . S
H363 C371 0.950 . S
H364 C369 0.950 . S
H365 C370 0.949 . S
H366 C372 0.950 . S
H367 C373 0.950 . S
H368 C374 0.949 . S
C369 H364 0.950 . S
C369 C371 1.327 . S
C369 C375 1.429 . S
C370 C362 1.574 . S
C370 H365 0.949 . S
C370 C376 1.368 . S
C371 C355 1.349 . S
C371 H363 0.950 . S
C371 C369 1.327 . S
C372 C360 1.349 . S
C372 H366 0.950 . S
C372 C373 1.327 . S
C373 H367 0.950 . S
C373 C372 1.327 . S
C373 C377 1.429 . S
C374 C357 1.574 . S
C374 H368 0.949 . S
C374 C378 1.368 . S
C375 C356 1.429 . S
C375 C369 1.429 . S
C375 C376 1.523 . S
C376 C357 1.368 . S
C376 C370 1.368 . S
C376 C375 1.523 . S
C377 C361 1.429 . S
C377 C373 1.429 . S
C377 C378 1.523 . S
C378 C362 1.368 . S
C378 C374 1.368 . S
C378 C377 1.523 . S
H379 C354 0.950 . S
H380 C356 0.950 . S
H381 C357 0.949 . S
H382 C359 0.950 . S
H383 C361 0.950 . S
C384 C385 1.349 . S
C384 C386 1.327 . S
C384 H409 0.950 . S
C385 C384 1.349 . S
C385 C401 1.349 . S
C386 C384 1.327 . S
C386 C405 1.429 . S
C386 H410 0.950 . S
C387 C404 1.574 . S
C387 C406 1.368 . S
C387 H411 0.949 . S
H388 C392 0.949 . S
C389 C390 1.349 . S
C389 C391 1.327 . S
C389 H412 0.950 . S
C390 C389 1.349 . S
C390 C402 1.349 . S
C391 C389 1.327 . S
C391 C407 1.429 . S
C391 H413 0.950 . S
C392 H388 0.949 . S
C392 C400 1.574 . S
C392 C408 1.368 . S
H393 C401 0.950 . S
H394 C399 0.950 . S
H395 C400 0.949 . S
H396 C402 0.950 . S
H397 C403 0.950 . S
H398 C404 0.949 . S
C399 H394 0.950 . S
C399 C401 1.327 . S
C399 C405 1.429 . S
C400 C392 1.574 . S
C400 H395 0.949 . S
C400 C406 1.368 . S
C401 C385 1.349 . S
C401 H393 0.950 . S
C401 C399 1.327 . S
C402 C390 1.349 . S
C402 H396 0.950 . S
C402 C403 1.327 . S
C403 H397 0.950 . S
C403 C402 1.327 . S
C403 C407 1.429 . S
C404 C387 1.574 . S
C404 H398 0.949 . S
C404 C408 1.368 . S
C405 C386 1.429 . S
C405 C399 1.429 . S
C405 C406 1.523 . S
C406 C387 1.368 . S
C406 C400 1.368 . S
C406 C405 1.523 . S
C407 C391 1.429 . S
C407 C403 1.429 . S
C407 C408 1.523 . S
C408 C392 1.368 . S
C408 C404 1.368 . S
C408 C407 1.523 . S
H409 C384 0.950 . S
H410 C386 0.950 . S
H411 C387 0.949 . S
H412 C389 0.950 . S
H413 C391 0.950 . S
C414 C415 1.349 . S
C414 C416 1.327 . S
C414 H439 0.950 . S
C415 C414 1.349 . S
C415 C431 1.349 . S
C416 C414 1.327 . S
C416 C435 1.429 . S
C416 H440 0.950 . S
C417 C434 1.574 . S
C417 C436 1.368 . S
C417 H441 0.949 . S
H418 C422 0.949 . S
C419 C420 1.349 . S
C419 C421 1.327 . S
C419 H442 0.950 . S
C420 C419 1.349 . S
C420 C432 1.349 . S
C421 C419 1.327 . S
C421 C437 1.429 . S
C421 H443 0.950 . S
C422 H418 0.949 . S
C422 C430 1.574 . S
C422 C438 1.368 . S
H423 C431 0.950 . S
H424 C429 0.950 . S
H425 C430 0.949 . S
H426 C432 0.950 . S
H427 C433 0.950 . S
H428 C434 0.949 . S
C429 H424 0.950 . S
C429 C431 1.327 . S
C429 C435 1.429 . S
C430 C422 1.574 . S
C430 H425 0.949 . S
C430 C436 1.368 . S
C431 C415 1.349 . S
C431 H423 0.950 . S
C431 C429 1.327 . S
C432 C420 1.349 . S
C432 H426 0.950 . S
C432 C433 1.327 . S
C433 H427 0.950 . S
C433 C432 1.327 . S
C433 C437 1.429 . S
C434 C417 1.574 . S
C434 H428 0.949 . S
C434 C438 1.368 . S
C435 C416 1.429 . S
C435 C429 1.429 . S
C435 C436 1.523 . S
C436 C417 1.368 . S
C436 C430 1.368 . S
C436 C435 1.523 . S
C437 C421 1.429 . S
C437 C433 1.429 . S
C437 C438 1.523 . S
C438 C422 1.368 . S
C438 C434 1.368 . S
C438 C437 1.523 . S
H439 C414 0.950 . S
H440 C416 0.950 . S
H441 C417 0.949 . S
H442 C419 0.950 . S
H443 C421 0.950 . S
C444 C445 1.349 . S
C444 C446 1.327 . S
C444 H469 0.950 . S
C445 C444 1.349 . S
C445 C461 1.349 . S
C446 C444 1.327 . S
C446 C465 1.429 . S
C446 H470 0.950 . S
C447 C464 1.574 . S
C447 C466 1.368 . S
C447 H471 0.949 . S
H448 C452 0.949 . S
C449 C450 1.349 . S
C449 C451 1.327 . S
C449 H472 0.950 . S
C450 C449 1.349 . S
C450 C462 1.349 . S
C451 C449 1.327 . S
C451 C467 1.429 . S
C451 H473 0.950 . S
C452 H448 0.949 . S
C452 C460 1.574 . S
C452 C468 1.368 . S
H453 C461 0.950 . S
H454 C459 0.950 . S
H455 C460 0.949 . S
H456 C462 0.950 . S
H457 C463 0.950 . S
H458 C464 0.949 . S
C459 H454 0.950 . S
C459 C461 1.327 . S
C459 C465 1.429 . S
C460 C452 1.574 . S
C460 H455 0.949 . S
C460 C466 1.368 . S
C461 C445 1.349 . S
C461 H453 0.950 . S
C461 C459 1.327 . S
C462 C450 1.349 . S
C462 H456 0.950 . S
C462 C463 1.327 . S
C463 H457 0.950 . S
C463 C462 1.327 . S
C463 C467 1.429 . S
C464 C447 1.574 . S
C464 H458 0.949 . S
C464 C468 1.368 . S
C465 C446 1.429 . S
C465 C459 1.429 . S
C465 C466 1.523 . S
C466 C447 1.368 . S
C466 C460 1.368 . S
C466 C465 1.523 . S
C467 C451 1.429 . S
C467 C463 1.429 . S
C467 C468 1.523 . S
C468 C452 1.368 . S
C468 C464 1.368 . S
C468 C467 1.523 . S
H469 C444 0.950 . S
H470 C446 0.950 . S
H471 C447 0.949 . S
H472 C449 0.950 . S
H473 C451 0.950 . S
C474 C475 1.349 . S
C474 C476 1.327 . S
C474 H499 0.950 . S
C475 C474 1.349 . S
C475 C491 1.349 . S
C476 C474 1.327 . S
C476 C495 1.429 . S
C476 H500 0.950 . S
C477 C494 1.574 . S
C477 C496 1.368 . S
C477 H501 0.949 . S
H478 C482 0.949 . S
C479 C480 1.349 . S
C479 C481 1.327 . S
C479 H502 0.950 . S
C480 C479 1.349 . S
C480 C492 1.349 . S
C481 C479 1.327 . S
C481 C497 1.429 . S
C481 H503 0.950 . S
C482 H478 0.949 . S
C482 C490 1.574 . S
C482 C498 1.368 . S
H483 C491 0.950 . S
H484 C489 0.950 . S
H485 C490 0.949 . S
H486 C492 0.950 . S
H487 C493 0.950 . S
H488 C494 0.949 . S
C489 H484 0.950 . S
C489 C491 1.327 . S
C489 C495 1.429 . S
C490 C482 1.574 . S
C490 H485 0.949 . S
C490 C496 1.368 . S
C491 C475 1.349 . S
C491 H483 0.950 . S
C491 C489 1.327 . S
C492 C480 1.349 . S
C492 H486 0.950 . S
C492 C493 1.327 . S
C493 H487 0.950 . S
C493 C492 1.327 . S
C493 C497 1.429 . S
C494 C477 1.574 . S
C494 H488 0.949 . S
C494 C498 1.368 . S
C495 C476 1.429 . S
C495 C489 1.429 . S
C495 C496 1.523 . S
C496 C477 1.368 . S
C496 C490 1.368 . S
C496 C495 1.523 . S
C497 C481 1.429 . S
C497 C493 1.429 . S
C497 C498 1.523 . S
C498 C482 1.368 . S
C498 C494 1.368 . S
C498 C497 1.523 . S
H499 C474 0.950 . S
H500 C476 0.950 . S
H501 C477 0.949 . S
H502 C479 0.950 . S
H503 C481 0.950 . S
C504 C505 1.349 . S
C504 C506 1.327 . S
C504 H529 0.950 . S
C505 C504 1.349 . S
C505 C521 1.349 . S
C506 C504 1.327 . S
C506 C525 1.429 . S
C506 H530 0.950 . S
C507 C524 1.574 . S
C507 C526 1.368 . S
C507 H531 0.949 . S
H508 C512 0.949 . S
C509 C510 1.349 . S
C509 C511 1.327 . S
C509 H532 0.950 . S
C510 C509 1.349 . S
C510 C522 1.349 . S
C511 C509 1.327 . S
C511 C527 1.429 . S
C511 H533 0.950 . S
C512 H508 0.949 . S
C512 C520 1.574 . S
C512 C528 1.368 . S
H513 C521 0.950 . S
H514 C519 0.950 . S
H515 C520 0.949 . S
H516 C522 0.950 . S
H517 C523 0.950 . S
H518 C524 0.949 . S
C519 H514 0.950 . S
C519 C521 1.327 . S
C519 C525 1.429 . S
C520 C512 1.574 . S
C520 H515 0.949 . S
C520 C526 1.368 . S
C521 C505 1.349 . S
C521 H513 0.950 . S
C521 C519 1.327 . S
C522 C510 1.349 . S
C522 H516 0.950 . S
C522 C523 1.327 . S
C523 H517 0.950 . S
C523 C522 1.327 . S
C523 C527 1.429 . S
C524 C507 1.574 . S
C524 H518 0.949 . S
C524 C528 1.368 . S
C525 C506 1.429 . S
C525 C519 1.429 . S
C525 C526 1.523 . S
C526 C507 1.368 . S
C526 C520 1.368 . S
C526 C525 1.523 . S
C527 C511 1.429 . S
C527 C523 1.429 . S
C527 C528 1.523 . S
C528 C512 1.368 . S
C528 C524 1.368 . S
C528 C527 1.523 . S
H529 C504 0.950 . S
H530 C506 0.950 . S
H531 C507 0.949 . S
H532 C509 0.950 . S
H533 C511 0.950 . S
C534 C535 1.349 . S
C534 C536 1.327 . S
C534 H559 0.950 . S
C535 C534 1.349 . S
C535 C551 1.349 . S
C536 C534 1.327 . S
C536 C555 1.429 . S
C536 H560 0.950 . S
C537 C554 1.574 1_556 S
C537 C556 1.368 1_545 S
C537 H561 0.949 . S
H538 C542 0.949 . S
C539 C540 1.349 . S
C539 C541 1.327 . S
C539 H562 0.950 . S
C540 C539 1.349 . S
C540 C552 1.349 . S
C541 C539 1.327 . S
C541 C557 1.429 . S
C541 H563 0.950 . S
C542 H538 0.949 . S
C542 C550 1.574 1_554 S
C542 C558 1.368 1_565 S
H543 C551 0.950 . S
H544 C549 0.950 . S
H545 C550 0.949 . S
H546 C552 0.950 . S
H547 C553 0.950 . S
H548 C554 0.949 . S
C549 H544 0.950 . S
C549 C551 1.327 . S
C549 C555 1.429 . S
C550 C542 1.574 1_556 S
C550 H545 0.949 . S
C550 C556 1.368 . S
C551 C535 1.349 . S
C551 H543 0.950 . S
C551 C549 1.327 . S
C552 C540 1.349 . S
C552 H546 0.950 . S
C552 C553 1.327 . S
C553 H547 0.950 . S
C553 C552 1.327 . S
C553 C557 1.429 . S
C554 C537 1.574 1_554 S
C554 H548 0.949 . S
C554 C558 1.368 . S
C555 C536 1.429 . S
C555 C549 1.429 . S
C555 C556 1.523 . S
C556 C537 1.368 1_565 S
C556 C550 1.368 . S
C556 C555 1.523 . S
C557 C541 1.429 . S
C557 C553 1.429 . S
C557 C558 1.523 . S
C558 C542 1.368 1_545 S
C558 C554 1.368 . S
C558 C557 1.523 . S
H559 C534 0.950 . S
H560 C536 0.950 . S
H561 C537 0.949 . S
H562 C539 0.950 . S
H563 C541 0.950 . S
C564 C565 1.349 . S
C564 C566 1.327 . S
C564 H589 0.950 . S
C565 C564 1.349 . S
C565 C581 1.349 . S
C566 C564 1.327 . S
C566 C585 1.429 . S
C566 H590 0.950 . S
C567 C584 1.574 . S
C567 C586 1.368 . S
C567 H591 0.949 . S
H568 C572 0.949 . S
C569 C570 1.349 . S
C569 C571 1.327 . S
C569 H592 0.950 . S
C570 C569 1.349 . S
C570 C582 1.349 . S
C571 C569 1.327 . S
C571 C587 1.429 . S
C571 H593 0.950 . S
C572 H568 0.949 . S
C572 C580 1.574 . S
C572 C588 1.368 . S
H573 C581 0.950 . S
H574 C579 0.950 . S
H575 C580 0.949 . S
H576 C582 0.950 . S
H577 C583 0.950 . S
H578 C584 0.949 . S
C579 H574 0.950 . S
C579 C581 1.327 . S
C579 C585 1.429 . S
C580 C572 1.574 . S
C580 H575 0.949 . S
C580 C586 1.368 . S
C581 C565 1.349 . S
C581 H573 0.950 . S
C581 C579 1.327 . S
C582 C570 1.349 . S
C582 H576 0.950 . S
C582 C583 1.327 . S
C583 H577 0.950 . S
C583 C582 1.327 . S
C583 C587 1.429 . S
C584 C567 1.574 . S
C584 H578 0.949 . S
C584 C588 1.368 . S
C585 C566 1.429 . S
C585 C579 1.429 . S
C585 C586 1.523 . S
C586 C567 1.368 . S
C586 C580 1.368 . S
C586 C585 1.523 . S
C587 C571 1.429 . S
C587 C583 1.429 . S
C587 C588 1.523 . S
C588 C572 1.368 . S
C588 C584 1.368 . S
C588 C587 1.523 . S
H589 C564 0.950 . S
H590 C566 0.950 . S
H591 C567 0.949 . S
H592 C569 0.950 . S
H593 C571 0.950 . S
C594 C595 1.349 . S
C594 C596 1.327 . S
C594 H619 0.950 . S
C595 C594 1.349 . S
C595 C611 1.349 . S
C596 C594 1.327 . S
C596 C615 1.429 . S
C596 H620 0.950 . S
C597 C614 1.574 1_456 S
C597 C616 1.368 . S
C597 H621 0.949 . S
H598 C602 0.949 . S
C599 C600 1.349 . S
C599 C601 1.327 . S
C599 H622 0.950 . S
C600 C599 1.349 . S
C600 C612 1.349 . S
C601 C599 1.327 . S
C601 C617 1.429 . S
C601 H623 0.950 . S
C602 H598 0.949 . S
C602 C610 1.574 1_654 S
C602 C618 1.368 . S
H603 C611 0.950 . S
H604 C609 0.950 . S
H605 C610 0.949 . S
H606 C612 0.950 . S
H607 C613 0.950 . S
H608 C614 0.949 . S
C609 H604 0.950 . S
C609 C611 1.327 . S
C609 C615 1.429 . S
C610 C602 1.574 1_456 S
C610 H605 0.949 . S
C610 C616 1.368 . S
C611 C595 1.349 . S
C611 H603 0.950 . S
C611 C609 1.327 . S
C612 C600 1.349 . S
C612 H606 0.950 . S
C612 C613 1.327 . S
C613 H607 0.950 . S
C613 C612 1.327 . S
C613 C617 1.429 . S
C614 C597 1.574 1_654 S
C614 H608 0.949 . S
C614 C618 1.368 . S
C615 C596 1.429 . S
C615 C609 1.429 . S
C615 C616 1.523 . S
C616 C597 1.368 . S
C616 C610 1.368 . S
C616 C615 1.523 . S
C617 C601 1.429 . S
C617 C613 1.429 . S
C617 C618 1.523 . S
C618 C602 1.368 . S
C618 C614 1.368 . S
C618 C617 1.523 . S
H619 C594 0.950 . S
H620 C596 0.950 . S
H621 C597 0.949 . S
H622 C599 0.950 . S
H623 C601 0.950 . S
C624 C625 1.349 . S
C624 C626 1.327 . S
C624 H649 0.950 . S
C625 C624 1.349 . S
C625 C641 1.349 . S
C626 C624 1.327 . S
C626 C645 1.429 . S
C626 H650 0.950 . S
C627 C644 1.574 . S
C627 C646 1.368 1_565 S
C627 H651 0.949 . S
H628 C632 0.949 . S
C629 C630 1.349 . S
C629 C631 1.327 . S
C629 H652 0.950 . S
C630 C629 1.349 . S
C630 C642 1.349 . S
C631 C629 1.327 . S
C631 C647 1.429 . S
C631 H653 0.950 . S
C632 H628 0.949 . S
C632 C640 1.574 . S
C632 C648 1.368 1_545 S
H633 C641 0.950 . S
H634 C639 0.950 . S
H635 C640 0.949 . S
H636 C642 0.950 . S
H637 C643 0.950 . S
H638 C644 0.949 . S
C639 H634 0.950 . S
C639 C641 1.327 . S
C639 C645 1.429 . S
C640 C632 1.574 . S
C640 H635 0.949 . S
C640 C646 1.368 . S
C641 C625 1.349 . S
C641 H633 0.950 . S
C641 C639 1.327 . S
C642 C630 1.349 . S
C642 H636 0.950 . S
C642 C643 1.327 . S
C643 H637 0.950 . S
C643 C642 1.327 . S
C643 C647 1.429 . S
C644 C627 1.574 . S
C644 H638 0.949 . S
C644 C648 1.368 . S
C645 C626 1.429 . S
C645 C639 1.429 . S
C645 C646 1.523 . S
C646 C627 1.368 1_545 S
C646 C640 1.368 . S
C646 C645 1.523 . S
C647 C631 1.429 . S
C647 C643 1.429 . S
C647 C648 1.523 . S
C648 C632 1.368 1_565 S
C648 C644 1.368 . S
C648 C647 1.523 . S
H649 C624 0.950 . S
H650 C626 0.950 . S
H651 C627 0.949 . S
H652 C629 0.950 . S
H653 C631 0.950 . S
C654 C655 1.349 . S
C654 C656 1.327 . S
C654 H679 0.950 . S
C655 C654 1.349 . S
C655 C671 1.349 . S
C656 C654 1.327 . S
C656 C675 1.429 . S
C656 H680 0.950 . S
C657 C674 1.574 . S
C657 C676 1.368 1_554 S
C657 H681 0.949 . S
H658 C662 0.949 . S
C659 C660 1.349 . S
C659 C661 1.327 . S
C659 H682 0.950 . S
C660 C659 1.349 . S
C660 C672 1.349 . S
C661 C659 1.327 . S
C661 C677 1.429 . S
C661 H683 0.950 . S
C662 H658 0.949 . S
C662 C670 1.581 . S
C662 C678 1.361 1_556 S
H663 C671 0.950 . S
H664 C669 0.950 . S
H665 C670 0.949 . S
H666 C672 0.950 . S
H667 C673 0.950 . S
H668 C674 0.949 . S
C669 H664 0.950 . S
C669 C671 1.327 . S
C669 C675 1.429 . S
C670 C662 1.581 . S
C670 H665 0.949 . S
C670 C676 1.368 . S
C671 C655 1.349 . S
C671 H663 0.950 . S
C671 C669 1.327 . S
C672 C660 1.349 . S
C672 H666 0.950 . S
C672 C673 1.327 . S
C673 H667 0.950 . S
C673 C672 1.327 . S
C673 C677 1.429 . S
C674 C657 1.574 . S
C674 H668 0.949 . S
C674 C678 1.368 . S
C675 C656 1.429 . S
C675 C669 1.429 . S
C675 C676 1.523 . S
C676 C657 1.368 1_556 S
C676 C670 1.368 . S
C676 C675 1.523 . S
C677 C661 1.429 . S
C677 C673 1.429 . S
C677 C678 1.523 . S
C678 C662 1.361 1_554 S
C678 C674 1.368 . S
C678 C677 1.523 . S
H679 C654 0.950 . S
H680 C656 0.950 . S
H681 C657 0.949 . S
H682 C659 0.950 . S
H683 C661 0.950 . S
C684 C685 1.349 . S
C684 C686 1.327 . S
C684 H709 0.950 . S
C685 C684 1.349 . S
C685 C701 1.349 . S
C686 C684 1.327 . S
C686 C705 1.429 . S
C686 H710 0.950 . S
C687 C704 1.574 . S
C687 C706 1.368 1_655 S
C687 H711 0.949 . S
H688 C692 0.949 . S
C689 C690 1.349 . S
C689 C691 1.327 . S
C689 H712 0.950 . S
C690 C689 1.349 . S
C690 C702 1.349 . S
C691 C689 1.327 . S
C691 C707 1.429 . S
C691 H713 0.950 . S
C692 H688 0.949 . S
C692 C700 1.574 . S
C692 C708 1.368 1_455 S
H693 C701 0.950 . S
H694 C699 0.950 . S
H695 C700 0.949 . S
H696 C702 0.950 . S
H697 C703 0.950 . S
H698 C704 0.949 . S
C699 H694 0.950 . S
C699 C701 1.327 . S
C699 C705 1.429 . S
C700 C692 1.574 . S
C700 H695 0.949 . S
C700 C706 1.368 . S
C701 C685 1.349 . S
C701 H693 0.950 . S
C701 C699 1.327 . S
C702 C690 1.349 . S
C702 H696 0.950 . S
C702 C703 1.327 . S
C703 H697 0.950 . S
C703 C702 1.327 . S
C703 C707 1.429 . S
C704 C687 1.574 . S
C704 H698 0.949 . S
C704 C708 1.368 . S
C705 C686 1.429 . S
C705 C699 1.429 . S
C705 C706 1.523 . S
C706 C687 1.368 1_455 S
C706 C700 1.368 . S
C706 C705 1.523 . S
C707 C691 1.429 . S
C707 C703 1.429 . S
C707 C708 1.523 . S
C708 C692 1.368 1_655 S
C708 C704 1.368 . S
C708 C707 1.523 . S
H709 C684 0.950 . S
H710 C686 0.950 . S
H711 C687 0.949 . S
H712 C689 0.950 . S
H713 C691 0.950 . S
C355 C52 1.167 . S
C360 C269 1.160 . S
C385 C111 1.166 . S
C390 C328 1.160 . S
C415 C33 1.160 . S
C420 C151 1.160 . S
C445 C210 1.161 . S
C450 C92 1.160 . S
C475 C288 1.166 . S
C480 C170 1.166 . S
C505 C229 1.166 . S
C510 C347 1.166 . S
C535 C180 1.466 . S
C540 C3 1.466 . S
C565 C241 1.474 . S
C570 C62 1.465 . S
C595 C300 1.473 . S
C600 C123 1.473 . S
C625 C5 1.474 . S
C630 C182 1.474 . S
C655 C64 1.474 . S
C660 C239 1.466 . S
C685 C298 1.465 . S
C690 C121 1.465 . S
