# Generated by pormake.
# Topology uof, (4)-cn, num edge types: 1
# Building blocks:
#     Node 0, Type 0, BuildingBlock: QUQFOY_clean_sbu_1, # of connection points: 4
#     Node 1, Type 0, BuildingBlock: QUQFOY_clean_sbu_1, # of connection points: 4
#     Node 2, Type 0, BuildingBlock: QUQFOY_clean_sbu_1, # of connection points: 4
#     Node 3, Type 0, BuildingBlock: QUQFOY_clean_sbu_1, # of connection points: 4
#     Node 4, Type 0, BuildingBlock: QUQFOY_clean_sbu_1, # of connection points: 4
#     Node 5, Type 0, BuildingBlock: QUQFOY_clean_sbu_1, # of connection points: 4
#     Node 6, Type 0, BuildingBlock: QUQFOY_clean_sbu_1, # of connection points: 4
#     Node 7, Type 0, BuildingBlock: QUQFOY_clean_sbu_1, # of connection points: 4
#     Node 8, Type 0, BuildingBlock: QUQFOY_clean_sbu_1, # of connection points: 4
#     Node 9, Type 0, BuildingBlock: QUQFOY_clean_sbu_1, # of connection points: 4
#     Node 10, Type 0, BuildingBlock: QUQFOY_clean_sbu_1, # of connection points: 4
#     Node 11, Type 0, BuildingBlock: QUQFOY_clean_sbu_1, # of connection points: 4
#     Edge 12, Type (0, 0), BuildingBlock: UVAHIK_clean_linker_0, # of connection points: 2
#     Edge 13, Type (0, 0), BuildingBlock: UVAHIK_clean_linker_0, # of connection points: 2
#     Edge 14, Type (0, 0), BuildingBlock: UVAHIK_clean_linker_0, # of connection points: 2
#     Edge 15, Type (0, 0), BuildingBlock: UVAHIK_clean_linker_0, # of connection points: 2
#     Edge 16, Type (0, 0), BuildingBlock: UVAHIK_clean_linker_0, # of connection points: 2
#     Edge 17, Type (0, 0), BuildingBlock: UVAHIK_clean_linker_0, # of connection points: 2
#     Edge 18, Type (0, 0), BuildingBlock: UVAHIK_clean_linker_0, # of connection points: 2
#     Edge 19, Type (0, 0), BuildingBlock: UVAHIK_clean_linker_0, # of connection points: 2
#     Edge 20, Type (0, 0), BuildingBlock: UVAHIK_clean_linker_0, # of connection points: 2
#     Edge 21, Type (0, 0), BuildingBlock: UVAHIK_clean_linker_0, # of connection points: 2
#     Edge 22, Type (0, 0), BuildingBlock: UVAHIK_clean_linker_0, # of connection points: 2
#     Edge 23, Type (0, 0), BuildingBlock: UVAHIK_clean_linker_0, # of connection points: 2
#     Edge 24, Type (0, 0), BuildingBlock: UVAHIK_clean_linker_0, # of connection points: 2
#     Edge 25, Type (0, 0), BuildingBlock: UVAHIK_clean_linker_0, # of connection points: 2
#     Edge 26, Type (0, 0), BuildingBlock: UVAHIK_clean_linker_0, # of connection points: 2
#     Edge 27, Type (0, 0), BuildingBlock: UVAHIK_clean_linker_0, # of connection points: 2
#     Edge 28, Type (0, 0), BuildingBlock: UVAHIK_clean_linker_0, # of connection points: 2
#     Edge 29, Type (0, 0), BuildingBlock: UVAHIK_clean_linker_0, # of connection points: 2
#     Edge 30, Type (0, 0), BuildingBlock: UVAHIK_clean_linker_0, # of connection points: 2
#     Edge 31, Type (0, 0), BuildingBlock: UVAHIK_clean_linker_0, # of connection points: 2
#     Edge 32, Type (0, 0), BuildingBlock: UVAHIK_clean_linker_0, # of connection points: 2
#     Edge 33, Type (0, 0), BuildingBlock: UVAHIK_clean_linker_0, # of connection points: 2
#     Edge 34, Type (0, 0), BuildingBlock: UVAHIK_clean_linker_0, # of connection points: 2
#     Edge 35, Type (0, 0), BuildingBlock: UVAHIK_clean_linker_0, # of connection points: 2
# Relax obj value: 0.166
# Max RMSD: 0.164
# Mean RMSD: 0.164
data_MOF--net-uof--node1-QUQFOY_clean_sbu_1--edge1-UVAHIK_clean_linker_0
_symmetry_space_group_name_H-M    P1
_symmetry_Int_Tables_number       1
_symmetry_cell_setting            triclinic
loop_
_symmetry_equiv_pos_as_xyz
'x, y, z'
_cell_length_a     41.272412
_cell_length_b     41.287249
_cell_length_c     93.121986
_cell_angle_alpha  90.000109
_cell_angle_beta   89.996193
_cell_angle_gamma 119.98621
loop_
_atom_site_label
_atom_site_type_symbol
_atom_site_fract_x
_atom_site_fract_y
_atom_site_fract_z
_atom_type_partial_charge
O0 O 0.28994 0.35668 0.2309 0.0
Cd1 Cd 0.24283 0.30565 0.23495 0.0
Cd2 Cd 0.22564 0.33363 0.2077 0.0
O3 O 0.27785 0.37939 0.21138 0.0
O4 O 0.26481 0.28903 0.25035 0.0
O5 O 0.21612 0.29605 0.25424 0.0
C6 C 0.24022 0.28764 0.25915 0.0
C7 C 0.1733 0.33728 0.20063 0.0
C8 C 0.29985 0.38217 0.22147 0.0
C9 C 0.22391 0.26003 0.20718 0.0
O10 O 0.22451 0.28656 0.20008 0.0
O11 O 0.2282 0.26216 0.22073 0.0
O12 O 0.20157 0.34765 0.19219 0.0
O13 O 0.17582 0.32726 0.21354 0.0
O14 O 0.93059 0.28975 0.56316 0.0
Cd15 Cd 0.93558 0.2431 0.56697 0.0
Cd16 Cd 0.88929 0.22597 0.53986 0.0
O17 O 0.89623 0.27833 0.54353 0.0
O18 O 0.97458 0.26532 0.58221 0.0
O19 O 0.91918 0.21634 0.58626 0.0
C20 C 0.95174 0.24062 0.59106 0.0
C21 C 0.83276 0.17437 0.53271 0.0
C22 C 0.91505 0.29989 0.55379 0.0
C23 C 0.96118 0.22378 0.53902 0.0
O24 O 0.93472 0.22397 0.53216 0.0
O25 O 0.96421 0.22863 0.55254 0.0
O26 O 0.85188 0.20206 0.52415 0.0
O27 O 0.84447 0.17718 0.54578 0.0
O28 O 0.64568 0.93504 0.89729 0.0
Cd29 Cd 0.69589 0.9359 0.89985 0.0
Cd30 Cd 0.66277 0.88972 0.87402 0.0
O31 O 0.61794 0.89666 0.87903 0.0
O32 O 0.71885 0.97512 0.91501 0.0
O33 O 0.7057 0.91714 0.91868 0.0
C34 C 0.71878 0.95066 0.92354 0.0
C35 C 0.65937 0.83304 0.86854 0.0
C36 C 0.61799 0.91814 0.88883 0.0
C37 C 0.73633 0.95941 0.87092 0.0
O38 O 0.70757 0.9343 0.86452 0.0
O39 O 0.73728 0.96178 0.88454 0.0
O40 O 0.64618 0.84806 0.85991 0.0
O41 O 0.67196 0.84885 0.88086 0.0
O42 O 0.70738 0.64419 0.23001 0.0
Cd43 Cd 0.75472 0.69529 0.23368 0.0
Cd44 Cd 0.77254 0.66542 0.20751 0.0
O45 O 0.72044 0.61961 0.21131 0.0
O46 O 0.73393 0.71275 0.24923 0.0
O47 O 0.78242 0.70512 0.25272 0.0
C48 C 0.75875 0.71388 0.25783 0.0
C49 C 0.8254 0.66191 0.20113 0.0
C50 C 0.69793 0.61777 0.22103 0.0
C51 C 0.77364 0.73869 0.20552 0.0
O52 O 0.77339 0.71155 0.199 0.0
O53 O 0.76916 0.73793 0.21904 0.0
O54 O 0.79729 0.65061 0.19255 0.0
O55 O 0.82241 0.67277 0.21384 0.0
O56 O 0.05604 0.70823 0.56602 0.0
Cd57 Cd 0.05718 0.75817 0.56968 0.0
Cd58 Cd 0.10542 0.77364 0.54391 0.0
O59 O 0.0951 0.72011 0.54787 0.0
O60 O 0.02036 0.74287 0.58571 0.0
O61 O 0.07944 0.78631 0.58829 0.0
C62 C 0.04659 0.76665 0.59386 0.0
C63 C 0.16318 0.82245 0.53605 0.0
C64 C 0.07256 0.69775 0.55723 0.0
C65 C 0.03603 0.78028 0.54161 0.0
O66 O 0.06218 0.77814 0.53534 0.0
O67 O 0.03145 0.77568 0.5551 0.0
O68 O 0.14292 0.79384 0.52807 0.0
O69 O 0.152 0.82204 0.54905 0.0
O70 O 0.35091 0.05997 0.9 0.0
Cd71 Cd 0.30134 0.0597 0.90361 0.0
Cd72 Cd 0.3335 0.10749 0.87726 0.0
O73 O 0.37694 0.09755 0.88134 0.0
O74 O 0.27962 0.02081 0.9189 0.0
O75 O 0.29354 0.079 0.92266 0.0
C76 C 0.28054 0.0455 0.92753 0.0
C77 C 0.34176 0.16492 0.86935 0.0
C78 C 0.37752 0.07606 0.89101 0.0
C79 C 0.25769 0.0381 0.87544 0.0
O80 O 0.28564 0.06395 0.86891 0.0
O81 O 0.25836 0.0341 0.88894 0.0
O82 O 0.35032 0.14481 0.86137 0.0
O83 O 0.33124 0.15383 0.88238 0.0
O84 O 0.64473 0.70605 0.43659 0.0
Cd85 Cd 0.69482 0.75404 0.43219 0.0
Cd86 Cd 0.66555 0.7716 0.4592 0.0
O87 O 0.62135 0.71825 0.4559 0.0
O88 O 0.71201 0.73334 0.4165 0.0
O89 O 0.70257 0.7807 0.41301 0.0
C90 C 0.71195 0.75753 0.40786 0.0
C91 C 0.65782 0.82086 0.46746 0.0
C92 C 0.61926 0.69596 0.44605 0.0
C93 C 0.74124 0.77665 0.45968 0.0
O94 O 0.71437 0.77601 0.46655 0.0
O95 O 0.73905 0.77075 0.44623 0.0
O96 O 0.65074 0.79271 0.47552 0.0
O97 O 0.66681 0.81982 0.45424 0.0
O98 O 0.94114 0.64865 0.77105 0.0
Cd99 Cd 0.94025 0.69759 0.76737 0.0
Cd100 Cd 0.89453 0.66627 0.7937 0.0
O101 O 0.90333 0.62215 0.78958 0.0
O102 O 0.97884 0.71949 0.75195 0.0
O103 O 0.92026 0.70439 0.74829 0.0
C104 C 0.95373 0.71772 0.74333 0.0
C105 C 0.83708 0.66056 0.79975 0.0
C106 C 0.92507 0.62187 0.77996 0.0
C107 C 0.96303 0.74162 0.79551 0.0
O108 O 0.93852 0.71332 0.80232 0.0
O109 O 0.96541 0.74096 0.78192 0.0
O110 O 0.85419 0.64978 0.80842 0.0
O111 O 0.85125 0.67198 0.78711 0.0
O112 O 0.29154 0.93698 0.10256 0.0
Cd113 Cd 0.2421 0.93759 0.10006 0.0
Cd114 Cd 0.22883 0.8921 0.12577 0.0
O115 O 0.28061 0.89877 0.1209 0.0
O116 O 0.25684 0.97442 0.08408 0.0
O117 O 0.21168 0.91594 0.08184 0.0
C118 C 0.23165 0.94863 0.07619 0.0
C119 C 0.17558 0.83564 0.13152 0.0
C120 C 0.30218 0.9201 0.1111 0.0
C121 C 0.22583 0.96248 0.12867 0.0
O122 O 0.22863 0.93688 0.13509 0.0
O123 O 0.22771 0.96504 0.11507 0.0
O124 O 0.20389 0.85095 0.1401 0.0
O125 O 0.17868 0.85098 0.1191 0.0
O126 O 0.35588 0.28803 0.43727 0.0
Cd127 Cd 0.30477 0.2412 0.433 0.0
Cd128 Cd 0.33313 0.22298 0.46012 0.0
O129 O 0.3783 0.27581 0.45686 0.0
O130 O 0.28901 0.26319 0.41731 0.0
O131 O 0.29578 0.21421 0.41382 0.0
C132 C 0.28785 0.23843 0.40867 0.0
C133 C 0.33885 0.17234 0.46811 0.0
C134 C 0.38117 0.2979 0.44679 0.0
C135 C 0.25866 0.22081 0.46052 0.0
O136 O 0.28493 0.22015 0.46735 0.0
O137 O 0.26095 0.2267 0.44707 0.0
O138 O 0.34629 0.20025 0.47638 0.0
O139 O 0.33069 0.17439 0.45486 0.0
O140 O 0.06726 0.35645 0.76958 0.0
Cd141 Cd 0.06229 0.30522 0.76497 0.0
Cd142 Cd 0.10798 0.33145 0.79251 0.0
O143 O 0.10041 0.37683 0.78961 0.0
O144 O 0.02527 0.2908 0.74908 0.0
O145 O 0.08072 0.29659 0.74583 0.0
C146 C 0.04893 0.28941 0.74053 0.0
C147 C 0.16401 0.33699 0.8009 0.0
C148 C 0.08218 0.38087 0.77944 0.0
C149 C 0.03524 0.25724 0.79203 0.0
O150 O 0.06232 0.28262 0.7991 0.0
O151 O 0.03188 0.2608 0.77865 0.0
O152 O 0.1428 0.34357 0.80909 0.0
O153 O 0.1547 0.32971 0.78754 0.0
O154 O 0.71057 0.0615 0.09913 0.0
Cd155 Cd 0.7599 0.06093 0.09608 0.0
Cd156 Cd 0.77436 0.10638 0.12214 0.0
O157 O 0.72224 0.09931 0.11768 0.0
O158 O 0.74423 0.024 0.08008 0.0
O159 O 0.78941 0.08236 0.07763 0.0
C160 C 0.76911 0.04965 0.07205 0.0
C161 C 0.82692 0.16295 0.12843 0.0
C162 C 0.70025 0.07811 0.10795 0.0
C163 C 0.77742 0.03579 0.12441 0.0
O164 O 0.77509 0.06141 0.13103 0.0
O165 O 0.77487 0.03335 0.11081 0.0
O166 O 0.7985 0.14655 0.1369 0.0
O167 O 0.82436 0.1486 0.11584 0.0
C168 C 0.8968 0.20002 0.12816 0.0
C169 C 0.86274 0.1941 0.13382 0.0
C170 C 0.93058 0.224 0.13507 0.0
C171 C 0.96588 0.26587 0.17121 0.0
H172 H 0.06106 0.31073 0.15141 0.0
C173 C 0.13743 0.35141 0.18244 0.0
C174 C 0.13769 0.33255 0.19495 0.0
C175 C 0.10373 0.34207 0.17555 0.0
C176 C 0.03487 0.29916 0.15719 0.0
H177 H 0.83752 0.21086 0.15048 0.0
H178 H 0.89643 0.25435 0.16206 0.0
H179 H 0.00371 0.28353 0.13762 0.0
H180 H 0.10277 0.29009 0.21037 0.0
H181 H 0.0443 0.27258 0.19815 0.0
H182 H 0.99706 0.28279 0.19077 0.0
C183 C 0.89719 0.23928 0.15267 0.0
C184 C 0.0017 0.28278 0.14922 0.0
C185 C 0.86336 0.21466 0.14593 0.0
C186 C 0.10345 0.30539 0.20082 0.0
C187 C 0.06979 0.29544 0.19377 0.0
C188 C 0.99906 0.28291 0.17918 0.0
C189 C 0.93123 0.24328 0.14767 0.0
C190 C 0.96665 0.26495 0.15609 0.0
C191 C 0.06946 0.31295 0.18081 0.0
C192 C 0.0341 0.29894 0.17232 0.0
H193 H 0.89722 0.18428 0.11892 0.0
H194 H 0.95587 0.22571 0.13091 0.0
H195 H 0.93967 0.2522 0.17702 0.0
H196 H 0.16342 0.37268 0.17771 0.0
H197 H 0.10476 0.35708 0.16588 0.0
C198 C 0.78127 0.10793 0.53618 0.0
C199 C 0.8012 0.13896 0.52713 0.0
C200 C 0.75592 0.07289 0.53043 0.0
C201 C 0.70701 0.02381 0.49643 0.0
H202 H 0.71622 0.94255 0.51286 0.0
C203 C 0.67511 0.88841 0.46591 0.0
C204 C 0.6601 0.85491 0.47378 0.0
C205 C 0.68388 0.92206 0.47275 0.0
C206 C 0.71273 0.96471 0.50826 0.0
H207 H 0.80849 0.15791 0.50502 0.0
H208 H 0.76533 0.09705 0.49501 0.0
H209 H 0.74659 0.00318 0.52454 0.0
H210 H 0.63987 0.83006 0.49476 0.0
H211 H 0.65493 0.88853 0.5066 0.0
H212 H 0.67448 0.9853 0.47975 0.0
C213 C 0.76859 0.09959 0.50656 0.0
C214 C 0.7301 0.9996 0.51501 0.0
C215 C 0.79362 0.13462 0.51232 0.0
C216 C 0.65171 0.85538 0.48839 0.0
C217 C 0.66053 0.88895 0.49521 0.0
C218 C 0.68987 0.98889 0.4896 0.0
C219 C 0.75018 0.06799 0.51548 0.0
C220 C 0.728 0.02984 0.50908 0.0
C221 C 0.67788 0.92285 0.48759 0.0
C222 C 0.69294 0.95907 0.49536 0.0
H223 H 0.78626 0.11037 0.54765 0.0
H224 H 0.74163 0.0494 0.53768 0.0
H225 H 0.70423 0.04621 0.49166 0.0
H226 H 0.68195 0.88903 0.45465 0.0
H227 H 0.69735 0.94772 0.46659 0.0
C228 C 0.69286 0.79663 0.86942 0.0
C229 C 0.66442 0.80178 0.86356 0.0
C230 C 0.70297 0.77248 0.86285 0.0
C231 C 0.69715 0.72905 0.82716 0.0
H232 H 0.748 0.68588 0.84773 0.0
C233 C 0.78554 0.64537 0.81735 0.0
C234 C 0.80529 0.66445 0.80496 0.0
C235 C 0.76044 0.65423 0.8239 0.0
C236 C 0.73325 0.69698 0.84174 0.0
H237 H 0.62225 0.78346 0.8469 0.0
H238 H 0.63833 0.73979 0.83591 0.0
H239 H 0.71706 0.71305 0.86106 0.0
H240 H 0.81302 0.70666 0.78938 0.0
H241 H 0.77065 0.72323 0.801 0.0
H242 H 0.71222 0.71182 0.80786 0.0
C243 C 0.65409 0.75555 0.8452 0.0
C244 C 0.71598 0.71331 0.84945 0.0
C245 C 0.64451 0.78028 0.8516 0.0
C246 C 0.79797 0.6912 0.79884 0.0
C247 C 0.77345 0.70062 0.80554 0.0
C248 C 0.71381 0.71209 0.81946 0.0
C249 C 0.68441 0.75231 0.85039 0.0
C250 C 0.69855 0.73054 0.84228 0.0
C251 C 0.75507 0.68301 0.81841 0.0
C252 C 0.73304 0.69671 0.82661 0.0
H253 H 0.70899 0.81306 0.87854 0.0
H254 H 0.72674 0.77133 0.86714 0.0
H255 H 0.68444 0.74224 0.82115 0.0
H256 H 0.79041 0.6244 0.82226 0.0
H257 H 0.74608 0.63918 0.83352 0.0
C258 C 0.86224 0.64775 0.18342 0.0
C259 C 0.86133 0.66673 0.19579 0.0
C260 C 0.89628 0.65716 0.1768 0.0
C261 C 0.00067 0.71626 0.1811 0.0
H262 H 0.99803 0.71607 0.1395 0.0
C263 C 0.13785 0.7836 0.14875 0.0
C264 C 0.13931 0.80464 0.13666 0.0
C265 C 0.10361 0.75916 0.15527 0.0
C266 C 0.99946 0.71666 0.15111 0.0
H267 H 0.89547 0.70945 0.21127 0.0
H268 H 0.95454 0.72698 0.19952 0.0
H269 H 0.94001 0.68889 0.15288 0.0
H270 H 0.10588 0.81543 0.12157 0.0
H271 H 0.04652 0.7742 0.13316 0.0
H272 H 0.06017 0.7467 0.17933 0.0
C273 C 0.92928 0.70402 0.19505 0.0
C274 C 0.96592 0.70033 0.15885 0.0
C275 C 0.89527 0.69405 0.20182 0.0
C276 C 0.10567 0.79934 0.1308 0.0
C277 C 0.07148 0.77548 0.13747 0.0
C278 C 0.03422 0.73321 0.17335 0.0
C279 C 0.93025 0.6864 0.18221 0.0
C280 C 0.96598 0.70041 0.17398 0.0
C281 C 0.07 0.75576 0.15005 0.0
C282 C 0.03418 0.73423 0.15823 0.0
H283 H 0.83651 0.62635 0.17858 0.0
H284 H 0.89576 0.64209 0.16721 0.0
H285 H 0.00209 0.7163 0.1927 0.0
H286 H 0.16333 0.78691 0.15346 0.0
H287 H 0.10371 0.74374 0.16465 0.0
C288 C 0.33805 0.13407 0.48908 0.0
C289 C 0.33544 0.13753 0.47416 0.0
C290 C 0.32848 0.09954 0.49522 0.0
C291 C 0.26927 0.9988 0.48741 0.0
H292 H 0.3097 0.98777 0.5235 0.0
C293 C 0.20505 0.85628 0.51531 0.0
C294 C 0.19516 0.85639 0.52976 0.0
C295 C 0.22966 0.88965 0.50834 0.0
C296 C 0.29817 0.99044 0.51342 0.0
H297 H 0.32331 0.1079 0.45389 0.0
H298 H 0.30774 0.04781 0.46455 0.0
H299 H 0.34022 0.04803 0.51111 0.0
H300 H 0.20557 0.89144 0.54849 0.0
H301 H 0.2487 0.94979 0.53632 0.0
H302 H 0.22701 0.94146 0.4898 0.0
C303 C 0.31611 0.0716 0.47157 0.0
C304 C 0.31556 0.02499 0.50631 0.0
C305 C 0.32538 0.10615 0.46543 0.0
C306 C 0.2126 0.89035 0.53736 0.0
C307 C 0.23738 0.92381 0.53038 0.0
C308 C 0.25215 0.96428 0.49443 0.0
C309 C 0.31635 0.06755 0.4866 0.0
C310 C 0.30091 0.02984 0.49334 0.0
C311 C 0.24511 0.92396 0.51566 0.0
C312 C 0.26597 0.95981 0.50764 0.0
H313 H 0.34566 0.15765 0.49614 0.0
H314 H 0.32871 0.09765 0.50681 0.0
H315 H 0.25659 0.00144 0.47763 0.0
H316 H 0.19237 0.8306 0.50914 0.0
H317 H 0.23559 0.88875 0.49706 0.0
C318 C 0.34918 0.20653 0.84859 0.0
C319 C 0.33924 0.19658 0.86304 0.0
C320 C 0.3399 0.23075 0.84161 0.0
C321 C 0.30581 0.29792 0.84669 0.0
H322 H 0.25436 0.25632 0.81072 0.0
C323 C 0.20078 0.33579 0.82205 0.0
C324 C 0.19535 0.33368 0.8071 0.0
C325 C 0.22589 0.32653 0.82828 0.0
C326 C 0.26934 0.269 0.82055 0.0
H327 H 0.31414 0.20648 0.88175 0.0
H328 H 0.29797 0.24888 0.86955 0.0
H329 H 0.28543 0.22747 0.82293 0.0
H330 H 0.21403 0.32265 0.78688 0.0
H331 H 0.25874 0.30754 0.79771 0.0
H332 H 0.2892 0.3392 0.84439 0.0
C333 C 0.313 0.23794 0.86363 0.0
C334 C 0.28714 0.2523 0.8276 0.0
C335 C 0.32223 0.21358 0.87063 0.0
C336 C 0.21736 0.32433 0.79844 0.0
C337 C 0.24276 0.31534 0.80468 0.0
C338 C 0.28823 0.31487 0.83956 0.0
C339 C 0.32053 0.24571 0.8489 0.0
C340 C 0.30506 0.26614 0.84087 0.0
C341 C 0.24651 0.31518 0.81972 0.0
C342 C 0.26912 0.30019 0.82652 0.0
H343 H 0.36255 0.19419 0.84244 0.0
H344 H 0.34673 0.23674 0.83033 0.0
H345 H 0.31971 0.30948 0.85681 0.0
H346 H 0.18427 0.34285 0.82906 0.0
H347 H 0.22758 0.32641 0.83988 0.0
C348 C 0.64053 0.57002 0.20813 0.0
C349 C 0.65861 0.58705 0.22106 0.0
C350 C 0.60166 0.54643 0.20779 0.0
C351 C 0.51904 0.48834 0.22992 0.0
H352 H 0.4655 0.51608 0.20293 0.0
C353 C 0.36006 0.42258 0.2342 0.0
C354 C 0.33932 0.41257 0.2214 0.0
C355 C 0.39888 0.4456 0.23394 0.0
C356 C 0.47991 0.50754 0.2104 0.0
H357 H 0.65065 0.591 0.24387 0.0
H358 H 0.58307 0.5489 0.24333 0.0
H359 H 0.53377 0.54868 0.20245 0.0
H360 H 0.34277 0.42015 0.19832 0.0
H361 H 0.41067 0.4595 0.19776 0.0
H362 H 0.46563 0.44673 0.23773 0.0
C363 C 0.5988 0.55415 0.23346 0.0
C364 C 0.51904 0.52625 0.21011 0.0
C365 C 0.63746 0.57823 0.23376 0.0
C366 C 0.35799 0.4277 0.20838 0.0
C367 C 0.397 0.45026 0.20808 0.0
C368 C 0.47998 0.46928 0.23009 0.0
C369 C 0.58039 0.53889 0.22041 0.0
C370 C 0.53896 0.51706 0.21997 0.0
C371 C 0.41807 0.45858 0.22083 0.0
C372 C 0.45981 0.47891 0.22046 0.0
H373 H 0.65607 0.57656 0.19816 0.0
H374 H 0.5881 0.53474 0.19762 0.0
H375 H 0.53374 0.48052 0.23756 0.0
H376 H 0.34636 0.41155 0.24442 0.0
H377 H 0.4139 0.45238 0.24403 0.0
C378 C 0.04709 0.63599 0.56953 0.0
C379 C 0.06207 0.65787 0.55712 0.0
C380 C 0.03222 0.5973 0.56902 0.0
C381 C 0.98488 0.5186 0.54488 0.0
H382 H 0.0096 0.46478 0.57282 0.0
C383 C 0.92763 0.35874 0.54131 0.0
C384 C 0.92326 0.33905 0.55412 0.0
C385 C 0.94288 0.3976 0.54152 0.0
C386 C 0.00172 0.47919 0.56509 0.0
H387 H 0.07402 0.65651 0.53452 0.0
H388 H 0.04727 0.58853 0.5336 0.0
H389 H 0.04199 0.5328 0.57348 0.0
H390 H 0.92858 0.34392 0.57727 0.0
H391 H 0.95305 0.4111 0.57777 0.0
H392 H 0.9437 0.4652 0.53676 0.0
C393 C 0.04735 0.60154 0.54371 0.0
C394 C 0.02064 0.51823 0.5654 0.0
C395 C 0.06293 0.6404 0.54428 0.0
C396 C 0.93197 0.35848 0.56721 0.0
C397 C 0.94648 0.39711 0.56746 0.0
C398 C 0.96545 0.47947 0.5447 0.0
C399 C 0.03139 0.57962 0.55604 0.0
C400 C 0.01242 0.53829 0.55531 0.0
C401 C 0.95349 0.41745 0.55459 0.0
C402 C 0.97355 0.45918 0.55483 0.0
H403 H 0.04603 0.64868 0.57957 0.0
H404 H 0.01999 0.58101 0.57866 0.0
H405 H 0.97769 0.53348 0.53709 0.0
H406 H 0.9215 0.34451 0.53105 0.0
H407 H 0.94803 0.41215 0.53138 0.0
C408 C 0.41567 0.05335 0.90376 0.0
C409 C 0.4073 0.0661 0.89106 0.0
C410 C 0.43973 0.03872 0.9035 0.0
C411 C 0.46798 0.9869 0.88058 0.0
H412 H 0.55172 0.01838 0.90659 0.0
C413 C 0.56959 0.92861 0.87697 0.0
C414 C 0.58781 0.92748 0.88953 0.0
C415 C 0.54626 0.94418 0.87719 0.0
C416 C 0.528 0.00861 0.89943 0.0
H417 H 0.41823 0.07432 0.86819 0.0
H418 H 0.45977 0.04784 0.86771 0.0
H419 H 0.51578 0.05053 0.90686 0.0
H420 H 0.59387 0.93917 0.91235 0.0
H421 H 0.55156 0.96416 0.91296 0.0
H422 H 0.47891 0.94404 0.87349 0.0
C423 C 0.44788 0.04958 0.87785 0.0
C424 C 0.5077 0.0274 0.89951 0.0
C425 C 0.42443 0.06501 0.87816 0.0
C426 C 0.58042 0.93999 0.90247 0.0
C427 C 0.5565 0.95479 0.90276 0.0
C428 C 0.48781 0.9676 0.88067 0.0
C429 C 0.45527 0.03582 0.89049 0.0
C430 C 0.47761 0.01679 0.89006 0.0
C431 C 0.54008 0.95832 0.89004 0.0
C432 C 0.51817 0.97819 0.8901 0.0
H433 H 0.40284 0.05382 0.91385 0.0
H434 H 0.44495 0.0282 0.91337 0.0
H435 H 0.44449 0.97788 0.87332 0.0
H436 H 0.5751 0.91954 0.8668 0.0
H437 H 0.53453 0.94664 0.86713 0.0
C438 C 0.5726 0.63856 0.4593 0.0
C439 C 0.58918 0.65634 0.44627 0.0
C440 C 0.54903 0.59972 0.4598 0.0
C441 C 0.48982 0.51699 0.43792 0.0
H442 H 0.51638 0.46301 0.46516 0.0
C443 C 0.42207 0.35788 0.43403 0.0
C444 C 0.41168 0.3373 0.44687 0.0
C445 C 0.44549 0.39662 0.43424 0.0
C446 C 0.50819 0.47756 0.45762 0.0
H447 H 0.59249 0.64776 0.42347 0.0
H448 H 0.55053 0.58023 0.4243 0.0
H449 H 0.55004 0.53131 0.46541 0.0
H450 H 0.41895 0.34091 0.46997 0.0
H451 H 0.45904 0.40875 0.47043 0.0
H452 H 0.44753 0.46374 0.43028 0.0
C453 C 0.55608 0.5962 0.43413 0.0
C454 C 0.5275 0.5167 0.45777 0.0
C455 C 0.58012 0.63484 0.43366 0.0
C456 C 0.42677 0.35602 0.45989 0.0
C457 C 0.44975 0.39498 0.46013 0.0
C458 C 0.47018 0.47795 0.43789 0.0
C459 C 0.54107 0.57814 0.44725 0.0
C460 C 0.51874 0.53676 0.44782 0.0
C461 C 0.45852 0.41591 0.44733 0.0
C462 C 0.47939 0.45763 0.44761 0.0
H463 H 0.5793 0.65437 0.46921 0.0
H464 H 0.53753 0.58645 0.47004 0.0
H465 H 0.48228 0.53179 0.43023 0.0
H466 H 0.4111 0.34413 0.42383 0.0
H467 H 0.45259 0.41154 0.42412 0.0
C468 C 0.94958 0.58521 0.76728 0.0
C469 C 0.93521 0.5922 0.77985 0.0
C470 C 0.9642 0.56116 0.76754 0.0
C471 C 0.01154 0.52847 0.79122 0.0
H472 H 0.98697 0.45192 0.76241 0.0
C473 C 0.06907 0.42568 0.79283 0.0
C474 C 0.07382 0.41175 0.77972 0.0
C475 C 0.05364 0.44915 0.79314 0.0
C476 C 0.99477 0.47363 0.77039 0.0
H477 H 0.92406 0.57876 0.80247 0.0
H478 H 0.95031 0.53703 0.80294 0.0
H479 H 0.95454 0.48754 0.76242 0.0
H480 H 0.06899 0.4137 0.75662 0.0
H481 H 0.04412 0.45609 0.75705 0.0
H482 H 0.05265 0.51559 0.79895 0.0
C483 C 0.94999 0.55013 0.79291 0.0
C484 C 0.97584 0.49376 0.77046 0.0
C485 C 0.93468 0.57369 0.79259 0.0
C486 C 0.06531 0.42375 0.76689 0.0
C487 C 0.05058 0.4477 0.76717 0.0
C488 C 0.03093 0.5087 0.79104 0.0
C489 C 0.96536 0.54409 0.78042 0.0
C490 C 0.98408 0.52142 0.78084 0.0
C491 C 0.04319 0.45961 0.78031 0.0
C492 C 0.02293 0.4811 0.78057 0.0
H493 H 0.95039 0.59909 0.7573 0.0
H494 H 0.976 0.5571 0.75777 0.0
H495 H 0.01875 0.55002 0.79925 0.0
H496 H 0.07505 0.41659 0.8029 0.0
H497 H 0.04823 0.4575 0.80347 0.0
C498 C 0.36163 0.94161 0.09749 0.0
C499 C 0.34161 0.92917 0.11044 0.0
C500 C 0.40027 0.95592 0.09723 0.0
C501 C 0.48205 0.00798 0.11922 0.0
H502 H 0.53245 0.97673 0.09218 0.0
C503 C 0.64228 0.06736 0.12064 0.0
C504 C 0.66064 0.06856 0.10779 0.0
C505 C 0.60336 0.05151 0.12094 0.0
C506 C 0.51899 0.98642 0.09962 0.0
H507 H 0.34615 0.92102 0.13319 0.0
H508 H 0.4141 0.94695 0.13276 0.0
H509 H 0.46435 0.94418 0.09279 0.0
H510 H 0.65313 0.05666 0.08499 0.0
H511 H 0.58573 0.03115 0.08529 0.0
H512 H 0.5363 0.05118 0.12571 0.0
C513 C 0.39965 0.94521 0.12283 0.0
C514 C 0.47992 0.96741 0.10005 0.0
C515 C 0.36081 0.93009 0.12304 0.0
C516 C 0.63966 0.05582 0.09509 0.0
C517 C 0.6009 0.04072 0.09531 0.0
C518 C 0.52115 0.02751 0.11862 0.0
C519 C 0.41975 0.95881 0.10996 0.0
C520 C 0.46112 0.97794 0.10988 0.0
C521 C 0.582 0.03714 0.10833 0.0
C522 C 0.54023 0.017 0.10881 0.0
H523 H 0.34754 0.94127 0.08763 0.0
H524 H 0.41518 0.96632 0.08718 0.0
H525 H 0.46811 0.01697 0.12675 0.0
H526 H 0.65769 0.07659 0.13064 0.0
H527 H 0.59 0.04903 0.1312 0.0
C528 C 0.21835 0.01891 0.13019 0.0
C529 C 0.22105 0.9901 0.13712 0.0
C530 C 0.21508 0.04573 0.13818 0.0
C531 C 0.23604 0.08953 0.17374 0.0
H532 H 0.16985 0.12589 0.16184 0.0
C533 C 0.21851 0.19688 0.2072 0.0
C534 C 0.21913 0.22653 0.19955 0.0
C535 C 0.21562 0.16598 0.19995 0.0
C536 C 0.18865 0.11618 0.16523 0.0
H537 H 0.22166 0.96643 0.15787 0.0
H538 H 0.21576 0.0132 0.17179 0.0
H539 H 0.1704 0.07532 0.14846 0.0
H540 H 0.21647 0.24662 0.17827 0.0
H541 H 0.21186 0.19287 0.16563 0.0
H542 H 0.25472 0.13067 0.19037 0.0
C543 C 0.21661 0.01522 0.16018 0.0
C544 C 0.18895 0.08726 0.15758 0.0
C545 C 0.21983 0.98836 0.1522 0.0
C546 C 0.21606 0.22426 0.1845 0.0
C547 C 0.21318 0.19335 0.17725 0.0
C548 C 0.23577 0.11845 0.18137 0.0
C549 C 0.21448 0.04432 0.15325 0.0
C550 C 0.21284 0.07383 0.1617 0.0
C551 C 0.21328 0.16406 0.18489 0.0
C552 C 0.21225 0.13225 0.17714 0.0
H553 H 0.21922 0.02108 0.11859 0.0
H554 H 0.21394 0.06809 0.13254 0.0
H555 H 0.25518 0.08016 0.17704 0.0
H556 H 0.22061 0.19764 0.2188 0.0
H557 H 0.21524 0.14357 0.20613 0.0
C558 C 0.98873 0.21715 0.51602 0.0
C559 C 0.98941 0.21877 0.5311 0.0
C560 C 0.01632 0.21406 0.5085 0.0
C561 C 0.11274 0.23247 0.5125 0.0
H562 H 0.08953 0.17135 0.47823 0.0
C563 C 0.22376 0.21162 0.4835 0.0
C564 C 0.22554 0.21593 0.4685 0.0
C565 C 0.19359 0.20911 0.49119 0.0
C566 C 0.0964 0.18871 0.48773 0.0
H567 H 0.01905 0.21736 0.55014 0.0
H568 H 0.06683 0.2114 0.53702 0.0
H569 H 0.03903 0.17178 0.49176 0.0
H570 H 0.19646 0.21997 0.44976 0.0
H571 H 0.14377 0.2157 0.46324 0.0
H572 H 0.17005 0.24946 0.50846 0.0
C573 C 0.04535 0.21322 0.531 0.0
C574 C 0.06754 0.18899 0.49547 0.0
C575 C 0.01784 0.21645 0.53852 0.0
C576 C 0.19598 0.21672 0.46131 0.0
C577 C 0.16571 0.21407 0.46901 0.0
C578 C 0.14152 0.23206 0.50481 0.0
C579 C 0.04511 0.21239 0.51591 0.0
C580 C 0.07544 0.211 0.50791 0.0
C581 C 0.16449 0.21073 0.48405 0.0
C582 C 0.13366 0.21028 0.49233 0.0
H583 H 0.96726 0.21893 0.50997 0.0
H584 H 0.0156 0.21395 0.49688 0.0
H585 H 0.11984 0.25027 0.52187 0.0
H586 H 0.24593 0.21071 0.48938 0.0
H587 H 0.19311 0.20602 0.50275 0.0
C588 C 0.00967 0.21984 0.81451 0.0
C589 C 0.00654 0.22368 0.79965 0.0
C590 C 0.98164 0.18938 0.82192 0.0
C591 C 0.9014 0.0943 0.81749 0.0
H592 H 0.8689 0.11629 0.85343 0.0
C593 C 0.76712 0.98753 0.84741 0.0
C594 C 0.76876 0.98702 0.86248 0.0
C595 C 0.79712 0.01492 0.83952 0.0
C596 C 0.87798 0.10958 0.84352 0.0
H597 H 0.97194 0.19789 0.78086 0.0
H598 H 0.9228 0.14471 0.7939 0.0
H599 H 0.91965 0.16664 0.84002 0.0
H600 H 0.80373 0.01412 0.88106 0.0
H601 H 0.85612 0.06147 0.86731 0.0
H602 H 0.85952 0.03714 0.82101 0.0
C603 C 0.94713 0.16524 0.79975 0.0
C604 C 0.90703 0.13843 0.83583 0.0
C605 C 0.97519 0.1958 0.79231 0.0
C606 C 0.80139 0.01388 0.86947 0.0
C607 C 0.83137 0.04116 0.8616 0.0
C608 C 0.87232 0.06534 0.82521 0.0
C609 C 0.94986 0.16204 0.81466 0.0
C610 C 0.91911 0.1311 0.82276 0.0
C611 C 0.82937 0.04228 0.84656 0.0
C612 C 0.86037 0.0727 0.83833 0.0
H613 H 0.03356 0.24064 0.82049 0.0
H614 H 0.98476 0.18731 0.83338 0.0
H615 H 0.91038 0.08782 0.8075 0.0
H616 H 0.74238 0.96723 0.84169 0.0
H617 H 0.79462 0.01527 0.82796 0.0
C618 C 0.78502 0.97938 0.12547 0.0
C619 C 0.782 0.00773 0.13263 0.0
C620 C 0.78751 0.95182 0.13323 0.0
C621 C 0.80878 0.92922 0.16915 0.0
H622 H 0.74758 0.82675 0.15623 0.0
C623 C 0.7782 0.80143 0.20407 0.0
C624 C 0.77844 0.77126 0.19718 0.0
C625 C 0.78138 0.83152 0.19609 0.0
C626 C 0.76521 0.85526 0.15987 0.0
H627 H 0.78004 0.02979 0.15358 0.0
H628 H 0.78392 0.98137 0.1671 0.0
H629 H 0.74849 0.87727 0.14244 0.0
H630 H 0.78307 0.74944 0.17653 0.0
H631 H 0.78881 0.80203 0.16266 0.0
H632 H 0.82507 0.90699 0.18671 0.0
C633 C 0.78479 0.98074 0.15549 0.0
C634 C 0.76576 0.8842 0.15196 0.0
C635 C 0.78234 0.00836 0.14773 0.0
C636 C 0.78257 0.77212 0.18217 0.0
C637 C 0.78569 0.80216 0.17421 0.0
C638 C 0.80819 0.90023 0.17708 0.0
C639 C 0.787 0.95196 0.14832 0.0
C640 C 0.78745 0.92148 0.15653 0.0
C641 C 0.7848 0.832 0.18107 0.0
C642 C 0.7863 0.86296 0.17253 0.0
H643 H 0.78508 0.97821 0.11385 0.0
H644 H 0.78976 0.93031 0.12741 0.0
H645 H 0.82613 0.95772 0.17284 0.0
H646 H 0.77506 0.80165 0.21561 0.0
H647 H 0.78023 0.85397 0.20165 0.0
C648 C 0.80582 0.78537 0.4602 0.0
C649 C 0.77514 0.78338 0.46756 0.0
C650 C 0.83707 0.78998 0.46776 0.0
C651 C 0.88448 0.81803 0.50309 0.0
H652 H 0.92503 0.75497 0.49181 0.0
C653 C 0.97987 0.78826 0.53952 0.0
C654 C 0.00981 0.78683 0.53296 0.0
C655 C 0.95387 0.79215 0.53119 0.0
C656 C 0.91439 0.77317 0.49496 0.0
H657 H 0.75357 0.78547 0.4886 0.0
H658 H 0.80773 0.79284 0.50175 0.0
H659 H 0.87489 0.75408 0.47776 0.0
H660 H 0.03663 0.78964 0.51256 0.0
H661 H 0.99132 0.79652 0.4981 0.0
H662 H 0.92356 0.83642 0.52051 0.0
C663 C 0.80791 0.7914 0.49014 0.0
C664 C 0.8857 0.7727 0.4869 0.0
C665 C 0.77673 0.7869 0.48259 0.0
C666 C 0.01376 0.79039 0.51796 0.0
C667 C 0.98774 0.79418 0.50965 0.0
C668 C 0.91314 0.8184 0.51119 0.0
C669 C 0.83825 0.7926 0.48282 0.0
C670 C 0.87022 0.79489 0.49094 0.0
C671 C 0.95727 0.79459 0.51616 0.0
C672 C 0.92818 0.79576 0.50725 0.0
H673 H 0.80561 0.78301 0.44861 0.0
H674 H 0.86026 0.79134 0.4618 0.0
H675 H 0.87347 0.83583 0.50635 0.0
H676 H 0.97604 0.78564 0.55105 0.0
H677 H 0.93045 0.79205 0.53649 0.0
C678 C 0.22326 0.01548 0.85217 0.0
C679 C 0.22439 0.01154 0.86713 0.0
C680 C 0.19283 0.98919 0.84419 0.0
C681 C 0.09472 0.9129 0.84704 0.0
H682 H 0.11838 0.87683 0.81238 0.0
C683 C 0.98963 0.77596 0.81857 0.0
C684 C 0.98993 0.77543 0.80348 0.0
C685 C 0.01639 0.80718 0.82609 0.0
C686 C 0.11123 0.887 0.8219 0.0
H687 H 0.19388 0.97747 0.88549 0.0
H688 H 0.14096 0.93139 0.8715 0.0
H689 H 0.16844 0.92734 0.82598 0.0
H690 H 0.01778 0.80782 0.78444 0.0
H691 H 0.06418 0.86236 0.79757 0.0
H692 H 0.03746 0.87204 0.84302 0.0
C693 C 0.16347 0.95502 0.86598 0.0
C694 C 0.13991 0.91594 0.82969 0.0
C695 C 0.19392 0.98131 0.87398 0.0
C696 C 0.01692 0.80717 0.79607 0.0
C697 C 0.04362 0.83838 0.80358 0.0
C698 C 0.06597 0.88392 0.83922 0.0
C699 C 0.16288 0.95842 0.85099 0.0
C700 C 0.13201 0.92902 0.84239 0.0
C701 C 0.04395 0.83852 0.81867 0.0
C702 C 0.07398 0.8705 0.82662 0.0
H703 H 0.24613 0.03858 0.84657 0.0
H704 H 0.19287 0.99282 0.83267 0.0
H705 H 0.08777 0.92273 0.8567 0.0
H706 H 0.9692 0.75197 0.82461 0.0
H707 H 0.01617 0.8063 0.83771 0.0
C708 C 0.27016 0.20895 0.38411 0.0
C709 C 0.27901 0.23926 0.39332 0.0
C710 C 0.2627 0.21095 0.36954 0.0
C711 C 0.287 0.2785 0.34089 0.0
H712 H 0.19712 0.20534 0.32117 0.0
C713 C 0.27246 0.27689 0.27966 0.0
C714 C 0.24106 0.27793 0.27439 0.0
C715 C 0.27482 0.26947 0.2941 0.0
C716 C 0.22227 0.22594 0.3266 0.0
H717 H 0.28674 0.29522 0.39449 0.0
H718 H 0.27468 0.29888 0.36914 0.0
H719 H 0.20573 0.19675 0.34677 0.0
H720 H 0.18695 0.27083 0.28008 0.0
H721 H 0.19092 0.25713 0.30551 0.0
H722 H 0.3039 0.3075 0.32082 0.0
C723 C 0.2732 0.27356 0.37319 0.0
C724 C 0.22731 0.22089 0.34115 0.0
C725 C 0.28 0.27135 0.38771 0.0
C726 C 0.21153 0.27035 0.28385 0.0
C727 C 0.21369 0.26233 0.29834 0.0
C728 C 0.2823 0.28318 0.32636 0.0
C729 C 0.2647 0.24353 0.36394 0.0
C730 C 0.25962 0.24734 0.34842 0.0
C731 C 0.24566 0.26241 0.30361 0.0
C732 C 0.24986 0.25707 0.31908 0.0
H733 H 0.26908 0.18383 0.38815 0.0
H734 H 0.25634 0.1875 0.36257 0.0
H735 H 0.31221 0.29921 0.34626 0.0
H736 H 0.2957 0.28254 0.27268 0.0
H737 H 0.29964 0.26943 0.29788 0.0
C738 C 0.94079 0.21234 0.61582 0.0
C739 C 0.96271 0.24158 0.60626 0.0
C740 C 0.95124 0.21473 0.63029 0.0
C741 C 9e-05 0.28399 0.65801 0.0
H742 H 0.00831 0.207 0.67883 0.0
C743 C 0.00915 0.28283 0.71939 0.0
C744 C 0.03966 0.28094 0.72515 0.0
C745 C 0.00035 0.27606 0.70485 0.0
C746 C 0.00623 0.2287 0.67309 0.0
H747 H 0.01304 0.29588 0.60432 0.0
H748 H 0.03059 0.30019 0.62947 0.0
H749 H 0.99107 0.19797 0.65324 0.0
H750 H 0.08432 0.26953 0.72022 0.0
H751 H 0.06827 0.25686 0.69461 0.0
H752 H 0.01448 0.31445 0.67779 0.0
C753 C 0.00552 0.27544 0.6258 0.0
C754 C 0.99611 0.22343 0.65854 0.0
C755 C 0.99545 0.27286 0.61139 0.0
C756 C 0.06076 0.27132 0.71606 0.0
C757 C 0.05149 0.26389 0.70148 0.0
C758 C 0.00951 0.28895 0.67254 0.0
C759 C 0.98339 0.24663 0.63542 0.0
C760 C 0.99314 0.25116 0.65088 0.0
C761 C 0.02148 0.2667 0.69574 0.0
C762 C 0.01269 0.26141 0.68021 0.0
H763 H 0.9155 0.18785 0.61217 0.0
H764 H 0.93364 0.19221 0.63755 0.0
H765 H 0.9978 0.30571 0.65236 0.0
H766 H 0.99232 0.29018 0.72608 0.0
H767 H 0.97694 0.27817 0.7007 0.0
C768 C 0.79323 0.07023 0.04696 0.0
C769 C 0.77297 0.04142 0.05688 0.0
C770 C 0.79382 0.06193 0.0324 0.0
C771 C 0.77512 0.98503 0.00713 0.0
H772 H 0.75102 0.04156 0.98028 0.0
C773 C 0.72256 0.93404 0.94923 0.0
C774 C 0.73234 0.96117 0.93845 0.0
C775 C 0.73259 0.94483 0.96355 0.0
C776 C 0.75847 0.02586 0.98754 0.0
H777 H 0.73878 0.98128 0.05943 0.0
H778 H 0.73995 0.96694 0.03418 0.0
H779 H 0.76103 0.05956 0.00544 0.0
H780 H 0.76217 0.02075 0.93408 0.0
H781 H 0.78053 0.03945 0.95883 0.0
H782 H 0.77227 0.9511 0.98923 0.0
C783 C 0.75543 0.99588 0.03758 0.0
C784 C 0.7642 0.03624 0.002 0.0
C785 C 0.75454 0.00416 0.05205 0.0
C786 C 0.75374 0.99915 0.94217 0.0
C787 C 0.76409 0.0099 0.9564 0.0
C788 C 0.76964 0.97477 0.99263 0.0
C789 C 0.77453 0.02466 0.02754 0.0
C790 C 0.77211 0.01567 0.01199 0.0
C791 C 0.75291 0.98296 0.96734 0.0
C792 C 0.76082 0.99481 0.98267 0.0
H793 H 0.80774 0.0992 0.05036 0.0
H794 H 0.80904 0.08469 0.02491 0.0
H795 H 0.78154 0.96885 0.01457 0.0
H796 H 0.706 0.90456 0.94668 0.0
H797 H 0.72321 0.9233 0.9717 0.0
C798 C 0.72696 0.72365 0.27874 0.0
C799 C 0.75843 0.7233 0.27315 0.0
C800 C 0.72494 0.73041 0.29329 0.0
C801 C 0.77758 0.77374 0.3256 0.0
H802 H 0.69 0.6973 0.34553 0.0
C803 C 0.72843 0.78719 0.38332 0.0
C804 C 0.72114 0.75728 0.39252 0.0
C805 C 0.73616 0.78571 0.36874 0.0
C806 C 0.71456 0.71886 0.34009 0.0
H807 H 0.81305 0.73103 0.27835 0.0
H808 H 0.80973 0.74373 0.30396 0.0
H809 H 0.6981 0.69011 0.31996 0.0
H810 H 0.71657 0.70261 0.39367 0.0
H811 H 0.72907 0.6998 0.3683 0.0
H812 H 0.79357 0.80277 0.34582 0.0
C813 C 0.78661 0.73842 0.29697 0.0
C814 C 0.71914 0.7148 0.32549 0.0
C815 C 0.78841 0.731 0.28237 0.0
C816 C 0.72206 0.72614 0.3869 0.0
C817 C 0.72913 0.72443 0.37236 0.0
C818 C 0.77262 0.77816 0.34022 0.0
C819 C 0.75455 0.73755 0.30256 0.0
C820 C 0.75069 0.7421 0.31812 0.0
C821 C 0.736 0.75402 0.36313 0.0
C822 C 0.74115 0.7506 0.34759 0.0
H823 H 0.70335 0.71783 0.27195 0.0
H824 H 0.70002 0.72981 0.29733 0.0
H825 H 0.80203 0.79523 0.32009 0.0
H826 H 0.72804 0.81158 0.38737 0.0
H827 H 0.74123 0.8088 0.36178 0.0
C828 C 0.00173 0.75184 0.61413 0.0
C829 C 0.03887 0.76993 0.60916 0.0
C830 C 0.99392 0.75221 0.62869 0.0
C831 C 0.03516 0.75919 0.66403 0.0
H832 H 0.95138 0.76863 0.67761 0.0
C833 C 0.00134 0.75065 0.72418 0.0
C834 C 0.96353 0.7299 0.72823 0.0
C835 C 0.01134 0.76017 0.70984 0.0
C836 C 0.97466 0.7656 0.67398 0.0
H837 H 0.09694 0.80353 0.61552 0.0
H838 H 0.08325 0.80398 0.6411 0.0
H839 H 0.96813 0.77797 0.65217 0.0
H840 H 0.90648 0.70371 0.72046 0.0
H841 H 0.92392 0.71955 0.69525 0.0
H842 H 0.04114 0.7457 0.68564 0.0
C843 C 0.06022 0.78939 0.63367 0.0
C844 C 0.98434 0.7711 0.65942 0.0
C845 C 0.06806 0.7893 0.61903 0.0
C846 C 0.93584 0.71977 0.71766 0.0
C847 C 0.94589 0.72902 0.70323 0.0
C848 C 0.02537 0.75347 0.67855 0.0
C849 C 0.02305 0.77045 0.63866 0.0
C850 C 0.01452 0.76766 0.65427 0.0
C851 C 0.98382 0.74884 0.69912 0.0
C852 C 0.99484 0.75635 0.68371 0.0
H853 H 0.97857 0.73675 0.6068 0.0
H854 H 0.96504 0.73702 0.63219 0.0
H855 H 0.05812 0.75568 0.66037 0.0
H856 H 0.02338 0.75931 0.73209 0.0
H857 H 0.04078 0.77621 0.70715 0.0
C858 C 0.20701 0.92763 0.0512 0.0
C859 C 0.22726 0.95661 0.06105 0.0
C860 C 0.20623 0.9357 0.03663 0.0
C861 C 0.22467 0.01213 0.01115 0.0
H862 H 0.24955 0.9556 0.98459 0.0
C863 C 0.27753 0.06247 0.95324 0.0
C864 C 0.26765 0.03519 0.94252 0.0
C865 C 0.26765 0.05188 0.96758 0.0
C866 C 0.24189 0.9713 0.99178 0.0
H867 H 0.26109 0.01682 0.06349 0.0
H868 H 0.2596 0.03077 0.03822 0.0
H869 H 0.2393 0.9379 0.00978 0.0
H870 H 0.23793 0.97553 0.93829 0.0
H871 H 0.21989 0.95719 0.96308 0.0
H872 H 0.22759 0.04578 0.99314 0.0
C873 C 0.24429 0.00187 0.04168 0.0
C874 C 0.23601 0.96109 0.00625 0.0
C875 C 0.24536 0.99381 0.05617 0.0
C876 C 0.24644 0.99726 0.94633 0.0
C877 C 0.23626 0.98671 0.96058 0.0
C878 C 0.23031 0.02223 0.99664 0.0
C879 C 0.22532 0.97292 0.0317 0.0
C880 C 0.22781 0.98166 0.01613 0.0
C881 C 0.2474 0.01381 0.97145 0.0
C882 C 0.23942 0.00219 0.98679 0.0
H883 H 0.19275 0.89871 0.05465 0.0
H884 H 0.19111 0.91282 0.02919 0.0
H885 H 0.21804 0.02832 0.01851 0.0
H886 H 0.29392 0.09192 0.95062 0.0
H887 H 0.277 0.07353 0.97569 0.0
loop_
_geom_bond_atom_site_label_1
_geom_bond_atom_site_label_2
_geom_bond_distance
_geom_bond_site_symmetry_2
_ccdc_geom_bond_type
O0 Cd1 2.223 . S
O0 C8 1.315 . S
Cd1 O0 2.223 . S
Cd1 O4 2.297 . S
Cd1 O5 2.439 . S
Cd1 O11 2.240 . S
Cd2 O3 2.240 . S
Cd2 O10 2.223 . S
Cd2 O12 2.297 . S
Cd2 O13 2.439 . S
O3 Cd2 2.240 . S
O3 C8 1.279 . S
O4 Cd1 2.297 . S
O4 C6 1.247 . S
O5 Cd1 2.439 . S
O5 C6 1.208 . S
C6 O4 1.247 . S
C6 O5 1.208 . S
C7 O12 1.247 . S
C7 O13 1.208 . S
C8 O0 1.315 . S
C8 O3 1.279 . S
C9 O10 1.315 . S
C9 O11 1.279 . S
O10 Cd2 2.223 . S
O10 C9 1.315 . S
O11 Cd1 2.240 . S
O11 C9 1.279 . S
O12 Cd2 2.297 . S
O12 C7 1.247 . S
O13 Cd2 2.439 . S
O13 C7 1.208 . S
O14 Cd15 2.223 . S
O14 C22 1.315 1_455 S
Cd15 O14 2.223 . S
Cd15 O18 2.297 1_455 S
Cd15 O19 2.439 1_455 S
Cd15 O25 2.240 1_455 S
Cd16 O17 2.240 . S
Cd16 O24 2.223 . S
Cd16 O26 2.297 . S
Cd16 O27 2.439 . S
O17 Cd16 2.240 . S
O17 C22 1.279 . S
O18 Cd15 2.297 1_655 S
O18 C20 1.247 . S
O19 Cd15 2.439 1_655 S
O19 C20 1.208 . S
C20 O18 1.247 . S
C20 O19 1.208 . S
C21 O26 1.247 . S
C21 O27 1.208 . S
C22 O14 1.315 1_655 S
C22 O17 1.279 . S
C23 O24 1.315 1_455 S
C23 O25 1.279 1_455 S
O24 Cd16 2.223 . S
O24 C23 1.315 1_655 S
O25 Cd15 2.240 1_655 S
O25 C23 1.279 1_655 S
O26 Cd16 2.297 . S
O26 C21 1.247 . S
O27 Cd16 2.439 . S
O27 C21 1.208 . S
O28 Cd29 2.223 . S
O28 C36 1.315 1_545 S
Cd29 O28 2.223 . S
Cd29 O32 2.297 1_545 S
Cd29 O33 2.439 1_545 S
Cd29 O39 2.240 1_545 S
Cd30 O31 2.240 . S
Cd30 O38 2.223 . S
Cd30 O40 2.297 . S
Cd30 O41 2.439 . S
O31 Cd30 2.240 . S
O31 C36 1.279 . S
O32 Cd29 2.297 1_565 S
O32 C34 1.247 . S
O33 Cd29 2.439 1_565 S
O33 C34 1.208 . S
C34 O32 1.247 . S
C34 O33 1.208 . S
C35 O40 1.247 . S
C35 O41 1.208 . S
C36 O28 1.315 1_565 S
C36 O31 1.279 . S
C37 O38 1.315 1_545 S
C37 O39 1.279 1_545 S
O38 Cd30 2.223 . S
O38 C37 1.315 1_565 S
O39 Cd29 2.240 1_565 S
O39 C37 1.279 1_565 S
O40 Cd30 2.297 . S
O40 C35 1.247 . S
O41 Cd30 2.439 . S
O41 C35 1.208 . S
O42 Cd43 2.223 . S
O42 C50 1.315 . S
Cd43 O42 2.223 . S
Cd43 O46 2.297 . S
Cd43 O47 2.439 . S
Cd43 O53 2.240 . S
Cd44 O45 2.240 . S
Cd44 O52 2.223 . S
Cd44 O54 2.297 . S
Cd44 O55 2.439 . S
O45 Cd44 2.240 . S
O45 C50 1.279 . S
O46 Cd43 2.297 . S
O46 C48 1.247 . S
O47 Cd43 2.439 . S
O47 C48 1.208 . S
C48 O46 1.247 . S
C48 O47 1.208 . S
C49 O54 1.247 . S
C49 O55 1.208 . S
C50 O42 1.315 . S
C50 O45 1.279 . S
C51 O52 1.315 . S
C51 O53 1.279 . S
O52 Cd44 2.223 . S
O52 C51 1.315 . S
O53 Cd43 2.240 . S
O53 C51 1.279 . S
O54 Cd44 2.297 . S
O54 C49 1.247 . S
O55 Cd44 2.439 . S
O55 C49 1.208 . S
O56 Cd57 2.223 . S
O56 C64 1.315 1_655 S
Cd57 O56 2.223 . S
Cd57 O60 2.297 1_655 S
Cd57 O61 2.439 1_655 S
Cd57 O67 2.240 1_655 S
Cd58 O59 2.240 . S
Cd58 O66 2.223 . S
Cd58 O68 2.297 . S
Cd58 O69 2.439 . S
O59 Cd58 2.240 . S
O59 C64 1.279 . S
O60 Cd57 2.297 1_455 S
O60 C62 1.247 . S
O61 Cd57 2.439 1_455 S
O61 C62 1.208 . S
C62 O60 1.247 . S
C62 O61 1.208 . S
C63 O68 1.247 . S
C63 O69 1.208 . S
C64 O56 1.315 1_455 S
C64 O59 1.279 . S
C65 O66 1.315 1_655 S
C65 O67 1.279 1_655 S
O66 Cd58 2.223 . S
O66 C65 1.315 1_455 S
O67 Cd57 2.240 1_455 S
O67 C65 1.279 1_455 S
O68 Cd58 2.297 . S
O68 C63 1.247 . S
O69 Cd58 2.439 . S
O69 C63 1.208 . S
O70 Cd71 2.223 . S
O70 C78 1.315 1_565 S
Cd71 O70 2.223 . S
Cd71 O74 2.297 1_565 S
Cd71 O75 2.439 1_565 S
Cd71 O81 2.240 1_565 S
Cd72 O73 2.240 . S
Cd72 O80 2.223 . S
Cd72 O82 2.297 . S
Cd72 O83 2.439 . S
O73 Cd72 2.240 . S
O73 C78 1.279 . S
O74 Cd71 2.297 1_545 S
O74 C76 1.247 . S
O75 Cd71 2.439 1_545 S
O75 C76 1.208 . S
C76 O74 1.247 . S
C76 O75 1.208 . S
C77 O82 1.247 . S
C77 O83 1.208 . S
C78 O70 1.315 1_545 S
C78 O73 1.279 . S
C79 O80 1.315 1_565 S
C79 O81 1.279 1_565 S
O80 Cd72 2.223 . S
O80 C79 1.315 1_545 S
O81 Cd71 2.240 1_545 S
O81 C79 1.279 1_545 S
O82 Cd72 2.297 . S
O82 C77 1.247 . S
O83 Cd72 2.439 . S
O83 C77 1.208 . S
O84 Cd85 2.223 . S
O84 C92 1.315 . S
Cd85 O84 2.223 . S
Cd85 O88 2.297 . S
Cd85 O89 2.439 . S
Cd85 O95 2.240 . S
Cd86 O87 2.240 . S
Cd86 O94 2.223 . S
Cd86 O96 2.297 . S
Cd86 O97 2.439 . S
O87 Cd86 2.240 . S
O87 C92 1.279 . S
O88 Cd85 2.297 . S
O88 C90 1.247 . S
O89 Cd85 2.439 . S
O89 C90 1.208 . S
C90 O88 1.247 . S
C90 O89 1.208 . S
C91 O96 1.247 . S
C91 O97 1.208 . S
C92 O84 1.315 . S
C92 O87 1.279 . S
C93 O94 1.315 . S
C93 O95 1.279 . S
O94 Cd86 2.223 . S
O94 C93 1.315 . S
O95 Cd85 2.240 . S
O95 C93 1.279 . S
O96 Cd86 2.297 . S
O96 C91 1.247 . S
O97 Cd86 2.439 . S
O97 C91 1.208 . S
O98 Cd99 2.223 . S
O98 C106 1.315 1_455 S
Cd99 O98 2.223 . S
Cd99 O102 2.297 1_455 S
Cd99 O103 2.439 1_455 S
Cd99 O109 2.240 1_455 S
Cd100 O101 2.240 . S
Cd100 O108 2.223 . S
Cd100 O110 2.297 . S
Cd100 O111 2.439 . S
O101 Cd100 2.240 . S
O101 C106 1.279 . S
O102 Cd99 2.297 1_655 S
O102 C104 1.247 . S
O103 Cd99 2.439 1_655 S
O103 C104 1.208 . S
C104 O102 1.247 . S
C104 O103 1.208 . S
C105 O110 1.247 . S
C105 O111 1.208 . S
C106 O98 1.315 1_655 S
C106 O101 1.279 . S
C107 O108 1.315 1_455 S
C107 O109 1.279 1_455 S
O108 Cd100 2.223 . S
O108 C107 1.315 1_655 S
O109 Cd99 2.240 1_655 S
O109 C107 1.279 1_655 S
O110 Cd100 2.297 . S
O110 C105 1.247 . S
O111 Cd100 2.439 . S
O111 C105 1.208 . S
O112 Cd113 2.223 . S
O112 C120 1.315 1_545 S
Cd113 O112 2.223 . S
Cd113 O116 2.297 1_545 S
Cd113 O117 2.439 1_545 S
Cd113 O123 2.240 1_545 S
Cd114 O115 2.240 . S
Cd114 O122 2.223 . S
Cd114 O124 2.297 . S
Cd114 O125 2.439 . S
O115 Cd114 2.240 . S
O115 C120 1.279 . S
O116 Cd113 2.297 1_565 S
O116 C118 1.247 . S
O117 Cd113 2.439 1_565 S
O117 C118 1.208 . S
C118 O116 1.247 . S
C118 O117 1.208 . S
C119 O124 1.247 . S
C119 O125 1.208 . S
C120 O112 1.315 1_565 S
C120 O115 1.279 . S
C121 O122 1.315 1_545 S
C121 O123 1.279 1_545 S
O122 Cd114 2.223 . S
O122 C121 1.315 1_565 S
O123 Cd113 2.240 1_565 S
O123 C121 1.279 1_565 S
O124 Cd114 2.297 . S
O124 C119 1.247 . S
O125 Cd114 2.439 . S
O125 C119 1.208 . S
O126 Cd127 2.223 . S
O126 C134 1.315 . S
Cd127 O126 2.223 . S
Cd127 O130 2.297 . S
Cd127 O131 2.439 . S
Cd127 O137 2.240 . S
Cd128 O129 2.240 . S
Cd128 O136 2.223 . S
Cd128 O138 2.297 . S
Cd128 O139 2.439 . S
O129 Cd128 2.240 . S
O129 C134 1.279 . S
O130 Cd127 2.297 . S
O130 C132 1.247 . S
O131 Cd127 2.439 . S
O131 C132 1.208 . S
C132 O130 1.247 . S
C132 O131 1.208 . S
C133 O138 1.247 . S
C133 O139 1.208 . S
C134 O126 1.315 . S
C134 O129 1.279 . S
C135 O136 1.315 . S
C135 O137 1.279 . S
O136 Cd128 2.223 . S
O136 C135 1.315 . S
O137 Cd127 2.240 . S
O137 C135 1.279 . S
O138 Cd128 2.297 . S
O138 C133 1.247 . S
O139 Cd128 2.439 . S
O139 C133 1.208 . S
O140 Cd141 2.223 . S
O140 C148 1.315 1_655 S
Cd141 O140 2.223 . S
Cd141 O144 2.297 1_655 S
Cd141 O145 2.439 1_655 S
Cd141 O151 2.240 1_655 S
Cd142 O143 2.240 . S
Cd142 O150 2.223 . S
Cd142 O152 2.297 . S
Cd142 O153 2.439 . S
O143 Cd142 2.240 . S
O143 C148 1.279 . S
O144 Cd141 2.297 1_455 S
O144 C146 1.247 . S
O145 Cd141 2.439 1_455 S
O145 C146 1.208 . S
C146 O144 1.247 . S
C146 O145 1.208 . S
C147 O152 1.247 . S
C147 O153 1.208 . S
C148 O140 1.315 1_455 S
C148 O143 1.279 . S
C149 O150 1.315 1_655 S
C149 O151 1.279 1_655 S
O150 Cd142 2.223 . S
O150 C149 1.315 1_455 S
O151 Cd141 2.240 1_455 S
O151 C149 1.279 1_455 S
O152 Cd142 2.297 . S
O152 C147 1.247 . S
O153 Cd142 2.439 . S
O153 C147 1.208 . S
O154 Cd155 2.223 . S
O154 C162 1.315 1_565 S
Cd155 O154 2.223 . S
Cd155 O158 2.297 1_565 S
Cd155 O159 2.439 1_565 S
Cd155 O165 2.240 1_565 S
Cd156 O157 2.240 . S
Cd156 O164 2.223 . S
Cd156 O166 2.297 . S
Cd156 O167 2.439 . S
O157 Cd156 2.240 . S
O157 C162 1.279 . S
O158 Cd155 2.297 1_545 S
O158 C160 1.247 . S
O159 Cd155 2.439 1_545 S
O159 C160 1.208 . S
C160 O158 1.247 . S
C160 O159 1.208 . S
C161 O166 1.247 . S
C161 O167 1.208 . S
C162 O154 1.315 1_545 S
C162 O157 1.279 . S
C163 O164 1.315 1_565 S
C163 O165 1.279 1_565 S
O164 Cd156 2.223 . S
O164 C163 1.315 1_545 S
O165 Cd155 2.240 1_545 S
O165 C163 1.279 1_545 S
O166 Cd156 2.297 . S
O166 C161 1.247 . S
O167 Cd156 2.439 . S
O167 C161 1.208 . S
C168 C169 1.349 . S
C168 C170 1.327 . S
C168 H193 0.950 . S
C169 C168 1.349 . S
C169 C185 1.349 . S
C170 C168 1.327 . S
C170 C189 1.429 . S
C170 H194 0.950 . S
C171 C188 1.574 1_655 S
C171 C190 1.368 . S
C171 H195 0.949 . S
H172 C176 0.949 . S
C173 C174 1.349 . S
C173 C175 1.327 . S
C173 H196 0.950 . S
C174 C173 1.349 . S
C174 C186 1.349 . S
C175 C173 1.327 . S
C175 C191 1.429 . S
C175 H197 0.950 . S
C176 H172 0.949 . S
C176 C184 1.574 1_455 S
C176 C192 1.368 . S
H177 C185 0.950 . S
H178 C183 0.950 . S
H179 C184 0.949 . S
H180 C186 0.950 . S
H181 C187 0.950 . S
H182 C188 0.949 . S
C183 H178 0.950 . S
C183 C185 1.327 . S
C183 C189 1.429 . S
C184 C176 1.574 1_655 S
C184 H179 0.949 . S
C184 C190 1.368 . S
C185 C169 1.349 . S
C185 H177 0.950 . S
C185 C183 1.327 . S
C186 C174 1.349 . S
C186 H180 0.950 . S
C186 C187 1.327 . S
C187 H181 0.950 . S
C187 C186 1.327 . S
C187 C191 1.429 . S
C188 C171 1.574 1_455 S
C188 H182 0.949 . S
C188 C192 1.368 . S
C189 C170 1.429 . S
C189 C183 1.429 . S
C189 C190 1.523 . S
C190 C171 1.368 . S
C190 C184 1.368 . S
C190 C189 1.523 . S
C191 C175 1.429 . S
C191 C187 1.429 . S
C191 C192 1.523 . S
C192 C176 1.368 . S
C192 C188 1.368 . S
C192 C191 1.523 . S
H193 C168 0.950 . S
H194 C170 0.950 . S
H195 C171 0.949 . S
H196 C173 0.950 . S
H197 C175 0.950 . S
C198 C199 1.349 . S
C198 C200 1.327 . S
C198 H223 0.950 . S
C199 C198 1.349 . S
C199 C215 1.349 . S
C200 C198 1.327 . S
C200 C219 1.429 . S
C200 H224 0.950 . S
C201 C218 1.574 1_545 S
C201 C220 1.368 . S
C201 H225 0.949 . S
H202 C206 0.949 . S
C203 C204 1.349 . S
C203 C205 1.327 . S
C203 H226 0.950 . S
C204 C203 1.349 . S
C204 C216 1.349 . S
C205 C203 1.327 . S
C205 C221 1.429 . S
C205 H227 0.950 . S
C206 H202 0.949 . S
C206 C214 1.574 1_565 S
C206 C222 1.368 . S
H207 C215 0.950 . S
H208 C213 0.950 . S
H209 C214 0.949 . S
H210 C216 0.950 . S
H211 C217 0.950 . S
H212 C218 0.949 . S
C213 H208 0.950 . S
C213 C215 1.327 . S
C213 C219 1.429 . S
C214 C206 1.574 1_545 S
C214 H209 0.949 . S
C214 C220 1.368 . S
C215 C199 1.349 . S
C215 H207 0.950 . S
C215 C213 1.327 . S
C216 C204 1.349 . S
C216 H210 0.950 . S
C216 C217 1.327 . S
C217 H211 0.950 . S
C217 C216 1.327 . S
C217 C221 1.429 . S
C218 C201 1.574 1_565 S
C218 H212 0.949 . S
C218 C222 1.368 . S
C219 C200 1.429 . S
C219 C213 1.429 . S
C219 C220 1.523 . S
C220 C201 1.368 . S
C220 C214 1.368 . S
C220 C219 1.523 . S
C221 C205 1.429 . S
C221 C217 1.429 . S
C221 C222 1.523 . S
C222 C206 1.368 . S
C222 C218 1.368 . S
C222 C221 1.523 . S
H223 C198 0.950 . S
H224 C200 0.950 . S
H225 C201 0.949 . S
H226 C203 0.950 . S
H227 C205 0.950 . S
C228 C229 1.349 . S
C228 C230 1.327 . S
C228 H253 0.950 . S
C229 C228 1.349 . S
C229 C245 1.349 . S
C230 C228 1.327 . S
C230 C249 1.429 . S
C230 H254 0.950 . S
C231 C248 1.574 . S
C231 C250 1.368 . S
C231 H255 0.949 . S
H232 C236 0.949 . S
C233 C234 1.349 . S
C233 C235 1.327 . S
C233 H256 0.950 . S
C234 C233 1.349 . S
C234 C246 1.349 . S
C235 C233 1.327 . S
C235 C251 1.429 . S
C235 H257 0.950 . S
C236 H232 0.949 . S
C236 C244 1.574 . S
C236 C252 1.368 . S
H237 C245 0.950 . S
H238 C243 0.950 . S
H239 C244 0.949 . S
H240 C246 0.950 . S
H241 C247 0.950 . S
H242 C248 0.949 . S
C243 H238 0.950 . S
C243 C245 1.327 . S
C243 C249 1.429 . S
C244 C236 1.574 . S
C244 H239 0.949 . S
C244 C250 1.368 . S
C245 C229 1.349 . S
C245 H237 0.950 . S
C245 C243 1.327 . S
C246 C234 1.349 . S
C246 H240 0.950 . S
C246 C247 1.327 . S
C247 H241 0.950 . S
C247 C246 1.327 . S
C247 C251 1.429 . S
C248 C231 1.574 . S
C248 H242 0.949 . S
C248 C252 1.368 . S
C249 C230 1.429 . S
C249 C243 1.429 . S
C249 C250 1.523 . S
C250 C231 1.368 . S
C250 C244 1.368 . S
C250 C249 1.523 . S
C251 C235 1.429 . S
C251 C247 1.429 . S
C251 C252 1.523 . S
C252 C236 1.368 . S
C252 C248 1.368 . S
C252 C251 1.523 . S
H253 C228 0.950 . S
H254 C230 0.950 . S
H255 C231 0.949 . S
H256 C233 0.950 . S
H257 C235 0.950 . S
C258 C259 1.349 . S
C258 C260 1.327 . S
C258 H283 0.950 . S
C259 C258 1.349 . S
C259 C275 1.349 . S
C260 C258 1.327 . S
C260 C279 1.429 . S
C260 H284 0.950 . S
C261 C278 1.574 1_655 S
C261 C280 1.368 . S
C261 H285 0.949 . S
H262 C266 0.949 . S
C263 C264 1.349 . S
C263 C265 1.327 . S
C263 H286 0.950 . S
C264 C263 1.349 . S
C264 C276 1.349 . S
C265 C263 1.327 . S
C265 C281 1.429 . S
C265 H287 0.950 . S
C266 H262 0.949 . S
C266 C274 1.574 1_455 S
C266 C282 1.368 . S
H267 C275 0.950 . S
H268 C273 0.950 . S
H269 C274 0.949 . S
H270 C276 0.950 . S
H271 C277 0.950 . S
H272 C278 0.949 . S
C273 H268 0.950 . S
C273 C275 1.327 . S
C273 C279 1.429 . S
C274 C266 1.574 1_655 S
C274 H269 0.949 . S
C274 C280 1.368 . S
C275 C259 1.349 . S
C275 H267 0.950 . S
C275 C273 1.327 . S
C276 C264 1.349 . S
C276 H270 0.950 . S
C276 C277 1.327 . S
C277 H271 0.950 . S
C277 C276 1.327 . S
C277 C281 1.429 . S
C278 C261 1.574 1_455 S
C278 H272 0.949 . S
C278 C282 1.368 . S
C279 C260 1.429 . S
C279 C273 1.429 . S
C279 C280 1.523 . S
C280 C261 1.368 . S
C280 C274 1.368 . S
C280 C279 1.523 . S
C281 C265 1.429 . S
C281 C277 1.429 . S
C281 C282 1.523 . S
C282 C266 1.368 . S
C282 C278 1.368 . S
C282 C281 1.523 . S
H283 C258 0.950 . S
H284 C260 0.950 . S
H285 C261 0.949 . S
H286 C263 0.950 . S
H287 C265 0.950 . S
C288 C289 1.349 . S
C288 C290 1.327 . S
C288 H313 0.950 . S
C289 C288 1.349 . S
C289 C305 1.349 . S
C290 C288 1.327 . S
C290 C309 1.429 . S
C290 H314 0.950 . S
C291 C308 1.574 1_545 S
C291 C310 1.368 . S
C291 H315 0.949 . S
H292 C296 0.949 . S
C293 C294 1.349 . S
C293 C295 1.327 . S
C293 H316 0.950 . S
C294 C293 1.349 . S
C294 C306 1.349 . S
C295 C293 1.327 . S
C295 C311 1.429 . S
C295 H317 0.950 . S
C296 H292 0.949 . S
C296 C304 1.574 1_565 S
C296 C312 1.368 . S
H297 C305 0.950 . S
H298 C303 0.950 . S
H299 C304 0.949 . S
H300 C306 0.950 . S
H301 C307 0.950 . S
H302 C308 0.949 . S
C303 H298 0.950 . S
C303 C305 1.327 . S
C303 C309 1.429 . S
C304 C296 1.574 1_545 S
C304 H299 0.949 . S
C304 C310 1.368 . S
C305 C289 1.349 . S
C305 H297 0.950 . S
C305 C303 1.327 . S
C306 C294 1.349 . S
C306 H300 0.950 . S
C306 C307 1.327 . S
C307 H301 0.950 . S
C307 C306 1.327 . S
C307 C311 1.429 . S
C308 C291 1.574 1_565 S
C308 H302 0.949 . S
C308 C312 1.368 . S
C309 C290 1.429 . S
C309 C303 1.429 . S
C309 C310 1.523 . S
C310 C291 1.368 . S
C310 C304 1.368 . S
C310 C309 1.523 . S
C311 C295 1.429 . S
C311 C307 1.429 . S
C311 C312 1.523 . S
C312 C296 1.368 . S
C312 C308 1.368 . S
C312 C311 1.523 . S
H313 C288 0.950 . S
H314 C290 0.950 . S
H315 C291 0.949 . S
H316 C293 0.950 . S
H317 C295 0.950 . S
C318 C319 1.349 . S
C318 C320 1.327 . S
C318 H343 0.950 . S
C319 C318 1.349 . S
C319 C335 1.349 . S
C320 C318 1.327 . S
C320 C339 1.429 . S
C320 H344 0.950 . S
C321 C338 1.574 . S
C321 C340 1.368 . S
C321 H345 0.949 . S
H322 C326 0.949 . S
C323 C324 1.349 . S
C323 C325 1.327 . S
C323 H346 0.950 . S
C324 C323 1.349 . S
C324 C336 1.349 . S
C325 C323 1.327 . S
C325 C341 1.429 . S
C325 H347 0.950 . S
C326 H322 0.949 . S
C326 C334 1.574 . S
C326 C342 1.368 . S
H327 C335 0.950 . S
H328 C333 0.950 . S
H329 C334 0.949 . S
H330 C336 0.950 . S
H331 C337 0.950 . S
H332 C338 0.949 . S
C333 H328 0.950 . S
C333 C335 1.327 . S
C333 C339 1.429 . S
C334 C326 1.574 . S
C334 H329 0.949 . S
C334 C340 1.368 . S
C335 C319 1.349 . S
C335 H327 0.950 . S
C335 C333 1.327 . S
C336 C324 1.349 . S
C336 H330 0.950 . S
C336 C337 1.327 . S
C337 H331 0.950 . S
C337 C336 1.327 . S
C337 C341 1.429 . S
C338 C321 1.574 . S
C338 H332 0.949 . S
C338 C342 1.368 . S
C339 C320 1.429 . S
C339 C333 1.429 . S
C339 C340 1.523 . S
C340 C321 1.368 . S
C340 C334 1.368 . S
C340 C339 1.523 . S
C341 C325 1.429 . S
C341 C337 1.429 . S
C341 C342 1.523 . S
C342 C326 1.368 . S
C342 C338 1.368 . S
C342 C341 1.523 . S
H343 C318 0.950 . S
H344 C320 0.950 . S
H345 C321 0.949 . S
H346 C323 0.950 . S
H347 C325 0.950 . S
C348 C349 1.349 . S
C348 C350 1.327 . S
C348 H373 0.950 . S
C349 C348 1.349 . S
C349 C365 1.349 . S
C350 C348 1.327 . S
C350 C369 1.429 . S
C350 H374 0.950 . S
C351 C368 1.574 . S
C351 C370 1.368 . S
C351 H375 0.949 . S
H352 C356 0.949 . S
C353 C354 1.349 . S
C353 C355 1.327 . S
C353 H376 0.950 . S
C354 C353 1.349 . S
C354 C366 1.349 . S
C355 C353 1.327 . S
C355 C371 1.429 . S
C355 H377 0.950 . S
C356 H352 0.949 . S
C356 C364 1.574 . S
C356 C372 1.368 . S
H357 C365 0.950 . S
H358 C363 0.950 . S
H359 C364 0.949 . S
H360 C366 0.950 . S
H361 C367 0.950 . S
H362 C368 0.949 . S
C363 H358 0.950 . S
C363 C365 1.327 . S
C363 C369 1.429 . S
C364 C356 1.574 . S
C364 H359 0.949 . S
C364 C370 1.368 . S
C365 C349 1.349 . S
C365 H357 0.950 . S
C365 C363 1.327 . S
C366 C354 1.349 . S
C366 H360 0.950 . S
C366 C367 1.327 . S
C367 H361 0.950 . S
C367 C366 1.327 . S
C367 C371 1.429 . S
C368 C351 1.574 . S
C368 H362 0.949 . S
C368 C372 1.368 . S
C369 C350 1.429 . S
C369 C363 1.429 . S
C369 C370 1.523 . S
C370 C351 1.368 . S
C370 C364 1.368 . S
C370 C369 1.523 . S
C371 C355 1.429 . S
C371 C367 1.429 . S
C371 C372 1.523 . S
C372 C356 1.368 . S
C372 C368 1.368 . S
C372 C371 1.523 . S
H373 C348 0.950 . S
H374 C350 0.950 . S
H375 C351 0.949 . S
H376 C353 0.950 . S
H377 C355 0.950 . S
C378 C379 1.349 . S
C378 C380 1.327 1_455 S
C378 H403 0.950 1_455 S
C379 C378 1.349 . S
C379 C395 1.349 . S
C380 C378 1.327 1_655 S
C380 C399 1.429 1_655 S
C380 H404 0.950 . S
C381 C398 1.574 . S
C381 C400 1.368 . S
C381 H405 0.949 . S
H382 C386 0.949 . S
C383 C384 1.349 . S
C383 C385 1.327 1_655 S
C383 H406 0.950 1_655 S
C384 C383 1.349 . S
C384 C396 1.349 . S
C385 C383 1.327 1_455 S
C385 C401 1.429 1_455 S
C385 H407 0.950 . S
C386 H382 0.949 . S
C386 C394 1.574 . S
C386 C402 1.368 . S
H387 C395 0.950 . S
H388 C393 0.950 . S
H389 C394 0.949 . S
H390 C396 0.950 . S
H391 C397 0.950 . S
H392 C398 0.949 . S
C393 H388 0.950 . S
C393 C395 1.327 . S
C393 C399 1.429 . S
C394 C386 1.574 . S
C394 H389 0.949 . S
C394 C400 1.368 1_655 S
C395 C379 1.349 . S
C395 H387 0.950 . S
C395 C393 1.327 . S
C396 C384 1.349 . S
C396 H390 0.950 . S
C396 C397 1.327 . S
C397 H391 0.950 . S
C397 C396 1.327 . S
C397 C401 1.429 . S
C398 C381 1.574 . S
C398 H392 0.949 . S
C398 C402 1.368 1_455 S
C399 C380 1.429 1_455 S
C399 C393 1.429 . S
C399 C400 1.523 . S
C400 C381 1.368 . S
C400 C394 1.368 1_455 S
C400 C399 1.523 . S
C401 C385 1.429 1_655 S
C401 C397 1.429 . S
C401 C402 1.523 . S
C402 C386 1.368 . S
C402 C398 1.368 1_655 S
C402 C401 1.523 . S
H403 C378 0.950 1_655 S
H404 C380 0.950 . S
H405 C381 0.949 . S
H406 C383 0.950 1_455 S
H407 C385 0.950 . S
C408 C409 1.349 . S
C408 C410 1.327 1_545 S
C408 H433 0.950 1_545 S
C409 C408 1.349 . S
C409 C425 1.349 . S
C410 C408 1.327 1_565 S
C410 C429 1.429 1_565 S
C410 H434 0.950 . S
C411 C428 1.574 . S
C411 C430 1.368 . S
C411 H435 0.949 . S
H412 C416 0.949 . S
C413 C414 1.349 . S
C413 C415 1.327 1_565 S
C413 H436 0.950 1_565 S
C414 C413 1.349 . S
C414 C426 1.349 . S
C415 C413 1.327 1_545 S
C415 C431 1.429 1_545 S
C415 H437 0.950 . S
C416 H412 0.949 . S
C416 C424 1.574 . S
C416 C432 1.368 . S
H417 C425 0.950 . S
H418 C423 0.950 . S
H419 C424 0.949 . S
H420 C426 0.950 . S
H421 C427 0.950 . S
H422 C428 0.949 . S
C423 H418 0.950 . S
C423 C425 1.327 . S
C423 C429 1.429 . S
C424 C416 1.574 . S
C424 H419 0.949 . S
C424 C430 1.368 1_565 S
C425 C409 1.349 . S
C425 H417 0.950 . S
C425 C423 1.327 . S
C426 C414 1.349 . S
C426 H420 0.950 . S
C426 C427 1.327 . S
C427 H421 0.950 . S
C427 C426 1.327 . S
C427 C431 1.429 . S
C428 C411 1.574 . S
C428 H422 0.949 . S
C428 C432 1.368 1_545 S
C429 C410 1.429 1_545 S
C429 C423 1.429 . S
C429 C430 1.523 . S
C430 C411 1.368 . S
C430 C424 1.368 1_545 S
C430 C429 1.523 . S
C431 C415 1.429 1_565 S
C431 C427 1.429 . S
C431 C432 1.523 . S
C432 C416 1.368 . S
C432 C428 1.368 1_565 S
C432 C431 1.523 . S
H433 C408 0.950 1_565 S
H434 C410 0.950 . S
H435 C411 0.949 . S
H436 C413 0.950 1_545 S
H437 C415 0.950 . S
C438 C439 1.349 . S
C438 C440 1.327 . S
C438 H463 0.950 . S
C439 C438 1.349 . S
C439 C455 1.349 . S
C440 C438 1.327 . S
C440 C459 1.429 . S
C440 H464 0.950 . S
C441 C458 1.574 . S
C441 C460 1.368 . S
C441 H465 0.949 . S
H442 C446 0.949 . S
C443 C444 1.349 . S
C443 C445 1.327 . S
C443 H466 0.950 . S
C444 C443 1.349 . S
C444 C456 1.349 . S
C445 C443 1.327 . S
C445 C461 1.429 . S
C445 H467 0.950 . S
C446 H442 0.949 . S
C446 C454 1.574 . S
C446 C462 1.368 . S
H447 C455 0.950 . S
H448 C453 0.950 . S
H449 C454 0.949 . S
H450 C456 0.950 . S
H451 C457 0.950 . S
H452 C458 0.949 . S
C453 H448 0.950 . S
C453 C455 1.327 . S
C453 C459 1.429 . S
C454 C446 1.574 . S
C454 H449 0.949 . S
C454 C460 1.368 . S
C455 C439 1.349 . S
C455 H447 0.950 . S
C455 C453 1.327 . S
C456 C444 1.349 . S
C456 H450 0.950 . S
C456 C457 1.327 . S
C457 H451 0.950 . S
C457 C456 1.327 . S
C457 C461 1.429 . S
C458 C441 1.574 . S
C458 H452 0.949 . S
C458 C462 1.368 . S
C459 C440 1.429 . S
C459 C453 1.429 . S
C459 C460 1.523 . S
C460 C441 1.368 . S
C460 C454 1.368 . S
C460 C459 1.523 . S
C461 C445 1.429 . S
C461 C457 1.429 . S
C461 C462 1.523 . S
C462 C446 1.368 . S
C462 C458 1.368 . S
C462 C461 1.523 . S
H463 C438 0.950 . S
H464 C440 0.950 . S
H465 C441 0.949 . S
H466 C443 0.950 . S
H467 C445 0.950 . S
C468 C469 1.349 . S
C468 C470 1.327 1_655 S
C468 H493 0.950 1_655 S
C469 C468 1.349 . S
C469 C485 1.349 . S
C470 C468 1.327 1_455 S
C470 C489 1.429 1_455 S
C470 H494 0.950 . S
C471 C488 1.574 . S
C471 C490 1.368 . S
C471 H495 0.949 . S
H472 C476 0.949 . S
C473 C474 1.349 . S
C473 C475 1.327 1_455 S
C473 H496 0.950 1_455 S
C474 C473 1.349 . S
C474 C486 1.349 . S
C475 C473 1.327 1_655 S
C475 C491 1.429 1_655 S
C475 H497 0.950 . S
C476 H472 0.949 . S
C476 C484 1.574 . S
C476 C492 1.368 . S
H477 C485 0.950 . S
H478 C483 0.950 . S
H479 C484 0.949 . S
H480 C486 0.950 . S
H481 C487 0.950 . S
H482 C488 0.949 . S
C483 H478 0.950 . S
C483 C485 1.327 . S
C483 C489 1.429 . S
C484 C476 1.574 . S
C484 H479 0.949 . S
C484 C490 1.368 1_455 S
C485 C469 1.349 . S
C485 H477 0.950 . S
C485 C483 1.327 . S
C486 C474 1.349 . S
C486 H480 0.950 . S
C486 C487 1.327 . S
C487 H481 0.950 . S
C487 C486 1.327 . S
C487 C491 1.429 . S
C488 C471 1.574 . S
C488 H482 0.949 . S
C488 C492 1.368 1_655 S
C489 C470 1.429 1_655 S
C489 C483 1.429 . S
C489 C490 1.523 . S
C490 C471 1.368 . S
C490 C484 1.368 1_655 S
C490 C489 1.523 . S
C491 C475 1.429 1_455 S
C491 C487 1.429 . S
C491 C492 1.523 . S
C492 C476 1.368 . S
C492 C488 1.368 1_455 S
C492 C491 1.523 . S
H493 C468 0.950 1_455 S
H494 C470 0.950 . S
H495 C471 0.949 . S
H496 C473 0.950 1_655 S
H497 C475 0.950 . S
C498 C499 1.349 . S
C498 C500 1.327 1_565 S
C498 H523 0.950 1_565 S
C499 C498 1.349 . S
C499 C515 1.349 . S
C500 C498 1.327 1_545 S
C500 C519 1.429 1_545 S
C500 H524 0.950 . S
C501 C518 1.574 . S
C501 C520 1.368 . S
C501 H525 0.949 . S
H502 C506 0.949 . S
C503 C504 1.349 . S
C503 C505 1.327 1_545 S
C503 H526 0.950 1_545 S
C504 C503 1.349 . S
C504 C516 1.349 . S
C505 C503 1.327 1_565 S
C505 C521 1.429 1_565 S
C505 H527 0.950 . S
C506 H502 0.949 . S
C506 C514 1.574 . S
C506 C522 1.368 . S
H507 C515 0.950 . S
H508 C513 0.950 . S
H509 C514 0.949 . S
H510 C516 0.950 . S
H511 C517 0.950 . S
H512 C518 0.949 . S
C513 H508 0.950 . S
C513 C515 1.327 . S
C513 C519 1.429 . S
C514 C506 1.574 . S
C514 H509 0.949 . S
C514 C520 1.368 1_545 S
C515 C499 1.349 . S
C515 H507 0.950 . S
C515 C513 1.327 . S
C516 C504 1.349 . S
C516 H510 0.950 . S
C516 C517 1.327 . S
C517 H511 0.950 . S
C517 C516 1.327 . S
C517 C521 1.429 . S
C518 C501 1.574 . S
C518 H512 0.949 . S
C518 C522 1.368 1_565 S
C519 C500 1.429 1_565 S
C519 C513 1.429 . S
C519 C520 1.523 . S
C520 C501 1.368 . S
C520 C514 1.368 1_565 S
C520 C519 1.523 . S
C521 C505 1.429 1_545 S
C521 C517 1.429 . S
C521 C522 1.523 . S
C522 C506 1.368 . S
C522 C518 1.368 1_545 S
C522 C521 1.523 . S
H523 C498 0.950 1_545 S
H524 C500 0.950 . S
H525 C501 0.949 . S
H526 C503 0.950 1_565 S
H527 C505 0.950 . S
C528 C529 1.349 . S
C528 C530 1.327 . S
C528 H553 0.950 . S
C529 C528 1.349 . S
C529 C545 1.349 . S
C530 C528 1.327 . S
C530 C549 1.429 . S
C530 H554 0.950 . S
C531 C548 1.574 . S
C531 C550 1.368 . S
C531 H555 0.949 . S
H532 C536 0.949 . S
C533 C534 1.349 . S
C533 C535 1.327 . S
C533 H556 0.950 . S
C534 C533 1.349 . S
C534 C546 1.349 . S
C535 C533 1.327 . S
C535 C551 1.429 . S
C535 H557 0.950 . S
C536 H532 0.949 . S
C536 C544 1.574 . S
C536 C552 1.368 . S
H537 C545 0.950 . S
H538 C543 0.950 . S
H539 C544 0.949 . S
H540 C546 0.950 . S
H541 C547 0.950 . S
H542 C548 0.949 . S
C543 H538 0.950 . S
C543 C545 1.327 . S
C543 C549 1.429 . S
C544 C536 1.574 . S
C544 H539 0.949 . S
C544 C550 1.368 . S
C545 C529 1.349 . S
C545 H537 0.950 . S
C545 C543 1.327 . S
C546 C534 1.349 . S
C546 H540 0.950 . S
C546 C547 1.327 . S
C547 H541 0.950 . S
C547 C546 1.327 . S
C547 C551 1.429 . S
C548 C531 1.574 . S
C548 H542 0.949 . S
C548 C552 1.368 . S
C549 C530 1.429 . S
C549 C543 1.429 . S
C549 C550 1.523 . S
C550 C531 1.368 . S
C550 C544 1.368 . S
C550 C549 1.523 . S
C551 C535 1.429 . S
C551 C547 1.429 . S
C551 C552 1.523 . S
C552 C536 1.368 . S
C552 C548 1.368 . S
C552 C551 1.523 . S
H553 C528 0.950 . S
H554 C530 0.950 . S
H555 C531 0.949 . S
H556 C533 0.950 . S
H557 C535 0.950 . S
C558 C559 1.349 . S
C558 C560 1.327 . S
C558 H583 0.950 1_455 S
C559 C558 1.349 . S
C559 C575 1.349 . S
C560 C558 1.327 . S
C560 C579 1.429 . S
C560 H584 0.950 . S
C561 C578 1.574 . S
C561 C580 1.368 . S
C561 H585 0.949 . S
H562 C566 0.949 . S
C563 C564 1.349 . S
C563 C565 1.327 . S
C563 H586 0.950 . S
C564 C563 1.349 . S
C564 C576 1.349 . S
C565 C563 1.327 . S
C565 C581 1.429 . S
C565 H587 0.950 . S
C566 H562 0.949 . S
C566 C574 1.574 . S
C566 C582 1.368 . S
H567 C575 0.950 . S
H568 C573 0.950 . S
H569 C574 0.949 . S
H570 C576 0.950 . S
H571 C577 0.950 . S
H572 C578 0.949 . S
C573 H568 0.950 . S
C573 C575 1.327 . S
C573 C579 1.429 . S
C574 C566 1.574 . S
C574 H569 0.949 . S
C574 C580 1.368 . S
C575 C559 1.349 . S
C575 H567 0.950 . S
C575 C573 1.327 . S
C576 C564 1.349 . S
C576 H570 0.950 . S
C576 C577 1.327 . S
C577 H571 0.950 . S
C577 C576 1.327 . S
C577 C581 1.429 . S
C578 C561 1.574 . S
C578 H572 0.949 . S
C578 C582 1.368 . S
C579 C560 1.429 . S
C579 C573 1.429 . S
C579 C580 1.523 . S
C580 C561 1.368 . S
C580 C574 1.368 . S
C580 C579 1.523 . S
C581 C565 1.429 . S
C581 C577 1.429 . S
C581 C582 1.523 . S
C582 C566 1.368 . S
C582 C578 1.368 . S
C582 C581 1.523 . S
H583 C558 0.950 1_655 S
H584 C560 0.950 . S
H585 C561 0.949 . S
H586 C563 0.950 . S
H587 C565 0.950 . S
C588 C589 1.349 . S
C588 C590 1.327 . S
C588 H613 0.950 . S
C589 C588 1.349 . S
C589 C605 1.349 . S
C590 C588 1.327 . S
C590 C609 1.429 . S
C590 H614 0.950 . S
C591 C608 1.574 . S
C591 C610 1.368 . S
C591 H615 0.949 . S
H592 C596 0.949 . S
C593 C594 1.349 . S
C593 C595 1.327 . S
C593 H616 0.950 1_545 S
C594 C593 1.349 . S
C594 C606 1.349 . S
C595 C593 1.327 . S
C595 C611 1.429 . S
C595 H617 0.950 . S
C596 H592 0.949 . S
C596 C604 1.574 . S
C596 C612 1.368 . S
H597 C605 0.950 . S
H598 C603 0.950 . S
H599 C604 0.949 . S
H600 C606 0.950 . S
H601 C607 0.950 . S
H602 C608 0.949 . S
C603 H598 0.950 . S
C603 C605 1.327 . S
C603 C609 1.429 . S
C604 C596 1.574 . S
C604 H599 0.949 . S
C604 C610 1.368 . S
C605 C589 1.349 . S
C605 H597 0.950 . S
C605 C603 1.327 . S
C606 C594 1.349 . S
C606 H600 0.950 . S
C606 C607 1.327 . S
C607 H601 0.950 . S
C607 C606 1.327 . S
C607 C611 1.429 . S
C608 C591 1.574 . S
C608 H602 0.949 . S
C608 C612 1.368 . S
C609 C590 1.429 . S
C609 C603 1.429 . S
C609 C610 1.523 . S
C610 C591 1.368 . S
C610 C604 1.368 . S
C610 C609 1.523 . S
C611 C595 1.429 . S
C611 C607 1.429 . S
C611 C612 1.523 . S
C612 C596 1.368 . S
C612 C608 1.368 . S
C612 C611 1.523 . S
H613 C588 0.950 . S
H614 C590 0.950 . S
H615 C591 0.949 . S
H616 C593 0.950 1_565 S
H617 C595 0.950 . S
C618 C619 1.349 . S
C618 C620 1.327 . S
C618 H643 0.950 . S
C619 C618 1.349 . S
C619 C635 1.349 . S
C620 C618 1.327 . S
C620 C639 1.429 . S
C620 H644 0.950 . S
C621 C638 1.574 . S
C621 C640 1.368 . S
C621 H645 0.949 . S
H622 C626 0.949 . S
C623 C624 1.349 . S
C623 C625 1.327 . S
C623 H646 0.950 . S
C624 C623 1.349 . S
C624 C636 1.349 . S
C625 C623 1.327 . S
C625 C641 1.429 . S
C625 H647 0.950 . S
C626 H622 0.949 . S
C626 C634 1.574 . S
C626 C642 1.368 . S
H627 C635 0.950 1_545 S
H628 C633 0.950 . S
H629 C634 0.949 . S
H630 C636 0.950 . S
H631 C637 0.950 . S
H632 C638 0.949 . S
C633 H628 0.950 . S
C633 C635 1.327 . S
C633 C639 1.429 . S
C634 C626 1.574 . S
C634 H629 0.949 . S
C634 C640 1.368 . S
C635 C619 1.349 . S
C635 H627 0.950 1_565 S
C635 C633 1.327 . S
C636 C624 1.349 . S
C636 H630 0.950 . S
C636 C637 1.327 . S
C637 H631 0.950 . S
C637 C636 1.327 . S
C637 C641 1.429 . S
C638 C621 1.574 . S
C638 H632 0.949 . S
C638 C642 1.368 . S
C639 C620 1.429 . S
C639 C633 1.429 . S
C639 C640 1.523 . S
C640 C621 1.368 . S
C640 C634 1.368 . S
C640 C639 1.523 . S
C641 C625 1.429 . S
C641 C637 1.429 . S
C641 C642 1.523 . S
C642 C626 1.368 . S
C642 C638 1.368 . S
C642 C641 1.523 . S
H643 C618 0.950 . S
H644 C620 0.950 . S
H645 C621 0.949 . S
H646 C623 0.950 . S
H647 C625 0.950 . S
C648 C649 1.349 . S
C648 C650 1.327 . S
C648 H673 0.950 . S
C649 C648 1.349 . S
C649 C665 1.349 . S
C650 C648 1.327 . S
C650 C669 1.429 . S
C650 H674 0.950 . S
C651 C668 1.574 . S
C651 C670 1.368 . S
C651 H675 0.949 . S
H652 C656 0.949 . S
C653 C654 1.349 . S
C653 C655 1.327 . S
C653 H676 0.950 . S
C654 C653 1.349 . S
C654 C666 1.349 . S
C655 C653 1.327 . S
C655 C671 1.429 . S
C655 H677 0.950 . S
C656 H652 0.949 . S
C656 C664 1.574 . S
C656 C672 1.368 . S
H657 C665 0.950 . S
H658 C663 0.950 . S
H659 C664 0.949 . S
H660 C666 0.950 . S
H661 C667 0.950 . S
H662 C668 0.949 . S
C663 H658 0.950 . S
C663 C665 1.327 . S
C663 C669 1.429 . S
C664 C656 1.574 . S
C664 H659 0.949 . S
C664 C670 1.368 . S
C665 C649 1.349 . S
C665 H657 0.950 . S
C665 C663 1.327 . S
C666 C654 1.349 . S
C666 H660 0.950 . S
C666 C667 1.327 . S
C667 H661 0.950 . S
C667 C666 1.327 . S
C667 C671 1.429 . S
C668 C651 1.574 . S
C668 H662 0.949 . S
C668 C672 1.368 . S
C669 C650 1.429 . S
C669 C663 1.429 . S
C669 C670 1.523 . S
C670 C651 1.368 . S
C670 C664 1.368 . S
C670 C669 1.523 . S
C671 C655 1.429 . S
C671 C667 1.429 . S
C671 C672 1.523 . S
C672 C656 1.368 . S
C672 C668 1.368 . S
C672 C671 1.523 . S
H673 C648 0.950 . S
H674 C650 0.950 . S
H675 C651 0.949 . S
H676 C653 0.950 . S
H677 C655 0.950 . S
C678 C679 1.349 . S
C678 C680 1.327 . S
C678 H703 0.950 . S
C679 C678 1.349 . S
C679 C695 1.349 . S
C680 C678 1.327 . S
C680 C699 1.429 . S
C680 H704 0.950 . S
C681 C698 1.574 . S
C681 C700 1.368 . S
C681 H705 0.949 . S
H682 C686 0.949 . S
C683 C684 1.349 . S
C683 C685 1.327 . S
C683 H706 0.950 1_455 S
C684 C683 1.349 . S
C684 C696 1.349 . S
C685 C683 1.327 . S
C685 C701 1.429 . S
C685 H707 0.950 . S
C686 H682 0.949 . S
C686 C694 1.574 . S
C686 C702 1.368 . S
H687 C695 0.950 . S
H688 C693 0.950 . S
H689 C694 0.949 . S
H690 C696 0.950 . S
H691 C697 0.950 . S
H692 C698 0.949 . S
C693 H688 0.950 . S
C693 C695 1.327 . S
C693 C699 1.429 . S
C694 C686 1.574 . S
C694 H689 0.949 . S
C694 C700 1.368 . S
C695 C679 1.349 . S
C695 H687 0.950 . S
C695 C693 1.327 . S
C696 C684 1.349 . S
C696 H690 0.950 . S
C696 C697 1.327 . S
C697 H691 0.950 . S
C697 C696 1.327 . S
C697 C701 1.429 . S
C698 C681 1.574 . S
C698 H692 0.949 . S
C698 C702 1.368 . S
C699 C680 1.429 . S
C699 C693 1.429 . S
C699 C700 1.523 . S
C700 C681 1.368 . S
C700 C694 1.368 . S
C700 C699 1.523 . S
C701 C685 1.429 . S
C701 C697 1.429 . S
C701 C702 1.523 . S
C702 C686 1.368 . S
C702 C698 1.368 . S
C702 C701 1.523 . S
H703 C678 0.950 . S
H704 C680 0.950 . S
H705 C681 0.949 . S
H706 C683 0.950 1_655 S
H707 C685 0.950 . S
C708 C709 1.349 . S
C708 C710 1.327 . S
C708 H733 0.950 . S
C709 C708 1.349 . S
C709 C725 1.349 . S
C710 C708 1.327 . S
C710 C729 1.429 . S
C710 H734 0.950 . S
C711 C728 1.574 . S
C711 C730 1.368 . S
C711 H735 0.949 . S
H712 C716 0.949 . S
C713 C714 1.349 . S
C713 C715 1.327 . S
C713 H736 0.950 . S
C714 C713 1.349 . S
C714 C726 1.349 . S
C715 C713 1.327 . S
C715 C731 1.429 . S
C715 H737 0.950 . S
C716 H712 0.949 . S
C716 C724 1.574 . S
C716 C732 1.368 . S
H717 C725 0.950 . S
H718 C723 0.950 . S
H719 C724 0.949 . S
H720 C726 0.950 . S
H721 C727 0.950 . S
H722 C728 0.949 . S
C723 H718 0.950 . S
C723 C725 1.327 . S
C723 C729 1.429 . S
C724 C716 1.574 . S
C724 H719 0.949 . S
C724 C730 1.368 . S
C725 C709 1.349 . S
C725 H717 0.950 . S
C725 C723 1.327 . S
C726 C714 1.349 . S
C726 H720 0.950 . S
C726 C727 1.327 . S
C727 H721 0.950 . S
C727 C726 1.327 . S
C727 C731 1.429 . S
C728 C711 1.574 . S
C728 H722 0.949 . S
C728 C732 1.368 . S
C729 C710 1.429 . S
C729 C723 1.429 . S
C729 C730 1.523 . S
C730 C711 1.368 . S
C730 C724 1.368 . S
C730 C729 1.523 . S
C731 C715 1.429 . S
C731 C727 1.429 . S
C731 C732 1.523 . S
C732 C716 1.368 . S
C732 C728 1.368 . S
C732 C731 1.523 . S
H733 C708 0.950 . S
H734 C710 0.950 . S
H735 C711 0.949 . S
H736 C713 0.950 . S
H737 C715 0.950 . S
C738 C739 1.349 . S
C738 C740 1.327 . S
C738 H763 0.950 . S
C739 C738 1.349 . S
C739 C755 1.349 . S
C740 C738 1.327 . S
C740 C759 1.429 . S
C740 H764 0.950 . S
C741 C758 1.574 1_655 S
C741 C760 1.368 . S
C741 H765 0.949 . S
H742 C746 0.949 . S
C743 C744 1.349 . S
C743 C745 1.327 . S
C743 H766 0.950 . S
C744 C743 1.349 . S
C744 C756 1.349 . S
C745 C743 1.327 . S
C745 C761 1.429 . S
C745 H767 0.950 . S
C746 H742 0.949 . S
C746 C754 1.574 1_455 S
C746 C762 1.368 . S
H747 C755 0.950 . S
H748 C753 0.950 . S
H749 C754 0.949 . S
H750 C756 0.950 . S
H751 C757 0.950 . S
H752 C758 0.949 . S
C753 H748 0.950 . S
C753 C755 1.327 . S
C753 C759 1.429 . S
C754 C746 1.574 1_655 S
C754 H749 0.949 . S
C754 C760 1.368 . S
C755 C739 1.349 . S
C755 H747 0.950 . S
C755 C753 1.327 . S
C756 C744 1.349 . S
C756 H750 0.950 . S
C756 C757 1.327 . S
C757 H751 0.950 . S
C757 C756 1.327 . S
C757 C761 1.429 . S
C758 C741 1.574 1_455 S
C758 H752 0.949 . S
C758 C762 1.368 . S
C759 C740 1.429 . S
C759 C753 1.429 . S
C759 C760 1.523 . S
C760 C741 1.368 . S
C760 C754 1.368 . S
C760 C759 1.523 . S
C761 C745 1.429 . S
C761 C757 1.429 . S
C761 C762 1.523 . S
C762 C746 1.368 . S
C762 C758 1.368 . S
C762 C761 1.523 . S
H763 C738 0.950 . S
H764 C740 0.950 . S
H765 C741 0.949 . S
H766 C743 0.950 . S
H767 C745 0.950 . S
C768 C769 1.349 . S
C768 C770 1.327 . S
C768 H793 0.950 . S
C769 C768 1.349 . S
C769 C785 1.349 . S
C770 C768 1.327 . S
C770 C789 1.429 . S
C770 H794 0.950 . S
C771 C788 1.574 1_554 S
C771 C790 1.368 1_565 S
C771 H795 0.949 . S
H772 C776 0.949 . S
C773 C774 1.349 . S
C773 C775 1.327 . S
C773 H796 0.950 . S
C774 C773 1.349 . S
C774 C786 1.349 . S
C775 C773 1.327 . S
C775 C791 1.429 . S
C775 H797 0.950 . S
C776 H772 0.949 . S
C776 C784 1.574 1_556 S
C776 C792 1.368 1_545 S
H777 C785 0.948 1_565 S
H778 C783 0.950 1_565 S
H779 C784 0.949 . S
H780 C786 0.948 1_545 S
H781 C787 0.950 1_545 S
H782 C788 0.949 . S
C783 H778 0.950 1_545 S
C783 C785 1.327 . S
C783 C789 1.429 . S
C784 C776 1.574 1_554 S
C784 H779 0.949 . S
C784 C790 1.368 . S
C785 C769 1.349 . S
C785 H777 0.948 1_545 S
C785 C783 1.327 . S
C786 C774 1.349 . S
C786 H780 0.948 1_565 S
C786 C787 1.327 . S
C787 H781 0.950 1_565 S
C787 C786 1.327 . S
C787 C791 1.429 . S
C788 C771 1.574 1_556 S
C788 H782 0.949 . S
C788 C792 1.368 . S
C789 C770 1.429 . S
C789 C783 1.429 . S
C789 C790 1.523 . S
C790 C771 1.368 1_545 S
C790 C784 1.368 . S
C790 C789 1.523 . S
C791 C775 1.429 . S
C791 C787 1.429 . S
C791 C792 1.523 . S
C792 C776 1.368 1_565 S
C792 C788 1.368 . S
C792 C791 1.523 . S
H793 C768 0.950 . S
H794 C770 0.950 . S
H795 C771 0.949 . S
H796 C773 0.950 . S
H797 C775 0.950 . S
C798 C799 1.349 . S
C798 C800 1.327 . S
C798 H823 0.950 . S
C799 C798 1.349 . S
C799 C815 1.349 . S
C800 C798 1.327 . S
C800 C819 1.429 . S
C800 H824 0.950 . S
C801 C818 1.574 . S
C801 C820 1.368 . S
C801 H825 0.949 . S
H802 C806 0.949 . S
C803 C804 1.349 . S
C803 C805 1.327 . S
C803 H826 0.950 . S
C804 C803 1.349 . S
C804 C816 1.349 . S
C805 C803 1.327 . S
C805 C821 1.429 . S
C805 H827 0.950 . S
C806 H802 0.949 . S
C806 C814 1.574 . S
C806 C822 1.368 . S
H807 C815 0.950 . S
H808 C813 0.950 . S
H809 C814 0.949 . S
H810 C816 0.950 . S
H811 C817 0.950 . S
H812 C818 0.949 . S
C813 H808 0.950 . S
C813 C815 1.327 . S
C813 C819 1.429 . S
C814 C806 1.574 . S
C814 H809 0.949 . S
C814 C820 1.368 . S
C815 C799 1.349 . S
C815 H807 0.950 . S
C815 C813 1.327 . S
C816 C804 1.349 . S
C816 H810 0.950 . S
C816 C817 1.327 . S
C817 H811 0.950 . S
C817 C816 1.327 . S
C817 C821 1.429 . S
C818 C801 1.574 . S
C818 H812 0.949 . S
C818 C822 1.368 . S
C819 C800 1.429 . S
C819 C813 1.429 . S
C819 C820 1.523 . S
C820 C801 1.368 . S
C820 C814 1.368 . S
C820 C819 1.523 . S
C821 C805 1.429 . S
C821 C817 1.429 . S
C821 C822 1.523 . S
C822 C806 1.368 . S
C822 C818 1.368 . S
C822 C821 1.523 . S
H823 C798 0.950 . S
H824 C800 0.950 . S
H825 C801 0.949 . S
H826 C803 0.950 . S
H827 C805 0.950 . S
C828 C829 1.349 . S
C828 C830 1.327 1_455 S
C828 H853 0.950 1_455 S
C829 C828 1.349 . S
C829 C845 1.349 . S
C830 C828 1.327 1_655 S
C830 C849 1.429 1_655 S
C830 H854 0.950 . S
C831 C848 1.574 . S
C831 C850 1.368 . S
C831 H855 0.949 . S
H832 C836 0.949 . S
C833 C834 1.349 . S
C833 C835 1.327 1_655 S
C833 H856 0.950 1_655 S
C834 C833 1.349 . S
C834 C846 1.349 . S
C835 C833 1.327 1_455 S
C835 C851 1.429 1_455 S
C835 H857 0.950 . S
C836 H832 0.949 . S
C836 C844 1.574 . S
C836 C852 1.368 . S
H837 C845 0.950 . S
H838 C843 0.950 . S
H839 C844 0.949 . S
H840 C846 0.950 . S
H841 C847 0.950 . S
H842 C848 0.949 . S
C843 H838 0.950 . S
C843 C845 1.327 . S
C843 C849 1.429 . S
C844 C836 1.574 . S
C844 H839 0.949 . S
C844 C850 1.368 1_655 S
C845 C829 1.349 . S
C845 H837 0.950 . S
C845 C843 1.327 . S
C846 C834 1.349 . S
C846 H840 0.950 . S
C846 C847 1.327 . S
C847 H841 0.950 . S
C847 C846 1.327 . S
C847 C851 1.429 . S
C848 C831 1.574 . S
C848 H842 0.949 . S
C848 C852 1.368 1_455 S
C849 C830 1.429 1_455 S
C849 C843 1.429 . S
C849 C850 1.523 . S
C850 C831 1.368 . S
C850 C844 1.368 1_455 S
C850 C849 1.523 . S
C851 C835 1.429 1_655 S
C851 C847 1.429 . S
C851 C852 1.523 . S
C852 C836 1.368 . S
C852 C848 1.368 1_655 S
C852 C851 1.523 . S
H853 C828 0.950 1_655 S
H854 C830 0.950 . S
H855 C831 0.949 . S
H856 C833 0.950 1_455 S
H857 C835 0.950 . S
C858 C859 1.349 . S
C858 C860 1.327 . S
C858 H883 0.950 . S
C859 C858 1.349 . S
C859 C875 1.349 . S
C860 C858 1.327 . S
C860 C879 1.429 . S
C860 H884 0.950 . S
C861 C878 1.574 1_554 S
C861 C880 1.368 1_545 S
C861 H885 0.949 . S
H862 C866 0.949 . S
C863 C864 1.349 . S
C863 C865 1.327 . S
C863 H886 0.950 . S
C864 C863 1.349 . S
C864 C876 1.349 . S
C865 C863 1.327 . S
C865 C881 1.429 . S
C865 H887 0.950 . S
C866 H862 0.949 . S
C866 C874 1.574 1_556 S
C866 C882 1.368 1_565 S
H867 C875 0.950 1_545 S
H868 C873 0.950 . S
H869 C874 0.949 . S
H870 C876 0.950 1_565 S
H871 C877 0.950 . S
H872 C878 0.949 . S
C873 H868 0.950 . S
C873 C875 1.327 1_545 S
C873 C879 1.429 1_545 S
C874 C866 1.574 1_554 S
C874 H869 0.949 . S
C874 C880 1.368 . S
C875 C859 1.349 . S
C875 H867 0.950 1_565 S
C875 C873 1.327 1_565 S
C876 C864 1.349 . S
C876 H870 0.950 1_545 S
C876 C877 1.327 1_545 S
C877 H871 0.950 . S
C877 C876 1.327 1_565 S
C877 C881 1.429 1_565 S
C878 C861 1.574 1_556 S
C878 H872 0.949 . S
C878 C882 1.368 . S
C879 C860 1.429 . S
C879 C873 1.429 1_565 S
C879 C880 1.523 . S
C880 C861 1.368 1_565 S
C880 C874 1.368 . S
C880 C879 1.523 . S
C881 C865 1.429 . S
C881 C877 1.429 1_545 S
C881 C882 1.523 . S
C882 C866 1.368 1_545 S
C882 C878 1.368 . S
C882 C881 1.523 . S
H883 C858 0.950 . S
H884 C860 0.950 . S
H885 C861 0.949 . S
H886 C863 0.950 . S
H887 C865 0.950 . S
C169 C161 1.564 . S
C174 C7 1.564 . S
C199 C21 1.565 . S
C204 C91 1.565 . S
C229 C35 1.564 . S
C234 C105 1.564 . S
C259 C49 1.564 . S
C264 C119 1.564 . S
C289 C133 1.564 . S
C294 C63 1.564 . S
C319 C77 1.564 . S
C324 C147 1.564 . S
C349 C50 1.059 . S
C354 C8 1.059 . S
C379 C64 1.059 . S
C384 C22 1.059 . S
C409 C78 1.059 . S
C414 C36 1.059 . S
C439 C92 1.059 . S
C444 C134 1.059 . S
C469 C106 1.059 . S
C474 C148 1.059 . S
C499 C120 1.059 . S
C504 C162 1.059 . S
C529 C121 0.722 . S
C534 C9 0.722 . S
C559 C23 0.722 . S
C564 C135 0.722 . S
C589 C149 0.722 . S
C594 C37 0.722 . S
C619 C163 0.722 . S
C624 C51 0.722 . S
C649 C93 0.722 . S
C654 C65 0.722 . S
C679 C79 0.722 . S
C684 C107 0.722 . S
C709 C132 1.672 . S
C714 C6 1.672 . S
C739 C20 1.673 . S
C744 C146 1.673 . S
C769 C160 1.673 . S
C774 C34 1.673 . S
C799 C48 1.673 . S
C804 C90 1.673 . S
C829 C62 1.673 . S
C834 C104 1.673 . S
C859 C118 1.673 . S
C864 C76 1.673 . S
