# Generated by pormake.
# Topology wkc, (5)-cn, num edge types: 1
# Building blocks:
#     Node 0, Type 0, BuildingBlock: XOMCOT_clean_sbu_0, # of connection points: 5
#     Node 1, Type 0, BuildingBlock: XOMCOT_clean_sbu_0, # of connection points: 5
#     Node 2, Type 0, BuildingBlock: XOMCOT_clean_sbu_0, # of connection points: 5
#     Node 3, Type 0, BuildingBlock: XOMCOT_clean_sbu_0, # of connection points: 5
#     Node 4, Type 0, BuildingBlock: XOMCOT_clean_sbu_0, # of connection points: 5
#     Node 5, Type 0, BuildingBlock: XOMCOT_clean_sbu_0, # of connection points: 5
#     Node 6, Type 0, BuildingBlock: XOMCOT_clean_sbu_0, # of connection points: 5
#     Node 7, Type 0, BuildingBlock: XOMCOT_clean_sbu_0, # of connection points: 5
#     Node 8, Type 0, BuildingBlock: XOMCOT_clean_sbu_0, # of connection points: 5
#     Node 9, Type 0, BuildingBlock: XOMCOT_clean_sbu_0, # of connection points: 5
#     Node 10, Type 0, BuildingBlock: XOMCOT_clean_sbu_0, # of connection points: 5
#     Node 11, Type 0, BuildingBlock: XOMCOT_clean_sbu_0, # of connection points: 5
#     Edge 12, Type (0, 0), BuildingBlock: OJICUG_clean_linker_0, # of connection points: 2
#     Edge 13, Type (0, 0), BuildingBlock: OJICUG_clean_linker_0, # of connection points: 2
#     Edge 14, Type (0, 0), BuildingBlock: OJICUG_clean_linker_0, # of connection points: 2
#     Edge 15, Type (0, 0), BuildingBlock: OJICUG_clean_linker_0, # of connection points: 2
#     Edge 16, Type (0, 0), BuildingBlock: OJICUG_clean_linker_0, # of connection points: 2
#     Edge 17, Type (0, 0), BuildingBlock: OJICUG_clean_linker_0, # of connection points: 2
#     Edge 18, Type (0, 0), BuildingBlock: OJICUG_clean_linker_0, # of connection points: 2
#     Edge 19, Type (0, 0), BuildingBlock: OJICUG_clean_linker_0, # of connection points: 2
#     Edge 20, Type (0, 0), BuildingBlock: OJICUG_clean_linker_0, # of connection points: 2
#     Edge 21, Type (0, 0), BuildingBlock: OJICUG_clean_linker_0, # of connection points: 2
#     Edge 22, Type (0, 0), BuildingBlock: OJICUG_clean_linker_0, # of connection points: 2
#     Edge 23, Type (0, 0), BuildingBlock: OJICUG_clean_linker_0, # of connection points: 2
#     Edge 24, Type (0, 0), BuildingBlock: OJICUG_clean_linker_0, # of connection points: 2
#     Edge 25, Type (0, 0), BuildingBlock: OJICUG_clean_linker_0, # of connection points: 2
#     Edge 26, Type (0, 0), BuildingBlock: OJICUG_clean_linker_0, # of connection points: 2
#     Edge 27, Type (0, 0), BuildingBlock: OJICUG_clean_linker_0, # of connection points: 2
#     Edge 28, Type (0, 0), BuildingBlock: OJICUG_clean_linker_0, # of connection points: 2
#     Edge 29, Type (0, 0), BuildingBlock: OJICUG_clean_linker_0, # of connection points: 2
#     Edge 30, Type (0, 0), BuildingBlock: OJICUG_clean_linker_0, # of connection points: 2
#     Edge 31, Type (0, 0), BuildingBlock: OJICUG_clean_linker_0, # of connection points: 2
#     Edge 32, Type (0, 0), BuildingBlock: OJICUG_clean_linker_0, # of connection points: 2
#     Edge 33, Type (0, 0), BuildingBlock: OJICUG_clean_linker_0, # of connection points: 2
#     Edge 34, Type (0, 0), BuildingBlock: OJICUG_clean_linker_0, # of connection points: 2
#     Edge 35, Type (0, 0), BuildingBlock: OJICUG_clean_linker_0, # of connection points: 2
#     Edge 36, Type (0, 0), BuildingBlock: OJICUG_clean_linker_0, # of connection points: 2
#     Edge 37, Type (0, 0), BuildingBlock: OJICUG_clean_linker_0, # of connection points: 2
#     Edge 38, Type (0, 0), BuildingBlock: OJICUG_clean_linker_0, # of connection points: 2
#     Edge 39, Type (0, 0), BuildingBlock: OJICUG_clean_linker_0, # of connection points: 2
#     Edge 40, Type (0, 0), BuildingBlock: OJICUG_clean_linker_0, # of connection points: 2
#     Edge 41, Type (0, 0), BuildingBlock: OJICUG_clean_linker_0, # of connection points: 2
# Relax obj value: 0.261
# Max RMSD: 0.214
# Mean RMSD: 0.214
data_MOF--net-wkc--node1-XOMCOT_clean_sbu_0--edge1-OJICUG_clean_linker_0
_symmetry_space_group_name_H-M    P1
_symmetry_Int_Tables_number       1
_symmetry_cell_setting            triclinic
loop_
_symmetry_equiv_pos_as_xyz
'x, y, z'
_cell_length_a     29.114883
_cell_length_b     29.094805
_cell_length_c     34.462212
_cell_angle_alpha  90.181251
_cell_angle_beta   89.992227
_cell_angle_gamma 120.02397
loop_
_atom_site_label
_atom_site_type_symbol
_atom_site_fract_x
_atom_site_fract_y
_atom_site_fract_z
_atom_type_partial_charge
Co0 Co 0.30395 0.44539 0.99129 0.0
C1 C 0.32727 0.37547 0.94524 0.0
C2 C 0.25826 0.374 0.9221 0.0
C3 C 0.27081 0.34271 0.89888 0.0
N4 N 0.2938 0.39417 0.95123 0.0
N5 N 0.31437 0.34372 0.91361 0.0
H6 H 0.36162 0.38653 0.96333 0.0
H7 H 0.22619 0.38207 0.91766 0.0
C8 C 0.20247 0.40927 0.03288 0.0
O9 O 0.23282 0.42354 0.06391 0.0
N10 N 0.31705 0.49904 0.03075 0.0
C11 C 0.35256 0.51704 0.06018 0.0
C12 C 0.35041 0.55759 0.07896 0.0
C13 C 0.29531 0.53071 0.0314 0.0
N14 N 0.31441 0.56617 0.06093 0.0
C15 C 0.35134 0.40838 0.04735 0.0
C16 C 0.25838 0.31809 0.06829 0.0
C17 C 0.30321 0.33625 0.0918 0.0
C18 C 0.35102 0.37986 0.07982 0.0
C19 C 0.26088 0.34779 0.03579 0.0
N20 N 0.30508 0.39604 0.02899 0.0
H21 H 0.38833 0.442 0.03822 0.0
H22 H 0.22617 0.33347 0.01759 0.0
H23 H 0.38031 0.50425 0.06719 0.0
H24 H 0.26615 0.52777 0.01055 0.0
O25 O 0.37831 0.48412 0.97836 0.0
O26 O 0.31754 0.49905 0.9522 0.0
O27 O 0.22346 0.4134 0.99917 0.0
C28 C 0.36728 0.51198 0.95479 0.0
H29 H 0.24937 0.32089 0.87329 0.0
H30 H 0.37536 0.58071 0.10296 0.0
H31 H 0.22137 0.28302 0.07597 0.0
H32 H 0.38703 0.39338 0.09659 0.0
Co33 Co 0.86977 0.29419 0.15537 0.0
C34 C 0.96167 0.31951 0.1073 0.0
C35 C 0.89852 0.24212 0.09182 0.0
C36 C 0.94246 0.25443 0.06888 0.0
N37 N 0.91106 0.28321 0.11595 0.0
N38 N 0.98234 0.30335 0.07876 0.0
H39 H 0.98266 0.35746 0.12185 0.0
H40 H 0.86052 0.20586 0.09102 0.0
C41 C 0.80655 0.19421 0.19962 0.0
O42 O 0.82117 0.2259 0.22994 0.0
N43 N 0.82954 0.30839 0.19451 0.0
C44 C 0.84773 0.34001 0.22626 0.0
C45 C 0.80601 0.33919 0.24529 0.0
C46 C 0.77658 0.29014 0.19432 0.0
N47 N 0.76132 0.30792 0.22532 0.0
C48 C 0.95871 0.35021 0.20645 0.0
C49 C 0.95809 0.26213 0.23668 0.0
C50 C 0.98671 0.31101 0.25584 0.0
C51 C 0.99017 0.35611 0.23852 0.0
C52 C 0.9277 0.25841 0.20418 0.0
N53 N 0.9229 0.3009 0.193 0.0
H54 H 0.95996 0.38516 0.19472 0.0
H55 H 0.90615 0.2207 0.18942 0.0
H56 H 0.88821 0.36344 0.23547 0.0
H57 H 0.74982 0.26423 0.17208 0.0
O58 O 0.9024 0.36725 0.13967 0.0
O59 O 0.82703 0.30274 0.11548 0.0
O60 O 0.82374 0.21402 0.16574 0.0
C61 C 0.86287 0.35301 0.1161 0.0
H62 H 0.94489 0.22878 0.04719 0.0
H63 H 0.8086 0.36153 0.2712 0.0
H64 H 0.95665 0.22669 0.24785 0.0
H65 H 1.01467 0.39527 0.25095 0.0
Co66 Co 0.59159 0.85793 0.31831 0.0
C67 C 0.65675 0.95091 0.27084 0.0
C68 C 0.671 0.88822 0.25394 0.0
C69 C 0.70276 0.93288 0.23174 0.0
N70 N 0.64238 0.90002 0.2785 0.0
N71 N 0.69381 0.97243 0.24263 0.0
H72 H 0.64008 0.97174 0.28597 0.0
H73 H 0.66954 0.85037 0.25258 0.0
C74 C 0.63061 0.79433 0.36037 0.0
O75 O 0.61376 0.80694 0.39176 0.0
N76 N 0.53902 0.81692 0.35791 0.0
C77 C 0.52524 0.83449 0.38975 0.0
C78 C 0.48686 0.7918 0.40974 0.0
C79 C 0.50707 0.76352 0.35848 0.0
N80 N 0.47559 0.74727 0.3902 0.0
C81 C 0.62524 0.94698 0.36939 0.0
C82 C 0.71364 0.94748 0.39893 0.0
C83 C 0.69435 0.97718 0.41772 0.0
C84 C 0.65215 0.97992 0.40058 0.0
C85 C 0.68603 0.91605 0.36695 0.0
N86 N 0.6386 0.91109 0.35593 0.0
H87 H 0.59121 0.94787 0.35799 0.0
H88 H 0.70199 0.89434 0.35228 0.0
H89 H 0.54052 0.8751 0.39828 0.0
H90 H 0.50753 0.73713 0.33647 0.0
O91 O 0.54961 0.88965 0.304 0.0
O92 O 0.53882 0.81494 0.27882 0.0
O93 O 0.62721 0.81281 0.32717 0.0
C94 C 0.52365 0.85017 0.28042 0.0
H95 H 0.73125 0.93626 0.21013 0.0
H96 H 0.46744 0.79349 0.43607 0.0
H97 H 0.74787 0.94625 0.40987 0.0
H98 H 0.63812 1.00519 0.41245 0.0
Co99 Co 0.75943 0.59473 0.49052 0.0
C100 C 0.7345 0.66334 0.44372 0.0
C101 C 0.80118 0.66123 0.41947 0.0
C102 C 0.78689 0.68964 0.39484 0.0
N103 N 0.76824 0.64496 0.45015 0.0
N104 N 0.74447 0.69051 0.40999 0.0
H105 H 0.70223 0.65545 0.46314 0.0
H106 H 0.83182 0.65122 0.41445 0.0
C107 C 0.86411 0.62932 0.52805 0.0
O108 O 0.83716 0.61484 0.56061 0.0
N109 N 0.7477 0.54212 0.53029 0.0
C110 C 0.71527 0.52736 0.56146 0.0
C111 C 0.7168 0.48654 0.58011 0.0
C112 C 0.76699 0.5083 0.52991 0.0
N113 N 0.74936 0.47456 0.56038 0.0
C114 C 0.71408 0.63441 0.54612 0.0
C115 C 0.80829 0.72161 0.56961 0.0
C116 C 0.76262 0.70527 0.59181 0.0
C117 C 0.71446 0.66322 0.57858 0.0
C118 C 0.80573 0.69187 0.5369 0.0
N119 N 0.7604 0.64512 0.5286 0.0
H120 H 0.67679 0.60125 0.53671 0.0
H121 H 0.84093 0.7054 0.51949 0.0
H122 H 0.69014 0.54282 0.56995 0.0
H123 H 0.7935 0.5086 0.50776 0.0
O124 O 0.68444 0.556 0.4792 0.0
O125 O 0.74369 0.53998 0.45162 0.0
O126 O 0.84012 0.62613 0.49585 0.0
C127 C 0.69419 0.52743 0.45526 0.0
H128 H 0.80502 0.7063 0.36715 0.0
H129 H 0.6938 0.46572 0.60539 0.0
H130 H 0.84575 0.75551 0.57828 0.0
H131 H 0.67803 0.65087 0.59448 0.0
Co132 Co 0.19617 0.75531 0.6535 0.0
C133 C 0.10059 0.72671 0.60504 0.0
C134 C 0.1702 0.79051 0.5797 0.0
C135 C 0.12786 0.77614 0.55467 0.0
N136 N 0.15285 0.76022 0.61188 0.0
N137 N 0.08403 0.73557 0.57063 0.0
H138 H 0.07513 0.69493 0.62399 0.0
H139 H 0.21115 0.81994 0.57421 0.0
C140 C 0.23126 0.87179 0.65387 0.0
O141 O 0.18184 0.85789 0.64589 0.0
N142 N 0.23823 0.74818 0.69408 0.0
C143 C 0.21914 0.72004 0.72704 0.0
C144 C 0.26012 0.72066 0.74708 0.0
C145 C 0.2906 0.76447 0.69406 0.0
N146 N 0.30496 0.74833 0.72635 0.0
C147 C 0.10146 0.71443 0.69964 0.0
C148 C 0.14026 0.79635 0.75308 0.0
C149 C 0.0897 0.75245 0.75878 0.0
C150 C 0.07035 0.7112 0.73138 0.0
C151 C 0.17037 0.79752 0.72129 0.0
N152 N 0.15027 0.75799 0.69387 0.0
H153 H 0.0879 0.67957 0.68184 0.0
H154 H 0.21131 0.82848 0.72083 0.0
H155 H 0.17789 0.69865 0.73543 0.0
H156 H 0.3172 0.78632 0.67054 0.0
O157 O 0.16067 0.67941 0.64523 0.0
O158 O 0.23395 0.73766 0.61501 0.0
O159 O 0.24454 0.83589 0.65576 0.0
C160 C 0.19776 0.68822 0.62044 0.0
H161 H 0.12975 0.79288 0.52633 0.0
H162 H 0.25669 0.69979 0.77385 0.0
H163 H 0.15761 0.82861 0.7739 0.0
H164 H 0.0329 0.67496 0.73564 0.0
Co165 Co 0.45984 0.17333 0.81461 0.0
C166 C 0.38807 0.08696 0.76127 0.0
C167 C 0.38712 0.15902 0.75 0.0
C168 C 0.35462 0.12094 0.7234 0.0
N169 N 0.40786 0.13759 0.77381 0.0
N170 N 0.35519 0.07548 0.73037 0.0
H171 H 0.3977 0.05921 0.77459 0.0
H172 H 0.3958 0.19974 0.75138 0.0
C173 C 0.42318 0.23288 0.86393 0.0
O174 O 0.43912 0.21477 0.89273 0.0
N175 N 0.51401 0.21001 0.85453 0.0
C176 C 0.53049 0.19062 0.88361 0.0
C177 C 0.57039 0.23233 0.9039 0.0
C178 C 0.54563 0.26335 0.85702 0.0
N179 N 0.57983 0.278 0.88718 0.0
C180 C 0.42589 0.08183 0.86277 0.0
C181 C 0.33808 0.08121 0.8937 0.0
C182 C 0.35822 0.05207 0.91214 0.0
C183 C 0.39984 0.04905 0.89412 0.0
C184 C 0.36478 0.11235 0.86152 0.0
N185 N 0.41223 0.11773 0.85016 0.0
H186 H 0.45957 0.08093 0.8506 0.0
H187 H 0.34897 0.13463 0.84754 0.0
H188 H 0.51624 0.14949 0.88982 0.0
H189 H 0.54314 0.2909 0.83729 0.0
O190 O 0.49863 0.14024 0.79597 0.0
O191 O 0.51285 0.21868 0.77641 0.0
O192 O 0.42713 0.21969 0.82886 0.0
C193 C 0.52613 0.18201 0.77487 0.0
H194 H 0.3332 0.12691 0.70015 0.0
H195 H 0.59208 0.22921 0.9283 0.0
H196 H 0.30428 0.08272 0.90524 0.0
H197 H 0.41426 0.02393 0.9055 0.0
Co198 Co 0.60679 0.75255 0.83903 0.0
C199 C 0.67681 0.73758 0.89322 0.0
C200 C 0.67498 0.80887 0.90624 0.0
C201 C 0.70606 0.80257 0.93356 0.0
N202 N 0.65691 0.76824 0.88091 0.0
N203 N 0.70707 0.75757 0.92549 0.0
H204 H 0.66895 0.70123 0.87887 0.0
H205 H 0.66519 0.84015 0.90551 0.0
C206 C 0.63854 0.85319 0.79618 0.0
O207 O 0.62515 0.82365 0.76473 0.0
N208 N 0.55455 0.73544 0.79794 0.0
C209 C 0.54276 0.70341 0.7666 0.0
C210 C 0.50222 0.70368 0.74623 0.0
C211 C 0.51974 0.75333 0.79659 0.0
N212 N 0.48789 0.73515 0.76508 0.0
C213 C 0.64979 0.7044 0.7893 0.0
C214 C 0.73563 0.79728 0.76285 0.0
C215 C 0.722 0.74937 0.74414 0.0
C216 C 0.68048 0.70219 0.75918 0.0
C217 C 0.7045 0.79733 0.79373 0.0
N218 N 0.65865 0.75202 0.80341 0.0
H219 H 0.61662 0.66772 0.79939 0.0
H220 H 0.71647 0.83426 0.80867 0.0
H221 H 0.56083 0.68028 0.75879 0.0
H222 H 0.51844 0.77986 0.81808 0.0
O223 O 0.57084 0.67885 0.8538 0.0
O224 O 0.55078 0.73783 0.87653 0.0
O225 O 0.63537 0.83202 0.82956 0.0
C226 C 0.5407 0.68881 0.87576 0.0
H227 H 0.72521 0.82852 0.95809 0.0
H228 H 0.48359 0.68103 0.7202 0.0
H229 H 0.76906 0.8343 0.7531 0.0
H230 H 0.66946 0.66412 0.7461 0.0
Co231 Co 0.86102 0.59353 0.00386 0.0
C232 C 0.95096 0.65086 0.0599 0.0
C233 C 0.8841 0.65842 0.07598 0.0
C234 C 0.92345 0.68409 0.1035 0.0
N235 N 0.90201 0.63934 0.04755 0.0
N236 N 0.96536 0.67901 0.09339 0.0
H237 H 0.97509 0.63721 0.0459 0.0
H238 H 0.84455 0.65287 0.07737 0.0
C239 C 0.82764 0.67578 0.00212 0.0
O240 O 0.87762 0.71103 0.00881 0.0
N241 N 0.82079 0.5462 0.9615 0.0
C242 C 0.84126 0.53896 0.92846 0.0
C243 C 0.80147 0.4982 0.90761 0.0
C244 C 0.76888 0.5085 0.9608 0.0
N245 N 0.75607 0.47882 0.92799 0.0
C246 C 0.95991 0.65456 0.96332 0.0
C247 C 0.92022 0.69046 0.90537 0.0
C248 C 0.97211 0.69981 0.90203 0.0
C249 C 0.99221 0.68235 0.932 0.0
C250 C 0.88893 0.66137 0.93655 0.0
N251 N 0.90891 0.64446 0.96564 0.0
H252 H 0.97473 0.6372 0.98365 0.0
H253 H 0.84733 0.64898 0.93534 0.0
H254 H 0.88279 0.56015 0.9207 0.0
H255 H 0.74162 0.50169 0.98435 0.0
O256 O 0.89616 0.55303 0.01107 0.0
O257 O 0.8215 0.53618 0.04034 0.0
O258 O 0.81317 0.62619 0.00154 0.0
C259 C 0.85804 0.52343 0.03476 0.0
H260 H 0.92065 0.70308 0.12975 0.0
H261 H 0.80623 0.4818 0.88067 0.0
H262 H 0.90263 0.7028 0.88298 0.0
H263 H 0.03124 0.68654 0.9301 0.0
Co264 Co 0.28071 0.85206 0.16937 0.0
C265 C 0.31986 0.94126 0.22589 0.0
C266 C 0.2353 0.89328 0.22862 0.0
C267 C 0.25144 0.9367 0.25289 0.0
N268 N 0.27831 0.89636 0.21131 0.0
N269 N 0.30471 0.96722 0.25083 0.0
H270 H 0.36055 0.95584 0.21744 0.0
H271 H 0.19469 0.8631 0.22291 0.0
C272 C 0.16822 0.76057 0.16958 0.0
O273 O 0.18518 0.72895 0.1816 0.0
N274 N 0.28512 0.80925 0.12729 0.0
C275 C 0.30505 0.82637 0.09142 0.0
C276 C 0.30686 0.7863 0.0716 0.0
C277 C 0.27757 0.75947 0.12914 0.0
N278 N 0.28966 0.74424 0.09535 0.0
C279 C 0.32258 0.95091 0.12953 0.0
C280 C 0.24809 0.91419 0.07049 0.0
C281 C 0.29467 0.9633 0.0662 0.0
C282 C 0.33031 0.98305 0.0975 0.0
C283 C 0.24111 0.88379 0.10355 0.0
N284 N 0.27971 0.90101 0.1315 0.0
H285 H 0.35334 0.96479 0.15121 0.0
H286 H 0.20753 0.84403 0.10404 0.0
H287 H 0.32038 0.86624 0.0807 0.0
H288 H 0.2661 0.73575 0.15516 0.0
O289 O 0.35625 0.88367 0.17616 0.0
O290 O 0.29676 0.81179 0.20702 0.0
O291 O 0.20037 0.81041 0.16705 0.0
C292 C 0.34662 0.84629 0.20078 0.0
H293 H 0.22554 0.94658 0.2689 0.0
H294 H 0.32287 0.78914 0.04279 0.0
H295 H 0.2195 0.89698 0.04713 0.0
H296 H 0.36602 0.02155 0.09614 0.0
Co297 Co 0.4521 0.2874 0.33996 0.0
C298 C 0.38167 0.30168 0.39448 0.0
C299 C 0.38388 0.23052 0.40685 0.0
C300 C 0.35214 0.23618 0.434 0.0
N301 N 0.40213 0.27146 0.38201 0.0
N302 N 0.35082 0.28107 0.42633 0.0
H303 H 0.38932 0.33805 0.38043 0.0
H304 H 0.39375 0.19931 0.40581 0.0
C305 C 0.42045 0.18699 0.29605 0.0
O306 O 0.43434 0.21685 0.26492 0.0
N307 N 0.50417 0.30504 0.29856 0.0
C308 C 0.5143 0.33616 0.26701 0.0
C309 C 0.55519 0.33708 0.24634 0.0
C310 C 0.54035 0.28882 0.29694 0.0
N311 N 0.57149 0.30728 0.26513 0.0
C312 C 0.40841 0.33587 0.29158 0.0
C313 C 0.32369 0.24306 0.26346 0.0
C314 C 0.33735 0.29117 0.24532 0.0
C315 C 0.3781 0.3383 0.26131 0.0
C316 C 0.35445 0.24279 0.29448 0.0
N317 N 0.39998 0.28814 0.30481 0.0
H318 H 0.44136 0.3725 0.30216 0.0
H319 H 0.34257 0.20568 0.3089 0.0
H320 H 0.49486 0.35792 0.2592 0.0
H321 H 0.54334 0.26348 0.31851 0.0
O322 O 0.48816 0.36098 0.35548 0.0
O323 O 0.50833 0.30177 0.3772 0.0
O324 O 0.42344 0.20793 0.32963 0.0
C325 C 0.51844 0.3508 0.37703 0.0
H326 H 0.33256 0.20974 0.45809 0.0
H327 H 0.57282 0.35956 0.22018 0.0
H328 H 0.29073 0.20604 0.25302 0.0
H329 H 0.38915 0.37652 0.2487 0.0
Co330 Co 0.19307 0.44084 0.51065 0.0
C331 C 0.10679 0.38641 0.56892 0.0
C332 C 0.16996 0.37085 0.58005 0.0
C333 C 0.13151 0.34599 0.60821 0.0
N334 N 0.15348 0.3944 0.5542 0.0
N335 N 0.09196 0.35615 0.60116 0.0
H336 H 0.08453 0.40377 0.5573 0.0
H337 H 0.20796 0.37271 0.57939 0.0
C338 C 0.22663 0.35904 0.50359 0.0
O339 O 0.17652 0.32337 0.50912 0.0
N340 N 0.23153 0.48867 0.46857 0.0
C341 C 0.20945 0.4996 0.43819 0.0
C342 C 0.24905 0.53818 0.41599 0.0
C343 C 0.28428 0.52178 0.46508 0.0
N344 N 0.29602 0.55228 0.43295 0.0
C345 C 0.09215 0.37545 0.47274 0.0
C346 C 0.13415 0.3533 0.40811 0.0
C347 C 0.08098 0.34031 0.40752 0.0
C348 C 0.05945 0.34956 0.44103 0.0
C349 C 0.16529 0.37866 0.44046 0.0
N350 N 0.14463 0.39032 0.47223 0.0
H351 H 0.07591 0.38735 0.496 0.0
H352 H 0.20738 0.3935 0.43817 0.0
H353 H 0.16727 0.48187 0.43315 0.0
H354 H 0.31316 0.52463 0.48616 0.0
O355 O 0.15768 0.48101 0.51983 0.0
O356 O 0.23338 0.49803 0.54745 0.0
O357 O 0.24126 0.4086 0.50592 0.0
C358 C 0.19649 0.51059 0.54321 0.0
H359 H 0.13334 0.32379 0.63272 0.0
H360 H 0.24356 0.55673 0.3906 0.0
H361 H 0.15299 0.34846 0.38255 0.0
H362 H 1.01848 0.34024 0.44179 0.0
Co363 Co 0.77574 0.18626 0.67064 0.0
C364 C 0.73661 0.09906 0.72861 0.0
C365 C 0.82135 0.14571 0.72988 0.0
C366 C 0.80538 0.10284 0.75439 0.0
N367 N 0.77814 0.14312 0.71327 0.0
N368 N 0.75199 0.07309 0.7532 0.0
H369 H 0.69577 0.08471 0.72059 0.0
H370 H 0.86197 0.17491 0.72332 0.0
C371 C 0.88852 0.27758 0.67451 0.0
O372 O 0.87196 0.30907 0.68779 0.0
N373 N 0.77171 0.22822 0.62805 0.0
C374 C 0.74952 0.20972 0.59288 0.0
C375 C 0.74837 0.24973 0.5726 0.0
C376 C 0.78158 0.27887 0.62907 0.0
N377 N 0.7684 0.29321 0.5954 0.0
C378 C 0.73727 0.08628 0.63287 0.0
C379 C 0.80911 0.12352 0.57229 0.0
C380 C 0.76405 0.07289 0.56945 0.0
C381 C 0.73012 0.05305 0.60158 0.0
C382 C 0.81585 0.155 0.60486 0.0
N383 N 0.77832 0.13729 0.63349 0.0
H384 H 0.70725 0.07208 0.65503 0.0
H385 H 0.84801 0.1956 0.60459 0.0
H386 H 0.73244 0.16909 0.58311 0.0
H387 H 0.79542 0.30389 0.65452 0.0
O388 O 0.70014 0.15352 0.67588 0.0
O389 O 0.75765 0.22626 0.70734 0.0
O390 O 0.85581 0.22834 0.66932 0.0
C391 C 0.70821 0.19096 0.70015 0.0
H392 H 0.83138 0.0925 0.76971 0.0
H393 H 0.73093 0.246 0.5442 0.0
H394 H 0.83634 0.14072 0.54822 0.0
H395 H 0.69574 1.01352 0.60129 0.0
C396 C 0.3648 0.27294 0.8483 0.0
C397 C 0.39677 0.26395 0.87428 0.0
H398 H 0.31324 0.3054 0.84032 0.0
C399 C 0.40133 0.28232 0.91269 0.0
H400 H 0.36013 0.25907 0.81859 0.0
C401 C 0.37432 0.30789 0.92517 0.0
C402 C 0.34189 0.31676 0.8997 0.0
H403 H 0.42549 0.27638 0.93374 0.0
H404 H 0.37832 0.31974 0.95531 0.0
C405 C 0.33751 0.29902 0.86093 0.0
C406 C 0.12857 0.40207 0.07291 0.0
C407 C 0.14451 0.38585 0.0396 0.0
H408 H 0.06699 0.38903 0.11178 0.0
C409 C 0.10552 0.34357 0.01751 0.0
H410 H 0.15746 0.43453 0.09065 0.0
C411 C 0.052 0.31682 0.02974 0.0
C412 C 0.03656 0.332 0.0642 0.0
H413 H 0.11664 0.32976 0.99191 0.0
H414 H 1.02309 0.28384 0.01253 0.0
C415 C 0.0759 0.37571 0.08504 0.0
C416 C 0.74663 0.11973 0.2426 0.0
C417 C 0.77416 0.1361 0.20723 0.0
H418 H 0.70164 0.05699 0.28185 0.0
C419 C 0.77341 0.09714 0.1825 0.0
H420 H 0.74604 0.14837 0.26248 0.0
C421 C 0.74684 0.04322 0.19373 0.0
C422 C 0.72028 0.02733 0.22975 0.0
H423 H 0.79453 0.10843 0.15517 0.0
H424 H 0.74731 1.01416 0.17432 0.0
C425 C 0.72047 0.06663 0.2537 0.0
C426 C 0.66205 0.69583 0.40606 0.0
C427 C 0.71403 0.71286 0.39324 0.0
H428 H 0.59518 0.70763 0.40498 0.0
C429 C 0.73569 0.75303 0.36471 0.0
H430 H 0.64288 0.66412 0.42692 0.0
C431 C 0.70718 0.77731 0.35119 0.0
C432 C 0.65661 0.76202 0.36608 0.0
H433 H 0.77548 0.76734 0.354 0.0
H434 H 0.72592 0.81002 0.33098 0.0
C435 C 0.63412 0.72029 0.39296 0.0
C436 C 0.9951 0.65459 0.56771 0.0
C437 C 0.03069 0.70624 0.55461 0.0
H438 H 0.91511 0.58998 0.56888 0.0
C439 C 1.01197 0.72925 0.52736 0.0
H440 H 1.00785 0.63448 0.58757 0.0
C441 C 0.95828 0.7026 0.51569 0.0
C442 C 0.92242 0.65261 0.5312 0.0
H443 H 0.03805 0.76887 0.51656 0.0
H444 H 0.9442 0.72249 0.49665 0.0
C445 C 0.94184 0.62853 0.55648 0.0
C446 C 0.31335 0.93829 0.6908 0.0
C447 C 0.26699 0.92617 0.66996 0.0
H448 H 0.37772 0.99484 0.72619 0.0
C449 C 0.25172 0.965 0.66817 0.0
H450 H 0.32624 0.90934 0.69312 0.0
C451 C 0.28089 1.01379 0.68743 0.0
C452 C 0.32641 0.02554 0.70925 0.0
H453 H 0.2162 0.95723 0.65263 0.0
H454 H 0.26662 0.04164 0.68606 0.0
C455 C 0.34258 0.98723 0.71024 0.0
C456 C 0.74652 0.66093 0.9648 0.0
C457 C 0.79231 0.69471 0.98638 0.0
H458 H 0.6835 0.65422 0.92854 0.0
C459 C 0.80778 0.74883 0.98902 0.0
H460 H 0.73361 0.61912 0.96186 0.0
C461 C 0.77939 0.76901 0.96969 0.0
C462 C 0.73468 0.73579 0.94694 0.0
H463 H 0.8429 0.77614 0.00523 0.0
H464 H 0.79369 0.81116 0.97162 0.0
C465 C 0.71816 0.68125 0.94522 0.0
C466 C 0.08732 0.68626 0.13745 0.0
C467 C 0.11368 0.73791 0.1532 0.0
H468 H 1.0199 0.6274 0.10549 0.0
C469 C 0.0893 0.76906 0.15003 0.0
H470 H 0.10516 0.66137 0.13896 0.0
C471 C 0.03999 0.74914 0.13141 0.0
C472 C 1.01461 0.69821 0.11454 0.0
H473 H 0.10862 0.80908 0.16161 0.0
H474 H 1.02245 0.7742 0.12906 0.0
C475 C 0.03872 0.66692 0.11794 0.0
C476 C 0.41189 0.11044 0.2579 0.0
C477 C 0.39551 0.12876 0.28985 0.0
H478 H 0.39645 0.04583 0.22046 0.0
C479 C 0.35114 0.09192 0.31116 0.0
H480 H 0.44585 0.13785 0.2408 0.0
C481 C 0.32212 0.03839 0.29922 0.0
C482 C 0.33734 0.02063 0.26605 0.0
H483 H 0.33721 0.10497 0.33566 0.0
H484 H 0.28709 1.01122 0.31537 0.0
C485 C 0.3835 0.0573 0.24628 0.0
C486 C 0.24757 0.28701 0.48886 0.0
C487 C 0.26258 0.34106 0.4873 0.0
H488 H 0.26293 0.22568 0.47067 0.0
C489 C 0.30869 0.37571 0.4665 0.0
H490 H 0.21223 0.25902 0.50441 0.0
C491 C 0.33794 0.35633 0.44678 0.0
C492 C 0.32205 0.30189 0.44763 0.0
H493 H 0.32121 0.41749 0.46434 0.0
H494 H 0.37286 0.38401 0.43076 0.0
C495 C 0.27686 0.26778 0.46947 0.0
C496 C 0.96615 0.267 0.65535 0.0
C497 C 0.9438 0.29984 0.65999 0.0
H498 H 0.03132 0.25963 0.63356 0.0
C499 C 0.97278 0.35265 0.64702 0.0
H500 H 0.9448 0.22607 0.66487 0.0
C501 C 1.02178 0.37141 0.62834 0.0
C502 C 0.04352 0.33819 0.62298 0.0
H503 H 0.95659 0.37888 0.6498 0.0
H504 H 0.04251 0.4118 0.61772 0.0
C505 C 1.01571 0.28617 0.6375 0.0
C506 C 0.70681 0.9483 0.8123 0.0
C507 C 0.66267 0.91135 0.79068 0.0
H508 H 0.77023 0.02924 0.81721 0.0
C509 C 0.64573 0.92963 0.75913 0.0
H510 H 0.7211 0.93526 0.83651 0.0
C511 C 0.67349 0.98291 0.74813 0.0
C512 C 0.71956 1.01969 0.76812 0.0
H513 H 0.61188 0.9021 0.74185 0.0
H514 H 0.66027 0.99443 0.72254 0.0
C515 C 0.73522 1.00195 0.80094 0.0
C516 C 0.30136 0.66976 0.11699 0.0
C517 C 0.29073 0.69611 0.08731 0.0
H518 H 0.3167 0.60732 0.13178 0.0
C519 C 0.2841 0.67643 0.04914 0.0
H520 H 0.30702 0.68401 0.14662 0.0
C521 C 0.28984 0.63253 0.0406 0.0
C522 C 0.30278 0.60767 0.07003 0.0
H523 H 0.27524 0.69553 0.02574 0.0
H524 H 0.28621 0.6194 0.01077 0.0
C525 C 0.30746 0.62614 0.10841 0.0
C526 C 0.67631 0.30072 0.20559 0.0
C527 C 0.70959 0.29987 0.23467 0.0
H528 H 0.60588 0.30387 0.19263 0.0
C529 C 0.69415 0.29663 0.27369 0.0
H530 H 0.68747 0.30352 0.17535 0.0
C531 C 0.64763 0.29668 0.28361 0.0
C532 C 0.61584 0.30066 0.25472 0.0
H533 H 0.71897 0.29552 0.29664 0.0
H534 H 0.63795 0.29618 0.31399 0.0
C535 C 0.63003 0.3015 0.21554 0.0
C536 C 0.40245 0.65846 0.37194 0.0
C537 C 0.43532 0.69433 0.4005 0.0
H538 H 0.33181 0.5844 0.36016 0.0
C539 C 0.42514 0.67963 0.43975 0.0
H540 H 0.40936 0.66892 0.34153 0.0
C541 C 0.3812 0.63127 0.4504 0.0
C542 C 0.34619 0.59702 0.42198 0.0
H543 H 0.45031 0.70642 0.46228 0.0
H544 H 0.37289 0.62216 0.48091 0.0
C545 C 0.35803 0.61039 0.38262 0.0
C546 C 0.7573 0.41552 0.60795 0.0
C547 C 0.75949 0.432 0.56932 0.0
H548 H 0.75827 0.35863 0.64659 0.0
C549 C 0.76847 0.4042 0.53968 0.0
H550 H 0.75116 0.43655 0.6315 0.0
C551 C 0.7728 0.35953 0.54837 0.0
C552 C 0.76869 0.34193 0.58691 0.0
H553 H 0.77015 0.41574 0.50965 0.0
H554 H 0.77866 0.33826 0.52485 0.0
C555 C 0.76196 0.37114 0.61666 0.0
C556 C 0.3859 0.74728 0.70611 0.0
C557 C 0.35516 0.7524 0.73535 0.0
H558 H 0.45254 0.73766 0.69277 0.0
C559 C 0.37131 0.75602 0.77422 0.0
H560 H 0.37414 0.74401 0.67597 0.0
C561 C 0.41595 0.75234 0.78386 0.0
C562 C 0.44516 0.74438 0.75485 0.0
H563 H 0.34847 0.76034 0.79727 0.0
H564 H 0.42618 0.75338 0.81416 0.0
C565 C 0.43031 0.74299 0.71579 0.0
C566 C 0.67834 0.39351 0.94732 0.0
C567 C 0.70725 0.43108 0.91856 0.0
H568 H 0.61498 0.31487 0.9597 0.0
C569 C 0.69088 0.41892 0.87966 0.0
H570 H 0.69037 0.40164 0.97745 0.0
C571 C 0.64771 0.36951 0.86952 0.0
C572 C 0.6205 0.33086 0.89801 0.0
H573 H 0.71242 0.4473 0.85697 0.0
H574 H 0.63716 0.3607 0.83919 0.0
C575 C 0.63564 0.34372 0.9371 0.0
C576 C 0.31796 0.263 0.17611 0.0
C577 C 0.31489 0.29269 0.20729 0.0
H578 H 0.3168 0.25402 0.11411 0.0
C579 C 0.29985 0.33079 0.20016 0.0
H580 H 0.33022 0.23391 0.18089 0.0
C581 C 0.29209 0.34194 0.16223 0.0
C582 C 0.29941 0.31529 0.131 0.0
H583 H 0.29728 0.35413 0.22373 0.0
H584 H 0.28363 0.37371 0.15709 0.0
C585 C 0.31062 0.27455 0.13803 0.0
C586 C 0.05733 0.29412 0.34253 0.0
C587 C 0.05166 0.32663 0.37022 0.0
H588 H 0.04163 0.26391 0.28419 0.0
C589 C 1.02257 0.35148 0.36035 0.0
H590 H 0.07937 0.27427 0.34939 0.0
C591 C 1.00115 0.3455 0.32341 0.0
C592 C 1.00853 0.31486 0.29521 0.0
H593 H 1.01814 0.37755 0.38059 0.0
H594 H 0.97914 0.36549 0.3168 0.0
C595 C 0.03574 0.28812 0.30531 0.0
C596 C 0.7677 0.02529 0.46698 0.0
C597 C 0.71379 1.00084 0.45664 0.0
H598 H 0.82617 0.06645 0.51123 0.0
C599 C 0.67695 0.99746 0.4844 0.0
H600 H 0.79703 0.02831 0.44625 0.0
C601 C 0.69347 1.01961 0.52102 0.0
C602 C 0.74735 0.04503 0.53145 0.0
H603 H 0.63492 0.97765 0.47789 0.0
H604 H 0.66375 1.01807 0.54071 0.0
C605 C 0.78437 0.0473 0.5041 0.0
C606 C 0.77186 0.70007 0.66257 0.0
C607 C 0.7653 0.72647 0.63095 0.0
H608 H 0.76401 0.68747 0.72399 0.0
C609 C 0.75274 0.76645 0.63743 0.0
H610 H 0.78109 0.66872 0.65789 0.0
C611 C 0.74356 0.77761 0.67521 0.0
C612 C 0.74592 0.74816 0.70666 0.0
H613 H 0.74694 0.78666 0.6132 0.0
H614 H 0.73046 0.80617 0.67946 0.0
C615 C 0.76206 0.7107 0.7002 0.0
C616 C 1.00412 0.71942 0.79475 0.0
C617 C 0.05979 0.74637 0.79512 0.0
H618 H 0.93293 0.68245 0.82777 0.0
C619 C 0.08642 0.76321 0.83094 0.0
H620 H 0.98232 0.70672 0.76767 0.0
C621 C 0.05797 0.7509 0.86562 0.0
C622 C 1.00228 0.72074 0.86534 0.0
H623 H 0.1293 0.78366 0.8325 0.0
H624 H 0.07974 0.76352 0.8927 0.0
C625 C 0.97572 0.7063 0.82939 0.0
C626 C 0.36328 1.01251 0.01563 0.0
C627 C 0.31015 0.98933 0.02758 0.0
H628 H 0.41981 0.0511 0.97082 0.0
C629 C 0.27231 0.98733 0.00113 0.0
H630 H 0.39354 1.01381 0.03461 0.0
C631 C 0.28733 1.0073 0.96345 0.0
C632 C 0.34047 0.02965 0.95156 0.0
H633 H 0.23107 0.96998 0.00939 0.0
H634 H 0.25724 1.00444 0.94354 0.0
C635 C 0.37823 0.03277 0.97842 0.0
C636 C 0.45782 0.55744 0.92612 0.0
C637 C 0.41034 0.55726 0.93364 0.0
H638 H 0.53584 0.59906 0.90194 0.0
C639 C 0.40624 0.6017 0.92292 0.0
H640 H 0.46224 0.52388 0.93417 0.0
C641 C 0.44926 0.6457 0.90525 0.0
C642 C 0.49642 0.64527 0.89731 0.0
H643 H 0.37027 0.60282 0.92882 0.0
H644 H 0.44523 0.67943 0.89705 0.0
C645 C 0.50005 0.60059 0.90778 0.0
C646 C 0.90574 0.47906 0.06032 0.0
C647 C 0.85763 0.47823 0.0545 0.0
H648 H 0.94471 0.43994 0.08447 0.0
C649 C 0.81017 0.43404 0.06721 0.0
H650 H 0.94292 0.51258 0.05087 0.0
C651 C 0.8111 0.3915 0.08565 0.0
C652 C 0.85962 0.3934 0.0924 0.0
H653 H 0.77251 0.43231 0.06277 0.0
H654 H 0.7743 0.35819 0.09584 0.0
C655 C 0.90678 0.43746 0.07948 0.0
C656 C 0.4317 0.79839 0.25138 0.0
C657 C 0.47896 0.84678 0.25757 0.0
H658 H 0.35154 0.76013 0.22939 0.0
C659 C 0.48197 0.89396 0.24481 0.0
H660 H 0.42815 0.76152 0.26145 0.0
C661 C 0.43898 0.89313 0.22624 0.0
C662 C 0.39117 0.84521 0.22082 0.0
H663 H 0.51778 0.93184 0.24935 0.0
H664 H 0.44291 0.93041 0.21676 0.0
C665 C 0.38778 0.79768 0.23354 0.0
C666 C 0.55987 0.43888 0.40983 0.0
C667 C 0.56313 0.39417 0.3986 0.0
H668 H 0.59857 0.51563 0.43662 0.0
C669 C 0.61039 0.39357 0.4057 0.0
H670 H 0.52402 0.44053 0.40461 0.0
C671 C 0.65389 0.43748 0.42321 0.0
C672 C 0.65023 0.48201 0.43465 0.0
H673 H 0.61413 0.35982 0.39689 0.0
H674 H 0.68998 0.43628 0.42836 0.0
C675 C 0.60263 0.48196 0.42805 0.0
C676 C 0.15004 0.55383 0.57383 0.0
C677 C 0.19782 0.55609 0.56362 0.0
H678 H 0.11282 0.5936 0.60029 0.0
C679 C 0.24603 0.60257 0.57181 0.0
H680 H 0.11231 0.51848 0.56789 0.0
C681 C 0.24626 0.64633 0.58938 0.0
C682 C 0.19834 0.64363 0.60005 0.0
H683 H 0.2834 0.60544 0.56393 0.0
H684 H 0.28384 0.68183 0.5953 0.0
C685 C 0.15033 0.5968 0.59236 0.0
C686 C 0.66496 0.23761 0.73319 0.0
C687 C 0.66227 0.19107 0.71863 0.0
H688 H 0.62288 0.27175 0.76153 0.0
C689 C 0.6138 0.14309 0.72065 0.0
H690 H 0.70171 0.2752 0.73168 0.0
C691 C 0.56945 0.1411 0.73773 0.0
C692 C 0.57186 0.1872 0.75254 0.0
H693 H 0.6103 0.10651 0.70971 0.0
H694 H 0.53318 0.10309 0.73976 0.0
C695 C 0.6198 0.23577 0.74971 0.0
loop_
_geom_bond_atom_site_label_1
_geom_bond_atom_site_label_2
_geom_bond_distance
_geom_bond_site_symmetry_2
_ccdc_geom_bond_type
Co0 N4 2.148 . S
Co0 N10 2.128 1_556 S
Co0 N20 2.194 1_556 S
Co0 O25 2.351 . S
Co0 O26 2.155 . S
Co0 O27 2.096 . S
C1 N4 1.301 . S
C1 N5 1.328 . S
C1 H6 0.930 . S
C2 C3 1.333 . S
C2 N4 1.317 . S
C2 H7 0.930 . S
C3 C2 1.333 . S
C3 N5 1.350 . S
C3 H29 0.931 . S
N4 Co0 2.148 . S
N4 C1 1.301 . S
N4 C2 1.317 . S
N5 C1 1.328 . S
N5 C3 1.350 . S
H6 C1 0.930 . S
H7 C2 0.930 . S
C8 O9 1.224 . S
C8 O27 1.247 1_554 S
O9 C8 1.224 . S
N10 Co0 2.128 1_554 S
N10 C11 1.355 . S
N10 C13 1.311 . S
C11 N10 1.355 . S
C11 C12 1.363 . S
C11 H23 0.929 . S
C12 C11 1.363 . S
C12 N14 1.375 . S
C12 H30 0.931 . S
C13 N10 1.311 . S
C13 N14 1.347 . S
C13 H24 0.929 . S
N14 C12 1.375 . S
N14 C13 1.347 . S
C15 C18 1.365 . S
C15 N20 1.328 . S
C15 H21 0.929 . S
C16 C17 1.362 . S
C16 C19 1.378 . S
C16 H31 0.929 . S
C17 C16 1.362 . S
C17 C18 1.366 . S
C18 C15 1.365 . S
C18 C17 1.366 . S
C18 H32 0.930 . S
C19 C16 1.378 . S
C19 N20 1.315 . S
C19 H22 0.930 . S
N20 Co0 2.194 1_554 S
N20 C15 1.328 . S
N20 C19 1.315 . S
H21 C15 0.929 . S
H22 C19 0.930 . S
H23 C11 0.929 . S
H24 C13 0.929 . S
O25 Co0 2.351 . S
O25 C28 1.244 . S
O26 Co0 2.155 . S
O26 C28 1.240 . S
O27 Co0 2.096 . S
O27 C8 1.247 1_556 S
C28 O25 1.244 . S
C28 O26 1.240 . S
H29 C3 0.931 . S
H30 C12 0.931 . S
H31 C16 0.929 . S
H32 C18 0.930 . S
Co33 N37 2.148 . S
Co33 N43 2.128 . S
Co33 N53 2.194 . S
Co33 O58 2.351 . S
Co33 O59 2.155 . S
Co33 O60 2.096 . S
C34 N37 1.301 . S
C34 N38 1.328 . S
C34 H39 0.930 . S
C35 C36 1.333 . S
C35 N37 1.317 . S
C35 H40 0.930 . S
C36 C35 1.333 . S
C36 N38 1.350 . S
C36 H62 0.931 . S
N37 Co33 2.148 . S
N37 C34 1.301 . S
N37 C35 1.317 . S
N38 C34 1.328 . S
N38 C36 1.350 . S
H39 C34 0.930 . S
H40 C35 0.930 . S
C41 O42 1.224 . S
C41 O60 1.247 . S
O42 C41 1.224 . S
N43 Co33 2.128 . S
N43 C44 1.355 . S
N43 C46 1.311 . S
C44 N43 1.355 . S
C44 C45 1.363 . S
C44 H56 0.929 . S
C45 C44 1.363 . S
C45 N47 1.375 . S
C45 H63 0.931 . S
C46 N43 1.311 . S
C46 N47 1.347 . S
C46 H57 0.929 . S
N47 C45 1.375 . S
N47 C46 1.347 . S
C48 C51 1.365 . S
C48 N53 1.328 . S
C48 H54 0.929 . S
C49 C50 1.362 . S
C49 C52 1.378 . S
C49 H64 0.929 . S
C50 C49 1.362 . S
C50 C51 1.366 . S
C51 C48 1.365 . S
C51 C50 1.366 . S
C51 H65 0.930 . S
C52 C49 1.378 . S
C52 N53 1.315 . S
C52 H55 0.930 . S
N53 Co33 2.194 . S
N53 C48 1.328 . S
N53 C52 1.315 . S
H54 C48 0.929 . S
H55 C52 0.930 . S
H56 C44 0.929 . S
H57 C46 0.929 . S
O58 Co33 2.351 . S
O58 C61 1.244 . S
O59 Co33 2.155 . S
O59 C61 1.240 . S
O60 Co33 2.096 . S
O60 C41 1.247 . S
C61 O58 1.244 . S
C61 O59 1.240 . S
H62 C36 0.931 . S
H63 C45 0.931 . S
H64 C49 0.929 . S
H65 C51 0.930 . S
Co66 N70 2.148 . S
Co66 N76 2.128 . S
Co66 N86 2.194 . S
Co66 O91 2.351 . S
Co66 O92 2.155 . S
Co66 O93 2.096 . S
C67 N70 1.301 . S
C67 N71 1.328 . S
C67 H72 0.930 . S
C68 C69 1.333 . S
C68 N70 1.317 . S
C68 H73 0.930 . S
C69 C68 1.333 . S
C69 N71 1.350 . S
C69 H95 0.931 . S
N70 Co66 2.148 . S
N70 C67 1.301 . S
N70 C68 1.317 . S
N71 C67 1.328 . S
N71 C69 1.350 . S
H72 C67 0.930 . S
H73 C68 0.930 . S
C74 O75 1.224 . S
C74 O93 1.247 . S
O75 C74 1.224 . S
N76 Co66 2.128 . S
N76 C77 1.355 . S
N76 C79 1.311 . S
C77 N76 1.355 . S
C77 C78 1.363 . S
C77 H89 0.929 . S
C78 C77 1.363 . S
C78 N80 1.375 . S
C78 H96 0.931 . S
C79 N76 1.311 . S
C79 N80 1.347 . S
C79 H90 0.929 . S
N80 C78 1.375 . S
N80 C79 1.347 . S
C81 C84 1.365 . S
C81 N86 1.328 . S
C81 H87 0.929 . S
C82 C83 1.362 . S
C82 C85 1.378 . S
C82 H97 0.929 . S
C83 C82 1.362 . S
C83 C84 1.366 . S
C84 C81 1.365 . S
C84 C83 1.366 . S
C84 H98 0.930 . S
C85 C82 1.378 . S
C85 N86 1.315 . S
C85 H88 0.930 . S
N86 Co66 2.194 . S
N86 C81 1.328 . S
N86 C85 1.315 . S
H87 C81 0.929 . S
H88 C85 0.930 . S
H89 C77 0.929 . S
H90 C79 0.929 . S
O91 Co66 2.351 . S
O91 C94 1.244 . S
O92 Co66 2.155 . S
O92 C94 1.240 . S
O93 Co66 2.096 . S
O93 C74 1.247 . S
C94 O91 1.244 . S
C94 O92 1.240 . S
H95 C69 0.931 . S
H96 C78 0.931 . S
H97 C82 0.929 . S
H98 C84 0.930 . S
Co99 N103 2.148 . S
Co99 N109 2.128 . S
Co99 N119 2.194 . S
Co99 O124 2.351 . S
Co99 O125 2.155 . S
Co99 O126 2.096 . S
C100 N103 1.301 . S
C100 N104 1.328 . S
C100 H105 0.930 . S
C101 C102 1.333 . S
C101 N103 1.317 . S
C101 H106 0.930 . S
C102 C101 1.333 . S
C102 N104 1.350 . S
C102 H128 0.931 . S
N103 Co99 2.148 . S
N103 C100 1.301 . S
N103 C101 1.317 . S
N104 C100 1.328 . S
N104 C102 1.350 . S
H105 C100 0.930 . S
H106 C101 0.930 . S
C107 O108 1.224 . S
C107 O126 1.247 . S
O108 C107 1.224 . S
N109 Co99 2.128 . S
N109 C110 1.355 . S
N109 C112 1.311 . S
C110 N109 1.355 . S
C110 C111 1.363 . S
C110 H122 0.929 . S
C111 C110 1.363 . S
C111 N113 1.375 . S
C111 H129 0.931 . S
C112 N109 1.311 . S
C112 N113 1.347 . S
C112 H123 0.929 . S
N113 C111 1.375 . S
N113 C112 1.347 . S
C114 C117 1.365 . S
C114 N119 1.328 . S
C114 H120 0.929 . S
C115 C116 1.362 . S
C115 C118 1.378 . S
C115 H130 0.929 . S
C116 C115 1.362 . S
C116 C117 1.366 . S
C117 C114 1.365 . S
C117 C116 1.366 . S
C117 H131 0.930 . S
C118 C115 1.378 . S
C118 N119 1.315 . S
C118 H121 0.930 . S
N119 Co99 2.194 . S
N119 C114 1.328 . S
N119 C118 1.315 . S
H120 C114 0.929 . S
H121 C118 0.930 . S
H122 C110 0.929 . S
H123 C112 0.929 . S
O124 Co99 2.351 . S
O124 C127 1.244 . S
O125 Co99 2.155 . S
O125 C127 1.240 . S
O126 Co99 2.096 . S
O126 C107 1.247 . S
C127 O124 1.244 . S
C127 O125 1.240 . S
H128 C102 0.931 . S
H129 C111 0.931 . S
H130 C115 0.929 . S
H131 C117 0.930 . S
Co132 N136 2.148 . S
Co132 N142 2.128 . S
Co132 N152 2.194 . S
Co132 O157 2.351 . S
Co132 O158 2.155 . S
Co132 O159 2.096 . S
C133 N136 1.301 . S
C133 N137 1.328 . S
C133 H138 0.930 . S
C134 C135 1.333 . S
C134 N136 1.317 . S
C134 H139 0.930 . S
C135 C134 1.333 . S
C135 N137 1.350 . S
C135 H161 0.931 . S
N136 Co132 2.148 . S
N136 C133 1.301 . S
N136 C134 1.317 . S
N137 C133 1.328 . S
N137 C135 1.350 . S
H138 C133 0.930 . S
H139 C134 0.930 . S
C140 O141 1.224 . S
C140 O159 1.247 . S
O141 C140 1.224 . S
N142 Co132 2.128 . S
N142 C143 1.355 . S
N142 C145 1.311 . S
C143 N142 1.355 . S
C143 C144 1.363 . S
C143 H155 0.929 . S
C144 C143 1.363 . S
C144 N146 1.375 . S
C144 H162 0.931 . S
C145 N142 1.311 . S
C145 N146 1.347 . S
C145 H156 0.929 . S
N146 C144 1.375 . S
N146 C145 1.347 . S
C147 C150 1.365 . S
C147 N152 1.328 . S
C147 H153 0.929 . S
C148 C149 1.362 . S
C148 C151 1.378 . S
C148 H163 0.929 . S
C149 C148 1.362 . S
C149 C150 1.366 . S
C150 C147 1.365 . S
C150 C149 1.366 . S
C150 H164 0.930 . S
C151 C148 1.378 . S
C151 N152 1.315 . S
C151 H154 0.930 . S
N152 Co132 2.194 . S
N152 C147 1.328 . S
N152 C151 1.315 . S
H153 C147 0.929 . S
H154 C151 0.930 . S
H155 C143 0.929 . S
H156 C145 0.929 . S
O157 Co132 2.351 . S
O157 C160 1.244 . S
O158 Co132 2.155 . S
O158 C160 1.240 . S
O159 Co132 2.096 . S
O159 C140 1.247 . S
C160 O157 1.244 . S
C160 O158 1.240 . S
H161 C135 0.931 . S
H162 C144 0.931 . S
H163 C148 0.929 . S
H164 C150 0.930 . S
Co165 N169 2.148 . S
Co165 N175 2.128 . S
Co165 N185 2.194 . S
Co165 O190 2.351 . S
Co165 O191 2.155 . S
Co165 O192 2.096 . S
C166 N169 1.301 . S
C166 N170 1.328 . S
C166 H171 0.930 . S
C167 C168 1.333 . S
C167 N169 1.317 . S
C167 H172 0.930 . S
C168 C167 1.333 . S
C168 N170 1.350 . S
C168 H194 0.931 . S
N169 Co165 2.148 . S
N169 C166 1.301 . S
N169 C167 1.317 . S
N170 C166 1.328 . S
N170 C168 1.350 . S
H171 C166 0.930 . S
H172 C167 0.930 . S
C173 O174 1.224 . S
C173 O192 1.247 . S
O174 C173 1.224 . S
N175 Co165 2.128 . S
N175 C176 1.355 . S
N175 C178 1.311 . S
C176 N175 1.355 . S
C176 C177 1.363 . S
C176 H188 0.929 . S
C177 C176 1.363 . S
C177 N179 1.375 . S
C177 H195 0.931 . S
C178 N175 1.311 . S
C178 N179 1.347 . S
C178 H189 0.929 . S
N179 C177 1.375 . S
N179 C178 1.347 . S
C180 C183 1.365 . S
C180 N185 1.328 . S
C180 H186 0.929 . S
C181 C182 1.362 . S
C181 C184 1.378 . S
C181 H196 0.929 . S
C182 C181 1.362 . S
C182 C183 1.366 . S
C183 C180 1.365 . S
C183 C182 1.366 . S
C183 H197 0.930 . S
C184 C181 1.378 . S
C184 N185 1.315 . S
C184 H187 0.930 . S
N185 Co165 2.194 . S
N185 C180 1.328 . S
N185 C184 1.315 . S
H186 C180 0.929 . S
H187 C184 0.930 . S
H188 C176 0.929 . S
H189 C178 0.929 . S
O190 Co165 2.351 . S
O190 C193 1.244 . S
O191 Co165 2.155 . S
O191 C193 1.240 . S
O192 Co165 2.096 . S
O192 C173 1.247 . S
C193 O190 1.244 . S
C193 O191 1.240 . S
H194 C168 0.931 . S
H195 C177 0.931 . S
H196 C181 0.929 . S
H197 C183 0.930 . S
Co198 N202 2.148 . S
Co198 N208 2.128 . S
Co198 N218 2.194 . S
Co198 O223 2.351 . S
Co198 O224 2.155 . S
Co198 O225 2.096 . S
C199 N202 1.301 . S
C199 N203 1.328 . S
C199 H204 0.930 . S
C200 C201 1.333 . S
C200 N202 1.317 . S
C200 H205 0.930 . S
C201 C200 1.333 . S
C201 N203 1.350 . S
C201 H227 0.931 . S
N202 Co198 2.148 . S
N202 C199 1.301 . S
N202 C200 1.317 . S
N203 C199 1.328 . S
N203 C201 1.350 . S
H204 C199 0.930 . S
H205 C200 0.930 . S
C206 O207 1.224 . S
C206 O225 1.247 . S
O207 C206 1.224 . S
N208 Co198 2.128 . S
N208 C209 1.355 . S
N208 C211 1.311 . S
C209 N208 1.355 . S
C209 C210 1.363 . S
C209 H221 0.929 . S
C210 C209 1.363 . S
C210 N212 1.375 . S
C210 H228 0.931 . S
C211 N208 1.311 . S
C211 N212 1.347 . S
C211 H222 0.929 . S
N212 C210 1.375 . S
N212 C211 1.347 . S
C213 C216 1.365 . S
C213 N218 1.328 . S
C213 H219 0.929 . S
C214 C215 1.362 . S
C214 C217 1.378 . S
C214 H229 0.929 . S
C215 C214 1.362 . S
C215 C216 1.366 . S
C216 C213 1.365 . S
C216 C215 1.366 . S
C216 H230 0.930 . S
C217 C214 1.378 . S
C217 N218 1.315 . S
C217 H220 0.930 . S
N218 Co198 2.194 . S
N218 C213 1.328 . S
N218 C217 1.315 . S
H219 C213 0.929 . S
H220 C217 0.930 . S
H221 C209 0.929 . S
H222 C211 0.929 . S
O223 Co198 2.351 . S
O223 C226 1.244 . S
O224 Co198 2.155 . S
O224 C226 1.240 . S
O225 Co198 2.096 . S
O225 C206 1.247 . S
C226 O223 1.244 . S
C226 O224 1.240 . S
H227 C201 0.931 . S
H228 C210 0.931 . S
H229 C214 0.929 . S
H230 C216 0.930 . S
Co231 N235 2.148 . S
Co231 N241 2.128 1_554 S
Co231 N251 2.194 1_554 S
Co231 O256 2.351 . S
Co231 O257 2.155 . S
Co231 O258 2.096 . S
C232 N235 1.301 . S
C232 N236 1.328 . S
C232 H237 0.930 . S
C233 C234 1.333 . S
C233 N235 1.317 . S
C233 H238 0.930 . S
C234 C233 1.333 . S
C234 N236 1.350 . S
C234 H260 0.931 . S
N235 Co231 2.148 . S
N235 C232 1.301 . S
N235 C233 1.317 . S
N236 C232 1.328 . S
N236 C234 1.350 . S
H237 C232 0.930 . S
H238 C233 0.930 . S
C239 O240 1.224 . S
C239 O258 1.247 1_556 S
O240 C239 1.224 . S
N241 Co231 2.128 1_556 S
N241 C242 1.355 . S
N241 C244 1.311 . S
C242 N241 1.355 . S
C242 C243 1.363 . S
C242 H254 0.929 . S
C243 C242 1.363 . S
C243 N245 1.375 . S
C243 H261 0.931 . S
C244 N241 1.311 . S
C244 N245 1.347 . S
C244 H255 0.929 . S
N245 C243 1.375 . S
N245 C244 1.347 . S
C246 C249 1.365 . S
C246 N251 1.328 . S
C246 H252 0.929 . S
C247 C248 1.362 . S
C247 C250 1.378 . S
C247 H262 0.929 . S
C248 C247 1.362 . S
C248 C249 1.366 . S
C249 C246 1.365 . S
C249 C248 1.366 . S
C249 H263 0.930 . S
C250 C247 1.378 . S
C250 N251 1.315 . S
C250 H253 0.930 . S
N251 Co231 2.194 1_556 S
N251 C246 1.328 . S
N251 C250 1.315 . S
H252 C246 0.929 . S
H253 C250 0.930 . S
H254 C242 0.929 . S
H255 C244 0.929 . S
O256 Co231 2.351 . S
O256 C259 1.244 . S
O257 Co231 2.155 . S
O257 C259 1.240 . S
O258 Co231 2.096 . S
O258 C239 1.247 1_554 S
C259 O256 1.244 . S
C259 O257 1.240 . S
H260 C234 0.931 . S
H261 C243 0.931 . S
H262 C247 0.929 . S
H263 C249 0.930 . S
Co264 N268 2.148 . S
Co264 N274 2.128 . S
Co264 N284 2.194 . S
Co264 O289 2.351 . S
Co264 O290 2.155 . S
Co264 O291 2.096 . S
C265 N268 1.301 . S
C265 N269 1.328 . S
C265 H270 0.930 . S
C266 C267 1.333 . S
C266 N268 1.317 . S
C266 H271 0.930 . S
C267 C266 1.333 . S
C267 N269 1.350 . S
C267 H293 0.931 . S
N268 Co264 2.148 . S
N268 C265 1.301 . S
N268 C266 1.317 . S
N269 C265 1.328 . S
N269 C267 1.350 . S
H270 C265 0.930 . S
H271 C266 0.930 . S
C272 O273 1.224 . S
C272 O291 1.247 . S
O273 C272 1.224 . S
N274 Co264 2.128 . S
N274 C275 1.355 . S
N274 C277 1.311 . S
C275 N274 1.355 . S
C275 C276 1.363 . S
C275 H287 0.929 . S
C276 C275 1.363 . S
C276 N278 1.375 . S
C276 H294 0.931 . S
C277 N274 1.311 . S
C277 N278 1.347 . S
C277 H288 0.929 . S
N278 C276 1.375 . S
N278 C277 1.347 . S
C279 C282 1.365 . S
C279 N284 1.328 . S
C279 H285 0.929 . S
C280 C281 1.362 . S
C280 C283 1.378 . S
C280 H295 0.929 . S
C281 C280 1.362 . S
C281 C282 1.366 . S
C282 C279 1.365 . S
C282 C281 1.366 . S
C282 H296 0.930 . S
C283 C280 1.378 . S
C283 N284 1.315 . S
C283 H286 0.930 . S
N284 Co264 2.194 . S
N284 C279 1.328 . S
N284 C283 1.315 . S
H285 C279 0.929 . S
H286 C283 0.930 . S
H287 C275 0.929 . S
H288 C277 0.929 . S
O289 Co264 2.351 . S
O289 C292 1.244 . S
O290 Co264 2.155 . S
O290 C292 1.240 . S
O291 Co264 2.096 . S
O291 C272 1.247 . S
C292 O289 1.244 . S
C292 O290 1.240 . S
H293 C267 0.931 . S
H294 C276 0.931 . S
H295 C280 0.929 . S
H296 C282 0.930 . S
Co297 N301 2.148 . S
Co297 N307 2.128 . S
Co297 N317 2.194 . S
Co297 O322 2.351 . S
Co297 O323 2.155 . S
Co297 O324 2.096 . S
C298 N301 1.301 . S
C298 N302 1.328 . S
C298 H303 0.930 . S
C299 C300 1.333 . S
C299 N301 1.317 . S
C299 H304 0.930 . S
C300 C299 1.333 . S
C300 N302 1.350 . S
C300 H326 0.931 . S
N301 Co297 2.148 . S
N301 C298 1.301 . S
N301 C299 1.317 . S
N302 C298 1.328 . S
N302 C300 1.350 . S
H303 C298 0.930 . S
H304 C299 0.930 . S
C305 O306 1.224 . S
C305 O324 1.247 . S
O306 C305 1.224 . S
N307 Co297 2.128 . S
N307 C308 1.355 . S
N307 C310 1.311 . S
C308 N307 1.355 . S
C308 C309 1.363 . S
C308 H320 0.929 . S
C309 C308 1.363 . S
C309 N311 1.375 . S
C309 H327 0.931 . S
C310 N307 1.311 . S
C310 N311 1.347 . S
C310 H321 0.929 . S
N311 C309 1.375 . S
N311 C310 1.347 . S
C312 C315 1.365 . S
C312 N317 1.328 . S
C312 H318 0.929 . S
C313 C314 1.362 . S
C313 C316 1.378 . S
C313 H328 0.929 . S
C314 C313 1.362 . S
C314 C315 1.366 . S
C315 C312 1.365 . S
C315 C314 1.366 . S
C315 H329 0.930 . S
C316 C313 1.378 . S
C316 N317 1.315 . S
C316 H319 0.930 . S
N317 Co297 2.194 . S
N317 C312 1.328 . S
N317 C316 1.315 . S
H318 C312 0.929 . S
H319 C316 0.930 . S
H320 C308 0.929 . S
H321 C310 0.929 . S
O322 Co297 2.351 . S
O322 C325 1.244 . S
O323 Co297 2.155 . S
O323 C325 1.240 . S
O324 Co297 2.096 . S
O324 C305 1.247 . S
C325 O322 1.244 . S
C325 O323 1.240 . S
H326 C300 0.931 . S
H327 C309 0.931 . S
H328 C313 0.929 . S
H329 C315 0.930 . S
Co330 N334 2.148 . S
Co330 N340 2.128 . S
Co330 N350 2.194 . S
Co330 O355 2.351 . S
Co330 O356 2.155 . S
Co330 O357 2.096 . S
C331 N334 1.301 . S
C331 N335 1.328 . S
C331 H336 0.930 . S
C332 C333 1.333 . S
C332 N334 1.317 . S
C332 H337 0.930 . S
C333 C332 1.333 . S
C333 N335 1.350 . S
C333 H359 0.931 . S
N334 Co330 2.148 . S
N334 C331 1.301 . S
N334 C332 1.317 . S
N335 C331 1.328 . S
N335 C333 1.350 . S
H336 C331 0.930 . S
H337 C332 0.930 . S
C338 O339 1.224 . S
C338 O357 1.247 . S
O339 C338 1.224 . S
N340 Co330 2.128 . S
N340 C341 1.355 . S
N340 C343 1.311 . S
C341 N340 1.355 . S
C341 C342 1.363 . S
C341 H353 0.929 . S
C342 C341 1.363 . S
C342 N344 1.375 . S
C342 H360 0.931 . S
C343 N340 1.311 . S
C343 N344 1.347 . S
C343 H354 0.929 . S
N344 C342 1.375 . S
N344 C343 1.347 . S
C345 C348 1.365 . S
C345 N350 1.328 . S
C345 H351 0.929 . S
C346 C347 1.362 . S
C346 C349 1.378 . S
C346 H361 0.929 . S
C347 C346 1.362 . S
C347 C348 1.366 . S
C348 C345 1.365 . S
C348 C347 1.366 . S
C348 H362 0.930 . S
C349 C346 1.378 . S
C349 N350 1.315 . S
C349 H352 0.930 . S
N350 Co330 2.194 . S
N350 C345 1.328 . S
N350 C349 1.315 . S
H351 C345 0.929 . S
H352 C349 0.930 . S
H353 C341 0.929 . S
H354 C343 0.929 . S
O355 Co330 2.351 . S
O355 C358 1.244 . S
O356 Co330 2.155 . S
O356 C358 1.240 . S
O357 Co330 2.096 . S
O357 C338 1.247 . S
C358 O355 1.244 . S
C358 O356 1.240 . S
H359 C333 0.931 . S
H360 C342 0.931 . S
H361 C346 0.929 . S
H362 C348 0.930 . S
Co363 N367 2.148 . S
Co363 N373 2.128 . S
Co363 N383 2.194 . S
Co363 O388 2.351 . S
Co363 O389 2.155 . S
Co363 O390 2.096 . S
C364 N367 1.301 . S
C364 N368 1.328 . S
C364 H369 0.930 . S
C365 C366 1.333 . S
C365 N367 1.317 . S
C365 H370 0.930 . S
C366 C365 1.333 . S
C366 N368 1.350 . S
C366 H392 0.931 . S
N367 Co363 2.148 . S
N367 C364 1.301 . S
N367 C365 1.317 . S
N368 C364 1.328 . S
N368 C366 1.350 . S
H369 C364 0.930 . S
H370 C365 0.930 . S
C371 O372 1.224 . S
C371 O390 1.247 . S
O372 C371 1.224 . S
N373 Co363 2.128 . S
N373 C374 1.355 . S
N373 C376 1.311 . S
C374 N373 1.355 . S
C374 C375 1.363 . S
C374 H386 0.929 . S
C375 C374 1.363 . S
C375 N377 1.375 . S
C375 H393 0.931 . S
C376 N373 1.311 . S
C376 N377 1.347 . S
C376 H387 0.929 . S
N377 C375 1.375 . S
N377 C376 1.347 . S
C378 C381 1.365 . S
C378 N383 1.328 . S
C378 H384 0.929 . S
C379 C380 1.362 . S
C379 C382 1.378 . S
C379 H394 0.929 . S
C380 C379 1.362 . S
C380 C381 1.366 . S
C381 C378 1.365 . S
C381 C380 1.366 . S
C381 H395 0.930 . S
C382 C379 1.378 . S
C382 N383 1.315 . S
C382 H385 0.930 . S
N383 Co363 2.194 . S
N383 C378 1.328 . S
N383 C382 1.315 . S
H384 C378 0.929 . S
H385 C382 0.930 . S
H386 C374 0.929 . S
H387 C376 0.929 . S
O388 Co363 2.351 . S
O388 C391 1.244 . S
O389 Co363 2.155 . S
O389 C391 1.240 . S
O390 Co363 2.096 . S
O390 C371 1.247 . S
C391 O388 1.244 . S
C391 O389 1.240 . S
H392 C366 0.931 . S
H393 C375 0.931 . S
H394 C379 0.929 . S
H395 C381 0.930 . S
C396 C397 1.387 . S
C396 H400 0.950 . S
C396 C405 1.390 . S
C397 C396 1.387 . S
C397 C399 1.387 . S
H398 C405 0.950 . S
C399 C397 1.387 . S
C399 C401 1.390 . S
C399 H403 0.950 . S
H400 C396 0.950 . S
C401 C399 1.390 . S
C401 C402 1.387 . S
C401 H404 0.950 . S
C402 C401 1.387 . S
C402 C405 1.387 . S
H403 C399 0.950 . S
H404 C401 0.950 . S
C405 C396 1.390 . S
C405 H398 0.950 . S
C405 C402 1.387 . S
C406 C407 1.387 . S
C406 H410 0.950 . S
C406 C415 1.390 . S
C407 C406 1.387 . S
C407 C409 1.387 . S
H408 C415 0.950 . S
C409 C407 1.387 . S
C409 C411 1.390 . S
C409 H413 0.950 1_554 S
H410 C406 0.950 . S
C411 C409 1.390 . S
C411 C412 1.387 . S
C411 H414 0.950 . S
C412 C411 1.387 . S
C412 C415 1.387 . S
H413 C409 0.950 1_556 S
H414 C411 0.950 . S
C415 C406 1.390 . S
C415 H408 0.950 . S
C415 C412 1.387 . S
C416 C417 1.387 . S
C416 H420 0.950 . S
C416 C425 1.390 . S
C417 C416 1.387 . S
C417 C419 1.387 . S
H418 C425 0.950 . S
C419 C417 1.387 . S
C419 C421 1.390 . S
C419 H423 0.950 . S
H420 C416 0.950 . S
C421 C419 1.390 . S
C421 C422 1.387 . S
C421 H424 0.950 . S
C422 C421 1.387 . S
C422 C425 1.387 . S
H423 C419 0.950 . S
H424 C421 0.950 . S
C425 C416 1.390 . S
C425 H418 0.950 . S
C425 C422 1.387 . S
C426 C427 1.387 . S
C426 H430 0.950 . S
C426 C435 1.390 . S
C427 C426 1.387 . S
C427 C429 1.387 . S
H428 C435 0.950 . S
C429 C427 1.387 . S
C429 C431 1.390 . S
C429 H433 0.950 . S
H430 C426 0.950 . S
C431 C429 1.390 . S
C431 C432 1.387 . S
C431 H434 0.950 . S
C432 C431 1.387 . S
C432 C435 1.387 . S
H433 C429 0.950 . S
H434 C431 0.950 . S
C435 C426 1.390 . S
C435 H428 0.950 . S
C435 C432 1.387 . S
C436 C437 1.387 . S
C436 H440 0.950 . S
C436 C445 1.390 . S
C437 C436 1.387 . S
C437 C439 1.387 . S
H438 C445 0.950 . S
C439 C437 1.387 . S
C439 C441 1.390 . S
C439 H443 0.954 . S
H440 C436 0.950 . S
C441 C439 1.390 . S
C441 C442 1.387 . S
C441 H444 0.950 . S
C442 C441 1.387 . S
C442 C445 1.387 . S
H443 C439 0.954 . S
H444 C441 0.950 . S
C445 C436 1.390 . S
C445 H438 0.950 . S
C445 C442 1.387 . S
C446 C447 1.387 . S
C446 H450 0.950 . S
C446 C455 1.390 . S
C447 C446 1.387 . S
C447 C449 1.387 . S
H448 C455 0.950 . S
C449 C447 1.387 . S
C449 C451 1.390 . S
C449 H453 0.950 . S
H450 C446 0.950 . S
C451 C449 1.390 . S
C451 C452 1.387 . S
C451 H454 0.950 1_565 S
C452 C451 1.387 . S
C452 C455 1.387 . S
H453 C449 0.950 . S
H454 C451 0.950 1_545 S
C455 C446 1.390 . S
C455 H448 0.950 . S
C455 C452 1.387 . S
C456 C457 1.387 . S
C456 H460 0.950 . S
C456 C465 1.390 . S
C457 C456 1.387 . S
C457 C459 1.387 . S
H458 C465 0.950 . S
C459 C457 1.387 . S
C459 C461 1.390 . S
C459 H463 0.950 1_556 S
H460 C456 0.950 . S
C461 C459 1.390 . S
C461 C462 1.387 . S
C461 H464 0.950 . S
C462 C461 1.387 . S
C462 C465 1.387 . S
H463 C459 0.950 1_554 S
H464 C461 0.950 . S
C465 C456 1.390 . S
C465 H458 0.950 . S
C465 C462 1.387 . S
C466 C467 1.387 . S
C466 H470 0.950 . S
C466 C475 1.390 . S
C467 C466 1.387 . S
C467 C469 1.387 . S
H468 C475 0.950 1_655 S
C469 C467 1.387 . S
C469 C471 1.390 . S
C469 H473 0.950 . S
H470 C466 0.950 . S
C471 C469 1.390 . S
C471 C472 1.387 . S
C471 H474 0.950 . S
C472 C471 1.387 . S
C472 C475 1.387 . S
H473 C469 0.950 . S
H474 C471 0.950 . S
C475 C466 1.390 . S
C475 H468 0.950 1_455 S
C475 C472 1.387 . S
C476 C477 1.387 . S
C476 H480 0.950 . S
C476 C485 1.390 . S
C477 C476 1.387 . S
C477 C479 1.387 . S
H478 C485 0.950 1_565 S
C479 C477 1.387 . S
C479 C481 1.390 . S
C479 H483 0.950 . S
H480 C476 0.950 . S
C481 C479 1.390 . S
C481 C482 1.387 . S
C481 H484 0.950 . S
C482 C481 1.387 . S
C482 C485 1.387 . S
H483 C479 0.950 . S
H484 C481 0.950 . S
C485 C476 1.390 . S
C485 H478 0.950 1_545 S
C485 C482 1.387 . S
C486 C487 1.387 . S
C486 H490 0.950 . S
C486 C495 1.390 . S
C487 C486 1.387 . S
C487 C489 1.387 . S
H488 C495 0.950 . S
C489 C487 1.387 . S
C489 C491 1.390 . S
C489 H493 0.950 . S
H490 C486 0.950 . S
C491 C489 1.390 . S
C491 C492 1.387 . S
C491 H494 0.950 . S
C492 C491 1.387 . S
C492 C495 1.387 . S
H493 C489 0.950 . S
H494 C491 0.950 . S
C495 C486 1.390 . S
C495 H488 0.950 . S
C495 C492 1.387 . S
C496 C497 1.387 . S
C496 H500 0.950 . S
C496 C505 1.390 . S
C497 C496 1.387 . S
C497 C499 1.387 . S
H498 C505 0.950 . S
C499 C497 1.387 . S
C499 C501 1.390 . S
C499 H503 0.950 . S
H500 C496 0.950 . S
C501 C499 1.390 . S
C501 C502 1.387 . S
C501 H504 0.950 1_655 S
C502 C501 1.387 . S
C502 C505 1.387 . S
H503 C499 0.950 . S
H504 C501 0.950 1_455 S
C505 C496 1.390 . S
C505 H498 0.950 . S
C505 C502 1.387 . S
C506 C507 1.387 . S
C506 H510 0.950 . S
C506 C515 1.390 . S
C507 C506 1.387 . S
C507 C509 1.387 . S
H508 C515 0.950 . S
C509 C507 1.387 . S
C509 C511 1.390 . S
C509 H513 0.950 . S
H510 C506 0.950 . S
C511 C509 1.390 . S
C511 C512 1.387 . S
C511 H514 0.950 1_565 S
C512 C511 1.387 . S
C512 C515 1.387 . S
H513 C509 0.950 . S
H514 C511 0.950 1_545 S
C515 C506 1.390 . S
C515 H508 0.950 . S
C515 C512 1.387 . S
C516 C517 1.387 . S
C516 H520 0.950 . S
C516 C525 1.390 . S
C517 C516 1.387 . S
C517 C519 1.387 . S
H518 C525 0.950 . S
C519 C517 1.387 . S
C519 C521 1.390 . S
C519 H523 0.950 . S
H520 C516 0.950 . S
C521 C519 1.390 . S
C521 C522 1.387 . S
C521 H524 0.950 . S
C522 C521 1.387 . S
C522 C525 1.387 . S
H523 C519 0.950 . S
H524 C521 0.950 . S
C525 C516 1.390 . S
C525 H518 0.950 . S
C525 C522 1.387 . S
C526 C527 1.387 . S
C526 H530 0.950 . S
C526 C535 1.390 . S
C527 C526 1.387 . S
C527 C529 1.387 . S
H528 C535 0.950 . S
C529 C527 1.387 . S
C529 C531 1.390 . S
C529 H533 0.950 . S
H530 C526 0.950 . S
C531 C529 1.390 . S
C531 C532 1.387 . S
C531 H534 0.950 . S
C532 C531 1.387 . S
C532 C535 1.387 . S
H533 C529 0.950 . S
H534 C531 0.950 . S
C535 C526 1.390 . S
C535 H528 0.950 . S
C535 C532 1.387 . S
C536 C537 1.387 . S
C536 H540 0.950 . S
C536 C545 1.390 . S
C537 C536 1.387 . S
C537 C539 1.387 . S
H538 C545 0.950 . S
C539 C537 1.387 . S
C539 C541 1.390 . S
C539 H543 0.950 . S
H540 C536 0.950 . S
C541 C539 1.390 . S
C541 C542 1.387 . S
C541 H544 0.950 . S
C542 C541 1.387 . S
C542 C545 1.387 . S
H543 C539 0.950 . S
H544 C541 0.950 . S
C545 C536 1.390 . S
C545 H538 0.950 . S
C545 C542 1.387 . S
C546 C547 1.387 . S
C546 H550 0.950 . S
C546 C555 1.390 . S
C547 C546 1.387 . S
C547 C549 1.387 . S
H548 C555 0.950 . S
C549 C547 1.387 . S
C549 C551 1.390 . S
C549 H553 0.950 . S
H550 C546 0.950 . S
C551 C549 1.390 . S
C551 C552 1.387 . S
C551 H554 0.950 . S
C552 C551 1.387 . S
C552 C555 1.387 . S
H553 C549 0.950 . S
H554 C551 0.950 . S
C555 C546 1.390 . S
C555 H548 0.950 . S
C555 C552 1.387 . S
C556 C557 1.387 . S
C556 H560 0.950 . S
C556 C565 1.390 . S
C557 C556 1.387 . S
C557 C559 1.387 . S
H558 C565 0.950 . S
C559 C557 1.387 . S
C559 C561 1.390 . S
C559 H563 0.950 . S
H560 C556 0.950 . S
C561 C559 1.390 . S
C561 C562 1.387 . S
C561 H564 0.950 . S
C562 C561 1.387 . S
C562 C565 1.387 . S
H563 C559 0.950 . S
H564 C561 0.950 . S
C565 C556 1.390 . S
C565 H558 0.950 . S
C565 C562 1.387 . S
C566 C567 1.387 . S
C566 H570 0.950 . S
C566 C575 1.390 . S
C567 C566 1.387 . S
C567 C569 1.387 . S
H568 C575 0.950 . S
C569 C567 1.387 . S
C569 C571 1.390 . S
C569 H573 0.950 . S
H570 C566 0.950 . S
C571 C569 1.390 . S
C571 C572 1.387 . S
C571 H574 0.950 . S
C572 C571 1.387 . S
C572 C575 1.387 . S
H573 C569 0.950 . S
H574 C571 0.950 . S
C575 C566 1.390 . S
C575 H568 0.950 . S
C575 C572 1.387 . S
C576 C577 1.387 . S
C576 H580 0.950 . S
C576 C585 1.390 . S
C577 C576 1.387 . S
C577 C579 1.387 . S
H578 C585 0.950 . S
C579 C577 1.387 . S
C579 C581 1.390 . S
C579 H583 0.950 . S
H580 C576 0.950 . S
C581 C579 1.390 . S
C581 C582 1.387 . S
C581 H584 0.950 . S
C582 C581 1.387 . S
C582 C585 1.387 . S
H583 C579 0.950 . S
H584 C581 0.950 . S
C585 C576 1.390 . S
C585 H578 0.950 . S
C585 C582 1.387 . S
C586 C587 1.387 . S
C586 H590 0.950 . S
C586 C595 1.390 1_455 S
C587 C586 1.387 . S
C587 C589 1.387 . S
H588 C595 0.950 . S
C589 C587 1.387 . S
C589 C591 1.390 1_455 S
C589 H593 0.950 . S
H590 C586 0.950 . S
C591 C589 1.390 1_655 S
C591 C592 1.387 . S
C591 H594 0.950 . S
C592 C591 1.387 . S
C592 C595 1.387 . S
H593 C589 0.950 . S
H594 C591 0.950 . S
C595 C586 1.390 1_655 S
C595 H588 0.950 . S
C595 C592 1.387 . S
C596 C597 1.387 . S
C596 H600 0.950 . S
C596 C605 1.390 1_565 S
C597 C596 1.387 . S
C597 C599 1.387 . S
H598 C605 0.950 . S
C599 C597 1.387 . S
C599 C601 1.390 1_565 S
C599 H603 0.950 . S
H600 C596 0.950 . S
C601 C599 1.390 1_545 S
C601 C602 1.387 . S
C601 H604 0.950 . S
C602 C601 1.387 . S
C602 C605 1.387 . S
H603 C599 0.950 . S
H604 C601 0.950 . S
C605 C596 1.390 1_545 S
C605 H598 0.950 . S
C605 C602 1.387 . S
C606 C607 1.387 . S
C606 H610 0.950 . S
C606 C615 1.390 . S
C607 C606 1.387 . S
C607 C609 1.387 . S
H608 C615 0.950 . S
C609 C607 1.387 . S
C609 C611 1.390 . S
C609 H613 0.950 . S
H610 C606 0.950 . S
C611 C609 1.390 . S
C611 C612 1.387 . S
C611 H614 0.950 . S
C612 C611 1.387 . S
C612 C615 1.387 . S
H613 C609 0.950 . S
H614 C611 0.950 . S
C615 C606 1.390 . S
C615 H608 0.950 . S
C615 C612 1.387 . S
C616 C617 1.387 1_655 S
C616 H620 0.950 . S
C616 C625 1.390 . S
C617 C616 1.387 1_455 S
C617 C619 1.387 . S
H618 C625 0.950 . S
C619 C617 1.387 . S
C619 C621 1.390 . S
C619 H623 0.950 . S
H620 C616 0.950 . S
C621 C619 1.390 . S
C621 C622 1.387 1_455 S
C621 H624 0.950 . S
C622 C621 1.387 1_655 S
C622 C625 1.387 . S
H623 C619 0.950 . S
H624 C621 0.950 . S
C625 C616 1.390 . S
C625 H618 0.950 . S
C625 C622 1.387 . S
C626 C627 1.387 . S
C626 H630 0.950 . S
C626 C635 1.390 1_564 S
C627 C626 1.387 . S
C627 C629 1.387 . S
H628 C635 0.950 . S
C629 C627 1.387 . S
C629 C631 1.390 1_564 S
C629 H633 0.950 . S
H630 C626 0.950 . S
C631 C629 1.390 1_546 S
C631 C632 1.387 . S
C631 H634 0.950 . S
C632 C631 1.387 . S
C632 C635 1.387 . S
H633 C629 0.950 . S
H634 C631 0.950 . S
C635 C626 1.390 1_546 S
C635 H628 0.950 . S
C635 C632 1.387 . S
C636 C637 1.387 . S
C636 H640 0.950 . S
C636 C645 1.390 . S
C637 C636 1.387 . S
C637 C639 1.387 . S
H638 C645 0.950 . S
C639 C637 1.387 . S
C639 C641 1.390 . S
C639 H643 0.950 . S
H640 C636 0.950 . S
C641 C639 1.390 . S
C641 C642 1.387 . S
C641 H644 0.950 . S
C642 C641 1.387 . S
C642 C645 1.387 . S
H643 C639 0.950 . S
H644 C641 0.950 . S
C645 C636 1.390 . S
C645 H638 0.950 . S
C645 C642 1.387 . S
C646 C647 1.387 . S
C646 H650 0.950 . S
C646 C655 1.390 . S
C647 C646 1.387 . S
C647 C649 1.387 . S
H648 C655 0.950 . S
C649 C647 1.387 . S
C649 C651 1.390 . S
C649 H653 0.950 . S
H650 C646 0.950 . S
C651 C649 1.390 . S
C651 C652 1.387 . S
C651 H654 0.950 . S
C652 C651 1.387 . S
C652 C655 1.387 . S
H653 C649 0.950 . S
H654 C651 0.950 . S
C655 C646 1.390 . S
C655 H648 0.950 . S
C655 C652 1.387 . S
C656 C657 1.387 . S
C656 H660 0.950 . S
C656 C665 1.390 . S
C657 C656 1.387 . S
C657 C659 1.387 . S
H658 C665 0.950 . S
C659 C657 1.387 . S
C659 C661 1.390 . S
C659 H663 0.950 . S
H660 C656 0.950 . S
C661 C659 1.390 . S
C661 C662 1.387 . S
C661 H664 0.950 . S
C662 C661 1.387 . S
C662 C665 1.387 . S
H663 C659 0.950 . S
H664 C661 0.950 . S
C665 C656 1.390 . S
C665 H658 0.950 . S
C665 C662 1.387 . S
C666 C667 1.387 . S
C666 H670 0.950 . S
C666 C675 1.390 . S
C667 C666 1.387 . S
C667 C669 1.387 . S
H668 C675 0.950 . S
C669 C667 1.387 . S
C669 C671 1.390 . S
C669 H673 0.950 . S
H670 C666 0.950 . S
C671 C669 1.390 . S
C671 C672 1.387 . S
C671 H674 0.950 . S
C672 C671 1.387 . S
C672 C675 1.387 . S
H673 C669 0.950 . S
H674 C671 0.950 . S
C675 C666 1.390 . S
C675 H668 0.950 . S
C675 C672 1.387 . S
C676 C677 1.387 . S
C676 H680 0.950 . S
C676 C685 1.390 . S
C677 C676 1.387 . S
C677 C679 1.387 . S
H678 C685 0.950 . S
C679 C677 1.387 . S
C679 C681 1.390 . S
C679 H683 0.950 . S
H680 C676 0.950 . S
C681 C679 1.390 . S
C681 C682 1.387 . S
C681 H684 0.950 . S
C682 C681 1.387 . S
C682 C685 1.387 . S
H683 C679 0.950 . S
H684 C681 0.950 . S
C685 C676 1.390 . S
C685 H678 0.950 . S
C685 C682 1.387 . S
C686 C687 1.387 . S
C686 H690 0.950 . S
C686 C695 1.390 . S
C687 C686 1.387 . S
C687 C689 1.387 . S
H688 C695 0.950 . S
C689 C687 1.387 . S
C689 C691 1.390 . S
C689 H693 0.950 . S
H690 C686 0.950 . S
C691 C689 1.390 . S
C691 C692 1.387 . S
C691 H694 0.950 . S
C692 C691 1.387 . S
C692 C695 1.387 . S
H693 C689 0.950 . S
H694 C691 0.950 . S
C695 C686 1.390 . S
C695 H688 0.950 . S
C695 C692 1.387 . S
C397 C173 1.739 . S
C402 N5 1.843 . S
C407 C8 1.736 . S
C412 N38 1.843 1_455 S
C417 C41 1.736 . S
C422 N71 1.843 1_545 S
C427 N104 1.843 . S
C432 C74 1.736 . S
C437 N137 1.843 1_655 S
C442 C107 1.736 . S
C447 C140 1.737 . S
C452 N170 1.843 1_565 S
C457 C239 1.736 . S
C462 N203 1.843 . S
C467 C272 1.737 . S
C472 N236 1.843 1_455 S
C477 C305 1.736 . S
C482 N269 1.843 1_545 S
C487 C338 1.739 . S
C492 N302 1.843 . S
C497 C371 1.738 . S
C502 N335 1.843 1_655 S
C507 C206 1.738 . S
C512 N368 1.843 1_565 S
C517 N278 1.313 . S
C522 N14 1.314 . S
C527 N47 1.314 . S
C532 N311 1.314 . S
C537 N80 1.312 . S
C542 N344 1.315 . S
C547 N113 1.315 . S
C552 N377 1.312 . S
C557 N146 1.314 . S
C562 N212 1.314 . S
C567 N245 1.312 . S
C572 N179 1.315 . S
C577 C314 1.185 . S
C582 C17 1.184 . S
C587 C347 1.184 . S
C592 C50 1.184 . S
C597 C83 1.184 . S
C602 C380 1.184 . S
C607 C116 1.185 . S
C612 C215 1.185 . S
C617 C149 1.184 . S
C622 C248 1.185 . S
C627 C281 1.185 . S
C632 C182 1.185 . S
C637 C28 1.293 . S
C642 C226 1.292 . S
C647 C259 1.292 . S
C652 C61 1.292 . S
C657 C94 1.295 . S
C662 C292 1.295 . S
C667 C325 1.292 . S
C672 C127 1.293 . S
C677 C358 1.292 . S
C682 C160 1.293 . S
C687 C391 1.295 . S
C692 C193 1.295 . S
