# Generated by pormake.
# Topology sxc, (6)-cn, num edge types: 1
# Building blocks:
#     Node 0, Type 0, BuildingBlock: UKALOJ_clean_sbu_0, # of connection points: 6
#     Node 1, Type 0, BuildingBlock: UKALOJ_clean_sbu_0, # of connection points: 6
#     Node 2, Type 0, BuildingBlock: UKALOJ_clean_sbu_0, # of connection points: 6
#     Edge 3, Type (0, 0), BuildingBlock: FUNLAD_clean_linker_0, # of connection points: 2
#     Edge 4, Type (0, 0), BuildingBlock: FUNLAD_clean_linker_0, # of connection points: 2
#     Edge 5, Type (0, 0), BuildingBlock: FUNLAD_clean_linker_0, # of connection points: 2
#     Edge 6, Type (0, 0), BuildingBlock: FUNLAD_clean_linker_0, # of connection points: 2
#     Edge 7, Type (0, 0), BuildingBlock: FUNLAD_clean_linker_0, # of connection points: 2
#     Edge 8, Type (0, 0), BuildingBlock: FUNLAD_clean_linker_0, # of connection points: 2
#     Edge 9, Type (0, 0), BuildingBlock: FUNLAD_clean_linker_0, # of connection points: 2
#     Edge 10, Type (0, 0), BuildingBlock: FUNLAD_clean_linker_0, # of connection points: 2
#     Edge 11, Type (0, 0), BuildingBlock: FUNLAD_clean_linker_0, # of connection points: 2
# Relax obj value: 0.122
# Max RMSD: 0.183
# Mean RMSD: 0.183
data_MOF--net-sxc--node1-UKALOJ_clean_sbu_0--edge1-FUNLAD_clean_linker_0
_symmetry_space_group_name_H-M    P1
_symmetry_Int_Tables_number       1
_symmetry_cell_setting            triclinic
loop_
_symmetry_equiv_pos_as_xyz
'x, y, z'
_cell_length_a     17.464862
_cell_length_b     17.557203
_cell_length_c     68.013198
_cell_angle_alpha  89.883743
_cell_angle_beta   90.446278
_cell_angle_gamma 119.98113
loop_
_atom_site_label
_atom_site_type_symbol
_atom_site_fract_x
_atom_site_fract_y
_atom_site_fract_z
_atom_type_partial_charge
Zn0 Zn -0.0251 0.05259 1.00137 0.0
O1 O 0.00996 0.95358 0.99943 0.0
C2 C 0.79922 0.91895 0.01539 0.0
Zn3 Zn -0.02742 0.04509 0.03424 0.0
C4 C 0.01694 0.91829 0.01519 0.0
O5 O 0.00712 0.94624 0.03168 0.0
C6 C 0.93067 0.1794 0.02057 0.0
O7 O 0.10724 0.14358 0.03587 0.0
O8 O 0.10905 0.15102 1.00362 0.0
N9 N -0.03438 0.02825 0.06427 0.0
C10 C 0.00365 0.08317 0.0797 0.0
C11 C 0.92221 0.95465 0.0913 0.0
N12 N 0.9151 0.94857 0.07157 0.0
N13 N -0.02232 0.03836 0.09687 0.0
C14 C -0.0376 0.01452 0.95589 0.0
C15 C 0.00375 0.14206 0.94432 0.0
N16 N -0.0194 0.06931 0.97135 0.0
N17 N 0.00619 0.14839 0.96406 0.0
N18 N -0.02324 0.05878 0.93875 0.0
H19 H -0.01823 0.90397 0.95771 0.0
H20 H 0.88211 0.88223 0.94498 0.0
H21 H 0.88902 0.89187 0.9715 0.0
C22 C 0.92612 0.9174 0.95765 0.0
C23 C 0.06217 0.18073 0.07788 0.0
H24 H 0.1321 0.19662 0.0777 0.0
H25 H 0.05299 0.21498 0.09056 0.0
H26 H 0.04851 0.20526 0.06405 0.0
O27 O 0.93742 0.14369 0.03627 0.0
O28 O 0.94046 0.15171 1.00405 0.0
C29 C 0.14837 0.17875 0.02007 0.0
O30 O 0.84057 0.95448 0.99966 0.0
O31 O 0.83825 0.94643 0.03188 0.0
Zn32 Zn 0.14008 0.2059 0.33645 0.0
O33 O 0.00646 0.17156 0.33393 0.0
C34 C 0.17767 0.37489 0.35401 0.0
Zn35 Zn 0.13133 0.19737 0.36926 0.0
C36 C -0.0384 0.15788 0.34949 0.0
O37 O -0.00271 0.16202 0.36612 0.0
C38 C 0.30985 0.24571 0.35631 0.0
O39 O 0.09771 0.06404 0.36819 0.0
O40 O 0.10669 0.07267 0.33594 0.0
N41 N 0.11819 0.19484 0.3993 0.0
C42 C 0.13876 0.15775 0.41435 0.0
C43 C 0.08768 0.23447 0.42679 0.0
N44 N 0.08622 0.24207 0.40713 0.0
N45 N 0.12022 0.18182 0.43179 0.0
C46 C 0.10146 0.17087 0.29121 0.0
C47 C 0.22434 0.26751 0.27914 0.0
N48 N 0.15546 0.21536 0.30643 0.0
N49 N 0.23167 0.2753 0.29885 0.0
N50 N 0.14311 0.20271 0.27389 0.0
H51 H 0.00376 0.05968 0.3076 0.0
H52 H -0.0056 0.04613 0.28117 0.0
H53 H -0.03822 0.11674 0.29316 0.0
C54 C 0.01029 0.09348 0.29343 0.0
C55 C 0.18082 0.10203 0.41197 0.0
H56 H 0.21464 0.1142 0.39765 0.0
H57 H 0.1287 0.03176 0.41254 0.0
H58 H 0.22873 0.11488 0.42409 0.0
O59 O 0.26526 0.23335 0.37185 0.0
O60 O 0.27398 0.24051 0.33965 0.0
C61 C 0.09387 0.02851 0.35164 0.0
O62 O 0.17347 0.33913 0.33751 0.0
O63 O 0.1652 0.33082 0.36967 0.0
Zn64 Zn 0.05272 -0.02617 0.69908 0.0
O65 O 0.95445 0.01029 0.69897 0.0
C66 C 0.91999 0.79715 0.68617 0.0
Zn67 Zn 0.0497 0.96533 0.66621 0.0
C68 C 0.92194 0.01513 0.68253 0.0
O69 O 0.95158 0.00147 0.66672 0.0
C70 C 0.18052 0.92413 0.6826 0.0
O71 O 0.14889 0.09816 0.66363 0.0
O72 O 0.15275 0.10633 0.69588 0.0
N73 N 0.03409 0.94992 0.63619 0.0
C74 C 0.08907 -0.015 0.62076 0.0
C75 C -0.03896 0.89646 0.60918 0.0
N76 N 0.95473 0.89496 0.6289 0.0
N77 N 0.0446 0.95264 0.60362 0.0
C78 C 0.01289 -0.0273 0.74424 0.0
C79 C 0.14098 0.01671 0.75649 0.0
N80 N 0.06823 -0.01274 0.72912 0.0
N81 N 0.14764 0.0146 0.73683 0.0
N82 N 0.05715 -0.00906 0.7616 0.0
H83 H 0.89005 0.89707 0.72834 0.0
H84 H 0.90202 -0.00818 0.74115 0.0
H85 H 0.87959 0.895 0.75482 0.0
C86 C 0.91535 0.9364 0.74199 0.0
C87 C 0.18656 0.04679 0.62262 0.0
H88 H 0.19943 0.11534 0.62221 0.0
H89 H 0.2222 0.03746 0.61027 0.0
H90 H 0.2123 0.03684 0.63675 0.0
O91 O 0.14817 0.9295 0.6662 0.0
O92 O 0.1506 0.9371 0.69844 0.0
C93 C 0.1824 0.14216 0.67929 0.0
O94 O 0.95346 0.84158 0.70176 0.0
O95 O 0.94983 0.83246 0.66955 0.0
C96 C 0.92703 0.30506 1.00414 0.0
C97 C 0.92347 0.25974 0.02149 0.0
C98 C 0.93433 0.38788 1.005 0.0
C99 C 0.93843 0.42727 0.02326 0.0
C100 C 0.92942 0.37973 0.04054 0.0
C101 C 0.92257 0.29699 0.0397 0.0
C102 C 0.95211 0.51755 0.02482 0.0
C103 C -0.00304 0.58067 1.01136 0.0
C104 C 0.01054 0.67096 1.01286 0.0
C105 C 0.02114 0.7189 0.99556 0.0
C106 C 0.02769 0.80152 0.99631 0.0
C107 C 0.02466 0.8382 1.01443 0.0
H108 H 0.00875 0.6768 0.04478 0.0
C109 C 0.01968 0.79257 0.03182 0.0
C110 C 0.01284 0.70994 0.03107 0.0
H111 H 0.01817 0.81933 0.04606 0.0
H112 H 0.92703 0.27789 0.98986 0.0
H113 H 0.93731 0.42086 0.99133 0.0
H114 H 0.93092 0.40802 0.05478 0.0
H115 H 0.91966 0.26372 0.05334 0.0
H116 H 0.92627 0.53255 0.0378 0.0
H117 H 0.02282 0.56554 0.99839 0.0
H118 H 0.02119 0.69103 0.98136 0.0
H119 H 0.03221 0.8352 0.98265 0.0
C120 C 0.44238 0.25626 0.34001 0.0
C121 C 0.39801 0.25367 0.35737 0.0
C122 C 0.51795 0.24836 0.34075 0.0
C123 C 0.55052 0.23752 0.35888 0.0
C124 C 0.50984 0.24108 0.37629 0.0
C125 C 0.4339 0.24853 0.37556 0.0
C126 C 0.62603 0.22155 0.36013 0.0
C127 C 0.64374 0.17908 0.34598 0.0
C128 C 0.71954 0.16354 0.34717 0.0
C129 C 0.75993 0.1599 0.32972 0.0
C130 C 0.83636 0.15332 0.33037 0.0
C131 C 0.87309 0.14916 0.34852 0.0
H132 H 0.72119 0.15215 0.37898 0.0
C133 C 0.82897 0.1465 0.36593 0.0
C134 C 0.7529 0.15352 0.36527 0.0
H135 H 0.85493 0.14226 0.38016 0.0
H136 H 0.41703 0.26118 0.32577 0.0
H137 H 0.54992 0.24979 0.32708 0.0
H138 H 0.53469 0.2344 0.39045 0.0
H139 H 0.4015 0.24674 0.38921 0.0
H140 H 0.66624 0.2432 0.37342 0.0
H141 H 0.60348 0.15742 0.3327 0.0
H142 H 0.73447 0.16591 0.31558 0.0
H143 H 0.86845 0.15498 0.31669 0.0
C144 C 0.79677 0.66526 0.66974 0.0
C145 C 0.83994 0.70944 0.68714 0.0
C146 C 0.71396 0.58931 0.67046 0.0
C147 C 0.67258 0.55614 0.68862 0.0
C148 C 0.71815 0.59697 0.70603 0.0
C149 C 0.80086 0.67329 0.70532 0.0
C150 C 0.58197 0.47963 0.6899 0.0
C151 C 0.51986 0.46062 0.67592 0.0
C152 C 0.42924 0.384 0.67716 0.0
C153 C 0.38327 0.34427 0.6597 0.0
C154 C 0.30068 0.26776 0.66032 0.0
C155 C 0.26219 0.23014 0.67845 0.0
H156 H 0.41996 0.38059 0.70904 0.0
C157 C 0.30567 0.2733 0.69592 0.0
C158 C 0.38828 0.34953 0.69529 0.0
H159 H 0.27735 0.24669 0.71014 0.0
H160 H 0.82551 0.69086 0.65549 0.0
H161 H 0.68242 0.55737 0.65676 0.0
H162 H 0.6882 0.57174 0.72021 0.0
H163 H 0.8326 0.70556 0.719 0.0
H164 H 0.56575 0.4397 0.70309 0.0
H165 H 0.53621 0.50067 0.66275 0.0
H166 H 0.41278 0.37056 0.64554 0.0
H167 H 0.26855 0.23661 0.64661 0.0
C168 C 0.79293 0.01307 0.69871 0.0
C169 C 0.84283 0.02489 0.68171 0.0
C170 C 0.71009 0.00664 0.69735 0.0
C171 C 0.67584 0.01212 0.67895 0.0
C172 C 0.72842 0.03027 0.6622 0.0
C173 C 0.81087 0.03592 0.66352 0.0
C174 C 0.58525 -0.0021 0.67664 0.0
C175 C 0.51797 0.94292 0.68824 0.0
C176 C 0.42732 0.92857 0.68597 0.0
C177 C 0.3746 0.90953 0.70272 0.0
C178 C 0.29194 0.90343 0.70146 0.0
C179 C 0.25992 0.91488 0.68332 0.0
H180 H 0.43054 0.94573 0.65426 0.0
C181 C 0.31001 0.92773 0.6663 0.0
C182 C 0.39307 0.93461 0.6676 0.0
H183 H 0.28686 0.93626 0.6521 0.0
H184 H 0.81599 0.00498 0.71295 0.0
H185 H 0.67272 -0.00377 0.71069 0.0
H186 H 0.70406 0.03631 0.64791 0.0
H187 H 0.84813 0.04585 0.65017 0.0
H188 H 0.57343 0.03134 0.66456 0.0
H189 H 0.52987 0.90946 0.70031 0.0
H190 H 0.39897 0.90308 0.71697 0.0
H191 H 0.25455 0.8928 0.71482 0.0
C192 C 0.67109 0.79266 0.03183 0.0
C193 C 0.71117 0.83883 1.01451 0.0
C194 C 0.59538 0.70971 0.03091 0.0
C195 C 0.55826 0.67115 1.01263 0.0
C196 C 0.59491 0.71963 0.99541 0.0
C197 C 0.671 0.80247 0.9963 0.0
C198 C 0.48187 0.5806 1.01098 0.0
C199 C 0.46627 0.51687 0.02411 0.0
C200 C 0.38983 0.42628 0.02251 0.0
C201 C 0.35442 0.37733 0.03974 0.0
C202 C 0.27825 0.29452 0.03893 0.0
C203 C 0.23661 0.25872 0.02081 0.0
H204 H 0.37906 0.42215 0.99061 0.0
C205 C 0.27553 0.30527 1.00346 0.0
C206 C 0.35141 0.38811 1.00428 0.0
H207 H 0.24574 0.27917 0.98922 0.0
H208 H 0.69985 0.81916 0.04612 0.0
H209 H 0.56675 0.67587 0.04455 0.0
H210 H 0.56661 0.69194 0.98116 0.0
H211 H 0.70003 0.83648 0.98269 0.0
H212 H 0.43906 0.5659 0.99821 0.0
H213 H 0.50922 0.53171 0.03687 0.0
H214 H 0.38379 0.40461 0.05394 0.0
H215 H 0.25045 0.26005 0.05255 0.0
C216 C 0.17852 0.50319 0.33774 0.0
C217 C 0.1857 0.46265 0.35494 0.0
C218 C 0.1721 0.57922 0.33887 0.0
C219 C 0.17277 0.61614 0.35726 0.0
C220 C 0.18558 0.57881 0.37433 0.0
C221 C 0.19135 0.50245 0.37322 0.0
C222 C 0.15983 0.69304 0.35921 0.0
C223 C 0.11095 0.70998 0.34642 0.0
C224 C 0.09805 0.7869 0.34838 0.0
C225 C 0.08506 0.82417 0.33132 0.0
C226 C 0.07949 0.90066 0.33244 0.0
C227 C 0.08556 0.94065 0.35071 0.0
H228 H 0.10524 0.79494 0.3803 0.0
C229 C 0.09282 0.90012 0.36791 0.0
C230 C 0.099 0.82397 0.36677 0.0
H231 H 0.09691 0.92885 0.38222 0.0
H232 H 0.17467 0.47454 0.32342 0.0
H233 H 0.16593 0.60829 0.32534 0.0
H234 H 0.1878 0.60689 0.38864 0.0
H235 H 0.19746 0.47314 0.38674 0.0
H236 H 0.18937 0.73507 0.37197 0.0
H237 H 0.08142 0.66794 0.33366 0.0
H238 H 0.08258 0.79597 0.31701 0.0
H239 H 0.07321 0.92989 0.31892 0.0
C240 C 0.16886 0.17376 0.23986 0.0
C241 C 0.11224 0.17689 0.25398 0.0
C242 C 0.14185 0.15355 0.22023 0.0
C243 C 0.05773 0.13746 0.21416 0.0
C244 C 0.00084 0.13975 0.22837 0.0
C245 C 0.02793 0.1598 0.24803 0.0
C246 C 0.02604 0.11579 0.19337 0.0
C247 C 0.08048 0.13672 0.17778 0.0
C248 C 0.05028 0.11363 0.15691 0.0
C249 C 0.11324 0.15162 0.14188 0.0
C250 C 0.08951 0.12881 0.12215 0.0
C251 C 0.00187 0.06784 0.11692 0.0
H252 H 0.91171 0.01918 0.16252 0.0
C253 C 0.93878 0.02982 0.13188 0.0
C254 C -0.03759 0.0522 0.15161 0.0
H255 H 0.87099 -0.01836 0.12827 0.0
H256 H 0.23413 0.18652 0.24411 0.0
H257 H 0.1869 0.14965 0.21002 0.0
H258 H 0.93558 0.12736 0.2242 0.0
H259 H -0.01619 0.1642 0.25845 0.0
H260 H 0.95523 0.08422 0.19101 0.0
H261 H 0.15138 0.17445 0.18023 0.0
H262 H 0.18167 0.19809 0.14543 0.0
H263 H 0.14052 0.1566 0.11113 0.0
C264 C 0.10844 0.07608 0.4575 0.0
C265 C 0.13364 0.16219 0.45168 0.0
C266 C 0.11243 0.05656 0.47738 0.0
C267 C 0.14188 0.12317 0.49184 0.0
C268 C 0.16904 0.20946 0.48577 0.0
C269 C 0.16472 0.22863 0.466 0.0
C270 C 0.13963 0.106 0.51342 0.0
C271 C 0.12384 0.02938 0.52158 0.0
C272 C 0.11157 0.01175 0.54314 0.0
C273 C 0.05971 0.92445 0.54948 0.0
C274 C 0.04036 0.90521 0.56939 0.0
C275 C 0.07371 -0.02736 0.58353 0.0
H276 H 0.19019 0.14715 0.55328 0.0
C277 C 0.12847 0.05977 0.57737 0.0
C278 C 0.14773 0.0792 0.5574 0.0
H279 H 0.15363 0.1133 0.58785 0.0
H280 H 0.08181 0.02313 0.44686 0.0
H281 H 0.08915 -0.0112 0.48123 0.0
H282 H 0.19184 0.26227 0.49644 0.0
H283 H 0.18427 0.29552 0.4619 0.0
H284 H 0.14781 0.15894 0.52301 0.0
H285 H 0.11366 -0.0249 0.51224 0.0
H286 H 0.0315 0.87102 0.53891 0.0
H287 H -0.00215 0.83751 0.57377 0.0
C288 C 0.06076 0.95745 0.79665 0.0
C289 C 0.02708 -0.01312 0.78146 0.0
C290 C 0.03979 0.96155 0.81628 0.0
C291 C -0.01549 -0.00441 0.82121 0.0
C292 C 0.95023 0.02427 0.80594 0.0
C293 C -0.02887 0.0199 0.78629 0.0
C294 C -0.0325 0.00941 0.84201 0.0
C295 C -0.02348 0.96615 0.85752 0.0
C296 C -0.0306 -0.01369 0.87856 0.0
C297 C 0.00198 0.95299 0.89321 0.0
C298 C 0.00221 -0.02558 0.91304 0.0
C299 C -0.03101 0.02909 0.91871 0.0
H300 H 0.90557 0.0646 0.87389 0.0
C301 C 0.93435 0.06072 0.90421 0.0
C302 C 0.93375 0.03913 0.8844 0.0
H303 H 0.9082 0.10289 0.90826 0.0
H304 H 0.10505 0.93287 0.79331 0.0
H305 H 0.07019 0.9413 0.82746 0.0
H306 H 0.90864 0.05206 0.80927 0.0
H307 H 0.94661 0.04586 0.77499 0.0
H308 H 0.94905 0.05909 0.84438 0.0
H309 H -0.00662 0.91539 0.85488 0.0
H310 H 0.02987 0.91219 0.88926 0.0
H311 H 0.03151 0.95101 0.9238 0.0
loop_
_geom_bond_atom_site_label_1
_geom_bond_atom_site_label_2
_geom_bond_distance
_geom_bond_site_symmetry_2
_ccdc_geom_bond_type
Zn0 O1 2.055 1_545 S
Zn0 O8 2.046 . S
Zn0 N16 2.036 . S
Zn0 O28 2.053 1_455 S
Zn0 O30 2.066 1_445 S
O1 Zn0 2.055 1_565 S
O1 C4 1.259 1_556 S
C2 O30 1.268 . S
C2 O31 1.232 1_556 S
Zn3 O5 2.046 1_545 S
Zn3 O7 2.055 . S
Zn3 N9 2.036 . S
Zn3 O27 2.066 1_455 S
Zn3 O31 2.053 1_445 S
C4 O1 1.259 1_554 S
C4 O5 1.254 . S
O5 Zn3 2.046 1_565 S
O5 C4 1.254 . S
C6 O27 1.256 . S
C6 O28 1.244 1_554 S
O7 Zn3 2.055 . S
O7 C29 1.259 . S
O8 Zn0 2.046 . S
O8 C29 1.254 1_556 S
N9 Zn3 2.036 . S
N9 C10 1.298 . S
N9 N12 1.398 1_455 S
C10 N9 1.298 . S
C10 N13 1.367 . S
C10 C23 1.481 . S
C11 N12 1.299 . S
C11 N13 1.379 1_655 S
N12 N9 1.398 1_655 S
N12 C11 1.299 . S
N13 C10 1.367 . S
N13 C11 1.379 1_455 S
C14 N16 1.298 1_655 S
C14 N18 1.367 . S
C14 C22 1.481 1_545 S
C15 N17 1.299 . S
C15 N18 1.379 1_455 S
N16 Zn0 2.036 . S
N16 C14 1.298 1_455 S
N16 N17 1.398 . S
N17 C15 1.299 . S
N17 N16 1.398 . S
N18 C14 1.367 . S
N18 C15 1.379 1_655 S
H19 C22 0.980 1_455 S
H20 C22 0.981 1_455 S
H21 C22 0.981 . S
C22 C14 1.481 1_565 S
C22 H19 0.980 1_655 S
C22 H20 0.981 1_655 S
C22 H21 0.981 . S
C23 C10 1.481 . S
C23 H24 0.980 . S
C23 H25 0.981 . S
C23 H26 0.981 . S
H24 C23 0.980 . S
H25 C23 0.981 . S
H26 C23 0.981 . S
O27 Zn3 2.066 1_655 S
O27 C6 1.256 . S
O28 Zn0 2.053 1_655 S
O28 C6 1.244 1_556 S
C29 O7 1.259 . S
C29 O8 1.254 1_554 S
O30 Zn0 2.066 1_665 S
O30 C2 1.268 . S
O31 C2 1.232 1_554 S
O31 Zn3 2.053 1_665 S
Zn32 O33 2.055 . S
Zn32 O40 2.046 . S
Zn32 N48 2.036 . S
Zn32 O60 2.053 . S
Zn32 O62 2.066 . S
O33 Zn32 2.055 . S
O33 C36 1.259 1_455 S
C34 O62 1.256 . S
C34 O63 1.244 . S
Zn35 O37 2.046 . S
Zn35 O39 2.055 . S
Zn35 N41 2.036 . S
Zn35 O59 2.066 . S
Zn35 O63 2.053 . S
C36 O33 1.259 1_655 S
C36 O37 1.254 1_655 S
O37 Zn35 2.046 . S
O37 C36 1.254 1_455 S
C38 O59 1.256 . S
C38 O60 1.244 . S
O39 Zn35 2.055 . S
O39 C61 1.259 1_545 S
O40 Zn32 2.046 . S
O40 C61 1.254 1_545 S
N41 Zn35 2.036 . S
N41 C42 1.298 . S
N41 N44 1.398 . S
C42 N41 1.298 . S
C42 N45 1.367 . S
C42 C55 1.481 . S
C43 N44 1.299 . S
C43 N45 1.379 . S
N44 N41 1.398 . S
N44 C43 1.299 . S
N45 C42 1.367 . S
N45 C43 1.379 . S
C46 N48 1.298 . S
C46 N50 1.367 . S
C46 C54 1.481 . S
C47 N49 1.299 . S
C47 N50 1.379 . S
N48 Zn32 2.036 . S
N48 C46 1.298 . S
N48 N49 1.398 . S
N49 C47 1.299 . S
N49 N48 1.398 . S
N50 C46 1.367 . S
N50 C47 1.379 . S
H51 C54 0.980 . S
H52 C54 0.981 . S
H53 C54 0.981 . S
C54 C46 1.481 . S
C54 H51 0.980 . S
C54 H52 0.981 . S
C54 H53 0.981 . S
C55 C42 1.481 . S
C55 H56 0.980 . S
C55 H57 0.981 . S
C55 H58 0.981 . S
H56 C55 0.980 . S
H57 C55 0.981 . S
H58 C55 0.981 . S
O59 Zn35 2.066 . S
O59 C38 1.256 . S
O60 Zn32 2.053 . S
O60 C38 1.244 . S
C61 O39 1.259 1_565 S
C61 O40 1.254 1_565 S
O62 Zn32 2.066 . S
O62 C34 1.256 . S
O63 C34 1.244 . S
O63 Zn35 2.053 . S
Zn64 O65 2.055 1_455 S
Zn64 O72 2.046 . S
Zn64 N80 2.036 . S
Zn64 O92 2.053 1_545 S
Zn64 O94 2.066 1_445 S
O65 Zn64 2.055 1_655 S
O65 C68 1.259 . S
C66 O94 1.256 . S
C66 O95 1.244 . S
Zn67 O69 2.046 1_455 S
Zn67 O71 2.055 . S
Zn67 N73 2.036 . S
Zn67 O91 2.066 1_545 S
Zn67 O95 2.053 1_445 S
C68 O65 1.259 . S
C68 O69 1.254 . S
O69 Zn67 2.046 1_655 S
O69 C68 1.254 . S
C70 O91 1.256 . S
C70 O92 1.244 . S
O71 Zn67 2.055 . S
O71 C93 1.259 . S
O72 Zn64 2.046 . S
O72 C93 1.254 . S
N73 Zn67 2.036 . S
N73 C74 1.298 . S
N73 N76 1.398 1_545 S
C74 N73 1.298 . S
C74 N77 1.367 . S
C74 C87 1.481 . S
C75 N76 1.299 . S
C75 N77 1.379 1_565 S
N76 N73 1.398 1_565 S
N76 C75 1.299 . S
N77 C74 1.367 . S
N77 C75 1.379 1_545 S
C78 N80 1.298 1_565 S
C78 N82 1.367 . S
C78 C86 1.481 1_455 S
C79 N81 1.299 . S
C79 N82 1.379 1_545 S
N80 Zn64 2.036 . S
N80 C78 1.298 1_545 S
N80 N81 1.398 . S
N81 C79 1.299 . S
N81 N80 1.398 . S
N82 C78 1.367 . S
N82 C79 1.379 1_565 S
H83 C86 0.980 1_545 S
H84 C86 0.981 1_545 S
H85 C86 0.981 . S
C86 C78 1.481 1_655 S
C86 H83 0.980 1_565 S
C86 H84 0.981 1_565 S
C86 H85 0.981 . S
C87 C74 1.481 . S
C87 H88 0.980 . S
C87 H89 0.981 . S
C87 H90 0.981 . S
H88 C87 0.980 . S
H89 C87 0.981 . S
H90 C87 0.981 . S
O91 Zn67 2.066 1_565 S
O91 C70 1.256 . S
O92 Zn64 2.053 1_565 S
O92 C70 1.244 . S
C93 O71 1.259 . S
C93 O72 1.254 . S
O94 Zn64 2.066 1_665 S
O94 C66 1.256 . S
O95 C66 1.244 . S
O95 Zn67 2.053 1_665 S
C96 C97 1.386 . S
C96 C98 1.383 . S
C96 H112 0.947 1_554 S
C97 C96 1.386 . S
C97 C101 1.383 1_655 S
C98 C96 1.383 . S
C98 C99 1.402 1_655 S
C98 H113 0.951 . S
C99 C98 1.402 1_455 S
C99 C100 1.375 . S
C99 C102 1.481 . S
C100 C99 1.375 . S
C100 C101 1.367 . S
C100 H114 0.951 . S
C101 C97 1.383 1_455 S
C101 C100 1.367 . S
C101 H115 0.950 . S
C102 C99 1.481 . S
C102 C103 1.297 1_455 S
C102 H116 0.950 . S
C103 C102 1.297 1_655 S
C103 C104 1.479 1_655 S
C103 H117 0.950 . S
C104 C103 1.479 1_455 S
C104 C105 1.375 1_455 S
C104 C110 1.404 . S
C105 C104 1.375 1_655 S
C105 C106 1.369 . S
C105 H118 0.950 . S
C106 C105 1.369 . S
C106 C107 1.392 1_655 S
C106 H119 0.951 1_554 S
C107 C106 1.392 1_455 S
C107 C109 1.384 . S
H108 C110 0.949 . S
C109 C107 1.384 . S
C109 C110 1.385 . S
C109 H111 0.950 . S
C110 C104 1.404 . S
C110 H108 0.949 . S
C110 C109 1.385 . S
H111 C109 0.950 . S
H112 C96 0.947 1_556 S
H113 C98 0.951 . S
H114 C100 0.951 . S
H115 C101 0.950 . S
H116 C102 0.950 . S
H117 C103 0.950 . S
H118 C105 0.950 . S
H119 C106 0.951 1_556 S
C120 C121 1.386 . S
C120 C122 1.383 . S
C120 H136 0.951 . S
C121 C120 1.386 . S
C121 C125 1.383 . S
C122 C120 1.383 . S
C122 C123 1.402 . S
C122 H137 0.951 . S
C123 C122 1.402 . S
C123 C124 1.375 . S
C123 C126 1.481 . S
C124 C123 1.375 . S
C124 C125 1.367 . S
C124 H138 0.951 . S
C125 C121 1.383 . S
C125 C124 1.367 . S
C125 H139 0.950 . S
C126 C123 1.481 . S
C126 C127 1.297 . S
C126 H140 0.950 . S
C127 C126 1.297 . S
C127 C128 1.479 . S
C127 H141 0.950 . S
C128 C127 1.479 . S
C128 C129 1.375 . S
C128 C134 1.404 . S
C129 C128 1.375 . S
C129 C130 1.369 . S
C129 H142 0.950 . S
C130 C129 1.369 . S
C130 C131 1.392 . S
C130 H143 0.951 . S
C131 C130 1.392 . S
C131 C133 1.384 . S
H132 C134 0.949 . S
C133 C131 1.384 . S
C133 C134 1.385 . S
C133 H135 0.950 . S
C134 C128 1.404 . S
C134 H132 0.949 . S
C134 C133 1.385 . S
H135 C133 0.950 . S
H136 C120 0.951 . S
H137 C122 0.951 . S
H138 C124 0.951 . S
H139 C125 0.950 . S
H140 C126 0.950 . S
H141 C127 0.950 . S
H142 C129 0.950 . S
H143 C130 0.951 . S
C144 C145 1.386 . S
C144 C146 1.383 . S
C144 H160 0.951 . S
C145 C144 1.386 . S
C145 C149 1.383 . S
C146 C144 1.383 . S
C146 C147 1.402 . S
C146 H161 0.951 . S
C147 C146 1.402 . S
C147 C148 1.375 . S
C147 C150 1.481 . S
C148 C147 1.375 . S
C148 C149 1.367 . S
C148 H162 0.951 . S
C149 C145 1.383 . S
C149 C148 1.367 . S
C149 H163 0.950 . S
C150 C147 1.481 . S
C150 C151 1.297 . S
C150 H164 0.950 . S
C151 C150 1.297 . S
C151 C152 1.479 . S
C151 H165 0.950 . S
C152 C151 1.479 . S
C152 C153 1.375 . S
C152 C158 1.404 . S
C153 C152 1.375 . S
C153 C154 1.369 . S
C153 H166 0.950 . S
C154 C153 1.369 . S
C154 C155 1.392 . S
C154 H167 0.951 . S
C155 C154 1.392 . S
C155 C157 1.384 . S
H156 C158 0.949 . S
C157 C155 1.384 . S
C157 C158 1.385 . S
C157 H159 0.950 . S
C158 C152 1.404 . S
C158 H156 0.949 . S
C158 C157 1.385 . S
H159 C157 0.950 . S
H160 C144 0.951 . S
H161 C146 0.951 . S
H162 C148 0.951 . S
H163 C149 0.950 . S
H164 C150 0.950 . S
H165 C151 0.950 . S
H166 C153 0.950 . S
H167 C154 0.951 . S
C168 C169 1.386 1_565 S
C168 C170 1.383 . S
C168 H184 0.951 . S
C169 C168 1.386 1_545 S
C169 C173 1.383 . S
C170 C168 1.383 . S
C170 C171 1.402 1_565 S
C170 H185 0.951 . S
C171 C170 1.402 1_545 S
C171 C172 1.375 . S
C171 C174 1.481 . S
C172 C171 1.375 . S
C172 C173 1.367 . S
C172 H186 0.951 . S
C173 C169 1.383 . S
C173 C172 1.367 . S
C173 H187 0.950 . S
C174 C171 1.481 . S
C174 C175 1.297 . S
C174 H188 0.950 . S
C175 C174 1.297 . S
C175 C176 1.479 . S
C175 H189 0.950 1_545 S
C176 C175 1.479 . S
C176 C177 1.375 1_545 S
C176 C182 1.404 . S
C177 C176 1.375 1_565 S
C177 C178 1.369 . S
C177 H190 0.950 . S
C178 C177 1.369 . S
C178 C179 1.392 . S
C178 H191 0.951 . S
C179 C178 1.392 . S
C179 C181 1.384 1_565 S
H180 C182 0.949 . S
C181 C179 1.384 1_545 S
C181 C182 1.385 . S
C181 H183 0.950 . S
C182 C176 1.404 . S
C182 H180 0.949 . S
C182 C181 1.385 . S
H183 C181 0.950 . S
H184 C168 0.951 . S
H185 C170 0.951 . S
H186 C172 0.951 . S
H187 C173 0.950 . S
H188 C174 0.950 . S
H189 C175 0.950 1_565 S
H190 C177 0.950 . S
H191 C178 0.951 . S
C192 C193 1.386 1_554 S
C192 C194 1.383 . S
C192 H208 0.951 . S
C193 C192 1.386 1_556 S
C193 C197 1.383 . S
C194 C192 1.383 . S
C194 C195 1.402 1_554 S
C194 H209 0.951 . S
C195 C194 1.402 1_556 S
C195 C196 1.375 . S
C195 C198 1.481 . S
C196 C195 1.375 . S
C196 C197 1.367 . S
C196 H210 0.951 . S
C197 C193 1.383 . S
C197 C196 1.367 . S
C197 H211 0.950 . S
C198 C195 1.481 . S
C198 C199 1.297 1_556 S
C198 H212 0.950 . S
C199 C198 1.297 1_554 S
C199 C200 1.479 . S
C199 H213 0.950 . S
C200 C199 1.479 . S
C200 C201 1.375 . S
C200 C206 1.404 1_554 S
C201 C200 1.375 . S
C201 C202 1.369 . S
C201 H214 0.950 . S
C202 C201 1.369 . S
C202 C203 1.392 . S
C202 H215 0.951 . S
C203 C202 1.392 . S
C203 C205 1.384 1_554 S
H204 C206 0.949 . S
C205 C203 1.384 1_556 S
C205 C206 1.385 . S
C205 H207 0.950 . S
C206 C200 1.404 1_556 S
C206 H204 0.949 . S
C206 C205 1.385 . S
H207 C205 0.950 . S
H208 C192 0.951 . S
H209 C194 0.951 . S
H210 C196 0.951 . S
H211 C197 0.950 . S
H212 C198 0.950 . S
H213 C199 0.950 . S
H214 C201 0.950 . S
H215 C202 0.951 . S
C216 C217 1.386 . S
C216 C218 1.383 . S
C216 H232 0.951 . S
C217 C216 1.386 . S
C217 C221 1.383 . S
C218 C216 1.383 . S
C218 C219 1.402 . S
C218 H233 0.951 . S
C219 C218 1.402 . S
C219 C220 1.375 . S
C219 C222 1.481 . S
C220 C219 1.375 . S
C220 C221 1.367 . S
C220 H234 0.951 . S
C221 C217 1.383 . S
C221 C220 1.367 . S
C221 H235 0.950 . S
C222 C219 1.481 . S
C222 C223 1.297 . S
C222 H236 0.950 . S
C223 C222 1.297 . S
C223 C224 1.479 . S
C223 H237 0.950 . S
C224 C223 1.479 . S
C224 C225 1.375 . S
C224 C230 1.404 . S
C225 C224 1.375 . S
C225 C226 1.369 . S
C225 H238 0.950 . S
C226 C225 1.369 . S
C226 C227 1.392 . S
C226 H239 0.951 . S
C227 C226 1.392 . S
C227 C229 1.384 . S
H228 C230 0.949 . S
C229 C227 1.384 . S
C229 C230 1.385 . S
C229 H231 0.950 1_455 S
C230 C224 1.404 . S
C230 H228 0.949 . S
C230 C229 1.385 . S
H231 C229 0.950 1_655 S
H232 C216 0.951 . S
H233 C218 0.951 . S
H234 C220 0.951 . S
H235 C221 0.950 . S
H236 C222 0.950 . S
H237 C223 0.950 . S
H238 C225 0.950 . S
H239 C226 0.951 . S
C240 C241 1.386 . S
C240 C242 1.383 . S
C240 H256 0.951 . S
C241 C240 1.386 . S
C241 C245 1.383 . S
C242 C240 1.383 . S
C242 C243 1.402 . S
C242 H257 0.951 . S
C243 C242 1.402 . S
C243 C244 1.375 . S
C243 C246 1.481 . S
C244 C243 1.375 . S
C244 C245 1.367 . S
C244 H258 0.951 . S
C245 C241 1.383 . S
C245 C244 1.367 . S
C245 H259 0.950 . S
C246 C243 1.481 . S
C246 C247 1.297 . S
C246 H260 0.950 . S
C247 C246 1.297 . S
C247 C248 1.479 . S
C247 H261 0.950 . S
C248 C247 1.479 . S
C248 C249 1.375 . S
C248 C254 1.404 1_455 S
C249 C248 1.375 . S
C249 C250 1.369 . S
C249 H262 0.950 . S
C250 C249 1.369 . S
C250 C251 1.392 . S
C250 H263 0.951 . S
C251 C250 1.392 . S
C251 C253 1.384 1_455 S
H252 C254 0.949 . S
C253 C251 1.384 1_655 S
C253 C254 1.385 . S
C253 H255 0.950 . S
C254 C248 1.404 1_655 S
C254 H252 0.949 . S
C254 C253 1.385 . S
H255 C253 0.950 . S
H256 C240 0.951 . S
H257 C242 0.951 . S
H258 C244 0.951 . S
H259 C245 0.950 . S
H260 C246 0.950 . S
H261 C247 0.950 . S
H262 C249 0.950 . S
H263 C250 0.951 . S
C264 C265 1.386 . S
C264 C266 1.383 . S
C264 H280 0.951 . S
C265 C264 1.386 . S
C265 C269 1.383 . S
C266 C264 1.383 . S
C266 C267 1.402 . S
C266 H281 0.951 . S
C267 C266 1.402 . S
C267 C268 1.375 . S
C267 C270 1.481 . S
C268 C267 1.375 . S
C268 C269 1.367 . S
C268 H282 0.951 . S
C269 C265 1.383 . S
C269 C268 1.367 . S
C269 H283 0.950 . S
C270 C267 1.481 . S
C270 C271 1.297 . S
C270 H284 0.950 . S
C271 C270 1.297 . S
C271 C272 1.479 . S
C271 H285 0.950 . S
C272 C271 1.479 . S
C272 C273 1.375 1_545 S
C272 C278 1.404 . S
C273 C272 1.375 1_565 S
C273 C274 1.369 . S
C273 H286 0.950 . S
C274 C273 1.369 . S
C274 C275 1.392 1_565 S
C274 H287 0.951 . S
C275 C274 1.392 1_545 S
C275 C277 1.384 . S
H276 C278 0.949 . S
C277 C275 1.384 . S
C277 C278 1.385 . S
C277 H279 0.950 . S
C278 C272 1.404 . S
C278 H276 0.949 . S
C278 C277 1.385 . S
H279 C277 0.950 . S
H280 C264 0.951 . S
H281 C266 0.951 . S
H282 C268 0.951 . S
H283 C269 0.950 . S
H284 C270 0.950 . S
H285 C271 0.950 . S
H286 C273 0.950 . S
H287 C274 0.951 . S
C288 C289 1.386 1_545 S
C288 C290 1.383 . S
C288 H304 0.951 . S
C289 C288 1.386 1_565 S
C289 C293 1.383 1_455 S
C290 C288 1.383 . S
C290 C291 1.402 1_455 S
C290 H305 0.951 . S
C291 C290 1.402 1_655 S
C291 C292 1.375 1_545 S
C291 C294 1.481 . S
C292 C291 1.375 1_565 S
C292 C293 1.367 . S
C292 H306 0.951 . S
C293 C289 1.383 1_655 S
C293 C292 1.367 . S
C293 H307 0.950 . S
C294 C291 1.481 . S
C294 C295 1.297 1_655 S
C294 H308 0.950 1_545 S
C295 C294 1.297 1_455 S
C295 C296 1.479 . S
C295 H309 0.950 . S
C296 C295 1.479 . S
C296 C297 1.375 . S
C296 C302 1.404 1_455 S
C297 C296 1.375 . S
C297 C298 1.369 . S
C297 H310 0.950 . S
C298 C297 1.369 . S
C298 C299 1.392 1_455 S
C298 H311 0.951 . S
C299 C298 1.392 1_655 S
C299 C301 1.384 . S
H300 C302 0.949 . S
C301 C299 1.384 . S
C301 C302 1.385 . S
C301 H303 0.950 . S
C302 C296 1.404 1_655 S
C302 H300 0.949 . S
C302 C301 1.385 . S
H303 C301 0.950 . S
H304 C288 0.951 . S
H305 C290 0.951 . S
H306 C292 0.951 . S
H307 C293 0.950 . S
H308 C294 0.950 1_565 S
H309 C295 0.950 . S
H310 C297 0.950 . S
H311 C298 0.951 . S
C97 C6 1.140 . S
C107 C4 1.135 . S
C121 C38 1.152 . S
C131 C36 1.129 . S
C145 C66 1.163 . S
C155 C93 1.154 . S
C169 C68 1.165 . S
C179 C70 1.132 . S
C193 C2 1.164 . S
C203 C29 1.133 . S
C217 C34 1.136 . S
C227 C61 1.139 . S
C241 N50 1.579 . S
C251 N13 1.534 . S
C265 N45 1.573 . S
C275 N77 1.602 . S
C289 N82 1.573 . S
C299 N18 1.527 . S
