# Generated by pormake.
# Topology ukv, (4)-cn, num edge types: 1
# Building blocks:
#     Node 0, Type 0, BuildingBlock: KUFVIS_clean_sbu_0, # of connection points: 4
#     Node 1, Type 0, BuildingBlock: KUFVIS_clean_sbu_0, # of connection points: 4
#     Node 2, Type 0, BuildingBlock: KUFVIS_clean_sbu_0, # of connection points: 4
#     Node 3, Type 0, BuildingBlock: KUFVIS_clean_sbu_0, # of connection points: 4
#     Node 4, Type 0, BuildingBlock: KUFVIS_clean_sbu_0, # of connection points: 4
#     Node 5, Type 0, BuildingBlock: KUFVIS_clean_sbu_0, # of connection points: 4
#     Node 6, Type 0, BuildingBlock: KUFVIS_clean_sbu_0, # of connection points: 4
#     Node 7, Type 0, BuildingBlock: KUFVIS_clean_sbu_0, # of connection points: 4
#     Node 8, Type 0, BuildingBlock: KUFVIS_clean_sbu_0, # of connection points: 4
#     Node 9, Type 0, BuildingBlock: KUFVIS_clean_sbu_0, # of connection points: 4
#     Node 10, Type 0, BuildingBlock: KUFVIS_clean_sbu_0, # of connection points: 4
#     Node 11, Type 0, BuildingBlock: KUFVIS_clean_sbu_0, # of connection points: 4
#     Node 12, Type 0, BuildingBlock: KUFVIS_clean_sbu_0, # of connection points: 4
#     Node 13, Type 0, BuildingBlock: KUFVIS_clean_sbu_0, # of connection points: 4
#     Node 14, Type 0, BuildingBlock: KUFVIS_clean_sbu_0, # of connection points: 4
#     Node 15, Type 0, BuildingBlock: KUFVIS_clean_sbu_0, # of connection points: 4
#     Node 16, Type 0, BuildingBlock: KUFVIS_clean_sbu_0, # of connection points: 4
#     Node 17, Type 0, BuildingBlock: KUFVIS_clean_sbu_0, # of connection points: 4
#     Node 18, Type 0, BuildingBlock: KUFVIS_clean_sbu_0, # of connection points: 4
#     Node 19, Type 0, BuildingBlock: KUFVIS_clean_sbu_0, # of connection points: 4
#     Node 20, Type 0, BuildingBlock: KUFVIS_clean_sbu_0, # of connection points: 4
#     Node 21, Type 0, BuildingBlock: KUFVIS_clean_sbu_0, # of connection points: 4
#     Node 22, Type 0, BuildingBlock: KUFVIS_clean_sbu_0, # of connection points: 4
#     Node 23, Type 0, BuildingBlock: KUFVIS_clean_sbu_0, # of connection points: 4
#     Node 24, Type 0, BuildingBlock: KUFVIS_clean_sbu_0, # of connection points: 4
#     Node 25, Type 0, BuildingBlock: KUFVIS_clean_sbu_0, # of connection points: 4
#     Node 26, Type 0, BuildingBlock: KUFVIS_clean_sbu_0, # of connection points: 4
#     Node 27, Type 0, BuildingBlock: KUFVIS_clean_sbu_0, # of connection points: 4
#     Node 28, Type 0, BuildingBlock: KUFVIS_clean_sbu_0, # of connection points: 4
#     Node 29, Type 0, BuildingBlock: KUFVIS_clean_sbu_0, # of connection points: 4
#     Node 30, Type 0, BuildingBlock: KUFVIS_clean_sbu_0, # of connection points: 4
#     Node 31, Type 0, BuildingBlock: KUFVIS_clean_sbu_0, # of connection points: 4
#     Node 32, Type 0, BuildingBlock: KUFVIS_clean_sbu_0, # of connection points: 4
#     Node 33, Type 0, BuildingBlock: KUFVIS_clean_sbu_0, # of connection points: 4
#     Node 34, Type 0, BuildingBlock: KUFVIS_clean_sbu_0, # of connection points: 4
#     Node 35, Type 0, BuildingBlock: KUFVIS_clean_sbu_0, # of connection points: 4
#     Edge 36, Type (0, 0), BuildingBlock: KIFKEQ_clean_linker_1, # of connection points: 2
#     Edge 37, Type (0, 0), BuildingBlock: KIFKEQ_clean_linker_1, # of connection points: 2
#     Edge 38, Type (0, 0), BuildingBlock: KIFKEQ_clean_linker_1, # of connection points: 2
#     Edge 39, Type (0, 0), BuildingBlock: KIFKEQ_clean_linker_1, # of connection points: 2
#     Edge 40, Type (0, 0), BuildingBlock: KIFKEQ_clean_linker_1, # of connection points: 2
#     Edge 41, Type (0, 0), BuildingBlock: KIFKEQ_clean_linker_1, # of connection points: 2
#     Edge 42, Type (0, 0), BuildingBlock: KIFKEQ_clean_linker_1, # of connection points: 2
#     Edge 43, Type (0, 0), BuildingBlock: KIFKEQ_clean_linker_1, # of connection points: 2
#     Edge 44, Type (0, 0), BuildingBlock: KIFKEQ_clean_linker_1, # of connection points: 2
#     Edge 45, Type (0, 0), BuildingBlock: KIFKEQ_clean_linker_1, # of connection points: 2
#     Edge 46, Type (0, 0), BuildingBlock: KIFKEQ_clean_linker_1, # of connection points: 2
#     Edge 47, Type (0, 0), BuildingBlock: KIFKEQ_clean_linker_1, # of connection points: 2
#     Edge 48, Type (0, 0), BuildingBlock: KIFKEQ_clean_linker_1, # of connection points: 2
#     Edge 49, Type (0, 0), BuildingBlock: KIFKEQ_clean_linker_1, # of connection points: 2
#     Edge 50, Type (0, 0), BuildingBlock: KIFKEQ_clean_linker_1, # of connection points: 2
#     Edge 51, Type (0, 0), BuildingBlock: KIFKEQ_clean_linker_1, # of connection points: 2
#     Edge 52, Type (0, 0), BuildingBlock: KIFKEQ_clean_linker_1, # of connection points: 2
#     Edge 53, Type (0, 0), BuildingBlock: KIFKEQ_clean_linker_1, # of connection points: 2
#     Edge 54, Type (0, 0), BuildingBlock: KIFKEQ_clean_linker_1, # of connection points: 2
#     Edge 55, Type (0, 0), BuildingBlock: KIFKEQ_clean_linker_1, # of connection points: 2
#     Edge 56, Type (0, 0), BuildingBlock: KIFKEQ_clean_linker_1, # of connection points: 2
#     Edge 57, Type (0, 0), BuildingBlock: KIFKEQ_clean_linker_1, # of connection points: 2
#     Edge 58, Type (0, 0), BuildingBlock: KIFKEQ_clean_linker_1, # of connection points: 2
#     Edge 59, Type (0, 0), BuildingBlock: KIFKEQ_clean_linker_1, # of connection points: 2
#     Edge 60, Type (0, 0), BuildingBlock: KIFKEQ_clean_linker_1, # of connection points: 2
#     Edge 61, Type (0, 0), BuildingBlock: KIFKEQ_clean_linker_1, # of connection points: 2
#     Edge 62, Type (0, 0), BuildingBlock: KIFKEQ_clean_linker_1, # of connection points: 2
#     Edge 63, Type (0, 0), BuildingBlock: KIFKEQ_clean_linker_1, # of connection points: 2
#     Edge 64, Type (0, 0), BuildingBlock: KIFKEQ_clean_linker_1, # of connection points: 2
#     Edge 65, Type (0, 0), BuildingBlock: KIFKEQ_clean_linker_1, # of connection points: 2
#     Edge 66, Type (0, 0), BuildingBlock: KIFKEQ_clean_linker_1, # of connection points: 2
#     Edge 67, Type (0, 0), BuildingBlock: KIFKEQ_clean_linker_1, # of connection points: 2
#     Edge 68, Type (0, 0), BuildingBlock: KIFKEQ_clean_linker_1, # of connection points: 2
#     Edge 69, Type (0, 0), BuildingBlock: KIFKEQ_clean_linker_1, # of connection points: 2
#     Edge 70, Type (0, 0), BuildingBlock: KIFKEQ_clean_linker_1, # of connection points: 2
#     Edge 71, Type (0, 0), BuildingBlock: KIFKEQ_clean_linker_1, # of connection points: 2
#     Edge 72, Type (0, 0), BuildingBlock: KIFKEQ_clean_linker_1, # of connection points: 2
#     Edge 73, Type (0, 0), BuildingBlock: KIFKEQ_clean_linker_1, # of connection points: 2
#     Edge 74, Type (0, 0), BuildingBlock: KIFKEQ_clean_linker_1, # of connection points: 2
#     Edge 75, Type (0, 0), BuildingBlock: KIFKEQ_clean_linker_1, # of connection points: 2
#     Edge 76, Type (0, 0), BuildingBlock: KIFKEQ_clean_linker_1, # of connection points: 2
#     Edge 77, Type (0, 0), BuildingBlock: KIFKEQ_clean_linker_1, # of connection points: 2
#     Edge 78, Type (0, 0), BuildingBlock: KIFKEQ_clean_linker_1, # of connection points: 2
#     Edge 79, Type (0, 0), BuildingBlock: KIFKEQ_clean_linker_1, # of connection points: 2
#     Edge 80, Type (0, 0), BuildingBlock: KIFKEQ_clean_linker_1, # of connection points: 2
#     Edge 81, Type (0, 0), BuildingBlock: KIFKEQ_clean_linker_1, # of connection points: 2
#     Edge 82, Type (0, 0), BuildingBlock: KIFKEQ_clean_linker_1, # of connection points: 2
#     Edge 83, Type (0, 0), BuildingBlock: KIFKEQ_clean_linker_1, # of connection points: 2
#     Edge 84, Type (0, 0), BuildingBlock: KIFKEQ_clean_linker_1, # of connection points: 2
#     Edge 85, Type (0, 0), BuildingBlock: KIFKEQ_clean_linker_1, # of connection points: 2
#     Edge 86, Type (0, 0), BuildingBlock: KIFKEQ_clean_linker_1, # of connection points: 2
#     Edge 87, Type (0, 0), BuildingBlock: KIFKEQ_clean_linker_1, # of connection points: 2
#     Edge 88, Type (0, 0), BuildingBlock: KIFKEQ_clean_linker_1, # of connection points: 2
#     Edge 89, Type (0, 0), BuildingBlock: KIFKEQ_clean_linker_1, # of connection points: 2
#     Edge 90, Type (0, 0), BuildingBlock: KIFKEQ_clean_linker_1, # of connection points: 2
#     Edge 91, Type (0, 0), BuildingBlock: KIFKEQ_clean_linker_1, # of connection points: 2
#     Edge 92, Type (0, 0), BuildingBlock: KIFKEQ_clean_linker_1, # of connection points: 2
#     Edge 93, Type (0, 0), BuildingBlock: KIFKEQ_clean_linker_1, # of connection points: 2
#     Edge 94, Type (0, 0), BuildingBlock: KIFKEQ_clean_linker_1, # of connection points: 2
#     Edge 95, Type (0, 0), BuildingBlock: KIFKEQ_clean_linker_1, # of connection points: 2
#     Edge 96, Type (0, 0), BuildingBlock: KIFKEQ_clean_linker_1, # of connection points: 2
#     Edge 97, Type (0, 0), BuildingBlock: KIFKEQ_clean_linker_1, # of connection points: 2
#     Edge 98, Type (0, 0), BuildingBlock: KIFKEQ_clean_linker_1, # of connection points: 2
#     Edge 99, Type (0, 0), BuildingBlock: KIFKEQ_clean_linker_1, # of connection points: 2
#     Edge 100, Type (0, 0), BuildingBlock: KIFKEQ_clean_linker_1, # of connection points: 2
#     Edge 101, Type (0, 0), BuildingBlock: KIFKEQ_clean_linker_1, # of connection points: 2
#     Edge 102, Type (0, 0), BuildingBlock: KIFKEQ_clean_linker_1, # of connection points: 2
#     Edge 103, Type (0, 0), BuildingBlock: KIFKEQ_clean_linker_1, # of connection points: 2
#     Edge 104, Type (0, 0), BuildingBlock: KIFKEQ_clean_linker_1, # of connection points: 2
#     Edge 105, Type (0, 0), BuildingBlock: KIFKEQ_clean_linker_1, # of connection points: 2
#     Edge 106, Type (0, 0), BuildingBlock: KIFKEQ_clean_linker_1, # of connection points: 2
#     Edge 107, Type (0, 0), BuildingBlock: KIFKEQ_clean_linker_1, # of connection points: 2
# Relax obj value: 0.242
# Max RMSD: 0.150
# Mean RMSD: 0.150
data_MOF--net-ukv--node1-KUFVIS_clean_sbu_0--edge1-KIFKEQ_clean_linker_1
_symmetry_space_group_name_H-M    P1
_symmetry_Int_Tables_number       1
_symmetry_cell_setting            triclinic
loop_
_symmetry_equiv_pos_as_xyz
'x, y, z'
_cell_length_a     96.216369
_cell_length_b     96.224513
_cell_length_c     21.673911
_cell_angle_alpha  89.979313
_cell_angle_beta   90.04176
_cell_angle_gamma 119.99473
loop_
_atom_site_label
_atom_site_type_symbol
_atom_site_fract_x
_atom_site_fract_y
_atom_site_fract_z
_atom_type_partial_charge
Mn0 Mn 0.25902 0.08606 0.0638 0.0
Mn1 Mn 0.29134 0.09388 0.14911 0.0
C2 C 0.28174 0.08911 0.01589 0.0
C3 C 0.24503 0.09639 0.0132 0.0
C4 C 0.26122 0.06107 0.14191 0.0
O5 O 0.25444 0.09278 0.14639 0.0
O6 O 0.27784 0.10059 0.19572 0.0
C7 C 0.30794 0.12937 0.15028 0.0
N8 N 0.30799 0.11558 0.13668 0.0
C9 C 0.3349 0.13038 0.09692 0.0
C10 C 0.33518 0.14475 0.1109 0.0
C11 C 0.32163 0.14423 0.1376 0.0
C12 C 0.32098 0.11593 0.11111 0.0
H13 H 0.29751 0.12902 0.17043 0.0
C14 C 0.26379 0.09901 0.19242 0.0
O15 O 0.23769 0.08145 0.03054 0.0
O16 O 0.26018 0.10505 0.02507 0.0
N17 N 0.30538 0.08807 0.10855 0.0
C18 C 0.30277 0.07317 0.09414 0.0
C19 C 0.31494 0.0716 0.06497 0.0
C20 C 0.32967 0.08534 0.05109 0.0
C21 C 0.33212 0.10054 0.06676 0.0
C22 C 0.31961 0.10136 0.0963 0.0
H23 H 0.29144 0.06258 0.10442 0.0
O24 O 0.26802 0.08182 0.98773 0.0
O25 O 0.28168 0.09452 0.07077 0.0
O26 O 0.25392 0.06446 0.10056 0.0
O27 O 0.27493 0.07125 0.16394 0.0
C28 C 0.34635 0.11493 0.05294 0.0
C29 C 0.34774 0.12984 0.06805 0.0
H30 H 0.34566 0.15624 0.10067 0.0
H31 H 0.3217 0.15527 0.14803 0.0
H32 H 0.31294 0.05983 0.05288 0.0
H33 H 0.33895 0.08409 0.02791 0.0
H34 H 0.35619 0.11467 0.02983 0.0
H35 H 0.35865 0.14082 0.05637 0.0
Mn36 Mn 0.91733 0.18278 0.08265 0.0
Mn37 Mn 0.91716 0.20969 0.18075 0.0
C38 C 0.91744 0.20521 0.04467 0.0
C39 C 0.90157 0.15913 0.02881 0.0
C40 C 0.94649 0.2064 0.15669 0.0
O41 O 0.91071 0.17074 0.16342 0.0
O42 O 0.90893 0.18877 0.22455 0.0
C43 C 0.88211 0.19535 0.19684 0.0
N44 N 0.8965 0.20798 0.17942 0.0
C45 C 0.88411 0.22332 0.14913 0.0
C46 C 0.86917 0.21053 0.16723 0.0
C47 C 0.86817 0.19649 0.19117 0.0
C48 C 0.89762 0.22158 0.15664 0.0
H49 H 0.88127 0.18447 0.21459 0.0
C50 C 0.90755 0.17498 0.21472 0.0
O51 O 0.9166 0.16387 0.03994 0.0
O52 O 0.89609 0.16814 0.04829 0.0
N53 N 0.92474 0.23024 0.14312 0.0
C54 C 0.93984 0.24093 0.12351 0.0
C55 C 0.94278 0.25538 0.09609 0.0
C56 C 0.93018 0.25866 0.08903 0.0
C57 C 0.91475 0.24748 0.1097 0.0
C58 C 0.91258 0.23337 0.13739 0.0
H59 H 0.94951 0.23838 0.12825 0.0
O60 O 0.92226 0.1974 0.01032 0.0
O61 O 0.9129 0.19959 0.10003 0.0
O62 O 0.9405 0.19573 0.11433 0.0
O63 O 0.93877 0.21227 0.18375 0.0
C64 C 0.90137 0.24959 0.10253 0.0
C65 C 0.88606 0.23753 0.1223 0.0
H66 H 0.85836 0.21129 0.16225 0.0
H67 H 0.85666 0.18652 0.20479 0.0
H68 H 0.95471 0.26392 0.07999 0.0
H69 H 0.93246 0.26972 0.06714 0.0
H70 H 0.90267 0.26034 0.08105 0.0
H71 H 0.87583 0.23919 0.1157 0.0
Mn72 Mn 0.81222 0.72388 0.08742 0.0
Mn73 Mn 0.78702 0.69529 0.18545 0.0
C74 C 0.79112 0.70052 0.04914 0.0
C75 C 0.83635 0.73418 0.03434 0.0
C76 C 0.78631 0.72599 0.16054 0.0
O77 O 0.82426 0.73035 0.16814 0.0
O78 O 0.80748 0.70984 0.2295 0.0
C79 C 0.80505 0.67806 0.20171 0.0
N80 N 0.79138 0.67797 0.18456 0.0
C81 C 0.77873 0.65014 0.1555 0.0
C82 C 0.79262 0.6499 0.17338 0.0
C83 C 0.80584 0.66392 0.19654 0.0
C84 C 0.77858 0.66454 0.1624 0.0
H85 H 0.81529 0.68886 0.21889 0.0
C86 C 0.82059 0.72303 0.21959 0.0
O87 O 0.8301 0.74321 0.04536 0.0
O88 O 0.82848 0.7195 0.05317 0.0
N89 N 0.76693 0.68047 0.14829 0.0
C90 C 0.75491 0.68304 0.12914 0.0
C91 C 0.74102 0.67036 0.10268 0.0
C92 C 0.73965 0.65519 0.0962 0.0
C93 C 0.75214 0.65282 0.11659 0.0
C94 C 0.76561 0.66585 0.14331 0.0
H95 H 0.75598 0.69472 0.13352 0.0
O96 O 0.79804 0.71326 0.01487 0.0
O97 O 0.79692 0.70198 0.10447 0.0
O98 O 0.79725 0.73181 0.11908 0.0
O99 O 0.78175 0.71258 0.18766 0.0
C100 C 0.75193 0.63814 0.1101 0.0
C101 C 0.76521 0.6368 0.12957 0.0
H102 H 0.79334 0.63906 0.16885 0.0
H103 H 0.81664 0.66386 0.20999 0.0
H104 H 0.73146 0.6723 0.08686 0.0
H105 H 0.72901 0.6455 0.07501 0.0
H106 H 0.74171 0.62788 0.08934 0.0
H107 H 0.765 0.62553 0.12349 0.0
Mn108 Mn 0.079 0.24639 0.43333 0.0
Mn109 Mn 0.08843 0.27766 0.33916 0.0
C110 C 0.08026 0.26927 0.4722 0.0
C111 C 0.08861 0.23363 0.49619 0.0
C112 C 0.05575 0.24734 0.34061 0.0
O113 O 0.08795 0.24123 0.3578 0.0
O114 O 0.09604 0.26373 0.30185 0.0
C115 C 0.1238 0.29428 0.35045 0.0
N116 N 0.10979 0.29443 0.35655 0.0
C117 C 0.12372 0.32156 0.39452 0.0
C118 C 0.13832 0.32174 0.3882 0.0
C119 C 0.13835 0.30803 0.36611 0.0
C120 C 0.10963 0.30757 0.37757 0.0
H121 H 0.12386 0.28371 0.33396 0.0
C122 C 0.09472 0.24993 0.31072 0.0
O123 O 0.07418 0.22564 0.47353 0.0
O124 O 0.09714 0.24867 0.48257 0.0
N125 N 0.08182 0.29206 0.3704 0.0
C126 C 0.06667 0.2896 0.3771 0.0
C127 C 0.0645 0.30199 0.40057 0.0
C128 C 0.0779 0.31676 0.41676 0.0
C129 C 0.09338 0.31905 0.40898 0.0
C130 C 0.09481 0.30633 0.38473 0.0
H131 H 0.05633 0.27823 0.36511 0.0
O132 O 0.07251 0.25581 0.50186 0.0
O133 O 0.08718 0.26886 0.42129 0.0
O134 O 0.05831 0.24039 0.3859 0.0
O135 O 0.06622 0.26104 0.31938 0.0
C136 C 0.10742 0.33333 0.42555 0.0
C137 C 0.12258 0.33458 0.4183 0.0
H138 H 0.14955 0.33227 0.40075 0.0
H139 H 0.14956 0.30804 0.36146 0.0
H140 H 0.05252 0.30012 0.40656 0.0
H141 H 0.07617 0.32621 0.43557 0.0
H142 H 0.10668 0.34333 0.44471 0.0
H143 H 0.13327 0.34554 0.43196 0.0
Mn144 Mn 0.73635 0.81421 0.40016 0.0
Mn145 Mn 0.70677 0.79355 0.29802 0.0
C146 C 0.71131 0.79512 0.43481 0.0
C147 C 0.74983 0.83716 0.45962 0.0
C148 C 0.73462 0.78764 0.31942 0.0
O149 O 0.74473 0.82716 0.32153 0.0
O150 O 0.72311 0.81412 0.25965 0.0
C151 C 0.69308 0.81502 0.28929 0.0
N152 N 0.69121 0.80033 0.30236 0.0
C153 C 0.6635 0.78991 0.32965 0.0
C154 C 0.6651 0.8049 0.31606 0.0
C155 C 0.67996 0.8175 0.29583 0.0
C156 C 0.67694 0.78809 0.32154 0.0
H157 H 0.70452 0.82478 0.27426 0.0
C158 C 0.73737 0.82565 0.27084 0.0
O159 O 0.75668 0.82885 0.44554 0.0
O160 O 0.73546 0.83215 0.43931 0.0
N161 N 0.69026 0.77358 0.33067 0.0
C162 C 0.69108 0.7603 0.34637 0.0
C163 C 0.67739 0.7468 0.36993 0.0
C164 C 0.66304 0.7471 0.37712 0.0
C165 C 0.66248 0.7609 0.36046 0.0
C166 C 0.67644 0.77392 0.33657 0.0
H167 H 0.70212 0.76006 0.34143 0.0
O168 O 0.7238 0.79977 0.46983 0.0
O169 O 0.71399 0.80189 0.38089 0.0
O170 O 0.74099 0.79724 0.36484 0.0
O171 O 0.7221 0.78565 0.29102 0.0
C172 C 0.64873 0.76237 0.36805 0.0
C173 C 0.64923 0.77686 0.35259 0.0
H174 H 0.65506 0.80692 0.3217 0.0
H175 H 0.68132 0.82913 0.28566 0.0
H176 H 0.67794 0.73622 0.38293 0.0
H177 H 0.65257 0.73674 0.39602 0.0
H178 H 0.63777 0.75252 0.38664 0.0
H179 H 0.63866 0.77793 0.35952 0.0
Mn180 Mn 0.17735 0.92682 0.41334 0.0
Mn181 Mn 0.19757 0.91654 0.31426 0.0
C182 C 0.19701 0.92198 0.44989 0.0
C183 C 0.15475 0.91799 0.47425 0.0
C184 C 0.20357 0.95053 0.3281 0.0
O185 O 0.16381 0.92084 0.33587 0.0
O186 O 0.17681 0.91184 0.27606 0.0
C187 C 0.17589 0.88134 0.31343 0.0
N188 N 0.1907 0.89427 0.32366 0.0
C189 C 0.2012 0.87729 0.35478 0.0
C190 C 0.18608 0.86378 0.34412 0.0
C191 C 0.17338 0.86582 0.3234 0.0
C192 C 0.20303 0.89244 0.34338 0.0
H193 H 0.16606 0.88286 0.29799 0.0
C194 C 0.16519 0.91447 0.28644 0.0
O195 O 0.16274 0.93291 0.45671 0.0
O196 O 0.15988 0.90852 0.45665 0.0
N197 N 0.21773 0.92035 0.34625 0.0
C198 C 0.23123 0.93462 0.3582 0.0
C199 C 0.2449 0.9347 0.38141 0.0
C200 C 0.24456 0.92012 0.39198 0.0
C201 C 0.23056 0.90559 0.37893 0.0
C202 C 0.21736 0.90626 0.35523 0.0
H203 H 0.23152 0.94585 0.35058 0.0
O204 O 0.19232 0.93013 0.48276 0.0
O205 O 0.18983 0.91677 0.39711 0.0
O206 O 0.19394 0.94789 0.37299 0.0
O207 O 0.20552 0.93964 0.30255 0.0
C208 C 0.22906 0.89046 0.38983 0.0
C209 C 0.2144 0.87632 0.37774 0.0
H210 H 0.18405 0.8518 0.35233 0.0
H211 H 0.16165 0.85545 0.31545 0.0
H212 H 0.25565 0.94596 0.39154 0.0
H213 H 0.25506 0.92023 0.41062 0.0
H214 H 0.23904 0.88957 0.40839 0.0
H215 H 0.21333 0.86477 0.38714 0.0
Mn216 Mn 0.74582 0.91652 0.91035 0.0
Mn217 Mn 0.71416 0.90913 0.82153 0.0
C218 C 0.7235 0.91536 0.95474 0.0
C219 C 0.75869 0.90584 0.96646 0.0
C220 C 0.7452 0.94122 0.82494 0.0
O221 O 0.75005 0.90824 0.83074 0.0
O222 O 0.7271 0.90107 0.7791 0.0
C223 C 0.69629 0.87365 0.82705 0.0
N224 N 0.69687 0.88791 0.8369 0.0
C225 C 0.66987 0.87455 0.87626 0.0
C226 C 0.66895 0.85971 0.86612 0.0
C227 C 0.68223 0.85927 0.84148 0.0
C228 C 0.68416 0.88848 0.86044 0.0
H229 H 0.70651 0.87327 0.80852 0.0
C230 C 0.74079 0.90192 0.78453 0.0
O231 O 0.76672 0.92049 0.94607 0.0
O232 O 0.74351 0.89766 0.95449 0.0
N233 N 0.70067 0.91623 0.85795 0.0
C234 C 0.70388 0.93152 0.86855 0.0
C235 C 0.69204 0.93407 0.89514 0.0
C236 C 0.67701 0.92089 0.91039 0.0
C237 C 0.67394 0.90528 0.89862 0.0
C238 C 0.68615 0.90348 0.87146 0.0
H239 H 0.71544 0.94168 0.85723 0.0
O240 O 0.73718 0.92245 0.98331 0.0
O241 O 0.72337 0.90904 0.90162 0.0
O242 O 0.75207 0.93786 0.86818 0.0
O243 O 0.73131 0.93128 0.80362 0.0
C244 C 0.65937 0.89143 0.91405 0.0
C245 C 0.65734 0.87607 0.90285 0.0
H246 H 0.65817 0.84859 0.8777 0.0
H247 H 0.68165 0.84788 0.83393 0.0
H248 H 0.69451 0.94615 0.90422 0.0
H249 H 0.66797 0.9229 0.9316 0.0
H250 H 0.64974 0.89244 0.93541 0.0
H251 H 0.64617 0.86551 0.91573 0.0
Mn252 Mn 0.07924 0.83093 0.92047 0.0
Mn253 Mn 0.0908 0.80981 0.8318 0.0
C254 C 0.08246 0.81085 0.96396 0.0
C255 C 0.08722 0.85367 0.97966 0.0
C256 C 0.057 0.8048 0.83107 0.0
O257 O 0.08746 0.84444 0.84324 0.0
O258 O 0.09673 0.83057 0.79047 0.0
C259 C 0.12602 0.83092 0.84066 0.0
N260 N 0.1127 0.81628 0.84908 0.0
C261 C 0.12851 0.80528 0.88893 0.0
C262 C 0.14242 0.82021 0.8803 0.0
C263 C 0.14116 0.83308 0.8561 0.0
C264 C 0.11377 0.8038 0.87212 0.0
H265 H 0.12509 0.84087 0.82243 0.0
C266 C 0.09451 0.84258 0.79694 0.0
O267 O 0.0728 0.84608 0.95671 0.0
O268 O 0.09668 0.84807 0.96848 0.0
N269 N 0.08588 0.7896 0.86689 0.0
C270 C 0.07125 0.77627 0.87565 0.0
C271 C 0.07037 0.76246 0.90144 0.0
C272 C 0.08451 0.76247 0.91775 0.0
C273 C 0.09943 0.77629 0.9078 0.0
C274 C 0.09957 0.78965 0.8814 0.0
H275 H 0.06034 0.77623 0.86352 0.0
O276 O 0.07381 0.81585 0.9915 0.0
O277 O 0.08901 0.81789 0.91217 0.0
O278 O 0.059 0.81483 0.87367 0.0
O279 O 0.06811 0.80223 0.81217 0.0
C280 C 0.11413 0.77743 0.92427 0.0
C281 C 0.12867 0.79192 0.91481 0.0
H282 H 0.1541 0.82196 0.89264 0.0
H283 H 0.15183 0.84466 0.84959 0.0
H284 H 0.05881 0.75186 0.9091 0.0
H285 H 0.08376 0.75186 0.93832 0.0
H286 H 0.11439 0.76733 0.94506 0.0
H287 H 0.13988 0.79272 0.92842 0.0
Mn288 Mn 0.1808 0.25494 0.93435 0.0
Mn289 Mn 0.19917 0.28692 0.84025 0.0
C290 C 0.1997 0.2794 0.97389 0.0
C291 C 0.15875 0.23934 0.99575 0.0
C292 C 0.20723 0.26018 0.84439 0.0
O293 O 0.16689 0.24774 0.8577 0.0
O294 O 0.17862 0.27053 0.8017 0.0
C295 C 0.17594 0.29849 0.84845 0.0
N296 N 0.19113 0.30116 0.856 0.0
C297 C 0.2003 0.32789 0.89365 0.0
C298 C 0.18477 0.32547 0.88583 0.0
C299 C 0.17254 0.3107 0.86318 0.0
C300 C 0.20301 0.31534 0.87759 0.0
H301 H 0.16647 0.2871 0.83155 0.0
C302 C 0.16759 0.25591 0.81033 0.0
O303 O 0.16733 0.23343 0.97417 0.0
O304 O 0.16299 0.25399 0.98183 0.0
N305 N 0.21907 0.30361 0.87273 0.0
C306 C 0.23314 0.30368 0.88094 0.0
C307 C 0.24649 0.31741 0.90512 0.0
C308 C 0.24523 0.33092 0.92049 0.0
C309 C 0.23066 0.33062 0.91118 0.0
C310 C 0.21782 0.31666 0.88627 0.0
H311 H 0.23413 0.29328 0.8696 0.0
O312 O 0.19587 0.26631 0.00389 0.0
O313 O 0.19215 0.27768 0.92221 0.0
O314 O 0.19797 0.25227 0.88908 0.0
O315 O 0.2083 0.273 0.82215 0.0
C316 C 0.22827 0.34348 0.92687 0.0
C317 C 0.21311 0.34212 0.91809 0.0
H318 H 0.18207 0.3348 0.89766 0.0
H319 H 0.1605 0.3087 0.85738 0.0
H320 H 0.25768 0.31754 0.91231 0.0
H321 H 0.25549 0.34141 0.93988 0.0
H322 H 0.23796 0.35439 0.94654 0.0
H323 H 0.21136 0.35201 0.9311 0.0
Mn324 Mn 0.91587 0.73276 0.59037 0.0
Mn325 Mn 0.91717 0.70655 0.68939 0.0
C326 C 0.91512 0.70993 0.55359 0.0
C327 C 0.89949 0.74025 0.53856 0.0
C328 C 0.94642 0.73823 0.65442 0.0
O329 O 0.91063 0.73919 0.67173 0.0
O330 O 0.91068 0.72054 0.73462 0.0
C331 C 0.8825 0.6874 0.7179 0.0
N332 N 0.89617 0.68821 0.69616 0.0
C333 C 0.88214 0.65997 0.67301 0.0
C334 C 0.86795 0.65881 0.69564 0.0
C335 C 0.86814 0.67259 0.71816 0.0
C336 C 0.89614 0.67501 0.67464 0.0
H337 H 0.88255 0.69799 0.73464 0.0
C338 C 0.90881 0.73265 0.72437 0.0
O339 O 0.91468 0.75055 0.54624 0.0
O340 O 0.89418 0.72603 0.5607 0.0
N341 N 0.92302 0.69229 0.65096 0.0
C342 C 0.93741 0.69569 0.62638 0.0
C343 C 0.93909 0.68331 0.59976 0.0
C344 C 0.92597 0.66759 0.59854 0.0
C345 C 0.91128 0.66438 0.62417 0.0
C346 C 0.91037 0.67717 0.65079 0.0
H347 H 0.94746 0.70778 0.62634 0.0
O348 O 0.91952 0.72222 0.51777 0.0
O349 O 0.91143 0.71154 0.60974 0.0
O350 O 0.93953 0.74307 0.61654 0.0
O351 O 0.93914 0.72488 0.68339 0.0
C352 C 0.8974 0.64909 0.62294 0.0
C353 C 0.88285 0.64688 0.64738 0.0
H354 H 0.8568 0.64744 0.69529 0.0
H355 H 0.85721 0.67182 0.73528 0.0
H356 H 0.95044 0.6859 0.57971 0.0
H357 H 0.92725 0.65812 0.57721 0.0
H358 H 0.89773 0.63899 0.60245 0.0
H359 H 0.8722 0.63511 0.64534 0.0
Mn360 Mn 0.26801 0.186 0.57823 0.0
Mn361 Mn 0.29737 0.20701 0.681 0.0
C362 C 0.29318 0.20474 0.54394 0.0
C363 C 0.25455 0.16272 0.52044 0.0
C364 C 0.27001 0.21339 0.6547 0.0
O365 O 0.2592 0.17353 0.65747 0.0
O366 O 0.28052 0.18687 0.72045 0.0
C367 C 0.31023 0.18497 0.69593 0.0
N368 N 0.31254 0.19971 0.68056 0.0
C369 C 0.34038 0.20948 0.6576 0.0
C370 C 0.33832 0.19444 0.67358 0.0
C371 C 0.32318 0.18214 0.69282 0.0
C372 C 0.32708 0.21166 0.66236 0.0
H373 H 0.29858 0.17546 0.71032 0.0
C374 C 0.26626 0.17536 0.70909 0.0
O375 O 0.2478 0.17123 0.53242 0.0
O376 O 0.26882 0.16772 0.54185 0.0
N377 N 0.31437 0.22661 0.64792 0.0
C378 C 0.31404 0.24001 0.63002 0.0
C379 C 0.32808 0.25324 0.60718 0.0
C380 C 0.34231 0.25257 0.60311 0.0
C381 C 0.34237 0.23867 0.62216 0.0
C382 C 0.32805 0.22592 0.64509 0.0
H383 H 0.30311 0.24054 0.63266 0.0
O384 O 0.28082 0.19995 0.5081 0.0
O385 O 0.29036 0.19825 0.59843 0.0
O386 O 0.26349 0.20333 0.61066 0.0
O387 O 0.28245 0.21544 0.68386 0.0
C388 C 0.35598 0.23683 0.61791 0.0
C389 C 0.35499 0.22225 0.63568 0.0
H390 H 0.34824 0.19215 0.67071 0.0
H391 H 0.32148 0.17048 0.70502 0.0
H392 H 0.32792 0.2639 0.59237 0.0
H393 H 0.35306 0.26272 0.58477 0.0
H394 H 0.36721 0.24647 0.60016 0.0
H395 H 0.36547 0.22091 0.63136 0.0
Mn396 Mn 0.81577 0.08183 0.5828 0.0
Mn397 Mn 0.78911 0.08227 0.6815 0.0
C398 C 0.79352 0.08214 0.54527 0.0
C399 C 0.83949 0.09743 0.52919 0.0
C400 C 0.79177 0.05265 0.65568 0.0
O401 O 0.82782 0.08807 0.66365 0.0
O402 O 0.81 0.09011 0.72515 0.0
C403 C 0.80398 0.11735 0.69874 0.0
N404 N 0.79119 0.10309 0.68107 0.0
C405 C 0.77619 0.11592 0.65189 0.0
C406 C 0.78914 0.13073 0.67027 0.0
C407 C 0.8031 0.13144 0.69377 0.0
C408 C 0.77767 0.10225 0.65868 0.0
H409 H 0.81479 0.11796 0.71616 0.0
C410 C 0.82368 0.09125 0.71514 0.0
O411 O 0.83453 0.08233 0.53969 0.0
O412 O 0.83067 0.10308 0.54924 0.0
N413 N 0.76859 0.07507 0.64412 0.0
C414 C 0.7577 0.06007 0.6242 0.0
C415 C 0.7433 0.05742 0.59717 0.0
C416 C 0.74028 0.0702 0.59082 0.0
C417 C 0.75166 0.08552 0.61183 0.0
C418 C 0.7657 0.08741 0.63911 0.0
H419 H 0.76005 0.05025 0.62841 0.0
O420 O 0.80122 0.07728 0.51052 0.0
O421 O 0.79917 0.08654 0.6007 0.0
O422 O 0.80247 0.05859 0.61343 0.0
O423 O 0.78615 0.06051 0.68349 0.0
C424 C 0.7498 0.09908 0.60541 0.0
C425 C 0.76205 0.11426 0.62547 0.0
H426 H 0.78859 0.14166 0.66584 0.0
H427 H 0.8132 0.14284 0.70759 0.0
H428 H 0.73461 0.04557 0.58081 0.0
H429 H 0.72925 0.06814 0.56923 0.0
H430 H 0.7391 0.098 0.58426 0.0
H431 H 0.76058 0.12463 0.61945 0.0
Mn432 Mn 0.92688 0.41535 0.40177 0.0
Mn433 Mn 0.95695 0.42274 0.49951 0.0
C434 C 0.95106 0.41967 0.36334 0.0
C435 C 0.91397 0.42598 0.34536 0.0
C436 C 0.9276 0.38974 0.48097 0.0
O437 O 0.91984 0.42074 0.48198 0.0
O438 O 0.94189 0.42838 0.54049 0.0
C439 C 0.97274 0.45811 0.5075 0.0
N440 N 0.97349 0.4447 0.4937 0.0
C441 C 0.00122 0.46049 0.46397 0.0
C442 C 0.00077 0.47447 0.47827 0.0
C443 C 0.98647 0.47327 0.50009 0.0
C444 C 0.98721 0.4457 0.47298 0.0
H445 H 0.96173 0.45724 0.52385 0.0
C446 C 0.92783 0.42646 0.53156 0.0
O447 O 0.90648 0.41083 0.35966 0.0
O448 O 0.92866 0.43469 0.36358 0.0
N449 N 0.97229 0.41789 0.46447 0.0
C450 C 0.97037 0.40333 0.4486 0.0
C451 C 0.98339 0.40247 0.42361 0.0
C452 C 0.99822 0.41656 0.41526 0.0
C453 C -8e-05 0.4314 0.43222 0.0
C454 C 0.98658 0.4315 0.45749 0.0
H455 H 0.95897 0.39248 0.45451 0.0
O456 O 0.93818 0.41245 0.32991 0.0
O457 O 0.9493 0.4242 0.41784 0.0
O458 O 0.92126 0.3934 0.43666 0.0
O459 O 0.94061 0.39985 0.5079 0.0
C460 C 0.01422 0.44612 0.42366 0.0
C461 C 0.01488 0.46065 0.4396 0.0
H462 H 0.01129 0.4862 0.47203 0.0
H463 H 0.986 0.48401 0.5109 0.0
H464 H 0.98196 0.39098 0.41043 0.0
H465 H 0.00817 0.41587 0.39527 0.0
H466 H 0.02471 0.44642 0.40398 0.0
H467 H 0.02586 0.47191 0.43196 0.0
Mn468 Mn 0.57803 0.5109 0.41332 0.0
Mn469 Mn 0.5811 0.54175 0.49623 0.0
C470 C 0.58358 0.53432 0.3639 0.0
C471 C 0.56037 0.48707 0.36411 0.0
C472 C 0.60688 0.53227 0.49284 0.0
O473 O 0.56845 0.50093 0.49573 0.0
O474 O 0.56831 0.52154 0.54445 0.0
C475 C 0.5471 0.53359 0.49434 0.0
N476 N 0.56278 0.54405 0.48104 0.0
C477 C 0.55605 0.56262 0.43433 0.0
C478 C 0.53984 0.5521 0.44801 0.0
C479 C 0.53535 0.53753 0.47813 0.0
C480 C 0.56725 0.55814 0.45232 0.0
H481 H 0.54359 0.52229 0.51684 0.0
C482 C 0.56491 0.50684 0.54154 0.0
O483 O 0.57446 0.48973 0.38146 0.0
O484 O 0.55693 0.49822 0.37444 0.0
N485 N 0.59307 0.56183 0.45418 0.0
C486 C 0.60903 0.57011 0.4407 0.0
C487 C 0.6154 0.58472 0.40873 0.0
C488 C 0.60531 0.59066 0.3909 0.0
C489 C 0.58893 0.58196 0.40551 0.0
C490 C 0.5833 0.56758 0.43819 0.0
H491 H 0.61681 0.56552 0.45378 0.0
O492 O 0.58661 0.52409 0.33692 0.0
O493 O 0.57722 0.53026 0.41852 0.0
O494 O 0.60053 0.52133 0.4516 0.0
O495 O 0.60045 0.54024 0.51304 0.0
C496 C 0.57791 0.58681 0.38767 0.0
C497 C 0.56148 0.57715 0.40211 0.0
H498 H 0.53072 0.55501 0.43496 0.0
H499 H 0.52286 0.5293 0.48844 0.0
H500 H 0.62804 0.59134 0.39742 0.0
H501 H 0.61023 0.60183 0.36552 0.0
H502 H 0.5819 0.59784 0.36207 0.0
H503 H 0.5531 0.5809 0.38739 0.0
Mn504 Mn 0.48713 0.07168 0.40097 0.0
Mn505 Mn 0.4637 0.0387 0.48495 0.0
C506 C 0.46858 0.04853 0.3519 0.0
C507 C 0.51147 0.08704 0.35214 0.0
C508 C 0.45887 0.06754 0.477 0.0
O509 O 0.49812 0.07672 0.48431 0.0
O510 O 0.48349 0.05301 0.53275 0.0
C511 C 0.48432 0.02396 0.48748 0.0
N512 N 0.47008 0.02301 0.473 0.0
C513 C 0.45955 0.99629 0.43279 0.0
C514 C 0.47406 0.99695 0.44766 0.0
C515 C 0.4865 0.01085 0.47504 0.0
C516 C 0.45802 0.00967 0.44677 0.0
H517 H 0.49394 0.03467 0.50817 0.0
C518 C 0.4954 0.06741 0.53015 0.0
O519 O 0.50298 0.09348 0.36893 0.0
O520 O 0.50583 0.07196 0.36349 0.0
N521 N 0.44432 0.02389 0.44327 0.0
C522 C 0.43151 0.02559 0.42815 0.0
C523 C 0.41824 0.01296 0.39832 0.0
C524 C 0.41827 0.99871 0.38454 0.0
C525 C 0.43154 0.99719 0.40097 0.0
C526 C 0.44436 0.01012 0.43114 0.0
H527 H 0.43146 0.03655 0.43835 0.0
O528 O 0.47442 0.06225 0.32404 0.0
O529 O 0.474 0.04884 0.40715 0.0
O530 O 0.46957 0.07534 0.43633 0.0
O531 O 0.45609 0.05408 0.49927 0.0
C532 C 0.43271 0.98349 0.38734 0.0
C533 C 0.4467 0.98304 0.40326 0.0
H534 H 0.47584 0.98692 0.43763 0.0
H535 H 0.49777 0.0115 0.48621 0.0
H536 H 0.40806 0.01424 0.38564 0.0
H537 H 0.4081 0.98907 0.36086 0.0
H538 H 0.42303 0.97334 0.36375 0.0
H539 H 0.44756 0.97254 0.39172 0.0
Mn540 Mn 0.74101 0.57589 0.76453 0.0
Mn541 Mn 0.74823 0.60594 0.66709 0.0
C542 C 0.743 0.59923 0.80223 0.0
C543 C 0.75209 0.56411 0.82518 0.0
C544 C 0.71593 0.5753 0.67797 0.0
O545 O 0.74852 0.56998 0.6867 0.0
O546 O 0.75568 0.592 0.62871 0.0
C547 C 0.78374 0.62346 0.66857 0.0
N548 N 0.76966 0.62326 0.67841 0.0
C549 C 0.78362 0.65077 0.71217 0.0
C550 C 0.79827 0.65131 0.70197 0.0
C551 C 0.79832 0.63759 0.6801 0.0
C552 C 0.76947 0.63641 0.69916 0.0
H553 H 0.78382 0.6129 0.65227 0.0
C554 C 0.75459 0.57831 0.63812 0.0
O555 O 0.73723 0.55576 0.80712 0.0
O556 O 0.76021 0.57894 0.80818 0.0
N557 N 0.74166 0.62024 0.69972 0.0
C558 C 0.72653 0.6174 0.71101 0.0
C559 C 0.72438 0.62974 0.73514 0.0
C560 C 0.73779 0.64485 0.74739 0.0
C561 C 0.75324 0.64752 0.73511 0.0
C562 C 0.75464 0.63482 0.7104 0.0
H563 H 0.71619 0.60577 0.70211 0.0
O564 O 0.73589 0.58614 0.83443 0.0
O565 O 0.74876 0.59815 0.74942 0.0
O566 O 0.71935 0.5691 0.72351 0.0
O567 O 0.7259 0.58872 0.65331 0.0
C568 C 0.76732 0.66215 0.74774 0.0
C569 C 0.7825 0.66378 0.73622 0.0
H570 H 0.80955 0.66213 0.71141 0.0
H571 H 0.80958 0.63788 0.67249 0.0
H572 H 0.71242 0.62758 0.74468 0.0
H573 H 0.73609 0.65428 0.76673 0.0
H574 H 0.76662 0.67215 0.76714 0.0
H575 H 0.79324 0.67502 0.74691 0.0
Mn576 Mn 0.40886 0.15208 0.73781 0.0
Mn577 Mn 0.37911 0.13374 0.63401 0.0
C578 C 0.3834 0.13386 0.77092 0.0
C579 C 0.42348 0.17435 0.79955 0.0
C580 C 0.40497 0.12492 0.65485 0.0
O581 O 0.41813 0.1655 0.66083 0.0
O582 O 0.3967 0.15394 0.59743 0.0
C583 C 0.36819 0.15752 0.62744 0.0
N584 N 0.36497 0.14227 0.63895 0.0
C585 C 0.33748 0.13375 0.66385 0.0
C586 C 0.34047 0.14933 0.65176 0.0
C587 C 0.3559 0.16126 0.63354 0.0
C588 C 0.35016 0.13068 0.65628 0.0
H589 H 0.38006 0.16675 0.61384 0.0
C590 C 0.41118 0.16478 0.6099 0.0
O591 O 0.42942 0.16531 0.7841 0.0
O592 O 0.40934 0.17043 0.77935 0.0
N593 N 0.36138 0.11421 0.6642 0.0
C594 C 0.36077 0.1001 0.67792 0.0
C595 C 0.34633 0.08707 0.69917 0.0
C596 C 0.33268 0.08868 0.70592 0.0
C597 C 0.33357 0.10329 0.69107 0.0
C598 C 0.34824 0.11581 0.66956 0.0
H599 H 0.37125 0.09883 0.67321 0.0
O600 O 0.39569 0.13759 0.80601 0.0
O601 O 0.38644 0.14114 0.7179 0.0
O602 O 0.412 0.13435 0.70018 0.0
O603 O 0.3929 0.12406 0.62661 0.0
C604 C 0.32058 0.10604 0.69814 0.0
C605 C 0.32254 0.12125 0.68448 0.0
H606 H 0.33106 0.1523 0.65686 0.0
H607 H 0.35832 0.17333 0.62443 0.0
H608 H 0.34575 0.07585 0.7107 0.0
H609 H 0.32162 0.07867 0.72302 0.0
H610 H 0.30911 0.0966 0.71489 0.0
H611 H 0.31252 0.12328 0.6909 0.0
Mn612 Mn 0.84362 0.25465 0.75084 0.0
Mn613 Mn 0.86585 0.24586 0.65631 0.0
C614 C 0.86447 0.25216 0.79069 0.0
C615 C 0.82062 0.24462 0.81026 0.0
C616 C 0.86899 0.27885 0.66418 0.0
O617 O 0.83031 0.24716 0.67272 0.0
O618 O 0.8447 0.2391 0.61661 0.0
C619 C 0.8465 0.21042 0.66034 0.0
N620 N 0.86073 0.22418 0.66964 0.0
C621 C 0.87316 0.20935 0.70606 0.0
C622 C 0.85867 0.19501 0.69642 0.0
C623 C 0.84529 0.19556 0.6735 0.0
C624 C 0.8737 0.22379 0.69149 0.0
H625 H 0.83615 0.2108 0.64324 0.0
C626 C 0.83238 0.24073 0.62486 0.0
O627 O 0.82765 0.2594 0.79101 0.0
O628 O 0.82691 0.23597 0.79529 0.0
N629 N 0.88646 0.25168 0.68987 0.0
C630 C 0.89923 0.26661 0.70007 0.0
C631 C 0.91344 0.26819 0.72484 0.0
C632 C 0.91438 0.25442 0.73879 0.0
C633 C 0.90113 0.23919 0.72747 0.0
C634 C 0.88735 0.23836 0.70204 0.0
H635 H 0.89853 0.27723 0.68983 0.0
O636 O 0.85871 0.25969 0.82154 0.0
O637 O 0.8576 0.24614 0.73809 0.0
O638 O 0.85916 0.27588 0.70864 0.0
O639 O 0.872 0.26843 0.64081 0.0
C640 C 0.90093 0.2248 0.74168 0.0
C641 C 0.88696 0.20989 0.73095 0.0
H642 H 0.85764 0.18353 0.70706 0.0
H643 H 0.83404 0.18455 0.66631 0.0
H644 H 0.92361 0.27999 0.73359 0.0
H645 H 0.92529 0.25569 0.75863 0.0
H646 H 0.91138 0.22507 0.76168 0.0
H647 H 0.88688 0.19892 0.74284 0.0
Mn648 Mn 0.41762 0.25147 0.25231 0.0
Mn649 Mn 0.38384 0.23904 0.16928 0.0
C650 C 0.39479 0.24837 0.2996 0.0
C651 C 0.43308 0.2439 0.30937 0.0
C652 C 0.41237 0.27296 0.16346 0.0
O653 O 0.42209 0.24283 0.1744 0.0
O654 O 0.39828 0.23297 0.12589 0.0
C655 C 0.37011 0.20393 0.1813 0.0
N656 N 0.36875 0.21723 0.18938 0.0
C657 C 0.34234 0.20152 0.23284 0.0
C658 C 0.34343 0.18764 0.22469 0.0
C659 C 0.35738 0.18885 0.19883 0.0
C660 C 0.35536 0.2162 0.21401 0.0
H661 H 0.38086 0.20482 0.16177 0.0
C662 C 0.41263 0.23537 0.12988 0.0
O663 O 0.43962 0.25819 0.28528 0.0
O664 O 0.41792 0.23437 0.30041 0.0
N665 N 0.36884 0.24405 0.20643 0.0
C666 C 0.37009 0.25868 0.21454 0.0
C667 C 0.35734 0.25962 0.24173 0.0
C668 C 0.34342 0.24553 0.26001 0.0
C669 C 0.34235 0.2306 0.25066 0.0
C670 C 0.35538 0.2304 0.22286 0.0
H671 H 0.38079 0.26955 0.20079 0.0
O672 O 0.40872 0.25726 0.32484 0.0
O673 O 0.39472 0.24151 0.24787 0.0
O674 O 0.42102 0.2714 0.20469 0.0
O675 O 0.39857 0.26159 0.14698 0.0
C676 C 0.32901 0.21595 0.26908 0.0
C677 C 0.329 0.20142 0.26017 0.0
H678 H 0.33369 0.17602 0.23871 0.0
H679 H 0.35833 0.1782 0.19269 0.0
H680 H 0.35827 0.27118 0.24889 0.0
H681 H 0.33369 0.24632 0.28162 0.0
H682 H 0.31879 0.21575 0.29101 0.0
H683 H 0.31877 0.19026 0.27532 0.0
Mn684 Mn 0.74408 0.15582 0.25094 0.0
Mn685 Mn 0.7527 0.13333 0.15707 0.0
C686 C 0.74652 0.135 0.29136 0.0
C687 C 0.75422 0.1789 0.30998 0.0
C688 C 0.71975 0.13027 0.16501 0.0
O689 O 0.75155 0.16898 0.17252 0.0
O690 O 0.75947 0.15441 0.11682 0.0
C691 C 0.78815 0.15263 0.16067 0.0
N692 N 0.77439 0.13843 0.17035 0.0
C693 C 0.7892 0.12605 0.20729 0.0
C694 C 0.80355 0.14049 0.19727 0.0
C695 C 0.80301 0.15384 0.1739 0.0
C696 C 0.77476 0.1255 0.19263 0.0
H697 H 0.78778 0.16295 0.14323 0.0
C698 C 0.75791 0.16678 0.12474 0.0
O699 O 0.73943 0.17189 0.29081 0.0
O700 O 0.76282 0.17255 0.29505 0.0
N701 N 0.74687 0.11278 0.19122 0.0
C702 C 0.73194 0.10005 0.20169 0.0
C703 C 0.73035 0.08588 0.22691 0.0
C704 C 0.74411 0.08494 0.24099 0.0
C705 C 0.75935 0.09815 0.22938 0.0
C706 C 0.76018 0.11189 0.20352 0.0
H707 H 0.72133 0.10075 0.19136 0.0
O708 O 0.73904 0.14084 0.32201 0.0
O709 O 0.75252 0.14176 0.2386 0.0
O710 O 0.7228 0.14023 0.2091 0.0
O711 O 0.73012 0.12718 0.14171 0.0
C712 C 0.77374 0.09836 0.24369 0.0
C713 C 0.78865 0.11229 0.23263 0.0
H714 H 0.81503 0.14153 0.20796 0.0
H715 H 0.81403 0.16506 0.16642 0.0
H716 H 0.71855 0.07574 0.23588 0.0
H717 H 0.74284 0.07406 0.26118 0.0
H718 H 0.77346 0.08794 0.26403 0.0
H719 H 0.79962 0.11237 0.2446 0.0
Mn720 Mn 0.8432 0.58416 0.26915 0.0
Mn721 Mn 0.86294 0.61636 0.17691 0.0
C722 C 0.86273 0.60808 0.31024 0.0
C723 C 0.8207 0.56892 0.32884 0.0
C724 C 0.86944 0.58856 0.17986 0.0
O725 O 0.82958 0.57777 0.19178 0.0
O726 O 0.84221 0.60076 0.13733 0.0
C727 C 0.84086 0.62934 0.18533 0.0
N728 N 0.85578 0.63129 0.19318 0.0
C729 C 0.86602 0.65816 0.23131 0.0
C730 C 0.85078 0.65648 0.22321 0.0
C731 C 0.83815 0.642 0.20016 0.0
C732 C 0.86803 0.64519 0.21517 0.0
H733 H 0.8311 0.61819 0.16804 0.0
C734 C 0.83077 0.58627 0.14488 0.0
O735 O 0.82889 0.56261 0.30715 0.0
O736 O 0.82559 0.58379 0.31618 0.0
N737 N 0.88309 0.63237 0.21021 0.0
C738 C 0.89681 0.63174 0.21829 0.0
C739 C 0.91048 0.64512 0.24268 0.0
C740 C 0.90992 0.65899 0.25832 0.0
C741 C 0.89571 0.65941 0.24904 0.0
C742 C 0.88252 0.64578 0.22396 0.0
H743 H 0.89728 0.62107 0.20664 0.0
O744 O 0.8582 0.59475 0.33962 0.0
O745 O 0.85544 0.60693 0.25837 0.0
O746 O 0.85994 0.58078 0.22414 0.0
O747 O 0.87118 0.60171 0.15824 0.0
C748 C 0.89402 0.67269 0.26486 0.0
C749 C 0.87918 0.67207 0.25599 0.0
H750 H 0.84861 0.66617 0.23506 0.0
H751 H 0.82634 0.64058 0.1941 0.0
H752 H 0.9214 0.64469 0.2498 0.0
H753 H 0.92043 0.66921 0.27784 0.0
H754 H 0.90398 0.68336 0.28466 0.0
H755 H 0.87797 0.68228 0.26906 0.0
Mn756 Mn 0.58111 0.06909 0.91832 0.0
Mn757 Mn 0.57476 0.04049 0.02197 0.0
C758 C 0.57611 0.0443 0.88479 0.0
C759 C 0.56985 0.0812 0.86041 0.0
C760 C 0.60766 0.06907 0.99415 0.0
O761 O 0.57699 0.07757 0.99746 0.0
O762 O 0.57038 0.05665 0.06111 0.0
C763 C 0.53965 0.02586 0.03775 0.0
N764 N 0.55257 0.02438 0.02233 0.0
C765 C 0.53568 0.99628 8e-05 0.0
C766 C 0.5222 0.99748 0.01614 0.0
C767 C 0.5242 0.01233 0.03503 0.0
C768 C 0.5508 0.01013 0.0044 0.0
H769 H 0.54113 0.03729 0.05185 0.0
C770 C 0.57226 0.07056 0.04941 0.0
O771 O 0.58518 0.0888 0.87178 0.0
O772 O 0.56134 0.06689 0.88257 0.0
N773 N 0.57845 0.02414 0.98927 0.0
C774 C 0.59255 0.02529 0.97126 0.0
C775 C 0.59257 0.01161 0.94879 0.0
C776 C 0.57812 0.99691 0.94519 0.0
C777 C 0.56377 0.996 0.96437 0.0
C778 C 0.56451 0.00999 0.98694 0.0
H779 H 0.60367 0.03659 0.97355 0.0
O780 O 0.58296 0.05663 0.84845 0.0
O781 O 0.57227 0.04691 0.93931 0.0
O782 O 0.60345 0.075 0.95001 0.0
O783 O 0.59786 0.05644 0.0239 0.0
C784 C 0.54872 0.98186 0.9606 0.0
C785 C 0.53469 0.982 0.97848 0.0
H786 H 0.51025 0.98711 0.01356 0.0
H787 H 0.51385 0.01337 0.04723 0.0
H788 H 0.60368 0.01242 0.9339 0.0
H789 H 0.57816 0.98644 0.92714 0.0
H790 H 0.54777 0.97087 0.94313 0.0
H791 H 0.52316 0.97111 0.97452 0.0
Mn792 Mn 0.92599 0.51203 0.8972 0.0
Mn793 Mn 0.95751 0.53488 0.98889 0.0
C794 C 0.94965 0.5316 0.85426 0.0
C795 C 0.91213 0.48829 0.84268 0.0
C796 C 0.92819 0.53886 0.97753 0.0
O797 O 0.92002 0.49993 0.97825 0.0
O798 O 0.94291 0.51439 0.03211 0.0
C799 C 0.97304 0.51499 0.99132 0.0
N800 N 0.97378 0.52921 0.9787 0.0
C801 C 0.00108 0.54084 0.9436 0.0
C802 C 0.00064 0.52635 0.95661 0.0
C803 C 0.98655 0.51337 0.98049 0.0
C804 C 0.98729 0.5418 0.95588 0.0
H805 H 0.96219 0.50495 0.00926 0.0
C806 C 0.9287 0.50232 0.02591 0.0
O807 O 0.90495 0.4961 0.8592 0.0
O808 O 0.92705 0.49423 0.85761 0.0
N809 N 0.9725 0.55491 0.95167 0.0
C810 C 0.97055 0.56761 0.93738 0.0
C811 C 0.98332 0.58138 0.91069 0.0
C812 C 0.99796 0.58195 0.89911 0.0
C813 C -0.00028 0.56875 0.91455 0.0
C814 C 0.98662 0.55542 0.94161 0.0
H815 H 0.95929 0.5672 0.94584 0.0
O816 O 0.93634 0.5259 0.82353 0.0
O817 O 0.94861 0.5255 0.90869 0.0
O818 O 0.92111 0.52867 0.93435 0.0
O819 O 0.9415 0.54169 0.00155 0.0
C820 C 0.01381 0.56816 0.90279 0.0
C821 C 0.0145 0.55422 0.91734 0.0
H822 H 0.01098 0.525 0.94771 0.0
H823 H 0.98607 0.50211 0.99019 0.0
H824 H 0.98186 0.59149 0.89873 0.0
H825 H 0.00772 0.59251 0.87782 0.0
H826 H 0.02411 0.57826 0.88162 0.0
H827 H 0.02531 0.55381 0.90717 0.0
Mn828 Mn 0.47081 0.41394 0.92623 0.0
Mn829 Mn 0.44338 0.41011 0.03086 0.0
C830 C 0.44723 0.41248 0.89466 0.0
C831 C 0.4933 0.4314 0.86864 0.0
C832 C 0.44796 0.38248 0.9914 0.0
O833 O 0.48354 0.42018 0.00533 0.0
O834 O 0.46447 0.4174 0.07269 0.0
C835 C 0.4574 0.44441 0.06334 0.0
N836 N 0.44488 0.43054 0.04122 0.0
C837 C 0.42922 0.44335 0.02356 0.0
C838 C 0.44191 0.45774 0.04659 0.0
C839 C 0.45606 0.45827 0.06656 0.0
C840 C 0.43117 0.42987 0.02221 0.0
H841 H 0.46836 0.44492 0.0782 0.0
C842 C 0.47883 0.42072 0.0597 0.0
O843 O 0.4898 0.41661 0.87763 0.0
O844 O 0.48399 0.43583 0.89391 0.0
N845 N 0.42269 0.40337 0.99585 0.0
C846 C 0.41204 0.38887 0.97102 0.0
C847 C 0.39747 0.38651 0.94688 0.0
C848 C 0.39402 0.39908 0.94842 0.0
C849 C 0.40517 0.41388 0.97425 0.0
C850 C 0.41942 0.41548 0.99821 0.0
H851 H 0.41474 0.37926 0.96893 0.0
O852 O 0.45536 0.40881 0.85698 0.0
O853 O 0.45317 0.4167 0.94985 0.0
O854 O 0.45949 0.3903 0.95348 0.0
O855 O 0.44096 0.38869 0.02137 0.0
C856 C 0.40286 0.42723 0.97591 0.0
C857 C 0.41487 0.44195 0.0006 0.0
H858 H 0.44098 0.4685 0.04857 0.0
H859 H 0.46594 0.46935 0.08404 0.0
H860 H 0.38897 0.37508 0.92669 0.0
H861 H 0.38285 0.39726 0.92912 0.0
H862 H 0.39197 0.42636 0.95761 0.0
H863 H 0.41303 0.45217 0.00094 0.0
Mn864 Mn 0.58834 0.75449 0.72715 0.0
Mn865 Mn 0.61981 0.76118 0.81572 0.0
C866 C 0.6106 0.75561 0.68227 0.0
C867 C 0.57586 0.76579 0.6721 0.0
C868 C 0.58855 0.72927 0.81077 0.0
O869 O 0.58413 0.76249 0.80753 0.0
O870 O 0.60701 0.76928 0.85901 0.0
C871 C 0.63802 0.79668 0.81243 0.0
N872 N 0.63727 0.78238 0.8015 0.0
C873 C 0.66428 0.79565 0.76235 0.0
C874 C 0.66538 0.81052 0.77361 0.0
C875 C 0.65218 0.81103 0.79869 0.0
C876 C 0.64991 0.78175 0.77755 0.0
H877 H 0.62785 0.79711 0.8313 0.0
C878 C 0.59338 0.76857 0.85392 0.0
O879 O 0.56761 0.75103 0.6913 0.0
O880 O 0.59101 0.7737 0.68466 0.0
N881 N 0.63315 0.75402 0.77843 0.0
C882 C 0.62977 0.73873 0.76671 0.0
C883 C 0.64152 0.73613 0.73953 0.0
C884 C 0.65662 0.74925 0.72482 0.0
C885 C 0.65987 0.76488 0.73773 0.0
C886 C 0.64774 0.76672 0.76544 0.0
H887 H 0.61815 0.72861 0.7776 0.0
O888 O 0.59695 0.74877 0.6535 0.0
O889 O 0.61073 0.76171 0.7359 0.0
O890 O 0.58178 0.73287 0.76783 0.0
O891 O 0.60247 0.73905 0.83236 0.0
C892 C 0.67452 0.7787 0.72291 0.0
C893 C 0.67673 0.79407 0.73525 0.0
H894 H 0.67624 0.82162 0.76256 0.0
H895 H 0.65289 0.82245 0.8071 0.0
H896 H 0.63891 0.72404 0.72956 0.0
H897 H 0.66558 0.74721 0.70316 0.0
H898 H 0.68409 0.77764 0.70115 0.0
H899 H 0.68797 0.80461 0.72283 0.0
Mn900 Mn 0.24742 0.84823 0.73965 0.0
Mn901 Mn 0.2429 0.87345 0.8334 0.0
C902 C 0.24555 0.86925 0.69791 0.0
C903 C 0.23417 0.824 0.68728 0.0
C904 C 0.27443 0.87367 0.81686 0.0
O905 O 0.24122 0.8365 0.82119 0.0
O906 O 0.23537 0.85265 0.87706 0.0
C907 C 0.20746 0.85662 0.84084 0.0
N908 N 0.22159 0.86998 0.8262 0.0
C909 C 0.20789 0.88376 0.79209 0.0
C910 C 0.19318 0.87019 0.80724 0.0
C911 C 0.19297 0.85656 0.83169 0.0
C912 C 0.22194 0.88319 0.80294 0.0
H913 H 0.20723 0.84607 0.85913 0.0
C914 C 0.23601 0.83973 0.86992 0.0
O915 O 0.24935 0.83033 0.70041 0.0
O916 O 0.22711 0.83183 0.70374 0.0
N917 N 0.24957 0.89383 0.79573 0.0
C918 C 0.26464 0.90546 0.77949 0.0
C919 C 0.26688 0.91967 0.75209 0.0
C920 C 0.25363 0.92176 0.74168 0.0
C921 C 0.23825 0.90965 0.75903 0.0
C922 C 0.23677 0.89583 0.7868 0.0
H923 H 0.27484 0.90386 0.78694 0.0
O924 O 0.2516 0.86219 0.66574 0.0
O925 O 0.2407 0.86358 0.75302 0.0
O926 O 0.26995 0.86326 0.77361 0.0
O927 O 0.26517 0.87793 0.8426 0.0
C928 C 0.22428 0.91058 0.74852 0.0
C929 C 0.20912 0.89766 0.7651 0.0
H930 H 0.18198 0.87003 0.79964 0.0
H931 H 0.18167 0.84601 0.8431 0.0
H932 H 0.27878 0.92894 0.73861 0.0
H933 H 0.25538 0.93265 0.71982 0.0
H934 H 0.22505 0.92109 0.72686 0.0
H935 H 0.19845 0.89843 0.75596 0.0
Mn936 Mn 0.14188 0.39222 0.76373 0.0
Mn937 Mn 0.11528 0.36443 0.86065 0.0
C938 C 0.12081 0.36894 0.72474 0.0
C939 C 0.16632 0.40183 0.7137 0.0
C940 C 0.11608 0.39568 0.83123 0.0
O941 O 0.15315 0.39869 0.84598 0.0
O942 O 0.13554 0.37851 0.90682 0.0
C943 C 0.13185 0.346 0.88353 0.0
N944 N 0.11871 0.34651 0.86317 0.0
C945 C 0.10541 0.31861 0.83478 0.0
C946 C 0.11874 0.31775 0.85594 0.0
C947 C 0.13201 0.33151 0.88038 0.0
C948 C 0.10584 0.33333 0.83983 0.0
H949 H 0.14215 0.3566 0.90168 0.0
C950 C 0.14892 0.39149 0.89767 0.0
O951 O 0.16031 0.41116 0.72252 0.0
O952 O 0.15809 0.38724 0.73338 0.0
N953 N 0.09538 0.35012 0.82099 0.0
C954 C 0.08405 0.3533 0.79832 0.0
C955 C 0.07025 0.34096 0.77001 0.0
C956 C 0.06827 0.32551 0.76523 0.0
C957 C 0.08008 0.32252 0.78907 0.0
C958 C 0.09348 0.33524 0.81749 0.0
H959 H 0.08561 0.3652 0.80132 0.0
O960 O 0.12822 0.38155 0.68999 0.0
O961 O 0.12604 0.37055 0.78106 0.0
O962 O 0.12723 0.40091 0.79072 0.0
O963 O 0.11089 0.38234 0.85961 0.0
C964 C 0.07927 0.30753 0.78438 0.0
C965 C 0.09192 0.30557 0.80727 0.0
H966 H 0.11899 0.30664 0.85292 0.0
H967 H 0.1424 0.33097 0.89633 0.0
H968 H 0.06123 0.34338 0.75147 0.0
H969 H 0.05771 0.31608 0.74265 0.0
H970 H 0.06909 0.29749 0.76241 0.0
H971 H 0.09127 0.29405 0.80255 0.0
Mn972 Mn 0.41057 0.92154 0.07487 0.0
Mn973 Mn 0.42028 0.95077 0.9701 0.0
C974 C 0.41615 0.94664 0.10695 0.0
C975 C 0.41969 0.90833 0.13778 0.0
C976 C 0.38628 0.9233 0.99028 0.0
O977 O 0.4156 0.91278 -0.00146 0.0
O978 O 0.42426 0.93398 0.93451 0.0
C979 C 0.45538 0.96377 0.9646 0.0
N980 N 0.4427 0.96602 0.97537 0.0
C981 C 0.46028 0.99386 -3e-05 0.0
C982 C 0.47354 0.99187 0.98867 0.0
C983 C 0.47107 0.97676 0.97095 0.0
C984 C 0.44493 0.98053 0.99218 0.0
H985 H 0.45352 0.95214 0.95142 0.0
C986 C 0.4215 0.91979 0.94743 0.0
O987 O 0.40463 0.9014 0.12222 0.0
O988 O 0.42914 0.92262 0.11706 0.0
N989 N 0.41709 0.96774 -0.00061 0.0
C990 C 0.40306 0.96736 0.01254 0.0
C991 C 0.40345 0.98138 0.03325 0.0
C992 C 0.41823 0.99562 0.04007 0.0
C993 C 0.4325 0.99574 0.02584 0.0
C994 C 0.43137 0.98145 0.00482 0.0
H995 H 0.39168 0.95641 0.00777 0.0
O996 O 0.40816 0.93427 0.14232 0.0
O997 O 0.42077 0.94388 0.05426 0.0
O998 O 0.3892 0.91683 0.0363 0.0
O999 O 0.39704 0.93576 0.9623 0.0
C1000 C 0.44782 0.00938 0.03308 0.0
C1001 C 0.4617 0.00844 0.0201 0.0
H1002 H 0.48565 0.00182 0.99403 0.0
H1003 H 0.48123 0.97511 0.96247 0.0
H1004 H 0.39238 0.98118 0.04431 0.0
H1005 H 0.41848 0.00635 0.05676 0.0
H1006 H 0.44908 0.02058 0.04946 0.0
H1007 H 0.47342 0.01895 0.02667 0.0
Mn1008 Mn 0.07751 0.49199 0.07992 0.0
Mn1009 Mn 0.04578 0.47085 0.98682 0.0
C1010 C 0.05358 0.47247 0.12135 0.0
C1011 C 0.09208 0.51505 0.13757 0.0
C1012 C 0.07432 0.46554 0.99466 0.0
O1013 O 0.08384 0.50494 0.0008 0.0
O1014 O 0.06089 0.4916 0.94626 0.0
C1015 C 0.03133 0.49172 0.99025 0.0
N1016 N 0.03005 0.47714 -6e-05 0.0
C1017 C 0.00287 0.46599 0.03583 0.0
C1018 C 0.00387 0.48086 0.02585 0.0
C1019 C 0.01817 0.49378 0.00302 0.0
C1020 C 0.01633 0.46461 0.02171 0.0
H1021 H 0.04235 0.50171 0.97317 0.0
C1022 C 0.07526 0.50331 0.95354 0.0
O1023 O 0.09878 0.50697 0.11857 0.0
O1024 O 0.07721 0.50974 0.12332 0.0
N1025 N 0.0303 0.45065 0.02142 0.0
C1026 C 0.0317 0.43747 0.03269 0.0
C1027 C 0.01865 0.42367 0.05785 0.0
C1028 C 0.00429 0.42354 0.07104 0.0
C1029 C 0.0031 0.43721 0.05869 0.0
C1030 C 0.01645 0.45056 0.03298 0.0
H1031 H 0.04274 0.43754 0.023 0.0
O1032 O 0.06686 0.4775 0.15178 0.0
O1033 O 0.0548 0.47921 0.06811 0.0
O1034 O 0.08161 0.47522 0.03907 0.0
O1035 O 0.06121 0.46342 0.97107 0.0
C1036 C 0.98932 0.43824 0.07224 0.0
C1037 C 0.9892 0.45262 0.0608 0.0
H1038 H 0.9938 0.48254 0.03631 0.0
H1039 H 0.01907 0.50533 0.99564 0.0
H1040 H 0.01968 0.41318 0.06744 0.0
H1041 H 0.99432 0.41294 0.09118 0.0
H1042 H 0.97884 0.42813 0.09242 0.0
H1043 H 0.97863 0.45334 0.07232 0.0
Mn1044 Mn 0.52485 0.58813 0.04989 0.0
Mn1045 Mn 0.55035 0.58965 0.94106 0.0
C1046 C 0.54893 0.59026 0.07829 0.0
C1047 C 0.50331 0.57167 0.11345 0.0
C1048 C 0.54582 0.61783 0.97238 0.0
O1049 O 0.51085 0.58031 0.97391 0.0
O1050 O 0.52852 0.58094 0.90395 0.0
C1051 C 0.53673 0.5548 0.92148 0.0
N1052 N 0.54934 0.56933 0.93775 0.0
C1053 C 0.56591 0.55767 0.95866 0.0
C1054 C 0.55313 0.5426 0.94166 0.0
C1055 C 0.53848 0.54116 0.923 0.0
C1056 C 0.56352 0.57086 0.95542 0.0
H1057 H 0.5254 0.55363 0.90773 0.0
C1058 C 0.51451 0.57826 0.91955 0.0
O1059 O 0.50653 0.58623 0.10115 0.0
O1060 O 0.51238 0.56693 0.0883 0.0
N1061 N 0.57168 0.59777 0.97175 0.0
C1062 C 0.58241 0.61294 0.99056 0.0
C1063 C 0.59749 0.6163 0.01282 0.0
C1064 C 0.60136 0.60404 0.01555 0.0
C1065 C 0.59012 0.58853 0.99583 0.0
C1066 C 0.57535 0.58593 0.97349 0.0
H1067 H 0.57941 0.62236 0.98914 0.0
O1068 O 0.54137 0.59466 0.11589 0.0
O1069 O 0.54211 0.58498 0.02493 0.0
O1070 O 0.53565 0.61118 0.01608 0.0
O1071 O 0.55214 0.6109 0.94263 0.0
C1072 C 0.59287 0.57546 -0.0013 0.0
C1073 C 0.58078 0.56005 0.98006 0.0
H1074 H 0.55438 0.53202 0.94339 0.0
H1075 H 0.52854 0.52956 0.91019 0.0
H1076 H 0.60606 0.62829 0.02822 0.0
H1077 H 0.61294 0.60665 0.03335 0.0
H1078 H 0.60417 0.5771 0.01587 0.0
H1079 H 0.58296 0.55007 0.98319 0.0
Mn1080 Mn 0.07671 0.58829 0.5755 0.0
Mn1081 Mn 0.04591 0.5781 0.47775 0.0
C1082 C 0.05228 0.58333 0.61331 0.0
C1083 C 0.0907 0.57943 0.63522 0.0
C1084 C 0.07406 0.61202 0.49095 0.0
O1085 O 0.08402 0.58238 0.49719 0.0
O1086 O 0.06171 0.57318 0.43886 0.0
C1087 C 0.03199 0.54284 0.47674 0.0
N1088 N 0.03033 0.55589 0.4873 0.0
C1089 C 0.00281 0.53919 0.51823 0.0
C1090 C 0.00418 0.52556 0.50724 0.0
C1091 C 0.01884 0.5274 0.48646 0.0
C1092 C 0.01627 0.55426 0.50707 0.0
H1093 H 0.04327 0.54422 0.46119 0.0
C1094 C 0.07603 0.57589 0.44828 0.0
O1095 O 0.09754 0.59436 0.61786 0.0
O1096 O 0.07605 0.56996 0.61807 0.0
N1097 N 0.02982 0.58217 0.51059 0.0
C1098 C 0.03084 0.59652 0.52315 0.0
C1099 C 0.01738 0.59679 0.5467 0.0
C1100 C 0.00302 0.58232 0.55695 0.0
C1101 C 0.00224 0.5677 0.5433 0.0
C1102 C 0.01599 0.56818 0.51934 0.0
H1103 H 0.04187 0.60768 0.51573 0.0
O1104 O 0.0652 0.59147 0.64585 0.0
O1105 O 0.05413 0.57824 0.56012 0.0
O1106 O 0.08107 0.60941 0.53586 0.0
O1107 O 0.06119 0.60113 0.4656 0.0
C1108 C 0.98847 0.55266 0.55391 0.0
C1109 C 0.98875 0.53841 0.54133 0.0
H1110 H 0.99412 0.51365 0.51526 0.0
H1111 H 0.02002 0.51695 0.47825 0.0
H1112 H 0.0181 0.60812 0.55731 0.0
H1113 H 0.99273 0.58256 0.57584 0.0
H1114 H 0.97768 0.55191 0.57266 0.0
H1115 H 0.97817 0.52693 0.55057 0.0
Mn1116 Mn 0.41563 0.49194 0.56539 0.0
Mn1117 Mn 0.41656 0.46234 0.48703 0.0
C1118 C 0.41119 0.46908 0.61672 0.0
C1119 C 0.43148 0.51608 0.61614 0.0
C1120 C 0.3887 0.46887 0.48122 0.0
O1121 O 0.42597 0.50239 0.48446 0.0
O1122 O 0.4286 0.48273 0.43944 0.0
C1123 C 0.45124 0.47353 0.49766 0.0
N1124 N 0.4357 0.46201 0.50781 0.0
C1125 C 0.44389 0.44502 0.55863 0.0
C1126 C 0.45997 0.45664 0.54825 0.0
C1127 C 0.46366 0.47095 0.51766 0.0
C1128 C 0.43202 0.44818 0.53707 0.0
H1129 H 0.45412 0.48462 0.47476 0.0
C1130 C 0.4308 0.49703 0.44079 0.0
O1131 O 0.41734 0.51255 0.59586 0.0
O1132 O 0.43595 0.50562 0.60795 0.0
N1133 N 0.40544 0.44209 0.52852 0.0
C1134 C 0.38938 0.43256 0.53811 0.0
C1135 C 0.3837 0.41796 0.5697 0.0
C1136 C 0.39457 0.41333 0.59107 0.0
C1137 C 0.41104 0.42329 0.58031 0.0
C1138 C 0.41598 0.4376 0.54785 0.0
H1139 H 0.38099 0.43612 0.52215 0.0
O1140 O 0.40673 0.47851 0.6413 0.0
O1141 O 0.41823 0.47357 0.56347 0.0
O1142 O 0.39369 0.48002 0.52189 0.0
O1143 O 0.39649 0.46189 0.46507 0.0
C1144 C 0.42276 0.41975 0.60165 0.0
C1145 C 0.43918 0.43061 0.59086 0.0
H1146 H 0.46959 0.45477 0.56414 0.0
H1147 H 0.47605 0.48002 0.50987 0.0
H1148 H 0.37097 0.41035 0.57796 0.0
H1149 H 0.39016 0.40216 0.61612 0.0
H1150 H 0.41931 0.40882 0.62714 0.0
H1151 H 0.44809 0.42787 0.60826 0.0
Mn1152 Mn 0.50453 0.91905 0.59281 0.0
Mn1153 Mn 0.52497 0.95293 0.50969 0.0
C1154 C 0.52303 0.94236 0.64101 0.0
C1155 C 0.4814 0.90246 0.64713 0.0
C1156 C 0.53219 0.9256 0.50741 0.0
O1157 O 0.49195 0.91386 0.513 0.0
O1158 O 0.50487 0.93785 0.4652 0.0
C1159 C 0.5024 0.96533 0.51871 0.0
N1160 N 0.5173 0.96735 0.52824 0.0
C1161 C 0.52677 0.99361 0.57146 0.0
C1162 C 0.51156 0.99185 0.5618 0.0
C1163 C 0.49932 0.97764 0.53534 0.0
C1164 C 0.52917 0.98099 0.55347 0.0
H1165 H 0.49294 0.95438 0.49873 0.0
C1166 C 0.49352 0.92319 0.46852 0.0
O1167 O 0.4901 0.89679 0.62487 0.0
O1168 O 0.48612 0.91745 0.63791 0.0
N1169 N 0.54455 0.96852 0.54808 0.0
C1170 C 0.55824 0.96792 0.55774 0.0
C1171 C 0.57149 0.98099 0.58574 0.0
C1172 C 0.57056 0.99456 0.60326 0.0
C1173 C 0.5564 0.99496 0.59236 0.0
C1174 C 0.54363 0.98164 0.5638 0.0
H1175 H 0.55899 0.95749 0.5446 0.0
O1176 O 0.51844 0.92859 0.66693 0.0
O1177 O 0.51645 0.94199 0.58818 0.0
O1178 O 0.5222 0.91691 0.549 0.0
O1179 O 0.53383 0.93894 0.48866 0.0
C1180 C 0.55434 0.00791 0.60997 0.0
C1181 C 0.53953 0.00724 0.59952 0.0
H1182 H 0.50909 0.00125 0.5751 0.0
H1183 H 0.48753 0.97616 0.52805 0.0
H1184 H 0.58236 0.98058 0.59412 0.0
H1185 H 0.58074 0.00454 0.62551 0.0
H1186 H 0.56397 0.01834 0.63246 0.0
H1187 H 0.53802 0.01717 0.61407 0.0
Mn1188 Mn 0.24509 0.40199 0.26466 0.0
Mn1189 Mn 0.24785 0.37575 0.35901 0.0
C1190 C 0.24545 0.38006 0.22398 0.0
C1191 C 0.22791 0.40895 0.21606 0.0
C1192 C 0.27621 0.40829 0.32622 0.0
O1193 O 0.23963 0.4074 0.34756 0.0
O1194 O 0.24078 0.38882 0.40732 0.0
C1195 C 0.21332 0.3554 0.38796 0.0
N1196 N 0.22719 0.35689 0.36512 0.0
C1197 C 0.214 0.32882 0.3393 0.0
C1198 C 0.19961 0.32696 0.36305 0.0
C1199 C 0.19927 0.34031 0.38743 0.0
C1200 C 0.22766 0.34411 0.34171 0.0
H1201 H 0.21296 0.36566 0.40615 0.0
C1202 C 0.23828 0.40062 0.39934 0.0
O1203 O 0.24297 0.41963 0.22397 0.0
O1204 O 0.22316 0.39463 0.23616 0.0
N1205 N 0.25431 0.36228 0.31781 0.0
C1206 C 0.26879 0.36635 0.29231 0.0
C1207 C 0.27097 0.35446 0.26396 0.0
C1208 C 0.25824 0.33854 0.26191 0.0
C1209 C 0.24345 0.33464 0.28846 0.0
C1210 C 0.24204 0.34695 0.31683 0.0
H1211 H 0.27851 0.3786 0.29277 0.0
O1212 O 0.24923 0.39252 0.18986 0.0
O1213 O 0.24162 0.38094 0.28075 0.0
O1214 O 0.26883 0.41298 0.29012 0.0
O1215 O 0.26949 0.39466 0.35343 0.0
C1216 C 0.22992 0.3191 0.28646 0.0
C1217 C 0.21521 0.31619 0.31188 0.0
H1218 H 0.18871 0.31538 0.36214 0.0
H1219 H 0.18818 0.339 0.40539 0.0
H1220 H 0.28239 0.35759 0.24316 0.0
H1221 H 0.25991 0.32945 0.23921 0.0
H1222 H 0.23064 0.30936 0.2646 0.0
H1223 H 0.20484 0.30425 0.30923 0.0
Mn1224 Mn 0.59775 0.85697 0.2361 0.0
Mn1225 Mn 0.62726 0.87855 0.3373 0.0
C1226 C 0.62263 0.8762 0.20061 0.0
C1227 C 0.58456 0.83369 0.17834 0.0
C1228 C 0.59889 0.88358 0.31462 0.0
O1229 O 0.58963 0.84438 0.31568 0.0
O1230 O 0.6113 0.85798 0.37693 0.0
C1231 C 0.64176 0.85783 0.3483 0.0
N1232 N 0.64323 0.87229 0.33398 0.0
C1233 C 0.671 0.88322 0.30667 0.0
C1234 C 0.66982 0.86848 0.32153 0.0
C1235 C 0.65513 0.85573 0.3424 0.0
C1236 C 0.65733 0.88466 0.31419 0.0
H1237 H 0.63045 0.84796 0.36383 0.0
C1238 C 0.59711 0.84622 0.36635 0.0
O1239 O 0.57749 0.84184 0.19146 0.0
O1240 O 0.59899 0.83904 0.19863 0.0
N1241 N 0.6434 0.89853 0.30338 0.0
C1242 C 0.64218 0.91152 0.28647 0.0
C1243 C 0.65565 0.92509 0.26213 0.0
C1244 C 0.67021 0.92517 0.25542 0.0
C1245 C 0.67118 0.91168 0.27331 0.0
C1246 C 0.65742 0.89857 0.29793 0.0
H1247 H 0.63097 0.91146 0.29105 0.0
O1248 O 0.61009 0.87117 0.16554 0.0
O1249 O 0.62008 0.86972 0.25503 0.0
O1250 O 0.59269 0.87379 0.26966 0.0
O1251 O 0.61151 0.88593 0.34326 0.0
C1252 C 0.68516 0.91059 0.26629 0.0
C1253 C 0.68508 0.89638 0.28303 0.0
H1254 H 0.68006 0.86675 0.31639 0.0
H1255 H 0.6541 0.84428 0.35355 0.0
H1256 H 0.65478 0.93543 0.24818 0.0
H1257 H 0.68051 0.93559 0.23593 0.0
H1258 H 0.69598 0.92052 0.24716 0.0
H1259 H 0.69583 0.89559 0.27652 0.0
Mn1260 Mn 0.14857 0.75045 0.24217 0.0
Mn1261 Mn 0.12605 0.75646 0.34562 0.0
C1262 C 0.12843 0.75492 0.20857 0.0
C1263 C 0.17182 0.76178 0.18408 0.0
C1264 C 0.12216 0.72376 0.31867 0.0
O1265 O 0.16155 0.75531 0.32059 0.0
O1266 O 0.1465 0.76069 0.38555 0.0
C1267 C 0.14663 0.79155 0.36146 0.0
N1268 N 0.1322 0.77867 0.34602 0.0
C1269 C 0.1212 0.79567 0.32231 0.0
C1270 C 0.1359 0.80912 0.33847 0.0
C1271 C 0.14867 0.80704 0.35807 0.0
C1272 C 0.11982 0.78051 0.32729 0.0
H1273 H 0.15652 0.79002 0.37596 0.0
C1274 C 0.15887 0.75945 0.37299 0.0
O1275 O 0.16433 0.74649 0.19619 0.0
O1276 O 0.16576 0.77018 0.20503 0.0
N1277 N 0.10609 0.75285 0.31237 0.0
C1278 C 0.09314 0.73878 0.29407 0.0
C1279 C 0.07954 0.73883 0.2708 0.0
C1280 C 0.07939 0.75333 0.26667 0.0
C1281 C 0.09283 0.76765 0.28611 0.0
C1282 C 0.10597 0.76683 0.30955 0.0
H1283 H 0.09326 0.72764 0.29668 0.0
O1284 O 0.13391 0.74799 0.17267 0.0
O1285 O 0.13499 0.75901 0.26291 0.0
O1286 O 0.13257 0.72813 0.27553 0.0
O1287 O 0.11887 0.73338 0.3473 0.0
C1288 C 0.09385 0.78274 0.28173 0.0
C1289 C 0.10802 0.79674 0.29984 0.0
H1290 H 0.13759 0.8211 0.33528 0.0
H1291 H 0.16009 0.81737 0.37016 0.0
H1292 H 0.06924 0.72774 0.25568 0.0
H1293 H 0.06895 0.75334 0.24797 0.0
H1294 H 0.0839 0.78375 0.26358 0.0
H1295 H 0.10875 0.8083 0.29534 0.0
H1296 H 0.21719 0.95909 0.21422 0.0
H1297 H 0.21003 0.97888 0.3824 0.0
H1298 H 0.2312 0.98583 0.16889 0.0
H1299 H 0.22426 0.00573 0.33669 0.0
H1300 H 0.26741 0.0516 0.25207 0.0
H1301 H 0.25349 0.02489 0.29789 0.0
H1302 H 0.2229 0.00682 0.1376 0.0
H1303 H 0.2367 0.03362 0.09156 0.0
C1304 C 0.2187 0.96915 0.24171 0.0
C1305 C 0.21252 0.96687 0.302 0.0
C1306 C 0.22661 0.98442 0.21549 0.0
C1307 C 0.22873 0.99775 0.2493 0.0
C1308 C 0.2228 0.99559 0.30986 0.0
C1309 C 0.21463 0.98025 0.33585 0.0
C1310 C 0.25777 0.04194 0.22634 0.0
C1311 C 0.25316 0.04471 0.16809 0.0
C1312 C 0.24975 0.0267 0.25287 0.0
C1313 C 0.23713 0.01389 0.22128 0.0
C1314 C 0.23265 0.01654 0.16268 0.0
C1315 C 0.24051 0.03186 0.1365 0.0
H1316 H 0.9587 0.21963 0.26825 0.0
H1317 H 0.971 0.20451 0.09897 0.0
H1318 H 0.98499 0.22745 0.31016 0.0
H1319 H 0.99768 0.21265 0.14151 0.0
H1320 H 0.0485 0.25217 0.22397 0.0
H1321 H 0.02204 0.24055 0.1763 0.0
H1322 H 0.00057 0.21291 0.34123 0.0
H1323 H 0.0271 0.22442 0.38915 0.0
C1324 C 0.96705 0.21805 0.23972 0.0
C1325 C 0.96279 0.21153 0.17999 0.0
C1326 C 0.98205 0.22238 0.26415 0.0
C1327 C 0.99324 0.2205 0.22926 0.0
C1328 C 0.98917 0.21415 0.16928 0.0
C1329 C 0.97396 0.20952 0.14502 0.0
C1330 C 0.03816 0.24351 0.24995 0.0
C1331 C 0.03984 0.23933 0.31061 0.0
C1332 C 0.02306 0.23677 0.22236 0.0
C1333 C 0.00934 0.2259 0.25521 0.0
C1334 C 0.01102 0.22133 0.31514 0.0
C1335 C 0.02617 0.22789 0.34245 0.0
H1336 H 0.7309 0.77384 0.20625 0.0
H1337 H 0.75627 0.78176 0.37911 0.0
H1338 H 0.74419 0.75979 0.16617 0.0
H1339 H 0.76945 0.76755 0.33872 0.0
H1340 H 0.77068 0.72262 0.26867 0.0
H1341 H 0.75888 0.73817 0.30629 0.0
H1342 H 0.77334 0.76641 0.13936 0.0
H1343 H 0.78542 0.75083 0.10118 0.0
C1344 C 0.73926 0.77253 0.23582 0.0
C1345 C 0.74246 0.77882 0.2961 0.0
C1346 C 0.74696 0.76463 0.21254 0.0
C1347 C 0.75784 0.76266 0.24931 0.0
C1348 C 0.76105 0.7689 0.30956 0.0
C1349 C 0.75352 0.77702 0.33261 0.0
C1350 C 0.77135 0.73209 0.23963 0.0
C1351 C 0.77894 0.73544 0.18168 0.0
C1352 C 0.76469 0.74108 0.26158 0.0
C1353 C 0.76529 0.7535 0.22585 0.0
C1354 C 0.77273 0.75683 0.16765 0.0
C1355 C 0.77965 0.74797 0.14593 0.0
H1356 H 0.76978 0.96868 0.87462 0.0
H1357 H 0.73983 0.95028 0.71231 0.0
H1358 H 0.78269 0.99566 0.83029 0.0
H1359 H 0.75286 0.97721 0.66819 0.0
H1360 H 0.7912 0.02752 0.59282 0.0
H1361 H 0.78143 0.00017 0.63168 0.0
H1362 H 0.77028 0.01362 0.8068 0.0
H1363 H 0.77973 0.0406 0.7685 0.0
C1364 C 0.76607 0.97036 0.82933 0.0
C1365 C 0.75367 0.9574 0.79729 0.0
C1366 C 0.77345 0.98577 0.80405 0.0
C1367 C 0.76874 0.98843 0.74591 0.0
C1368 C 0.75678 0.97541 0.71285 0.0
C1369 C 0.74924 0.96006 0.73847 0.0
C1370 C 0.78668 0.02459 0.63957 0.0
C1371 C 0.7861 0.03614 0.67739 0.0
C1372 C 0.78111 0.009 0.66168 0.0
C1373 C 0.77524 0.00492 0.72229 0.0
C1374 C 0.77492 0.01654 0.76018 0.0
C1375 C 0.78019 0.03193 0.7379 0.0
H1376 H 0.03095 0.80912 0.8427 0.0
H1377 H 0.04722 0.78012 0.74918 0.0
H1378 H 0.00492 0.79398 0.79127 0.0
H1379 H 0.02144 0.7653 0.69776 0.0
H1380 H 0.96708 0.72905 0.6977 0.0
H1381 H 0.99417 0.74602 0.73554 0.0
H1382 H 0.99187 0.78821 0.68441 0.0
H1383 H 0.96442 0.77106 0.6462 0.0
C1384 C 0.02902 0.79958 0.81121 0.0
C1385 C 0.04115 0.79577 0.80055 0.0
C1386 C 0.01419 0.79105 0.78128 0.0
C1387 C 0.0112 0.77849 0.74054 0.0
C1388 C 0.02338 0.77484 0.7293 0.0
C1389 C 0.03817 0.78338 0.75885 0.0
C1390 C 0.97237 0.74194 0.69359 0.0
C1391 C 0.96359 0.74872 0.669 0.0
C1392 C 0.98794 0.75166 0.71514 0.0
C1393 C 0.99509 0.76843 0.7131 0.0
C1394 C 0.98655 0.7753 0.68693 0.0
C1395 C 0.97094 0.76551 0.66455 0.0
H1396 H 0.24544 0.21584 0.60081 0.0
H1397 H 0.27645 0.23068 0.76103 0.0
H1398 H 0.23063 0.22796 0.64557 0.0
H1399 H 0.26156 0.24251 0.80527 0.0
H1400 H 0.21613 0.23962 0.89365 0.0
H1401 H 0.23208 0.2294 0.84439 0.0
H1402 H 0.23609 0.25647 0.67994 0.0
H1403 H 0.2203 0.26686 0.72906 0.0
C1404 C 0.24921 0.2218 0.64508 0.0
C1405 C 0.26208 0.2222 0.67739 0.0
C1406 C 0.24075 0.22873 0.67057 0.0
C1407 C 0.2449 0.23597 0.72906 0.0
C1408 C 0.25803 0.23681 0.76044 0.0
C1409 C 0.2666 0.23011 0.73474 0.0
C1410 C 0.22042 0.24341 0.84706 0.0
C1411 C 0.21701 0.25408 0.81534 0.0
C1412 C 0.22959 0.23762 0.81903 0.0
C1413 C 0.23527 0.24219 0.7585 0.0
C1414 C 0.23176 0.25273 0.72654 0.0
C1415 C 0.22282 0.25873 0.75488 0.0
H1416 H 0.88254 0.2874 0.55015 0.0
H1417 H 0.87389 0.30693 0.71588 0.0
H1418 H 0.89631 0.31412 0.50439 0.0
H1419 H 0.88784 0.33374 0.66981 0.0
H1420 H 0.93207 0.37953 0.59251 0.0
H1421 H 0.91729 0.35268 0.63619 0.0
H1422 H 0.88899 0.33556 0.46986 0.0
H1423 H 0.90372 0.36258 0.42572 0.0
C1424 C 0.8836 0.2974 0.57689 0.0
C1425 C 0.87719 0.29508 0.63681 0.0
C1426 C 0.89137 0.31265 0.55041 0.0
C1427 C 0.8931 0.32592 0.58362 0.0
C1428 C 0.8867 0.32366 0.64346 0.0
C1429 C 0.87869 0.30834 0.66967 0.0
C1430 C 0.92277 0.37006 0.5649 0.0
C1431 C 0.91909 0.37319 0.50548 0.0
C1432 C 0.91423 0.35473 0.59027 0.0
C1433 C 0.90198 0.34215 0.55651 0.0
C1434 C 0.89843 0.34512 0.49671 0.0
C1435 C 0.90683 0.36055 0.47156 0.0
H1436 H 0.61764 0.54404 0.60739 0.0
H1437 H 0.63092 0.52861 0.44144 0.0
H1438 H 0.64368 0.55177 0.65252 0.0
H1439 H 0.65722 0.53656 0.48693 0.0
H1440 H 0.70732 0.57795 0.56107 0.0
H1441 H 0.68052 0.56475 0.5164 0.0
H1442 H 0.66097 0.5396 0.68774 0.0
H1443 H 0.68796 0.55277 0.73282 0.0
C1444 C 0.62611 0.54223 0.58065 0.0
C1445 C 0.62233 0.53589 0.52059 0.0
C1446 C 0.64094 0.54649 0.60682 0.0
C1447 C 0.6524 0.54472 0.57322 0.0
C1448 C 0.64855 0.53805 0.51366 0.0
C1449 C 0.63354 0.5335 0.48774 0.0
C1450 C 0.69734 0.56953 0.58923 0.0
C1451 C 0.69971 0.56652 0.65073 0.0
C1452 C 0.68203 0.56185 0.56333 0.0
C1453 C 0.66873 0.55116 0.59861 0.0
C1454 C 0.67108 0.54784 0.65969 0.0
C1455 C 0.68648 0.55535 0.6854 0.0
H1456 H 0.39899 0.1099 0.54335 0.0
H1457 H 0.426 0.11764 0.71197 0.0
H1458 H 0.41118 0.09514 0.50043 0.0
H1459 H 0.43809 0.10268 0.66861 0.0
H1460 H 0.44256 0.06053 0.586 0.0
H1461 H 0.42867 0.07354 0.6305 0.0
H1462 H 0.44047 0.10387 0.46974 0.0
H1463 H 0.45452 0.091 0.42512 0.0
C1464 C 0.40739 0.10833 0.57157 0.0
C1465 C 0.41157 0.115 0.6311 0.0
C1466 C 0.41442 0.09995 0.54673 0.0
C1467 C 0.42559 0.09788 0.58117 0.0
C1468 C 0.42944 0.10409 0.64132 0.0
C1469 C 0.42257 0.11269 0.66595 0.0
C1470 C 0.4421 0.06988 0.55986 0.0
C1471 C 0.44965 0.07476 0.50202 0.0
C1472 C 0.43425 0.07738 0.58559 0.0
C1473 C 0.43357 0.08968 0.55352 0.0
C1474 C 0.44078 0.09432 0.49515 0.0
C1475 C 0.44885 0.08701 0.4698 0.0
H1476 H 0.44183 0.30041 0.17597 0.0
H1477 H 0.39652 0.28103 0.07934 0.0
H1478 H 0.45095 0.32633 0.12549 0.0
H1479 H 0.40573 0.30666 0.02907 0.0
H1480 H 0.41882 0.3597 0.03343 0.0
H1481 H 0.41105 0.33295 0.06981 0.0
H1482 H 0.45757 0.34006 0.01916 0.0
H1483 H 0.46549 0.36717 0.98242 0.0
C1484 C 0.43386 0.30162 0.14388 0.0
C1485 C 0.41838 0.28866 0.13233 0.0
C1486 C 0.43915 0.3164 0.11457 0.0
C1487 C 0.42901 0.31848 0.07355 0.0
C1488 C 0.41373 0.30544 0.06095 0.0
C1489 C 0.40848 0.29073 0.08989 0.0
C1490 C 0.42735 0.35553 0.02913 0.0
C1491 C 0.44277 0.36554 0.00503 0.0
C1492 C 0.42287 0.34017 0.04985 0.0
C1493 C 0.43373 0.33446 0.04744 0.0
C1494 C 0.44903 0.34426 0.0219 0.0
C1495 C 0.45348 0.35966 0.00034 0.0
H1496 H 0.71089 0.1165 0.05136 0.0
H1497 H 0.69177 0.12511 0.21832 0.0
H1498 H 0.68393 0.10203 0.0077 0.0
H1499 H 0.66474 0.11046 0.17441 0.0
H1500 H 0.61929 0.06516 0.10337 0.0
H1501 H 0.64647 0.08063 0.14326 0.0
H1502 H 0.66147 0.10829 0.97503 0.0
H1503 H 0.63407 0.09288 0.93462 0.0
C1504 C 0.70094 0.1153 0.07876 0.0
C1505 C 0.70343 0.12188 0.13847 0.0
C1506 C 0.68555 0.10712 0.0535 0.0
C1507 C 0.67234 0.10514 0.08779 0.0
C1508 C 0.67479 0.11178 0.14727 0.0
C1509 C 0.69023 0.12019 0.17224 0.0
C1510 C 0.62835 0.07445 0.07445 0.0
C1511 C 0.62449 0.07778 0.01568 0.0
C1512 C 0.64388 0.08339 0.09768 0.0
C1513 C 0.65596 0.0957 0.0624 0.0
C1514 C 0.6523 0.09882 0.00304 0.0
C1515 C 0.63666 0.09002 0.98002 0.0
H1516 H 0.88268 0.59518 0.06487 0.0
H1517 H 0.87665 0.56654 0.22717 0.0
H1518 H 0.89708 0.5835 0.01406 0.0
H1519 H 0.89123 0.55501 0.17616 0.0
H1520 H 0.93458 0.55425 0.08819 0.0
H1521 H 0.92049 0.5665 0.13648 0.0
H1522 H 0.88968 0.55464 0.97713 0.0
H1523 H 0.90368 0.54215 0.92837 0.0
C1524 C 0.88451 0.58647 0.08986 0.0
C1525 C 0.87856 0.5818 0.15014 0.0
C1526 C 0.89264 0.57973 0.06053 0.0
C1527 C 0.89521 0.56839 0.09127 0.0
C1528 C 0.88944 0.56382 0.1517 0.0
C1529 C 0.88108 0.57037 0.18074 0.0
C1530 C 0.92489 0.55433 0.06302 0.0
C1531 C 0.92023 0.5472 0.00436 0.0
C1532 C 0.91677 0.56125 0.091 0.0
C1533 C 0.90399 0.5614 0.0606 0.0
C1534 C 0.89955 0.55468 0.00133 0.0
C1535 C 0.90753 0.54752 0.9736 0.0
H1536 H 0.59411 0.71975 0.92201 0.0
H1537 H 0.56361 0.70202 0.76091 0.0
H1538 H 0.58134 0.69267 0.96421 0.0
H1539 H 0.55088 0.67485 0.80346 0.0
H1540 H 0.55524 0.63008 0.85778 0.0
H1541 H 0.56314 0.65689 0.82154 0.0
H1542 H 0.55389 0.66934 0.00227 0.0
H1543 H 0.54574 0.64214 0.03904 0.0
C1544 C 0.5846 0.71009 0.89576 0.0
C1545 C 0.58 0.71299 0.83768 0.0
C1546 C 0.57719 0.69463 0.92034 0.0
C1547 C 0.56516 0.68172 0.88705 0.0
C1548 C 0.56019 0.68464 0.82988 0.0
C1549 C 0.56746 0.70016 0.80559 0.0
C1550 C 0.55483 0.63848 0.88996 0.0
C1551 C 0.55004 0.63407 0.95152 0.0
C1552 C 0.55918 0.65378 0.8689 0.0
C1553 C 0.55904 0.66512 0.90902 0.0
C1554 C 0.55409 0.66075 0.9705 0.0
C1555 C 0.54943 0.64525 0.99146 0.0
H1556 H 0.35824 0.9018 0.04772 0.0
H1557 H 0.377 0.92755 0.87645 0.0
H1558 H 0.33107 0.8892 0.00484 0.0
H1559 H 0.34996 0.9149 0.83404 0.0
H1560 H 0.30064 0.87471 0.76197 0.0
H1561 H 0.32777 0.88622 0.80466 0.0
H1562 H 0.31244 0.89982 0.96974 0.0
H1563 H 0.2855 0.88852 0.92752 0.0
C1564 C 0.35659 0.90475 0.00107 0.0
C1565 C 0.36976 0.91573 0.96566 0.0
C1566 C 0.34107 0.89758 0.97664 0.0
C1567 C 0.3385 0.90106 0.91612 0.0
C1568 C 0.35166 0.9119 0.88059 0.0
C1569 C 0.36711 0.91924 0.9052 0.0
C1570 C 0.30308 0.88016 0.80731 0.0
C1571 C 0.29095 0.88077 0.84116 0.0
C1572 C 0.31858 0.88676 0.83162 0.0
C1573 C 0.32211 0.89381 0.89053 0.0
C1574 C 0.30997 0.8943 0.9245 0.0
C1575 C 0.29459 0.88795 0.89995 0.0
H1576 H 0.11811 0.42186 0.77131 0.0
H1577 H 0.09962 0.39309 0.93649 0.0
H1578 H 0.10867 0.43974 0.80918 0.0
H1579 H 0.09051 0.41098 0.97389 0.0
H1580 H 0.09502 0.45768 0.04996 0.0
H1581 H 0.10555 0.44128 0.00702 0.0
H1582 H 0.08015 0.4363 0.83684 0.0
H1583 H 0.06943 0.4525 0.87964 0.0
C1584 C 0.11201 0.41931 0.81535 0.0
C1585 C 0.10959 0.40604 0.85075 0.0
C1586 C 0.10662 0.42952 0.83692 0.0
C1587 C 0.09905 0.42676 0.89464 0.0
C1588 C 0.09651 0.41345 0.9296 0.0
C1589 C 0.10161 0.40314 0.90776 0.0
C1590 C 0.09176 0.45317 0.00329 0.0
C1591 C 0.08131 0.45626 0.96836 0.0
C1592 C 0.09775 0.44378 0.97885 0.0
C1593 C 0.09361 0.43757 0.91876 0.0
C1594 C 0.08356 0.44105 0.88314 0.0
C1595 C 0.07736 0.4502 0.90789 0.0
H1596 H 0.09538 0.64045 0.5462 0.0
H1597 H 0.06908 0.62052 0.37678 0.0
H1598 H 0.10695 0.66742 0.50229 0.0
H1599 H 0.08074 0.6474 0.33322 0.0
H1600 H 0.1207 0.6976 0.2613 0.0
H1601 H 0.10924 0.67037 0.30271 0.0
H1602 H 0.09484 0.68496 0.46764 0.0
H1603 H 0.10605 0.71199 0.42673 0.0
C1604 C 0.09212 0.64181 0.49967 0.0
C1605 C 0.08126 0.62838 0.46512 0.0
C1606 C 0.09868 0.65722 0.47469 0.0
C1607 C 0.0947 0.65941 0.41445 0.0
C1608 C 0.08407 0.64599 0.3796 0.0
C1609 C 0.07732 0.63064 0.40482 0.0
C1610 C 0.11499 0.69496 0.30616 0.0
C1611 C 0.11428 0.70697 0.3406 0.0
C1612 C 0.10844 0.67941 0.32976 0.0
C1613 C 0.10132 0.67569 0.38851 0.0
C1614 C 0.10045 0.68761 0.42256 0.0
C1615 C 0.10675 0.70304 0.39872 0.0
H1616 H 0.37797 0.45097 0.37693 0.0
H1617 H 0.364 0.47412 0.51497 0.0
H1618 H 0.35136 0.43869 0.33219 0.0
H1619 H 0.33703 0.46161 0.46898 0.0
H1620 H 0.29306 0.44129 0.32588 0.0
H1621 H 0.32109 0.45875 0.35865 0.0
H1622 H 0.32567 0.41692 0.39017 0.0
H1623 H 0.29801 0.39967 0.35897 0.0
C1624 C 0.36928 0.45359 0.39754 0.0
C1625 C 0.37303 0.46326 0.45056 0.0
C1626 C 0.35406 0.4466 0.3715 0.0
C1627 C 0.34219 0.44911 0.39755 0.0
C1628 C 0.34609 0.45959 0.44803 0.0
C1629 C 0.36144 0.46663 0.47446 0.0
C1630 C 0.30017 0.43591 0.33908 0.0
C1631 C 0.29338 0.41912 0.33952 0.0
C1632 C 0.31609 0.44586 0.35827 0.0
C1633 C 0.32544 0.43912 0.37666 0.0
C1634 C 0.31872 0.4224 0.37568 0.0
C1635 C 0.30287 0.41253 0.35777 0.0
H1636 H 0.54701 0.9344 0.39551 0.0
H1637 H 0.54022 0.90401 0.55288 0.0
H1638 H 0.5637 0.92508 0.34643 0.0
H1639 H 0.55709 0.89485 0.50368 0.0
H1640 H 0.60326 0.89834 0.42603 0.0
H1641 H 0.58727 0.90885 0.47157 0.0
H1642 H 0.55902 0.89743 0.30505 0.0
H1643 H 0.57492 0.88667 0.25904 0.0
C1644 C 0.54913 0.92579 0.41975 0.0
C1645 C 0.54233 0.91995 0.47817 0.0
C1646 C 0.5586 0.92041 0.39142 0.0
C1647 C 0.56166 0.90931 0.42142 0.0
C1648 C 0.55496 0.90352 0.4799 0.0
C1649 C 0.54527 0.90869 0.50785 0.0
C1650 C 0.59378 0.89821 0.39862 0.0
C1651 C 0.59033 0.89161 0.33886 0.0
C1652 C 0.58456 0.90412 0.42502 0.0
C1653 C 0.57187 0.90378 0.39196 0.0
C1654 C 0.56878 0.89781 0.33137 0.0
C1655 C 0.57786 0.89165 0.30517 0.0
H1656 H 0.23781 0.14687 0.69981 0.0
H1657 H 0.27543 0.17639 0.82889 0.0
H1658 H 0.22523 0.12597 0.77823 0.0
H1659 H 0.26308 0.15556 0.90614 0.0
H1660 H 0.24126 0.12123 0.04636 0.0
H1661 H 0.24047 0.1402 0.9738 0.0
H1662 H 0.2332 0.10763 0.82389 0.0
H1663 H 0.23333 0.08846 0.89726 0.0
C1664 C 0.24329 0.14901 0.74505 0.0
C1665 C 0.25775 0.16326 0.75784 0.0
C1666 C 0.23606 0.13703 0.78989 0.0
C1667 C 0.24308 0.13911 0.84848 0.0
C1668 C 0.25713 0.15365 0.86193 0.0
C1669 C 0.26437 0.16556 0.81723 0.0
C1670 C 0.23854 0.11779 -0.00167 0.0
C1671 C 0.23736 0.1035 0.97697 0.0
C1672 C 0.2383 0.12871 0.95668 0.0
C1673 C 0.23731 0.12563 0.89297 0.0
C1674 C 0.234 0.11038 0.87265 0.0
C1675 C 0.23399 0.09933 0.91463 0.0
H1676 H 0.81803 0.08602 0.83831 0.0
H1677 H 0.85613 0.10939 0.70486 0.0
H1678 H 0.83753 0.09746 0.92181 0.0
H1679 H 0.87555 0.12172 0.78793 0.0
H1680 H 0.90933 0.14244 0.94532 0.0
H1681 H 0.89063 0.12155 0.87431 0.0
H1682 H 0.85104 0.12313 0.96192 0.0
H1683 H 0.86937 0.14308 0.03301 0.0
C1684 C 0.8306 0.09363 0.82699 0.0
C1685 C 0.83557 0.09709 0.76539 0.0
C1686 C 0.84179 0.1002 0.8747 0.0
C1687 C 0.85813 0.1108 0.8618 0.0
C1688 C 0.86316 0.11351 0.79986 0.0
C1689 C 0.852 0.1066 0.75214 0.0
C1690 C 0.89657 0.13788 0.95018 0.0
C1691 C 0.8908 0.14453 0.99381 0.0
C1692 C 0.88587 0.12605 0.90929 0.0
C1693 C 0.8693 0.12075 0.91172 0.0
C1694 C 0.8636 0.12666 0.9587 0.0
C1695 C 0.87419 0.13831 -0.00075 0.0
H1696 H 0.91468 0.73272 0.84761 0.0
H1697 H 0.88984 0.74605 0.71525 0.0
H1698 H 0.90213 0.7393 0.93163 0.0
H1699 H 0.87646 0.75158 0.79856 0.0
H1700 H 0.85199 0.75986 0.95481 0.0
H1701 H 0.87437 0.76497 0.88631 0.0
H1702 H 0.87629 0.72504 0.9693 0.0
H1703 H 0.85486 0.72059 0.03801 0.0
C1704 C 0.9066 0.73715 0.83661 0.0
C1705 C 0.90299 0.73859 0.77511 0.0
C1706 C 0.89936 0.74089 0.88463 0.0
C1707 C 0.88795 0.74562 0.87207 0.0
C1708 C 0.88524 0.74812 0.81033 0.0
C1709 C 0.8928 0.74478 0.76238 0.0
C1710 C 0.85759 0.75256 0.95922 0.0
C1711 C 0.85152 0.73965 0.00074 0.0
C1712 C 0.87031 0.75537 0.91979 0.0
C1713 C 0.87707 0.7453 0.92154 0.0
C1714 C 0.87166 0.73322 0.96665 0.0
C1715 C 0.85913 0.73049 0.00576 0.0
H1716 H 0.16822 0.26579 0.69206 0.0
H1717 H 0.13829 0.22843 0.82116 0.0
H1718 H 0.14711 0.25389 0.61513 0.0
H1719 H 0.11705 0.21644 0.74331 0.0
H1720 H 0.08035 0.22459 0.615 0.0
H1721 H 0.09917 0.22559 0.69324 0.0
H1722 H 0.13209 0.22973 0.54945 0.0
H1723 H 0.11341 0.22911 0.47182 0.0
C1724 C 0.15718 0.25496 0.70389 0.0
C1725 C 0.15493 0.24813 0.76286 0.0
C1726 C 0.14514 0.248 0.65949 0.0
C1727 C 0.13048 0.2341 0.67298 0.0
C1728 C 0.12825 0.2271 0.73164 0.0
C1729 C 0.14042 0.23398 0.77606 0.0
C1730 C 0.0912 0.22477 0.60031 0.0
C1731 C 0.09549 0.22671 0.5378 0.0
C1732 C 0.10204 0.22547 0.645 0.0
C1733 C 0.11725 0.22814 0.62734 0.0
C1734 C 0.12057 0.22797 0.56432 0.0
C1735 C 0.10981 0.22739 0.51989 0.0
H1736 H 0.76158 0.83899 0.5753 0.0
H1737 H 0.75302 0.86605 0.43695 0.0
H1738 H 0.76335 0.85797 0.65445 0.0
H1739 H 0.75538 0.88535 0.51499 0.0
H1740 H 0.76677 0.89729 0.78332 0.0
H1741 H 0.77472 0.88529 0.70102 0.0
H1742 H 0.73446 0.87903 0.59143 0.0
H1743 H 0.72666 0.89108 0.67237 0.0
C1744 C 0.76097 0.84949 0.56148 0.0
C1745 C 0.75709 0.85111 0.50056 0.0
C1746 C 0.76191 0.86032 0.60669 0.0
C1747 C 0.75907 0.87289 0.59103 0.0
C1748 C 0.75721 0.87554 0.5286 0.0
C1749 C 0.75604 0.86463 0.48385 0.0
C1750 C 0.75972 0.89349 0.74134 0.0
C1751 C 0.74604 0.89513 0.7345 0.0
C1752 C 0.76428 0.88661 0.69435 0.0
C1753 C 0.75535 0.88141 0.63949 0.0
C1754 C 0.74184 0.88326 0.63252 0.0
C1755 C 0.73724 0.89002 0.67935 0.0
H1756 H 0.12532 0.89315 0.45189 0.0
H1757 H 0.15398 0.92762 0.59124 0.0
H1758 H 0.1068 0.87567 0.53094 0.0
H1759 H 0.13572 0.90993 0.67111 0.0
H1760 H 0.09796 0.87267 0.80152 0.0
H1761 H 0.10848 0.8932 0.72079 0.0
H1762 H 0.11501 0.86091 0.6018 0.0
H1763 H 0.1045 0.84049 0.68147 0.0
C1764 C 0.12719 0.89729 0.4993 0.0
C1765 C 0.14097 0.91164 0.51589 0.0
C1766 C 0.11673 0.88723 0.54457 0.0
C1767 C 0.1201 0.89125 0.60722 0.0
C1768 C 0.13284 0.90652 0.62317 0.0
C1769 C 0.14324 0.91671 0.57753 0.0
C1770 C 0.1015 0.86992 0.75784 0.0
C1771 C 0.10043 0.85494 0.74797 0.0
C1772 C 0.10752 0.88168 0.71177 0.0
C1773 C 0.11235 0.87859 0.65478 0.0
C1774 C 0.11103 0.86354 0.64474 0.0
C1775 C 0.10518 0.85188 0.69076 0.0
H1776 H 0.7625 0.88093 0.93527 0.0
H1777 H 0.76895 0.91323 0.08439 0.0
H1778 H 0.7628 0.86182 0.00853 0.0
H1779 H 0.76866 0.89393 0.15838 0.0
H1780 H 0.72803 0.82487 0.15149 0.0
H1781 H 0.73993 0.84605 0.07529 0.0
H1782 H 0.77729 0.87596 0.20431 0.0
H1783 H 0.76519 0.85468 0.28166 0.0
C1784 C 0.76477 0.88423 0.98357 0.0
C1785 C 0.76577 0.89846 0.00459 0.0
C1786 C 0.76473 0.87323 0.02558 0.0
C1787 C 0.76528 0.87618 0.0893 0.0
C1788 C 0.76823 0.89131 0.1096 0.0
C1789 C 0.76849 0.90242 0.06731 0.0
C1790 C 0.73888 0.83586 0.16363 0.0
C1791 C 0.74553 0.83811 0.22294 0.0
C1792 C 0.74585 0.84797 0.11955 0.0
C1793 C 0.75965 0.86267 0.13359 0.0
C1794 C 0.76666 0.86477 0.19222 0.0
C1795 C 0.75971 0.85257 0.23641 0.0
H1796 H 0.1099 0.88374 0.95107 0.0
H1797 H 0.07895 0.85456 0.09816 0.0
H1798 H 0.12806 0.90328 0.02623 0.0
H1799 H 0.09727 0.87382 0.17389 0.0
H1800 H 0.13524 0.91101 0.29913 0.0
H1801 H 0.11374 0.90094 0.22225 0.0
H1802 H 0.14503 0.89659 0.09053 0.0
H1803 H 0.1664 0.90667 0.16649 0.0
C1804 C 0.10658 0.88199 -0.00058 0.0
C1805 C 0.09309 0.86779 0.01921 0.0
C1806 C 0.11705 0.89303 0.04247 0.0
C1807 C 0.1143 0.88984 0.10592 0.0
C1808 C 0.09971 0.87662 0.12532 0.0
C1809 C 0.08915 0.86563 0.08203 0.0
C1810 C 0.13758 0.90813 0.25342 0.0
C1811 C 0.1525 0.90952 0.23904 0.0
C1812 C 0.12527 0.90237 0.20952 0.0
C1813 C 0.12773 0.89811 0.15026 0.0
C1814 C 0.14284 0.90007 0.13538 0.0
C1815 C 0.15505 0.90566 0.17925 0.0
H1816 H 0.12803 0.23035 0.97175 0.0
H1817 H 0.15949 0.23061 0.11392 0.0
H1818 H 0.10861 0.22769 0.04987 0.0
H1819 H 0.14029 0.22839 0.19267 0.0
H1820 H 0.10116 0.22526 0.32153 0.0
H1821 H 0.11287 0.21579 0.24336 0.0
H1822 H 0.11483 0.25121 0.11569 0.0
H1823 H 0.10319 0.26059 0.19284 0.0
C1824 C 0.13036 0.22898 0.01966 0.0
C1825 C 0.14512 0.23061 0.03722 0.0
C1826 C 0.11937 0.22767 0.06438 0.0
C1827 C 0.12316 0.22829 0.1273 0.0
C1828 C 0.13705 0.22788 0.14451 0.0
C1829 C 0.148 0.22904 0.09951 0.0
C1830 C 0.10395 0.2309 0.27649 0.0
C1831 C 0.10132 0.24375 0.26345 0.0
C1832 C 0.11063 0.22546 0.23189 0.0
C1833 C 0.11455 0.2326 0.17324 0.0
C1834 C 0.1116 0.2452 0.16001 0.0
C1835 C 0.10512 0.25074 0.20457 0.0
H1836 H 0.85304 0.73811 0.21021 0.0
H1837 H 0.81464 0.72388 0.34177 0.0
H1838 H 0.87248 0.74713 0.29387 0.0
H1839 H 0.83411 0.73402 0.42571 0.0
H1840 H 0.86735 0.72439 0.54743 0.0
H1841 H 0.8485 0.72418 0.47414 0.0
H1842 H 0.88731 0.76375 0.3761 0.0
H1843 H 0.90653 0.76324 0.44919 0.0
C1844 C 0.84884 0.73728 0.25718 0.0
C1845 C 0.83236 0.72997 0.26993 0.0
C1846 C 0.86 0.74265 0.30523 0.0
C1847 C 0.85492 0.74115 0.36699 0.0
C1848 C 0.83846 0.73493 0.379 0.0
C1849 C 0.82727 0.72913 0.33104 0.0
C1850 C 0.87188 0.73327 0.51091 0.0
C1851 C 0.88842 0.74359 0.50311 0.0
C1852 C 0.86098 0.73329 0.46894 0.0
C1853 C 0.86631 0.74379 0.41824 0.0
C1854 C 0.88281 0.75522 0.41376 0.0
C1855 C 0.89382 0.7551 0.45593 0.0
H1856 H 0.2782 0.10965 0.30436 0.0
H1857 H 0.23702 0.10226 0.19781 0.0
H1858 H 0.27033 0.12117 0.38709 0.0
H1859 H 0.229 0.1137 0.28184 0.0
H1860 H 0.24179 0.16003 0.406 0.0
H1861 H 0.23994 0.14095 0.32725 0.0
H1862 H 0.25003 0.11488 0.46582 0.0
H1863 H 0.25246 0.13429 0.54342 0.0
C1864 C 0.26735 0.1103 0.2988 0.0
C1865 C 0.25831 0.10508 0.24424 0.0
C1866 C 0.26272 0.11676 0.34665 0.0
C1867 C 0.24892 0.1182 0.34129 0.0
C1868 C 0.23967 0.11274 0.28725 0.0
C1869 C 0.24428 0.10616 0.23926 0.0
C1870 C 0.24288 0.14979 0.41981 0.0
C1871 C 0.24739 0.1486 0.48023 0.0
C1872 C 0.24189 0.13889 0.37481 0.0
C1873 C 0.24528 0.12668 0.39018 0.0
C1874 C 0.24777 0.12442 0.45237 0.0
C1875 C 0.24899 0.1354 0.49688 0.0
H1876 H 0.8559 0.12963 0.53389 0.0
H1877 H 0.85583 0.08946 0.44487 0.0
H1878 H 0.87578 0.14786 0.46245 0.0
H1879 H 0.87668 0.10805 0.37355 0.0
H1880 H 0.91284 0.18064 0.33787 0.0
H1881 H 0.90131 0.16118 0.42142 0.0
H1882 H 0.87654 0.12321 0.28766 0.0
H1883 H 0.88897 0.14257 0.20453 0.0
C1884 C 0.8605 0.12473 0.49976 0.0
C1885 C 0.8541 0.10811 0.49406 0.0
C1886 C 0.87212 0.13526 0.459 0.0
C1887 C 0.87781 0.12948 0.41155 0.0
C1888 C 0.87234 0.11288 0.40887 0.0
C1889 C 0.86054 0.10224 0.44995 0.0
C1890 C 0.90508 0.16809 0.3266 0.0
C1891 C 0.90153 0.16311 0.26501 0.0
C1892 C 0.89846 0.15692 0.37433 0.0
C1893 C 0.88772 0.14061 0.36149 0.0
C1894 C 0.88487 0.13558 0.29955 0.0
C1895 C 0.89184 0.14671 0.2518 0.0
H1896 H 0.90175 0.417 0.22991 0.0
H1897 H 0.91207 0.45226 0.37174 0.0
H1898 H 0.90103 0.43523 0.15291 0.0
H1899 H 0.91072 0.47024 0.29581 0.0
H1900 H 0.94148 0.50466 0.14034 0.0
H1901 H 0.93193 0.48453 0.22084 0.0
H1902 H 0.89146 0.45261 0.10745 0.0
H1903 H 0.90119 0.47281 0.02565 0.0
C1904 C 0.90294 0.42828 0.24499 0.0
C1905 C 0.90705 0.43337 0.30623 0.0
C1906 C 0.9026 0.43876 0.20099 0.0
C1907 C 0.90626 0.45434 0.21817 0.0
C1908 C 0.90826 0.45848 0.28101 0.0
C1909 C 0.90885 0.44814 0.32458 0.0
C1910 C 0.93047 0.49343 0.13251 0.0
C1911 C 0.92218 0.49035 0.07631 0.0
C1912 C 0.92486 0.48193 0.17909 0.0
C1913 C 0.91083 0.46701 0.17078 0.0
C1914 C 0.90231 0.46399 0.11513 0.0
C1915 C 0.90789 0.47558 0.06841 0.0
H1916 H 0.52839 0.47411 0.36906 0.0
H1917 H 0.56538 0.46709 0.28794 0.0
H1918 H 0.50861 0.45399 0.30161 0.0
H1919 H 0.54524 0.44628 0.22022 0.0
H1920 H 0.51148 0.43682 0.04926 0.0
H1921 H 0.53114 0.44828 0.13168 0.0
H1922 H 0.49303 0.42731 0.2667 0.0
H1923 H 0.47327 0.41639 0.18389 0.0
C1924 C 0.53219 0.4679 0.33766 0.0
C1925 C 0.54843 0.47232 0.33283 0.0
C1926 C 0.52078 0.45619 0.29928 0.0
C1927 C 0.52532 0.44858 0.25492 0.0
C1928 C 0.54142 0.4521 0.25335 0.0
C1929 C 0.55292 0.46388 0.29232 0.0
C1930 C 0.50729 0.43447 0.09655 0.0
C1931 C 0.49079 0.426 0.11004 0.0
C1932 C 0.51861 0.4409 0.14394 0.0
C1933 C 0.51368 0.43886 0.20591 0.0
C1934 C 0.49722 0.42939 0.2194 0.0
C1935 C 0.48589 0.42315 0.17198 0.0
H1936 H 0.57062 0.09818 0.0401 0.0
H1937 H 0.56477 0.06139 0.16946 0.0
H1938 H 0.56148 0.10998 0.1187 0.0
H1939 H 0.55546 0.07294 0.24683 0.0
H1940 H 0.54071 0.09267 0.38643 0.0
H1941 H 0.5613 0.09511 0.31453 0.0
H1942 H 0.53497 0.10069 0.16408 0.0
H1943 H 0.51485 0.09898 0.23684 0.0
C1944 C 0.5676 0.09273 0.08544 0.0
C1945 C 0.56822 0.0787 0.09825 0.0
C1946 C 0.56238 0.09951 0.13039 0.0
C1947 C 0.55781 0.09247 0.18907 0.0
C1948 C 0.55919 0.07891 0.20256 0.0
C1949 C 0.56433 0.07212 0.15778 0.0
C1950 C 0.5399 0.09539 0.33847 0.0
C1951 C 0.5263 0.09561 0.31671 0.0
C1952 C 0.55155 0.09658 0.29719 0.0
C1953 C 0.54945 0.09753 0.23344 0.0
C1954 C 0.53693 0.09994 0.21287 0.0
C1955 C 0.52542 0.09902 0.2545 0.0
H1956 H 0.74354 0.55348 0.94261 0.0
H1957 H 0.77869 0.56262 0.80176 0.0
H1958 H 0.76242 0.55497 0.02167 0.0
H1959 H 0.7974 0.56362 0.87999 0.0
H1960 H 0.83148 0.59791 0.02952 0.0
H1961 H 0.81086 0.58663 0.95072 0.0
H1962 H 0.78104 0.54684 0.07058 0.0
H1963 H 0.80176 0.55825 0.15049 0.0
C1964 C 0.75495 0.55484 0.92841 0.0
C1965 C 0.75976 0.55794 0.86653 0.0
C1966 C 0.76581 0.5558 0.97359 0.0
C1967 C 0.78152 0.55983 0.95699 0.0
C1968 C 0.78549 0.56086 0.89416 0.0
C1969 C 0.77474 0.56007 0.84933 0.0
C1970 C 0.8206 0.58672 0.03921 0.0
C1971 C 0.81828 0.57904 0.09646 0.0
C1972 C 0.80883 0.58013 0.99366 0.0
C1973 C 0.7944 0.56571 0.00416 0.0
C1974 C 0.79206 0.55793 0.06119 0.0
C1975 C 0.80394 0.56448 0.10681 0.0
H1976 H 0.42911 0.20428 0.78023 0.0
H1977 H 0.43415 0.17423 0.91555 0.0
H1978 H 0.43145 0.22292 0.86116 0.0
H1979 H 0.43602 0.19265 0.99735 0.0
H1980 H 0.43884 0.23117 0.13104 0.0
H1981 H 0.44789 0.22023 0.04826 0.0
H1982 H 0.40866 0.21474 0.93391 0.0
H1983 H 0.39969 0.2256 0.01556 0.0
C1984 C 0.43146 0.20209 0.82712 0.0
C1985 C 0.43139 0.18789 0.84213 0.0
C1986 C 0.43264 0.21264 0.87344 0.0
C1987 C 0.43344 0.20896 0.93557 0.0
C1988 C 0.43539 0.19576 0.94981 0.0
C1989 C 0.4344 0.18526 0.90308 0.0
C1990 C 0.43226 0.22776 0.08792 0.0
C1991 C 0.41851 0.22921 0.07988 0.0
C1992 C 0.43745 0.22151 0.04072 0.0
C1993 C 0.42913 0.21687 0.98444 0.0
C1994 C 0.41556 0.21856 0.97627 0.0
C1995 C 0.41029 0.22461 0.02341 0.0
H1996 H 0.81837 0.25312 0.92752 0.0
H1997 H 0.79186 0.21924 0.78342 0.0
H1998 H 0.79953 0.23468 0.00427 0.0
H1999 H 0.7727 0.201 0.85928 0.0
H2000 H 0.76832 0.16499 0.00955 0.0
H2001 H 0.77946 0.18572 0.93123 0.0
H2002 H 0.77239 0.21768 0.05019 0.0
H2003 H 0.76132 0.19686 0.12964 0.0
C2004 C 0.80796 0.24213 0.91205 0.0
C2005 C 0.80644 0.23751 0.84999 0.0
C2006 C 0.79722 0.23152 0.95591 0.0
C2007 C 0.78488 0.21622 0.93785 0.0
C2008 C 0.78231 0.21255 0.87465 0.0
C2009 C 0.79312 0.22305 0.83115 0.0
C2010 C 0.769 0.17637 0.01909 0.0
C2011 C 0.76399 0.17925 0.07607 0.0
C2012 C 0.77522 0.18822 0.97379 0.0
C2013 C 0.77663 0.2033 0.98425 0.0
C2014 C 0.77142 0.20617 0.04083 0.0
C2015 C 0.76508 0.19423 0.08622 0.0
H2016 H 0.44118 0.2218 0.27934 0.0
H2017 H 0.44209 0.25195 0.42798 0.0
H2018 H 0.44175 0.20306 0.35375 0.0
H2019 H 0.44226 0.2331 0.50282 0.0
H2020 H 0.4385 0.19388 0.62699 0.0
H2021 H 0.45168 0.21568 0.55211 0.0
H2022 H 0.41715 0.18609 0.41384 0.0
H2023 H 0.40408 0.16441 0.48791 0.0
C2024 C 0.44249 0.22487 0.32793 0.0
C2025 C 0.44166 0.23827 0.34826 0.0
C2026 C 0.44257 0.21405 0.37055 0.0
C2027 C 0.44157 0.21639 0.43403 0.0
C2028 C 0.44303 0.23096 0.45421 0.0
C2029 C 0.44306 0.24185 0.4114 0.0
C2030 C 0.4339 0.19195 0.58026 0.0
C2031 C 0.42013 0.17745 0.56352 0.0
C2032 C 0.44147 0.20444 0.5375 0.0
C2033 C 0.43555 0.20258 0.47703 0.0
C2034 C 0.42222 0.18782 0.45973 0.0
C2035 C 0.41458 0.17544 0.50247 0.0
H2036 H 0.83394 0.23028 0.50946 0.0
H2037 H 0.80239 0.23754 0.6304 0.0
H2038 H 0.81315 0.2194 0.43123 0.0
H2039 H 0.78152 0.22672 0.55106 0.0
H2040 H 0.74573 0.18107 0.42729 0.0
H2041 H 0.76428 0.19968 0.50441 0.0
H2042 H 0.79805 0.22656 0.35984 0.0
H2043 H 0.7797 0.20763 0.28358 0.0
C2044 C 0.82263 0.2297 0.51922 0.0
C2045 C 0.81985 0.23473 0.57639 0.0
C2046 C 0.81074 0.22363 0.47398 0.0
C2047 C 0.79574 0.22238 0.48468 0.0
C2048 C 0.79297 0.22757 0.5415 0.0
C2049 C 0.80494 0.23377 0.58683 0.0
C2050 C 0.75676 0.19146 0.412 0.0
C2051 C 0.76137 0.19304 0.34992 0.0
C2052 C 0.76744 0.20206 0.45608 0.0
C2053 C 0.78279 0.21433 0.43821 0.0
C2054 C 0.78645 0.217 0.37505 0.0
C2055 C 0.77589 0.20632 0.33132 0.0
H2056 H 0.76077 0.55346 0.64801 0.0
H2057 H 0.76276 0.58887 0.51989 0.0
H2058 H 0.77277 0.54428 0.57006 0.0
H2059 H 0.77477 0.57986 0.44305 0.0
H2060 H 0.79036 0.56067 0.30057 0.0
H2061 H 0.77009 0.55746 0.37571 0.0
H2062 H 0.80012 0.5569 0.5229 0.0
H2063 H 0.82011 0.55959 0.44705 0.0
C2064 C 0.76358 0.55916 0.60309 0.0
C2065 C 0.76092 0.57199 0.59029 0.0
C2066 C 0.77045 0.55389 0.55859 0.0
C2067 C 0.77457 0.56123 0.50029 0.0
C2068 C 0.77142 0.5737 0.48706 0.0
C2069 C 0.76472 0.57903 0.53148 0.0
C2070 C 0.79215 0.55893 0.34872 0.0
C2071 C 0.80665 0.56028 0.36843 0.0
C2072 C 0.78068 0.55731 0.39177 0.0
C2073 C 0.78373 0.55737 0.45522 0.0
C2074 C 0.79741 0.55679 0.47433 0.0
C2075 C 0.80884 0.55824 0.431 0.0
H2076 H 0.5422 0.08086 0.88252 0.0
H2077 H 0.57942 0.09438 0.74623 0.0
H2078 H 0.5245 0.08191 0.80454 0.0
H2079 H 0.56149 0.09487 0.66708 0.0
H2080 H 0.52445 0.09535 0.53722 0.0
H2081 H 0.54384 0.10422 0.62181 0.0
H2082 H 0.5117 0.06163 0.72476 0.0
H2083 H 0.49235 0.05291 0.64143 0.0
C2084 C 0.54675 0.08463 0.83614 0.0
C2085 C 0.56205 0.08745 0.81993 0.0
C2086 C 0.53659 0.08506 0.79141 0.0
C2087 C 0.54144 0.08799 0.7294 0.0
C2088 C 0.55741 0.09256 0.71449 0.0
C2089 C 0.5677 0.09235 0.75973 0.0
C2090 C 0.52144 0.08799 0.57828 0.0
C2091 C 0.50684 0.07337 0.58244 0.0
C2092 C 0.53258 0.09307 0.62659 0.0
C2093 C 0.52926 0.08372 0.68014 0.0
C2094 C 0.5145 0.06932 0.68471 0.0
C2095 C 0.50345 0.06421 0.63653 0.0
H2096 H 0.93893 0.43565 0.64885 0.0
H2097 H 0.9006 0.4289 0.52594 0.0
H2098 H 0.92862 0.44602 0.72726 0.0
H2099 H 0.8901 0.43916 0.60554 0.0
H2100 H 0.90071 0.48536 0.7263 0.0
H2101 H 0.89981 0.46601 0.65112 0.0
H2102 H 0.90672 0.43969 0.7981 0.0
H2103 H 0.90825 0.45944 0.87238 0.0
C2104 C 0.92816 0.43617 0.63878 0.0
C2105 C 0.9207 0.43156 0.58084 0.0
C2106 C 0.92211 0.44194 0.68415 0.0
C2107 C 0.90843 0.44329 0.67284 0.0
C2108 C 0.90066 0.43827 0.61555 0.0
C2109 C 0.90669 0.43239 0.57006 0.0
C2110 C 0.90118 0.47496 0.74262 0.0
C2111 C 0.90458 0.4738 0.80466 0.0
C2112 C 0.90075 0.4639 0.69963 0.0
C2113 C 0.90365 0.45158 0.7186 0.0
C2114 C 0.90486 0.44929 0.78199 0.0
C2115 C 0.90552 0.46045 0.82461 0.0
H2116 H 0.5478 0.47411 0.54042 0.0
H2117 H 0.5628 0.51499 0.66066 0.0
H2118 H 0.53288 0.45617 0.62474 0.0
H2119 H 0.54842 0.497 0.74596 0.0
H2120 H 0.50266 0.46264 0.84983 0.0
H2121 H 0.52154 0.4808 0.77501 0.0
H2122 H 0.53332 0.44461 0.7217 0.0
H2123 H 0.51363 0.42594 0.79602 0.0
C2124 C 0.54809 0.47927 0.58516 0.0
C2125 C 0.55633 0.496 0.59369 0.0
C2126 C 0.53965 0.46895 0.63375 0.0
C2127 C 0.53938 0.4751 0.69226 0.0
C2128 C 0.5481 0.49184 0.70123 0.0
C2129 C 0.55636 0.50217 0.65237 0.0
C2130 C 0.50936 0.45852 0.82271 0.0
C2131 C 0.50653 0.44276 0.82846 0.0
C2132 C 0.52036 0.46906 0.77998 0.0
C2133 C 0.52899 0.46422 0.74205 0.0
C2134 C 0.52669 0.44865 0.74959 0.0
C2135 C 0.51553 0.43799 0.79243 0.0
H2136 H 0.60728 0.84708 0.48459 0.0
H2137 H 0.56903 0.81733 0.35811 0.0
H2138 H 0.59572 0.82605 0.56153 0.0
H2139 H 0.55727 0.79625 0.43622 0.0
H2140 H 0.56492 0.75847 0.55483 0.0
H2141 H 0.56551 0.77794 0.48101 0.0
H2142 H 0.57338 0.81078 0.63062 0.0
H2143 H 0.57339 0.79147 0.70361 0.0
C2144 C 0.59626 0.83614 0.47342 0.0
C2145 C 0.5892 0.83388 0.41488 0.0
C2146 C 0.58949 0.82412 0.51795 0.0
C2147 C 0.57547 0.80949 0.50518 0.0
C2148 C 0.56808 0.80737 0.44735 0.0
C2149 C 0.57484 0.81947 0.4027 0.0
C2150 C 0.56591 0.76951 0.57196 0.0
C2151 C 0.56909 0.77357 0.63448 0.0
C2152 C 0.56634 0.78072 0.52976 0.0
C2153 C 0.56992 0.79607 0.54992 0.0
C2154 C 0.57098 0.7992 0.61361 0.0
C2155 C 0.57076 0.78809 0.65549 0.0
H2156 H 0.20269 0.8034 0.69913 0.0
H2157 H 0.24447 0.81085 0.59793 0.0
H2158 H 0.18546 0.78329 0.62641 0.0
H2159 H 0.22706 0.78977 0.52497 0.0
H2160 H 0.15405 0.74974 0.4924 0.0
H2161 H 0.17389 0.75938 0.57516 0.0
H2162 H 0.21072 0.78952 0.44428 0.0
H2163 H 0.19103 0.77871 0.36135 0.0
C2164 C 0.2082 0.80028 0.66212 0.0
C2165 C 0.22485 0.8089 0.6532 0.0
C2166 C 0.19828 0.78853 0.62044 0.0
C2167 C 0.20477 0.78497 0.56875 0.0
C2168 C 0.22162 0.79246 0.56343 0.0
C2169 C 0.23163 0.80439 0.60548 0.0
C2170 C 0.16649 0.75817 0.48157 0.0
C2171 C 0.17106 0.76378 0.42121 0.0
C2172 C 0.17787 0.76376 0.52881 0.0
C2173 C 0.1939 0.77561 0.51701 0.0
C2174 C 0.19859 0.78034 0.45547 0.0
C2175 C 0.18728 0.77431 0.4079 0.0
H2176 H 0.1833 0.38651 0.71328 0.0
H2177 H 0.1834 0.42822 0.63898 0.0
H2178 H 0.20465 0.39068 0.64445 0.0
H2179 H 0.20566 0.43298 0.57065 0.0
H2180 H 0.2201 0.41497 0.39477 0.0
H2181 H 0.20692 0.42002 0.48001 0.0
H2182 H 0.23083 0.40444 0.60844 0.0
H2183 H 0.24328 0.39847 0.52226 0.0
C2184 C 0.1882 0.39686 0.68306 0.0
C2185 C 0.18144 0.40683 0.68043 0.0
C2186 C 0.20067 0.3994 0.64392 0.0
C2187 C 0.20685 0.41209 0.60129 0.0
C2188 C 0.20097 0.4229 0.60214 0.0
C2189 C 0.18832 0.42027 0.64147 0.0
C2190 C 0.22273 0.41285 0.4413 0.0
C2191 C 0.23242 0.40598 0.45189 0.0
C2192 C 0.21529 0.41592 0.4904 0.0
C2193 C 0.21759 0.41242 0.55128 0.0
C2194 C 0.22842 0.40686 0.56204 0.0
C2195 C 0.23559 0.40345 0.51277 0.0
H2196 H 0.4961 0.93609 0.35443 0.0
H2197 H 0.46381 0.89597 0.4687 0.0
H2198 H 0.47622 0.92648 0.27273 0.0
H2199 H 0.44378 0.88628 0.3859 0.0
H2200 H 0.44535 0.90489 0.11849 0.0
H2201 H 0.46247 0.90383 0.19913 0.0
H2202 H 0.4269 0.89687 0.33581 0.0
H2203 H 0.40955 0.89747 0.25426 0.0
C2204 C 0.4848 0.92514 0.36198 0.0
C2205 C 0.48155 0.91684 0.41815 0.0
C2206 C 0.47346 0.91952 0.31482 0.0
C2207 C 0.45852 0.90549 0.32266 0.0
C2208 C 0.45523 0.89707 0.3786 0.0
C2209 C 0.46671 0.90262 0.42581 0.0
C2210 C 0.44088 0.90232 0.16543 0.0
C2211 C 0.42625 0.9013 0.18059 0.0
C2212 C 0.45072 0.90189 0.2116 0.0
C2213 C 0.44619 0.90072 0.27379 0.0
C2214 C 0.43069 0.89778 0.28822 0.0
C2215 C 0.42072 0.89804 0.24163 0.0
H2216 H 0.06632 0.56785 0.32917 0.0
H2217 H 0.10271 0.57262 0.45846 0.0
H2218 H 0.07722 0.55776 0.25195 0.0
H2219 H 0.11378 0.56255 0.38013 0.0
H2220 H 0.10202 0.51627 0.25528 0.0
H2221 H 0.10328 0.53554 0.33167 0.0
H2222 H 0.10033 0.56449 0.18543 0.0
H2223 H 0.0985 0.54489 0.10975 0.0
C2224 C 0.07678 0.56693 0.34091 0.0
C2225 C 0.08354 0.57091 0.40015 0.0
C2226 C 0.08319 0.56134 0.29629 0.0
C2227 C 0.09649 0.55951 0.30975 0.0
C2228 C 0.10356 0.56388 0.36847 0.0
C2229 C 0.09721 0.56964 0.41319 0.0
C2230 C 0.10255 0.52722 0.23952 0.0
C2231 C 0.10015 0.5292 0.1771 0.0
C2232 C 0.10319 0.53822 0.28318 0.0
C2233 C 0.10146 0.55129 0.2645 0.0
C2234 C 0.10133 0.55434 0.20116 0.0
C2235 C 0.10048 0.54325 0.1578 0.0
H2236 H 0.43417 0.48902 0.32333 0.0
H2237 H 0.44681 0.5298 0.44149 0.0
H2238 H 0.44902 0.50705 0.23896 0.0
H2239 H 0.46229 0.54788 0.35791 0.0
H2240 H 0.48251 0.57735 0.18247 0.0
H2241 H 0.46272 0.55906 0.25773 0.0
H2242 H 0.47637 0.52354 0.21654 0.0
H2243 H 0.49531 0.54122 0.14116 0.0
C2244 C 0.4402 0.50184 0.33134 0.0
C2245 C 0.43948 0.50798 0.38919 0.0
C2246 C 0.44873 0.5122 0.28303 0.0
C2247 C 0.45702 0.52894 0.2918 0.0
C2248 C 0.45591 0.53508 0.34924 0.0
C2249 C 0.44715 0.52471 0.39733 0.0
C2250 C 0.48104 0.56553 0.18913 0.0
C2251 C 0.49048 0.56076 0.15598 0.0
C2252 C 0.46981 0.5551 0.2324 0.0
C2253 C 0.4679 0.53978 0.24307 0.0
C2254 C 0.47719 0.53505 0.2088 0.0
C2255 C 0.48823 0.54533 0.16575 0.0
H2256 H 0.09588 0.55505 0.61079 0.0
H2257 H 0.10087 0.5886 0.75273 0.0
H2258 H 0.09726 0.53743 0.68842 0.0
H2259 H 0.10172 0.57075 0.83117 0.0
H2260 H 0.10194 0.53335 0.96016 0.0
H2261 H 0.11228 0.55414 0.88033 0.0
H2262 H 0.07435 0.52195 0.7577 0.0
H2263 H 0.06414 0.50131 0.83643 0.0
C2264 C 0.09804 0.55897 0.65847 0.0
C2265 C 0.09828 0.57309 0.67617 0.0
C2266 C 0.09863 0.54882 0.70295 0.0
C2267 C 0.09912 0.5525 0.76591 0.0
C2268 C 0.10134 0.56759 0.78299 0.0
C2269 C 0.10095 0.57787 0.73816 0.0
C2270 C 0.09595 0.53067 0.91581 0.0
C2271 C 0.08215 0.51568 0.90472 0.0
C2272 C 0.10187 0.54258 0.87025 0.0
C2273 C 0.09425 0.53963 0.81258 0.0
C2274 C 0.08073 0.52451 0.80118 0.0
C2275 C 0.07474 0.51271 0.84667 0.0
H2276 H 0.48227 0.5589 0.9347 0.0
H2277 H 0.51834 0.5857 0.79725 0.0
H2278 H 0.46165 0.54858 0.85516 0.0
H2279 H 0.49765 0.57626 0.71791 0.0
H2280 H 0.463 0.53357 0.59603 0.0
H2281 H 0.48292 0.55226 0.66678 0.0
H2282 H 0.44536 0.55122 0.77997 0.0
H2283 H 0.42519 0.53166 0.70884 0.0
C2284 C 0.48572 0.56279 0.88747 0.0
C2285 C 0.50193 0.57277 0.87179 0.0
C2286 C 0.47386 0.55706 0.84187 0.0
C2287 C 0.47792 0.56145 0.7797 0.0
C2288 C 0.49408 0.57226 0.76492 0.0
C2289 C 0.50597 0.57767 0.8103 0.0
C2290 C 0.45902 0.53775 0.63501 0.0
C2291 C 0.44262 0.53111 0.64752 0.0
C2292 C 0.47048 0.54858 0.6757 0.0
C2293 C 0.46582 0.55311 0.73004 0.0
C2294 C 0.44936 0.5477 0.73928 0.0
C2295 C 0.4378 0.53672 0.69819 0.0
H2296 H 0.45088 0.89298 0.61619 0.0
H2297 H 0.48062 0.89298 0.76485 0.0
H2298 H 0.43079 0.89069 0.6904 0.0
H2299 H 0.46086 0.89122 0.83955 0.0
H2300 H 0.42476 0.89329 0.96428 0.0
H2301 H 0.43406 0.88083 0.88889 0.0
H2302 H 0.43713 0.91471 0.75104 0.0
H2303 H 0.42781 0.927 0.82547 0.0
C2304 C 0.45264 0.89153 0.66466 0.0
C2305 C 0.46718 0.89313 0.6852 0.0
C2306 C 0.44127 0.89045 0.70719 0.0
C2307 C 0.44451 0.8913 0.77075 0.0
C2308 C 0.45803 0.89056 0.79089 0.0
C2309 C 0.46933 0.89146 0.74815 0.0
C2310 C 0.42717 0.89789 0.91753 0.0
C2311 C 0.42573 0.91127 0.901 0.0
C2312 C 0.43247 0.89073 0.87447 0.0
C2313 C 0.43621 0.89668 0.81396 0.0
C2314 C 0.43404 0.90958 0.79691 0.0
C2315 C 0.42891 0.91681 0.8399 0.0
H2316 H 0.18145 0.40777 0.89055 0.0
H2317 H 0.14228 0.39083 0.02025 0.0
H2318 H 0.20053 0.4167 0.9752 0.0
H2319 H 0.1614 0.40076 0.10545 0.0
H2320 H 0.23405 0.4327 0.13134 0.0
H2321 H 0.21448 0.43299 0.05964 0.0
H2322 H 0.17656 0.39135 0.15174 0.0
H2323 H 0.19574 0.39168 0.22384 0.0
C2324 C 0.17697 0.40631 0.93735 0.0
C2325 C 0.1604 0.3983 0.94909 0.0
C2326 C 0.18793 0.41163 0.98602 0.0
C2327 C 0.18257 0.40933 0.04754 0.0
C2328 C 0.16598 0.40234 0.05882 0.0
C2329 C 0.155 0.39665 0.01013 0.0
C2330 C 0.22144 0.42402 0.13718 0.0
C2331 C 0.21642 0.41198 0.18219 0.0
C2332 C 0.21023 0.42404 0.0958 0.0
C2333 C 0.19393 0.41198 0.09887 0.0
C2334 C 0.1889 0.40092 0.14771 0.0
C2335 C 0.19999 0.40099 0.18893 0.0
H2336 H 0.567 0.77253 0.85751 0.0
H2337 H 0.60808 0.77993 0.96489 0.0
H2338 H 0.55921 0.7845 0.94039 0.0
H2339 H 0.60045 0.79198 0.04635 0.0
H2340 H 0.57191 0.83091 0.06372 0.0
H2341 H 0.57014 0.81177 0.98535 0.0
H2342 H 0.58018 0.78585 0.12478 0.0
H2343 H 0.58257 0.80535 0.20195 0.0
C2344 C 0.57431 0.77659 0.89883 0.0
C2345 C 0.5882 0.77529 0.90447 0.0
C2346 C 0.56983 0.78345 0.94616 0.0
C2347 C 0.57909 0.789 0.00017 0.0
C2348 C 0.59282 0.78747 0.00599 0.0
C2349 C 0.59731 0.78071 0.95884 0.0
C2350 C 0.57301 0.82069 0.07777 0.0
C2351 C 0.57748 0.81956 0.13831 0.0
C2352 C 0.57207 0.80976 0.03299 0.0
C2353 C 0.57547 0.79757 0.04874 0.0
C2354 C 0.57793 0.79538 0.11104 0.0
C2355 C 0.57912 0.8064 0.15531 0.0
H2356 H 0.2336 0.81008 0.87068 0.0
H2357 H 0.22461 0.84197 0.98266 0.0
H2358 H 0.22219 0.78969 0.95129 0.0
H2359 H 0.21305 0.82158 0.06215 0.0
H2360 H 0.19943 0.78843 0.21247 0.0
H2361 H 0.21905 0.80691 0.13851 0.0
H2362 H 0.19501 0.77231 0.99294 0.0
H2363 H 0.17576 0.7536 0.06802 0.0
C2364 C 0.22932 0.81282 0.91259 0.0
C2365 C 0.22996 0.82767 0.92006 0.0
C2366 C 0.22278 0.80111 0.95866 0.0
C2367 C 0.21683 0.80405 0.01321 0.0
C2368 C 0.21784 0.81904 0.02121 0.0
C2369 C 0.22433 0.8307 0.97527 0.0
C2370 C 0.19884 0.78455 0.16511 0.0
C2371 C 0.18617 0.76973 0.14547 0.0
C2372 C 0.20992 0.79517 0.12269 0.0
C2373 C 0.20827 0.79125 0.05969 0.0
C2374 C 0.19659 0.77568 0.0412 0.0
C2375 C 0.18561 0.76493 0.08407 0.0
H2376 H 0.36255 0.14483 0.77603 0.0
H2377 H 0.36908 0.10555 0.83304 0.0
H2378 H 0.33709 0.13304 0.83127 0.0
H2379 H 0.34388 0.09397 0.89115 0.0
H2380 H 0.30514 0.11975 0.00059 0.0
H2381 H 0.32922 0.12979 0.93753 0.0
H2382 H 0.3146 0.08127 0.88118 0.0
H2383 H 0.29063 0.07128 0.94647 0.0
C2384 C 0.35829 0.13345 0.79941 0.0
C2385 C 0.36734 0.12571 0.79852 0.0
C2386 C 0.34388 0.12684 0.83195 0.0
C2387 C 0.33846 0.11256 0.86568 0.0
C2388 C 0.34758 0.10482 0.8647 0.0
C2389 C 0.36199 0.11143 0.83178 0.0
C2390 C 0.30727 0.11126 0.9755 0.0
C2391 C 0.2965 0.09475 0.97995 0.0
C2392 C 0.32089 0.11699 0.93856 0.0
C2393 C 0.32383 0.10632 0.90432 0.0
C2394 C 0.31279 0.08976 0.90778 0.0
C2395 C 0.29911 0.08404 0.94486 0.0
H2396 H 0.93369 0.23094 0.96794 0.0
H2397 H 0.88729 0.19984 0.0486 0.0
H2398 H 0.92193 0.24373 0.90463 0.0
H2399 H 0.87566 0.21266 0.98713 0.0
H2400 H 0.85684 0.22155 0.80901 0.0
H2401 H 0.87102 0.21168 0.87253 0.0
H2402 H 0.90729 0.26045 0.91469 0.0
H2403 H 0.893 0.27032 0.84992 0.0
C2404 C 0.9211 0.22718 0.97314 0.0
C2405 C 0.91144 0.2148 0.01419 0.0
C2406 C 0.9144 0.23445 0.93718 0.0
C2407 C 0.89789 0.2291 0.94089 0.0
C2408 C 0.88838 0.21692 0.98296 0.0
C2409 C 0.89507 0.20975 0.01878 0.0
C2410 C 0.86803 0.23013 0.83075 0.0
C2411 C 0.87417 0.24664 0.82332 0.0
C2412 C 0.87603 0.22452 0.86769 0.0
C2413 C 0.8902 0.23533 0.89867 0.0
C2414 C 0.89645 0.2519 0.8908 0.0
C2415 C 0.88833 0.25752 0.85402 0.0
H2416 H 0.77372 0.62244 0.81541 0.0
H2417 H 0.72537 0.60983 0.86407 0.0
H2418 H 0.78417 0.64691 0.87653 0.0
H2419 H 0.73583 0.63438 0.92676 0.0
H2420 H 0.76456 0.69002 0.97652 0.0
H2421 H 0.75169 0.66524 0.9148 0.0
H2422 H 0.78505 0.65192 0.98947 0.0
H2423 H 0.79795 0.67666 0.04943 0.0
C2424 C 0.76534 0.62513 0.83838 0.0
C2425 C 0.74877 0.61464 0.83374 0.0
C2426 C 0.7713 0.63898 0.87402 0.0
C2427 C 0.7608 0.64248 0.9066 0.0
C2428 C 0.74416 0.63202 0.90159 0.0
C2429 C 0.73819 0.61804 0.86599 0.0
C2430 C 0.76885 0.68157 0.98026 0.0
C2431 C 0.78185 0.68487 0.01892 0.0
C2432 C 0.76153 0.66745 0.94522 0.0
C2433 C 0.76742 0.65672 0.9473 0.0
C2434 C 0.78035 0.66005 0.98654 0.0
C2435 C 0.78757 0.67405 0.02153 0.0
H2436 H 0.09563 0.35812 0.64452 0.0
H2437 H 0.12768 0.34518 0.73332 0.0
H2438 H 0.08447 0.3335 0.58201 0.0
H2439 H 0.11641 0.32059 0.67276 0.0
H2440 H 0.11031 0.29276 0.49673 0.0
H2441 H 0.11862 0.31655 0.56028 0.0
H2442 H 0.06893 0.30249 0.59096 0.0
H2443 H 0.06065 0.27862 0.52608 0.0
C2444 C 0.09993 0.34977 0.65169 0.0
C2445 C 0.11211 0.35318 0.69479 0.0
C2446 C 0.09358 0.33574 0.61618 0.0
C2447 C 0.09965 0.32522 0.62243 0.0
C2448 C 0.11161 0.32857 0.66657 0.0
C2449 C 0.11788 0.34249 0.70191 0.0
C2450 C 0.1012 0.29497 0.51601 0.0
C2451 C 0.0849 0.28427 0.50518 0.0
C2452 C 0.10592 0.30842 0.55303 0.0
C2453 C 0.09439 0.3113 0.58074 0.0
C2454 C 0.07803 0.3006 0.56966 0.0
C2455 C 0.07331 0.28702 0.53278 0.0
H2456 H 0.69713 0.76764 0.50304 0.0
H2457 H 0.69055 0.80613 0.43586 0.0
H2458 H 0.67216 0.75708 0.56262 0.0
H2459 H 0.66545 0.7954 0.49279 0.0
H2460 H 0.63499 0.78561 0.66401 0.0
H2461 H 0.65889 0.7941 0.60118 0.0
H2462 H 0.64239 0.74465 0.55316 0.0
H2463 H 0.61852 0.7362 0.61797 0.0
C2464 C 0.69009 0.77356 0.49994 0.0
C2465 C 0.69537 0.78734 0.46352 0.0
C2466 C 0.67583 0.76753 0.53372 0.0
C2467 C 0.66685 0.77543 0.53243 0.0
C2468 C 0.67216 0.78914 0.49531 0.0
C2469 C 0.68637 0.79514 0.46187 0.0
C2470 C 0.63666 0.77657 0.64088 0.0
C2471 C 0.62533 0.76026 0.64731 0.0
C2472 C 0.65019 0.78141 0.60413 0.0
C2473 C 0.65251 0.77003 0.57208 0.0
C2474 C 0.64101 0.75366 0.57796 0.0
C2475 C 0.6274 0.74883 0.61477 0.0
H2476 H 0.18747 0.89065 0.46152 0.0
H2477 H 0.22546 0.93792 0.51119 0.0
H2478 H 0.20031 0.87866 0.52101 0.0
H2479 H 0.23823 0.92595 0.57291 0.0
H2480 H 0.26266 0.89587 0.6268 0.0
H2481 H 0.25181 0.90945 0.56337 0.0
H2482 H 0.20419 0.8764 0.6309 0.0
H2483 H 0.215 0.86275 0.69217 0.0
C2484 C 0.19878 0.89845 0.4843 0.0
C2485 C 0.20584 0.91515 0.48026 0.0
C2486 C 0.206 0.89162 0.51914 0.0
C2487 C 0.22025 0.90138 0.5518 0.0
C2488 C 0.22737 0.91816 0.54755 0.0
C2489 C 0.22009 0.92499 0.51252 0.0
C2490 C 0.24993 0.89176 0.62838 0.0
C2491 C 0.23968 0.87868 0.66558 0.0
C2492 C 0.24373 0.89948 0.59236 0.0
C2493 C 0.22715 0.89394 0.59211 0.0
C2494 C 0.21699 0.88083 0.62955 0.0
C2495 C 0.22318 0.87318 0.66538 0.0
H2496 H 0.71539 0.93491 0.01694 0.0
H2497 H 0.69932 0.88537 0.97483 0.0
H2498 H 0.69145 0.92658 0.08125 0.0
H2499 H 0.67536 0.877 0.03717 0.0
H2500 H 0.63655 0.90331 0.13011 0.0
H2501 H 0.6616 0.91382 0.07099 0.0
H2502 H 0.66879 0.8762 0.14536 0.0
H2503 H 0.64363 0.86551 0.20181 0.0
C2504 C 0.70658 0.92227 0.02093 0.0
C2505 C 0.70877 0.91076 0.98961 0.0
C2506 C 0.69293 0.91751 0.05743 0.0
C2507 C 0.68153 0.90114 0.06422 0.0
C2508 C 0.68399 0.88969 0.03347 0.0
C2509 C 0.69755 0.89446 0.99703 0.0
C2510 C 0.64371 0.89754 0.13426 0.0
C2511 C 0.63855 0.88396 0.1718 0.0
C2512 C 0.65801 0.90354 0.10076 0.0
C2513 C 0.66714 0.89582 0.10351 0.0
C2514 C 0.66195 0.88232 0.14173 0.0
C2515 C 0.6477 0.87635 0.17486 0.0
H2516 H 0.10143 0.74036 0.13789 0.0
H2517 H 0.13688 0.78614 0.21178 0.0
H2518 H 0.08937 0.75355 0.07953 0.0
H2519 H 0.12455 0.79925 0.1564 0.0
H2520 H 0.1132 0.81959 0.98768 0.0
H2521 H 0.12328 0.80548 0.05017 0.0
H2522 H 0.07457 0.76829 0.08853 0.0
H2523 H 0.06457 0.78239 0.02376 0.0
C2524 C 0.10633 0.75318 0.1428 0.0
C2525 C 0.11968 0.76222 0.18075 0.0
C2526 C 0.09944 0.76072 0.10972 0.0
C2527 C 0.10601 0.77745 0.11335 0.0
C2528 C 0.1193 0.78638 0.15203 0.0
C2529 C 0.12619 0.77886 0.18466 0.0
C2530 C 0.1047 0.80825 0.00863 0.0
C2531 C 0.08819 0.80169 -0.0007 0.0
C2532 C 0.11042 0.80029 0.04527 0.0
C2533 C 0.09971 0.78575 0.07443 0.0
C2534 C 0.08311 0.77934 0.06595 0.0
C2535 C 0.07739 0.78737 0.02916 0.0
H2536 H 0.21645 0.35346 0.23214 0.0
H2537 H 0.26251 0.37271 0.14314 0.0
H2538 H 0.20632 0.32884 0.1721 0.0
H2539 H 0.25227 0.34804 0.08151 0.0
H2540 H 0.229 0.29313 0.02967 0.0
H2541 H 0.24127 0.31752 0.09368 0.0
H2542 H 0.20032 0.32349 0.05937 0.0
H2543 H 0.18816 0.29921 0.99645 0.0
C2544 C 0.22451 0.3522 0.20071 0.0
C2545 C 0.24038 0.36465 0.1935 0.0
C2546 C 0.21866 0.33824 0.16574 0.0
C2547 C 0.22851 0.33659 0.12208 0.0
C2548 C 0.24451 0.34897 0.11541 0.0
C2549 C 0.25034 0.36302 0.15039 0.0
C2550 C 0.22283 0.29987 0.03541 0.0
C2551 C 0.20795 0.29473 0.00687 0.0
C2552 C 0.2298 0.31375 0.07179 0.0
C2553 C 0.22171 0.32233 0.08146 0.0
C2554 C 0.20676 0.31703 0.05312 0.0
C2555 C 0.19991 0.3033 0.01649 0.0
H2556 H 0.89198 0.6201 0.36527 0.0
H2557 H 0.85306 0.62934 0.33416 0.0
H2558 H 0.9058 0.64455 0.42853 0.0
H2559 H 0.86676 0.65369 0.39629 0.0
H2560 H 0.88535 0.68464 0.56487 0.0
H2561 H 0.8735 0.65948 0.50771 0.0
H2562 H 0.91868 0.67516 0.41501 0.0
H2563 H 0.93067 0.70035 0.47407 0.0
C2564 C 0.88655 0.62753 0.37141 0.0
C2565 C 0.87179 0.62328 0.34355 0.0
C2566 C 0.89441 0.64144 0.40736 0.0
C2567 C 0.88733 0.65097 0.41728 0.0
C2568 C 0.87243 0.6465 0.38988 0.0
C2569 C 0.8647 0.63273 0.35369 0.0
C2570 C 0.89286 0.68247 0.53373 0.0
C2571 C 0.90901 0.6941 0.52516 0.0
C2572 C 0.88604 0.6682 0.50035 0.0
C2573 C 0.89517 0.66542 0.45679 0.0
C2574 C 0.91145 0.67695 0.44888 0.0
C2575 C 0.91828 0.6913 0.48239 0.0
H2576 H 0.30666 0.23184 0.4741 0.0
H2577 H 0.31492 0.19492 0.54708 0.0
H2578 H 0.33203 0.24323 0.4172 0.0
H2579 H 0.3406 0.20666 0.49371 0.0
H2580 H 0.37304 0.21782 0.32716 0.0
H2581 H 0.34907 0.20818 0.3904 0.0
H2582 H 0.36108 0.25718 0.42594 0.0
H2583 H 0.38488 0.26671 0.36004 0.0
C2584 C 0.31417 0.22647 0.47914 0.0
C2585 C 0.30925 0.21291 0.51648 0.0
C2586 C 0.32869 0.233 0.44697 0.0
C2587 C 0.33838 0.22589 0.45106 0.0
C2588 C 0.33338 0.21235 0.48896 0.0
C2589 C 0.31884 0.20579 0.52049 0.0
C2590 C 0.37036 0.22647 0.34781 0.0
C2591 C 0.38029 0.24291 0.33699 0.0
C2592 C 0.35682 0.221 0.38494 0.0
C2593 C 0.35312 0.23191 0.41317 0.0
C2594 C 0.36344 0.24847 0.40392 0.0
C2595 C 0.37703 0.25393 0.36652 0.0
H2596 H 0.76768 0.0659 0.46913 0.0
H2597 H 0.79892 0.1123 0.54968 0.0
H2598 H 0.75485 0.07767 0.40616 0.0
H2599 H 0.78604 0.12394 0.48852 0.0
H2600 H 0.72834 0.10659 0.35117 0.0
H2601 H 0.73819 0.09236 0.41637 0.0
H2602 H 0.78697 0.1285 0.37376 0.0
H2603 H 0.77713 0.14261 0.30977 0.0
C2604 C 0.77146 0.07849 0.47441 0.0
C2605 C 0.78389 0.08815 0.51531 0.0
C2606 C 0.76416 0.0852 0.43864 0.0
C2607 C 0.76954 0.10171 0.44239 0.0
C2608 C 0.78177 0.11121 0.48435 0.0
C2609 C 0.78896 0.10452 0.52 0.0
C2610 C 0.74113 0.11124 0.35528 0.0
C2611 C 0.75203 0.12534 0.3243 0.0
C2612 C 0.74675 0.10315 0.39232 0.0
C2613 C 0.76332 0.10939 0.40016 0.0
C2614 C 0.77414 0.12351 0.36895 0.0
C2615 C 0.76854 0.13146 0.33174 0.0
H2616 H 0.96278 0.40413 0.29451 0.0
H2617 H 0.97376 0.45086 0.35952 0.0
H2618 H 0.98784 0.41643 0.23489 0.0
H2619 H -0.00105 0.46313 0.30266 0.0
H2620 H 0.042 0.44425 0.1838 0.0
H2621 H 0.01734 0.43086 0.24573 0.0
H2622 H 0.00688 0.46824 0.19658 0.0
H2623 H 0.03164 0.48168 0.13708 0.0
C2624 C 0.97077 0.41699 0.29693 0.0
C2625 C 0.96675 0.42656 0.33301 0.0
C2626 C 0.98508 0.42402 0.26315 0.0
C2627 C 0.99539 0.44075 0.26414 0.0
C2628 C 0.99122 0.45024 0.30032 0.0
C2629 C 0.97695 0.44322 0.33374 0.0
C2630 C 0.03426 0.44941 0.18611 0.0
C2631 C 0.03828 0.46361 0.15423 0.0
C2632 C 0.02018 0.44178 0.22123 0.0
C2633 C 0.01014 0.44847 0.22594 0.0
C2634 C 0.01442 0.46284 0.19451 0.0
C2635 C 0.02843 0.47041 0.1596 0.0
H2636 H 0.54587 0.56097 0.06932 0.0
H2637 H 0.57446 0.6073 0.15475 0.0
H2638 H 0.55781 0.54965 0.13745 0.0
H2639 H 0.58629 0.59577 0.22436 0.0
H2640 H 0.55659 0.53543 0.34534 0.0
H2641 H 0.55203 0.55137 0.26885 0.0
H2642 H 0.60178 0.57429 0.21472 0.0
H2643 H 0.60637 0.5581 0.29182 0.0
C2644 C 0.55534 0.56892 0.10044 0.0
C2645 C 0.5596 0.5851 0.10568 0.0
C2646 C 0.56201 0.56239 0.13993 0.0
C2647 C 0.57291 0.57189 0.18584 0.0
C2648 C 0.57804 0.58833 0.18865 0.0
C2649 C 0.57131 0.59488 0.14898 0.0
C2650 C 0.56665 0.5442 0.31838 0.0
C2651 C 0.58192 0.54595 0.32541 0.0
C2652 C 0.56402 0.55317 0.27435 0.0
C2653 C 0.57657 0.56395 0.23621 0.0
C2654 C 0.592 0.56608 0.2441 0.0
C2655 C 0.5946 0.55691 0.28797 0.0
H2656 H 0.44762 0.96871 0.11201 0.0
H2657 H 0.40092 0.95979 0.16838 0.0
H2658 H 0.4602 0.99425 0.16689 0.0
H2659 H 0.41346 0.98509 0.22615 0.0
H2660 H 0.44177 0.03847 0.28163 0.0
H2661 H 0.42887 0.01446 0.21605 0.0
H2662 H 0.46444 0.00215 0.27322 0.0
H2663 H 0.47742 0.02627 0.33666 0.0
C2664 C 0.44006 0.97246 0.13516 0.0
C2665 C 0.42333 0.96271 0.13422 0.0
C2666 C 0.44724 0.98691 0.16749 0.0
C2667 C 0.43782 0.99169 0.20098 0.0
C2668 C 0.42102 0.98189 0.19989 0.0
C2669 C 0.41384 0.96743 0.16716 0.0
C2670 C 0.44666 0.03049 0.28013 0.0
C2671 C 0.46015 0.03374 0.3156 0.0
C2672 C 0.43931 0.01679 0.24287 0.0
C2673 C 0.4456 0.00637 0.23961 0.0
C2674 C 0.45938 0.00999 0.27412 0.0
C2675 C 0.46666 0.02362 0.31127 0.0
H2676 H 0.545 0.02121 0.88836 0.0
H2677 H 0.59104 0.03206 0.81581 0.0
H2678 H 0.53229 0.99549 0.83487 0.0
H2679 H 0.57829 0.0066 0.75916 0.0
H2680 H 0.51282 0.96314 0.66639 0.0
H2681 H 0.52598 0.98718 0.73012 0.0
H2682 H 0.56436 0.97739 0.76913 0.0
H2683 H 0.55122 0.95349 0.7031 0.0
C2684 C 0.55242 0.01786 0.86191 0.0
C2685 C 0.56903 0.0282 0.85791 0.0
C2686 C 0.54514 0.00329 0.83038 0.0
C2687 C 0.55428 -0.001 0.79265 0.0
C2688 C 0.57097 0.00941 0.78876 0.0
C2689 C 0.57826 0.02397 0.82081 0.0
C2690 C 0.5242 0.96632 0.68792 0.0
C2691 C 0.53142 0.95699 0.67814 0.0
C2692 C 0.53161 0.9799 0.72528 0.0
C2693 C 0.54626 0.98423 0.75461 0.0
C2694 C 0.55323 0.97452 0.74628 0.0
C2695 C 0.54575 0.96088 0.70877 0.0
H2696 H 0.03039 0.552 0.62349 0.0
H2697 H 0.03992 0.59914 0.67648 0.0
H2698 H 0.00514 0.53991 0.67993 0.0
H2699 H 0.01485 0.58707 0.73587 0.0
H2700 H 0.97199 0.52279 0.84388 0.0
H2701 H 0.99685 0.53595 0.78508 0.0
H2702 H 0.98549 0.57196 0.72456 0.0
H2703 H 0.96075 0.55892 0.7861 0.0
C2704 C 0.02688 0.55975 0.6466 0.0
C2705 C 0.03665 0.57645 0.64391 0.0
C2706 C 0.01258 0.55285 0.6798 0.0
C2707 C 0.00799 0.56254 0.71242 0.0
C2708 C 0.01792 0.57931 0.71028 0.0
C2709 C 0.03225 0.58622 0.67667 0.0
C2710 C 0.97502 0.53371 0.81899 0.0
C2711 C 0.96491 0.54027 0.82113 0.0
C2712 C 0.9891 0.54111 0.78447 0.0
C2713 C 0.99315 0.55501 0.7501 0.0
C2714 C 0.98282 0.56142 0.75141 0.0
C2715 C 0.9687 0.55398 0.78627 0.0
H2716 H 0.43934 0.47129 0.64445 0.0
H2717 H 0.38863 0.44347 0.68287 0.0
H2718 H 0.44451 0.45561 0.72001 0.0
H2719 H 0.39382 0.42742 0.75874 0.0
H2720 H 0.42258 0.3965 0.81346 0.0
H2721 H 0.41057 0.40869 0.74823 0.0
H2722 H 0.43767 0.45334 0.8466 0.0
H2723 H 0.44974 0.44135 0.91058 0.0
C2724 C 0.42928 0.46156 0.66831 0.0
C2725 C 0.41357 0.45822 0.657 0.0
C2726 C 0.43224 0.45273 0.71181 0.0
C2727 C 0.41954 0.44042 0.745 0.0
C2728 C 0.40374 0.43686 0.73331 0.0
C2729 C 0.4008 0.44595 0.69017 0.0
C2730 C 0.42541 0.40871 0.82248 0.0
C2731 C 0.43674 0.4179 0.86787 0.0
C2732 C 0.41857 0.41564 0.78541 0.0
C2733 C 0.42327 0.43189 0.79275 0.0
C2734 C 0.43383 0.44075 0.84055 0.0
C2735 C 0.44059 0.43384 0.87754 0.0
loop_
_geom_bond_atom_site_label_1
_geom_bond_atom_site_label_2
_geom_bond_distance
_geom_bond_site_symmetry_2
_ccdc_geom_bond_type
Mn0 O5 2.095 . S
Mn0 O15 2.162 1_554 S
Mn0 O16 2.297 1_554 S
Mn0 O24 2.385 1_554 S
Mn0 O25 2.209 . S
Mn0 O26 2.094 . S
Mn1 O6 2.121 . S
Mn1 N8 2.257 . S
Mn1 N17 2.282 . S
Mn1 O25 2.215 . S
Mn1 O27 2.117 . S
C2 O24 1.234 1_554 S
C2 O25 1.283 . S
C3 O15 1.281 . S
C3 O16 1.236 . S
C4 O26 1.240 . S
C4 O27 1.264 . S
O5 Mn0 2.095 . S
O5 C14 1.250 . S
O6 Mn1 2.121 . S
O6 C14 1.258 . S
C7 N8 1.326 . S
C7 C11 1.460 . S
C7 H13 0.929 . S
N8 Mn1 2.257 . S
N8 C7 1.326 . S
N8 C12 1.362 . S
C9 C10 1.258 . S
C9 C12 1.431 . S
C9 C29 1.449 . S
C10 C9 1.258 . S
C10 C11 1.477 . S
C10 H30 0.931 . S
C11 C7 1.460 . S
C11 C10 1.477 . S
C11 H31 0.930 . S
C12 N8 1.362 . S
C12 C9 1.431 . S
C12 C22 1.476 . S
H13 C7 0.929 . S
C14 O5 1.250 . S
C14 O6 1.258 . S
O15 Mn0 2.162 1_556 S
O15 C3 1.281 . S
O16 Mn0 2.297 1_556 S
O16 C3 1.236 . S
N17 Mn1 2.282 . S
N17 C18 1.328 . S
N17 C22 1.318 . S
C18 N17 1.328 . S
C18 C19 1.457 . S
C18 H23 0.929 . S
C19 C18 1.457 . S
C19 C20 1.291 . S
C19 H32 0.931 . S
C20 C19 1.291 . S
C20 C21 1.373 . S
C20 H33 0.929 . S
C21 C20 1.373 . S
C21 C22 1.396 . S
C21 C28 1.403 . S
C22 C12 1.476 . S
C22 N17 1.318 . S
C22 C21 1.396 . S
H23 C18 0.929 . S
O24 Mn0 2.385 1_556 S
O24 C2 1.234 1_556 S
O25 Mn0 2.209 . S
O25 Mn1 2.215 . S
O25 C2 1.283 . S
O26 Mn0 2.094 . S
O26 C4 1.240 . S
O27 Mn1 2.117 . S
O27 C4 1.264 . S
C28 C21 1.403 . S
C28 C29 1.399 . S
C28 H34 0.929 . S
C29 C9 1.449 . S
C29 C28 1.399 . S
C29 H35 0.930 . S
H30 C10 0.931 . S
H31 C11 0.930 . S
H32 C19 0.931 . S
H33 C20 0.929 . S
H34 C28 0.929 . S
H35 C29 0.930 . S
Mn36 O41 2.095 . S
Mn36 O51 2.162 1_554 S
Mn36 O52 2.297 1_554 S
Mn36 O60 2.385 1_554 S
Mn36 O61 2.209 . S
Mn36 O62 2.094 . S
Mn37 O42 2.121 . S
Mn37 N44 2.257 . S
Mn37 N53 2.282 . S
Mn37 O61 2.215 . S
Mn37 O63 2.117 . S
C38 O60 1.234 1_554 S
C38 O61 1.283 . S
C39 O51 1.281 . S
C39 O52 1.236 . S
C40 O62 1.240 . S
C40 O63 1.264 . S
O41 Mn36 2.095 . S
O41 C50 1.250 . S
O42 Mn37 2.121 . S
O42 C50 1.258 . S
C43 N44 1.326 . S
C43 C47 1.460 . S
C43 H49 0.929 . S
N44 Mn37 2.257 . S
N44 C43 1.326 . S
N44 C48 1.362 . S
C45 C46 1.258 . S
C45 C48 1.431 . S
C45 C65 1.449 . S
C46 C45 1.258 . S
C46 C47 1.477 . S
C46 H66 0.931 . S
C47 C43 1.460 . S
C47 C46 1.477 . S
C47 H67 0.930 . S
C48 N44 1.362 . S
C48 C45 1.431 . S
C48 C58 1.476 . S
H49 C43 0.929 . S
C50 O41 1.250 . S
C50 O42 1.258 . S
O51 Mn36 2.162 1_556 S
O51 C39 1.281 . S
O52 Mn36 2.297 1_556 S
O52 C39 1.236 . S
N53 Mn37 2.282 . S
N53 C54 1.328 . S
N53 C58 1.318 . S
C54 N53 1.328 . S
C54 C55 1.457 . S
C54 H59 0.929 . S
C55 C54 1.457 . S
C55 C56 1.291 . S
C55 H68 0.931 . S
C56 C55 1.291 . S
C56 C57 1.373 . S
C56 H69 0.929 . S
C57 C56 1.373 . S
C57 C58 1.396 . S
C57 C64 1.403 . S
C58 C48 1.476 . S
C58 N53 1.318 . S
C58 C57 1.396 . S
H59 C54 0.929 . S
O60 Mn36 2.385 1_556 S
O60 C38 1.234 1_556 S
O61 Mn36 2.209 . S
O61 Mn37 2.215 . S
O61 C38 1.283 . S
O62 Mn36 2.094 . S
O62 C40 1.240 . S
O63 Mn37 2.117 . S
O63 C40 1.264 . S
C64 C57 1.403 . S
C64 C65 1.399 . S
C64 H70 0.929 . S
C65 C45 1.449 . S
C65 C64 1.399 . S
C65 H71 0.930 . S
H66 C46 0.931 . S
H67 C47 0.930 . S
H68 C55 0.931 . S
H69 C56 0.929 . S
H70 C64 0.929 . S
H71 C65 0.930 . S
Mn72 O77 2.095 . S
Mn72 O87 2.162 1_554 S
Mn72 O88 2.297 1_554 S
Mn72 O96 2.385 1_554 S
Mn72 O97 2.209 . S
Mn72 O98 2.094 . S
Mn73 O78 2.121 . S
Mn73 N80 2.257 . S
Mn73 N89 2.282 . S
Mn73 O97 2.215 . S
Mn73 O99 2.117 . S
C74 O96 1.234 1_554 S
C74 O97 1.283 . S
C75 O87 1.281 . S
C75 O88 1.236 . S
C76 O98 1.240 . S
C76 O99 1.264 . S
O77 Mn72 2.095 . S
O77 C86 1.250 . S
O78 Mn73 2.121 . S
O78 C86 1.258 . S
C79 N80 1.326 . S
C79 C83 1.460 . S
C79 H85 0.929 . S
N80 Mn73 2.257 . S
N80 C79 1.326 . S
N80 C84 1.362 . S
C81 C82 1.258 . S
C81 C84 1.431 . S
C81 C101 1.449 . S
C82 C81 1.258 . S
C82 C83 1.477 . S
C82 H102 0.931 . S
C83 C79 1.460 . S
C83 C82 1.477 . S
C83 H103 0.930 . S
C84 N80 1.362 . S
C84 C81 1.431 . S
C84 C94 1.476 . S
H85 C79 0.929 . S
C86 O77 1.250 . S
C86 O78 1.258 . S
O87 Mn72 2.162 1_556 S
O87 C75 1.281 . S
O88 Mn72 2.297 1_556 S
O88 C75 1.236 . S
N89 Mn73 2.282 . S
N89 C90 1.328 . S
N89 C94 1.318 . S
C90 N89 1.328 . S
C90 C91 1.457 . S
C90 H95 0.929 . S
C91 C90 1.457 . S
C91 C92 1.291 . S
C91 H104 0.931 . S
C92 C91 1.291 . S
C92 C93 1.373 . S
C92 H105 0.929 . S
C93 C92 1.373 . S
C93 C94 1.396 . S
C93 C100 1.403 . S
C94 C84 1.476 . S
C94 N89 1.318 . S
C94 C93 1.396 . S
H95 C90 0.929 . S
O96 Mn72 2.385 1_556 S
O96 C74 1.234 1_556 S
O97 Mn72 2.209 . S
O97 Mn73 2.215 . S
O97 C74 1.283 . S
O98 Mn72 2.094 . S
O98 C76 1.240 . S
O99 Mn73 2.117 . S
O99 C76 1.264 . S
C100 C93 1.403 . S
C100 C101 1.399 . S
C100 H106 0.929 . S
C101 C81 1.449 . S
C101 C100 1.399 . S
C101 H107 0.930 . S
H102 C82 0.931 . S
H103 C83 0.930 . S
H104 C91 0.931 . S
H105 C92 0.929 . S
H106 C100 0.929 . S
H107 C101 0.930 . S
Mn108 O113 2.095 . S
Mn108 O123 2.162 . S
Mn108 O124 2.297 . S
Mn108 O132 2.385 . S
Mn108 O133 2.209 . S
Mn108 O134 2.094 . S
Mn109 O114 2.121 . S
Mn109 N116 2.257 . S
Mn109 N125 2.282 . S
Mn109 O133 2.215 . S
Mn109 O135 2.117 . S
C110 O132 1.234 . S
C110 O133 1.283 . S
C111 O123 1.281 . S
C111 O124 1.236 . S
C112 O134 1.240 . S
C112 O135 1.264 . S
O113 Mn108 2.095 . S
O113 C122 1.250 . S
O114 Mn109 2.121 . S
O114 C122 1.258 . S
C115 N116 1.326 . S
C115 C119 1.460 . S
C115 H121 0.929 . S
N116 Mn109 2.257 . S
N116 C115 1.326 . S
N116 C120 1.362 . S
C117 C118 1.258 . S
C117 C120 1.431 . S
C117 C137 1.449 . S
C118 C117 1.258 . S
C118 C119 1.477 . S
C118 H138 0.931 . S
C119 C115 1.460 . S
C119 C118 1.477 . S
C119 H139 0.930 . S
C120 N116 1.362 . S
C120 C117 1.431 . S
C120 C130 1.476 . S
H121 C115 0.929 . S
C122 O113 1.250 . S
C122 O114 1.258 . S
O123 Mn108 2.162 . S
O123 C111 1.281 . S
O124 Mn108 2.297 . S
O124 C111 1.236 . S
N125 Mn109 2.282 . S
N125 C126 1.328 . S
N125 C130 1.318 . S
C126 N125 1.328 . S
C126 C127 1.457 . S
C126 H131 0.929 . S
C127 C126 1.457 . S
C127 C128 1.291 . S
C127 H140 0.931 . S
C128 C127 1.291 . S
C128 C129 1.373 . S
C128 H141 0.929 . S
C129 C128 1.373 . S
C129 C130 1.396 . S
C129 C136 1.403 . S
C130 C120 1.476 . S
C130 N125 1.318 . S
C130 C129 1.396 . S
H131 C126 0.929 . S
O132 Mn108 2.385 . S
O132 C110 1.234 . S
O133 Mn108 2.209 . S
O133 Mn109 2.215 . S
O133 C110 1.283 . S
O134 Mn108 2.094 . S
O134 C112 1.240 . S
O135 Mn109 2.117 . S
O135 C112 1.264 . S
C136 C129 1.403 . S
C136 C137 1.399 . S
C136 H142 0.929 . S
C137 C117 1.449 . S
C137 C136 1.399 . S
C137 H143 0.930 . S
H138 C118 0.931 . S
H139 C119 0.930 . S
H140 C127 0.931 . S
H141 C128 0.929 . S
H142 C136 0.929 . S
H143 C137 0.930 . S
Mn144 O149 2.095 . S
Mn144 O159 2.162 . S
Mn144 O160 2.297 . S
Mn144 O168 2.385 . S
Mn144 O169 2.209 . S
Mn144 O170 2.094 . S
Mn145 O150 2.121 . S
Mn145 N152 2.257 . S
Mn145 N161 2.282 . S
Mn145 O169 2.215 . S
Mn145 O171 2.117 . S
C146 O168 1.234 . S
C146 O169 1.283 . S
C147 O159 1.281 . S
C147 O160 1.236 . S
C148 O170 1.240 . S
C148 O171 1.264 . S
O149 Mn144 2.095 . S
O149 C158 1.250 . S
O150 Mn145 2.121 . S
O150 C158 1.258 . S
C151 N152 1.326 . S
C151 C155 1.460 . S
C151 H157 0.929 . S
N152 Mn145 2.257 . S
N152 C151 1.326 . S
N152 C156 1.362 . S
C153 C154 1.258 . S
C153 C156 1.431 . S
C153 C173 1.449 . S
C154 C153 1.258 . S
C154 C155 1.477 . S
C154 H174 0.931 . S
C155 C151 1.460 . S
C155 C154 1.477 . S
C155 H175 0.930 . S
C156 N152 1.362 . S
C156 C153 1.431 . S
C156 C166 1.476 . S
H157 C151 0.929 . S
C158 O149 1.250 . S
C158 O150 1.258 . S
O159 Mn144 2.162 . S
O159 C147 1.281 . S
O160 Mn144 2.297 . S
O160 C147 1.236 . S
N161 Mn145 2.282 . S
N161 C162 1.328 . S
N161 C166 1.318 . S
C162 N161 1.328 . S
C162 C163 1.457 . S
C162 H167 0.929 . S
C163 C162 1.457 . S
C163 C164 1.291 . S
C163 H176 0.931 . S
C164 C163 1.291 . S
C164 C165 1.373 . S
C164 H177 0.929 . S
C165 C164 1.373 . S
C165 C166 1.396 . S
C165 C172 1.403 . S
C166 C156 1.476 . S
C166 N161 1.318 . S
C166 C165 1.396 . S
H167 C162 0.929 . S
O168 Mn144 2.385 . S
O168 C146 1.234 . S
O169 Mn144 2.209 . S
O169 Mn145 2.215 . S
O169 C146 1.283 . S
O170 Mn144 2.094 . S
O170 C148 1.240 . S
O171 Mn145 2.117 . S
O171 C148 1.264 . S
C172 C165 1.403 . S
C172 C173 1.399 . S
C172 H178 0.929 . S
C173 C153 1.449 . S
C173 C172 1.399 . S
C173 H179 0.930 . S
H174 C154 0.931 . S
H175 C155 0.930 . S
H176 C163 0.931 . S
H177 C164 0.929 . S
H178 C172 0.929 . S
H179 C173 0.930 . S
Mn180 O185 2.095 . S
Mn180 O195 2.162 . S
Mn180 O196 2.297 . S
Mn180 O204 2.385 . S
Mn180 O205 2.209 . S
Mn180 O206 2.094 . S
Mn181 O186 2.121 . S
Mn181 N188 2.257 . S
Mn181 N197 2.282 . S
Mn181 O205 2.215 . S
Mn181 O207 2.117 . S
C182 O204 1.234 . S
C182 O205 1.283 . S
C183 O195 1.281 . S
C183 O196 1.236 . S
C184 O206 1.240 . S
C184 O207 1.264 . S
O185 Mn180 2.095 . S
O185 C194 1.250 . S
O186 Mn181 2.121 . S
O186 C194 1.258 . S
C187 N188 1.326 . S
C187 C191 1.460 . S
C187 H193 0.929 . S
N188 Mn181 2.257 . S
N188 C187 1.326 . S
N188 C192 1.362 . S
C189 C190 1.258 . S
C189 C192 1.431 . S
C189 C209 1.449 . S
C190 C189 1.258 . S
C190 C191 1.477 . S
C190 H210 0.931 . S
C191 C187 1.460 . S
C191 C190 1.477 . S
C191 H211 0.930 . S
C192 N188 1.362 . S
C192 C189 1.431 . S
C192 C202 1.476 . S
H193 C187 0.929 . S
C194 O185 1.250 . S
C194 O186 1.258 . S
O195 Mn180 2.162 . S
O195 C183 1.281 . S
O196 Mn180 2.297 . S
O196 C183 1.236 . S
N197 Mn181 2.282 . S
N197 C198 1.328 . S
N197 C202 1.318 . S
C198 N197 1.328 . S
C198 C199 1.457 . S
C198 H203 0.929 . S
C199 C198 1.457 . S
C199 C200 1.291 . S
C199 H212 0.931 . S
C200 C199 1.291 . S
C200 C201 1.373 . S
C200 H213 0.929 . S
C201 C200 1.373 . S
C201 C202 1.396 . S
C201 C208 1.403 . S
C202 C192 1.476 . S
C202 N197 1.318 . S
C202 C201 1.396 . S
H203 C198 0.929 . S
O204 Mn180 2.385 . S
O204 C182 1.234 . S
O205 Mn180 2.209 . S
O205 Mn181 2.215 . S
O205 C182 1.283 . S
O206 Mn180 2.094 . S
O206 C184 1.240 . S
O207 Mn181 2.117 . S
O207 C184 1.264 . S
C208 C201 1.403 . S
C208 C209 1.399 . S
C208 H214 0.929 . S
C209 C189 1.449 . S
C209 C208 1.399 . S
C209 H215 0.930 . S
H210 C190 0.931 . S
H211 C191 0.930 . S
H212 C199 0.931 . S
H213 C200 0.929 . S
H214 C208 0.929 . S
H215 C209 0.930 . S
Mn216 O221 2.095 . S
Mn216 O231 2.162 1_556 S
Mn216 O232 2.297 1_556 S
Mn216 O240 2.385 1_556 S
Mn216 O241 2.209 . S
Mn216 O242 2.094 . S
Mn217 O222 2.121 . S
Mn217 N224 2.257 . S
Mn217 N233 2.282 . S
Mn217 O241 2.215 . S
Mn217 O243 2.117 . S
C218 O240 1.234 1_556 S
C218 O241 1.283 . S
C219 O231 1.281 . S
C219 O232 1.236 . S
C220 O242 1.240 . S
C220 O243 1.264 . S
O221 Mn216 2.095 . S
O221 C230 1.250 . S
O222 Mn217 2.121 . S
O222 C230 1.258 . S
C223 N224 1.326 . S
C223 C227 1.460 . S
C223 H229 0.929 . S
N224 Mn217 2.257 . S
N224 C223 1.326 . S
N224 C228 1.362 . S
C225 C226 1.258 . S
C225 C228 1.431 . S
C225 C245 1.449 . S
C226 C225 1.258 . S
C226 C227 1.477 . S
C226 H246 0.931 . S
C227 C223 1.460 . S
C227 C226 1.477 . S
C227 H247 0.930 . S
C228 N224 1.362 . S
C228 C225 1.431 . S
C228 C238 1.476 . S
H229 C223 0.929 . S
C230 O221 1.250 . S
C230 O222 1.258 . S
O231 Mn216 2.162 1_554 S
O231 C219 1.281 . S
O232 Mn216 2.297 1_554 S
O232 C219 1.236 . S
N233 Mn217 2.282 . S
N233 C234 1.328 . S
N233 C238 1.318 . S
C234 N233 1.328 . S
C234 C235 1.457 . S
C234 H239 0.929 . S
C235 C234 1.457 . S
C235 C236 1.291 . S
C235 H248 0.931 . S
C236 C235 1.291 . S
C236 C237 1.373 . S
C236 H249 0.929 . S
C237 C236 1.373 . S
C237 C238 1.396 . S
C237 C244 1.403 . S
C238 C228 1.476 . S
C238 N233 1.318 . S
C238 C237 1.396 . S
H239 C234 0.929 . S
O240 Mn216 2.385 1_554 S
O240 C218 1.234 1_554 S
O241 Mn216 2.209 . S
O241 Mn217 2.215 . S
O241 C218 1.283 . S
O242 Mn216 2.094 . S
O242 C220 1.240 . S
O243 Mn217 2.117 . S
O243 C220 1.264 . S
C244 C237 1.403 . S
C244 C245 1.399 . S
C244 H250 0.929 . S
C245 C225 1.449 . S
C245 C244 1.399 . S
C245 H251 0.930 . S
H246 C226 0.931 . S
H247 C227 0.930 . S
H248 C235 0.931 . S
H249 C236 0.929 . S
H250 C244 0.929 . S
H251 C245 0.930 . S
Mn252 O257 2.095 . S
Mn252 O267 2.162 1_556 S
Mn252 O268 2.297 1_556 S
Mn252 O276 2.385 1_556 S
Mn252 O277 2.209 . S
Mn252 O278 2.094 . S
Mn253 O258 2.121 . S
Mn253 N260 2.257 . S
Mn253 N269 2.282 . S
Mn253 O277 2.215 . S
Mn253 O279 2.117 . S
C254 O276 1.234 1_556 S
C254 O277 1.283 . S
C255 O267 1.281 . S
C255 O268 1.236 . S
C256 O278 1.240 . S
C256 O279 1.264 . S
O257 Mn252 2.095 . S
O257 C266 1.250 . S
O258 Mn253 2.121 . S
O258 C266 1.258 . S
C259 N260 1.326 . S
C259 C263 1.460 . S
C259 H265 0.929 . S
N260 Mn253 2.257 . S
N260 C259 1.326 . S
N260 C264 1.362 . S
C261 C262 1.258 . S
C261 C264 1.431 . S
C261 C281 1.449 . S
C262 C261 1.258 . S
C262 C263 1.477 . S
C262 H282 0.931 . S
C263 C259 1.460 . S
C263 C262 1.477 . S
C263 H283 0.930 . S
C264 N260 1.362 . S
C264 C261 1.431 . S
C264 C274 1.476 . S
H265 C259 0.929 . S
C266 O257 1.250 . S
C266 O258 1.258 . S
O267 Mn252 2.162 1_554 S
O267 C255 1.281 . S
O268 Mn252 2.297 1_554 S
O268 C255 1.236 . S
N269 Mn253 2.282 . S
N269 C270 1.328 . S
N269 C274 1.318 . S
C270 N269 1.328 . S
C270 C271 1.457 . S
C270 H275 0.929 . S
C271 C270 1.457 . S
C271 C272 1.291 . S
C271 H284 0.931 . S
C272 C271 1.291 . S
C272 C273 1.373 . S
C272 H285 0.929 . S
C273 C272 1.373 . S
C273 C274 1.396 . S
C273 C280 1.403 . S
C274 C264 1.476 . S
C274 N269 1.318 . S
C274 C273 1.396 . S
H275 C270 0.929 . S
O276 Mn252 2.385 1_554 S
O276 C254 1.234 1_554 S
O277 Mn252 2.209 . S
O277 Mn253 2.215 . S
O277 C254 1.283 . S
O278 Mn252 2.094 . S
O278 C256 1.240 . S
O279 Mn253 2.117 . S
O279 C256 1.264 . S
C280 C273 1.403 . S
C280 C281 1.399 . S
C280 H286 0.929 . S
C281 C261 1.449 . S
C281 C280 1.399 . S
C281 H287 0.930 . S
H282 C262 0.931 . S
H283 C263 0.930 . S
H284 C271 0.931 . S
H285 C272 0.929 . S
H286 C280 0.929 . S
H287 C281 0.930 . S
Mn288 O293 2.095 . S
Mn288 O303 2.162 1_556 S
Mn288 O304 2.297 1_556 S
Mn288 O312 2.385 1_556 S
Mn288 O313 2.209 . S
Mn288 O314 2.094 . S
Mn289 O294 2.121 . S
Mn289 N296 2.257 . S
Mn289 N305 2.282 . S
Mn289 O313 2.215 . S
Mn289 O315 2.117 . S
C290 O312 1.234 1_556 S
C290 O313 1.283 . S
C291 O303 1.281 . S
C291 O304 1.236 . S
C292 O314 1.240 . S
C292 O315 1.264 . S
O293 Mn288 2.095 . S
O293 C302 1.250 . S
O294 Mn289 2.121 . S
O294 C302 1.258 . S
C295 N296 1.326 . S
C295 C299 1.460 . S
C295 H301 0.929 . S
N296 Mn289 2.257 . S
N296 C295 1.326 . S
N296 C300 1.362 . S
C297 C298 1.258 . S
C297 C300 1.431 . S
C297 C317 1.449 . S
C298 C297 1.258 . S
C298 C299 1.477 . S
C298 H318 0.931 . S
C299 C295 1.460 . S
C299 C298 1.477 . S
C299 H319 0.930 . S
C300 N296 1.362 . S
C300 C297 1.431 . S
C300 C310 1.476 . S
H301 C295 0.929 . S
C302 O293 1.250 . S
C302 O294 1.258 . S
O303 Mn288 2.162 1_554 S
O303 C291 1.281 . S
O304 Mn288 2.297 1_554 S
O304 C291 1.236 . S
N305 Mn289 2.282 . S
N305 C306 1.328 . S
N305 C310 1.318 . S
C306 N305 1.328 . S
C306 C307 1.457 . S
C306 H311 0.929 . S
C307 C306 1.457 . S
C307 C308 1.291 . S
C307 H320 0.931 . S
C308 C307 1.291 . S
C308 C309 1.373 . S
C308 H321 0.929 . S
C309 C308 1.373 . S
C309 C310 1.396 . S
C309 C316 1.403 . S
C310 C300 1.476 . S
C310 N305 1.318 . S
C310 C309 1.396 . S
H311 C306 0.929 . S
O312 Mn288 2.385 1_554 S
O312 C290 1.234 1_554 S
O313 Mn288 2.209 . S
O313 Mn289 2.215 . S
O313 C290 1.283 . S
O314 Mn288 2.094 . S
O314 C292 1.240 . S
O315 Mn289 2.117 . S
O315 C292 1.264 . S
C316 C309 1.403 . S
C316 C317 1.399 . S
C316 H322 0.929 . S
C317 C297 1.449 . S
C317 C316 1.399 . S
C317 H323 0.930 . S
H318 C298 0.931 . S
H319 C299 0.930 . S
H320 C307 0.931 . S
H321 C308 0.929 . S
H322 C316 0.929 . S
H323 C317 0.930 . S
Mn324 O329 2.095 . S
Mn324 O339 2.162 . S
Mn324 O340 2.297 . S
Mn324 O348 2.385 . S
Mn324 O349 2.209 . S
Mn324 O350 2.094 . S
Mn325 O330 2.121 . S
Mn325 N332 2.257 . S
Mn325 N341 2.282 . S
Mn325 O349 2.215 . S
Mn325 O351 2.117 . S
C326 O348 1.234 . S
C326 O349 1.283 . S
C327 O339 1.281 . S
C327 O340 1.236 . S
C328 O350 1.240 . S
C328 O351 1.264 . S
O329 Mn324 2.095 . S
O329 C338 1.250 . S
O330 Mn325 2.121 . S
O330 C338 1.258 . S
C331 N332 1.326 . S
C331 C335 1.460 . S
C331 H337 0.929 . S
N332 Mn325 2.257 . S
N332 C331 1.326 . S
N332 C336 1.362 . S
C333 C334 1.258 . S
C333 C336 1.431 . S
C333 C353 1.449 . S
C334 C333 1.258 . S
C334 C335 1.477 . S
C334 H354 0.931 . S
C335 C331 1.460 . S
C335 C334 1.477 . S
C335 H355 0.930 . S
C336 N332 1.362 . S
C336 C333 1.431 . S
C336 C346 1.476 . S
H337 C331 0.929 . S
C338 O329 1.250 . S
C338 O330 1.258 . S
O339 Mn324 2.162 . S
O339 C327 1.281 . S
O340 Mn324 2.297 . S
O340 C327 1.236 . S
N341 Mn325 2.282 . S
N341 C342 1.328 . S
N341 C346 1.318 . S
C342 N341 1.328 . S
C342 C343 1.457 . S
C342 H347 0.929 . S
C343 C342 1.457 . S
C343 C344 1.291 . S
C343 H356 0.931 . S
C344 C343 1.291 . S
C344 C345 1.373 . S
C344 H357 0.929 . S
C345 C344 1.373 . S
C345 C346 1.396 . S
C345 C352 1.403 . S
C346 C336 1.476 . S
C346 N341 1.318 . S
C346 C345 1.396 . S
H347 C342 0.929 . S
O348 Mn324 2.385 . S
O348 C326 1.234 . S
O349 Mn324 2.209 . S
O349 Mn325 2.215 . S
O349 C326 1.283 . S
O350 Mn324 2.094 . S
O350 C328 1.240 . S
O351 Mn325 2.117 . S
O351 C328 1.264 . S
C352 C345 1.403 . S
C352 C353 1.399 . S
C352 H358 0.929 . S
C353 C333 1.449 . S
C353 C352 1.399 . S
C353 H359 0.930 . S
H354 C334 0.931 . S
H355 C335 0.930 . S
H356 C343 0.931 . S
H357 C344 0.929 . S
H358 C352 0.929 . S
H359 C353 0.930 . S
Mn360 O365 2.095 . S
Mn360 O375 2.162 . S
Mn360 O376 2.297 . S
Mn360 O384 2.385 . S
Mn360 O385 2.209 . S
Mn360 O386 2.094 . S
Mn361 O366 2.121 . S
Mn361 N368 2.257 . S
Mn361 N377 2.282 . S
Mn361 O385 2.215 . S
Mn361 O387 2.117 . S
C362 O384 1.234 . S
C362 O385 1.283 . S
C363 O375 1.281 . S
C363 O376 1.236 . S
C364 O386 1.240 . S
C364 O387 1.264 . S
O365 Mn360 2.095 . S
O365 C374 1.250 . S
O366 Mn361 2.121 . S
O366 C374 1.258 . S
C367 N368 1.326 . S
C367 C371 1.460 . S
C367 H373 0.929 . S
N368 Mn361 2.257 . S
N368 C367 1.326 . S
N368 C372 1.362 . S
C369 C370 1.258 . S
C369 C372 1.431 . S
C369 C389 1.449 . S
C370 C369 1.258 . S
C370 C371 1.477 . S
C370 H390 0.931 . S
C371 C367 1.460 . S
C371 C370 1.477 . S
C371 H391 0.930 . S
C372 N368 1.362 . S
C372 C369 1.431 . S
C372 C382 1.476 . S
H373 C367 0.929 . S
C374 O365 1.250 . S
C374 O366 1.258 . S
O375 Mn360 2.162 . S
O375 C363 1.281 . S
O376 Mn360 2.297 . S
O376 C363 1.236 . S
N377 Mn361 2.282 . S
N377 C378 1.328 . S
N377 C382 1.318 . S
C378 N377 1.328 . S
C378 C379 1.457 . S
C378 H383 0.929 . S
C379 C378 1.457 . S
C379 C380 1.291 . S
C379 H392 0.931 . S
C380 C379 1.291 . S
C380 C381 1.373 . S
C380 H393 0.929 . S
C381 C380 1.373 . S
C381 C382 1.396 . S
C381 C388 1.403 . S
C382 C372 1.476 . S
C382 N377 1.318 . S
C382 C381 1.396 . S
H383 C378 0.929 . S
O384 Mn360 2.385 . S
O384 C362 1.234 . S
O385 Mn360 2.209 . S
O385 Mn361 2.215 . S
O385 C362 1.283 . S
O386 Mn360 2.094 . S
O386 C364 1.240 . S
O387 Mn361 2.117 . S
O387 C364 1.264 . S
C388 C381 1.403 . S
C388 C389 1.399 . S
C388 H394 0.929 . S
C389 C369 1.449 . S
C389 C388 1.399 . S
C389 H395 0.930 . S
H390 C370 0.931 . S
H391 C371 0.930 . S
H392 C379 0.931 . S
H393 C380 0.929 . S
H394 C388 0.929 . S
H395 C389 0.930 . S
Mn396 O401 2.095 . S
Mn396 O411 2.162 . S
Mn396 O412 2.297 . S
Mn396 O420 2.385 . S
Mn396 O421 2.209 . S
Mn396 O422 2.094 . S
Mn397 O402 2.121 . S
Mn397 N404 2.257 . S
Mn397 N413 2.282 . S
Mn397 O421 2.215 . S
Mn397 O423 2.117 . S
C398 O420 1.234 . S
C398 O421 1.283 . S
C399 O411 1.281 . S
C399 O412 1.236 . S
C400 O422 1.240 . S
C400 O423 1.264 . S
O401 Mn396 2.095 . S
O401 C410 1.250 . S
O402 Mn397 2.121 . S
O402 C410 1.258 . S
C403 N404 1.326 . S
C403 C407 1.460 . S
C403 H409 0.929 . S
N404 Mn397 2.257 . S
N404 C403 1.326 . S
N404 C408 1.362 . S
C405 C406 1.258 . S
C405 C408 1.431 . S
C405 C425 1.449 . S
C406 C405 1.258 . S
C406 C407 1.477 . S
C406 H426 0.931 . S
C407 C403 1.460 . S
C407 C406 1.477 . S
C407 H427 0.930 . S
C408 N404 1.362 . S
C408 C405 1.431 . S
C408 C418 1.476 . S
H409 C403 0.929 . S
C410 O401 1.250 . S
C410 O402 1.258 . S
O411 Mn396 2.162 . S
O411 C399 1.281 . S
O412 Mn396 2.297 . S
O412 C399 1.236 . S
N413 Mn397 2.282 . S
N413 C414 1.328 . S
N413 C418 1.318 . S
C414 N413 1.328 . S
C414 C415 1.457 . S
C414 H419 0.929 . S
C415 C414 1.457 . S
C415 C416 1.291 . S
C415 H428 0.931 . S
C416 C415 1.291 . S
C416 C417 1.373 . S
C416 H429 0.929 . S
C417 C416 1.373 . S
C417 C418 1.396 . S
C417 C424 1.403 . S
C418 C408 1.476 . S
C418 N413 1.318 . S
C418 C417 1.396 . S
H419 C414 0.929 . S
O420 Mn396 2.385 . S
O420 C398 1.234 . S
O421 Mn396 2.209 . S
O421 Mn397 2.215 . S
O421 C398 1.283 . S
O422 Mn396 2.094 . S
O422 C400 1.240 . S
O423 Mn397 2.117 . S
O423 C400 1.264 . S
C424 C417 1.403 . S
C424 C425 1.399 . S
C424 H430 0.929 . S
C425 C405 1.449 . S
C425 C424 1.399 . S
C425 H431 0.930 . S
H426 C406 0.931 . S
H427 C407 0.930 . S
H428 C415 0.931 . S
H429 C416 0.929 . S
H430 C424 0.929 . S
H431 C425 0.930 . S
Mn432 O437 2.095 . S
Mn432 O447 2.162 . S
Mn432 O448 2.297 . S
Mn432 O456 2.385 . S
Mn432 O457 2.209 . S
Mn432 O458 2.094 . S
Mn433 O438 2.121 . S
Mn433 N440 2.257 . S
Mn433 N449 2.282 . S
Mn433 O457 2.215 . S
Mn433 O459 2.117 . S
C434 O456 1.234 . S
C434 O457 1.283 . S
C435 O447 1.281 . S
C435 O448 1.236 . S
C436 O458 1.240 . S
C436 O459 1.264 . S
O437 Mn432 2.095 . S
O437 C446 1.250 . S
O438 Mn433 2.121 . S
O438 C446 1.258 . S
C439 N440 1.326 . S
C439 C443 1.460 . S
C439 H445 0.929 . S
N440 Mn433 2.257 . S
N440 C439 1.326 . S
N440 C444 1.362 . S
C441 C442 1.251 . S
C441 C444 1.431 . S
C441 C461 1.449 1_655 S
C442 C441 1.251 . S
C442 C443 1.522 . S
C442 H462 0.894 1_655 S
C443 C439 1.460 . S
C443 C442 1.522 . S
C443 H463 0.930 . S
C444 N440 1.362 . S
C444 C441 1.431 . S
C444 C454 1.476 . S
H445 C439 0.929 . S
C446 O437 1.250 . S
C446 O438 1.258 . S
O447 Mn432 2.162 . S
O447 C435 1.281 . S
O448 Mn432 2.297 . S
O448 C435 1.236 . S
N449 Mn433 2.282 . S
N449 C450 1.328 . S
N449 C454 1.318 . S
C450 N449 1.328 . S
C450 C451 1.457 . S
C450 H455 0.929 . S
C451 C450 1.457 . S
C451 C452 1.291 . S
C451 H464 0.931 . S
C452 C451 1.291 . S
C452 C453 1.373 . S
C452 H465 0.929 . S
C453 C452 1.373 . S
C453 C454 1.396 . S
C453 C460 1.360 1_655 S
C454 C444 1.476 . S
C454 N449 1.318 . S
C454 C453 1.396 . S
H455 C450 0.929 . S
O456 Mn432 2.385 . S
O456 C434 1.234 . S
O457 Mn432 2.209 . S
O457 Mn433 2.215 . S
O457 C434 1.283 . S
O458 Mn432 2.094 . S
O458 C436 1.240 . S
O459 Mn433 2.117 . S
O459 C436 1.264 . S
C460 C453 1.360 1_455 S
C460 C461 1.391 . S
C460 H466 0.983 . S
C461 C441 1.449 1_455 S
C461 C460 1.391 . S
C461 H467 0.930 . S
H462 C442 0.894 1_455 S
H463 C443 0.930 . S
H464 C451 0.931 . S
H465 C452 0.929 . S
H466 C460 0.983 . S
H467 C461 0.930 . S
Mn468 O473 2.095 . S
Mn468 O483 2.162 . S
Mn468 O484 2.297 . S
Mn468 O492 2.385 . S
Mn468 O493 2.209 . S
Mn468 O494 2.094 . S
Mn469 O474 2.121 . S
Mn469 N476 2.257 . S
Mn469 N485 2.282 . S
Mn469 O493 2.215 . S
Mn469 O495 2.117 . S
C470 O492 1.234 . S
C470 O493 1.283 . S
C471 O483 1.281 . S
C471 O484 1.236 . S
C472 O494 1.240 . S
C472 O495 1.264 . S
O473 Mn468 2.095 . S
O473 C482 1.250 . S
O474 Mn469 2.121 . S
O474 C482 1.258 . S
C475 N476 1.326 . S
C475 C479 1.460 . S
C475 H481 0.929 . S
N476 Mn469 2.257 . S
N476 C475 1.326 . S
N476 C480 1.362 . S
C477 C478 1.258 . S
C477 C480 1.431 . S
C477 C497 1.449 . S
C478 C477 1.258 . S
C478 C479 1.477 . S
C478 H498 0.931 . S
C479 C475 1.460 . S
C479 C478 1.477 . S
C479 H499 0.930 . S
C480 N476 1.362 . S
C480 C477 1.431 . S
C480 C490 1.476 . S
H481 C475 0.929 . S
C482 O473 1.250 . S
C482 O474 1.258 . S
O483 Mn468 2.162 . S
O483 C471 1.281 . S
O484 Mn468 2.297 . S
O484 C471 1.236 . S
N485 Mn469 2.282 . S
N485 C486 1.328 . S
N485 C490 1.318 . S
C486 N485 1.328 . S
C486 C487 1.457 . S
C486 H491 0.929 . S
C487 C486 1.457 . S
C487 C488 1.291 . S
C487 H500 0.931 . S
C488 C487 1.291 . S
C488 C489 1.373 . S
C488 H501 0.929 . S
C489 C488 1.373 . S
C489 C490 1.396 . S
C489 C496 1.403 . S
C490 C480 1.476 . S
C490 N485 1.318 . S
C490 C489 1.396 . S
H491 C486 0.929 . S
O492 Mn468 2.385 . S
O492 C470 1.234 . S
O493 Mn468 2.209 . S
O493 Mn469 2.215 . S
O493 C470 1.283 . S
O494 Mn468 2.094 . S
O494 C472 1.240 . S
O495 Mn469 2.117 . S
O495 C472 1.264 . S
C496 C489 1.403 . S
C496 C497 1.399 . S
C496 H502 0.929 . S
C497 C477 1.449 . S
C497 C496 1.399 . S
C497 H503 0.930 . S
H498 C478 0.931 . S
H499 C479 0.930 . S
H500 C487 0.931 . S
H501 C488 0.929 . S
H502 C496 0.929 . S
H503 C497 0.930 . S
Mn504 O509 2.095 . S
Mn504 O519 2.162 . S
Mn504 O520 2.297 . S
Mn504 O528 2.385 . S
Mn504 O529 2.209 . S
Mn504 O530 2.094 . S
Mn505 O510 2.121 . S
Mn505 N512 2.257 . S
Mn505 N521 2.282 . S
Mn505 O529 2.215 . S
Mn505 O531 2.117 . S
C506 O528 1.234 . S
C506 O529 1.283 . S
C507 O519 1.281 . S
C507 O520 1.236 . S
C508 O530 1.240 . S
C508 O531 1.264 . S
O509 Mn504 2.095 . S
O509 C518 1.250 . S
O510 Mn505 2.121 . S
O510 C518 1.258 . S
C511 N512 1.326 . S
C511 C515 1.460 . S
C511 H517 0.929 . S
N512 Mn505 2.257 . S
N512 C511 1.326 . S
N512 C516 1.362 . S
C513 C514 1.292 . S
C513 C516 1.431 . S
C513 C533 1.449 1_545 S
C514 C513 1.292 . S
C514 C515 1.487 . S
C514 H534 0.888 1_545 S
C515 C511 1.460 . S
C515 C514 1.487 . S
C515 H535 0.930 . S
C516 N512 1.362 . S
C516 C513 1.431 . S
C516 C526 1.476 . S
H517 C511 0.929 . S
C518 O509 1.250 . S
C518 O510 1.258 . S
O519 Mn504 2.162 . S
O519 C507 1.281 . S
O520 Mn504 2.297 . S
O520 C507 1.236 . S
N521 Mn505 2.282 . S
N521 C522 1.328 . S
N521 C526 1.318 . S
C522 N521 1.328 . S
C522 C523 1.457 . S
C522 H527 0.929 . S
C523 C522 1.457 . S
C523 C524 1.291 . S
C523 H536 0.931 . S
C524 C523 1.291 . S
C524 C525 1.373 . S
C524 H537 0.929 . S
C525 C524 1.373 . S
C525 C526 1.396 . S
C525 C532 1.351 1_545 S
C526 C516 1.476 . S
C526 N521 1.318 . S
C526 C525 1.396 . S
H527 C522 0.929 . S
O528 Mn504 2.385 . S
O528 C506 1.234 . S
O529 Mn504 2.209 . S
O529 Mn505 2.215 . S
O529 C506 1.283 . S
O530 Mn504 2.094 . S
O530 C508 1.240 . S
O531 Mn505 2.117 . S
O531 C508 1.264 . S
C532 C525 1.351 1_565 S
C532 C533 1.439 . S
C532 H538 0.944 . S
C533 C513 1.449 1_565 S
C533 C532 1.439 . S
C533 H539 0.930 . S
H534 C514 0.888 1_565 S
H535 C515 0.930 . S
H536 C523 0.931 . S
H537 C524 0.929 . S
H538 C532 0.944 . S
H539 C533 0.930 . S
Mn540 O545 2.095 . S
Mn540 O555 2.162 . S
Mn540 O556 2.297 . S
Mn540 O564 2.385 . S
Mn540 O565 2.209 . S
Mn540 O566 2.094 . S
Mn541 O546 2.121 . S
Mn541 N548 2.257 . S
Mn541 N557 2.282 . S
Mn541 O565 2.215 . S
Mn541 O567 2.117 . S
C542 O564 1.234 . S
C542 O565 1.283 . S
C543 O555 1.281 . S
C543 O556 1.236 . S
C544 O566 1.240 . S
C544 O567 1.264 . S
O545 Mn540 2.095 . S
O545 C554 1.250 . S
O546 Mn541 2.121 . S
O546 C554 1.258 . S
C547 N548 1.326 . S
C547 C551 1.460 . S
C547 H553 0.929 . S
N548 Mn541 2.257 . S
N548 C547 1.326 . S
N548 C552 1.362 . S
C549 C550 1.258 . S
C549 C552 1.431 . S
C549 C569 1.449 . S
C550 C549 1.258 . S
C550 C551 1.477 . S
C550 H570 0.931 . S
C551 C547 1.460 . S
C551 C550 1.477 . S
C551 H571 0.930 . S
C552 N548 1.362 . S
C552 C549 1.431 . S
C552 C562 1.476 . S
H553 C547 0.929 . S
C554 O545 1.250 . S
C554 O546 1.258 . S
O555 Mn540 2.162 . S
O555 C543 1.281 . S
O556 Mn540 2.297 . S
O556 C543 1.236 . S
N557 Mn541 2.282 . S
N557 C558 1.328 . S
N557 C562 1.318 . S
C558 N557 1.328 . S
C558 C559 1.457 . S
C558 H563 0.929 . S
C559 C558 1.457 . S
C559 C560 1.291 . S
C559 H572 0.931 . S
C560 C559 1.291 . S
C560 C561 1.373 . S
C560 H573 0.929 . S
C561 C560 1.373 . S
C561 C562 1.396 . S
C561 C568 1.403 . S
C562 C552 1.476 . S
C562 N557 1.318 . S
C562 C561 1.396 . S
H563 C558 0.929 . S
O564 Mn540 2.385 . S
O564 C542 1.234 . S
O565 Mn540 2.209 . S
O565 Mn541 2.215 . S
O565 C542 1.283 . S
O566 Mn540 2.094 . S
O566 C544 1.240 . S
O567 Mn541 2.117 . S
O567 C544 1.264 . S
C568 C561 1.403 . S
C568 C569 1.399 . S
C568 H574 0.929 . S
C569 C549 1.449 . S
C569 C568 1.399 . S
C569 H575 0.930 . S
H570 C550 0.931 . S
H571 C551 0.930 . S
H572 C559 0.931 . S
H573 C560 0.929 . S
H574 C568 0.929 . S
H575 C569 0.930 . S
Mn576 O581 2.095 . S
Mn576 O591 2.162 . S
Mn576 O592 2.297 . S
Mn576 O600 2.385 . S
Mn576 O601 2.209 . S
Mn576 O602 2.094 . S
Mn577 O582 2.121 . S
Mn577 N584 2.257 . S
Mn577 N593 2.282 . S
Mn577 O601 2.215 . S
Mn577 O603 2.117 . S
C578 O600 1.234 . S
C578 O601 1.283 . S
C579 O591 1.281 . S
C579 O592 1.236 . S
C580 O602 1.240 . S
C580 O603 1.264 . S
O581 Mn576 2.095 . S
O581 C590 1.250 . S
O582 Mn577 2.121 . S
O582 C590 1.258 . S
C583 N584 1.326 . S
C583 C587 1.460 . S
C583 H589 0.929 . S
N584 Mn577 2.257 . S
N584 C583 1.326 . S
N584 C588 1.362 . S
C585 C586 1.258 . S
C585 C588 1.431 . S
C585 C605 1.449 . S
C586 C585 1.258 . S
C586 C587 1.477 . S
C586 H606 0.931 . S
C587 C583 1.460 . S
C587 C586 1.477 . S
C587 H607 0.930 . S
C588 N584 1.362 . S
C588 C585 1.431 . S
C588 C598 1.476 . S
H589 C583 0.929 . S
C590 O581 1.250 . S
C590 O582 1.258 . S
O591 Mn576 2.162 . S
O591 C579 1.281 . S
O592 Mn576 2.297 . S
O592 C579 1.236 . S
N593 Mn577 2.282 . S
N593 C594 1.328 . S
N593 C598 1.318 . S
C594 N593 1.328 . S
C594 C595 1.457 . S
C594 H599 0.929 . S
C595 C594 1.457 . S
C595 C596 1.291 . S
C595 H608 0.931 . S
C596 C595 1.291 . S
C596 C597 1.373 . S
C596 H609 0.929 . S
C597 C596 1.373 . S
C597 C598 1.396 . S
C597 C604 1.403 . S
C598 C588 1.476 . S
C598 N593 1.318 . S
C598 C597 1.396 . S
H599 C594 0.929 . S
O600 Mn576 2.385 . S
O600 C578 1.234 . S
O601 Mn576 2.209 . S
O601 Mn577 2.215 . S
O601 C578 1.283 . S
O602 Mn576 2.094 . S
O602 C580 1.240 . S
O603 Mn577 2.117 . S
O603 C580 1.264 . S
C604 C597 1.403 . S
C604 C605 1.399 . S
C604 H610 0.929 . S
C605 C585 1.449 . S
C605 C604 1.399 . S
C605 H611 0.930 . S
H606 C586 0.931 . S
H607 C587 0.930 . S
H608 C595 0.931 . S
H609 C596 0.929 . S
H610 C604 0.929 . S
H611 C605 0.930 . S
Mn612 O617 2.095 . S
Mn612 O627 2.162 . S
Mn612 O628 2.297 . S
Mn612 O636 2.385 . S
Mn612 O637 2.209 . S
Mn612 O638 2.094 . S
Mn613 O618 2.121 . S
Mn613 N620 2.257 . S
Mn613 N629 2.282 . S
Mn613 O637 2.215 . S
Mn613 O639 2.117 . S
C614 O636 1.234 . S
C614 O637 1.283 . S
C615 O627 1.281 . S
C615 O628 1.236 . S
C616 O638 1.240 . S
C616 O639 1.264 . S
O617 Mn612 2.095 . S
O617 C626 1.250 . S
O618 Mn613 2.121 . S
O618 C626 1.258 . S
C619 N620 1.326 . S
C619 C623 1.460 . S
C619 H625 0.929 . S
N620 Mn613 2.257 . S
N620 C619 1.326 . S
N620 C624 1.362 . S
C621 C622 1.258 . S
C621 C624 1.431 . S
C621 C641 1.449 . S
C622 C621 1.258 . S
C622 C623 1.477 . S
C622 H642 0.931 . S
C623 C619 1.460 . S
C623 C622 1.477 . S
C623 H643 0.930 . S
C624 N620 1.362 . S
C624 C621 1.431 . S
C624 C634 1.476 . S
H625 C619 0.929 . S
C626 O617 1.250 . S
C626 O618 1.258 . S
O627 Mn612 2.162 . S
O627 C615 1.281 . S
O628 Mn612 2.297 . S
O628 C615 1.236 . S
N629 Mn613 2.282 . S
N629 C630 1.328 . S
N629 C634 1.318 . S
C630 N629 1.328 . S
C630 C631 1.457 . S
C630 H635 0.929 . S
C631 C630 1.457 . S
C631 C632 1.291 . S
C631 H644 0.931 . S
C632 C631 1.291 . S
C632 C633 1.373 . S
C632 H645 0.929 . S
C633 C632 1.373 . S
C633 C634 1.396 . S
C633 C640 1.403 . S
C634 C624 1.476 . S
C634 N629 1.318 . S
C634 C633 1.396 . S
H635 C630 0.929 . S
O636 Mn612 2.385 . S
O636 C614 1.234 . S
O637 Mn612 2.209 . S
O637 Mn613 2.215 . S
O637 C614 1.283 . S
O638 Mn612 2.094 . S
O638 C616 1.240 . S
O639 Mn613 2.117 . S
O639 C616 1.264 . S
C640 C633 1.403 . S
C640 C641 1.399 . S
C640 H646 0.929 . S
C641 C621 1.449 . S
C641 C640 1.399 . S
C641 H647 0.930 . S
H642 C622 0.931 . S
H643 C623 0.930 . S
H644 C631 0.931 . S
H645 C632 0.929 . S
H646 C640 0.929 . S
H647 C641 0.930 . S
Mn648 O653 2.095 . S
Mn648 O663 2.162 . S
Mn648 O664 2.297 . S
Mn648 O672 2.385 . S
Mn648 O673 2.209 . S
Mn648 O674 2.094 . S
Mn649 O654 2.121 . S
Mn649 N656 2.257 . S
Mn649 N665 2.282 . S
Mn649 O673 2.215 . S
Mn649 O675 2.117 . S
C650 O672 1.234 . S
C650 O673 1.283 . S
C651 O663 1.281 . S
C651 O664 1.236 . S
C652 O674 1.240 . S
C652 O675 1.264 . S
O653 Mn648 2.095 . S
O653 C662 1.250 . S
O654 Mn649 2.121 . S
O654 C662 1.258 . S
C655 N656 1.326 . S
C655 C659 1.460 . S
C655 H661 0.929 . S
N656 Mn649 2.257 . S
N656 C655 1.326 . S
N656 C660 1.362 . S
C657 C658 1.258 . S
C657 C660 1.431 . S
C657 C677 1.449 . S
C658 C657 1.258 . S
C658 C659 1.477 . S
C658 H678 0.931 . S
C659 C655 1.460 . S
C659 C658 1.477 . S
C659 H679 0.930 . S
C660 N656 1.362 . S
C660 C657 1.431 . S
C660 C670 1.476 . S
H661 C655 0.929 . S
C662 O653 1.250 . S
C662 O654 1.258 . S
O663 Mn648 2.162 . S
O663 C651 1.281 . S
O664 Mn648 2.297 . S
O664 C651 1.236 . S
N665 Mn649 2.282 . S
N665 C666 1.328 . S
N665 C670 1.318 . S
C666 N665 1.328 . S
C666 C667 1.457 . S
C666 H671 0.929 . S
C667 C666 1.457 . S
C667 C668 1.291 . S
C667 H680 0.931 . S
C668 C667 1.291 . S
C668 C669 1.373 . S
C668 H681 0.929 . S
C669 C668 1.373 . S
C669 C670 1.396 . S
C669 C676 1.403 . S
C670 C660 1.476 . S
C670 N665 1.318 . S
C670 C669 1.396 . S
H671 C666 0.929 . S
O672 Mn648 2.385 . S
O672 C650 1.234 . S
O673 Mn648 2.209 . S
O673 Mn649 2.215 . S
O673 C650 1.283 . S
O674 Mn648 2.094 . S
O674 C652 1.240 . S
O675 Mn649 2.117 . S
O675 C652 1.264 . S
C676 C669 1.403 . S
C676 C677 1.399 . S
C676 H682 0.929 . S
C677 C657 1.449 . S
C677 C676 1.399 . S
C677 H683 0.930 . S
H678 C658 0.931 . S
H679 C659 0.930 . S
H680 C667 0.931 . S
H681 C668 0.929 . S
H682 C676 0.929 . S
H683 C677 0.930 . S
Mn684 O689 2.095 . S
Mn684 O699 2.162 . S
Mn684 O700 2.297 . S
Mn684 O708 2.385 . S
Mn684 O709 2.209 . S
Mn684 O710 2.094 . S
Mn685 O690 2.121 . S
Mn685 N692 2.257 . S
Mn685 N701 2.282 . S
Mn685 O709 2.215 . S
Mn685 O711 2.117 . S
C686 O708 1.234 . S
C686 O709 1.283 . S
C687 O699 1.281 . S
C687 O700 1.236 . S
C688 O710 1.240 . S
C688 O711 1.264 . S
O689 Mn684 2.095 . S
O689 C698 1.250 . S
O690 Mn685 2.121 . S
O690 C698 1.258 . S
C691 N692 1.326 . S
C691 C695 1.460 . S
C691 H697 0.929 . S
N692 Mn685 2.257 . S
N692 C691 1.326 . S
N692 C696 1.362 . S
C693 C694 1.258 . S
C693 C696 1.431 . S
C693 C713 1.449 . S
C694 C693 1.258 . S
C694 C695 1.477 . S
C694 H714 0.931 . S
C695 C691 1.460 . S
C695 C694 1.477 . S
C695 H715 0.930 . S
C696 N692 1.362 . S
C696 C693 1.431 . S
C696 C706 1.476 . S
H697 C691 0.929 . S
C698 O689 1.250 . S
C698 O690 1.258 . S
O699 Mn684 2.162 . S
O699 C687 1.281 . S
O700 Mn684 2.297 . S
O700 C687 1.236 . S
N701 Mn685 2.282 . S
N701 C702 1.328 . S
N701 C706 1.318 . S
C702 N701 1.328 . S
C702 C703 1.457 . S
C702 H707 0.929 . S
C703 C702 1.457 . S
C703 C704 1.291 . S
C703 H716 0.931 . S
C704 C703 1.291 . S
C704 C705 1.373 . S
C704 H717 0.929 . S
C705 C704 1.373 . S
C705 C706 1.396 . S
C705 C712 1.403 . S
C706 C696 1.476 . S
C706 N701 1.318 . S
C706 C705 1.396 . S
H707 C702 0.929 . S
O708 Mn684 2.385 . S
O708 C686 1.234 . S
O709 Mn684 2.209 . S
O709 Mn685 2.215 . S
O709 C686 1.283 . S
O710 Mn684 2.094 . S
O710 C688 1.240 . S
O711 Mn685 2.117 . S
O711 C688 1.264 . S
C712 C705 1.403 . S
C712 C713 1.399 . S
C712 H718 0.929 . S
C713 C693 1.449 . S
C713 C712 1.399 . S
C713 H719 0.930 . S
H714 C694 0.931 . S
H715 C695 0.930 . S
H716 C703 0.931 . S
H717 C704 0.929 . S
H718 C712 0.929 . S
H719 C713 0.930 . S
Mn720 O725 2.095 . S
Mn720 O735 2.162 . S
Mn720 O736 2.297 . S
Mn720 O744 2.385 . S
Mn720 O745 2.209 . S
Mn720 O746 2.094 . S
Mn721 O726 2.121 . S
Mn721 N728 2.257 . S
Mn721 N737 2.282 . S
Mn721 O745 2.215 . S
Mn721 O747 2.117 . S
C722 O744 1.234 . S
C722 O745 1.283 . S
C723 O735 1.281 . S
C723 O736 1.236 . S
C724 O746 1.240 . S
C724 O747 1.264 . S
O725 Mn720 2.095 . S
O725 C734 1.250 . S
O726 Mn721 2.121 . S
O726 C734 1.258 . S
C727 N728 1.326 . S
C727 C731 1.460 . S
C727 H733 0.929 . S
N728 Mn721 2.257 . S
N728 C727 1.326 . S
N728 C732 1.362 . S
C729 C730 1.258 . S
C729 C732 1.431 . S
C729 C749 1.449 . S
C730 C729 1.258 . S
C730 C731 1.477 . S
C730 H750 0.931 . S
C731 C727 1.460 . S
C731 C730 1.477 . S
C731 H751 0.930 . S
C732 N728 1.362 . S
C732 C729 1.431 . S
C732 C742 1.476 . S
H733 C727 0.929 . S
C734 O725 1.250 . S
C734 O726 1.258 . S
O735 Mn720 2.162 . S
O735 C723 1.281 . S
O736 Mn720 2.297 . S
O736 C723 1.236 . S
N737 Mn721 2.282 . S
N737 C738 1.328 . S
N737 C742 1.318 . S
C738 N737 1.328 . S
C738 C739 1.457 . S
C738 H743 0.929 . S
C739 C738 1.457 . S
C739 C740 1.291 . S
C739 H752 0.931 . S
C740 C739 1.291 . S
C740 C741 1.373 . S
C740 H753 0.929 . S
C741 C740 1.373 . S
C741 C742 1.396 . S
C741 C748 1.403 . S
C742 C732 1.476 . S
C742 N737 1.318 . S
C742 C741 1.396 . S
H743 C738 0.929 . S
O744 Mn720 2.385 . S
O744 C722 1.234 . S
O745 Mn720 2.209 . S
O745 Mn721 2.215 . S
O745 C722 1.283 . S
O746 Mn720 2.094 . S
O746 C724 1.240 . S
O747 Mn721 2.117 . S
O747 C724 1.264 . S
C748 C741 1.403 . S
C748 C749 1.399 . S
C748 H754 0.929 . S
C749 C729 1.449 . S
C749 C748 1.399 . S
C749 H755 0.930 . S
H750 C730 0.931 . S
H751 C731 0.930 . S
H752 C739 0.931 . S
H753 C740 0.929 . S
H754 C748 0.929 . S
H755 C749 0.930 . S
Mn756 O761 2.095 . S
Mn756 O771 2.162 . S
Mn756 O772 2.297 . S
Mn756 O780 2.385 . S
Mn756 O781 2.209 . S
Mn756 O782 2.094 . S
Mn757 O762 2.121 1_556 S
Mn757 N764 2.257 1_556 S
Mn757 N773 2.282 . S
Mn757 O781 2.215 . S
Mn757 O783 2.117 . S
C758 O780 1.234 . S
C758 O781 1.283 . S
C759 O771 1.281 . S
C759 O772 1.236 . S
C760 O782 1.240 . S
C760 O783 1.264 . S
O761 Mn756 2.095 . S
O761 C770 1.250 . S
O762 Mn757 2.121 1_554 S
O762 C770 1.258 1_554 S
C763 N764 1.326 . S
C763 C767 1.460 . S
C763 H769 0.929 . S
N764 Mn757 2.257 1_554 S
N764 C763 1.326 . S
N764 C768 1.362 . S
C765 C766 1.251 . S
C765 C768 1.431 . S
C765 C785 1.449 1_545 S
C766 C765 1.251 . S
C766 C767 1.522 . S
C766 H786 0.894 1_545 S
C767 C763 1.460 . S
C767 C766 1.522 . S
C767 H787 0.930 . S
C768 N764 1.362 . S
C768 C765 1.431 . S
C768 C778 1.476 1_554 S
H769 C763 0.929 . S
C770 O761 1.250 . S
C770 O762 1.258 1_556 S
O771 Mn756 2.162 . S
O771 C759 1.281 . S
O772 Mn756 2.297 . S
O772 C759 1.236 . S
N773 Mn757 2.282 . S
N773 C774 1.328 . S
N773 C778 1.318 . S
C774 N773 1.328 . S
C774 C775 1.457 . S
C774 H779 0.929 . S
C775 C774 1.457 . S
C775 C776 1.291 . S
C775 H788 0.931 . S
C776 C775 1.291 . S
C776 C777 1.373 . S
C776 H789 0.929 . S
C777 C776 1.373 . S
C777 C778 1.396 . S
C777 C784 1.360 1_545 S
C778 C768 1.476 1_556 S
C778 N773 1.318 . S
C778 C777 1.396 . S
H779 C774 0.929 . S
O780 Mn756 2.385 . S
O780 C758 1.234 . S
O781 Mn756 2.209 . S
O781 Mn757 2.215 . S
O781 C758 1.283 . S
O782 Mn756 2.094 . S
O782 C760 1.240 . S
O783 Mn757 2.117 . S
O783 C760 1.264 . S
C784 C777 1.360 1_565 S
C784 C785 1.391 1_556 S
C784 H790 0.983 . S
C785 C765 1.449 1_565 S
C785 C784 1.391 1_554 S
C785 H791 0.930 . S
H786 C766 0.894 1_565 S
H787 C767 0.930 . S
H788 C775 0.931 . S
H789 C776 0.929 . S
H790 C784 0.983 . S
H791 C785 0.930 . S
Mn792 O797 2.095 . S
Mn792 O807 2.162 . S
Mn792 O808 2.297 . S
Mn792 O816 2.385 . S
Mn792 O817 2.209 . S
Mn792 O818 2.094 . S
Mn793 O798 2.121 1_556 S
Mn793 N800 2.257 1_556 S
Mn793 N809 2.282 . S
Mn793 O817 2.215 . S
Mn793 O819 2.117 . S
C794 O816 1.234 . S
C794 O817 1.283 . S
C795 O807 1.281 . S
C795 O808 1.236 . S
C796 O818 1.240 . S
C796 O819 1.264 . S
O797 Mn792 2.095 . S
O797 C806 1.250 . S
O798 Mn793 2.121 1_554 S
O798 C806 1.258 1_554 S
C799 N800 1.326 . S
C799 C803 1.460 . S
C799 H805 0.929 . S
N800 Mn793 2.257 1_554 S
N800 C799 1.326 . S
N800 C804 1.362 . S
C801 C802 1.291 . S
C801 C804 1.431 . S
C801 C821 1.449 1_655 S
C802 C801 1.291 . S
C802 C803 1.487 . S
C802 H822 0.889 1_655 S
C803 C799 1.460 . S
C803 C802 1.487 . S
C803 H823 0.930 . S
C804 N800 1.362 . S
C804 C801 1.431 . S
C804 C814 1.476 1_554 S
H805 C799 0.929 . S
C806 O797 1.250 . S
C806 O798 1.258 1_556 S
O807 Mn792 2.162 . S
O807 C795 1.281 . S
O808 Mn792 2.297 . S
O808 C795 1.236 . S
N809 Mn793 2.282 . S
N809 C810 1.328 . S
N809 C814 1.318 . S
C810 N809 1.328 . S
C810 C811 1.457 . S
C810 H815 0.929 . S
C811 C810 1.457 . S
C811 C812 1.291 . S
C811 H824 0.931 . S
C812 C811 1.291 . S
C812 C813 1.373 . S
C812 H825 0.929 . S
C813 C812 1.373 . S
C813 C814 1.396 . S
C813 C820 1.350 1_655 S
C814 C804 1.476 1_556 S
C814 N809 1.318 . S
C814 C813 1.396 . S
H815 C810 0.929 . S
O816 Mn792 2.385 . S
O816 C794 1.234 . S
O817 Mn792 2.209 . S
O817 Mn793 2.215 . S
O817 C794 1.283 . S
O818 Mn792 2.094 . S
O818 C796 1.240 . S
O819 Mn793 2.117 . S
O819 C796 1.264 . S
C820 C813 1.350 1_455 S
C820 C821 1.440 1_556 S
C820 H826 0.944 . S
C821 C801 1.449 1_455 S
C821 C820 1.440 1_554 S
C821 H827 0.930 . S
H822 C802 0.889 1_455 S
H823 C803 0.930 . S
H824 C811 0.931 . S
H825 C812 0.929 . S
H826 C820 0.944 . S
H827 C821 0.930 . S
Mn828 O833 2.095 . S
Mn828 O843 2.162 . S
Mn828 O844 2.297 . S
Mn828 O852 2.385 . S
Mn828 O853 2.209 . S
Mn828 O854 2.094 . S
Mn829 O834 2.121 1_556 S
Mn829 N836 2.257 1_556 S
Mn829 N845 2.282 . S
Mn829 O853 2.215 . S
Mn829 O855 2.117 . S
C830 O852 1.234 . S
C830 O853 1.283 . S
C831 O843 1.281 . S
C831 O844 1.236 . S
C832 O854 1.240 . S
C832 O855 1.264 . S
O833 Mn828 2.095 . S
O833 C842 1.250 . S
O834 Mn829 2.121 1_554 S
O834 C842 1.258 1_554 S
C835 N836 1.326 . S
C835 C839 1.460 . S
C835 H841 0.929 . S
N836 Mn829 2.257 1_554 S
N836 C835 1.326 . S
N836 C840 1.362 . S
C837 C838 1.258 . S
C837 C840 1.431 . S
C837 C857 1.449 . S
C838 C837 1.258 . S
C838 C839 1.477 . S
C838 H858 0.931 . S
C839 C835 1.460 . S
C839 C838 1.477 . S
C839 H859 0.930 . S
C840 N836 1.362 . S
C840 C837 1.431 . S
C840 C850 1.476 1_554 S
H841 C835 0.929 . S
C842 O833 1.250 . S
C842 O834 1.258 1_556 S
O843 Mn828 2.162 . S
O843 C831 1.281 . S
O844 Mn828 2.297 . S
O844 C831 1.236 . S
N845 Mn829 2.282 . S
N845 C846 1.328 . S
N845 C850 1.318 . S
C846 N845 1.328 . S
C846 C847 1.457 . S
C846 H851 0.929 . S
C847 C846 1.457 . S
C847 C848 1.291 . S
C847 H860 0.931 . S
C848 C847 1.291 . S
C848 C849 1.373 . S
C848 H861 0.929 . S
C849 C848 1.373 . S
C849 C850 1.396 . S
C849 C856 1.403 . S
C850 C840 1.476 1_556 S
C850 N845 1.318 . S
C850 C849 1.396 . S
H851 C846 0.929 . S
O852 Mn828 2.385 . S
O852 C830 1.234 . S
O853 Mn828 2.209 . S
O853 Mn829 2.215 . S
O853 C830 1.283 . S
O854 Mn828 2.094 . S
O854 C832 1.240 . S
O855 Mn829 2.117 . S
O855 C832 1.264 . S
C856 C849 1.403 . S
C856 C857 1.399 1_556 S
C856 H862 0.929 . S
C857 C837 1.449 . S
C857 C856 1.399 1_554 S
C857 H863 0.930 . S
H858 C838 0.931 . S
H859 C839 0.930 . S
H860 C847 0.931 . S
H861 C848 0.929 . S
H862 C856 0.929 . S
H863 C857 0.930 . S
Mn864 O869 2.095 . S
Mn864 O879 2.162 . S
Mn864 O880 2.297 . S
Mn864 O888 2.385 . S
Mn864 O889 2.209 . S
Mn864 O890 2.094 . S
Mn865 O870 2.121 . S
Mn865 N872 2.257 . S
Mn865 N881 2.282 . S
Mn865 O889 2.215 . S
Mn865 O891 2.117 . S
C866 O888 1.234 . S
C866 O889 1.283 . S
C867 O879 1.281 . S
C867 O880 1.236 . S
C868 O890 1.240 . S
C868 O891 1.264 . S
O869 Mn864 2.095 . S
O869 C878 1.250 . S
O870 Mn865 2.121 . S
O870 C878 1.258 . S
C871 N872 1.326 . S
C871 C875 1.460 . S
C871 H877 0.929 . S
N872 Mn865 2.257 . S
N872 C871 1.326 . S
N872 C876 1.362 . S
C873 C874 1.258 . S
C873 C876 1.431 . S
C873 C893 1.449 . S
C874 C873 1.258 . S
C874 C875 1.477 . S
C874 H894 0.931 . S
C875 C871 1.460 . S
C875 C874 1.477 . S
C875 H895 0.930 . S
C876 N872 1.362 . S
C876 C873 1.431 . S
C876 C886 1.476 . S
H877 C871 0.929 . S
C878 O869 1.250 . S
C878 O870 1.258 . S
O879 Mn864 2.162 . S
O879 C867 1.281 . S
O880 Mn864 2.297 . S
O880 C867 1.236 . S
N881 Mn865 2.282 . S
N881 C882 1.328 . S
N881 C886 1.318 . S
C882 N881 1.328 . S
C882 C883 1.457 . S
C882 H887 0.929 . S
C883 C882 1.457 . S
C883 C884 1.291 . S
C883 H896 0.931 . S
C884 C883 1.291 . S
C884 C885 1.373 . S
C884 H897 0.929 . S
C885 C884 1.373 . S
C885 C886 1.396 . S
C885 C892 1.403 . S
C886 C876 1.476 . S
C886 N881 1.318 . S
C886 C885 1.396 . S
H887 C882 0.929 . S
O888 Mn864 2.385 . S
O888 C866 1.234 . S
O889 Mn864 2.209 . S
O889 Mn865 2.215 . S
O889 C866 1.283 . S
O890 Mn864 2.094 . S
O890 C868 1.240 . S
O891 Mn865 2.117 . S
O891 C868 1.264 . S
C892 C885 1.403 . S
C892 C893 1.399 . S
C892 H898 0.929 . S
C893 C873 1.449 . S
C893 C892 1.399 . S
C893 H899 0.930 . S
H894 C874 0.931 . S
H895 C875 0.930 . S
H896 C883 0.931 . S
H897 C884 0.929 . S
H898 C892 0.929 . S
H899 C893 0.930 . S
Mn900 O905 2.095 . S
Mn900 O915 2.162 . S
Mn900 O916 2.297 . S
Mn900 O924 2.385 . S
Mn900 O925 2.209 . S
Mn900 O926 2.094 . S
Mn901 O906 2.121 . S
Mn901 N908 2.257 . S
Mn901 N917 2.282 . S
Mn901 O925 2.215 . S
Mn901 O927 2.117 . S
C902 O924 1.234 . S
C902 O925 1.283 . S
C903 O915 1.281 . S
C903 O916 1.236 . S
C904 O926 1.240 . S
C904 O927 1.264 . S
O905 Mn900 2.095 . S
O905 C914 1.250 . S
O906 Mn901 2.121 . S
O906 C914 1.258 . S
C907 N908 1.326 . S
C907 C911 1.460 . S
C907 H913 0.929 . S
N908 Mn901 2.257 . S
N908 C907 1.326 . S
N908 C912 1.362 . S
C909 C910 1.258 . S
C909 C912 1.431 . S
C909 C929 1.449 . S
C910 C909 1.258 . S
C910 C911 1.477 . S
C910 H930 0.931 . S
C911 C907 1.460 . S
C911 C910 1.477 . S
C911 H931 0.930 . S
C912 N908 1.362 . S
C912 C909 1.431 . S
C912 C922 1.476 . S
H913 C907 0.929 . S
C914 O905 1.250 . S
C914 O906 1.258 . S
O915 Mn900 2.162 . S
O915 C903 1.281 . S
O916 Mn900 2.297 . S
O916 C903 1.236 . S
N917 Mn901 2.282 . S
N917 C918 1.328 . S
N917 C922 1.318 . S
C918 N917 1.328 . S
C918 C919 1.457 . S
C918 H923 0.929 . S
C919 C918 1.457 . S
C919 C920 1.291 . S
C919 H932 0.931 . S
C920 C919 1.291 . S
C920 C921 1.373 . S
C920 H933 0.929 . S
C921 C920 1.373 . S
C921 C922 1.396 . S
C921 C928 1.403 . S
C922 C912 1.476 . S
C922 N917 1.318 . S
C922 C921 1.396 . S
H923 C918 0.929 . S
O924 Mn900 2.385 . S
O924 C902 1.234 . S
O925 Mn900 2.209 . S
O925 Mn901 2.215 . S
O925 C902 1.283 . S
O926 Mn900 2.094 . S
O926 C904 1.240 . S
O927 Mn901 2.117 . S
O927 C904 1.264 . S
C928 C921 1.403 . S
C928 C929 1.399 . S
C928 H934 0.929 . S
C929 C909 1.449 . S
C929 C928 1.399 . S
C929 H935 0.930 . S
H930 C910 0.931 . S
H931 C911 0.930 . S
H932 C919 0.931 . S
H933 C920 0.929 . S
H934 C928 0.929 . S
H935 C929 0.930 . S
Mn936 O941 2.095 . S
Mn936 O951 2.162 . S
Mn936 O952 2.297 . S
Mn936 O960 2.385 . S
Mn936 O961 2.209 . S
Mn936 O962 2.094 . S
Mn937 O942 2.121 . S
Mn937 N944 2.257 . S
Mn937 N953 2.282 . S
Mn937 O961 2.215 . S
Mn937 O963 2.117 . S
C938 O960 1.234 . S
C938 O961 1.283 . S
C939 O951 1.281 . S
C939 O952 1.236 . S
C940 O962 1.240 . S
C940 O963 1.264 . S
O941 Mn936 2.095 . S
O941 C950 1.250 . S
O942 Mn937 2.121 . S
O942 C950 1.258 . S
C943 N944 1.326 . S
C943 C947 1.460 . S
C943 H949 0.929 . S
N944 Mn937 2.257 . S
N944 C943 1.326 . S
N944 C948 1.362 . S
C945 C946 1.258 . S
C945 C948 1.431 . S
C945 C965 1.449 . S
C946 C945 1.258 . S
C946 C947 1.477 . S
C946 H966 0.931 . S
C947 C943 1.460 . S
C947 C946 1.477 . S
C947 H967 0.930 . S
C948 N944 1.362 . S
C948 C945 1.431 . S
C948 C958 1.476 . S
H949 C943 0.929 . S
C950 O941 1.250 . S
C950 O942 1.258 . S
O951 Mn936 2.162 . S
O951 C939 1.281 . S
O952 Mn936 2.297 . S
O952 C939 1.236 . S
N953 Mn937 2.282 . S
N953 C954 1.328 . S
N953 C958 1.318 . S
C954 N953 1.328 . S
C954 C955 1.457 . S
C954 H959 0.929 . S
C955 C954 1.457 . S
C955 C956 1.291 . S
C955 H968 0.931 . S
C956 C955 1.291 . S
C956 C957 1.373 . S
C956 H969 0.929 . S
C957 C956 1.373 . S
C957 C958 1.396 . S
C957 C964 1.403 . S
C958 C948 1.476 . S
C958 N953 1.318 . S
C958 C957 1.396 . S
H959 C954 0.929 . S
O960 Mn936 2.385 . S
O960 C938 1.234 . S
O961 Mn936 2.209 . S
O961 Mn937 2.215 . S
O961 C938 1.283 . S
O962 Mn936 2.094 . S
O962 C940 1.240 . S
O963 Mn937 2.117 . S
O963 C940 1.264 . S
C964 C957 1.403 . S
C964 C965 1.399 . S
C964 H970 0.929 . S
C965 C945 1.449 . S
C965 C964 1.399 . S
C965 H971 0.930 . S
H966 C946 0.931 . S
H967 C947 0.930 . S
H968 C955 0.931 . S
H969 C956 0.929 . S
H970 C964 0.929 . S
H971 C965 0.930 . S
Mn972 O977 2.095 . S
Mn972 O987 2.162 . S
Mn972 O988 2.297 . S
Mn972 O996 2.385 . S
Mn972 O997 2.209 . S
Mn972 O998 2.094 . S
Mn973 O978 2.121 1_554 S
Mn973 N980 2.257 1_554 S
Mn973 N989 2.282 . S
Mn973 O997 2.215 . S
Mn973 O999 2.117 . S
C974 O996 1.234 . S
C974 O997 1.283 . S
C975 O987 1.281 . S
C975 O988 1.236 . S
C976 O998 1.240 . S
C976 O999 1.264 . S
O977 Mn972 2.095 . S
O977 C986 1.250 . S
O978 Mn973 2.121 1_556 S
O978 C986 1.258 1_556 S
C979 N980 1.326 . S
C979 C983 1.460 . S
C979 H985 0.929 . S
N980 Mn973 2.257 1_556 S
N980 C979 1.326 . S
N980 C984 1.362 . S
C981 C982 1.251 . S
C981 C984 1.431 . S
C981 C1001 1.449 1_565 S
C982 C981 1.251 . S
C982 C983 1.522 . S
C982 H1002 0.894 1_565 S
C983 C979 1.460 . S
C983 C982 1.522 . S
C983 H1003 0.930 . S
C984 N980 1.362 . S
C984 C981 1.431 . S
C984 C994 1.476 1_556 S
H985 C979 0.929 . S
C986 O977 1.250 . S
C986 O978 1.258 1_554 S
O987 Mn972 2.162 . S
O987 C975 1.281 . S
O988 Mn972 2.297 . S
O988 C975 1.236 . S
N989 Mn973 2.282 . S
N989 C990 1.328 . S
N989 C994 1.318 . S
C990 N989 1.328 . S
C990 C991 1.457 . S
C990 H995 0.929 . S
C991 C990 1.457 . S
C991 C992 1.291 . S
C991 H1004 0.931 . S
C992 C991 1.291 . S
C992 C993 1.373 . S
C992 H1005 0.929 . S
C993 C992 1.373 . S
C993 C994 1.396 . S
C993 C1000 1.360 1_565 S
C994 C984 1.476 1_554 S
C994 N989 1.318 . S
C994 C993 1.396 . S
H995 C990 0.929 . S
O996 Mn972 2.385 . S
O996 C974 1.234 . S
O997 Mn972 2.209 . S
O997 Mn973 2.215 . S
O997 C974 1.283 . S
O998 Mn972 2.094 . S
O998 C976 1.240 . S
O999 Mn973 2.117 . S
O999 C976 1.264 . S
C1000 C993 1.360 1_545 S
C1000 C1001 1.391 1_554 S
C1000 H1006 0.983 . S
C1001 C981 1.449 1_545 S
C1001 C1000 1.391 1_556 S
C1001 H1007 0.930 . S
H1002 C982 0.894 1_545 S
H1003 C983 0.930 . S
H1004 C991 0.931 . S
H1005 C992 0.929 . S
H1006 C1000 0.983 . S
H1007 C1001 0.930 . S
Mn1008 O1013 2.095 . S
Mn1008 O1023 2.162 . S
Mn1008 O1024 2.297 . S
Mn1008 O1032 2.385 . S
Mn1008 O1033 2.209 . S
Mn1008 O1034 2.094 . S
Mn1009 O1014 2.121 1_554 S
Mn1009 N1016 2.257 1_554 S
Mn1009 N1025 2.282 . S
Mn1009 O1033 2.215 . S
Mn1009 O1035 2.117 . S
C1010 O1032 1.234 . S
C1010 O1033 1.283 . S
C1011 O1023 1.281 . S
C1011 O1024 1.236 . S
C1012 O1034 1.240 . S
C1012 O1035 1.264 . S
O1013 Mn1008 2.095 . S
O1013 C1022 1.250 . S
O1014 Mn1009 2.121 1_556 S
O1014 C1022 1.258 1_556 S
C1015 N1016 1.326 . S
C1015 C1019 1.460 . S
C1015 H1021 0.929 . S
N1016 Mn1009 2.257 1_556 S
N1016 C1015 1.326 . S
N1016 C1020 1.362 . S
C1017 C1018 1.291 . S
C1017 C1020 1.431 . S
C1017 C1037 1.449 1_455 S
C1018 C1017 1.291 . S
C1018 C1019 1.487 . S
C1018 H1038 0.889 1_455 S
C1019 C1015 1.460 . S
C1019 C1018 1.487 . S
C1019 H1039 0.930 . S
C1020 N1016 1.362 . S
C1020 C1017 1.431 . S
C1020 C1030 1.476 1_556 S
H1021 C1015 0.929 . S
C1022 O1013 1.250 . S
C1022 O1014 1.258 1_554 S
O1023 Mn1008 2.162 . S
O1023 C1011 1.281 . S
O1024 Mn1008 2.297 . S
O1024 C1011 1.236 . S
N1025 Mn1009 2.282 . S
N1025 C1026 1.328 . S
N1025 C1030 1.318 . S
C1026 N1025 1.328 . S
C1026 C1027 1.457 . S
C1026 H1031 0.929 . S
C1027 C1026 1.457 . S
C1027 C1028 1.291 . S
C1027 H1040 0.931 . S
C1028 C1027 1.291 . S
C1028 C1029 1.373 . S
C1028 H1041 0.929 . S
C1029 C1028 1.373 . S
C1029 C1030 1.396 . S
C1029 C1036 1.350 1_455 S
C1030 C1020 1.476 1_554 S
C1030 N1025 1.318 . S
C1030 C1029 1.396 . S
H1031 C1026 0.929 . S
O1032 Mn1008 2.385 . S
O1032 C1010 1.234 . S
O1033 Mn1008 2.209 . S
O1033 Mn1009 2.215 . S
O1033 C1010 1.283 . S
O1034 Mn1008 2.094 . S
O1034 C1012 1.240 . S
O1035 Mn1009 2.117 . S
O1035 C1012 1.264 . S
C1036 C1029 1.350 1_655 S
C1036 C1037 1.440 1_554 S
C1036 H1042 0.944 . S
C1037 C1017 1.449 1_655 S
C1037 C1036 1.440 1_556 S
C1037 H1043 0.930 . S
H1038 C1018 0.889 1_655 S
H1039 C1019 0.930 . S
H1040 C1027 0.931 . S
H1041 C1028 0.929 . S
H1042 C1036 0.944 . S
H1043 C1037 0.930 . S
Mn1044 O1049 2.095 . S
Mn1044 O1059 2.162 . S
Mn1044 O1060 2.297 . S
Mn1044 O1068 2.385 . S
Mn1044 O1069 2.209 . S
Mn1044 O1070 2.094 . S
Mn1045 O1050 2.121 1_554 S
Mn1045 N1052 2.257 1_554 S
Mn1045 N1061 2.282 . S
Mn1045 O1069 2.215 . S
Mn1045 O1071 2.117 . S
C1046 O1068 1.234 . S
C1046 O1069 1.283 . S
C1047 O1059 1.281 . S
C1047 O1060 1.236 . S
C1048 O1070 1.240 . S
C1048 O1071 1.264 . S
O1049 Mn1044 2.095 . S
O1049 C1058 1.250 . S
O1050 Mn1045 2.121 1_556 S
O1050 C1058 1.258 1_556 S
C1051 N1052 1.326 . S
C1051 C1055 1.460 . S
C1051 H1057 0.929 . S
N1052 Mn1045 2.257 1_556 S
N1052 C1051 1.326 . S
N1052 C1056 1.362 . S
C1053 C1054 1.258 . S
C1053 C1056 1.431 . S
C1053 C1073 1.449 . S
C1054 C1053 1.258 . S
C1054 C1055 1.477 . S
C1054 H1074 0.931 . S
C1055 C1051 1.460 . S
C1055 C1054 1.477 . S
C1055 H1075 0.930 . S
C1056 N1052 1.362 . S
C1056 C1053 1.431 . S
C1056 C1066 1.476 1_556 S
H1057 C1051 0.929 . S
C1058 O1049 1.250 . S
C1058 O1050 1.258 1_554 S
O1059 Mn1044 2.162 . S
O1059 C1047 1.281 . S
O1060 Mn1044 2.297 . S
O1060 C1047 1.236 . S
N1061 Mn1045 2.282 . S
N1061 C1062 1.328 . S
N1061 C1066 1.318 . S
C1062 N1061 1.328 . S
C1062 C1063 1.457 . S
C1062 H1067 0.929 . S
C1063 C1062 1.457 . S
C1063 C1064 1.291 . S
C1063 H1076 0.931 . S
C1064 C1063 1.291 . S
C1064 C1065 1.373 . S
C1064 H1077 0.929 . S
C1065 C1064 1.373 . S
C1065 C1066 1.396 . S
C1065 C1072 1.403 . S
C1066 C1056 1.476 1_554 S
C1066 N1061 1.318 . S
C1066 C1065 1.396 . S
H1067 C1062 0.929 . S
O1068 Mn1044 2.385 . S
O1068 C1046 1.234 . S
O1069 Mn1044 2.209 . S
O1069 Mn1045 2.215 . S
O1069 C1046 1.283 . S
O1070 Mn1044 2.094 . S
O1070 C1048 1.240 . S
O1071 Mn1045 2.117 . S
O1071 C1048 1.264 . S
C1072 C1065 1.403 . S
C1072 C1073 1.399 1_554 S
C1072 H1078 0.929 . S
C1073 C1053 1.449 . S
C1073 C1072 1.399 1_556 S
C1073 H1079 0.930 . S
H1074 C1054 0.931 . S
H1075 C1055 0.930 . S
H1076 C1063 0.931 . S
H1077 C1064 0.929 . S
H1078 C1072 0.929 . S
H1079 C1073 0.930 . S
Mn1080 O1085 2.095 . S
Mn1080 O1095 2.162 . S
Mn1080 O1096 2.297 . S
Mn1080 O1104 2.385 . S
Mn1080 O1105 2.209 . S
Mn1080 O1106 2.094 . S
Mn1081 O1086 2.121 . S
Mn1081 N1088 2.257 . S
Mn1081 N1097 2.282 . S
Mn1081 O1105 2.215 . S
Mn1081 O1107 2.117 . S
C1082 O1104 1.234 . S
C1082 O1105 1.283 . S
C1083 O1095 1.281 . S
C1083 O1096 1.236 . S
C1084 O1106 1.240 . S
C1084 O1107 1.264 . S
O1085 Mn1080 2.095 . S
O1085 C1094 1.250 . S
O1086 Mn1081 2.121 . S
O1086 C1094 1.258 . S
C1087 N1088 1.326 . S
C1087 C1091 1.460 . S
C1087 H1093 0.929 . S
N1088 Mn1081 2.257 . S
N1088 C1087 1.326 . S
N1088 C1092 1.362 . S
C1089 C1090 1.251 . S
C1089 C1092 1.431 . S
C1089 C1109 1.449 1_455 S
C1090 C1089 1.251 . S
C1090 C1091 1.522 . S
C1090 H1110 0.894 1_455 S
C1091 C1087 1.460 . S
C1091 C1090 1.522 . S
C1091 H1111 0.930 . S
C1092 N1088 1.362 . S
C1092 C1089 1.431 . S
C1092 C1102 1.476 . S
H1093 C1087 0.929 . S
C1094 O1085 1.250 . S
C1094 O1086 1.258 . S
O1095 Mn1080 2.162 . S
O1095 C1083 1.281 . S
O1096 Mn1080 2.297 . S
O1096 C1083 1.236 . S
N1097 Mn1081 2.282 . S
N1097 C1098 1.328 . S
N1097 C1102 1.318 . S
C1098 N1097 1.328 . S
C1098 C1099 1.457 . S
C1098 H1103 0.929 . S
C1099 C1098 1.457 . S
C1099 C1100 1.291 . S
C1099 H1112 0.931 . S
C1100 C1099 1.291 . S
C1100 C1101 1.373 . S
C1100 H1113 0.929 . S
C1101 C1100 1.373 . S
C1101 C1102 1.396 . S
C1101 C1108 1.360 1_455 S
C1102 C1092 1.476 . S
C1102 N1097 1.318 . S
C1102 C1101 1.396 . S
H1103 C1098 0.929 . S
O1104 Mn1080 2.385 . S
O1104 C1082 1.234 . S
O1105 Mn1080 2.209 . S
O1105 Mn1081 2.215 . S
O1105 C1082 1.283 . S
O1106 Mn1080 2.094 . S
O1106 C1084 1.240 . S
O1107 Mn1081 2.117 . S
O1107 C1084 1.264 . S
C1108 C1101 1.360 1_655 S
C1108 C1109 1.391 . S
C1108 H1114 0.983 . S
C1109 C1089 1.449 1_655 S
C1109 C1108 1.391 . S
C1109 H1115 0.930 . S
H1110 C1090 0.894 1_655 S
H1111 C1091 0.930 . S
H1112 C1099 0.931 . S
H1113 C1100 0.929 . S
H1114 C1108 0.983 . S
H1115 C1109 0.930 . S
Mn1116 O1121 2.095 . S
Mn1116 O1131 2.162 . S
Mn1116 O1132 2.297 . S
Mn1116 O1140 2.385 . S
Mn1116 O1141 2.209 . S
Mn1116 O1142 2.094 . S
Mn1117 O1122 2.121 . S
Mn1117 N1124 2.257 . S
Mn1117 N1133 2.282 . S
Mn1117 O1141 2.215 . S
Mn1117 O1143 2.117 . S
C1118 O1140 1.234 . S
C1118 O1141 1.283 . S
C1119 O1131 1.281 . S
C1119 O1132 1.236 . S
C1120 O1142 1.240 . S
C1120 O1143 1.264 . S
O1121 Mn1116 2.095 . S
O1121 C1130 1.250 . S
O1122 Mn1117 2.121 . S
O1122 C1130 1.258 . S
C1123 N1124 1.326 . S
C1123 C1127 1.460 . S
C1123 H1129 0.929 . S
N1124 Mn1117 2.257 . S
N1124 C1123 1.326 . S
N1124 C1128 1.362 . S
C1125 C1126 1.258 . S
C1125 C1128 1.431 . S
C1125 C1145 1.449 . S
C1126 C1125 1.258 . S
C1126 C1127 1.477 . S
C1126 H1146 0.931 . S
C1127 C1123 1.460 . S
C1127 C1126 1.477 . S
C1127 H1147 0.930 . S
C1128 N1124 1.362 . S
C1128 C1125 1.431 . S
C1128 C1138 1.476 . S
H1129 C1123 0.929 . S
C1130 O1121 1.250 . S
C1130 O1122 1.258 . S
O1131 Mn1116 2.162 . S
O1131 C1119 1.281 . S
O1132 Mn1116 2.297 . S
O1132 C1119 1.236 . S
N1133 Mn1117 2.282 . S
N1133 C1134 1.328 . S
N1133 C1138 1.318 . S
C1134 N1133 1.328 . S
C1134 C1135 1.457 . S
C1134 H1139 0.929 . S
C1135 C1134 1.457 . S
C1135 C1136 1.291 . S
C1135 H1148 0.931 . S
C1136 C1135 1.291 . S
C1136 C1137 1.373 . S
C1136 H1149 0.929 . S
C1137 C1136 1.373 . S
C1137 C1138 1.396 . S
C1137 C1144 1.403 . S
C1138 C1128 1.476 . S
C1138 N1133 1.318 . S
C1138 C1137 1.396 . S
H1139 C1134 0.929 . S
O1140 Mn1116 2.385 . S
O1140 C1118 1.234 . S
O1141 Mn1116 2.209 . S
O1141 Mn1117 2.215 . S
O1141 C1118 1.283 . S
O1142 Mn1116 2.094 . S
O1142 C1120 1.240 . S
O1143 Mn1117 2.117 . S
O1143 C1120 1.264 . S
C1144 C1137 1.403 . S
C1144 C1145 1.399 . S
C1144 H1150 0.929 . S
C1145 C1125 1.449 . S
C1145 C1144 1.399 . S
C1145 H1151 0.930 . S
H1146 C1126 0.931 . S
H1147 C1127 0.930 . S
H1148 C1135 0.931 . S
H1149 C1136 0.929 . S
H1150 C1144 0.929 . S
H1151 C1145 0.930 . S
Mn1152 O1157 2.095 . S
Mn1152 O1167 2.162 . S
Mn1152 O1168 2.297 . S
Mn1152 O1176 2.385 . S
Mn1152 O1177 2.209 . S
Mn1152 O1178 2.094 . S
Mn1153 O1158 2.121 . S
Mn1153 N1160 2.257 . S
Mn1153 N1169 2.282 . S
Mn1153 O1177 2.215 . S
Mn1153 O1179 2.117 . S
C1154 O1176 1.234 . S
C1154 O1177 1.283 . S
C1155 O1167 1.281 . S
C1155 O1168 1.236 . S
C1156 O1178 1.240 . S
C1156 O1179 1.264 . S
O1157 Mn1152 2.095 . S
O1157 C1166 1.250 . S
O1158 Mn1153 2.121 . S
O1158 C1166 1.258 . S
C1159 N1160 1.326 . S
C1159 C1163 1.460 . S
C1159 H1165 0.929 . S
N1160 Mn1153 2.257 . S
N1160 C1159 1.326 . S
N1160 C1164 1.362 . S
C1161 C1162 1.292 . S
C1161 C1164 1.431 . S
C1161 C1181 1.449 1_565 S
C1162 C1161 1.292 . S
C1162 C1163 1.487 . S
C1162 H1182 0.888 1_565 S
C1163 C1159 1.460 . S
C1163 C1162 1.487 . S
C1163 H1183 0.930 . S
C1164 N1160 1.362 . S
C1164 C1161 1.431 . S
C1164 C1174 1.476 . S
H1165 C1159 0.929 . S
C1166 O1157 1.250 . S
C1166 O1158 1.258 . S
O1167 Mn1152 2.162 . S
O1167 C1155 1.281 . S
O1168 Mn1152 2.297 . S
O1168 C1155 1.236 . S
N1169 Mn1153 2.282 . S
N1169 C1170 1.328 . S
N1169 C1174 1.318 . S
C1170 N1169 1.328 . S
C1170 C1171 1.457 . S
C1170 H1175 0.929 . S
C1171 C1170 1.457 . S
C1171 C1172 1.291 . S
C1171 H1184 0.931 . S
C1172 C1171 1.291 . S
C1172 C1173 1.373 . S
C1172 H1185 0.929 . S
C1173 C1172 1.373 . S
C1173 C1174 1.396 . S
C1173 C1180 1.351 1_565 S
C1174 C1164 1.476 . S
C1174 N1169 1.318 . S
C1174 C1173 1.396 . S
H1175 C1170 0.929 . S
O1176 Mn1152 2.385 . S
O1176 C1154 1.234 . S
O1177 Mn1152 2.209 . S
O1177 Mn1153 2.215 . S
O1177 C1154 1.283 . S
O1178 Mn1152 2.094 . S
O1178 C1156 1.240 . S
O1179 Mn1153 2.117 . S
O1179 C1156 1.264 . S
C1180 C1173 1.351 1_545 S
C1180 C1181 1.439 . S
C1180 H1186 0.944 . S
C1181 C1161 1.449 1_545 S
C1181 C1180 1.439 . S
C1181 H1187 0.930 . S
H1182 C1162 0.888 1_545 S
H1183 C1163 0.930 . S
H1184 C1171 0.931 . S
H1185 C1172 0.929 . S
H1186 C1180 0.944 . S
H1187 C1181 0.930 . S
Mn1188 O1193 2.095 . S
Mn1188 O1203 2.162 . S
Mn1188 O1204 2.297 . S
Mn1188 O1212 2.385 . S
Mn1188 O1213 2.209 . S
Mn1188 O1214 2.094 . S
Mn1189 O1194 2.121 . S
Mn1189 N1196 2.257 . S
Mn1189 N1205 2.282 . S
Mn1189 O1213 2.215 . S
Mn1189 O1215 2.117 . S
C1190 O1212 1.234 . S
C1190 O1213 1.283 . S
C1191 O1203 1.281 . S
C1191 O1204 1.236 . S
C1192 O1214 1.240 . S
C1192 O1215 1.264 . S
O1193 Mn1188 2.095 . S
O1193 C1202 1.250 . S
O1194 Mn1189 2.121 . S
O1194 C1202 1.258 . S
C1195 N1196 1.326 . S
C1195 C1199 1.460 . S
C1195 H1201 0.929 . S
N1196 Mn1189 2.257 . S
N1196 C1195 1.326 . S
N1196 C1200 1.362 . S
C1197 C1198 1.258 . S
C1197 C1200 1.431 . S
C1197 C1217 1.449 . S
C1198 C1197 1.258 . S
C1198 C1199 1.477 . S
C1198 H1218 0.931 . S
C1199 C1195 1.460 . S
C1199 C1198 1.477 . S
C1199 H1219 0.930 . S
C1200 N1196 1.362 . S
C1200 C1197 1.431 . S
C1200 C1210 1.476 . S
H1201 C1195 0.929 . S
C1202 O1193 1.250 . S
C1202 O1194 1.258 . S
O1203 Mn1188 2.162 . S
O1203 C1191 1.281 . S
O1204 Mn1188 2.297 . S
O1204 C1191 1.236 . S
N1205 Mn1189 2.282 . S
N1205 C1206 1.328 . S
N1205 C1210 1.318 . S
C1206 N1205 1.328 . S
C1206 C1207 1.457 . S
C1206 H1211 0.929 . S
C1207 C1206 1.457 . S
C1207 C1208 1.291 . S
C1207 H1220 0.931 . S
C1208 C1207 1.291 . S
C1208 C1209 1.373 . S
C1208 H1221 0.929 . S
C1209 C1208 1.373 . S
C1209 C1210 1.396 . S
C1209 C1216 1.403 . S
C1210 C1200 1.476 . S
C1210 N1205 1.318 . S
C1210 C1209 1.396 . S
H1211 C1206 0.929 . S
O1212 Mn1188 2.385 . S
O1212 C1190 1.234 . S
O1213 Mn1188 2.209 . S
O1213 Mn1189 2.215 . S
O1213 C1190 1.283 . S
O1214 Mn1188 2.094 . S
O1214 C1192 1.240 . S
O1215 Mn1189 2.117 . S
O1215 C1192 1.264 . S
C1216 C1209 1.403 . S
C1216 C1217 1.399 . S
C1216 H1222 0.929 . S
C1217 C1197 1.449 . S
C1217 C1216 1.399 . S
C1217 H1223 0.930 . S
H1218 C1198 0.931 . S
H1219 C1199 0.930 . S
H1220 C1207 0.931 . S
H1221 C1208 0.929 . S
H1222 C1216 0.929 . S
H1223 C1217 0.930 . S
Mn1224 O1229 2.095 . S
Mn1224 O1239 2.162 . S
Mn1224 O1240 2.297 . S
Mn1224 O1248 2.385 . S
Mn1224 O1249 2.209 . S
Mn1224 O1250 2.094 . S
Mn1225 O1230 2.121 . S
Mn1225 N1232 2.257 . S
Mn1225 N1241 2.282 . S
Mn1225 O1249 2.215 . S
Mn1225 O1251 2.117 . S
C1226 O1248 1.234 . S
C1226 O1249 1.283 . S
C1227 O1239 1.281 . S
C1227 O1240 1.236 . S
C1228 O1250 1.240 . S
C1228 O1251 1.264 . S
O1229 Mn1224 2.095 . S
O1229 C1238 1.250 . S
O1230 Mn1225 2.121 . S
O1230 C1238 1.258 . S
C1231 N1232 1.326 . S
C1231 C1235 1.460 . S
C1231 H1237 0.929 . S
N1232 Mn1225 2.257 . S
N1232 C1231 1.326 . S
N1232 C1236 1.362 . S
C1233 C1234 1.258 . S
C1233 C1236 1.431 . S
C1233 C1253 1.449 . S
C1234 C1233 1.258 . S
C1234 C1235 1.477 . S
C1234 H1254 0.931 . S
C1235 C1231 1.460 . S
C1235 C1234 1.477 . S
C1235 H1255 0.930 . S
C1236 N1232 1.362 . S
C1236 C1233 1.431 . S
C1236 C1246 1.476 . S
H1237 C1231 0.929 . S
C1238 O1229 1.250 . S
C1238 O1230 1.258 . S
O1239 Mn1224 2.162 . S
O1239 C1227 1.281 . S
O1240 Mn1224 2.297 . S
O1240 C1227 1.236 . S
N1241 Mn1225 2.282 . S
N1241 C1242 1.328 . S
N1241 C1246 1.318 . S
C1242 N1241 1.328 . S
C1242 C1243 1.457 . S
C1242 H1247 0.929 . S
C1243 C1242 1.457 . S
C1243 C1244 1.291 . S
C1243 H1256 0.931 . S
C1244 C1243 1.291 . S
C1244 C1245 1.373 . S
C1244 H1257 0.929 . S
C1245 C1244 1.373 . S
C1245 C1246 1.396 . S
C1245 C1252 1.403 . S
C1246 C1236 1.476 . S
C1246 N1241 1.318 . S
C1246 C1245 1.396 . S
H1247 C1242 0.929 . S
O1248 Mn1224 2.385 . S
O1248 C1226 1.234 . S
O1249 Mn1224 2.209 . S
O1249 Mn1225 2.215 . S
O1249 C1226 1.283 . S
O1250 Mn1224 2.094 . S
O1250 C1228 1.240 . S
O1251 Mn1225 2.117 . S
O1251 C1228 1.264 . S
C1252 C1245 1.403 . S
C1252 C1253 1.399 . S
C1252 H1258 0.929 . S
C1253 C1233 1.449 . S
C1253 C1252 1.399 . S
C1253 H1259 0.930 . S
H1254 C1234 0.931 . S
H1255 C1235 0.930 . S
H1256 C1243 0.931 . S
H1257 C1244 0.929 . S
H1258 C1252 0.929 . S
H1259 C1253 0.930 . S
Mn1260 O1265 2.095 . S
Mn1260 O1275 2.162 . S
Mn1260 O1276 2.297 . S
Mn1260 O1284 2.385 . S
Mn1260 O1285 2.209 . S
Mn1260 O1286 2.094 . S
Mn1261 O1266 2.121 . S
Mn1261 N1268 2.257 . S
Mn1261 N1277 2.282 . S
Mn1261 O1285 2.215 . S
Mn1261 O1287 2.117 . S
C1262 O1284 1.234 . S
C1262 O1285 1.283 . S
C1263 O1275 1.281 . S
C1263 O1276 1.236 . S
C1264 O1286 1.240 . S
C1264 O1287 1.264 . S
O1265 Mn1260 2.095 . S
O1265 C1274 1.250 . S
O1266 Mn1261 2.121 . S
O1266 C1274 1.258 . S
C1267 N1268 1.326 . S
C1267 C1271 1.460 . S
C1267 H1273 0.929 . S
N1268 Mn1261 2.257 . S
N1268 C1267 1.326 . S
N1268 C1272 1.362 . S
C1269 C1270 1.258 . S
C1269 C1272 1.431 . S
C1269 C1289 1.449 . S
C1270 C1269 1.258 . S
C1270 C1271 1.477 . S
C1270 H1290 0.931 . S
C1271 C1267 1.460 . S
C1271 C1270 1.477 . S
C1271 H1291 0.930 . S
C1272 N1268 1.362 . S
C1272 C1269 1.431 . S
C1272 C1282 1.476 . S
H1273 C1267 0.929 . S
C1274 O1265 1.250 . S
C1274 O1266 1.258 . S
O1275 Mn1260 2.162 . S
O1275 C1263 1.281 . S
O1276 Mn1260 2.297 . S
O1276 C1263 1.236 . S
N1277 Mn1261 2.282 . S
N1277 C1278 1.328 . S
N1277 C1282 1.318 . S
C1278 N1277 1.328 . S
C1278 C1279 1.457 . S
C1278 H1283 0.929 . S
C1279 C1278 1.457 . S
C1279 C1280 1.291 . S
C1279 H1292 0.931 . S
C1280 C1279 1.291 . S
C1280 C1281 1.373 . S
C1280 H1293 0.929 . S
C1281 C1280 1.373 . S
C1281 C1282 1.396 . S
C1281 C1288 1.403 . S
C1282 C1272 1.476 . S
C1282 N1277 1.318 . S
C1282 C1281 1.396 . S
H1283 C1278 0.929 . S
O1284 Mn1260 2.385 . S
O1284 C1262 1.234 . S
O1285 Mn1260 2.209 . S
O1285 Mn1261 2.215 . S
O1285 C1262 1.283 . S
O1286 Mn1260 2.094 . S
O1286 C1264 1.240 . S
O1287 Mn1261 2.117 . S
O1287 C1264 1.264 . S
C1288 C1281 1.403 . S
C1288 C1289 1.399 . S
C1288 H1294 0.929 . S
C1289 C1269 1.449 . S
C1289 C1288 1.399 . S
C1289 H1295 0.930 . S
H1290 C1270 0.931 . S
H1291 C1271 0.930 . S
H1292 C1279 0.931 . S
H1293 C1280 0.929 . S
H1294 C1288 0.929 . S
H1295 C1289 0.930 . S
H1296 C1304 0.950 . S
H1297 C1309 0.950 . S
H1298 C1306 0.950 . S
H1299 C1308 0.959 . S
H1300 C1310 0.950 . S
H1301 C1312 0.950 . S
H1302 C1314 0.958 . S
H1303 C1315 0.950 . S
C1304 H1296 0.950 . S
C1304 C1305 1.386 . S
C1304 C1306 1.391 . S
C1305 C1304 1.386 . S
C1305 C1309 1.393 . S
C1306 H1298 0.950 . S
C1306 C1304 1.391 . S
C1306 C1307 1.400 . S
C1307 C1306 1.400 . S
C1307 C1308 1.398 . S
C1307 C1313 1.491 1_565 S
C1308 H1299 0.959 . S
C1308 C1307 1.398 . S
C1308 C1309 1.391 . S
C1309 H1297 0.950 . S
C1309 C1305 1.393 . S
C1309 C1308 1.391 . S
C1310 H1300 0.950 . S
C1310 C1311 1.386 . S
C1310 C1312 1.391 . S
C1311 C1310 1.386 . S
C1311 C1315 1.393 . S
C1312 H1301 0.950 . S
C1312 C1310 1.391 . S
C1312 C1313 1.400 . S
C1313 C1307 1.491 1_545 S
C1313 C1312 1.400 . S
C1313 C1314 1.398 . S
C1314 H1302 0.958 . S
C1314 C1313 1.398 . S
C1314 C1315 1.391 . S
C1315 H1303 0.950 . S
C1315 C1311 1.393 . S
C1315 C1314 1.391 . S
H1316 C1324 0.950 . S
H1317 C1329 0.950 . S
H1318 C1326 0.950 . S
H1319 C1328 0.950 . S
H1320 C1330 0.950 . S
H1321 C1332 0.950 . S
H1322 C1334 0.950 . S
H1323 C1335 0.950 . S
C1324 H1316 0.950 . S
C1324 C1325 1.386 . S
C1324 C1326 1.391 . S
C1325 C1324 1.386 . S
C1325 C1329 1.393 . S
C1326 H1318 0.950 . S
C1326 C1324 1.391 . S
C1326 C1327 1.400 . S
C1327 C1326 1.400 . S
C1327 C1328 1.398 . S
C1327 C1333 1.491 1_655 S
C1328 H1319 0.950 . S
C1328 C1327 1.398 . S
C1328 C1329 1.391 . S
C1329 H1317 0.950 . S
C1329 C1325 1.393 . S
C1329 C1328 1.391 . S
C1330 H1320 0.950 . S
C1330 C1331 1.386 . S
C1330 C1332 1.391 . S
C1331 C1330 1.386 . S
C1331 C1335 1.393 . S
C1332 H1321 0.950 . S
C1332 C1330 1.391 . S
C1332 C1333 1.400 . S
C1333 C1327 1.491 1_455 S
C1333 C1332 1.400 . S
C1333 C1334 1.398 . S
C1334 H1322 0.950 . S
C1334 C1333 1.398 . S
C1334 C1335 1.391 . S
C1335 H1323 0.950 . S
C1335 C1331 1.393 . S
C1335 C1334 1.391 . S
H1336 C1344 0.950 . S
H1337 C1349 0.950 . S
H1338 C1346 0.950 . S
H1339 C1348 0.950 . S
H1340 C1350 0.950 . S
H1341 C1352 0.950 . S
H1342 C1354 0.950 . S
H1343 C1355 0.950 . S
C1344 H1336 0.950 . S
C1344 C1345 1.386 . S
C1344 C1346 1.391 . S
C1345 C1344 1.386 . S
C1345 C1349 1.393 . S
C1346 H1338 0.950 . S
C1346 C1344 1.391 . S
C1346 C1347 1.400 . S
C1347 C1346 1.400 . S
C1347 C1348 1.398 . S
C1347 C1353 1.491 . S
C1348 H1339 0.950 . S
C1348 C1347 1.398 . S
C1348 C1349 1.391 . S
C1349 H1337 0.950 . S
C1349 C1345 1.393 . S
C1349 C1348 1.391 . S
C1350 H1340 0.950 . S
C1350 C1351 1.386 . S
C1350 C1352 1.391 . S
C1351 C1350 1.386 . S
C1351 C1355 1.393 . S
C1352 H1341 0.950 . S
C1352 C1350 1.391 . S
C1352 C1353 1.400 . S
C1353 C1347 1.491 . S
C1353 C1352 1.400 . S
C1353 C1354 1.398 . S
C1354 H1342 0.950 . S
C1354 C1353 1.398 . S
C1354 C1355 1.391 . S
C1355 H1343 0.950 . S
C1355 C1351 1.393 . S
C1355 C1354 1.391 . S
H1356 C1364 0.950 . S
H1357 C1369 0.950 . S
H1358 C1366 0.950 1_545 S
H1359 C1368 0.950 . S
H1360 C1370 0.950 . S
H1361 C1372 0.950 1_565 S
H1362 C1374 0.950 . S
H1363 C1375 0.950 . S
C1364 H1356 0.950 . S
C1364 C1365 1.386 . S
C1364 C1366 1.391 . S
C1365 C1364 1.386 . S
C1365 C1369 1.393 . S
C1366 H1358 0.950 1_565 S
C1366 C1364 1.391 . S
C1366 C1367 1.400 . S
C1367 C1366 1.400 . S
C1367 C1368 1.398 . S
C1367 C1373 1.491 1_565 S
C1368 H1359 0.950 . S
C1368 C1367 1.398 . S
C1368 C1369 1.391 . S
C1369 H1357 0.950 . S
C1369 C1365 1.393 . S
C1369 C1368 1.391 . S
C1370 H1360 0.950 . S
C1370 C1371 1.386 . S
C1370 C1372 1.391 . S
C1371 C1370 1.386 . S
C1371 C1375 1.393 . S
C1372 H1361 0.950 1_545 S
C1372 C1370 1.391 . S
C1372 C1373 1.400 . S
C1373 C1367 1.491 1_545 S
C1373 C1372 1.400 . S
C1373 C1374 1.398 . S
C1374 H1362 0.950 . S
C1374 C1373 1.398 . S
C1374 C1375 1.391 . S
C1375 H1363 0.950 . S
C1375 C1371 1.393 . S
C1375 C1374 1.391 . S
H1376 C1384 0.950 . S
H1377 C1389 0.950 . S
H1378 C1386 0.950 1_655 S
H1379 C1388 0.950 . S
H1380 C1390 0.950 . S
H1381 C1392 0.950 1_455 S
H1382 C1394 0.950 . S
H1383 C1395 0.950 . S
C1384 H1376 0.950 . S
C1384 C1385 1.386 . S
C1384 C1386 1.391 . S
C1385 C1384 1.386 . S
C1385 C1389 1.393 . S
C1386 H1378 0.950 1_455 S
C1386 C1384 1.391 . S
C1386 C1387 1.400 . S
C1387 C1386 1.400 . S
C1387 C1388 1.398 . S
C1387 C1393 1.491 1_455 S
C1388 H1379 0.950 . S
C1388 C1387 1.398 . S
C1388 C1389 1.391 . S
C1389 H1377 0.950 . S
C1389 C1385 1.393 . S
C1389 C1388 1.391 . S
C1390 H1380 0.950 . S
C1390 C1391 1.386 . S
C1390 C1392 1.391 . S
C1391 C1390 1.386 . S
C1391 C1395 1.393 . S
C1392 H1381 0.950 1_655 S
C1392 C1390 1.391 . S
C1392 C1393 1.400 . S
C1393 C1387 1.491 1_655 S
C1393 C1392 1.400 . S
C1393 C1394 1.398 . S
C1394 H1382 0.950 . S
C1394 C1393 1.398 . S
C1394 C1395 1.391 . S
C1395 H1383 0.950 . S
C1395 C1391 1.393 . S
C1395 C1394 1.391 . S
H1396 C1404 0.950 . S
H1397 C1409 0.950 . S
H1398 C1406 0.950 . S
H1399 C1408 0.950 . S
H1400 C1410 0.950 . S
H1401 C1412 0.950 . S
H1402 C1414 0.950 . S
H1403 C1415 0.950 . S
C1404 H1396 0.950 . S
C1404 C1405 1.386 . S
C1404 C1406 1.391 . S
C1405 C1404 1.386 . S
C1405 C1409 1.393 . S
C1406 H1398 0.950 . S
C1406 C1404 1.391 . S
C1406 C1407 1.400 . S
C1407 C1406 1.400 . S
C1407 C1408 1.398 . S
C1407 C1413 1.491 . S
C1408 H1399 0.950 . S
C1408 C1407 1.398 . S
C1408 C1409 1.391 . S
C1409 H1397 0.950 . S
C1409 C1405 1.393 . S
C1409 C1408 1.391 . S
C1410 H1400 0.950 . S
C1410 C1411 1.386 . S
C1410 C1412 1.391 . S
C1411 C1410 1.386 . S
C1411 C1415 1.393 . S
C1412 H1401 0.950 . S
C1412 C1410 1.391 . S
C1412 C1413 1.400 . S
C1413 C1407 1.491 . S
C1413 C1412 1.400 . S
C1413 C1414 1.398 . S
C1414 H1402 0.950 . S
C1414 C1413 1.398 . S
C1414 C1415 1.391 . S
C1415 H1403 0.950 . S
C1415 C1411 1.393 . S
C1415 C1414 1.391 . S
H1416 C1424 0.950 . S
H1417 C1429 0.950 . S
H1418 C1426 0.950 . S
H1419 C1428 0.950 . S
H1420 C1430 0.950 . S
H1421 C1432 0.950 . S
H1422 C1434 0.950 . S
H1423 C1435 0.950 . S
C1424 H1416 0.950 . S
C1424 C1425 1.386 . S
C1424 C1426 1.391 . S
C1425 C1424 1.386 . S
C1425 C1429 1.393 . S
C1426 H1418 0.950 . S
C1426 C1424 1.391 . S
C1426 C1427 1.400 . S
C1427 C1426 1.400 . S
C1427 C1428 1.398 . S
C1427 C1433 1.491 . S
C1428 H1419 0.950 . S
C1428 C1427 1.398 . S
C1428 C1429 1.391 . S
C1429 H1417 0.950 . S
C1429 C1425 1.393 . S
C1429 C1428 1.391 . S
C1430 H1420 0.950 . S
C1430 C1431 1.386 . S
C1430 C1432 1.391 . S
C1431 C1430 1.386 . S
C1431 C1435 1.393 . S
C1432 H1421 0.950 . S
C1432 C1430 1.391 . S
C1432 C1433 1.400 . S
C1433 C1427 1.491 . S
C1433 C1432 1.400 . S
C1433 C1434 1.398 . S
C1434 H1422 0.950 . S
C1434 C1433 1.398 . S
C1434 C1435 1.391 . S
C1435 H1423 0.950 . S
C1435 C1431 1.393 . S
C1435 C1434 1.391 . S
H1436 C1444 0.950 . S
H1437 C1449 0.950 . S
H1438 C1446 0.950 . S
H1439 C1448 0.950 . S
H1440 C1450 0.950 . S
H1441 C1452 0.950 . S
H1442 C1454 0.950 . S
H1443 C1455 0.950 . S
C1444 H1436 0.950 . S
C1444 C1445 1.386 . S
C1444 C1446 1.391 . S
C1445 C1444 1.386 . S
C1445 C1449 1.393 . S
C1446 H1438 0.950 . S
C1446 C1444 1.391 . S
C1446 C1447 1.400 . S
C1447 C1446 1.400 . S
C1447 C1448 1.398 . S
C1447 C1453 1.491 . S
C1448 H1439 0.950 . S
C1448 C1447 1.398 . S
C1448 C1449 1.391 . S
C1449 H1437 0.950 . S
C1449 C1445 1.393 . S
C1449 C1448 1.391 . S
C1450 H1440 0.950 . S
C1450 C1451 1.386 . S
C1450 C1452 1.391 . S
C1451 C1450 1.386 . S
C1451 C1455 1.393 . S
C1452 H1441 0.950 . S
C1452 C1450 1.391 . S
C1452 C1453 1.400 . S
C1453 C1447 1.491 . S
C1453 C1452 1.400 . S
C1453 C1454 1.398 . S
C1454 H1442 0.950 . S
C1454 C1453 1.398 . S
C1454 C1455 1.391 . S
C1455 H1443 0.950 . S
C1455 C1451 1.393 . S
C1455 C1454 1.391 . S
H1456 C1464 0.950 . S
H1457 C1469 0.950 . S
H1458 C1466 0.950 . S
H1459 C1468 0.950 . S
H1460 C1470 0.950 . S
H1461 C1472 0.950 . S
H1462 C1474 0.950 . S
H1463 C1475 0.950 . S
C1464 H1456 0.950 . S
C1464 C1465 1.386 . S
C1464 C1466 1.391 . S
C1465 C1464 1.386 . S
C1465 C1469 1.393 . S
C1466 H1458 0.950 . S
C1466 C1464 1.391 . S
C1466 C1467 1.400 . S
C1467 C1466 1.400 . S
C1467 C1468 1.398 . S
C1467 C1473 1.491 . S
C1468 H1459 0.950 . S
C1468 C1467 1.398 . S
C1468 C1469 1.391 . S
C1469 H1457 0.950 . S
C1469 C1465 1.393 . S
C1469 C1468 1.391 . S
C1470 H1460 0.950 . S
C1470 C1471 1.386 . S
C1470 C1472 1.391 . S
C1471 C1470 1.386 . S
C1471 C1475 1.393 . S
C1472 H1461 0.950 . S
C1472 C1470 1.391 . S
C1472 C1473 1.400 . S
C1473 C1467 1.491 . S
C1473 C1472 1.400 . S
C1473 C1474 1.398 . S
C1474 H1462 0.950 . S
C1474 C1473 1.398 . S
C1474 C1475 1.391 . S
C1475 H1463 0.950 . S
C1475 C1471 1.393 . S
C1475 C1474 1.391 . S
H1476 C1484 0.950 . S
H1477 C1489 0.950 . S
H1478 C1486 0.950 . S
H1479 C1488 0.950 . S
H1480 C1490 0.950 . S
H1481 C1492 0.950 . S
H1482 C1494 0.950 . S
H1483 C1495 0.950 . S
C1484 H1476 0.950 . S
C1484 C1485 1.386 . S
C1484 C1486 1.391 . S
C1485 C1484 1.386 . S
C1485 C1489 1.393 . S
C1486 H1478 0.950 . S
C1486 C1484 1.391 . S
C1486 C1487 1.400 . S
C1487 C1486 1.400 . S
C1487 C1488 1.398 . S
C1487 C1493 1.491 . S
C1488 H1479 0.950 . S
C1488 C1487 1.398 . S
C1488 C1489 1.391 . S
C1489 H1477 0.950 . S
C1489 C1485 1.393 . S
C1489 C1488 1.391 . S
C1490 H1480 0.950 . S
C1490 C1491 1.386 . S
C1490 C1492 1.391 . S
C1491 C1490 1.386 . S
C1491 C1495 1.393 1_556 S
C1492 H1481 0.950 . S
C1492 C1490 1.391 . S
C1492 C1493 1.400 1_556 S
C1493 C1487 1.491 . S
C1493 C1492 1.400 1_554 S
C1493 C1494 1.398 . S
C1494 H1482 0.950 . S
C1494 C1493 1.398 . S
C1494 C1495 1.391 . S
C1495 H1483 0.950 . S
C1495 C1491 1.393 1_554 S
C1495 C1494 1.391 . S
H1496 C1504 0.950 . S
H1497 C1509 0.950 . S
H1498 C1506 0.950 . S
H1499 C1508 0.950 . S
H1500 C1510 0.950 . S
H1501 C1512 0.950 . S
H1502 C1514 0.950 . S
H1503 C1515 0.950 . S
C1504 H1496 0.950 . S
C1504 C1505 1.386 . S
C1504 C1506 1.391 . S
C1505 C1504 1.386 . S
C1505 C1509 1.393 . S
C1506 H1498 0.950 . S
C1506 C1504 1.391 . S
C1506 C1507 1.400 . S
C1507 C1506 1.400 . S
C1507 C1508 1.398 . S
C1507 C1513 1.491 . S
C1508 H1499 0.950 . S
C1508 C1507 1.398 . S
C1508 C1509 1.391 . S
C1509 H1497 0.950 . S
C1509 C1505 1.393 . S
C1509 C1508 1.391 . S
C1510 H1500 0.950 . S
C1510 C1511 1.386 . S
C1510 C1512 1.391 1_556 S
C1511 C1510 1.386 . S
C1511 C1515 1.393 . S
C1512 H1501 0.950 . S
C1512 C1510 1.391 1_554 S
C1512 C1513 1.400 . S
C1513 C1507 1.491 . S
C1513 C1512 1.400 . S
C1513 C1514 1.398 . S
C1514 H1502 0.950 . S
C1514 C1513 1.398 . S
C1514 C1515 1.391 1_554 S
C1515 H1503 0.950 . S
C1515 C1511 1.393 . S
C1515 C1514 1.391 1_556 S
H1516 C1524 0.950 . S
H1517 C1529 0.950 . S
H1518 C1526 0.950 . S
H1519 C1528 0.950 . S
H1520 C1530 0.950 . S
H1521 C1532 0.950 . S
H1522 C1534 0.948 1_556 S
H1523 C1535 0.950 . S
C1524 H1516 0.950 . S
C1524 C1525 1.386 . S
C1524 C1526 1.391 . S
C1525 C1524 1.386 . S
C1525 C1529 1.393 . S
C1526 H1518 0.950 . S
C1526 C1524 1.391 . S
C1526 C1527 1.400 . S
C1527 C1526 1.400 . S
C1527 C1528 1.398 . S
C1527 C1533 1.491 . S
C1528 H1519 0.950 . S
C1528 C1527 1.398 . S
C1528 C1529 1.391 . S
C1529 H1517 0.950 . S
C1529 C1525 1.393 . S
C1529 C1528 1.391 . S
C1530 H1520 0.950 . S
C1530 C1531 1.386 1_554 S
C1530 C1532 1.391 . S
C1531 C1530 1.386 1_556 S
C1531 C1535 1.393 . S
C1532 H1521 0.950 . S
C1532 C1530 1.391 . S
C1532 C1533 1.400 . S
C1533 C1527 1.491 . S
C1533 C1532 1.400 . S
C1533 C1534 1.412 . S
C1534 H1522 0.948 1_554 S
C1534 C1533 1.412 . S
C1534 C1535 1.380 1_554 S
C1535 H1523 0.950 . S
C1535 C1531 1.393 . S
C1535 C1534 1.380 1_556 S
H1536 C1544 0.950 . S
H1537 C1549 0.950 . S
H1538 C1546 0.950 . S
H1539 C1548 0.950 . S
H1540 C1550 0.950 . S
H1541 C1552 0.950 . S
H1542 C1554 0.950 . S
H1543 C1555 0.950 . S
C1544 H1536 0.950 . S
C1544 C1545 1.386 . S
C1544 C1546 1.391 . S
C1545 C1544 1.386 . S
C1545 C1549 1.393 . S
C1546 H1538 0.950 . S
C1546 C1544 1.391 . S
C1546 C1547 1.400 . S
C1547 C1546 1.400 . S
C1547 C1548 1.398 . S
C1547 C1553 1.491 . S
C1548 H1539 0.950 . S
C1548 C1547 1.398 . S
C1548 C1549 1.391 . S
C1549 H1537 0.950 . S
C1549 C1545 1.393 . S
C1549 C1548 1.391 . S
C1550 H1540 0.950 . S
C1550 C1551 1.386 1_556 S
C1550 C1552 1.391 . S
C1551 C1550 1.386 1_554 S
C1551 C1555 1.393 . S
C1552 H1541 0.950 . S
C1552 C1550 1.391 . S
C1552 C1553 1.400 . S
C1553 C1547 1.491 . S
C1553 C1552 1.400 . S
C1553 C1554 1.398 . S
C1554 H1542 0.950 . S
C1554 C1553 1.398 . S
C1554 C1555 1.391 1_556 S
C1555 H1543 0.950 . S
C1555 C1551 1.393 . S
C1555 C1554 1.391 1_554 S
H1556 C1564 0.950 . S
H1557 C1569 0.950 . S
H1558 C1566 0.950 . S
H1559 C1568 0.950 . S
H1560 C1570 0.950 . S
H1561 C1572 0.950 . S
H1562 C1574 0.950 . S
H1563 C1575 0.950 . S
C1564 H1556 0.950 . S
C1564 C1565 1.386 . S
C1564 C1566 1.391 1_554 S
C1565 C1564 1.386 . S
C1565 C1569 1.393 . S
C1566 H1558 0.950 . S
C1566 C1564 1.391 1_556 S
C1566 C1567 1.400 . S
C1567 C1566 1.400 . S
C1567 C1568 1.398 . S
C1567 C1573 1.491 . S
C1568 H1559 0.950 . S
C1568 C1567 1.398 . S
C1568 C1569 1.391 1_556 S
C1569 H1557 0.950 . S
C1569 C1565 1.393 . S
C1569 C1568 1.391 1_554 S
C1570 H1560 0.950 . S
C1570 C1571 1.386 . S
C1570 C1572 1.391 . S
C1571 C1570 1.386 . S
C1571 C1575 1.393 . S
C1572 H1561 0.950 . S
C1572 C1570 1.391 . S
C1572 C1573 1.400 . S
C1573 C1567 1.491 . S
C1573 C1572 1.400 . S
C1573 C1574 1.398 . S
C1574 H1562 0.950 . S
C1574 C1573 1.398 . S
C1574 C1575 1.391 . S
C1575 H1563 0.950 . S
C1575 C1571 1.393 . S
C1575 C1574 1.391 . S
H1576 C1584 0.950 . S
H1577 C1589 0.950 . S
H1578 C1586 0.950 . S
H1579 C1588 0.950 . S
H1580 C1590 0.950 . S
H1581 C1592 0.950 . S
H1582 C1594 0.950 . S
H1583 C1595 0.950 . S
C1584 H1576 0.950 . S
C1584 C1585 1.386 . S
C1584 C1586 1.391 . S
C1585 C1584 1.386 . S
C1585 C1589 1.393 . S
C1586 H1578 0.950 . S
C1586 C1584 1.391 . S
C1586 C1587 1.400 . S
C1587 C1586 1.400 . S
C1587 C1588 1.398 . S
C1587 C1593 1.491 . S
C1588 H1579 0.950 . S
C1588 C1587 1.398 . S
C1588 C1589 1.391 . S
C1589 H1577 0.950 . S
C1589 C1585 1.393 . S
C1589 C1588 1.391 . S
C1590 H1580 0.950 . S
C1590 C1591 1.386 1_556 S
C1590 C1592 1.391 . S
C1591 C1590 1.386 1_554 S
C1591 C1595 1.393 . S
C1592 H1581 0.950 . S
C1592 C1590 1.391 . S
C1592 C1593 1.400 . S
C1593 C1587 1.491 . S
C1593 C1592 1.400 . S
C1593 C1594 1.398 . S
C1594 H1582 0.950 . S
C1594 C1593 1.398 . S
C1594 C1595 1.391 1_556 S
C1595 H1583 0.950 . S
C1595 C1591 1.393 . S
C1595 C1594 1.391 1_554 S
H1596 C1604 0.950 . S
H1597 C1609 0.950 . S
H1598 C1606 0.950 . S
H1599 C1608 0.950 . S
H1600 C1610 0.950 . S
H1601 C1612 0.950 . S
H1602 C1614 0.950 . S
H1603 C1615 0.950 . S
C1604 H1596 0.950 . S
C1604 C1605 1.386 . S
C1604 C1606 1.391 . S
C1605 C1604 1.386 . S
C1605 C1609 1.393 . S
C1606 H1598 0.950 . S
C1606 C1604 1.391 . S
C1606 C1607 1.400 . S
C1607 C1606 1.400 . S
C1607 C1608 1.398 . S
C1607 C1613 1.491 . S
C1608 H1599 0.950 . S
C1608 C1607 1.398 . S
C1608 C1609 1.391 . S
C1609 H1597 0.950 . S
C1609 C1605 1.393 . S
C1609 C1608 1.391 . S
C1610 H1600 0.950 . S
C1610 C1611 1.386 . S
C1610 C1612 1.391 . S
C1611 C1610 1.386 . S
C1611 C1615 1.393 . S
C1612 H1601 0.950 . S
C1612 C1610 1.391 . S
C1612 C1613 1.400 . S
C1613 C1607 1.491 . S
C1613 C1612 1.400 . S
C1613 C1614 1.398 . S
C1614 H1602 0.950 . S
C1614 C1613 1.398 . S
C1614 C1615 1.391 . S
C1615 H1603 0.950 . S
C1615 C1611 1.393 . S
C1615 C1614 1.391 . S
H1616 C1624 0.950 . S
H1617 C1629 0.950 . S
H1618 C1626 0.950 . S
H1619 C1628 0.950 . S
H1620 C1630 0.950 . S
H1621 C1632 0.950 . S
H1622 C1634 0.950 . S
H1623 C1635 0.950 . S
C1624 H1616 0.950 . S
C1624 C1625 1.386 . S
C1624 C1626 1.391 . S
C1625 C1624 1.386 . S
C1625 C1629 1.393 . S
C1626 H1618 0.950 . S
C1626 C1624 1.391 . S
C1626 C1627 1.400 . S
C1627 C1626 1.400 . S
C1627 C1628 1.398 . S
C1627 C1633 1.491 . S
C1628 H1619 0.950 . S
C1628 C1627 1.398 . S
C1628 C1629 1.391 . S
C1629 H1617 0.950 . S
C1629 C1625 1.393 . S
C1629 C1628 1.391 . S
C1630 H1620 0.950 . S
C1630 C1631 1.386 . S
C1630 C1632 1.391 . S
C1631 C1630 1.386 . S
C1631 C1635 1.393 . S
C1632 H1621 0.950 . S
C1632 C1630 1.391 . S
C1632 C1633 1.400 . S
C1633 C1627 1.491 . S
C1633 C1632 1.400 . S
C1633 C1634 1.398 . S
C1634 H1622 0.950 . S
C1634 C1633 1.398 . S
C1634 C1635 1.391 . S
C1635 H1623 0.950 . S
C1635 C1631 1.393 . S
C1635 C1634 1.391 . S
H1636 C1644 0.950 . S
H1637 C1649 0.950 . S
H1638 C1646 0.950 . S
H1639 C1648 0.950 . S
H1640 C1650 0.950 . S
H1641 C1652 0.950 . S
H1642 C1654 0.950 . S
H1643 C1655 0.950 . S
C1644 H1636 0.950 . S
C1644 C1645 1.386 . S
C1644 C1646 1.391 . S
C1645 C1644 1.386 . S
C1645 C1649 1.393 . S
C1646 H1638 0.950 . S
C1646 C1644 1.391 . S
C1646 C1647 1.400 . S
C1647 C1646 1.400 . S
C1647 C1648 1.398 . S
C1647 C1653 1.491 . S
C1648 H1639 0.950 . S
C1648 C1647 1.398 . S
C1648 C1649 1.391 . S
C1649 H1637 0.950 . S
C1649 C1645 1.393 . S
C1649 C1648 1.391 . S
C1650 H1640 0.950 . S
C1650 C1651 1.386 . S
C1650 C1652 1.391 . S
C1651 C1650 1.386 . S
C1651 C1655 1.393 . S
C1652 H1641 0.950 . S
C1652 C1650 1.391 . S
C1652 C1653 1.400 . S
C1653 C1647 1.491 . S
C1653 C1652 1.400 . S
C1653 C1654 1.398 . S
C1654 H1642 0.950 . S
C1654 C1653 1.398 . S
C1654 C1655 1.391 . S
C1655 H1643 0.950 . S
C1655 C1651 1.393 . S
C1655 C1654 1.391 . S
H1656 C1664 0.950 . S
H1657 C1669 0.950 . S
H1658 C1666 0.950 . S
H1659 C1668 0.950 . S
H1660 C1670 0.950 . S
H1661 C1672 0.950 . S
H1662 C1674 0.950 . S
H1663 C1675 0.950 . S
C1664 H1656 0.950 . S
C1664 C1665 1.386 . S
C1664 C1666 1.391 . S
C1665 C1664 1.386 . S
C1665 C1669 1.393 . S
C1666 H1658 0.950 . S
C1666 C1664 1.391 . S
C1666 C1667 1.400 . S
C1667 C1666 1.400 . S
C1667 C1668 1.398 . S
C1667 C1673 1.491 . S
C1668 H1659 0.950 . S
C1668 C1667 1.398 . S
C1668 C1669 1.391 . S
C1669 H1657 0.950 . S
C1669 C1665 1.393 . S
C1669 C1668 1.391 . S
C1670 H1660 0.950 . S
C1670 C1671 1.386 . S
C1670 C1672 1.391 . S
C1671 C1670 1.386 . S
C1671 C1675 1.393 . S
C1672 H1661 0.950 . S
C1672 C1670 1.391 . S
C1672 C1673 1.400 . S
C1673 C1667 1.491 . S
C1673 C1672 1.400 . S
C1673 C1674 1.398 . S
C1674 H1662 0.950 . S
C1674 C1673 1.398 . S
C1674 C1675 1.391 . S
C1675 H1663 0.950 . S
C1675 C1671 1.393 . S
C1675 C1674 1.391 . S
H1676 C1684 0.950 . S
H1677 C1689 0.950 . S
H1678 C1686 0.950 . S
H1679 C1688 0.950 . S
H1680 C1690 0.950 . S
H1681 C1692 0.950 . S
H1682 C1694 0.950 . S
H1683 C1695 0.950 . S
C1684 H1676 0.950 . S
C1684 C1685 1.386 . S
C1684 C1686 1.391 . S
C1685 C1684 1.386 . S
C1685 C1689 1.393 . S
C1686 H1678 0.950 . S
C1686 C1684 1.391 . S
C1686 C1687 1.400 . S
C1687 C1686 1.400 . S
C1687 C1688 1.398 . S
C1687 C1693 1.491 . S
C1688 H1679 0.950 . S
C1688 C1687 1.398 . S
C1688 C1689 1.391 . S
C1689 H1677 0.950 . S
C1689 C1685 1.393 . S
C1689 C1688 1.391 . S
C1690 H1680 0.950 . S
C1690 C1691 1.386 . S
C1690 C1692 1.391 . S
C1691 C1690 1.386 . S
C1691 C1695 1.393 . S
C1692 H1681 0.950 . S
C1692 C1690 1.391 . S
C1692 C1693 1.400 . S
C1693 C1687 1.491 . S
C1693 C1692 1.400 . S
C1693 C1694 1.398 . S
C1694 H1682 0.950 . S
C1694 C1693 1.398 . S
C1694 C1695 1.391 . S
C1695 H1683 0.950 . S
C1695 C1691 1.393 . S
C1695 C1694 1.391 . S
H1696 C1704 0.950 . S
H1697 C1709 0.950 . S
H1698 C1706 0.950 . S
H1699 C1708 0.950 . S
H1700 C1710 0.950 . S
H1701 C1712 0.950 . S
H1702 C1714 0.950 . S
H1703 C1715 0.950 . S
C1704 H1696 0.950 . S
C1704 C1705 1.386 . S
C1704 C1706 1.391 . S
C1705 C1704 1.386 . S
C1705 C1709 1.393 . S
C1706 H1698 0.950 . S
C1706 C1704 1.391 . S
C1706 C1707 1.400 . S
C1707 C1706 1.400 . S
C1707 C1708 1.398 . S
C1707 C1713 1.491 . S
C1708 H1699 0.950 . S
C1708 C1707 1.398 . S
C1708 C1709 1.391 . S
C1709 H1697 0.950 . S
C1709 C1705 1.393 . S
C1709 C1708 1.391 . S
C1710 H1700 0.950 . S
C1710 C1711 1.386 . S
C1710 C1712 1.391 . S
C1711 C1710 1.386 . S
C1711 C1715 1.393 . S
C1712 H1701 0.950 . S
C1712 C1710 1.391 . S
C1712 C1713 1.400 . S
C1713 C1707 1.491 . S
C1713 C1712 1.400 . S
C1713 C1714 1.398 . S
C1714 H1702 0.950 . S
C1714 C1713 1.398 . S
C1714 C1715 1.391 . S
C1715 H1703 0.950 . S
C1715 C1711 1.393 . S
C1715 C1714 1.391 . S
H1716 C1724 0.950 . S
H1717 C1729 0.950 . S
H1718 C1726 0.950 . S
H1719 C1728 0.950 . S
H1720 C1730 0.950 . S
H1721 C1732 0.950 . S
H1722 C1734 0.950 . S
H1723 C1735 0.950 . S
C1724 H1716 0.950 . S
C1724 C1725 1.386 . S
C1724 C1726 1.391 . S
C1725 C1724 1.386 . S
C1725 C1729 1.393 . S
C1726 H1718 0.950 . S
C1726 C1724 1.391 . S
C1726 C1727 1.400 . S
C1727 C1726 1.400 . S
C1727 C1728 1.398 . S
C1727 C1733 1.491 . S
C1728 H1719 0.950 . S
C1728 C1727 1.398 . S
C1728 C1729 1.391 . S
C1729 H1717 0.950 . S
C1729 C1725 1.393 . S
C1729 C1728 1.391 . S
C1730 H1720 0.950 . S
C1730 C1731 1.386 . S
C1730 C1732 1.391 . S
C1731 C1730 1.386 . S
C1731 C1735 1.393 . S
C1732 H1721 0.950 . S
C1732 C1730 1.391 . S
C1732 C1733 1.400 . S
C1733 C1727 1.491 . S
C1733 C1732 1.400 . S
C1733 C1734 1.398 . S
C1734 H1722 0.950 . S
C1734 C1733 1.398 . S
C1734 C1735 1.391 . S
C1735 H1723 0.950 . S
C1735 C1731 1.393 . S
C1735 C1734 1.391 . S
H1736 C1744 0.950 . S
H1737 C1749 0.950 . S
H1738 C1746 0.950 . S
H1739 C1748 0.950 . S
H1740 C1750 0.950 . S
H1741 C1752 0.950 . S
H1742 C1754 0.950 . S
H1743 C1755 0.950 . S
C1744 H1736 0.950 . S
C1744 C1745 1.386 . S
C1744 C1746 1.391 . S
C1745 C1744 1.386 . S
C1745 C1749 1.393 . S
C1746 H1738 0.950 . S
C1746 C1744 1.391 . S
C1746 C1747 1.400 . S
C1747 C1746 1.400 . S
C1747 C1748 1.398 . S
C1747 C1753 1.491 . S
C1748 H1739 0.950 . S
C1748 C1747 1.398 . S
C1748 C1749 1.391 . S
C1749 H1737 0.950 . S
C1749 C1745 1.393 . S
C1749 C1748 1.391 . S
C1750 H1740 0.950 . S
C1750 C1751 1.386 . S
C1750 C1752 1.391 . S
C1751 C1750 1.386 . S
C1751 C1755 1.393 . S
C1752 H1741 0.950 . S
C1752 C1750 1.391 . S
C1752 C1753 1.400 . S
C1753 C1747 1.491 . S
C1753 C1752 1.400 . S
C1753 C1754 1.398 . S
C1754 H1742 0.950 . S
C1754 C1753 1.398 . S
C1754 C1755 1.391 . S
C1755 H1743 0.950 . S
C1755 C1751 1.393 . S
C1755 C1754 1.391 . S
H1756 C1764 0.950 . S
H1757 C1769 0.950 . S
H1758 C1766 0.950 . S
H1759 C1768 0.950 . S
H1760 C1770 0.950 . S
H1761 C1772 0.950 . S
H1762 C1774 0.950 . S
H1763 C1775 0.950 . S
C1764 H1756 0.950 . S
C1764 C1765 1.386 . S
C1764 C1766 1.391 . S
C1765 C1764 1.386 . S
C1765 C1769 1.393 . S
C1766 H1758 0.950 . S
C1766 C1764 1.391 . S
C1766 C1767 1.400 . S
C1767 C1766 1.400 . S
C1767 C1768 1.398 . S
C1767 C1773 1.491 . S
C1768 H1759 0.950 . S
C1768 C1767 1.398 . S
C1768 C1769 1.391 . S
C1769 H1757 0.950 . S
C1769 C1765 1.393 . S
C1769 C1768 1.391 . S
C1770 H1760 0.950 . S
C1770 C1771 1.386 . S
C1770 C1772 1.391 . S
C1771 C1770 1.386 . S
C1771 C1775 1.393 . S
C1772 H1761 0.950 . S
C1772 C1770 1.391 . S
C1772 C1773 1.400 . S
C1773 C1767 1.491 . S
C1773 C1772 1.400 . S
C1773 C1774 1.398 . S
C1774 H1762 0.950 . S
C1774 C1773 1.398 . S
C1774 C1775 1.391 . S
C1775 H1763 0.950 . S
C1775 C1771 1.393 . S
C1775 C1774 1.391 . S
H1776 C1784 0.950 . S
H1777 C1789 0.950 . S
H1778 C1786 0.950 . S
H1779 C1788 0.950 . S
H1780 C1790 0.950 . S
H1781 C1792 0.950 . S
H1782 C1794 0.950 . S
H1783 C1795 0.950 . S
C1784 H1776 0.950 . S
C1784 C1785 1.386 . S
C1784 C1786 1.391 . S
C1785 C1784 1.386 . S
C1785 C1789 1.393 . S
C1786 H1778 0.950 . S
C1786 C1784 1.391 . S
C1786 C1787 1.400 . S
C1787 C1786 1.400 . S
C1787 C1788 1.398 . S
C1787 C1793 1.491 . S
C1788 H1779 0.950 . S
C1788 C1787 1.398 . S
C1788 C1789 1.391 . S
C1789 H1777 0.950 . S
C1789 C1785 1.393 . S
C1789 C1788 1.391 . S
C1790 H1780 0.950 . S
C1790 C1791 1.386 . S
C1790 C1792 1.391 . S
C1791 C1790 1.386 . S
C1791 C1795 1.393 . S
C1792 H1781 0.950 . S
C1792 C1790 1.391 . S
C1792 C1793 1.400 . S
C1793 C1787 1.491 . S
C1793 C1792 1.400 . S
C1793 C1794 1.398 . S
C1794 H1782 0.950 . S
C1794 C1793 1.398 . S
C1794 C1795 1.391 . S
C1795 H1783 0.950 . S
C1795 C1791 1.393 . S
C1795 C1794 1.391 . S
H1796 C1804 0.950 . S
H1797 C1809 0.950 . S
H1798 C1806 0.950 . S
H1799 C1808 0.950 . S
H1800 C1810 0.950 . S
H1801 C1812 0.950 . S
H1802 C1814 0.950 . S
H1803 C1815 0.950 . S
C1804 H1796 0.950 . S
C1804 C1805 1.386 . S
C1804 C1806 1.391 . S
C1805 C1804 1.386 . S
C1805 C1809 1.393 . S
C1806 H1798 0.950 . S
C1806 C1804 1.391 . S
C1806 C1807 1.400 . S
C1807 C1806 1.400 . S
C1807 C1808 1.398 . S
C1807 C1813 1.491 . S
C1808 H1799 0.950 . S
C1808 C1807 1.398 . S
C1808 C1809 1.391 . S
C1809 H1797 0.950 . S
C1809 C1805 1.393 . S
C1809 C1808 1.391 . S
C1810 H1800 0.950 . S
C1810 C1811 1.386 . S
C1810 C1812 1.391 . S
C1811 C1810 1.386 . S
C1811 C1815 1.393 . S
C1812 H1801 0.950 . S
C1812 C1810 1.391 . S
C1812 C1813 1.400 . S
C1813 C1807 1.491 . S
C1813 C1812 1.400 . S
C1813 C1814 1.398 . S
C1814 H1802 0.950 . S
C1814 C1813 1.398 . S
C1814 C1815 1.391 . S
C1815 H1803 0.950 . S
C1815 C1811 1.393 . S
C1815 C1814 1.391 . S
H1816 C1824 0.950 . S
H1817 C1829 0.950 . S
H1818 C1826 0.950 . S
H1819 C1828 0.950 . S
H1820 C1830 0.950 . S
H1821 C1832 0.950 . S
H1822 C1834 0.950 . S
H1823 C1835 0.950 . S
C1824 H1816 0.950 . S
C1824 C1825 1.386 . S
C1824 C1826 1.391 . S
C1825 C1824 1.386 . S
C1825 C1829 1.393 . S
C1826 H1818 0.950 . S
C1826 C1824 1.391 . S
C1826 C1827 1.400 . S
C1827 C1826 1.400 . S
C1827 C1828 1.398 . S
C1827 C1833 1.491 . S
C1828 H1819 0.950 . S
C1828 C1827 1.398 . S
C1828 C1829 1.391 . S
C1829 H1817 0.950 . S
C1829 C1825 1.393 . S
C1829 C1828 1.391 . S
C1830 H1820 0.950 . S
C1830 C1831 1.386 . S
C1830 C1832 1.391 . S
C1831 C1830 1.386 . S
C1831 C1835 1.393 . S
C1832 H1821 0.950 . S
C1832 C1830 1.391 . S
C1832 C1833 1.400 . S
C1833 C1827 1.491 . S
C1833 C1832 1.400 . S
C1833 C1834 1.398 . S
C1834 H1822 0.950 . S
C1834 C1833 1.398 . S
C1834 C1835 1.391 . S
C1835 H1823 0.950 . S
C1835 C1831 1.393 . S
C1835 C1834 1.391 . S
H1836 C1844 0.950 . S
H1837 C1849 0.950 . S
H1838 C1846 0.950 . S
H1839 C1848 0.950 . S
H1840 C1850 0.950 . S
H1841 C1852 0.950 . S
H1842 C1854 0.950 . S
H1843 C1855 0.950 . S
C1844 H1836 0.950 . S
C1844 C1845 1.386 . S
C1844 C1846 1.391 . S
C1845 C1844 1.386 . S
C1845 C1849 1.393 . S
C1846 H1838 0.950 . S
C1846 C1844 1.391 . S
C1846 C1847 1.400 . S
C1847 C1846 1.400 . S
C1847 C1848 1.398 . S
C1847 C1853 1.491 . S
C1848 H1839 0.950 . S
C1848 C1847 1.398 . S
C1848 C1849 1.391 . S
C1849 H1837 0.950 . S
C1849 C1845 1.393 . S
C1849 C1848 1.391 . S
C1850 H1840 0.950 . S
C1850 C1851 1.386 . S
C1850 C1852 1.391 . S
C1851 C1850 1.386 . S
C1851 C1855 1.393 . S
C1852 H1841 0.950 . S
C1852 C1850 1.391 . S
C1852 C1853 1.400 . S
C1853 C1847 1.491 . S
C1853 C1852 1.400 . S
C1853 C1854 1.398 . S
C1854 H1842 0.950 . S
C1854 C1853 1.398 . S
C1854 C1855 1.391 . S
C1855 H1843 0.950 . S
C1855 C1851 1.393 . S
C1855 C1854 1.391 . S
H1856 C1864 0.950 . S
H1857 C1869 0.950 . S
H1858 C1866 0.950 . S
H1859 C1868 0.950 . S
H1860 C1870 0.950 . S
H1861 C1872 0.950 . S
H1862 C1874 0.950 . S
H1863 C1875 0.950 . S
C1864 H1856 0.950 . S
C1864 C1865 1.386 . S
C1864 C1866 1.391 . S
C1865 C1864 1.386 . S
C1865 C1869 1.393 . S
C1866 H1858 0.950 . S
C1866 C1864 1.391 . S
C1866 C1867 1.400 . S
C1867 C1866 1.400 . S
C1867 C1868 1.398 . S
C1867 C1873 1.491 . S
C1868 H1859 0.950 . S
C1868 C1867 1.398 . S
C1868 C1869 1.391 . S
C1869 H1857 0.950 . S
C1869 C1865 1.393 . S
C1869 C1868 1.391 . S
C1870 H1860 0.950 . S
C1870 C1871 1.386 . S
C1870 C1872 1.391 . S
C1871 C1870 1.386 . S
C1871 C1875 1.393 . S
C1872 H1861 0.950 . S
C1872 C1870 1.391 . S
C1872 C1873 1.400 . S
C1873 C1867 1.491 . S
C1873 C1872 1.400 . S
C1873 C1874 1.398 . S
C1874 H1862 0.950 . S
C1874 C1873 1.398 . S
C1874 C1875 1.391 . S
C1875 H1863 0.950 . S
C1875 C1871 1.393 . S
C1875 C1874 1.391 . S
H1876 C1884 0.950 . S
H1877 C1889 0.950 . S
H1878 C1886 0.950 . S
H1879 C1888 0.950 . S
H1880 C1890 0.950 . S
H1881 C1892 0.950 . S
H1882 C1894 0.950 . S
H1883 C1895 0.950 . S
C1884 H1876 0.950 . S
C1884 C1885 1.386 . S
C1884 C1886 1.391 . S
C1885 C1884 1.386 . S
C1885 C1889 1.393 . S
C1886 H1878 0.950 . S
C1886 C1884 1.391 . S
C1886 C1887 1.400 . S
C1887 C1886 1.400 . S
C1887 C1888 1.398 . S
C1887 C1893 1.491 . S
C1888 H1879 0.950 . S
C1888 C1887 1.398 . S
C1888 C1889 1.391 . S
C1889 H1877 0.950 . S
C1889 C1885 1.393 . S
C1889 C1888 1.391 . S
C1890 H1880 0.950 . S
C1890 C1891 1.386 . S
C1890 C1892 1.391 . S
C1891 C1890 1.386 . S
C1891 C1895 1.393 . S
C1892 H1881 0.950 . S
C1892 C1890 1.391 . S
C1892 C1893 1.400 . S
C1893 C1887 1.491 . S
C1893 C1892 1.400 . S
C1893 C1894 1.398 . S
C1894 H1882 0.950 . S
C1894 C1893 1.398 . S
C1894 C1895 1.391 . S
C1895 H1883 0.950 . S
C1895 C1891 1.393 . S
C1895 C1894 1.391 . S
H1896 C1904 0.950 . S
H1897 C1909 0.950 . S
H1898 C1906 0.950 . S
H1899 C1908 0.950 . S
H1900 C1910 0.950 . S
H1901 C1912 0.950 . S
H1902 C1914 0.950 . S
H1903 C1915 0.950 . S
C1904 H1896 0.950 . S
C1904 C1905 1.386 . S
C1904 C1906 1.391 . S
C1905 C1904 1.386 . S
C1905 C1909 1.393 . S
C1906 H1898 0.950 . S
C1906 C1904 1.391 . S
C1906 C1907 1.400 . S
C1907 C1906 1.400 . S
C1907 C1908 1.398 . S
C1907 C1913 1.491 . S
C1908 H1899 0.950 . S
C1908 C1907 1.398 . S
C1908 C1909 1.391 . S
C1909 H1897 0.950 . S
C1909 C1905 1.393 . S
C1909 C1908 1.391 . S
C1910 H1900 0.950 . S
C1910 C1911 1.386 . S
C1910 C1912 1.391 . S
C1911 C1910 1.386 . S
C1911 C1915 1.393 1_554 S
C1912 H1901 0.950 . S
C1912 C1910 1.391 . S
C1912 C1913 1.400 . S
C1913 C1907 1.491 . S
C1913 C1912 1.400 . S
C1913 C1914 1.398 . S
C1914 H1902 0.950 . S
C1914 C1913 1.398 . S
C1914 C1915 1.391 1_554 S
C1915 H1903 0.950 . S
C1915 C1911 1.393 1_556 S
C1915 C1914 1.391 1_556 S
H1916 C1924 0.950 . S
H1917 C1929 0.950 . S
H1918 C1926 0.950 . S
H1919 C1928 0.950 . S
H1920 C1930 0.950 . S
H1921 C1932 0.950 . S
H1922 C1934 0.950 . S
H1923 C1935 0.950 . S
C1924 H1916 0.950 . S
C1924 C1925 1.386 . S
C1924 C1926 1.391 . S
C1925 C1924 1.386 . S
C1925 C1929 1.393 . S
C1926 H1918 0.950 . S
C1926 C1924 1.391 . S
C1926 C1927 1.400 . S
C1927 C1926 1.400 . S
C1927 C1928 1.398 . S
C1927 C1933 1.491 . S
C1928 H1919 0.950 . S
C1928 C1927 1.398 . S
C1928 C1929 1.391 . S
C1929 H1917 0.950 . S
C1929 C1925 1.393 . S
C1929 C1928 1.391 . S
C1930 H1920 0.950 . S
C1930 C1931 1.386 1_556 S
C1930 C1932 1.391 1_556 S
C1931 C1930 1.386 1_554 S
C1931 C1935 1.393 . S
C1932 H1921 0.950 . S
C1932 C1930 1.391 1_554 S
C1932 C1933 1.400 . S
C1933 C1927 1.491 . S
C1933 C1932 1.400 . S
C1933 C1934 1.398 . S
C1934 H1922 0.950 . S
C1934 C1933 1.398 . S
C1934 C1935 1.391 . S
C1935 H1923 0.950 . S
C1935 C1931 1.393 . S
C1935 C1934 1.391 . S
H1936 C1944 0.950 1_556 S
H1937 C1949 0.950 . S
H1938 C1946 0.950 . S
H1939 C1948 0.950 . S
H1940 C1950 0.950 . S
H1941 C1952 0.950 . S
H1942 C1954 0.950 . S
H1943 C1955 0.950 . S
C1944 H1936 0.950 1_554 S
C1944 C1945 1.386 . S
C1944 C1946 1.391 . S
C1945 C1944 1.386 . S
C1945 C1949 1.393 . S
C1946 H1938 0.950 . S
C1946 C1944 1.391 . S
C1946 C1947 1.400 . S
C1947 C1946 1.400 . S
C1947 C1948 1.398 . S
C1947 C1953 1.491 . S
C1948 H1939 0.950 . S
C1948 C1947 1.398 . S
C1948 C1949 1.391 . S
C1949 H1937 0.950 . S
C1949 C1945 1.393 . S
C1949 C1948 1.391 . S
C1950 H1940 0.950 . S
C1950 C1951 1.386 . S
C1950 C1952 1.391 . S
C1951 C1950 1.386 . S
C1951 C1955 1.393 . S
C1952 H1941 0.950 . S
C1952 C1950 1.391 . S
C1952 C1953 1.400 . S
C1953 C1947 1.491 . S
C1953 C1952 1.400 . S
C1953 C1954 1.398 . S
C1954 H1942 0.950 . S
C1954 C1953 1.398 . S
C1954 C1955 1.391 . S
C1955 H1943 0.950 . S
C1955 C1951 1.393 . S
C1955 C1954 1.391 . S
H1956 C1964 0.950 . S
H1957 C1969 0.950 . S
H1958 C1966 0.950 . S
H1959 C1968 0.950 . S
H1960 C1970 0.950 . S
H1961 C1972 0.950 . S
H1962 C1974 0.950 . S
H1963 C1975 0.950 . S
C1964 H1956 0.950 . S
C1964 C1965 1.386 . S
C1964 C1966 1.391 1_556 S
C1965 C1964 1.386 . S
C1965 C1969 1.393 . S
C1966 H1958 0.950 . S
C1966 C1964 1.391 1_554 S
C1966 C1967 1.400 . S
C1967 C1966 1.400 . S
C1967 C1968 1.398 1_554 S
C1967 C1973 1.491 . S
C1968 H1959 0.950 . S
C1968 C1967 1.398 1_556 S
C1968 C1969 1.391 . S
C1969 H1957 0.950 . S
C1969 C1965 1.393 . S
C1969 C1968 1.391 . S
C1970 H1960 0.950 . S
C1970 C1971 1.386 . S
C1970 C1972 1.391 . S
C1971 C1970 1.386 . S
C1971 C1975 1.393 . S
C1972 H1961 0.950 . S
C1972 C1970 1.391 . S
C1972 C1973 1.400 . S
C1973 C1967 1.491 . S
C1973 C1972 1.400 . S
C1973 C1974 1.398 . S
C1974 H1962 0.950 . S
C1974 C1973 1.398 . S
C1974 C1975 1.391 . S
C1975 H1963 0.950 . S
C1975 C1971 1.393 . S
C1975 C1974 1.391 . S
H1976 C1984 0.950 . S
H1977 C1989 0.950 1_554 S
H1978 C1986 0.950 . S
H1979 C1988 0.950 . S
H1980 C1990 0.950 . S
H1981 C1992 0.950 . S
H1982 C1994 0.950 . S
H1983 C1995 0.950 . S
C1984 H1976 0.950 . S
C1984 C1985 1.386 . S
C1984 C1986 1.391 . S
C1985 C1984 1.386 . S
C1985 C1989 1.393 . S
C1986 H1978 0.950 . S
C1986 C1984 1.391 . S
C1986 C1987 1.400 1_556 S
C1987 C1986 1.400 1_554 S
C1987 C1988 1.398 . S
C1987 C1993 1.491 . S
C1988 H1979 0.950 . S
C1988 C1987 1.398 . S
C1988 C1989 1.391 1_554 S
C1989 H1977 0.950 1_556 S
C1989 C1985 1.393 . S
C1989 C1988 1.391 1_556 S
C1990 H1980 0.950 . S
C1990 C1991 1.386 . S
C1990 C1992 1.391 . S
C1991 C1990 1.386 . S
C1991 C1995 1.393 . S
C1992 H1981 0.950 . S
C1992 C1990 1.391 . S
C1992 C1993 1.400 . S
C1993 C1987 1.491 . S
C1993 C1992 1.400 . S
C1993 C1994 1.398 . S
C1994 H1982 0.950 . S
C1994 C1993 1.398 . S
C1994 C1995 1.391 . S
C1995 H1983 0.950 . S
C1995 C1991 1.393 . S
C1995 C1994 1.391 . S
H1996 C2004 0.950 . S
H1997 C2009 0.950 . S
H1998 C2006 0.950 . S
H1999 C2008 0.950 . S
H2000 C2010 0.950 . S
H2001 C2012 0.950 . S
H2002 C2014 0.950 . S
H2003 C2015 0.950 . S
C2004 H1996 0.950 . S
C2004 C2005 1.386 . S
C2004 C2006 1.391 1_556 S
C2005 C2004 1.386 . S
C2005 C2009 1.393 . S
C2006 H1998 0.950 . S
C2006 C2004 1.391 1_554 S
C2006 C2007 1.400 . S
C2007 C2006 1.400 . S
C2007 C2008 1.398 1_554 S
C2007 C2013 1.491 . S
C2008 H1999 0.950 . S
C2008 C2007 1.398 1_556 S
C2008 C2009 1.391 . S
C2009 H1997 0.950 . S
C2009 C2005 1.393 . S
C2009 C2008 1.391 . S
C2010 H2000 0.950 . S
C2010 C2011 1.386 . S
C2010 C2012 1.391 . S
C2011 C2010 1.386 . S
C2011 C2015 1.393 . S
C2012 H2001 0.950 . S
C2012 C2010 1.391 . S
C2012 C2013 1.400 . S
C2013 C2007 1.491 . S
C2013 C2012 1.400 . S
C2013 C2014 1.398 . S
C2014 H2002 0.950 . S
C2014 C2013 1.398 . S
C2014 C2015 1.391 . S
C2015 H2003 0.950 . S
C2015 C2011 1.393 . S
C2015 C2014 1.391 . S
H2016 C2024 0.950 . S
H2017 C2029 0.950 . S
H2018 C2026 0.950 . S
H2019 C2028 0.950 . S
H2020 C2030 0.950 . S
H2021 C2032 0.950 . S
H2022 C2034 0.950 . S
H2023 C2035 0.950 . S
C2024 H2016 0.950 . S
C2024 C2025 1.386 . S
C2024 C2026 1.391 . S
C2025 C2024 1.386 . S
C2025 C2029 1.393 . S
C2026 H2018 0.950 . S
C2026 C2024 1.391 . S
C2026 C2027 1.400 . S
C2027 C2026 1.400 . S
C2027 C2028 1.398 . S
C2027 C2033 1.491 . S
C2028 H2019 0.950 . S
C2028 C2027 1.398 . S
C2028 C2029 1.391 . S
C2029 H2017 0.950 . S
C2029 C2025 1.393 . S
C2029 C2028 1.391 . S
C2030 H2020 0.950 . S
C2030 C2031 1.386 . S
C2030 C2032 1.391 . S
C2031 C2030 1.386 . S
C2031 C2035 1.393 . S
C2032 H2021 0.950 . S
C2032 C2030 1.391 . S
C2032 C2033 1.400 . S
C2033 C2027 1.491 . S
C2033 C2032 1.400 . S
C2033 C2034 1.398 . S
C2034 H2022 0.950 . S
C2034 C2033 1.398 . S
C2034 C2035 1.391 . S
C2035 H2023 0.950 . S
C2035 C2031 1.393 . S
C2035 C2034 1.391 . S
H2036 C2044 0.950 . S
H2037 C2049 0.950 . S
H2038 C2046 0.950 . S
H2039 C2048 0.950 . S
H2040 C2050 0.950 . S
H2041 C2052 0.950 . S
H2042 C2054 0.950 . S
H2043 C2055 0.950 . S
C2044 H2036 0.950 . S
C2044 C2045 1.386 . S
C2044 C2046 1.391 . S
C2045 C2044 1.386 . S
C2045 C2049 1.393 . S
C2046 H2038 0.950 . S
C2046 C2044 1.391 . S
C2046 C2047 1.400 . S
C2047 C2046 1.400 . S
C2047 C2048 1.398 . S
C2047 C2053 1.491 . S
C2048 H2039 0.950 . S
C2048 C2047 1.398 . S
C2048 C2049 1.391 . S
C2049 H2037 0.950 . S
C2049 C2045 1.393 . S
C2049 C2048 1.391 . S
C2050 H2040 0.950 . S
C2050 C2051 1.386 . S
C2050 C2052 1.391 . S
C2051 C2050 1.386 . S
C2051 C2055 1.393 . S
C2052 H2041 0.950 . S
C2052 C2050 1.391 . S
C2052 C2053 1.400 . S
C2053 C2047 1.491 . S
C2053 C2052 1.400 . S
C2053 C2054 1.398 . S
C2054 H2042 0.950 . S
C2054 C2053 1.398 . S
C2054 C2055 1.391 . S
C2055 H2043 0.950 . S
C2055 C2051 1.393 . S
C2055 C2054 1.391 . S
H2056 C2064 0.950 . S
H2057 C2069 0.950 . S
H2058 C2066 0.950 . S
H2059 C2068 0.950 . S
H2060 C2070 0.950 . S
H2061 C2072 0.950 . S
H2062 C2074 0.950 . S
H2063 C2075 0.950 . S
C2064 H2056 0.950 . S
C2064 C2065 1.386 . S
C2064 C2066 1.391 . S
C2065 C2064 1.386 . S
C2065 C2069 1.393 . S
C2066 H2058 0.950 . S
C2066 C2064 1.391 . S
C2066 C2067 1.400 . S
C2067 C2066 1.400 . S
C2067 C2068 1.398 . S
C2067 C2073 1.491 . S
C2068 H2059 0.950 . S
C2068 C2067 1.398 . S
C2068 C2069 1.391 . S
C2069 H2057 0.950 . S
C2069 C2065 1.393 . S
C2069 C2068 1.391 . S
C2070 H2060 0.950 . S
C2070 C2071 1.386 . S
C2070 C2072 1.391 . S
C2071 C2070 1.386 . S
C2071 C2075 1.393 . S
C2072 H2061 0.950 . S
C2072 C2070 1.391 . S
C2072 C2073 1.400 . S
C2073 C2067 1.491 . S
C2073 C2072 1.400 . S
C2073 C2074 1.398 . S
C2074 H2062 0.950 . S
C2074 C2073 1.398 . S
C2074 C2075 1.391 . S
C2075 H2063 0.950 . S
C2075 C2071 1.393 . S
C2075 C2074 1.391 . S
H2076 C2084 0.950 . S
H2077 C2089 0.950 . S
H2078 C2086 0.950 . S
H2079 C2088 0.950 . S
H2080 C2090 0.950 . S
H2081 C2092 0.950 . S
H2082 C2094 0.950 . S
H2083 C2095 0.950 . S
C2084 H2076 0.950 . S
C2084 C2085 1.386 . S
C2084 C2086 1.391 . S
C2085 C2084 1.386 . S
C2085 C2089 1.393 . S
C2086 H2078 0.950 . S
C2086 C2084 1.391 . S
C2086 C2087 1.400 . S
C2087 C2086 1.400 . S
C2087 C2088 1.398 . S
C2087 C2093 1.491 . S
C2088 H2079 0.950 . S
C2088 C2087 1.398 . S
C2088 C2089 1.391 . S
C2089 H2077 0.950 . S
C2089 C2085 1.393 . S
C2089 C2088 1.391 . S
C2090 H2080 0.950 . S
C2090 C2091 1.386 . S
C2090 C2092 1.391 . S
C2091 C2090 1.386 . S
C2091 C2095 1.393 . S
C2092 H2081 0.950 . S
C2092 C2090 1.391 . S
C2092 C2093 1.400 . S
C2093 C2087 1.491 . S
C2093 C2092 1.400 . S
C2093 C2094 1.398 . S
C2094 H2082 0.950 . S
C2094 C2093 1.398 . S
C2094 C2095 1.391 . S
C2095 H2083 0.950 . S
C2095 C2091 1.393 . S
C2095 C2094 1.391 . S
H2096 C2104 0.950 . S
H2097 C2109 0.950 . S
H2098 C2106 0.950 . S
H2099 C2108 0.950 . S
H2100 C2110 0.950 . S
H2101 C2112 0.950 . S
H2102 C2114 0.950 . S
H2103 C2115 0.950 . S
C2104 H2096 0.950 . S
C2104 C2105 1.386 . S
C2104 C2106 1.391 . S
C2105 C2104 1.386 . S
C2105 C2109 1.393 . S
C2106 H2098 0.950 . S
C2106 C2104 1.391 . S
C2106 C2107 1.400 . S
C2107 C2106 1.400 . S
C2107 C2108 1.398 . S
C2107 C2113 1.491 . S
C2108 H2099 0.950 . S
C2108 C2107 1.398 . S
C2108 C2109 1.391 . S
C2109 H2097 0.950 . S
C2109 C2105 1.393 . S
C2109 C2108 1.391 . S
C2110 H2100 0.950 . S
C2110 C2111 1.386 . S
C2110 C2112 1.391 . S
C2111 C2110 1.386 . S
C2111 C2115 1.393 . S
C2112 H2101 0.950 . S
C2112 C2110 1.391 . S
C2112 C2113 1.400 . S
C2113 C2107 1.491 . S
C2113 C2112 1.400 . S
C2113 C2114 1.398 . S
C2114 H2102 0.950 . S
C2114 C2113 1.398 . S
C2114 C2115 1.391 . S
C2115 H2103 0.950 . S
C2115 C2111 1.393 . S
C2115 C2114 1.391 . S
H2116 C2124 0.950 . S
H2117 C2129 0.950 . S
H2118 C2126 0.950 . S
H2119 C2128 0.950 . S
H2120 C2130 0.950 . S
H2121 C2132 0.950 . S
H2122 C2134 0.950 . S
H2123 C2135 0.950 . S
C2124 H2116 0.950 . S
C2124 C2125 1.386 . S
C2124 C2126 1.391 . S
C2125 C2124 1.386 . S
C2125 C2129 1.393 . S
C2126 H2118 0.950 . S
C2126 C2124 1.391 . S
C2126 C2127 1.400 . S
C2127 C2126 1.400 . S
C2127 C2128 1.398 . S
C2127 C2133 1.491 . S
C2128 H2119 0.950 . S
C2128 C2127 1.398 . S
C2128 C2129 1.391 . S
C2129 H2117 0.950 . S
C2129 C2125 1.393 . S
C2129 C2128 1.391 . S
C2130 H2120 0.950 . S
C2130 C2131 1.386 . S
C2130 C2132 1.391 . S
C2131 C2130 1.386 . S
C2131 C2135 1.393 . S
C2132 H2121 0.950 . S
C2132 C2130 1.391 . S
C2132 C2133 1.400 . S
C2133 C2127 1.491 . S
C2133 C2132 1.400 . S
C2133 C2134 1.398 . S
C2134 H2122 0.950 . S
C2134 C2133 1.398 . S
C2134 C2135 1.391 . S
C2135 H2123 0.950 . S
C2135 C2131 1.393 . S
C2135 C2134 1.391 . S
H2136 C2144 0.950 . S
H2137 C2149 0.950 . S
H2138 C2146 0.950 . S
H2139 C2148 0.950 . S
H2140 C2150 0.950 . S
H2141 C2152 0.950 . S
H2142 C2154 0.950 . S
H2143 C2155 0.950 . S
C2144 H2136 0.950 . S
C2144 C2145 1.386 . S
C2144 C2146 1.391 . S
C2145 C2144 1.386 . S
C2145 C2149 1.393 . S
C2146 H2138 0.950 . S
C2146 C2144 1.391 . S
C2146 C2147 1.400 . S
C2147 C2146 1.400 . S
C2147 C2148 1.398 . S
C2147 C2153 1.491 . S
C2148 H2139 0.950 . S
C2148 C2147 1.398 . S
C2148 C2149 1.391 . S
C2149 H2137 0.950 . S
C2149 C2145 1.393 . S
C2149 C2148 1.391 . S
C2150 H2140 0.950 . S
C2150 C2151 1.386 . S
C2150 C2152 1.391 . S
C2151 C2150 1.386 . S
C2151 C2155 1.393 . S
C2152 H2141 0.950 . S
C2152 C2150 1.391 . S
C2152 C2153 1.400 . S
C2153 C2147 1.491 . S
C2153 C2152 1.400 . S
C2153 C2154 1.398 . S
C2154 H2142 0.950 . S
C2154 C2153 1.398 . S
C2154 C2155 1.391 . S
C2155 H2143 0.950 . S
C2155 C2151 1.393 . S
C2155 C2154 1.391 . S
H2156 C2164 0.950 . S
H2157 C2169 0.950 . S
H2158 C2166 0.950 . S
H2159 C2168 0.950 . S
H2160 C2170 0.950 . S
H2161 C2172 0.950 . S
H2162 C2174 0.950 . S
H2163 C2175 0.950 . S
C2164 H2156 0.950 . S
C2164 C2165 1.386 . S
C2164 C2166 1.391 . S
C2165 C2164 1.386 . S
C2165 C2169 1.393 . S
C2166 H2158 0.950 . S
C2166 C2164 1.391 . S
C2166 C2167 1.400 . S
C2167 C2166 1.400 . S
C2167 C2168 1.398 . S
C2167 C2173 1.491 . S
C2168 H2159 0.950 . S
C2168 C2167 1.398 . S
C2168 C2169 1.391 . S
C2169 H2157 0.950 . S
C2169 C2165 1.393 . S
C2169 C2168 1.391 . S
C2170 H2160 0.950 . S
C2170 C2171 1.386 . S
C2170 C2172 1.391 . S
C2171 C2170 1.386 . S
C2171 C2175 1.393 . S
C2172 H2161 0.950 . S
C2172 C2170 1.391 . S
C2172 C2173 1.400 . S
C2173 C2167 1.491 . S
C2173 C2172 1.400 . S
C2173 C2174 1.398 . S
C2174 H2162 0.950 . S
C2174 C2173 1.398 . S
C2174 C2175 1.391 . S
C2175 H2163 0.950 . S
C2175 C2171 1.393 . S
C2175 C2174 1.391 . S
H2176 C2184 0.950 . S
H2177 C2189 0.950 . S
H2178 C2186 0.950 . S
H2179 C2188 0.950 . S
H2180 C2190 0.950 . S
H2181 C2192 0.950 . S
H2182 C2194 0.950 . S
H2183 C2195 0.950 . S
C2184 H2176 0.950 . S
C2184 C2185 1.386 . S
C2184 C2186 1.391 . S
C2185 C2184 1.386 . S
C2185 C2189 1.393 . S
C2186 H2178 0.950 . S
C2186 C2184 1.391 . S
C2186 C2187 1.400 . S
C2187 C2186 1.400 . S
C2187 C2188 1.398 . S
C2187 C2193 1.491 . S
C2188 H2179 0.950 . S
C2188 C2187 1.398 . S
C2188 C2189 1.391 . S
C2189 H2177 0.950 . S
C2189 C2185 1.393 . S
C2189 C2188 1.391 . S
C2190 H2180 0.950 . S
C2190 C2191 1.386 . S
C2190 C2192 1.391 . S
C2191 C2190 1.386 . S
C2191 C2195 1.393 . S
C2192 H2181 0.950 . S
C2192 C2190 1.391 . S
C2192 C2193 1.400 . S
C2193 C2187 1.491 . S
C2193 C2192 1.400 . S
C2193 C2194 1.398 . S
C2194 H2182 0.950 . S
C2194 C2193 1.398 . S
C2194 C2195 1.391 . S
C2195 H2183 0.950 . S
C2195 C2191 1.393 . S
C2195 C2194 1.391 . S
H2196 C2204 0.950 . S
H2197 C2209 0.950 . S
H2198 C2206 0.950 . S
H2199 C2208 0.950 . S
H2200 C2210 0.950 . S
H2201 C2212 0.950 . S
H2202 C2214 0.950 . S
H2203 C2215 0.950 . S
C2204 H2196 0.950 . S
C2204 C2205 1.386 . S
C2204 C2206 1.391 . S
C2205 C2204 1.386 . S
C2205 C2209 1.393 . S
C2206 H2198 0.950 . S
C2206 C2204 1.391 . S
C2206 C2207 1.400 . S
C2207 C2206 1.400 . S
C2207 C2208 1.398 . S
C2207 C2213 1.491 . S
C2208 H2199 0.950 . S
C2208 C2207 1.398 . S
C2208 C2209 1.391 . S
C2209 H2197 0.950 . S
C2209 C2205 1.393 . S
C2209 C2208 1.391 . S
C2210 H2200 0.950 . S
C2210 C2211 1.386 . S
C2210 C2212 1.391 . S
C2211 C2210 1.386 . S
C2211 C2215 1.393 . S
C2212 H2201 0.950 . S
C2212 C2210 1.391 . S
C2212 C2213 1.400 . S
C2213 C2207 1.491 . S
C2213 C2212 1.400 . S
C2213 C2214 1.398 . S
C2214 H2202 0.950 . S
C2214 C2213 1.398 . S
C2214 C2215 1.391 . S
C2215 H2203 0.950 . S
C2215 C2211 1.393 . S
C2215 C2214 1.391 . S
H2216 C2224 0.950 . S
H2217 C2229 0.950 . S
H2218 C2226 0.950 . S
H2219 C2228 0.950 . S
H2220 C2230 0.950 . S
H2221 C2232 0.950 . S
H2222 C2234 0.950 . S
H2223 C2235 0.950 . S
C2224 H2216 0.950 . S
C2224 C2225 1.386 . S
C2224 C2226 1.391 . S
C2225 C2224 1.386 . S
C2225 C2229 1.393 . S
C2226 H2218 0.950 . S
C2226 C2224 1.391 . S
C2226 C2227 1.400 . S
C2227 C2226 1.400 . S
C2227 C2228 1.398 . S
C2227 C2233 1.491 . S
C2228 H2219 0.950 . S
C2228 C2227 1.398 . S
C2228 C2229 1.391 . S
C2229 H2217 0.950 . S
C2229 C2225 1.393 . S
C2229 C2228 1.391 . S
C2230 H2220 0.950 . S
C2230 C2231 1.386 . S
C2230 C2232 1.391 . S
C2231 C2230 1.386 . S
C2231 C2235 1.393 . S
C2232 H2221 0.950 . S
C2232 C2230 1.391 . S
C2232 C2233 1.400 . S
C2233 C2227 1.491 . S
C2233 C2232 1.400 . S
C2233 C2234 1.398 . S
C2234 H2222 0.950 . S
C2234 C2233 1.398 . S
C2234 C2235 1.391 . S
C2235 H2223 0.950 . S
C2235 C2231 1.393 . S
C2235 C2234 1.391 . S
H2236 C2244 0.950 . S
H2237 C2249 0.950 . S
H2238 C2246 0.950 . S
H2239 C2248 0.950 . S
H2240 C2250 0.950 . S
H2241 C2252 0.950 . S
H2242 C2254 0.950 . S
H2243 C2255 0.950 . S
C2244 H2236 0.950 . S
C2244 C2245 1.386 . S
C2244 C2246 1.391 . S
C2245 C2244 1.386 . S
C2245 C2249 1.393 . S
C2246 H2238 0.950 . S
C2246 C2244 1.391 . S
C2246 C2247 1.400 . S
C2247 C2246 1.400 . S
C2247 C2248 1.398 . S
C2247 C2253 1.491 . S
C2248 H2239 0.950 . S
C2248 C2247 1.398 . S
C2248 C2249 1.391 . S
C2249 H2237 0.950 . S
C2249 C2245 1.393 . S
C2249 C2248 1.391 . S
C2250 H2240 0.950 . S
C2250 C2251 1.386 . S
C2250 C2252 1.391 . S
C2251 C2250 1.386 . S
C2251 C2255 1.393 . S
C2252 H2241 0.950 . S
C2252 C2250 1.391 . S
C2252 C2253 1.400 . S
C2253 C2247 1.491 . S
C2253 C2252 1.400 . S
C2253 C2254 1.398 . S
C2254 H2242 0.950 . S
C2254 C2253 1.398 . S
C2254 C2255 1.391 . S
C2255 H2243 0.950 . S
C2255 C2251 1.393 . S
C2255 C2254 1.391 . S
H2256 C2264 0.950 . S
H2257 C2269 0.950 . S
H2258 C2266 0.950 . S
H2259 C2268 0.950 . S
H2260 C2270 0.961 . S
H2261 C2272 0.950 . S
H2262 C2274 0.950 . S
H2263 C2275 0.950 . S
C2264 H2256 0.950 . S
C2264 C2265 1.386 . S
C2264 C2266 1.391 . S
C2265 C2264 1.386 . S
C2265 C2269 1.393 . S
C2266 H2258 0.950 . S
C2266 C2264 1.391 . S
C2266 C2267 1.400 . S
C2267 C2266 1.400 . S
C2267 C2268 1.398 . S
C2267 C2273 1.491 . S
C2268 H2259 0.950 . S
C2268 C2267 1.398 . S
C2268 C2269 1.391 . S
C2269 H2257 0.950 . S
C2269 C2265 1.393 . S
C2269 C2268 1.391 . S
C2270 H2260 0.961 . S
C2270 C2271 1.382 1_554 S
C2270 C2272 1.383 1_554 S
C2271 C2270 1.382 1_556 S
C2271 C2275 1.393 . S
C2272 H2261 0.950 . S
C2272 C2270 1.383 1_556 S
C2272 C2273 1.400 . S
C2273 C2267 1.491 . S
C2273 C2272 1.400 . S
C2273 C2274 1.398 . S
C2274 H2262 0.950 . S
C2274 C2273 1.398 . S
C2274 C2275 1.391 . S
C2275 H2263 0.950 . S
C2275 C2271 1.393 . S
C2275 C2274 1.391 . S
H2276 C2284 0.950 . S
H2277 C2289 0.950 . S
H2278 C2286 0.950 . S
H2279 C2288 0.950 . S
H2280 C2290 0.950 . S
H2281 C2292 0.950 . S
H2282 C2294 0.950 . S
H2283 C2295 0.950 . S
C2284 H2276 0.950 . S
C2284 C2285 1.386 1_554 S
C2284 C2286 1.391 1_554 S
C2285 C2284 1.386 1_556 S
C2285 C2289 1.393 . S
C2286 H2278 0.950 . S
C2286 C2284 1.391 1_556 S
C2286 C2287 1.400 . S
C2287 C2286 1.400 . S
C2287 C2288 1.398 . S
C2287 C2293 1.491 . S
C2288 H2279 0.950 . S
C2288 C2287 1.398 . S
C2288 C2289 1.391 . S
C2289 H2277 0.950 . S
C2289 C2285 1.393 . S
C2289 C2288 1.391 . S
C2290 H2280 0.950 . S
C2290 C2291 1.386 . S
C2290 C2292 1.391 . S
C2291 C2290 1.386 . S
C2291 C2295 1.393 . S
C2292 H2281 0.950 . S
C2292 C2290 1.391 . S
C2292 C2293 1.400 . S
C2293 C2287 1.491 . S
C2293 C2292 1.400 . S
C2293 C2294 1.398 . S
C2294 H2282 0.950 . S
C2294 C2293 1.398 . S
C2294 C2295 1.391 . S
C2295 H2283 0.950 . S
C2295 C2291 1.393 . S
C2295 C2294 1.391 . S
H2296 C2304 0.950 . S
H2297 C2309 0.950 . S
H2298 C2306 0.950 . S
H2299 C2308 0.950 . S
H2300 C2310 0.950 1_554 S
H2301 C2312 0.950 . S
H2302 C2314 0.950 . S
H2303 C2315 0.950 . S
C2304 H2296 0.950 . S
C2304 C2305 1.386 . S
C2304 C2306 1.391 . S
C2305 C2304 1.386 . S
C2305 C2309 1.393 . S
C2306 H2298 0.950 . S
C2306 C2304 1.391 . S
C2306 C2307 1.400 . S
C2307 C2306 1.400 . S
C2307 C2308 1.398 . S
C2307 C2313 1.491 . S
C2308 H2299 0.950 . S
C2308 C2307 1.398 . S
C2308 C2309 1.391 . S
C2309 H2297 0.950 . S
C2309 C2305 1.393 . S
C2309 C2308 1.391 . S
C2310 H2300 0.950 1_556 S
C2310 C2311 1.386 . S
C2310 C2312 1.391 . S
C2311 C2310 1.386 . S
C2311 C2315 1.393 . S
C2312 H2301 0.950 . S
C2312 C2310 1.391 . S
C2312 C2313 1.400 . S
C2313 C2307 1.491 . S
C2313 C2312 1.400 . S
C2313 C2314 1.398 . S
C2314 H2302 0.950 . S
C2314 C2313 1.398 . S
C2314 C2315 1.391 . S
C2315 H2303 0.950 . S
C2315 C2311 1.393 . S
C2315 C2314 1.391 . S
H2316 C2324 0.950 . S
H2317 C2329 0.950 . S
H2318 C2326 0.950 . S
H2319 C2328 0.950 . S
H2320 C2330 0.950 . S
H2321 C2332 0.950 . S
H2322 C2334 0.950 . S
H2323 C2335 0.950 . S
C2324 H2316 0.950 . S
C2324 C2325 1.386 . S
C2324 C2326 1.391 . S
C2325 C2324 1.386 . S
C2325 C2329 1.393 . S
C2326 H2318 0.950 . S
C2326 C2324 1.391 . S
C2326 C2327 1.400 . S
C2327 C2326 1.400 . S
C2327 C2328 1.398 . S
C2327 C2333 1.491 . S
C2328 H2319 0.950 . S
C2328 C2327 1.398 . S
C2328 C2329 1.391 . S
C2329 H2317 0.950 . S
C2329 C2325 1.393 . S
C2329 C2328 1.391 . S
C2330 H2320 0.950 . S
C2330 C2331 1.386 . S
C2330 C2332 1.391 . S
C2331 C2330 1.386 . S
C2331 C2335 1.393 . S
C2332 H2321 0.950 . S
C2332 C2330 1.391 . S
C2332 C2333 1.400 1_554 S
C2333 C2327 1.491 . S
C2333 C2332 1.400 1_556 S
C2333 C2334 1.398 . S
C2334 H2322 0.950 . S
C2334 C2333 1.398 . S
C2334 C2335 1.391 1_556 S
C2335 H2323 0.950 . S
C2335 C2331 1.393 . S
C2335 C2334 1.391 1_554 S
H2336 C2344 0.950 . S
H2337 C2349 0.950 . S
H2338 C2346 0.950 . S
H2339 C2348 0.950 . S
H2340 C2350 0.950 . S
H2341 C2352 0.950 . S
H2342 C2354 0.950 . S
H2343 C2355 0.950 . S
C2344 H2336 0.950 . S
C2344 C2345 1.386 . S
C2344 C2346 1.391 . S
C2345 C2344 1.386 . S
C2345 C2349 1.393 . S
C2346 H2338 0.950 . S
C2346 C2344 1.391 . S
C2346 C2347 1.400 . S
C2347 C2346 1.400 . S
C2347 C2348 1.398 . S
C2347 C2353 1.491 . S
C2348 H2339 0.950 . S
C2348 C2347 1.398 . S
C2348 C2349 1.391 . S
C2349 H2337 0.950 . S
C2349 C2345 1.393 . S
C2349 C2348 1.391 . S
C2350 H2340 0.950 . S
C2350 C2351 1.386 . S
C2350 C2352 1.391 1_554 S
C2351 C2350 1.386 . S
C2351 C2355 1.393 . S
C2352 H2341 0.950 . S
C2352 C2350 1.391 1_556 S
C2352 C2353 1.400 . S
C2353 C2347 1.491 . S
C2353 C2352 1.400 . S
C2353 C2354 1.398 1_556 S
C2354 H2342 0.950 . S
C2354 C2353 1.398 1_554 S
C2354 C2355 1.391 . S
C2355 H2343 0.950 . S
C2355 C2351 1.393 . S
C2355 C2354 1.391 . S
H2356 C2364 0.950 . S
H2357 C2369 0.950 . S
H2358 C2366 0.950 . S
H2359 C2368 0.950 . S
H2360 C2370 0.950 . S
H2361 C2372 0.950 1_556 S
H2362 C2374 0.950 1_556 S
H2363 C2375 0.950 . S
C2364 H2356 0.950 . S
C2364 C2365 1.386 . S
C2364 C2366 1.391 . S
C2365 C2364 1.386 . S
C2365 C2369 1.393 . S
C2366 H2358 0.950 . S
C2366 C2364 1.391 . S
C2366 C2367 1.400 . S
C2367 C2366 1.400 . S
C2367 C2368 1.398 . S
C2367 C2373 1.491 . S
C2368 H2359 0.950 . S
C2368 C2367 1.398 . S
C2368 C2369 1.391 . S
C2369 H2357 0.950 . S
C2369 C2365 1.393 . S
C2369 C2368 1.391 . S
C2370 H2360 0.950 . S
C2370 C2371 1.386 . S
C2370 C2372 1.391 . S
C2371 C2370 1.386 . S
C2371 C2375 1.393 . S
C2372 H2361 0.950 1_554 S
C2372 C2370 1.391 . S
C2372 C2373 1.400 1_554 S
C2373 C2367 1.491 . S
C2373 C2372 1.400 1_556 S
C2373 C2374 1.398 1_556 S
C2374 H2362 0.950 1_554 S
C2374 C2373 1.398 1_554 S
C2374 C2375 1.391 . S
C2375 H2363 0.950 . S
C2375 C2371 1.393 . S
C2375 C2374 1.391 . S
H2376 C2384 0.950 . S
H2377 C2389 0.950 . S
H2378 C2386 0.950 . S
H2379 C2388 0.950 . S
H2380 C2390 0.950 . S
H2381 C2392 0.950 1_554 S
H2382 C2394 0.950 . S
H2383 C2395 0.950 . S
C2384 H2376 0.950 . S
C2384 C2385 1.386 . S
C2384 C2386 1.391 . S
C2385 C2384 1.386 . S
C2385 C2389 1.393 . S
C2386 H2378 0.950 . S
C2386 C2384 1.391 . S
C2386 C2387 1.400 . S
C2387 C2386 1.400 . S
C2387 C2388 1.398 . S
C2387 C2393 1.491 . S
C2388 H2379 0.950 . S
C2388 C2387 1.398 . S
C2388 C2389 1.391 . S
C2389 H2377 0.950 . S
C2389 C2385 1.393 . S
C2389 C2388 1.391 . S
C2390 H2380 0.950 . S
C2390 C2391 1.386 1_554 S
C2390 C2392 1.391 1_554 S
C2391 C2390 1.386 1_556 S
C2391 C2395 1.393 . S
C2392 H2381 0.950 1_556 S
C2392 C2390 1.391 1_556 S
C2392 C2393 1.400 . S
C2393 C2387 1.491 . S
C2393 C2392 1.400 . S
C2393 C2394 1.398 . S
C2394 H2382 0.950 . S
C2394 C2393 1.398 . S
C2394 C2395 1.391 . S
C2395 H2383 0.950 . S
C2395 C2391 1.393 . S
C2395 C2394 1.391 . S
H2396 C2404 0.950 1_554 S
H2397 C2409 0.950 . S
H2398 C2406 0.950 . S
H2399 C2408 0.950 . S
H2400 C2410 0.950 . S
H2401 C2412 0.950 . S
H2402 C2414 0.950 . S
H2403 C2415 0.950 . S
C2404 H2396 0.950 1_556 S
C2404 C2405 1.386 . S
C2404 C2406 1.391 . S
C2405 C2404 1.386 . S
C2405 C2409 1.393 . S
C2406 H2398 0.950 . S
C2406 C2404 1.391 . S
C2406 C2407 1.400 . S
C2407 C2406 1.400 . S
C2407 C2408 1.398 . S
C2407 C2413 1.491 . S
C2408 H2399 0.950 . S
C2408 C2407 1.398 . S
C2408 C2409 1.391 . S
C2409 H2397 0.950 . S
C2409 C2405 1.393 . S
C2409 C2408 1.391 . S
C2410 H2400 0.950 . S
C2410 C2411 1.386 . S
C2410 C2412 1.391 . S
C2411 C2410 1.386 . S
C2411 C2415 1.393 . S
C2412 H2401 0.950 . S
C2412 C2410 1.391 . S
C2412 C2413 1.400 . S
C2413 C2407 1.491 . S
C2413 C2412 1.400 . S
C2413 C2414 1.398 . S
C2414 H2402 0.950 . S
C2414 C2413 1.398 . S
C2414 C2415 1.391 . S
C2415 H2403 0.950 . S
C2415 C2411 1.393 . S
C2415 C2414 1.391 . S
H2416 C2424 0.950 . S
H2417 C2429 0.950 . S
H2418 C2426 0.950 . S
H2419 C2428 0.950 . S
H2420 C2430 0.950 . S
H2421 C2432 0.950 . S
H2422 C2434 0.950 . S
H2423 C2435 0.950 1_554 S
C2424 H2416 0.950 . S
C2424 C2425 1.386 . S
C2424 C2426 1.391 . S
C2425 C2424 1.386 . S
C2425 C2429 1.393 . S
C2426 H2418 0.950 . S
C2426 C2424 1.391 . S
C2426 C2427 1.400 . S
C2427 C2426 1.400 . S
C2427 C2428 1.398 . S
C2427 C2433 1.491 . S
C2428 H2419 0.950 . S
C2428 C2427 1.398 . S
C2428 C2429 1.391 . S
C2429 H2417 0.950 . S
C2429 C2425 1.393 . S
C2429 C2428 1.391 . S
C2430 H2420 0.950 . S
C2430 C2431 1.386 . S
C2430 C2432 1.391 . S
C2431 C2430 1.386 . S
C2431 C2435 1.393 . S
C2432 H2421 0.950 . S
C2432 C2430 1.391 . S
C2432 C2433 1.400 . S
C2433 C2427 1.491 . S
C2433 C2432 1.400 . S
C2433 C2434 1.398 . S
C2434 H2422 0.950 . S
C2434 C2433 1.398 . S
C2434 C2435 1.391 . S
C2435 H2423 0.950 1_556 S
C2435 C2431 1.393 . S
C2435 C2434 1.391 . S
H2436 C2444 0.950 . S
H2437 C2449 0.950 . S
H2438 C2446 0.950 . S
H2439 C2448 0.950 . S
H2440 C2450 0.950 . S
H2441 C2452 0.950 . S
H2442 C2454 0.950 . S
H2443 C2455 0.950 . S
C2444 H2436 0.950 . S
C2444 C2445 1.386 . S
C2444 C2446 1.391 . S
C2445 C2444 1.386 . S
C2445 C2449 1.393 . S
C2446 H2438 0.950 . S
C2446 C2444 1.391 . S
C2446 C2447 1.400 . S
C2447 C2446 1.400 . S
C2447 C2448 1.398 . S
C2447 C2453 1.491 . S
C2448 H2439 0.950 . S
C2448 C2447 1.398 . S
C2448 C2449 1.391 . S
C2449 H2437 0.950 . S
C2449 C2445 1.393 . S
C2449 C2448 1.391 . S
C2450 H2440 0.950 . S
C2450 C2451 1.386 . S
C2450 C2452 1.391 . S
C2451 C2450 1.386 . S
C2451 C2455 1.393 . S
C2452 H2441 0.950 . S
C2452 C2450 1.391 . S
C2452 C2453 1.400 . S
C2453 C2447 1.491 . S
C2453 C2452 1.400 . S
C2453 C2454 1.398 . S
C2454 H2442 0.950 . S
C2454 C2453 1.398 . S
C2454 C2455 1.391 . S
C2455 H2443 0.950 . S
C2455 C2451 1.393 . S
C2455 C2454 1.391 . S
H2456 C2464 0.950 . S
H2457 C2469 0.950 . S
H2458 C2466 0.950 . S
H2459 C2468 0.950 . S
H2460 C2470 0.950 . S
H2461 C2472 0.950 . S
H2462 C2474 0.950 . S
H2463 C2475 0.950 . S
C2464 H2456 0.950 . S
C2464 C2465 1.386 . S
C2464 C2466 1.391 . S
C2465 C2464 1.386 . S
C2465 C2469 1.393 . S
C2466 H2458 0.950 . S
C2466 C2464 1.391 . S
C2466 C2467 1.400 . S
C2467 C2466 1.400 . S
C2467 C2468 1.398 . S
C2467 C2473 1.491 . S
C2468 H2459 0.950 . S
C2468 C2467 1.398 . S
C2468 C2469 1.391 . S
C2469 H2457 0.950 . S
C2469 C2465 1.393 . S
C2469 C2468 1.391 . S
C2470 H2460 0.950 . S
C2470 C2471 1.386 . S
C2470 C2472 1.391 . S
C2471 C2470 1.386 . S
C2471 C2475 1.393 . S
C2472 H2461 0.950 . S
C2472 C2470 1.391 . S
C2472 C2473 1.400 . S
C2473 C2467 1.491 . S
C2473 C2472 1.400 . S
C2473 C2474 1.398 . S
C2474 H2462 0.950 . S
C2474 C2473 1.398 . S
C2474 C2475 1.391 . S
C2475 H2463 0.950 . S
C2475 C2471 1.393 . S
C2475 C2474 1.391 . S
H2476 C2484 0.950 . S
H2477 C2489 0.950 . S
H2478 C2486 0.950 . S
H2479 C2488 0.950 . S
H2480 C2490 0.950 . S
H2481 C2492 0.950 . S
H2482 C2494 0.950 . S
H2483 C2495 0.950 . S
C2484 H2476 0.950 . S
C2484 C2485 1.386 . S
C2484 C2486 1.391 . S
C2485 C2484 1.386 . S
C2485 C2489 1.393 . S
C2486 H2478 0.950 . S
C2486 C2484 1.391 . S
C2486 C2487 1.400 . S
C2487 C2486 1.400 . S
C2487 C2488 1.398 . S
C2487 C2493 1.491 . S
C2488 H2479 0.950 . S
C2488 C2487 1.398 . S
C2488 C2489 1.391 . S
C2489 H2477 0.950 . S
C2489 C2485 1.393 . S
C2489 C2488 1.391 . S
C2490 H2480 0.950 . S
C2490 C2491 1.386 . S
C2490 C2492 1.391 . S
C2491 C2490 1.386 . S
C2491 C2495 1.393 . S
C2492 H2481 0.950 . S
C2492 C2490 1.391 . S
C2492 C2493 1.400 . S
C2493 C2487 1.491 . S
C2493 C2492 1.400 . S
C2493 C2494 1.398 . S
C2494 H2482 0.950 . S
C2494 C2493 1.398 . S
C2494 C2495 1.391 . S
C2495 H2483 0.950 . S
C2495 C2491 1.393 . S
C2495 C2494 1.391 . S
H2496 C2504 0.950 . S
H2497 C2509 0.950 . S
H2498 C2506 0.950 . S
H2499 C2508 0.950 1_556 S
H2500 C2510 0.950 . S
H2501 C2512 0.950 . S
H2502 C2514 0.950 . S
H2503 C2515 0.950 . S
C2504 H2496 0.950 . S
C2504 C2505 1.386 . S
C2504 C2506 1.391 . S
C2505 C2504 1.386 . S
C2505 C2509 1.393 1_554 S
C2506 H2498 0.950 . S
C2506 C2504 1.391 . S
C2506 C2507 1.400 . S
C2507 C2506 1.400 . S
C2507 C2508 1.398 . S
C2507 C2513 1.491 . S
C2508 H2499 0.950 1_554 S
C2508 C2507 1.398 . S
C2508 C2509 1.391 1_554 S
C2509 H2497 0.950 . S
C2509 C2505 1.393 1_556 S
C2509 C2508 1.391 1_556 S
C2510 H2500 0.950 . S
C2510 C2511 1.386 . S
C2510 C2512 1.391 . S
C2511 C2510 1.386 . S
C2511 C2515 1.393 . S
C2512 H2501 0.950 . S
C2512 C2510 1.391 . S
C2512 C2513 1.400 . S
C2513 C2507 1.491 . S
C2513 C2512 1.400 . S
C2513 C2514 1.398 . S
C2514 H2502 0.950 . S
C2514 C2513 1.398 . S
C2514 C2515 1.391 . S
C2515 H2503 0.950 . S
C2515 C2511 1.393 . S
C2515 C2514 1.391 . S
H2516 C2524 0.950 . S
H2517 C2529 0.950 . S
H2518 C2526 0.950 . S
H2519 C2528 0.950 . S
H2520 C2530 0.950 . S
H2521 C2532 0.950 . S
H2522 C2534 0.950 . S
H2523 C2535 0.950 1_556 S
C2524 H2516 0.950 . S
C2524 C2525 1.386 . S
C2524 C2526 1.391 . S
C2525 C2524 1.386 . S
C2525 C2529 1.393 . S
C2526 H2518 0.950 . S
C2526 C2524 1.391 . S
C2526 C2527 1.400 . S
C2527 C2526 1.400 . S
C2527 C2528 1.398 . S
C2527 C2533 1.491 . S
C2528 H2519 0.950 . S
C2528 C2527 1.398 . S
C2528 C2529 1.391 . S
C2529 H2517 0.950 . S
C2529 C2525 1.393 . S
C2529 C2528 1.391 . S
C2530 H2520 0.950 . S
C2530 C2531 1.386 . S
C2530 C2532 1.391 . S
C2531 C2530 1.386 . S
C2531 C2535 1.393 . S
C2532 H2521 0.950 . S
C2532 C2530 1.391 . S
C2532 C2533 1.400 . S
C2533 C2527 1.491 . S
C2533 C2532 1.400 . S
C2533 C2534 1.398 . S
C2534 H2522 0.950 . S
C2534 C2533 1.398 . S
C2534 C2535 1.391 . S
C2535 H2523 0.950 1_554 S
C2535 C2531 1.393 . S
C2535 C2534 1.391 . S
H2536 C2544 0.950 . S
H2537 C2549 0.950 . S
H2538 C2546 0.950 . S
H2539 C2548 0.950 . S
H2540 C2550 0.950 1_556 S
H2541 C2552 0.950 . S
H2542 C2554 0.950 . S
H2543 C2555 0.950 . S
C2544 H2536 0.950 . S
C2544 C2545 1.386 . S
C2544 C2546 1.391 . S
C2545 C2544 1.386 . S
C2545 C2549 1.393 . S
C2546 H2538 0.950 . S
C2546 C2544 1.391 . S
C2546 C2547 1.400 . S
C2547 C2546 1.400 . S
C2547 C2548 1.398 . S
C2547 C2553 1.491 . S
C2548 H2539 0.950 . S
C2548 C2547 1.398 . S
C2548 C2549 1.391 . S
C2549 H2537 0.950 . S
C2549 C2545 1.393 . S
C2549 C2548 1.391 . S
C2550 H2540 0.950 1_554 S
C2550 C2551 1.386 . S
C2550 C2552 1.391 . S
C2551 C2550 1.386 . S
C2551 C2555 1.393 . S
C2552 H2541 0.950 . S
C2552 C2550 1.391 . S
C2552 C2553 1.400 . S
C2553 C2547 1.491 . S
C2553 C2552 1.400 . S
C2553 C2554 1.398 . S
C2554 H2542 0.950 . S
C2554 C2553 1.398 . S
C2554 C2555 1.391 . S
C2555 H2543 0.950 . S
C2555 C2551 1.393 . S
C2555 C2554 1.391 . S
H2556 C2564 0.950 . S
H2557 C2569 0.950 . S
H2558 C2566 0.950 . S
H2559 C2568 0.950 . S
H2560 C2570 0.950 . S
H2561 C2572 0.950 . S
H2562 C2574 0.950 . S
H2563 C2575 0.950 . S
C2564 H2556 0.950 . S
C2564 C2565 1.386 . S
C2564 C2566 1.391 . S
C2565 C2564 1.386 . S
C2565 C2569 1.393 . S
C2566 H2558 0.950 . S
C2566 C2564 1.391 . S
C2566 C2567 1.400 . S
C2567 C2566 1.400 . S
C2567 C2568 1.398 . S
C2567 C2573 1.491 . S
C2568 H2559 0.950 . S
C2568 C2567 1.398 . S
C2568 C2569 1.391 . S
C2569 H2557 0.950 . S
C2569 C2565 1.393 . S
C2569 C2568 1.391 . S
C2570 H2560 0.950 . S
C2570 C2571 1.386 . S
C2570 C2572 1.391 . S
C2571 C2570 1.386 . S
C2571 C2575 1.393 . S
C2572 H2561 0.950 . S
C2572 C2570 1.391 . S
C2572 C2573 1.400 . S
C2573 C2567 1.491 . S
C2573 C2572 1.400 . S
C2573 C2574 1.398 . S
C2574 H2562 0.950 . S
C2574 C2573 1.398 . S
C2574 C2575 1.391 . S
C2575 H2563 0.950 . S
C2575 C2571 1.393 . S
C2575 C2574 1.391 . S
H2576 C2584 0.950 . S
H2577 C2589 0.950 . S
H2578 C2586 0.950 . S
H2579 C2588 0.950 . S
H2580 C2590 0.950 . S
H2581 C2592 0.950 . S
H2582 C2594 0.950 . S
H2583 C2595 0.950 . S
C2584 H2576 0.950 . S
C2584 C2585 1.386 . S
C2584 C2586 1.391 . S
C2585 C2584 1.386 . S
C2585 C2589 1.393 . S
C2586 H2578 0.950 . S
C2586 C2584 1.391 . S
C2586 C2587 1.400 . S
C2587 C2586 1.400 . S
C2587 C2588 1.398 . S
C2587 C2593 1.491 . S
C2588 H2579 0.950 . S
C2588 C2587 1.398 . S
C2588 C2589 1.391 . S
C2589 H2577 0.950 . S
C2589 C2585 1.393 . S
C2589 C2588 1.391 . S
C2590 H2580 0.950 . S
C2590 C2591 1.386 . S
C2590 C2592 1.391 . S
C2591 C2590 1.386 . S
C2591 C2595 1.393 . S
C2592 H2581 0.950 . S
C2592 C2590 1.391 . S
C2592 C2593 1.400 . S
C2593 C2587 1.491 . S
C2593 C2592 1.400 . S
C2593 C2594 1.398 . S
C2594 H2582 0.950 . S
C2594 C2593 1.398 . S
C2594 C2595 1.391 . S
C2595 H2583 0.950 . S
C2595 C2591 1.393 . S
C2595 C2594 1.391 . S
H2596 C2604 0.950 . S
H2597 C2609 0.950 . S
H2598 C2606 0.950 . S
H2599 C2608 0.950 . S
H2600 C2610 0.950 . S
H2601 C2612 0.950 . S
H2602 C2614 0.950 . S
H2603 C2615 0.950 . S
C2604 H2596 0.950 . S
C2604 C2605 1.386 . S
C2604 C2606 1.391 . S
C2605 C2604 1.386 . S
C2605 C2609 1.393 . S
C2606 H2598 0.950 . S
C2606 C2604 1.391 . S
C2606 C2607 1.400 . S
C2607 C2606 1.400 . S
C2607 C2608 1.398 . S
C2607 C2613 1.491 . S
C2608 H2599 0.950 . S
C2608 C2607 1.398 . S
C2608 C2609 1.391 . S
C2609 H2597 0.950 . S
C2609 C2605 1.393 . S
C2609 C2608 1.391 . S
C2610 H2600 0.950 . S
C2610 C2611 1.386 . S
C2610 C2612 1.391 . S
C2611 C2610 1.386 . S
C2611 C2615 1.393 . S
C2612 H2601 0.950 . S
C2612 C2610 1.391 . S
C2612 C2613 1.400 . S
C2613 C2607 1.491 . S
C2613 C2612 1.400 . S
C2613 C2614 1.398 . S
C2614 H2602 0.950 . S
C2614 C2613 1.398 . S
C2614 C2615 1.391 . S
C2615 H2603 0.950 . S
C2615 C2611 1.393 . S
C2615 C2614 1.391 . S
H2616 C2624 0.950 . S
H2617 C2629 0.950 . S
H2618 C2626 0.950 . S
H2619 C2628 0.958 . S
H2620 C2630 0.950 . S
H2621 C2632 0.950 . S
H2622 C2634 0.958 . S
H2623 C2635 0.950 . S
C2624 H2616 0.950 . S
C2624 C2625 1.386 . S
C2624 C2626 1.391 . S
C2625 C2624 1.386 . S
C2625 C2629 1.393 . S
C2626 H2618 0.950 . S
C2626 C2624 1.391 . S
C2626 C2627 1.400 . S
C2627 C2626 1.400 . S
C2627 C2628 1.398 . S
C2627 C2633 1.491 1_655 S
C2628 H2619 0.958 . S
C2628 C2627 1.398 . S
C2628 C2629 1.391 . S
C2629 H2617 0.950 . S
C2629 C2625 1.393 . S
C2629 C2628 1.391 . S
C2630 H2620 0.950 . S
C2630 C2631 1.386 . S
C2630 C2632 1.391 . S
C2631 C2630 1.386 . S
C2631 C2635 1.393 . S
C2632 H2621 0.950 . S
C2632 C2630 1.391 . S
C2632 C2633 1.400 . S
C2633 C2627 1.491 1_455 S
C2633 C2632 1.400 . S
C2633 C2634 1.398 . S
C2634 H2622 0.958 . S
C2634 C2633 1.398 . S
C2634 C2635 1.391 . S
C2635 H2623 0.950 . S
C2635 C2631 1.393 . S
C2635 C2634 1.391 . S
H2636 C2644 0.950 . S
H2637 C2649 0.950 . S
H2638 C2646 0.950 . S
H2639 C2648 0.950 . S
H2640 C2650 0.950 . S
H2641 C2652 0.950 . S
H2642 C2654 0.950 . S
H2643 C2655 0.950 . S
C2644 H2636 0.950 . S
C2644 C2645 1.386 . S
C2644 C2646 1.391 . S
C2645 C2644 1.386 . S
C2645 C2649 1.393 . S
C2646 H2638 0.950 . S
C2646 C2644 1.391 . S
C2646 C2647 1.400 . S
C2647 C2646 1.400 . S
C2647 C2648 1.398 . S
C2647 C2653 1.491 . S
C2648 H2639 0.950 . S
C2648 C2647 1.398 . S
C2648 C2649 1.391 . S
C2649 H2637 0.950 . S
C2649 C2645 1.393 . S
C2649 C2648 1.391 . S
C2650 H2640 0.950 . S
C2650 C2651 1.386 . S
C2650 C2652 1.391 . S
C2651 C2650 1.386 . S
C2651 C2655 1.393 . S
C2652 H2641 0.950 . S
C2652 C2650 1.391 . S
C2652 C2653 1.400 . S
C2653 C2647 1.491 . S
C2653 C2652 1.400 . S
C2653 C2654 1.398 . S
C2654 H2642 0.950 . S
C2654 C2653 1.398 . S
C2654 C2655 1.391 . S
C2655 H2643 0.950 . S
C2655 C2651 1.393 . S
C2655 C2654 1.391 . S
H2656 C2664 0.950 . S
H2657 C2669 0.950 . S
H2658 C2666 0.950 . S
H2659 C2668 0.950 . S
H2660 C2670 0.950 . S
H2661 C2672 0.950 . S
H2662 C2674 0.950 . S
H2663 C2675 0.950 . S
C2664 H2656 0.950 . S
C2664 C2665 1.386 . S
C2664 C2666 1.391 . S
C2665 C2664 1.386 . S
C2665 C2669 1.393 . S
C2666 H2658 0.950 . S
C2666 C2664 1.391 . S
C2666 C2667 1.400 . S
C2667 C2666 1.400 . S
C2667 C2668 1.398 . S
C2667 C2673 1.491 1_565 S
C2668 H2659 0.950 . S
C2668 C2667 1.398 . S
C2668 C2669 1.391 . S
C2669 H2657 0.950 . S
C2669 C2665 1.393 . S
C2669 C2668 1.391 . S
C2670 H2660 0.950 . S
C2670 C2671 1.386 . S
C2670 C2672 1.391 . S
C2671 C2670 1.386 . S
C2671 C2675 1.393 . S
C2672 H2661 0.950 . S
C2672 C2670 1.391 . S
C2672 C2673 1.400 . S
C2673 C2667 1.491 1_545 S
C2673 C2672 1.400 . S
C2673 C2674 1.398 . S
C2674 H2662 0.950 . S
C2674 C2673 1.398 . S
C2674 C2675 1.391 . S
C2675 H2663 0.950 . S
C2675 C2671 1.393 . S
C2675 C2674 1.391 . S
H2676 C2684 0.950 . S
H2677 C2689 0.950 . S
H2678 C2686 0.950 . S
H2679 C2688 0.950 . S
H2680 C2690 0.950 . S
H2681 C2692 0.950 . S
H2682 C2694 0.950 . S
H2683 C2695 0.950 . S
C2684 H2676 0.950 . S
C2684 C2685 1.386 . S
C2684 C2686 1.391 . S
C2685 C2684 1.386 . S
C2685 C2689 1.393 . S
C2686 H2678 0.950 . S
C2686 C2684 1.391 . S
C2686 C2687 1.400 . S
C2687 C2686 1.400 . S
C2687 C2688 1.398 . S
C2687 C2693 1.491 1_545 S
C2688 H2679 0.950 . S
C2688 C2687 1.398 . S
C2688 C2689 1.391 . S
C2689 H2677 0.950 . S
C2689 C2685 1.393 . S
C2689 C2688 1.391 . S
C2690 H2680 0.950 . S
C2690 C2691 1.386 . S
C2690 C2692 1.391 . S
C2691 C2690 1.386 . S
C2691 C2695 1.393 . S
C2692 H2681 0.950 . S
C2692 C2690 1.391 . S
C2692 C2693 1.400 . S
C2693 C2687 1.491 1_565 S
C2693 C2692 1.400 . S
C2693 C2694 1.398 . S
C2694 H2682 0.950 . S
C2694 C2693 1.398 . S
C2694 C2695 1.391 . S
C2695 H2683 0.950 . S
C2695 C2691 1.393 . S
C2695 C2694 1.391 . S
H2696 C2704 0.950 . S
H2697 C2709 0.950 . S
H2698 C2706 0.977 . S
H2699 C2708 0.950 . S
H2700 C2710 0.950 . S
H2701 C2712 0.977 . S
H2702 C2714 0.950 . S
H2703 C2715 0.950 . S
C2704 H2696 0.950 . S
C2704 C2705 1.386 . S
C2704 C2706 1.391 . S
C2705 C2704 1.386 . S
C2705 C2709 1.393 . S
C2706 H2698 0.977 . S
C2706 C2704 1.391 . S
C2706 C2707 1.400 . S
C2707 C2706 1.400 . S
C2707 C2708 1.398 . S
C2707 C2713 1.491 1_455 S
C2708 H2699 0.950 . S
C2708 C2707 1.398 . S
C2708 C2709 1.391 . S
C2709 H2697 0.950 . S
C2709 C2705 1.393 . S
C2709 C2708 1.391 . S
C2710 H2700 0.950 . S
C2710 C2711 1.386 . S
C2710 C2712 1.391 . S
C2711 C2710 1.386 . S
C2711 C2715 1.393 . S
C2712 H2701 0.977 . S
C2712 C2710 1.391 . S
C2712 C2713 1.400 . S
C2713 C2707 1.491 1_655 S
C2713 C2712 1.400 . S
C2713 C2714 1.398 . S
C2714 H2702 0.950 . S
C2714 C2713 1.398 . S
C2714 C2715 1.391 . S
C2715 H2703 0.950 . S
C2715 C2711 1.393 . S
C2715 C2714 1.391 . S
H2716 C2724 0.950 . S
H2717 C2729 0.950 . S
H2718 C2726 0.950 . S
H2719 C2728 0.950 . S
H2720 C2730 0.950 . S
H2721 C2732 0.950 . S
H2722 C2734 0.950 . S
H2723 C2735 0.950 . S
C2724 H2716 0.950 . S
C2724 C2725 1.386 . S
C2724 C2726 1.391 . S
C2725 C2724 1.386 . S
C2725 C2729 1.393 . S
C2726 H2718 0.950 . S
C2726 C2724 1.391 . S
C2726 C2727 1.400 . S
C2727 C2726 1.400 . S
C2727 C2728 1.398 . S
C2727 C2733 1.491 . S
C2728 H2719 0.950 . S
C2728 C2727 1.398 . S
C2728 C2729 1.391 . S
C2729 H2717 0.950 . S
C2729 C2725 1.393 . S
C2729 C2728 1.391 . S
C2730 H2720 0.950 . S
C2730 C2731 1.386 . S
C2730 C2732 1.391 . S
C2731 C2730 1.386 . S
C2731 C2735 1.393 . S
C2732 H2721 0.950 . S
C2732 C2730 1.391 . S
C2732 C2733 1.400 . S
C2733 C2727 1.491 . S
C2733 C2732 1.400 . S
C2733 C2734 1.398 . S
C2734 H2722 0.950 . S
C2734 C2733 1.398 . S
C2734 C2735 1.391 . S
C2735 H2723 0.950 . S
C2735 C2731 1.393 . S
C2735 C2734 1.391 . S
C1305 C184 1.250 . S
C1311 C4 1.249 . S
C1325 C40 1.220 . S
C1331 C112 1.220 . S
C1345 C148 1.228 . S
C1351 C76 1.223 . S
C1365 C220 1.225 . S
C1371 C400 1.221 . S
C1385 C256 1.229 . S
C1391 C328 1.224 . S
C1405 C364 1.222 . S
C1411 C292 1.220 . S
C1425 C616 1.247 . S
C1431 C436 1.250 . S
C1445 C472 1.229 . S
C1451 C544 1.224 . S
C1465 C580 1.226 . S
C1471 C508 1.222 . S
C1485 C652 1.235 . S
C1491 C832 1.229 . S
C1505 C688 1.250 . S
C1511 C760 1.251 . S
C1525 C724 1.243 . S
C1531 C796 1.247 . S
C1545 C868 1.250 . S
C1551 C1048 1.247 . S
C1565 C976 1.250 . S
C1571 C904 1.251 . S
C1585 C940 1.225 . S
C1591 C1012 1.221 . S
C1605 C1084 1.221 . S
C1611 C1264 1.225 . S
C1625 C1120 1.232 . S
C1631 C1192 1.239 . S
C1645 C1156 1.224 . S
C1651 C1228 1.229 . S
C1665 C374 1.203 . S
C1671 C3 1.213 . S
C1685 C410 1.205 . S
C1691 C39 1.204 . S
C1705 C338 1.215 . S
C1711 C75 1.195 . S
C1725 C302 1.217 . S
C1731 C111 1.197 . S
C1745 C147 1.217 . S
C1751 C230 1.197 . S
C1765 C183 1.195 . S
C1771 C266 1.216 . S
C1785 C219 1.214 . S
C1791 C158 1.197 . S
C1805 C255 1.211 . S
C1811 C194 1.199 . S
C1825 C291 1.217 . S
C1831 C122 1.199 . S
C1845 C86 1.211 . S
C1851 C327 1.198 . S
C1865 C14 1.217 . S
C1871 C363 1.199 . S
C1885 C399 1.194 . S
C1891 C50 1.218 . S
C1905 C435 1.212 . S
C1911 C806 1.204 1_554 S
C1925 C471 1.199 . S
C1931 C842 1.210 1_554 S
C1945 C770 1.198 1_554 S
C1951 C507 1.217 . S
C1965 C543 1.216 . S
C1971 C734 1.198 . S
C1985 C579 1.197 . S
C1991 C662 1.213 . S
C2005 C615 1.199 . S
C2011 C698 1.217 . S
C2025 C651 1.213 . S
C2031 C590 1.203 . S
C2045 C626 1.213 . S
C2051 C687 1.203 . S
C2065 C554 1.215 . S
C2071 C723 1.195 . S
C2085 C759 1.202 . S
C2091 C518 1.214 . S
C2105 C446 1.202 . S
C2111 C795 1.214 . S
C2125 C482 1.197 . S
C2131 C831 1.215 . S
C2145 C1238 1.216 . S
C2151 C867 1.198 . S
C2165 C903 1.216 . S
C2171 C1274 1.198 . S
C2185 C939 1.207 . S
C2191 C1202 1.203 . S
C2205 C1166 1.197 . S
C2211 C975 1.215 . S
C2225 C1094 1.217 . S
C2231 C1011 1.195 . S
C2245 C1130 1.203 . S
C2251 C1047 1.206 . S
C2265 C1083 1.215 . S
C2271 C1022 1.200 1_556 S
C2285 C1058 1.212 1_556 S
C2291 C1119 1.197 . S
C2305 C1155 1.216 . S
C2311 C986 1.199 1_556 S
C2325 C950 1.218 . S
C2331 C1191 1.195 . S
C2345 C878 1.197 . S
C2351 C1227 1.217 . S
C2365 C914 1.218 . S
C2371 C1263 1.197 . S
C2385 C578 1.344 . S
C2391 C2 1.333 1_556 S
C2405 C38 1.332 1_556 S
C2411 C614 1.329 . S
C2425 C542 1.343 . S
C2431 C74 1.346 1_556 S
C2445 C938 1.329 . S
C2451 C110 1.336 . S
C2465 C146 1.329 . S
C2471 C866 1.334 . S
C2485 C182 1.347 . S
C2491 C902 1.342 . S
C2505 C218 1.344 1_554 S
C2511 C1226 1.333 . S
C2525 C1262 1.346 . S
C2531 C254 1.343 1_554 S
C2545 C1190 1.329 . S
C2551 C290 1.333 1_554 S
C2565 C722 1.339 . S
C2571 C326 1.347 . S
C2585 C362 1.347 . S
C2591 C650 1.341 . S
C2605 C398 1.342 . S
C2611 C686 1.331 . S
C2625 C434 1.332 . S
C2631 C1010 1.343 . S
C2645 C1046 1.344 . S
C2651 C470 1.333 . S
C2665 C974 1.346 . S
C2671 C506 1.337 . S
C2685 C758 1.335 . S
C2691 C1154 1.345 . S
C2705 C1082 1.330 . S
C2711 C794 1.340 . S
C2725 C1118 1.332 . S
C2731 C830 1.329 . S
