# Generated by pormake.
# Topology smu, (6)-cn, num edge types: 1
# Building blocks:
#     Node 0, Type 0, BuildingBlock: PAMTOO_clean_sbu_0, # of connection points: 6
#     Node 1, Type 0, BuildingBlock: PAMTOO_clean_sbu_0, # of connection points: 6
#     Node 2, Type 0, BuildingBlock: PAMTOO_clean_sbu_0, # of connection points: 6
#     Node 3, Type 0, BuildingBlock: PAMTOO_clean_sbu_0, # of connection points: 6
#     Node 4, Type 0, BuildingBlock: PAMTOO_clean_sbu_0, # of connection points: 6
#     Node 5, Type 0, BuildingBlock: PAMTOO_clean_sbu_0, # of connection points: 6
#     Edge 6, Type (0, 0), BuildingBlock: OJICUG_clean_linker_0, # of connection points: 2
#     Edge 7, Type (0, 0), BuildingBlock: OJICUG_clean_linker_0, # of connection points: 2
#     Edge 8, Type (0, 0), BuildingBlock: OJICUG_clean_linker_0, # of connection points: 2
#     Edge 9, Type (0, 0), BuildingBlock: OJICUG_clean_linker_0, # of connection points: 2
#     Edge 10, Type (0, 0), BuildingBlock: OJICUG_clean_linker_0, # of connection points: 2
#     Edge 11, Type (0, 0), BuildingBlock: OJICUG_clean_linker_0, # of connection points: 2
#     Edge 12, Type (0, 0), BuildingBlock: OJICUG_clean_linker_0, # of connection points: 2
#     Edge 13, Type (0, 0), BuildingBlock: OJICUG_clean_linker_0, # of connection points: 2
#     Edge 14, Type (0, 0), BuildingBlock: OJICUG_clean_linker_0, # of connection points: 2
#     Edge 15, Type (0, 0), BuildingBlock: OJICUG_clean_linker_0, # of connection points: 2
#     Edge 16, Type (0, 0), BuildingBlock: OJICUG_clean_linker_0, # of connection points: 2
#     Edge 17, Type (0, 0), BuildingBlock: OJICUG_clean_linker_0, # of connection points: 2
#     Edge 18, Type (0, 0), BuildingBlock: OJICUG_clean_linker_0, # of connection points: 2
#     Edge 19, Type (0, 0), BuildingBlock: OJICUG_clean_linker_0, # of connection points: 2
#     Edge 20, Type (0, 0), BuildingBlock: OJICUG_clean_linker_0, # of connection points: 2
#     Edge 21, Type (0, 0), BuildingBlock: OJICUG_clean_linker_0, # of connection points: 2
#     Edge 22, Type (0, 0), BuildingBlock: OJICUG_clean_linker_0, # of connection points: 2
#     Edge 23, Type (0, 0), BuildingBlock: OJICUG_clean_linker_0, # of connection points: 2
# Relax obj value: 0.228
# Max RMSD: 0.335
# Mean RMSD: 0.335
data_MOF--net-smu--node1-PAMTOO_clean_sbu_0--edge1-OJICUG_clean_linker_0
_symmetry_space_group_name_H-M    P1
_symmetry_Int_Tables_number       1
_symmetry_cell_setting            triclinic
loop_
_symmetry_equiv_pos_as_xyz
'x, y, z'
_cell_length_a     31.696137
_cell_length_b     31.68099
_cell_length_c     20.217182
_cell_angle_alpha  89.921249
_cell_angle_beta   89.583604
_cell_angle_gamma 120.00685
loop_
_atom_site_label
_atom_site_type_symbol
_atom_site_fract_x
_atom_site_fract_y
_atom_site_fract_z
_atom_type_partial_charge
Dy0 Dy 0.38968 0.08181 0.25211 0.0
Dy1 Dy 0.30887 0.11688 0.26396 0.0
C2 C 0.33898 0.07467 0.39354 0.0
O3 O 0.31453 0.01428 0.23336 0.0
O4 O 0.2752 0.0416 0.29929 0.0
O5 O 0.43615 0.05558 0.29092 0.0
O6 O 0.44427 0.07972 0.18942 0.0
O7 O 0.29414 0.07935 0.16506 0.0
O8 O 0.371 0.09229 0.14901 0.0
O9 O 0.3774 0.17822 0.2227 0.0
O10 O 0.42678 0.1609 0.28231 0.0
O11 O 0.24149 0.11265 0.23481 0.0
O12 O 0.28988 0.16785 0.30664 0.0
C13 C 0.2738 1.00768 0.26188 0.0
O14 O 0.36304 0.06047 0.35507 0.0
O15 O 0.32076 0.10158 0.37081 0.0
C16 C 0.51661 0.09431 0.24311 0.0
C17 C 0.62011 0.14532 0.25084 0.0
C18 C 0.59136 0.146 0.30398 0.0
C19 C 0.54021 0.121 0.30007 0.0
C20 C 0.54528 0.09387 0.19013 0.0
C21 C 0.59625 0.11909 0.19378 0.0
C22 C 0.46258 0.06649 0.23712 0.0
C23 C 0.32656 0.07633 0.12742 0.0
C24 C 0.41896 0.19276 0.2516 0.0
C25 C 0.21507 0.16724 0.27795 0.0
C26 C 0.15768 0.21204 0.27822 0.0
C27 C 0.15218 0.17874 0.22831 0.0
C28 C 0.18073 0.15665 0.22809 0.0
C29 C 0.21873 0.19824 0.32979 0.0
C30 C 0.19021 0.22044 0.33 0.0
C31 C 0.24937 0.14899 0.27313 0.0
H32 H 0.60846 0.16617 0.34846 0.0
H33 H 0.51923 0.12248 0.34162 0.0
H34 H 0.5281 0.07359 0.14572 0.0
H35 H 0.61697 0.11711 0.15228 0.0
H36 H 0.12628 0.17018 0.1888 0.0
H37 H 0.17699 0.13255 0.18777 0.0
H38 H 0.24462 0.20646 0.36921 0.0
H39 H 0.19505 0.24557 0.36936 0.0
Dy40 Dy 0.71368 0.63588 0.25751 0.0
Dy41 Dy 0.82901 0.71393 0.25843 0.0
C42 C 0.76311 0.70723 0.38461 0.0
O43 O 0.71636 0.70922 0.2483 0.0
O44 O 0.80016 0.7625 0.24007 0.0
O45 O 0.65983 0.57888 0.31929 0.0
O46 O 0.64077 0.58825 0.21976 0.0
O47 O 0.80509 0.71403 0.15102 0.0
O48 O 0.72232 0.65882 0.15384 0.0
O49 O 0.81415 0.64382 0.30355 0.0
O50 O 0.7568 0.59919 0.23118 0.0
O51 O 0.89732 0.72737 0.2142 0.0
O52 O 0.89637 0.76956 0.29922 0.0
C53 C 0.75501 0.75341 0.2393 0.0
O54 O 0.72561 0.66974 0.3576 0.0
O55 O 0.80646 0.73005 0.35641 0.0
C56 C 0.60242 0.50677 0.264 0.0
C57 C 0.54718 0.40321 0.25628 0.0
C58 C 0.58577 0.42644 0.30135 0.0
C59 C 0.6128 0.47736 0.30538 0.0
C60 C 0.565 0.48388 0.21765 0.0
C61 C 0.53768 0.4329 0.21391 0.0
C62 C 0.62741 0.56059 0.27262 0.0
C63 C 0.76148 0.69162 0.12262 0.0
C64 C 0.79236 0.60452 0.2686 0.0
C65 C 0.97265 0.80047 0.24244 0.0
C66 C 0.07274 0.86701 0.22523 0.0
C67 C 0.04525 0.83824 0.17201 0.0
C68 C 0.9953 0.80495 0.1806 0.0
C69 C 1.00033 0.83002 0.29485 0.0
C70 C 0.04968 0.86287 0.28637 0.0
C71 C 0.92287 0.76095 0.25772 0.0
H72 H 0.59528 0.40541 0.33394 0.0
H73 H 0.64137 0.49355 0.34184 0.0
H74 H 0.55591 0.50545 0.18539 0.0
H75 H 0.50803 0.41698 0.17906 0.0
H76 H 0.0623 0.84159 0.12419 0.0
H77 H 0.97479 0.78219 0.13954 0.0
H78 H 0.98414 0.82664 0.34339 0.0
H79 H 0.07017 0.88473 0.32817 0.0
Dy80 Dy 0.94132 0.31145 0.25765 0.0
Dy81 Dy 0.90643 0.19729 0.2577 0.0
C82 C 0.95145 0.26086 0.38908 0.0
O83 O 1.01131 0.30852 0.2706 0.0
O84 O 0.98491 0.22784 0.243 0.0
O85 O 0.95455 0.37549 0.3124 0.0
O86 O 0.95535 0.377 0.20554 0.0
O87 O 0.92814 0.22337 0.14997 0.0
O88 O 0.97597 0.3061 0.16546 0.0
O89 O 0.84753 0.20885 0.29869 0.0
O90 O 0.86255 0.26806 0.22658 0.0
O91 O 0.85552 0.12814 0.21421 0.0
O92 O 0.89684 0.13078 0.302 0.0
C93 C 0.01941 0.27203 0.25765 0.0
O94 O 0.9384 0.29118 0.36472 0.0
O95 O 0.94483 0.22267 0.35513 0.0
C96 C 0.9258 0.42399 0.25989 0.0
C97 C 0.87567 0.47734 0.26158 0.0
C98 C 0.88037 0.45555 0.31968 0.0
C99 C 0.90509 0.42924 0.31889 0.0
C100 C 0.92021 0.44488 0.2015 0.0
C101 C 0.89527 0.47102 0.20225 0.0
C102 C 0.95555 0.39958 0.25947 0.0
C103 C 0.96181 0.26743 0.12878 0.0
C104 C 0.83117 0.23163 0.26311 0.0
C105 C 0.85186 0.05313 0.24776 0.0
C106 C 0.81023 0.95161 0.23305 0.0
C107 C 0.81903 0.98176 0.1774 0.0
C108 C 0.83949 0.03215 0.18472 0.0
C109 C 0.84589 0.02347 0.30268 0.0
C110 C 0.82537 0.97323 0.29546 0.0
C111 C 0.86341 0.10357 0.2597 0.0
H112 H 0.86519 0.45914 0.36609 0.0
H113 H 0.90862 0.41374 0.36486 0.0
H114 H 0.93605 0.4419 0.15532 0.0
H115 H 0.89281 0.48771 0.15674 0.0
H116 H 0.80825 0.96623 0.12854 0.0
H117 H 0.84372 0.05428 0.14158 0.0
H118 H 0.85509 0.03887 0.35187 0.0
H119 H 0.82061 0.95125 0.33899 0.0
Dy120 Dy 0.08889 0.38445 0.753 0.0
Dy121 Dy 0.12757 0.30786 0.75 0.0
C122 C 0.07636 0.32225 0.62205 0.0
O123 O 0.01899 0.30958 0.7472 0.0
O124 O 0.05043 0.25752 0.76098 0.0
O125 O 0.07941 0.43743 0.69712 0.0
O126 O 0.07088 0.43387 0.80345 0.0
O127 O 0.10381 0.3095 0.85786 0.0
O128 O 0.05614 0.34517 0.84628 0.0
O129 O 0.18341 0.37928 0.70931 0.0
O130 O 0.16769 0.42066 0.78468 0.0
O131 O 0.17582 0.28781 0.79866 0.0
O132 O 0.14543 0.25797 0.70211 0.0
C133 C 1.01385 0.26539 0.75509 0.0
O134 O 0.0887 0.36542 0.6462 0.0
O135 O 0.0856 0.29189 0.65489 0.0
C136 C 0.1018 0.51212 0.75346 0.0
C137 C 0.15061 0.61601 0.75919 0.0
C138 C 0.16833 0.59196 0.71843 0.0
C139 C 0.14419 0.54073 0.71547 0.0
C140 C 0.08452 0.53579 0.7947 0.0
C141 C 0.10822 0.58676 0.79727 0.0
C142 C 0.07377 0.45795 0.74971 0.0
C143 C 0.07053 0.31989 0.88088 0.0
C144 C 0.19944 0.41719 0.74696 0.0
C145 C 0.18039 0.21748 0.76181 0.0
C146 C 0.21976 0.15496 0.77165 0.0
C147 C 0.218 0.18081 0.82722 0.0
C148 C 0.19857 0.21182 0.82231 0.0
C149 C 0.17832 0.18854 0.708 0.0
C150 C 0.19744 0.15741 0.71296 0.0
C151 C 0.17374 0.25984 0.74983 0.0
H152 H 0.2011 0.61254 0.689 0.0
H153 H 0.15864 0.52358 0.6833 0.0
H154 H 0.0519 0.51471 0.82437 0.0
H155 H 0.09224 0.60298 0.82826 0.0
H156 H 0.23429 0.17955 0.87351 0.0
H157 H 0.2007 0.23362 0.86473 0.0
H158 H 0.16461 0.19209 0.66061 0.0
H159 H 0.19621 0.13658 0.66986 0.0
Dy160 Dy 0.31872 0.93753 0.76645 0.0
Dy161 Dy 0.20504 0.90685 0.7629 0.0
C162 C 0.27735 0.95863 0.63461 0.0
O163 O 0.31796 1.0088 0.77956 0.0
O164 O 0.23956 0.98527 0.7452 0.0
O165 O 0.3869 0.95636 0.71771 0.0
O166 O 0.37924 0.94388 0.82335 0.0
O167 O 0.22928 0.94393 0.86126 0.0
O168 O 0.29715 0.9365 0.87259 0.0
O169 O 0.21193 0.84433 0.80062 0.0
O170 O 0.27491 0.85901 0.73454 0.0
O171 O 0.13944 0.90236 0.8029 0.0
O172 O 0.13645 0.85895 0.71593 0.0
C173 C 0.28331 0.01864 0.76279 0.0
O174 O 0.31514 0.96825 0.6707 0.0
O175 O 0.23206 0.9306 0.65659 0.0
C176 C 0.43293 0.92426 0.76702 0.0
C177 C 0.48553 0.87352 0.76243 0.0
C178 C 0.44384 0.85857 0.72317 0.0
C179 C 0.41775 0.8837 0.72547 0.0
C180 C 0.47455 0.93947 0.80543 0.0
C181 C 0.50068 0.91477 0.80291 0.0
C182 C 0.40682 0.95192 0.77139 0.0
C183 C 0.26683 0.94998 0.89595 0.0
C184 C 0.23585 0.82786 0.7672 0.0
C185 C 0.05966 0.84941 0.75614 0.0
C186 C 0.9575 0.80315 0.75302 0.0
C187 C 0.98263 0.8263 0.81094 0.0
C188 C 0.03343 0.84936 0.81244 0.0
C189 C 0.03467 0.82688 0.69818 0.0
C190 C 0.98408 0.80396 0.69663 0.0
C191 C 0.11263 0.87035 0.75864 0.0
H192 H 0.43074 0.82695 0.69165 0.0
H193 H 0.38564 0.87125 0.69521 0.0
H194 H 0.48708 0.97083 0.83746 0.0
H195 H 0.53318 0.92852 0.83257 0.0
H196 H 0.96313 0.82724 0.85464 0.0
H197 H 0.05208 0.86654 0.85779 0.0
H198 H 0.05417 0.82666 0.65408 0.0
H199 H 0.96573 0.78654 0.65124 0.0
Dy200 Dy 0.64075 0.70768 0.75823 0.0
Dy201 Dy 0.7149 0.82149 0.7607 0.0
C202 C 0.70209 0.75536 0.62903 0.0
O203 O 0.71564 0.71307 0.76165 0.0
O204 O 0.76694 0.79659 0.74585 0.0
O205 O 0.59161 0.64024 0.70924 0.0
O206 O 0.58938 0.64469 0.81569 0.0
O207 O 0.73575 0.79607 0.85229 0.0
O208 O 0.66115 0.72793 0.86437 0.0
O209 O 0.64318 0.80367 0.80294 0.0
O210 O 0.60331 0.74892 0.7256 0.0
O211 O 0.75599 0.88808 0.81391 0.0
O212 O 0.73921 0.89056 0.70998 0.0
C213 C 0.75947 0.75215 0.75164 0.0
O214 O 0.67913 0.71554 0.66434 0.0
O215 O 0.71066 0.79823 0.65207 0.0
C216 C 0.51353 0.59514 0.76184 0.0
C217 C 0.41 0.54342 0.75858 0.0
C218 C 0.43771 0.56545 0.70099 0.0
C219 C 0.48874 0.59096 0.70256 0.0
C220 C 0.48589 0.57413 0.81971 0.0
C221 C 0.4348 0.54876 0.81819 0.0
C222 C 0.56769 0.61917 0.76341 0.0
C223 C 0.70542 0.75711 0.8864 0.0
C224 C 0.60573 0.78265 0.76478 0.0
C225 C 0.80112 0.96506 0.76027 0.0
C226 C 0.86576 0.06646 0.75936 0.0
C227 C 0.84819 0.0407 0.81931 0.0
C228 C 0.81688 0.99072 0.8197 0.0
C229 C 0.81939 0.99001 0.7 0.0
C230 C 0.85196 0.04039 0.69959 0.0
C231 C 0.75929 0.91529 0.76356 0.0
H232 H 0.41991 0.56269 0.65437 0.0
H233 H 0.50865 0.60676 0.65696 0.0
H234 H 0.50383 0.57649 0.86608 0.0
H235 H 0.41475 0.53191 0.86333 0.0
H236 H 0.85701 0.0592 0.86644 0.0
H237 H 0.80272 0.9726 0.86687 0.0
H238 H 0.80742 0.97103 0.65337 0.0
H239 H 0.86573 0.05885 0.6526 0.0
C240 C 0.24767 0.99167 0.98911 0.0
C241 C 0.28023 0.97986 0.95761 0.0
H242 H 0.23648 0.0315 0.06682 0.0
C243 C 0.3282 1.00155 0.98126 0.0
H244 H 0.21061 0.9762 0.97182 0.0
C245 C 0.34336 0.03415 0.03427 0.0
C246 C 0.31098 0.04596 0.06613 0.0
H247 H 0.35471 0.9942 0.95791 0.0
H248 H 0.38059 0.04957 0.05084 0.0
C249 C 0.26274 0.024 0.04302 0.0
C250 C 0.71327 0.76391 0.50502 0.0
C251 C 0.72386 0.75067 0.56612 0.0
H252 H 0.71555 0.75769 0.39967 0.0
C253 C 0.74966 0.72502 0.56667 0.0
H254 H 0.69162 0.78162 0.50276 0.0
C255 C 0.76577 0.71406 0.50792 0.0
C256 C 0.75396 0.726 0.44691 0.0
H257 H 0.75604 0.71187 0.61279 0.0
H258 H 0.78496 0.69382 0.51013 0.0
C259 C 0.72721 0.75053 0.44604 0.0
C260 C 0.04037 0.30773 0.06429 0.0
C261 C 0.98956 0.27501 0.06562 0.0
H262 H 0.10644 0.34443 1.00625 0.0
C263 C 0.96633 0.25533 1.00558 0.0
H264 H 0.059 0.3262 0.10896 0.0
C265 C 0.99316 0.26949 0.9459 0.0
C266 C 0.04436 0.30001 0.94504 0.0
H267 H 0.92713 0.23197 1.0042 0.0
H268 H 0.97336 0.25821 0.9001 0.0
C269 C 0.06768 0.31867 1.0053 0.0
C270 C 0.27745 0.03535 0.48775 0.0
C271 C 0.32334 0.04932 0.45885 0.0
H272 H 0.22564 0.99428 0.56547 0.0
C273 C 0.35145 0.03102 0.48664 0.0
H274 H 0.25428 0.04781 0.46657 0.0
C275 C 0.3346 0.99961 0.54093 0.0
C276 C 0.28902 0.98536 0.57027 0.0
H277 H 0.38659 0.04033 0.46548 0.0
H278 H 0.35792 0.98675 0.56053 0.0
C279 C 0.26043 1.00362 0.54316 0.0
C280 C 0.69112 0.69597 0.97471 0.0
C281 C 0.72214 0.74182 0.94624 0.0
H282 H 0.67991 0.64369 0.0488 0.0
C283 C 0.76949 0.76976 0.97233 0.0
H284 H 0.65489 0.67264 0.95557 0.0
C285 C 0.78436 0.75273 0.0272 0.0
C286 C 0.75223 0.70735 0.05685 0.0
H287 H 0.79487 0.80488 0.9508 0.0
H288 H 0.82021 0.77575 0.04764 0.0
C289 C 0.70592 0.67901 0.02836 0.0
C290 C 1.00208 0.32258 0.47488 0.0
C291 C 0.98114 0.27465 0.45094 0.0
H292 H 0.04898 0.37526 0.54508 0.0
C293 C 0.99332 0.24251 0.48261 0.0
H294 H 0.99455 0.34882 0.45137 0.0
C295 C 0.02519 0.25795 0.53698 0.0
C296 C 0.0462 0.30612 0.56057 0.0
H297 H 0.97848 0.20549 0.46516 0.0
H298 H 0.03296 0.23199 0.56085 0.0
C299 C 0.03408 0.33805 0.52846 0.0
C300 C 0.70453 0.19665 0.20089 0.0
C301 C 0.67459 0.1705 0.25523 0.0
H302 H 0.77732 0.23727 0.16102 0.0
C303 C 0.69714 0.16695 0.313 0.0
H304 H 0.68852 0.20038 0.1557 0.0
C305 C 0.74791 0.18758 0.31565 0.0
C306 C 0.77773 0.21327 0.26119 0.0
H307 H 0.67541 0.14681 0.35558 0.0
H308 H 0.76386 0.18306 0.36041 0.0
C309 C 0.75549 0.21817 0.20406 0.0
C310 C 0.49426 0.32423 0.19545 0.0
C311 C 0.51637 0.34855 0.25456 0.0
H312 H 0.44605 0.25625 0.14863 0.0
C313 C 0.50767 0.32006 0.31231 0.0
H314 H 0.50059 0.34415 0.1495 0.0
C315 C 0.47785 0.26916 0.31087 0.0
C316 C 0.45497 0.24558 0.25215 0.0
H317 H 0.5227 0.33699 0.35933 0.0
H318 H 0.47104 0.24848 0.35631 0.0
C319 C 0.46338 0.27361 0.19459 0.0
C320 C 0.82082 0.50627 0.21374 0.0
C321 C 0.85258 0.50848 0.26375 0.0
H322 H 0.77615 0.5342 0.17644 0.0
C323 C 0.86316 0.54167 0.31571 0.0
H324 H 0.8118 0.48105 0.17307 0.0
C325 C 0.843 0.57211 0.31744 0.0
C326 C 0.81121 0.56992 0.26766 0.0
H327 H 0.88803 0.54497 0.35448 0.0
H328 H 0.85263 0.59766 0.35782 0.0
C329 C 0.80008 0.53643 0.21593 0.0
C330 C 0.2011 0.70048 0.70679 0.0
C331 C 0.17534 0.67096 0.7618 0.0
H332 H 0.24106 0.77293 0.66557 0.0
C333 C 0.17227 0.6946 0.81923 0.0
H334 H 0.20388 0.68428 0.66108 0.0
C335 C 0.19227 0.74529 0.82075 0.0
C336 C 0.2175 0.77441 0.7658 0.0
H337 H 0.15438 0.67414 0.8636 0.0
H338 H 0.18816 0.7618 0.86542 0.0
C339 C 0.22236 0.75153 0.70908 0.0
C340 C 0.53541 0.84351 0.82112 0.0
C341 C 0.51306 0.84639 0.76269 0.0
H342 H 0.58185 0.82144 0.86707 0.0
C343 C 0.51857 0.82431 0.70515 0.0
H344 H 0.53106 0.85852 0.86704 0.0
C345 C 0.54678 0.80131 0.70593 0.0
C346 C 0.57054 0.80057 0.76397 0.0
H347 H 0.50245 0.82608 0.65897 0.0
H348 H 0.55167 0.78603 0.66059 0.0
C349 C 0.56416 0.82159 0.82147 0.0
C350 C 0.28332 0.45071 0.69954 0.0
C351 C 0.25283 0.45199 0.74949 0.0
H352 H 0.35599 0.47791 0.66341 0.0
C353 C 0.27435 0.48439 0.80242 0.0
H354 H 0.26815 0.42603 0.65818 0.0
C355 C 0.3253 0.51429 0.80557 0.0
C356 C 0.35571 0.51283 0.75543 0.0
H357 H 0.25197 0.48592 0.84202 0.0
H358 H 0.34087 0.53867 0.84713 0.0
C359 C 0.33388 0.48075 0.70232 0.0
C360 C 0.10999 0.24668 0.33246 0.0
C361 C 0.13022 0.23851 0.2751 0.0
H362 H 0.06019 0.26763 0.37156 0.0
C363 C 0.12186 0.25356 0.21364 0.0
H364 H 0.11528 0.23506 0.38056 0.0
C365 C 0.09004 0.27161 0.20881 0.0
C366 C 0.06726 0.27674 0.26535 0.0
H367 H 0.13767 0.24878 0.16859 0.0
H368 H 0.07977 0.27685 0.16014 0.0
C369 C 0.07897 0.266 0.32754 0.0
C370 C 0.13907 0.95131 0.23708 0.0
C371 C 0.12489 0.90373 0.21857 0.0
H372 H 0.19591 0.02016 0.26484 0.0
C373 C 0.16088 0.8911 0.20485 0.0
H374 H 0.11216 0.9621 0.24729 0.0
C375 C 0.21057 0.92514 0.21522 0.0
C376 C 0.22399 0.97153 0.23996 0.0
H377 H 0.15039 0.85431 0.19015 0.0
H378 H 0.23775 0.91445 0.20748 0.0
C379 C 0.18758 0.98451 0.24768 0.0
C380 C 0.75164 0.86673 0.27415 0.0
C381 C 0.78574 0.89782 0.22639 0.0
H382 H 0.71008 0.7938 0.31184 0.0
C383 C 0.79825 0.87714 0.17403 0.0
H384 H 0.74012 0.88152 0.31411 0.0
C385 C 0.78101 0.8272 0.17317 0.0
C386 C 0.75116 0.79682 0.22466 0.0
H387 H 0.82435 0.89984 0.13645 0.0
H388 H 0.79538 0.81316 0.13598 0.0
C389 C 0.734 0.81642 0.27273 0.0
C390 C 0.24614 0.10213 0.83129 0.0
C391 C 0.24632 0.12717 0.7737 0.0
H392 H 0.26211 0.04996 0.87379 0.0
C393 C 0.27118 0.1244 0.71719 0.0
H394 H 0.22697 0.10271 0.87551 0.0
C395 C 0.29119 0.09382 0.71647 0.0
C396 C 0.28788 0.06638 0.77264 0.0
H397 H 0.27334 0.14413 0.67236 0.0
H398 H 0.30526 0.08827 0.67026 0.0
C399 C 0.26711 0.07245 0.83081 0.0
C400 C 0.88406 0.79064 0.69357 0.0
C401 C 0.90404 0.78123 0.74936 0.0
H402 H 0.82182 0.78775 0.65102 0.0
C403 C 0.87302 0.75364 0.80202 0.0
H404 H 0.90701 0.81299 0.65312 0.0
C405 C 0.82303 0.73768 0.79981 0.0
C406 C 0.80395 0.74946 0.74509 0.0
H407 H 0.88767 0.74604 0.84575 0.0
H408 H 0.80037 0.72002 0.84286 0.0
C409 C 0.83481 0.7752 0.69171 0.0
C410 C 0.93313 0.20158 0.71202 0.0
C411 C 0.9668 0.22074 0.76359 0.0
H412 H 0.87387 0.13703 0.67004 0.0
C413 C 0.9647 0.18959 0.8146 0.0
H414 H 0.93554 0.2244 0.67055 0.0
C415 C 0.93195 0.14023 0.81285 0.0
C416 C 0.899 0.12007 0.76069 0.0
H417 H 0.99214 0.20259 0.85279 0.0
H418 H 0.93477 0.11766 0.85082 0.0
C419 C 0.89904 0.1514 0.71084 0.0
loop_
_geom_bond_atom_site_label_1
_geom_bond_atom_site_label_2
_geom_bond_distance
_geom_bond_site_symmetry_2
_ccdc_geom_bond_type
Dy0 O3 2.307 . S
Dy0 O5 2.395 . S
Dy0 O6 2.379 . S
Dy0 O8 2.339 . S
Dy0 O10 2.298 . S
Dy0 O14 2.275 . S
Dy0 C22 2.738 . S
Dy1 O4 2.298 . S
Dy1 O7 2.275 . S
Dy1 O9 2.307 . S
Dy1 O11 2.395 . S
Dy1 O12 2.379 . S
Dy1 O15 2.339 . S
Dy1 C31 2.738 . S
C2 O14 1.254 . S
C2 O15 1.257 . S
O3 Dy0 2.307 . S
O3 C13 1.266 . S
O4 Dy1 2.298 . S
O4 C13 1.236 . S
O5 Dy0 2.395 . S
O5 C22 1.255 . S
O6 Dy0 2.379 . S
O6 C22 1.249 . S
O7 Dy1 2.275 . S
O7 C23 1.254 . S
O8 Dy0 2.339 . S
O8 C23 1.257 . S
O9 Dy1 2.307 . S
O9 C24 1.266 . S
O10 Dy0 2.298 . S
O10 C24 1.236 . S
O11 Dy1 2.395 . S
O11 C31 1.255 . S
O12 Dy1 2.379 . S
O12 C31 1.249 . S
C13 O3 1.266 . S
C13 O4 1.236 . S
O14 Dy0 2.275 . S
O14 C2 1.254 . S
O15 Dy1 2.339 . S
O15 C2 1.257 . S
C16 C19 1.344 . S
C16 C20 1.328 . S
C16 C22 1.516 . S
C17 C18 1.304 . S
C17 C21 1.323 . S
C18 C17 1.304 . S
C18 C19 1.371 . S
C18 H32 0.930 . S
C19 C16 1.344 . S
C19 C18 1.371 . S
C19 H33 0.931 . S
C20 C16 1.328 . S
C20 C21 1.433 . S
C20 H34 0.931 . S
C21 C17 1.323 . S
C21 C20 1.433 . S
C21 H35 0.933 . S
C22 Dy0 2.738 . S
C22 O5 1.255 . S
C22 O6 1.249 . S
C22 C16 1.516 . S
C23 O7 1.254 . S
C23 O8 1.257 . S
C24 O9 1.266 . S
C24 O10 1.236 . S
C25 C28 1.344 . S
C25 C29 1.328 . S
C25 C31 1.516 . S
C26 C27 1.304 . S
C26 C30 1.323 . S
C27 C26 1.304 . S
C27 C28 1.371 . S
C27 H36 0.930 . S
C28 C25 1.344 . S
C28 C27 1.371 . S
C28 H37 0.931 . S
C29 C25 1.328 . S
C29 C30 1.433 . S
C29 H38 0.931 . S
C30 C26 1.323 . S
C30 C29 1.433 . S
C30 H39 0.933 . S
C31 Dy1 2.738 . S
C31 O11 1.255 . S
C31 O12 1.249 . S
C31 C25 1.516 . S
H32 C18 0.930 . S
H33 C19 0.931 . S
H34 C20 0.931 . S
H35 C21 0.933 . S
H36 C27 0.930 . S
H37 C28 0.931 . S
H38 C29 0.931 . S
H39 C30 0.933 . S
Dy40 O43 2.307 . S
Dy40 O45 2.395 . S
Dy40 O46 2.379 . S
Dy40 O48 2.339 . S
Dy40 O50 2.298 . S
Dy40 O54 2.275 . S
Dy40 C62 2.738 . S
Dy41 O44 2.298 . S
Dy41 O47 2.275 . S
Dy41 O49 2.307 . S
Dy41 O51 2.395 . S
Dy41 O52 2.379 . S
Dy41 O55 2.339 . S
Dy41 C71 2.738 . S
C42 O54 1.254 . S
C42 O55 1.257 . S
O43 Dy40 2.307 . S
O43 C53 1.266 . S
O44 Dy41 2.298 . S
O44 C53 1.236 . S
O45 Dy40 2.395 . S
O45 C62 1.255 . S
O46 Dy40 2.379 . S
O46 C62 1.249 . S
O47 Dy41 2.275 . S
O47 C63 1.254 . S
O48 Dy40 2.339 . S
O48 C63 1.257 . S
O49 Dy41 2.307 . S
O49 C64 1.266 . S
O50 Dy40 2.298 . S
O50 C64 1.236 . S
O51 Dy41 2.395 . S
O51 C71 1.255 . S
O52 Dy41 2.379 . S
O52 C71 1.249 . S
C53 O43 1.266 . S
C53 O44 1.236 . S
O54 Dy40 2.275 . S
O54 C42 1.254 . S
O55 Dy41 2.339 . S
O55 C42 1.257 . S
C56 C59 1.344 . S
C56 C60 1.328 . S
C56 C62 1.516 . S
C57 C58 1.304 . S
C57 C61 1.323 . S
C58 C57 1.304 . S
C58 C59 1.371 . S
C58 H72 0.930 . S
C59 C56 1.344 . S
C59 C58 1.371 . S
C59 H73 0.931 . S
C60 C56 1.328 . S
C60 C61 1.433 . S
C60 H74 0.931 . S
C61 C57 1.323 . S
C61 C60 1.433 . S
C61 H75 0.933 . S
C62 Dy40 2.738 . S
C62 O45 1.255 . S
C62 O46 1.249 . S
C62 C56 1.516 . S
C63 O47 1.254 . S
C63 O48 1.257 . S
C64 O49 1.266 . S
C64 O50 1.236 . S
C65 C68 1.344 . S
C65 C69 1.328 1_655 S
C65 C71 1.516 . S
C66 C67 1.304 . S
C66 C70 1.323 . S
C67 C66 1.304 . S
C67 C68 1.371 1_455 S
C67 H76 0.930 . S
C68 C65 1.344 . S
C68 C67 1.371 1_655 S
C68 H77 0.931 . S
C69 C65 1.328 1_455 S
C69 C70 1.433 . S
C69 H78 0.931 1_455 S
C70 C66 1.323 . S
C70 C69 1.433 . S
C70 H79 0.933 . S
C71 Dy41 2.738 . S
C71 O51 1.255 . S
C71 O52 1.249 . S
C71 C65 1.516 . S
H72 C58 0.930 . S
H73 C59 0.931 . S
H74 C60 0.931 . S
H75 C61 0.933 . S
H76 C67 0.930 . S
H77 C68 0.931 . S
H78 C69 0.931 1_655 S
H79 C70 0.933 . S
Dy80 O83 2.307 . S
Dy80 O85 2.395 . S
Dy80 O86 2.379 . S
Dy80 O88 2.339 . S
Dy80 O90 2.298 . S
Dy80 O94 2.275 . S
Dy80 C102 2.738 . S
Dy81 O84 2.298 . S
Dy81 O87 2.275 . S
Dy81 O89 2.307 . S
Dy81 O91 2.395 . S
Dy81 O92 2.379 . S
Dy81 O95 2.339 . S
Dy81 C111 2.738 . S
C82 O94 1.254 . S
C82 O95 1.257 . S
O83 Dy80 2.307 . S
O83 C93 1.266 . S
O84 Dy81 2.298 . S
O84 C93 1.236 . S
O85 Dy80 2.395 . S
O85 C102 1.255 . S
O86 Dy80 2.379 . S
O86 C102 1.249 . S
O87 Dy81 2.275 . S
O87 C103 1.254 . S
O88 Dy80 2.339 . S
O88 C103 1.257 . S
O89 Dy81 2.307 . S
O89 C104 1.266 . S
O90 Dy80 2.298 . S
O90 C104 1.236 . S
O91 Dy81 2.395 . S
O91 C111 1.255 . S
O92 Dy81 2.379 . S
O92 C111 1.249 . S
C93 O83 1.266 . S
C93 O84 1.236 . S
O94 Dy80 2.275 . S
O94 C82 1.254 . S
O95 Dy81 2.339 . S
O95 C82 1.257 . S
C96 C99 1.344 . S
C96 C100 1.328 . S
C96 C102 1.516 . S
C97 C98 1.304 . S
C97 C101 1.323 . S
C98 C97 1.304 . S
C98 C99 1.371 . S
C98 H112 0.930 . S
C99 C96 1.344 . S
C99 C98 1.371 . S
C99 H113 0.931 . S
C100 C96 1.328 . S
C100 C101 1.433 . S
C100 H114 0.931 . S
C101 C97 1.323 . S
C101 C100 1.433 . S
C101 H115 0.933 . S
C102 Dy80 2.738 . S
C102 O85 1.255 . S
C102 O86 1.249 . S
C102 C96 1.516 . S
C103 O87 1.254 . S
C103 O88 1.257 . S
C104 O89 1.266 . S
C104 O90 1.236 . S
C105 C108 1.344 . S
C105 C109 1.328 1_545 S
C105 C111 1.516 . S
C106 C107 1.304 . S
C106 C110 1.323 . S
C107 C106 1.304 . S
C107 C108 1.371 1_565 S
C107 H116 0.930 . S
C108 C105 1.344 . S
C108 C107 1.371 1_545 S
C108 H117 0.931 . S
C109 C105 1.328 1_565 S
C109 C110 1.433 . S
C109 H118 0.931 1_565 S
C110 C106 1.323 . S
C110 C109 1.433 . S
C110 H119 0.933 . S
C111 Dy81 2.738 . S
C111 O91 1.255 . S
C111 O92 1.249 . S
C111 C105 1.516 . S
H112 C98 0.930 . S
H113 C99 0.931 . S
H114 C100 0.931 . S
H115 C101 0.933 . S
H116 C107 0.930 . S
H117 C108 0.931 . S
H118 C109 0.931 1_545 S
H119 C110 0.933 . S
Dy120 O123 2.307 . S
Dy120 O125 2.395 . S
Dy120 O126 2.379 . S
Dy120 O128 2.339 . S
Dy120 O130 2.298 . S
Dy120 O134 2.275 . S
Dy120 C142 2.738 . S
Dy121 O124 2.298 . S
Dy121 O127 2.275 . S
Dy121 O129 2.307 . S
Dy121 O131 2.395 . S
Dy121 O132 2.379 . S
Dy121 O135 2.339 . S
Dy121 C151 2.738 . S
C122 O134 1.254 . S
C122 O135 1.257 . S
O123 Dy120 2.307 . S
O123 C133 1.266 . S
O124 Dy121 2.298 . S
O124 C133 1.236 . S
O125 Dy120 2.395 . S
O125 C142 1.255 . S
O126 Dy120 2.379 . S
O126 C142 1.249 . S
O127 Dy121 2.275 . S
O127 C143 1.254 . S
O128 Dy120 2.339 . S
O128 C143 1.257 . S
O129 Dy121 2.307 . S
O129 C144 1.266 . S
O130 Dy120 2.298 . S
O130 C144 1.236 . S
O131 Dy121 2.395 . S
O131 C151 1.255 . S
O132 Dy121 2.379 . S
O132 C151 1.249 . S
C133 O123 1.266 . S
C133 O124 1.236 . S
O134 Dy120 2.275 . S
O134 C122 1.254 . S
O135 Dy121 2.339 . S
O135 C122 1.257 . S
C136 C139 1.344 . S
C136 C140 1.328 . S
C136 C142 1.516 . S
C137 C138 1.304 . S
C137 C141 1.323 . S
C138 C137 1.304 . S
C138 C139 1.371 . S
C138 H152 0.930 . S
C139 C136 1.344 . S
C139 C138 1.371 . S
C139 H153 0.931 . S
C140 C136 1.328 . S
C140 C141 1.433 . S
C140 H154 0.931 . S
C141 C137 1.323 . S
C141 C140 1.433 . S
C141 H155 0.933 . S
C142 Dy120 2.738 . S
C142 O125 1.255 . S
C142 O126 1.249 . S
C142 C136 1.516 . S
C143 O127 1.254 . S
C143 O128 1.257 . S
C144 O129 1.266 . S
C144 O130 1.236 . S
C145 C148 1.344 . S
C145 C149 1.328 . S
C145 C151 1.516 . S
C146 C147 1.304 . S
C146 C150 1.323 . S
C147 C146 1.304 . S
C147 C148 1.371 . S
C147 H156 0.930 . S
C148 C145 1.344 . S
C148 C147 1.371 . S
C148 H157 0.931 . S
C149 C145 1.328 . S
C149 C150 1.433 . S
C149 H158 0.931 . S
C150 C146 1.323 . S
C150 C149 1.433 . S
C150 H159 0.933 . S
C151 Dy121 2.738 . S
C151 O131 1.255 . S
C151 O132 1.249 . S
C151 C145 1.516 . S
H152 C138 0.930 . S
H153 C139 0.931 . S
H154 C140 0.931 . S
H155 C141 0.933 . S
H156 C147 0.930 . S
H157 C148 0.931 . S
H158 C149 0.931 . S
H159 C150 0.933 . S
Dy160 O163 2.307 . S
Dy160 O165 2.395 . S
Dy160 O166 2.379 . S
Dy160 O168 2.339 . S
Dy160 O170 2.298 . S
Dy160 O174 2.275 . S
Dy160 C182 2.738 . S
Dy161 O164 2.298 . S
Dy161 O167 2.275 . S
Dy161 O169 2.307 . S
Dy161 O171 2.395 . S
Dy161 O172 2.379 . S
Dy161 O175 2.339 . S
Dy161 C191 2.738 . S
C162 O174 1.254 . S
C162 O175 1.257 . S
O163 Dy160 2.307 . S
O163 C173 1.266 . S
O164 Dy161 2.298 . S
O164 C173 1.236 . S
O165 Dy160 2.395 . S
O165 C182 1.255 . S
O166 Dy160 2.379 . S
O166 C182 1.249 . S
O167 Dy161 2.275 . S
O167 C183 1.254 . S
O168 Dy160 2.339 . S
O168 C183 1.257 . S
O169 Dy161 2.307 . S
O169 C184 1.266 . S
O170 Dy160 2.298 . S
O170 C184 1.236 . S
O171 Dy161 2.395 . S
O171 C191 1.255 . S
O172 Dy161 2.379 . S
O172 C191 1.249 . S
C173 O163 1.266 . S
C173 O164 1.236 . S
O174 Dy160 2.275 . S
O174 C162 1.254 . S
O175 Dy161 2.339 . S
O175 C162 1.257 . S
C176 C179 1.344 . S
C176 C180 1.328 . S
C176 C182 1.516 . S
C177 C178 1.304 . S
C177 C181 1.323 . S
C178 C177 1.304 . S
C178 C179 1.371 . S
C178 H192 0.930 . S
C179 C176 1.344 . S
C179 C178 1.371 . S
C179 H193 0.931 . S
C180 C176 1.328 . S
C180 C181 1.433 . S
C180 H194 0.931 . S
C181 C177 1.323 . S
C181 C180 1.433 . S
C181 H195 0.933 . S
C182 Dy160 2.738 . S
C182 O165 1.255 . S
C182 O166 1.249 . S
C182 C176 1.516 . S
C183 O167 1.254 . S
C183 O168 1.257 . S
C184 O169 1.266 . S
C184 O170 1.236 . S
C185 C188 1.344 . S
C185 C189 1.328 1_455 S
C185 C191 1.516 . S
C186 C187 1.304 . S
C186 C190 1.323 . S
C187 C186 1.304 . S
C187 C188 1.371 1_655 S
C187 H196 0.930 . S
C188 C185 1.344 . S
C188 C187 1.371 1_455 S
C188 H197 0.931 . S
C189 C185 1.328 1_655 S
C189 C190 1.433 . S
C189 H198 0.931 1_655 S
C190 C186 1.323 . S
C190 C189 1.433 . S
C190 H199 0.933 . S
C191 Dy161 2.738 . S
C191 O171 1.255 . S
C191 O172 1.249 . S
C191 C185 1.516 . S
H192 C178 0.930 . S
H193 C179 0.931 . S
H194 C180 0.931 . S
H195 C181 0.933 . S
H196 C187 0.930 . S
H197 C188 0.931 . S
H198 C189 0.931 1_455 S
H199 C190 0.933 . S
Dy200 O203 2.307 . S
Dy200 O205 2.395 . S
Dy200 O206 2.379 . S
Dy200 O208 2.339 . S
Dy200 O210 2.298 . S
Dy200 O214 2.275 . S
Dy200 C222 2.738 . S
Dy201 O204 2.298 . S
Dy201 O207 2.275 . S
Dy201 O209 2.307 . S
Dy201 O211 2.395 . S
Dy201 O212 2.379 . S
Dy201 O215 2.339 . S
Dy201 C231 2.738 . S
C202 O214 1.254 . S
C202 O215 1.257 . S
O203 Dy200 2.307 . S
O203 C213 1.266 . S
O204 Dy201 2.298 . S
O204 C213 1.236 . S
O205 Dy200 2.395 . S
O205 C222 1.255 . S
O206 Dy200 2.379 . S
O206 C222 1.249 . S
O207 Dy201 2.275 . S
O207 C223 1.254 . S
O208 Dy200 2.339 . S
O208 C223 1.257 . S
O209 Dy201 2.307 . S
O209 C224 1.266 . S
O210 Dy200 2.298 . S
O210 C224 1.236 . S
O211 Dy201 2.395 . S
O211 C231 1.255 . S
O212 Dy201 2.379 . S
O212 C231 1.249 . S
C213 O203 1.266 . S
C213 O204 1.236 . S
O214 Dy200 2.275 . S
O214 C202 1.254 . S
O215 Dy201 2.339 . S
O215 C202 1.257 . S
C216 C219 1.344 . S
C216 C220 1.328 . S
C216 C222 1.516 . S
C217 C218 1.304 . S
C217 C221 1.323 . S
C218 C217 1.304 . S
C218 C219 1.371 . S
C218 H232 0.930 . S
C219 C216 1.344 . S
C219 C218 1.371 . S
C219 H233 0.931 . S
C220 C216 1.328 . S
C220 C221 1.433 . S
C220 H234 0.931 . S
C221 C217 1.323 . S
C221 C220 1.433 . S
C221 H235 0.933 . S
C222 Dy200 2.738 . S
C222 O205 1.255 . S
C222 O206 1.249 . S
C222 C216 1.516 . S
C223 O207 1.254 . S
C223 O208 1.257 . S
C224 O209 1.266 . S
C224 O210 1.236 . S
C225 C228 1.344 . S
C225 C229 1.328 1_565 S
C225 C231 1.516 . S
C226 C227 1.304 . S
C226 C230 1.323 . S
C227 C226 1.304 . S
C227 C228 1.371 1_545 S
C227 H236 0.930 . S
C228 C225 1.344 . S
C228 C227 1.371 1_565 S
C228 H237 0.931 . S
C229 C225 1.328 1_545 S
C229 C230 1.433 . S
C229 H238 0.931 1_545 S
C230 C226 1.323 . S
C230 C229 1.433 . S
C230 H239 0.933 . S
C231 Dy201 2.738 . S
C231 O211 1.255 . S
C231 O212 1.249 . S
C231 C225 1.516 . S
H232 C218 0.930 . S
H233 C219 0.931 . S
H234 C220 0.931 . S
H235 C221 0.933 . S
H236 C227 0.930 . S
H237 C228 0.931 . S
H238 C229 0.931 1_565 S
H239 C230 0.933 . S
C240 C241 1.387 . S
C240 H244 0.950 . S
C240 C249 1.390 1_566 S
C241 C240 1.387 . S
C241 C243 1.387 . S
H242 C249 0.950 . S
C243 C241 1.387 . S
C243 C245 1.390 1_566 S
C243 H247 0.950 . S
H244 C240 0.950 . S
C245 C243 1.390 1_544 S
C245 C246 1.387 . S
C245 H248 0.950 . S
C246 C245 1.387 . S
C246 C249 1.387 . S
H247 C243 0.950 . S
H248 C245 0.950 . S
C249 C240 1.390 1_544 S
C249 H242 0.950 . S
C249 C246 1.387 . S
C250 C251 1.387 . S
C250 H254 0.950 . S
C250 C259 1.390 . S
C251 C250 1.387 . S
C251 C253 1.387 . S
H252 C259 0.950 . S
C253 C251 1.387 . S
C253 C255 1.390 . S
C253 H257 0.950 . S
H254 C250 0.950 . S
C255 C253 1.390 . S
C255 C256 1.387 . S
C255 H258 0.950 . S
C256 C255 1.387 . S
C256 C259 1.387 . S
H257 C253 0.950 . S
H258 C255 0.950 . S
C259 C250 1.390 . S
C259 H252 0.950 . S
C259 C256 1.387 . S
C260 C261 1.387 1_455 S
C260 H264 0.950 . S
C260 C269 1.390 . S
C261 C260 1.387 1_655 S
C261 C263 1.387 1_554 S
H262 C269 0.950 . S
C263 C261 1.387 1_556 S
C263 C265 1.390 . S
C263 H267 0.950 . S
H264 C260 0.950 . S
C265 C263 1.390 . S
C265 C266 1.387 1_655 S
C265 H268 0.950 . S
C266 C265 1.387 1_455 S
C266 C269 1.387 1_556 S
H267 C263 0.950 . S
H268 C265 0.950 . S
C269 C260 1.390 . S
C269 H262 0.950 . S
C269 C266 1.387 1_554 S
C270 C271 1.387 . S
C270 H274 0.950 . S
C270 C279 1.390 1_545 S
C271 C270 1.387 . S
C271 C273 1.387 . S
H272 C279 0.950 . S
C273 C271 1.387 . S
C273 C275 1.390 1_545 S
C273 H277 0.950 . S
H274 C270 0.950 . S
C275 C273 1.390 1_565 S
C275 C276 1.387 . S
C275 H278 0.950 . S
C276 C275 1.387 . S
C276 C279 1.387 . S
H277 C273 0.950 . S
H278 C275 0.950 . S
C279 C270 1.390 1_565 S
C279 H272 0.950 . S
C279 C276 1.387 . S
C280 C281 1.387 . S
C280 H284 0.950 . S
C280 C289 1.390 1_556 S
C281 C280 1.387 . S
C281 C283 1.387 . S
H282 C289 0.950 . S
C283 C281 1.387 . S
C283 C285 1.390 1_556 S
C283 H287 0.950 . S
H284 C280 0.950 . S
C285 C283 1.390 1_554 S
C285 C286 1.387 . S
C285 H288 0.950 . S
C286 C285 1.387 . S
C286 C289 1.387 . S
H287 C283 0.950 . S
H288 C285 0.950 . S
C289 C280 1.390 1_554 S
C289 H282 0.950 . S
C289 C286 1.387 . S
C290 C291 1.387 . S
C290 H294 0.950 . S
C290 C299 1.390 1_655 S
C291 C290 1.387 . S
C291 C293 1.387 . S
H292 C299 0.950 . S
C293 C291 1.387 . S
C293 C295 1.390 1_655 S
C293 H297 0.950 . S
H294 C290 0.950 . S
C295 C293 1.390 1_455 S
C295 C296 1.387 . S
C295 H298 0.950 . S
C296 C295 1.387 . S
C296 C299 1.387 . S
H297 C293 0.950 . S
H298 C295 0.950 . S
C299 C290 1.390 1_455 S
C299 H292 0.950 . S
C299 C296 1.387 . S
C300 C301 1.387 . S
C300 H304 0.950 . S
C300 C309 1.390 . S
C301 C300 1.387 . S
C301 C303 1.387 . S
H302 C309 0.950 . S
C303 C301 1.387 . S
C303 C305 1.390 . S
C303 H307 0.950 . S
H304 C300 0.950 . S
C305 C303 1.390 . S
C305 C306 1.387 . S
C305 H308 0.950 . S
C306 C305 1.387 . S
C306 C309 1.387 . S
H307 C303 0.950 . S
H308 C305 0.950 . S
C309 C300 1.390 . S
C309 H302 0.950 . S
C309 C306 1.387 . S
C310 C311 1.387 . S
C310 H314 0.950 . S
C310 C319 1.390 . S
C311 C310 1.387 . S
C311 C313 1.387 . S
H312 C319 0.950 . S
C313 C311 1.387 . S
C313 C315 1.390 . S
C313 H317 0.950 . S
H314 C310 0.950 . S
C315 C313 1.390 . S
C315 C316 1.387 . S
C315 H318 0.950 . S
C316 C315 1.387 . S
C316 C319 1.387 . S
H317 C313 0.950 . S
H318 C315 0.950 . S
C319 C310 1.390 . S
C319 H312 0.950 . S
C319 C316 1.387 . S
C320 C321 1.387 . S
C320 H324 0.950 . S
C320 C329 1.390 . S
C321 C320 1.387 . S
C321 C323 1.387 . S
H322 C329 0.950 . S
C323 C321 1.387 . S
C323 C325 1.390 . S
C323 H327 0.950 . S
H324 C320 0.950 . S
C325 C323 1.390 . S
C325 C326 1.387 . S
C325 H328 0.950 . S
C326 C325 1.387 . S
C326 C329 1.387 . S
H327 C323 0.950 . S
H328 C325 0.950 . S
C329 C320 1.390 . S
C329 H322 0.950 . S
C329 C326 1.387 . S
C330 C331 1.387 . S
C330 H334 0.950 . S
C330 C339 1.390 . S
C331 C330 1.387 . S
C331 C333 1.387 . S
H332 C339 0.950 . S
C333 C331 1.387 . S
C333 C335 1.390 . S
C333 H337 0.950 . S
H334 C330 0.950 . S
C335 C333 1.390 . S
C335 C336 1.387 . S
C335 H338 0.950 . S
C336 C335 1.387 . S
C336 C339 1.387 . S
H337 C333 0.950 . S
H338 C335 0.950 . S
C339 C330 1.390 . S
C339 H332 0.950 . S
C339 C336 1.387 . S
C340 C341 1.387 . S
C340 H344 0.950 . S
C340 C349 1.390 . S
C341 C340 1.387 . S
C341 C343 1.387 . S
H342 C349 0.950 . S
C343 C341 1.387 . S
C343 C345 1.390 . S
C343 H347 0.950 . S
H344 C340 0.950 . S
C345 C343 1.390 . S
C345 C346 1.387 . S
C345 H348 0.950 . S
C346 C345 1.387 . S
C346 C349 1.387 . S
H347 C343 0.950 . S
H348 C345 0.950 . S
C349 C340 1.390 . S
C349 H342 0.950 . S
C349 C346 1.387 . S
C350 C351 1.387 . S
C350 H354 0.950 . S
C350 C359 1.390 . S
C351 C350 1.387 . S
C351 C353 1.387 . S
H352 C359 0.950 . S
C353 C351 1.387 . S
C353 C355 1.390 . S
C353 H357 0.950 . S
H354 C350 0.950 . S
C355 C353 1.390 . S
C355 C356 1.387 . S
C355 H358 0.950 . S
C356 C355 1.387 . S
C356 C359 1.387 . S
H357 C353 0.950 . S
H358 C355 0.950 . S
C359 C350 1.390 . S
C359 H352 0.950 . S
C359 C356 1.387 . S
C360 C361 1.387 . S
C360 H364 0.950 . S
C360 C369 1.390 . S
C361 C360 1.387 . S
C361 C363 1.387 . S
H362 C369 0.953 . S
C363 C361 1.387 . S
C363 C365 1.390 . S
C363 H367 0.950 . S
H364 C360 0.950 . S
C365 C363 1.390 . S
C365 C366 1.387 . S
C365 H368 0.950 . S
C366 C365 1.387 . S
C366 C369 1.387 . S
H367 C363 0.950 . S
H368 C365 0.950 . S
C369 C360 1.390 . S
C369 H362 0.953 . S
C369 C366 1.387 . S
C370 C371 1.387 1_545 S
C370 H374 0.950 . S
C370 C379 1.390 . S
C371 C370 1.387 1_565 S
C371 C373 1.387 . S
H372 C379 0.950 . S
C373 C371 1.387 . S
C373 C375 1.390 . S
C373 H377 0.950 . S
H374 C370 0.950 . S
C375 C373 1.390 . S
C375 C376 1.387 . S
C375 H378 0.950 . S
C376 C375 1.387 . S
C376 C379 1.387 1_565 S
H377 C373 0.950 . S
H378 C375 0.950 . S
C379 C370 1.390 . S
C379 H372 0.950 . S
C379 C376 1.387 1_545 S
C380 C381 1.387 . S
C380 H384 0.950 . S
C380 C389 1.390 . S
C381 C380 1.387 . S
C381 C383 1.387 . S
H382 C389 0.950 . S
C383 C381 1.387 . S
C383 C385 1.390 . S
C383 H387 0.950 . S
H384 C380 0.950 . S
C385 C383 1.390 . S
C385 C386 1.387 . S
C385 H388 0.950 . S
C386 C385 1.387 . S
C386 C389 1.387 . S
H387 C383 0.950 . S
H388 C385 0.950 . S
C389 C380 1.390 . S
C389 H382 0.950 . S
C389 C386 1.387 . S
C390 C391 1.387 . S
C390 H394 0.950 1_545 S
C390 C399 1.390 1_545 S
C391 C390 1.387 . S
C391 C393 1.387 . S
H392 C399 0.950 . S
C393 C391 1.387 . S
C393 C395 1.390 . S
C393 H397 0.950 . S
H394 C390 0.950 1_565 S
C395 C393 1.390 . S
C395 C396 1.387 . S
C395 H398 0.950 . S
C396 C395 1.387 . S
C396 C399 1.387 1_545 S
H397 C393 0.950 . S
H398 C395 0.950 . S
C399 C390 1.390 1_565 S
C399 H392 0.950 . S
C399 C396 1.387 1_565 S
C400 C401 1.387 . S
C400 H404 0.950 . S
C400 C409 1.390 . S
C401 C400 1.387 . S
C401 C403 1.387 . S
H402 C409 0.950 . S
C403 C401 1.387 . S
C403 C405 1.390 . S
C403 H407 0.950 . S
H404 C400 0.950 . S
C405 C403 1.390 . S
C405 C406 1.387 . S
C405 H408 0.950 . S
C406 C405 1.387 . S
C406 C409 1.387 . S
H407 C403 0.950 . S
H408 C405 0.950 . S
C409 C400 1.390 . S
C409 H402 0.950 . S
C409 C406 1.387 . S
C410 C411 1.387 . S
C410 H414 0.950 . S
C410 C419 1.390 . S
C411 C410 1.387 . S
C411 C413 1.387 1_655 S
H412 C419 0.950 . S
C413 C411 1.387 1_455 S
C413 C415 1.390 1_455 S
C413 H417 0.950 . S
H414 C410 0.950 . S
C415 C413 1.390 1_655 S
C415 C416 1.387 . S
C415 H418 0.950 . S
C416 C415 1.387 . S
C416 C419 1.387 . S
H417 C413 0.950 . S
H418 C415 0.950 . S
C419 C410 1.390 . S
C419 H412 0.950 . S
C419 C416 1.387 . S
C241 C183 2.351 . S
C246 C23 2.351 . S
C251 C202 2.621 . S
C256 C42 2.620 . S
C261 C103 2.352 . S
C266 C143 2.354 . S
C271 C2 2.622 . S
C276 C162 2.622 . S
C281 C223 2.354 . S
C286 C63 2.354 . S
C291 C82 2.620 . S
C296 C122 2.620 . S
C301 C17 1.891 . S
C306 C104 1.908 . S
C311 C57 1.891 . S
C316 C24 1.908 . S
C321 C97 1.891 . S
C326 C64 1.908 . S
C331 C137 1.887 . S
C336 C184 1.905 . S
C341 C177 1.891 . S
C346 C224 1.908 . S
C351 C144 1.905 . S
C356 C217 1.888 . S
C361 C26 1.314 . S
C366 C93 1.303 1_455 S
C371 C66 1.313 . S
C376 C13 1.302 1_565 S
C381 C106 1.313 . S
C386 C53 1.303 . S
C391 C146 1.309 . S
C396 C173 1.299 1_545 S
C401 C186 1.314 . S
C406 C213 1.303 . S
C411 C133 1.303 1_655 S
C416 C226 1.313 . S
