# Generated by pormake.
# Topology ict, (4)-cn, num edge types: 1
# Building blocks:
#     Node 0, Type 0, BuildingBlock: NAHDIM_clean_sbu_0, # of connection points: 4
#     Node 1, Type 0, BuildingBlock: NAHDIM_clean_sbu_0, # of connection points: 4
#     Node 2, Type 0, BuildingBlock: NAHDIM_clean_sbu_0, # of connection points: 4
#     Node 3, Type 0, BuildingBlock: NAHDIM_clean_sbu_0, # of connection points: 4
#     Node 4, Type 0, BuildingBlock: NAHDIM_clean_sbu_0, # of connection points: 4
#     Node 5, Type 0, BuildingBlock: NAHDIM_clean_sbu_0, # of connection points: 4
#     Node 6, Type 0, BuildingBlock: NAHDIM_clean_sbu_0, # of connection points: 4
#     Node 7, Type 0, BuildingBlock: NAHDIM_clean_sbu_0, # of connection points: 4
#     Node 8, Type 0, BuildingBlock: NAHDIM_clean_sbu_0, # of connection points: 4
#     Node 9, Type 0, BuildingBlock: NAHDIM_clean_sbu_0, # of connection points: 4
#     Node 10, Type 0, BuildingBlock: NAHDIM_clean_sbu_0, # of connection points: 4
#     Node 11, Type 0, BuildingBlock: NAHDIM_clean_sbu_0, # of connection points: 4
#     Node 12, Type 0, BuildingBlock: NAHDIM_clean_sbu_0, # of connection points: 4
#     Node 13, Type 0, BuildingBlock: NAHDIM_clean_sbu_0, # of connection points: 4
#     Node 14, Type 0, BuildingBlock: NAHDIM_clean_sbu_0, # of connection points: 4
#     Node 15, Type 0, BuildingBlock: NAHDIM_clean_sbu_0, # of connection points: 4
#     Node 16, Type 0, BuildingBlock: NAHDIM_clean_sbu_0, # of connection points: 4
#     Node 17, Type 0, BuildingBlock: NAHDIM_clean_sbu_0, # of connection points: 4
#     Node 18, Type 0, BuildingBlock: NAHDIM_clean_sbu_0, # of connection points: 4
#     Node 19, Type 0, BuildingBlock: NAHDIM_clean_sbu_0, # of connection points: 4
#     Node 20, Type 0, BuildingBlock: NAHDIM_clean_sbu_0, # of connection points: 4
#     Node 21, Type 0, BuildingBlock: NAHDIM_clean_sbu_0, # of connection points: 4
#     Node 22, Type 0, BuildingBlock: NAHDIM_clean_sbu_0, # of connection points: 4
#     Node 23, Type 0, BuildingBlock: NAHDIM_clean_sbu_0, # of connection points: 4
#     Node 24, Type 0, BuildingBlock: NAHDIM_clean_sbu_0, # of connection points: 4
#     Node 25, Type 0, BuildingBlock: NAHDIM_clean_sbu_0, # of connection points: 4
#     Node 26, Type 0, BuildingBlock: NAHDIM_clean_sbu_0, # of connection points: 4
#     Node 27, Type 0, BuildingBlock: NAHDIM_clean_sbu_0, # of connection points: 4
#     Node 28, Type 0, BuildingBlock: NAHDIM_clean_sbu_0, # of connection points: 4
#     Node 29, Type 0, BuildingBlock: NAHDIM_clean_sbu_0, # of connection points: 4
#     Node 30, Type 0, BuildingBlock: NAHDIM_clean_sbu_0, # of connection points: 4
#     Node 31, Type 0, BuildingBlock: NAHDIM_clean_sbu_0, # of connection points: 4
#     Node 32, Type 0, BuildingBlock: NAHDIM_clean_sbu_0, # of connection points: 4
#     Node 33, Type 0, BuildingBlock: NAHDIM_clean_sbu_0, # of connection points: 4
#     Node 34, Type 0, BuildingBlock: NAHDIM_clean_sbu_0, # of connection points: 4
#     Node 35, Type 0, BuildingBlock: NAHDIM_clean_sbu_0, # of connection points: 4
#     Edge 36, Type (0, 0), BuildingBlock: TEMPAE_clean_linker_10, # of connection points: 2
#     Edge 37, Type (0, 0), BuildingBlock: TEMPAE_clean_linker_10, # of connection points: 2
#     Edge 38, Type (0, 0), BuildingBlock: TEMPAE_clean_linker_10, # of connection points: 2
#     Edge 39, Type (0, 0), BuildingBlock: TEMPAE_clean_linker_10, # of connection points: 2
#     Edge 40, Type (0, 0), BuildingBlock: TEMPAE_clean_linker_10, # of connection points: 2
#     Edge 41, Type (0, 0), BuildingBlock: TEMPAE_clean_linker_10, # of connection points: 2
#     Edge 42, Type (0, 0), BuildingBlock: TEMPAE_clean_linker_10, # of connection points: 2
#     Edge 43, Type (0, 0), BuildingBlock: TEMPAE_clean_linker_10, # of connection points: 2
#     Edge 44, Type (0, 0), BuildingBlock: TEMPAE_clean_linker_10, # of connection points: 2
#     Edge 45, Type (0, 0), BuildingBlock: TEMPAE_clean_linker_10, # of connection points: 2
#     Edge 46, Type (0, 0), BuildingBlock: TEMPAE_clean_linker_10, # of connection points: 2
#     Edge 47, Type (0, 0), BuildingBlock: TEMPAE_clean_linker_10, # of connection points: 2
#     Edge 48, Type (0, 0), BuildingBlock: TEMPAE_clean_linker_10, # of connection points: 2
#     Edge 49, Type (0, 0), BuildingBlock: TEMPAE_clean_linker_10, # of connection points: 2
#     Edge 50, Type (0, 0), BuildingBlock: TEMPAE_clean_linker_10, # of connection points: 2
#     Edge 51, Type (0, 0), BuildingBlock: TEMPAE_clean_linker_10, # of connection points: 2
#     Edge 52, Type (0, 0), BuildingBlock: TEMPAE_clean_linker_10, # of connection points: 2
#     Edge 53, Type (0, 0), BuildingBlock: TEMPAE_clean_linker_10, # of connection points: 2
#     Edge 54, Type (0, 0), BuildingBlock: TEMPAE_clean_linker_10, # of connection points: 2
#     Edge 55, Type (0, 0), BuildingBlock: TEMPAE_clean_linker_10, # of connection points: 2
#     Edge 56, Type (0, 0), BuildingBlock: TEMPAE_clean_linker_10, # of connection points: 2
#     Edge 57, Type (0, 0), BuildingBlock: TEMPAE_clean_linker_10, # of connection points: 2
#     Edge 58, Type (0, 0), BuildingBlock: TEMPAE_clean_linker_10, # of connection points: 2
#     Edge 59, Type (0, 0), BuildingBlock: TEMPAE_clean_linker_10, # of connection points: 2
#     Edge 60, Type (0, 0), BuildingBlock: TEMPAE_clean_linker_10, # of connection points: 2
#     Edge 61, Type (0, 0), BuildingBlock: TEMPAE_clean_linker_10, # of connection points: 2
#     Edge 62, Type (0, 0), BuildingBlock: TEMPAE_clean_linker_10, # of connection points: 2
#     Edge 63, Type (0, 0), BuildingBlock: TEMPAE_clean_linker_10, # of connection points: 2
#     Edge 64, Type (0, 0), BuildingBlock: TEMPAE_clean_linker_10, # of connection points: 2
#     Edge 65, Type (0, 0), BuildingBlock: TEMPAE_clean_linker_10, # of connection points: 2
#     Edge 66, Type (0, 0), BuildingBlock: TEMPAE_clean_linker_10, # of connection points: 2
#     Edge 67, Type (0, 0), BuildingBlock: TEMPAE_clean_linker_10, # of connection points: 2
#     Edge 68, Type (0, 0), BuildingBlock: TEMPAE_clean_linker_10, # of connection points: 2
#     Edge 69, Type (0, 0), BuildingBlock: TEMPAE_clean_linker_10, # of connection points: 2
#     Edge 70, Type (0, 0), BuildingBlock: TEMPAE_clean_linker_10, # of connection points: 2
#     Edge 71, Type (0, 0), BuildingBlock: TEMPAE_clean_linker_10, # of connection points: 2
#     Edge 72, Type (0, 0), BuildingBlock: TEMPAE_clean_linker_10, # of connection points: 2
#     Edge 73, Type (0, 0), BuildingBlock: TEMPAE_clean_linker_10, # of connection points: 2
#     Edge 74, Type (0, 0), BuildingBlock: TEMPAE_clean_linker_10, # of connection points: 2
#     Edge 75, Type (0, 0), BuildingBlock: TEMPAE_clean_linker_10, # of connection points: 2
#     Edge 76, Type (0, 0), BuildingBlock: TEMPAE_clean_linker_10, # of connection points: 2
#     Edge 77, Type (0, 0), BuildingBlock: TEMPAE_clean_linker_10, # of connection points: 2
#     Edge 78, Type (0, 0), BuildingBlock: TEMPAE_clean_linker_10, # of connection points: 2
#     Edge 79, Type (0, 0), BuildingBlock: TEMPAE_clean_linker_10, # of connection points: 2
#     Edge 80, Type (0, 0), BuildingBlock: TEMPAE_clean_linker_10, # of connection points: 2
#     Edge 81, Type (0, 0), BuildingBlock: TEMPAE_clean_linker_10, # of connection points: 2
#     Edge 82, Type (0, 0), BuildingBlock: TEMPAE_clean_linker_10, # of connection points: 2
#     Edge 83, Type (0, 0), BuildingBlock: TEMPAE_clean_linker_10, # of connection points: 2
#     Edge 84, Type (0, 0), BuildingBlock: TEMPAE_clean_linker_10, # of connection points: 2
#     Edge 85, Type (0, 0), BuildingBlock: TEMPAE_clean_linker_10, # of connection points: 2
#     Edge 86, Type (0, 0), BuildingBlock: TEMPAE_clean_linker_10, # of connection points: 2
#     Edge 87, Type (0, 0), BuildingBlock: TEMPAE_clean_linker_10, # of connection points: 2
#     Edge 88, Type (0, 0), BuildingBlock: TEMPAE_clean_linker_10, # of connection points: 2
#     Edge 89, Type (0, 0), BuildingBlock: TEMPAE_clean_linker_10, # of connection points: 2
#     Edge 90, Type (0, 0), BuildingBlock: TEMPAE_clean_linker_10, # of connection points: 2
#     Edge 91, Type (0, 0), BuildingBlock: TEMPAE_clean_linker_10, # of connection points: 2
#     Edge 92, Type (0, 0), BuildingBlock: TEMPAE_clean_linker_10, # of connection points: 2
#     Edge 93, Type (0, 0), BuildingBlock: TEMPAE_clean_linker_10, # of connection points: 2
#     Edge 94, Type (0, 0), BuildingBlock: TEMPAE_clean_linker_10, # of connection points: 2
#     Edge 95, Type (0, 0), BuildingBlock: TEMPAE_clean_linker_10, # of connection points: 2
#     Edge 96, Type (0, 0), BuildingBlock: TEMPAE_clean_linker_10, # of connection points: 2
#     Edge 97, Type (0, 0), BuildingBlock: TEMPAE_clean_linker_10, # of connection points: 2
#     Edge 98, Type (0, 0), BuildingBlock: TEMPAE_clean_linker_10, # of connection points: 2
#     Edge 99, Type (0, 0), BuildingBlock: TEMPAE_clean_linker_10, # of connection points: 2
#     Edge 100, Type (0, 0), BuildingBlock: TEMPAE_clean_linker_10, # of connection points: 2
#     Edge 101, Type (0, 0), BuildingBlock: TEMPAE_clean_linker_10, # of connection points: 2
#     Edge 102, Type (0, 0), BuildingBlock: TEMPAE_clean_linker_10, # of connection points: 2
#     Edge 103, Type (0, 0), BuildingBlock: TEMPAE_clean_linker_10, # of connection points: 2
#     Edge 104, Type (0, 0), BuildingBlock: TEMPAE_clean_linker_10, # of connection points: 2
#     Edge 105, Type (0, 0), BuildingBlock: TEMPAE_clean_linker_10, # of connection points: 2
#     Edge 106, Type (0, 0), BuildingBlock: TEMPAE_clean_linker_10, # of connection points: 2
#     Edge 107, Type (0, 0), BuildingBlock: TEMPAE_clean_linker_10, # of connection points: 2
# Relax obj value: 0.088
# Max RMSD: 0.120
# Mean RMSD: 0.120
data_MOF--net-ict--node1-NAHDIM_clean_sbu_0--edge1-TEMPAE_clean_linker_10
_symmetry_space_group_name_H-M    P1
_symmetry_Int_Tables_number       1
_symmetry_cell_setting            triclinic
loop_
_symmetry_equiv_pos_as_xyz
'x, y, z'
_cell_length_a     66.765641
_cell_length_b     66.768278
_cell_length_c     36.436673
_cell_angle_alpha  89.97879
_cell_angle_beta   90.008368
_cell_angle_gamma 119.99926
loop_
_atom_site_label
_atom_site_type_symbol
_atom_site_fract_x
_atom_site_fract_y
_atom_site_fract_z
_atom_type_partial_charge
C0 C 0.25721 0.26807 0.99444 0.0
O1 O 0.24397 0.27686 0.00224 0.0
O2 O 0.19449 0.22767 0.01708 0.0
Zn3 Zn 0.22241 0.22561 0.03224 0.0
O4 O 0.21669 0.19351 0.02275 0.0
C5 C 0.22207 0.24336 0.10552 0.0
O6 O 0.21268 0.25426 0.08932 0.0
O7 O 0.25106 0.24755 0.00444 0.0
C8 C 0.23039 0.18799 0.03798 0.0
O9 O 0.24728 0.20336 0.0585 0.0
C10 C 0.17527 0.21328 0.0316 0.0
O11 O 0.17474 0.19807 0.05507 0.0
O12 O 0.22776 0.23109 0.08641 0.0
C13 C 0.7585 0.01693 0.98536 0.0
O14 O 0.77861 0.02121 0.97234 0.0
O15 O 0.7693 0.96918 0.02929 0.0
Zn16 Zn 0.77285 -0.00042 0.04536 0.0
O17 O 0.80559 0.02585 0.03968 0.0
C18 C 0.77322 0.98961 0.12107 0.0
O19 O 0.78824 0.98387 0.10904 0.0
O20 O 0.75187 0.007 0.0163 0.0
C21 C 0.81026 0.04527 0.05318 0.0
O22 O 0.79388 0.04693 0.07049 0.0
C23 C 0.78422 0.96715 0.01051 0.0
O24 O 0.80308 0.98585 -0.00026 0.0
O25 O 0.76399 0.99698 0.09836 0.0
C26 C 0.9848 0.74339 0.96689 0.0
O27 O 0.98131 0.759 0.95078 0.0
O28 O 0.02401 0.8036 0.00902 0.0
Zn29 Zn 0.99523 0.77486 0.02553 0.0
O30 O 0.96721 0.77745 0.01292 0.0
C31 C 0.01424 0.7779 0.0986 0.0
O32 O 0.03424 0.78755 0.08149 0.0
O33 O 0.99195 0.74674 -0.00014 0.0
C34 C 0.95707 0.78349 0.03622 0.0
O35 O 0.96532 0.78883 0.06973 0.0
C36 C 0.02811 0.82311 0.02131 0.0
O37 O 0.01344 0.82389 0.04448 0.0
O38 O 0.9958 0.77096 0.08012 0.0
C39 C 0.23566 0.25529 0.51756 0.0
O40 O 0.21513 0.24002 0.53001 0.0
O41 O 0.21535 0.19501 0.46767 0.0
Zn42 Zn 0.21819 0.22583 0.45527 0.0
O43 O 0.18774 0.22464 0.46272 0.0
C44 C 0.21141 0.21923 0.3788 0.0
O45 O 0.19244 0.20113 0.39089 0.0
O46 O 0.24178 0.25221 0.48599 0.0
C47 C 0.16851 0.20644 0.4688 0.0
O48 O 0.16771 0.1864 0.47071 0.0
C49 C 0.22661 0.19173 0.49278 0.0
O50 O 0.24138 0.20933 0.51276 0.0
O51 O 0.2262 0.23283 0.40194 0.0
C52 C 0.74049 0.01113 0.51872 0.0
O53 O 0.76058 0.02754 0.53086 0.0
O54 O 0.79734 0.02885 0.48143 0.0
Zn55 Zn 0.76764 0.00064 0.46685 0.0
O56 O 0.76885 0.9719 0.47906 0.0
C57 C 0.74948 0.98492 0.39401 0.0
O58 O 0.73477 0.9659 0.41132 0.0
O59 O 0.73988 0.99861 0.49198 0.0
C60 C 0.78261 0.96703 0.46243 0.0
O61 O 0.79664 0.98141 0.43747 0.0
C62 C 0.80917 0.02982 0.5094 0.0
O63 O 0.80137 0.01189 0.53144 0.0
O64 O 0.76455 0.00198 0.41239 0.0
C65 C 0.99687 0.74154 0.5085 0.0
O66 O 0.98347 0.74867 0.52279 0.0
O67 O 0.9732 0.77308 0.46142 0.0
Zn68 Zn 0.00296 0.77363 0.44947 0.0
O69 O 0.03009 0.8051 0.46099 0.0
C70 C 0.00466 0.78387 0.37395 0.0
O71 O 0.00483 0.80203 0.3882 0.0
O72 O 0.00638 0.74951 0.4776 0.0
C73 C 0.0497 0.81112 0.44683 0.0
O74 O 0.05189 0.79639 0.42567 0.0
C75 C 0.9723 0.78628 0.48571 0.0
O76 O 0.99103 0.79995 0.50454 0.0
O77 O 0.00355 0.7683 0.39533 0.0
C78 C 0.73262 0.72596 0.00577 0.0
O79 O 0.75114 0.72397 0.0092 0.0
O80 O 0.79057 0.76582 0.97698 0.0
Zn81 Zn 0.7623 0.76717 0.96215 0.0
O82 O 0.76687 0.79848 0.97557 0.0
C83 C 0.75613 0.7467 0.88909 0.0
O84 O 0.7555 0.72905 0.90612 0.0
O85 O 0.73372 0.74256 0.98708 0.0
C86 C 0.75745 0.80734 0.95617 0.0
O87 O 0.7443 0.79551 0.92839 0.0
C88 C 0.81016 0.78259 0.96768 0.0
O89 O 0.81098 0.79981 0.94897 0.0
O90 O 0.7587 0.76393 0.90759 0.0
C91 C 0.24413 0.98738 0.01725 0.0
O92 O 0.22526 0.9852 0.03233 0.0
O93 O 0.22859 0.03007 0.97143 0.0
Zn94 Zn 0.2256 -0.00042 0.95714 0.0
O95 O 0.19403 0.97324 0.97007 0.0
C96 C 0.22676 0.01188 0.88121 0.0
O97 O 0.22083 0.0263 0.8952 0.0
O98 O 0.24883 0.99439 0.98427 0.0
C99 C 0.17589 0.96782 0.95158 0.0
O100 O 0.17727 0.98017 0.92262 0.0
C101 C 0.21584 0.03193 0.99549 0.0
O102 O 0.20042 0.01336 0.01296 0.0
O103 O 0.23017 0.99885 0.90263 0.0
C104 C 0.98779 0.25965 0.02802 0.0
O105 O 0.97368 0.23963 0.04332 0.0
O106 O 0.96631 0.20328 0.98543 0.0
Zn107 Zn 0.9964 0.23232 0.97421 0.0
O108 O 0.02354 0.22908 0.99011 0.0
C109 C 0.98246 0.23605 0.90065 0.0
O110 O 0.96279 0.23075 0.91669 0.0
O111 O 0.99851 0.26019 -0.00111 0.0
C112 C 0.0293 0.21668 0.97144 0.0
O113 O 0.01682 0.20551 0.94269 0.0
C114 C 0.96436 0.18973 0.01145 0.0
O115 O 0.98237 0.19498 0.03232 0.0
O116 O 0.99908 0.23775 0.91994 0.0
C117 C 0.76145 0.7503 0.47681 0.0
O118 O 0.78226 0.76516 0.46487 0.0
O119 O 0.78192 0.80895 0.53052 0.0
Zn120 Zn 0.77879 0.77787 0.54175 0.0
O121 O 0.80942 0.77908 0.53551 0.0
C122 C 0.78399 0.77632 0.61904 0.0
O123 O 0.80575 0.78981 0.60983 0.0
O124 O 0.7556 0.75272 0.50895 0.0
C125 C 0.82621 0.79435 0.51685 0.0
O126 O 0.82396 0.81057 0.50021 0.0
C127 C 0.76973 0.81173 0.50646 0.0
O128 O 0.7543 0.79375 0.48789 0.0
O129 O 0.76863 0.76911 0.59413 0.0
C130 C 0.26095 0.01386 0.47242 0.0
O131 O 0.24524 0.0169 0.45566 0.0
O132 O 0.20134 0.9726 0.51672 0.0
Zn133 Zn 0.22902 0.00303 0.53096 0.0
O134 O 0.22521 0.03026 0.51743 0.0
C135 C 0.21681 0.9914 0.60688 0.0
O136 O 0.19635 0.97761 0.59262 0.0
O137 O 0.25755 0.00706 0.50558 0.0
C138 C 0.21148 0.03516 0.53407 0.0
O139 O 0.19812 0.02131 0.56011 0.0
C140 C 0.18691 0.97006 0.49186 0.0
O141 O 0.18998 0.98817 0.47304 0.0
O142 O 0.23365 0.00377 0.58565 0.0
C143 C 0.9759 0.23849 0.49022 0.0
O144 O 0.96756 0.21655 0.48221 0.0
O145 O 0.02121 0.2236 0.53971 0.0
Zn146 Zn 0.99252 0.22497 0.55217 0.0
O147 O 0.96398 0.1934 0.54894 0.0
C148 C 0.99347 0.2211 0.62863 0.0
O149 O 0.9918 0.20151 0.618 0.0
O150 O 0.98818 0.24665 0.51893 0.0
C151 C 0.96369 0.17457 0.54228 0.0
O152 O 0.98326 0.17484 0.5367 0.0
C153 C 0.02622 0.22027 0.50748 0.0
O154 O 0.01239 0.21799 0.48017 0.0
O155 O 0.99471 0.23534 0.60439 0.0
C156 C 0.91386 0.56593 0.31272 0.0
O157 O 0.90041 0.54463 0.30128 0.0
O158 O 0.85212 0.54768 0.36025 0.0
Zn159 Zn 0.88218 0.54903 0.37313 0.0
O160 O 0.87935 0.51774 0.36697 0.0
C161 C 0.87493 0.54288 0.44944 0.0
O162 O 0.8561 0.52466 0.43726 0.0
O163 O 0.909 0.5723 0.34268 0.0
C164 C 0.86375 0.50118 0.3484 0.0
O165 O 0.84806 0.50408 0.33132 0.0
C166 C 0.84813 0.55389 0.32941 0.0
O167 O 0.86434 0.56197 0.30416 0.0
O168 O 0.88925 0.55708 0.42637 0.0
C169 C 0.42986 0.3469 0.3092 0.0
O170 O 0.4501 0.35119 0.29674 0.0
O171 O 0.44658 0.3055 0.35682 0.0
Zn172 Zn 0.44639 0.33441 0.37202 0.0
O173 O 0.47793 0.36232 0.36462 0.0
C174 C 0.4529 0.33588 0.4495 0.0
O175 O 0.47316 0.33925 0.43885 0.0
O176 O 0.42381 0.33871 0.34137 0.0
C177 C 0.48218 0.38165 0.37789 0.0
O178 O 0.46587 0.38285 0.39624 0.0
C179 C 0.46508 0.30447 0.35829 0.0
O180 O 0.4842 0.32258 0.36985 0.0
O181 O 0.43788 0.33275 0.42535 0.0
C182 C 0.67717 0.06079 0.32903 0.0
O183 O 0.6944 0.08041 0.31696 0.0
O184 O 0.69665 0.11846 0.36357 0.0
Zn185 Zn 0.66695 0.08972 0.37723 0.0
O186 O 0.63945 0.09217 0.36127 0.0
C187 C 0.68242 0.09343 0.4526 0.0
O188 O 0.70309 0.10267 0.43775 0.0
O189 O 0.66428 0.06108 0.35443 0.0
C190 C 0.63627 0.10814 0.37369 0.0
O191 O 0.65187 0.12379 0.3956 0.0
C192 C 0.69865 0.13016 0.33489 0.0
O193 O 0.68089 0.12308 0.31264 0.0
O194 O 0.66485 0.08638 0.43195 0.0
C195 C 0.90595 0.5854 0.85523 0.0
O196 O 0.88627 0.57012 0.87027 0.0
O197 O 0.88652 0.525 0.81318 0.0
Zn198 Zn 0.88627 0.55372 0.79638 0.0
O199 O 0.85551 0.55152 0.80651 0.0
C200 C 0.90053 0.54932 0.72213 0.0
O201 O 0.90803 0.53648 0.73745 0.0
O202 O 0.9106 0.58177 0.82295 0.0
C203 C 0.83926 0.5435 0.78299 0.0
O204 O 0.84199 0.53527 0.75183 0.0
C205 C 0.8709 0.505 0.803 0.0
O206 O 0.85423 0.50309 0.78154 0.0
O207 O 0.89159 0.55838 0.74208 0.0
C208 C 0.40584 0.34167 0.85319 0.0
O209 O 0.42573 0.35182 0.87063 0.0
O210 O 0.462 0.36737 0.80638 0.0
Zn211 Zn 0.43308 0.33703 0.79558 0.0
O212 O 0.43692 0.31033 0.81217 0.0
C213 C 0.43401 0.35129 0.72018 0.0
O214 O 0.44272 0.37198 0.73478 0.0
O215 O 0.4051 0.33462 0.82056 0.0
C216 C 0.44732 0.30307 0.7916 0.0
O217 O 0.45594 0.3136 0.76023 0.0
C218 C 0.47725 0.36906 0.82904 0.0
O219 O 0.47376 0.35064 0.84739 0.0
O220 O 0.42806 0.33397 0.74103 0.0
C221 C 0.68073 0.09423 0.86111 0.0
O222 O 0.68542 0.11464 0.87332 0.0
O223 O 0.63633 0.10873 0.81505 0.0
Zn224 Zn 0.66553 0.10924 0.79937 0.0
O225 O 0.69326 0.14113 0.80469 0.0
C226 C 0.66519 0.11406 0.72186 0.0
O227 O 0.66719 0.13392 0.73167 0.0
O228 O 0.67113 0.08754 0.82995 0.0
C229 C 0.71241 0.14477 0.79146 0.0
O230 O 0.71328 0.12774 0.77491 0.0
C231 C 0.63536 0.12724 0.81702 0.0
O232 O 0.65383 0.14704 0.80886 0.0
O233 O 0.66341 0.09987 0.74659 0.0
C234 C 0.41833 0.09082 0.35852 0.0
O235 O 0.4331 0.11139 0.37145 0.0
O236 O 0.47846 0.10799 0.30717 0.0
Zn237 Zn 0.44903 0.10854 0.29727 0.0
O238 O 0.45395 0.14007 0.31001 0.0
C239 C 0.45598 0.10612 0.21954 0.0
O240 O 0.47714 0.11252 0.23017 0.0
O241 O 0.42208 0.08496 0.3272 0.0
C242 C 0.46195 0.15684 0.28747 0.0
O243 O 0.46797 0.15399 0.25441 0.0
C244 C 0.48292 0.10078 0.33661 0.0
O245 O 0.4674 0.09254 0.36293 0.0
O246 O 0.44084 0.10283 0.24357 0.0
C247 C 0.90191 0.31437 0.35275 0.0
O248 O 0.88187 0.31059 0.36536 0.0
O249 O 0.8836 0.35314 0.29838 0.0
Zn250 Zn 0.88446 0.32402 0.28788 0.0
O251 O 0.85312 0.29601 0.29623 0.0
C252 C 0.87823 0.32185 0.21097 0.0
O253 O 0.85852 0.31987 0.22167 0.0
O254 O 0.90745 0.32126 0.31988 0.0
C255 C 0.84995 0.27642 0.28614 0.0
O256 O 0.86712 0.27528 0.2706 0.0
C257 C 0.86945 0.35371 0.3211 0.0
O258 O 0.85531 0.33484 0.33926 0.0
O259 O 0.89298 0.32419 0.23508 0.0
C260 C 0.67791 0.59806 0.34786 0.0
O261 O 0.68096 0.58168 0.36203 0.0
O262 O 0.63619 0.53923 0.30295 0.0
Zn263 Zn 0.66563 0.56766 0.28762 0.0
O264 O 0.69341 0.56419 0.29728 0.0
C265 C 0.68222 0.5863 0.21592 0.0
O266 O 0.70181 0.59826 0.23377 0.0
O267 O 0.67025 0.59566 0.31529 0.0
C268 C 0.69622 0.54821 0.28384 0.0
O269 O 0.67993 0.53235 0.26305 0.0
C270 C 0.63504 0.52585 0.32871 0.0
O271 O 0.65385 0.53071 0.34714 0.0
O272 O 0.66414 0.57238 0.23362 0.0
C273 C 0.42201 0.08295 0.81165 0.0
O274 O 0.44086 0.10012 0.79734 0.0
O275 O 0.43762 0.14077 0.85756 0.0
Zn276 Zn 0.43932 0.11265 0.8733 0.0
O277 O 0.47118 0.1176 0.86248 0.0
C278 C 0.43436 0.12131 0.95023 0.0
O279 O 0.43915 0.14177 0.93819 0.0
O280 O 0.41681 0.08465 0.84461 0.0
C281 C 0.48561 0.11996 0.88727 0.0
O282 O 0.48011 0.11986 0.9219 0.0
C283 C 0.45536 0.16078 0.86051 0.0
O284 O 0.47453 0.16272 0.87388 0.0
O285 O 0.43281 0.1062 0.92742 0.0
C286 C 0.92791 0.32287 0.81622 0.0
O287 O 0.90875 0.30387 0.8074 0.0
O288 O 0.87069 0.30159 0.85334 0.0
Zn289 Zn 0.89872 0.33211 0.86572 0.0
O290 O 0.89356 0.35825 0.85091 0.0
C291 C 0.89918 0.31594 0.93886 0.0
O292 O 0.89225 0.2962 0.92184 0.0
O293 O 0.92726 0.33641 0.84011 0.0
C294 C 0.88179 0.36411 0.87102 0.0
O295 O 0.8725 0.35251 0.90136 0.0
C296 C 0.85769 0.29897 0.82614 0.0
O297 O 0.86296 0.31664 0.80441 0.0
O298 O 0.90353 0.33374 0.9202 0.0
C299 C 0.67661 0.60595 0.82602 0.0
O300 O 0.6984 0.61306 0.83355 0.0
O301 O 0.6909 0.55866 0.85218 0.0
Zn302 Zn 0.66459 0.56335 0.86803 0.0
O303 O 0.63463 0.53298 0.8664 0.0
C304 C 0.67421 0.56268 0.9434 0.0
O305 O 0.67489 0.54432 0.93221 0.0
O306 O 0.6609 0.58625 0.8372 0.0
C307 C 0.63067 0.51761 0.84243 0.0
O308 O 0.64666 0.52149 0.81795 0.0
C309 C 0.70071 0.56342 0.82098 0.0
O310 O 0.69372 0.57231 0.79527 0.0
O311 O 0.67012 0.57434 0.92012 0.0
C312 C 0.59736 0.93587 0.67153 0.0
O313 O 0.58077 0.94097 0.67348 0.0
O314 O 0.53881 0.89791 0.70179 0.0
Zn315 Zn 0.56632 0.89461 0.7144 0.0
O316 O 0.56016 0.86258 0.70233 0.0
C317 C 0.55787 0.88353 0.78967 0.0
O318 O 0.53975 0.8656 0.7752 0.0
O319 O 0.59462 0.91754 0.6868 0.0
C320 C 0.57455 0.85698 0.71445 0.0
O321 O 0.59251 0.8723 0.73326 0.0
C322 C 0.52757 0.89 0.67213 0.0
O323 O 0.5342 0.87946 0.64877 0.0
O324 O 0.57226 0.89933 0.76855 0.0
C325 C 0.06772 0.66981 0.66509 0.0
O326 O 0.05894 0.6479 0.67377 0.0
O327 O 0.10961 0.65 0.69653 0.0
Zn328 Zn 0.10933 0.67935 0.70842 0.0
O329 O 0.14111 0.70709 0.70223 0.0
C330 C 0.1148 0.6778 0.78443 0.0
O331 O 0.13282 0.67688 0.77211 0.0
O332 O 0.08774 0.68455 0.67658 0.0
C333 C 0.15904 0.70652 0.69208 0.0
O334 O 0.15741 0.68655 0.68432 0.0
C335 C 0.1075 0.6416 0.66454 0.0
O336 O 0.10437 0.65209 0.63649 0.0
O337 O 0.10089 0.67856 0.76144 0.0
C338 C 0.30994 0.41203 0.63512 0.0
O339 O 0.30439 0.42674 0.62111 0.0
O340 O 0.35584 0.47301 0.67855 0.0
Zn341 Zn 0.32592 0.44502 0.69384 0.0
O342 O 0.29944 0.45084 0.68537 0.0
C343 C 0.34489 0.44504 0.76604 0.0
O344 O 0.36495 0.45502 0.74911 0.0
O345 O 0.32011 0.41654 0.66601 0.0
C346 C 0.28002 0.43702 0.6999 0.0
O347 O 0.278 0.41946 0.71917 0.0
C348 C 0.3614 0.49227 0.69362 0.0
O349 O 0.34737 0.49311 0.71808 0.0
O350 O 0.32658 0.43929 0.74782 0.0
C351 C 0.59884 0.91638 0.18021 0.0
O352 O 0.60285 0.89901 0.17949 0.0
O353 O 0.55778 0.85762 0.153 0.0
Zn354 Zn 0.55723 0.88621 0.13747 0.0
O355 O 0.52576 0.88204 0.14775 0.0
C356 C 0.57442 0.88479 0.06432 0.0
O357 O 0.58493 0.87508 0.08076 0.0
O358 O 0.58097 0.91437 0.16433 0.0
C359 C 0.5199 0.89506 0.1311 0.0
O360 O 0.53475 0.91097 0.10865 0.0
C361 C 0.54245 0.83832 0.13998 0.0
O362 O 0.527 0.8379 0.11715 0.0
O363 O 0.56244 0.89094 0.08322 0.0
C364 C 0.06878 0.65126 0.19097 0.0
O365 O 0.08536 0.64875 0.20574 0.0
O366 O 0.1279 0.69053 0.14826 0.0
Zn367 Zn 0.09882 0.66233 0.13024 0.0
O368 O 0.10053 0.63328 0.13764 0.0
C369 C 0.10327 0.68389 0.05876 0.0
O370 O 0.11545 0.70344 0.07658 0.0
O371 O 0.07099 0.65815 0.15793 0.0
C372 C 0.10858 0.62568 0.11313 0.0
O373 O 0.11691 0.6375 0.08265 0.0
C374 C 0.14747 0.69165 0.14682 0.0
O375 O 0.1487 0.67393 0.13396 0.0
O376 O 0.09441 0.66493 0.07634 0.0
C377 C 0.34933 0.41836 0.17643 0.0
O378 O 0.35238 0.43798 0.18974 0.0
O379 O 0.30305 0.43025 0.13092 0.0
Zn380 Zn 0.33368 0.43378 0.11624 0.0
O381 O 0.35942 0.46629 0.12557 0.0
C382 C 0.33258 0.44288 0.04131 0.0
O383 O 0.33111 0.46 0.05629 0.0
O384 O 0.34056 0.41206 0.14464 0.0
C385 C 0.37914 0.4721 0.11207 0.0
O386 O 0.38163 0.45684 0.09284 0.0
C387 C 0.30125 0.44209 0.15668 0.0
O388 O 0.31986 0.45674 0.17488 0.0
O389 O 0.3334 0.42804 0.06212 0.0
C390 C 0.06983 0.40421 0.66276 0.0
O391 O 0.0884 0.40218 0.66395 0.0
O392 O 0.12764 0.44641 0.63609 0.0
Zn393 Zn 0.09893 0.44749 0.62285 0.0
O394 O 0.10109 0.47759 0.63732 0.0
C395 C 0.09995 0.43119 0.55042 0.0
O396 O 0.10612 0.41808 0.56843 0.0
O397 O 0.07075 0.42159 0.64678 0.0
C398 C 0.11746 0.49699 0.62641 0.0
O399 O 0.13424 0.49757 0.60675 0.0
C400 C 0.14067 0.45632 0.66345 0.0
O401 O 0.13552 0.46843 0.68602 0.0
O402 O 0.09543 0.44479 0.56824 0.0
C403 C 0.60398 0.67666 0.67479 0.0
O404 O 0.60495 0.69649 0.68116 0.0
O405 O 0.56559 0.69603 0.64397 0.0
Zn406 Zn 0.56259 0.66528 0.63126 0.0
O407 O 0.53172 0.63902 0.64775 0.0
C408 C 0.56146 0.67574 0.55461 0.0
O409 O 0.55721 0.69151 0.56798 0.0
O410 O 0.58783 0.66162 0.65485 0.0
C411 C 0.51323 0.63495 0.6314 0.0
O412 O 0.51445 0.64858 0.60443 0.0
C413 C 0.55501 0.69888 0.67064 0.0
O414 O 0.54182 0.68121 0.69187 0.0
O415 O 0.56464 0.66279 0.57655 0.0
C416 C 0.35576 0.92928 0.68578 0.0
O417 O 0.3625 0.91511 0.69812 0.0
O418 O 0.31208 0.86936 0.63559 0.0
Zn419 Zn 0.34197 0.89837 0.6245 0.0
O420 O 0.36877 0.89321 0.63399 0.0
C421 C 0.34388 0.89211 0.54834 0.0
O422 O 0.34514 0.87433 0.56098 0.0
O423 O 0.34573 0.92524 0.6548 0.0
C424 C 0.3888 0.90841 0.62323 0.0
O425 O 0.39133 0.92698 0.60651 0.0
C426 C 0.30951 0.8567 0.66325 0.0
O427 O 0.32674 0.86306 0.68639 0.0
O428 O 0.34219 0.90563 0.57102 0.0
C429 C 0.06661 0.4075 0.16782 0.0
O430 O 0.05828 0.42022 0.18081 0.0
O431 O 0.11179 0.47118 0.18471 0.0
Zn432 Zn 0.11123 0.44195 0.19993 0.0
O433 O 0.14251 0.44538 0.19112 0.0
C434 C 0.11949 0.45009 0.27641 0.0
O435 O 0.13921 0.46695 0.2639 0.0
O436 O 0.08785 0.41393 0.17242 0.0
C437 C 0.14707 0.43069 0.2052 0.0
O438 O 0.13118 0.41375 0.22505 0.0
C439 C 0.10394 0.47412 0.15466 0.0
O440 O 0.09452 0.45713 0.1308 0.0
O441 O 0.10416 0.4368 0.25369 0.0
C442 C 0.58944 0.64983 0.15817 0.0
O443 O 0.57046 0.63049 0.15001 0.0
O444 O 0.53194 0.6294 0.19114 0.0
Zn445 Zn 0.55978 0.65959 0.20549 0.0
O446 O 0.55575 0.68636 0.19036 0.0
C447 C 0.54744 0.64869 0.28164 0.0
O448 O 0.52697 0.6346 0.26768 0.0
O449 O 0.58853 0.66377 0.18092 0.0
C450 C 0.54297 0.69206 0.20808 0.0
O451 O 0.53144 0.67975 0.23674 0.0
C452 C 0.51882 0.62772 0.16465 0.0
O453 O 0.52374 0.6462 0.14522 0.0
O454 O 0.5642 0.66085 0.26017 0.0
C455 C 0.31668 0.90537 0.14132 0.0
O456 O 0.31247 0.88549 0.12736 0.0
O457 O 0.35927 0.88966 0.19088 0.0
Zn458 Zn 0.32872 0.88722 0.20264 0.0
O459 O 0.30225 0.85541 0.19069 0.0
C460 C 0.34595 0.90731 0.27383 0.0
O461 O 0.3654 0.91941 0.25571 0.0
O462 O 0.3246 0.91055 0.17376 0.0
C463 C 0.29263 0.8396 0.21473 0.0
O464 O 0.30062 0.8437 0.24848 0.0
C465 C 0.36184 0.87714 0.16724 0.0
O466 O 0.3438 0.86187 0.14856 0.0
O467 O 0.3279 0.89297 0.25651 0.0
C468 C 0.36276 0.32359 0.85464 0.0
C469 C 0.38412 0.33586 0.8727 0.0
C470 C 0.34188 0.3152 0.87391 0.0
C471 C 0.34238 0.31914 0.91214 0.0
C472 C 0.36384 0.33282 0.93004 0.0
C473 C 0.38448 0.34101 0.9101 0.0
C474 C 0.31933 0.30095 0.85375 0.0
C475 C 0.36503 0.33773 0.97067 0.0
C476 C 0.28595 0.30386 0.96064 0.0
C477 C 0.27916 0.28164 0.97397 0.0
C478 C 0.30665 0.31651 0.94079 0.0
C479 C 0.32075 0.30662 0.93403 0.0
C480 C 0.31407 0.2843 0.94771 0.0
C481 C 0.29341 0.27212 0.96747 0.0
C482 C 0.31311 0.34019 0.92645 0.0
C483 C 0.32866 0.27315 0.94124 0.0
H484 H 0.36229 0.31976 0.82565 0.0
H485 H 0.40089 0.3507 0.92421 0.0
H486 H 0.31118 0.28267 0.86287 0.0
H487 H 0.30712 0.30716 0.86023 0.0
H488 H 0.32177 0.30151 0.82353 0.0
H489 H 0.38281 0.35058 0.97968 0.0
H490 H 0.3532 0.34428 0.97789 0.0
H491 H 0.35929 0.32147 0.98625 0.0
H492 H 0.27504 0.31133 0.96546 0.0
H493 H 0.28839 0.255 0.97772 0.0
H494 H 0.30975 0.33913 0.8965 0.0
H495 H 0.33179 0.35252 0.93064 0.0
H496 H 0.30297 0.34721 0.93988 0.0
H497 H 0.33042 0.27128 0.91134 0.0
H498 H 0.32116 0.25581 0.95419 0.0
H499 H 0.34631 0.28431 0.9524 0.0
C500 C 0.70298 0.08968 0.91235 0.0
C501 C 0.68881 0.08039 0.88138 0.0
C502 C 0.71273 0.07782 0.92971 0.0
C503 C 0.70805 0.05608 0.91592 0.0
C504 C 0.69301 0.04616 0.88562 0.0
C505 C 0.68361 0.05849 0.86861 0.0
C506 C 0.72874 0.08896 0.96196 0.0
C507 C 0.68743 0.0229 0.87043 0.0
C508 C 0.75386 0.03973 0.93508 0.0
C509 C 0.74469 0.02535 0.96585 0.0
C510 C 0.74183 0.04941 0.91806 0.0
C511 C 0.72003 0.04444 0.93199 0.0
C512 C 0.7103 0.0293 0.96224 0.0
C513 C 0.72279 0.02 0.97892 0.0
C514 C 0.7528 0.06554 0.88587 0.0
C515 C 0.68698 0.02344 0.97759 0.0
H516 H 0.70707 0.10657 0.92243 0.0
H517 H 0.67257 0.05113 0.84481 0.0
H518 H 0.72292 0.07698 0.98574 0.0
H519 H 0.74642 0.09269 0.95471 0.0
H520 H 0.72965 0.10538 0.97048 0.0
H521 H 0.674 0.01678 0.84866 0.0
H522 H 0.70329 0.02401 0.85871 0.0
H523 H 0.68132 0.00981 0.89269 0.0
H524 H 0.77076 0.04395 0.92479 0.0
H525 H 0.71552 0.00879 0.00257 0.0
H526 H 0.7561 0.08308 0.89311 0.0
H527 H 0.74088 0.0595 0.86202 0.0
H528 H 0.76942 0.06688 0.87745 0.0
H529 H 0.68783 0.03923 0.98907 0.0
H530 H 0.68113 0.01014 -0.00044 0.0
H531 H 0.67381 0.01701 0.95544 0.0
C532 C 0.96409 0.71501 0.91676 0.0
C533 C 0.97773 0.72106 0.94854 0.0
C534 C 0.95481 0.69289 0.90139 0.0
C535 C 0.95958 0.67652 0.91788 0.0
C536 C 0.9744 0.68292 0.94874 0.0
C537 C 0.98317 0.70509 0.96392 0.0
C538 C 0.93893 0.68669 0.86861 0.0
C539 C 0.98025 0.66608 0.96658 0.0
C540 C 0.91268 0.6142 0.9042 0.0
C541 C 0.92101 0.60772 0.87378 0.0
C542 C 0.92549 0.6363 0.91962 0.0
C543 C 0.94733 0.65221 0.90462 0.0
C544 C 0.95641 0.64537 0.87519 0.0
C545 C 0.94304 0.62324 0.85988 0.0
C546 C 0.91511 0.64299 0.95082 0.0
C547 C 0.97985 0.66171 0.859 0.0
H548 H 0.95982 0.72725 0.90467 0.0
H549 H 0.99388 0.70973 0.9883 0.0
H550 H 0.94482 0.67957 0.84627 0.0
H551 H 0.92122 0.67305 0.87646 0.0
H552 H 0.93804 0.70178 0.85778 0.0
H553 H 0.99418 0.67456 0.9874 0.0
H554 H 0.96465 0.65212 0.98025 0.0
H555 H 0.9858 0.65781 0.9456 0.0
H556 H 0.89569 0.60232 0.91513 0.0
H557 H 0.94966 0.61826 0.83657 0.0
H558 H 0.91191 0.65702 0.94174 0.0
H559 H 0.92733 0.64976 0.97425 0.0
H560 H 0.89852 0.62823 0.96061 0.0
H561 H 0.9792 0.67599 0.8445 0.0
H562 H 0.98555 0.6529 0.83923 0.0
H563 H 0.993 0.66961 0.88105 0.0
C564 C 0.30909 0.37411 0.63086 0.0
C565 C 0.30258 0.3896 0.61676 0.0
C566 C 0.30068 0.35208 0.61532 0.0
C567 C 0.28525 0.34534 0.58522 0.0
C568 C 0.27919 0.36116 0.5702 0.0
C569 C 0.288 0.38311 0.58605 0.0
C570 C 0.30776 0.33579 0.63178 0.0
C571 C 0.2627 0.35459 0.53818 0.0
C572 C 0.27164 0.29396 0.52417 0.0
C573 C 0.24993 0.27724 0.53765 0.0
C574 C 0.28394 0.31592 0.54048 0.0
C575 C 0.27418 0.32131 0.57073 0.0
C576 C 0.25278 0.30416 0.58546 0.0
C577 C 0.24098 0.28231 0.56886 0.0
C578 C 0.30687 0.33365 0.52436 0.0
C579 C 0.24177 0.30924 0.61766 0.0
H580 H 0.32047 0.37904 0.65446 0.0
H581 H 0.2829 0.39496 0.57493 0.0
H582 H 0.29252 0.3209 0.64462 0.0
H583 H 0.31416 0.32876 0.61005 0.0
H584 H 0.32144 0.34435 0.65295 0.0
H585 H 0.26055 0.36922 0.52871 0.0
H586 H 0.26897 0.34856 0.51483 0.0
H587 H 0.24549 0.34007 0.54619 0.0
H588 H 0.27876 0.29013 0.50021 0.0
H589 H 0.22427 0.2695 0.57956 0.0
H590 H 0.32006 0.34178 0.5463 0.0
H591 H 0.30505 0.3476 0.51103 0.0
H592 H 0.31328 0.32601 0.5036 0.0
H593 H 0.25414 0.31642 0.64085 0.0
H594 H 0.22586 0.29359 0.62736 0.0
H595 H 0.23716 0.32247 0.60968 0.0
C596 C 0.62114 0.9694 0.62962 0.0
C597 C 0.61877 0.95066 0.6505 0.0
C598 C 0.64088 0.98254 0.6079 0.0
C599 C 0.65856 0.97672 0.60707 0.0
C600 C 0.65657 0.95831 0.62902 0.0
C601 C 0.63673 0.94553 0.65041 0.0
C602 C 0.64232 0.00199 0.5848 0.0
C603 C 0.67511 0.95162 0.6291 0.0
C604 C 0.6976 0.98745 0.52549 0.0
C605 C 0.71889 0.00514 0.5387 0.0
C606 C 0.67741 0.9791 0.54653 0.0
C607 C 0.67854 0.98863 0.58166 0.0
C608 C 0.69959 0.00762 0.59401 0.0
C609 C 0.71957 0.01566 0.57237 0.0
C610 C 0.6552 0.95906 0.53211 0.0
C611 C 0.7013 0.01854 0.631 0.0
H612 H 0.60735 0.97351 0.62956 0.0
H613 H 0.63516 0.93121 0.66667 0.0
H614 H 0.66005 0.01718 0.58515 0.0
H615 H 0.63811 0.99612 0.55591 0.0
H616 H 0.62997 0.00747 0.59427 0.0
H617 H 0.67144 0.93763 0.64908 0.0
H618 H 0.67657 0.94564 0.60134 0.0
H619 H 0.69213 0.96685 0.63589 0.0
H620 H 0.69682 0.97945 0.49924 0.0
H621 H 0.73589 0.02952 0.5826 0.0
H622 H 0.64078 0.96268 0.53501 0.0
H623 H 0.65068 0.94333 0.54847 0.0
H624 H 0.6566 0.95532 0.50282 0.0
H625 H 0.68704 0.02236 0.63457 0.0
H626 H 0.71806 0.0348 0.63471 0.0
H627 H 0.69953 0.00625 0.65299 0.0
C628 C 0.01729 0.71885 0.51444 0.0
C629 C 0.00281 0.72627 0.52972 0.0
C630 C 0.02534 0.70676 0.53558 0.0
C631 C 0.01884 0.70204 0.57294 0.0
C632 C 0.00316 0.70828 0.58793 0.0
C633 C 0.9953 0.7203 0.56612 0.0
C634 C 0.0419 0.70024 0.51848 0.0
C635 C 0.99577 0.7035 0.62762 0.0
C636 C 0.03365 0.66177 0.62542 0.0
C637 C 0.05465 0.67766 0.64203 0.0
C638 C 0.02159 0.66936 0.603 0.0
C639 C 0.03073 0.69336 0.5973 0.0
C640 C 0.05175 0.70943 0.61438 0.0
C641 C 0.06344 0.7014 0.6364 0.0
C642 C 0.99925 0.65174 0.58512 0.0
C643 C 0.06204 0.7352 0.60918 0.0
H644 H 0.02299 0.72316 0.48623 0.0
H645 H 0.98398 0.7258 0.57809 0.0
H646 H 0.05942 0.71117 0.53027 0.0
H647 H 0.03651 0.68197 0.52475 0.0
H648 H 0.04304 0.7026 0.48822 0.0
H649 H 0.98138 0.7068 0.63382 0.0
H650 H 0.99024 0.68532 0.6348 0.0
H651 H 0.01065 0.71477 0.64552 0.0
H652 H 0.02675 0.6434 0.62961 0.0
H653 H 0.07958 0.71384 0.64924 0.0
H654 H 0.00107 0.65322 0.55483 0.0
H655 H 0.98511 0.65513 0.59266 0.0
H656 H 0.9941 0.63374 0.59316 0.0
H657 H 0.06584 0.73967 0.5797 0.0
H658 H 0.07827 0.74539 0.62504 0.0
H659 H 0.04946 0.74051 0.61788 0.0
C660 C 0.6314 0.67737 0.14761 0.0
C661 C 0.6113 0.6567 0.13835 0.0
C662 C 0.6515 0.6858 0.12638 0.0
C663 C 0.65155 0.67324 0.09515 0.0
C664 C 0.63183 0.65164 0.08696 0.0
C665 C 0.61187 0.64363 0.10865 0.0
C666 C 0.67223 0.70886 0.1362 0.0
C667 C 0.63117 0.6376 0.05406 0.0
C668 C 0.69112 0.71178 0.02003 0.0
C669 C 0.71108 0.71026 0.02582 0.0
C670 C 0.67124 0.69889 0.04128 0.0
C671 C 0.67129 0.68414 0.06912 0.0
C672 C 0.69093 0.68157 0.07391 0.0
C673 C 0.71065 0.69468 0.05214 0.0
C674 C 0.65051 0.70188 0.03501 0.0
C675 C 0.69149 0.66582 0.10312 0.0
H676 H 0.63122 0.68746 0.17078 0.0
H677 H 0.59647 0.62756 0.10141 0.0
H678 H 0.6881 0.70748 0.13711 0.0
H679 H 0.67486 0.72179 0.1148 0.0
H680 H 0.67014 0.71541 0.16312 0.0
H681 H 0.61804 0.61903 0.05747 0.0
H682 H 0.62655 0.64415 0.02937 0.0
H683 H 0.64825 0.63913 0.04902 0.0
H684 H 0.69119 0.72353 -0.00057 0.0
H685 H 0.72595 0.69328 0.05662 0.0
H686 H 0.64762 0.70996 0.05954 0.0
H687 H 0.63474 0.6848 0.031 0.0
H688 H 0.65272 0.71289 0.01075 0.0
H689 H 0.69232 0.67336 0.13059 0.0
H690 H 0.70665 0.66332 0.10009 0.0
H691 H 0.67545 0.64869 0.10224 0.0
C692 C 0.29548 0.91164 0.09031 0.0
C693 C 0.30997 0.92031 0.12105 0.0
C694 C 0.28692 0.92458 0.07298 0.0
C695 C 0.2933 0.94689 0.08637 0.0
C696 C 0.30883 0.95622 0.11625 0.0
C697 C 0.31685 0.94273 0.13346 0.0
C698 C 0.27021 0.91392 0.04139 0.0
C699 C 0.31635 0.98011 0.13083 0.0
C700 C 0.27937 0.98333 0.02275 0.0
C701 C 0.2581 0.97922 0.03693 0.0
C702 C 0.29163 0.97378 0.03953 0.0
C703 C 0.28219 0.95953 0.07084 0.0
C704 C 0.26113 0.95597 0.08595 0.0
C705 C 0.24944 0.966 0.06898 0.0
C706 C 0.31427 0.97831 0.02308 0.0
C707 C 0.25039 0.94071 0.11913 0.0
H708 H 0.29008 0.89434 0.08055 0.0
H709 H 0.32821 0.94961 0.15702 0.0
H710 H 0.25308 0.91149 0.04929 0.0
H711 H 0.27632 0.92563 0.01727 0.0
H712 H 0.26794 0.8969 0.0331 0.0
H713 H 0.33037 0.98578 0.15153 0.0
H714 H 0.32246 0.99286 0.10806 0.0
H715 H 0.3014 0.9803 0.14377 0.0
H716 H 0.28625 0.99369 0.99814 0.0
H717 H 0.23302 0.96274 0.08012 0.0
H718 H 0.31218 0.96209 0.01114 0.0
H719 H 0.32777 0.98402 0.04464 0.0
H720 H 0.32042 0.99166 0.00117 0.0
H721 H 0.24587 0.92271 0.11249 0.0
H722 H 0.23449 0.94058 0.12849 0.0
H723 H 0.26292 0.9466 0.14216 0.0
C724 C 0.03025 0.38098 0.13344 0.0
C725 C 0.05158 0.38566 0.14814 0.0
C726 C 0.01646 0.36055 0.11358 0.0
C727 C 0.02418 0.34446 0.10865 0.0
C728 C 0.04542 0.34889 0.12429 0.0
C729 C 0.05889 0.36946 0.14362 0.0
C730 C 0.99416 0.35674 0.0968 0.0
C731 C 0.05415 0.33204 0.12012 0.0
C732 C 0.98637 0.28148 0.08291 0.0
C733 C 0.99358 0.28157 0.04672 0.0
C734 C 0.99488 0.30218 0.10278 0.0
C735 C 0.01088 0.32335 0.08597 0.0
C736 C 0.01663 0.3237 0.04853 0.0
C737 C 0.00797 0.30279 0.02937 0.0
C738 C 0.98789 0.30126 0.14241 0.0
C739 C 0.03313 0.34601 0.02937 0.0
H740 H 0.02456 0.39351 0.1367 0.0
H741 H 0.07524 0.37285 0.15524 0.0
H742 H 0.99736 0.36258 0.06779 0.0
H743 H 0.98068 0.33819 0.09696 0.0
H744 H 0.98742 0.36676 0.1114 0.0
H745 H 0.07053 0.33762 0.13532 0.0
H746 H 0.04098 0.31471 0.13027 0.0
H747 H 0.05717 0.3302 0.09068 0.0
H748 H 0.97499 0.26519 0.09636 0.0
H749 H 0.01326 0.30306 0.00117 0.0
H750 H 0.98254 0.31429 0.14764 0.0
H751 H 0.00293 0.30556 0.1604 0.0
H752 H 0.97347 0.28392 0.15024 0.0
H753 H 0.02813 0.3593 0.03452 0.0
H754 H 0.03365 0.34369 -0.00074 0.0
H755 H 0.05083 0.35272 0.04051 0.0
C756 C 0.68234 0.6375 0.35357 0.0
C757 C 0.68596 0.62005 0.36788 0.0
C758 C 0.69202 0.65925 0.37059 0.0
C759 C 0.70585 0.66366 0.40231 0.0
C760 C 0.70881 0.64582 0.41763 0.0
C761 C 0.69871 0.6242 0.40036 0.0
C762 C 0.68815 0.67773 0.35388 0.0
C763 C 0.72352 0.64987 0.45136 0.0
C764 C 0.75476 0.72384 0.42409 0.0
C765 C 0.74607 0.72958 0.45489 0.0
C766 C 0.74141 0.70281 0.40571 0.0
C767 C 0.71872 0.68729 0.41814 0.0
C768 C 0.70934 0.69357 0.44783 0.0
C769 C 0.7232 0.71461 0.46605 0.0
C770 C 0.75208 0.69667 0.37425 0.0
C771 C 0.68507 0.67764 0.46141 0.0
H772 H 0.67235 0.63434 0.32862 0.0
H773 H 0.70155 0.61081 0.41167 0.0
H774 H 0.6826 0.68578 0.37524 0.0
H775 H 0.70461 0.69161 0.34214 0.0
H776 H 0.67493 0.67081 0.33177 0.0
H777 H 0.72316 0.63388 0.46082 0.0
H778 H 0.74171 0.66313 0.44532 0.0
H779 H 0.71752 0.65659 0.47412 0.0
H780 H 0.77238 0.73534 0.41523 0.0
H781 H 0.71629 0.71905 0.48961 0.0
H782 H 0.74057 0.69135 0.34992 0.0
H783 H 0.75418 0.68177 0.38216 0.0
H784 H 0.76928 0.71129 0.3663 0.0
H785 H 0.67271 0.67127 0.43812 0.0
H786 H 0.67937 0.68628 0.48153 0.0
H787 H 0.68425 0.66233 0.47481 0.0
C788 C 0.28921 0.03359 0.42168 0.0
C789 C 0.28333 0.02074 0.45431 0.0
C790 C 0.31128 0.04254 0.40622 0.0
C791 C 0.32778 0.03829 0.42353 0.0
C792 C 0.32156 0.02428 0.45536 0.0
C793 C 0.29943 0.0158 0.47056 0.0
C794 C 0.31729 0.05753 0.37236 0.0
C795 C 0.33854 0.01898 0.47414 0.0
C796 C 0.38085 0.05356 0.36567 0.0
C797 C 0.39629 0.07603 0.37802 0.0
C798 C 0.35883 0.04048 0.38154 0.0
C799 C 0.35204 0.05026 0.40999 0.0
C800 C 0.36792 0.07253 0.42358 0.0
C801 C 0.3899 0.08506 0.40761 0.0
C802 C 0.34252 0.0166 0.36685 0.0
C803 C 0.36131 0.08364 0.45376 0.0
H804 H 0.27687 0.03745 0.40889 0.0
H805 H 0.29492 0.0057 0.4956 0.0
H806 H 0.33091 0.07545 0.37913 0.0
H807 H 0.32433 0.05109 0.35073 0.0
H808 H 0.30211 0.05807 0.36104 0.0
H809 H 0.33021 0.00566 0.4959 0.0
H810 H 0.34671 0.01288 0.45388 0.0
H811 H 0.35256 0.03497 0.48684 0.0
H812 H 0.38575 0.04639 0.34302 0.0
H813 H 0.40172 0.10238 0.41741 0.0
H814 H 0.3282 0.01679 0.35172 0.0
H815 H 0.33468 0.00406 0.38974 0.0
H816 H 0.35133 0.0104 0.34798 0.0
H817 H 0.34723 0.08657 0.44403 0.0
H818 H 0.37609 0.10049 0.46266 0.0
H819 H 0.35465 0.07202 0.47793 0.0
C820 C 0.93756 0.31136 0.3612 0.0
C821 C 0.9164 0.30789 0.37488 0.0
C822 C 0.95007 0.3028 0.38 0.0
C823 C 0.94111 0.29036 0.41307 0.0
C824 C 0.92035 0.28779 0.4279 0.0
C825 C 0.90829 0.29666 0.40869 0.0
C826 C 0.9723 0.30614 0.3636 0.0
C827 C 0.91022 0.27461 0.4631 0.0
C828 C 0.95348 0.24268 0.43897 0.0
C829 C 0.96904 0.25272 0.4682 0.0
C830 C 0.94487 0.25505 0.42006 0.0
C831 C 0.95209 0.27811 0.43045 0.0
C832 C 0.96857 0.28872 0.45883 0.0
C833 C 0.97682 0.27587 0.47749 0.0
C834 C 0.9273 0.2431 0.38991 0.0
C835 C 0.97687 0.31337 0.47034 0.0
H836 H 0.94404 0.32019 0.33523 0.0
H837 H 0.89203 0.29399 0.41957 0.0
H838 H 0.98612 0.31251 0.38469 0.0
H839 H 0.96964 0.28929 0.35356 0.0
H840 H 0.97833 0.31851 0.34027 0.0
H841 H 0.89493 0.27568 0.47239 0.0
H842 H 0.90485 0.25612 0.45899 0.0
H843 H 0.92338 0.28133 0.48523 0.0
H844 H 0.94745 0.22485 0.43147 0.0
H845 H 0.98894 0.2838 0.49991 0.0
H846 H 0.93306 0.2535 0.36434 0.0
H847 H 0.91056 0.24155 0.39797 0.0
H848 H 0.92439 0.22553 0.38393 0.0
H849 H 0.98264 0.32494 0.44605 0.0
H850 H 0.99135 0.3198 0.49033 0.0
H851 H 0.9624 0.31453 0.48312 0.0
C852 C 0.04272 0.63135 0.24412 0.0
C853 C 0.04672 0.64328 0.2108 0.0
C854 C 0.02096 0.62105 0.26104 0.0
C855 C 0.0028 0.62293 0.24443 0.0
C856 C 0.00706 0.63607 0.21192 0.0
C857 C 0.02896 0.646 0.19535 0.0
C858 C 0.01709 0.60713 0.29567 0.0
C859 C 0.98822 0.63876 0.19374 0.0
C860 C 0.9428 0.57279 0.26389 0.0
C861 C 0.93554 0.58145 0.29288 0.0
C862 C 0.96437 0.58641 0.24714 0.0
C863 C 0.97896 0.60936 0.25938 0.0
C864 C 0.97131 0.6186 0.28746 0.0
C865 C 0.94971 0.60447 0.30405 0.0
C866 C 0.97194 0.57589 0.21735 0.0
C867 C 0.98625 0.64311 0.30083 0.0
H868 H 0.05635 0.62923 0.25634 0.0
H869 H 0.03197 0.65536 0.16976 0.0
H870 H 0.00931 0.61281 0.31727 0.0
H871 H 0.00475 0.58861 0.29005 0.0
H872 H 0.03338 0.6087 0.30647 0.0
H873 H 0.99501 0.65173 0.17125 0.0
H874 H 0.975 0.62191 0.18213 0.0
H875 H 0.9794 0.64402 0.21416 0.0
H876 H 0.93196 0.55504 0.25501 0.0
H877 H 0.94414 0.61135 0.32626 0.0
H878 H 0.98727 0.57497 0.22675 0.0
H879 H 0.97713 0.5869 0.19243 0.0
H880 H 0.95811 0.55819 0.20975 0.0
H881 H 0.00168 0.64475 0.31507 0.0
H882 H 0.97686 0.64842 0.32011 0.0
H883 H 0.99254 0.65529 0.27729 0.0
C884 C 0.4245 0.36737 0.25607 0.0
C885 C 0.41543 0.35367 0.28756 0.0
C886 C 0.41201 0.37592 0.23726 0.0
C887 C 0.3898 0.3704 0.25 0.0
C888 C 0.38008 0.35568 0.28074 0.0
C889 C 0.39308 0.34759 0.29932 0.0
C890 C 0.42303 0.3917 0.20471 0.0
C891 C 0.35631 0.34916 0.29478 0.0
C892 C 0.37167 0.41455 0.22817 0.0
C893 C 0.35796 0.40502 0.19681 0.0
C894 C 0.38166 0.40316 0.24621 0.0
C895 C 0.37765 0.38156 0.23282 0.0
C896 C 0.36313 0.3714 0.202 0.0
C897 C 0.35355 0.38333 0.1842 0.0
C898 C 0.39718 0.41464 0.27887 0.0
C899 C 0.35821 0.34824 0.18729 0.0
H900 H 0.44174 0.37213 0.24677 0.0
H901 H 0.38588 0.33685 0.32348 0.0
H902 H 0.41131 0.38526 0.18064 0.0
H903 H 0.42603 0.40922 0.21121 0.0
H904 H 0.43983 0.3932 0.19698 0.0
H905 H 0.35033 0.33576 0.31661 0.0
H906 H 0.35653 0.36469 0.30611 0.0
H907 H 0.34358 0.3426 0.272 0.0
H908 H 0.37518 0.4313 0.23812 0.0
H909 H 0.34285 0.37579 0.1601 0.0
H910 H 0.41501 0.41845 0.27253 0.0
H911 H 0.39109 0.40283 0.30287 0.0
H912 H 0.39784 0.43104 0.28665 0.0
H913 H 0.37437 0.34965 0.17638 0.0
H914 H 0.34509 0.34186 0.16502 0.0
H915 H 0.35199 0.33522 0.20966 0.0
C916 C 0.6104 0.9566 0.19921 0.0
C917 C 0.61425 0.93781 0.20073 0.0
C918 C 0.62363 0.97649 0.22025 0.0
C919 C 0.64118 0.97769 0.2435 0.0
C920 C 0.64581 0.95918 0.24417 0.0
C921 C 0.63222 0.93939 0.2228 0.0
C922 C 0.61827 0.99595 0.21847 0.0
C923 C 0.66439 0.95973 0.26849 0.0
C924 C 0.6816 0.03857 0.27728 0.0
C925 C 0.67074 0.03874 0.31016 0.0
C926 C 0.67317 0.01827 0.25636 0.0
C927 C 0.65342 0.99779 0.26858 0.0
C928 C 0.64353 0.99746 0.30306 0.0
C929 C 0.6523 0.01794 0.32343 0.0
C930 C 0.68449 0.01921 0.22006 0.0
C931 C 0.62273 0.97584 0.31738 0.0
H932 H 0.59672 0.95566 0.18198 0.0
H933 H 0.63536 0.92497 0.2241 0.0
H934 H 0.61222 0.99821 0.2457 0.0
H935 H 0.63413 0.01244 0.21156 0.0
H936 H 0.60476 0.99274 0.19779 0.0
H937 H 0.67046 0.94804 0.25806 0.0
H938 H 0.67946 0.97746 0.27091 0.0
H939 H 0.65723 0.95384 0.29642 0.0
H940 H 0.69601 0.05449 0.26697 0.0
H941 H 0.64404 0.01781 0.34911 0.0
H942 H 0.67439 0.02123 0.19764 0.0
H943 H 0.68478 0.00298 0.21495 0.0
H944 H 0.70247 0.03403 0.21879 0.0
H945 H 0.60749 0.97158 0.2999 0.0
H946 H 0.6185 0.97783 0.34615 0.0
H947 H 0.62579 0.96099 0.31603 0.0
C948 C 0.35326 0.96521 0.69457 0.0
C949 C 0.36179 0.9508 0.706 0.0
C950 C 0.36044 0.98656 0.71177 0.0
C951 C 0.37672 0.99375 0.74072 0.0
C952 C 0.38482 0.97896 0.75309 0.0
C953 C 0.37715 0.95762 0.73572 0.0
C954 C 0.35116 0.00173 0.69822 0.0
C955 C 0.40231 0.98607 0.78375 0.0
C956 C 0.41761 0.05745 0.75855 0.0
C957 C 0.40878 0.06093 0.79134 0.0
C958 C 0.40685 0.03585 0.74111 0.0
C959 C 0.38658 0.01733 0.75658 0.0
C960 C 0.37689 0.02103 0.78863 0.0
C961 C 0.38819 0.04277 0.80578 0.0
C962 C 0.41779 0.03257 0.70705 0.0
C963 C 0.3551 0.00179 0.80558 0.0
H964 H 0.34125 0.95997 0.67177 0.0
H965 H 0.38382 0.9466 0.74475 0.0
H966 H 0.34459 0.00746 0.72156 0.0
H967 H 0.3653 0.01748 0.68516 0.0
H968 H 0.33701 0.99272 0.6779 0.0
H969 H 0.40607 0.97215 0.79122 0.0
H970 H 0.41872 0.00158 0.77534 0.0
H971 H 0.39596 0.99083 0.80852 0.0
H972 H 0.43349 0.07138 0.74715 0.0
H973 H 0.38116 0.04538 0.83097 0.0
H974 H 0.40489 0.02515 0.68459 0.0
H975 H 0.42384 0.02013 0.71285 0.0
H976 H 0.43276 0.04903 0.6973 0.0
H977 H 0.3414 0.99332 0.78447 0.0
H978 H 0.34846 0.00809 0.82811 0.0
H979 H 0.3586 0.9884 0.81684 0.0
C980 C 0.04819 0.37079 0.70584 0.0
C981 C 0.04844 0.38754 0.68225 0.0
C982 C 0.02861 0.35661 0.72727 0.0
C983 C 0.00896 0.35937 0.72507 0.0
C984 C 0.00869 0.37534 0.6998 0.0
C985 C 0.02841 0.38922 0.67875 0.0
C986 C 0.02954 0.33965 0.75361 0.0
C987 C 0.98795 0.3786 0.69625 0.0
C988 C 0.94982 0.31783 0.7645 0.0
C989 C 0.94963 0.32999 0.79579 0.0
C990 C 0.96962 0.32637 0.74226 0.0
C991 C 0.98955 0.34756 0.75154 0.0
C992 C 0.98994 0.359 0.78444 0.0
C993 C 0.96999 0.35009 0.80614 0.0
C994 C 0.96869 0.31342 0.70778 0.0
C995 C 0.01101 0.38142 0.79567 0.0
H996 H 0.06353 0.36927 0.70857 0.0
H997 H 0.02832 0.40189 0.66023 0.0
H998 H 0.03416 0.34756 0.78132 0.0
H999 H 0.01252 0.32356 0.75575 0.0
H1000 H 0.04275 0.33507 0.74523 0.0
H1001 H 0.98982 0.3904 0.67334 0.0
H1002 H 0.97204 0.3617 0.69166 0.0
H1003 H 0.98554 0.38591 0.72213 0.0
H1004 H 0.93424 0.30215 0.75648 0.0
H1005 H 0.97013 0.3594 0.83059 0.0
H1006 H 0.98518 0.3135 0.7035 0.0
H1007 H 0.96606 0.32209 0.68379 0.0
H1008 H 0.95428 0.29521 0.70855 0.0
H1009 H 0.02665 0.37962 0.79499 0.0
H1010 H 0.00926 0.38701 0.82362 0.0
H1011 H 0.0138 0.39525 0.77593 0.0
C1012 C 0.68532 0.63681 0.77924 0.0
C1013 C 0.67 0.62047 0.80448 0.0
C1014 C 0.6782 0.64919 0.75666 0.0
C1015 C 0.65538 0.6453 0.75996 0.0
C1016 C 0.64029 0.62963 0.7867 0.0
C1017 C 0.64771 0.61726 0.80834 0.0
C1018 C 0.69471 0.66538 0.72808 0.0
C1019 C 0.61598 0.62533 0.7917 0.0
C1020 C 0.63411 0.68427 0.72237 0.0
C1021 C 0.62022 0.67085 0.69311 0.0
C1022 C 0.64714 0.67704 0.74301 0.0
C1023 C 0.64627 0.65599 0.73399 0.0
C1024 C 0.63377 0.64341 0.7027 0.0
C1025 C 0.62079 0.65091 0.68277 0.0
C1026 C 0.6607 0.69116 0.77574 0.0
C1027 C 0.63297 0.62124 0.69155 0.0
H1028 H 0.70256 0.63928 0.77612 0.0
H1029 H 0.63592 0.60488 0.8282 0.0
H1030 H 0.69113 0.65608 0.70152 0.0
H1031 H 0.69254 0.68062 0.72388 0.0
H1032 H 0.71298 0.67141 0.73562 0.0
H1033 H 0.6071 0.61397 0.81559 0.0
H1034 H 0.61626 0.64195 0.79559 0.0
H1035 H 0.60563 0.61702 0.7667 0.0
H1036 H 0.634 0.69986 0.73025 0.0
H1037 H 0.61048 0.64069 0.65972 0.0
H1038 H 0.67847 0.69377 0.77538 0.0
H1039 H 0.65224 0.68168 0.80133 0.0
H1040 H 0.66185 0.70834 0.77655 0.0
H1041 H 0.65067 0.62368 0.691 0.0
H1042 H 0.62492 0.6151 0.66414 0.0
H1043 H 0.6228 0.60754 0.71201 0.0
C1044 C 0.23275 0.07399 0.98138 0.0
C1045 C 0.21784 0.05469 0.00265 0.0
C1046 C 0.2345 0.09557 0.98723 0.0
C1047 C 0.22108 0.09794 0.01513 0.0
C1048 C 0.20607 0.07858 0.03682 0.0
C1049 C 0.2046 0.05715 0.03027 0.0
C1050 C 0.25066 0.11582 0.96349 0.0
C1051 C 0.19159 0.0805 0.06694 0.0
C1052 C 0.24191 0.15844 0.05149 0.0
C1053 C 0.22758 0.16474 0.03262 0.0
C1054 C 0.23977 0.13664 0.04641 0.0
C1055 C 0.22295 0.12077 0.02175 0.0
C1056 C 0.2083 0.12693 0.0028 0.0
C1057 C 0.21075 0.14884 0.00853 0.0
C1058 C 0.25565 0.13065 0.06721 0.0
C1059 C 0.19021 0.11047 0.97618 0.0
H1060 H 0.243 0.07224 0.95989 0.0
H1061 H 0.19304 0.04234 0.04684 0.0
H1062 H 0.24084 0.12278 0.94895 0.0
H1063 H 0.26378 0.12994 0.98086 0.0
H1064 H 0.25977 0.11104 0.94279 0.0
H1065 H 0.18081 0.06381 0.08138 0.0
H1066 H 0.20295 0.09363 0.08733 0.0
H1067 H 0.18006 0.0864 0.05533 0.0
H1068 H 0.25491 0.17058 0.07027 0.0
H1069 H 0.1996 0.15357 0.99385 0.0
H1070 H 0.2663 0.1272 0.04764 0.0
H1071 H 0.24533 0.11464 0.08346 0.0
H1072 H 0.26741 0.1447 0.08611 0.0
H1073 H 0.19863 0.10629 0.95356 0.0
H1074 H 0.1799 0.11773 0.96415 0.0
H1075 H 0.17826 0.09399 0.99022 0.0
C1076 C 0.93954 0.1537 0.04758 0.0
C1077 C 0.94205 0.16823 0.01798 0.0
C1078 C 0.91849 0.1333 0.05405 0.0
C1079 C 0.89952 0.12725 0.0303 0.0
C1080 C 0.90198 0.14177 0.00028 0.0
C1081 C 0.92319 0.1621 0.99451 0.0
C1082 C 0.9165 0.11828 0.08642 0.0
C1083 C 0.88215 0.13588 0.97431 0.0
C1084 C 0.85032 0.06491 0.02686 0.0
C1085 C 0.83343 0.06595 0.04834 0.0
C1086 C 0.87202 0.08468 0.02104 0.0
C1087 C 0.87694 0.10595 0.03719 0.0
C1088 C 0.8601 0.10703 0.05934 0.0
C1089 C 0.83854 0.08704 0.0646 0.0
C1090 C 0.88955 0.08289 0.99719 0.0
C1091 C 0.86473 0.12937 0.07715 0.0
H1092 H 0.95401 0.1583 0.06585 0.0
H1093 H 0.92497 0.17318 0.97152 0.0
H1094 H 0.90276 0.11675 0.1053 0.0
H1095 H 0.91139 0.10057 0.07693 0.0
H1096 H 0.93294 0.12527 0.10203 0.0
H1097 H 0.887 0.14879 0.95191 0.0
H1098 H 0.87613 0.11863 0.96188 0.0
H1099 H 0.86734 0.13495 0.98962 0.0
H1100 H 0.84651 0.0487 0.01417 0.0
H1101 H 0.82563 0.088 0.08133 0.0
H1102 H 0.90585 0.08873 0.01266 0.0
H1103 H 0.89375 0.09443 0.97302 0.0
H1104 H 0.88324 0.06497 0.98733 0.0
H1105 H 0.88043 0.13632 0.09457 0.0
H1106 H 0.85003 0.12716 0.09438 0.0
H1107 H 0.86809 0.14251 0.05574 0.0
C1108 C 0.85332 0.80218 0.96983 0.0
C1109 C 0.83175 0.78281 0.9778 0.0
C1110 C 0.87395 0.80271 0.97928 0.0
C1111 C 0.87298 0.78337 0.99696 0.0
C1112 C 0.85128 0.76375 0.00504 0.0
C1113 C 0.83091 0.76373 0.99543 0.0
C1114 C 0.89679 0.82397 0.97037 0.0
C1115 C 0.84958 0.74276 0.02373 0.0
C1116 C 0.92565 0.77589 0.99137 0.0
C1117 C 0.9358 0.78386 0.02594 0.0
C1118 C 0.90519 0.77562 0.98159 0.0
C1119 C 0.89471 0.78364 0.0069 0.0
C1120 C 0.90495 0.79188 0.04172 0.0
C1121 C 0.92535 0.79184 0.05086 0.0
C1122 C 0.89473 0.76663 0.94424 0.0
C1123 C 0.89431 0.80069 0.06935 0.0
H1124 H 0.85414 0.81702 0.95628 0.0
H1125 H 0.81431 0.74868 0.00163 0.0
H1126 H 0.90699 0.83122 0.99586 0.0
H1127 H 0.90708 0.8193 0.95202 0.0
H1128 H 0.89456 0.83763 0.95679 0.0
H1129 H 0.83137 0.72889 0.02802 0.0
H1130 H 0.85852 0.7357 0.00703 0.0
H1131 H 0.85838 0.74771 0.05077 0.0
H1132 H 0.93358 0.76964 0.97197 0.0
H1133 H 0.93309 0.79808 0.0776 0.0
H1134 H 0.89339 0.78024 0.92881 0.0
H1135 H 0.87693 0.75175 0.94733 0.0
H1136 H 0.90503 0.76101 0.92774 0.0
H1137 H 0.8929 0.81521 0.0574 0.0
H1138 H 0.90456 0.80673 0.09508 0.0
H1139 H 0.87654 0.7868 0.07626 0.0
C1140 C 0.14843 0.22953 0.47131 0.0
C1141 C 0.14732 0.20801 0.47366 0.0
C1142 C 0.12862 0.23145 0.47611 0.0
C1143 C 0.10716 0.21138 0.48348 0.0
C1144 C 0.10585 0.18958 0.48567 0.0
C1145 C 0.12596 0.18815 0.48072 0.0
C1146 C 0.13071 0.255 0.47356 0.0
C1147 C 0.08323 0.1678 0.49352 0.0
C1148 C 0.06115 0.21963 0.53073 0.0
C1149 C 0.04694 0.21805 0.50119 0.0
C1150 C 0.08069 0.2173 0.52537 0.0
C1151 C 0.08618 0.21332 0.48959 0.0
C1152 C 0.07192 0.21166 0.45965 0.0
C1153 C 0.05245 0.21405 0.46581 0.0
C1154 C 0.09551 0.2192 0.55798 0.0
C1155 C 0.07728 0.20747 0.4211 0.0
H1156 H 0.16485 0.24498 0.46582 0.0
H1157 H 0.12493 0.17146 0.48254 0.0
H1158 H 0.11889 0.25491 0.45206 0.0
H1159 H 0.12544 0.2593 0.49994 0.0
H1160 H 0.1486 0.26885 0.46702 0.0
H1161 H 0.08505 0.15215 0.49374 0.0
H1162 H 0.07642 0.16926 0.52055 0.0
H1163 H 0.07019 0.16546 0.47255 0.0
H1164 H 0.05701 0.22267 0.55819 0.0
H1165 H 0.04156 0.21276 0.44284 0.0
H1166 H 0.11337 0.23377 0.55391 0.0
H1167 H 0.09659 0.20321 0.56059 0.0
H1168 H 0.08867 0.222 0.58409 0.0
H1169 H 0.09457 0.22167 0.41269 0.0
H1170 H 0.06428 0.20631 0.40089 0.0
H1171 H 0.07789 0.19117 0.42008 0.0
C1172 C 0.75953 0.83809 0.47275 0.0
C1173 C 0.77267 0.83496 0.49981 0.0
C1174 C 0.76182 0.85988 0.46654 0.0
C1175 C 0.77758 0.879 0.48795 0.0
C1176 C 0.79105 0.87603 0.51509 0.0
C1177 C 0.78845 0.85405 0.52067 0.0
C1178 C 0.74719 0.86238 0.43728 0.0
C1179 C 0.80803 0.89603 0.53847 0.0
C1180 C 0.79661 0.9391 0.45079 0.0
C1181 C 0.78204 0.94495 0.46999 0.0
C1182 C 0.79558 0.91782 0.4567 0.0
C1183 C 0.77958 0.90201 0.48241 0.0
C1184 C 0.76508 0.90795 0.50227 0.0
C1185 C 0.76648 0.92933 0.49584 0.0
C1186 C 0.81136 0.9121 0.43506 0.0
C1187 C 0.74782 0.89156 0.52996 0.0
H1188 H 0.74735 0.82347 0.45642 0.0
H1189 H 0.79869 0.85181 0.54162 0.0
H1190 H 0.73592 0.86831 0.44985 0.0
H1191 H 0.75843 0.8757 0.41702 0.0
H1192 H 0.7361 0.84591 0.42248 0.0
H1193 H 0.81755 0.89094 0.55787 0.0
H1194 H 0.82075 0.91022 0.52075 0.0
H1195 H 0.79876 0.90303 0.55447 0.0
H1196 H 0.80871 0.95106 0.43081 0.0
H1197 H 0.75517 0.9337 0.51085 0.0
H1198 H 0.8009 0.89656 0.41789 0.0
H1199 H 0.82178 0.90793 0.45398 0.0
H1200 H 0.82329 0.92654 0.4169 0.0
H1201 H 0.73515 0.87527 0.51616 0.0
H1202 H 0.73823 0.89903 0.54382 0.0
H1203 H 0.75678 0.88697 0.55114 0.0
C1204 C 0.06759 0.8501 0.47672 0.0
C1205 C 0.06967 0.83455 0.45332 0.0
C1206 C 0.08638 0.87238 0.4829 0.0
C1207 C 0.10773 0.87929 0.46519 0.0
C1208 C 0.10992 0.86373 0.44142 0.0
C1209 C 0.09087 0.84154 0.43582 0.0
C1210 C 0.08342 0.88848 0.50855 0.0
C1211 C 0.1324 0.87048 0.422 0.0
C1212 C 0.15116 0.9435 0.45629 0.0
C1213 C 0.16664 0.94688 0.48484 0.0
C1214 C 0.13187 0.9216 0.44959 0.0
C1215 C 0.12796 0.90266 0.47205 0.0
C1216 C 0.14347 0.90597 0.50096 0.0
C1217 C 0.16263 0.92802 0.50697 0.0
C1218 C 0.11573 0.91869 0.41843 0.0
C1219 C 0.13984 0.88622 0.52557 0.0
H1220 H 0.05126 0.84485 0.49034 0.0
H1221 H 0.09263 0.82968 0.41761 0.0
H1222 H 0.09578 0.89341 0.53172 0.0
H1223 H 0.08739 0.90462 0.49392 0.0
H1224 H 0.06562 0.88055 0.51986 0.0
H1225 H 0.13114 0.8565 0.40393 0.0
H1226 H 0.1377 0.88618 0.40511 0.0
H1227 H 0.1463 0.87481 0.44244 0.0
H1228 H 0.15412 0.95797 0.43907 0.0
H1229 H 0.17444 0.93045 0.52918 0.0
H1230 H 0.09794 0.91206 0.42908 0.0
H1231 H 0.115 0.90574 0.3986 0.0
H1232 H 0.12116 0.93516 0.40357 0.0
H1233 H 0.12272 0.87866 0.53919 0.0
H1234 H 0.1534 0.89172 0.54706 0.0
H1235 H 0.13989 0.87232 0.50897 0.0
C1236 C 0.79659 0.94128 0.98055 0.0
C1237 C 0.78054 0.94386 0.0019 0.0
C1238 C 0.79335 0.91926 0.97272 0.0
C1239 C 0.77363 0.89938 0.98666 0.0
C1240 C 0.75738 0.90187 0.0082 0.0
C1241 C 0.76101 0.92406 0.01551 0.0
C1242 C 0.81101 0.91725 0.94953 0.0
C1243 C 0.73616 0.88108 0.02361 0.0
C1244 C 0.75296 0.84135 0.94047 0.0
C1245 C 0.76167 0.8309 0.96407 0.0
C1246 C 0.75695 0.86373 0.94729 0.0
C1247 C 0.76986 0.87592 0.97856 0.0
C1248 C 0.77873 0.86551 0.00248 0.0
C1249 C 0.77458 0.84313 0.9949 0.0
C1250 C 0.74728 0.8743 0.92109 0.0
C1251 C 0.79248 0.87795 0.0362 0.0
H1252 H 0.81172 0.95648 0.96993 0.0
H1253 H 0.74852 0.92586 0.0321 0.0
H1254 H 0.81838 0.90818 0.96514 0.0
H1255 H 0.80258 0.90676 0.92472 0.0
H1256 H 0.82537 0.93439 0.94075 0.0
H1257 H 0.72526 0.88599 0.04004 0.0
H1258 H 0.72553 0.86958 0.00094 0.0
H1259 H 0.74136 0.87092 0.04128 0.0
H1260 H 0.74305 0.83207 0.9165 0.0
H1261 H 0.78138 0.83519 0.01325 0.0
H1262 H 0.76145 0.89088 0.91018 0.0
H1263 H 0.73512 0.87825 0.93581 0.0
H1264 H 0.73801 0.86271 0.89763 0.0
H1265 H 0.80784 0.8946 0.02825 0.0
H1266 H 0.79841 0.86756 0.05177 0.0
H1267 H 0.7818 0.88206 0.05463 0.0
C1268 C 0.15241 0.93424 0.99306 0.0
C1269 C 0.15367 0.94724 0.96197 0.0
C1270 C 0.13173 0.91426 0.00268 0.0
C1271 C 0.11182 0.90708 0.98069 0.0
C1272 C 0.11287 0.92024 0.94951 0.0
C1273 C 0.1338 0.94018 0.94053 0.0
C1274 C 0.13127 0.90071 0.03619 0.0
C1275 C 0.09196 0.9131 0.92546 0.0
C1276 C 0.06525 0.8438 0.98616 0.0
C1277 C 0.04926 0.84462 0.0102 0.0
C1278 C 0.08555 0.86404 0.97598 0.0
C1279 C 0.08997 0.88561 0.99016 0.0
C1280 C 0.07381 0.8866 0.01413 0.0
C1281 C 0.05365 0.86609 0.02388 0.0
C1282 C 0.10241 0.86232 0.95036 0.0
C1283 C 0.07793 0.90929 0.0298 0.0
H1284 H 0.16765 0.93958 0.00985 0.0
H1285 H 0.13462 0.95012 0.91647 0.0
H1286 H 0.11781 0.89924 0.05563 0.0
H1287 H 0.12666 0.88289 0.02812 0.0
H1288 H 0.14817 0.90882 0.05069 0.0
H1289 H 0.09552 0.92545 0.90257 0.0
H1290 H 0.08613 0.89572 0.91371 0.0
H1291 H 0.07745 0.91187 0.94206 0.0
H1292 H 0.06199 0.8273 0.97543 0.0
H1293 H 0.04139 0.8669 0.04241 0.0
H1294 H 0.1193 0.86875 0.96432 0.0
H1295 H 0.10548 0.87339 0.92589 0.0
H1296 H 0.09615 0.8443 0.94104 0.0
H1297 H 0.09398 0.91731 0.04649 0.0
H1298 H 0.06338 0.90717 0.04732 0.0
H1299 H 0.08044 0.92152 0.00727 0.0
C1300 C 0.1327 0.19748 0.03857 0.0
C1301 C 0.15383 0.2137 0.02269 0.0
C1302 C 0.11221 0.19763 0.03062 0.0
C1303 C 0.11285 0.21444 0.00623 0.0
C1304 C 0.1341 0.23088 0.9901 0.0
C1305 C 0.15434 0.23031 -0.00149 0.0
C1306 C 0.08988 0.1798 0.04833 0.0
C1307 C 0.13545 0.24908 0.96399 0.0
C1308 C 0.057 0.20245 0.95965 0.0
C1309 C 0.05035 0.21565 0.98095 0.0
C1310 C 0.07728 0.20187 0.96762 0.0
C1311 C 0.09125 0.2148 0.9976 0.0
C1312 C 0.08456 0.22803 0.01937 0.0
C1313 C 0.06419 0.22829 0.0108 0.0
C1314 C 0.08381 0.1875 0.94383 0.0
C1315 C 0.099 0.24202 0.05159 0.0
H1316 H 0.13212 0.18458 0.05728 0.0
H1317 H 0.17058 0.24293 0.98615 0.0
H1318 H 0.08242 0.18852 0.06464 0.0
H1319 H 0.07706 0.16942 0.02689 0.0
H1320 H 0.09232 0.16788 0.06665 0.0
H1321 H 0.1533 0.26062 0.95379 0.0
H1322 H 0.12394 0.2407 0.9401 0.0
H1323 H 0.1293 0.25981 0.97784 0.0
H1324 H 0.04644 0.19263 0.93654 0.0
H1325 H 0.0592 0.23855 0.02741 0.0
H1326 H 0.08527 0.17451 0.96087 0.0
H1327 H 0.10098 0.19871 0.93111 0.0
H1328 H 0.07101 0.17833 0.92167 0.0
H1329 H 0.10086 0.23054 0.07163 0.0
H1330 H 0.09135 0.25132 0.06587 0.0
H1331 H 0.11664 0.25488 0.04216 0.0
C1332 C 0.94944 0.80093 0.5192 0.0
C1333 C 0.95068 0.78693 0.49162 0.0
C1334 C 0.92931 0.8023 0.52429 0.0
C1335 C 0.91 0.78943 0.50116 0.0
C1336 C 0.91106 0.77513 0.47347 0.0
C1337 C 0.93136 0.77401 0.46908 0.0
C1338 C 0.92876 0.81763 0.55426 0.0
C1339 C 0.89082 0.76117 0.44822 0.0
C1340 C 0.85057 0.77676 0.53269 0.0
C1341 C 0.84785 0.79343 0.51333 0.0
C1342 C 0.87078 0.77539 0.52922 0.0
C1343 C 0.88869 0.79101 0.50574 0.0
C1344 C 0.88614 0.80796 0.48629 0.0
C1345 C 0.86576 0.809 0.49037 0.0
C1346 C 0.87291 0.75713 0.55053 0.0
C1347 C 0.90486 0.82489 0.46092 0.0
H1348 H 0.96425 0.81094 0.53679 0.0
H1349 H 0.93216 0.76317 0.44765 0.0
H1350 H 0.92577 0.83116 0.54215 0.0
H1351 H 0.91422 0.80731 0.57332 0.0
H1352 H 0.9451 0.82622 0.57031 0.0
H1353 H 0.89437 0.75075 0.42825 0.0
H1354 H 0.87532 0.74933 0.46452 0.0
H1355 H 0.88656 0.77288 0.43278 0.0
H1356 H 0.83686 0.76469 0.55059 0.0
H1357 H 0.86381 0.82192 0.4753 0.0
H1358 H 0.88854 0.76538 0.56818 0.0
H1359 H 0.87503 0.74544 0.53131 0.0
H1360 H 0.85759 0.74657 0.56814 0.0
H1361 H 0.92129 0.83494 0.47629 0.0
H1362 H 0.90029 0.83717 0.44806 0.0
H1363 H 0.90806 0.81538 0.43886 0.0
C1364 C 0.23598 0.16458 0.52609 0.0
C1365 C 0.22331 0.1683 0.49892 0.0
C1366 C 0.23332 0.14257 0.53168 0.0
C1367 C 0.21759 0.1238 0.50959 0.0
C1368 C 0.20458 0.12737 0.48236 0.0
C1369 C 0.20759 0.14956 0.47735 0.0
C1370 C 0.24751 0.13943 0.56101 0.0
C1371 C 0.18762 0.10778 0.4583 0.0
C1372 C 0.22775 0.07288 0.50063 0.0
C1373 C 0.21197 0.05719 0.52618 0.0
C1374 C 0.22953 0.09447 0.49462 0.0
C1375 C 0.21513 0.10053 0.51453 0.0
C1376 C 0.19879 0.08459 0.53973 0.0
C1377 C 0.19743 0.06311 0.54529 0.0
C1378 C 0.24716 0.111 0.46748 0.0
C1379 C 0.18305 0.09038 0.56132 0.0
H1380 H 0.24813 0.17892 0.54292 0.0
H1381 H 0.19767 0.15223 0.45633 0.0
H1382 H 0.23595 0.12599 0.58085 0.0
H1383 H 0.25866 0.13337 0.54841 0.0
H1384 H 0.25867 0.15568 0.57629 0.0
H1385 H 0.17845 0.11331 0.43893 0.0
H1386 H 0.19682 0.10075 0.44221 0.0
H1387 H 0.1746 0.09348 0.47552 0.0
H1388 H 0.23906 0.06847 0.4857 0.0
H1389 H 0.18515 0.0511 0.56503 0.0
H1390 H 0.25994 0.127 0.48182 0.0
H1391 H 0.23856 0.11611 0.44641 0.0
H1392 H 0.25658 0.1034 0.45344 0.0
H1393 H 0.19352 0.10557 0.57915 0.0
H1394 H 0.1707 0.07576 0.57882 0.0
H1395 H 0.17308 0.09513 0.54239 0.0
C1396 C 0.94024 0.13257 0.52619 0.0
C1397 C 0.94135 0.15265 0.54021 0.0
C1398 C 0.91896 0.112 0.52258 0.0
C1399 C 0.89837 0.11148 0.53362 0.0
C1400 C 0.89946 0.13152 0.54871 0.0
C1401 C 0.92091 0.15189 0.55166 0.0
C1402 C 0.91844 0.091 0.50608 0.0
C1403 C 0.87789 0.13157 0.56109 0.0
C1404 C 0.84175 0.06803 0.48912 0.0
C1405 C 0.8319 0.05073 0.51603 0.0
C1406 C 0.86346 0.08775 0.49441 0.0
C1407 C 0.87555 0.09037 0.52758 0.0
C1408 C 0.8657 0.07305 0.55496 0.0
C1409 C 0.844 0.05335 0.54879 0.0
C1410 C 0.87348 0.10578 0.46443 0.0
C1411 C 0.87802 0.07539 0.59082 0.0
H1412 H 0.95596 0.13304 0.51727 0.0
H1413 H 0.92163 0.16729 0.5628 0.0
H1414 H 0.90949 0.07599 0.52485 0.0
H1415 H 0.90852 0.0863 0.48002 0.0
H1416 H 0.93606 0.09395 0.50034 0.0
H1417 H 0.88184 0.14817 0.57422 0.0
H1418 H 0.86642 0.12855 0.5372 0.0
H1419 H 0.86811 0.11731 0.58088 0.0
H1420 H 0.83258 0.0661 0.46362 0.0
H1421 H 0.83649 0.04007 0.56972 0.0
H1422 H 0.89055 0.10838 0.45577 0.0
H1423 H 0.87632 0.1226 0.47492 0.0
H1424 H 0.86205 0.10091 0.43997 0.0
H1425 H 0.89516 0.07706 0.58555 0.0
H1426 H 0.86802 0.06038 0.60929 0.0
H1427 H 0.88115 0.09135 0.60521 0.0
C1428 C 0.87978 0.47569 0.36557 0.0
C1429 C 0.86377 0.47906 0.34546 0.0
C1430 C 0.88042 0.45508 0.36258 0.0
C1431 C 0.86475 0.43744 0.3388 0.0
C1432 C 0.8484 0.44062 0.31868 0.0
C1433 C 0.84807 0.46139 0.32231 0.0
C1434 C 0.89805 0.45229 0.38461 0.0
C1435 C 0.83146 0.42219 0.29295 0.0
C1436 C 0.88165 0.39446 0.30354 0.0
C1437 C 0.86842 0.37519 0.32602 0.0
C1438 C 0.88051 0.41477 0.3073 0.0
C1439 C 0.86588 0.4159 0.33431 0.0
C1440 C 0.85256 0.39658 0.35722 0.0
C1441 C 0.85394 0.37642 0.35273 0.0
C1442 C 0.89493 0.43501 0.28229 0.0
C1443 C 0.83688 0.39723 0.38649 0.0
H1444 H 0.89193 0.48921 0.38365 0.0
H1445 H 0.83565 0.46385 0.30669 0.0
H1446 H 0.88925 0.43652 0.40187 0.0
H1447 H 0.90987 0.45006 0.36583 0.0
H1448 H 0.90855 0.46738 0.40267 0.0
H1449 H 0.81953 0.42714 0.27987 0.0
H1450 H 0.84099 0.41887 0.27106 0.0
H1451 H 0.82104 0.40572 0.30806 0.0
H1452 H 0.89283 0.39364 0.28275 0.0
H1453 H 0.84368 0.36163 0.37023 0.0
H1454 H 0.90691 0.45033 0.2988 0.0
H1455 H 0.88358 0.43969 0.26671 0.0
H1456 H 0.90526 0.43125 0.26244 0.0
H1457 H 0.84712 0.41147 0.40608 0.0
H1458 H 0.82768 0.38074 0.40205 0.0
H1459 H 0.82387 0.40079 0.37384 0.0
C1460 C 0.59326 0.49861 0.31525 0.0
C1461 C 0.61278 0.50476 0.33716 0.0
C1462 C 0.57214 0.47851 0.32245 0.0
C1463 C 0.57044 0.46423 0.35239 0.0
C1464 C 0.59001 0.47038 0.37478 0.0
C1465 C 0.61098 0.49055 0.36684 0.0
C1466 C 0.55167 0.47247 0.29787 0.0
C1467 C 0.58879 0.45562 0.40706 0.0
C1468 C 0.51016 0.42356 0.38892 0.0
C1469 C 0.50503 0.40259 0.37227 0.0
C1470 C 0.53154 0.44368 0.38319 0.0
C1471 C 0.54815 0.44283 0.36011 0.0
C1472 C 0.54319 0.42166 0.34353 0.0
C1473 C 0.5217 0.40178 0.34988 0.0
C1474 C 0.53627 0.46592 0.40148 0.0
C1475 C 0.56044 0.4201 0.31863 0.0
H1476 H 0.5945 0.50945 0.29222 0.0
H1477 H 0.62595 0.49518 0.38394 0.0
H1478 H 0.54555 0.45529 0.28512 0.0
H1479 H 0.53714 0.4713 0.31431 0.0
H1480 H 0.55586 0.48541 0.27571 0.0
H1481 H 0.60549 0.46293 0.422 0.0
H1482 H 0.57523 0.45388 0.42653 0.0
H1483 H 0.58386 0.43796 0.39755 0.0
H1484 H 0.49741 0.42432 0.40638 0.0
H1485 H 0.51788 0.38564 0.33691 0.0
H1486 H 0.53903 0.47902 0.38033 0.0
H1487 H 0.55233 0.47303 0.41805 0.0
H1488 H 0.52185 0.4635 0.41963 0.0
H1489 H 0.56411 0.43163 0.29458 0.0
H1490 H 0.55414 0.40222 0.30859 0.0
H1491 H 0.57702 0.42609 0.33333 0.0
C1492 C 0.52268 0.1124 0.31406 0.0
C1493 C 0.5056 0.10211 0.34126 0.0
C1494 C 0.54434 0.11401 0.31818 0.0
C1495 C 0.54901 0.10503 0.35017 0.0
C1496 C 0.53185 0.09459 0.3777 0.0
C1497 C 0.51036 0.09329 0.37294 0.0
C1498 C 0.56224 0.12535 0.2883 0.0
C1499 C 0.53617 0.08472 0.41213 0.0
C1500 C 0.59633 0.08931 0.34731 0.0
C1501 C 0.61444 0.10803 0.36584 0.0
C1502 C 0.57502 0.08822 0.34174 0.0
C1503 C 0.57178 0.10637 0.35476 0.0
C1504 C 0.59015 0.12557 0.37273 0.0
C1505 C 0.61124 0.12613 0.37817 0.0
C1506 C 0.55581 0.06743 0.32254 0.0
C1507 C 0.5874 0.14536 0.38669 0.0
H1508 H 0.51919 0.11931 0.28951 0.0
H1509 H 0.49728 0.08531 0.39408 0.0
H1510 H 0.57815 0.14018 0.29974 0.0
H1511 H 0.56712 0.1129 0.27727 0.0
H1512 H 0.55596 0.13167 0.26527 0.0
H1513 H 0.52102 0.07716 0.43089 0.0
H1514 H 0.54036 0.0711 0.40485 0.0
H1515 H 0.55129 0.09845 0.42708 0.0
H1516 H 0.59863 0.07522 0.33773 0.0
H1517 H 0.62517 0.1407 0.3924 0.0
H1518 H 0.54981 0.07301 0.29827 0.0
H1519 H 0.5408 0.0583 0.34128 0.0
H1520 H 0.56128 0.05502 0.31337 0.0
H1521 H 0.58205 0.15272 0.36396 0.0
H1522 H 0.60361 0.15939 0.39894 0.0
H1523 H 0.57356 0.13896 0.40777 0.0
C1524 C 0.81838 0.5607 0.81517 0.0
C1525 C 0.81819 0.54501 0.78943 0.0
C1526 C 0.79901 0.56339 0.81992 0.0
C1527 C 0.77881 0.5497 0.79896 0.0
C1528 C 0.77833 0.53343 0.77356 0.0
C1529 C 0.79813 0.53145 0.76882 0.0
C1530 C 0.8003 0.58119 0.84687 0.0
C1531 C 0.75693 0.51818 0.75132 0.0
C1532 C 0.72297 0.54363 0.83629 0.0
C1533 C 0.72016 0.55927 0.81422 0.0
C1534 C 0.74168 0.53993 0.83103 0.0
C1535 C 0.75824 0.55255 0.80355 0.0
C1536 C 0.75544 0.56829 0.78105 0.0
C1537 C 0.73627 0.57128 0.78641 0.0
C1538 C 0.74383 0.52266 0.85505 0.0
C1539 C 0.77296 0.58233 0.75188 0.0
H1540 H 0.83391 0.57136 0.83097 0.0
H1541 H 0.79787 0.51921 0.74902 0.0
H1542 H 0.79711 0.59396 0.83242 0.0
H1543 H 0.78667 0.57274 0.86806 0.0
H1544 H 0.81737 0.59059 0.86079 0.0
H1545 H 0.7591 0.50581 0.73374 0.0
H1546 H 0.74196 0.50826 0.76986 0.0
H1547 H 0.75264 0.52899 0.7335 0.0
H1548 H 0.71044 0.53416 0.85763 0.0
H1549 H 0.73423 0.58348 0.76944 0.0
H1550 H 0.75985 0.5316 0.8717 0.0
H1551 H 0.7452 0.50971 0.83779 0.0
H1552 H 0.72886 0.51343 0.87391 0.0
H1553 H 0.79017 0.59324 0.76468 0.0
H1554 H 0.76818 0.59372 0.73656 0.0
H1555 H 0.77471 0.5707 0.73206 0.0
C1556 C 0.43438 0.17972 0.83384 0.0
C1557 C 0.45429 0.18169 0.85026 0.0
C1558 C 0.43316 0.19946 0.82425 0.0
C1559 C 0.45227 0.22168 0.83143 0.0
C1560 C 0.4724 0.22379 0.84803 0.0
C1561 C 0.4732 0.20377 0.85715 0.0
C1562 C 0.41145 0.19653 0.80638 0.0
C1563 C 0.49309 0.24719 0.85625 0.0
C1564 C 0.45778 0.2728 0.77728 0.0
C1565 C 0.44902 0.28255 0.80216 0.0
C1566 C 0.45891 0.25298 0.78644 0.0
C1567 C 0.45125 0.24274 0.82142 0.0
C1568 C 0.4426 0.25261 0.84681 0.0
C1569 C 0.44152 0.27236 0.83683 0.0
C1570 C 0.46815 0.24289 0.75858 0.0
C1571 C 0.43443 0.24227 0.88447 0.0
H1572 H 0.41971 0.16273 0.82837 0.0
H1573 H 0.48864 0.20547 0.8699 0.0
H1574 H 0.40393 0.2049 0.82341 0.0
H1575 H 0.41566 0.20521 0.77922 0.0
H1576 H 0.39816 0.17806 0.80251 0.0
H1577 H 0.50737 0.24585 0.86949 0.0
H1578 H 0.4997 0.25729 0.83051 0.0
H1579 H 0.48794 0.25709 0.87463 0.0
H1580 H 0.46355 0.28052 0.75039 0.0
H1581 H 0.43479 0.27982 0.85626 0.0
H1582 H 0.45478 0.22479 0.75225 0.0
H1583 H 0.48331 0.24243 0.77002 0.0
H1584 H 0.47341 0.25293 0.73258 0.0
H1585 H 0.42001 0.22419 0.88194 0.0
H1586 H 0.42844 0.25219 0.90116 0.0
H1587 H 0.44863 0.24172 0.8994 0.0
C1588 C 0.73304 0.18546 0.81499 0.0
C1589 C 0.73352 0.16772 0.79509 0.0
C1590 C 0.75309 0.20709 0.81934 0.0
C1591 C 0.77409 0.21108 0.8033 0.0
C1592 C 0.77462 0.19337 0.78277 0.0
C1593 C 0.75434 0.17188 0.77897 0.0
C1594 C 0.75188 0.22556 0.8415 0.0
C1595 C 0.79668 0.19702 0.76517 0.0
C1596 C 0.82216 0.27321 0.78961 0.0
C1597 C 0.83652 0.27639 0.81978 0.0
C1598 C 0.80181 0.25201 0.78381 0.0
C1599 C 0.79566 0.2336 0.80882 0.0
C1600 C 0.81011 0.23667 0.83922 0.0
C1601 C 0.83038 0.25801 0.8443 0.0
C1602 C 0.78684 0.24932 0.75101 0.0
C1603 C 0.80411 0.21745 0.86652 0.0
H1604 H 0.71702 0.18239 0.82752 0.0
H1605 H 0.75485 0.15831 0.76344 0.0
H1606 H 0.76358 0.23032 0.86555 0.0
H1607 H 0.75786 0.2414 0.8247 0.0
H1608 H 0.7341 0.21988 0.85147 0.0
H1609 H 0.79403 0.18171 0.7492 0.0
H1610 H 0.80376 0.2122 0.74656 0.0
H1611 H 0.8099 0.20076 0.7866 0.0
H1612 H 0.82678 0.28731 0.77052 0.0
H1613 H 0.84134 0.2603 0.86772 0.0
H1614 H 0.7693 0.24502 0.76026 0.0
H1615 H 0.78481 0.2348 0.73358 0.0
H1616 H 0.79415 0.26524 0.73397 0.0
H1617 H 0.78706 0.21212 0.8792 0.0
H1618 H 0.81722 0.22263 0.88868 0.0
H1619 H 0.80266 0.20209 0.8523 0.0
C1620 C 0.4577 0.1822 0.33363 0.0
C1621 C 0.4635 0.17899 0.29795 0.0
C1622 C 0.45834 0.2028 0.34364 0.0
C1623 C 0.46486 0.22059 0.31731 0.0
C1624 C 0.47093 0.21756 0.28136 0.0
C1625 C 0.47023 0.19681 0.27212 0.0
C1626 C 0.45185 0.20544 0.38231 0.0
C1627 C 0.47792 0.23615 0.25253 0.0
C1628 C 0.44503 0.2642 0.33305 0.0
C1629 C 0.46507 0.2831 0.34741 0.0
C1630 C 0.44478 0.24381 0.32288 0.0
C1631 C 0.46502 0.24225 0.32732 0.0
C1632 C 0.48532 0.26127 0.34168 0.0
C1633 C 0.48512 0.28149 0.35149 0.0
C1634 C 0.42283 0.22389 0.30752 0.0
C1635 C 0.50721 0.26021 0.34691 0.0
H1636 H 0.45252 0.16854 0.35379 0.0
H1637 H 0.4747 0.19447 0.24448 0.0
H1638 H 0.46628 0.221 0.3953 0.0
H1639 H 0.43665 0.20798 0.38179 0.0
H1640 H 0.44763 0.19016 0.3997 0.0
H1641 H 0.48244 0.23123 0.22599 0.0
H1642 H 0.46357 0.2397 0.24777 0.0
H1643 H 0.49301 0.25249 0.2622 0.0
H1644 H 0.42949 0.26532 0.32972 0.0
H1645 H 0.50067 0.296 0.36258 0.0
H1646 H 0.41688 0.20846 0.32532 0.0
H1647 H 0.42617 0.21919 0.2799 0.0
H1648 H 0.40868 0.22801 0.30528 0.0
H1649 H 0.50392 0.24589 0.36592 0.0
H1650 H 0.52158 0.27657 0.35814 0.0
H1651 H 0.5128 0.2565 0.32034 0.0
C1652 C 0.80956 0.25609 0.31097 0.0
C1653 C 0.82742 0.25515 0.2922 0.0
C1654 C 0.78829 0.23595 0.3175 0.0
C1655 C 0.7848 0.21438 0.30486 0.0
C1656 C 0.80266 0.21335 0.28557 0.0
C1657 C 0.82376 0.23374 0.27952 0.0
C1658 C 0.76966 0.23772 0.33826 0.0
C1659 C 0.79954 0.19068 0.27158 0.0
C1660 C 0.73922 0.15965 0.35177 0.0
C1661 C 0.72069 0.15165 0.32701 0.0
C1662 C 0.76014 0.18008 0.34494 0.0
C1663 C 0.76263 0.1928 0.31251 0.0
C1664 C 0.74403 0.18483 0.28736 0.0
C1665 C 0.72326 0.16435 0.29493 0.0
C1666 C 0.77958 0.18806 0.37245 0.0
C1667 C 0.74609 0.19791 0.25244 0.0
H1668 H 0.81224 0.27256 0.32087 0.0
H1669 H 0.83743 0.23285 0.26491 0.0
H1670 H 0.75366 0.2305 0.32151 0.0
H1671 H 0.76533 0.22733 0.36381 0.0
H1672 H 0.77497 0.25584 0.34564 0.0
H1673 H 0.81493 0.1929 0.25633 0.0
H1674 H 0.79622 0.17873 0.29492 0.0
H1675 H 0.78428 0.18227 0.25318 0.0
H1676 H 0.73739 0.14999 0.37667 0.0
H1677 H 0.70904 0.1583 0.27565 0.0
H1678 H 0.78455 0.20564 0.38245 0.0
H1679 H 0.79506 0.18918 0.35914 0.0
H1680 H 0.77481 0.17627 0.39643 0.0
H1681 H 0.75007 0.21575 0.25907 0.0
H1682 H 0.73002 0.18941 0.23576 0.0
H1683 H 0.7606 0.19938 0.23558 0.0
C1684 C 0.82152 0.56056 0.28936 0.0
C1685 C 0.82541 0.552 0.32214 0.0
C1686 C 0.80022 0.55928 0.28248 0.0
C1687 C 0.78234 0.54909 0.30893 0.0
C1688 C 0.78602 0.5401 0.34181 0.0
C1689 C 0.80752 0.54171 0.34806 0.0
C1690 C 0.79697 0.56916 0.24716 0.0
C1691 C 0.76732 0.52901 0.37059 0.0
C1692 C 0.73636 0.56666 0.30912 0.0
C1693 C 0.71802 0.54807 0.29073 0.0
C1694 C 0.75736 0.56719 0.31517 0.0
C1695 C 0.76007 0.5486 0.30278 0.0
C1696 C 0.74157 0.52966 0.28451 0.0
C1697 C 0.72078 0.52966 0.27857 0.0
C1698 C 0.77672 0.58774 0.33461 0.0
C1699 C 0.74379 0.50945 0.27116 0.0
H1700 H 0.83523 0.56852 0.26917 0.0
H1701 H 0.81031 0.53494 0.37339 0.0
H1702 H 0.78177 0.5557 0.23201 0.0
H1703 H 0.79348 0.5834 0.25335 0.0
H1704 H 0.81237 0.57596 0.229 0.0
H1705 H 0.77264 0.52208 0.39404 0.0
H1706 H 0.76288 0.54187 0.38123 0.0
H1707 H 0.75139 0.51468 0.35828 0.0
H1708 H 0.73443 0.581 0.31854 0.0
H1709 H 0.70668 0.51522 0.26443 0.0
H1710 H 0.79218 0.59618 0.31662 0.0
H1711 H 0.78177 0.58196 0.35974 0.0
H1712 H 0.77182 0.6008 0.34252 0.0
H1713 H 0.75818 0.51551 0.25113 0.0
H1714 H 0.72769 0.49592 0.25789 0.0
H1715 H 0.74804 0.50154 0.29448 0.0
C1716 C 0.61286 0.14703 0.8314 0.0
C1717 C 0.61363 0.1265 0.82795 0.0
C1718 C 0.59234 0.1466 0.84137 0.0
C1719 C 0.5721 0.12512 0.84796 0.0
C1720 C 0.57276 0.10433 0.84465 0.0
C1721 C 0.59353 0.10527 0.83473 0.0
C1722 C 0.5923 0.16912 0.84472 0.0
C1723 C 0.5515 0.08109 0.85141 0.0
C1724 C 0.52368 0.12383 0.90451 0.0
C1725 C 0.50803 0.12197 0.87719 0.0
C1726 C 0.54468 0.12503 0.89538 0.0
C1727 C 0.55015 0.12435 0.85804 0.0
C1728 C 0.53454 0.12269 0.83031 0.0
C1729 C 0.51367 0.12152 0.84021 0.0
C1730 C 0.56091 0.12681 0.92571 0.0
C1731 C 0.53979 0.12194 0.79018 0.0
H1732 H 0.6283 0.16351 0.82627 0.0
H1733 H 0.59395 0.08932 0.83212 0.0
H1734 H 0.57961 0.1693 0.82526 0.0
H1735 H 0.58685 0.17084 0.87276 0.0
H1736 H 0.60956 0.18438 0.83905 0.0
H1737 H 0.55494 0.06655 0.84793 0.0
H1738 H 0.54496 0.08041 0.87963 0.0
H1739 H 0.53755 0.07855 0.83215 0.0
H1740 H 0.51948 0.12419 0.93314 0.0
H1741 H 0.50169 0.12009 0.8189 0.0
H1742 H 0.57805 0.14255 0.92185 0.0
H1743 H 0.56361 0.11172 0.92468 0.0
H1744 H 0.55426 0.12751 0.95334 0.0
H1745 H 0.55635 0.13758 0.7828 0.0
H1746 H 0.52596 0.12093 0.77197 0.0
H1747 H 0.54187 0.10672 0.78479 0.0
C1748 C 0.85429 0.46208 0.80347 0.0
C1749 C 0.87185 0.48414 0.81415 0.0
C1750 C 0.85521 0.44218 0.81299 0.0
C1751 C 0.87417 0.44439 0.83363 0.0
C1752 C 0.89185 0.46658 0.84481 0.0
C1753 C 0.89047 0.48618 0.83497 0.0
C1754 C 0.836 0.41881 0.80066 0.0
C1755 C 0.91235 0.46962 0.86683 0.0
C1756 C 0.86789 0.3919 0.88466 0.0
C1757 C 0.87932 0.38429 0.86104 0.0
C1758 C 0.86601 0.41139 0.87604 0.0
C1759 C 0.87574 0.42353 0.84296 0.0
C1760 C 0.8871 0.41581 0.81884 0.0
C1761 C 0.88877 0.39631 0.82817 0.0
C1762 C 0.85378 0.41911 0.90245 0.0
C1763 C 0.89762 0.42826 0.78326 0.0
H1764 H 0.83981 0.46031 0.78746 0.0
H1765 H 0.90411 0.50315 0.84334 0.0
H1766 H 0.84311 0.41046 0.78267 0.0
H1767 H 0.8281 0.40735 0.82476 0.0
H1768 H 0.82222 0.42001 0.78544 0.0
H1769 H 0.9244 0.488 0.87398 0.0
H1770 H 0.90636 0.45941 0.89257 0.0
H1771 H 0.92201 0.46297 0.85102 0.0
H1772 H 0.86056 0.38274 0.91012 0.0
H1773 H 0.89759 0.39054 0.80972 0.0
H1774 H 0.83919 0.41942 0.8884 0.0
H1775 H 0.86584 0.43698 0.91194 0.0
H1776 H 0.84694 0.40764 0.92683 0.0
H1777 H 0.88417 0.42874 0.766 0.0
H1778 H 0.90565 0.41991 0.76734 0.0
H1779 H 0.91103 0.44644 0.78896 0.0
C1780 C 0.60416 0.47831 0.81648 0.0
C1781 C 0.60814 0.49576 0.84176 0.0
C1782 C 0.5828 0.45766 0.8152 0.0
C1783 C 0.56496 0.45441 0.83972 0.0
C1784 C 0.56889 0.47189 0.86543 0.0
C1785 C 0.59045 0.49234 0.86619 0.0
C1786 C 0.57928 0.43937 0.78749 0.0
C1787 C 0.55027 0.46906 0.89194 0.0
C1788 C 0.50335 0.41064 0.81244 0.0
C1789 C 0.49927 0.39121 0.8331 0.0
C1790 C 0.52455 0.43141 0.81469 0.0
C1791 C 0.54211 0.43279 0.83814 0.0
C1792 C 0.53798 0.41337 0.8595 0.0
C1793 C 0.5166 0.39282 0.85674 0.0
C1794 C 0.52829 0.45177 0.79155 0.0
C1795 C 0.55628 0.4142 0.88484 0.0
H1796 H 0.61773 0.48077 0.79756 0.0
H1797 H 0.59336 0.50572 0.88582 0.0
H1798 H 0.57447 0.42287 0.80172 0.0
H1799 H 0.56482 0.43604 0.76881 0.0
H1800 H 0.595 0.44443 0.77072 0.0
H1801 H 0.55616 0.48418 0.91049 0.0
H1802 H 0.53489 0.46669 0.87655 0.0
H1803 H 0.54466 0.45334 0.90891 0.0
H1804 H 0.49006 0.40958 0.79412 0.0
H1805 H 0.51361 0.37792 0.87283 0.0
H1806 H 0.54283 0.45652 0.77222 0.0
H1807 H 0.53311 0.46702 0.80928 0.0
H1808 H 0.51267 0.44808 0.77548 0.0
H1809 H 0.57179 0.41765 0.86875 0.0
H1810 H 0.55013 0.39781 0.9003 0.0
H1811 H 0.56176 0.42857 0.90477 0.0
C1812 C 0.57051 0.7403 0.65326 0.0
C1813 C 0.55734 0.72184 0.67722 0.0
C1814 C 0.57286 0.76215 0.65896 0.0
C1815 C 0.56183 0.76568 0.68941 0.0
C1816 C 0.54844 0.74713 0.71364 0.0
C1817 C 0.54634 0.72541 0.70723 0.0
C1818 C 0.58726 0.7815 0.63249 0.0
C1819 C 0.53648 0.75027 0.74646 0.0
C1820 C 0.58644 0.82728 0.72349 0.0
C1821 C 0.57108 0.83354 0.70813 0.0
C1822 C 0.58349 0.80518 0.71788 0.0
C1823 C 0.56476 0.78895 0.6963 0.0
C1824 C 0.54912 0.79509 0.68081 0.0
C1825 C 0.55245 0.81732 0.68695 0.0
C1826 C 0.6005 0.79925 0.73492 0.0
C1827 C 0.52898 0.77824 0.65756 0.0
H1828 H 0.57902 0.7377 0.62992 0.0
H1829 H 0.53611 0.71125 0.72586 0.0
H1830 H 0.57668 0.78844 0.62052 0.0
H1831 H 0.60189 0.79592 0.64727 0.0
H1832 H 0.59434 0.7758 0.60976 0.0
H1833 H 0.52643 0.73402 0.76236 0.0
H1834 H 0.54945 0.7637 0.76494 0.0
H1835 H 0.52458 0.75638 0.73742 0.0
H1836 H 0.60084 0.83966 0.73998 0.0
H1837 H 0.54049 0.82201 0.67501 0.0
H1838 H 0.60923 0.79481 0.71312 0.0
H1839 H 0.59125 0.78383 0.75283 0.0
H1840 H 0.61391 0.8137 0.7515 0.0
H1841 H 0.5354 0.77311 0.63329 0.0
H1842 H 0.51822 0.7856 0.6479 0.0
H1843 H 0.51786 0.76228 0.67346 0.0
C1844 C 0.18356 0.74924 0.70105 0.0
C1845 C 0.18149 0.7283 0.6891 0.0
C1846 C 0.20457 0.7701 0.69799 0.0
C1847 C 0.22396 0.77006 0.68242 0.0
C1848 C 0.22207 0.74899 0.67058 0.0
C1849 C 0.20086 0.72833 0.67417 0.0
C1850 C 0.20595 0.79221 0.71112 0.0
C1851 C 0.24237 0.74832 0.65366 0.0
C1852 C 0.2706 0.82634 0.64095 0.0
C1853 C 0.28759 0.83462 0.66846 0.0
C1854 C 0.24992 0.80527 0.64505 0.0
C1855 C 0.24603 0.79222 0.67755 0.0
C1856 C 0.26303 0.80048 0.7055 0.0
C1857 C 0.28367 0.82157 0.70056 0.0
C1858 C 0.23223 0.79695 0.61455 0.0
C1859 C 0.25939 0.78711 0.74066 0.0
H1860 H 0.16872 0.74938 0.7128 0.0
H1861 H 0.19941 0.71224 0.66488 0.0
H1862 H 0.22001 0.80083 0.73163 0.0
H1863 H 0.2102 0.80435 0.68777 0.0
H1864 H 0.1895 0.78917 0.72369 0.0
H1865 H 0.23821 0.73046 0.64656 0.0
H1866 H 0.24796 0.75899 0.62835 0.0
H1867 H 0.25726 0.75584 0.67286 0.0
H1868 H 0.27352 0.83626 0.61598 0.0
H1869 H 0.29669 0.82785 0.72195 0.0
H1870 H 0.21573 0.79503 0.62491 0.0
H1871 H 0.22856 0.77968 0.6049 0.0
H1872 H 0.23807 0.80898 0.59076 0.0
H1873 H 0.24367 0.78479 0.75487 0.0
H1874 H 0.27433 0.79589 0.75967 0.0
H1875 H 0.25652 0.7696 0.73444 0.0
C1876 C 0.2387 0.42532 0.71186 0.0
C1877 C 0.25996 0.44058 0.69536 0.0
C1878 C 0.21945 0.42829 0.70764 0.0
C1879 C 0.2215 0.44697 0.68638 0.0
C1880 C 0.24295 0.46257 0.66991 0.0
C1881 C 0.26194 0.45919 0.67459 0.0
C1882 C 0.19685 0.41128 0.7256 0.0
C1883 C 0.24578 0.48267 0.64701 0.0
C1884 C 0.16656 0.44099 0.64517 0.0
C1885 C 0.16146 0.45415 0.66944 0.0
C1886 C 0.1861 0.43864 0.65028 0.0
C1887 C 0.20095 0.44971 0.68041 0.0
C1888 C 0.19598 0.46309 0.70498 0.0
C1889 C 0.17628 0.46515 0.69921 0.0
C1890 C 0.1908 0.4242 0.6235 0.0
C1891 C 0.21144 0.47514 0.73742 0.0
H1892 H 0.23701 0.41093 0.72802 0.0
H1893 H 0.27831 0.47109 0.6618 0.0
H1894 H 0.19087 0.42055 0.74382 0.0
H1895 H 0.18336 0.40233 0.70433 0.0
H1896 H 0.19829 0.39804 0.74205 0.0
H1897 H 0.26377 0.4936 0.63691 0.0
H1898 H 0.23398 0.47618 0.62302 0.0
H1899 H 0.24094 0.49364 0.66332 0.0
H1900 H 0.15524 0.43242 0.62207 0.0
H1901 H 0.17249 0.47536 0.71807 0.0
H1902 H 0.19094 0.40971 0.63817 0.0
H1903 H 0.20811 0.43483 0.61089 0.0
H1904 H 0.17768 0.41692 0.60126 0.0
H1905 H 0.21223 0.46224 0.75565 0.0
H1906 H 0.20532 0.4851 0.75372 0.0
H1907 H 0.22931 0.48713 0.72789 0.0
C1908 C 0.38813 0.86619 0.13499 0.0
C1909 C 0.38491 0.87956 0.16149 0.0
C1910 C 0.40991 0.86826 0.1296 0.0
C1911 C 0.42889 0.88404 0.15127 0.0
C1912 C 0.42576 0.89756 0.17807 0.0
C1913 C 0.40383 0.89518 0.18283 0.0
C1914 C 0.41264 0.8536 0.10068 0.0
C1915 C 0.44558 0.91456 0.20174 0.0
C1916 C 0.48089 0.87566 0.16105 0.0
C1917 C 0.49659 0.89214 0.13631 0.0
C1918 C 0.45874 0.87274 0.16605 0.0
C1919 C 0.45212 0.88659 0.14577 0.0
C1920 C 0.46784 0.90317 0.12065 0.0
C1921 C 0.48989 0.90577 0.11626 0.0
C1922 C 0.44245 0.85493 0.19318 0.0
C1923 C 0.46138 0.91823 0.09848 0.0
H1924 H 0.37362 0.85408 0.11839 0.0
H1925 H 0.40152 0.90556 0.20343 0.0
H1926 H 0.42571 0.86486 0.08013 0.0
H1927 H 0.41903 0.84275 0.11344 0.0
H1928 H 0.39615 0.84211 0.0862 0.0
H1929 H 0.44022 0.92364 0.22154 0.0
H1930 H 0.45293 0.90544 0.21731 0.0
H1931 H 0.45961 0.92766 0.18421 0.0
H1932 H 0.48592 0.86505 0.17663 0.0
H1933 H 0.50187 0.91851 0.09701 0.0
H1934 H 0.42625 0.84229 0.17915 0.0
H1935 H 0.43765 0.86345 0.21482 0.0
H1936 H 0.45015 0.84538 0.2065 0.0
H1937 H 0.44567 0.90728 0.08195 0.0
H1938 H 0.47547 0.93006 0.07969 0.0
H1939 H 0.45721 0.92877 0.11714 0.0
C1940 C 0.09372 0.5878 0.14522 0.0
C1941 C 0.10826 0.6036 0.11868 0.0
C1942 C 0.09284 0.56654 0.15025 0.0
C1943 C 0.10716 0.56116 0.12869 0.0
C1944 C 0.12203 0.57714 0.10208 0.0
C1945 C 0.12225 0.59809 0.09715 0.0
C1946 C 0.0765 0.54979 0.17853 0.0
C1947 C 0.13786 0.57217 0.07905 0.0
C1948 C 0.1202 0.51618 0.16749 0.0
C1949 C 0.10519 0.49648 0.14711 0.0
C1950 C 0.12133 0.53744 0.16126 0.0
C1951 C 0.1068 0.53895 0.13444 0.0
C1952 C 0.09166 0.51915 0.11368 0.0
C1953 C 0.09118 0.49818 0.12005 0.0
C1954 C 0.13798 0.55827 0.18352 0.0
C1955 C 0.07568 0.52004 0.08522 0.0
H1956 H 0.08274 0.59189 0.16175 0.0
H1957 H 0.1336 0.6103 0.07672 0.0
H1958 H 0.06459 0.53297 0.16536 0.0
H1959 H 0.08641 0.54648 0.19974 0.0
H1960 H 0.06604 0.55633 0.19229 0.0
H1961 H 0.14851 0.58649 0.05976 0.0
H1962 H 0.14958 0.56931 0.09711 0.0
H1963 H 0.12755 0.5561 0.06299 0.0
H1964 H 0.1312 0.51502 0.18826 0.0
H1965 H 0.07947 0.48298 0.10435 0.0
H1966 H 0.12827 0.5645 0.20016 0.0
H1967 H 0.14959 0.5726 0.16498 0.0
H1968 H 0.14874 0.55441 0.20226 0.0
H1969 H 0.06393 0.52518 0.09836 0.0
H1970 H 0.06504 0.50315 0.07127 0.0
H1971 H 0.08584 0.5333 0.0642 0.0
C1972 C 0.49265 0.58568 0.17767 0.0
C1973 C 0.49806 0.6052 0.15623 0.0
C1974 C 0.473 0.56424 0.17025 0.0
C1975 C 0.4584 0.56225 0.14064 0.0
C1976 C 0.46369 0.58187 0.11892 0.0
C1977 C 0.48347 0.60314 0.12699 0.0
C1978 C 0.46791 0.54369 0.19404 0.0
C1979 C 0.44851 0.58037 0.08709 0.0
C1980 C 0.42045 0.50212 0.10162 0.0
C1981 C 0.39914 0.49547 0.11848 0.0
C1982 C 0.43978 0.52397 0.10812 0.0
C1983 C 0.43776 0.5395 0.13217 0.0
C1984 C 0.41624 0.53303 0.14893 0.0
C1985 C 0.39715 0.51109 0.14183 0.0
C1986 C 0.46244 0.5303 0.08964 0.0
C1987 C 0.41347 0.54915 0.17479 0.0
H1988 H 0.50379 0.58712 0.20038 0.0
H1989 H 0.4875 0.61814 0.11031 0.0
H1990 H 0.45052 0.53651 0.20663 0.0
H1991 H 0.46769 0.52982 0.177 0.0
H1992 H 0.48085 0.5482 0.21628 0.0
H1993 H 0.45492 0.59728 0.07311 0.0
H1994 H 0.44765 0.56761 0.06673 0.0
H1995 H 0.43062 0.5742 0.09683 0.0
H1996 H 0.42212 0.4902 0.08342 0.0
H1997 H 0.38074 0.50608 0.15496 0.0
H1998 H 0.47572 0.53347 0.11067 0.0
H1999 H 0.46874 0.54654 0.07378 0.0
H2000 H 0.46093 0.51654 0.07078 0.0
H2001 H 0.425 0.55296 0.19886 0.0
H2002 H 0.39541 0.54176 0.18475 0.0
H2003 H 0.41868 0.56584 0.16093 0.0
C2004 C 0.11688 0.61198 0.68783 0.0
C2005 C 0.10926 0.62054 0.6591 0.0
C2006 C 0.11885 0.59217 0.68315 0.0
C2007 C 0.11283 0.58048 0.64905 0.0
C2008 C 0.1051 0.58899 0.61995 0.0
C2009 C 0.10352 0.60899 0.62526 0.0
C2010 C 0.12737 0.58376 0.71473 0.0
C2011 C 0.09831 0.57684 0.58329 0.0
C2012 C 0.13571 0.54015 0.62505 0.0
C2013 C 0.1167 0.51845 0.63357 0.0
C2014 C 0.13479 0.56052 0.63029 0.0
C2015 C 0.11428 0.55912 0.64402 0.0
C2016 C 0.0951 0.53728 0.65289 0.0
C2017 C 0.09658 0.51724 0.64776 0.0
C2018 C 0.15571 0.58352 0.62097 0.0
C2019 C 0.07287 0.53506 0.66734 0.0
H2020 H 0.1215 0.62087 0.71401 0.0
H2021 H 0.09758 0.61546 0.60297 0.0
H2022 H 0.11391 0.56601 0.72265 0.0
H2023 H 0.14289 0.58291 0.70624 0.0
H2024 H 0.13185 0.59513 0.73921 0.0
H2025 H 0.09266 0.58568 0.56346 0.0
H2026 H 0.11311 0.57595 0.57127 0.0
H2027 H 0.084 0.5588 0.58701 0.0
H2028 H 0.15134 0.54124 0.61418 0.0
H2029 H 0.08176 0.50054 0.65427 0.0
H2030 H 0.16125 0.595 0.64537 0.0
H2031 H 0.15125 0.59223 0.59916 0.0
H2032 H 0.17051 0.5817 0.61139 0.0
H2033 H 0.07627 0.54513 0.69308 0.0
H2034 H 0.05954 0.51681 0.67293 0.0
H2035 H 0.06579 0.54236 0.64717 0.0
C2036 C 0.39866 0.51254 0.65859 0.0
C2037 C 0.38352 0.51337 0.68444 0.0
C2038 C 0.41976 0.53239 0.64999 0.0
C2039 C 0.42588 0.55357 0.66766 0.0
C2040 C 0.41066 0.55454 0.69371 0.0
C2041 C 0.38968 0.53444 0.70178 0.0
C2042 C 0.43554 0.53069 0.62202 0.0
C2043 C 0.41658 0.57681 0.71313 0.0
C2044 C 0.48943 0.59984 0.67011 0.0
C2045 C 0.49077 0.61453 0.64148 0.0
C2046 C 0.46839 0.58002 0.67907 0.0
C2047 C 0.44821 0.57474 0.6589 0.0
C2048 C 0.4494 0.58959 0.63021 0.0
C2049 C 0.47065 0.60931 0.62187 0.0
C2050 C 0.4678 0.56463 0.70993 0.0
C2051 C 0.42824 0.58453 0.60809 0.0
H2052 H 0.39406 0.49635 0.64507 0.0
H2053 H 0.3781 0.53526 0.7218 0.0
H2054 H 0.43875 0.54285 0.59905 0.0
H2055 H 0.45253 0.53577 0.63472 0.0
H2056 H 0.42822 0.51295 0.61065 0.0
H2057 H 0.40285 0.57468 0.73262 0.0
H2058 H 0.43301 0.58328 0.72851 0.0
H2059 H 0.41924 0.59028 0.69275 0.0
H2060 H 0.50487 0.60373 0.68544 0.0
H2061 H 0.4715 0.62053 0.59969 0.0
H2062 H 0.46206 0.547 0.69932 0.0
H2063 H 0.45509 0.563 0.73105 0.0
H2064 H 0.48494 0.57132 0.72326 0.0
H2065 H 0.42125 0.56754 0.59424 0.0
H2066 H 0.43201 0.59795 0.58694 0.0
H2067 H 0.4145 0.58343 0.62652 0.0
C2068 C 0.43103 0.92206 0.61724 0.0
C2069 C 0.40901 0.90533 0.62955 0.0
C2070 C 0.45039 0.91952 0.62332 0.0
C2071 C 0.44768 0.89978 0.64219 0.0
C2072 C 0.42549 0.88274 0.65446 0.0
C2073 C 0.40641 0.88572 0.64799 0.0
C2074 C 0.47379 0.93806 0.60981 0.0
C2075 C 0.42193 0.86146 0.6747 0.0
C2076 C 0.49443 0.88354 0.63187 0.0
C2077 C 0.50717 0.89252 0.66428 0.0
C2078 C 0.475 0.88575 0.62431 0.0
C2079 C 0.46817 0.89721 0.64977 0.0
C2080 C 0.48095 0.90633 0.6825 0.0
C2081 C 0.50029 0.90388 0.68936 0.0
C2082 C 0.46177 0.87581 0.5891 0.0
C2083 C 0.47421 0.91868 0.7103 0.0
H2084 H 0.43319 0.93725 0.60291 0.0
H2085 H 0.38946 0.87269 0.65757 0.0
H2086 H 0.48583 0.9457 0.63334 0.0
H2087 H 0.48128 0.9304 0.59114 0.0
H2088 H 0.4729 0.95214 0.595 0.0
H2089 H 0.4035 0.84963 0.68183 0.0
H2090 H 0.42811 0.85186 0.65768 0.0
H2091 H 0.43226 0.86659 0.70036 0.0
H2092 H 0.49961 0.87474 0.61235 0.0
H2093 H 0.51002 0.91088 0.71449 0.0
H2094 H 0.46161 0.8897 0.5726 0.0
H2095 H 0.44351 0.86288 0.59537 0.0
H2096 H 0.46931 0.86737 0.5722 0.0
H2097 H 0.47444 0.93384 0.69734 0.0
H2098 H 0.48596 0.92475 0.73442 0.0
H2099 H 0.45631 0.90699 0.72005 0.0
C2100 C 0.18623 0.44963 0.17592 0.0
C2101 C 0.16986 0.43252 0.19917 0.0
C2102 C 0.20774 0.45131 0.16955 0.0
C2103 C 0.21305 0.43557 0.18696 0.0
C2104 C 0.1967 0.41841 0.21072 0.0
C2105 C 0.17528 0.41706 0.21649 0.0
C2106 C 0.22472 0.4698 0.14392 0.0
C2107 C 0.20179 0.40138 0.22988 0.0
C2108 C 0.25913 0.42578 0.14355 0.0
C2109 C 0.27856 0.43995 0.16512 0.0
C2110 C 0.23768 0.42411 0.15049 0.0
C2111 C 0.23557 0.43684 0.17981 0.0
C2112 C 0.25503 0.45097 0.20196 0.0
C2113 C 0.27631 0.45239 0.19431 0.0
C2114 C 0.21731 0.4089 0.12622 0.0
C2115 C 0.2534 0.4647 0.23357 0.0
H2116 H 0.18218 0.46164 0.16242 0.0
H2117 H 0.16276 0.40383 0.23459 0.0
H2118 H 0.24123 0.48099 0.15847 0.0
H2119 H 0.22868 0.46169 0.12057 0.0
H2120 H 0.21805 0.48085 0.13287 0.0
H2121 H 0.18741 0.38937 0.24807 0.0
H2122 H 0.20494 0.39104 0.20928 0.0
H2123 H 0.21775 0.41077 0.2466 0.0
H2124 H 0.26069 0.41613 0.12091 0.0
H2125 H 0.29122 0.46334 0.21116 0.0
H2126 H 0.21091 0.41946 0.11252 0.0
H2127 H 0.2029 0.3957 0.14304 0.0
H2128 H 0.22176 0.39993 0.1048 0.0
H2129 H 0.24823 0.4771 0.22329 0.0
H2130 H 0.27002 0.4745 0.24862 0.0
H2131 H 0.23987 0.45297 0.25314 0.0
C2132 C 0.55885 0.81714 0.17386 0.0
C2133 C 0.54207 0.81665 0.15012 0.0
C2134 C 0.55874 0.79673 0.18346 0.0
C2135 C 0.54145 0.77533 0.16897 0.0
C2136 C 0.52442 0.77471 0.1451 0.0
C2137 C 0.52494 0.79538 0.13595 0.0
C2138 C 0.5772 0.79808 0.20898 0.0
C2139 C 0.5057 0.7522 0.12911 0.0
C2140 C 0.55397 0.72581 0.16643 0.0
C2141 C 0.54193 0.71292 0.19742 0.0
C2142 C 0.5538 0.74605 0.1567 0.0
C2143 C 0.54132 0.75362 0.1785 0.0
C2144 C 0.52894 0.7406 0.20959 0.0
C2145 C 0.52936 0.72038 0.21866 0.0
C2146 C 0.56716 0.75946 0.12327 0.0
C2147 C 0.51544 0.74816 0.23349 0.0
H2148 H 0.57215 0.8335 0.18493 0.0
H2149 H 0.5119 0.79483 0.1176 0.0
H2150 H 0.56908 0.78716 0.23355 0.0
H2151 H 0.58731 0.79123 0.19506 0.0
H2152 H 0.5893 0.81604 0.21815 0.0
H2153 H 0.49362 0.75465 0.11123 0.0
H2154 H 0.5136 0.74393 0.11274 0.0
H2155 H 0.49563 0.74004 0.1515 0.0
H2156 H 0.56369 0.72016 0.14981 0.0
H2157 H 0.52002 0.71055 0.24266 0.0
H2158 H 0.58062 0.77717 0.1314 0.0
H2159 H 0.55542 0.76126 0.10371 0.0
H2160 H 0.57567 0.75103 0.10888 0.0
H2161 H 0.52724 0.76548 0.24523 0.0
H2162 H 0.50644 0.7359 0.25639 0.0
H2163 H 0.50238 0.7497 0.21678 0.0
C2164 C 0.19026 0.7139 0.15692 0.0
C2165 C 0.16878 0.71291 0.15836 0.0
C2166 C 0.21071 0.7341 0.1667 0.0
C2167 C 0.20967 0.7538 0.17818 0.0
C2168 C 0.18803 0.75286 0.1801 0.0
C2169 C 0.16783 0.73242 0.17019 0.0
C2170 C 0.23346 0.73444 0.16436 0.0
C2171 C 0.18624 0.77353 0.19223 0.0
C2172 C 0.25997 0.80058 0.23233 0.0
C2173 C 0.27188 0.8173 0.20518 0.0
C2174 C 0.23974 0.77978 0.22391 0.0
C2175 C 0.23128 0.77557 0.18746 0.0
C2176 C 0.24338 0.79223 0.15984 0.0
C2177 C 0.26351 0.8129 0.16903 0.0
C2178 C 0.2273 0.7624 0.25409 0.0
C2179 C 0.23494 0.78832 0.12062 0.0
H2180 H 0.19117 0.69891 0.1479 0.0
H2181 H 0.15132 0.73181 0.17139 0.0
H2182 H 0.24503 0.74782 0.14445 0.0
H2183 H 0.24228 0.7391 0.19139 0.0
H2184 H 0.23125 0.71749 0.15571 0.0
H2185 H 0.16807 0.76982 0.19302 0.0
H2186 H 0.19392 0.77917 0.21994 0.0
H2187 H 0.19621 0.78823 0.17324 0.0
H2188 H 0.26628 0.80384 0.26034 0.0
H2189 H 0.27262 0.82569 0.14785 0.0
H2190 H 0.22576 0.74555 0.24686 0.0
H2191 H 0.20949 0.75945 0.25718 0.0
H2192 H 0.23631 0.76816 0.28092 0.0
H2193 H 0.23367 0.77217 0.1099 0.0
H2194 H 0.24651 0.80285 0.1023 0.0
H2195 H 0.21735 0.78613 0.11938 0.0
C2196 C 0.21418 0.25343 0.16805 0.0
C2197 C 0.22391 0.2433 0.14601 0.0
C2198 C 0.21374 0.25131 0.20643 0.0
C2199 C 0.22332 0.23882 0.22305 0.0
C2200 C 0.23409 0.22945 0.20105 0.0
C2201 C 0.23424 0.23178 0.16281 0.0
C2202 C 0.20217 0.2616 0.22905 0.0
C2203 C 0.24459 0.2161 0.21778 0.0
C2204 C 0.23451 0.24407 0.32586 0.0
C2205 C 0.21487 0.22417 0.33897 0.0
C2206 C 0.23752 0.24915 0.28817 0.0
C2207 C 0.22049 0.23396 0.2631 0.0
C2208 C 0.20071 0.21381 0.27616 0.0
C2209 C 0.19815 0.20916 0.3139 0.0
C2210 C 0.25885 0.27077 0.27519 0.0
C2211 C 0.1822 0.19715 0.25023 0.0
H2212 H 0.20623 0.26242 0.15531 0.0
H2213 H 0.24196 0.22404 0.14602 0.0
H2214 H 0.18631 0.24752 0.24197 0.0
H2215 H 0.21377 0.27237 0.25152 0.0
H2216 H 0.19728 0.2724 0.21229 0.0
H2217 H 0.25394 0.21155 0.19719 0.0
H2218 H 0.25681 0.22631 0.24001 0.0
H2219 H 0.23077 0.19989 0.23027 0.0
H2220 H 0.2475 0.25577 0.34507 0.0
H2221 H 0.18292 0.19376 0.32376 0.0
H2222 H 0.2538 0.28203 0.26021 0.0
H2223 H 0.26867 0.26616 0.25569 0.0
H2224 H 0.27047 0.28079 0.29821 0.0
H2225 H 0.17496 0.20627 0.23441 0.0
H2226 H 0.16783 0.18231 0.26483 0.0
H2227 H 0.18981 0.19032 0.23017 0.0
C2228 C 0.75193 0.99465 0.1735 0.0
C2229 C 0.76756 0.98801 0.1606 0.0
C2230 C 0.74702 0.99395 0.21108 0.0
C2231 C 0.75789 0.98628 0.23626 0.0
C2232 C 0.77338 0.97919 0.22334 0.0
C2233 C 0.77804 0.98016 0.18567 0.0
C2234 C 0.73029 0.00149 0.22378 0.0
C2235 C 0.78538 0.97099 0.24942 0.0
C2236 C 0.76669 0.00588 0.33537 0.0
C2237 C 0.74998 0.98589 0.35342 0.0
C2238 C 0.76889 0.00647 0.29709 0.0
C2239 C 0.75399 0.98662 0.27632 0.0
C2240 C 0.73642 0.96673 0.29416 0.0
C2241 C 0.73465 0.96658 0.33257 0.0
C2242 C 0.78766 0.02811 0.27898 0.0
C2243 C 0.72007 0.94533 0.27282 0.0
H2244 H 0.74366 0.00063 0.15428 0.0
H2245 H 0.79009 0.97494 0.17593 0.0
H2246 H 0.71472 0.98647 0.23555 0.0
H2247 H 0.73817 0.0147 0.24573 0.0
H2248 H 0.7248 0.00874 0.20103 0.0
H2249 H 0.79635 0.96537 0.23485 0.0
H2250 H 0.79645 0.98512 0.26867 0.0
H2251 H 0.7724 0.95632 0.26611 0.0
H2252 H 0.7785 0.02095 0.35121 0.0
H2253 H 0.7216 0.95112 0.34629 0.0
H2254 H 0.7802 0.03389 0.257 0.0
H2255 H 0.80045 0.02437 0.26589 0.0
H2256 H 0.79691 0.04251 0.2988 0.0
H2257 H 0.71213 0.94985 0.24988 0.0
H2258 H 0.70606 0.93214 0.29034 0.0
H2259 H 0.72983 0.93754 0.26061 0.0
C2260 C 0.00632 0.76268 0.31829 0.0
C2261 C 0.00629 0.78193 0.33372 0.0
C2262 C 0.00797 0.76081 0.28016 0.0
C2263 C 0.00964 0.77861 0.25699 0.0
C2264 C 0.00971 0.7981 0.27241 0.0
C2265 C 0.00803 0.79951 0.31057 0.0
C2266 C 0.00782 0.73977 0.26465 0.0
C2267 C 0.01145 0.81742 0.24858 0.0
C2268 C 0.03344 0.78608 0.16019 0.0
C2269 C 0.01313 0.77655 0.13918 0.0
C2270 C 0.03256 0.78631 0.19868 0.0
C2271 C 0.01085 0.77675 0.21651 0.0
C2272 C 0.99027 0.7665 0.1955 0.0
C2273 C 0.99166 0.76653 0.1571 0.0
C2274 C 0.05486 0.79737 0.22023 0.0
C2275 C 0.9668 0.75609 0.21353 0.0
H2276 H 0.00503 0.74904 0.336 0.0
H2277 H 0.00806 0.81446 0.32224 0.0
H2278 H 0.99288 0.73043 0.24586 0.0
H2279 H 0.02371 0.74511 0.24827 0.0
H2280 H 0.00676 0.72762 0.28642 0.0
H2281 H 0.01161 0.83154 0.26492 0.0
H2282 H 0.02746 0.82482 0.23183 0.0
H2283 H 0.99662 0.81056 0.22927 0.0
H2284 H 0.05009 0.79381 0.14658 0.0
H2285 H 0.97585 0.75904 0.14112 0.0
H2286 H 0.0545 0.78517 0.24125 0.0
H2287 H 0.05685 0.81281 0.23494 0.0
H2288 H 0.07022 0.80279 0.20239 0.0
H2289 H 0.96485 0.74308 0.2343 0.0
H2290 H 0.95244 0.74765 0.1934 0.0
H2291 H 0.96514 0.76977 0.2281 0.0
C2292 C 0.75555 0.76629 0.83113 0.0
C2293 C 0.75574 0.74763 0.84853 0.0
C2294 C 0.75764 0.76895 0.79296 0.0
C2295 C 0.76003 0.75257 0.77163 0.0
C2296 C 0.7589 0.73298 0.78873 0.0
C2297 C 0.7568 0.73075 0.82708 0.0
C2298 C 0.75838 0.78986 0.77566 0.0
C2299 C 0.76103 0.71498 0.76678 0.0
C2300 C 0.75438 0.75577 0.6683 0.0
C2301 C 0.77762 0.76945 0.65781 0.0
C2302 C 0.74831 0.74951 0.70517 0.0
C2303 C 0.76592 0.75724 0.73208 0.0
C2304 C 0.78941 0.77064 0.72153 0.0
C2305 C 0.79496 0.7766 0.68456 0.0
C2306 C 0.72306 0.73525 0.71534 0.0
C2307 C 0.80869 0.7791 0.74942 0.0
H2308 H 0.7544 0.77926 0.84743 0.0
H2309 H 0.75677 0.71618 0.84028 0.0
H2310 H 0.77582 0.80133 0.76398 0.0
H2311 H 0.74578 0.78449 0.75275 0.0
H2312 H 0.75446 0.79998 0.79568 0.0
H2313 H 0.75568 0.69895 0.78289 0.0
H2314 H 0.75038 0.71045 0.7415 0.0
H2315 H 0.7793 0.72208 0.7582 0.0
H2316 H 0.74086 0.75013 0.64779 0.0
H2317 H 0.81296 0.78703 0.67671 0.0
H2318 H 0.71715 0.74676 0.727 0.0
H2319 H 0.7203 0.7222 0.73657 0.0
H2320 H 0.7121 0.72625 0.69115 0.0
H2321 H 0.8071 0.79082 0.76929 0.0
H2322 H 0.82608 0.78855 0.73652 0.0
H2323 H 0.80739 0.76428 0.76521 0.0
C2324 C 0.24144 0.00893 0.66262 0.0
C2325 C 0.21983 0.99356 0.6472 0.0
C2326 C 0.24416 0.01205 0.70076 0.0
C2327 C 0.22481 -0.00048 0.72397 0.0
C2328 C 0.20309 0.9836 0.70863 0.0
C2329 C 0.20087 0.9808 0.67044 0.0
C2330 C 0.2676 0.02912 0.71618 0.0
C2331 C 0.18206 0.9699 0.73253 0.0
C2332 C 0.23265 0.99327 0.82574 0.0
C2333 C 0.22782 0.00971 0.84093 0.0
C2334 C 0.23228 0.99011 0.78761 0.0
C2335 C 0.22693 0.00371 0.76419 0.0
C2336 C 0.22263 0.02072 0.7793 0.0
C2337 C 0.22313 0.02352 0.81748 0.0
C2338 C 0.23703 0.97186 0.77243 0.0
C2339 C 0.21692 0.0356 0.75517 0.0
H2340 H 0.2562 0.01882 0.64487 0.0
H2341 H 0.18413 0.96884 0.65879 0.0
H2342 H 0.26669 0.04343 0.73006 0.0
H2343 H 0.2729 0.02061 0.73711 0.0
H2344 H 0.28115 0.0366 0.69459 0.0
H2345 H 0.16665 0.95755 0.71642 0.0
H2346 H 0.18566 0.96007 0.75352 0.0
H2347 H 0.17786 0.98185 0.74735 0.0
H2348 H 0.23635 0.98256 0.84365 0.0
H2349 H 0.21946 0.03632 0.82896 0.0
H2350 H 0.25102 0.97954 0.75162 0.0
H2351 H 0.22135 0.95823 0.75846 0.0
H2352 H 0.24214 0.96361 0.79418 0.0
H2353 H 0.23067 0.04465 0.73432 0.0
H2354 H 0.21499 0.04871 0.77112 0.0
H2355 H 0.20055 0.02454 0.74018 0.0
C2356 C 0.99569 0.2471 0.68007 0.0
C2357 C 0.99278 0.22582 0.66813 0.0
C2358 C 0.99455 0.25138 0.71754 0.0
C2359 C 0.99014 0.23386 0.74348 0.0
C2360 C 0.98723 0.21239 0.73155 0.0
C2361 C 0.98867 0.20868 0.69407 0.0
C2362 C 0.99789 0.27455 0.72929 0.0
C2363 C 0.98247 0.19325 0.7584 0.0
C2364 C 0.00643 0.2458 0.84378 0.0
C2365 C 0.98482 0.23822 0.86027 0.0
C2366 C 0.00864 0.24575 0.80554 0.0
C2367 C 0.98872 0.23775 0.78328 0.0
C2368 C 0.96706 0.23119 0.79962 0.0
C2369 C 0.96537 0.23157 0.83798 0.0
C2370 C 0.0321 0.25323 0.78906 0.0
C2371 C 0.94545 0.2226 0.77671 0.0
H2372 H 0.99885 0.26043 0.66015 0.0
H2373 H 0.98635 0.19217 0.6851 0.0
H2374 H 0.9814 0.27232 0.74025 0.0
H2375 H 0.01088 0.28199 0.75164 0.0
H2376 H 0.00361 0.28711 0.70624 0.0
H2377 H 0.98039 0.17749 0.74458 0.0
H2378 H 0.99687 0.19928 0.77842 0.0
H2379 H 0.96649 0.18852 0.77416 0.0
H2380 H 0.02161 0.25125 0.86081 0.0
H2381 H 0.94864 0.22582 0.85051 0.0
H2382 H 0.03584 0.2658 0.76653 0.0
H2383 H 0.03221 0.23802 0.77705 0.0
H2384 H 0.04618 0.26124 0.80973 0.0
H2385 H 0.94835 0.23494 0.75417 0.0
H2386 H 0.9304 0.22013 0.79325 0.0
H2387 H 0.9411 0.20583 0.7639 0.0
C2388 C 0.86364 0.53051 0.51441 0.0
C2389 C 0.87997 0.54592 0.48925 0.0
C2390 C 0.86842 0.53243 0.5521 0.0
C2391 C 0.8901 0.55016 0.56499 0.0
C2392 C 0.90661 0.56594 0.53984 0.0
C2393 C 0.90132 0.56366 0.50222 0.0
C2394 C 0.8503 0.51536 0.57814 0.0
C2395 C 0.9299 0.58507 0.55264 0.0
C2396 C 0.89161 0.56475 0.66578 0.0
C2397 C 0.90027 0.55146 0.68171 0.0
C2398 C 0.88905 0.5652 0.62766 0.0
C2399 C 0.8953 0.55205 0.60489 0.0
C2400 C 0.90495 0.53937 0.62063 0.0
C2401 C 0.90733 0.53922 0.6589 0.0
C2402 C 0.87877 0.579 0.61189 0.0
C2403 C 0.9119 0.52521 0.59715 0.0
H2404 H 0.84708 0.51679 0.50465 0.0
H2405 H 0.91406 0.57562 0.48295 0.0
H2406 H 0.85723 0.5057 0.59325 0.0
H2407 H 0.84582 0.52468 0.5988 0.0
H2408 H 0.83423 0.50272 0.56371 0.0
H2409 H 0.94071 0.59609 0.52963 0.0
H2410 H 0.92761 0.59618 0.57288 0.0
H2411 H 0.93938 0.57757 0.56672 0.0
H2412 H 0.88623 0.57438 0.68316 0.0
H2413 H 0.91411 0.52898 0.67096 0.0
H2414 H 0.86163 0.56707 0.59965 0.0
H2415 H 0.88992 0.5905 0.58963 0.0
H2416 H 0.87651 0.58971 0.63299 0.0
H2417 H 0.89631 0.51079 0.5842 0.0
H2418 H 0.9208 0.51781 0.61327 0.0
H2419 H 0.92353 0.53598 0.5747 0.0
C2420 C 0.46506 0.34075 0.51522 0.0
C2421 C 0.44819 0.33698 0.48893 0.0
C2422 C 0.46131 0.34269 0.55258 0.0
C2423 C 0.44017 0.34082 0.56396 0.0
C2424 C 0.42296 0.3368 0.53765 0.0
C2425 C 0.42717 0.33491 0.5004 0.0
C2426 C 0.48007 0.34693 0.57986 0.0
C2427 C 0.4002 0.33468 0.54882 0.0
C2428 C 0.42543 0.32638 0.66453 0.0
C2429 C 0.43336 0.34837 0.67983 0.0
C2430 C 0.42677 0.32356 0.62664 0.0
C2431 C 0.43627 0.3432 0.60348 0.0
C2432 C 0.44347 0.36533 0.61853 0.0
C2433 C 0.44192 0.36765 0.65655 0.0
C2434 C 0.41885 0.29967 0.61158 0.0
C2435 C 0.45362 0.38667 0.59465 0.0
H2436 H 0.48134 0.34236 0.50663 0.0
H2437 H 0.41405 0.33202 0.48025 0.0
H2438 H 0.48567 0.36344 0.59458 0.0
H2439 H 0.47329 0.33295 0.60072 0.0
H2440 H 0.49544 0.34775 0.56656 0.0
H2441 H 0.38849 0.33122 0.52505 0.0
H2442 H 0.39131 0.32048 0.56905 0.0
H2443 H 0.4033 0.35086 0.56239 0.0
H2444 H 0.41869 0.31135 0.68227 0.0
H2445 H 0.44801 0.38469 0.66811 0.0
H2446 H 0.43392 0.29886 0.60058 0.0
H2447 H 0.4066 0.29585 0.58853 0.0
H2448 H 0.4103 0.28601 0.63279 0.0
H2449 H 0.47025 0.38978 0.58281 0.0
H2450 H 0.45683 0.40233 0.61016 0.0
H2451 H 0.44186 0.38415 0.5714 0.0
C2452 C 0.6686 0.12481 0.65558 0.0
C2453 C 0.66658 0.10901 0.6827 0.0
C2454 C 0.67097 0.12084 0.61849 0.0
C2455 C 0.67135 0.10058 0.60826 0.0
C2456 C 0.66907 0.08441 0.63541 0.0
C2457 C 0.6667 0.08882 0.67235 0.0
C2458 C 0.67325 0.13844 0.59025 0.0
C2459 C 0.66934 0.0626 0.62545 0.0
C2460 C 0.65744 0.08345 0.50839 0.0
C2461 C 0.67962 0.09314 0.49292 0.0
C2462 C 0.65448 0.08497 0.54617 0.0
C2463 C 0.67416 0.09648 0.56902 0.0
C2464 C 0.69655 0.10545 0.55387 0.0
C2465 C 0.69902 0.10366 0.51596 0.0
C2466 C 0.63031 0.07503 0.5614 0.0
C2467 C 0.71794 0.11772 0.57748 0.0
H2468 H 0.66851 0.14044 0.66332 0.0
H2469 H 0.66521 0.07654 0.69316 0.0
H2470 H 0.68993 0.14527 0.57546 0.0
H2471 H 0.65924 0.13013 0.56958 0.0
H2472 H 0.67244 0.1532 0.60271 0.0
H2473 H 0.66612 0.05117 0.64954 0.0
H2474 H 0.65602 0.05281 0.60433 0.0
H2475 H 0.68635 0.06709 0.61341 0.0
H2476 H 0.64233 0.07514 0.49084 0.0
H2477 H 0.71621 0.11109 0.50426 0.0
H2478 H 0.62779 0.08922 0.57189 0.0
H2479 H 0.62775 0.06338 0.58483 0.0
H2480 H 0.61682 0.0652 0.54043 0.0
H2481 H 0.71938 0.13386 0.58863 0.0
H2482 H 0.73398 0.12226 0.56197 0.0
H2483 H 0.71667 0.10673 0.60121 0.0
C2484 C 0.42816 0.09935 0.16845 0.0
C2485 C 0.45046 0.10506 0.17998 0.0
C2486 C 0.42325 0.10012 0.13117 0.0
C2487 C 0.44109 0.10683 0.10489 0.0
C2488 C 0.46343 0.11192 0.11624 0.0
C2489 C 0.46783 0.11093 0.15363 0.0
C2490 C 0.39918 0.09438 0.12003 0.0
C2491 C 0.48291 0.11913 0.089 0.0
C2492 C 0.42863 0.09502 0.00315 0.0
C2493 C 0.43357 0.11681 0.99014 0.0
C2494 C 0.43013 0.09123 0.04069 0.0
C2495 C 0.43686 0.1097 0.06572 0.0
C2496 C 0.44101 0.13148 0.05294 0.0
C2497 C 0.43924 0.13475 0.01532 0.0
C2498 C 0.42532 0.0677 0.05337 0.0
C2499 C 0.44825 0.15162 0.07882 0.0
H2500 H 0.4146 0.09471 0.18861 0.0
H2501 H 0.48508 0.1153 0.16225 0.0
H2502 H 0.39963 0.11005 0.10877 0.0
H2503 H 0.39255 0.08113 0.09801 0.0
H2504 H 0.38686 0.08788 0.14342 0.0
H2505 H 0.499 0.12154 0.10208 0.0
H2506 H 0.47774 0.10595 0.06703 0.0
H2507 H 0.48673 0.13562 0.07569 0.0
H2508 H 0.4241 0.08102 0.9839 0.0
H2509 H 0.44303 0.15162 0.00555 0.0
H2510 H 0.41282 0.06152 0.07647 0.0
H2511 H 0.44154 0.0689 0.06362 0.0
H2512 H 0.41831 0.05465 0.03101 0.0
H2513 H 0.43574 0.14664 0.10178 0.0
H2514 H 0.44952 0.16701 0.06486 0.0
H2515 H 0.46535 0.15653 0.09095 0.0
C2516 C 0.86634 0.318 0.14522 0.0
C2517 C 0.88295 0.32101 0.1715 0.0
C2518 C 0.87043 0.31707 0.1077 0.0
C2519 C 0.89166 0.31922 0.09617 0.0
C2520 C 0.9085 0.3222 0.12252 0.0
C2521 C 0.90394 0.32304 0.15992 0.0
C2522 C 0.85202 0.31385 0.08038 0.0
C2523 C 0.93134 0.32457 0.11118 0.0
C2524 C 0.89112 0.29676 0.00037 0.0
C2525 C 0.89969 0.31704 0.97943 0.0
C2526 C 0.88925 0.29732 0.03867 0.0
C2527 C 0.8962 0.31867 0.05638 0.0
C2528 C 0.90588 0.33933 0.03559 0.0
C2529 C 0.90746 0.33826 0.99735 0.0
C2530 C 0.87888 0.27494 0.05998 0.0
C2531 C 0.9137 0.36246 0.05356 0.0
H2532 H 0.85007 0.31637 0.15391 0.0
H2533 H 0.91686 0.32533 0.18008 0.0
H2534 H 0.85897 0.3288 0.06131 0.0
H2535 H 0.84691 0.29815 0.06362 0.0
H2536 H 0.83633 0.31215 0.0939 0.0
H2537 H 0.94265 0.32693 0.13508 0.0
H2538 H 0.92837 0.30898 0.0958 0.0
H2539 H 0.9406 0.33959 0.0925 0.0
H2540 H 0.88516 0.2803 0.98676 0.0
H2541 H 0.91428 0.35405 0.98141 0.0
H2542 H 0.86199 0.27112 0.07168 0.0
H2543 H 0.89026 0.27648 0.08329 0.0
H2544 H 0.87611 0.2601 0.04258 0.0
H2545 H 0.89853 0.36282 0.06522 0.0
H2546 H 0.92253 0.37707 0.03395 0.0
H2547 H 0.92566 0.36517 0.07659 0.0
C2548 C 0.70216 0.59922 0.15518 0.0
C2549 C 0.68161 0.58712 0.17537 0.0
C2550 C 0.70202 0.59788 0.11672 0.0
C2551 C 0.68083 0.58417 0.09814 0.0
C2552 C 0.65991 0.57297 0.11825 0.0
C2553 C 0.66055 0.57455 0.15663 0.0
C2554 C 0.72467 0.61018 0.09617 0.0
C2555 C 0.63693 0.55844 0.09935 0.0
C2556 C 0.67604 0.58841 0.99488 0.0
C2557 C 0.67716 0.56905 0.98272 0.0
C2558 C 0.67774 0.59392 0.03235 0.0
C2559 C 0.68063 0.57973 0.05817 0.0
C2560 C 0.68231 0.56049 0.04597 0.0
C2561 C 0.68056 0.5554 0.0084 0.0
C2562 C 0.67614 0.61471 0.04435 0.0
C2563 C 0.68543 0.54496 0.07269 0.0
H2564 H 0.71849 0.60909 0.16943 0.0
H2565 H 0.64456 0.56535 0.172 0.0
H2566 H 0.72865 0.59725 0.08437 0.0
H2567 H 0.72344 0.62029 0.07299 0.0
H2568 H 0.73926 0.62203 0.11416 0.0
H2569 H 0.62212 0.5524 0.11861 0.0
H2570 H 0.6347 0.56844 0.07698 0.0
H2571 H 0.63642 0.54308 0.08667 0.0
H2572 H 0.67355 0.59914 0.97517 0.0
H2573 H 0.68154 0.54047 -0.00076 0.0
H2574 H 0.69214 0.627 0.05916 0.0
H2575 H 0.66151 0.60932 0.06372 0.0
H2576 H 0.67373 0.62389 0.02085 0.0
H2577 H 0.70094 0.55531 0.08995 0.0
H2578 H 0.68733 0.53124 0.05863 0.0
H2579 H 0.67029 0.53657 0.09135 0.0
C2580 C 0.56384 0.89776 0.0069 0.0
C2581 C 0.57492 0.88704 0.02387 0.0
C2582 C 0.5625 0.8985 0.96859 0.0
C2583 C 0.57245 0.88826 0.94669 0.0
C2584 C 0.58433 0.8781 0.96355 0.0
C2585 C 0.58544 0.87762 0.002 0.0
C2586 C 0.54976 0.90958 0.95161 0.0
C2587 C 0.59519 0.86705 0.94101 0.0
C2588 C 0.54594 0.86708 0.85266 0.0
C2589 C 0.56176 0.88487 0.82979 0.0
C2590 C 0.54939 0.86789 0.8907 0.0
C2591 C 0.56914 0.88696 0.90627 0.0
C2592 C 0.58525 0.90494 0.88337 0.0
C2593 C 0.58137 0.90368 0.84536 0.0
C2594 C 0.53179 0.84839 0.91427 0.0
C2595 C 0.60649 0.92555 0.89906 0.0
H2596 H 0.55578 0.90522 0.02356 0.0
H2597 H 0.59408 0.86936 0.0149 0.0
H2598 H 0.56087 0.92271 0.93103 0.0
H2599 H 0.53417 0.89627 0.937 0.0
H2600 H 0.54424 0.91802 0.97238 0.0
H2601 H 0.60514 0.8613 0.95816 0.0
H2602 H 0.58151 0.85183 0.92618 0.0
H2603 H 0.60693 0.87938 0.92003 0.0
H2604 H 0.53078 0.85245 0.84087 0.0
H2605 H 0.59372 0.91747 0.82785 0.0
H2606 H 0.52413 0.85519 0.93426 0.0
H2607 H 0.54031 0.84058 0.93025 0.0
H2608 H 0.5176 0.83459 0.89779 0.0
H2609 H 0.60129 0.93491 0.91852 0.0
H2610 H 0.6176 0.93783 0.87744 0.0
H2611 H 0.61689 0.91971 0.91475 0.0
C2612 C 0.11348 0.70414 0.99798 0.0
C2613 C 0.10173 0.68358 0.01821 0.0
C2614 C 0.11405 0.70373 0.95948 0.0
C2615 C 0.1026 0.68225 0.94087 0.0
C2616 C 0.08985 0.66154 0.96107 0.0
C2617 C 0.08956 0.66245 -0.00052 0.0
C2618 C 0.12773 0.72619 0.93881 0.0
C2619 C 0.07737 0.6383 0.94221 0.0
C2620 C 0.09281 0.68086 0.83789 0.0
C2621 C 0.11132 0.67868 0.82439 0.0
C2622 C 0.08976 0.68216 0.87579 0.0
C2623 C 0.10556 0.68123 0.90064 0.0
C2624 C 0.12422 0.67897 0.88715 0.0
C2625 C 0.12686 0.67773 0.84922 0.0
C2626 C 0.06966 0.68455 0.88924 0.0
C2627 C 0.14139 0.67781 0.91281 0.0
H2628 H 0.12283 0.72054 0.01221 0.0
H2629 H 0.0803 0.64647 0.01486 0.0
H2630 H 0.14298 0.7267 0.92572 0.0
H2631 H 0.11707 0.72747 0.91657 0.0
H2632 H 0.13388 0.74151 0.957 0.0
H2633 H 0.06668 0.62404 0.96158 0.0
H2634 H 0.06603 0.63848 0.92011 0.0
H2635 H 0.09017 0.63456 0.92916 0.0
H2636 H 0.08074 0.68165 0.81886 0.0
H2637 H 0.14121 0.67605 0.83905 0.0
H2638 H 0.07611 0.70056 0.90576 0.0
H2639 H 0.05845 0.66981 0.90743 0.0
H2640 H 0.05897 0.68514 0.86634 0.0
H2641 H 0.14987 0.69361 0.93005 0.0
H2642 H 0.155 0.67616 0.89788 0.0
H2643 H 0.1323 0.66282 0.93159 0.0
C2644 C 0.33385 0.45846 0.97854 0.0
C2645 C 0.33431 0.44162 0.00097 0.0
C2646 C 0.33597 0.45794 0.94034 0.0
C2647 C 0.33861 0.44013 0.92413 0.0
C2648 C 0.33912 0.42308 0.94656 0.0
C2649 C 0.33691 0.424 0.98476 0.0
C2650 C 0.33539 0.47647 0.91732 0.0
C2651 C 0.34186 0.40382 0.93021 0.0
C2652 C 0.322 0.4293 0.82366 0.0
C2653 C 0.34357 0.44199 0.80636 0.0
C2654 C 0.32022 0.42776 0.86201 0.0
C2655 C 0.34049 0.43934 0.88359 0.0
C2656 C 0.36238 0.4515 0.86633 0.0
C2657 C 0.36367 0.45261 0.82786 0.0
C2658 C 0.29658 0.41443 0.87943 0.0
C2659 C 0.38437 0.46406 0.88849 0.0
H2660 H 0.33189 0.47216 0.99082 0.0
H2661 H 0.3373 0.41093 0.00191 0.0
H2662 H 0.35152 0.48576 0.90096 0.0
H2663 H 0.32075 0.46847 0.89768 0.0
H2664 H 0.33353 0.48928 0.93425 0.0
H2665 H 0.34365 0.39297 0.95163 0.0
H2666 H 0.3266 0.39262 0.91297 0.0
H2667 H 0.35728 0.411 0.91213 0.0
H2668 H 0.30638 0.42086 0.80722 0.0
H2669 H 0.3804 0.46242 0.8147 0.0
H2670 H 0.29272 0.42648 0.8947 0.0
H2671 H 0.29619 0.40174 0.8995 0.0
H2672 H 0.2827 0.40505 0.85882 0.0
H2673 H 0.38447 0.47843 0.90393 0.0
H2674 H 0.40009 0.47132 0.87098 0.0
H2675 H 0.38526 0.45221 0.90894 0.0
C2676 C 0.10794 0.41885 0.48994 0.0
C2677 C 0.10014 0.43162 0.50982 0.0
C2678 C 0.10998 0.4206 0.45159 0.0
C2679 C 0.10401 0.43542 0.43274 0.0
C2680 C 0.0954 0.44776 0.45252 0.0
C2681 C 0.0936 0.44573 0.49083 0.0
C2682 C 0.1192 0.40716 0.43137 0.0
C2683 C 0.08874 0.46364 0.43331 0.0
C2684 C 0.13285 0.46033 0.34128 0.0
C2685 C 0.11541 0.44632 0.31637 0.0
C2686 C 0.12937 0.45686 0.37922 0.0
C2687 C 0.10791 0.43899 0.39257 0.0
C2688 C 0.09021 0.42478 0.36763 0.0
C2689 C 0.09418 0.4286 0.32978 0.0
C2690 C 0.14866 0.47235 0.40503 0.0
C2691 C 0.06709 0.40559 0.38092 0.0
H2692 H 0.11299 0.40787 0.50439 0.0
H2693 H 0.08744 0.45557 0.50595 0.0
H2694 H 0.10715 0.39676 0.40909 0.0
H2695 H 0.13599 0.41934 0.41834 0.0
H2696 H 0.12181 0.3954 0.4498 0.0
H2697 H 0.08107 0.47093 0.45242 0.0
H2698 H 0.10424 0.47815 0.42032 0.0
H2699 H 0.07612 0.4542 0.41112 0.0
H2700 H 0.14931 0.47402 0.33115 0.0
H2701 H 0.08061 0.41768 0.3107 0.0
H2702 H 0.15338 0.46179 0.42266 0.0
H2703 H 0.14279 0.48164 0.42344 0.0
H2704 H 0.16438 0.48532 0.3902 0.0
H2705 H 0.06955 0.39319 0.39789 0.0
H2706 H 0.05519 0.396 0.35794 0.0
H2707 H 0.05874 0.41283 0.39863 0.0
C2708 C 0.57245 0.66665 0.33678 0.0
C2709 C 0.5506 0.65158 0.32185 0.0
C2710 C 0.57541 0.67053 0.37474 0.0
C2711 C 0.55604 0.65912 0.39825 0.0
C2712 C 0.53404 0.64352 0.38346 0.0
C2713 C 0.53159 0.63992 0.34543 0.0
C2714 C 0.59916 0.68718 0.38959 0.0
C2715 C 0.51298 0.63103 0.40774 0.0
C2716 C 0.5647 0.65464 0.50022 0.0
C2717 C 0.56122 0.67219 0.5145 0.0
C2718 C 0.56343 0.65041 0.46234 0.0
C2719 C 0.55857 0.66405 0.43823 0.0
C2720 C 0.55547 0.68205 0.45238 0.0
C2721 C 0.55684 0.68591 0.49036 0.0
C2722 C 0.5669 0.63111 0.44818 0.0
C2723 C 0.5503 0.69699 0.42746 0.0
H2724 H 0.58725 0.67567 0.31877 0.0
H2725 H 0.51465 0.62823 0.33414 0.0
H2726 H 0.59899 0.70206 0.4028 0.0
H2727 H 0.60408 0.67859 0.41097 0.0
H2728 H 0.61261 0.69386 0.36782 0.0
H2729 H 0.49727 0.61887 0.39206 0.0
H2730 H 0.5161 0.62118 0.42933 0.0
H2731 H 0.50959 0.64377 0.42181 0.0
H2732 H 0.56814 0.64398 0.51868 0.0
H2733 H 0.55418 0.69953 0.50114 0.0
H2734 H 0.58088 0.63786 0.42734 0.0
H2735 H 0.55088 0.61782 0.4345 0.0
H2736 H 0.57139 0.62265 0.47043 0.0
H2737 H 0.56402 0.70531 0.40634 0.0
H2738 H 0.54901 0.7107 0.44272 0.0
H2739 H 0.53375 0.68611 0.41281 0.0
C2740 C 0.36603 0.92147 0.33419 0.0
C2741 C 0.34548 0.90853 0.31435 0.0
C2742 C 0.36611 0.92077 0.37269 0.0
C2743 C 0.34513 0.90688 0.3917 0.0
C2744 C 0.32418 0.89464 0.3719 0.0
C2745 C 0.32461 0.89558 0.33345 0.0
C2746 C 0.3888 0.93407 0.39291 0.0
C2747 C 0.30143 0.87977 0.39123 0.0
C2748 C 0.34756 0.88183 0.48383 0.0
C2749 C 0.34449 0.89625 0.50835 0.0
C2750 C 0.34803 0.8853 0.44584 0.0
C2751 C 0.3453 0.9036 0.43199 0.0
C2752 C 0.34232 0.91833 0.45655 0.0
C2753 C 0.34199 0.91449 0.4945 0.0
C2754 C 0.35132 0.86926 0.42049 0.0
C2755 C 0.3393 0.93798 0.44271 0.0
H2756 H 0.38222 0.93158 0.31966 0.0
H2757 H 0.30861 0.88566 0.31834 0.0
H2758 H 0.38736 0.94471 0.415 0.0
H2759 H 0.39317 0.92178 0.40616 0.0
H2760 H 0.40323 0.94558 0.37439 0.0
H2761 H 0.28648 0.87294 0.3721 0.0
H2762 H 0.3016 0.86492 0.40459 0.0
H2763 H 0.29884 0.88979 0.41314 0.0
H2764 H 0.34959 0.86774 0.49428 0.0
H2765 H 0.33962 0.92572 0.51329 0.0
H2766 H 0.36667 0.87937 0.40278 0.0
H2767 H 0.3361 0.86014 0.40215 0.0
H2768 H 0.35364 0.85614 0.4357 0.0
H2769 H 0.35427 0.94978 0.42538 0.0
H2770 H 0.33763 0.94814 0.46543 0.0
H2771 H 0.32363 0.93109 0.42522 0.0
loop_
_geom_bond_atom_site_label_1
_geom_bond_atom_site_label_2
_geom_bond_distance
_geom_bond_site_symmetry_2
_ccdc_geom_bond_type
C0 O1 1.160 . S
C0 O7 1.185 1_556 S
O1 C0 1.160 . S
O2 Zn3 1.899 . S
O2 C10 1.284 . S
Zn3 O2 1.899 . S
Zn3 O4 2.032 . S
Zn3 O7 2.086 . S
Zn3 O12 1.977 . S
O4 Zn3 2.032 . S
O4 C8 1.278 . S
C5 O6 1.203 . S
C5 O12 1.267 . S
O6 C5 1.203 . S
O7 C0 1.185 1_554 S
O7 Zn3 2.086 . S
C8 O4 1.278 . S
C8 O9 1.211 . S
O9 C8 1.211 . S
C10 O2 1.284 . S
C10 O11 1.273 . S
O11 C10 1.273 . S
O12 Zn3 1.977 . S
O12 C5 1.267 . S
C13 O14 1.160 . S
C13 O20 1.185 1_556 S
O14 C13 1.160 . S
O15 Zn16 1.899 1_565 S
O15 C23 1.284 . S
Zn16 O15 1.899 1_545 S
Zn16 O17 2.032 . S
Zn16 O20 2.086 . S
Zn16 O25 1.977 . S
O17 Zn16 2.032 . S
O17 C21 1.278 . S
C18 O19 1.203 1_545 S
C18 O25 1.267 . S
O19 C18 1.203 1_565 S
O20 C13 1.185 1_554 S
O20 Zn16 2.086 . S
C21 O17 1.278 . S
C21 O22 1.211 . S
O22 C21 1.211 . S
C23 O15 1.284 . S
C23 O24 1.273 . S
O24 C23 1.273 . S
O25 Zn16 1.977 . S
O25 C18 1.267 . S
C26 O27 1.160 . S
C26 O33 1.185 1_556 S
O27 C26 1.160 . S
O28 Zn29 1.899 1_455 S
O28 C36 1.284 . S
Zn29 O28 1.899 1_655 S
Zn29 O30 2.032 . S
Zn29 O33 2.086 . S
Zn29 O38 1.977 . S
O30 Zn29 2.032 . S
O30 C34 1.278 . S
C31 O32 1.203 1_655 S
C31 O38 1.267 . S
O32 C31 1.203 1_455 S
O33 C26 1.185 1_554 S
O33 Zn29 2.086 . S
C34 O30 1.278 . S
C34 O35 1.211 . S
O35 C34 1.211 . S
C36 O28 1.284 . S
C36 O37 1.273 . S
O37 C36 1.273 . S
O38 Zn29 1.977 . S
O38 C31 1.267 . S
C39 O40 1.160 . S
C39 O46 1.185 . S
O40 C39 1.160 . S
O41 Zn42 1.899 . S
O41 C49 1.284 . S
Zn42 O41 1.899 . S
Zn42 O43 2.032 . S
Zn42 O46 2.086 . S
Zn42 O51 1.977 . S
O43 Zn42 2.032 . S
O43 C47 1.278 . S
C44 O45 1.203 . S
C44 O51 1.267 . S
O45 C44 1.203 . S
O46 C39 1.185 . S
O46 Zn42 2.086 . S
C47 O43 1.278 . S
C47 O48 1.211 . S
O48 C47 1.211 . S
C49 O41 1.284 . S
C49 O50 1.273 . S
O50 C49 1.273 . S
O51 Zn42 1.977 . S
O51 C44 1.267 . S
C52 O53 1.160 . S
C52 O59 1.185 . S
O53 C52 1.160 . S
O54 Zn55 1.899 1_545 S
O54 C62 1.284 . S
Zn55 O54 1.899 1_565 S
Zn55 O56 2.032 . S
Zn55 O59 2.086 . S
Zn55 O64 1.977 . S
O56 Zn55 2.032 . S
O56 C60 1.278 . S
C57 O58 1.203 1_565 S
C57 O64 1.267 . S
O58 C57 1.203 1_545 S
O59 C52 1.185 . S
O59 Zn55 2.086 . S
C60 O56 1.278 . S
C60 O61 1.211 . S
O61 C60 1.211 . S
C62 O54 1.284 . S
C62 O63 1.273 . S
O63 C62 1.273 . S
O64 Zn55 1.977 . S
O64 C57 1.267 . S
C65 O66 1.160 . S
C65 O72 1.185 . S
O66 C65 1.160 . S
O67 Zn68 1.899 1_655 S
O67 C75 1.284 . S
Zn68 O67 1.899 1_455 S
Zn68 O69 2.032 . S
Zn68 O72 2.086 . S
Zn68 O77 1.977 . S
O69 Zn68 2.032 . S
O69 C73 1.278 . S
C70 O71 1.203 1_455 S
C70 O77 1.267 . S
O71 C70 1.203 1_655 S
O72 C65 1.185 . S
O72 Zn68 2.086 . S
C73 O69 1.278 . S
C73 O74 1.211 . S
O74 C73 1.211 . S
C75 O67 1.284 . S
C75 O76 1.273 . S
O76 C75 1.273 . S
O77 Zn68 1.977 . S
O77 C70 1.267 . S
C78 O79 1.160 . S
C78 O85 1.185 1_554 S
O79 C78 1.160 . S
O80 Zn81 1.899 . S
O80 C88 1.284 . S
Zn81 O80 1.899 . S
Zn81 O82 2.032 . S
Zn81 O85 2.086 . S
Zn81 O90 1.977 . S
O82 Zn81 2.032 . S
O82 C86 1.278 . S
C83 O84 1.203 . S
C83 O90 1.267 . S
O84 C83 1.203 . S
O85 C78 1.185 1_556 S
O85 Zn81 2.086 . S
C86 O82 1.278 . S
C86 O87 1.211 . S
O87 C86 1.211 . S
C88 O80 1.284 . S
C88 O89 1.273 . S
O89 C88 1.273 . S
O90 Zn81 1.977 . S
O90 C83 1.267 . S
C91 O92 1.160 . S
C91 O98 1.185 1_554 S
O92 C91 1.160 . S
O93 Zn94 1.899 1_545 S
O93 C101 1.284 . S
Zn94 O93 1.899 1_565 S
Zn94 O95 2.032 . S
Zn94 O98 2.086 . S
Zn94 O103 1.977 . S
O95 Zn94 2.032 . S
O95 C99 1.278 . S
C96 O97 1.203 1_565 S
C96 O103 1.267 . S
O97 C96 1.203 1_545 S
O98 C91 1.185 1_556 S
O98 Zn94 2.086 . S
C99 O95 1.278 . S
C99 O100 1.211 . S
O100 C99 1.211 . S
C101 O93 1.284 . S
C101 O102 1.273 . S
O102 C101 1.273 . S
O103 Zn94 1.977 . S
O103 C96 1.267 . S
C104 O105 1.160 . S
C104 O111 1.185 1_554 S
O105 C104 1.160 . S
O106 Zn107 1.899 1_655 S
O106 C114 1.284 . S
Zn107 O106 1.899 1_455 S
Zn107 O108 2.032 . S
Zn107 O111 2.086 . S
Zn107 O116 1.977 . S
O108 Zn107 2.032 . S
O108 C112 1.278 . S
C109 O110 1.203 1_455 S
C109 O116 1.267 . S
O110 C109 1.203 1_655 S
O111 C104 1.185 1_556 S
O111 Zn107 2.086 . S
C112 O108 1.278 . S
C112 O113 1.211 . S
O113 C112 1.211 . S
C114 O106 1.284 . S
C114 O115 1.273 . S
O115 C114 1.273 . S
O116 Zn107 1.977 . S
O116 C109 1.267 . S
C117 O118 1.160 . S
C117 O124 1.185 . S
O118 C117 1.160 . S
O119 Zn120 1.899 . S
O119 C127 1.284 . S
Zn120 O119 1.899 . S
Zn120 O121 2.032 . S
Zn120 O124 2.086 . S
Zn120 O129 1.977 . S
O121 Zn120 2.032 . S
O121 C125 1.278 . S
C122 O123 1.203 . S
C122 O129 1.267 . S
O123 C122 1.203 . S
O124 C117 1.185 . S
O124 Zn120 2.086 . S
C125 O121 1.278 . S
C125 O126 1.211 . S
O126 C125 1.211 . S
C127 O119 1.284 . S
C127 O128 1.273 . S
O128 C127 1.273 . S
O129 Zn120 1.977 . S
O129 C122 1.267 . S
C130 O131 1.160 . S
C130 O137 1.185 . S
O131 C130 1.160 . S
O132 Zn133 1.899 1_565 S
O132 C140 1.284 . S
Zn133 O132 1.899 1_545 S
Zn133 O134 2.032 . S
Zn133 O137 2.086 . S
Zn133 O142 1.977 . S
O134 Zn133 2.032 . S
O134 C138 1.278 . S
C135 O136 1.203 1_545 S
C135 O142 1.267 . S
O136 C135 1.203 1_565 S
O137 C130 1.185 . S
O137 Zn133 2.086 . S
C138 O134 1.278 . S
C138 O139 1.211 . S
O139 C138 1.211 . S
C140 O132 1.284 . S
C140 O141 1.273 . S
O141 C140 1.273 . S
O142 Zn133 1.977 . S
O142 C135 1.267 . S
C143 O144 1.160 . S
C143 O150 1.185 . S
O144 C143 1.160 . S
O145 Zn146 1.899 1_455 S
O145 C153 1.284 . S
Zn146 O145 1.899 1_655 S
Zn146 O147 2.032 . S
Zn146 O150 2.086 . S
Zn146 O155 1.977 . S
O147 Zn146 2.032 . S
O147 C151 1.278 . S
C148 O149 1.203 1_655 S
C148 O155 1.267 . S
O149 C148 1.203 1_455 S
O150 C143 1.185 . S
O150 Zn146 2.086 . S
C151 O147 1.278 . S
C151 O152 1.211 . S
O152 C151 1.211 . S
C153 O145 1.284 . S
C153 O154 1.273 . S
O154 C153 1.273 . S
O155 Zn146 1.977 . S
O155 C148 1.267 . S
C156 O157 1.160 . S
C156 O163 1.185 . S
O157 C156 1.160 . S
O158 Zn159 1.899 . S
O158 C166 1.284 . S
Zn159 O158 1.899 . S
Zn159 O160 2.032 . S
Zn159 O163 2.086 . S
Zn159 O168 1.977 . S
O160 Zn159 2.032 . S
O160 C164 1.278 . S
C161 O162 1.203 . S
C161 O168 1.267 . S
O162 C161 1.203 . S
O163 C156 1.185 . S
O163 Zn159 2.086 . S
C164 O160 1.278 . S
C164 O165 1.211 . S
O165 C164 1.211 . S
C166 O158 1.284 . S
C166 O167 1.273 . S
O167 C166 1.273 . S
O168 Zn159 1.977 . S
O168 C161 1.267 . S
C169 O170 1.160 . S
C169 O176 1.185 . S
O170 C169 1.160 . S
O171 Zn172 1.899 . S
O171 C179 1.284 . S
Zn172 O171 1.899 . S
Zn172 O173 2.032 . S
Zn172 O176 2.086 . S
Zn172 O181 1.977 . S
O173 Zn172 2.032 . S
O173 C177 1.278 . S
C174 O175 1.203 . S
C174 O181 1.267 . S
O175 C174 1.203 . S
O176 C169 1.185 . S
O176 Zn172 2.086 . S
C177 O173 1.278 . S
C177 O178 1.211 . S
O178 C177 1.211 . S
C179 O171 1.284 . S
C179 O180 1.273 . S
O180 C179 1.273 . S
O181 Zn172 1.977 . S
O181 C174 1.267 . S
C182 O183 1.160 . S
C182 O189 1.185 . S
O183 C182 1.160 . S
O184 Zn185 1.899 . S
O184 C192 1.284 . S
Zn185 O184 1.899 . S
Zn185 O186 2.032 . S
Zn185 O189 2.086 . S
Zn185 O194 1.977 . S
O186 Zn185 2.032 . S
O186 C190 1.278 . S
C187 O188 1.203 . S
C187 O194 1.267 . S
O188 C187 1.203 . S
O189 C182 1.185 . S
O189 Zn185 2.086 . S
C190 O186 1.278 . S
C190 O191 1.211 . S
O191 C190 1.211 . S
C192 O184 1.284 . S
C192 O193 1.273 . S
O193 C192 1.273 . S
O194 Zn185 1.977 . S
O194 C187 1.267 . S
C195 O196 1.160 . S
C195 O202 1.185 . S
O196 C195 1.160 . S
O197 Zn198 1.899 . S
O197 C205 1.284 . S
Zn198 O197 1.899 . S
Zn198 O199 2.032 . S
Zn198 O202 2.086 . S
Zn198 O207 1.977 . S
O199 Zn198 2.032 . S
O199 C203 1.278 . S
C200 O201 1.203 . S
C200 O207 1.267 . S
O201 C200 1.203 . S
O202 C195 1.185 . S
O202 Zn198 2.086 . S
C203 O199 1.278 . S
C203 O204 1.211 . S
O204 C203 1.211 . S
C205 O197 1.284 . S
C205 O206 1.273 . S
O206 C205 1.273 . S
O207 Zn198 1.977 . S
O207 C200 1.267 . S
C208 O209 1.160 . S
C208 O215 1.185 . S
O209 C208 1.160 . S
O210 Zn211 1.899 . S
O210 C218 1.284 . S
Zn211 O210 1.899 . S
Zn211 O212 2.032 . S
Zn211 O215 2.086 . S
Zn211 O220 1.977 . S
O212 Zn211 2.032 . S
O212 C216 1.278 . S
C213 O214 1.203 . S
C213 O220 1.267 . S
O214 C213 1.203 . S
O215 C208 1.185 . S
O215 Zn211 2.086 . S
C216 O212 1.278 . S
C216 O217 1.211 . S
O217 C216 1.211 . S
C218 O210 1.284 . S
C218 O219 1.273 . S
O219 C218 1.273 . S
O220 Zn211 1.977 . S
O220 C213 1.267 . S
C221 O222 1.160 . S
C221 O228 1.185 . S
O222 C221 1.160 . S
O223 Zn224 1.899 . S
O223 C231 1.284 . S
Zn224 O223 1.899 . S
Zn224 O225 2.032 . S
Zn224 O228 2.086 . S
Zn224 O233 1.977 . S
O225 Zn224 2.032 . S
O225 C229 1.278 . S
C226 O227 1.203 . S
C226 O233 1.267 . S
O227 C226 1.203 . S
O228 C221 1.185 . S
O228 Zn224 2.086 . S
C229 O225 1.278 . S
C229 O230 1.211 . S
O230 C229 1.211 . S
C231 O223 1.284 . S
C231 O232 1.273 . S
O232 C231 1.273 . S
O233 Zn224 1.977 . S
O233 C226 1.267 . S
C234 O235 1.160 . S
C234 O241 1.185 . S
O235 C234 1.160 . S
O236 Zn237 1.899 . S
O236 C244 1.284 . S
Zn237 O236 1.899 . S
Zn237 O238 2.032 . S
Zn237 O241 2.086 . S
Zn237 O246 1.977 . S
O238 Zn237 2.032 . S
O238 C242 1.278 . S
C239 O240 1.203 . S
C239 O246 1.267 . S
O240 C239 1.203 . S
O241 C234 1.185 . S
O241 Zn237 2.086 . S
C242 O238 1.278 . S
C242 O243 1.211 . S
O243 C242 1.211 . S
C244 O236 1.284 . S
C244 O245 1.273 . S
O245 C244 1.273 . S
O246 Zn237 1.977 . S
O246 C239 1.267 . S
C247 O248 1.160 . S
C247 O254 1.185 . S
O248 C247 1.160 . S
O249 Zn250 1.899 . S
O249 C257 1.284 . S
Zn250 O249 1.899 . S
Zn250 O251 2.032 . S
Zn250 O254 2.086 . S
Zn250 O259 1.977 . S
O251 Zn250 2.032 . S
O251 C255 1.278 . S
C252 O253 1.203 . S
C252 O259 1.267 . S
O253 C252 1.203 . S
O254 C247 1.185 . S
O254 Zn250 2.086 . S
C255 O251 1.278 . S
C255 O256 1.211 . S
O256 C255 1.211 . S
C257 O249 1.284 . S
C257 O258 1.273 . S
O258 C257 1.273 . S
O259 Zn250 1.977 . S
O259 C252 1.267 . S
C260 O261 1.160 . S
C260 O267 1.185 . S
O261 C260 1.160 . S
O262 Zn263 1.899 . S
O262 C270 1.284 . S
Zn263 O262 1.899 . S
Zn263 O264 2.032 . S
Zn263 O267 2.086 . S
Zn263 O272 1.977 . S
O264 Zn263 2.032 . S
O264 C268 1.278 . S
C265 O266 1.203 . S
C265 O272 1.267 . S
O266 C265 1.203 . S
O267 C260 1.185 . S
O267 Zn263 2.086 . S
C268 O264 1.278 . S
C268 O269 1.211 . S
O269 C268 1.211 . S
C270 O262 1.284 . S
C270 O271 1.273 . S
O271 C270 1.273 . S
O272 Zn263 1.977 . S
O272 C265 1.267 . S
C273 O274 1.160 . S
C273 O280 1.185 . S
O274 C273 1.160 . S
O275 Zn276 1.899 . S
O275 C283 1.284 . S
Zn276 O275 1.899 . S
Zn276 O277 2.032 . S
Zn276 O280 2.086 . S
Zn276 O285 1.977 . S
O277 Zn276 2.032 . S
O277 C281 1.278 . S
C278 O279 1.203 . S
C278 O285 1.267 . S
O279 C278 1.203 . S
O280 C273 1.185 . S
O280 Zn276 2.086 . S
C281 O277 1.278 . S
C281 O282 1.211 . S
O282 C281 1.211 . S
C283 O275 1.284 . S
C283 O284 1.273 . S
O284 C283 1.273 . S
O285 Zn276 1.977 . S
O285 C278 1.267 . S
C286 O287 1.160 . S
C286 O293 1.185 . S
O287 C286 1.160 . S
O288 Zn289 1.899 . S
O288 C296 1.284 . S
Zn289 O288 1.899 . S
Zn289 O290 2.032 . S
Zn289 O293 2.086 . S
Zn289 O298 1.977 . S
O290 Zn289 2.032 . S
O290 C294 1.278 . S
C291 O292 1.203 . S
C291 O298 1.267 . S
O292 C291 1.203 . S
O293 C286 1.185 . S
O293 Zn289 2.086 . S
C294 O290 1.278 . S
C294 O295 1.211 . S
O295 C294 1.211 . S
C296 O288 1.284 . S
C296 O297 1.273 . S
O297 C296 1.273 . S
O298 Zn289 1.977 . S
O298 C291 1.267 . S
C299 O300 1.160 . S
C299 O306 1.185 . S
O300 C299 1.160 . S
O301 Zn302 1.899 . S
O301 C309 1.284 . S
Zn302 O301 1.899 . S
Zn302 O303 2.032 . S
Zn302 O306 2.086 . S
Zn302 O311 1.977 . S
O303 Zn302 2.032 . S
O303 C307 1.278 . S
C304 O305 1.203 . S
C304 O311 1.267 . S
O305 C304 1.203 . S
O306 C299 1.185 . S
O306 Zn302 2.086 . S
C307 O303 1.278 . S
C307 O308 1.211 . S
O308 C307 1.211 . S
C309 O301 1.284 . S
C309 O310 1.273 . S
O310 C309 1.273 . S
O311 Zn302 1.977 . S
O311 C304 1.267 . S
C312 O313 1.160 . S
C312 O319 1.185 . S
O313 C312 1.160 . S
O314 Zn315 1.899 . S
O314 C322 1.284 . S
Zn315 O314 1.899 . S
Zn315 O316 2.032 . S
Zn315 O319 2.086 . S
Zn315 O324 1.977 . S
O316 Zn315 2.032 . S
O316 C320 1.278 . S
C317 O318 1.203 . S
C317 O324 1.267 . S
O318 C317 1.203 . S
O319 C312 1.185 . S
O319 Zn315 2.086 . S
C320 O316 1.278 . S
C320 O321 1.211 . S
O321 C320 1.211 . S
C322 O314 1.284 . S
C322 O323 1.273 . S
O323 C322 1.273 . S
O324 Zn315 1.977 . S
O324 C317 1.267 . S
C325 O326 1.160 . S
C325 O332 1.185 . S
O326 C325 1.160 . S
O327 Zn328 1.899 . S
O327 C335 1.284 . S
Zn328 O327 1.899 . S
Zn328 O329 2.032 . S
Zn328 O332 2.086 . S
Zn328 O337 1.977 . S
O329 Zn328 2.032 . S
O329 C333 1.278 . S
C330 O331 1.203 . S
C330 O337 1.267 . S
O331 C330 1.203 . S
O332 C325 1.185 . S
O332 Zn328 2.086 . S
C333 O329 1.278 . S
C333 O334 1.211 . S
O334 C333 1.211 . S
C335 O327 1.284 . S
C335 O336 1.273 . S
O336 C335 1.273 . S
O337 Zn328 1.977 . S
O337 C330 1.267 . S
C338 O339 1.160 . S
C338 O345 1.185 . S
O339 C338 1.160 . S
O340 Zn341 1.899 . S
O340 C348 1.284 . S
Zn341 O340 1.899 . S
Zn341 O342 2.032 . S
Zn341 O345 2.086 . S
Zn341 O350 1.977 . S
O342 Zn341 2.032 . S
O342 C346 1.278 . S
C343 O344 1.203 . S
C343 O350 1.267 . S
O344 C343 1.203 . S
O345 C338 1.185 . S
O345 Zn341 2.086 . S
C346 O342 1.278 . S
C346 O347 1.211 . S
O347 C346 1.211 . S
C348 O340 1.284 . S
C348 O349 1.273 . S
O349 C348 1.273 . S
O350 Zn341 1.977 . S
O350 C343 1.267 . S
C351 O352 1.160 . S
C351 O358 1.185 . S
O352 C351 1.160 . S
O353 Zn354 1.899 . S
O353 C361 1.284 . S
Zn354 O353 1.899 . S
Zn354 O355 2.032 . S
Zn354 O358 2.086 . S
Zn354 O363 1.977 . S
O355 Zn354 2.032 . S
O355 C359 1.278 . S
C356 O357 1.203 . S
C356 O363 1.267 . S
O357 C356 1.203 . S
O358 C351 1.185 . S
O358 Zn354 2.086 . S
C359 O355 1.278 . S
C359 O360 1.211 . S
O360 C359 1.211 . S
C361 O353 1.284 . S
C361 O362 1.273 . S
O362 C361 1.273 . S
O363 Zn354 1.977 . S
O363 C356 1.267 . S
C364 O365 1.160 . S
C364 O371 1.185 . S
O365 C364 1.160 . S
O366 Zn367 1.899 . S
O366 C374 1.284 . S
Zn367 O366 1.899 . S
Zn367 O368 2.032 . S
Zn367 O371 2.086 . S
Zn367 O376 1.977 . S
O368 Zn367 2.032 . S
O368 C372 1.278 . S
C369 O370 1.203 . S
C369 O376 1.267 . S
O370 C369 1.203 . S
O371 C364 1.185 . S
O371 Zn367 2.086 . S
C372 O368 1.278 . S
C372 O373 1.211 . S
O373 C372 1.211 . S
C374 O366 1.284 . S
C374 O375 1.273 . S
O375 C374 1.273 . S
O376 Zn367 1.977 . S
O376 C369 1.267 . S
C377 O378 1.160 . S
C377 O384 1.185 . S
O378 C377 1.160 . S
O379 Zn380 1.899 . S
O379 C387 1.284 . S
Zn380 O379 1.899 . S
Zn380 O381 2.032 . S
Zn380 O384 2.086 . S
Zn380 O389 1.977 . S
O381 Zn380 2.032 . S
O381 C385 1.278 . S
C382 O383 1.203 . S
C382 O389 1.267 . S
O383 C382 1.203 . S
O384 C377 1.185 . S
O384 Zn380 2.086 . S
C385 O381 1.278 . S
C385 O386 1.211 . S
O386 C385 1.211 . S
C387 O379 1.284 . S
C387 O388 1.273 . S
O388 C387 1.273 . S
O389 Zn380 1.977 . S
O389 C382 1.267 . S
C390 O391 1.160 . S
C390 O397 1.185 . S
O391 C390 1.160 . S
O392 Zn393 1.899 . S
O392 C400 1.284 . S
Zn393 O392 1.899 . S
Zn393 O394 2.032 . S
Zn393 O397 2.086 . S
Zn393 O402 1.977 . S
O394 Zn393 2.032 . S
O394 C398 1.278 . S
C395 O396 1.203 . S
C395 O402 1.267 . S
O396 C395 1.203 . S
O397 C390 1.185 . S
O397 Zn393 2.086 . S
C398 O394 1.278 . S
C398 O399 1.211 . S
O399 C398 1.211 . S
C400 O392 1.284 . S
C400 O401 1.273 . S
O401 C400 1.273 . S
O402 Zn393 1.977 . S
O402 C395 1.267 . S
C403 O404 1.160 . S
C403 O410 1.185 . S
O404 C403 1.160 . S
O405 Zn406 1.899 . S
O405 C413 1.284 . S
Zn406 O405 1.899 . S
Zn406 O407 2.032 . S
Zn406 O410 2.086 . S
Zn406 O415 1.977 . S
O407 Zn406 2.032 . S
O407 C411 1.278 . S
C408 O409 1.203 . S
C408 O415 1.267 . S
O409 C408 1.203 . S
O410 C403 1.185 . S
O410 Zn406 2.086 . S
C411 O407 1.278 . S
C411 O412 1.211 . S
O412 C411 1.211 . S
C413 O405 1.284 . S
C413 O414 1.273 . S
O414 C413 1.273 . S
O415 Zn406 1.977 . S
O415 C408 1.267 . S
C416 O417 1.160 . S
C416 O423 1.185 . S
O417 C416 1.160 . S
O418 Zn419 1.899 . S
O418 C426 1.284 . S
Zn419 O418 1.899 . S
Zn419 O420 2.032 . S
Zn419 O423 2.086 . S
Zn419 O428 1.977 . S
O420 Zn419 2.032 . S
O420 C424 1.278 . S
C421 O422 1.203 . S
C421 O428 1.267 . S
O422 C421 1.203 . S
O423 C416 1.185 . S
O423 Zn419 2.086 . S
C424 O420 1.278 . S
C424 O425 1.211 . S
O425 C424 1.211 . S
C426 O418 1.284 . S
C426 O427 1.273 . S
O427 C426 1.273 . S
O428 Zn419 1.977 . S
O428 C421 1.267 . S
C429 O430 1.160 . S
C429 O436 1.185 . S
O430 C429 1.160 . S
O431 Zn432 1.899 . S
O431 C439 1.284 . S
Zn432 O431 1.899 . S
Zn432 O433 2.032 . S
Zn432 O436 2.086 . S
Zn432 O441 1.977 . S
O433 Zn432 2.032 . S
O433 C437 1.278 . S
C434 O435 1.203 . S
C434 O441 1.267 . S
O435 C434 1.203 . S
O436 C429 1.185 . S
O436 Zn432 2.086 . S
C437 O433 1.278 . S
C437 O438 1.211 . S
O438 C437 1.211 . S
C439 O431 1.284 . S
C439 O440 1.273 . S
O440 C439 1.273 . S
O441 Zn432 1.977 . S
O441 C434 1.267 . S
C442 O443 1.160 . S
C442 O449 1.185 . S
O443 C442 1.160 . S
O444 Zn445 1.899 . S
O444 C452 1.284 . S
Zn445 O444 1.899 . S
Zn445 O446 2.032 . S
Zn445 O449 2.086 . S
Zn445 O454 1.977 . S
O446 Zn445 2.032 . S
O446 C450 1.278 . S
C447 O448 1.203 . S
C447 O454 1.267 . S
O448 C447 1.203 . S
O449 C442 1.185 . S
O449 Zn445 2.086 . S
C450 O446 1.278 . S
C450 O451 1.211 . S
O451 C450 1.211 . S
C452 O444 1.284 . S
C452 O453 1.273 . S
O453 C452 1.273 . S
O454 Zn445 1.977 . S
O454 C447 1.267 . S
C455 O456 1.160 . S
C455 O462 1.185 . S
O456 C455 1.160 . S
O457 Zn458 1.899 . S
O457 C465 1.284 . S
Zn458 O457 1.899 . S
Zn458 O459 2.032 . S
Zn458 O462 2.086 . S
Zn458 O467 1.977 . S
O459 Zn458 2.032 . S
O459 C463 1.278 . S
C460 O461 1.203 . S
C460 O467 1.267 . S
O461 C460 1.203 . S
O462 C455 1.185 . S
O462 Zn458 2.086 . S
C463 O459 1.278 . S
C463 O464 1.211 . S
O464 C463 1.211 . S
C465 O457 1.284 . S
C465 O466 1.273 . S
O466 C465 1.273 . S
O467 Zn458 1.977 . S
O467 C460 1.267 . S
C468 C469 1.391 . S
C468 C470 1.394 . S
C468 H484 0.931 . S
C469 C468 1.391 . S
C469 C473 1.376 . S
C470 C468 1.394 . S
C470 C471 1.369 . S
C470 C474 1.531 . S
C471 C470 1.369 . S
C471 C472 1.410 . S
C471 C479 1.503 . S
C472 C471 1.410 . S
C472 C473 1.392 . S
C472 C475 1.511 . S
C473 C469 1.376 . S
C473 C472 1.392 . S
C473 H485 0.929 . S
C474 C470 1.531 . S
C474 H486 0.960 . S
C474 H487 0.962 . S
C474 H488 0.960 . S
C475 C472 1.511 . S
C475 H489 0.961 . S
C475 H490 0.961 . S
C475 H491 0.961 . S
C476 C477 1.370 . S
C476 C478 1.363 . S
C476 H492 0.931 . S
C477 C476 1.370 . S
C477 C481 1.408 . S
C478 C476 1.363 . S
C478 C479 1.370 . S
C478 C482 1.524 . S
C479 C471 1.503 . S
C479 C478 1.370 . S
C479 C480 1.403 . S
C480 C479 1.403 . S
C480 C481 1.404 . S
C480 C483 1.539 . S
C481 C477 1.408 . S
C481 C480 1.404 . S
C481 H493 0.930 . S
C482 C478 1.524 . S
C482 H494 0.956 . S
C482 H495 0.961 . S
C482 H496 0.961 . S
C483 C480 1.539 . S
C483 H497 0.958 . S
C483 H498 0.961 . S
C483 H499 0.960 . S
H484 C468 0.931 . S
H485 C473 0.929 . S
H486 C474 0.960 . S
H487 C474 0.962 . S
H488 C474 0.960 . S
H489 C475 0.961 . S
H490 C475 0.961 . S
H491 C475 0.961 . S
H492 C476 0.931 . S
H493 C481 0.930 . S
H494 C482 0.956 . S
H495 C482 0.961 . S
H496 C482 0.961 . S
H497 C483 0.958 . S
H498 C483 0.961 . S
H499 C483 0.960 . S
C500 C501 1.391 . S
C500 C502 1.394 . S
C500 H516 0.931 . S
C501 C500 1.391 . S
C501 C505 1.376 . S
C502 C500 1.394 . S
C502 C503 1.369 . S
C502 C506 1.531 . S
C503 C502 1.369 . S
C503 C504 1.410 . S
C503 C511 1.503 . S
C504 C503 1.410 . S
C504 C505 1.392 . S
C504 C507 1.511 . S
C505 C501 1.376 . S
C505 C504 1.392 . S
C505 H517 0.929 . S
C506 C502 1.531 . S
C506 H518 0.960 . S
C506 H519 0.962 . S
C506 H520 0.960 . S
C507 C504 1.511 . S
C507 H521 0.961 . S
C507 H522 0.961 . S
C507 H523 0.961 . S
C508 C509 1.370 . S
C508 C510 1.363 . S
C508 H524 0.931 . S
C509 C508 1.370 . S
C509 C513 1.408 . S
C510 C508 1.363 . S
C510 C511 1.370 . S
C510 C514 1.524 . S
C511 C503 1.503 . S
C511 C510 1.370 . S
C511 C512 1.403 . S
C512 C511 1.403 . S
C512 C513 1.404 . S
C512 C515 1.539 . S
C513 C509 1.408 . S
C513 C512 1.404 . S
C513 H525 0.930 . S
C514 C510 1.524 . S
C514 H526 0.956 . S
C514 H527 0.961 . S
C514 H528 0.961 . S
C515 C512 1.539 . S
C515 H529 0.958 . S
C515 H530 0.963 1_545 S
C515 H531 0.960 . S
H516 C500 0.931 . S
H517 C505 0.929 . S
H518 C506 0.960 . S
H519 C506 0.962 . S
H520 C506 0.960 . S
H521 C507 0.961 . S
H522 C507 0.961 . S
H523 C507 0.961 . S
H524 C508 0.931 . S
H525 C513 0.930 . S
H526 C514 0.956 . S
H527 C514 0.961 . S
H528 C514 0.961 . S
H529 C515 0.958 . S
H530 C515 0.963 1_565 S
H531 C515 0.960 . S
C532 C533 1.391 . S
C532 C534 1.394 . S
C532 H548 0.931 . S
C533 C532 1.391 . S
C533 C537 1.376 . S
C534 C532 1.394 . S
C534 C535 1.369 . S
C534 C538 1.531 . S
C535 C534 1.369 . S
C535 C536 1.410 . S
C535 C543 1.503 . S
C536 C535 1.410 . S
C536 C537 1.392 . S
C536 C539 1.511 . S
C537 C533 1.376 . S
C537 C536 1.392 . S
C537 H549 0.929 . S
C538 C534 1.531 . S
C538 H550 0.960 . S
C538 H551 0.962 . S
C538 H552 0.960 . S
C539 C536 1.511 . S
C539 H553 0.961 . S
C539 H554 0.961 . S
C539 H555 0.961 . S
C540 C541 1.370 . S
C540 C542 1.363 . S
C540 H556 0.931 . S
C541 C540 1.370 . S
C541 C545 1.408 . S
C542 C540 1.363 . S
C542 C543 1.370 . S
C542 C546 1.524 . S
C543 C535 1.503 . S
C543 C542 1.370 . S
C543 C544 1.403 . S
C544 C543 1.403 . S
C544 C545 1.404 . S
C544 C547 1.539 . S
C545 C541 1.408 . S
C545 C544 1.404 . S
C545 H557 0.930 . S
C546 C542 1.524 . S
C546 H558 0.956 . S
C546 H559 0.961 . S
C546 H560 0.961 . S
C547 C544 1.539 . S
C547 H561 0.958 . S
C547 H562 0.961 . S
C547 H563 0.960 . S
H548 C532 0.931 . S
H549 C537 0.929 . S
H550 C538 0.960 . S
H551 C538 0.962 . S
H552 C538 0.960 . S
H553 C539 0.961 . S
H554 C539 0.961 . S
H555 C539 0.961 . S
H556 C540 0.931 . S
H557 C545 0.930 . S
H558 C546 0.956 . S
H559 C546 0.961 . S
H560 C546 0.961 . S
H561 C547 0.958 . S
H562 C547 0.961 . S
H563 C547 0.960 . S
C564 C565 1.391 . S
C564 C566 1.394 . S
C564 H580 0.931 . S
C565 C564 1.391 . S
C565 C569 1.376 . S
C566 C564 1.394 . S
C566 C567 1.369 . S
C566 C570 1.531 . S
C567 C566 1.369 . S
C567 C568 1.410 . S
C567 C575 1.503 . S
C568 C567 1.410 . S
C568 C569 1.392 . S
C568 C571 1.511 . S
C569 C565 1.376 . S
C569 C568 1.392 . S
C569 H581 0.929 . S
C570 C566 1.531 . S
C570 H582 0.960 . S
C570 H583 0.962 . S
C570 H584 0.960 . S
C571 C568 1.511 . S
C571 H585 0.961 . S
C571 H586 0.961 . S
C571 H587 0.961 . S
C572 C573 1.370 . S
C572 C574 1.363 . S
C572 H588 0.931 . S
C573 C572 1.370 . S
C573 C577 1.408 . S
C574 C572 1.363 . S
C574 C575 1.370 . S
C574 C578 1.524 . S
C575 C567 1.503 . S
C575 C574 1.370 . S
C575 C576 1.403 . S
C576 C575 1.403 . S
C576 C577 1.404 . S
C576 C579 1.539 . S
C577 C573 1.408 . S
C577 C576 1.404 . S
C577 H589 0.930 . S
C578 C574 1.524 . S
C578 H590 0.956 . S
C578 H591 0.961 . S
C578 H592 0.961 . S
C579 C576 1.539 . S
C579 H593 0.958 . S
C579 H594 0.961 . S
C579 H595 0.960 . S
H580 C564 0.931 . S
H581 C569 0.929 . S
H582 C570 0.960 . S
H583 C570 0.962 . S
H584 C570 0.960 . S
H585 C571 0.961 . S
H586 C571 0.961 . S
H587 C571 0.961 . S
H588 C572 0.931 . S
H589 C577 0.930 . S
H590 C578 0.956 . S
H591 C578 0.961 . S
H592 C578 0.961 . S
H593 C579 0.958 . S
H594 C579 0.961 . S
H595 C579 0.960 . S
C596 C597 1.391 . S
C596 C598 1.394 . S
C596 H612 0.931 . S
C597 C596 1.391 . S
C597 C601 1.376 . S
C598 C596 1.394 . S
C598 C599 1.369 . S
C598 C602 1.531 . S
C599 C598 1.369 . S
C599 C600 1.410 . S
C599 C607 1.503 . S
C600 C599 1.410 . S
C600 C601 1.392 . S
C600 C603 1.511 . S
C601 C597 1.376 . S
C601 C600 1.392 . S
C601 H613 0.929 . S
C602 C598 1.531 . S
C602 H614 0.960 . S
C602 H615 0.962 . S
C602 H616 0.960 . S
C603 C600 1.511 . S
C603 H617 0.961 . S
C603 H618 0.961 . S
C603 H619 0.961 . S
C604 C605 1.370 . S
C604 C606 1.363 . S
C604 H620 0.931 . S
C605 C604 1.370 . S
C605 C609 1.408 . S
C606 C604 1.363 . S
C606 C607 1.370 . S
C606 C610 1.524 . S
C607 C599 1.503 . S
C607 C606 1.370 . S
C607 C608 1.403 . S
C608 C607 1.403 . S
C608 C609 1.404 . S
C608 C611 1.539 . S
C609 C605 1.408 . S
C609 C608 1.404 . S
C609 H621 0.930 . S
C610 C606 1.524 . S
C610 H622 0.956 . S
C610 H623 0.961 . S
C610 H624 0.961 . S
C611 C608 1.539 . S
C611 H625 0.958 . S
C611 H626 0.961 . S
C611 H627 0.960 . S
H612 C596 0.931 . S
H613 C601 0.929 . S
H614 C602 0.960 . S
H615 C602 0.962 . S
H616 C602 0.960 . S
H617 C603 0.961 . S
H618 C603 0.961 . S
H619 C603 0.961 . S
H620 C604 0.931 . S
H621 C609 0.930 . S
H622 C610 0.956 . S
H623 C610 0.961 . S
H624 C610 0.961 . S
H625 C611 0.958 . S
H626 C611 0.961 . S
H627 C611 0.960 . S
C628 C629 1.391 . S
C628 C630 1.394 . S
C628 H644 0.931 . S
C629 C628 1.391 . S
C629 C633 1.376 . S
C630 C628 1.394 . S
C630 C631 1.369 . S
C630 C634 1.531 . S
C631 C630 1.369 . S
C631 C632 1.410 . S
C631 C639 1.503 . S
C632 C631 1.410 . S
C632 C633 1.392 . S
C632 C635 1.511 . S
C633 C629 1.376 . S
C633 C632 1.392 . S
C633 H645 0.929 . S
C634 C630 1.531 . S
C634 H646 0.960 . S
C634 H647 0.962 . S
C634 H648 0.960 . S
C635 C632 1.511 . S
C635 H649 0.961 . S
C635 H650 0.961 . S
C635 H651 0.961 . S
C636 C637 1.370 . S
C636 C638 1.363 . S
C636 H652 0.931 . S
C637 C636 1.370 . S
C637 C641 1.408 . S
C638 C636 1.363 . S
C638 C639 1.370 . S
C638 C642 1.524 . S
C639 C631 1.503 . S
C639 C638 1.370 . S
C639 C640 1.403 . S
C640 C639 1.403 . S
C640 C641 1.404 . S
C640 C643 1.539 . S
C641 C637 1.408 . S
C641 C640 1.404 . S
C641 H653 0.930 . S
C642 C638 1.524 . S
C642 H654 0.956 . S
C642 H655 0.961 . S
C642 H656 0.961 . S
C643 C640 1.539 . S
C643 H657 0.958 . S
C643 H658 0.961 . S
C643 H659 0.960 . S
H644 C628 0.931 . S
H645 C633 0.929 . S
H646 C634 0.960 . S
H647 C634 0.962 . S
H648 C634 0.960 . S
H649 C635 0.961 . S
H650 C635 0.961 . S
H651 C635 0.961 . S
H652 C636 0.931 . S
H653 C641 0.930 . S
H654 C642 0.956 . S
H655 C642 0.961 . S
H656 C642 0.961 . S
H657 C643 0.958 . S
H658 C643 0.961 . S
H659 C643 0.960 . S
C660 C661 1.391 . S
C660 C662 1.394 . S
C660 H676 0.931 . S
C661 C660 1.391 . S
C661 C665 1.376 . S
C662 C660 1.394 . S
C662 C663 1.369 . S
C662 C666 1.531 . S
C663 C662 1.369 . S
C663 C664 1.410 . S
C663 C671 1.503 . S
C664 C663 1.410 . S
C664 C665 1.392 . S
C664 C667 1.511 . S
C665 C661 1.376 . S
C665 C664 1.392 . S
C665 H677 0.929 . S
C666 C662 1.531 . S
C666 H678 0.960 . S
C666 H679 0.962 . S
C666 H680 0.960 . S
C667 C664 1.511 . S
C667 H681 0.961 . S
C667 H682 0.961 . S
C667 H683 0.961 . S
C668 C669 1.370 . S
C668 C670 1.363 . S
C668 H684 0.931 . S
C669 C668 1.370 . S
C669 C673 1.408 . S
C670 C668 1.363 . S
C670 C671 1.370 . S
C670 C674 1.524 . S
C671 C663 1.503 . S
C671 C670 1.370 . S
C671 C672 1.403 . S
C672 C671 1.403 . S
C672 C673 1.404 . S
C672 C675 1.539 . S
C673 C669 1.408 . S
C673 C672 1.404 . S
C673 H685 0.930 . S
C674 C670 1.524 . S
C674 H686 0.956 . S
C674 H687 0.961 . S
C674 H688 0.961 . S
C675 C672 1.539 . S
C675 H689 0.958 . S
C675 H690 0.961 . S
C675 H691 0.960 . S
H676 C660 0.931 . S
H677 C665 0.929 . S
H678 C666 0.960 . S
H679 C666 0.962 . S
H680 C666 0.960 . S
H681 C667 0.961 . S
H682 C667 0.961 . S
H683 C667 0.961 . S
H684 C668 0.931 . S
H685 C673 0.930 . S
H686 C674 0.956 . S
H687 C674 0.961 . S
H688 C674 0.961 . S
H689 C675 0.958 . S
H690 C675 0.961 . S
H691 C675 0.960 . S
C692 C693 1.391 . S
C692 C694 1.394 . S
C692 H708 0.931 . S
C693 C692 1.391 . S
C693 C697 1.376 . S
C694 C692 1.394 . S
C694 C695 1.369 . S
C694 C698 1.531 . S
C695 C694 1.369 . S
C695 C696 1.410 . S
C695 C703 1.503 . S
C696 C695 1.410 . S
C696 C697 1.392 . S
C696 C699 1.511 . S
C697 C693 1.376 . S
C697 C696 1.392 . S
C697 H709 0.929 . S
C698 C694 1.531 . S
C698 H710 0.960 . S
C698 H711 0.962 . S
C698 H712 0.960 . S
C699 C696 1.511 . S
C699 H713 0.961 . S
C699 H714 0.961 . S
C699 H715 0.961 . S
C700 C701 1.370 . S
C700 C702 1.363 . S
C700 H716 0.931 . S
C701 C700 1.370 . S
C701 C705 1.408 . S
C702 C700 1.363 . S
C702 C703 1.370 . S
C702 C706 1.524 . S
C703 C695 1.503 . S
C703 C702 1.370 . S
C703 C704 1.403 . S
C704 C703 1.403 . S
C704 C705 1.404 . S
C704 C707 1.539 . S
C705 C701 1.408 . S
C705 C704 1.404 . S
C705 H717 0.930 . S
C706 C702 1.524 . S
C706 H718 0.956 . S
C706 H719 0.961 . S
C706 H720 0.961 . S
C707 C704 1.539 . S
C707 H721 0.958 . S
C707 H722 0.961 . S
C707 H723 0.960 . S
H708 C692 0.931 . S
H709 C697 0.929 . S
H710 C698 0.960 . S
H711 C698 0.962 . S
H712 C698 0.960 . S
H713 C699 0.961 . S
H714 C699 0.961 . S
H715 C699 0.961 . S
H716 C700 0.931 . S
H717 C705 0.930 . S
H718 C706 0.956 . S
H719 C706 0.961 . S
H720 C706 0.961 . S
H721 C707 0.958 . S
H722 C707 0.961 . S
H723 C707 0.960 . S
C724 C725 1.391 . S
C724 C726 1.394 . S
C724 H740 0.931 . S
C725 C724 1.391 . S
C725 C729 1.376 . S
C726 C724 1.394 . S
C726 C727 1.369 . S
C726 C730 1.531 . S
C727 C726 1.369 . S
C727 C728 1.410 . S
C727 C735 1.503 . S
C728 C727 1.410 . S
C728 C729 1.392 . S
C728 C731 1.511 . S
C729 C725 1.376 . S
C729 C728 1.392 . S
C729 H741 0.929 . S
C730 C726 1.531 . S
C730 H742 0.960 . S
C730 H743 0.962 . S
C730 H744 0.960 . S
C731 C728 1.511 . S
C731 H745 0.961 . S
C731 H746 0.961 . S
C731 H747 0.961 . S
C732 C733 1.370 . S
C732 C734 1.363 . S
C732 H748 0.931 . S
C733 C732 1.370 . S
C733 C737 1.408 . S
C734 C732 1.363 . S
C734 C735 1.370 . S
C734 C738 1.524 . S
C735 C727 1.503 . S
C735 C734 1.370 . S
C735 C736 1.403 . S
C736 C735 1.403 . S
C736 C737 1.404 . S
C736 C739 1.539 . S
C737 C733 1.408 . S
C737 C736 1.404 . S
C737 H749 0.930 . S
C738 C734 1.524 . S
C738 H750 0.956 . S
C738 H751 0.961 . S
C738 H752 0.961 . S
C739 C736 1.539 . S
C739 H753 0.958 . S
C739 H754 0.961 . S
C739 H755 0.960 . S
H740 C724 0.931 . S
H741 C729 0.929 . S
H742 C730 0.960 . S
H743 C730 0.962 . S
H744 C730 0.960 . S
H745 C731 0.961 . S
H746 C731 0.961 . S
H747 C731 0.961 . S
H748 C732 0.931 . S
H749 C737 0.930 . S
H750 C738 0.956 . S
H751 C738 0.961 . S
H752 C738 0.961 . S
H753 C739 0.958 . S
H754 C739 0.961 . S
H755 C739 0.960 . S
C756 C757 1.391 . S
C756 C758 1.394 . S
C756 H772 0.931 . S
C757 C756 1.391 . S
C757 C761 1.376 . S
C758 C756 1.394 . S
C758 C759 1.369 . S
C758 C762 1.531 . S
C759 C758 1.369 . S
C759 C760 1.410 . S
C759 C767 1.503 . S
C760 C759 1.410 . S
C760 C761 1.392 . S
C760 C763 1.511 . S
C761 C757 1.376 . S
C761 C760 1.392 . S
C761 H773 0.929 . S
C762 C758 1.531 . S
C762 H774 0.960 . S
C762 H775 0.962 . S
C762 H776 0.960 . S
C763 C760 1.511 . S
C763 H777 0.961 . S
C763 H778 0.961 . S
C763 H779 0.961 . S
C764 C765 1.370 . S
C764 C766 1.363 . S
C764 H780 0.931 . S
C765 C764 1.370 . S
C765 C769 1.408 . S
C766 C764 1.363 . S
C766 C767 1.370 . S
C766 C770 1.524 . S
C767 C759 1.503 . S
C767 C766 1.370 . S
C767 C768 1.403 . S
C768 C767 1.403 . S
C768 C769 1.404 . S
C768 C771 1.539 . S
C769 C765 1.408 . S
C769 C768 1.404 . S
C769 H781 0.930 . S
C770 C766 1.524 . S
C770 H782 0.956 . S
C770 H783 0.961 . S
C770 H784 0.961 . S
C771 C768 1.539 . S
C771 H785 0.958 . S
C771 H786 0.961 . S
C771 H787 0.960 . S
H772 C756 0.931 . S
H773 C761 0.929 . S
H774 C762 0.960 . S
H775 C762 0.962 . S
H776 C762 0.960 . S
H777 C763 0.961 . S
H778 C763 0.961 . S
H779 C763 0.961 . S
H780 C764 0.931 . S
H781 C769 0.930 . S
H782 C770 0.956 . S
H783 C770 0.961 . S
H784 C770 0.961 . S
H785 C771 0.958 . S
H786 C771 0.961 . S
H787 C771 0.960 . S
C788 C789 1.391 . S
C788 C790 1.394 . S
C788 H804 0.931 . S
C789 C788 1.391 . S
C789 C793 1.376 . S
C790 C788 1.394 . S
C790 C791 1.369 . S
C790 C794 1.531 . S
C791 C790 1.369 . S
C791 C792 1.410 . S
C791 C799 1.503 . S
C792 C791 1.410 . S
C792 C793 1.392 . S
C792 C795 1.511 . S
C793 C789 1.376 . S
C793 C792 1.392 . S
C793 H805 0.929 . S
C794 C790 1.531 . S
C794 H806 0.960 . S
C794 H807 0.962 . S
C794 H808 0.960 . S
C795 C792 1.511 . S
C795 H809 0.961 . S
C795 H810 0.961 . S
C795 H811 0.961 . S
C796 C797 1.370 . S
C796 C798 1.363 . S
C796 H812 0.931 . S
C797 C796 1.370 . S
C797 C801 1.408 . S
C798 C796 1.363 . S
C798 C799 1.370 . S
C798 C802 1.524 . S
C799 C791 1.503 . S
C799 C798 1.370 . S
C799 C800 1.403 . S
C800 C799 1.403 . S
C800 C801 1.404 . S
C800 C803 1.539 . S
C801 C797 1.408 . S
C801 C800 1.404 . S
C801 H813 0.930 . S
C802 C798 1.524 . S
C802 H814 0.956 . S
C802 H815 0.961 . S
C802 H816 0.961 . S
C803 C800 1.539 . S
C803 H817 0.958 . S
C803 H818 0.961 . S
C803 H819 0.960 . S
H804 C788 0.931 . S
H805 C793 0.929 . S
H806 C794 0.960 . S
H807 C794 0.962 . S
H808 C794 0.960 . S
H809 C795 0.961 . S
H810 C795 0.961 . S
H811 C795 0.961 . S
H812 C796 0.931 . S
H813 C801 0.930 . S
H814 C802 0.956 . S
H815 C802 0.961 . S
H816 C802 0.961 . S
H817 C803 0.958 . S
H818 C803 0.961 . S
H819 C803 0.960 . S
C820 C821 1.391 . S
C820 C822 1.394 . S
C820 H836 0.931 . S
C821 C820 1.391 . S
C821 C825 1.376 . S
C822 C820 1.394 . S
C822 C823 1.369 . S
C822 C826 1.531 . S
C823 C822 1.369 . S
C823 C824 1.410 . S
C823 C831 1.503 . S
C824 C823 1.410 . S
C824 C825 1.392 . S
C824 C827 1.511 . S
C825 C821 1.376 . S
C825 C824 1.392 . S
C825 H837 0.929 . S
C826 C822 1.531 . S
C826 H838 0.960 . S
C826 H839 0.962 . S
C826 H840 0.960 . S
C827 C824 1.511 . S
C827 H841 0.961 . S
C827 H842 0.961 . S
C827 H843 0.961 . S
C828 C829 1.370 . S
C828 C830 1.363 . S
C828 H844 0.931 . S
C829 C828 1.370 . S
C829 C833 1.408 . S
C830 C828 1.363 . S
C830 C831 1.370 . S
C830 C834 1.524 . S
C831 C823 1.503 . S
C831 C830 1.370 . S
C831 C832 1.403 . S
C832 C831 1.403 . S
C832 C833 1.404 . S
C832 C835 1.539 . S
C833 C829 1.408 . S
C833 C832 1.404 . S
C833 H845 0.930 . S
C834 C830 1.524 . S
C834 H846 0.956 . S
C834 H847 0.961 . S
C834 H848 0.961 . S
C835 C832 1.539 . S
C835 H849 0.958 . S
C835 H850 0.961 . S
C835 H851 0.960 . S
H836 C820 0.931 . S
H837 C825 0.929 . S
H838 C826 0.960 . S
H839 C826 0.962 . S
H840 C826 0.960 . S
H841 C827 0.961 . S
H842 C827 0.961 . S
H843 C827 0.961 . S
H844 C828 0.931 . S
H845 C833 0.930 . S
H846 C834 0.956 . S
H847 C834 0.961 . S
H848 C834 0.961 . S
H849 C835 0.958 . S
H850 C835 0.961 . S
H851 C835 0.960 . S
C852 C853 1.391 . S
C852 C854 1.394 . S
C852 H868 0.931 . S
C853 C852 1.391 . S
C853 C857 1.376 . S
C854 C852 1.394 . S
C854 C855 1.369 . S
C854 C858 1.531 . S
C855 C854 1.369 . S
C855 C856 1.410 . S
C855 C863 1.503 1_455 S
C856 C855 1.410 . S
C856 C857 1.392 . S
C856 C859 1.511 1_455 S
C857 C853 1.376 . S
C857 C856 1.392 . S
C857 H869 0.929 . S
C858 C854 1.531 . S
C858 H870 0.960 . S
C858 H871 0.962 . S
C858 H872 0.960 . S
C859 C856 1.511 1_655 S
C859 H873 0.961 . S
C859 H874 0.961 . S
C859 H875 0.953 . S
C860 C861 1.370 . S
C860 C862 1.363 . S
C860 H876 0.931 . S
C861 C860 1.370 . S
C861 C865 1.408 . S
C862 C860 1.363 . S
C862 C863 1.370 . S
C862 C866 1.524 . S
C863 C855 1.503 1_655 S
C863 C862 1.370 . S
C863 C864 1.403 . S
C864 C863 1.403 . S
C864 C865 1.404 . S
C864 C867 1.539 1_655 S
C865 C861 1.408 . S
C865 C864 1.404 . S
C865 H877 0.930 . S
C866 C862 1.524 . S
C866 H878 0.956 . S
C866 H879 0.961 . S
C866 H880 0.961 . S
C867 C864 1.539 1_455 S
C867 H881 0.958 . S
C867 H882 0.961 . S
C867 H883 0.960 . S
H868 C852 0.931 . S
H869 C857 0.929 . S
H870 C858 0.960 . S
H871 C858 0.962 . S
H872 C858 0.960 . S
H873 C859 0.961 . S
H874 C859 0.961 . S
H875 C859 0.953 . S
H876 C860 0.931 . S
H877 C865 0.930 . S
H878 C866 0.956 . S
H879 C866 0.961 . S
H880 C866 0.961 . S
H881 C867 0.958 . S
H882 C867 0.961 . S
H883 C867 0.960 . S
C884 C885 1.391 . S
C884 C886 1.394 . S
C884 H900 0.931 . S
C885 C884 1.391 . S
C885 C889 1.376 . S
C886 C884 1.394 . S
C886 C887 1.369 . S
C886 C890 1.531 . S
C887 C886 1.369 . S
C887 C888 1.410 . S
C887 C895 1.503 . S
C888 C887 1.410 . S
C888 C889 1.392 . S
C888 C891 1.511 . S
C889 C885 1.376 . S
C889 C888 1.392 . S
C889 H901 0.929 . S
C890 C886 1.531 . S
C890 H902 0.960 . S
C890 H903 0.962 . S
C890 H904 0.960 . S
C891 C888 1.511 . S
C891 H905 0.961 . S
C891 H906 0.961 . S
C891 H907 0.961 . S
C892 C893 1.370 . S
C892 C894 1.363 . S
C892 H908 0.931 . S
C893 C892 1.370 . S
C893 C897 1.408 . S
C894 C892 1.363 . S
C894 C895 1.370 . S
C894 C898 1.524 . S
C895 C887 1.503 . S
C895 C894 1.370 . S
C895 C896 1.403 . S
C896 C895 1.403 . S
C896 C897 1.404 . S
C896 C899 1.539 . S
C897 C893 1.408 . S
C897 C896 1.404 . S
C897 H909 0.930 . S
C898 C894 1.524 . S
C898 H910 0.956 . S
C898 H911 0.961 . S
C898 H912 0.961 . S
C899 C896 1.539 . S
C899 H913 0.958 . S
C899 H914 0.961 . S
C899 H915 0.960 . S
H900 C884 0.931 . S
H901 C889 0.929 . S
H902 C890 0.960 . S
H903 C890 0.962 . S
H904 C890 0.960 . S
H905 C891 0.961 . S
H906 C891 0.961 . S
H907 C891 0.961 . S
H908 C892 0.931 . S
H909 C897 0.930 . S
H910 C898 0.956 . S
H911 C898 0.961 . S
H912 C898 0.961 . S
H913 C899 0.958 . S
H914 C899 0.961 . S
H915 C899 0.960 . S
C916 C917 1.391 . S
C916 C918 1.394 . S
C916 H932 0.931 . S
C917 C916 1.391 . S
C917 C921 1.376 . S
C918 C916 1.394 . S
C918 C919 1.369 . S
C918 C922 1.531 1_565 S
C919 C918 1.369 . S
C919 C920 1.410 . S
C919 C927 1.503 1_565 S
C920 C919 1.410 . S
C920 C921 1.392 . S
C920 C923 1.511 . S
C921 C917 1.376 . S
C921 C920 1.392 . S
C921 H933 0.929 . S
C922 C918 1.531 1_545 S
C922 H934 0.960 . S
C922 H935 0.962 . S
C922 H936 0.960 1_545 S
C923 C920 1.511 . S
C923 H937 0.961 . S
C923 H938 0.961 . S
C923 H939 0.961 . S
C924 C925 1.370 . S
C924 C926 1.363 . S
C924 H940 0.931 . S
C925 C924 1.370 . S
C925 C929 1.408 . S
C926 C924 1.363 . S
C926 C927 1.370 . S
C926 C930 1.524 . S
C927 C919 1.503 1_545 S
C927 C926 1.370 . S
C927 C928 1.403 . S
C928 C927 1.403 . S
C928 C929 1.404 . S
C928 C931 1.539 1_545 S
C929 C925 1.408 . S
C929 C928 1.404 . S
C929 H941 0.930 . S
C930 C926 1.524 . S
C930 H942 0.956 . S
C930 H943 0.961 . S
C930 H944 0.961 . S
C931 C928 1.539 1_565 S
C931 H945 0.958 . S
C931 H946 0.961 . S
C931 H947 0.960 . S
H932 C916 0.931 . S
H933 C921 0.929 . S
H934 C922 0.960 . S
H935 C922 0.962 . S
H936 C922 0.960 1_565 S
H937 C923 0.961 . S
H938 C923 0.961 . S
H939 C923 0.961 . S
H940 C924 0.931 . S
H941 C929 0.930 . S
H942 C930 0.956 . S
H943 C930 0.961 . S
H944 C930 0.961 . S
H945 C931 0.958 . S
H946 C931 0.961 . S
H947 C931 0.960 . S
C948 C949 1.391 . S
C948 C950 1.394 . S
C948 H964 0.931 . S
C949 C948 1.391 . S
C949 C953 1.376 . S
C950 C948 1.394 . S
C950 C951 1.369 . S
C950 C954 1.531 1_565 S
C951 C950 1.369 . S
C951 C952 1.410 . S
C951 C959 1.503 1_565 S
C952 C951 1.410 . S
C952 C953 1.392 . S
C952 C955 1.511 . S
C953 C949 1.376 . S
C953 C952 1.392 . S
C953 H965 0.929 . S
C954 C950 1.531 1_545 S
C954 H966 0.960 . S
C954 H967 0.962 . S
C954 H968 0.960 . S
C955 C952 1.511 . S
C955 H969 0.961 . S
C955 H970 0.961 . S
C955 H971 0.961 . S
C956 C957 1.370 . S
C956 C958 1.363 . S
C956 H972 0.931 . S
C957 C956 1.370 . S
C957 C961 1.408 . S
C958 C956 1.363 . S
C958 C959 1.370 . S
C958 C962 1.524 . S
C959 C951 1.503 1_545 S
C959 C958 1.370 . S
C959 C960 1.403 . S
C960 C959 1.403 . S
C960 C961 1.404 . S
C960 C963 1.539 . S
C961 C957 1.408 . S
C961 C960 1.404 . S
C961 H973 0.930 . S
C962 C958 1.524 . S
C962 H974 0.956 . S
C962 H975 0.961 1_545 S
C962 H976 0.961 . S
C963 C960 1.539 . S
C963 H977 0.958 . S
C963 H978 0.961 . S
C963 H979 0.919 1_545 S
H964 C948 0.931 . S
H965 C953 0.929 . S
H966 C954 0.960 . S
H967 C954 0.962 . S
H968 C954 0.960 . S
H969 C955 0.961 . S
H970 C955 0.961 . S
H971 C955 0.961 . S
H972 C956 0.931 . S
H973 C961 0.930 . S
H974 C962 0.956 . S
H975 C962 0.961 1_565 S
H976 C962 0.961 . S
H977 C963 0.958 . S
H978 C963 0.961 . S
H979 C963 0.919 1_565 S
C980 C981 1.391 . S
C980 C982 1.394 . S
C980 H996 0.931 . S
C981 C980 1.391 . S
C981 C985 1.376 . S
C982 C980 1.394 . S
C982 C983 1.369 . S
C982 C986 1.531 . S
C983 C982 1.369 . S
C983 C984 1.410 . S
C983 C991 1.503 1_455 S
C984 C983 1.410 . S
C984 C985 1.392 . S
C984 C987 1.511 . S
C985 C981 1.376 . S
C985 C984 1.392 . S
C985 H997 0.929 . S
C986 C982 1.531 . S
C986 H998 0.960 . S
C986 H999 0.962 . S
C986 H1000 0.960 . S
C987 C984 1.511 . S
C987 H1001 0.961 . S
C987 H1002 0.961 1_455 S
C987 H1003 0.961 . S
C988 C989 1.370 . S
C988 C990 1.363 . S
C988 H1004 0.931 . S
C989 C988 1.370 . S
C989 C993 1.408 . S
C990 C988 1.363 . S
C990 C991 1.370 . S
C990 C994 1.524 . S
C991 C983 1.503 1_655 S
C991 C990 1.370 . S
C991 C992 1.403 . S
C992 C991 1.403 . S
C992 C993 1.404 . S
C992 C995 1.539 1_655 S
C993 C989 1.408 . S
C993 C992 1.404 . S
C993 H1005 0.930 . S
C994 C990 1.524 . S
C994 H1006 0.956 . S
C994 H1007 0.961 . S
C994 H1008 0.961 . S
C995 C992 1.539 1_455 S
C995 H1009 0.958 . S
C995 H1010 0.961 . S
C995 H1011 0.960 . S
H996 C980 0.931 . S
H997 C985 0.929 . S
H998 C986 0.960 . S
H999 C986 0.962 . S
H1000 C986 0.960 . S
H1001 C987 0.961 . S
H1002 C987 0.961 1_655 S
H1003 C987 0.961 . S
H1004 C988 0.931 . S
H1005 C993 0.930 . S
H1006 C994 0.956 . S
H1007 C994 0.961 . S
H1008 C994 0.961 . S
H1009 C995 0.958 . S
H1010 C995 0.961 . S
H1011 C995 0.960 . S
C1012 C1013 1.391 . S
C1012 C1014 1.394 . S
C1012 H1028 0.931 . S
C1013 C1012 1.391 . S
C1013 C1017 1.376 . S
C1014 C1012 1.394 . S
C1014 C1015 1.369 . S
C1014 C1018 1.531 . S
C1015 C1014 1.369 . S
C1015 C1016 1.410 . S
C1015 C1023 1.503 . S
C1016 C1015 1.410 . S
C1016 C1017 1.392 . S
C1016 C1019 1.511 . S
C1017 C1013 1.376 . S
C1017 C1016 1.392 . S
C1017 H1029 0.929 . S
C1018 C1014 1.531 . S
C1018 H1030 0.960 . S
C1018 H1031 0.962 . S
C1018 H1032 0.960 . S
C1019 C1016 1.511 . S
C1019 H1033 0.961 . S
C1019 H1034 0.961 . S
C1019 H1035 0.961 . S
C1020 C1021 1.370 . S
C1020 C1022 1.363 . S
C1020 H1036 0.931 . S
C1021 C1020 1.370 . S
C1021 C1025 1.408 . S
C1022 C1020 1.363 . S
C1022 C1023 1.370 . S
C1022 C1026 1.524 . S
C1023 C1015 1.503 . S
C1023 C1022 1.370 . S
C1023 C1024 1.403 . S
C1024 C1023 1.403 . S
C1024 C1025 1.404 . S
C1024 C1027 1.539 . S
C1025 C1021 1.408 . S
C1025 C1024 1.404 . S
C1025 H1037 0.930 . S
C1026 C1022 1.524 . S
C1026 H1038 0.956 . S
C1026 H1039 0.961 . S
C1026 H1040 0.961 . S
C1027 C1024 1.539 . S
C1027 H1041 0.958 . S
C1027 H1042 0.961 . S
C1027 H1043 0.960 . S
H1028 C1012 0.931 . S
H1029 C1017 0.929 . S
H1030 C1018 0.960 . S
H1031 C1018 0.962 . S
H1032 C1018 0.960 . S
H1033 C1019 0.961 . S
H1034 C1019 0.961 . S
H1035 C1019 0.961 . S
H1036 C1020 0.931 . S
H1037 C1025 0.930 . S
H1038 C1026 0.956 . S
H1039 C1026 0.961 . S
H1040 C1026 0.961 . S
H1041 C1027 0.958 . S
H1042 C1027 0.961 . S
H1043 C1027 0.960 . S
C1044 C1045 1.391 . S
C1044 C1046 1.394 . S
C1044 H1060 0.931 . S
C1045 C1044 1.391 . S
C1045 C1049 1.376 1_556 S
C1046 C1044 1.394 . S
C1046 C1047 1.369 . S
C1046 C1050 1.531 . S
C1047 C1046 1.369 . S
C1047 C1048 1.410 1_556 S
C1047 C1055 1.503 1_556 S
C1048 C1047 1.410 1_554 S
C1048 C1049 1.392 . S
C1048 C1051 1.511 . S
C1049 C1045 1.376 1_554 S
C1049 C1048 1.392 . S
C1049 H1061 0.929 . S
C1050 C1046 1.531 . S
C1050 H1062 0.960 . S
C1050 H1063 0.962 . S
C1050 H1064 0.960 . S
C1051 C1048 1.511 . S
C1051 H1065 0.961 . S
C1051 H1066 0.961 . S
C1051 H1067 0.961 . S
C1052 C1053 1.370 . S
C1052 C1054 1.363 . S
C1052 H1068 0.931 . S
C1053 C1052 1.370 . S
C1053 C1057 1.408 1_554 S
C1054 C1052 1.363 . S
C1054 C1055 1.370 . S
C1054 C1058 1.524 . S
C1055 C1047 1.503 1_554 S
C1055 C1054 1.370 . S
C1055 C1056 1.403 1_554 S
C1056 C1055 1.403 1_556 S
C1056 C1057 1.404 . S
C1056 C1059 1.539 . S
C1057 C1053 1.408 1_556 S
C1057 C1056 1.404 . S
C1057 H1069 0.930 . S
C1058 C1054 1.524 . S
C1058 H1070 0.956 . S
C1058 H1071 0.961 . S
C1058 H1072 0.961 . S
C1059 C1056 1.539 . S
C1059 H1073 0.958 . S
C1059 H1074 0.961 . S
C1059 H1075 0.960 . S
H1060 C1044 0.931 . S
H1061 C1049 0.929 . S
H1062 C1050 0.960 . S
H1063 C1050 0.962 . S
H1064 C1050 0.960 . S
H1065 C1051 0.961 . S
H1066 C1051 0.961 . S
H1067 C1051 0.961 . S
H1068 C1052 0.931 . S
H1069 C1057 0.930 . S
H1070 C1058 0.956 . S
H1071 C1058 0.961 . S
H1072 C1058 0.961 . S
H1073 C1059 0.958 . S
H1074 C1059 0.961 . S
H1075 C1059 0.960 . S
C1076 C1077 1.391 1_554 S
C1076 C1078 1.394 . S
C1076 H1092 0.931 . S
C1077 C1076 1.391 1_556 S
C1077 C1081 1.376 . S
C1078 C1076 1.394 . S
C1078 C1079 1.369 . S
C1078 C1082 1.531 . S
C1079 C1078 1.369 . S
C1079 C1080 1.410 1_554 S
C1079 C1087 1.503 . S
C1080 C1079 1.410 1_556 S
C1080 C1081 1.392 . S
C1080 C1083 1.511 . S
C1081 C1077 1.376 . S
C1081 C1080 1.392 . S
C1081 H1093 0.929 . S
C1082 C1078 1.531 . S
C1082 H1094 0.960 . S
C1082 H1095 0.962 . S
C1082 H1096 0.960 . S
C1083 C1080 1.511 . S
C1083 H1097 0.961 . S
C1083 H1098 0.961 . S
C1083 H1099 0.961 1_556 S
C1084 C1085 1.370 1_556 S
C1084 C1086 1.363 . S
C1084 H1100 0.931 . S
C1085 C1084 1.370 1_554 S
C1085 C1089 1.408 . S
C1086 C1084 1.363 . S
C1086 C1087 1.370 1_556 S
C1086 C1090 1.524 . S
C1087 C1079 1.503 . S
C1087 C1086 1.370 1_554 S
C1087 C1088 1.403 . S
C1088 C1087 1.403 . S
C1088 C1089 1.404 . S
C1088 C1091 1.539 . S
C1089 C1085 1.408 . S
C1089 C1088 1.404 . S
C1089 H1101 0.930 . S
C1090 C1086 1.524 . S
C1090 H1102 0.956 . S
C1090 H1103 0.961 . S
C1090 H1104 0.961 . S
C1091 C1088 1.539 . S
C1091 H1105 0.958 . S
C1091 H1106 0.961 . S
C1091 H1107 0.960 . S
H1092 C1076 0.931 . S
H1093 C1081 0.929 . S
H1094 C1082 0.960 . S
H1095 C1082 0.962 . S
H1096 C1082 0.960 . S
H1097 C1083 0.961 . S
H1098 C1083 0.961 . S
H1099 C1083 0.961 1_554 S
H1100 C1084 0.931 . S
H1101 C1089 0.930 . S
H1102 C1090 0.956 . S
H1103 C1090 0.961 . S
H1104 C1090 0.961 . S
H1105 C1091 0.958 . S
H1106 C1091 0.961 . S
H1107 C1091 0.960 . S
C1108 C1109 1.391 . S
C1108 C1110 1.394 . S
C1108 H1124 0.931 . S
C1109 C1108 1.391 . S
C1109 C1113 1.376 1_556 S
C1110 C1108 1.394 . S
C1110 C1111 1.369 1_556 S
C1110 C1114 1.531 . S
C1111 C1110 1.369 1_554 S
C1111 C1112 1.410 . S
C1111 C1119 1.503 . S
C1112 C1111 1.410 . S
C1112 C1113 1.392 . S
C1112 C1115 1.511 . S
C1113 C1109 1.376 1_554 S
C1113 C1112 1.392 . S
C1113 H1125 0.929 . S
C1114 C1110 1.531 . S
C1114 H1126 0.960 . S
C1114 H1127 0.962 . S
C1114 H1128 0.960 . S
C1115 C1112 1.511 . S
C1115 H1129 0.961 . S
C1115 H1130 0.961 . S
C1115 H1131 0.961 . S
C1116 C1117 1.370 . S
C1116 C1118 1.363 . S
C1116 H1132 0.931 . S
C1117 C1116 1.370 . S
C1117 C1121 1.408 . S
C1118 C1116 1.363 . S
C1118 C1119 1.370 . S
C1118 C1122 1.524 1_554 S
C1119 C1111 1.503 . S
C1119 C1118 1.370 . S
C1119 C1120 1.403 . S
C1120 C1119 1.403 . S
C1120 C1121 1.404 . S
C1120 C1123 1.539 . S
C1121 C1117 1.408 . S
C1121 C1120 1.404 . S
C1121 H1133 0.930 . S
C1122 C1118 1.524 1_556 S
C1122 H1134 0.956 . S
C1122 H1135 0.961 1_556 S
C1122 H1136 0.959 1_556 S
C1123 C1120 1.539 . S
C1123 H1137 0.958 . S
C1123 H1138 0.961 . S
C1123 H1139 0.960 . S
H1124 C1108 0.931 . S
H1125 C1113 0.929 . S
H1126 C1114 0.960 . S
H1127 C1114 0.962 . S
H1128 C1114 0.960 . S
H1129 C1115 0.961 . S
H1130 C1115 0.961 . S
H1131 C1115 0.961 . S
H1132 C1116 0.931 . S
H1133 C1121 0.930 . S
H1134 C1122 0.956 . S
H1135 C1122 0.961 1_554 S
H1136 C1122 0.959 1_554 S
H1137 C1123 0.958 . S
H1138 C1123 0.961 . S
H1139 C1123 0.960 . S
C1140 C1141 1.391 . S
C1140 C1142 1.394 . S
C1140 H1156 0.931 . S
C1141 C1140 1.391 . S
C1141 C1145 1.376 . S
C1142 C1140 1.394 . S
C1142 C1143 1.369 . S
C1142 C1146 1.531 . S
C1143 C1142 1.369 . S
C1143 C1144 1.410 . S
C1143 C1151 1.503 . S
C1144 C1143 1.410 . S
C1144 C1145 1.392 . S
C1144 C1147 1.511 . S
C1145 C1141 1.376 . S
C1145 C1144 1.392 . S
C1145 H1157 0.929 . S
C1146 C1142 1.531 . S
C1146 H1158 0.960 . S
C1146 H1159 0.962 . S
C1146 H1160 0.960 . S
C1147 C1144 1.511 . S
C1147 H1161 0.961 . S
C1147 H1162 0.961 . S
C1147 H1163 0.961 . S
C1148 C1149 1.370 . S
C1148 C1150 1.363 . S
C1148 H1164 0.931 . S
C1149 C1148 1.370 . S
C1149 C1153 1.408 . S
C1150 C1148 1.363 . S
C1150 C1151 1.370 . S
C1150 C1154 1.524 . S
C1151 C1143 1.503 . S
C1151 C1150 1.370 . S
C1151 C1152 1.403 . S
C1152 C1151 1.403 . S
C1152 C1153 1.404 . S
C1152 C1155 1.539 . S
C1153 C1149 1.408 . S
C1153 C1152 1.404 . S
C1153 H1165 0.930 . S
C1154 C1150 1.524 . S
C1154 H1166 0.956 . S
C1154 H1167 0.961 . S
C1154 H1168 0.961 . S
C1155 C1152 1.539 . S
C1155 H1169 0.958 . S
C1155 H1170 0.961 . S
C1155 H1171 0.960 . S
H1156 C1140 0.931 . S
H1157 C1145 0.929 . S
H1158 C1146 0.960 . S
H1159 C1146 0.962 . S
H1160 C1146 0.960 . S
H1161 C1147 0.961 . S
H1162 C1147 0.961 . S
H1163 C1147 0.961 . S
H1164 C1148 0.931 . S
H1165 C1153 0.930 . S
H1166 C1154 0.956 . S
H1167 C1154 0.961 . S
H1168 C1154 0.961 . S
H1169 C1155 0.958 . S
H1170 C1155 0.961 . S
H1171 C1155 0.960 . S
C1172 C1173 1.391 . S
C1172 C1174 1.394 . S
C1172 H1188 0.931 . S
C1173 C1172 1.391 . S
C1173 C1177 1.376 . S
C1174 C1172 1.394 . S
C1174 C1175 1.369 . S
C1174 C1178 1.531 . S
C1175 C1174 1.369 . S
C1175 C1176 1.410 . S
C1175 C1183 1.503 . S
C1176 C1175 1.410 . S
C1176 C1177 1.392 . S
C1176 C1179 1.511 . S
C1177 C1173 1.376 . S
C1177 C1176 1.392 . S
C1177 H1189 0.929 . S
C1178 C1174 1.531 . S
C1178 H1190 0.960 . S
C1178 H1191 0.962 . S
C1178 H1192 0.960 . S
C1179 C1176 1.511 . S
C1179 H1193 0.961 . S
C1179 H1194 0.961 . S
C1179 H1195 0.961 . S
C1180 C1181 1.370 . S
C1180 C1182 1.363 . S
C1180 H1196 0.931 . S
C1181 C1180 1.370 . S
C1181 C1185 1.408 . S
C1182 C1180 1.363 . S
C1182 C1183 1.370 . S
C1182 C1186 1.524 . S
C1183 C1175 1.503 . S
C1183 C1182 1.370 . S
C1183 C1184 1.403 . S
C1184 C1183 1.403 . S
C1184 C1185 1.404 . S
C1184 C1187 1.539 . S
C1185 C1181 1.408 . S
C1185 C1184 1.404 . S
C1185 H1197 0.930 . S
C1186 C1182 1.524 . S
C1186 H1198 0.956 . S
C1186 H1199 0.961 . S
C1186 H1200 0.961 . S
C1187 C1184 1.539 . S
C1187 H1201 0.958 . S
C1187 H1202 0.961 . S
C1187 H1203 0.960 . S
H1188 C1172 0.931 . S
H1189 C1177 0.929 . S
H1190 C1178 0.960 . S
H1191 C1178 0.962 . S
H1192 C1178 0.960 . S
H1193 C1179 0.961 . S
H1194 C1179 0.961 . S
H1195 C1179 0.961 . S
H1196 C1180 0.931 . S
H1197 C1185 0.930 . S
H1198 C1186 0.956 . S
H1199 C1186 0.961 . S
H1200 C1186 0.961 . S
H1201 C1187 0.958 . S
H1202 C1187 0.961 . S
H1203 C1187 0.960 . S
C1204 C1205 1.391 . S
C1204 C1206 1.394 . S
C1204 H1220 0.931 . S
C1205 C1204 1.391 . S
C1205 C1209 1.376 . S
C1206 C1204 1.394 . S
C1206 C1207 1.369 . S
C1206 C1210 1.531 . S
C1207 C1206 1.369 . S
C1207 C1208 1.410 . S
C1207 C1215 1.503 . S
C1208 C1207 1.410 . S
C1208 C1209 1.392 . S
C1208 C1211 1.511 . S
C1209 C1205 1.376 . S
C1209 C1208 1.392 . S
C1209 H1221 0.929 . S
C1210 C1206 1.531 . S
C1210 H1222 0.960 . S
C1210 H1223 0.962 . S
C1210 H1224 0.960 . S
C1211 C1208 1.511 . S
C1211 H1225 0.961 . S
C1211 H1226 0.961 . S
C1211 H1227 0.961 . S
C1212 C1213 1.370 . S
C1212 C1214 1.363 . S
C1212 H1228 0.931 . S
C1213 C1212 1.370 . S
C1213 C1217 1.408 . S
C1214 C1212 1.363 . S
C1214 C1215 1.370 . S
C1214 C1218 1.524 . S
C1215 C1207 1.503 . S
C1215 C1214 1.370 . S
C1215 C1216 1.403 . S
C1216 C1215 1.403 . S
C1216 C1217 1.404 . S
C1216 C1219 1.539 . S
C1217 C1213 1.408 . S
C1217 C1216 1.404 . S
C1217 H1229 0.930 . S
C1218 C1214 1.524 . S
C1218 H1230 0.956 . S
C1218 H1231 0.961 . S
C1218 H1232 0.961 . S
C1219 C1216 1.539 . S
C1219 H1233 0.958 . S
C1219 H1234 0.961 . S
C1219 H1235 0.960 . S
H1220 C1204 0.931 . S
H1221 C1209 0.929 . S
H1222 C1210 0.960 . S
H1223 C1210 0.962 . S
H1224 C1210 0.960 . S
H1225 C1211 0.961 . S
H1226 C1211 0.961 . S
H1227 C1211 0.961 . S
H1228 C1212 0.931 . S
H1229 C1217 0.930 . S
H1230 C1218 0.956 . S
H1231 C1218 0.961 . S
H1232 C1218 0.961 . S
H1233 C1219 0.958 . S
H1234 C1219 0.961 . S
H1235 C1219 0.960 . S
C1236 C1237 1.391 1_556 S
C1236 C1238 1.394 . S
C1236 H1252 0.931 . S
C1237 C1236 1.391 1_554 S
C1237 C1241 1.376 . S
C1238 C1236 1.394 . S
C1238 C1239 1.369 1_556 S
C1238 C1242 1.531 . S
C1239 C1238 1.369 1_554 S
C1239 C1240 1.410 . S
C1239 C1247 1.503 1_554 S
C1240 C1239 1.410 . S
C1240 C1241 1.392 . S
C1240 C1243 1.511 . S
C1241 C1237 1.376 . S
C1241 C1240 1.392 . S
C1241 H1253 0.929 . S
C1242 C1238 1.531 . S
C1242 H1254 0.960 . S
C1242 H1255 0.962 . S
C1242 H1256 0.960 . S
C1243 C1240 1.511 . S
C1243 H1257 0.961 . S
C1243 H1258 0.961 . S
C1243 H1259 0.961 . S
C1244 C1245 1.370 . S
C1244 C1246 1.363 . S
C1244 H1260 0.931 . S
C1245 C1244 1.370 . S
C1245 C1249 1.408 1_556 S
C1246 C1244 1.363 . S
C1246 C1247 1.370 . S
C1246 C1250 1.524 . S
C1247 C1239 1.503 1_556 S
C1247 C1246 1.370 . S
C1247 C1248 1.403 1_556 S
C1248 C1247 1.403 1_554 S
C1248 C1249 1.404 . S
C1248 C1251 1.539 . S
C1249 C1245 1.408 1_554 S
C1249 C1248 1.404 . S
C1249 H1261 0.930 . S
C1250 C1246 1.524 . S
C1250 H1262 0.956 . S
C1250 H1263 0.961 . S
C1250 H1264 0.961 . S
C1251 C1248 1.539 . S
C1251 H1265 0.958 . S
C1251 H1266 0.961 . S
C1251 H1267 0.960 . S
H1252 C1236 0.931 . S
H1253 C1241 0.929 . S
H1254 C1242 0.960 . S
H1255 C1242 0.962 . S
H1256 C1242 0.960 . S
H1257 C1243 0.961 . S
H1258 C1243 0.961 . S
H1259 C1243 0.961 . S
H1260 C1244 0.931 . S
H1261 C1249 0.930 . S
H1262 C1250 0.956 . S
H1263 C1250 0.961 . S
H1264 C1250 0.961 . S
H1265 C1251 0.958 . S
H1266 C1251 0.961 . S
H1267 C1251 0.960 . S
C1268 C1269 1.391 1_554 S
C1268 C1270 1.394 . S
C1268 H1284 0.931 . S
C1269 C1268 1.391 1_556 S
C1269 C1273 1.376 . S
C1270 C1268 1.394 . S
C1270 C1271 1.369 1_554 S
C1270 C1274 1.531 . S
C1271 C1270 1.369 1_556 S
C1271 C1272 1.410 . S
C1271 C1279 1.500 1_556 S
C1272 C1271 1.410 . S
C1272 C1273 1.392 . S
C1272 C1275 1.511 . S
C1273 C1269 1.376 . S
C1273 C1272 1.392 . S
C1273 H1285 0.929 . S
C1274 C1270 1.531 . S
C1274 H1286 0.960 . S
C1274 H1287 0.962 . S
C1274 H1288 0.960 . S
C1275 C1272 1.511 . S
C1275 H1289 0.961 . S
C1275 H1290 0.961 . S
C1275 H1291 0.961 . S
C1276 C1277 1.370 1_556 S
C1276 C1278 1.363 . S
C1276 H1292 0.931 . S
C1277 C1276 1.370 1_554 S
C1277 C1281 1.408 . S
C1278 C1276 1.363 . S
C1278 C1279 1.362 1_556 S
C1278 C1282 1.524 . S
C1279 C1271 1.500 1_554 S
C1279 C1278 1.362 1_554 S
C1279 C1280 1.415 . S
C1280 C1279 1.415 . S
C1280 C1281 1.404 . S
C1280 C1283 1.539 . S
C1281 C1277 1.408 . S
C1281 C1280 1.404 . S
C1281 H1293 0.930 . S
C1282 C1278 1.524 . S
C1282 H1294 0.956 . S
C1282 H1295 0.961 . S
C1282 H1296 0.961 . S
C1283 C1280 1.539 . S
C1283 H1297 0.958 . S
C1283 H1298 0.961 . S
C1283 H1299 0.960 . S
H1284 C1268 0.931 . S
H1285 C1273 0.929 . S
H1286 C1274 0.960 . S
H1287 C1274 0.962 . S
H1288 C1274 0.960 . S
H1289 C1275 0.961 . S
H1290 C1275 0.961 . S
H1291 C1275 0.961 . S
H1292 C1276 0.931 . S
H1293 C1281 0.930 . S
H1294 C1282 0.956 . S
H1295 C1282 0.961 . S
H1296 C1282 0.961 . S
H1297 C1283 0.958 . S
H1298 C1283 0.961 . S
H1299 C1283 0.960 . S
C1300 C1301 1.391 . S
C1300 C1302 1.394 . S
C1300 H1316 0.931 . S
C1301 C1300 1.391 . S
C1301 C1305 1.376 1_554 S
C1302 C1300 1.394 . S
C1302 C1303 1.369 . S
C1302 C1306 1.531 . S
C1303 C1302 1.369 . S
C1303 C1304 1.410 1_554 S
C1303 C1311 1.503 1_554 S
C1304 C1303 1.410 1_556 S
C1304 C1305 1.392 . S
C1304 C1307 1.511 . S
C1305 C1301 1.376 1_556 S
C1305 C1304 1.392 . S
C1305 H1317 0.929 . S
C1306 C1302 1.531 . S
C1306 H1318 0.960 . S
C1306 H1319 0.962 . S
C1306 H1320 0.960 . S
C1307 C1304 1.511 . S
C1307 H1321 0.961 . S
C1307 H1322 0.961 . S
C1307 H1323 0.961 . S
C1308 C1309 1.370 . S
C1308 C1310 1.363 . S
C1308 H1324 0.931 . S
C1309 C1308 1.370 . S
C1309 C1313 1.408 . S
C1310 C1308 1.363 . S
C1310 C1311 1.370 . S
C1310 C1314 1.524 . S
C1311 C1303 1.503 1_556 S
C1311 C1310 1.370 . S
C1311 C1312 1.403 1_556 S
C1312 C1311 1.403 1_554 S
C1312 C1313 1.404 1_554 S
C1312 C1315 1.539 . S
C1313 C1309 1.408 . S
C1313 C1312 1.404 1_556 S
C1313 H1325 0.930 1_556 S
C1314 C1310 1.524 . S
C1314 H1326 0.956 . S
C1314 H1327 0.961 . S
C1314 H1328 0.961 . S
C1315 C1312 1.539 . S
C1315 H1329 0.958 . S
C1315 H1330 0.961 . S
C1315 H1331 0.960 . S
H1316 C1300 0.931 . S
H1317 C1305 0.929 . S
H1318 C1306 0.960 . S
H1319 C1306 0.962 . S
H1320 C1306 0.960 . S
H1321 C1307 0.961 . S
H1322 C1307 0.961 . S
H1323 C1307 0.961 . S
H1324 C1308 0.931 . S
H1325 C1313 0.930 1_554 S
H1326 C1314 0.956 . S
H1327 C1314 0.961 . S
H1328 C1314 0.961 . S
H1329 C1315 0.958 . S
H1330 C1315 0.961 . S
H1331 C1315 0.960 . S
C1332 C1333 1.391 . S
C1332 C1334 1.394 . S
C1332 H1348 0.931 . S
C1333 C1332 1.391 . S
C1333 C1337 1.376 . S
C1334 C1332 1.394 . S
C1334 C1335 1.369 . S
C1334 C1338 1.531 . S
C1335 C1334 1.369 . S
C1335 C1336 1.410 . S
C1335 C1343 1.503 . S
C1336 C1335 1.410 . S
C1336 C1337 1.392 . S
C1336 C1339 1.511 . S
C1337 C1333 1.376 . S
C1337 C1336 1.392 . S
C1337 H1349 0.929 . S
C1338 C1334 1.531 . S
C1338 H1350 0.960 . S
C1338 H1351 0.962 . S
C1338 H1352 0.960 . S
C1339 C1336 1.511 . S
C1339 H1353 0.961 . S
C1339 H1354 0.961 . S
C1339 H1355 0.961 . S
C1340 C1341 1.370 . S
C1340 C1342 1.363 . S
C1340 H1356 0.931 . S
C1341 C1340 1.370 . S
C1341 C1345 1.408 . S
C1342 C1340 1.363 . S
C1342 C1343 1.370 . S
C1342 C1346 1.524 . S
C1343 C1335 1.503 . S
C1343 C1342 1.370 . S
C1343 C1344 1.403 . S
C1344 C1343 1.403 . S
C1344 C1345 1.404 . S
C1344 C1347 1.539 . S
C1345 C1341 1.408 . S
C1345 C1344 1.404 . S
C1345 H1357 0.930 . S
C1346 C1342 1.524 . S
C1346 H1358 0.956 . S
C1346 H1359 0.961 . S
C1346 H1360 0.961 . S
C1347 C1344 1.539 . S
C1347 H1361 0.958 . S
C1347 H1362 0.961 . S
C1347 H1363 0.960 . S
H1348 C1332 0.931 . S
H1349 C1337 0.929 . S
H1350 C1338 0.960 . S
H1351 C1338 0.962 . S
H1352 C1338 0.960 . S
H1353 C1339 0.961 . S
H1354 C1339 0.961 . S
H1355 C1339 0.961 . S
H1356 C1340 0.931 . S
H1357 C1345 0.930 . S
H1358 C1346 0.956 . S
H1359 C1346 0.961 . S
H1360 C1346 0.961 . S
H1361 C1347 0.958 . S
H1362 C1347 0.961 . S
H1363 C1347 0.960 . S
C1364 C1365 1.391 . S
C1364 C1366 1.394 . S
C1364 H1380 0.931 . S
C1365 C1364 1.391 . S
C1365 C1369 1.376 . S
C1366 C1364 1.394 . S
C1366 C1367 1.369 . S
C1366 C1370 1.531 . S
C1367 C1366 1.369 . S
C1367 C1368 1.410 . S
C1367 C1375 1.503 . S
C1368 C1367 1.410 . S
C1368 C1369 1.392 . S
C1368 C1371 1.511 . S
C1369 C1365 1.376 . S
C1369 C1368 1.392 . S
C1369 H1381 0.929 . S
C1370 C1366 1.531 . S
C1370 H1382 0.960 . S
C1370 H1383 0.962 . S
C1370 H1384 0.960 . S
C1371 C1368 1.511 . S
C1371 H1385 0.961 . S
C1371 H1386 0.961 . S
C1371 H1387 0.961 . S
C1372 C1373 1.370 . S
C1372 C1374 1.363 . S
C1372 H1388 0.931 . S
C1373 C1372 1.370 . S
C1373 C1377 1.408 . S
C1374 C1372 1.363 . S
C1374 C1375 1.370 . S
C1374 C1378 1.524 . S
C1375 C1367 1.503 . S
C1375 C1374 1.370 . S
C1375 C1376 1.403 . S
C1376 C1375 1.403 . S
C1376 C1377 1.404 . S
C1376 C1379 1.539 . S
C1377 C1373 1.408 . S
C1377 C1376 1.404 . S
C1377 H1389 0.930 . S
C1378 C1374 1.524 . S
C1378 H1390 0.956 . S
C1378 H1391 0.961 . S
C1378 H1392 0.961 . S
C1379 C1376 1.539 . S
C1379 H1393 0.958 . S
C1379 H1394 0.961 . S
C1379 H1395 0.960 . S
H1380 C1364 0.931 . S
H1381 C1369 0.929 . S
H1382 C1370 0.960 . S
H1383 C1370 0.962 . S
H1384 C1370 0.960 . S
H1385 C1371 0.961 . S
H1386 C1371 0.961 . S
H1387 C1371 0.961 . S
H1388 C1372 0.931 . S
H1389 C1377 0.930 . S
H1390 C1378 0.956 . S
H1391 C1378 0.961 . S
H1392 C1378 0.961 . S
H1393 C1379 0.958 . S
H1394 C1379 0.961 . S
H1395 C1379 0.960 . S
C1396 C1397 1.391 . S
C1396 C1398 1.394 . S
C1396 H1412 0.931 . S
C1397 C1396 1.391 . S
C1397 C1401 1.376 . S
C1398 C1396 1.394 . S
C1398 C1399 1.369 . S
C1398 C1402 1.531 . S
C1399 C1398 1.369 . S
C1399 C1400 1.410 . S
C1399 C1407 1.503 . S
C1400 C1399 1.410 . S
C1400 C1401 1.392 . S
C1400 C1403 1.511 . S
C1401 C1397 1.376 . S
C1401 C1400 1.392 . S
C1401 H1413 0.929 . S
C1402 C1398 1.531 . S
C1402 H1414 0.960 . S
C1402 H1415 0.962 . S
C1402 H1416 0.960 . S
C1403 C1400 1.511 . S
C1403 H1417 0.961 . S
C1403 H1418 0.961 . S
C1403 H1419 0.961 . S
C1404 C1405 1.370 . S
C1404 C1406 1.363 . S
C1404 H1420 0.931 . S
C1405 C1404 1.370 . S
C1405 C1409 1.408 . S
C1406 C1404 1.363 . S
C1406 C1407 1.370 . S
C1406 C1410 1.524 . S
C1407 C1399 1.503 . S
C1407 C1406 1.370 . S
C1407 C1408 1.403 . S
C1408 C1407 1.403 . S
C1408 C1409 1.404 . S
C1408 C1411 1.539 . S
C1409 C1405 1.408 . S
C1409 C1408 1.404 . S
C1409 H1421 0.930 . S
C1410 C1406 1.524 . S
C1410 H1422 0.956 . S
C1410 H1423 0.961 . S
C1410 H1424 0.961 . S
C1411 C1408 1.539 . S
C1411 H1425 0.958 . S
C1411 H1426 0.961 . S
C1411 H1427 0.960 . S
H1412 C1396 0.931 . S
H1413 C1401 0.929 . S
H1414 C1402 0.960 . S
H1415 C1402 0.962 . S
H1416 C1402 0.960 . S
H1417 C1403 0.961 . S
H1418 C1403 0.961 . S
H1419 C1403 0.961 . S
H1420 C1404 0.931 . S
H1421 C1409 0.930 . S
H1422 C1410 0.956 . S
H1423 C1410 0.961 . S
H1424 C1410 0.961 . S
H1425 C1411 0.958 . S
H1426 C1411 0.961 . S
H1427 C1411 0.960 . S
C1428 C1429 1.391 . S
C1428 C1430 1.394 . S
C1428 H1444 0.931 . S
C1429 C1428 1.391 . S
C1429 C1433 1.376 . S
C1430 C1428 1.394 . S
C1430 C1431 1.369 . S
C1430 C1434 1.531 . S
C1431 C1430 1.369 . S
C1431 C1432 1.410 . S
C1431 C1439 1.503 . S
C1432 C1431 1.410 . S
C1432 C1433 1.392 . S
C1432 C1435 1.511 . S
C1433 C1429 1.376 . S
C1433 C1432 1.392 . S
C1433 H1445 0.929 . S
C1434 C1430 1.531 . S
C1434 H1446 0.960 . S
C1434 H1447 0.962 . S
C1434 H1448 0.960 . S
C1435 C1432 1.511 . S
C1435 H1449 0.961 . S
C1435 H1450 0.961 . S
C1435 H1451 0.961 . S
C1436 C1437 1.370 . S
C1436 C1438 1.363 . S
C1436 H1452 0.931 . S
C1437 C1436 1.370 . S
C1437 C1441 1.408 . S
C1438 C1436 1.363 . S
C1438 C1439 1.370 . S
C1438 C1442 1.524 . S
C1439 C1431 1.503 . S
C1439 C1438 1.370 . S
C1439 C1440 1.403 . S
C1440 C1439 1.403 . S
C1440 C1441 1.404 . S
C1440 C1443 1.539 . S
C1441 C1437 1.408 . S
C1441 C1440 1.404 . S
C1441 H1453 0.930 . S
C1442 C1438 1.524 . S
C1442 H1454 0.956 . S
C1442 H1455 0.961 . S
C1442 H1456 0.961 . S
C1443 C1440 1.539 . S
C1443 H1457 0.958 . S
C1443 H1458 0.961 . S
C1443 H1459 0.960 . S
H1444 C1428 0.931 . S
H1445 C1433 0.929 . S
H1446 C1434 0.960 . S
H1447 C1434 0.962 . S
H1448 C1434 0.960 . S
H1449 C1435 0.961 . S
H1450 C1435 0.961 . S
H1451 C1435 0.961 . S
H1452 C1436 0.931 . S
H1453 C1441 0.930 . S
H1454 C1442 0.956 . S
H1455 C1442 0.961 . S
H1456 C1442 0.961 . S
H1457 C1443 0.958 . S
H1458 C1443 0.961 . S
H1459 C1443 0.960 . S
C1460 C1461 1.391 . S
C1460 C1462 1.394 . S
C1460 H1476 0.931 . S
C1461 C1460 1.391 . S
C1461 C1465 1.376 . S
C1462 C1460 1.394 . S
C1462 C1463 1.369 . S
C1462 C1466 1.531 . S
C1463 C1462 1.369 . S
C1463 C1464 1.410 . S
C1463 C1471 1.503 . S
C1464 C1463 1.410 . S
C1464 C1465 1.392 . S
C1464 C1467 1.511 . S
C1465 C1461 1.376 . S
C1465 C1464 1.392 . S
C1465 H1477 0.929 . S
C1466 C1462 1.531 . S
C1466 H1478 0.960 . S
C1466 H1479 0.962 . S
C1466 H1480 0.960 . S
C1467 C1464 1.511 . S
C1467 H1481 0.961 . S
C1467 H1482 0.961 . S
C1467 H1483 0.961 . S
C1468 C1469 1.370 . S
C1468 C1470 1.363 . S
C1468 H1484 0.931 . S
C1469 C1468 1.370 . S
C1469 C1473 1.408 . S
C1470 C1468 1.363 . S
C1470 C1471 1.370 . S
C1470 C1474 1.524 . S
C1471 C1463 1.503 . S
C1471 C1470 1.370 . S
C1471 C1472 1.403 . S
C1472 C1471 1.403 . S
C1472 C1473 1.404 . S
C1472 C1475 1.539 . S
C1473 C1469 1.408 . S
C1473 C1472 1.404 . S
C1473 H1485 0.930 . S
C1474 C1470 1.524 . S
C1474 H1486 0.956 . S
C1474 H1487 0.961 . S
C1474 H1488 0.961 . S
C1475 C1472 1.539 . S
C1475 H1489 0.958 . S
C1475 H1490 0.961 . S
C1475 H1491 0.960 . S
H1476 C1460 0.931 . S
H1477 C1465 0.929 . S
H1478 C1466 0.960 . S
H1479 C1466 0.962 . S
H1480 C1466 0.960 . S
H1481 C1467 0.961 . S
H1482 C1467 0.961 . S
H1483 C1467 0.961 . S
H1484 C1468 0.931 . S
H1485 C1473 0.930 . S
H1486 C1474 0.956 . S
H1487 C1474 0.961 . S
H1488 C1474 0.961 . S
H1489 C1475 0.958 . S
H1490 C1475 0.961 . S
H1491 C1475 0.960 . S
C1492 C1493 1.391 . S
C1492 C1494 1.394 . S
C1492 H1508 0.931 . S
C1493 C1492 1.391 . S
C1493 C1497 1.376 . S
C1494 C1492 1.394 . S
C1494 C1495 1.369 . S
C1494 C1498 1.531 . S
C1495 C1494 1.369 . S
C1495 C1496 1.410 . S
C1495 C1503 1.503 . S
C1496 C1495 1.410 . S
C1496 C1497 1.392 . S
C1496 C1499 1.511 . S
C1497 C1493 1.376 . S
C1497 C1496 1.392 . S
C1497 H1509 0.929 . S
C1498 C1494 1.531 . S
C1498 H1510 0.960 . S
C1498 H1511 0.962 . S
C1498 H1512 0.960 . S
C1499 C1496 1.511 . S
C1499 H1513 0.961 . S
C1499 H1514 0.961 . S
C1499 H1515 0.961 . S
C1500 C1501 1.370 . S
C1500 C1502 1.363 . S
C1500 H1516 0.931 . S
C1501 C1500 1.370 . S
C1501 C1505 1.408 . S
C1502 C1500 1.363 . S
C1502 C1503 1.370 . S
C1502 C1506 1.524 . S
C1503 C1495 1.503 . S
C1503 C1502 1.370 . S
C1503 C1504 1.403 . S
C1504 C1503 1.403 . S
C1504 C1505 1.404 . S
C1504 C1507 1.539 . S
C1505 C1501 1.408 . S
C1505 C1504 1.404 . S
C1505 H1517 0.930 . S
C1506 C1502 1.524 . S
C1506 H1518 0.956 . S
C1506 H1519 0.961 . S
C1506 H1520 0.961 . S
C1507 C1504 1.539 . S
C1507 H1521 0.958 . S
C1507 H1522 0.961 . S
C1507 H1523 0.960 . S
H1508 C1492 0.931 . S
H1509 C1497 0.929 . S
H1510 C1498 0.960 . S
H1511 C1498 0.962 . S
H1512 C1498 0.960 . S
H1513 C1499 0.961 . S
H1514 C1499 0.961 . S
H1515 C1499 0.961 . S
H1516 C1500 0.931 . S
H1517 C1505 0.930 . S
H1518 C1506 0.956 . S
H1519 C1506 0.961 . S
H1520 C1506 0.961 . S
H1521 C1507 0.958 . S
H1522 C1507 0.961 . S
H1523 C1507 0.960 . S
C1524 C1525 1.391 . S
C1524 C1526 1.394 . S
C1524 H1540 0.931 . S
C1525 C1524 1.391 . S
C1525 C1529 1.376 . S
C1526 C1524 1.394 . S
C1526 C1527 1.369 . S
C1526 C1530 1.531 . S
C1527 C1526 1.369 . S
C1527 C1528 1.410 . S
C1527 C1535 1.503 . S
C1528 C1527 1.410 . S
C1528 C1529 1.392 . S
C1528 C1531 1.511 . S
C1529 C1525 1.376 . S
C1529 C1528 1.392 . S
C1529 H1541 0.929 . S
C1530 C1526 1.531 . S
C1530 H1542 0.960 . S
C1530 H1543 0.962 . S
C1530 H1544 0.960 . S
C1531 C1528 1.511 . S
C1531 H1545 0.961 . S
C1531 H1546 0.961 . S
C1531 H1547 0.961 . S
C1532 C1533 1.370 . S
C1532 C1534 1.363 . S
C1532 H1548 0.931 . S
C1533 C1532 1.370 . S
C1533 C1537 1.408 . S
C1534 C1532 1.363 . S
C1534 C1535 1.370 . S
C1534 C1538 1.524 . S
C1535 C1527 1.503 . S
C1535 C1534 1.370 . S
C1535 C1536 1.403 . S
C1536 C1535 1.403 . S
C1536 C1537 1.404 . S
C1536 C1539 1.539 . S
C1537 C1533 1.408 . S
C1537 C1536 1.404 . S
C1537 H1549 0.930 . S
C1538 C1534 1.524 . S
C1538 H1550 0.956 . S
C1538 H1551 0.961 . S
C1538 H1552 0.961 . S
C1539 C1536 1.539 . S
C1539 H1553 0.958 . S
C1539 H1554 0.961 . S
C1539 H1555 0.960 . S
H1540 C1524 0.931 . S
H1541 C1529 0.929 . S
H1542 C1530 0.960 . S
H1543 C1530 0.962 . S
H1544 C1530 0.960 . S
H1545 C1531 0.961 . S
H1546 C1531 0.961 . S
H1547 C1531 0.961 . S
H1548 C1532 0.931 . S
H1549 C1537 0.930 . S
H1550 C1538 0.956 . S
H1551 C1538 0.961 . S
H1552 C1538 0.961 . S
H1553 C1539 0.958 . S
H1554 C1539 0.961 . S
H1555 C1539 0.960 . S
C1556 C1557 1.391 . S
C1556 C1558 1.394 . S
C1556 H1572 0.931 . S
C1557 C1556 1.391 . S
C1557 C1561 1.376 . S
C1558 C1556 1.394 . S
C1558 C1559 1.369 . S
C1558 C1562 1.531 . S
C1559 C1558 1.369 . S
C1559 C1560 1.410 . S
C1559 C1567 1.503 . S
C1560 C1559 1.410 . S
C1560 C1561 1.392 . S
C1560 C1563 1.511 . S
C1561 C1557 1.376 . S
C1561 C1560 1.392 . S
C1561 H1573 0.929 . S
C1562 C1558 1.531 . S
C1562 H1574 0.960 . S
C1562 H1575 0.962 . S
C1562 H1576 0.960 . S
C1563 C1560 1.511 . S
C1563 H1577 0.961 . S
C1563 H1578 0.961 . S
C1563 H1579 0.961 . S
C1564 C1565 1.370 . S
C1564 C1566 1.363 . S
C1564 H1580 0.931 . S
C1565 C1564 1.370 . S
C1565 C1569 1.408 . S
C1566 C1564 1.363 . S
C1566 C1567 1.370 . S
C1566 C1570 1.524 . S
C1567 C1559 1.503 . S
C1567 C1566 1.370 . S
C1567 C1568 1.403 . S
C1568 C1567 1.403 . S
C1568 C1569 1.404 . S
C1568 C1571 1.539 . S
C1569 C1565 1.408 . S
C1569 C1568 1.404 . S
C1569 H1581 0.930 . S
C1570 C1566 1.524 . S
C1570 H1582 0.956 . S
C1570 H1583 0.961 . S
C1570 H1584 0.961 . S
C1571 C1568 1.539 . S
C1571 H1585 0.958 . S
C1571 H1586 0.961 . S
C1571 H1587 0.960 . S
H1572 C1556 0.931 . S
H1573 C1561 0.929 . S
H1574 C1562 0.960 . S
H1575 C1562 0.962 . S
H1576 C1562 0.960 . S
H1577 C1563 0.961 . S
H1578 C1563 0.961 . S
H1579 C1563 0.961 . S
H1580 C1564 0.931 . S
H1581 C1569 0.930 . S
H1582 C1570 0.956 . S
H1583 C1570 0.961 . S
H1584 C1570 0.961 . S
H1585 C1571 0.958 . S
H1586 C1571 0.961 . S
H1587 C1571 0.960 . S
C1588 C1589 1.391 . S
C1588 C1590 1.394 . S
C1588 H1604 0.931 . S
C1589 C1588 1.391 . S
C1589 C1593 1.376 . S
C1590 C1588 1.394 . S
C1590 C1591 1.369 . S
C1590 C1594 1.531 . S
C1591 C1590 1.369 . S
C1591 C1592 1.410 . S
C1591 C1599 1.503 . S
C1592 C1591 1.410 . S
C1592 C1593 1.392 . S
C1592 C1595 1.511 . S
C1593 C1589 1.376 . S
C1593 C1592 1.392 . S
C1593 H1605 0.929 . S
C1594 C1590 1.531 . S
C1594 H1606 0.960 . S
C1594 H1607 0.962 . S
C1594 H1608 0.960 . S
C1595 C1592 1.511 . S
C1595 H1609 0.961 . S
C1595 H1610 0.961 . S
C1595 H1611 0.961 . S
C1596 C1597 1.370 . S
C1596 C1598 1.363 . S
C1596 H1612 0.931 . S
C1597 C1596 1.370 . S
C1597 C1601 1.408 . S
C1598 C1596 1.363 . S
C1598 C1599 1.370 . S
C1598 C1602 1.524 . S
C1599 C1591 1.503 . S
C1599 C1598 1.370 . S
C1599 C1600 1.403 . S
C1600 C1599 1.403 . S
C1600 C1601 1.404 . S
C1600 C1603 1.539 . S
C1601 C1597 1.408 . S
C1601 C1600 1.404 . S
C1601 H1613 0.930 . S
C1602 C1598 1.524 . S
C1602 H1614 0.956 . S
C1602 H1615 0.961 . S
C1602 H1616 0.961 . S
C1603 C1600 1.539 . S
C1603 H1617 0.958 . S
C1603 H1618 0.961 . S
C1603 H1619 0.960 . S
H1604 C1588 0.931 . S
H1605 C1593 0.929 . S
H1606 C1594 0.960 . S
H1607 C1594 0.962 . S
H1608 C1594 0.960 . S
H1609 C1595 0.961 . S
H1610 C1595 0.961 . S
H1611 C1595 0.961 . S
H1612 C1596 0.931 . S
H1613 C1601 0.930 . S
H1614 C1602 0.956 . S
H1615 C1602 0.961 . S
H1616 C1602 0.961 . S
H1617 C1603 0.958 . S
H1618 C1603 0.961 . S
H1619 C1603 0.960 . S
C1620 C1621 1.391 . S
C1620 C1622 1.394 . S
C1620 H1636 0.931 . S
C1621 C1620 1.391 . S
C1621 C1625 1.376 . S
C1622 C1620 1.394 . S
C1622 C1623 1.369 . S
C1622 C1626 1.531 . S
C1623 C1622 1.369 . S
C1623 C1624 1.410 . S
C1623 C1631 1.503 . S
C1624 C1623 1.410 . S
C1624 C1625 1.392 . S
C1624 C1627 1.511 . S
C1625 C1621 1.376 . S
C1625 C1624 1.392 . S
C1625 H1637 0.929 . S
C1626 C1622 1.531 . S
C1626 H1638 0.960 . S
C1626 H1639 0.962 . S
C1626 H1640 0.960 . S
C1627 C1624 1.511 . S
C1627 H1641 0.961 . S
C1627 H1642 0.961 . S
C1627 H1643 0.961 . S
C1628 C1629 1.370 . S
C1628 C1630 1.363 . S
C1628 H1644 0.931 . S
C1629 C1628 1.370 . S
C1629 C1633 1.408 . S
C1630 C1628 1.363 . S
C1630 C1631 1.370 . S
C1630 C1634 1.524 . S
C1631 C1623 1.503 . S
C1631 C1630 1.370 . S
C1631 C1632 1.403 . S
C1632 C1631 1.403 . S
C1632 C1633 1.404 . S
C1632 C1635 1.539 . S
C1633 C1629 1.408 . S
C1633 C1632 1.404 . S
C1633 H1645 0.930 . S
C1634 C1630 1.524 . S
C1634 H1646 0.956 . S
C1634 H1647 0.961 . S
C1634 H1648 0.961 . S
C1635 C1632 1.539 . S
C1635 H1649 0.958 . S
C1635 H1650 0.961 . S
C1635 H1651 0.960 . S
H1636 C1620 0.931 . S
H1637 C1625 0.929 . S
H1638 C1626 0.960 . S
H1639 C1626 0.962 . S
H1640 C1626 0.960 . S
H1641 C1627 0.961 . S
H1642 C1627 0.961 . S
H1643 C1627 0.961 . S
H1644 C1628 0.931 . S
H1645 C1633 0.930 . S
H1646 C1634 0.956 . S
H1647 C1634 0.961 . S
H1648 C1634 0.961 . S
H1649 C1635 0.958 . S
H1650 C1635 0.961 . S
H1651 C1635 0.960 . S
C1652 C1653 1.391 . S
C1652 C1654 1.394 . S
C1652 H1668 0.931 . S
C1653 C1652 1.391 . S
C1653 C1657 1.376 . S
C1654 C1652 1.394 . S
C1654 C1655 1.369 . S
C1654 C1658 1.531 . S
C1655 C1654 1.369 . S
C1655 C1656 1.410 . S
C1655 C1663 1.503 . S
C1656 C1655 1.410 . S
C1656 C1657 1.392 . S
C1656 C1659 1.511 . S
C1657 C1653 1.376 . S
C1657 C1656 1.392 . S
C1657 H1669 0.929 . S
C1658 C1654 1.531 . S
C1658 H1670 0.960 . S
C1658 H1671 0.962 . S
C1658 H1672 0.960 . S
C1659 C1656 1.511 . S
C1659 H1673 0.961 . S
C1659 H1674 0.961 . S
C1659 H1675 0.961 . S
C1660 C1661 1.370 . S
C1660 C1662 1.363 . S
C1660 H1676 0.931 . S
C1661 C1660 1.370 . S
C1661 C1665 1.408 . S
C1662 C1660 1.363 . S
C1662 C1663 1.370 . S
C1662 C1666 1.524 . S
C1663 C1655 1.503 . S
C1663 C1662 1.370 . S
C1663 C1664 1.403 . S
C1664 C1663 1.403 . S
C1664 C1665 1.404 . S
C1664 C1667 1.539 . S
C1665 C1661 1.408 . S
C1665 C1664 1.404 . S
C1665 H1677 0.930 . S
C1666 C1662 1.524 . S
C1666 H1678 0.956 . S
C1666 H1679 0.961 . S
C1666 H1680 0.961 . S
C1667 C1664 1.539 . S
C1667 H1681 0.958 . S
C1667 H1682 0.961 . S
C1667 H1683 0.960 . S
H1668 C1652 0.931 . S
H1669 C1657 0.929 . S
H1670 C1658 0.960 . S
H1671 C1658 0.962 . S
H1672 C1658 0.960 . S
H1673 C1659 0.961 . S
H1674 C1659 0.961 . S
H1675 C1659 0.961 . S
H1676 C1660 0.931 . S
H1677 C1665 0.930 . S
H1678 C1666 0.956 . S
H1679 C1666 0.961 . S
H1680 C1666 0.961 . S
H1681 C1667 0.958 . S
H1682 C1667 0.961 . S
H1683 C1667 0.960 . S
C1684 C1685 1.391 . S
C1684 C1686 1.394 . S
C1684 H1700 0.931 . S
C1685 C1684 1.391 . S
C1685 C1689 1.376 . S
C1686 C1684 1.394 . S
C1686 C1687 1.369 . S
C1686 C1690 1.531 . S
C1687 C1686 1.369 . S
C1687 C1688 1.410 . S
C1687 C1695 1.503 . S
C1688 C1687 1.410 . S
C1688 C1689 1.392 . S
C1688 C1691 1.511 . S
C1689 C1685 1.376 . S
C1689 C1688 1.392 . S
C1689 H1701 0.929 . S
C1690 C1686 1.531 . S
C1690 H1702 0.960 . S
C1690 H1703 0.962 . S
C1690 H1704 0.960 . S
C1691 C1688 1.511 . S
C1691 H1705 0.961 . S
C1691 H1706 0.961 . S
C1691 H1707 0.961 . S
C1692 C1693 1.370 . S
C1692 C1694 1.363 . S
C1692 H1708 0.931 . S
C1693 C1692 1.370 . S
C1693 C1697 1.408 . S
C1694 C1692 1.363 . S
C1694 C1695 1.370 . S
C1694 C1698 1.524 . S
C1695 C1687 1.503 . S
C1695 C1694 1.370 . S
C1695 C1696 1.403 . S
C1696 C1695 1.403 . S
C1696 C1697 1.404 . S
C1696 C1699 1.539 . S
C1697 C1693 1.408 . S
C1697 C1696 1.404 . S
C1697 H1709 0.930 . S
C1698 C1694 1.524 . S
C1698 H1710 0.956 . S
C1698 H1711 0.961 . S
C1698 H1712 0.961 . S
C1699 C1696 1.539 . S
C1699 H1713 0.958 . S
C1699 H1714 0.961 . S
C1699 H1715 0.960 . S
H1700 C1684 0.931 . S
H1701 C1689 0.929 . S
H1702 C1690 0.960 . S
H1703 C1690 0.962 . S
H1704 C1690 0.960 . S
H1705 C1691 0.961 . S
H1706 C1691 0.961 . S
H1707 C1691 0.961 . S
H1708 C1692 0.931 . S
H1709 C1697 0.930 . S
H1710 C1698 0.956 . S
H1711 C1698 0.961 . S
H1712 C1698 0.961 . S
H1713 C1699 0.958 . S
H1714 C1699 0.961 . S
H1715 C1699 0.960 . S
C1716 C1717 1.391 . S
C1716 C1718 1.394 . S
C1716 H1732 0.931 . S
C1717 C1716 1.391 . S
C1717 C1721 1.376 . S
C1718 C1716 1.394 . S
C1718 C1719 1.369 . S
C1718 C1722 1.531 . S
C1719 C1718 1.369 . S
C1719 C1720 1.410 . S
C1719 C1727 1.503 . S
C1720 C1719 1.410 . S
C1720 C1721 1.392 . S
C1720 C1723 1.511 . S
C1721 C1717 1.376 . S
C1721 C1720 1.392 . S
C1721 H1733 0.929 . S
C1722 C1718 1.531 . S
C1722 H1734 0.960 . S
C1722 H1735 0.962 . S
C1722 H1736 0.960 . S
C1723 C1720 1.511 . S
C1723 H1737 0.961 . S
C1723 H1738 0.961 . S
C1723 H1739 0.961 . S
C1724 C1725 1.370 . S
C1724 C1726 1.363 . S
C1724 H1740 0.931 . S
C1725 C1724 1.370 . S
C1725 C1729 1.408 . S
C1726 C1724 1.363 . S
C1726 C1727 1.370 . S
C1726 C1730 1.524 . S
C1727 C1719 1.503 . S
C1727 C1726 1.370 . S
C1727 C1728 1.403 . S
C1728 C1727 1.403 . S
C1728 C1729 1.404 . S
C1728 C1731 1.539 . S
C1729 C1725 1.408 . S
C1729 C1728 1.404 . S
C1729 H1741 0.930 . S
C1730 C1726 1.524 . S
C1730 H1742 0.956 . S
C1730 H1743 0.961 . S
C1730 H1744 0.961 . S
C1731 C1728 1.539 . S
C1731 H1745 0.958 . S
C1731 H1746 0.961 . S
C1731 H1747 0.960 . S
H1732 C1716 0.931 . S
H1733 C1721 0.929 . S
H1734 C1722 0.960 . S
H1735 C1722 0.962 . S
H1736 C1722 0.960 . S
H1737 C1723 0.961 . S
H1738 C1723 0.961 . S
H1739 C1723 0.961 . S
H1740 C1724 0.931 . S
H1741 C1729 0.930 . S
H1742 C1730 0.956 . S
H1743 C1730 0.961 . S
H1744 C1730 0.961 . S
H1745 C1731 0.958 . S
H1746 C1731 0.961 . S
H1747 C1731 0.960 . S
C1748 C1749 1.391 . S
C1748 C1750 1.394 . S
C1748 H1764 0.931 . S
C1749 C1748 1.391 . S
C1749 C1753 1.376 . S
C1750 C1748 1.394 . S
C1750 C1751 1.369 . S
C1750 C1754 1.531 . S
C1751 C1750 1.369 . S
C1751 C1752 1.410 . S
C1751 C1759 1.503 . S
C1752 C1751 1.410 . S
C1752 C1753 1.392 . S
C1752 C1755 1.511 . S
C1753 C1749 1.376 . S
C1753 C1752 1.392 . S
C1753 H1765 0.929 . S
C1754 C1750 1.531 . S
C1754 H1766 0.960 . S
C1754 H1767 0.962 . S
C1754 H1768 0.960 . S
C1755 C1752 1.511 . S
C1755 H1769 0.961 . S
C1755 H1770 0.961 . S
C1755 H1771 0.961 . S
C1756 C1757 1.370 . S
C1756 C1758 1.363 . S
C1756 H1772 0.931 . S
C1757 C1756 1.370 . S
C1757 C1761 1.408 . S
C1758 C1756 1.363 . S
C1758 C1759 1.370 . S
C1758 C1762 1.524 . S
C1759 C1751 1.503 . S
C1759 C1758 1.370 . S
C1759 C1760 1.403 . S
C1760 C1759 1.403 . S
C1760 C1761 1.404 . S
C1760 C1763 1.539 . S
C1761 C1757 1.408 . S
C1761 C1760 1.404 . S
C1761 H1773 0.930 . S
C1762 C1758 1.524 . S
C1762 H1774 0.956 . S
C1762 H1775 0.961 . S
C1762 H1776 0.961 . S
C1763 C1760 1.539 . S
C1763 H1777 0.958 . S
C1763 H1778 0.961 . S
C1763 H1779 0.960 . S
H1764 C1748 0.931 . S
H1765 C1753 0.929 . S
H1766 C1754 0.960 . S
H1767 C1754 0.962 . S
H1768 C1754 0.960 . S
H1769 C1755 0.961 . S
H1770 C1755 0.961 . S
H1771 C1755 0.961 . S
H1772 C1756 0.931 . S
H1773 C1761 0.930 . S
H1774 C1762 0.956 . S
H1775 C1762 0.961 . S
H1776 C1762 0.961 . S
H1777 C1763 0.958 . S
H1778 C1763 0.961 . S
H1779 C1763 0.960 . S
C1780 C1781 1.391 . S
C1780 C1782 1.394 . S
C1780 H1796 0.931 . S
C1781 C1780 1.391 . S
C1781 C1785 1.376 . S
C1782 C1780 1.394 . S
C1782 C1783 1.369 . S
C1782 C1786 1.531 . S
C1783 C1782 1.369 . S
C1783 C1784 1.410 . S
C1783 C1791 1.503 . S
C1784 C1783 1.410 . S
C1784 C1785 1.392 . S
C1784 C1787 1.511 . S
C1785 C1781 1.376 . S
C1785 C1784 1.392 . S
C1785 H1797 0.929 . S
C1786 C1782 1.531 . S
C1786 H1798 0.960 . S
C1786 H1799 0.962 . S
C1786 H1800 0.960 . S
C1787 C1784 1.511 . S
C1787 H1801 0.961 . S
C1787 H1802 0.961 . S
C1787 H1803 0.961 . S
C1788 C1789 1.370 . S
C1788 C1790 1.363 . S
C1788 H1804 0.931 . S
C1789 C1788 1.370 . S
C1789 C1793 1.408 . S
C1790 C1788 1.363 . S
C1790 C1791 1.370 . S
C1790 C1794 1.524 . S
C1791 C1783 1.503 . S
C1791 C1790 1.370 . S
C1791 C1792 1.403 . S
C1792 C1791 1.403 . S
C1792 C1793 1.404 . S
C1792 C1795 1.539 . S
C1793 C1789 1.408 . S
C1793 C1792 1.404 . S
C1793 H1805 0.930 . S
C1794 C1790 1.524 . S
C1794 H1806 0.956 . S
C1794 H1807 0.961 . S
C1794 H1808 0.961 . S
C1795 C1792 1.539 . S
C1795 H1809 0.958 . S
C1795 H1810 0.961 . S
C1795 H1811 0.960 . S
H1796 C1780 0.931 . S
H1797 C1785 0.929 . S
H1798 C1786 0.960 . S
H1799 C1786 0.962 . S
H1800 C1786 0.960 . S
H1801 C1787 0.961 . S
H1802 C1787 0.961 . S
H1803 C1787 0.961 . S
H1804 C1788 0.931 . S
H1805 C1793 0.930 . S
H1806 C1794 0.956 . S
H1807 C1794 0.961 . S
H1808 C1794 0.961 . S
H1809 C1795 0.958 . S
H1810 C1795 0.961 . S
H1811 C1795 0.960 . S
C1812 C1813 1.391 . S
C1812 C1814 1.394 . S
C1812 H1828 0.931 . S
C1813 C1812 1.391 . S
C1813 C1817 1.376 . S
C1814 C1812 1.394 . S
C1814 C1815 1.369 . S
C1814 C1818 1.531 . S
C1815 C1814 1.369 . S
C1815 C1816 1.410 . S
C1815 C1823 1.503 . S
C1816 C1815 1.410 . S
C1816 C1817 1.392 . S
C1816 C1819 1.511 . S
C1817 C1813 1.376 . S
C1817 C1816 1.392 . S
C1817 H1829 0.929 . S
C1818 C1814 1.531 . S
C1818 H1830 0.960 . S
C1818 H1831 0.962 . S
C1818 H1832 0.960 . S
C1819 C1816 1.511 . S
C1819 H1833 0.961 . S
C1819 H1834 0.961 . S
C1819 H1835 0.961 . S
C1820 C1821 1.370 . S
C1820 C1822 1.363 . S
C1820 H1836 0.931 . S
C1821 C1820 1.370 . S
C1821 C1825 1.408 . S
C1822 C1820 1.363 . S
C1822 C1823 1.370 . S
C1822 C1826 1.524 . S
C1823 C1815 1.503 . S
C1823 C1822 1.370 . S
C1823 C1824 1.403 . S
C1824 C1823 1.403 . S
C1824 C1825 1.404 . S
C1824 C1827 1.539 . S
C1825 C1821 1.408 . S
C1825 C1824 1.404 . S
C1825 H1837 0.930 . S
C1826 C1822 1.524 . S
C1826 H1838 0.956 . S
C1826 H1839 0.961 . S
C1826 H1840 0.961 . S
C1827 C1824 1.539 . S
C1827 H1841 0.958 . S
C1827 H1842 0.961 . S
C1827 H1843 0.960 . S
H1828 C1812 0.931 . S
H1829 C1817 0.929 . S
H1830 C1818 0.960 . S
H1831 C1818 0.962 . S
H1832 C1818 0.960 . S
H1833 C1819 0.961 . S
H1834 C1819 0.961 . S
H1835 C1819 0.961 . S
H1836 C1820 0.931 . S
H1837 C1825 0.930 . S
H1838 C1826 0.956 . S
H1839 C1826 0.961 . S
H1840 C1826 0.961 . S
H1841 C1827 0.958 . S
H1842 C1827 0.961 . S
H1843 C1827 0.960 . S
C1844 C1845 1.391 . S
C1844 C1846 1.394 . S
C1844 H1860 0.931 . S
C1845 C1844 1.391 . S
C1845 C1849 1.376 . S
C1846 C1844 1.394 . S
C1846 C1847 1.369 . S
C1846 C1850 1.531 . S
C1847 C1846 1.369 . S
C1847 C1848 1.410 . S
C1847 C1855 1.503 . S
C1848 C1847 1.410 . S
C1848 C1849 1.392 . S
C1848 C1851 1.511 . S
C1849 C1845 1.376 . S
C1849 C1848 1.392 . S
C1849 H1861 0.929 . S
C1850 C1846 1.531 . S
C1850 H1862 0.960 . S
C1850 H1863 0.962 . S
C1850 H1864 0.960 . S
C1851 C1848 1.511 . S
C1851 H1865 0.961 . S
C1851 H1866 0.961 . S
C1851 H1867 0.961 . S
C1852 C1853 1.370 . S
C1852 C1854 1.363 . S
C1852 H1868 0.931 . S
C1853 C1852 1.370 . S
C1853 C1857 1.408 . S
C1854 C1852 1.363 . S
C1854 C1855 1.370 . S
C1854 C1858 1.524 . S
C1855 C1847 1.503 . S
C1855 C1854 1.370 . S
C1855 C1856 1.403 . S
C1856 C1855 1.403 . S
C1856 C1857 1.404 . S
C1856 C1859 1.539 . S
C1857 C1853 1.408 . S
C1857 C1856 1.404 . S
C1857 H1869 0.930 . S
C1858 C1854 1.524 . S
C1858 H1870 0.956 . S
C1858 H1871 0.961 . S
C1858 H1872 0.961 . S
C1859 C1856 1.539 . S
C1859 H1873 0.958 . S
C1859 H1874 0.961 . S
C1859 H1875 0.960 . S
H1860 C1844 0.931 . S
H1861 C1849 0.929 . S
H1862 C1850 0.960 . S
H1863 C1850 0.962 . S
H1864 C1850 0.960 . S
H1865 C1851 0.961 . S
H1866 C1851 0.961 . S
H1867 C1851 0.961 . S
H1868 C1852 0.931 . S
H1869 C1857 0.930 . S
H1870 C1858 0.956 . S
H1871 C1858 0.961 . S
H1872 C1858 0.961 . S
H1873 C1859 0.958 . S
H1874 C1859 0.961 . S
H1875 C1859 0.960 . S
C1876 C1877 1.391 . S
C1876 C1878 1.394 . S
C1876 H1892 0.931 . S
C1877 C1876 1.391 . S
C1877 C1881 1.376 . S
C1878 C1876 1.394 . S
C1878 C1879 1.369 . S
C1878 C1882 1.531 . S
C1879 C1878 1.369 . S
C1879 C1880 1.410 . S
C1879 C1887 1.503 . S
C1880 C1879 1.410 . S
C1880 C1881 1.392 . S
C1880 C1883 1.511 . S
C1881 C1877 1.376 . S
C1881 C1880 1.392 . S
C1881 H1893 0.929 . S
C1882 C1878 1.531 . S
C1882 H1894 0.960 . S
C1882 H1895 0.962 . S
C1882 H1896 0.960 . S
C1883 C1880 1.511 . S
C1883 H1897 0.961 . S
C1883 H1898 0.961 . S
C1883 H1899 0.961 . S
C1884 C1885 1.370 . S
C1884 C1886 1.363 . S
C1884 H1900 0.931 . S
C1885 C1884 1.370 . S
C1885 C1889 1.408 . S
C1886 C1884 1.363 . S
C1886 C1887 1.370 . S
C1886 C1890 1.524 . S
C1887 C1879 1.503 . S
C1887 C1886 1.370 . S
C1887 C1888 1.403 . S
C1888 C1887 1.403 . S
C1888 C1889 1.404 . S
C1888 C1891 1.539 . S
C1889 C1885 1.408 . S
C1889 C1888 1.404 . S
C1889 H1901 0.930 . S
C1890 C1886 1.524 . S
C1890 H1902 0.956 . S
C1890 H1903 0.961 . S
C1890 H1904 0.961 . S
C1891 C1888 1.539 . S
C1891 H1905 0.958 . S
C1891 H1906 0.961 . S
C1891 H1907 0.960 . S
H1892 C1876 0.931 . S
H1893 C1881 0.929 . S
H1894 C1882 0.960 . S
H1895 C1882 0.962 . S
H1896 C1882 0.960 . S
H1897 C1883 0.961 . S
H1898 C1883 0.961 . S
H1899 C1883 0.961 . S
H1900 C1884 0.931 . S
H1901 C1889 0.930 . S
H1902 C1890 0.956 . S
H1903 C1890 0.961 . S
H1904 C1890 0.961 . S
H1905 C1891 0.958 . S
H1906 C1891 0.961 . S
H1907 C1891 0.960 . S
C1908 C1909 1.391 . S
C1908 C1910 1.394 . S
C1908 H1924 0.931 . S
C1909 C1908 1.391 . S
C1909 C1913 1.376 . S
C1910 C1908 1.394 . S
C1910 C1911 1.369 . S
C1910 C1914 1.531 . S
C1911 C1910 1.369 . S
C1911 C1912 1.410 . S
C1911 C1919 1.503 . S
C1912 C1911 1.410 . S
C1912 C1913 1.392 . S
C1912 C1915 1.511 . S
C1913 C1909 1.376 . S
C1913 C1912 1.392 . S
C1913 H1925 0.929 . S
C1914 C1910 1.531 . S
C1914 H1926 0.960 . S
C1914 H1927 0.962 . S
C1914 H1928 0.960 . S
C1915 C1912 1.511 . S
C1915 H1929 0.961 . S
C1915 H1930 0.961 . S
C1915 H1931 0.961 . S
C1916 C1917 1.370 . S
C1916 C1918 1.363 . S
C1916 H1932 0.931 . S
C1917 C1916 1.370 . S
C1917 C1921 1.408 . S
C1918 C1916 1.363 . S
C1918 C1919 1.370 . S
C1918 C1922 1.524 . S
C1919 C1911 1.503 . S
C1919 C1918 1.370 . S
C1919 C1920 1.403 . S
C1920 C1919 1.403 . S
C1920 C1921 1.404 . S
C1920 C1923 1.539 . S
C1921 C1917 1.408 . S
C1921 C1920 1.404 . S
C1921 H1933 0.930 . S
C1922 C1918 1.524 . S
C1922 H1934 0.956 . S
C1922 H1935 0.961 . S
C1922 H1936 0.961 . S
C1923 C1920 1.539 . S
C1923 H1937 0.958 . S
C1923 H1938 0.961 . S
C1923 H1939 0.960 . S
H1924 C1908 0.931 . S
H1925 C1913 0.929 . S
H1926 C1914 0.960 . S
H1927 C1914 0.962 . S
H1928 C1914 0.960 . S
H1929 C1915 0.961 . S
H1930 C1915 0.961 . S
H1931 C1915 0.961 . S
H1932 C1916 0.931 . S
H1933 C1921 0.930 . S
H1934 C1922 0.956 . S
H1935 C1922 0.961 . S
H1936 C1922 0.961 . S
H1937 C1923 0.958 . S
H1938 C1923 0.961 . S
H1939 C1923 0.960 . S
C1940 C1941 1.391 . S
C1940 C1942 1.394 . S
C1940 H1956 0.931 . S
C1941 C1940 1.391 . S
C1941 C1945 1.376 . S
C1942 C1940 1.394 . S
C1942 C1943 1.369 . S
C1942 C1946 1.531 . S
C1943 C1942 1.369 . S
C1943 C1944 1.410 . S
C1943 C1951 1.503 . S
C1944 C1943 1.410 . S
C1944 C1945 1.392 . S
C1944 C1947 1.511 . S
C1945 C1941 1.376 . S
C1945 C1944 1.392 . S
C1945 H1957 0.929 . S
C1946 C1942 1.531 . S
C1946 H1958 0.960 . S
C1946 H1959 0.962 . S
C1946 H1960 0.960 . S
C1947 C1944 1.511 . S
C1947 H1961 0.961 . S
C1947 H1962 0.961 . S
C1947 H1963 0.961 . S
C1948 C1949 1.370 . S
C1948 C1950 1.363 . S
C1948 H1964 0.931 . S
C1949 C1948 1.370 . S
C1949 C1953 1.408 . S
C1950 C1948 1.363 . S
C1950 C1951 1.370 . S
C1950 C1954 1.524 . S
C1951 C1943 1.503 . S
C1951 C1950 1.370 . S
C1951 C1952 1.403 . S
C1952 C1951 1.403 . S
C1952 C1953 1.404 . S
C1952 C1955 1.539 . S
C1953 C1949 1.408 . S
C1953 C1952 1.404 . S
C1953 H1965 0.930 . S
C1954 C1950 1.524 . S
C1954 H1966 0.956 . S
C1954 H1967 0.961 . S
C1954 H1968 0.961 . S
C1955 C1952 1.539 . S
C1955 H1969 0.958 . S
C1955 H1970 0.961 . S
C1955 H1971 0.960 . S
H1956 C1940 0.931 . S
H1957 C1945 0.929 . S
H1958 C1946 0.960 . S
H1959 C1946 0.962 . S
H1960 C1946 0.960 . S
H1961 C1947 0.961 . S
H1962 C1947 0.961 . S
H1963 C1947 0.961 . S
H1964 C1948 0.931 . S
H1965 C1953 0.930 . S
H1966 C1954 0.956 . S
H1967 C1954 0.961 . S
H1968 C1954 0.961 . S
H1969 C1955 0.958 . S
H1970 C1955 0.961 . S
H1971 C1955 0.960 . S
C1972 C1973 1.391 . S
C1972 C1974 1.394 . S
C1972 H1988 0.931 . S
C1973 C1972 1.391 . S
C1973 C1977 1.376 . S
C1974 C1972 1.394 . S
C1974 C1975 1.369 . S
C1974 C1978 1.531 . S
C1975 C1974 1.369 . S
C1975 C1976 1.410 . S
C1975 C1983 1.503 . S
C1976 C1975 1.410 . S
C1976 C1977 1.392 . S
C1976 C1979 1.511 . S
C1977 C1973 1.376 . S
C1977 C1976 1.392 . S
C1977 H1989 0.929 . S
C1978 C1974 1.531 . S
C1978 H1990 0.960 . S
C1978 H1991 0.962 . S
C1978 H1992 0.960 . S
C1979 C1976 1.511 . S
C1979 H1993 0.961 . S
C1979 H1994 0.961 . S
C1979 H1995 0.961 . S
C1980 C1981 1.370 . S
C1980 C1982 1.363 . S
C1980 H1996 0.931 . S
C1981 C1980 1.370 . S
C1981 C1985 1.408 . S
C1982 C1980 1.363 . S
C1982 C1983 1.370 . S
C1982 C1986 1.524 . S
C1983 C1975 1.503 . S
C1983 C1982 1.370 . S
C1983 C1984 1.403 . S
C1984 C1983 1.403 . S
C1984 C1985 1.404 . S
C1984 C1987 1.539 . S
C1985 C1981 1.408 . S
C1985 C1984 1.404 . S
C1985 H1997 0.930 . S
C1986 C1982 1.524 . S
C1986 H1998 0.956 . S
C1986 H1999 0.961 . S
C1986 H2000 0.961 . S
C1987 C1984 1.539 . S
C1987 H2001 0.958 . S
C1987 H2002 0.961 . S
C1987 H2003 0.960 . S
H1988 C1972 0.931 . S
H1989 C1977 0.929 . S
H1990 C1978 0.960 . S
H1991 C1978 0.962 . S
H1992 C1978 0.960 . S
H1993 C1979 0.961 . S
H1994 C1979 0.961 . S
H1995 C1979 0.961 . S
H1996 C1980 0.931 . S
H1997 C1985 0.930 . S
H1998 C1986 0.956 . S
H1999 C1986 0.961 . S
H2000 C1986 0.961 . S
H2001 C1987 0.958 . S
H2002 C1987 0.961 . S
H2003 C1987 0.960 . S
C2004 C2005 1.391 . S
C2004 C2006 1.394 . S
C2004 H2020 0.931 . S
C2005 C2004 1.391 . S
C2005 C2009 1.376 . S
C2006 C2004 1.394 . S
C2006 C2007 1.369 . S
C2006 C2010 1.531 . S
C2007 C2006 1.369 . S
C2007 C2008 1.410 . S
C2007 C2015 1.503 . S
C2008 C2007 1.410 . S
C2008 C2009 1.392 . S
C2008 C2011 1.511 . S
C2009 C2005 1.376 . S
C2009 C2008 1.392 . S
C2009 H2021 0.929 . S
C2010 C2006 1.531 . S
C2010 H2022 0.960 . S
C2010 H2023 0.962 . S
C2010 H2024 0.960 . S
C2011 C2008 1.511 . S
C2011 H2025 0.961 . S
C2011 H2026 0.961 . S
C2011 H2027 0.961 . S
C2012 C2013 1.370 . S
C2012 C2014 1.363 . S
C2012 H2028 0.931 . S
C2013 C2012 1.370 . S
C2013 C2017 1.408 . S
C2014 C2012 1.363 . S
C2014 C2015 1.370 . S
C2014 C2018 1.524 . S
C2015 C2007 1.503 . S
C2015 C2014 1.370 . S
C2015 C2016 1.403 . S
C2016 C2015 1.403 . S
C2016 C2017 1.404 . S
C2016 C2019 1.539 . S
C2017 C2013 1.408 . S
C2017 C2016 1.404 . S
C2017 H2029 0.930 . S
C2018 C2014 1.524 . S
C2018 H2030 0.956 . S
C2018 H2031 0.961 . S
C2018 H2032 0.961 . S
C2019 C2016 1.539 . S
C2019 H2033 0.958 . S
C2019 H2034 0.961 . S
C2019 H2035 0.960 . S
H2020 C2004 0.931 . S
H2021 C2009 0.929 . S
H2022 C2010 0.960 . S
H2023 C2010 0.962 . S
H2024 C2010 0.960 . S
H2025 C2011 0.961 . S
H2026 C2011 0.961 . S
H2027 C2011 0.961 . S
H2028 C2012 0.931 . S
H2029 C2017 0.930 . S
H2030 C2018 0.956 . S
H2031 C2018 0.961 . S
H2032 C2018 0.961 . S
H2033 C2019 0.958 . S
H2034 C2019 0.961 . S
H2035 C2019 0.960 . S
C2036 C2037 1.391 . S
C2036 C2038 1.394 . S
C2036 H2052 0.931 . S
C2037 C2036 1.391 . S
C2037 C2041 1.376 . S
C2038 C2036 1.394 . S
C2038 C2039 1.369 . S
C2038 C2042 1.531 . S
C2039 C2038 1.369 . S
C2039 C2040 1.410 . S
C2039 C2047 1.503 . S
C2040 C2039 1.410 . S
C2040 C2041 1.392 . S
C2040 C2043 1.511 . S
C2041 C2037 1.376 . S
C2041 C2040 1.392 . S
C2041 H2053 0.929 . S
C2042 C2038 1.531 . S
C2042 H2054 0.960 . S
C2042 H2055 0.962 . S
C2042 H2056 0.960 . S
C2043 C2040 1.511 . S
C2043 H2057 0.961 . S
C2043 H2058 0.961 . S
C2043 H2059 0.961 . S
C2044 C2045 1.370 . S
C2044 C2046 1.363 . S
C2044 H2060 0.931 . S
C2045 C2044 1.370 . S
C2045 C2049 1.408 . S
C2046 C2044 1.363 . S
C2046 C2047 1.370 . S
C2046 C2050 1.524 . S
C2047 C2039 1.503 . S
C2047 C2046 1.370 . S
C2047 C2048 1.403 . S
C2048 C2047 1.403 . S
C2048 C2049 1.404 . S
C2048 C2051 1.539 . S
C2049 C2045 1.408 . S
C2049 C2048 1.404 . S
C2049 H2061 0.930 . S
C2050 C2046 1.524 . S
C2050 H2062 0.956 . S
C2050 H2063 0.961 . S
C2050 H2064 0.961 . S
C2051 C2048 1.539 . S
C2051 H2065 0.958 . S
C2051 H2066 0.961 . S
C2051 H2067 0.960 . S
H2052 C2036 0.931 . S
H2053 C2041 0.929 . S
H2054 C2042 0.960 . S
H2055 C2042 0.962 . S
H2056 C2042 0.960 . S
H2057 C2043 0.961 . S
H2058 C2043 0.961 . S
H2059 C2043 0.961 . S
H2060 C2044 0.931 . S
H2061 C2049 0.930 . S
H2062 C2050 0.956 . S
H2063 C2050 0.961 . S
H2064 C2050 0.961 . S
H2065 C2051 0.958 . S
H2066 C2051 0.961 . S
H2067 C2051 0.960 . S
C2068 C2069 1.391 . S
C2068 C2070 1.394 . S
C2068 H2084 0.931 . S
C2069 C2068 1.391 . S
C2069 C2073 1.376 . S
C2070 C2068 1.394 . S
C2070 C2071 1.369 . S
C2070 C2074 1.531 . S
C2071 C2070 1.369 . S
C2071 C2072 1.410 . S
C2071 C2079 1.503 . S
C2072 C2071 1.410 . S
C2072 C2073 1.392 . S
C2072 C2075 1.511 . S
C2073 C2069 1.376 . S
C2073 C2072 1.392 . S
C2073 H2085 0.929 . S
C2074 C2070 1.531 . S
C2074 H2086 0.960 . S
C2074 H2087 0.962 . S
C2074 H2088 0.960 . S
C2075 C2072 1.511 . S
C2075 H2089 0.961 . S
C2075 H2090 0.961 . S
C2075 H2091 0.961 . S
C2076 C2077 1.370 . S
C2076 C2078 1.363 . S
C2076 H2092 0.931 . S
C2077 C2076 1.370 . S
C2077 C2081 1.408 . S
C2078 C2076 1.363 . S
C2078 C2079 1.370 . S
C2078 C2082 1.524 . S
C2079 C2071 1.503 . S
C2079 C2078 1.370 . S
C2079 C2080 1.403 . S
C2080 C2079 1.403 . S
C2080 C2081 1.404 . S
C2080 C2083 1.539 . S
C2081 C2077 1.408 . S
C2081 C2080 1.404 . S
C2081 H2093 0.930 . S
C2082 C2078 1.524 . S
C2082 H2094 0.956 . S
C2082 H2095 0.961 . S
C2082 H2096 0.961 . S
C2083 C2080 1.539 . S
C2083 H2097 0.958 . S
C2083 H2098 0.961 . S
C2083 H2099 0.960 . S
H2084 C2068 0.931 . S
H2085 C2073 0.929 . S
H2086 C2074 0.960 . S
H2087 C2074 0.962 . S
H2088 C2074 0.960 . S
H2089 C2075 0.961 . S
H2090 C2075 0.961 . S
H2091 C2075 0.961 . S
H2092 C2076 0.931 . S
H2093 C2081 0.930 . S
H2094 C2082 0.956 . S
H2095 C2082 0.961 . S
H2096 C2082 0.961 . S
H2097 C2083 0.958 . S
H2098 C2083 0.961 . S
H2099 C2083 0.960 . S
C2100 C2101 1.391 . S
C2100 C2102 1.394 . S
C2100 H2116 0.931 . S
C2101 C2100 1.391 . S
C2101 C2105 1.376 . S
C2102 C2100 1.394 . S
C2102 C2103 1.369 . S
C2102 C2106 1.531 . S
C2103 C2102 1.369 . S
C2103 C2104 1.410 . S
C2103 C2111 1.503 . S
C2104 C2103 1.410 . S
C2104 C2105 1.392 . S
C2104 C2107 1.511 . S
C2105 C2101 1.376 . S
C2105 C2104 1.392 . S
C2105 H2117 0.929 . S
C2106 C2102 1.531 . S
C2106 H2118 0.960 . S
C2106 H2119 0.962 . S
C2106 H2120 0.960 . S
C2107 C2104 1.511 . S
C2107 H2121 0.961 . S
C2107 H2122 0.961 . S
C2107 H2123 0.961 . S
C2108 C2109 1.370 . S
C2108 C2110 1.363 . S
C2108 H2124 0.931 . S
C2109 C2108 1.370 . S
C2109 C2113 1.408 . S
C2110 C2108 1.363 . S
C2110 C2111 1.370 . S
C2110 C2114 1.524 . S
C2111 C2103 1.503 . S
C2111 C2110 1.370 . S
C2111 C2112 1.403 . S
C2112 C2111 1.403 . S
C2112 C2113 1.404 . S
C2112 C2115 1.539 . S
C2113 C2109 1.408 . S
C2113 C2112 1.404 . S
C2113 H2125 0.930 . S
C2114 C2110 1.524 . S
C2114 H2126 0.956 . S
C2114 H2127 0.961 . S
C2114 H2128 0.961 . S
C2115 C2112 1.539 . S
C2115 H2129 0.958 . S
C2115 H2130 0.961 . S
C2115 H2131 0.960 . S
H2116 C2100 0.931 . S
H2117 C2105 0.929 . S
H2118 C2106 0.960 . S
H2119 C2106 0.962 . S
H2120 C2106 0.960 . S
H2121 C2107 0.961 . S
H2122 C2107 0.961 . S
H2123 C2107 0.961 . S
H2124 C2108 0.931 . S
H2125 C2113 0.930 . S
H2126 C2114 0.956 . S
H2127 C2114 0.961 . S
H2128 C2114 0.961 . S
H2129 C2115 0.958 . S
H2130 C2115 0.961 . S
H2131 C2115 0.960 . S
C2132 C2133 1.391 . S
C2132 C2134 1.394 . S
C2132 H2148 0.931 . S
C2133 C2132 1.391 . S
C2133 C2137 1.376 . S
C2134 C2132 1.394 . S
C2134 C2135 1.369 . S
C2134 C2138 1.531 . S
C2135 C2134 1.369 . S
C2135 C2136 1.410 . S
C2135 C2143 1.503 . S
C2136 C2135 1.410 . S
C2136 C2137 1.392 . S
C2136 C2139 1.511 . S
C2137 C2133 1.376 . S
C2137 C2136 1.392 . S
C2137 H2149 0.929 . S
C2138 C2134 1.531 . S
C2138 H2150 0.960 . S
C2138 H2151 0.962 . S
C2138 H2152 0.960 . S
C2139 C2136 1.511 . S
C2139 H2153 0.961 . S
C2139 H2154 0.961 . S
C2139 H2155 0.961 . S
C2140 C2141 1.370 . S
C2140 C2142 1.363 . S
C2140 H2156 0.931 . S
C2141 C2140 1.370 . S
C2141 C2145 1.408 . S
C2142 C2140 1.363 . S
C2142 C2143 1.370 . S
C2142 C2146 1.524 . S
C2143 C2135 1.503 . S
C2143 C2142 1.370 . S
C2143 C2144 1.403 . S
C2144 C2143 1.403 . S
C2144 C2145 1.404 . S
C2144 C2147 1.539 . S
C2145 C2141 1.408 . S
C2145 C2144 1.404 . S
C2145 H2157 0.930 . S
C2146 C2142 1.524 . S
C2146 H2158 0.956 . S
C2146 H2159 0.961 . S
C2146 H2160 0.961 . S
C2147 C2144 1.539 . S
C2147 H2161 0.958 . S
C2147 H2162 0.961 . S
C2147 H2163 0.960 . S
H2148 C2132 0.931 . S
H2149 C2137 0.929 . S
H2150 C2138 0.960 . S
H2151 C2138 0.962 . S
H2152 C2138 0.960 . S
H2153 C2139 0.961 . S
H2154 C2139 0.961 . S
H2155 C2139 0.961 . S
H2156 C2140 0.931 . S
H2157 C2145 0.930 . S
H2158 C2146 0.956 . S
H2159 C2146 0.961 . S
H2160 C2146 0.961 . S
H2161 C2147 0.958 . S
H2162 C2147 0.961 . S
H2163 C2147 0.960 . S
C2164 C2165 1.391 . S
C2164 C2166 1.394 . S
C2164 H2180 0.931 . S
C2165 C2164 1.391 . S
C2165 C2169 1.376 . S
C2166 C2164 1.394 . S
C2166 C2167 1.369 . S
C2166 C2170 1.531 . S
C2167 C2166 1.369 . S
C2167 C2168 1.410 . S
C2167 C2175 1.503 . S
C2168 C2167 1.410 . S
C2168 C2169 1.392 . S
C2168 C2171 1.511 . S
C2169 C2165 1.376 . S
C2169 C2168 1.392 . S
C2169 H2181 0.929 . S
C2170 C2166 1.531 . S
C2170 H2182 0.960 . S
C2170 H2183 0.962 . S
C2170 H2184 0.960 . S
C2171 C2168 1.511 . S
C2171 H2185 0.961 . S
C2171 H2186 0.961 . S
C2171 H2187 0.961 . S
C2172 C2173 1.370 . S
C2172 C2174 1.363 . S
C2172 H2188 0.931 . S
C2173 C2172 1.370 . S
C2173 C2177 1.408 . S
C2174 C2172 1.363 . S
C2174 C2175 1.370 . S
C2174 C2178 1.524 . S
C2175 C2167 1.503 . S
C2175 C2174 1.370 . S
C2175 C2176 1.403 . S
C2176 C2175 1.403 . S
C2176 C2177 1.404 . S
C2176 C2179 1.539 . S
C2177 C2173 1.408 . S
C2177 C2176 1.404 . S
C2177 H2189 0.930 . S
C2178 C2174 1.524 . S
C2178 H2190 0.956 . S
C2178 H2191 0.961 . S
C2178 H2192 0.961 . S
C2179 C2176 1.539 . S
C2179 H2193 0.958 . S
C2179 H2194 0.961 . S
C2179 H2195 0.960 . S
H2180 C2164 0.931 . S
H2181 C2169 0.929 . S
H2182 C2170 0.960 . S
H2183 C2170 0.962 . S
H2184 C2170 0.960 . S
H2185 C2171 0.961 . S
H2186 C2171 0.961 . S
H2187 C2171 0.961 . S
H2188 C2172 0.931 . S
H2189 C2177 0.930 . S
H2190 C2178 0.956 . S
H2191 C2178 0.961 . S
H2192 C2178 0.961 . S
H2193 C2179 0.958 . S
H2194 C2179 0.961 . S
H2195 C2179 0.960 . S
C2196 C2197 1.391 . S
C2196 C2198 1.394 . S
C2196 H2212 0.931 . S
C2197 C2196 1.391 . S
C2197 C2201 1.376 . S
C2198 C2196 1.394 . S
C2198 C2199 1.369 . S
C2198 C2202 1.531 . S
C2199 C2198 1.369 . S
C2199 C2200 1.410 . S
C2199 C2207 1.503 . S
C2200 C2199 1.410 . S
C2200 C2201 1.392 . S
C2200 C2203 1.511 . S
C2201 C2197 1.376 . S
C2201 C2200 1.392 . S
C2201 H2213 0.929 . S
C2202 C2198 1.531 . S
C2202 H2214 0.960 . S
C2202 H2215 0.962 . S
C2202 H2216 0.960 . S
C2203 C2200 1.511 . S
C2203 H2217 0.961 . S
C2203 H2218 0.961 . S
C2203 H2219 0.961 . S
C2204 C2205 1.370 . S
C2204 C2206 1.363 . S
C2204 H2220 0.931 . S
C2205 C2204 1.370 . S
C2205 C2209 1.408 . S
C2206 C2204 1.363 . S
C2206 C2207 1.370 . S
C2206 C2210 1.524 . S
C2207 C2199 1.503 . S
C2207 C2206 1.370 . S
C2207 C2208 1.403 . S
C2208 C2207 1.403 . S
C2208 C2209 1.404 . S
C2208 C2211 1.539 . S
C2209 C2205 1.408 . S
C2209 C2208 1.404 . S
C2209 H2221 0.930 . S
C2210 C2206 1.524 . S
C2210 H2222 0.956 . S
C2210 H2223 0.961 . S
C2210 H2224 0.961 . S
C2211 C2208 1.539 . S
C2211 H2225 0.958 . S
C2211 H2226 0.961 . S
C2211 H2227 0.960 . S
H2212 C2196 0.931 . S
H2213 C2201 0.929 . S
H2214 C2202 0.960 . S
H2215 C2202 0.962 . S
H2216 C2202 0.960 . S
H2217 C2203 0.961 . S
H2218 C2203 0.961 . S
H2219 C2203 0.961 . S
H2220 C2204 0.931 . S
H2221 C2209 0.930 . S
H2222 C2210 0.956 . S
H2223 C2210 0.961 . S
H2224 C2210 0.961 . S
H2225 C2211 0.958 . S
H2226 C2211 0.961 . S
H2227 C2211 0.960 . S
C2228 C2229 1.391 1_565 S
C2228 C2230 1.394 . S
C2228 H2244 0.931 . S
C2229 C2228 1.391 1_545 S
C2229 C2233 1.376 . S
C2230 C2228 1.394 . S
C2230 C2231 1.369 . S
C2230 C2234 1.531 . S
C2231 C2230 1.369 . S
C2231 C2232 1.410 1_565 S
C2231 C2239 1.503 . S
C2232 C2231 1.410 1_545 S
C2232 C2233 1.392 . S
C2232 C2235 1.511 . S
C2233 C2229 1.376 . S
C2233 C2232 1.392 . S
C2233 H2245 0.929 . S
C2234 C2230 1.531 . S
C2234 H2246 0.960 . S
C2234 H2247 0.962 . S
C2234 H2248 0.960 . S
C2235 C2232 1.511 . S
C2235 H2249 0.961 . S
C2235 H2250 0.961 . S
C2235 H2251 0.961 . S
C2236 C2237 1.370 1_545 S
C2236 C2238 1.363 . S
C2236 H2252 0.931 . S
C2237 C2236 1.370 1_565 S
C2237 C2241 1.408 . S
C2238 C2236 1.363 . S
C2238 C2239 1.370 1_545 S
C2238 C2242 1.524 . S
C2239 C2231 1.503 . S
C2239 C2238 1.370 1_565 S
C2239 C2240 1.403 . S
C2240 C2239 1.403 . S
C2240 C2241 1.404 . S
C2240 C2243 1.539 . S
C2241 C2237 1.408 . S
C2241 C2240 1.404 . S
C2241 H2253 0.930 . S
C2242 C2238 1.524 . S
C2242 H2254 0.956 . S
C2242 H2255 0.961 . S
C2242 H2256 0.961 . S
C2243 C2240 1.539 . S
C2243 H2257 0.958 . S
C2243 H2258 0.961 . S
C2243 H2259 0.960 . S
H2244 C2228 0.931 . S
H2245 C2233 0.929 . S
H2246 C2234 0.960 . S
H2247 C2234 0.962 . S
H2248 C2234 0.960 . S
H2249 C2235 0.961 . S
H2250 C2235 0.961 . S
H2251 C2235 0.961 . S
H2252 C2236 0.931 . S
H2253 C2241 0.930 . S
H2254 C2242 0.956 . S
H2255 C2242 0.961 . S
H2256 C2242 0.961 . S
H2257 C2243 0.958 . S
H2258 C2243 0.961 . S
H2259 C2243 0.960 . S
C2260 C2261 1.391 . S
C2260 C2262 1.394 . S
C2260 H2276 0.931 . S
C2261 C2260 1.391 . S
C2261 C2265 1.379 . S
C2262 C2260 1.394 . S
C2262 C2263 1.369 1_455 S
C2262 C2266 1.531 . S
C2263 C2262 1.369 1_655 S
C2263 C2264 1.410 . S
C2263 C2271 1.503 . S
C2264 C2263 1.410 . S
C2264 C2265 1.391 1_655 S
C2264 C2267 1.511 . S
C2265 C2261 1.379 . S
C2265 C2264 1.391 1_455 S
C2265 H2277 0.927 1_455 S
C2266 C2262 1.531 . S
C2266 H2278 0.960 1_455 S
C2266 H2279 0.962 . S
C2266 H2280 0.960 . S
C2267 C2264 1.511 . S
C2267 H2281 0.961 . S
C2267 H2282 0.961 . S
C2267 H2283 0.961 . S
C2268 C2269 1.370 1_455 S
C2268 C2270 1.363 . S
C2268 H2284 0.931 . S
C2269 C2268 1.370 1_655 S
C2269 C2273 1.408 . S
C2270 C2268 1.363 . S
C2270 C2271 1.370 1_455 S
C2270 C2274 1.524 . S
C2271 C2263 1.503 . S
C2271 C2270 1.370 1_655 S
C2271 C2272 1.403 . S
C2272 C2271 1.403 . S
C2272 C2273 1.404 . S
C2272 C2275 1.539 . S
C2273 C2269 1.408 . S
C2273 C2272 1.404 . S
C2273 H2285 0.930 . S
C2274 C2270 1.524 . S
C2274 H2286 0.956 . S
C2274 H2287 0.961 . S
C2274 H2288 0.961 . S
C2275 C2272 1.539 . S
C2275 H2289 0.958 . S
C2275 H2290 0.961 . S
C2275 H2291 0.960 . S
H2276 C2260 0.931 . S
H2277 C2265 0.927 1_655 S
H2278 C2266 0.960 1_655 S
H2279 C2266 0.962 . S
H2280 C2266 0.960 . S
H2281 C2267 0.961 . S
H2282 C2267 0.961 . S
H2283 C2267 0.961 . S
H2284 C2268 0.931 . S
H2285 C2273 0.930 . S
H2286 C2274 0.956 . S
H2287 C2274 0.961 . S
H2288 C2274 0.961 . S
H2289 C2275 0.958 . S
H2290 C2275 0.961 . S
H2291 C2275 0.960 . S
C2292 C2293 1.391 . S
C2292 C2294 1.394 . S
C2292 H2308 0.931 . S
C2293 C2292 1.391 . S
C2293 C2297 1.376 . S
C2294 C2292 1.394 . S
C2294 C2295 1.369 . S
C2294 C2298 1.531 . S
C2295 C2294 1.369 . S
C2295 C2296 1.410 . S
C2295 C2303 1.503 . S
C2296 C2295 1.410 . S
C2296 C2297 1.392 . S
C2296 C2299 1.511 . S
C2297 C2293 1.376 . S
C2297 C2296 1.392 . S
C2297 H2309 0.929 . S
C2298 C2294 1.531 . S
C2298 H2310 0.960 . S
C2298 H2311 0.962 . S
C2298 H2312 0.960 . S
C2299 C2296 1.511 . S
C2299 H2313 0.961 . S
C2299 H2314 0.961 . S
C2299 H2315 0.961 . S
C2300 C2301 1.370 . S
C2300 C2302 1.363 . S
C2300 H2316 0.931 . S
C2301 C2300 1.370 . S
C2301 C2305 1.408 . S
C2302 C2300 1.363 . S
C2302 C2303 1.370 . S
C2302 C2306 1.524 . S
C2303 C2295 1.503 . S
C2303 C2302 1.370 . S
C2303 C2304 1.403 . S
C2304 C2303 1.403 . S
C2304 C2305 1.404 . S
C2304 C2307 1.539 . S
C2305 C2301 1.408 . S
C2305 C2304 1.404 . S
C2305 H2317 0.930 . S
C2306 C2302 1.524 . S
C2306 H2318 0.956 . S
C2306 H2319 0.961 . S
C2306 H2320 0.961 . S
C2307 C2304 1.539 . S
C2307 H2321 0.958 . S
C2307 H2322 0.961 . S
C2307 H2323 0.960 . S
H2308 C2292 0.931 . S
H2309 C2297 0.929 . S
H2310 C2298 0.960 . S
H2311 C2298 0.962 . S
H2312 C2298 0.960 . S
H2313 C2299 0.961 . S
H2314 C2299 0.961 . S
H2315 C2299 0.961 . S
H2316 C2300 0.931 . S
H2317 C2305 0.930 . S
H2318 C2306 0.956 . S
H2319 C2306 0.961 . S
H2320 C2306 0.961 . S
H2321 C2307 0.958 . S
H2322 C2307 0.961 . S
H2323 C2307 0.960 . S
C2324 C2325 1.391 . S
C2324 C2326 1.394 . S
C2324 H2340 0.931 . S
C2325 C2324 1.391 . S
C2325 C2329 1.376 . S
C2326 C2324 1.394 . S
C2326 C2327 1.369 . S
C2326 C2330 1.531 . S
C2327 C2326 1.369 . S
C2327 C2328 1.410 1_545 S
C2327 C2335 1.503 . S
C2328 C2327 1.410 1_565 S
C2328 C2329 1.392 1_565 S
C2328 C2331 1.511 . S
C2329 C2325 1.376 . S
C2329 C2328 1.392 1_545 S
C2329 H2341 0.929 1_545 S
C2330 C2326 1.531 . S
C2330 H2342 0.960 . S
C2330 H2343 0.962 . S
C2330 H2344 0.960 . S
C2331 C2328 1.511 . S
C2331 H2345 0.961 . S
C2331 H2346 0.961 . S
C2331 H2347 1.017 . S
C2332 C2333 1.370 . S
C2332 C2334 1.363 . S
C2332 H2348 0.931 . S
C2333 C2332 1.370 . S
C2333 C2337 1.408 1_565 S
C2334 C2332 1.363 . S
C2334 C2335 1.370 1_565 S
C2334 C2338 1.524 . S
C2335 C2327 1.503 . S
C2335 C2334 1.370 1_545 S
C2335 C2336 1.403 . S
C2336 C2335 1.403 . S
C2336 C2337 1.404 . S
C2336 C2339 1.539 . S
C2337 C2333 1.408 1_545 S
C2337 C2336 1.404 . S
C2337 H2349 0.930 . S
C2338 C2334 1.524 . S
C2338 H2350 0.956 . S
C2338 H2351 0.961 . S
C2338 H2352 0.961 . S
C2339 C2336 1.539 . S
C2339 H2353 0.958 . S
C2339 H2354 0.961 . S
C2339 H2355 0.960 . S
H2340 C2324 0.931 . S
H2341 C2329 0.929 1_565 S
H2342 C2330 0.960 . S
H2343 C2330 0.962 . S
H2344 C2330 0.960 . S
H2345 C2331 0.961 . S
H2346 C2331 0.961 . S
H2347 C2331 1.017 . S
H2348 C2332 0.931 . S
H2349 C2337 0.930 . S
H2350 C2338 0.956 . S
H2351 C2338 0.961 . S
H2352 C2338 0.961 . S
H2353 C2339 0.958 . S
H2354 C2339 0.961 . S
H2355 C2339 0.960 . S
C2356 C2357 1.391 . S
C2356 C2358 1.394 . S
C2356 H2372 0.931 . S
C2357 C2356 1.391 . S
C2357 C2361 1.376 1_655 S
C2358 C2356 1.394 . S
C2358 C2359 1.369 . S
C2358 C2362 1.531 . S
C2359 C2358 1.369 . S
C2359 C2360 1.410 1_655 S
C2359 C2367 1.503 . S
C2360 C2359 1.410 1_455 S
C2360 C2361 1.392 . S
C2360 C2363 1.511 . S
C2361 C2357 1.376 1_455 S
C2361 C2360 1.392 . S
C2361 H2373 0.929 . S
C2362 C2358 1.531 . S
C2362 H2374 0.960 . S
C2362 H2375 0.962 . S
C2362 H2376 0.960 . S
C2363 C2360 1.511 . S
C2363 H2377 0.961 . S
C2363 H2378 0.961 . S
C2363 H2379 0.961 . S
C2364 C2365 1.370 . S
C2364 C2366 1.363 . S
C2364 H2380 0.931 . S
C2365 C2364 1.370 . S
C2365 C2369 1.408 1_455 S
C2366 C2364 1.363 . S
C2366 C2367 1.370 1_455 S
C2366 C2370 1.524 . S
C2367 C2359 1.503 . S
C2367 C2366 1.370 1_655 S
C2367 C2368 1.403 . S
C2368 C2367 1.403 . S
C2368 C2369 1.404 . S
C2368 C2371 1.539 . S
C2369 C2365 1.408 1_655 S
C2369 C2368 1.404 . S
C2369 H2381 0.930 . S
C2370 C2366 1.524 . S
C2370 H2382 0.956 . S
C2370 H2383 0.961 . S
C2370 H2384 0.961 . S
C2371 C2368 1.539 . S
C2371 H2385 0.958 . S
C2371 H2386 0.961 . S
C2371 H2387 0.960 . S
H2372 C2356 0.931 . S
H2373 C2361 0.929 . S
H2374 C2362 0.960 . S
H2375 C2362 0.962 . S
H2376 C2362 0.960 . S
H2377 C2363 0.961 . S
H2378 C2363 0.961 . S
H2379 C2363 0.961 . S
H2380 C2364 0.931 . S
H2381 C2369 0.930 . S
H2382 C2370 0.956 . S
H2383 C2370 0.961 . S
H2384 C2370 0.961 . S
H2385 C2371 0.958 . S
H2386 C2371 0.961 . S
H2387 C2371 0.960 . S
C2388 C2389 1.391 . S
C2388 C2390 1.394 . S
C2388 H2404 0.931 . S
C2389 C2388 1.391 . S
C2389 C2393 1.376 . S
C2390 C2388 1.394 . S
C2390 C2391 1.369 . S
C2390 C2394 1.531 . S
C2391 C2390 1.369 . S
C2391 C2392 1.410 . S
C2391 C2399 1.503 . S
C2392 C2391 1.410 . S
C2392 C2393 1.392 . S
C2392 C2395 1.511 . S
C2393 C2389 1.376 . S
C2393 C2392 1.392 . S
C2393 H2405 0.929 . S
C2394 C2390 1.531 . S
C2394 H2406 0.960 . S
C2394 H2407 0.962 . S
C2394 H2408 0.960 . S
C2395 C2392 1.511 . S
C2395 H2409 0.961 . S
C2395 H2410 0.961 . S
C2395 H2411 0.961 . S
C2396 C2397 1.370 . S
C2396 C2398 1.363 . S
C2396 H2412 0.931 . S
C2397 C2396 1.370 . S
C2397 C2401 1.408 . S
C2398 C2396 1.363 . S
C2398 C2399 1.370 . S
C2398 C2402 1.524 . S
C2399 C2391 1.503 . S
C2399 C2398 1.370 . S
C2399 C2400 1.403 . S
C2400 C2399 1.403 . S
C2400 C2401 1.404 . S
C2400 C2403 1.539 . S
C2401 C2397 1.408 . S
C2401 C2400 1.404 . S
C2401 H2413 0.930 . S
C2402 C2398 1.524 . S
C2402 H2414 0.956 . S
C2402 H2415 0.961 . S
C2402 H2416 0.961 . S
C2403 C2400 1.539 . S
C2403 H2417 0.958 . S
C2403 H2418 0.961 . S
C2403 H2419 0.960 . S
H2404 C2388 0.931 . S
H2405 C2393 0.929 . S
H2406 C2394 0.960 . S
H2407 C2394 0.962 . S
H2408 C2394 0.960 . S
H2409 C2395 0.961 . S
H2410 C2395 0.961 . S
H2411 C2395 0.961 . S
H2412 C2396 0.931 . S
H2413 C2401 0.930 . S
H2414 C2402 0.956 . S
H2415 C2402 0.961 . S
H2416 C2402 0.961 . S
H2417 C2403 0.958 . S
H2418 C2403 0.961 . S
H2419 C2403 0.960 . S
C2420 C2421 1.391 . S
C2420 C2422 1.394 . S
C2420 H2436 0.931 . S
C2421 C2420 1.391 . S
C2421 C2425 1.376 . S
C2422 C2420 1.394 . S
C2422 C2423 1.369 . S
C2422 C2426 1.531 . S
C2423 C2422 1.369 . S
C2423 C2424 1.410 . S
C2423 C2431 1.503 . S
C2424 C2423 1.410 . S
C2424 C2425 1.392 . S
C2424 C2427 1.511 . S
C2425 C2421 1.376 . S
C2425 C2424 1.392 . S
C2425 H2437 0.929 . S
C2426 C2422 1.531 . S
C2426 H2438 0.960 . S
C2426 H2439 0.962 . S
C2426 H2440 0.960 . S
C2427 C2424 1.511 . S
C2427 H2441 0.961 . S
C2427 H2442 0.961 . S
C2427 H2443 0.961 . S
C2428 C2429 1.370 . S
C2428 C2430 1.363 . S
C2428 H2444 0.931 . S
C2429 C2428 1.370 . S
C2429 C2433 1.408 . S
C2430 C2428 1.363 . S
C2430 C2431 1.370 . S
C2430 C2434 1.524 . S
C2431 C2423 1.503 . S
C2431 C2430 1.370 . S
C2431 C2432 1.403 . S
C2432 C2431 1.403 . S
C2432 C2433 1.404 . S
C2432 C2435 1.539 . S
C2433 C2429 1.408 . S
C2433 C2432 1.404 . S
C2433 H2445 0.930 . S
C2434 C2430 1.524 . S
C2434 H2446 0.956 . S
C2434 H2447 0.961 . S
C2434 H2448 0.961 . S
C2435 C2432 1.539 . S
C2435 H2449 0.958 . S
C2435 H2450 0.961 . S
C2435 H2451 0.960 . S
H2436 C2420 0.931 . S
H2437 C2425 0.929 . S
H2438 C2426 0.960 . S
H2439 C2426 0.962 . S
H2440 C2426 0.960 . S
H2441 C2427 0.961 . S
H2442 C2427 0.961 . S
H2443 C2427 0.961 . S
H2444 C2428 0.931 . S
H2445 C2433 0.930 . S
H2446 C2434 0.956 . S
H2447 C2434 0.961 . S
H2448 C2434 0.961 . S
H2449 C2435 0.958 . S
H2450 C2435 0.961 . S
H2451 C2435 0.960 . S
C2452 C2453 1.391 . S
C2452 C2454 1.394 . S
C2452 H2468 0.931 . S
C2453 C2452 1.391 . S
C2453 C2457 1.376 . S
C2454 C2452 1.394 . S
C2454 C2455 1.369 . S
C2454 C2458 1.531 . S
C2455 C2454 1.369 . S
C2455 C2456 1.410 . S
C2455 C2463 1.503 . S
C2456 C2455 1.410 . S
C2456 C2457 1.392 . S
C2456 C2459 1.511 . S
C2457 C2453 1.376 . S
C2457 C2456 1.392 . S
C2457 H2469 0.929 . S
C2458 C2454 1.531 . S
C2458 H2470 0.960 . S
C2458 H2471 0.962 . S
C2458 H2472 0.960 . S
C2459 C2456 1.511 . S
C2459 H2473 0.961 . S
C2459 H2474 0.961 . S
C2459 H2475 0.961 . S
C2460 C2461 1.370 . S
C2460 C2462 1.363 . S
C2460 H2476 0.931 . S
C2461 C2460 1.370 . S
C2461 C2465 1.408 . S
C2462 C2460 1.363 . S
C2462 C2463 1.370 . S
C2462 C2466 1.524 . S
C2463 C2455 1.503 . S
C2463 C2462 1.370 . S
C2463 C2464 1.403 . S
C2464 C2463 1.403 . S
C2464 C2465 1.404 . S
C2464 C2467 1.539 . S
C2465 C2461 1.408 . S
C2465 C2464 1.404 . S
C2465 H2477 0.930 . S
C2466 C2462 1.524 . S
C2466 H2478 0.956 . S
C2466 H2479 0.961 . S
C2466 H2480 0.961 . S
C2467 C2464 1.539 . S
C2467 H2481 0.958 . S
C2467 H2482 0.961 . S
C2467 H2483 0.960 . S
H2468 C2452 0.931 . S
H2469 C2457 0.929 . S
H2470 C2458 0.960 . S
H2471 C2458 0.962 . S
H2472 C2458 0.960 . S
H2473 C2459 0.961 . S
H2474 C2459 0.961 . S
H2475 C2459 0.961 . S
H2476 C2460 0.931 . S
H2477 C2465 0.930 . S
H2478 C2466 0.956 . S
H2479 C2466 0.961 . S
H2480 C2466 0.961 . S
H2481 C2467 0.958 . S
H2482 C2467 0.961 . S
H2483 C2467 0.960 . S
C2484 C2485 1.391 . S
C2484 C2486 1.394 . S
C2484 H2500 0.931 . S
C2485 C2484 1.391 . S
C2485 C2489 1.376 . S
C2486 C2484 1.394 . S
C2486 C2487 1.369 . S
C2486 C2490 1.531 . S
C2487 C2486 1.369 . S
C2487 C2488 1.410 . S
C2487 C2495 1.503 . S
C2488 C2487 1.410 . S
C2488 C2489 1.392 . S
C2488 C2491 1.511 . S
C2489 C2485 1.376 . S
C2489 C2488 1.392 . S
C2489 H2501 0.929 . S
C2490 C2486 1.531 . S
C2490 H2502 0.960 . S
C2490 H2503 0.962 . S
C2490 H2504 0.960 . S
C2491 C2488 1.511 . S
C2491 H2505 0.961 . S
C2491 H2506 0.961 . S
C2491 H2507 0.961 . S
C2492 C2493 1.370 1_554 S
C2492 C2494 1.363 . S
C2492 H2508 0.931 1_554 S
C2493 C2492 1.370 1_556 S
C2493 C2497 1.408 1_556 S
C2494 C2492 1.363 . S
C2494 C2495 1.370 . S
C2494 C2498 1.524 . S
C2495 C2487 1.503 . S
C2495 C2494 1.370 . S
C2495 C2496 1.403 . S
C2496 C2495 1.403 . S
C2496 C2497 1.404 . S
C2496 C2499 1.539 . S
C2497 C2493 1.408 1_554 S
C2497 C2496 1.404 . S
C2497 H2509 0.930 1_554 S
C2498 C2494 1.524 . S
C2498 H2510 0.956 . S
C2498 H2511 0.961 . S
C2498 H2512 0.961 . S
C2499 C2496 1.539 . S
C2499 H2513 0.958 . S
C2499 H2514 0.961 . S
C2499 H2515 0.960 . S
H2500 C2484 0.931 . S
H2501 C2489 0.929 . S
H2502 C2490 0.960 . S
H2503 C2490 0.962 . S
H2504 C2490 0.960 . S
H2505 C2491 0.961 . S
H2506 C2491 0.961 . S
H2507 C2491 0.961 . S
H2508 C2492 0.931 1_556 S
H2509 C2497 0.930 1_556 S
H2510 C2498 0.956 . S
H2511 C2498 0.961 . S
H2512 C2498 0.961 . S
H2513 C2499 0.958 . S
H2514 C2499 0.961 . S
H2515 C2499 0.960 . S
C2516 C2517 1.391 . S
C2516 C2518 1.394 . S
C2516 H2532 0.931 . S
C2517 C2516 1.391 . S
C2517 C2521 1.376 . S
C2518 C2516 1.394 . S
C2518 C2519 1.369 . S
C2518 C2522 1.531 . S
C2519 C2518 1.369 . S
C2519 C2520 1.410 . S
C2519 C2527 1.503 . S
C2520 C2519 1.410 . S
C2520 C2521 1.392 . S
C2520 C2523 1.511 . S
C2521 C2517 1.376 . S
C2521 C2520 1.392 . S
C2521 H2533 0.929 . S
C2522 C2518 1.531 . S
C2522 H2534 0.960 . S
C2522 H2535 0.962 . S
C2522 H2536 0.960 . S
C2523 C2520 1.511 . S
C2523 H2537 0.961 . S
C2523 H2538 0.961 . S
C2523 H2539 0.961 . S
C2524 C2525 1.370 1_554 S
C2524 C2526 1.363 . S
C2524 H2540 0.931 1_554 S
C2525 C2524 1.370 1_556 S
C2525 C2529 1.408 1_556 S
C2526 C2524 1.363 . S
C2526 C2527 1.370 . S
C2526 C2530 1.524 . S
C2527 C2519 1.503 . S
C2527 C2526 1.370 . S
C2527 C2528 1.403 . S
C2528 C2527 1.403 . S
C2528 C2529 1.404 . S
C2528 C2531 1.539 . S
C2529 C2525 1.408 1_554 S
C2529 C2528 1.404 . S
C2529 H2541 0.930 1_554 S
C2530 C2526 1.524 . S
C2530 H2542 0.956 . S
C2530 H2543 0.961 . S
C2530 H2544 0.961 . S
C2531 C2528 1.539 . S
C2531 H2545 0.958 . S
C2531 H2546 0.961 . S
C2531 H2547 0.960 . S
H2532 C2516 0.931 . S
H2533 C2521 0.929 . S
H2534 C2522 0.960 . S
H2535 C2522 0.962 . S
H2536 C2522 0.960 . S
H2537 C2523 0.961 . S
H2538 C2523 0.961 . S
H2539 C2523 0.961 . S
H2540 C2524 0.931 1_556 S
H2541 C2529 0.930 1_556 S
H2542 C2530 0.956 . S
H2543 C2530 0.961 . S
H2544 C2530 0.961 . S
H2545 C2531 0.958 . S
H2546 C2531 0.961 . S
H2547 C2531 0.960 . S
C2548 C2549 1.391 . S
C2548 C2550 1.394 . S
C2548 H2564 0.931 . S
C2549 C2548 1.391 . S
C2549 C2553 1.376 . S
C2550 C2548 1.394 . S
C2550 C2551 1.369 . S
C2550 C2554 1.531 . S
C2551 C2550 1.369 . S
C2551 C2552 1.410 . S
C2551 C2559 1.503 . S
C2552 C2551 1.410 . S
C2552 C2553 1.392 . S
C2552 C2555 1.511 . S
C2553 C2549 1.376 . S
C2553 C2552 1.392 . S
C2553 H2565 0.929 . S
C2554 C2550 1.531 . S
C2554 H2566 0.960 . S
C2554 H2567 0.962 . S
C2554 H2568 0.960 . S
C2555 C2552 1.511 . S
C2555 H2569 0.961 . S
C2555 H2570 0.961 . S
C2555 H2571 0.961 . S
C2556 C2557 1.370 1_554 S
C2556 C2558 1.363 . S
C2556 H2572 0.931 1_554 S
C2557 C2556 1.370 1_556 S
C2557 C2561 1.408 1_556 S
C2558 C2556 1.363 . S
C2558 C2559 1.370 . S
C2558 C2562 1.524 . S
C2559 C2551 1.503 . S
C2559 C2558 1.370 . S
C2559 C2560 1.403 . S
C2560 C2559 1.403 . S
C2560 C2561 1.404 . S
C2560 C2563 1.539 . S
C2561 C2557 1.408 1_554 S
C2561 C2560 1.404 . S
C2561 H2573 0.930 1_554 S
C2562 C2558 1.524 . S
C2562 H2574 0.956 . S
C2562 H2575 0.961 . S
C2562 H2576 0.961 . S
C2563 C2560 1.539 . S
C2563 H2577 0.958 . S
C2563 H2578 0.961 . S
C2563 H2579 0.960 . S
H2564 C2548 0.931 . S
H2565 C2553 0.929 . S
H2566 C2554 0.960 . S
H2567 C2554 0.962 . S
H2568 C2554 0.960 . S
H2569 C2555 0.961 . S
H2570 C2555 0.961 . S
H2571 C2555 0.961 . S
H2572 C2556 0.931 1_556 S
H2573 C2561 0.930 1_556 S
H2574 C2562 0.956 . S
H2575 C2562 0.961 . S
H2576 C2562 0.961 . S
H2577 C2563 0.958 . S
H2578 C2563 0.961 . S
H2579 C2563 0.960 . S
C2580 C2581 1.391 1_556 S
C2580 C2582 1.394 . S
C2580 H2596 0.931 . S
C2581 C2580 1.391 1_554 S
C2581 C2585 1.376 1_554 S
C2582 C2580 1.394 . S
C2582 C2583 1.369 . S
C2582 C2586 1.531 . S
C2583 C2582 1.369 . S
C2583 C2584 1.410 . S
C2583 C2591 1.503 . S
C2584 C2583 1.410 . S
C2584 C2585 1.392 . S
C2584 C2587 1.511 . S
C2585 C2581 1.376 1_556 S
C2585 C2584 1.392 . S
C2585 H2597 0.929 1_556 S
C2586 C2582 1.531 . S
C2586 H2598 0.960 . S
C2586 H2599 0.962 . S
C2586 H2600 0.960 . S
C2587 C2584 1.511 . S
C2587 H2601 0.961 . S
C2587 H2602 0.961 . S
C2587 H2603 0.961 . S
C2588 C2589 1.370 . S
C2588 C2590 1.363 . S
C2588 H2604 0.931 . S
C2589 C2588 1.370 . S
C2589 C2593 1.408 . S
C2590 C2588 1.363 . S
C2590 C2591 1.370 . S
C2590 C2594 1.524 . S
C2591 C2583 1.503 . S
C2591 C2590 1.370 . S
C2591 C2592 1.403 . S
C2592 C2591 1.403 . S
C2592 C2593 1.404 . S
C2592 C2595 1.539 . S
C2593 C2589 1.408 . S
C2593 C2592 1.404 . S
C2593 H2605 0.930 . S
C2594 C2590 1.524 . S
C2594 H2606 0.956 . S
C2594 H2607 0.961 . S
C2594 H2608 0.961 . S
C2595 C2592 1.539 . S
C2595 H2609 0.958 . S
C2595 H2610 0.961 . S
C2595 H2611 0.960 . S
H2596 C2580 0.931 . S
H2597 C2585 0.929 1_554 S
H2598 C2586 0.960 . S
H2599 C2586 0.962 . S
H2600 C2586 0.960 . S
H2601 C2587 0.961 . S
H2602 C2587 0.961 . S
H2603 C2587 0.961 . S
H2604 C2588 0.931 . S
H2605 C2593 0.930 . S
H2606 C2594 0.956 . S
H2607 C2594 0.961 . S
H2608 C2594 0.961 . S
H2609 C2595 0.958 . S
H2610 C2595 0.961 . S
H2611 C2595 0.960 . S
C2612 C2613 1.381 1_556 S
C2612 C2614 1.422 . S
C2612 H2628 0.913 1_556 S
C2613 C2612 1.381 1_554 S
C2613 C2617 1.376 1_554 S
C2614 C2612 1.422 . S
C2614 C2615 1.369 . S
C2614 C2618 1.531 . S
C2615 C2614 1.369 . S
C2615 C2616 1.410 . S
C2615 C2623 1.503 . S
C2616 C2615 1.410 . S
C2616 C2617 1.392 . S
C2616 C2619 1.511 . S
C2617 C2613 1.376 1_556 S
C2617 C2616 1.392 . S
C2617 H2629 0.929 . S
C2618 C2614 1.531 . S
C2618 H2630 0.960 . S
C2618 H2631 0.962 . S
C2618 H2632 0.960 . S
C2619 C2616 1.511 . S
C2619 H2633 0.961 . S
C2619 H2634 0.961 . S
C2619 H2635 0.961 . S
C2620 C2621 1.370 . S
C2620 C2622 1.363 . S
C2620 H2636 0.931 . S
C2621 C2620 1.370 . S
C2621 C2625 1.408 . S
C2622 C2620 1.363 . S
C2622 C2623 1.370 . S
C2622 C2626 1.524 . S
C2623 C2615 1.503 . S
C2623 C2622 1.370 . S
C2623 C2624 1.403 . S
C2624 C2623 1.403 . S
C2624 C2625 1.404 . S
C2624 C2627 1.539 . S
C2625 C2621 1.408 . S
C2625 C2624 1.404 . S
C2625 H2637 0.930 . S
C2626 C2622 1.524 . S
C2626 H2638 0.956 . S
C2626 H2639 0.961 . S
C2626 H2640 0.961 . S
C2627 C2624 1.539 . S
C2627 H2641 0.958 . S
C2627 H2642 0.961 . S
C2627 H2643 0.960 . S
H2628 C2612 0.913 1_554 S
H2629 C2617 0.929 . S
H2630 C2618 0.960 . S
H2631 C2618 0.962 . S
H2632 C2618 0.960 . S
H2633 C2619 0.961 . S
H2634 C2619 0.961 . S
H2635 C2619 0.961 . S
H2636 C2620 0.931 . S
H2637 C2625 0.930 . S
H2638 C2626 0.956 . S
H2639 C2626 0.961 . S
H2640 C2626 0.961 . S
H2641 C2627 0.958 . S
H2642 C2627 0.961 . S
H2643 C2627 0.960 . S
C2644 C2645 1.391 1_556 S
C2644 C2646 1.394 . S
C2644 H2660 0.931 1_556 S
C2645 C2644 1.391 1_554 S
C2645 C2649 1.376 1_554 S
C2646 C2644 1.394 . S
C2646 C2647 1.369 . S
C2646 C2650 1.531 . S
C2647 C2646 1.369 . S
C2647 C2648 1.410 . S
C2647 C2655 1.503 . S
C2648 C2647 1.410 . S
C2648 C2649 1.392 . S
C2648 C2651 1.511 . S
C2649 C2645 1.376 1_556 S
C2649 C2648 1.392 . S
C2649 H2661 0.929 1_556 S
C2650 C2646 1.531 . S
C2650 H2662 0.960 . S
C2650 H2663 0.962 . S
C2650 H2664 0.960 . S
C2651 C2648 1.511 . S
C2651 H2665 0.961 . S
C2651 H2666 0.961 . S
C2651 H2667 0.961 . S
C2652 C2653 1.370 . S
C2652 C2654 1.363 . S
C2652 H2668 0.931 . S
C2653 C2652 1.370 . S
C2653 C2657 1.408 . S
C2654 C2652 1.363 . S
C2654 C2655 1.370 . S
C2654 C2658 1.524 . S
C2655 C2647 1.503 . S
C2655 C2654 1.370 . S
C2655 C2656 1.403 . S
C2656 C2655 1.403 . S
C2656 C2657 1.404 . S
C2656 C2659 1.539 . S
C2657 C2653 1.408 . S
C2657 C2656 1.404 . S
C2657 H2669 0.930 . S
C2658 C2654 1.524 . S
C2658 H2670 0.956 . S
C2658 H2671 0.961 . S
C2658 H2672 0.961 . S
C2659 C2656 1.539 . S
C2659 H2673 0.958 . S
C2659 H2674 0.961 . S
C2659 H2675 0.960 . S
H2660 C2644 0.931 1_554 S
H2661 C2649 0.929 1_554 S
H2662 C2650 0.960 . S
H2663 C2650 0.962 . S
H2664 C2650 0.960 . S
H2665 C2651 0.961 . S
H2666 C2651 0.961 . S
H2667 C2651 0.961 . S
H2668 C2652 0.931 . S
H2669 C2657 0.930 . S
H2670 C2658 0.956 . S
H2671 C2658 0.961 . S
H2672 C2658 0.961 . S
H2673 C2659 0.958 . S
H2674 C2659 0.961 . S
H2675 C2659 0.960 . S
C2676 C2677 1.391 . S
C2676 C2678 1.394 . S
C2676 H2692 0.931 . S
C2677 C2676 1.391 . S
C2677 C2681 1.376 . S
C2678 C2676 1.394 . S
C2678 C2679 1.369 . S
C2678 C2682 1.531 . S
C2679 C2678 1.369 . S
C2679 C2680 1.410 . S
C2679 C2687 1.503 . S
C2680 C2679 1.410 . S
C2680 C2681 1.392 . S
C2680 C2683 1.511 . S
C2681 C2677 1.376 . S
C2681 C2680 1.392 . S
C2681 H2693 0.929 . S
C2682 C2678 1.531 . S
C2682 H2694 0.960 . S
C2682 H2695 0.962 . S
C2682 H2696 0.960 . S
C2683 C2680 1.511 . S
C2683 H2697 0.961 . S
C2683 H2698 0.961 . S
C2683 H2699 0.961 . S
C2684 C2685 1.370 . S
C2684 C2686 1.363 . S
C2684 H2700 0.931 . S
C2685 C2684 1.370 . S
C2685 C2689 1.408 . S
C2686 C2684 1.363 . S
C2686 C2687 1.370 . S
C2686 C2690 1.524 . S
C2687 C2679 1.503 . S
C2687 C2686 1.370 . S
C2687 C2688 1.403 . S
C2688 C2687 1.403 . S
C2688 C2689 1.404 . S
C2688 C2691 1.539 . S
C2689 C2685 1.408 . S
C2689 C2688 1.404 . S
C2689 H2701 0.930 . S
C2690 C2686 1.524 . S
C2690 H2702 0.956 . S
C2690 H2703 0.961 . S
C2690 H2704 0.961 . S
C2691 C2688 1.539 . S
C2691 H2705 0.958 . S
C2691 H2706 0.961 . S
C2691 H2707 0.960 . S
H2692 C2676 0.931 . S
H2693 C2681 0.929 . S
H2694 C2682 0.960 . S
H2695 C2682 0.962 . S
H2696 C2682 0.960 . S
H2697 C2683 0.961 . S
H2698 C2683 0.961 . S
H2699 C2683 0.961 . S
H2700 C2684 0.931 . S
H2701 C2689 0.930 . S
H2702 C2690 0.956 . S
H2703 C2690 0.961 . S
H2704 C2690 0.961 . S
H2705 C2691 0.958 . S
H2706 C2691 0.961 . S
H2707 C2691 0.960 . S
C2708 C2709 1.391 . S
C2708 C2710 1.394 . S
C2708 H2724 0.931 . S
C2709 C2708 1.391 . S
C2709 C2713 1.376 . S
C2710 C2708 1.394 . S
C2710 C2711 1.369 . S
C2710 C2714 1.531 . S
C2711 C2710 1.369 . S
C2711 C2712 1.410 . S
C2711 C2719 1.503 . S
C2712 C2711 1.410 . S
C2712 C2713 1.392 . S
C2712 C2715 1.511 . S
C2713 C2709 1.376 . S
C2713 C2712 1.392 . S
C2713 H2725 0.929 . S
C2714 C2710 1.531 . S
C2714 H2726 0.960 . S
C2714 H2727 0.962 . S
C2714 H2728 0.960 . S
C2715 C2712 1.511 . S
C2715 H2729 0.961 . S
C2715 H2730 0.961 . S
C2715 H2731 0.961 . S
C2716 C2717 1.370 . S
C2716 C2718 1.363 . S
C2716 H2732 0.931 . S
C2717 C2716 1.370 . S
C2717 C2721 1.408 . S
C2718 C2716 1.363 . S
C2718 C2719 1.370 . S
C2718 C2722 1.524 . S
C2719 C2711 1.503 . S
C2719 C2718 1.370 . S
C2719 C2720 1.403 . S
C2720 C2719 1.403 . S
C2720 C2721 1.404 . S
C2720 C2723 1.539 . S
C2721 C2717 1.408 . S
C2721 C2720 1.404 . S
C2721 H2733 0.930 . S
C2722 C2718 1.524 . S
C2722 H2734 0.956 . S
C2722 H2735 0.961 . S
C2722 H2736 0.961 . S
C2723 C2720 1.539 . S
C2723 H2737 0.958 . S
C2723 H2738 0.961 . S
C2723 H2739 0.960 . S
H2724 C2708 0.931 . S
H2725 C2713 0.929 . S
H2726 C2714 0.960 . S
H2727 C2714 0.962 . S
H2728 C2714 0.960 . S
H2729 C2715 0.961 . S
H2730 C2715 0.961 . S
H2731 C2715 0.961 . S
H2732 C2716 0.931 . S
H2733 C2721 0.930 . S
H2734 C2722 0.956 . S
H2735 C2722 0.961 . S
H2736 C2722 0.961 . S
H2737 C2723 0.958 . S
H2738 C2723 0.961 . S
H2739 C2723 0.960 . S
C2740 C2741 1.391 . S
C2740 C2742 1.394 . S
C2740 H2756 0.931 . S
C2741 C2740 1.391 . S
C2741 C2745 1.376 . S
C2742 C2740 1.394 . S
C2742 C2743 1.369 . S
C2742 C2746 1.531 . S
C2743 C2742 1.369 . S
C2743 C2744 1.410 . S
C2743 C2751 1.503 . S
C2744 C2743 1.410 . S
C2744 C2745 1.392 . S
C2744 C2747 1.511 . S
C2745 C2741 1.376 . S
C2745 C2744 1.392 . S
C2745 H2757 0.929 . S
C2746 C2742 1.531 . S
C2746 H2758 0.960 . S
C2746 H2759 0.962 . S
C2746 H2760 0.960 . S
C2747 C2744 1.511 . S
C2747 H2761 0.961 . S
C2747 H2762 0.961 . S
C2747 H2763 0.961 . S
C2748 C2749 1.370 . S
C2748 C2750 1.363 . S
C2748 H2764 0.931 . S
C2749 C2748 1.370 . S
C2749 C2753 1.408 . S
C2750 C2748 1.363 . S
C2750 C2751 1.370 . S
C2750 C2754 1.524 . S
C2751 C2743 1.503 . S
C2751 C2750 1.370 . S
C2751 C2752 1.403 . S
C2752 C2751 1.403 . S
C2752 C2753 1.404 . S
C2752 C2755 1.539 . S
C2753 C2749 1.408 . S
C2753 C2752 1.404 . S
C2753 H2765 0.930 . S
C2754 C2750 1.524 . S
C2754 H2766 0.956 . S
C2754 H2767 0.961 . S
C2754 H2768 0.961 . S
C2755 C2752 1.539 . S
C2755 H2769 0.958 . S
C2755 H2770 0.961 . S
C2755 H2771 0.960 . S
H2756 C2740 0.931 . S
H2757 C2745 0.929 . S
H2758 C2746 0.960 . S
H2759 C2746 0.962 . S
H2760 C2746 0.960 . S
H2761 C2747 0.961 . S
H2762 C2747 0.961 . S
H2763 C2747 0.961 . S
H2764 C2748 0.931 . S
H2765 C2753 0.930 . S
H2766 C2754 0.956 . S
H2767 C2754 0.961 . S
H2768 C2754 0.961 . S
H2769 C2755 0.958 . S
H2770 C2755 0.961 . S
H2771 C2755 0.960 . S
C469 C208 1.316 . S
C477 C0 1.326 . S
C501 C221 1.309 . S
C509 C13 1.318 . S
C533 C26 1.294 . S
C541 C195 1.329 . S
C565 C338 1.336 . S
C573 C39 1.317 . S
C597 C312 1.339 . S
C605 C52 1.310 . S
C629 C65 1.302 . S
C637 C325 1.329 . S
C661 C442 1.330 . S
C669 C78 1.313 . S
C693 C455 1.335 . S
C701 C91 1.315 . S
C725 C429 1.311 . S
C733 C104 1.325 . S
C757 C260 1.293 . S
C765 C117 1.329 . S
C789 C130 1.337 . S
C797 C234 1.313 . S
C821 C247 1.310 . S
C829 C143 1.320 . S
C853 C364 1.296 . S
C861 C156 1.325 . S
C885 C169 1.294 . S
C893 C377 1.327 . S
C917 C351 1.300 . S
C925 C182 1.330 . S
C949 C416 1.315 . S
C957 C273 1.318 . S
C981 C390 1.297 . S
C989 C286 1.329 . S
C1013 C299 1.315 . S
C1021 C403 1.324 . S
C1045 C101 1.300 . S
C1053 C8 1.326 . S
C1077 C114 1.325 . S
C1085 C21 1.306 . S
C1109 C88 1.293 . S
C1117 C34 1.316 . S
C1141 C47 1.290 . S
C1149 C153 1.318 . S
C1173 C127 1.337 . S
C1181 C60 1.318 . S
C1205 C73 1.326 . S
C1213 C140 1.325 . S
C1237 C23 1.299 . S
C1245 C86 1.327 . S
C1269 C99 1.330 . S
C1277 C36 1.309 . S
C1301 C10 1.333 . S
C1309 C112 1.318 . S
C1333 C75 1.292 . S
C1341 C125 1.324 . S
C1365 C49 1.295 . S
C1373 C138 1.317 . S
C1397 C151 1.295 . S
C1405 C62 1.317 . S
C1429 C164 1.291 . S
C1437 C257 1.317 . S
C1461 C270 1.304 . S
C1469 C177 1.326 . S
C1493 C244 1.292 . S
C1501 C190 1.318 . S
C1525 C203 1.289 . S
C1533 C309 1.319 . S
C1557 C283 1.310 . S
C1565 C216 1.327 . S
C1589 C229 1.316 . S
C1597 C296 1.328 . S
C1621 C242 1.337 . S
C1629 C179 1.311 . S
C1653 C255 1.317 . S
C1661 C192 1.310 . S
C1685 C166 1.293 . S
C1693 C268 1.325 . S
C1717 C231 1.325 . S
C1725 C281 1.322 . S
C1749 C205 1.320 . S
C1757 C294 1.324 . S
C1781 C307 1.292 . S
C1789 C218 1.319 . S
C1813 C413 1.302 . S
C1821 C320 1.326 . S
C1845 C333 1.292 . S
C1853 C426 1.316 . S
C1877 C346 1.304 . S
C1885 C400 1.311 . S
C1909 C465 1.326 . S
C1917 C359 1.307 . S
C1941 C372 1.289 . S
C1949 C439 1.319 . S
C1973 C452 1.314 . S
C1981 C385 1.327 . S
C2005 C335 1.338 . S
C2013 C398 1.310 . S
C2037 C348 1.317 . S
C2045 C411 1.308 . S
C2069 C424 1.327 . S
C2077 C322 1.322 . S
C2101 C437 1.300 . S
C2109 C387 1.315 . S
C2133 C361 1.309 . S
C2141 C450 1.310 . S
C2165 C374 1.322 . S
C2173 C463 1.323 . S
C2197 C5 1.329 . S
C2205 C44 1.325 . S
C2229 C18 1.303 . S
C2237 C57 1.331 . S
C2261 C70 1.321 . S
C2269 C31 1.345 . S
C2293 C83 1.305 . S
C2301 C122 1.330 . S
C2325 C135 1.338 . S
C2333 C96 1.325 . S
C2357 C148 1.333 . S
C2365 C109 1.324 . S
C2389 C161 1.320 . S
C2397 C200 1.324 . S
C2421 C174 1.362 . S
C2429 C213 1.338 . S
C2453 C226 1.340 . S
C2461 C187 1.327 . S
C2485 C239 1.308 . S
C2493 C278 1.328 . S
C2517 C252 1.328 . S
C2525 C291 1.349 . S
C2549 C265 1.303 . S
C2557 C304 1.336 . S
C2581 C356 1.360 . S
C2589 C317 1.348 . S
C2613 C369 1.304 . S
C2621 C330 1.328 . S
C2645 C382 1.343 . S
C2653 C343 1.328 . S
C2677 C395 1.363 . S
C2685 C434 1.341 . S
C2709 C447 1.360 . S
C2717 C408 1.333 . S
C2741 C460 1.364 . S
C2749 C421 1.338 . S
