# Generated by pormake.
# Topology uli, (4)-cn, num edge types: 1
# Building blocks:
#     Node 0, Type 0, BuildingBlock: TATPOV_clean_sbu_0, # of connection points: 4
#     Node 1, Type 0, BuildingBlock: TATPOV_clean_sbu_0, # of connection points: 4
#     Node 2, Type 0, BuildingBlock: TATPOV_clean_sbu_0, # of connection points: 4
#     Node 3, Type 0, BuildingBlock: TATPOV_clean_sbu_0, # of connection points: 4
#     Node 4, Type 0, BuildingBlock: TATPOV_clean_sbu_0, # of connection points: 4
#     Node 5, Type 0, BuildingBlock: TATPOV_clean_sbu_0, # of connection points: 4
#     Node 6, Type 0, BuildingBlock: TATPOV_clean_sbu_0, # of connection points: 4
#     Node 7, Type 0, BuildingBlock: TATPOV_clean_sbu_0, # of connection points: 4
#     Node 8, Type 0, BuildingBlock: TATPOV_clean_sbu_0, # of connection points: 4
#     Node 9, Type 0, BuildingBlock: TATPOV_clean_sbu_0, # of connection points: 4
#     Node 10, Type 0, BuildingBlock: TATPOV_clean_sbu_0, # of connection points: 4
#     Node 11, Type 0, BuildingBlock: TATPOV_clean_sbu_0, # of connection points: 4
#     Node 12, Type 0, BuildingBlock: TATPOV_clean_sbu_0, # of connection points: 4
#     Node 13, Type 0, BuildingBlock: TATPOV_clean_sbu_0, # of connection points: 4
#     Node 14, Type 0, BuildingBlock: TATPOV_clean_sbu_0, # of connection points: 4
#     Node 15, Type 0, BuildingBlock: TATPOV_clean_sbu_0, # of connection points: 4
#     Node 16, Type 0, BuildingBlock: TATPOV_clean_sbu_0, # of connection points: 4
#     Node 17, Type 0, BuildingBlock: TATPOV_clean_sbu_0, # of connection points: 4
#     Node 18, Type 0, BuildingBlock: TATPOV_clean_sbu_0, # of connection points: 4
#     Node 19, Type 0, BuildingBlock: TATPOV_clean_sbu_0, # of connection points: 4
#     Node 20, Type 0, BuildingBlock: TATPOV_clean_sbu_0, # of connection points: 4
#     Node 21, Type 0, BuildingBlock: TATPOV_clean_sbu_0, # of connection points: 4
#     Node 22, Type 0, BuildingBlock: TATPOV_clean_sbu_0, # of connection points: 4
#     Node 23, Type 0, BuildingBlock: TATPOV_clean_sbu_0, # of connection points: 4
#     Node 24, Type 0, BuildingBlock: TATPOV_clean_sbu_0, # of connection points: 4
#     Node 25, Type 0, BuildingBlock: TATPOV_clean_sbu_0, # of connection points: 4
#     Node 26, Type 0, BuildingBlock: TATPOV_clean_sbu_0, # of connection points: 4
#     Node 27, Type 0, BuildingBlock: TATPOV_clean_sbu_0, # of connection points: 4
#     Node 28, Type 0, BuildingBlock: TATPOV_clean_sbu_0, # of connection points: 4
#     Node 29, Type 0, BuildingBlock: TATPOV_clean_sbu_0, # of connection points: 4
#     Node 30, Type 0, BuildingBlock: TATPOV_clean_sbu_0, # of connection points: 4
#     Node 31, Type 0, BuildingBlock: TATPOV_clean_sbu_0, # of connection points: 4
#     Node 32, Type 0, BuildingBlock: TATPOV_clean_sbu_0, # of connection points: 4
#     Node 33, Type 0, BuildingBlock: TATPOV_clean_sbu_0, # of connection points: 4
#     Node 34, Type 0, BuildingBlock: TATPOV_clean_sbu_0, # of connection points: 4
#     Node 35, Type 0, BuildingBlock: TATPOV_clean_sbu_0, # of connection points: 4
#     Node 36, Type 0, BuildingBlock: TATPOV_clean_sbu_0, # of connection points: 4
#     Node 37, Type 0, BuildingBlock: TATPOV_clean_sbu_0, # of connection points: 4
#     Node 38, Type 0, BuildingBlock: TATPOV_clean_sbu_0, # of connection points: 4
#     Node 39, Type 0, BuildingBlock: TATPOV_clean_sbu_0, # of connection points: 4
#     Node 40, Type 0, BuildingBlock: TATPOV_clean_sbu_0, # of connection points: 4
#     Node 41, Type 0, BuildingBlock: TATPOV_clean_sbu_0, # of connection points: 4
#     Node 42, Type 0, BuildingBlock: TATPOV_clean_sbu_0, # of connection points: 4
#     Node 43, Type 0, BuildingBlock: TATPOV_clean_sbu_0, # of connection points: 4
#     Node 44, Type 0, BuildingBlock: TATPOV_clean_sbu_0, # of connection points: 4
#     Node 45, Type 0, BuildingBlock: TATPOV_clean_sbu_0, # of connection points: 4
#     Node 46, Type 0, BuildingBlock: TATPOV_clean_sbu_0, # of connection points: 4
#     Node 47, Type 0, BuildingBlock: TATPOV_clean_sbu_0, # of connection points: 4
#     Edge 48, Type (0, 0), BuildingBlock: EZIPEK_clean_linker_0, # of connection points: 2
#     Edge 49, Type (0, 0), BuildingBlock: EZIPEK_clean_linker_0, # of connection points: 2
#     Edge 50, Type (0, 0), BuildingBlock: EZIPEK_clean_linker_0, # of connection points: 2
#     Edge 51, Type (0, 0), BuildingBlock: EZIPEK_clean_linker_0, # of connection points: 2
#     Edge 52, Type (0, 0), BuildingBlock: EZIPEK_clean_linker_0, # of connection points: 2
#     Edge 53, Type (0, 0), BuildingBlock: EZIPEK_clean_linker_0, # of connection points: 2
#     Edge 54, Type (0, 0), BuildingBlock: EZIPEK_clean_linker_0, # of connection points: 2
#     Edge 55, Type (0, 0), BuildingBlock: EZIPEK_clean_linker_0, # of connection points: 2
#     Edge 56, Type (0, 0), BuildingBlock: EZIPEK_clean_linker_0, # of connection points: 2
#     Edge 57, Type (0, 0), BuildingBlock: EZIPEK_clean_linker_0, # of connection points: 2
#     Edge 58, Type (0, 0), BuildingBlock: EZIPEK_clean_linker_0, # of connection points: 2
#     Edge 59, Type (0, 0), BuildingBlock: EZIPEK_clean_linker_0, # of connection points: 2
#     Edge 60, Type (0, 0), BuildingBlock: EZIPEK_clean_linker_0, # of connection points: 2
#     Edge 61, Type (0, 0), BuildingBlock: EZIPEK_clean_linker_0, # of connection points: 2
#     Edge 62, Type (0, 0), BuildingBlock: EZIPEK_clean_linker_0, # of connection points: 2
#     Edge 63, Type (0, 0), BuildingBlock: EZIPEK_clean_linker_0, # of connection points: 2
#     Edge 64, Type (0, 0), BuildingBlock: EZIPEK_clean_linker_0, # of connection points: 2
#     Edge 65, Type (0, 0), BuildingBlock: EZIPEK_clean_linker_0, # of connection points: 2
#     Edge 66, Type (0, 0), BuildingBlock: EZIPEK_clean_linker_0, # of connection points: 2
#     Edge 67, Type (0, 0), BuildingBlock: EZIPEK_clean_linker_0, # of connection points: 2
#     Edge 68, Type (0, 0), BuildingBlock: EZIPEK_clean_linker_0, # of connection points: 2
#     Edge 69, Type (0, 0), BuildingBlock: EZIPEK_clean_linker_0, # of connection points: 2
#     Edge 70, Type (0, 0), BuildingBlock: EZIPEK_clean_linker_0, # of connection points: 2
#     Edge 71, Type (0, 0), BuildingBlock: EZIPEK_clean_linker_0, # of connection points: 2
#     Edge 72, Type (0, 0), BuildingBlock: EZIPEK_clean_linker_0, # of connection points: 2
#     Edge 73, Type (0, 0), BuildingBlock: EZIPEK_clean_linker_0, # of connection points: 2
#     Edge 74, Type (0, 0), BuildingBlock: EZIPEK_clean_linker_0, # of connection points: 2
#     Edge 75, Type (0, 0), BuildingBlock: EZIPEK_clean_linker_0, # of connection points: 2
#     Edge 76, Type (0, 0), BuildingBlock: EZIPEK_clean_linker_0, # of connection points: 2
#     Edge 77, Type (0, 0), BuildingBlock: EZIPEK_clean_linker_0, # of connection points: 2
#     Edge 78, Type (0, 0), BuildingBlock: EZIPEK_clean_linker_0, # of connection points: 2
#     Edge 79, Type (0, 0), BuildingBlock: EZIPEK_clean_linker_0, # of connection points: 2
#     Edge 80, Type (0, 0), BuildingBlock: EZIPEK_clean_linker_0, # of connection points: 2
#     Edge 81, Type (0, 0), BuildingBlock: EZIPEK_clean_linker_0, # of connection points: 2
#     Edge 82, Type (0, 0), BuildingBlock: EZIPEK_clean_linker_0, # of connection points: 2
#     Edge 83, Type (0, 0), BuildingBlock: EZIPEK_clean_linker_0, # of connection points: 2
#     Edge 84, Type (0, 0), BuildingBlock: EZIPEK_clean_linker_0, # of connection points: 2
#     Edge 85, Type (0, 0), BuildingBlock: EZIPEK_clean_linker_0, # of connection points: 2
#     Edge 86, Type (0, 0), BuildingBlock: EZIPEK_clean_linker_0, # of connection points: 2
#     Edge 87, Type (0, 0), BuildingBlock: EZIPEK_clean_linker_0, # of connection points: 2
#     Edge 88, Type (0, 0), BuildingBlock: EZIPEK_clean_linker_0, # of connection points: 2
#     Edge 89, Type (0, 0), BuildingBlock: EZIPEK_clean_linker_0, # of connection points: 2
#     Edge 90, Type (0, 0), BuildingBlock: EZIPEK_clean_linker_0, # of connection points: 2
#     Edge 91, Type (0, 0), BuildingBlock: EZIPEK_clean_linker_0, # of connection points: 2
#     Edge 92, Type (0, 0), BuildingBlock: EZIPEK_clean_linker_0, # of connection points: 2
#     Edge 93, Type (0, 0), BuildingBlock: EZIPEK_clean_linker_0, # of connection points: 2
#     Edge 94, Type (0, 0), BuildingBlock: EZIPEK_clean_linker_0, # of connection points: 2
#     Edge 95, Type (0, 0), BuildingBlock: EZIPEK_clean_linker_0, # of connection points: 2
#     Edge 96, Type (0, 0), BuildingBlock: EZIPEK_clean_linker_0, # of connection points: 2
#     Edge 97, Type (0, 0), BuildingBlock: EZIPEK_clean_linker_0, # of connection points: 2
#     Edge 98, Type (0, 0), BuildingBlock: EZIPEK_clean_linker_0, # of connection points: 2
#     Edge 99, Type (0, 0), BuildingBlock: EZIPEK_clean_linker_0, # of connection points: 2
#     Edge 100, Type (0, 0), BuildingBlock: EZIPEK_clean_linker_0, # of connection points: 2
#     Edge 101, Type (0, 0), BuildingBlock: EZIPEK_clean_linker_0, # of connection points: 2
#     Edge 102, Type (0, 0), BuildingBlock: EZIPEK_clean_linker_0, # of connection points: 2
#     Edge 103, Type (0, 0), BuildingBlock: EZIPEK_clean_linker_0, # of connection points: 2
#     Edge 104, Type (0, 0), BuildingBlock: EZIPEK_clean_linker_0, # of connection points: 2
#     Edge 105, Type (0, 0), BuildingBlock: EZIPEK_clean_linker_0, # of connection points: 2
#     Edge 106, Type (0, 0), BuildingBlock: EZIPEK_clean_linker_0, # of connection points: 2
#     Edge 107, Type (0, 0), BuildingBlock: EZIPEK_clean_linker_0, # of connection points: 2
#     Edge 108, Type (0, 0), BuildingBlock: EZIPEK_clean_linker_0, # of connection points: 2
#     Edge 109, Type (0, 0), BuildingBlock: EZIPEK_clean_linker_0, # of connection points: 2
#     Edge 110, Type (0, 0), BuildingBlock: EZIPEK_clean_linker_0, # of connection points: 2
#     Edge 111, Type (0, 0), BuildingBlock: EZIPEK_clean_linker_0, # of connection points: 2
#     Edge 112, Type (0, 0), BuildingBlock: EZIPEK_clean_linker_0, # of connection points: 2
#     Edge 113, Type (0, 0), BuildingBlock: EZIPEK_clean_linker_0, # of connection points: 2
#     Edge 114, Type (0, 0), BuildingBlock: EZIPEK_clean_linker_0, # of connection points: 2
#     Edge 115, Type (0, 0), BuildingBlock: EZIPEK_clean_linker_0, # of connection points: 2
#     Edge 116, Type (0, 0), BuildingBlock: EZIPEK_clean_linker_0, # of connection points: 2
#     Edge 117, Type (0, 0), BuildingBlock: EZIPEK_clean_linker_0, # of connection points: 2
#     Edge 118, Type (0, 0), BuildingBlock: EZIPEK_clean_linker_0, # of connection points: 2
#     Edge 119, Type (0, 0), BuildingBlock: EZIPEK_clean_linker_0, # of connection points: 2
#     Edge 120, Type (0, 0), BuildingBlock: EZIPEK_clean_linker_0, # of connection points: 2
#     Edge 121, Type (0, 0), BuildingBlock: EZIPEK_clean_linker_0, # of connection points: 2
#     Edge 122, Type (0, 0), BuildingBlock: EZIPEK_clean_linker_0, # of connection points: 2
#     Edge 123, Type (0, 0), BuildingBlock: EZIPEK_clean_linker_0, # of connection points: 2
#     Edge 124, Type (0, 0), BuildingBlock: EZIPEK_clean_linker_0, # of connection points: 2
#     Edge 125, Type (0, 0), BuildingBlock: EZIPEK_clean_linker_0, # of connection points: 2
#     Edge 126, Type (0, 0), BuildingBlock: EZIPEK_clean_linker_0, # of connection points: 2
#     Edge 127, Type (0, 0), BuildingBlock: EZIPEK_clean_linker_0, # of connection points: 2
#     Edge 128, Type (0, 0), BuildingBlock: EZIPEK_clean_linker_0, # of connection points: 2
#     Edge 129, Type (0, 0), BuildingBlock: EZIPEK_clean_linker_0, # of connection points: 2
#     Edge 130, Type (0, 0), BuildingBlock: EZIPEK_clean_linker_0, # of connection points: 2
#     Edge 131, Type (0, 0), BuildingBlock: EZIPEK_clean_linker_0, # of connection points: 2
#     Edge 132, Type (0, 0), BuildingBlock: EZIPEK_clean_linker_0, # of connection points: 2
#     Edge 133, Type (0, 0), BuildingBlock: EZIPEK_clean_linker_0, # of connection points: 2
#     Edge 134, Type (0, 0), BuildingBlock: EZIPEK_clean_linker_0, # of connection points: 2
#     Edge 135, Type (0, 0), BuildingBlock: EZIPEK_clean_linker_0, # of connection points: 2
#     Edge 136, Type (0, 0), BuildingBlock: EZIPEK_clean_linker_0, # of connection points: 2
#     Edge 137, Type (0, 0), BuildingBlock: EZIPEK_clean_linker_0, # of connection points: 2
#     Edge 138, Type (0, 0), BuildingBlock: EZIPEK_clean_linker_0, # of connection points: 2
#     Edge 139, Type (0, 0), BuildingBlock: EZIPEK_clean_linker_0, # of connection points: 2
#     Edge 140, Type (0, 0), BuildingBlock: EZIPEK_clean_linker_0, # of connection points: 2
#     Edge 141, Type (0, 0), BuildingBlock: EZIPEK_clean_linker_0, # of connection points: 2
#     Edge 142, Type (0, 0), BuildingBlock: EZIPEK_clean_linker_0, # of connection points: 2
#     Edge 143, Type (0, 0), BuildingBlock: EZIPEK_clean_linker_0, # of connection points: 2
# Relax obj value: 0.404
# Max RMSD: 0.198
# Mean RMSD: 0.198
data_MOF--net-uli--node1-TATPOV_clean_sbu_0--edge1-EZIPEK_clean_linker_0
_symmetry_space_group_name_H-M    P1
_symmetry_Int_Tables_number       1
_symmetry_cell_setting            triclinic
loop_
_symmetry_equiv_pos_as_xyz
'x, y, z'
_cell_length_a     50.902747
_cell_length_b     50.441686
_cell_length_c     50.450871
_cell_angle_alpha  90.35186
_cell_angle_beta   89.821797
_cell_angle_gamma 90.106522
loop_
_atom_site_label
_atom_site_type_symbol
_atom_site_fract_x
_atom_site_fract_y
_atom_site_fract_z
_atom_type_partial_charge
Zn0 Zn 0.12701 0.24412 0.19292 0.0
Zn1 Zn 0.08101 0.25492 0.188 0.0
O2 O 0.08661 0.21637 0.20117 0.0
O3 O 0.12475 0.2173 0.22145 0.0
O4 O 0.04214 0.25752 0.19324 0.0
O5 O 0.13511 0.28273 0.20061 0.0
O6 O 0.09368 0.28432 0.2124 0.0
C7 C 0.10367 0.2053 0.21579 0.0
C8 C 0.11155 0.24496 0.14081 0.0
O9 O 0.09483 0.2615 0.14984 0.0
O10 O 0.12147 0.22861 0.15662 0.0
C11 C 0.02599 0.24288 0.18094 0.0
O12 O 0.03227 0.23368 0.15735 0.0
C13 C 0.11639 0.2947 0.21204 0.0
Zn14 Zn 0.72707 0.12743 0.19337 0.0
Zn15 Zn 0.72032 0.08413 0.18487 0.0
O16 O 0.75002 0.08891 0.21301 0.0
O17 O 0.7668 0.12263 0.19348 0.0
O18 O 0.71749 0.04472 0.18605 0.0
O19 O 0.70138 0.12624 0.22425 0.0
O20 O 0.68427 0.0968 0.19746 0.0
C21 C 0.76978 0.1036 0.2092 0.0
C22 C 0.72071 0.12323 0.14125 0.0
O23 O 0.72895 0.10005 0.14722 0.0
O24 O 0.71235 0.13801 0.15964 0.0
C25 C 0.74022 0.03466 0.18741 0.0
O26 O 0.76038 0.04853 0.17898 0.0
C27 C 0.68151 0.11333 0.21632 0.0
Zn28 Zn 0.84177 0.72657 0.1949 0.0
Zn29 Zn 0.89057 0.72456 0.19097 0.0
O30 O 0.88664 0.75699 0.21577 0.0
O31 O 0.84492 0.76496 0.20864 0.0
O32 O 0.92973 0.72221 0.19172 0.0
O33 O 0.83819 0.69749 0.22053 0.0
O34 O 0.87789 0.68799 0.20578 0.0
C35 C 0.86689 0.77222 0.21795 0.0
C36 C 0.85732 0.72838 0.14233 0.0
O37 O 0.87846 0.73618 0.15331 0.0
O38 O 0.84196 0.71437 0.15607 0.0
C39 C 0.94103 0.74337 0.18454 0.0
O40 O 0.9265 0.76118 0.17266 0.0
C41 C 0.85715 0.68152 0.2185 0.0
Zn42 Zn 0.24573 0.84618 0.2006 0.0
Zn43 Zn 0.24893 0.89406 0.19376 0.0
O44 O 0.21288 0.88738 0.21353 0.0
O45 O 0.20915 0.84415 0.21548 0.0
O46 O 0.25108 0.93341 0.19759 0.0
O47 O 0.27649 0.84285 0.22397 0.0
O48 O 0.28532 0.88209 0.20765 0.0
C49 C 0.19955 0.86686 0.21977 0.0
C50 C 0.24929 0.86103 0.14511 0.0
O51 O 0.24556 0.88437 0.15422 0.0
O52 O 0.25209 0.84197 0.16113 0.0
C53 C 0.23091 0.94562 0.18972 0.0
O54 O 0.2131 0.93191 0.17668 0.0
C55 C 0.29251 0.86158 0.22021 0.0
Zn56 Zn 0.14109 0.72129 0.79407 0.0
Zn57 Zn 0.07636 0.72222 0.78626 0.0
O58 O 0.08518 0.75381 0.76348 0.0
O59 O 0.12637 0.75542 0.77571 0.0
O60 O 0.03735 0.72265 0.785 0.0
O61 O 0.12194 0.68435 0.79578 0.0
O62 O 0.09048 0.68979 0.7671 0.0
C63 C 0.10696 0.76594 0.76386 0.0
C64 C 0.10932 0.72127 0.83509 0.0
O65 O 0.08935 0.73141 0.82414 0.0
O66 O 0.11992 0.7022 0.82274 0.0
C67 C 0.02871 0.74401 0.79512 0.0
O68 O 0.04583 0.75913 0.80746 0.0
C69 C 0.10953 0.67612 0.7755 0.0
Zn70 Zn 0.25261 0.13569 0.78587 0.0
Zn71 Zn 0.25246 0.08576 0.79052 0.0
O72 O 0.21722 0.09525 0.77318 0.0
O73 O 0.21652 0.13857 0.76987 0.0
O74 O 0.25108 0.0464 0.78626 0.0
O75 O 0.28422 0.13784 0.76392 0.0
O76 O 0.28798 0.09528 0.77268 0.0
C77 C 0.2052 0.1164 0.76704 0.0
C78 C 0.25107 0.11814 0.83986 0.0
O79 O 0.24824 0.0951 0.82983 0.0
O80 O 0.2567 0.13758 0.82516 0.0
C81 C 0.23035 0.03593 0.7954 0.0
O82 O 0.21432 0.05155 0.80863 0.0
C83 C 0.29709 0.11654 0.76274 0.0
Zn84 Zn 0.82814 0.25063 0.79397 0.0
Zn85 Zn 0.89462 0.25762 0.78899 0.0
O86 O 0.88641 0.22355 0.76946 0.0
O87 O 0.84316 0.21833 0.77174 0.0
O88 O 0.93354 0.25868 0.7844 0.0
O89 O 0.84199 0.29028 0.79207 0.0
O90 O 0.87799 0.28766 0.76792 0.0
C91 C 0.86579 0.21029 0.76432 0.0
C92 C 0.86252 0.26018 0.83581 0.0
O93 O 0.88523 0.25279 0.82869 0.0
O94 O 0.85012 0.2739 0.81919 0.0
C95 C 0.94415 0.23843 0.79458 0.0
O96 O 0.92894 0.22321 0.80905 0.0
C97 C 0.8565 0.2992 0.77347 0.0
Zn98 Zn 0.70942 0.86596 0.79769 0.0
Zn99 Zn 0.71967 0.9053 0.79279 0.0
O100 O 0.7518 0.89909 0.77033 0.0
O101 O 0.74992 0.8605 0.78968 0.0
O102 O 0.7163 0.94451 0.79268 0.0
O103 O 0.68738 0.8869 0.76835 0.0
O104 O 0.68787 0.88735 0.76809 0.0
C105 C 0.76241 0.87704 0.77528 0.0
C106 C 0.71584 0.87319 0.84309 0.0
O107 O 0.73145 0.88844 0.83044 0.0
O108 O 0.69302 0.87214 0.83408 0.0
C109 C 0.73918 0.95403 0.79525 0.0
O110 O 0.75724 0.93969 0.80689 0.0
C111 C 0.67013 0.87131 0.77677 0.0
Zn112 Zn 0.20019 0.13369 0.25373 0.0
Zn113 Zn 0.18846 0.08601 0.25716 0.0
O114 O 0.20538 0.09358 0.22032 0.0
O115 O 0.21737 0.1353 0.21841 0.0
O116 O 0.19131 0.04662 0.25709 0.0
O117 O 0.22042 0.13618 0.28667 0.0
O118 O 0.20261 0.09721 0.2941 0.0
C119 C 0.21527 0.11282 0.20749 0.0
C120 C 0.14361 0.12098 0.25342 0.0
O121 O 0.15026 0.09669 0.25376 0.0
O122 O 0.16089 0.13908 0.25477 0.0
C123 C 0.18249 0.03588 0.23616 0.0
O124 O 0.17013 0.05138 0.21952 0.0
C125 C 0.21552 0.11728 0.30219 0.0
Zn126 Zn 0.83562 0.20151 0.26183 0.0
Zn127 Zn 0.89628 0.19021 0.25497 0.0
O128 O 0.89078 0.20749 0.21962 0.0
O129 O 0.84895 0.21773 0.22461 0.0
O130 O 0.93543 0.18848 0.25716 0.0
O131 O 0.85489 0.1903 0.29619 0.0
O132 O 0.88536 0.21714 0.2847 0.0
C133 C 0.86989 0.21765 0.21073 0.0
C134 C 0.8566 0.14823 0.26223 0.0
O135 O 0.8776 0.15335 0.24957 0.0
O136 O 0.84897 0.1658 0.27866 0.0
C137 C 0.94606 0.18605 0.23453 0.0
O138 O 0.93253 0.1754 0.21508 0.0
C139 C 0.86821 0.21068 0.30175 0.0
Zn140 Zn 0.7762 0.85538 0.25246 0.0
Zn141 Zn 0.78377 0.89835 0.25672 0.0
O142 O 0.76549 0.88983 0.21974 0.0
O143 O 0.79017 0.85541 0.21383 0.0
O144 O 0.78194 0.93778 0.25994 0.0
O145 O 0.78543 0.85195 0.29153 0.0
O146 O 0.76095 0.88676 0.28805 0.0
C147 C 0.77384 0.87169 0.20425 0.0
C148 C 0.82903 0.86285 0.24627 0.0
O149 O 0.82256 0.88328 0.2599 0.0
O150 O 0.81123 0.85011 0.23401 0.0
C151 C 0.78755 0.95051 0.23917 0.0
O152 O 0.80071 0.93838 0.22027 0.0
C153 C 0.76821 0.867 0.30158 0.0
Zn154 Zn 0.13621 0.79768 0.26086 0.0
Zn155 Zn 0.07525 0.78667 0.26015 0.0
O156 O 0.08555 0.76447 0.22829 0.0
O157 O 0.12197 0.78708 0.22303 0.0
O158 O 0.0363 0.78378 0.25973 0.0
O159 O 0.1182 0.79822 0.29833 0.0
O160 O 0.08874 0.76764 0.29233 0.0
C161 C 0.10461 0.77139 0.2137 0.0
C162 C 0.10505 0.83838 0.26505 0.0
O163 O 0.08731 0.82549 0.25272 0.0
O164 O 0.11689 0.82588 0.2831 0.0
C165 C 0.02674 0.79164 0.23803 0.0
O166 O 0.04283 0.80348 0.22143 0.0
C167 C 0.10727 0.77704 0.30613 0.0
Zn168 Zn 0.18394 0.83209 0.72517 0.0
Zn169 Zn 0.18261 0.8979 0.72445 0.0
O170 O 0.19995 0.88975 0.76035 0.0
O171 O 0.20401 0.84608 0.76026 0.0
O172 O 0.18604 0.9372 0.72239 0.0
O173 O 0.18152 0.85016 0.68775 0.0
O174 O 0.20675 0.88418 0.69489 0.0
C175 C 0.2077 0.86856 0.77142 0.0
C176 C 0.1368 0.86346 0.71625 0.0
O177 O 0.14291 0.88612 0.72562 0.0
O178 O 0.1549 0.85221 0.70301 0.0
C179 C 0.18213 0.94798 0.74473 0.0
O180 O 0.17062 0.93387 0.76327 0.0
C181 C 0.20081 0.86442 0.68054 0.0
Zn182 Zn 0.12732 0.18785 0.72475 0.0
Zn183 Zn 0.07902 0.18732 0.72235 0.0
O184 O 0.08643 0.21289 0.75321 0.0
O185 O 0.12437 0.19576 0.76437 0.0
O186 O 0.03979 0.18952 0.7214 0.0
O187 O 0.12948 0.21702 0.69878 0.0
O188 O 0.09124 0.20103 0.68605 0.0
C189 C 0.10465 0.20995 0.77009 0.0
C190 C 0.11096 0.13815 0.72438 0.0
O191 O 0.09074 0.14986 0.73358 0.0
O192 O 0.12559 0.15108 0.70897 0.0
C193 C 0.02985 0.18667 0.74423 0.0
O194 O 0.04481 0.17693 0.76296 0.0
C195 C 0.11158 0.21503 0.68159 0.0
Zn196 Zn 0.78434 0.13053 0.73584 0.0
Zn197 Zn 0.78862 0.08652 0.72528 0.0
O198 O 0.77617 0.09205 0.76463 0.0
O199 O 0.75518 0.12991 0.76271 0.0
O200 O 0.78308 0.04772 0.72357 0.0
O201 O 0.78009 0.14012 0.69734 0.0
O202 O 0.76461 0.09981 0.69569 0.0
C203 C 0.76109 0.1092 0.77537 0.0
C204 C 0.83569 0.11639 0.73505 0.0
O205 O 0.82683 0.09964 0.7183 0.0
O206 O 0.81991 0.12651 0.75135 0.0
C207 C 0.7962 0.03151 0.73722 0.0
O208 O 0.82068 0.03709 0.74328 0.0
C209 C 0.76738 0.12242 0.68505 0.0
Zn210 Zn 0.83479 0.77072 0.71987 0.0
Zn211 Zn 0.89606 0.79231 0.72435 0.0
O212 O 0.89077 0.77224 0.75835 0.0
O213 O 0.85057 0.75575 0.75563 0.0
O214 O 0.93511 0.79737 0.72392 0.0
O215 O 0.85081 0.78768 0.68609 0.0
O216 O 0.88877 0.76923 0.69129 0.0
C217 C 0.87186 0.75926 0.76826 0.0
C218 C 0.85108 0.82819 0.72274 0.0
O219 O 0.87432 0.82624 0.73167 0.0
O220 O 0.84295 0.81006 0.707 0.0
C221 C 0.9445 0.79872 0.74709 0.0
O222 O 0.92934 0.80726 0.76644 0.0
C223 C 0.86899 0.77336 0.67673 0.0
Zn224 Zn 0.24839 0.19513 0.13211 0.0
Zn225 Zn 0.25387 0.19286 0.08571 0.0
O226 O 0.22124 0.21688 0.09221 0.0
O227 O 0.2097 0.20402 0.13196 0.0
O228 O 0.25683 0.19751 0.04645 0.0
O229 O 0.27512 0.22361 0.13712 0.0
O230 O 0.28998 0.20489 0.10081 0.0
C231 C 0.20434 0.21613 0.11082 0.0
C232 C 0.2501 0.14318 0.11635 0.0
O233 O 0.24373 0.15427 0.0947 0.0
O234 O 0.26062 0.15721 0.13421 0.0
C235 C 0.2355 0.1916 0.03493 0.0
O236 O 0.21824 0.17689 0.0474 0.0
C237 C 0.29382 0.21951 0.12111 0.0
Zn238 Zn 0.2572 0.79174 0.83762 0.0
Zn239 Zn 0.25173 0.79146 0.8932 0.0
O240 O 0.21753 0.77425 0.88036 0.0
O241 O 0.21993 0.77631 0.83701 0.0
O242 O 0.24948 0.78357 0.93227 0.0
O243 O 0.28621 0.76716 0.83865 0.0
O244 O 0.28674 0.77348 0.88213 0.0
C245 C 0.20718 0.7703 0.85775 0.0
C246 C 0.25513 0.84179 0.86426 0.0
O247 O 0.24689 0.83075 0.8853 0.0
O248 O 0.26936 0.82851 0.84864 0.0
C249 C 0.23281 0.79435 0.94762 0.0
O250 O 0.21911 0.81462 0.93917 0.0
C251 C 0.29712 0.7644 0.86089 0.0
Zn252 Zn 0.20601 0.25533 0.84761 0.0
Zn253 Zn 0.1857 0.25274 0.89764 0.0
O254 O 0.20033 0.21609 0.89106 0.0
O255 O 0.22217 0.21852 0.85333 0.0
O256 O 0.18935 0.25648 0.93685 0.0
O257 O 0.20834 0.28403 0.87953 0.0
O258 O 0.20813 0.28379 0.8799 0.0
C259 C 0.21485 0.2055 0.87352 0.0
C260 C 0.14687 0.25164 0.85548 0.0
O261 O 0.14928 0.25281 0.88072 0.0
O262 O 0.16691 0.25175 0.84024 0.0
C263 C 0.17813 0.24003 0.95204 0.0
O264 O 0.15685 0.22773 0.94388 0.0
C265 C 0.21365 0.30817 0.88391 0.0
Zn266 Zn 0.71806 0.19823 0.84552 0.0
Zn267 Zn 0.7195 0.19232 0.89417 0.0
O268 O 0.75551 0.2082 0.88338 0.0
O269 O 0.75248 0.2175 0.84124 0.0
O270 O 0.72231 0.20016 0.93283 0.0
O271 O 0.68507 0.21733 0.84212 0.0
O272 O 0.68339 0.21 0.88506 0.0
C273 C 0.76583 0.21729 0.86231 0.0
C274 C 0.7219 0.14327 0.86235 0.0
O275 O 0.72298 0.1526 0.88588 0.0
O276 O 0.71742 0.15857 0.84308 0.0
C277 C 0.73107 0.18534 0.95089 0.0
O278 O 0.73503 0.16006 0.946 0.0
C279 C 0.67302 0.21889 0.86391 0.0
Zn280 Zn 0.7895 0.72905 0.84749 0.0
Zn281 Zn 0.78909 0.72771 0.89296 0.0
O282 O 0.76627 0.76014 0.88228 0.0
O283 O 0.78741 0.76919 0.84566 0.0
O284 O 0.78177 0.72631 0.93191 0.0
O285 O 0.75793 0.7056 0.84414 0.0
O286 O 0.77678 0.69078 0.87998 0.0
C287 C 0.77219 0.77654 0.86407 0.0
C288 C 0.83861 0.72542 0.86322 0.0
O289 O 0.82778 0.73659 0.88319 0.0
O290 O 0.8244 0.71091 0.84878 0.0
C291 C 0.79389 0.7395 0.94944 0.0
O292 O 0.81641 0.75067 0.94339 0.0
C293 C 0.76144 0.68706 0.86048 0.0
Zn294 Zn 0.71826 0.79681 0.14652 0.0
Zn295 Zn 0.71825 0.79049 0.08046 0.0
O296 O 0.7515 0.7696 0.0887 0.0
O297 O 0.74998 0.77468 0.13175 0.0
O298 O 0.71482 0.78606 0.04174 0.0
O299 O 0.68134 0.79893 0.12883 0.0
O300 O 0.6875 0.77068 0.09663 0.0
C301 C 0.76139 0.76523 0.1113 0.0
C302 C 0.71866 0.83989 0.11173 0.0
O303 O 0.72624 0.82965 0.09 0.0
O304 O 0.7017 0.82674 0.12459 0.0
C305 C 0.7369 0.79027 0.03102 0.0
O306 O 0.75523 0.8026 0.04461 0.0
C307 C 0.67369 0.77863 0.11599 0.0
Zn308 Zn 0.19288 0.72614 0.13287 0.0
Zn309 Zn 0.18474 0.72452 0.08654 0.0
O310 O 0.2064 0.76008 0.09442 0.0
O311 O 0.20519 0.76419 0.13753 0.0
O312 O 0.18871 0.7229 0.04714 0.0
O313 O 0.22058 0.69862 0.13237 0.0
O314 O 0.1972 0.68702 0.09796 0.0
C315 C 0.21116 0.7738 0.11526 0.0
C316 C 0.13764 0.72387 0.12024 0.0
O317 O 0.14595 0.73033 0.09728 0.0
O318 O 0.15409 0.71362 0.13598 0.0
C319 C 0.18555 0.74514 0.03608 0.0
O320 O 0.17529 0.76475 0.04981 0.0
C321 C 0.21365 0.68112 0.11587 0.0
Zn322 Zn 0.79648 0.24855 0.14889 0.0
Zn323 Zn 0.79259 0.25722 0.0816 0.0
O324 O 0.77481 0.22246 0.08911 0.0
O325 O 0.77467 0.21693 0.13276 0.0
O326 O 0.78672 0.25943 0.04254 0.0
O327 O 0.79333 0.28829 0.13557 0.0
O328 O 0.7694 0.28531 0.09949 0.0
C329 C 0.76868 0.20918 0.10945 0.0
C330 C 0.83735 0.26094 0.11488 0.0
O331 O 0.83203 0.2538 0.09138 0.0
O332 O 0.81956 0.27347 0.12698 0.0
C333 C 0.79049 0.237 0.03166 0.0
O334 O 0.80449 0.21917 0.0441 0.0
C335 C 0.7741 0.29639 0.12162 0.0
Zn336 Zn 0.64601 0.7498 0.68021 0.0
Zn337 Zn 0.58144 0.75495 0.68483 0.0
O338 O 0.59181 0.72026 0.7032 0.0
O339 O 0.63506 0.71625 0.70195 0.0
O340 O 0.54264 0.75576 0.69206 0.0
O341 O 0.64078 0.78497 0.69859 0.0
O342 O 0.59743 0.78785 0.70423 0.0
C343 C 0.61259 0.70746 0.70878 0.0
C344 C 0.61078 0.75921 0.63873 0.0
O345 O 0.58817 0.75067 0.64464 0.0
O346 O 0.62244 0.77181 0.6567 0.0
C347 C 0.5319 0.73311 0.69005 0.0
O348 O 0.54471 0.71391 0.67803 0.0
C349 C 0.62063 0.79716 0.70734 0.0
Zn350 Zn 0.23379 0.63335 0.69304 0.0
Zn351 Zn 0.21726 0.57962 0.69064 0.0
O352 O 0.25004 0.5832 0.71408 0.0
O353 O 0.26697 0.60926 0.68531 0.0
O354 O 0.21485 0.53999 0.68846 0.0
O355 O 0.19266 0.63029 0.6922 0.0
O356 O 0.18801 0.59318 0.71387 0.0
C357 C 0.27035 0.59435 0.70507 0.0
C358 C 0.23538 0.61329 0.64452 0.0
O359 O 0.21639 0.5991 0.65312 0.0
O360 O 0.2536 0.61886 0.66068 0.0
C361 C 0.23785 0.5307 0.68542 0.0
O362 O 0.25574 0.54544 0.67383 0.0
C363 C 0.17992 0.61629 0.70865 0.0
Zn364 Zn 0.34517 0.22519 0.70005 0.0
Zn365 Zn 0.39367 0.22461 0.69445 0.0
O366 O 0.38826 0.25591 0.72069 0.0
O367 O 0.34613 0.26284 0.71494 0.0
O368 O 0.43283 0.22311 0.69606 0.0
O369 O 0.34415 0.19504 0.72448 0.0
O370 O 0.38214 0.18672 0.70523 0.0
C371 C 0.3681 0.27048 0.72388 0.0
C372 C 0.35957 0.22991 0.64723 0.0
O373 O 0.38114 0.23733 0.65761 0.0
O374 O 0.34481 0.21509 0.66078 0.0
C375 C 0.44408 0.24379 0.68765 0.0
O376 O 0.42986 0.26037 0.67379 0.0
C377 C 0.36257 0.17918 0.71907 0.0
Zn378 Zn 0.75635 0.33432 0.67541 0.0
Zn379 Zn 0.75545 0.40202 0.68698 0.0
O380 O 0.7227 0.38978 0.70553 0.0
O381 O 0.72284 0.34667 0.69614 0.0
O382 O 0.75564 0.44096 0.69553 0.0
O383 O 0.79364 0.35218 0.67959 0.0
O384 O 0.78577 0.38471 0.70746 0.0
C385 C 0.7119 0.36712 0.70628 0.0
C386 C 0.75835 0.37159 0.63928 0.0
O387 O 0.7486 0.39323 0.64746 0.0
O388 O 0.77593 0.36168 0.6537 0.0
C389 C 0.74019 0.45676 0.68392 0.0
O390 O 0.72892 0.44913 0.66176 0.0
C391 C 0.79982 0.36508 0.70044 0.0
Zn392 Zn 0.63963 0.22487 0.29435 0.0
Zn393 Zn 0.58366 0.22553 0.29129 0.0
O394 O 0.59345 0.25836 0.27085 0.0
O395 O 0.63435 0.26416 0.28402 0.0
O396 O 0.54432 0.22576 0.28643 0.0
O397 O 0.63967 0.19889 0.26564 0.0
O398 O 0.59745 0.19092 0.27376 0.0
C399 C 0.6141 0.27248 0.27198 0.0
C400 C 0.61239 0.22059 0.3399 0.0
O401 O 0.59363 0.23362 0.33 0.0
O402 O 0.62314 0.20419 0.32462 0.0
C403 C 0.53365 0.24721 0.29402 0.0
O404 O 0.5486 0.26431 0.30673 0.0
C405 C 0.61946 0.18438 0.26338 0.0
Zn406 Zn 0.75305 0.64748 0.27698 0.0
Zn407 Zn 0.75059 0.5847 0.28838 0.0
O408 O 0.71634 0.59028 0.26899 0.0
O409 O 0.7192 0.63238 0.25742 0.0
O410 O 0.75214 0.54561 0.29044 0.0
O411 O 0.79012 0.63274 0.28487 0.0
O412 O 0.78361 0.59388 0.26676 0.0
C413 C 0.70677 0.61049 0.25776 0.0
C414 C 0.75578 0.62363 0.33043 0.0
O415 O 0.74518 0.60143 0.32533 0.0
O416 O 0.77022 0.63357 0.31244 0.0
C417 C 0.73113 0.53474 0.29818 0.0
O418 O 0.71333 0.55007 0.30933 0.0
C419 C 0.79873 0.61336 0.27135 0.0
Zn420 Zn 0.33781 0.75741 0.2926 0.0
Zn421 Zn 0.39002 0.75643 0.29378 0.0
O422 O 0.38099 0.72197 0.27442 0.0
O423 O 0.33834 0.71889 0.28001 0.0
O424 O 0.42907 0.75673 0.28939 0.0
O425 O 0.33671 0.78506 0.26637 0.0
O426 O 0.37877 0.79118 0.27524 0.0
C427 C 0.3598 0.70883 0.27208 0.0
C428 C 0.35965 0.7589 0.34351 0.0
O429 O 0.38033 0.75 0.33252 0.0
O430 O 0.34351 0.77152 0.32955 0.0
C431 C 0.43942 0.73401 0.29151 0.0
O432 O 0.42617 0.71492 0.30302 0.0
C433 C 0.35747 0.79861 0.26437 0.0
Zn434 Zn 0.2211 0.35481 0.29604 0.0
Zn435 Zn 0.21607 0.39937 0.29402 0.0
O436 O 0.24562 0.39099 0.26664 0.0
O437 O 0.2605 0.35944 0.29139 0.0
O438 O 0.21451 0.4386 0.28987 0.0
O439 O 0.19804 0.34916 0.26475 0.0
O440 O 0.17967 0.38393 0.283 0.0
C441 C 0.26445 0.37585 0.273 0.0
C442 C 0.22002 0.36905 0.34435 0.0
O443 O 0.22923 0.38898 0.33191 0.0
O444 O 0.20371 0.35482 0.33209 0.0
C445 C 0.23754 0.44803 0.29173 0.0
O446 O 0.25602 0.43357 0.30248 0.0
C447 C 0.17806 0.36362 0.26793 0.0
Zn448 Zn 0.67193 0.632 0.75974 0.0
Zn449 Zn 0.67799 0.58394 0.76275 0.0
O450 O 0.70227 0.59304 0.73188 0.0
O451 O 0.67659 0.62493 0.71948 0.0
O452 O 0.68396 0.54508 0.76402 0.0
O453 O 0.70311 0.63788 0.78217 0.0
O454 O 0.69423 0.59804 0.79726 0.0
C455 C 0.69474 0.60862 0.7139 0.0
C456 C 0.62705 0.61296 0.76295 0.0
O457 O 0.63966 0.5941 0.75183 0.0
O458 O 0.63896 0.62483 0.78128 0.0
C459 C 0.68304 0.53545 0.74082 0.0
O460 O 0.67148 0.54895 0.72205 0.0
C461 C 0.70621 0.62011 0.79942 0.0
Zn462 Zn 0.35083 0.70863 0.75828 0.0
Zn463 Zn 0.39228 0.69141 0.75581 0.0
O464 O 0.38796 0.71497 0.72224 0.0
O465 O 0.34558 0.72208 0.7215 0.0
O466 O 0.43111 0.69416 0.75704 0.0
O467 O 0.35499 0.73484 0.78711 0.0
O468 O 0.38132 0.70164 0.79506 0.0
C469 C 0.36763 0.72324 0.71023 0.0
C470 C 0.35294 0.65199 0.7543 0.0
O471 O 0.37562 0.65579 0.74428 0.0
O472 O 0.3434 0.67001 0.769 0.0
C473 C 0.44719 0.68093 0.74319 0.0
O474 O 0.44077 0.65699 0.73508 0.0
C475 C 0.3677 0.72117 0.80348 0.0
Zn476 Zn 0.27965 0.34938 0.74564 0.0
Zn477 Zn 0.28515 0.39385 0.75471 0.0
O478 O 0.27388 0.38729 0.71545 0.0
O479 O 0.25134 0.35037 0.71819 0.0
O480 O 0.27894 0.43284 0.75548 0.0
O481 O 0.27279 0.33894 0.78311 0.0
O482 O 0.26139 0.38075 0.78529 0.0
C483 C 0.25846 0.37033 0.70495 0.0
C484 C 0.33235 0.36298 0.74657 0.0
O485 O 0.32359 0.38179 0.7611 0.0
O486 O 0.31653 0.35007 0.73227 0.0
C487 C 0.29266 0.44968 0.74307 0.0
O488 O 0.31724 0.44423 0.73723 0.0
C489 C 0.26193 0.35776 0.79554 0.0
Zn490 Zn 0.61692 0.27154 0.75955 0.0
Zn491 Zn 0.57678 0.28941 0.75764 0.0
O492 O 0.57739 0.26443 0.72452 0.0
O493 O 0.62006 0.26386 0.72023 0.0
O494 O 0.53808 0.29566 0.75895 0.0
O495 O 0.61266 0.24346 0.78638 0.0
O496 O 0.58664 0.27664 0.79643 0.0
C497 C 0.59763 0.26002 0.71033 0.0
C498 C 0.62077 0.32484 0.75753 0.0
O499 O 0.59909 0.32176 0.74542 0.0
O500 O 0.62641 0.30801 0.77493 0.0
C501 C 0.52887 0.30067 0.73625 0.0
O502 O 0.5456 0.30926 0.71833 0.0
C503 C 0.6004 0.25682 0.80371 0.0
Zn504 Zn 0.68732 0.32907 0.2213 0.0
Zn505 Zn 0.68771 0.39802 0.22322 0.0
O506 O 0.70353 0.3858 0.25819 0.0
O507 O 0.70624 0.34188 0.25616 0.0
O508 O 0.6921 0.43699 0.22439 0.0
O509 O 0.68408 0.35128 0.186 0.0
O510 O 0.71 0.38503 0.19208 0.0
C511 C 0.71023 0.36376 0.26835 0.0
C512 C 0.64308 0.36484 0.21847 0.0
O513 O 0.64871 0.38821 0.22565 0.0
O514 O 0.65973 0.35327 0.20369 0.0
C515 C 0.68263 0.44749 0.24513 0.0
O516 O 0.66918 0.43202 0.26108 0.0
C517 C 0.70352 0.36509 0.1782 0.0
Zn518 Zn 0.64644 0.68516 0.23043 0.0
Zn519 Zn 0.58069 0.69276 0.22717 0.0
O520 O 0.59005 0.7098 0.26205 0.0
O521 O 0.63332 0.70522 0.26483 0.0
O522 O 0.54255 0.70053 0.22582 0.0
O523 O 0.63099 0.68912 0.19152 0.0
O524 O 0.59678 0.7149 0.19776 0.0
C525 C 0.61149 0.71316 0.27444 0.0
C526 C 0.61113 0.6453 0.21964 0.0
O527 O 0.58957 0.65274 0.22989 0.0
O528 O 0.62323 0.66234 0.20612 0.0
C529 C 0.52491 0.68577 0.23548 0.0
O530 O 0.53035 0.66095 0.24096 0.0
C531 C 0.61673 0.70847 0.18414 0.0
Zn532 Zn 0.29273 0.64131 0.22581 0.0
Zn533 Zn 0.28826 0.58599 0.22467 0.0
O534 O 0.26653 0.59619 0.25686 0.0
O535 O 0.28092 0.63666 0.26512 0.0
O536 O 0.2798 0.54727 0.22378 0.0
O537 O 0.26493 0.64227 0.19882 0.0
O538 O 0.27265 0.5999 0.19003 0.0
C539 C 0.26783 0.61633 0.272 0.0
C540 C 0.33847 0.61338 0.22331 0.0
O541 O 0.32688 0.59378 0.23387 0.0
O542 O 0.32525 0.62659 0.20713 0.0
C543 C 0.29227 0.52964 0.23626 0.0
O544 O 0.31595 0.53493 0.24515 0.0
C545 C 0.26249 0.62209 0.18394 0.0
Zn546 Zn 0.33864 0.26893 0.21522 0.0
Zn547 Zn 0.39821 0.29055 0.22232 0.0
O548 O 0.39452 0.26839 0.25491 0.0
O549 O 0.35223 0.25875 0.25317 0.0
O550 O 0.43698 0.29771 0.22332 0.0
O551 O 0.35598 0.28849 0.18392 0.0
O552 O 0.39248 0.26788 0.18881 0.0
C553 C 0.37401 0.25893 0.26546 0.0
C554 C 0.3508 0.32577 0.22064 0.0
O555 O 0.37333 0.32264 0.23119 0.0
O556 O 0.34329 0.3088 0.2034 0.0
C557 C 0.44574 0.3 0.24669 0.0
O558 O 0.42907 0.30712 0.26537 0.0
C559 C 0.37258 0.27241 0.17461 0.0
Zn560 Zn 0.75522 0.71377 0.62454 0.0
Zn561 Zn 0.7544 0.69274 0.58454 0.0
O562 O 0.72019 0.71602 0.58592 0.0
O563 O 0.71848 0.72745 0.62767 0.0
O564 O 0.75623 0.68869 0.54482 0.0
O565 O 0.78417 0.73929 0.62171 0.0
O566 O 0.79324 0.70472 0.5968 0.0
C567 C 0.70761 0.72608 0.60536 0.0
C568 C 0.75056 0.65774 0.62844 0.0
O569 O 0.74202 0.65937 0.60482 0.0
O570 O 0.76518 0.67622 0.63689 0.0
C571 C 0.73373 0.6851 0.53468 0.0
O572 O 0.71513 0.67524 0.54984 0.0
C573 C 0.80099 0.7248 0.6104 0.0
Zn574 Zn 0.74702 0.29639 0.32927 0.0
Zn575 Zn 0.75357 0.29217 0.39671 0.0
O576 O 0.71843 0.27558 0.38752 0.0
O577 O 0.7131 0.27728 0.34396 0.0
O578 O 0.75372 0.28539 0.43562 0.0
O579 O 0.78599 0.29284 0.34422 0.0
O580 O 0.78299 0.26927 0.38073 0.0
C581 C 0.70478 0.27111 0.36694 0.0
C582 C 0.75902 0.33807 0.36409 0.0
O583 O 0.75221 0.33238 0.3876 0.0
O584 O 0.77125 0.32009 0.35173 0.0
C585 C 0.73619 0.29637 0.44978 0.0
O586 O 0.7241 0.31749 0.44085 0.0
C587 C 0.79483 0.27462 0.35924 0.0
Zn588 Zn 0.68569 0.74809 0.3477 0.0
Zn589 Zn 0.68992 0.76145 0.40187 0.0
O590 O 0.71403 0.72941 0.39475 0.0
O591 O 0.68343 0.71295 0.37041 0.0
O592 O 0.68934 0.76123 0.4414 0.0
O593 O 0.68575 0.78931 0.35465 0.0
O594 O 0.71158 0.79182 0.38904 0.0
C595 C 0.7044 0.70936 0.38331 0.0
C596 C 0.64176 0.74337 0.37165 0.0
O597 O 0.65118 0.76279 0.38495 0.0
O598 O 0.65761 0.72505 0.36558 0.0
C599 C 0.6818 0.7388 0.44977 0.0
O600 O 0.67086 0.72286 0.4323 0.0
C601 C 0.70396 0.80113 0.36716 0.0
Zn602 Zn 0.23204 0.68802 0.34812 0.0
Zn603 Zn 0.22015 0.68966 0.39363 0.0
O604 O 0.25868 0.70135 0.38606 0.0
O605 O 0.25625 0.71959 0.34677 0.0
O606 O 0.21783 0.69457 0.43351 0.0
O607 O 0.19225 0.69194 0.34335 0.0
O608 O 0.19447 0.71652 0.37892 0.0
C609 C 0.2687 0.7158 0.36806 0.0
C610 C 0.23048 0.64069 0.36773 0.0
O611 O 0.21093 0.6514 0.37929 0.0
O612 O 0.24983 0.65545 0.36384 0.0
C613 C 0.23681 0.68564 0.44705 0.0
O614 O 0.25276 0.66843 0.43588 0.0
C615 C 0.18288 0.71044 0.35752 0.0
Zn616 Zn 0.28445 0.22518 0.34265 0.0
Zn617 Zn 0.29045 0.22666 0.39211 0.0
O618 O 0.27156 0.26174 0.38361 0.0
O619 O 0.27001 0.26244 0.34027 0.0
O620 O 0.28714 0.22655 0.43167 0.0
O621 O 0.26034 0.19527 0.34164 0.0
O622 O 0.27129 0.19142 0.3836 0.0
C623 C 0.26604 0.27385 0.3623 0.0
C624 C 0.33794 0.22617 0.35702 0.0
O625 O 0.32885 0.23162 0.38 0.0
O626 O 0.32274 0.21731 0.33931 0.0
C627 C 0.28767 0.24928 0.44245 0.0
O628 O 0.29786 0.26927 0.42944 0.0
C629 C 0.2596 0.18263 0.3631 0.0
Zn630 Zn 0.21645 0.29647 0.63204 0.0
Zn631 Zn 0.22041 0.28568 0.58598 0.0
O632 O 0.24835 0.26066 0.60101 0.0
O633 O 0.25577 0.28968 0.63202 0.0
O634 O 0.22531 0.27701 0.54795 0.0
O635 O 0.19033 0.26771 0.63712 0.0
O636 O 0.18239 0.27521 0.59505 0.0
C637 C 0.26391 0.2705 0.61801 0.0
C638 C 0.22226 0.34091 0.60953 0.0
O639 O 0.23279 0.32445 0.59345 0.0
O640 O 0.20286 0.33279 0.62284 0.0
C641 C 0.22735 0.29212 0.52813 0.0
O642 O 0.22405 0.31779 0.53096 0.0
C643 C 0.17547 0.26555 0.61723 0.0
Zn644 Zn 0.68907 0.22463 0.63282 0.0
Zn645 Zn 0.68826 0.22776 0.58798 0.0
O646 O 0.70131 0.26519 0.5937 0.0
O647 O 0.71846 0.25414 0.63164 0.0
O648 O 0.69096 0.2232 0.54872 0.0
O649 O 0.68054 0.18603 0.61755 0.0
O650 O 0.71645 0.20092 0.60281 0.0
C651 C 0.71544 0.27115 0.61343 0.0
C652 C 0.63991 0.23473 0.62441 0.0
O653 O 0.64815 0.22796 0.60123 0.0
O654 O 0.65593 0.23814 0.64316 0.0
C655 C 0.6857 0.24416 0.53613 0.0
O656 O 0.67225 0.26298 0.54799 0.0
C657 C 0.70437 0.1821 0.61388 0.0
Zn658 Zn 0.29209 0.75137 0.65658 0.0
Zn659 Zn 0.29058 0.75778 0.5844 0.0
O660 O 0.27394 0.72313 0.59874 0.0
O661 O 0.27205 0.71799 0.64275 0.0
O662 O 0.28234 0.75633 0.54649 0.0
O663 O 0.29024 0.7892 0.63659 0.0
O664 O 0.26798 0.78821 0.59934 0.0
C665 C 0.26743 0.70972 0.6192 0.0
C666 C 0.33165 0.76013 0.61547 0.0
O667 O 0.33171 0.7581 0.59055 0.0
O668 O 0.31006 0.76651 0.62558 0.0
C669 C 0.28655 0.73357 0.5368 0.0
O670 O 0.30023 0.71623 0.55018 0.0
C671 C 0.27186 0.79844 0.62205 0.0
C672 C 0.96738 0.2297 0.22448 0.0
C673 C 0.96956 0.2018 0.22763 0.0
C674 C 0.01002 0.2016 0.20362 0.0
C675 C 0.00611 0.22887 0.19727 0.0
N676 N 0.98255 0.26929 0.20182 0.0
N677 N -0.00535 0.16266 0.22762 0.0
C678 C 0.98594 0.24319 0.20824 0.0
C679 C -0.00892 0.18822 0.21946 0.0
N680 N 0.9478 0.24327 0.23729 0.0
N681 N 0.03157 0.1884 0.19409 0.0
H682 H 0.98251 0.15304 0.23993 0.0
H683 H 0.0114 0.15142 0.22408 0.0
H684 H 0.04618 0.19724 0.18276 0.0
H685 H 0.03499 0.16826 0.1964 0.0
H686 H 0.94664 0.26384 0.23819 0.0
H687 H 0.93353 0.23416 0.24891 0.0
H688 H 0.96588 0.28027 0.20655 0.0
H689 H -0.00547 0.27978 0.19009 0.0
C690 C 0.77541 -0.00246 0.23979 0.0
C691 C 0.77025 0.97255 0.23174 0.0
C692 C 0.73847 0.98768 0.1991 0.0
C693 C 0.74515 0.01264 0.20577 0.0
N694 N 0.75558 0.04078 0.24288 0.0
N695 N 0.73623 0.94316 0.21613 0.0
C696 C 0.75952 0.01779 0.22925 0.0
C697 C 0.74845 0.96715 0.2151 0.0
N698 N 0.79494 0.00316 0.2574 0.0
N699 N 0.72305 0.98232 0.17767 0.0
H700 H 0.74116 0.92927 0.23044 0.0
H701 H 0.71916 0.93881 0.20559 0.0
H702 H 0.71496 -0.00406 0.16603 0.0
H703 H 0.71927 0.9631 0.17103 0.0
H704 H 0.80055 0.02254 0.26201 0.0
H705 H 0.80622 0.98966 0.26615 0.0
H706 H 0.76489 0.04521 0.26075 0.0
H707 H 0.73931 0.05249 0.23864 0.0
C708 C -0.00828 0.79185 0.20376 0.0
C709 C 0.00106 0.78137 0.22788 0.0
C710 C 0.97575 0.74134 0.22066 0.0
C711 C 0.96669 0.75196 0.19627 0.0
N712 N 0.97558 0.78194 0.16044 0.0
N713 N -0.00788 0.75134 0.26404 0.0
C714 C 0.97799 0.77567 0.18661 0.0
C715 C -0.01014 0.75754 0.23782 0.0
N716 N -0.00413 0.81795 0.19804 0.0
N717 N 0.97144 0.71531 0.22662 0.0
H718 H -0.00037 0.7646 0.278 0.0
H719 H 0.98401 0.73518 0.27264 0.0
H720 H 0.9639 0.70182 0.2129 0.0
H721 H 0.97926 0.70616 0.24328 0.0
H722 H -0.01245 0.82727 0.18171 0.0
H723 H 0.00471 0.83093 0.21154 0.0
H724 H 0.98534 0.79789 0.15179 0.0
H725 H 0.9666 0.76914 0.14687 0.0
C726 C 0.20382 0.98609 0.1865 0.0
C727 C 0.22375 0.97244 0.20014 0.0
C728 C 0.21325 -0.0036 0.24054 0.0
C729 C 0.1928 0.00963 0.22671 0.0
N730 N 0.16193 0.00635 0.19066 0.0
N731 N 0.25405 0.97335 0.23704 0.0
C732 C 0.18618 0.00104 0.20079 0.0
C733 C 0.23052 0.98052 0.22632 0.0
N734 N 0.20231 0.98409 0.15956 0.0
N735 N 0.21476 -0.00167 0.26751 0.0
H736 H 0.26873 0.96399 0.22608 0.0
H737 H 0.2607 0.98036 0.25528 0.0
H738 H 0.20014 0.00735 0.27889 0.0
H739 H 0.22799 0.98881 0.27883 0.0
H740 H 0.18949 -0.0058 0.1483 0.0
H741 H 0.21609 0.97338 0.14848 0.0
H742 H 0.15551 -0.0012 0.17252 0.0
H743 H 0.147 0.01477 0.20214 0.0
C744 C 0.98524 0.79794 0.77288 0.0
C745 C 0.96908 0.78482 0.75436 0.0
C746 C -0.0126 0.74216 0.76702 0.0
C747 C 0.0035 0.75582 0.78562 0.0
N748 N 0.00597 0.79391 0.81467 0.0
N749 N 0.95898 0.74467 0.72964 0.0
C750 C -0.00132 0.78297 0.79098 0.0
C751 C 0.97185 0.75695 0.75007 0.0
N752 N 0.98667 0.82497 0.77293 0.0
N753 N -0.01368 0.71507 0.76748 0.0
H754 H 0.94691 0.75446 0.71637 0.0
H755 H 0.96232 0.72511 0.72393 0.0
H756 H -0.00465 0.70406 0.78231 0.0
H757 H 0.97504 0.70367 0.75587 0.0
H758 H -0.00123 0.8355 0.7845 0.0
H759 H 0.97643 0.83643 0.75923 0.0
H760 H 0.00123 0.81327 0.82018 0.0
H761 H 0.01296 0.78242 0.83025 0.0
C762 C 0.19434 0.00251 0.79036 0.0
C763 C 0.22054 0.00997 0.78466 0.0
C764 C 0.22105 0.97956 0.74733 0.0
C765 C 0.19404 0.97384 0.7524 0.0
N766 N 0.15347 0.98778 0.77242 0.0
N767 N 0.26164 -0.00327 0.76468 0.0
C768 C 0.18027 0.98844 0.77185 0.0
C769 C 0.2348 -0.00433 0.76491 0.0
N770 N 0.18364 0.00786 0.81465 0.0
N771 N 0.23333 0.96936 0.72539 0.0
H772 H 0.27229 0.00605 0.77971 0.0
H773 H 0.27345 0.98661 0.75223 0.0
H774 H 0.22376 0.9583 0.71092 0.0
H775 H 0.25222 0.9747 0.71955 0.0
H776 H 0.16513 0.00104 0.82035 0.0
H777 H 0.19482 0.01539 0.83028 0.0
H778 H 0.14234 -0.00142 0.78496 0.0
H779 H 0.14257 0.97736 0.75826 0.0
C780 C -0.00924 0.18617 0.7731 0.0
C781 C 0.00424 0.19865 0.7521 0.0
C782 C 0.98284 0.24041 0.76263 0.0
C783 C 0.96945 0.22758 0.78377 0.0
N784 N 0.97209 0.19244 0.8159 0.0
N785 N 0.00616 0.23569 0.72174 0.0
C786 C 0.97702 0.20157 0.79094 0.0
C787 C -0.00218 0.22523 0.74524 0.0
N788 N -0.00796 0.15927 0.77564 0.0
N789 N 0.982 0.26741 0.76073 0.0
H790 H 0.01598 0.22476 0.70729 0.0
H791 H 0.00012 0.25409 0.71482 0.0
H792 H 0.97354 0.2793 0.7754 0.0
H793 H -0.00833 0.27823 0.74711 0.0
H794 H 0.98195 0.14878 0.78923 0.0
H795 H 0.00223 0.14739 0.76206 0.0
H796 H 0.97893 0.17425 0.82269 0.0
H797 H 0.96489 0.20474 0.83095 0.0
C798 C 0.76423 -0.00638 0.7377 0.0
C799 C 0.781 0.01119 0.75201 0.0
C800 C 0.7619 -0.00423 0.79399 0.0
C801 C 0.74787 0.97741 0.78002 0.0
N802 N 0.73341 0.95815 0.73844 0.0
N803 N 0.7958 0.02915 0.79425 0.0
C804 C 0.74791 0.97681 0.75178 0.0
C805 C 0.77987 0.0123 0.78027 0.0
N806 N 0.76423 -0.00587 0.71056 0.0
N807 N 0.75693 -0.00064 0.82045 0.0
H808 H 0.80645 0.04458 0.78586 0.0
H809 H 0.79909 0.02739 0.81452 0.0
H810 H 0.74315 0.98925 0.83069 0.0
H811 H 0.76421 0.01515 0.83161 0.0
H812 H 0.75024 0.98614 0.69874 0.0
H813 H 0.77803 0.00469 0.69951 0.0
H814 H 0.73493 0.95438 0.71822 0.0
H815 H 0.71997 0.94557 0.74747 0.0
C816 C 0.21648 0.23266 0.01512 0.0
C817 C 0.22663 0.20663 0.01161 0.0
C818 C 0.20635 0.20316 0.96915 0.0
C819 C 0.19431 0.22838 0.97336 0.0
N820 N 0.18775 0.26754 -0.00107 0.0
N821 N 0.2384 0.17075 0.98392 0.0
C822 C 0.19966 0.24345 -0.00458 0.0
C823 C 0.22374 0.19301 0.98853 0.0
N824 N 0.22342 0.24707 0.03708 0.0
N825 N 0.20047 0.18842 0.9471 0.0
H826 H 0.25152 0.16333 -0.00327 0.0
H827 H 0.23968 0.16111 0.96567 0.0
H828 H 0.18766 0.19461 0.93243 0.0
H829 H 0.20662 0.16899 0.94403 0.0
H830 H 0.21762 0.26645 0.04093 0.0
H831 H 0.23699 0.24035 0.05086 0.0
H832 H 0.189 0.27904 0.01603 0.0
H833 H 0.17527 0.27582 0.98604 0.0
C834 C 0.19984 0.76247 0.96611 0.0
C835 C 0.22264 0.77851 0.97001 0.0
C836 C 0.22548 0.76377 0.01475 0.0
C837 C 0.20059 0.75152 0.01195 0.0
N838 N 0.16747 0.73234 0.98535 0.0
N839 N 0.25713 0.79504 -0.00281 0.0
C840 C 0.18882 0.74864 0.98802 0.0
C841 C 0.23574 0.77902 -0.00643 0.0
N842 N 0.1884 0.76124 0.94163 0.0
N843 N 0.23966 0.75982 0.03732 0.0
H844 H 0.26538 0.80613 0.98308 0.0
H845 H 0.26558 0.79872 0.01563 0.0
H846 H 0.23302 0.74757 0.05251 0.0
H847 H 0.25904 0.76601 0.03965 0.0
H848 H 0.17107 0.75122 0.93734 0.0
H849 H 0.196 0.77095 0.92516 0.0
H850 H 0.15818 0.728 0.96754 0.0
H851 H 0.15977 0.72172 9e-05 0.0
C852 C 0.77303 0.20379 0.96835 0.0
C853 C 0.74578 0.19879 0.97225 0.0
C854 C 0.74671 0.22333 0.01315 0.0
C855 C 0.77405 0.22811 0.00922 0.0
N856 N 0.81173 0.22866 0.98173 0.0
N857 N 0.70551 0.20719 -0.00522 0.0
C858 C 0.78674 0.21999 0.9868 0.0
C859 C 0.73224 0.20971 -0.00686 0.0
N860 N 0.78585 0.19288 0.94703 0.0
N861 N 0.73484 0.23073 0.03642 0.0
H862 H 0.69455 0.19616 0.98232 0.0
H863 H 0.69392 0.21715 0.00863 0.0
H864 H 0.7442 0.24171 0.05115 0.0
H865 H 0.71597 0.22497 0.04191 0.0
H866 H 0.80617 0.19311 0.94471 0.0
H867 H 0.77644 0.18215 0.9321 0.0
H868 H 0.82141 0.22588 0.96374 0.0
H869 H 0.82204 0.24094 -0.00637 0.0
C870 C 0.7713 0.73753 -0.00758 0.0
C871 C 0.77733 0.75166 0.97022 0.0
C872 C 0.74992 0.7889 0.98495 0.0
C873 C 0.74483 0.77515 0.00743 0.0
N874 N 0.74249 0.73346 0.03053 0.0
N875 N 0.76739 0.7876 0.94044 0.0
C876 C 0.75283 0.74844 0.01054 0.0
C877 C 0.76502 0.77637 0.96488 0.0
N878 N 0.7839 0.71428 -0.00223 0.0
N879 N 0.74082 0.8142 0.98204 0.0
H880 H 0.77968 0.78002 0.92576 0.0
H881 H 0.75601 0.80346 0.93412 0.0
H882 H 0.72818 0.82306 -0.0054 0.0
H883 H 0.74644 0.8267 0.96669 0.0
H884 H 0.78251 0.70461 0.0159 0.0
H885 H 0.7974 0.70573 0.98588 0.0
H886 H 0.74582 0.71319 0.03236 0.0
H887 H 0.72888 0.74081 0.04416 0.0
C888 C 0.48693 0.71414 0.68832 0.0
C889 C 0.50677 0.72664 0.70345 0.0
C890 C 0.48625 0.71139 0.74467 0.0
C891 C 0.46792 0.69643 0.72945 0.0
N892 N 0.44801 0.68641 0.68699 0.0
N893 N 0.52024 0.74517 0.74558 0.0
C894 C 0.46735 0.69875 0.70129 0.0
C895 C 0.50478 0.72794 0.73152 0.0
N896 N 0.48618 0.71853 0.66159 0.0
N897 N 0.48692 0.70856 0.77163 0.0
H898 H 0.53405 0.75761 0.73692 0.0
H899 H 0.51769 0.7492 0.76567 0.0
H900 H 0.47407 0.69625 0.78198 0.0
H901 H 0.50151 0.71655 0.7837 0.0
H902 H 0.47141 0.7119 0.64901 0.0
H903 H 0.49969 0.73089 0.6521 0.0
H904 H 0.44846 0.68385 0.66654 0.0
H905 H 0.43104 0.6786 0.69546 0.0
C906 C 0.27656 0.46917 0.70034 0.0
C907 C 0.27812 0.47053 0.72853 0.0
C908 C 0.24775 0.50845 0.72897 0.0
C909 C 0.24697 0.50746 0.70071 0.0
N910 N 0.25484 0.48373 0.66016 0.0
N911 N 0.26272 0.48865 0.77009 0.0
C912 C 0.25982 0.48692 0.68664 0.0
C913 C 0.26278 0.48925 0.74295 0.0
N914 N 0.29087 0.45073 0.68651 0.0
N915 N 0.23522 0.52843 0.74242 0.0
H916 H 0.27527 0.47662 0.781 0.0
H917 H 0.24957 0.49912 0.78198 0.0
H918 H 0.22282 0.54206 0.73353 0.0
H919 H 0.23767 0.53239 0.76251 0.0
H920 H 0.29397 0.45152 0.66614 0.0
H921 H 0.30043 0.43482 0.69523 0.0
H922 H 0.26118 0.46761 0.6489 0.0
H923 H 0.24206 0.49608 0.64984 0.0
C924 C 0.48162 0.2749 0.68594 0.0
C925 C 0.46947 0.25347 0.69902 0.0
C926 C 0.49226 0.26604 0.74018 0.0
C927 C 0.50377 0.2881 0.72686 0.0
N928 N 0.49982 0.31873 0.69074 0.0
N929 N 0.47168 0.22283 0.73566 0.0
C930 C 0.49562 0.29401 0.70078 0.0
C931 C 0.47716 0.24723 0.72537 0.0
N932 N 0.48063 0.27632 0.65896 0.0
N933 N 0.49386 0.26412 0.76713 0.0
H934 H 0.46414 0.20734 0.72427 0.0
H935 H 0.47844 0.21652 0.75402 0.0
H936 H 0.50098 0.27947 0.779 0.0
H937 H 0.48433 0.24951 0.77806 0.0
H938 H 0.49113 0.29035 0.64811 0.0
H939 H 0.47191 0.26145 0.64747 0.0
H940 H 0.49232 0.3248 0.67256 0.0
H941 H 0.50775 0.33407 0.7022 0.0
C942 C 0.738 0.50214 0.70451 0.0
C943 C 0.72677 0.47671 0.70073 0.0
C944 C 0.69034 0.48794 0.7309 0.0
C945 C 0.70068 0.5137 0.73307 0.0
N946 N 0.73793 0.54291 0.73034 0.0
N947 N 0.6945 0.4438 0.71279 0.0
C948 C 0.72571 0.52008 0.72245 0.0
C949 C 0.7037 0.46909 0.7149 0.0
N950 N 0.75981 0.50931 0.69037 0.0
N951 N 0.66718 0.48202 0.74339 0.0
H952 H 0.70142 0.43081 0.69842 0.0
H953 H 0.68048 0.43554 0.72531 0.0
H954 H 0.65806 0.49525 0.75647 0.0
H955 H 0.6567 0.46451 0.74069 0.0
H956 H 0.7674 0.52849 0.69013 0.0
H957 H 0.76936 0.49635 0.67736 0.0
H958 H 0.75688 0.54825 0.72466 0.0
H959 H 0.73013 0.555 0.74522 0.0
C960 C 0.48175 0.29689 0.27935 0.0
C961 C 0.47119 0.28775 0.25506 0.0
C962 C 0.49687 0.24653 0.25951 0.0
C963 C 0.50763 0.25643 0.28362 0.0
N964 N 0.4999 0.28441 0.32151 0.0
N965 N 0.47522 0.25681 0.21815 0.0
C966 C 0.49695 0.27968 0.29502 0.0
C967 C 0.48049 0.26334 0.24393 0.0
N968 N 0.47819 0.32267 0.28693 0.0
N969 N 0.50039 0.22054 0.25258 0.0
H970 H 0.46641 0.26969 0.20489 0.0
H971 H 0.48317 0.24032 0.20859 0.0
H972 H 0.50892 0.20686 0.26528 0.0
H973 H 0.49126 0.21155 0.23643 0.0
H974 H 0.48744 0.33104 0.30339 0.0
H975 H 0.46858 0.33635 0.27491 0.0
H976 H 0.4905 0.29994 0.33141 0.0
H977 H 0.50892 0.27075 0.33399 0.0
C978 C 0.68278 0.48282 0.27976 0.0
C979 C 0.69295 0.47328 0.25541 0.0
C980 C 0.73301 0.49939 0.26232 0.0
C981 C 0.72269 0.50866 0.28693 0.0
N982 N 0.69306 0.50038 0.32308 0.0
N983 N 0.72241 0.48217 0.21882 0.0
C984 C 0.69914 0.49766 0.29684 0.0
C985 C 0.7166 0.48429 0.2452 0.0
N986 N 0.65682 0.47932 0.28567 0.0
N987 N 0.75886 0.50325 0.25605 0.0
H988 H 0.70897 0.47482 0.20505 0.0
H989 H 0.73847 0.49153 0.21007 0.0
H990 H 0.77242 0.51048 0.26973 0.0
H991 H 0.76765 0.49529 0.23912 0.0
H992 H 0.64785 0.4878 0.30227 0.0
H993 H 0.64369 0.471 0.27209 0.0
H994 H 0.67717 0.49078 0.33192 0.0
H995 H 0.70587 0.50957 0.33643 0.0
C996 C 0.50511 0.70346 0.27725 0.0
C997 C 0.50322 0.69942 0.24937 0.0
C998 C 0.46228 0.72497 0.24822 0.0
C999 C 0.46329 0.72704 0.27637 0.0
N1000 N 0.48836 0.72597 0.31648 0.0
N1001 N 0.48163 0.70685 0.2077 0.0
C1002 C 0.48554 0.7185 0.29053 0.0
C1003 C 0.48246 0.71076 0.23458 0.0
N1004 N 0.52542 0.69254 0.2911 0.0
N1005 N 0.44208 0.73654 0.2347 0.0
H1006 H 0.49603 0.6963 0.19736 0.0
H1007 H 0.46649 0.71302 0.19545 0.0
H1008 H 0.42665 0.7465 0.24392 0.0
H1009 H 0.44074 0.73745 0.21419 0.0
H1010 H 0.52613 0.69173 0.31168 0.0
H1011 H 0.54126 0.683 0.28213 0.0
H1012 H 0.5053 0.72291 0.32754 0.0
H1013 H 0.47446 0.73761 0.32637 0.0
C1014 C 0.26781 0.51391 0.27619 0.0
C1015 C 0.27616 0.50924 0.24959 0.0
C1016 C 0.25151 0.46748 0.24849 0.0
C1017 C 0.24557 0.47107 0.27583 0.0
N1018 N 0.24102 0.49972 0.31355 0.0
N1019 N 0.27593 0.48263 0.20982 0.0
C1020 C 0.25165 0.49496 0.28905 0.0
C1021 C 0.26767 0.48645 0.2354 0.0
N1022 N 0.27594 0.53621 0.28934 0.0
N1023 N 0.24119 0.44622 0.23513 0.0
H1024 H 0.28758 0.49636 0.19979 0.0
H1025 H 0.27246 0.46554 0.19874 0.0
H1026 H 0.22829 0.43285 0.24392 0.0
H1027 H 0.24346 0.44277 0.21493 0.0
H1028 H 0.27346 0.53929 0.30959 0.0
H1029 H 0.28639 0.55141 0.28025 0.0
H1030 H 0.24238 0.5177 0.32366 0.0
H1031 H 0.22868 0.48613 0.32295 0.0
C1032 C 0.70541 0.68522 0.49507 0.0
C1033 C 0.72555 0.69805 0.50945 0.0
C1034 C 0.71304 0.74049 0.48919 0.0
C1035 C 0.69289 0.72726 0.47474 0.0
N1036 N 0.66311 0.69009 0.47444 0.0
N1037 N 0.75365 0.7367 0.51378 0.0
C1038 C 0.68716 0.70042 0.48059 0.0
C1039 C 0.73098 0.72536 0.50467 0.0
N1040 N 0.70413 0.65819 0.49483 0.0
N1041 N 0.71352 0.76757 0.49023 0.0
H1042 H 0.76844 0.72609 0.52305 0.0
H1043 H 0.7596 0.75581 0.50885 0.0
H1044 H 0.69834 0.77911 0.4827 0.0
H1045 H 0.7264 0.77844 0.50205 0.0
H1046 H 0.69137 0.64757 0.4826 0.0
H1047 H 0.71795 0.64656 0.50465 0.0
H1048 H 0.65714 0.67117 0.4801 0.0
H1049 H 0.64788 0.70181 0.46723 0.0
C1050 C 0.69862 0.26919 0.46735 0.0
C1051 C 0.72409 0.28051 0.47118 0.0
C1052 C 0.7273 0.2591 0.51445 0.0
C1053 C 0.70068 0.25101 0.51206 0.0
N1054 N 0.66349 0.24126 0.4848 0.0
N1055 N 0.76235 0.28745 0.49843 0.0
C1056 C 0.68708 0.25393 0.48797 0.0
C1057 C 0.73856 0.27538 0.49455 0.0
N1058 N 0.68534 0.27351 0.44425 0.0
N1059 N 0.74198 0.25073 0.53542 0.0
H1060 H 0.77123 0.2995 0.48424 0.0
H1061 H 0.77241 0.28725 0.51636 0.0
H1062 H 0.73448 0.23908 0.55064 0.0
H1063 H 0.76225 0.25319 0.53658 0.0
H1064 H 0.66612 0.26762 0.44063 0.0
H1065 H 0.69321 0.28394 0.42844 0.0
H1066 H 0.6527 0.24081 0.46736 0.0
H1067 H 0.65537 0.22933 0.49957 0.0
C1068 C 0.27068 0.71592 0.46626 0.0
C1069 C 0.24679 0.70167 0.46972 0.0
C1070 C 0.24597 0.71492 0.51641 0.0
C1071 C 0.27196 0.72488 0.51343 0.0
N1072 N 0.30893 0.73668 0.48612 0.0
N1073 N 0.21052 0.68858 0.49747 0.0
C1074 C 0.28437 0.7258 0.48851 0.0
C1075 C 0.23383 0.70175 0.49459 0.0
N1076 N 0.27911 0.72163 0.44137 0.0
N1077 N 0.23299 0.7183 0.53997 0.0
H1078 H 0.20098 0.67946 0.48156 0.0
H1079 H 0.20124 0.68555 0.5156 0.0
H1080 H 0.24146 0.72755 0.55639 0.0
H1081 H 0.21325 0.71373 0.54282 0.0
H1082 H 0.29646 0.73146 0.43671 0.0
H1083 H 0.26613 0.7203 0.42578 0.0
H1084 H 0.3203 0.73575 0.46898 0.0
H1085 H 0.3187 0.74576 0.50191 0.0
C1086 C 0.26979 0.27845 0.50824 0.0
C1087 C 0.24223 0.28148 0.50542 0.0
C1088 C 0.24347 0.25733 0.46315 0.0
C1089 C 0.27122 0.2551 0.46588 0.0
N1090 N 0.3091 0.25534 0.49395 0.0
N1091 N 0.20246 0.27557 0.48048 0.0
C1092 C 0.28387 0.26323 0.48935 0.0
C1093 C 0.22885 0.27116 0.48302 0.0
N1094 N 0.28269 0.2912 0.52837 0.0
N1095 N 0.23124 0.24575 0.44192 0.0
H1096 H 0.19156 0.28587 0.49474 0.0
H1097 H 0.19143 0.27045 0.46391 0.0
H1098 H 0.24131 0.23545 0.42713 0.0
H1099 H 0.211 0.24491 0.43939 0.0
H1100 H 0.30307 0.29207 0.52979 0.0
H1101 H 0.27313 0.3028 0.54261 0.0
H1102 H 0.3187 0.25824 0.51194 0.0
H1103 H 0.3195 0.24346 0.48055 0.0
C1104 C 0.10343 0.14645 0.26029 0.0
C1105 C 0.11782 0.12929 0.24364 0.0
C1106 C 0.10946 0.15728 0.20552 0.0
C1107 C 0.10081 0.17731 0.2234 0.0
N1108 N 0.08283 0.18975 0.2657 0.0
N1109 N 0.12493 0.11182 0.2001 0.0
C1110 C 0.09497 0.17122 0.25011 0.0
C1111 C 0.11673 0.13227 0.21591 0.0
N1112 N 0.09971 0.13935 0.28605 0.0
N1113 N 0.11251 0.16293 0.17923 0.0
H1114 H 0.13039 0.09362 0.20813 0.0
H1115 H 0.12462 0.11206 0.17949 0.0
H1116 H 0.10635 0.18082 0.17114 0.0
H1117 H 0.12103 0.15015 0.16544 0.0
H1118 H 0.08939 0.15056 0.29995 0.0
H1119 H 0.10644 0.12108 0.29295 0.0
H1120 H 0.07888 0.18733 0.28577 0.0
H1121 H 0.07612 0.20769 0.25804 0.0
C1122 C 0.81168 0.14584 0.24427 0.0
C1123 C 0.83537 0.13239 0.24909 0.0
C1124 C 0.81411 0.09293 0.23007 0.0
C1125 C 0.78988 0.10712 0.22992 0.0
N1126 N 0.76512 0.14394 0.24751 0.0
N1127 N 0.85854 0.09069 0.24837 0.0
C1128 C 0.78851 0.13175 0.24262 0.0
C1129 C 0.83653 0.10489 0.24278 0.0
N1130 N 0.81221 0.17045 0.23396 0.0
N1131 N 0.81582 0.06904 0.21751 0.0
H1132 H 0.87498 0.09952 0.25707 0.0
H1133 H 0.85968 0.07022 0.24573 0.0
H1134 H 0.79939 0.06007 0.20901 0.0
H1135 H 0.83346 0.05888 0.21496 0.0
H1136 H 0.79536 0.1806 0.22805 0.0
H1137 H 0.82989 0.17728 0.22666 0.0
H1138 H 0.76423 0.16299 0.25573 0.0
H1139 H 0.74728 0.13395 0.24539 0.0
C1140 C 0.87642 0.82106 0.21513 0.0
C1141 C 0.86931 0.79875 0.23071 0.0
C1142 C 0.85539 0.82872 0.26632 0.0
C1143 C 0.85465 0.84951 0.24778 0.0
N1144 N 0.87021 0.86839 0.20754 0.0
N1145 N 0.85579 0.78099 0.27277 0.0
C1146 C 0.86809 0.84674 0.22347 0.0
C1147 C 0.86056 0.8025 0.25716 0.0
N1148 N 0.89033 0.81746 0.19226 0.0
N1149 N 0.84898 0.83411 0.29204 0.0
H1150 H 0.86026 0.76171 0.26664 0.0
H1151 H 0.84684 0.78215 0.29132 0.0
H1152 H 0.84459 0.85344 0.29817 0.0
H1153 H 0.85007 0.82028 0.30722 0.0
H1154 H 0.89718 0.83286 0.18047 0.0
H1155 H 0.89672 0.79879 0.18621 0.0
H1156 H 0.8773 0.86788 0.18818 0.0
H1157 H 0.86409 0.88707 0.21415 0.0
C1158 C 0.15167 0.85706 0.21271 0.0
C1159 C 0.17157 0.86888 0.22861 0.0
C1160 C 0.13972 0.87383 0.26498 0.0
C1161 C 0.12158 0.85814 0.25036 0.0
N1162 N 0.10505 0.8492 0.20662 0.0
N1163 N 0.18251 0.8957 0.26672 0.0
C1164 C 0.1258 0.85444 0.22292 0.0
C1165 C 0.1648 0.88007 0.25363 0.0
N1166 N 0.15763 0.8477 0.18803 0.0
N1167 N 0.13309 0.8815 0.29012 0.0
H1168 H 0.20109 0.89992 0.2591 0.0
H1169 H 0.17849 0.90569 0.28435 0.0
H1170 H 0.11431 0.87798 0.29777 0.0
H1171 H 0.14572 0.89104 0.30324 0.0
H1172 H 0.14509 0.83525 0.1774 0.0
H1173 H 0.17559 0.85159 0.17885 0.0
H1174 H 0.10673 0.84772 0.18608 0.0
H1175 H 0.08569 0.8501 0.21339 0.0
C1176 C 0.13558 0.80507 0.75397 0.0
C1177 C 0.11057 0.7929 0.75132 0.0
C1178 C 0.09737 0.83346 0.72712 0.0
C1179 C 0.12165 0.84532 0.73389 0.0
N1180 N 0.15285 0.84607 0.76877 0.0
N1181 N 0.06409 0.8024 0.74192 0.0
C1182 C 0.13677 0.83248 0.75264 0.0
C1183 C 0.09002 0.80896 0.73981 0.0
N1184 N 0.15843 0.79117 0.75602 0.0
N1185 N 0.08131 0.84569 0.70951 0.0
H1186 H 0.05702 0.78628 0.75247 0.0
H1187 H 0.04922 0.81501 0.73555 0.0
H1188 H 0.08618 0.86409 0.70144 0.0
H1189 H 0.06409 0.83698 0.70242 0.0
H1190 H 0.17635 0.8007 0.75935 0.0
H1191 H 0.15997 0.77127 0.75051 0.0
H1192 H 0.15267 0.86676 0.76976 0.0
H1193 H 0.15267 0.86676 0.76976 0.0
C1194 C 0.16911 0.09924 0.73707 0.0
C1195 C 0.17714 0.11518 0.75907 0.0
C1196 C 0.13124 0.12766 0.76656 0.0
C1197 C 0.12513 0.1187 0.74085 0.0
N1198 N 0.13513 0.09063 0.70405 0.0
N1199 N 0.16501 0.14497 0.79515 0.0
C1200 C 0.14292 0.10182 0.72743 0.0
C1201 C 0.15794 0.12934 0.77413 0.0
N1202 N 0.18664 0.08286 0.72461 0.0
N1203 N 0.1115 0.13508 0.78335 0.0
H1204 H 0.18393 0.14556 0.80289 0.0
H1205 H 0.15214 0.15838 0.80411 0.0
H1206 H 0.09179 0.13266 0.7782 0.0
H1207 H 0.11464 0.14039 0.80308 0.0
H1208 H 0.1813 0.06885 0.71038 0.0
H1209 H 0.20661 0.08247 0.72903 0.0
H1210 H 0.1475 0.08043 0.69111 0.0
H1211 H 0.11574 0.09239 0.69751 0.0
C1212 C 0.85525 0.18112 0.72506 0.0
C1213 C 0.86803 0.18449 0.74987 0.0
C1214 C 0.87544 0.1364 0.75209 0.0
C1215 C 0.85877 0.13317 0.73008 0.0
N1216 N 0.84335 0.15078 0.68922 0.0
N1217 N 0.89735 0.16619 0.78279 0.0
C1218 C 0.85307 0.15518 0.71402 0.0
C1219 C 0.8809 0.16244 0.76178 0.0
N1220 N 0.84432 0.20246 0.71273 0.0
N1221 N 0.8831 0.11422 0.76533 0.0
H1222 H 0.90134 0.18473 0.79085 0.0
H1223 H 0.90861 0.15123 0.79112 0.0
H1224 H 0.87889 0.09533 0.75782 0.0
H1225 H 0.89262 0.11435 0.78354 0.0
H1226 H 0.83218 0.20092 0.69623 0.0
H1227 H 0.84681 0.22185 0.71962 0.0
H1228 H 0.8395 0.16576 0.67568 0.0
H1229 H 0.84136 0.13155 0.68167 0.0
C1230 C 0.80815 0.82863 0.74576 0.0
C1231 C 0.8307 0.84302 0.73828 0.0
C1232 C 0.80978 0.88253 0.75785 0.0
C1233 C 0.78581 0.86783 0.76028 0.0
N1234 N 0.76137 0.82916 0.74571 0.0
N1235 N 0.85269 0.88537 0.73609 0.0
C1236 C 0.78467 0.8418 0.75031 0.0
C1237 C 0.83158 0.87067 0.74396 0.0
N1238 N 0.80993 0.8027 0.75216 0.0
N1239 N 0.81206 0.90694 0.7694 0.0
H1240 H 0.86874 0.8769 0.72634 0.0
H1241 H 0.85341 0.90595 0.73779 0.0
H1242 H 0.79666 0.91582 0.77978 0.0
H1243 H 0.82971 0.91739 0.77024 0.0
H1244 H 0.794 0.79159 0.75901 0.0
H1245 H 0.82832 0.79492 0.75573 0.0
H1246 H 0.76063 0.81007 0.73762 0.0
H1247 H 0.74326 0.83877 0.74695 0.0
C1248 C 0.23995 0.09561 0.16757 0.0
C1249 C 0.219 0.1107 0.17848 0.0
C1250 C 0.20926 0.12775 0.13439 0.0
C1251 C 0.23482 0.12055 0.12646 0.0
N1252 N 0.27157 0.09179 0.13127 0.0
N1253 N 0.18157 0.13942 0.17166 0.0
C1254 C 0.24873 0.10166 0.14142 0.0
C1255 C 0.2026 0.12585 0.16157 0.0
N1256 N 0.25186 0.07659 0.18241 0.0
N1257 N 0.19249 0.13831 0.11628 0.0
H1258 H 0.17512 0.13732 0.19119 0.0
H1259 H 0.17126 0.15355 0.16093 0.0
H1260 H 0.19758 0.1395 0.09626 0.0
H1261 H 0.17305 0.14318 0.12057 0.0
H1262 H 0.26618 0.06382 0.17499 0.0
H1263 H 0.24602 0.07236 0.20176 0.0
H1264 H 0.28447 0.07982 0.14175 0.0
H1265 H 0.27755 0.09645 0.11201 0.0
C1266 C 0.87421 0.25778 0.14699 0.0
C1267 C 0.8547 0.24453 0.13187 0.0
C1268 C 0.85233 0.20936 0.16505 0.0
C1269 C 0.86832 0.22493 0.18216 0.0
N1270 N 0.90114 0.259 0.18684 0.0
N1271 N 0.83253 0.20359 0.12167 0.0
C1272 C 0.8817 0.24744 0.17215 0.0
C1273 C 0.84612 0.2189 0.13935 0.0
N1274 N 0.88446 0.28094 0.13758 0.0
N1275 N 0.84342 0.18527 0.17345 0.0
H1276 H 0.82945 0.20931 0.10216 0.0
H1277 H 0.82642 0.18427 0.12524 0.0
H1278 H 0.85198 0.17561 0.18944 0.0
H1279 H 0.82828 0.17465 0.16452 0.0
H1280 H 0.89697 0.29333 0.14824 0.0
H1281 H 0.87998 0.28786 0.11865 0.0
H1282 H 0.9133 0.27409 0.18001 0.0
H1283 H 0.90612 0.25239 0.20567 0.0
C1284 C 0.7497 0.88677 0.1622 0.0
C1285 C 0.76238 0.86674 0.17735 0.0
C1286 C 0.75896 0.8383 0.13888 0.0
C1287 C 0.73894 0.85386 0.12794 0.0
N1288 N 0.71532 0.89513 0.12992 0.0
N1289 N 0.76875 0.819 0.1804 0.0
C1290 C 0.73417 0.87892 0.13985 0.0
C1291 C 0.76432 0.84114 0.16584 0.0
N1292 N 0.75385 0.91287 0.16764 0.0
N1293 N 0.77381 0.82155 0.12412 0.0
H1294 H 0.76768 0.81848 0.201 0.0
H1295 H 0.76856 0.8005 0.17137 0.0
H1296 H 0.77243 0.82034 0.10351 0.0
H1297 H 0.77243 0.82034 0.10351 0.0
H1298 H 0.74657 0.92785 0.15558 0.0
H1299 H 0.76754 0.91908 0.18167 0.0
H1300 H 0.70991 0.91282 0.13927 0.0
H1301 H 0.70466 0.89005 0.11297 0.0
C1302 C 0.08829 0.74691 0.17085 0.0
C1303 C 0.10815 0.76068 0.18594 0.0
C1304 C 0.13311 0.76339 0.14543 0.0
C1305 C 0.11944 0.74242 0.13389 0.0
N1306 N 0.08111 0.71493 0.13483 0.0
N1307 N 0.15538 0.7689 0.18642 0.0
C1308 C 0.09596 0.73421 0.14639 0.0
C1309 C 0.13238 0.76566 0.17296 0.0
N1310 N 0.06262 0.74675 0.17864 0.0
N1311 N 0.15016 0.778 0.13117 0.0
H1312 H 0.15733 0.76461 0.20651 0.0
H1313 H 0.17324 0.77102 0.17654 0.0
H1314 H 0.15138 0.77724 0.11052 0.0
H1315 H 0.15138 0.77724 0.11052 0.0
H1316 H 0.04782 0.73841 0.16703 0.0
H1317 H 0.05564 0.75754 0.19478 0.0
H1318 H 0.06455 0.70681 0.14391 0.0
H1319 H 0.08637 0.70676 0.11649 0.0
C1320 C 0.20161 0.8588 0.81993 0.0
C1321 C 0.21749 0.86953 0.7995 0.0
C1322 C 0.25193 0.87838 0.83242 0.0
C1323 C 0.23861 0.86155 0.85042 0.0
N1324 N 0.19796 0.84185 0.86479 0.0
N1325 N 0.25444 0.8971 0.78798 0.0
C1326 C 0.21219 0.85438 0.84554 0.0
C1327 C 0.24154 0.88213 0.80637 0.0
N1328 N 0.17586 0.85471 0.8146 0.0
N1329 N 0.27553 0.88876 0.84004 0.0
H1330 H 0.24746 0.89959 0.76875 0.0
H1331 H 0.27159 0.90769 0.7917 0.0
H1332 H 0.2826 0.88606 0.85926 0.0
H1333 H 0.28773 0.90011 0.82805 0.0
H1334 H 0.16161 0.84914 0.82837 0.0
H1335 H 0.16161 0.84914 0.82837 0.0
H1336 H 0.18076 0.83121 0.86144 0.0
H1337 H 0.20326 0.84276 0.88471 0.0
C1338 C 0.09894 0.2126 0.81941 0.0
C1339 C 0.10464 0.22537 0.79502 0.0
C1340 C 0.11867 0.26469 0.81933 0.0
C1341 C 0.12119 0.24903 0.84217 0.0
N1342 N 0.10655 0.21163 0.86715 0.0
N1343 N 0.11903 0.26435 0.77142 0.0
C1344 C 0.10822 0.22431 0.84341 0.0
C1345 C 0.11347 0.25202 0.79482 0.0
N1346 N 0.08532 0.18926 0.81931 0.0
N1347 N 0.12367 0.29118 0.82112 0.0
H1348 H 0.11535 0.25567 0.75298 0.0
H1349 H 0.12858 0.2826 0.77036 0.0
H1350 H 0.12804 0.30003 0.83938 0.0
H1351 H 0.12112 0.30425 0.80543 0.0
H1352 H 0.07921 0.17951 0.83636 0.0
H1353 H 0.07868 0.18051 0.80179 0.0
H1354 H 0.09958 0.19238 0.86948 0.0
H1355 H 0.1123 0.22091 0.88475 0.0
C1356 C 0.77199 0.12131 0.82233 0.0
C1357 C 0.75523 0.10794 0.8041 0.0
C1358 C 0.72312 0.10055 0.83941 0.0
C1359 C 0.73675 0.11936 0.85488 0.0
N1360 N 0.77782 0.13859 0.86724 0.0
N1361 N 0.71973 0.07717 0.79705 0.0
C1362 C 0.76314 0.12538 0.84876 0.0
C1363 C 0.73246 0.09463 0.81335 0.0
N1364 N 0.7958 0.13067 0.81409 0.0
N1365 N 0.70033 0.09038 0.84927 0.0
H1366 H 0.72658 0.07271 0.77802 0.0
H1367 H 0.70329 0.06626 0.80262 0.0
H1368 H 0.69406 0.0953 0.86844 0.0
H1369 H 0.68813 0.07729 0.8391 0.0
H1370 H 0.80986 0.13901 0.82648 0.0
H1371 H 0.80204 0.12915 0.79458 0.0
H1372 H 0.79666 0.14595 0.86413 0.0
H1373 H 0.77088 0.14138 0.88655 0.0
C1374 C 0.85881 0.7645 0.84237 0.0
C1375 C 0.86124 0.73749 0.84913 0.0
C1376 C 0.8812 0.72798 0.80573 0.0
C1377 C 0.87246 0.75309 0.79698 0.0
N1378 N 0.856 0.79692 0.80717 0.0
N1379 N 0.88202 0.69576 0.84172 0.0
C1380 C 0.86264 0.77209 0.81552 0.0
C1381 C 0.87566 0.72023 0.83233 0.0
N1382 N 0.85251 0.78255 0.86164 0.0
N1383 N 0.89369 0.71143 0.78827 0.0
H1384 H 0.87788 0.69055 0.86132 0.0
H1385 H 0.89166 0.68113 0.83086 0.0
H1386 H 0.898 0.71699 0.76884 0.0
H1387 H 0.90044 0.6926 0.79291 0.0
H1388 H 0.85123 0.80287 0.8585 0.0
H1389 H 0.85151 0.77726 0.88157 0.0
H1390 H 0.84551 0.81047 0.81866 0.0
H1391 H 0.86043 0.80378 0.78821 0.0
C1392 C 0.13198 0.23019 0.09982 0.0
C1393 C 0.12886 0.25103 0.11827 0.0
C1394 C 0.17626 0.25477 0.12371 0.0
C1395 C 0.17932 0.23097 0.1089 0.0
N1396 N 0.16154 0.19912 0.07789 0.0
N1397 N 0.14693 0.29035 0.13753 0.0
C1398 C 0.15767 0.22001 0.09476 0.0
C1399 C 0.15088 0.26624 0.12585 0.0
N1400 N 0.10989 0.21863 0.08974 0.0
N1401 N 0.19716 0.26535 0.13706 0.0
H1402 H 0.12805 0.2982 0.13961 0.0
H1403 H 0.16207 0.30322 0.14286 0.0
H1404 H 0.21621 0.25796 0.13515 0.0
H1405 H 0.19546 0.28071 0.15084 0.0
H1406 H 0.10973 0.20183 0.07768 0.0
H1407 H 0.09132 0.22643 0.09398 0.0
H1408 H 0.14699 0.19089 0.06597 0.0
H1409 H 0.17991 0.1905 0.07517 0.0
C1410 C 0.16102 0.7726 0.83892 0.0
C1411 C 0.17958 0.75982 0.85575 0.0
C1412 C 0.14505 0.72765 0.86842 0.0
C1413 C 0.12801 0.7391 0.84963 0.0
N1414 N 0.11508 0.7802 0.82967 0.0
N1415 N 0.18905 0.72451 0.88672 0.0
C1416 C 0.13449 0.76397 0.83873 0.0
C1417 C 0.1713 0.73757 0.87123 0.0
N1418 N 0.16842 0.79271 0.8225 0.0
N1419 N 0.13564 0.70732 0.8835 0.0
H1420 H 0.20895 0.72921 0.88737 0.0
H1421 H 0.18477 0.7077 0.89772 0.0
H1422 H 0.11631 0.70058 0.88158 0.0
H1423 H 0.14572 0.69861 0.89906 0.0
H1424 H 0.15634 0.79983 0.80757 0.0
H1425 H 0.18661 0.802 0.82282 0.0
H1426 H 0.11841 0.79953 0.8233 0.0
H1427 H 0.09522 0.77599 0.83244 0.0
C1428 C 0.2439 0.16781 0.88733 0.0
C1429 C 0.22047 0.17688 0.87518 0.0
C1430 C 0.21095 0.13189 0.86005 0.0
C1431 C 0.2375 0.12551 0.86453 0.0
N1432 N 0.2752 0.13125 0.89157 0.0
N1433 N 0.17859 0.16554 0.85478 0.0
C1434 C 0.25227 0.1413 0.88211 0.0
C1435 C 0.20278 0.15835 0.86365 0.0
N1436 N 0.25818 0.18471 0.90288 0.0
N1437 N 0.19464 0.11356 0.84885 0.0
H1438 H 0.17106 0.18473 0.85623 0.0
H1439 H 0.17106 0.18473 0.85623 0.0
H1440 H 0.20071 0.09403 0.84564 0.0
H1441 H 0.17514 0.11776 0.84409 0.0
H1442 H 0.27555 0.17956 0.91231 0.0
H1443 H 0.25197 0.20401 0.90702 0.0
H1444 H 0.28794 0.14139 0.90413 0.0
H1445 H 0.28084 0.11186 0.88687 0.0
C1446 C 0.81051 0.21146 0.84186 0.0
C1447 C 0.79435 0.22403 0.86126 0.0
C1448 C 0.8315 0.25289 0.87343 0.0
C1449 C 0.84613 0.24204 0.85211 0.0
N1450 N 0.85367 0.20262 0.82585 0.0
N1451 N 0.7925 0.25088 0.90127 0.0
C1452 C 0.83716 0.21858 0.83984 0.0
C1453 C 0.80592 0.24261 0.87924 0.0
N1454 N 0.80085 0.19234 0.82525 0.0
N1455 N 0.84172 0.27394 0.88707 0.0
H1456 H 0.77317 0.24548 0.90531 0.0
H1457 H 0.80108 0.26192 0.91645 0.0
H1458 H 0.86085 0.28063 0.88355 0.0
H1459 H 0.83131 0.28497 0.90106 0.0
H1460 H 0.81201 0.18458 0.80963 0.0
H1461 H 0.78214 0.18414 0.82705 0.0
H1462 H 0.87393 0.20558 0.82496 0.0
H1463 H 0.87393 0.20558 0.82496 0.0
C1464 C 0.71764 0.82308 0.84523 0.0
C1465 C 0.72685 0.84814 0.85486 0.0
C1466 C 0.76451 0.82503 0.87494 0.0
C1467 C 0.75725 0.8015 0.86106 0.0
N1468 N 0.73 0.78011 0.82819 0.0
N1469 N 0.75753 0.87249 0.88173 0.0
C1470 C 0.73493 0.80124 0.84458 0.0
C1471 C 0.74987 0.84891 0.87074 0.0
N1472 N 0.69191 0.81919 0.83851 0.0
N1473 N 0.78568 0.82457 0.89151 0.0
H1474 H 0.74597 0.88951 0.88053 0.0
H1475 H 0.77516 0.87541 0.89169 0.0
H1476 H 0.79785 0.80804 0.89314 0.0
H1477 H 0.79077 0.84003 0.90425 0.0
H1478 H 0.68455 0.80092 0.83224 0.0
H1479 H 0.67696 0.83216 0.84402 0.0
H1480 H 0.71578 0.78069 0.81337 0.0
H1481 H 0.74144 0.76299 0.82771 0.0
C1482 C 0.80154 0.76096 0.13894 0.0
C1483 C 0.78921 0.75523 0.11443 0.0
C1484 C 0.83221 0.7369 0.10064 0.0
C1485 C 0.84338 0.7467 0.12443 0.0
N1486 N 0.83952 0.78187 0.1567 0.0
N1487 N 0.7976 0.74189 0.06829 0.0
C1488 C 0.82852 0.76507 0.13889 0.0
C1489 C 0.80596 0.74476 0.09373 0.0
N1490 N 0.78897 0.75806 0.16259 0.0
N1491 N 0.84615 0.71948 0.08546 0.0
H1492 H 0.77857 0.74563 0.06237 0.0
H1493 H 0.81032 0.73688 0.05281 0.0
H1494 H 0.86543 0.71441 0.09034 0.0
H1495 H 0.83816 0.70962 0.06914 0.0
H1496 H 0.79867 0.76144 0.18053 0.0
H1497 H 0.77043 0.74935 0.16415 0.0
H1498 H 0.85982 0.78462 0.15779 0.0
H1499 H 0.85982 0.78462 0.15779 0.0
C1500 C 0.24662 0.80778 0.1028 0.0
C1501 C 0.22128 0.80176 0.11343 0.0
C1502 C 0.21344 0.84947 0.11828 0.0
C1503 C 0.24054 0.85359 0.11817 0.0
N1504 N 0.28034 0.84217 0.09642 0.0
N1505 N 0.18269 0.81917 0.13548 0.0
C1506 C 0.25614 0.83452 0.10504 0.0
C1507 C 0.20479 0.82326 0.12127 0.0
N1508 N 0.26193 0.78801 0.09261 0.0
N1509 N 0.19668 0.8699 0.12315 0.0
H1510 H 0.16792 0.83341 0.13692 0.0
H1511 H 0.18295 0.80494 0.15025 0.0
H1512 H 0.20287 0.88966 0.12345 0.0
H1513 H 0.20287 0.88966 0.12345 0.0
H1514 H 0.28065 0.79097 0.08487 0.0
H1515 H 0.25586 0.76827 0.09225 0.0
H1516 H 0.29337 0.82994 0.08622 0.0
H1517 H 0.2866 0.86178 0.09898 0.0
C1518 C 0.71213 0.16046 0.11218 0.0
C1519 C 0.72691 0.13712 0.11611 0.0
C1520 C 0.76588 0.16028 0.09991 0.0
C1521 C 0.75313 0.18461 0.10601 0.0
N1522 N 0.71298 0.20844 0.11501 0.0
N1523 N 0.76552 0.11226 0.10501 0.0
C1524 C 0.72567 0.18498 0.11058 0.0
C1525 C 0.75294 0.13606 0.10638 0.0
N1526 N 0.68541 0.15906 0.11338 0.0
N1527 N 0.79004 0.1605 0.08815 0.0
H1528 H 0.75537 0.09445 0.10753 0.0
H1529 H 0.78554 0.11019 0.10135 0.0
H1530 H 0.79928 0.17807 0.08261 0.0
H1531 H 0.79977 0.14348 0.08178 0.0
H1532 H 0.67315 0.17516 0.1098 0.0
H1533 H 0.67588 0.14087 0.11592 0.0
H1534 H 0.69355 0.20961 0.12143 0.0
H1535 H 0.72237 0.22676 0.11331 0.0
C1536 C 0.61589 0.63243 0.71939 0.0
C1537 C 0.60996 0.63055 0.74654 0.0
C1538 C 0.59684 0.67758 0.74636 0.0
C1539 C 0.6103 0.68076 0.72163 0.0
N1540 N 0.63479 0.65991 0.68568 0.0
N1541 N 0.58831 0.64903 0.78447 0.0
C1542 C 0.62023 0.6578 0.70831 0.0
C1543 C 0.5976 0.65237 0.75928 0.0
N1544 N 0.6177 0.60995 0.70435 0.0
N1545 N 0.58444 0.69869 0.75797 0.0
H1546 H 0.58784 0.6303 0.79323 0.0
H1547 H 0.58167 0.66432 0.79667 0.0
H1548 H 0.58553 0.71789 0.75055 0.0
H1549 H 0.57227 0.69715 0.77449 0.0
H1550 H 0.62042 0.61023 0.68387 0.0
H1551 H 0.61308 0.59137 0.71213 0.0
H1552 H 0.64454 0.64385 0.67706 0.0
H1553 H 0.63932 0.67781 0.67684 0.0
C1554 C 0.31634 0.59188 0.72387 0.0
C1555 C 0.29072 0.60304 0.7238 0.0
C1556 C 0.30806 0.64499 0.73732 0.0
C1557 C 0.33328 0.63398 0.74172 0.0
N1558 N 0.36091 0.59507 0.74135 0.0
N1559 N 0.26191 0.63704 0.74085 0.0
C1560 C 0.33744 0.60668 0.73572 0.0
C1561 C 0.28654 0.62823 0.73484 0.0
N1562 N 0.32039 0.56771 0.71234 0.0
N1563 N 0.30486 0.67137 0.73269 0.0
H1564 H 0.24547 0.62471 0.7398 0.0
H1565 H 0.25862 0.65551 0.7497 0.0
H1566 H 0.32083 0.68378 0.72985 0.0
H1567 H 0.28681 0.67965 0.72759 0.0
H1568 H 0.33898 0.55954 0.70957 0.0
H1569 H 0.30489 0.55646 0.70469 0.0
H1570 H 0.36424 0.5748 0.73916 0.0
H1571 H 0.37641 0.60565 0.74984 0.0
C1572 C 0.38105 0.3188 0.72305 0.0
C1573 C 0.37005 0.2969 0.73702 0.0
C1574 C 0.35268 0.32763 0.77041 0.0
C1575 C 0.35668 0.34858 0.75249 0.0
N1576 N 0.381 0.3669 0.71674 0.0
N1577 N 0.34736 0.2801 0.77542 0.0
C1578 C 0.37388 0.34505 0.73087 0.0
C1579 C 0.357 0.30118 0.76156 0.0
N1580 N 0.39699 0.31437 0.70169 0.0
N1581 N 0.34232 0.33323 0.79475 0.0
H1582 H 0.35114 0.2605 0.76987 0.0
H1583 H 0.33499 0.28199 0.79179 0.0
H1584 H 0.33857 0.35277 0.8006 0.0
H1585 H 0.33964 0.31916 0.80953 0.0
H1586 H 0.40586 0.32922 0.6906 0.0
H1587 H 0.40237 0.29539 0.69571 0.0
H1588 H 0.39229 0.36656 0.69954 0.0
H1589 H 0.37526 0.38585 0.72296 0.0
C1590 C 0.64114 0.36406 0.73243 0.0
C1591 C 0.6433 0.33901 0.74508 0.0
C1592 C 0.69063 0.34195 0.74117 0.0
C1593 C 0.68851 0.36269 0.72305 0.0
N1594 N 0.66012 0.39169 0.69807 0.0
N1595 N 0.67136 0.29989 0.74805 0.0
C1596 C 0.66331 0.37375 0.71787 0.0
C1597 C 0.66841 0.32667 0.74598 0.0
N1598 N 0.61848 0.37834 0.73414 0.0
N1599 N 0.71414 0.33552 0.75224 0.0
H1600 H 0.65581 0.28669 0.74641 0.0
H1601 H 0.68974 0.29078 0.74696 0.0
H1602 H 0.73068 0.34755 0.74993 0.0
H1603 H 0.71592 0.32028 0.76603 0.0
H1604 H 0.61693 0.39757 0.72684 0.0
H1605 H 0.60223 0.37177 0.74492 0.0
H1606 H 0.64177 0.39883 0.69247 0.0
H1607 H 0.67559 0.39728 0.68575 0.0
C1608 C 0.61141 0.32788 0.22084 0.0
C1609 C 0.62544 0.34772 0.2347 0.0
C1610 C 0.62198 0.32154 0.27541 0.0
C1611 C 0.61439 0.29926 0.25979 0.0
N1612 N 0.60006 0.28142 0.21748 0.0
N1613 N 0.63716 0.36728 0.27687 0.0
C1614 C 0.60779 0.30262 0.23261 0.0
C1615 C 0.62829 0.34594 0.26266 0.0
N1616 N 0.60199 0.3334 0.19617 0.0
N1617 N 0.62244 0.31936 0.30243 0.0
H1618 H 0.63765 0.38638 0.26928 0.0
H1619 H 0.64294 0.3666 0.29659 0.0
H1620 H 0.61695 0.30206 0.31221 0.0
H1621 H 0.62628 0.33495 0.31543 0.0
H1622 H 0.58951 0.32085 0.18562 0.0
H1623 H 0.60457 0.35201 0.18756 0.0
H1624 H 0.59755 0.28228 0.19704 0.0
H1625 H 0.59806 0.26225 0.22472 0.0
C1626 C 0.67118 0.6045 0.22362 0.0
C1627 C 0.67858 0.61044 0.24999 0.0
C1628 C 0.63398 0.6267 0.25985 0.0
C1629 C 0.62816 0.62495 0.23237 0.0
N1630 N 0.63635 0.60376 0.19057 0.0
N1631 N 0.66558 0.619 0.29515 0.0
C1632 C 0.6452 0.61067 0.21519 0.0
C1633 C 0.65939 0.61889 0.26879 0.0
N1634 N 0.68934 0.59402 0.20656 0.0
N1635 N 0.61541 0.63599 0.27715 0.0
H1636 H 0.68291 0.61067 0.3022 0.0
H1637 H 0.65317 0.62528 0.3103 0.0
H1638 H 0.59567 0.63754 0.2721 0.0
H1639 H 0.61896 0.64101 0.29682 0.0
H1640 H 0.68624 0.59132 0.18636 0.0
H1641 H 0.70809 0.58848 0.21272 0.0
H1642 H 0.64684 0.59219 0.1771 0.0
H1643 H 0.61721 0.60806 0.18456 0.0
C1644 C 0.37124 0.64962 0.22542 0.0
C1645 C 0.3571 0.62973 0.23914 0.0
C1646 C 0.34873 0.66009 0.27576 0.0
C1647 C 0.36049 0.68122 0.26123 0.0
N1648 N 0.3875 0.6948 0.22392 0.0
N1649 N 0.34655 0.61258 0.28201 0.0
C1650 C 0.37377 0.67546 0.23686 0.0
C1651 C 0.35063 0.63383 0.26593 0.0
N1652 N 0.37988 0.64415 0.20032 0.0
N1653 N 0.3352 0.66482 0.29867 0.0
H1654 H 0.3497 0.5932 0.27535 0.0
H1655 H 0.3436 0.61436 0.3024 0.0
H1656 H 0.33504 0.68309 0.30821 0.0
H1657 H 0.32314 0.65062 0.30748 0.0
H1658 H 0.38736 0.65822 0.18732 0.0
H1659 H 0.37872 0.62499 0.19241 0.0
H1660 H 0.40033 0.69099 0.20826 0.0
H1661 H 0.38664 0.7148 0.229 0.0
C1662 C 0.33261 0.36867 0.24218 0.0
C1663 C 0.32976 0.34169 0.23413 0.0
C1664 C 0.2826 0.34491 0.24105 0.0
C1665 C 0.28561 0.36935 0.254 0.0
N1666 N 0.31381 0.405 0.26823 0.0
N1667 N 0.30294 0.30273 0.24044 0.0
C1668 C 0.31078 0.38161 0.2549 0.0
C1669 C 0.30489 0.32937 0.23716 0.0
N1670 N 0.35561 0.38179 0.23758 0.0
N1671 N 0.25829 0.33535 0.23484 0.0
H1672 H 0.31943 0.29185 0.24527 0.0
H1673 H 0.28514 0.29306 0.24402 0.0
H1674 H 0.24136 0.34672 0.23741 0.0
H1675 H 0.25568 0.31752 0.22457 0.0
H1676 H 0.35801 0.402 0.24122 0.0
H1677 H 0.37164 0.37269 0.22841 0.0
H1678 H 0.33205 0.41368 0.27181 0.0
H1679 H 0.29783 0.41501 0.27652 0.0
C1680 C 0.71537 0.60245 0.66795 0.0
C1681 C 0.71315 0.61612 0.69261 0.0
C1682 C 0.73086 0.65555 0.67341 0.0
C1683 C 0.73642 0.64216 0.64916 0.0
N1684 N 0.73673 0.6009 0.62453 0.0
N1685 N 0.72976 0.65113 0.72053 0.0
C1686 C 0.72954 0.61484 0.64663 0.0
C1687 C 0.72509 0.6409 0.69589 0.0
N1688 N 0.70391 0.57818 0.66496 0.0
N1689 N 0.72846 0.68243 0.67474 0.0
H1690 H 0.72641 0.64025 0.7377 0.0
H1691 H 0.73982 0.66897 0.7234 0.0
H1692 H 0.72829 0.69409 0.65797 0.0
H1693 H 0.72253 0.69241 0.69192 0.0
H1694 H 0.70287 0.56814 0.6469 0.0
H1695 H 0.69452 0.56872 0.68069 0.0
H1696 H 0.73402 0.58052 0.62253 0.0
H1697 H 0.74709 0.6096 0.60897 0.0
C1698 C 0.36493 0.76147 0.67952 0.0
C1699 C 0.36912 0.73402 0.68312 0.0
C1700 C 0.36044 0.72552 0.63594 0.0
C1701 C 0.35328 0.7525 0.63336 0.0
N1702 N 0.35728 0.79739 0.6487 0.0
N1703 N 0.37692 0.69059 0.66461 0.0
C1704 C 0.35887 0.77089 0.65387 0.0
C1705 C 0.36934 0.71631 0.66107 0.0
N1706 N 0.36509 0.77817 0.70097 0.0
N1707 N 0.35708 0.70865 0.61493 0.0
H1708 H 0.38283 0.68336 0.68297 0.0
H1709 H 0.3789 0.67677 0.64936 0.0
H1710 H 0.35191 0.71536 0.59617 0.0
H1711 H 0.35929 0.68819 0.61585 0.0
H1712 H 0.35872 0.79775 0.70038 0.0
H1713 H 0.37075 0.77202 0.71982 0.0
H1714 H 0.36262 0.81217 0.66214 0.0
H1715 H 0.35282 0.8044 0.6298 0.0
C1716 C 0.235 0.38684 0.66447 0.0
C1717 C 0.25425 0.37029 0.67601 0.0
C1718 C 0.26369 0.35143 0.63234 0.0
C1719 C 0.23911 0.3607 0.62349 0.0
N1720 N 0.20466 0.39261 0.62766 0.0
N1721 N 0.28846 0.33744 0.67051 0.0
C1722 C 0.22631 0.3809 0.63824 0.0
C1723 C 0.26939 0.353 0.65975 0.0
N1724 N 0.22475 0.40749 0.67871 0.0
N1725 N 0.28098 0.34053 0.61469 0.0
H1726 H 0.29313 0.33781 0.69057 0.0
H1727 H 0.29877 0.32325 0.65969 0.0
H1728 H 0.2773 0.34063 0.59434 0.0
H1729 H 0.29984 0.33445 0.61979 0.0
H1730 H 0.21199 0.42143 0.67075 0.0
H1731 H 0.23067 0.41179 0.69806 0.0
H1732 H 0.19242 0.40553 0.63806 0.0
H1733 H 0.19886 0.38852 0.6082 0.0
C1734 C 0.59856 0.22285 0.64522 0.0
C1735 C 0.61262 0.24186 0.63049 0.0
C1736 C 0.60393 0.27565 0.66382 0.0
C1737 C 0.59553 0.25529 0.68136 0.0
N1738 N 0.57814 0.21137 0.68749 0.0
N1739 N 0.61778 0.28719 0.61898 0.0
C1740 C 0.58995 0.22952 0.6714 0.0
C1741 C 0.6103 0.2688 0.63722 0.0
N1742 N 0.59581 0.19807 0.63467 0.0
N1743 N 0.60775 0.30083 0.67318 0.0
H1744 H 0.6239 0.28135 0.60002 0.0
H1745 H 0.61626 0.30757 0.62189 0.0
H1746 H 0.6023 0.30657 0.69233 0.0
H1747 H 0.6168 0.31579 0.66234 0.0
H1748 H 0.58621 0.18246 0.64397 0.0
H1749 H 0.60289 0.19378 0.61565 0.0
H1750 H 0.57408 0.19191 0.68193 0.0
H1751 H 0.57172 0.21622 0.70657 0.0
C1752 C 0.70719 0.3463 0.315 0.0
C1753 C 0.72008 0.36297 0.29631 0.0
C1754 C 0.75348 0.37356 0.33021 0.0
C1755 C 0.74169 0.35492 0.34739 0.0
N1756 N 0.70095 0.33436 0.36008 0.0
N1757 N 0.75128 0.39878 0.2894 0.0
C1758 C 0.71659 0.34503 0.34117 0.0
C1759 C 0.74168 0.37897 0.30505 0.0
N1760 N 0.68547 0.3318 0.30837 0.0
N1761 N 0.77662 0.38506 0.33766 0.0
H1762 H 0.745 0.40205 0.2701 0.0
H1763 H 0.76465 0.41295 0.29606 0.0
H1764 H 0.7845 0.38211 0.35652 0.0
H1765 H 0.78817 0.39671 0.32526 0.0
H1766 H 0.67653 0.31872 0.32161 0.0
H1767 H 0.67644 0.33251 0.28996 0.0
H1768 H 0.70552 0.33488 0.38021 0.0
H1769 H 0.70552 0.33488 0.38021 0.0
C1770 C 0.62316 0.75165 0.30424 0.0
C1771 C 0.61107 0.72642 0.30091 0.0
C1772 C 0.60381 0.724 0.34908 0.0
C1773 C 0.62004 0.74649 0.35232 0.0
N1774 N 0.63267 0.78832 0.33434 0.0
N1775 N 0.58561 0.69049 0.31942 0.0
C1776 C 0.62539 0.76263 0.3302 0.0
C1777 C 0.59937 0.71351 0.32309 0.0
N1778 N 0.63328 0.76461 0.28278 0.0
N1779 N 0.59482 0.71173 0.37139 0.0
H1780 H 0.58382 0.68122 0.30102 0.0
H1781 H 0.57576 0.68042 0.33437 0.0
H1782 H 0.59832 0.71987 0.39016 0.0
H1783 H 0.58381 0.69437 0.37161 0.0
H1784 H 0.645 0.78149 0.28432 0.0
H1785 H 0.63084 0.75778 0.26338 0.0
H1786 H 0.63548 0.80195 0.31917 0.0
H1787 H 0.63317 0.79643 0.35342 0.0
C1788 C 0.21447 0.6282 0.32401 0.0
C1789 C 0.22776 0.62001 0.34704 0.0
C1790 C 0.2639 0.60282 0.31986 0.0
C1791 C 0.25319 0.61603 0.29753 0.0
N1792 N 0.21796 0.64103 0.27781 0.0
N1793 N 0.25849 0.59049 0.36634 0.0
C1794 C 0.22809 0.62825 0.29929 0.0
C1795 C 0.24997 0.60355 0.34442 0.0
N1796 N 0.18907 0.63639 0.32625 0.0
N1797 N 0.28824 0.59156 0.31811 0.0
H1798 H 0.24834 0.5921 0.38433 0.0
H1799 H 0.27389 0.57695 0.36633 0.0
H1800 H 0.29921 0.59148 0.30063 0.0
H1801 H 0.29816 0.58336 0.33406 0.0
H1802 H 0.17733 0.64134 0.31017 0.0
H1803 H 0.1792 0.63574 0.34442 0.0
H1804 H 0.20123 0.65284 0.27867 0.0
H1805 H 0.22714 0.64098 0.25929 0.0
C1806 C 0.35452 0.26644 0.33758 0.0
C1807 C 0.3607 0.24065 0.34631 0.0
C1808 C 0.38689 0.23316 0.30625 0.0
C1809 C 0.3737 0.25486 0.29451 0.0
N1810 N 0.35046 0.29621 0.30008 0.0
N1811 N 0.38854 0.20287 0.34382 0.0
C1812 C 0.35949 0.27306 0.31068 0.0
C1813 C 0.37959 0.22554 0.33244 0.0
N1814 N 0.34233 0.28354 0.35469 0.0
N1815 N 0.40565 0.21974 0.29225 0.0
H1816 H 0.38309 0.19789 0.36316 0.0
H1817 H 0.40074 0.18921 0.33439 0.0
H1818 H 0.41083 0.22479 0.2729 0.0
H1819 H 0.4172 0.20479 0.30022 0.0
H1820 H 0.33815 0.30322 0.35041 0.0
H1821 H 0.3388 0.2785 0.37442 0.0
H1822 H 0.33887 0.30983 0.3102 0.0
H1823 H 0.35503 0.3022 0.28086 0.0
C1824 C 0.66797 0.75308 0.59294 0.0
C1825 C 0.67882 0.72997 0.60413 0.0
C1826 C 0.63662 0.71934 0.62478 0.0
C1827 C 0.6278 0.74534 0.61913 0.0
N1828 N 0.63208 0.78504 0.59356 0.0
N1829 N 0.67183 0.68756 0.62492 0.0
C1830 C 0.64237 0.76133 0.60121 0.0
C1831 C 0.66248 0.7119 0.61789 0.0
N1832 N 0.68234 0.76709 0.5749 0.0
N1833 N 0.62129 0.70151 0.63773 0.0
H1834 H 0.69057 0.68098 0.61967 0.0
H1835 H 0.66044 0.67369 0.63506 0.0
H1836 H 0.6018 0.70481 0.64322 0.0
H1837 H 0.6018 0.70481 0.64322 0.0
H1838 H 0.67531 0.78345 0.5647 0.0
H1839 H 0.701 0.761 0.56877 0.0
H1840 H 0.64218 0.79909 0.58246 0.0
H1841 H 0.61298 0.79062 0.59874 0.0
C1842 C 0.67741 0.22954 0.36955 0.0
C1843 C 0.67889 0.25755 0.36968 0.0
C1844 C 0.63104 0.2605 0.36442 0.0
C1845 C 0.63037 0.23272 0.35999 0.0
N1846 N 0.64909 0.19073 0.37163 0.0
N1847 N 0.65632 0.29787 0.38082 0.0
C1848 C 0.65236 0.21726 0.36751 0.0
C1849 C 0.6554 0.27263 0.37118 0.0
N1850 N 0.69986 0.21478 0.37027 0.0
N1851 N 0.60862 0.27511 0.3624 0.0
H1852 H 0.67315 0.30501 0.39003 0.0
H1853 H 0.63995 0.30994 0.38341 0.0
H1854 H 0.59003 0.26639 0.36244 0.0
H1855 H 0.60845 0.29572 0.36139 0.0
H1856 H 0.70018 0.19433 0.36734 0.0
H1857 H 0.71842 0.22328 0.37264 0.0
H1858 H 0.66387 0.1784 0.37862 0.0
H1859 H 0.63056 0.18184 0.37045 0.0
C1860 C 0.74076 0.64343 0.37517 0.0
C1861 C 0.74075 0.64285 0.347 0.0
C1862 C 0.72582 0.688 0.34587 0.0
C1863 C 0.72178 0.68819 0.3734 0.0
N1864 N 0.72243 0.66466 0.41482 0.0
N1865 N 0.71775 0.65951 0.30936 0.0
C1866 C 0.72842 0.66543 0.38848 0.0
C1867 C 0.72886 0.66375 0.33333 0.0
N1868 N 0.75217 0.62333 0.38887 0.0
N1869 N 0.72573 0.71076 0.33152 0.0
H1870 H 0.71584 0.64019 0.30257 0.0
H1871 H 0.70734 0.67406 0.29918 0.0
H1872 H 0.72594 0.72922 0.34085 0.0
H1873 H 0.72901 0.71084 0.31107 0.0
H1874 H 0.75439 0.62365 0.40939 0.0
H1875 H 0.76038 0.60694 0.37923 0.0
H1876 H 0.72466 0.64773 0.42632 0.0
H1877 H 0.71405 0.68084 0.42469 0.0
C1878 C 0.30213 0.74987 0.38185 0.0
C1879 C 0.29619 0.72472 0.37052 0.0
C1880 C 0.34279 0.71745 0.36126 0.0
C1881 C 0.3473 0.74469 0.36583 0.0
N1882 N 0.33545 0.7842 0.3889 0.0
N1883 N 0.31238 0.68258 0.35336 0.0
C1884 C 0.32841 0.75959 0.38007 0.0
C1885 C 0.31684 0.70779 0.36195 0.0
N1886 N 0.28258 0.76453 0.39335 0.0
N1887 N 0.36302 0.70124 0.35401 0.0
H1888 H 0.29386 0.67392 0.35192 0.0
H1889 H 0.29386 0.67392 0.35192 0.0
H1890 H 0.38251 0.70769 0.3545 0.0
H1891 H 0.36034 0.68119 0.34952 0.0
H1892 H 0.28546 0.78278 0.40258 0.0
H1893 H 0.26315 0.75795 0.39429 0.0
H1894 H 0.32287 0.79749 0.3983 0.0
H1895 H 0.3548 0.79091 0.38691 0.0
C1896 C 0.23452 0.30869 0.38008 0.0
C1897 C 0.25628 0.30173 0.36346 0.0
C1898 C 0.26229 0.3488 0.3535 0.0
C1899 C 0.23691 0.35414 0.36302 0.0
N1900 N 0.20117 0.3418 0.391 0.0
N1901 N 0.28901 0.31641 0.33134 0.0
C1902 C 0.22432 0.33504 0.37907 0.0
C1903 C 0.26981 0.32212 0.34941 0.0
N1904 N 0.22259 0.2899 0.39537 0.0
N1905 N 0.27871 0.36926 0.34744 0.0
H1906 H 0.29608 0.29745 0.32758 0.0
H1907 H 0.29674 0.3307 0.31865 0.0
H1908 H 0.27342 0.38892 0.35126 0.0
H1909 H 0.29819 0.36645 0.34161 0.0
H1910 H 0.20902 0.29432 0.41021 0.0
H1911 H 0.22641 0.26972 0.3934 0.0
H1912 H 0.18887 0.32854 0.40076 0.0
H1913 H 0.19419 0.36127 0.39035 0.0
C1914 C 0.33137 0.26766 0.64648 0.0
C1915 C 0.34483 0.24892 0.6309 0.0
C1916 C 0.3071 0.24947 0.6008 0.0
C1917 C 0.29144 0.26097 0.62161 0.0
N1918 N 0.29027 0.27165 0.66875 0.0
N1919 N 0.34591 0.2227 0.5912 0.0
C1920 C 0.304 0.26735 0.64586 0.0
C1921 C 0.33288 0.24016 0.60717 0.0
N1922 N 0.34395 0.28343 0.66422 0.0
N1923 N 0.29836 0.24826 0.5753 0.0
H1924 H 0.3651 0.2168 0.59548 0.0
H1925 H 0.3373 0.21361 0.57477 0.0
H1926 H 0.28049 0.25601 0.56924 0.0
H1927 H 0.31024 0.24192 0.55965 0.0
H1928 H 0.36439 0.28456 0.6652 0.0
H1929 H 0.36439 0.28456 0.6652 0.0
H1930 H 0.29976 0.27621 0.68654 0.0
H1931 H 0.27022 0.26766 0.67047 0.0
C1932 C 0.7466 0.30842 0.60208 0.0
C1933 C 0.72465 0.29903 0.61674 0.0
C1934 C 0.71712 0.34412 0.63396 0.0
C1935 C 0.74211 0.35189 0.62414 0.0
N1936 N 0.77807 0.34411 0.59444 0.0
N1937 N 0.68835 0.30786 0.64648 0.0
C1938 C 0.75573 0.33489 0.60634 0.0
C1939 C 0.70959 0.31693 0.63249 0.0
N1940 N 0.75897 0.29178 0.58462 0.0
N1941 N 0.70025 0.36279 0.64375 0.0
H1942 H 0.68147 0.28842 0.64508 0.0
H1943 H 0.6786 0.31913 0.6608 0.0
H1944 H 0.70431 0.38301 0.64298 0.0
H1945 H 0.68101 0.35865 0.64946 0.0
H1946 H 0.7735 0.29768 0.57138 0.0
H1947 H 0.75409 0.27178 0.58291 0.0
H1948 H 0.79079 0.33258 0.58308 0.0
H1949 H 0.78394 0.3639 0.59625 0.0
C1950 C 0.25409 0.63621 0.60627 0.0
C1951 C 0.23215 0.63301 0.62307 0.0
C1952 C 0.22773 0.68108 0.62744 0.0
C1953 C 0.25304 0.68409 0.61577 0.0
N1954 N 0.28805 0.66545 0.58904 0.0
N1955 N 0.1913 0.6513 0.63751 0.0
C1956 C 0.26517 0.66202 0.60282 0.0
C1957 C 0.21654 0.65526 0.62933 0.0
N1958 N 0.26534 0.61389 0.59588 0.0
N1959 N 0.21496 0.70274 0.63753 0.0
H1960 H 0.18316 0.6323 0.63803 0.0
H1961 H 0.17799 0.66652 0.64126 0.0
H1962 H 0.22177 0.72206 0.6348 0.0
H1963 H 0.19803 0.70158 0.64908 0.0
H1964 H 0.28208 0.61358 0.58404 0.0
H1965 H 0.25685 0.59526 0.59893 0.0
H1966 H 0.29747 0.6506 0.57829 0.0
H1967 H 0.29806 0.68343 0.58843 0.0
C1968 C 0.13955 0.36096 0.23737 0.0
C1969 C 0.15266 0.35191 0.26024 0.0
C1970 C 0.13229 0.30826 0.2562 0.0
C1971 C 0.12296 0.31586 0.23097 0.0
N1972 N 0.11053 0.34994 0.20047 0.0
N1973 N 0.15536 0.32126 0.2963 0.0
C1974 C 0.12395 0.34262 0.22264 0.0
C1975 C 0.14652 0.32698 0.27144 0.0
N1976 N 0.14324 0.38651 0.22937 0.0
N1977 N 0.12862 0.28279 0.26474 0.0
H1978 H 0.16481 0.3355 0.30792 0.0
H1979 H 0.15182 0.30364 0.30626 0.0
H1980 H 0.11736 0.26893 0.25435 0.0
H1981 H 0.13674 0.27501 0.28188 0.0
H1982 H 0.13557 0.39443 0.21208 0.0
H1983 H 0.15412 0.40001 0.24065 0.0
H1984 H 0.10964 0.36922 0.19337 0.0
H1985 H 0.09896 0.33651 0.18981 0.0
C1986 C 0.64712 0.14665 0.20798 0.0
C1987 C 0.65538 0.12424 0.22254 0.0
C1988 C 0.6256 0.13571 0.25874 0.0
C1989 C 0.62208 0.16072 0.24663 0.0
N1990 N 0.62246 0.18797 0.20795 0.0
N1991 N 0.64746 0.09264 0.25687 0.0
C1992 C 0.63017 0.1652 0.22029 0.0
C1993 C 0.64257 0.11697 0.24626 0.0
N1994 N 0.65659 0.15049 0.18295 0.0
N1995 N 0.61408 0.1309 0.28271 0.0
H1996 H 0.65968 0.07896 0.24731 0.0
H1997 H 0.6387 0.08548 0.27404 0.0
H1998 H 0.60126 0.14446 0.29156 0.0
H1999 H 0.61665 0.11366 0.29357 0.0
H2000 H 0.65397 0.16758 0.17188 0.0
H2001 H 0.66617 0.1354 0.17264 0.0
H2002 H 0.62773 0.19327 0.18878 0.0
H2003 H 0.60949 0.20132 0.21695 0.0
C2004 C 0.82481 0.6162 0.22924 0.0
C2005 C 0.82412 0.61737 0.25731 0.0
C2006 C 0.85765 0.65207 0.25764 0.0
C2007 C 0.85379 0.655 0.23009 0.0
N2008 N 0.83986 0.63696 0.1883 0.0
N2009 N 0.84723 0.6271 0.29746 0.0
C2010 C 0.83974 0.63565 0.21535 0.0
C2011 C 0.84354 0.63195 0.27115 0.0
N2012 N 0.81057 0.59724 0.21622 0.0
N2013 N 0.87307 0.66989 0.27092 0.0
H2014 H 0.83662 0.61229 0.30719 0.0
H2015 H 0.86184 0.63597 0.30886 0.0
H2016 H 0.88414 0.68422 0.26102 0.0
H2017 H 0.87455 0.67087 0.29147 0.0
H2018 H 0.80868 0.59593 0.19576 0.0
H2019 H 0.802 0.58135 0.22613 0.0
H2020 H 0.82956 0.62422 0.17584 0.0
H2021 H 0.85123 0.65088 0.17816 0.0
C2022 C 0.34837 0.81664 0.22082 0.0
C2023 C 0.35634 0.82181 0.24714 0.0
C2024 C 0.33321 0.86408 0.24735 0.0
C2025 C 0.32046 0.85557 0.22402 0.0
N2026 N 0.32183 0.83052 0.18345 0.0
N2027 N 0.36382 0.85268 0.28262 0.0
C2028 C 0.33065 0.83435 0.20874 0.0
C2029 C 0.35186 0.84683 0.25913 0.0
N2030 N 0.35539 0.79321 0.20904 0.0
N2031 N 0.32626 0.88775 0.25854 0.0
H2032 H 0.37753 0.83986 0.29098 0.0
H2033 H 0.36101 0.87018 0.29324 0.0
H2034 H 0.31273 0.90026 0.24943 0.0
H2035 H 0.33432 0.89539 0.27589 0.0
H2036 H 0.34787 0.78629 0.19114 0.0
H2037 H 0.36886 0.78039 0.21786 0.0
H2038 H 0.3288 0.81586 0.17068 0.0
H2039 H 0.30866 0.84365 0.17468 0.0
C2040 C 0.14706 0.6724 0.7448 0.0
C2041 C 0.12461 0.66041 0.75597 0.0
C2042 C 0.1363 0.61855 0.73388 0.0
C2043 C 0.16077 0.63004 0.72624 0.0
N2044 N 0.19236 0.66524 0.73447 0.0
N2045 N 0.0981 0.62155 0.76306 0.0
C2046 C 0.16703 0.65621 0.73458 0.0
C2047 C 0.11921 0.63323 0.7511 0.0
N2048 N 0.14923 0.69933 0.74355 0.0
N2049 N 0.12907 0.59428 0.72421 0.0
H2050 H 0.08491 0.63222 0.77485 0.0
H2051 H 0.09455 0.60121 0.76246 0.0
H2052 H 0.14087 0.58332 0.71128 0.0
H2053 H 0.11058 0.58598 0.72733 0.0
H2054 H 0.16476 0.70878 0.73389 0.0
H2055 H 0.13386 0.71185 0.74899 0.0
H2056 H 0.19767 0.68367 0.74228 0.0
H2057 H 0.20836 0.65309 0.73021 0.0
C2058 C 0.36254 0.14411 0.75252 0.0
C2059 C 0.35855 0.15129 0.72589 0.0
C2060 C 0.32251 0.1198 0.72163 0.0
C2061 C 0.32273 0.11739 0.7495 0.0
N2062 N 0.34564 0.12027 0.79085 0.0
N2063 N 0.34168 0.14084 0.68278 0.0
C2064 C 0.34428 0.1266 0.76462 0.0
C2065 C 0.34122 0.13671 0.7095 0.0
N2066 N 0.38257 0.15576 0.76627 0.0
N2067 N 0.30277 0.10796 0.70756 0.0
H2068 H 0.35542 0.15353 0.67409 0.0
H2069 H 0.32986 0.13083 0.66924 0.0
H2070 H 0.28932 0.0952 0.71661 0.0
H2071 H 0.29967 0.11054 0.68738 0.0
H2072 H 0.38654 0.15244 0.78617 0.0
H2073 H 0.3959 0.16848 0.75696 0.0
H2074 H 0.36025 0.12684 0.80367 0.0
H2075 H 0.33211 0.10735 0.79952 0.0
C2076 C 0.84065 0.35785 0.72818 0.0
C2077 C 0.81468 0.35056 0.72091 0.0
C2078 C 0.8194 0.3084 0.74348 0.0
C2079 C 0.84396 0.31661 0.7537 0.0
N2080 N 0.87777 0.34994 0.75749 0.0
N2081 N 0.77698 0.32264 0.72881 0.0
C2082 C 0.85468 0.34161 0.7465 0.0
C2083 C 0.80334 0.32701 0.73086 0.0
N2084 N 0.85187 0.37987 0.71731 0.0
N2085 N 0.81194 0.28238 0.7445 0.0
H2086 H 0.76438 0.33669 0.72089 0.0
H2087 H 0.76747 0.30675 0.73788 0.0
H2088 H 0.82444 0.26749 0.75111 0.0
H2089 H 0.79496 0.27519 0.73543 0.0
H2090 H 0.87155 0.38494 0.71973 0.0
H2091 H 0.84161 0.39237 0.7046 0.0
H2092 H 0.88548 0.36888 0.75491 0.0
H2093 H 0.88848 0.33825 0.77057 0.0
C2094 C 0.65993 0.8264 0.76065 0.0
C2095 C 0.6548 0.85392 0.75877 0.0
C2096 C 0.62113 0.84458 0.72496 0.0
C2097 C 0.62622 0.81712 0.72807 0.0
N2098 N 0.64285 0.78214 0.75552 0.0
N2099 N 0.62745 0.88933 0.74261 0.0
C2100 C 0.64286 0.80828 0.74842 0.0
C2101 C 0.63428 0.86318 0.74203 0.0
N2102 N 0.68221 0.81728 0.77254 0.0
N2103 N 0.60441 0.85265 0.70553 0.0
H2104 H 0.63712 0.90308 0.75466 0.0
H2105 H 0.6114 0.89698 0.73248 0.0
H2106 H 0.59418 0.83914 0.69368 0.0
H2107 H 0.6014 0.87244 0.70065 0.0
H2108 H 0.68817 0.79755 0.77148 0.0
H2109 H 0.69643 0.82953 0.78069 0.0
H2110 H 0.65326 0.77501 0.77174 0.0
H2111 H 0.6301 0.76824 0.74708 0.0
C2112 C 0.21644 0.16243 0.35765 0.0
C2113 C 0.24323 0.15875 0.36385 0.0
C2114 C 0.24323 0.11547 0.34223 0.0
C2115 C 0.21917 0.12256 0.33055 0.0
N2116 N 0.17848 0.14623 0.3332 0.0
N2117 N 0.27987 0.12969 0.36997 0.0
C2118 C 0.20396 0.14352 0.34113 0.0
C2119 C 0.2556 0.13403 0.35948 0.0
N2120 N 0.20436 0.18547 0.36518 0.0
N2121 N 0.25456 0.09195 0.33526 0.0
H2122 H 0.28869 0.14346 0.38268 0.0
H2123 H 0.29079 0.11253 0.36692 0.0
H2124 H 0.24501 0.07863 0.32259 0.0
H2125 H 0.27243 0.08524 0.34253 0.0
H2126 H 0.1856 0.19104 0.35933 0.0
H2127 H 0.21364 0.19918 0.37764 0.0
H2128 H 0.16583 0.16095 0.34001 0.0
H2129 H 0.16962 0.1323 0.32066 0.0
C2130 C 0.83109 0.24179 0.30503 0.0
C2131 C 0.85402 0.23166 0.31679 0.0
C2132 C 0.83932 0.25103 0.35917 0.0
C2133 C 0.81447 0.25638 0.34747 0.0
N2134 N 0.78468 0.24671 0.31149 0.0
N2135 N 0.87998 0.22558 0.35605 0.0
C2136 C 0.80967 0.24826 0.32117 0.0
C2137 C 0.85821 0.2359 0.34432 0.0
N2138 N 0.83029 0.24691 0.27862 0.0
N2139 N 0.84508 0.26085 0.38372 0.0
H2140 H 0.89443 0.21563 0.34516 0.0
H2141 H 0.88301 0.226 0.37646 0.0
H2142 H 0.83148 0.27162 0.39491 0.0
H2143 H 0.8637 0.25964 0.39212 0.0
H2144 H 0.814 0.2555 0.26957 0.0
H2145 H 0.84717 0.24557 0.26691 0.0
H2146 H 0.78071 0.2394 0.29252 0.0
H2147 H 0.76817 0.24987 0.32343 0.0
C2148 C 0.74768 0.85971 0.3467 0.0
C2149 C 0.749 0.8543 0.31913 0.0
C2150 C 0.72578 0.81313 0.32505 0.0
C2151 C 0.72084 0.81957 0.35199 0.0
N2152 N 0.72475 0.85103 0.38815 0.0
N2153 N 0.73049 0.83109 0.28151 0.0
C2154 C 0.73114 0.84353 0.36291 0.0
C2155 C 0.73491 0.83288 0.30815 0.0
N2156 N 0.76232 0.87985 0.35721 0.0
N2157 N 0.72379 0.78769 0.31588 0.0
H2158 H 0.73537 0.84631 0.26851 0.0
H2159 H 0.71891 0.81616 0.27314 0.0
H2160 H 0.7207 0.77172 0.32842 0.0
H2161 H 0.72913 0.78219 0.29663 0.0
H2162 H 0.76417 0.88319 0.37752 0.0
H2163 H 0.7737 0.89237 0.3454 0.0
H2164 H 0.73 0.8693 0.39629 0.0
H2165 H 0.71246 0.83977 0.40024 0.0
C2166 C 0.14101 0.73779 0.36056 0.0
C2167 C 0.1629 0.72808 0.3458 0.0
C2168 C 0.14422 0.74547 0.30515 0.0
C2169 C 0.12415 0.75805 0.32002 0.0
N2170 N 0.10468 0.76909 0.36219 0.0
N2171 N 0.18937 0.73202 0.30599 0.0
C2172 C 0.12289 0.75514 0.34791 0.0
C2173 C 0.16567 0.73452 0.31862 0.0
N2174 N 0.13702 0.72985 0.3861 0.0
N2175 N 0.14297 0.74394 0.27813 0.0
H2176 H 0.20667 0.72703 0.31577 0.0
H2177 H 0.19257 0.73852 0.28666 0.0
H2178 H 0.12726 0.75127 0.26724 0.0
H2179 H 0.1562 0.7328 0.26686 0.0
H2180 H 0.1202 0.73451 0.39695 0.0
H2181 H 0.14949 0.71672 0.39574 0.0
H2182 H 0.10454 0.77 0.38282 0.0
H2183 H 0.09061 0.78107 0.35322 0.0
C2184 C 0.24358 0.80879 0.66026 0.0
C2185 C 0.25212 0.81585 0.63462 0.0
C2186 C 0.22664 0.85698 0.63819 0.0
C2187 C 0.22163 0.851 0.6652 0.0
N2188 N 0.23401 0.82586 0.70364 0.0
N2189 N 0.25405 0.8482 0.59952 0.0
C2190 C 0.23294 0.82839 0.67678 0.0
C2191 C 0.24426 0.84043 0.62347 0.0
N2192 N 0.24439 0.78305 0.66843 0.0
N2193 N 0.21443 0.87804 0.62673 0.0
H2194 H 0.26686 0.83647 0.58837 0.0
H2195 H 0.25083 0.86693 0.5916 0.0
H2196 H 0.20231 0.89087 0.6375 0.0
H2197 H 0.21526 0.88189 0.60648 0.0
H2198 H 0.23673 0.77696 0.68661 0.0
H2199 H 0.24925 0.76756 0.65555 0.0
H2200 H 0.24355 0.81014 0.71286 0.0
H2201 H 0.2285 0.84127 0.71631 0.0
C2202 C 0.13194 0.2695 0.63761 0.0
C2203 C 0.14921 0.25446 0.62154 0.0
C2204 C 0.12845 0.21336 0.63566 0.0
C2205 C 0.11584 0.22804 0.65605 0.0
N2206 N 0.10079 0.26935 0.67429 0.0
N2207 N 0.1604 0.21386 0.5995 0.0
C2208 C 0.11543 0.25605 0.65577 0.0
C2209 C 0.14574 0.22689 0.61817 0.0
N2210 N 0.13278 0.29653 0.63628 0.0
N2211 N 0.12513 0.18649 0.63447 0.0
H2212 H 0.17271 0.22405 0.58645 0.0
H2213 H 0.1601 0.19347 0.59637 0.0
H2214 H 0.11235 0.17656 0.64723 0.0
H2215 H 0.13392 0.17415 0.62048 0.0
H2216 H 0.12056 0.30915 0.64702 0.0
H2217 H 0.14501 0.30627 0.62281 0.0
H2218 H 0.10108 0.28979 0.67702 0.0
H2219 H 0.08808 0.25944 0.68718 0.0
C2220 C 0.72716 0.14684 0.67606 0.0
C2221 C 0.74805 0.13173 0.66573 0.0
C2222 C 0.73622 0.14441 0.62049 0.0
C2223 C 0.71801 0.16301 0.63133 0.0
N2224 N 0.69724 0.18264 0.6707 0.0
N2225 N 0.77099 0.11212 0.62897 0.0
C2226 C 0.71343 0.16412 0.65933 0.0
C2227 C 0.75205 0.12909 0.63807 0.0
N2228 N 0.72003 0.14426 0.70214 0.0
N2229 N 0.73811 0.14149 0.59358 0.0
H2230 H 0.78187 0.10027 0.64178 0.0
H2231 H 0.77609 0.10971 0.60914 0.0
H2232 H 0.72642 0.1522 0.5805 0.0
H2233 H 0.75021 0.12782 0.58407 0.0
H2234 H 0.70297 0.1524 0.7102 0.0
H2235 H 0.72949 0.13152 0.7152 0.0
H2236 H 0.69864 0.1882 0.69058 0.0
H2237 H 0.68269 0.19314 0.66119 0.0
C2238 C 0.84253 0.75062 0.61109 0.0
C2239 C 0.82847 0.72801 0.61946 0.0
C2240 C 0.84995 0.72969 0.66273 0.0
C2241 C 0.86156 0.75428 0.65558 0.0
N2242 N 0.87503 0.78461 0.62163 0.0
N2243 N 0.82639 0.69032 0.64812 0.0
C2244 C 0.86015 0.76335 0.62907 0.0
C2245 C 0.83514 0.71546 0.64351 0.0
N2246 N 0.83763 0.7605 0.58647 0.0
N2247 N 0.85125 0.72104 0.68833 0.0
H2248 H 0.81617 0.67962 0.63369 0.0
H2249 H 0.83168 0.67923 0.6646 0.0
H2250 H 0.86256 0.7304 0.70282 0.0
H2251 H 0.84017 0.70529 0.69557 0.0
H2252 H 0.84523 0.77825 0.57938 0.0
H2253 H 0.82542 0.7505 0.57311 0.0
H2254 H 0.87595 0.79186 0.6024 0.0
H2255 H 0.88799 0.79394 0.63472 0.0
C2256 C 0.33638 0.24486 0.11645 0.0
C2257 C 0.32062 0.22624 0.13016 0.0
C2258 C 0.34866 0.22955 0.1693 0.0
C2259 C 0.36181 0.25128 0.15729 0.0
N2260 N 0.37317 0.27598 0.11847 0.0
N2261 N 0.31698 0.19382 0.16476 0.0
C2262 C 0.35757 0.25734 0.13023 0.0
C2263 C 0.32863 0.21623 0.15503 0.0
N2264 N 0.33048 0.25102 0.09081 0.0
N2265 N 0.35398 0.22294 0.19497 0.0
H2266 H 0.30276 0.18327 0.15419 0.0
H2267 H 0.323 0.18414 0.18183 0.0
H2268 H 0.36983 0.23071 0.20546 0.0
H2269 H 0.34226 0.21045 0.20633 0.0
H2270 H 0.3409 0.26448 0.07933 0.0
H2271 H 0.31511 0.24196 0.08056 0.0
H2272 H 0.3712 0.2824 0.09905 0.0
H2273 H 0.38906 0.28457 0.12839 0.0
C2274 C 0.33789 0.70853 0.83949 0.0
C2275 C 0.35986 0.72379 0.83149 0.0
C2276 C 0.3455 0.7607 0.85935 0.0
C2277 C 0.32079 0.748 0.86148 0.0
N2278 N 0.29404 0.70892 0.85895 0.0
N2279 N 0.38936 0.75968 0.83962 0.0
C2280 C 0.31756 0.72114 0.85407 0.0
C2281 C 0.36551 0.74816 0.84408 0.0
N2282 N 0.336 0.68271 0.83151 0.0
N2283 N 0.34872 0.78541 0.87006 0.0
H2284 H 0.40376 0.75003 0.82834 0.0
H2285 H 0.39529 0.77776 0.84762 0.0
H2286 H 0.33397 0.79443 0.88134 0.0
H2287 H 0.36582 0.7966 0.86849 0.0
H2288 H 0.32059 0.6701 0.83645 0.0
H2289 H 0.35136 0.67333 0.82146 0.0
H2290 H 0.28889 0.69023 0.85187 0.0
H2291 H 0.27937 0.71799 0.87033 0.0
C2292 C 0.24068 0.34582 0.86658 0.0
C2293 C 0.22181 0.32567 0.86178 0.0
C2294 C 0.22348 0.33432 0.81412 0.0
C2295 C 0.24537 0.35113 0.81854 0.0
N2296 N 0.27369 0.37549 0.84809 0.0
N2297 N 0.18716 0.30994 0.83317 0.0
C2298 C 0.25327 0.3582 0.8446 0.0
C2299 C 0.21079 0.3225 0.83609 0.0
N2300 N 0.24626 0.35306 0.89212 0.0
N2301 N 0.21519 0.32943 0.78876 0.0
H2302 H 0.17571 0.3044 0.84939 0.0
H2303 H 0.17732 0.30782 0.81525 0.0
H2304 H 0.22238 0.33978 0.77241 0.0
H2305 H 0.20184 0.31464 0.78364 0.0
H2306 H 0.25839 0.36886 0.8973 0.0
H2307 H 0.23709 0.34432 0.90842 0.0
H2308 H 0.28227 0.37974 0.86631 0.0
H2309 H 0.28271 0.38521 0.83229 0.0
C2310 C 0.60471 0.22666 0.84161 0.0
C2311 C 0.60782 0.25259 0.83174 0.0
C2312 C 0.64649 0.25919 0.85976 0.0
C2313 C 0.64702 0.23152 0.86374 0.0
N2314 N 0.62505 0.18946 0.86419 0.0
N2315 N 0.62637 0.29627 0.83688 0.0
C2316 C 0.62505 0.21559 0.85727 0.0
C2317 C 0.62663 0.27001 0.84325 0.0
N2318 N 0.58294 0.21254 0.83449 0.0
N2319 N 0.66609 0.27438 0.87045 0.0
H2320 H 0.61098 0.30463 0.82624 0.0
H2321 H 0.64047 0.30998 0.84279 0.0
H2322 H 0.68041 0.26618 0.88271 0.0
H2323 H 0.66772 0.2948 0.86834 0.0
H2324 H 0.5786 0.19359 0.84126 0.0
H2325 H 0.56822 0.22098 0.82288 0.0
H2326 H 0.61089 0.1758 0.85826 0.0
H2327 H 0.63976 0.18152 0.87613 0.0
C2328 C 0.75093 0.63301 0.81241 0.0
C2329 C 0.72544 0.6252 0.8205 0.0
C2330 C 0.73061 0.64845 0.86277 0.0
C2331 C 0.75359 0.66018 0.85228 0.0
N2332 N 0.79104 0.65656 0.8235 0.0
N2333 N 0.69421 0.61777 0.85556 0.0
C2334 C 0.7657 0.64976 0.82925 0.0
C2335 C 0.71656 0.62992 0.84676 0.0
N2336 N 0.75996 0.62584 0.78784 0.0
N2337 N 0.72192 0.65613 0.88726 0.0
H2338 H 0.68398 0.60403 0.84401 0.0
H2339 H 0.68658 0.61993 0.87458 0.0
H2340 H 0.7327 0.6692 0.89913 0.0
H2341 H 0.70454 0.64962 0.89595 0.0
H2342 H 0.77682 0.63358 0.77909 0.0
H2343 H 0.74993 0.61223 0.77589 0.0
H2344 H 0.80171 0.64894 0.80758 0.0
H2345 H 0.8022 0.66808 0.83649 0.0
C2346 C 0.67015 0.74819 0.15385 0.0
C2347 C 0.65853 0.75856 0.1308 0.0
C2348 C 0.618 0.73434 0.14124 0.0
C2349 C 0.62893 0.72788 0.16628 0.0
N2350 N 0.66243 0.73629 0.19914 0.0
N2351 N 0.62126 0.76188 0.10177 0.0
C2352 C 0.65405 0.73729 0.17346 0.0
C2353 C 0.6323 0.75174 0.12414 0.0
N2354 N 0.69677 0.74723 0.15631 0.0
N2355 N 0.59458 0.72346 0.13373 0.0
H2356 H 0.63184 0.77375 0.08862 0.0
H2357 H 0.60153 0.75953 0.09692 0.0
H2358 H 0.58369 0.71116 0.1462 0.0
H2359 H 0.58671 0.72544 0.11482 0.0
H2360 H 0.70614 0.73821 0.17224 0.0
H2361 H 0.70902 0.75172 0.14043 0.0
H2362 H 0.68016 0.74468 0.20528 0.0
H2363 H 0.65032 0.73013 0.21465 0.0
C2364 C 0.25523 0.62563 0.1352 0.0
C2365 C 0.24473 0.62425 0.16124 0.0
C2366 C 0.20452 0.6456 0.1468 0.0
C2367 C 0.21802 0.65352 0.1237 0.0
N2368 N 0.25152 0.64577 0.09142 0.0
N2369 N 0.20826 0.62849 0.19144 0.0
C2370 C 0.24169 0.64113 0.11614 0.0
C2371 C 0.21858 0.63209 0.16665 0.0
N2372 N 0.27859 0.61359 0.12952 0.0
N2373 N 0.17888 0.65278 0.1501 0.0
H2374 H 0.2179 0.61744 0.20589 0.0
H2375 H 0.19063 0.63672 0.1979 0.0
H2376 H 0.16869 0.66263 0.13519 0.0
H2377 H 0.16728 0.64713 0.16613 0.0
H2378 H 0.28744 0.61361 0.11092 0.0
H2379 H 0.2886 0.6023 0.14347 0.0
H2380 H 0.26937 0.63853 0.08441 0.0
H2381 H 0.24099 0.6569 0.07766 0.0
C2382 C 0.73831 0.33144 0.17635 0.0
C2383 C 0.72403 0.35115 0.16298 0.0
C2384 C 0.74374 0.33663 0.12091 0.0
C2385 C 0.75496 0.31463 0.13431 0.0
N2386 N 0.75292 0.28646 0.17296 0.0
N2387 N 0.71043 0.37122 0.12208 0.0
C2388 C 0.74941 0.31068 0.16154 0.0
C2389 C 0.72586 0.35341 0.13502 0.0
N2390 N 0.74121 0.33238 0.20321 0.0
N2391 N 0.75064 0.34201 0.09532 0.0
H2392 H 0.69809 0.38439 0.13215 0.0
H2393 H 0.70883 0.37186 0.10151 0.0
H2394 H 0.764 0.33052 0.08462 0.0
H2395 H 0.74473 0.35906 0.08547 0.0
H2396 H 0.75309 0.31912 0.21345 0.0
H2397 H 0.73437 0.34823 0.21461 0.0
H2398 H 0.74735 0.28247 0.19245 0.0
H2399 H 0.75764 0.26958 0.16193 0.0
loop_
_geom_bond_atom_site_label_1
_geom_bond_atom_site_label_2
_geom_bond_distance
_geom_bond_site_symmetry_2
_ccdc_geom_bond_type
Zn0 O3 2.031 . S
Zn0 O5 2.049 . S
Zn0 O10 2.067 . S
Zn1 O2 1.962 . S
Zn1 O4 1.986 . S
Zn1 O6 1.996 . S
Zn1 O9 1.943 . S
O2 Zn1 1.962 . S
O2 C7 1.254 . S
O3 Zn0 2.031 . S
O3 C7 1.269 . S
O4 Zn1 1.986 . S
O4 C11 1.262 . S
O5 Zn0 2.049 . S
O5 C13 1.260 . S
O6 Zn1 1.996 . S
O6 C13 1.257 . S
C7 O2 1.254 . S
C7 O3 1.269 . S
C8 O9 1.249 . S
C8 O10 1.270 . S
O9 Zn1 1.943 . S
O9 C8 1.249 . S
O10 Zn0 2.067 . S
O10 C8 1.270 . S
C11 O4 1.262 . S
C11 O12 1.232 . S
O12 C11 1.232 . S
C13 O5 1.260 . S
C13 O6 1.257 . S
Zn14 O17 2.031 . S
Zn14 O19 2.049 . S
Zn14 O24 2.067 . S
Zn15 O16 1.962 . S
Zn15 O18 1.986 . S
Zn15 O20 1.996 . S
Zn15 O23 1.943 . S
O16 Zn15 1.962 . S
O16 C21 1.254 . S
O17 Zn14 2.031 . S
O17 C21 1.269 . S
O18 Zn15 1.986 . S
O18 C25 1.262 . S
O19 Zn14 2.049 . S
O19 C27 1.260 . S
O20 Zn15 1.996 . S
O20 C27 1.257 . S
C21 O16 1.254 . S
C21 O17 1.269 . S
C22 O23 1.249 . S
C22 O24 1.270 . S
O23 Zn15 1.943 . S
O23 C22 1.249 . S
O24 Zn14 2.067 . S
O24 C22 1.270 . S
C25 O18 1.262 . S
C25 O26 1.232 . S
O26 C25 1.232 . S
C27 O19 1.260 . S
C27 O20 1.257 . S
Zn28 O31 2.031 . S
Zn28 O33 2.049 . S
Zn28 O38 2.067 . S
Zn29 O30 1.962 . S
Zn29 O32 1.986 . S
Zn29 O34 1.996 . S
Zn29 O37 1.943 . S
O30 Zn29 1.962 . S
O30 C35 1.254 . S
O31 Zn28 2.031 . S
O31 C35 1.269 . S
O32 Zn29 1.986 . S
O32 C39 1.262 . S
O33 Zn28 2.049 . S
O33 C41 1.260 . S
O34 Zn29 1.996 . S
O34 C41 1.257 . S
C35 O30 1.254 . S
C35 O31 1.269 . S
C36 O37 1.249 . S
C36 O38 1.270 . S
O37 Zn29 1.943 . S
O37 C36 1.249 . S
O38 Zn28 2.067 . S
O38 C36 1.270 . S
C39 O32 1.262 . S
C39 O40 1.232 . S
O40 C39 1.232 . S
C41 O33 1.260 . S
C41 O34 1.257 . S
Zn42 O45 2.031 . S
Zn42 O47 2.049 . S
Zn42 O52 2.067 . S
Zn43 O44 1.962 . S
Zn43 O46 1.986 . S
Zn43 O48 1.996 . S
Zn43 O51 1.943 . S
O44 Zn43 1.962 . S
O44 C49 1.254 . S
O45 Zn42 2.031 . S
O45 C49 1.269 . S
O46 Zn43 1.986 . S
O46 C53 1.262 . S
O47 Zn42 2.049 . S
O47 C55 1.260 . S
O48 Zn43 1.996 . S
O48 C55 1.257 . S
C49 O44 1.254 . S
C49 O45 1.269 . S
C50 O51 1.249 . S
C50 O52 1.270 . S
O51 Zn43 1.943 . S
O51 C50 1.249 . S
O52 Zn42 2.067 . S
O52 C50 1.270 . S
C53 O46 1.262 . S
C53 O54 1.232 . S
O54 C53 1.232 . S
C55 O47 1.260 . S
C55 O48 1.257 . S
Zn56 O59 2.031 . S
Zn56 O61 2.049 . S
Zn56 O66 2.067 . S
Zn57 O58 1.962 . S
Zn57 O60 1.986 . S
Zn57 O62 1.996 . S
Zn57 O65 1.943 . S
O58 Zn57 1.962 . S
O58 C63 1.254 . S
O59 Zn56 2.031 . S
O59 C63 1.269 . S
O60 Zn57 1.986 . S
O60 C67 1.262 . S
O61 Zn56 2.049 . S
O61 C69 1.260 . S
O62 Zn57 1.996 . S
O62 C69 1.257 . S
C63 O58 1.254 . S
C63 O59 1.269 . S
C64 O65 1.249 . S
C64 O66 1.270 . S
O65 Zn57 1.943 . S
O65 C64 1.249 . S
O66 Zn56 2.067 . S
O66 C64 1.270 . S
C67 O60 1.262 . S
C67 O68 1.232 . S
O68 C67 1.232 . S
C69 O61 1.260 . S
C69 O62 1.257 . S
Zn70 O73 2.031 . S
Zn70 O75 2.049 . S
Zn70 O80 2.067 . S
Zn71 O72 1.962 . S
Zn71 O74 1.986 . S
Zn71 O76 1.996 . S
Zn71 O79 1.943 . S
O72 Zn71 1.962 . S
O72 C77 1.254 . S
O73 Zn70 2.031 . S
O73 C77 1.269 . S
O74 Zn71 1.986 . S
O74 C81 1.262 . S
O75 Zn70 2.049 . S
O75 C83 1.260 . S
O76 Zn71 1.996 . S
O76 C83 1.257 . S
C77 O72 1.254 . S
C77 O73 1.269 . S
C78 O79 1.249 . S
C78 O80 1.270 . S
O79 Zn71 1.943 . S
O79 C78 1.249 . S
O80 Zn70 2.067 . S
O80 C78 1.270 . S
C81 O74 1.262 . S
C81 O82 1.232 . S
O82 C81 1.232 . S
C83 O75 1.260 . S
C83 O76 1.257 . S
Zn84 O87 2.031 . S
Zn84 O89 2.049 . S
Zn84 O94 2.067 . S
Zn85 O86 1.962 . S
Zn85 O88 1.986 . S
Zn85 O90 1.996 . S
Zn85 O93 1.943 . S
O86 Zn85 1.962 . S
O86 C91 1.254 . S
O87 Zn84 2.031 . S
O87 C91 1.269 . S
O88 Zn85 1.986 . S
O88 C95 1.262 . S
O89 Zn84 2.049 . S
O89 C97 1.260 . S
O90 Zn85 1.996 . S
O90 C97 1.257 . S
C91 O86 1.254 . S
C91 O87 1.269 . S
C92 O93 1.249 . S
C92 O94 1.270 . S
O93 Zn85 1.943 . S
O93 C92 1.249 . S
O94 Zn84 2.067 . S
O94 C92 1.270 . S
C95 O88 1.262 . S
C95 O96 1.232 . S
O96 C95 1.232 . S
C97 O89 1.260 . S
C97 O90 1.257 . S
Zn98 O101 2.031 . S
Zn98 O103 2.049 . S
Zn98 O108 2.067 . S
Zn99 O100 1.962 . S
Zn99 O102 1.986 . S
Zn99 O104 1.996 . S
Zn99 O107 1.943 . S
O100 Zn99 1.962 . S
O100 C105 1.254 . S
O101 Zn98 2.031 . S
O101 C105 1.269 . S
O102 Zn99 1.986 . S
O102 C109 1.262 . S
O103 Zn98 2.049 . S
O103 C111 1.260 . S
O104 Zn99 1.996 . S
O104 C111 1.257 . S
C105 O100 1.254 . S
C105 O101 1.269 . S
C106 O107 1.249 . S
C106 O108 1.270 . S
O107 Zn99 1.943 . S
O107 C106 1.249 . S
O108 Zn98 2.067 . S
O108 C106 1.270 . S
C109 O102 1.262 . S
C109 O110 1.232 . S
O110 C109 1.232 . S
C111 O103 1.260 . S
C111 O104 1.257 . S
Zn112 O115 2.031 . S
Zn112 O117 2.049 . S
Zn112 O122 2.067 . S
Zn113 O114 1.962 . S
Zn113 O116 1.986 . S
Zn113 O118 1.996 . S
Zn113 O121 1.943 . S
O114 Zn113 1.962 . S
O114 C119 1.254 . S
O115 Zn112 2.031 . S
O115 C119 1.269 . S
O116 Zn113 1.986 . S
O116 C123 1.262 . S
O117 Zn112 2.049 . S
O117 C125 1.260 . S
O118 Zn113 1.996 . S
O118 C125 1.257 . S
C119 O114 1.254 . S
C119 O115 1.269 . S
C120 O121 1.249 . S
C120 O122 1.270 . S
O121 Zn113 1.943 . S
O121 C120 1.249 . S
O122 Zn112 2.067 . S
O122 C120 1.270 . S
C123 O116 1.262 . S
C123 O124 1.232 . S
O124 C123 1.232 . S
C125 O117 1.260 . S
C125 O118 1.257 . S
Zn126 O129 2.031 . S
Zn126 O131 2.049 . S
Zn126 O136 2.067 . S
Zn127 O128 1.962 . S
Zn127 O130 1.986 . S
Zn127 O132 1.996 . S
Zn127 O135 1.943 . S
O128 Zn127 1.962 . S
O128 C133 1.254 . S
O129 Zn126 2.031 . S
O129 C133 1.269 . S
O130 Zn127 1.986 . S
O130 C137 1.262 . S
O131 Zn126 2.049 . S
O131 C139 1.260 . S
O132 Zn127 1.996 . S
O132 C139 1.257 . S
C133 O128 1.254 . S
C133 O129 1.269 . S
C134 O135 1.249 . S
C134 O136 1.270 . S
O135 Zn127 1.943 . S
O135 C134 1.249 . S
O136 Zn126 2.067 . S
O136 C134 1.270 . S
C137 O130 1.262 . S
C137 O138 1.232 . S
O138 C137 1.232 . S
C139 O131 1.260 . S
C139 O132 1.257 . S
Zn140 O143 2.031 . S
Zn140 O145 2.049 . S
Zn140 O150 2.067 . S
Zn141 O142 1.962 . S
Zn141 O144 1.986 . S
Zn141 O146 1.996 . S
Zn141 O149 1.943 . S
O142 Zn141 1.962 . S
O142 C147 1.254 . S
O143 Zn140 2.031 . S
O143 C147 1.269 . S
O144 Zn141 1.986 . S
O144 C151 1.262 . S
O145 Zn140 2.049 . S
O145 C153 1.260 . S
O146 Zn141 1.996 . S
O146 C153 1.257 . S
C147 O142 1.254 . S
C147 O143 1.269 . S
C148 O149 1.249 . S
C148 O150 1.270 . S
O149 Zn141 1.943 . S
O149 C148 1.249 . S
O150 Zn140 2.067 . S
O150 C148 1.270 . S
C151 O144 1.262 . S
C151 O152 1.232 . S
O152 C151 1.232 . S
C153 O145 1.260 . S
C153 O146 1.257 . S
Zn154 O157 2.031 . S
Zn154 O159 2.049 . S
Zn154 O164 2.067 . S
Zn155 O156 1.962 . S
Zn155 O158 1.986 . S
Zn155 O160 1.996 . S
Zn155 O163 1.943 . S
O156 Zn155 1.962 . S
O156 C161 1.254 . S
O157 Zn154 2.031 . S
O157 C161 1.269 . S
O158 Zn155 1.986 . S
O158 C165 1.262 . S
O159 Zn154 2.049 . S
O159 C167 1.260 . S
O160 Zn155 1.996 . S
O160 C167 1.257 . S
C161 O156 1.254 . S
C161 O157 1.269 . S
C162 O163 1.249 . S
C162 O164 1.270 . S
O163 Zn155 1.943 . S
O163 C162 1.249 . S
O164 Zn154 2.067 . S
O164 C162 1.270 . S
C165 O158 1.262 . S
C165 O166 1.232 . S
O166 C165 1.232 . S
C167 O159 1.260 . S
C167 O160 1.257 . S
Zn168 O171 2.031 . S
Zn168 O173 2.049 . S
Zn168 O178 2.067 . S
Zn169 O170 1.962 . S
Zn169 O172 1.986 . S
Zn169 O174 1.996 . S
Zn169 O177 1.943 . S
O170 Zn169 1.962 . S
O170 C175 1.254 . S
O171 Zn168 2.031 . S
O171 C175 1.269 . S
O172 Zn169 1.986 . S
O172 C179 1.262 . S
O173 Zn168 2.049 . S
O173 C181 1.260 . S
O174 Zn169 1.996 . S
O174 C181 1.257 . S
C175 O170 1.254 . S
C175 O171 1.269 . S
C176 O177 1.249 . S
C176 O178 1.270 . S
O177 Zn169 1.943 . S
O177 C176 1.249 . S
O178 Zn168 2.067 . S
O178 C176 1.270 . S
C179 O172 1.262 . S
C179 O180 1.232 . S
O180 C179 1.232 . S
C181 O173 1.260 . S
C181 O174 1.257 . S
Zn182 O185 2.031 . S
Zn182 O187 2.049 . S
Zn182 O192 2.067 . S
Zn183 O184 1.962 . S
Zn183 O186 1.986 . S
Zn183 O188 1.996 . S
Zn183 O191 1.943 . S
O184 Zn183 1.962 . S
O184 C189 1.254 . S
O185 Zn182 2.031 . S
O185 C189 1.269 . S
O186 Zn183 1.986 . S
O186 C193 1.262 . S
O187 Zn182 2.049 . S
O187 C195 1.260 . S
O188 Zn183 1.996 . S
O188 C195 1.257 . S
C189 O184 1.254 . S
C189 O185 1.269 . S
C190 O191 1.249 . S
C190 O192 1.270 . S
O191 Zn183 1.943 . S
O191 C190 1.249 . S
O192 Zn182 2.067 . S
O192 C190 1.270 . S
C193 O186 1.262 . S
C193 O194 1.232 . S
O194 C193 1.232 . S
C195 O187 1.260 . S
C195 O188 1.257 . S
Zn196 O199 2.031 . S
Zn196 O201 2.049 . S
Zn196 O206 2.067 . S
Zn197 O198 1.962 . S
Zn197 O200 1.986 . S
Zn197 O202 1.996 . S
Zn197 O205 1.943 . S
O198 Zn197 1.962 . S
O198 C203 1.254 . S
O199 Zn196 2.031 . S
O199 C203 1.269 . S
O200 Zn197 1.986 . S
O200 C207 1.262 . S
O201 Zn196 2.049 . S
O201 C209 1.260 . S
O202 Zn197 1.996 . S
O202 C209 1.257 . S
C203 O198 1.254 . S
C203 O199 1.269 . S
C204 O205 1.249 . S
C204 O206 1.270 . S
O205 Zn197 1.943 . S
O205 C204 1.249 . S
O206 Zn196 2.067 . S
O206 C204 1.270 . S
C207 O200 1.262 . S
C207 O208 1.232 . S
O208 C207 1.232 . S
C209 O201 1.260 . S
C209 O202 1.257 . S
Zn210 O213 2.031 . S
Zn210 O215 2.049 . S
Zn210 O220 2.067 . S
Zn211 O212 1.962 . S
Zn211 O214 1.986 . S
Zn211 O216 1.996 . S
Zn211 O219 1.943 . S
O212 Zn211 1.962 . S
O212 C217 1.254 . S
O213 Zn210 2.031 . S
O213 C217 1.269 . S
O214 Zn211 1.986 . S
O214 C221 1.262 . S
O215 Zn210 2.049 . S
O215 C223 1.260 . S
O216 Zn211 1.996 . S
O216 C223 1.257 . S
C217 O212 1.254 . S
C217 O213 1.269 . S
C218 O219 1.249 . S
C218 O220 1.270 . S
O219 Zn211 1.943 . S
O219 C218 1.249 . S
O220 Zn210 2.067 . S
O220 C218 1.270 . S
C221 O214 1.262 . S
C221 O222 1.232 . S
O222 C221 1.232 . S
C223 O215 1.260 . S
C223 O216 1.257 . S
Zn224 O227 2.031 . S
Zn224 O229 2.049 . S
Zn224 O234 2.067 . S
Zn225 O226 1.962 . S
Zn225 O228 1.986 . S
Zn225 O230 1.996 . S
Zn225 O233 1.943 . S
O226 Zn225 1.962 . S
O226 C231 1.254 . S
O227 Zn224 2.031 . S
O227 C231 1.269 . S
O228 Zn225 1.986 . S
O228 C235 1.262 . S
O229 Zn224 2.049 . S
O229 C237 1.260 . S
O230 Zn225 1.996 . S
O230 C237 1.257 . S
C231 O226 1.254 . S
C231 O227 1.269 . S
C232 O233 1.249 . S
C232 O234 1.270 . S
O233 Zn225 1.943 . S
O233 C232 1.249 . S
O234 Zn224 2.067 . S
O234 C232 1.270 . S
C235 O228 1.262 . S
C235 O236 1.232 . S
O236 C235 1.232 . S
C237 O229 1.260 . S
C237 O230 1.257 . S
Zn238 O241 2.031 . S
Zn238 O243 2.049 . S
Zn238 O248 2.067 . S
Zn239 O240 1.962 . S
Zn239 O242 1.986 . S
Zn239 O244 1.996 . S
Zn239 O247 1.943 . S
O240 Zn239 1.962 . S
O240 C245 1.254 . S
O241 Zn238 2.031 . S
O241 C245 1.269 . S
O242 Zn239 1.986 . S
O242 C249 1.262 . S
O243 Zn238 2.049 . S
O243 C251 1.260 . S
O244 Zn239 1.996 . S
O244 C251 1.257 . S
C245 O240 1.254 . S
C245 O241 1.269 . S
C246 O247 1.249 . S
C246 O248 1.270 . S
O247 Zn239 1.943 . S
O247 C246 1.249 . S
O248 Zn238 2.067 . S
O248 C246 1.270 . S
C249 O242 1.262 . S
C249 O250 1.232 . S
O250 C249 1.232 . S
C251 O243 1.260 . S
C251 O244 1.257 . S
Zn252 O255 2.031 . S
Zn252 O257 2.049 . S
Zn252 O262 2.067 . S
Zn253 O254 1.962 . S
Zn253 O256 1.986 . S
Zn253 O258 1.996 . S
Zn253 O261 1.943 . S
O254 Zn253 1.962 . S
O254 C259 1.254 . S
O255 Zn252 2.031 . S
O255 C259 1.269 . S
O256 Zn253 1.986 . S
O256 C263 1.262 . S
O257 Zn252 2.049 . S
O257 C265 1.260 . S
O258 Zn253 1.996 . S
O258 C265 1.257 . S
C259 O254 1.254 . S
C259 O255 1.269 . S
C260 O261 1.249 . S
C260 O262 1.270 . S
O261 Zn253 1.943 . S
O261 C260 1.249 . S
O262 Zn252 2.067 . S
O262 C260 1.270 . S
C263 O256 1.262 . S
C263 O264 1.232 . S
O264 C263 1.232 . S
C265 O257 1.260 . S
C265 O258 1.257 . S
Zn266 O269 2.031 . S
Zn266 O271 2.049 . S
Zn266 O276 2.067 . S
Zn267 O268 1.962 . S
Zn267 O270 1.986 . S
Zn267 O272 1.996 . S
Zn267 O275 1.943 . S
O268 Zn267 1.962 . S
O268 C273 1.254 . S
O269 Zn266 2.031 . S
O269 C273 1.269 . S
O270 Zn267 1.986 . S
O270 C277 1.262 . S
O271 Zn266 2.049 . S
O271 C279 1.260 . S
O272 Zn267 1.996 . S
O272 C279 1.257 . S
C273 O268 1.254 . S
C273 O269 1.269 . S
C274 O275 1.249 . S
C274 O276 1.270 . S
O275 Zn267 1.943 . S
O275 C274 1.249 . S
O276 Zn266 2.067 . S
O276 C274 1.270 . S
C277 O270 1.262 . S
C277 O278 1.232 . S
O278 C277 1.232 . S
C279 O271 1.260 . S
C279 O272 1.257 . S
Zn280 O283 2.031 . S
Zn280 O285 2.049 . S
Zn280 O290 2.067 . S
Zn281 O282 1.962 . S
Zn281 O284 1.986 . S
Zn281 O286 1.996 . S
Zn281 O289 1.943 . S
O282 Zn281 1.962 . S
O282 C287 1.254 . S
O283 Zn280 2.031 . S
O283 C287 1.269 . S
O284 Zn281 1.986 . S
O284 C291 1.262 . S
O285 Zn280 2.049 . S
O285 C293 1.260 . S
O286 Zn281 1.996 . S
O286 C293 1.257 . S
C287 O282 1.254 . S
C287 O283 1.269 . S
C288 O289 1.249 . S
C288 O290 1.270 . S
O289 Zn281 1.943 . S
O289 C288 1.249 . S
O290 Zn280 2.067 . S
O290 C288 1.270 . S
C291 O284 1.262 . S
C291 O292 1.232 . S
O292 C291 1.232 . S
C293 O285 1.260 . S
C293 O286 1.257 . S
Zn294 O297 2.031 . S
Zn294 O299 2.049 . S
Zn294 O304 2.067 . S
Zn295 O296 1.962 . S
Zn295 O298 1.986 . S
Zn295 O300 1.996 . S
Zn295 O303 1.943 . S
O296 Zn295 1.962 . S
O296 C301 1.254 . S
O297 Zn294 2.031 . S
O297 C301 1.269 . S
O298 Zn295 1.986 . S
O298 C305 1.262 . S
O299 Zn294 2.049 . S
O299 C307 1.260 . S
O300 Zn295 1.996 . S
O300 C307 1.257 . S
C301 O296 1.254 . S
C301 O297 1.269 . S
C302 O303 1.249 . S
C302 O304 1.270 . S
O303 Zn295 1.943 . S
O303 C302 1.249 . S
O304 Zn294 2.067 . S
O304 C302 1.270 . S
C305 O298 1.262 . S
C305 O306 1.232 . S
O306 C305 1.232 . S
C307 O299 1.260 . S
C307 O300 1.257 . S
Zn308 O311 2.031 . S
Zn308 O313 2.049 . S
Zn308 O318 2.067 . S
Zn309 O310 1.962 . S
Zn309 O312 1.986 . S
Zn309 O314 1.996 . S
Zn309 O317 1.943 . S
O310 Zn309 1.962 . S
O310 C315 1.254 . S
O311 Zn308 2.031 . S
O311 C315 1.269 . S
O312 Zn309 1.986 . S
O312 C319 1.262 . S
O313 Zn308 2.049 . S
O313 C321 1.260 . S
O314 Zn309 1.996 . S
O314 C321 1.257 . S
C315 O310 1.254 . S
C315 O311 1.269 . S
C316 O317 1.249 . S
C316 O318 1.270 . S
O317 Zn309 1.943 . S
O317 C316 1.249 . S
O318 Zn308 2.067 . S
O318 C316 1.270 . S
C319 O312 1.262 . S
C319 O320 1.232 . S
O320 C319 1.232 . S
C321 O313 1.260 . S
C321 O314 1.257 . S
Zn322 O325 2.031 . S
Zn322 O327 2.049 . S
Zn322 O332 2.067 . S
Zn323 O324 1.962 . S
Zn323 O326 1.986 . S
Zn323 O328 1.996 . S
Zn323 O331 1.943 . S
O324 Zn323 1.962 . S
O324 C329 1.254 . S
O325 Zn322 2.031 . S
O325 C329 1.269 . S
O326 Zn323 1.986 . S
O326 C333 1.262 . S
O327 Zn322 2.049 . S
O327 C335 1.260 . S
O328 Zn323 1.996 . S
O328 C335 1.257 . S
C329 O324 1.254 . S
C329 O325 1.269 . S
C330 O331 1.249 . S
C330 O332 1.270 . S
O331 Zn323 1.943 . S
O331 C330 1.249 . S
O332 Zn322 2.067 . S
O332 C330 1.270 . S
C333 O326 1.262 . S
C333 O334 1.232 . S
O334 C333 1.232 . S
C335 O327 1.260 . S
C335 O328 1.257 . S
Zn336 O339 2.031 . S
Zn336 O341 2.049 . S
Zn336 O346 2.067 . S
Zn337 O338 1.962 . S
Zn337 O340 1.986 . S
Zn337 O342 1.996 . S
Zn337 O345 1.943 . S
O338 Zn337 1.962 . S
O338 C343 1.254 . S
O339 Zn336 2.031 . S
O339 C343 1.269 . S
O340 Zn337 1.986 . S
O340 C347 1.262 . S
O341 Zn336 2.049 . S
O341 C349 1.260 . S
O342 Zn337 1.996 . S
O342 C349 1.257 . S
C343 O338 1.254 . S
C343 O339 1.269 . S
C344 O345 1.249 . S
C344 O346 1.270 . S
O345 Zn337 1.943 . S
O345 C344 1.249 . S
O346 Zn336 2.067 . S
O346 C344 1.270 . S
C347 O340 1.262 . S
C347 O348 1.232 . S
O348 C347 1.232 . S
C349 O341 1.260 . S
C349 O342 1.257 . S
Zn350 O353 2.031 . S
Zn350 O355 2.049 . S
Zn350 O360 2.067 . S
Zn351 O352 1.962 . S
Zn351 O354 1.986 . S
Zn351 O356 1.996 . S
Zn351 O359 1.943 . S
O352 Zn351 1.962 . S
O352 C357 1.254 . S
O353 Zn350 2.031 . S
O353 C357 1.269 . S
O354 Zn351 1.986 . S
O354 C361 1.262 . S
O355 Zn350 2.049 . S
O355 C363 1.260 . S
O356 Zn351 1.996 . S
O356 C363 1.257 . S
C357 O352 1.254 . S
C357 O353 1.269 . S
C358 O359 1.249 . S
C358 O360 1.270 . S
O359 Zn351 1.943 . S
O359 C358 1.249 . S
O360 Zn350 2.067 . S
O360 C358 1.270 . S
C361 O354 1.262 . S
C361 O362 1.232 . S
O362 C361 1.232 . S
C363 O355 1.260 . S
C363 O356 1.257 . S
Zn364 O367 2.031 . S
Zn364 O369 2.049 . S
Zn364 O374 2.067 . S
Zn365 O366 1.962 . S
Zn365 O368 1.986 . S
Zn365 O370 1.996 . S
Zn365 O373 1.943 . S
O366 Zn365 1.962 . S
O366 C371 1.254 . S
O367 Zn364 2.031 . S
O367 C371 1.269 . S
O368 Zn365 1.986 . S
O368 C375 1.262 . S
O369 Zn364 2.049 . S
O369 C377 1.260 . S
O370 Zn365 1.996 . S
O370 C377 1.257 . S
C371 O366 1.254 . S
C371 O367 1.269 . S
C372 O373 1.249 . S
C372 O374 1.270 . S
O373 Zn365 1.943 . S
O373 C372 1.249 . S
O374 Zn364 2.067 . S
O374 C372 1.270 . S
C375 O368 1.262 . S
C375 O376 1.232 . S
O376 C375 1.232 . S
C377 O369 1.260 . S
C377 O370 1.257 . S
Zn378 O381 2.031 . S
Zn378 O383 2.049 . S
Zn378 O388 2.067 . S
Zn379 O380 1.962 . S
Zn379 O382 1.986 . S
Zn379 O384 1.996 . S
Zn379 O387 1.943 . S
O380 Zn379 1.962 . S
O380 C385 1.254 . S
O381 Zn378 2.031 . S
O381 C385 1.269 . S
O382 Zn379 1.986 . S
O382 C389 1.262 . S
O383 Zn378 2.049 . S
O383 C391 1.260 . S
O384 Zn379 1.996 . S
O384 C391 1.257 . S
C385 O380 1.254 . S
C385 O381 1.269 . S
C386 O387 1.249 . S
C386 O388 1.270 . S
O387 Zn379 1.943 . S
O387 C386 1.249 . S
O388 Zn378 2.067 . S
O388 C386 1.270 . S
C389 O382 1.262 . S
C389 O390 1.232 . S
O390 C389 1.232 . S
C391 O383 1.260 . S
C391 O384 1.257 . S
Zn392 O395 2.031 . S
Zn392 O397 2.049 . S
Zn392 O402 2.067 . S
Zn393 O394 1.962 . S
Zn393 O396 1.986 . S
Zn393 O398 1.996 . S
Zn393 O401 1.943 . S
O394 Zn393 1.962 . S
O394 C399 1.254 . S
O395 Zn392 2.031 . S
O395 C399 1.269 . S
O396 Zn393 1.986 . S
O396 C403 1.262 . S
O397 Zn392 2.049 . S
O397 C405 1.260 . S
O398 Zn393 1.996 . S
O398 C405 1.257 . S
C399 O394 1.254 . S
C399 O395 1.269 . S
C400 O401 1.249 . S
C400 O402 1.270 . S
O401 Zn393 1.943 . S
O401 C400 1.249 . S
O402 Zn392 2.067 . S
O402 C400 1.270 . S
C403 O396 1.262 . S
C403 O404 1.232 . S
O404 C403 1.232 . S
C405 O397 1.260 . S
C405 O398 1.257 . S
Zn406 O409 2.031 . S
Zn406 O411 2.049 . S
Zn406 O416 2.067 . S
Zn407 O408 1.962 . S
Zn407 O410 1.986 . S
Zn407 O412 1.996 . S
Zn407 O415 1.943 . S
O408 Zn407 1.962 . S
O408 C413 1.254 . S
O409 Zn406 2.031 . S
O409 C413 1.269 . S
O410 Zn407 1.986 . S
O410 C417 1.262 . S
O411 Zn406 2.049 . S
O411 C419 1.260 . S
O412 Zn407 1.996 . S
O412 C419 1.257 . S
C413 O408 1.254 . S
C413 O409 1.269 . S
C414 O415 1.249 . S
C414 O416 1.270 . S
O415 Zn407 1.943 . S
O415 C414 1.249 . S
O416 Zn406 2.067 . S
O416 C414 1.270 . S
C417 O410 1.262 . S
C417 O418 1.232 . S
O418 C417 1.232 . S
C419 O411 1.260 . S
C419 O412 1.257 . S
Zn420 O423 2.031 . S
Zn420 O425 2.049 . S
Zn420 O430 2.067 . S
Zn421 O422 1.962 . S
Zn421 O424 1.986 . S
Zn421 O426 1.996 . S
Zn421 O429 1.943 . S
O422 Zn421 1.962 . S
O422 C427 1.254 . S
O423 Zn420 2.031 . S
O423 C427 1.269 . S
O424 Zn421 1.986 . S
O424 C431 1.262 . S
O425 Zn420 2.049 . S
O425 C433 1.260 . S
O426 Zn421 1.996 . S
O426 C433 1.257 . S
C427 O422 1.254 . S
C427 O423 1.269 . S
C428 O429 1.249 . S
C428 O430 1.270 . S
O429 Zn421 1.943 . S
O429 C428 1.249 . S
O430 Zn420 2.067 . S
O430 C428 1.270 . S
C431 O424 1.262 . S
C431 O432 1.232 . S
O432 C431 1.232 . S
C433 O425 1.260 . S
C433 O426 1.257 . S
Zn434 O437 2.031 . S
Zn434 O439 2.049 . S
Zn434 O444 2.067 . S
Zn435 O436 1.962 . S
Zn435 O438 1.986 . S
Zn435 O440 1.996 . S
Zn435 O443 1.943 . S
O436 Zn435 1.962 . S
O436 C441 1.254 . S
O437 Zn434 2.031 . S
O437 C441 1.269 . S
O438 Zn435 1.986 . S
O438 C445 1.262 . S
O439 Zn434 2.049 . S
O439 C447 1.260 . S
O440 Zn435 1.996 . S
O440 C447 1.257 . S
C441 O436 1.254 . S
C441 O437 1.269 . S
C442 O443 1.249 . S
C442 O444 1.270 . S
O443 Zn435 1.943 . S
O443 C442 1.249 . S
O444 Zn434 2.067 . S
O444 C442 1.270 . S
C445 O438 1.262 . S
C445 O446 1.232 . S
O446 C445 1.232 . S
C447 O439 1.260 . S
C447 O440 1.257 . S
Zn448 O451 2.031 . S
Zn448 O453 2.049 . S
Zn448 O458 2.067 . S
Zn449 O450 1.962 . S
Zn449 O452 1.986 . S
Zn449 O454 1.996 . S
Zn449 O457 1.943 . S
O450 Zn449 1.962 . S
O450 C455 1.254 . S
O451 Zn448 2.031 . S
O451 C455 1.269 . S
O452 Zn449 1.986 . S
O452 C459 1.262 . S
O453 Zn448 2.049 . S
O453 C461 1.260 . S
O454 Zn449 1.996 . S
O454 C461 1.257 . S
C455 O450 1.254 . S
C455 O451 1.269 . S
C456 O457 1.249 . S
C456 O458 1.270 . S
O457 Zn449 1.943 . S
O457 C456 1.249 . S
O458 Zn448 2.067 . S
O458 C456 1.270 . S
C459 O452 1.262 . S
C459 O460 1.232 . S
O460 C459 1.232 . S
C461 O453 1.260 . S
C461 O454 1.257 . S
Zn462 O465 2.031 . S
Zn462 O467 2.049 . S
Zn462 O472 2.067 . S
Zn463 O464 1.962 . S
Zn463 O466 1.986 . S
Zn463 O468 1.996 . S
Zn463 O471 1.943 . S
O464 Zn463 1.962 . S
O464 C469 1.254 . S
O465 Zn462 2.031 . S
O465 C469 1.269 . S
O466 Zn463 1.986 . S
O466 C473 1.262 . S
O467 Zn462 2.049 . S
O467 C475 1.260 . S
O468 Zn463 1.996 . S
O468 C475 1.257 . S
C469 O464 1.254 . S
C469 O465 1.269 . S
C470 O471 1.249 . S
C470 O472 1.270 . S
O471 Zn463 1.943 . S
O471 C470 1.249 . S
O472 Zn462 2.067 . S
O472 C470 1.270 . S
C473 O466 1.262 . S
C473 O474 1.232 . S
O474 C473 1.232 . S
C475 O467 1.260 . S
C475 O468 1.257 . S
Zn476 O479 2.031 . S
Zn476 O481 2.049 . S
Zn476 O486 2.067 . S
Zn477 O478 1.962 . S
Zn477 O480 1.986 . S
Zn477 O482 1.996 . S
Zn477 O485 1.943 . S
O478 Zn477 1.962 . S
O478 C483 1.254 . S
O479 Zn476 2.031 . S
O479 C483 1.269 . S
O480 Zn477 1.986 . S
O480 C487 1.262 . S
O481 Zn476 2.049 . S
O481 C489 1.260 . S
O482 Zn477 1.996 . S
O482 C489 1.257 . S
C483 O478 1.254 . S
C483 O479 1.269 . S
C484 O485 1.249 . S
C484 O486 1.270 . S
O485 Zn477 1.943 . S
O485 C484 1.249 . S
O486 Zn476 2.067 . S
O486 C484 1.270 . S
C487 O480 1.262 . S
C487 O488 1.232 . S
O488 C487 1.232 . S
C489 O481 1.260 . S
C489 O482 1.257 . S
Zn490 O493 2.031 . S
Zn490 O495 2.049 . S
Zn490 O500 2.067 . S
Zn491 O492 1.962 . S
Zn491 O494 1.986 . S
Zn491 O496 1.996 . S
Zn491 O499 1.943 . S
O492 Zn491 1.962 . S
O492 C497 1.254 . S
O493 Zn490 2.031 . S
O493 C497 1.269 . S
O494 Zn491 1.986 . S
O494 C501 1.262 . S
O495 Zn490 2.049 . S
O495 C503 1.260 . S
O496 Zn491 1.996 . S
O496 C503 1.257 . S
C497 O492 1.254 . S
C497 O493 1.269 . S
C498 O499 1.249 . S
C498 O500 1.270 . S
O499 Zn491 1.943 . S
O499 C498 1.249 . S
O500 Zn490 2.067 . S
O500 C498 1.270 . S
C501 O494 1.262 . S
C501 O502 1.232 . S
O502 C501 1.232 . S
C503 O495 1.260 . S
C503 O496 1.257 . S
Zn504 O507 2.031 . S
Zn504 O509 2.049 . S
Zn504 O514 2.067 . S
Zn505 O506 1.962 . S
Zn505 O508 1.986 . S
Zn505 O510 1.996 . S
Zn505 O513 1.943 . S
O506 Zn505 1.962 . S
O506 C511 1.254 . S
O507 Zn504 2.031 . S
O507 C511 1.269 . S
O508 Zn505 1.986 . S
O508 C515 1.262 . S
O509 Zn504 2.049 . S
O509 C517 1.260 . S
O510 Zn505 1.996 . S
O510 C517 1.257 . S
C511 O506 1.254 . S
C511 O507 1.269 . S
C512 O513 1.249 . S
C512 O514 1.270 . S
O513 Zn505 1.943 . S
O513 C512 1.249 . S
O514 Zn504 2.067 . S
O514 C512 1.270 . S
C515 O508 1.262 . S
C515 O516 1.232 . S
O516 C515 1.232 . S
C517 O509 1.260 . S
C517 O510 1.257 . S
Zn518 O521 2.031 . S
Zn518 O523 2.049 . S
Zn518 O528 2.067 . S
Zn519 O520 1.962 . S
Zn519 O522 1.986 . S
Zn519 O524 1.996 . S
Zn519 O527 1.943 . S
O520 Zn519 1.962 . S
O520 C525 1.254 . S
O521 Zn518 2.031 . S
O521 C525 1.269 . S
O522 Zn519 1.986 . S
O522 C529 1.262 . S
O523 Zn518 2.049 . S
O523 C531 1.260 . S
O524 Zn519 1.996 . S
O524 C531 1.257 . S
C525 O520 1.254 . S
C525 O521 1.269 . S
C526 O527 1.249 . S
C526 O528 1.270 . S
O527 Zn519 1.943 . S
O527 C526 1.249 . S
O528 Zn518 2.067 . S
O528 C526 1.270 . S
C529 O522 1.262 . S
C529 O530 1.232 . S
O530 C529 1.232 . S
C531 O523 1.260 . S
C531 O524 1.257 . S
Zn532 O535 2.031 . S
Zn532 O537 2.049 . S
Zn532 O542 2.067 . S
Zn533 O534 1.962 . S
Zn533 O536 1.986 . S
Zn533 O538 1.996 . S
Zn533 O541 1.943 . S
O534 Zn533 1.962 . S
O534 C539 1.254 . S
O535 Zn532 2.031 . S
O535 C539 1.269 . S
O536 Zn533 1.986 . S
O536 C543 1.262 . S
O537 Zn532 2.049 . S
O537 C545 1.260 . S
O538 Zn533 1.996 . S
O538 C545 1.257 . S
C539 O534 1.254 . S
C539 O535 1.269 . S
C540 O541 1.249 . S
C540 O542 1.270 . S
O541 Zn533 1.943 . S
O541 C540 1.249 . S
O542 Zn532 2.067 . S
O542 C540 1.270 . S
C543 O536 1.262 . S
C543 O544 1.232 . S
O544 C543 1.232 . S
C545 O537 1.260 . S
C545 O538 1.257 . S
Zn546 O549 2.031 . S
Zn546 O551 2.049 . S
Zn546 O556 2.067 . S
Zn547 O548 1.962 . S
Zn547 O550 1.986 . S
Zn547 O552 1.996 . S
Zn547 O555 1.943 . S
O548 Zn547 1.962 . S
O548 C553 1.254 . S
O549 Zn546 2.031 . S
O549 C553 1.269 . S
O550 Zn547 1.986 . S
O550 C557 1.262 . S
O551 Zn546 2.049 . S
O551 C559 1.260 . S
O552 Zn547 1.996 . S
O552 C559 1.257 . S
C553 O548 1.254 . S
C553 O549 1.269 . S
C554 O555 1.249 . S
C554 O556 1.270 . S
O555 Zn547 1.943 . S
O555 C554 1.249 . S
O556 Zn546 2.067 . S
O556 C554 1.270 . S
C557 O550 1.262 . S
C557 O558 1.232 . S
O558 C557 1.232 . S
C559 O551 1.260 . S
C559 O552 1.257 . S
Zn560 O563 2.031 . S
Zn560 O565 2.049 . S
Zn560 O570 2.067 . S
Zn561 O562 1.962 . S
Zn561 O564 1.986 . S
Zn561 O566 1.996 . S
Zn561 O569 1.943 . S
O562 Zn561 1.962 . S
O562 C567 1.254 . S
O563 Zn560 2.031 . S
O563 C567 1.269 . S
O564 Zn561 1.986 . S
O564 C571 1.262 . S
O565 Zn560 2.049 . S
O565 C573 1.260 . S
O566 Zn561 1.996 . S
O566 C573 1.257 . S
C567 O562 1.254 . S
C567 O563 1.269 . S
C568 O569 1.249 . S
C568 O570 1.270 . S
O569 Zn561 1.943 . S
O569 C568 1.249 . S
O570 Zn560 2.067 . S
O570 C568 1.270 . S
C571 O564 1.262 . S
C571 O572 1.232 . S
O572 C571 1.232 . S
C573 O565 1.260 . S
C573 O566 1.257 . S
Zn574 O577 2.031 . S
Zn574 O579 2.049 . S
Zn574 O584 2.067 . S
Zn575 O576 1.962 . S
Zn575 O578 1.986 . S
Zn575 O580 1.996 . S
Zn575 O583 1.943 . S
O576 Zn575 1.962 . S
O576 C581 1.254 . S
O577 Zn574 2.031 . S
O577 C581 1.269 . S
O578 Zn575 1.986 . S
O578 C585 1.262 . S
O579 Zn574 2.049 . S
O579 C587 1.260 . S
O580 Zn575 1.996 . S
O580 C587 1.257 . S
C581 O576 1.254 . S
C581 O577 1.269 . S
C582 O583 1.249 . S
C582 O584 1.270 . S
O583 Zn575 1.943 . S
O583 C582 1.249 . S
O584 Zn574 2.067 . S
O584 C582 1.270 . S
C585 O578 1.262 . S
C585 O586 1.232 . S
O586 C585 1.232 . S
C587 O579 1.260 . S
C587 O580 1.257 . S
Zn588 O591 2.031 . S
Zn588 O593 2.049 . S
Zn588 O598 2.067 . S
Zn589 O590 1.962 . S
Zn589 O592 1.986 . S
Zn589 O594 1.996 . S
Zn589 O597 1.943 . S
O590 Zn589 1.962 . S
O590 C595 1.254 . S
O591 Zn588 2.031 . S
O591 C595 1.269 . S
O592 Zn589 1.986 . S
O592 C599 1.262 . S
O593 Zn588 2.049 . S
O593 C601 1.260 . S
O594 Zn589 1.996 . S
O594 C601 1.257 . S
C595 O590 1.254 . S
C595 O591 1.269 . S
C596 O597 1.249 . S
C596 O598 1.270 . S
O597 Zn589 1.943 . S
O597 C596 1.249 . S
O598 Zn588 2.067 . S
O598 C596 1.270 . S
C599 O592 1.262 . S
C599 O600 1.232 . S
O600 C599 1.232 . S
C601 O593 1.260 . S
C601 O594 1.257 . S
Zn602 O605 2.031 . S
Zn602 O607 2.049 . S
Zn602 O612 2.067 . S
Zn603 O604 1.962 . S
Zn603 O606 1.986 . S
Zn603 O608 1.996 . S
Zn603 O611 1.943 . S
O604 Zn603 1.962 . S
O604 C609 1.254 . S
O605 Zn602 2.031 . S
O605 C609 1.269 . S
O606 Zn603 1.986 . S
O606 C613 1.262 . S
O607 Zn602 2.049 . S
O607 C615 1.260 . S
O608 Zn603 1.996 . S
O608 C615 1.257 . S
C609 O604 1.254 . S
C609 O605 1.269 . S
C610 O611 1.249 . S
C610 O612 1.270 . S
O611 Zn603 1.943 . S
O611 C610 1.249 . S
O612 Zn602 2.067 . S
O612 C610 1.270 . S
C613 O606 1.262 . S
C613 O614 1.232 . S
O614 C613 1.232 . S
C615 O607 1.260 . S
C615 O608 1.257 . S
Zn616 O619 2.031 . S
Zn616 O621 2.049 . S
Zn616 O626 2.067 . S
Zn617 O618 1.962 . S
Zn617 O620 1.986 . S
Zn617 O622 1.996 . S
Zn617 O625 1.943 . S
O618 Zn617 1.962 . S
O618 C623 1.254 . S
O619 Zn616 2.031 . S
O619 C623 1.269 . S
O620 Zn617 1.986 . S
O620 C627 1.262 . S
O621 Zn616 2.049 . S
O621 C629 1.260 . S
O622 Zn617 1.996 . S
O622 C629 1.257 . S
C623 O618 1.254 . S
C623 O619 1.269 . S
C624 O625 1.249 . S
C624 O626 1.270 . S
O625 Zn617 1.943 . S
O625 C624 1.249 . S
O626 Zn616 2.067 . S
O626 C624 1.270 . S
C627 O620 1.262 . S
C627 O628 1.232 . S
O628 C627 1.232 . S
C629 O621 1.260 . S
C629 O622 1.257 . S
Zn630 O633 2.031 . S
Zn630 O635 2.049 . S
Zn630 O640 2.067 . S
Zn631 O632 1.962 . S
Zn631 O634 1.986 . S
Zn631 O636 1.996 . S
Zn631 O639 1.943 . S
O632 Zn631 1.962 . S
O632 C637 1.254 . S
O633 Zn630 2.031 . S
O633 C637 1.269 . S
O634 Zn631 1.986 . S
O634 C641 1.262 . S
O635 Zn630 2.049 . S
O635 C643 1.260 . S
O636 Zn631 1.996 . S
O636 C643 1.257 . S
C637 O632 1.254 . S
C637 O633 1.269 . S
C638 O639 1.249 . S
C638 O640 1.270 . S
O639 Zn631 1.943 . S
O639 C638 1.249 . S
O640 Zn630 2.067 . S
O640 C638 1.270 . S
C641 O634 1.262 . S
C641 O642 1.232 . S
O642 C641 1.232 . S
C643 O635 1.260 . S
C643 O636 1.257 . S
Zn644 O647 2.031 . S
Zn644 O649 2.049 . S
Zn644 O654 2.067 . S
Zn645 O646 1.962 . S
Zn645 O648 1.986 . S
Zn645 O650 1.996 . S
Zn645 O653 1.943 . S
O646 Zn645 1.962 . S
O646 C651 1.254 . S
O647 Zn644 2.031 . S
O647 C651 1.269 . S
O648 Zn645 1.986 . S
O648 C655 1.262 . S
O649 Zn644 2.049 . S
O649 C657 1.260 . S
O650 Zn645 1.996 . S
O650 C657 1.257 . S
C651 O646 1.254 . S
C651 O647 1.269 . S
C652 O653 1.249 . S
C652 O654 1.270 . S
O653 Zn645 1.943 . S
O653 C652 1.249 . S
O654 Zn644 2.067 . S
O654 C652 1.270 . S
C655 O648 1.262 . S
C655 O656 1.232 . S
O656 C655 1.232 . S
C657 O649 1.260 . S
C657 O650 1.257 . S
Zn658 O661 2.031 . S
Zn658 O663 2.049 . S
Zn658 O668 2.067 . S
Zn659 O660 1.962 . S
Zn659 O662 1.986 . S
Zn659 O664 1.996 . S
Zn659 O667 1.943 . S
O660 Zn659 1.962 . S
O660 C665 1.254 . S
O661 Zn658 2.031 . S
O661 C665 1.269 . S
O662 Zn659 1.986 . S
O662 C669 1.262 . S
O663 Zn658 2.049 . S
O663 C671 1.260 . S
O664 Zn659 1.996 . S
O664 C671 1.257 . S
C665 O660 1.254 . S
C665 O661 1.269 . S
C666 O667 1.249 . S
C666 O668 1.270 . S
O667 Zn659 1.943 . S
O667 C666 1.249 . S
O668 Zn658 2.067 . S
O668 C666 1.270 . S
C669 O662 1.262 . S
C669 O670 1.232 . S
O670 C669 1.232 . S
C671 O663 1.260 . S
C671 O664 1.257 . S
C672 C673 1.363 . S
C672 C678 1.379 . S
C672 N680 1.356 . S
C673 C672 1.363 . S
C673 C679 1.363 1_655 S
C674 C675 1.363 . S
C674 C679 1.379 . S
C674 N681 1.356 . S
C675 C674 1.363 . S
C675 C678 1.363 1_455 S
N676 C678 1.356 . S
N676 H688 0.984 . S
N676 H689 0.985 1_655 S
N677 C679 1.356 . S
N677 H682 0.984 1_455 S
N677 H683 0.985 . S
C678 C672 1.379 . S
C678 C675 1.363 1_655 S
C678 N676 1.356 . S
C679 C673 1.363 1_455 S
C679 C674 1.379 . S
C679 N677 1.356 . S
N680 C672 1.356 . S
N680 H686 0.984 . S
N680 H687 0.984 . S
N681 C674 1.356 . S
N681 H684 0.984 . S
N681 H685 0.985 . S
H682 N677 0.984 1_655 S
H683 N677 0.985 . S
H684 N681 0.984 . S
H685 N681 0.985 . S
H686 N680 0.984 . S
H687 N680 0.984 . S
H688 N676 0.984 . S
H689 N676 0.985 1_455 S
C690 C691 1.363 1_545 S
C690 C696 1.379 . S
C690 N698 1.356 . S
C691 C690 1.363 1_565 S
C691 C697 1.363 . S
C692 C693 1.363 1_565 S
C692 C697 1.379 . S
C692 N699 1.356 . S
C693 C692 1.363 1_545 S
C693 C696 1.363 . S
N694 C696 1.356 . S
N694 H706 0.984 . S
N694 H707 0.985 . S
N695 C697 1.356 . S
N695 H700 0.984 . S
N695 H701 0.985 . S
C696 C690 1.379 . S
C696 C693 1.363 . S
C696 N694 1.356 . S
C697 C691 1.363 . S
C697 C692 1.379 . S
C697 N695 1.356 . S
N698 C690 1.356 . S
N698 H704 0.984 . S
N698 H705 0.984 . S
N699 C692 1.356 . S
N699 H702 0.984 . S
N699 H703 0.985 . S
H700 N695 0.984 . S
H701 N695 0.985 . S
H702 N699 0.984 . S
H703 N699 0.985 . S
H704 N698 0.984 . S
H705 N698 0.984 . S
H706 N694 0.984 . S
H707 N694 0.985 . S
C708 C709 1.363 . S
C708 C714 1.379 1_455 S
C708 N716 1.356 . S
C709 C708 1.363 . S
C709 C715 1.363 . S
C710 C711 1.363 . S
C710 C715 1.379 1_655 S
C710 N717 1.356 . S
C711 C710 1.363 . S
C711 C714 1.363 . S
N712 C714 1.356 . S
N712 H724 0.984 . S
N712 H725 0.985 . S
N713 C715 1.356 . S
N713 H718 0.984 . S
N713 H719 0.985 . S
C714 C708 1.379 1_655 S
C714 C711 1.363 . S
C714 N712 1.356 . S
C715 C709 1.363 . S
C715 C710 1.379 1_455 S
C715 N713 1.356 . S
N716 C708 1.356 . S
N716 H722 0.984 . S
N716 H723 0.984 . S
N717 C710 1.356 . S
N717 H720 0.984 . S
N717 H721 0.985 . S
H718 N713 0.984 . S
H719 N713 0.985 . S
H720 N717 0.984 . S
H721 N717 0.985 . S
H722 N716 0.984 . S
H723 N716 0.984 . S
H724 N712 0.984 . S
H725 N712 0.985 . S
C726 C727 1.363 . S
C726 C732 1.379 1_565 S
C726 N734 1.356 . S
C727 C726 1.363 . S
C727 C733 1.363 . S
C728 C729 1.363 . S
C728 C733 1.379 1_545 S
C728 N735 1.356 . S
C729 C728 1.363 . S
C729 C732 1.363 . S
N730 C732 1.356 . S
N730 H742 0.984 . S
N730 H743 0.985 . S
N731 C733 1.356 . S
N731 H736 0.984 . S
N731 H737 0.985 . S
C732 C726 1.379 1_545 S
C732 C729 1.363 . S
C732 N730 1.356 . S
C733 C727 1.363 . S
C733 C728 1.379 1_565 S
C733 N731 1.356 . S
N734 C726 1.356 . S
N734 H740 0.994 . S
N734 H741 0.984 . S
N735 C728 1.356 . S
N735 H738 0.984 . S
N735 H739 0.994 . S
H736 N731 0.984 . S
H737 N731 0.985 . S
H738 N735 0.984 . S
H739 N735 0.994 . S
H740 N734 0.994 . S
H741 N734 0.984 . S
H742 N730 0.984 . S
H743 N730 0.985 . S
C744 C745 1.363 1_455 S
C744 C750 1.379 . S
C744 N752 1.356 1_455 S
C745 C744 1.363 1_655 S
C745 C751 1.363 . S
C746 C747 1.363 1_655 S
C746 C751 1.379 . S
C746 N753 1.356 1_655 S
C747 C746 1.363 1_455 S
C747 C750 1.363 . S
N748 C750 1.356 . S
N748 H760 0.984 . S
N748 H761 0.985 . S
N749 C751 1.356 . S
N749 H754 0.984 . S
N749 H755 0.985 . S
C750 C744 1.379 . S
C750 C747 1.363 . S
C750 N748 1.356 . S
C751 C745 1.363 . S
C751 C746 1.379 . S
C751 N749 1.356 . S
N752 C744 1.356 1_655 S
N752 H758 0.984 1_655 S
N752 H759 0.984 . S
N753 C746 1.356 1_455 S
N753 H756 0.984 . S
N753 H757 0.985 1_455 S
H754 N749 0.984 . S
H755 N749 0.985 . S
H756 N753 0.984 . S
H757 N753 0.985 1_655 S
H758 N752 0.984 1_455 S
H759 N752 0.984 . S
H760 N748 0.984 . S
H761 N748 0.985 . S
C762 C763 1.363 . S
C762 C768 1.376 1_545 S
C762 N770 1.356 . S
C763 C762 1.363 . S
C763 C769 1.366 . S
C764 C765 1.363 . S
C764 C769 1.376 1_565 S
C764 N771 1.356 . S
C765 C764 1.363 . S
C765 C768 1.366 . S
N766 C768 1.357 . S
N766 H778 0.984 1_565 S
N766 H779 0.985 . S
N767 C769 1.357 . S
N767 H772 0.984 . S
N767 H773 0.985 1_545 S
C768 C762 1.376 1_565 S
C768 C765 1.366 . S
C768 N766 1.357 . S
C769 C763 1.366 . S
C769 C764 1.376 1_545 S
C769 N767 1.357 . S
N770 C762 1.356 . S
N770 H776 0.984 . S
N770 H777 0.984 . S
N771 C764 1.356 . S
N771 H774 0.984 . S
N771 H775 0.985 . S
H772 N767 0.984 . S
H773 N767 0.985 1_565 S
H774 N771 0.984 . S
H775 N771 0.985 . S
H776 N770 0.984 . S
H777 N770 0.984 . S
H778 N766 0.984 1_545 S
H779 N766 0.985 . S
C780 C781 1.363 . S
C780 C786 1.379 1_455 S
C780 N788 1.356 . S
C781 C780 1.363 . S
C781 C787 1.363 . S
C782 C783 1.363 . S
C782 C787 1.379 1_655 S
C782 N789 1.356 . S
C783 C782 1.363 . S
C783 C786 1.363 . S
N784 C786 1.356 . S
N784 H796 0.984 . S
N784 H797 0.985 . S
N785 C787 1.356 . S
N785 H790 0.984 . S
N785 H791 0.985 . S
C786 C780 1.379 1_655 S
C786 C783 1.363 . S
C786 N784 1.356 . S
C787 C781 1.363 . S
C787 C782 1.379 1_455 S
C787 N785 1.356 . S
N788 C780 1.356 . S
N788 H794 0.984 . S
N788 H795 0.984 . S
N789 C782 1.356 . S
N789 H792 0.984 . S
N789 H793 0.985 . S
H790 N785 0.984 . S
H791 N785 0.985 . S
H792 N789 0.984 . S
H793 N789 0.985 . S
H794 N788 0.984 . S
H795 N788 0.984 . S
H796 N784 0.984 . S
H797 N784 0.985 . S
C798 C799 1.363 1_565 S
C798 C804 1.379 . S
C798 N806 1.356 . S
C799 C798 1.363 1_545 S
C799 C805 1.363 . S
C800 C801 1.363 1_545 S
C800 C805 1.379 . S
C800 N807 1.356 . S
C801 C800 1.363 1_565 S
C801 C804 1.363 . S
N802 C804 1.356 . S
N802 H814 0.984 . S
N802 H815 0.985 . S
N803 C805 1.356 . S
N803 H808 0.984 . S
N803 H809 0.985 . S
C804 C798 1.379 . S
C804 C801 1.363 . S
C804 N802 1.356 . S
C805 C799 1.363 . S
C805 C800 1.379 . S
C805 N803 1.356 . S
N806 C798 1.356 . S
N806 H812 0.984 . S
N806 H813 0.984 1_565 S
N807 C800 1.356 . S
N807 H810 0.984 1_545 S
N807 H811 0.985 . S
H808 N803 0.984 . S
H809 N803 0.985 . S
H810 N807 0.984 1_565 S
H811 N807 0.985 . S
H812 N806 0.984 . S
H813 N806 0.984 1_545 S
H814 N802 0.984 . S
H815 N802 0.985 . S
C816 C817 1.363 . S
C816 C822 1.379 . S
C816 N824 1.356 . S
C817 C816 1.363 . S
C817 C823 1.363 1_554 S
C818 C819 1.363 . S
C818 C823 1.379 . S
C818 N825 1.356 . S
C819 C818 1.363 . S
C819 C822 1.363 1_556 S
N820 C822 1.356 . S
N820 H832 0.984 . S
N820 H833 0.994 . S
N821 C823 1.356 . S
N821 H826 0.994 . S
N821 H827 0.985 . S
C822 C816 1.379 . S
C822 C819 1.363 1_554 S
C822 N820 1.356 . S
C823 C817 1.363 1_556 S
C823 C818 1.379 . S
C823 N821 1.356 . S
N824 C816 1.356 . S
N824 H830 0.984 . S
N824 H831 0.984 . S
N825 C818 1.356 . S
N825 H828 0.984 . S
N825 H829 0.985 . S
H826 N821 0.994 . S
H827 N821 0.985 . S
H828 N825 0.984 . S
H829 N825 0.985 . S
H830 N824 0.984 . S
H831 N824 0.984 . S
H832 N820 0.984 . S
H833 N820 0.994 . S
C834 C835 1.363 . S
C834 C840 1.379 . S
C834 N842 1.356 . S
C835 C834 1.363 . S
C835 C841 1.363 1_556 S
C836 C837 1.363 . S
C836 C841 1.379 . S
C836 N843 1.356 . S
C837 C836 1.363 . S
C837 C840 1.363 1_554 S
N838 C840 1.356 . S
N838 H850 0.984 . S
N838 H851 0.985 . S
N839 C841 1.356 . S
N839 H844 0.984 . S
N839 H845 0.985 . S
C840 C834 1.379 . S
C840 C837 1.363 1_556 S
C840 N838 1.356 . S
C841 C835 1.363 1_554 S
C841 C836 1.379 . S
C841 N839 1.356 . S
N842 C834 1.356 . S
N842 H848 0.984 . S
N842 H849 0.984 . S
N843 C836 1.356 . S
N843 H846 0.984 . S
N843 H847 0.985 . S
H844 N839 0.984 . S
H845 N839 0.985 . S
H846 N843 0.984 . S
H847 N843 0.985 . S
H848 N842 0.984 . S
H849 N842 0.984 . S
H850 N838 0.984 . S
H851 N838 0.985 . S
C852 C853 1.363 . S
C852 C858 1.379 . S
C852 N860 1.356 . S
C853 C852 1.363 . S
C853 C859 1.363 1_556 S
C854 C855 1.363 . S
C854 C859 1.379 . S
C854 N861 1.356 . S
C855 C854 1.363 . S
C855 C858 1.363 1_554 S
N856 C858 1.356 . S
N856 H868 0.984 . S
N856 H869 0.985 1_556 S
N857 C859 1.356 . S
N857 H862 0.984 1_554 S
N857 H863 0.985 . S
C858 C852 1.379 . S
C858 C855 1.363 1_556 S
C858 N856 1.356 . S
C859 C853 1.363 1_554 S
C859 C854 1.379 . S
C859 N857 1.356 . S
N860 C852 1.356 . S
N860 H866 0.984 . S
N860 H867 0.984 . S
N861 C854 1.356 . S
N861 H864 0.984 . S
N861 H865 0.985 . S
H862 N857 0.984 1_556 S
H863 N857 0.985 . S
H864 N861 0.984 . S
H865 N861 0.985 . S
H866 N860 0.984 . S
H867 N860 0.984 . S
H868 N856 0.984 . S
H869 N856 0.985 1_554 S
C870 C871 1.363 1_554 S
C870 C876 1.379 . S
C870 N878 1.356 . S
C871 C870 1.363 1_556 S
C871 C877 1.363 . S
C872 C873 1.363 1_556 S
C872 C877 1.379 . S
C872 N879 1.356 . S
C873 C872 1.363 1_554 S
C873 C876 1.363 . S
N874 C876 1.356 . S
N874 H886 0.984 . S
N874 H887 0.985 . S
N875 C877 1.356 . S
N875 H880 0.984 . S
N875 H881 0.985 . S
C876 C870 1.379 . S
C876 C873 1.363 . S
C876 N874 1.356 . S
C877 C871 1.363 . S
C877 C872 1.379 . S
C877 N875 1.356 . S
N878 C870 1.356 . S
N878 H884 0.984 . S
N878 H885 0.983 1_554 S
N879 C872 1.356 . S
N879 H882 0.983 1_556 S
N879 H883 0.985 . S
H880 N875 0.984 . S
H881 N875 0.985 . S
H882 N879 0.983 1_554 S
H883 N879 0.985 . S
H884 N878 0.984 . S
H885 N878 0.983 1_556 S
H886 N874 0.984 . S
H887 N874 0.985 . S
C888 C889 1.363 . S
C888 C894 1.379 . S
C888 N896 1.356 . S
C889 C888 1.363 . S
C889 C895 1.363 . S
C890 C891 1.363 . S
C890 C895 1.379 . S
C890 N897 1.356 . S
C891 C890 1.363 . S
C891 C894 1.363 . S
N892 C894 1.356 . S
N892 H904 0.984 . S
N892 H905 0.985 . S
N893 C895 1.356 . S
N893 H898 0.984 . S
N893 H899 0.985 . S
C894 C888 1.379 . S
C894 C891 1.363 . S
C894 N892 1.356 . S
C895 C889 1.363 . S
C895 C890 1.379 . S
C895 N893 1.356 . S
N896 C888 1.356 . S
N896 H902 0.984 . S
N896 H903 0.984 . S
N897 C890 1.356 . S
N897 H900 0.984 . S
N897 H901 0.985 . S
H898 N893 0.984 . S
H899 N893 0.985 . S
H900 N897 0.984 . S
H901 N897 0.985 . S
H902 N896 0.984 . S
H903 N896 0.984 . S
H904 N892 0.984 . S
H905 N892 0.985 . S
C906 C907 1.363 . S
C906 C912 1.379 . S
C906 N914 1.356 . S
C907 C906 1.363 . S
C907 C913 1.363 . S
C908 C909 1.363 . S
C908 C913 1.379 . S
C908 N915 1.356 . S
C909 C908 1.363 . S
C909 C912 1.363 . S
N910 C912 1.356 . S
N910 H922 0.984 . S
N910 H923 0.985 . S
N911 C913 1.356 . S
N911 H916 0.984 . S
N911 H917 0.985 . S
C912 C906 1.379 . S
C912 C909 1.363 . S
C912 N910 1.356 . S
C913 C907 1.363 . S
C913 C908 1.379 . S
C913 N911 1.356 . S
N914 C906 1.356 . S
N914 H920 0.984 . S
N914 H921 0.984 . S
N915 C908 1.356 . S
N915 H918 0.984 . S
N915 H919 0.985 . S
H916 N911 0.984 . S
H917 N911 0.985 . S
H918 N915 0.984 . S
H919 N915 0.985 . S
H920 N914 0.984 . S
H921 N914 0.984 . S
H922 N910 0.984 . S
H923 N910 0.985 . S
C924 C925 1.363 . S
C924 C930 1.379 . S
C924 N932 1.356 . S
C925 C924 1.363 . S
C925 C931 1.363 . S
C926 C927 1.363 . S
C926 C931 1.379 . S
C926 N933 1.356 . S
C927 C926 1.363 . S
C927 C930 1.363 . S
N928 C930 1.356 . S
N928 H940 0.984 . S
N928 H941 0.985 . S
N929 C931 1.356 . S
N929 H934 0.984 . S
N929 H935 0.985 . S
C930 C924 1.379 . S
C930 C927 1.363 . S
C930 N928 1.356 . S
C931 C925 1.363 . S
C931 C926 1.379 . S
C931 N929 1.356 . S
N932 C924 1.356 . S
N932 H938 0.984 . S
N932 H939 0.984 . S
N933 C926 1.356 . S
N933 H936 0.984 . S
N933 H937 0.985 . S
H934 N929 0.984 . S
H935 N929 0.985 . S
H936 N933 0.984 . S
H937 N933 0.985 . S
H938 N932 0.984 . S
H939 N932 0.984 . S
H940 N928 0.984 . S
H941 N928 0.985 . S
C942 C943 1.363 . S
C942 C948 1.379 . S
C942 N950 1.356 . S
C943 C942 1.363 . S
C943 C949 1.363 . S
C944 C945 1.363 . S
C944 C949 1.379 . S
C944 N951 1.356 . S
C945 C944 1.363 . S
C945 C948 1.363 . S
N946 C948 1.356 . S
N946 H958 0.984 . S
N946 H959 0.985 . S
N947 C949 1.356 . S
N947 H952 0.984 . S
N947 H953 0.985 . S
C948 C942 1.379 . S
C948 C945 1.363 . S
C948 N946 1.356 . S
C949 C943 1.363 . S
C949 C944 1.379 . S
C949 N947 1.356 . S
N950 C942 1.356 . S
N950 H956 0.984 . S
N950 H957 0.984 . S
N951 C944 1.356 . S
N951 H954 0.984 . S
N951 H955 0.985 . S
H952 N947 0.984 . S
H953 N947 0.985 . S
H954 N951 0.984 . S
H955 N951 0.985 . S
H956 N950 0.984 . S
H957 N950 0.984 . S
H958 N946 0.984 . S
H959 N946 0.985 . S
C960 C961 1.363 . S
C960 C966 1.379 . S
C960 N968 1.356 . S
C961 C960 1.363 . S
C961 C967 1.363 . S
C962 C963 1.363 . S
C962 C967 1.379 . S
C962 N969 1.356 . S
C963 C962 1.363 . S
C963 C966 1.363 . S
N964 C966 1.356 . S
N964 H976 0.984 . S
N964 H977 0.985 . S
N965 C967 1.356 . S
N965 H970 0.984 . S
N965 H971 0.985 . S
C966 C960 1.379 . S
C966 C963 1.363 . S
C966 N964 1.356 . S
C967 C961 1.363 . S
C967 C962 1.379 . S
C967 N965 1.356 . S
N968 C960 1.356 . S
N968 H974 0.984 . S
N968 H975 0.984 . S
N969 C962 1.356 . S
N969 H972 0.984 . S
N969 H973 0.985 . S
H970 N965 0.984 . S
H971 N965 0.985 . S
H972 N969 0.984 . S
H973 N969 0.985 . S
H974 N968 0.984 . S
H975 N968 0.984 . S
H976 N964 0.984 . S
H977 N964 0.985 . S
C978 C979 1.363 . S
C978 C984 1.379 . S
C978 N986 1.356 . S
C979 C978 1.363 . S
C979 C985 1.363 . S
C980 C981 1.363 . S
C980 C985 1.379 . S
C980 N987 1.356 . S
C981 C980 1.363 . S
C981 C984 1.363 . S
N982 C984 1.356 . S
N982 H994 0.984 . S
N982 H995 0.985 . S
N983 C985 1.356 . S
N983 H988 0.984 . S
N983 H989 0.985 . S
C984 C978 1.379 . S
C984 C981 1.363 . S
C984 N982 1.356 . S
C985 C979 1.363 . S
C985 C980 1.379 . S
C985 N983 1.356 . S
N986 C978 1.356 . S
N986 H992 0.984 . S
N986 H993 0.984 . S
N987 C980 1.356 . S
N987 H990 0.984 . S
N987 H991 0.985 . S
H988 N983 0.984 . S
H989 N983 0.985 . S
H990 N987 0.984 . S
H991 N987 0.985 . S
H992 N986 0.984 . S
H993 N986 0.984 . S
H994 N982 0.984 . S
H995 N982 0.985 . S
C996 C997 1.363 . S
C996 C1002 1.379 . S
C996 N1004 1.356 . S
C997 C996 1.363 . S
C997 C1003 1.363 . S
C998 C999 1.363 . S
C998 C1003 1.379 . S
C998 N1005 1.356 . S
C999 C998 1.363 . S
C999 C1002 1.363 . S
N1000 C1002 1.356 . S
N1000 H1012 0.984 . S
N1000 H1013 0.985 . S
N1001 C1003 1.356 . S
N1001 H1006 0.984 . S
N1001 H1007 0.985 . S
C1002 C996 1.379 . S
C1002 C999 1.363 . S
C1002 N1000 1.356 . S
C1003 C997 1.363 . S
C1003 C998 1.379 . S
C1003 N1001 1.356 . S
N1004 C996 1.356 . S
N1004 H1010 0.984 . S
N1004 H1011 0.984 . S
N1005 C998 1.356 . S
N1005 H1008 0.984 . S
N1005 H1009 0.985 . S
H1006 N1001 0.984 . S
H1007 N1001 0.985 . S
H1008 N1005 0.984 . S
H1009 N1005 0.985 . S
H1010 N1004 0.984 . S
H1011 N1004 0.984 . S
H1012 N1000 0.984 . S
H1013 N1000 0.985 . S
C1014 C1015 1.363 . S
C1014 C1020 1.379 . S
C1014 N1022 1.356 . S
C1015 C1014 1.363 . S
C1015 C1021 1.363 . S
C1016 C1017 1.363 . S
C1016 C1021 1.379 . S
C1016 N1023 1.356 . S
C1017 C1016 1.363 . S
C1017 C1020 1.363 . S
N1018 C1020 1.356 . S
N1018 H1030 0.984 . S
N1018 H1031 0.985 . S
N1019 C1021 1.356 . S
N1019 H1024 0.984 . S
N1019 H1025 0.985 . S
C1020 C1014 1.379 . S
C1020 C1017 1.363 . S
C1020 N1018 1.356 . S
C1021 C1015 1.363 . S
C1021 C1016 1.379 . S
C1021 N1019 1.356 . S
N1022 C1014 1.356 . S
N1022 H1028 0.984 . S
N1022 H1029 0.984 . S
N1023 C1016 1.356 . S
N1023 H1026 0.984 . S
N1023 H1027 0.985 . S
H1024 N1019 0.984 . S
H1025 N1019 0.985 . S
H1026 N1023 0.984 . S
H1027 N1023 0.985 . S
H1028 N1022 0.984 . S
H1029 N1022 0.984 . S
H1030 N1018 0.984 . S
H1031 N1018 0.985 . S
C1032 C1033 1.363 . S
C1032 C1038 1.379 . S
C1032 N1040 1.356 . S
C1033 C1032 1.363 . S
C1033 C1039 1.363 . S
C1034 C1035 1.363 . S
C1034 C1039 1.379 . S
C1034 N1041 1.356 . S
C1035 C1034 1.363 . S
C1035 C1038 1.363 . S
N1036 C1038 1.356 . S
N1036 H1048 0.984 . S
N1036 H1049 0.985 . S
N1037 C1039 1.356 . S
N1037 H1042 0.984 . S
N1037 H1043 0.985 . S
C1038 C1032 1.379 . S
C1038 C1035 1.363 . S
C1038 N1036 1.356 . S
C1039 C1033 1.363 . S
C1039 C1034 1.379 . S
C1039 N1037 1.356 . S
N1040 C1032 1.356 . S
N1040 H1046 0.984 . S
N1040 H1047 0.984 . S
N1041 C1034 1.356 . S
N1041 H1044 0.984 . S
N1041 H1045 0.985 . S
H1042 N1037 0.984 . S
H1043 N1037 0.985 . S
H1044 N1041 0.984 . S
H1045 N1041 0.985 . S
H1046 N1040 0.984 . S
H1047 N1040 0.984 . S
H1048 N1036 0.984 . S
H1049 N1036 0.985 . S
C1050 C1051 1.363 . S
C1050 C1056 1.379 . S
C1050 N1058 1.356 . S
C1051 C1050 1.363 . S
C1051 C1057 1.363 . S
C1052 C1053 1.363 . S
C1052 C1057 1.379 . S
C1052 N1059 1.356 . S
C1053 C1052 1.363 . S
C1053 C1056 1.363 . S
N1054 C1056 1.356 . S
N1054 H1066 0.984 . S
N1054 H1067 0.985 . S
N1055 C1057 1.356 . S
N1055 H1060 0.984 . S
N1055 H1061 0.985 . S
C1056 C1050 1.379 . S
C1056 C1053 1.363 . S
C1056 N1054 1.356 . S
C1057 C1051 1.363 . S
C1057 C1052 1.379 . S
C1057 N1055 1.356 . S
N1058 C1050 1.356 . S
N1058 H1064 0.984 . S
N1058 H1065 0.984 . S
N1059 C1052 1.356 . S
N1059 H1062 0.984 . S
N1059 H1063 0.985 . S
H1060 N1055 0.984 . S
H1061 N1055 0.985 . S
H1062 N1059 0.984 . S
H1063 N1059 0.985 . S
H1064 N1058 0.984 . S
H1065 N1058 0.984 . S
H1066 N1054 0.984 . S
H1067 N1054 0.985 . S
C1068 C1069 1.363 . S
C1068 C1074 1.379 . S
C1068 N1076 1.356 . S
C1069 C1068 1.363 . S
C1069 C1075 1.363 . S
C1070 C1071 1.363 . S
C1070 C1075 1.379 . S
C1070 N1077 1.356 . S
C1071 C1070 1.363 . S
C1071 C1074 1.363 . S
N1072 C1074 1.356 . S
N1072 H1084 0.984 . S
N1072 H1085 0.985 . S
N1073 C1075 1.356 . S
N1073 H1078 0.984 . S
N1073 H1079 0.985 . S
C1074 C1068 1.379 . S
C1074 C1071 1.363 . S
C1074 N1072 1.356 . S
C1075 C1069 1.363 . S
C1075 C1070 1.379 . S
C1075 N1073 1.356 . S
N1076 C1068 1.356 . S
N1076 H1082 0.984 . S
N1076 H1083 0.984 . S
N1077 C1070 1.356 . S
N1077 H1080 0.984 . S
N1077 H1081 0.985 . S
H1078 N1073 0.984 . S
H1079 N1073 0.985 . S
H1080 N1077 0.984 . S
H1081 N1077 0.985 . S
H1082 N1076 0.984 . S
H1083 N1076 0.984 . S
H1084 N1072 0.984 . S
H1085 N1072 0.985 . S
C1086 C1087 1.363 . S
C1086 C1092 1.379 . S
C1086 N1094 1.356 . S
C1087 C1086 1.363 . S
C1087 C1093 1.363 . S
C1088 C1089 1.363 . S
C1088 C1093 1.379 . S
C1088 N1095 1.356 . S
C1089 C1088 1.363 . S
C1089 C1092 1.363 . S
N1090 C1092 1.356 . S
N1090 H1102 0.984 . S
N1090 H1103 0.985 . S
N1091 C1093 1.356 . S
N1091 H1096 0.984 . S
N1091 H1097 0.985 . S
C1092 C1086 1.379 . S
C1092 C1089 1.363 . S
C1092 N1090 1.356 . S
C1093 C1087 1.363 . S
C1093 C1088 1.379 . S
C1093 N1091 1.356 . S
N1094 C1086 1.356 . S
N1094 H1100 0.984 . S
N1094 H1101 0.984 . S
N1095 C1088 1.356 . S
N1095 H1098 0.984 . S
N1095 H1099 0.985 . S
H1096 N1091 0.984 . S
H1097 N1091 0.985 . S
H1098 N1095 0.984 . S
H1099 N1095 0.985 . S
H1100 N1094 0.984 . S
H1101 N1094 0.984 . S
H1102 N1090 0.984 . S
H1103 N1090 0.985 . S
C1104 C1105 1.363 . S
C1104 C1110 1.379 . S
C1104 N1112 1.356 . S
C1105 C1104 1.363 . S
C1105 C1111 1.363 . S
C1106 C1107 1.363 . S
C1106 C1111 1.379 . S
C1106 N1113 1.356 . S
C1107 C1106 1.363 . S
C1107 C1110 1.363 . S
N1108 C1110 1.356 . S
N1108 H1120 0.984 . S
N1108 H1121 0.985 . S
N1109 C1111 1.356 . S
N1109 H1114 0.984 . S
N1109 H1115 0.985 . S
C1110 C1104 1.379 . S
C1110 C1107 1.363 . S
C1110 N1108 1.356 . S
C1111 C1105 1.363 . S
C1111 C1106 1.379 . S
C1111 N1109 1.356 . S
N1112 C1104 1.356 . S
N1112 H1118 0.984 . S
N1112 H1119 0.984 . S
N1113 C1106 1.356 . S
N1113 H1116 0.984 . S
N1113 H1117 0.985 . S
H1114 N1109 0.984 . S
H1115 N1109 0.985 . S
H1116 N1113 0.984 . S
H1117 N1113 0.985 . S
H1118 N1112 0.984 . S
H1119 N1112 0.984 . S
H1120 N1108 0.984 . S
H1121 N1108 0.985 . S
C1122 C1123 1.363 . S
C1122 C1128 1.379 . S
C1122 N1130 1.356 . S
C1123 C1122 1.363 . S
C1123 C1129 1.363 . S
C1124 C1125 1.363 . S
C1124 C1129 1.379 . S
C1124 N1131 1.356 . S
C1125 C1124 1.363 . S
C1125 C1128 1.363 . S
N1126 C1128 1.356 . S
N1126 H1138 0.984 . S
N1126 H1139 0.985 . S
N1127 C1129 1.356 . S
N1127 H1132 0.984 . S
N1127 H1133 0.985 . S
C1128 C1122 1.379 . S
C1128 C1125 1.363 . S
C1128 N1126 1.356 . S
C1129 C1123 1.363 . S
C1129 C1124 1.379 . S
C1129 N1127 1.356 . S
N1130 C1122 1.356 . S
N1130 H1136 0.984 . S
N1130 H1137 0.984 . S
N1131 C1124 1.356 . S
N1131 H1134 0.984 . S
N1131 H1135 0.985 . S
H1132 N1127 0.984 . S
H1133 N1127 0.985 . S
H1134 N1131 0.984 . S
H1135 N1131 0.985 . S
H1136 N1130 0.984 . S
H1137 N1130 0.984 . S
H1138 N1126 0.984 . S
H1139 N1126 0.985 . S
C1140 C1141 1.363 . S
C1140 C1146 1.379 . S
C1140 N1148 1.356 . S
C1141 C1140 1.363 . S
C1141 C1147 1.363 . S
C1142 C1143 1.363 . S
C1142 C1147 1.379 . S
C1142 N1149 1.356 . S
C1143 C1142 1.363 . S
C1143 C1146 1.363 . S
N1144 C1146 1.356 . S
N1144 H1156 0.984 . S
N1144 H1157 0.985 . S
N1145 C1147 1.356 . S
N1145 H1150 0.984 . S
N1145 H1151 0.985 . S
C1146 C1140 1.379 . S
C1146 C1143 1.363 . S
C1146 N1144 1.356 . S
C1147 C1141 1.363 . S
C1147 C1142 1.379 . S
C1147 N1145 1.356 . S
N1148 C1140 1.356 . S
N1148 H1154 0.984 . S
N1148 H1155 0.984 . S
N1149 C1142 1.356 . S
N1149 H1152 0.984 . S
N1149 H1153 0.985 . S
H1150 N1145 0.984 . S
H1151 N1145 0.985 . S
H1152 N1149 0.984 . S
H1153 N1149 0.985 . S
H1154 N1148 0.984 . S
H1155 N1148 0.984 . S
H1156 N1144 0.984 . S
H1157 N1144 0.985 . S
C1158 C1159 1.363 . S
C1158 C1164 1.379 . S
C1158 N1166 1.356 . S
C1159 C1158 1.363 . S
C1159 C1165 1.363 . S
C1160 C1161 1.363 . S
C1160 C1165 1.379 . S
C1160 N1167 1.356 . S
C1161 C1160 1.363 . S
C1161 C1164 1.363 . S
N1162 C1164 1.356 . S
N1162 H1174 0.984 . S
N1162 H1175 0.985 . S
N1163 C1165 1.356 . S
N1163 H1168 0.984 . S
N1163 H1169 0.985 . S
C1164 C1158 1.379 . S
C1164 C1161 1.363 . S
C1164 N1162 1.356 . S
C1165 C1159 1.363 . S
C1165 C1160 1.379 . S
C1165 N1163 1.356 . S
N1166 C1158 1.356 . S
N1166 H1172 0.984 . S
N1166 H1173 0.984 . S
N1167 C1160 1.356 . S
N1167 H1170 0.984 . S
N1167 H1171 0.985 . S
H1168 N1163 0.984 . S
H1169 N1163 0.985 . S
H1170 N1167 0.984 . S
H1171 N1167 0.985 . S
H1172 N1166 0.984 . S
H1173 N1166 0.984 . S
H1174 N1162 0.984 . S
H1175 N1162 0.985 . S
C1176 C1177 1.363 . S
C1176 C1182 1.379 . S
C1176 N1184 1.356 . S
C1177 C1176 1.363 . S
C1177 C1183 1.363 . S
C1178 C1179 1.363 . S
C1178 C1183 1.379 . S
C1178 N1185 1.356 . S
C1179 C1178 1.363 . S
C1179 C1182 1.363 . S
N1180 C1182 1.356 . S
N1180 H1192 0.984 . S
N1180 H1193 0.985 . S
N1181 C1183 1.356 . S
N1181 H1186 0.984 . S
N1181 H1187 0.985 . S
C1182 C1176 1.379 . S
C1182 C1179 1.363 . S
C1182 N1180 1.356 . S
C1183 C1177 1.363 . S
C1183 C1178 1.379 . S
C1183 N1181 1.356 . S
N1184 C1176 1.356 . S
N1184 H1190 0.984 . S
N1184 H1191 0.984 . S
N1185 C1178 1.356 . S
N1185 H1188 0.984 . S
N1185 H1189 0.985 . S
H1186 N1181 0.984 . S
H1187 N1181 0.985 . S
H1188 N1185 0.984 . S
H1189 N1185 0.985 . S
H1190 N1184 0.984 . S
H1191 N1184 0.984 . S
H1192 N1180 0.984 . S
H1193 N1180 0.985 . S
C1194 C1195 1.363 . S
C1194 C1200 1.379 . S
C1194 N1202 1.356 . S
C1195 C1194 1.363 . S
C1195 C1201 1.363 . S
C1196 C1197 1.363 . S
C1196 C1201 1.379 . S
C1196 N1203 1.356 . S
C1197 C1196 1.363 . S
C1197 C1200 1.363 . S
N1198 C1200 1.356 . S
N1198 H1210 0.984 . S
N1198 H1211 0.985 . S
N1199 C1201 1.356 . S
N1199 H1204 0.984 . S
N1199 H1205 0.985 . S
C1200 C1194 1.379 . S
C1200 C1197 1.363 . S
C1200 N1198 1.356 . S
C1201 C1195 1.363 . S
C1201 C1196 1.379 . S
C1201 N1199 1.356 . S
N1202 C1194 1.356 . S
N1202 H1208 0.984 . S
N1202 H1209 0.984 . S
N1203 C1196 1.356 . S
N1203 H1206 0.984 . S
N1203 H1207 0.985 . S
H1204 N1199 0.984 . S
H1205 N1199 0.985 . S
H1206 N1203 0.984 . S
H1207 N1203 0.985 . S
H1208 N1202 0.984 . S
H1209 N1202 0.984 . S
H1210 N1198 0.984 . S
H1211 N1198 0.985 . S
C1212 C1213 1.363 . S
C1212 C1218 1.379 . S
C1212 N1220 1.356 . S
C1213 C1212 1.363 . S
C1213 C1219 1.363 . S
C1214 C1215 1.363 . S
C1214 C1219 1.379 . S
C1214 N1221 1.356 . S
C1215 C1214 1.363 . S
C1215 C1218 1.363 . S
N1216 C1218 1.356 . S
N1216 H1228 0.984 . S
N1216 H1229 0.985 . S
N1217 C1219 1.356 . S
N1217 H1222 0.984 . S
N1217 H1223 0.985 . S
C1218 C1212 1.379 . S
C1218 C1215 1.363 . S
C1218 N1216 1.356 . S
C1219 C1213 1.363 . S
C1219 C1214 1.379 . S
C1219 N1217 1.356 . S
N1220 C1212 1.356 . S
N1220 H1226 0.984 . S
N1220 H1227 0.984 . S
N1221 C1214 1.356 . S
N1221 H1224 0.984 . S
N1221 H1225 0.985 . S
H1222 N1217 0.984 . S
H1223 N1217 0.985 . S
H1224 N1221 0.984 . S
H1225 N1221 0.985 . S
H1226 N1220 0.984 . S
H1227 N1220 0.984 . S
H1228 N1216 0.984 . S
H1229 N1216 0.985 . S
C1230 C1231 1.363 . S
C1230 C1236 1.379 . S
C1230 N1238 1.356 . S
C1231 C1230 1.363 . S
C1231 C1237 1.363 . S
C1232 C1233 1.363 . S
C1232 C1237 1.379 . S
C1232 N1239 1.356 . S
C1233 C1232 1.363 . S
C1233 C1236 1.363 . S
N1234 C1236 1.356 . S
N1234 H1246 0.984 . S
N1234 H1247 0.985 . S
N1235 C1237 1.356 . S
N1235 H1240 0.984 . S
N1235 H1241 0.985 . S
C1236 C1230 1.379 . S
C1236 C1233 1.363 . S
C1236 N1234 1.356 . S
C1237 C1231 1.363 . S
C1237 C1232 1.379 . S
C1237 N1235 1.356 . S
N1238 C1230 1.356 . S
N1238 H1244 0.984 . S
N1238 H1245 0.984 . S
N1239 C1232 1.356 . S
N1239 H1242 0.984 . S
N1239 H1243 0.985 . S
H1240 N1235 0.984 . S
H1241 N1235 0.985 . S
H1242 N1239 0.984 . S
H1243 N1239 0.985 . S
H1244 N1238 0.984 . S
H1245 N1238 0.984 . S
H1246 N1234 0.984 . S
H1247 N1234 0.985 . S
C1248 C1249 1.363 . S
C1248 C1254 1.379 . S
C1248 N1256 1.356 . S
C1249 C1248 1.363 . S
C1249 C1255 1.363 . S
C1250 C1251 1.363 . S
C1250 C1255 1.379 . S
C1250 N1257 1.356 . S
C1251 C1250 1.363 . S
C1251 C1254 1.363 . S
N1252 C1254 1.356 . S
N1252 H1264 0.984 . S
N1252 H1265 0.985 . S
N1253 C1255 1.356 . S
N1253 H1258 0.984 . S
N1253 H1259 0.985 . S
C1254 C1248 1.379 . S
C1254 C1251 1.363 . S
C1254 N1252 1.356 . S
C1255 C1249 1.363 . S
C1255 C1250 1.379 . S
C1255 N1253 1.356 . S
N1256 C1248 1.356 . S
N1256 H1262 0.984 . S
N1256 H1263 0.984 . S
N1257 C1250 1.356 . S
N1257 H1260 0.984 . S
N1257 H1261 0.985 . S
H1258 N1253 0.984 . S
H1259 N1253 0.985 . S
H1260 N1257 0.984 . S
H1261 N1257 0.985 . S
H1262 N1256 0.984 . S
H1263 N1256 0.984 . S
H1264 N1252 0.984 . S
H1265 N1252 0.985 . S
C1266 C1267 1.363 . S
C1266 C1272 1.379 . S
C1266 N1274 1.356 . S
C1267 C1266 1.363 . S
C1267 C1273 1.363 . S
C1268 C1269 1.363 . S
C1268 C1273 1.379 . S
C1268 N1275 1.356 . S
C1269 C1268 1.363 . S
C1269 C1272 1.363 . S
N1270 C1272 1.356 . S
N1270 H1282 0.984 . S
N1270 H1283 0.985 . S
N1271 C1273 1.356 . S
N1271 H1276 0.984 . S
N1271 H1277 0.985 . S
C1272 C1266 1.379 . S
C1272 C1269 1.363 . S
C1272 N1270 1.356 . S
C1273 C1267 1.363 . S
C1273 C1268 1.379 . S
C1273 N1271 1.356 . S
N1274 C1266 1.356 . S
N1274 H1280 0.984 . S
N1274 H1281 0.984 . S
N1275 C1268 1.356 . S
N1275 H1278 0.984 . S
N1275 H1279 0.985 . S
H1276 N1271 0.984 . S
H1277 N1271 0.985 . S
H1278 N1275 0.984 . S
H1279 N1275 0.985 . S
H1280 N1274 0.984 . S
H1281 N1274 0.984 . S
H1282 N1270 0.984 . S
H1283 N1270 0.985 . S
C1284 C1285 1.363 . S
C1284 C1290 1.379 . S
C1284 N1292 1.356 . S
C1285 C1284 1.363 . S
C1285 C1291 1.363 . S
C1286 C1287 1.363 . S
C1286 C1291 1.379 . S
C1286 N1293 1.356 . S
C1287 C1286 1.363 . S
C1287 C1290 1.363 . S
N1288 C1290 1.356 . S
N1288 H1300 0.984 . S
N1288 H1301 0.985 . S
N1289 C1291 1.356 . S
N1289 H1294 0.984 . S
N1289 H1295 0.985 . S
C1290 C1284 1.379 . S
C1290 C1287 1.363 . S
C1290 N1288 1.356 . S
C1291 C1285 1.363 . S
C1291 C1286 1.379 . S
C1291 N1289 1.356 . S
N1292 C1284 1.356 . S
N1292 H1298 0.984 . S
N1292 H1299 0.984 . S
N1293 C1286 1.356 . S
N1293 H1296 0.984 . S
N1293 H1297 0.985 . S
H1294 N1289 0.984 . S
H1295 N1289 0.985 . S
H1296 N1293 0.984 . S
H1297 N1293 0.985 . S
H1298 N1292 0.984 . S
H1299 N1292 0.984 . S
H1300 N1288 0.984 . S
H1301 N1288 0.985 . S
C1302 C1303 1.363 . S
C1302 C1308 1.379 . S
C1302 N1310 1.356 . S
C1303 C1302 1.363 . S
C1303 C1309 1.363 . S
C1304 C1305 1.363 . S
C1304 C1309 1.379 . S
C1304 N1311 1.356 . S
C1305 C1304 1.363 . S
C1305 C1308 1.363 . S
N1306 C1308 1.356 . S
N1306 H1318 0.984 . S
N1306 H1319 0.985 . S
N1307 C1309 1.356 . S
N1307 H1312 0.984 . S
N1307 H1313 0.985 . S
C1308 C1302 1.379 . S
C1308 C1305 1.363 . S
C1308 N1306 1.356 . S
C1309 C1303 1.363 . S
C1309 C1304 1.379 . S
C1309 N1307 1.356 . S
N1310 C1302 1.356 . S
N1310 H1316 0.984 . S
N1310 H1317 0.984 . S
N1311 C1304 1.356 . S
N1311 H1314 0.984 . S
N1311 H1315 0.985 . S
H1312 N1307 0.984 . S
H1313 N1307 0.985 . S
H1314 N1311 0.984 . S
H1315 N1311 0.985 . S
H1316 N1310 0.984 . S
H1317 N1310 0.984 . S
H1318 N1306 0.984 . S
H1319 N1306 0.985 . S
C1320 C1321 1.363 . S
C1320 C1326 1.379 . S
C1320 N1328 1.356 . S
C1321 C1320 1.363 . S
C1321 C1327 1.363 . S
C1322 C1323 1.363 . S
C1322 C1327 1.379 . S
C1322 N1329 1.356 . S
C1323 C1322 1.363 . S
C1323 C1326 1.363 . S
N1324 C1326 1.356 . S
N1324 H1336 0.984 . S
N1324 H1337 0.985 . S
N1325 C1327 1.356 . S
N1325 H1330 0.984 . S
N1325 H1331 0.985 . S
C1326 C1320 1.379 . S
C1326 C1323 1.363 . S
C1326 N1324 1.356 . S
C1327 C1321 1.363 . S
C1327 C1322 1.379 . S
C1327 N1325 1.356 . S
N1328 C1320 1.356 . S
N1328 H1334 0.984 . S
N1328 H1335 0.984 . S
N1329 C1322 1.356 . S
N1329 H1332 0.984 . S
N1329 H1333 0.985 . S
H1330 N1325 0.984 . S
H1331 N1325 0.985 . S
H1332 N1329 0.984 . S
H1333 N1329 0.985 . S
H1334 N1328 0.984 . S
H1335 N1328 0.984 . S
H1336 N1324 0.984 . S
H1337 N1324 0.985 . S
C1338 C1339 1.363 . S
C1338 C1344 1.379 . S
C1338 N1346 1.356 . S
C1339 C1338 1.363 . S
C1339 C1345 1.363 . S
C1340 C1341 1.363 . S
C1340 C1345 1.379 . S
C1340 N1347 1.356 . S
C1341 C1340 1.363 . S
C1341 C1344 1.363 . S
N1342 C1344 1.356 . S
N1342 H1354 0.984 . S
N1342 H1355 0.985 . S
N1343 C1345 1.356 . S
N1343 H1348 0.984 . S
N1343 H1349 0.985 . S
C1344 C1338 1.379 . S
C1344 C1341 1.363 . S
C1344 N1342 1.356 . S
C1345 C1339 1.363 . S
C1345 C1340 1.379 . S
C1345 N1343 1.356 . S
N1346 C1338 1.356 . S
N1346 H1352 0.984 . S
N1346 H1353 0.984 . S
N1347 C1340 1.356 . S
N1347 H1350 0.984 . S
N1347 H1351 0.985 . S
H1348 N1343 0.984 . S
H1349 N1343 0.985 . S
H1350 N1347 0.984 . S
H1351 N1347 0.985 . S
H1352 N1346 0.984 . S
H1353 N1346 0.984 . S
H1354 N1342 0.984 . S
H1355 N1342 0.985 . S
C1356 C1357 1.363 . S
C1356 C1362 1.379 . S
C1356 N1364 1.356 . S
C1357 C1356 1.363 . S
C1357 C1363 1.363 . S
C1358 C1359 1.363 . S
C1358 C1363 1.379 . S
C1358 N1365 1.356 . S
C1359 C1358 1.363 . S
C1359 C1362 1.363 . S
N1360 C1362 1.356 . S
N1360 H1372 0.984 . S
N1360 H1373 0.985 . S
N1361 C1363 1.356 . S
N1361 H1366 0.984 . S
N1361 H1367 0.985 . S
C1362 C1356 1.379 . S
C1362 C1359 1.363 . S
C1362 N1360 1.356 . S
C1363 C1357 1.363 . S
C1363 C1358 1.379 . S
C1363 N1361 1.356 . S
N1364 C1356 1.356 . S
N1364 H1370 0.984 . S
N1364 H1371 0.984 . S
N1365 C1358 1.356 . S
N1365 H1368 0.984 . S
N1365 H1369 0.985 . S
H1366 N1361 0.984 . S
H1367 N1361 0.985 . S
H1368 N1365 0.984 . S
H1369 N1365 0.985 . S
H1370 N1364 0.984 . S
H1371 N1364 0.984 . S
H1372 N1360 0.984 . S
H1373 N1360 0.985 . S
C1374 C1375 1.363 . S
C1374 C1380 1.379 . S
C1374 N1382 1.356 . S
C1375 C1374 1.363 . S
C1375 C1381 1.363 . S
C1376 C1377 1.363 . S
C1376 C1381 1.379 . S
C1376 N1383 1.356 . S
C1377 C1376 1.363 . S
C1377 C1380 1.363 . S
N1378 C1380 1.356 . S
N1378 H1390 0.984 . S
N1378 H1391 0.985 . S
N1379 C1381 1.356 . S
N1379 H1384 0.984 . S
N1379 H1385 0.985 . S
C1380 C1374 1.379 . S
C1380 C1377 1.363 . S
C1380 N1378 1.356 . S
C1381 C1375 1.363 . S
C1381 C1376 1.379 . S
C1381 N1379 1.356 . S
N1382 C1374 1.356 . S
N1382 H1388 0.984 . S
N1382 H1389 0.984 . S
N1383 C1376 1.356 . S
N1383 H1386 0.984 . S
N1383 H1387 0.985 . S
H1384 N1379 0.984 . S
H1385 N1379 0.985 . S
H1386 N1383 0.984 . S
H1387 N1383 0.985 . S
H1388 N1382 0.984 . S
H1389 N1382 0.984 . S
H1390 N1378 0.984 . S
H1391 N1378 0.985 . S
C1392 C1393 1.363 . S
C1392 C1398 1.379 . S
C1392 N1400 1.356 . S
C1393 C1392 1.363 . S
C1393 C1399 1.363 . S
C1394 C1395 1.363 . S
C1394 C1399 1.379 . S
C1394 N1401 1.356 . S
C1395 C1394 1.363 . S
C1395 C1398 1.363 . S
N1396 C1398 1.356 . S
N1396 H1408 0.984 . S
N1396 H1409 0.985 . S
N1397 C1399 1.356 . S
N1397 H1402 0.984 . S
N1397 H1403 0.985 . S
C1398 C1392 1.379 . S
C1398 C1395 1.363 . S
C1398 N1396 1.356 . S
C1399 C1393 1.363 . S
C1399 C1394 1.379 . S
C1399 N1397 1.356 . S
N1400 C1392 1.356 . S
N1400 H1406 0.984 . S
N1400 H1407 0.984 . S
N1401 C1394 1.356 . S
N1401 H1404 0.984 . S
N1401 H1405 0.985 . S
H1402 N1397 0.984 . S
H1403 N1397 0.985 . S
H1404 N1401 0.984 . S
H1405 N1401 0.985 . S
H1406 N1400 0.984 . S
H1407 N1400 0.984 . S
H1408 N1396 0.984 . S
H1409 N1396 0.985 . S
C1410 C1411 1.363 . S
C1410 C1416 1.379 . S
C1410 N1418 1.356 . S
C1411 C1410 1.363 . S
C1411 C1417 1.363 . S
C1412 C1413 1.363 . S
C1412 C1417 1.379 . S
C1412 N1419 1.356 . S
C1413 C1412 1.363 . S
C1413 C1416 1.363 . S
N1414 C1416 1.356 . S
N1414 H1426 0.984 . S
N1414 H1427 0.985 . S
N1415 C1417 1.356 . S
N1415 H1420 0.984 . S
N1415 H1421 0.985 . S
C1416 C1410 1.379 . S
C1416 C1413 1.363 . S
C1416 N1414 1.356 . S
C1417 C1411 1.363 . S
C1417 C1412 1.379 . S
C1417 N1415 1.356 . S
N1418 C1410 1.356 . S
N1418 H1424 0.984 . S
N1418 H1425 0.984 . S
N1419 C1412 1.356 . S
N1419 H1422 0.984 . S
N1419 H1423 0.985 . S
H1420 N1415 0.984 . S
H1421 N1415 0.985 . S
H1422 N1419 0.984 . S
H1423 N1419 0.985 . S
H1424 N1418 0.984 . S
H1425 N1418 0.984 . S
H1426 N1414 0.984 . S
H1427 N1414 0.985 . S
C1428 C1429 1.363 . S
C1428 C1434 1.379 . S
C1428 N1436 1.356 . S
C1429 C1428 1.363 . S
C1429 C1435 1.363 . S
C1430 C1431 1.363 . S
C1430 C1435 1.379 . S
C1430 N1437 1.356 . S
C1431 C1430 1.363 . S
C1431 C1434 1.363 . S
N1432 C1434 1.356 . S
N1432 H1444 0.984 . S
N1432 H1445 0.985 . S
N1433 C1435 1.356 . S
N1433 H1438 0.984 . S
N1433 H1439 0.985 . S
C1434 C1428 1.379 . S
C1434 C1431 1.363 . S
C1434 N1432 1.356 . S
C1435 C1429 1.363 . S
C1435 C1430 1.379 . S
C1435 N1433 1.356 . S
N1436 C1428 1.356 . S
N1436 H1442 0.984 . S
N1436 H1443 0.984 . S
N1437 C1430 1.356 . S
N1437 H1440 0.984 . S
N1437 H1441 0.985 . S
H1438 N1433 0.984 . S
H1439 N1433 0.985 . S
H1440 N1437 0.984 . S
H1441 N1437 0.985 . S
H1442 N1436 0.984 . S
H1443 N1436 0.984 . S
H1444 N1432 0.984 . S
H1445 N1432 0.985 . S
C1446 C1447 1.363 . S
C1446 C1452 1.379 . S
C1446 N1454 1.356 . S
C1447 C1446 1.363 . S
C1447 C1453 1.363 . S
C1448 C1449 1.363 . S
C1448 C1453 1.379 . S
C1448 N1455 1.356 . S
C1449 C1448 1.363 . S
C1449 C1452 1.363 . S
N1450 C1452 1.356 . S
N1450 H1462 0.984 . S
N1450 H1463 0.985 . S
N1451 C1453 1.356 . S
N1451 H1456 0.984 . S
N1451 H1457 0.985 . S
C1452 C1446 1.379 . S
C1452 C1449 1.363 . S
C1452 N1450 1.356 . S
C1453 C1447 1.363 . S
C1453 C1448 1.379 . S
C1453 N1451 1.356 . S
N1454 C1446 1.356 . S
N1454 H1460 0.984 . S
N1454 H1461 0.984 . S
N1455 C1448 1.356 . S
N1455 H1458 0.984 . S
N1455 H1459 0.985 . S
H1456 N1451 0.984 . S
H1457 N1451 0.985 . S
H1458 N1455 0.984 . S
H1459 N1455 0.985 . S
H1460 N1454 0.984 . S
H1461 N1454 0.984 . S
H1462 N1450 0.984 . S
H1463 N1450 0.985 . S
C1464 C1465 1.363 . S
C1464 C1470 1.379 . S
C1464 N1472 1.356 . S
C1465 C1464 1.363 . S
C1465 C1471 1.363 . S
C1466 C1467 1.363 . S
C1466 C1471 1.379 . S
C1466 N1473 1.356 . S
C1467 C1466 1.363 . S
C1467 C1470 1.363 . S
N1468 C1470 1.356 . S
N1468 H1480 0.984 . S
N1468 H1481 0.985 . S
N1469 C1471 1.356 . S
N1469 H1474 0.984 . S
N1469 H1475 0.985 . S
C1470 C1464 1.379 . S
C1470 C1467 1.363 . S
C1470 N1468 1.356 . S
C1471 C1465 1.363 . S
C1471 C1466 1.379 . S
C1471 N1469 1.356 . S
N1472 C1464 1.356 . S
N1472 H1478 0.984 . S
N1472 H1479 0.984 . S
N1473 C1466 1.356 . S
N1473 H1476 0.984 . S
N1473 H1477 0.985 . S
H1474 N1469 0.984 . S
H1475 N1469 0.985 . S
H1476 N1473 0.984 . S
H1477 N1473 0.985 . S
H1478 N1472 0.984 . S
H1479 N1472 0.984 . S
H1480 N1468 0.984 . S
H1481 N1468 0.985 . S
C1482 C1483 1.363 . S
C1482 C1488 1.379 . S
C1482 N1490 1.356 . S
C1483 C1482 1.363 . S
C1483 C1489 1.363 . S
C1484 C1485 1.363 . S
C1484 C1489 1.379 . S
C1484 N1491 1.356 . S
C1485 C1484 1.363 . S
C1485 C1488 1.363 . S
N1486 C1488 1.356 . S
N1486 H1498 0.984 . S
N1486 H1499 0.985 . S
N1487 C1489 1.356 . S
N1487 H1492 0.984 . S
N1487 H1493 0.985 . S
C1488 C1482 1.379 . S
C1488 C1485 1.363 . S
C1488 N1486 1.356 . S
C1489 C1483 1.363 . S
C1489 C1484 1.379 . S
C1489 N1487 1.356 . S
N1490 C1482 1.356 . S
N1490 H1496 0.984 . S
N1490 H1497 0.984 . S
N1491 C1484 1.356 . S
N1491 H1494 0.984 . S
N1491 H1495 0.985 . S
H1492 N1487 0.984 . S
H1493 N1487 0.985 . S
H1494 N1491 0.984 . S
H1495 N1491 0.985 . S
H1496 N1490 0.984 . S
H1497 N1490 0.984 . S
H1498 N1486 0.984 . S
H1499 N1486 0.985 . S
C1500 C1501 1.363 . S
C1500 C1506 1.379 . S
C1500 N1508 1.356 . S
C1501 C1500 1.363 . S
C1501 C1507 1.363 . S
C1502 C1503 1.363 . S
C1502 C1507 1.379 . S
C1502 N1509 1.356 . S
C1503 C1502 1.363 . S
C1503 C1506 1.363 . S
N1504 C1506 1.356 . S
N1504 H1516 0.984 . S
N1504 H1517 0.985 . S
N1505 C1507 1.356 . S
N1505 H1510 0.984 . S
N1505 H1511 0.985 . S
C1506 C1500 1.379 . S
C1506 C1503 1.363 . S
C1506 N1504 1.356 . S
C1507 C1501 1.363 . S
C1507 C1502 1.379 . S
C1507 N1505 1.356 . S
N1508 C1500 1.356 . S
N1508 H1514 0.984 . S
N1508 H1515 0.984 . S
N1509 C1502 1.356 . S
N1509 H1512 0.984 . S
N1509 H1513 0.985 . S
H1510 N1505 0.984 . S
H1511 N1505 0.985 . S
H1512 N1509 0.984 . S
H1513 N1509 0.985 . S
H1514 N1508 0.984 . S
H1515 N1508 0.984 . S
H1516 N1504 0.984 . S
H1517 N1504 0.985 . S
C1518 C1519 1.363 . S
C1518 C1524 1.379 . S
C1518 N1526 1.356 . S
C1519 C1518 1.363 . S
C1519 C1525 1.363 . S
C1520 C1521 1.363 . S
C1520 C1525 1.379 . S
C1520 N1527 1.356 . S
C1521 C1520 1.363 . S
C1521 C1524 1.363 . S
N1522 C1524 1.356 . S
N1522 H1534 0.984 . S
N1522 H1535 0.985 . S
N1523 C1525 1.356 . S
N1523 H1528 0.984 . S
N1523 H1529 0.985 . S
C1524 C1518 1.379 . S
C1524 C1521 1.363 . S
C1524 N1522 1.356 . S
C1525 C1519 1.363 . S
C1525 C1520 1.379 . S
C1525 N1523 1.356 . S
N1526 C1518 1.356 . S
N1526 H1532 0.984 . S
N1526 H1533 0.984 . S
N1527 C1520 1.356 . S
N1527 H1530 0.984 . S
N1527 H1531 0.985 . S
H1528 N1523 0.984 . S
H1529 N1523 0.985 . S
H1530 N1527 0.984 . S
H1531 N1527 0.985 . S
H1532 N1526 0.984 . S
H1533 N1526 0.984 . S
H1534 N1522 0.984 . S
H1535 N1522 0.985 . S
C1536 C1537 1.363 . S
C1536 C1542 1.379 . S
C1536 N1544 1.356 . S
C1537 C1536 1.363 . S
C1537 C1543 1.363 . S
C1538 C1539 1.363 . S
C1538 C1543 1.379 . S
C1538 N1545 1.356 . S
C1539 C1538 1.363 . S
C1539 C1542 1.363 . S
N1540 C1542 1.356 . S
N1540 H1552 0.984 . S
N1540 H1553 0.985 . S
N1541 C1543 1.356 . S
N1541 H1546 0.984 . S
N1541 H1547 0.985 . S
C1542 C1536 1.379 . S
C1542 C1539 1.363 . S
C1542 N1540 1.356 . S
C1543 C1537 1.363 . S
C1543 C1538 1.379 . S
C1543 N1541 1.356 . S
N1544 C1536 1.356 . S
N1544 H1550 0.984 . S
N1544 H1551 0.984 . S
N1545 C1538 1.356 . S
N1545 H1548 0.984 . S
N1545 H1549 0.985 . S
H1546 N1541 0.984 . S
H1547 N1541 0.985 . S
H1548 N1545 0.984 . S
H1549 N1545 0.985 . S
H1550 N1544 0.984 . S
H1551 N1544 0.984 . S
H1552 N1540 0.984 . S
H1553 N1540 0.985 . S
C1554 C1555 1.363 . S
C1554 C1560 1.379 . S
C1554 N1562 1.356 . S
C1555 C1554 1.363 . S
C1555 C1561 1.363 . S
C1556 C1557 1.363 . S
C1556 C1561 1.379 . S
C1556 N1563 1.356 . S
C1557 C1556 1.363 . S
C1557 C1560 1.363 . S
N1558 C1560 1.356 . S
N1558 H1570 0.984 . S
N1558 H1571 0.985 . S
N1559 C1561 1.356 . S
N1559 H1564 0.984 . S
N1559 H1565 0.985 . S
C1560 C1554 1.379 . S
C1560 C1557 1.363 . S
C1560 N1558 1.356 . S
C1561 C1555 1.363 . S
C1561 C1556 1.379 . S
C1561 N1559 1.356 . S
N1562 C1554 1.356 . S
N1562 H1568 0.984 . S
N1562 H1569 0.984 . S
N1563 C1556 1.356 . S
N1563 H1566 0.984 . S
N1563 H1567 0.985 . S
H1564 N1559 0.984 . S
H1565 N1559 0.985 . S
H1566 N1563 0.984 . S
H1567 N1563 0.985 . S
H1568 N1562 0.984 . S
H1569 N1562 0.984 . S
H1570 N1558 0.984 . S
H1571 N1558 0.985 . S
C1572 C1573 1.363 . S
C1572 C1578 1.379 . S
C1572 N1580 1.356 . S
C1573 C1572 1.363 . S
C1573 C1579 1.363 . S
C1574 C1575 1.363 . S
C1574 C1579 1.379 . S
C1574 N1581 1.356 . S
C1575 C1574 1.363 . S
C1575 C1578 1.363 . S
N1576 C1578 1.356 . S
N1576 H1588 0.984 . S
N1576 H1589 0.985 . S
N1577 C1579 1.356 . S
N1577 H1582 0.984 . S
N1577 H1583 0.985 . S
C1578 C1572 1.379 . S
C1578 C1575 1.363 . S
C1578 N1576 1.356 . S
C1579 C1573 1.363 . S
C1579 C1574 1.379 . S
C1579 N1577 1.356 . S
N1580 C1572 1.356 . S
N1580 H1586 0.984 . S
N1580 H1587 0.984 . S
N1581 C1574 1.356 . S
N1581 H1584 0.984 . S
N1581 H1585 0.985 . S
H1582 N1577 0.984 . S
H1583 N1577 0.985 . S
H1584 N1581 0.984 . S
H1585 N1581 0.985 . S
H1586 N1580 0.984 . S
H1587 N1580 0.984 . S
H1588 N1576 0.984 . S
H1589 N1576 0.985 . S
C1590 C1591 1.363 . S
C1590 C1596 1.379 . S
C1590 N1598 1.356 . S
C1591 C1590 1.363 . S
C1591 C1597 1.363 . S
C1592 C1593 1.363 . S
C1592 C1597 1.379 . S
C1592 N1599 1.356 . S
C1593 C1592 1.363 . S
C1593 C1596 1.363 . S
N1594 C1596 1.356 . S
N1594 H1606 0.984 . S
N1594 H1607 0.985 . S
N1595 C1597 1.356 . S
N1595 H1600 0.984 . S
N1595 H1601 0.985 . S
C1596 C1590 1.379 . S
C1596 C1593 1.363 . S
C1596 N1594 1.356 . S
C1597 C1591 1.363 . S
C1597 C1592 1.379 . S
C1597 N1595 1.356 . S
N1598 C1590 1.356 . S
N1598 H1604 0.984 . S
N1598 H1605 0.984 . S
N1599 C1592 1.356 . S
N1599 H1602 0.984 . S
N1599 H1603 0.985 . S
H1600 N1595 0.984 . S
H1601 N1595 0.985 . S
H1602 N1599 0.984 . S
H1603 N1599 0.985 . S
H1604 N1598 0.984 . S
H1605 N1598 0.984 . S
H1606 N1594 0.984 . S
H1607 N1594 0.985 . S
C1608 C1609 1.363 . S
C1608 C1614 1.379 . S
C1608 N1616 1.356 . S
C1609 C1608 1.363 . S
C1609 C1615 1.363 . S
C1610 C1611 1.363 . S
C1610 C1615 1.379 . S
C1610 N1617 1.356 . S
C1611 C1610 1.363 . S
C1611 C1614 1.363 . S
N1612 C1614 1.356 . S
N1612 H1624 0.984 . S
N1612 H1625 0.985 . S
N1613 C1615 1.356 . S
N1613 H1618 0.984 . S
N1613 H1619 0.985 . S
C1614 C1608 1.379 . S
C1614 C1611 1.363 . S
C1614 N1612 1.356 . S
C1615 C1609 1.363 . S
C1615 C1610 1.379 . S
C1615 N1613 1.356 . S
N1616 C1608 1.356 . S
N1616 H1622 0.984 . S
N1616 H1623 0.984 . S
N1617 C1610 1.356 . S
N1617 H1620 0.984 . S
N1617 H1621 0.985 . S
H1618 N1613 0.984 . S
H1619 N1613 0.985 . S
H1620 N1617 0.984 . S
H1621 N1617 0.985 . S
H1622 N1616 0.984 . S
H1623 N1616 0.984 . S
H1624 N1612 0.984 . S
H1625 N1612 0.985 . S
C1626 C1627 1.363 . S
C1626 C1632 1.379 . S
C1626 N1634 1.356 . S
C1627 C1626 1.363 . S
C1627 C1633 1.363 . S
C1628 C1629 1.363 . S
C1628 C1633 1.379 . S
C1628 N1635 1.356 . S
C1629 C1628 1.363 . S
C1629 C1632 1.363 . S
N1630 C1632 1.356 . S
N1630 H1642 0.984 . S
N1630 H1643 0.985 . S
N1631 C1633 1.356 . S
N1631 H1636 0.984 . S
N1631 H1637 0.985 . S
C1632 C1626 1.379 . S
C1632 C1629 1.363 . S
C1632 N1630 1.356 . S
C1633 C1627 1.363 . S
C1633 C1628 1.379 . S
C1633 N1631 1.356 . S
N1634 C1626 1.356 . S
N1634 H1640 0.984 . S
N1634 H1641 0.984 . S
N1635 C1628 1.356 . S
N1635 H1638 0.984 . S
N1635 H1639 0.985 . S
H1636 N1631 0.984 . S
H1637 N1631 0.985 . S
H1638 N1635 0.984 . S
H1639 N1635 0.985 . S
H1640 N1634 0.984 . S
H1641 N1634 0.984 . S
H1642 N1630 0.984 . S
H1643 N1630 0.985 . S
C1644 C1645 1.363 . S
C1644 C1650 1.379 . S
C1644 N1652 1.356 . S
C1645 C1644 1.363 . S
C1645 C1651 1.363 . S
C1646 C1647 1.363 . S
C1646 C1651 1.379 . S
C1646 N1653 1.356 . S
C1647 C1646 1.363 . S
C1647 C1650 1.363 . S
N1648 C1650 1.356 . S
N1648 H1660 0.984 . S
N1648 H1661 0.985 . S
N1649 C1651 1.356 . S
N1649 H1654 0.984 . S
N1649 H1655 0.985 . S
C1650 C1644 1.379 . S
C1650 C1647 1.363 . S
C1650 N1648 1.356 . S
C1651 C1645 1.363 . S
C1651 C1646 1.379 . S
C1651 N1649 1.356 . S
N1652 C1644 1.356 . S
N1652 H1658 0.984 . S
N1652 H1659 0.984 . S
N1653 C1646 1.356 . S
N1653 H1656 0.984 . S
N1653 H1657 0.985 . S
H1654 N1649 0.984 . S
H1655 N1649 0.985 . S
H1656 N1653 0.984 . S
H1657 N1653 0.985 . S
H1658 N1652 0.984 . S
H1659 N1652 0.984 . S
H1660 N1648 0.984 . S
H1661 N1648 0.985 . S
C1662 C1663 1.363 . S
C1662 C1668 1.379 . S
C1662 N1670 1.356 . S
C1663 C1662 1.363 . S
C1663 C1669 1.363 . S
C1664 C1665 1.363 . S
C1664 C1669 1.379 . S
C1664 N1671 1.356 . S
C1665 C1664 1.363 . S
C1665 C1668 1.363 . S
N1666 C1668 1.356 . S
N1666 H1678 0.984 . S
N1666 H1679 0.985 . S
N1667 C1669 1.356 . S
N1667 H1672 0.984 . S
N1667 H1673 0.985 . S
C1668 C1662 1.379 . S
C1668 C1665 1.363 . S
C1668 N1666 1.356 . S
C1669 C1663 1.363 . S
C1669 C1664 1.379 . S
C1669 N1667 1.356 . S
N1670 C1662 1.356 . S
N1670 H1676 0.984 . S
N1670 H1677 0.984 . S
N1671 C1664 1.356 . S
N1671 H1674 0.984 . S
N1671 H1675 0.985 . S
H1672 N1667 0.984 . S
H1673 N1667 0.985 . S
H1674 N1671 0.984 . S
H1675 N1671 0.985 . S
H1676 N1670 0.984 . S
H1677 N1670 0.984 . S
H1678 N1666 0.984 . S
H1679 N1666 0.985 . S
C1680 C1681 1.363 . S
C1680 C1686 1.379 . S
C1680 N1688 1.356 . S
C1681 C1680 1.363 . S
C1681 C1687 1.363 . S
C1682 C1683 1.363 . S
C1682 C1687 1.379 . S
C1682 N1689 1.356 . S
C1683 C1682 1.363 . S
C1683 C1686 1.363 . S
N1684 C1686 1.356 . S
N1684 H1696 0.984 . S
N1684 H1697 0.985 . S
N1685 C1687 1.356 . S
N1685 H1690 0.984 . S
N1685 H1691 0.985 . S
C1686 C1680 1.379 . S
C1686 C1683 1.363 . S
C1686 N1684 1.356 . S
C1687 C1681 1.363 . S
C1687 C1682 1.379 . S
C1687 N1685 1.356 . S
N1688 C1680 1.356 . S
N1688 H1694 0.984 . S
N1688 H1695 0.984 . S
N1689 C1682 1.356 . S
N1689 H1692 0.984 . S
N1689 H1693 0.985 . S
H1690 N1685 0.984 . S
H1691 N1685 0.985 . S
H1692 N1689 0.984 . S
H1693 N1689 0.985 . S
H1694 N1688 0.984 . S
H1695 N1688 0.984 . S
H1696 N1684 0.984 . S
H1697 N1684 0.985 . S
C1698 C1699 1.363 . S
C1698 C1704 1.379 . S
C1698 N1706 1.356 . S
C1699 C1698 1.363 . S
C1699 C1705 1.363 . S
C1700 C1701 1.363 . S
C1700 C1705 1.379 . S
C1700 N1707 1.356 . S
C1701 C1700 1.363 . S
C1701 C1704 1.363 . S
N1702 C1704 1.356 . S
N1702 H1714 0.984 . S
N1702 H1715 0.985 . S
N1703 C1705 1.356 . S
N1703 H1708 0.984 . S
N1703 H1709 0.985 . S
C1704 C1698 1.379 . S
C1704 C1701 1.363 . S
C1704 N1702 1.356 . S
C1705 C1699 1.363 . S
C1705 C1700 1.379 . S
C1705 N1703 1.356 . S
N1706 C1698 1.356 . S
N1706 H1712 0.984 . S
N1706 H1713 0.984 . S
N1707 C1700 1.356 . S
N1707 H1710 0.984 . S
N1707 H1711 0.985 . S
H1708 N1703 0.984 . S
H1709 N1703 0.985 . S
H1710 N1707 0.984 . S
H1711 N1707 0.985 . S
H1712 N1706 0.984 . S
H1713 N1706 0.984 . S
H1714 N1702 0.984 . S
H1715 N1702 0.985 . S
C1716 C1717 1.363 . S
C1716 C1722 1.379 . S
C1716 N1724 1.356 . S
C1717 C1716 1.363 . S
C1717 C1723 1.363 . S
C1718 C1719 1.363 . S
C1718 C1723 1.379 . S
C1718 N1725 1.356 . S
C1719 C1718 1.363 . S
C1719 C1722 1.363 . S
N1720 C1722 1.356 . S
N1720 H1732 0.984 . S
N1720 H1733 0.985 . S
N1721 C1723 1.356 . S
N1721 H1726 0.984 . S
N1721 H1727 0.985 . S
C1722 C1716 1.379 . S
C1722 C1719 1.363 . S
C1722 N1720 1.356 . S
C1723 C1717 1.363 . S
C1723 C1718 1.379 . S
C1723 N1721 1.356 . S
N1724 C1716 1.356 . S
N1724 H1730 0.984 . S
N1724 H1731 0.984 . S
N1725 C1718 1.356 . S
N1725 H1728 0.984 . S
N1725 H1729 0.985 . S
H1726 N1721 0.984 . S
H1727 N1721 0.985 . S
H1728 N1725 0.984 . S
H1729 N1725 0.985 . S
H1730 N1724 0.984 . S
H1731 N1724 0.984 . S
H1732 N1720 0.984 . S
H1733 N1720 0.985 . S
C1734 C1735 1.363 . S
C1734 C1740 1.379 . S
C1734 N1742 1.356 . S
C1735 C1734 1.363 . S
C1735 C1741 1.363 . S
C1736 C1737 1.363 . S
C1736 C1741 1.379 . S
C1736 N1743 1.356 . S
C1737 C1736 1.363 . S
C1737 C1740 1.363 . S
N1738 C1740 1.356 . S
N1738 H1750 0.984 . S
N1738 H1751 0.985 . S
N1739 C1741 1.356 . S
N1739 H1744 0.984 . S
N1739 H1745 0.985 . S
C1740 C1734 1.379 . S
C1740 C1737 1.363 . S
C1740 N1738 1.356 . S
C1741 C1735 1.363 . S
C1741 C1736 1.379 . S
C1741 N1739 1.356 . S
N1742 C1734 1.356 . S
N1742 H1748 0.984 . S
N1742 H1749 0.984 . S
N1743 C1736 1.356 . S
N1743 H1746 0.984 . S
N1743 H1747 0.985 . S
H1744 N1739 0.984 . S
H1745 N1739 0.985 . S
H1746 N1743 0.984 . S
H1747 N1743 0.985 . S
H1748 N1742 0.984 . S
H1749 N1742 0.984 . S
H1750 N1738 0.984 . S
H1751 N1738 0.985 . S
C1752 C1753 1.363 . S
C1752 C1758 1.379 . S
C1752 N1760 1.356 . S
C1753 C1752 1.363 . S
C1753 C1759 1.363 . S
C1754 C1755 1.363 . S
C1754 C1759 1.379 . S
C1754 N1761 1.356 . S
C1755 C1754 1.363 . S
C1755 C1758 1.363 . S
N1756 C1758 1.356 . S
N1756 H1768 0.984 . S
N1756 H1769 0.985 . S
N1757 C1759 1.356 . S
N1757 H1762 0.984 . S
N1757 H1763 0.985 . S
C1758 C1752 1.379 . S
C1758 C1755 1.363 . S
C1758 N1756 1.356 . S
C1759 C1753 1.363 . S
C1759 C1754 1.379 . S
C1759 N1757 1.356 . S
N1760 C1752 1.356 . S
N1760 H1766 0.984 . S
N1760 H1767 0.984 . S
N1761 C1754 1.356 . S
N1761 H1764 0.984 . S
N1761 H1765 0.985 . S
H1762 N1757 0.984 . S
H1763 N1757 0.985 . S
H1764 N1761 0.984 . S
H1765 N1761 0.985 . S
H1766 N1760 0.984 . S
H1767 N1760 0.984 . S
H1768 N1756 0.984 . S
H1769 N1756 0.985 . S
C1770 C1771 1.363 . S
C1770 C1776 1.379 . S
C1770 N1778 1.356 . S
C1771 C1770 1.363 . S
C1771 C1777 1.363 . S
C1772 C1773 1.363 . S
C1772 C1777 1.379 . S
C1772 N1779 1.356 . S
C1773 C1772 1.363 . S
C1773 C1776 1.363 . S
N1774 C1776 1.356 . S
N1774 H1786 0.984 . S
N1774 H1787 0.985 . S
N1775 C1777 1.356 . S
N1775 H1780 0.984 . S
N1775 H1781 0.985 . S
C1776 C1770 1.379 . S
C1776 C1773 1.363 . S
C1776 N1774 1.356 . S
C1777 C1771 1.363 . S
C1777 C1772 1.379 . S
C1777 N1775 1.356 . S
N1778 C1770 1.356 . S
N1778 H1784 0.984 . S
N1778 H1785 0.984 . S
N1779 C1772 1.356 . S
N1779 H1782 0.984 . S
N1779 H1783 0.985 . S
H1780 N1775 0.984 . S
H1781 N1775 0.985 . S
H1782 N1779 0.984 . S
H1783 N1779 0.985 . S
H1784 N1778 0.984 . S
H1785 N1778 0.984 . S
H1786 N1774 0.984 . S
H1787 N1774 0.985 . S
C1788 C1789 1.363 . S
C1788 C1794 1.379 . S
C1788 N1796 1.356 . S
C1789 C1788 1.363 . S
C1789 C1795 1.363 . S
C1790 C1791 1.363 . S
C1790 C1795 1.379 . S
C1790 N1797 1.356 . S
C1791 C1790 1.363 . S
C1791 C1794 1.363 . S
N1792 C1794 1.356 . S
N1792 H1804 0.984 . S
N1792 H1805 0.985 . S
N1793 C1795 1.356 . S
N1793 H1798 0.984 . S
N1793 H1799 0.985 . S
C1794 C1788 1.379 . S
C1794 C1791 1.363 . S
C1794 N1792 1.356 . S
C1795 C1789 1.363 . S
C1795 C1790 1.379 . S
C1795 N1793 1.356 . S
N1796 C1788 1.356 . S
N1796 H1802 0.984 . S
N1796 H1803 0.984 . S
N1797 C1790 1.356 . S
N1797 H1800 0.984 . S
N1797 H1801 0.985 . S
H1798 N1793 0.984 . S
H1799 N1793 0.985 . S
H1800 N1797 0.984 . S
H1801 N1797 0.985 . S
H1802 N1796 0.984 . S
H1803 N1796 0.984 . S
H1804 N1792 0.984 . S
H1805 N1792 0.985 . S
C1806 C1807 1.363 . S
C1806 C1812 1.379 . S
C1806 N1814 1.356 . S
C1807 C1806 1.363 . S
C1807 C1813 1.363 . S
C1808 C1809 1.363 . S
C1808 C1813 1.379 . S
C1808 N1815 1.356 . S
C1809 C1808 1.363 . S
C1809 C1812 1.363 . S
N1810 C1812 1.356 . S
N1810 H1822 0.984 . S
N1810 H1823 0.985 . S
N1811 C1813 1.356 . S
N1811 H1816 0.984 . S
N1811 H1817 0.985 . S
C1812 C1806 1.379 . S
C1812 C1809 1.363 . S
C1812 N1810 1.356 . S
C1813 C1807 1.363 . S
C1813 C1808 1.379 . S
C1813 N1811 1.356 . S
N1814 C1806 1.356 . S
N1814 H1820 0.984 . S
N1814 H1821 0.984 . S
N1815 C1808 1.356 . S
N1815 H1818 0.984 . S
N1815 H1819 0.985 . S
H1816 N1811 0.984 . S
H1817 N1811 0.985 . S
H1818 N1815 0.984 . S
H1819 N1815 0.985 . S
H1820 N1814 0.984 . S
H1821 N1814 0.984 . S
H1822 N1810 0.984 . S
H1823 N1810 0.985 . S
C1824 C1825 1.363 . S
C1824 C1830 1.379 . S
C1824 N1832 1.356 . S
C1825 C1824 1.363 . S
C1825 C1831 1.363 . S
C1826 C1827 1.363 . S
C1826 C1831 1.379 . S
C1826 N1833 1.356 . S
C1827 C1826 1.363 . S
C1827 C1830 1.363 . S
N1828 C1830 1.356 . S
N1828 H1840 0.984 . S
N1828 H1841 0.985 . S
N1829 C1831 1.356 . S
N1829 H1834 0.984 . S
N1829 H1835 0.985 . S
C1830 C1824 1.379 . S
C1830 C1827 1.363 . S
C1830 N1828 1.356 . S
C1831 C1825 1.363 . S
C1831 C1826 1.379 . S
C1831 N1829 1.356 . S
N1832 C1824 1.356 . S
N1832 H1838 0.984 . S
N1832 H1839 0.984 . S
N1833 C1826 1.356 . S
N1833 H1836 0.984 . S
N1833 H1837 0.985 . S
H1834 N1829 0.984 . S
H1835 N1829 0.985 . S
H1836 N1833 0.984 . S
H1837 N1833 0.985 . S
H1838 N1832 0.984 . S
H1839 N1832 0.984 . S
H1840 N1828 0.984 . S
H1841 N1828 0.985 . S
C1842 C1843 1.363 . S
C1842 C1848 1.379 . S
C1842 N1850 1.356 . S
C1843 C1842 1.363 . S
C1843 C1849 1.363 . S
C1844 C1845 1.363 . S
C1844 C1849 1.379 . S
C1844 N1851 1.356 . S
C1845 C1844 1.363 . S
C1845 C1848 1.363 . S
N1846 C1848 1.356 . S
N1846 H1858 0.984 . S
N1846 H1859 0.985 . S
N1847 C1849 1.356 . S
N1847 H1852 0.984 . S
N1847 H1853 0.985 . S
C1848 C1842 1.379 . S
C1848 C1845 1.363 . S
C1848 N1846 1.356 . S
C1849 C1843 1.363 . S
C1849 C1844 1.379 . S
C1849 N1847 1.356 . S
N1850 C1842 1.356 . S
N1850 H1856 0.984 . S
N1850 H1857 0.984 . S
N1851 C1844 1.356 . S
N1851 H1854 0.984 . S
N1851 H1855 0.985 . S
H1852 N1847 0.984 . S
H1853 N1847 0.985 . S
H1854 N1851 0.984 . S
H1855 N1851 0.985 . S
H1856 N1850 0.984 . S
H1857 N1850 0.984 . S
H1858 N1846 0.984 . S
H1859 N1846 0.985 . S
C1860 C1861 1.363 . S
C1860 C1866 1.379 . S
C1860 N1868 1.356 . S
C1861 C1860 1.363 . S
C1861 C1867 1.363 . S
C1862 C1863 1.363 . S
C1862 C1867 1.379 . S
C1862 N1869 1.356 . S
C1863 C1862 1.363 . S
C1863 C1866 1.363 . S
N1864 C1866 1.356 . S
N1864 H1876 0.984 . S
N1864 H1877 0.985 . S
N1865 C1867 1.356 . S
N1865 H1870 0.984 . S
N1865 H1871 0.985 . S
C1866 C1860 1.379 . S
C1866 C1863 1.363 . S
C1866 N1864 1.356 . S
C1867 C1861 1.363 . S
C1867 C1862 1.379 . S
C1867 N1865 1.356 . S
N1868 C1860 1.356 . S
N1868 H1874 0.984 . S
N1868 H1875 0.984 . S
N1869 C1862 1.356 . S
N1869 H1872 0.984 . S
N1869 H1873 0.985 . S
H1870 N1865 0.984 . S
H1871 N1865 0.985 . S
H1872 N1869 0.984 . S
H1873 N1869 0.985 . S
H1874 N1868 0.984 . S
H1875 N1868 0.984 . S
H1876 N1864 0.984 . S
H1877 N1864 0.985 . S
C1878 C1879 1.363 . S
C1878 C1884 1.379 . S
C1878 N1886 1.356 . S
C1879 C1878 1.363 . S
C1879 C1885 1.363 . S
C1880 C1881 1.363 . S
C1880 C1885 1.379 . S
C1880 N1887 1.356 . S
C1881 C1880 1.363 . S
C1881 C1884 1.363 . S
N1882 C1884 1.356 . S
N1882 H1894 0.984 . S
N1882 H1895 0.985 . S
N1883 C1885 1.356 . S
N1883 H1888 0.984 . S
N1883 H1889 0.985 . S
C1884 C1878 1.379 . S
C1884 C1881 1.363 . S
C1884 N1882 1.356 . S
C1885 C1879 1.363 . S
C1885 C1880 1.379 . S
C1885 N1883 1.356 . S
N1886 C1878 1.356 . S
N1886 H1892 0.984 . S
N1886 H1893 0.984 . S
N1887 C1880 1.356 . S
N1887 H1890 0.984 . S
N1887 H1891 0.985 . S
H1888 N1883 0.984 . S
H1889 N1883 0.985 . S
H1890 N1887 0.984 . S
H1891 N1887 0.985 . S
H1892 N1886 0.984 . S
H1893 N1886 0.984 . S
H1894 N1882 0.984 . S
H1895 N1882 0.985 . S
C1896 C1897 1.363 . S
C1896 C1902 1.379 . S
C1896 N1904 1.356 . S
C1897 C1896 1.363 . S
C1897 C1903 1.363 . S
C1898 C1899 1.363 . S
C1898 C1903 1.379 . S
C1898 N1905 1.356 . S
C1899 C1898 1.363 . S
C1899 C1902 1.363 . S
N1900 C1902 1.356 . S
N1900 H1912 0.984 . S
N1900 H1913 0.985 . S
N1901 C1903 1.356 . S
N1901 H1906 0.984 . S
N1901 H1907 0.985 . S
C1902 C1896 1.379 . S
C1902 C1899 1.363 . S
C1902 N1900 1.356 . S
C1903 C1897 1.363 . S
C1903 C1898 1.379 . S
C1903 N1901 1.356 . S
N1904 C1896 1.356 . S
N1904 H1910 0.984 . S
N1904 H1911 0.984 . S
N1905 C1898 1.356 . S
N1905 H1908 0.984 . S
N1905 H1909 0.985 . S
H1906 N1901 0.984 . S
H1907 N1901 0.985 . S
H1908 N1905 0.984 . S
H1909 N1905 0.985 . S
H1910 N1904 0.984 . S
H1911 N1904 0.984 . S
H1912 N1900 0.984 . S
H1913 N1900 0.985 . S
C1914 C1915 1.363 . S
C1914 C1920 1.379 . S
C1914 N1922 1.356 . S
C1915 C1914 1.363 . S
C1915 C1921 1.363 . S
C1916 C1917 1.363 . S
C1916 C1921 1.379 . S
C1916 N1923 1.356 . S
C1917 C1916 1.363 . S
C1917 C1920 1.363 . S
N1918 C1920 1.356 . S
N1918 H1930 0.984 . S
N1918 H1931 0.985 . S
N1919 C1921 1.356 . S
N1919 H1924 0.984 . S
N1919 H1925 0.985 . S
C1920 C1914 1.379 . S
C1920 C1917 1.363 . S
C1920 N1918 1.356 . S
C1921 C1915 1.363 . S
C1921 C1916 1.379 . S
C1921 N1919 1.356 . S
N1922 C1914 1.356 . S
N1922 H1928 0.984 . S
N1922 H1929 0.984 . S
N1923 C1916 1.356 . S
N1923 H1926 0.984 . S
N1923 H1927 0.985 . S
H1924 N1919 0.984 . S
H1925 N1919 0.985 . S
H1926 N1923 0.984 . S
H1927 N1923 0.985 . S
H1928 N1922 0.984 . S
H1929 N1922 0.984 . S
H1930 N1918 0.984 . S
H1931 N1918 0.985 . S
C1932 C1933 1.363 . S
C1932 C1938 1.379 . S
C1932 N1940 1.356 . S
C1933 C1932 1.363 . S
C1933 C1939 1.363 . S
C1934 C1935 1.363 . S
C1934 C1939 1.379 . S
C1934 N1941 1.356 . S
C1935 C1934 1.363 . S
C1935 C1938 1.363 . S
N1936 C1938 1.356 . S
N1936 H1948 0.984 . S
N1936 H1949 0.985 . S
N1937 C1939 1.356 . S
N1937 H1942 0.984 . S
N1937 H1943 0.985 . S
C1938 C1932 1.379 . S
C1938 C1935 1.363 . S
C1938 N1936 1.356 . S
C1939 C1933 1.363 . S
C1939 C1934 1.379 . S
C1939 N1937 1.356 . S
N1940 C1932 1.356 . S
N1940 H1946 0.984 . S
N1940 H1947 0.984 . S
N1941 C1934 1.356 . S
N1941 H1944 0.984 . S
N1941 H1945 0.985 . S
H1942 N1937 0.984 . S
H1943 N1937 0.985 . S
H1944 N1941 0.984 . S
H1945 N1941 0.985 . S
H1946 N1940 0.984 . S
H1947 N1940 0.984 . S
H1948 N1936 0.984 . S
H1949 N1936 0.985 . S
C1950 C1951 1.363 . S
C1950 C1956 1.379 . S
C1950 N1958 1.356 . S
C1951 C1950 1.363 . S
C1951 C1957 1.363 . S
C1952 C1953 1.363 . S
C1952 C1957 1.379 . S
C1952 N1959 1.356 . S
C1953 C1952 1.363 . S
C1953 C1956 1.363 . S
N1954 C1956 1.356 . S
N1954 H1966 0.984 . S
N1954 H1967 0.985 . S
N1955 C1957 1.356 . S
N1955 H1960 0.984 . S
N1955 H1961 0.985 . S
C1956 C1950 1.379 . S
C1956 C1953 1.363 . S
C1956 N1954 1.356 . S
C1957 C1951 1.363 . S
C1957 C1952 1.379 . S
C1957 N1955 1.356 . S
N1958 C1950 1.356 . S
N1958 H1964 0.984 . S
N1958 H1965 0.984 . S
N1959 C1952 1.356 . S
N1959 H1962 0.984 . S
N1959 H1963 0.985 . S
H1960 N1955 0.984 . S
H1961 N1955 0.985 . S
H1962 N1959 0.984 . S
H1963 N1959 0.985 . S
H1964 N1958 0.984 . S
H1965 N1958 0.984 . S
H1966 N1954 0.984 . S
H1967 N1954 0.985 . S
C1968 C1969 1.363 . S
C1968 C1974 1.379 . S
C1968 N1976 1.356 . S
C1969 C1968 1.363 . S
C1969 C1975 1.363 . S
C1970 C1971 1.363 . S
C1970 C1975 1.379 . S
C1970 N1977 1.356 . S
C1971 C1970 1.363 . S
C1971 C1974 1.363 . S
N1972 C1974 1.356 . S
N1972 H1984 0.984 . S
N1972 H1985 0.985 . S
N1973 C1975 1.356 . S
N1973 H1978 0.984 . S
N1973 H1979 0.985 . S
C1974 C1968 1.379 . S
C1974 C1971 1.363 . S
C1974 N1972 1.356 . S
C1975 C1969 1.363 . S
C1975 C1970 1.379 . S
C1975 N1973 1.356 . S
N1976 C1968 1.356 . S
N1976 H1982 0.984 . S
N1976 H1983 0.984 . S
N1977 C1970 1.356 . S
N1977 H1980 0.984 . S
N1977 H1981 0.985 . S
H1978 N1973 0.984 . S
H1979 N1973 0.985 . S
H1980 N1977 0.984 . S
H1981 N1977 0.985 . S
H1982 N1976 0.984 . S
H1983 N1976 0.984 . S
H1984 N1972 0.984 . S
H1985 N1972 0.985 . S
C1986 C1987 1.363 . S
C1986 C1992 1.379 . S
C1986 N1994 1.356 . S
C1987 C1986 1.363 . S
C1987 C1993 1.363 . S
C1988 C1989 1.363 . S
C1988 C1993 1.379 . S
C1988 N1995 1.356 . S
C1989 C1988 1.363 . S
C1989 C1992 1.363 . S
N1990 C1992 1.356 . S
N1990 H2002 0.984 . S
N1990 H2003 0.985 . S
N1991 C1993 1.356 . S
N1991 H1996 0.984 . S
N1991 H1997 0.985 . S
C1992 C1986 1.379 . S
C1992 C1989 1.363 . S
C1992 N1990 1.356 . S
C1993 C1987 1.363 . S
C1993 C1988 1.379 . S
C1993 N1991 1.356 . S
N1994 C1986 1.356 . S
N1994 H2000 0.984 . S
N1994 H2001 0.984 . S
N1995 C1988 1.356 . S
N1995 H1998 0.984 . S
N1995 H1999 0.985 . S
H1996 N1991 0.984 . S
H1997 N1991 0.985 . S
H1998 N1995 0.984 . S
H1999 N1995 0.985 . S
H2000 N1994 0.984 . S
H2001 N1994 0.984 . S
H2002 N1990 0.984 . S
H2003 N1990 0.985 . S
C2004 C2005 1.363 . S
C2004 C2010 1.379 . S
C2004 N2012 1.356 . S
C2005 C2004 1.363 . S
C2005 C2011 1.363 . S
C2006 C2007 1.363 . S
C2006 C2011 1.379 . S
C2006 N2013 1.356 . S
C2007 C2006 1.363 . S
C2007 C2010 1.363 . S
N2008 C2010 1.356 . S
N2008 H2020 0.984 . S
N2008 H2021 0.985 . S
N2009 C2011 1.356 . S
N2009 H2014 0.984 . S
N2009 H2015 0.985 . S
C2010 C2004 1.379 . S
C2010 C2007 1.363 . S
C2010 N2008 1.356 . S
C2011 C2005 1.363 . S
C2011 C2006 1.379 . S
C2011 N2009 1.356 . S
N2012 C2004 1.356 . S
N2012 H2018 0.984 . S
N2012 H2019 0.984 . S
N2013 C2006 1.356 . S
N2013 H2016 0.984 . S
N2013 H2017 0.985 . S
H2014 N2009 0.984 . S
H2015 N2009 0.985 . S
H2016 N2013 0.984 . S
H2017 N2013 0.985 . S
H2018 N2012 0.984 . S
H2019 N2012 0.984 . S
H2020 N2008 0.984 . S
H2021 N2008 0.985 . S
C2022 C2023 1.363 . S
C2022 C2028 1.379 . S
C2022 N2030 1.356 . S
C2023 C2022 1.363 . S
C2023 C2029 1.363 . S
C2024 C2025 1.363 . S
C2024 C2029 1.379 . S
C2024 N2031 1.356 . S
C2025 C2024 1.363 . S
C2025 C2028 1.363 . S
N2026 C2028 1.356 . S
N2026 H2038 0.984 . S
N2026 H2039 0.985 . S
N2027 C2029 1.356 . S
N2027 H2032 0.984 . S
N2027 H2033 0.985 . S
C2028 C2022 1.379 . S
C2028 C2025 1.363 . S
C2028 N2026 1.356 . S
C2029 C2023 1.363 . S
C2029 C2024 1.379 . S
C2029 N2027 1.356 . S
N2030 C2022 1.356 . S
N2030 H2036 0.984 . S
N2030 H2037 0.984 . S
N2031 C2024 1.356 . S
N2031 H2034 0.984 . S
N2031 H2035 0.985 . S
H2032 N2027 0.984 . S
H2033 N2027 0.985 . S
H2034 N2031 0.984 . S
H2035 N2031 0.985 . S
H2036 N2030 0.984 . S
H2037 N2030 0.984 . S
H2038 N2026 0.984 . S
H2039 N2026 0.985 . S
C2040 C2041 1.363 . S
C2040 C2046 1.379 . S
C2040 N2048 1.356 . S
C2041 C2040 1.363 . S
C2041 C2047 1.363 . S
C2042 C2043 1.363 . S
C2042 C2047 1.379 . S
C2042 N2049 1.356 . S
C2043 C2042 1.363 . S
C2043 C2046 1.363 . S
N2044 C2046 1.356 . S
N2044 H2056 0.984 . S
N2044 H2057 0.985 . S
N2045 C2047 1.356 . S
N2045 H2050 0.984 . S
N2045 H2051 0.985 . S
C2046 C2040 1.379 . S
C2046 C2043 1.363 . S
C2046 N2044 1.356 . S
C2047 C2041 1.363 . S
C2047 C2042 1.379 . S
C2047 N2045 1.356 . S
N2048 C2040 1.356 . S
N2048 H2054 0.984 . S
N2048 H2055 0.984 . S
N2049 C2042 1.356 . S
N2049 H2052 0.984 . S
N2049 H2053 0.985 . S
H2050 N2045 0.984 . S
H2051 N2045 0.985 . S
H2052 N2049 0.984 . S
H2053 N2049 0.985 . S
H2054 N2048 0.984 . S
H2055 N2048 0.984 . S
H2056 N2044 0.984 . S
H2057 N2044 0.985 . S
C2058 C2059 1.363 . S
C2058 C2064 1.379 . S
C2058 N2066 1.356 . S
C2059 C2058 1.363 . S
C2059 C2065 1.363 . S
C2060 C2061 1.363 . S
C2060 C2065 1.379 . S
C2060 N2067 1.356 . S
C2061 C2060 1.363 . S
C2061 C2064 1.363 . S
N2062 C2064 1.356 . S
N2062 H2074 0.984 . S
N2062 H2075 0.985 . S
N2063 C2065 1.356 . S
N2063 H2068 0.984 . S
N2063 H2069 0.985 . S
C2064 C2058 1.379 . S
C2064 C2061 1.363 . S
C2064 N2062 1.356 . S
C2065 C2059 1.363 . S
C2065 C2060 1.379 . S
C2065 N2063 1.356 . S
N2066 C2058 1.356 . S
N2066 H2072 0.984 . S
N2066 H2073 0.984 . S
N2067 C2060 1.356 . S
N2067 H2070 0.984 . S
N2067 H2071 0.985 . S
H2068 N2063 0.984 . S
H2069 N2063 0.985 . S
H2070 N2067 0.984 . S
H2071 N2067 0.985 . S
H2072 N2066 0.984 . S
H2073 N2066 0.984 . S
H2074 N2062 0.984 . S
H2075 N2062 0.985 . S
C2076 C2077 1.363 . S
C2076 C2082 1.379 . S
C2076 N2084 1.356 . S
C2077 C2076 1.363 . S
C2077 C2083 1.363 . S
C2078 C2079 1.363 . S
C2078 C2083 1.379 . S
C2078 N2085 1.356 . S
C2079 C2078 1.363 . S
C2079 C2082 1.363 . S
N2080 C2082 1.356 . S
N2080 H2092 0.984 . S
N2080 H2093 0.985 . S
N2081 C2083 1.356 . S
N2081 H2086 0.984 . S
N2081 H2087 0.985 . S
C2082 C2076 1.379 . S
C2082 C2079 1.363 . S
C2082 N2080 1.356 . S
C2083 C2077 1.363 . S
C2083 C2078 1.379 . S
C2083 N2081 1.356 . S
N2084 C2076 1.356 . S
N2084 H2090 0.984 . S
N2084 H2091 0.984 . S
N2085 C2078 1.356 . S
N2085 H2088 0.984 . S
N2085 H2089 0.985 . S
H2086 N2081 0.984 . S
H2087 N2081 0.985 . S
H2088 N2085 0.984 . S
H2089 N2085 0.985 . S
H2090 N2084 0.984 . S
H2091 N2084 0.984 . S
H2092 N2080 0.984 . S
H2093 N2080 0.985 . S
C2094 C2095 1.363 . S
C2094 C2100 1.379 . S
C2094 N2102 1.356 . S
C2095 C2094 1.363 . S
C2095 C2101 1.363 . S
C2096 C2097 1.363 . S
C2096 C2101 1.379 . S
C2096 N2103 1.356 . S
C2097 C2096 1.363 . S
C2097 C2100 1.363 . S
N2098 C2100 1.356 . S
N2098 H2110 0.984 . S
N2098 H2111 0.985 . S
N2099 C2101 1.356 . S
N2099 H2104 0.984 . S
N2099 H2105 0.985 . S
C2100 C2094 1.379 . S
C2100 C2097 1.363 . S
C2100 N2098 1.356 . S
C2101 C2095 1.363 . S
C2101 C2096 1.379 . S
C2101 N2099 1.356 . S
N2102 C2094 1.356 . S
N2102 H2108 0.984 . S
N2102 H2109 0.984 . S
N2103 C2096 1.356 . S
N2103 H2106 0.984 . S
N2103 H2107 0.985 . S
H2104 N2099 0.984 . S
H2105 N2099 0.985 . S
H2106 N2103 0.984 . S
H2107 N2103 0.985 . S
H2108 N2102 0.984 . S
H2109 N2102 0.984 . S
H2110 N2098 0.984 . S
H2111 N2098 0.985 . S
C2112 C2113 1.363 . S
C2112 C2118 1.379 . S
C2112 N2120 1.356 . S
C2113 C2112 1.363 . S
C2113 C2119 1.363 . S
C2114 C2115 1.363 . S
C2114 C2119 1.379 . S
C2114 N2121 1.356 . S
C2115 C2114 1.363 . S
C2115 C2118 1.363 . S
N2116 C2118 1.356 . S
N2116 H2128 0.984 . S
N2116 H2129 0.985 . S
N2117 C2119 1.356 . S
N2117 H2122 0.984 . S
N2117 H2123 0.985 . S
C2118 C2112 1.379 . S
C2118 C2115 1.363 . S
C2118 N2116 1.356 . S
C2119 C2113 1.363 . S
C2119 C2114 1.379 . S
C2119 N2117 1.356 . S
N2120 C2112 1.356 . S
N2120 H2126 0.984 . S
N2120 H2127 0.984 . S
N2121 C2114 1.356 . S
N2121 H2124 0.984 . S
N2121 H2125 0.985 . S
H2122 N2117 0.984 . S
H2123 N2117 0.985 . S
H2124 N2121 0.984 . S
H2125 N2121 0.985 . S
H2126 N2120 0.984 . S
H2127 N2120 0.984 . S
H2128 N2116 0.984 . S
H2129 N2116 0.985 . S
C2130 C2131 1.363 . S
C2130 C2136 1.379 . S
C2130 N2138 1.356 . S
C2131 C2130 1.363 . S
C2131 C2137 1.363 . S
C2132 C2133 1.363 . S
C2132 C2137 1.379 . S
C2132 N2139 1.356 . S
C2133 C2132 1.363 . S
C2133 C2136 1.363 . S
N2134 C2136 1.356 . S
N2134 H2146 0.984 . S
N2134 H2147 0.985 . S
N2135 C2137 1.356 . S
N2135 H2140 0.984 . S
N2135 H2141 0.985 . S
C2136 C2130 1.379 . S
C2136 C2133 1.363 . S
C2136 N2134 1.356 . S
C2137 C2131 1.363 . S
C2137 C2132 1.379 . S
C2137 N2135 1.356 . S
N2138 C2130 1.356 . S
N2138 H2144 0.984 . S
N2138 H2145 0.984 . S
N2139 C2132 1.356 . S
N2139 H2142 0.984 . S
N2139 H2143 0.985 . S
H2140 N2135 0.984 . S
H2141 N2135 0.985 . S
H2142 N2139 0.984 . S
H2143 N2139 0.985 . S
H2144 N2138 0.984 . S
H2145 N2138 0.984 . S
H2146 N2134 0.984 . S
H2147 N2134 0.985 . S
C2148 C2149 1.363 . S
C2148 C2154 1.379 . S
C2148 N2156 1.356 . S
C2149 C2148 1.363 . S
C2149 C2155 1.363 . S
C2150 C2151 1.363 . S
C2150 C2155 1.379 . S
C2150 N2157 1.356 . S
C2151 C2150 1.363 . S
C2151 C2154 1.363 . S
N2152 C2154 1.356 . S
N2152 H2164 0.984 . S
N2152 H2165 0.985 . S
N2153 C2155 1.356 . S
N2153 H2158 0.984 . S
N2153 H2159 0.985 . S
C2154 C2148 1.379 . S
C2154 C2151 1.363 . S
C2154 N2152 1.356 . S
C2155 C2149 1.363 . S
C2155 C2150 1.379 . S
C2155 N2153 1.356 . S
N2156 C2148 1.356 . S
N2156 H2162 0.984 . S
N2156 H2163 0.984 . S
N2157 C2150 1.356 . S
N2157 H2160 0.984 . S
N2157 H2161 0.985 . S
H2158 N2153 0.984 . S
H2159 N2153 0.985 . S
H2160 N2157 0.984 . S
H2161 N2157 0.985 . S
H2162 N2156 0.984 . S
H2163 N2156 0.984 . S
H2164 N2152 0.984 . S
H2165 N2152 0.985 . S
C2166 C2167 1.363 . S
C2166 C2172 1.379 . S
C2166 N2174 1.356 . S
C2167 C2166 1.363 . S
C2167 C2173 1.363 . S
C2168 C2169 1.363 . S
C2168 C2173 1.379 . S
C2168 N2175 1.356 . S
C2169 C2168 1.363 . S
C2169 C2172 1.363 . S
N2170 C2172 1.356 . S
N2170 H2182 0.984 . S
N2170 H2183 0.985 . S
N2171 C2173 1.356 . S
N2171 H2176 0.984 . S
N2171 H2177 0.985 . S
C2172 C2166 1.379 . S
C2172 C2169 1.363 . S
C2172 N2170 1.356 . S
C2173 C2167 1.363 . S
C2173 C2168 1.379 . S
C2173 N2171 1.356 . S
N2174 C2166 1.356 . S
N2174 H2180 0.984 . S
N2174 H2181 0.984 . S
N2175 C2168 1.356 . S
N2175 H2178 0.984 . S
N2175 H2179 0.985 . S
H2176 N2171 0.984 . S
H2177 N2171 0.985 . S
H2178 N2175 0.984 . S
H2179 N2175 0.985 . S
H2180 N2174 0.984 . S
H2181 N2174 0.984 . S
H2182 N2170 0.984 . S
H2183 N2170 0.985 . S
C2184 C2185 1.363 . S
C2184 C2190 1.379 . S
C2184 N2192 1.356 . S
C2185 C2184 1.363 . S
C2185 C2191 1.363 . S
C2186 C2187 1.363 . S
C2186 C2191 1.379 . S
C2186 N2193 1.356 . S
C2187 C2186 1.363 . S
C2187 C2190 1.363 . S
N2188 C2190 1.356 . S
N2188 H2200 0.984 . S
N2188 H2201 0.985 . S
N2189 C2191 1.356 . S
N2189 H2194 0.984 . S
N2189 H2195 0.985 . S
C2190 C2184 1.379 . S
C2190 C2187 1.363 . S
C2190 N2188 1.356 . S
C2191 C2185 1.363 . S
C2191 C2186 1.379 . S
C2191 N2189 1.356 . S
N2192 C2184 1.356 . S
N2192 H2198 0.984 . S
N2192 H2199 0.984 . S
N2193 C2186 1.356 . S
N2193 H2196 0.984 . S
N2193 H2197 0.985 . S
H2194 N2189 0.984 . S
H2195 N2189 0.985 . S
H2196 N2193 0.984 . S
H2197 N2193 0.985 . S
H2198 N2192 0.984 . S
H2199 N2192 0.984 . S
H2200 N2188 0.984 . S
H2201 N2188 0.985 . S
C2202 C2203 1.363 . S
C2202 C2208 1.379 . S
C2202 N2210 1.356 . S
C2203 C2202 1.363 . S
C2203 C2209 1.363 . S
C2204 C2205 1.363 . S
C2204 C2209 1.379 . S
C2204 N2211 1.356 . S
C2205 C2204 1.363 . S
C2205 C2208 1.363 . S
N2206 C2208 1.356 . S
N2206 H2218 0.984 . S
N2206 H2219 0.985 . S
N2207 C2209 1.356 . S
N2207 H2212 0.984 . S
N2207 H2213 0.985 . S
C2208 C2202 1.379 . S
C2208 C2205 1.363 . S
C2208 N2206 1.356 . S
C2209 C2203 1.363 . S
C2209 C2204 1.379 . S
C2209 N2207 1.356 . S
N2210 C2202 1.356 . S
N2210 H2216 0.984 . S
N2210 H2217 0.984 . S
N2211 C2204 1.356 . S
N2211 H2214 0.984 . S
N2211 H2215 0.985 . S
H2212 N2207 0.984 . S
H2213 N2207 0.985 . S
H2214 N2211 0.984 . S
H2215 N2211 0.985 . S
H2216 N2210 0.984 . S
H2217 N2210 0.984 . S
H2218 N2206 0.984 . S
H2219 N2206 0.985 . S
C2220 C2221 1.363 . S
C2220 C2226 1.379 . S
C2220 N2228 1.356 . S
C2221 C2220 1.363 . S
C2221 C2227 1.363 . S
C2222 C2223 1.363 . S
C2222 C2227 1.379 . S
C2222 N2229 1.356 . S
C2223 C2222 1.363 . S
C2223 C2226 1.363 . S
N2224 C2226 1.356 . S
N2224 H2236 0.984 . S
N2224 H2237 0.985 . S
N2225 C2227 1.356 . S
N2225 H2230 0.984 . S
N2225 H2231 0.985 . S
C2226 C2220 1.379 . S
C2226 C2223 1.363 . S
C2226 N2224 1.356 . S
C2227 C2221 1.363 . S
C2227 C2222 1.379 . S
C2227 N2225 1.356 . S
N2228 C2220 1.356 . S
N2228 H2234 0.984 . S
N2228 H2235 0.984 . S
N2229 C2222 1.356 . S
N2229 H2232 0.984 . S
N2229 H2233 0.985 . S
H2230 N2225 0.984 . S
H2231 N2225 0.985 . S
H2232 N2229 0.984 . S
H2233 N2229 0.985 . S
H2234 N2228 0.984 . S
H2235 N2228 0.984 . S
H2236 N2224 0.984 . S
H2237 N2224 0.985 . S
C2238 C2239 1.363 . S
C2238 C2244 1.379 . S
C2238 N2246 1.356 . S
C2239 C2238 1.363 . S
C2239 C2245 1.363 . S
C2240 C2241 1.363 . S
C2240 C2245 1.379 . S
C2240 N2247 1.356 . S
C2241 C2240 1.363 . S
C2241 C2244 1.363 . S
N2242 C2244 1.356 . S
N2242 H2254 0.984 . S
N2242 H2255 0.985 . S
N2243 C2245 1.356 . S
N2243 H2248 0.984 . S
N2243 H2249 0.985 . S
C2244 C2238 1.379 . S
C2244 C2241 1.363 . S
C2244 N2242 1.356 . S
C2245 C2239 1.363 . S
C2245 C2240 1.379 . S
C2245 N2243 1.356 . S
N2246 C2238 1.356 . S
N2246 H2252 0.984 . S
N2246 H2253 0.984 . S
N2247 C2240 1.356 . S
N2247 H2250 0.984 . S
N2247 H2251 0.985 . S
H2248 N2243 0.984 . S
H2249 N2243 0.985 . S
H2250 N2247 0.984 . S
H2251 N2247 0.985 . S
H2252 N2246 0.984 . S
H2253 N2246 0.984 . S
H2254 N2242 0.984 . S
H2255 N2242 0.985 . S
C2256 C2257 1.363 . S
C2256 C2262 1.379 . S
C2256 N2264 1.356 . S
C2257 C2256 1.363 . S
C2257 C2263 1.363 . S
C2258 C2259 1.363 . S
C2258 C2263 1.379 . S
C2258 N2265 1.356 . S
C2259 C2258 1.363 . S
C2259 C2262 1.363 . S
N2260 C2262 1.356 . S
N2260 H2272 0.984 . S
N2260 H2273 0.985 . S
N2261 C2263 1.356 . S
N2261 H2266 0.984 . S
N2261 H2267 0.985 . S
C2262 C2256 1.379 . S
C2262 C2259 1.363 . S
C2262 N2260 1.356 . S
C2263 C2257 1.363 . S
C2263 C2258 1.379 . S
C2263 N2261 1.356 . S
N2264 C2256 1.356 . S
N2264 H2270 0.984 . S
N2264 H2271 0.984 . S
N2265 C2258 1.356 . S
N2265 H2268 0.984 . S
N2265 H2269 0.985 . S
H2266 N2261 0.984 . S
H2267 N2261 0.985 . S
H2268 N2265 0.984 . S
H2269 N2265 0.985 . S
H2270 N2264 0.984 . S
H2271 N2264 0.984 . S
H2272 N2260 0.984 . S
H2273 N2260 0.985 . S
C2274 C2275 1.363 . S
C2274 C2280 1.379 . S
C2274 N2282 1.356 . S
C2275 C2274 1.363 . S
C2275 C2281 1.363 . S
C2276 C2277 1.363 . S
C2276 C2281 1.379 . S
C2276 N2283 1.356 . S
C2277 C2276 1.363 . S
C2277 C2280 1.363 . S
N2278 C2280 1.356 . S
N2278 H2290 0.984 . S
N2278 H2291 0.985 . S
N2279 C2281 1.356 . S
N2279 H2284 0.984 . S
N2279 H2285 0.985 . S
C2280 C2274 1.379 . S
C2280 C2277 1.363 . S
C2280 N2278 1.356 . S
C2281 C2275 1.363 . S
C2281 C2276 1.379 . S
C2281 N2279 1.356 . S
N2282 C2274 1.356 . S
N2282 H2288 0.984 . S
N2282 H2289 0.984 . S
N2283 C2276 1.356 . S
N2283 H2286 0.984 . S
N2283 H2287 0.985 . S
H2284 N2279 0.984 . S
H2285 N2279 0.985 . S
H2286 N2283 0.984 . S
H2287 N2283 0.985 . S
H2288 N2282 0.984 . S
H2289 N2282 0.984 . S
H2290 N2278 0.984 . S
H2291 N2278 0.985 . S
C2292 C2293 1.363 . S
C2292 C2298 1.379 . S
C2292 N2300 1.356 . S
C2293 C2292 1.363 . S
C2293 C2299 1.363 . S
C2294 C2295 1.363 . S
C2294 C2299 1.379 . S
C2294 N2301 1.356 . S
C2295 C2294 1.363 . S
C2295 C2298 1.363 . S
N2296 C2298 1.356 . S
N2296 H2308 0.984 . S
N2296 H2309 0.985 . S
N2297 C2299 1.356 . S
N2297 H2302 0.984 . S
N2297 H2303 0.985 . S
C2298 C2292 1.379 . S
C2298 C2295 1.363 . S
C2298 N2296 1.356 . S
C2299 C2293 1.363 . S
C2299 C2294 1.379 . S
C2299 N2297 1.356 . S
N2300 C2292 1.356 . S
N2300 H2306 0.984 . S
N2300 H2307 0.984 . S
N2301 C2294 1.356 . S
N2301 H2304 0.984 . S
N2301 H2305 0.985 . S
H2302 N2297 0.984 . S
H2303 N2297 0.985 . S
H2304 N2301 0.984 . S
H2305 N2301 0.985 . S
H2306 N2300 0.984 . S
H2307 N2300 0.984 . S
H2308 N2296 0.984 . S
H2309 N2296 0.985 . S
C2310 C2311 1.363 . S
C2310 C2316 1.379 . S
C2310 N2318 1.356 . S
C2311 C2310 1.363 . S
C2311 C2317 1.363 . S
C2312 C2313 1.363 . S
C2312 C2317 1.379 . S
C2312 N2319 1.356 . S
C2313 C2312 1.363 . S
C2313 C2316 1.363 . S
N2314 C2316 1.356 . S
N2314 H2326 0.984 . S
N2314 H2327 0.985 . S
N2315 C2317 1.356 . S
N2315 H2320 0.984 . S
N2315 H2321 0.985 . S
C2316 C2310 1.379 . S
C2316 C2313 1.363 . S
C2316 N2314 1.356 . S
C2317 C2311 1.363 . S
C2317 C2312 1.379 . S
C2317 N2315 1.356 . S
N2318 C2310 1.356 . S
N2318 H2324 0.984 . S
N2318 H2325 0.984 . S
N2319 C2312 1.356 . S
N2319 H2322 0.984 . S
N2319 H2323 0.985 . S
H2320 N2315 0.984 . S
H2321 N2315 0.985 . S
H2322 N2319 0.984 . S
H2323 N2319 0.985 . S
H2324 N2318 0.984 . S
H2325 N2318 0.984 . S
H2326 N2314 0.984 . S
H2327 N2314 0.985 . S
C2328 C2329 1.363 . S
C2328 C2334 1.379 . S
C2328 N2336 1.356 . S
C2329 C2328 1.363 . S
C2329 C2335 1.363 . S
C2330 C2331 1.363 . S
C2330 C2335 1.379 . S
C2330 N2337 1.356 . S
C2331 C2330 1.363 . S
C2331 C2334 1.363 . S
N2332 C2334 1.356 . S
N2332 H2344 0.984 . S
N2332 H2345 0.985 . S
N2333 C2335 1.356 . S
N2333 H2338 0.984 . S
N2333 H2339 0.985 . S
C2334 C2328 1.379 . S
C2334 C2331 1.363 . S
C2334 N2332 1.356 . S
C2335 C2329 1.363 . S
C2335 C2330 1.379 . S
C2335 N2333 1.356 . S
N2336 C2328 1.356 . S
N2336 H2342 0.984 . S
N2336 H2343 0.984 . S
N2337 C2330 1.356 . S
N2337 H2340 0.984 . S
N2337 H2341 0.985 . S
H2338 N2333 0.984 . S
H2339 N2333 0.985 . S
H2340 N2337 0.984 . S
H2341 N2337 0.985 . S
H2342 N2336 0.984 . S
H2343 N2336 0.984 . S
H2344 N2332 0.984 . S
H2345 N2332 0.985 . S
C2346 C2347 1.363 . S
C2346 C2352 1.379 . S
C2346 N2354 1.356 . S
C2347 C2346 1.363 . S
C2347 C2353 1.363 . S
C2348 C2349 1.363 . S
C2348 C2353 1.379 . S
C2348 N2355 1.356 . S
C2349 C2348 1.363 . S
C2349 C2352 1.363 . S
N2350 C2352 1.356 . S
N2350 H2362 0.984 . S
N2350 H2363 0.985 . S
N2351 C2353 1.356 . S
N2351 H2356 0.984 . S
N2351 H2357 0.985 . S
C2352 C2346 1.379 . S
C2352 C2349 1.363 . S
C2352 N2350 1.356 . S
C2353 C2347 1.363 . S
C2353 C2348 1.379 . S
C2353 N2351 1.356 . S
N2354 C2346 1.356 . S
N2354 H2360 0.984 . S
N2354 H2361 0.984 . S
N2355 C2348 1.356 . S
N2355 H2358 0.984 . S
N2355 H2359 0.985 . S
H2356 N2351 0.984 . S
H2357 N2351 0.985 . S
H2358 N2355 0.984 . S
H2359 N2355 0.985 . S
H2360 N2354 0.984 . S
H2361 N2354 0.984 . S
H2362 N2350 0.984 . S
H2363 N2350 0.985 . S
C2364 C2365 1.363 . S
C2364 C2370 1.379 . S
C2364 N2372 1.356 . S
C2365 C2364 1.363 . S
C2365 C2371 1.363 . S
C2366 C2367 1.363 . S
C2366 C2371 1.379 . S
C2366 N2373 1.356 . S
C2367 C2366 1.363 . S
C2367 C2370 1.363 . S
N2368 C2370 1.356 . S
N2368 H2380 0.984 . S
N2368 H2381 0.985 . S
N2369 C2371 1.356 . S
N2369 H2374 0.984 . S
N2369 H2375 0.985 . S
C2370 C2364 1.379 . S
C2370 C2367 1.363 . S
C2370 N2368 1.356 . S
C2371 C2365 1.363 . S
C2371 C2366 1.379 . S
C2371 N2369 1.356 . S
N2372 C2364 1.356 . S
N2372 H2378 0.984 . S
N2372 H2379 0.984 . S
N2373 C2366 1.356 . S
N2373 H2376 0.984 . S
N2373 H2377 0.985 . S
H2374 N2369 0.984 . S
H2375 N2369 0.985 . S
H2376 N2373 0.984 . S
H2377 N2373 0.985 . S
H2378 N2372 0.984 . S
H2379 N2372 0.984 . S
H2380 N2368 0.984 . S
H2381 N2368 0.985 . S
C2382 C2383 1.363 . S
C2382 C2388 1.379 . S
C2382 N2390 1.356 . S
C2383 C2382 1.363 . S
C2383 C2389 1.363 . S
C2384 C2385 1.363 . S
C2384 C2389 1.379 . S
C2384 N2391 1.356 . S
C2385 C2384 1.363 . S
C2385 C2388 1.363 . S
N2386 C2388 1.356 . S
N2386 H2398 0.984 . S
N2386 H2399 0.985 . S
N2387 C2389 1.356 . S
N2387 H2392 0.984 . S
N2387 H2393 0.985 . S
C2388 C2382 1.379 . S
C2388 C2385 1.363 . S
C2388 N2386 1.356 . S
C2389 C2383 1.363 . S
C2389 C2384 1.379 . S
C2389 N2387 1.356 . S
N2390 C2382 1.356 . S
N2390 H2396 0.984 . S
N2390 H2397 0.984 . S
N2391 C2384 1.356 . S
N2391 H2394 0.984 . S
N2391 H2395 0.985 . S
H2392 N2387 0.984 . S
H2393 N2387 0.985 . S
H2394 N2391 0.984 . S
H2395 N2391 0.985 . S
H2396 N2390 0.984 . S
H2397 N2390 0.984 . S
H2398 N2386 0.984 . S
H2399 N2386 0.985 . S
C673 C137 1.685 . S
C675 C11 1.685 . S
C691 C151 1.685 . S
C693 C25 1.685 . S
C709 C165 1.685 . S
C711 C39 1.685 . S
C727 C53 1.685 . S
C729 C123 1.685 . S
C745 C221 1.685 . S
C747 C67 1.685 . S
C763 C81 1.685 . S
C765 C179 1.685 . S
C781 C193 1.685 . S
C783 C95 1.685 . S
C799 C207 1.685 . S
C801 C109 1.685 . S
C817 C235 1.685 . S
C819 C263 1.685 . S
C835 C249 1.685 . S
C837 C319 1.685 . S
C853 C277 1.685 . S
C855 C333 1.685 . S
C871 C291 1.685 . S
C873 C305 1.685 . S
C889 C347 1.685 . S
C891 C473 1.685 . S
C907 C487 1.685 . S
C909 C361 1.685 . S
C925 C375 1.685 . S
C927 C501 1.685 . S
C943 C389 1.685 . S
C945 C459 1.685 . S
C961 C557 1.685 . S
C963 C403 1.685 . S
C979 C515 1.685 . S
C981 C417 1.685 . S
C997 C529 1.685 . S
C999 C431 1.685 . S
C1015 C543 1.685 . S
C1017 C445 1.685 . S
C1033 C571 1.685 . S
C1035 C599 1.685 . S
C1051 C585 1.685 . S
C1053 C655 1.685 . S
C1069 C613 1.685 . S
C1071 C669 1.685 . S
C1087 C641 1.685 . S
C1089 C627 1.685 . S
C1105 C120 1.096 . S
C1107 C7 1.310 . S
C1123 C134 1.096 . S
C1125 C21 1.310 . S
C1141 C35 1.310 . S
C1143 C148 1.096 . S
C1159 C49 1.310 . S
C1161 C162 1.096 . S
C1177 C63 1.310 . S
C1179 C176 1.096 . S
C1195 C77 1.310 . S
C1197 C190 1.096 . S
C1213 C91 1.310 . S
C1215 C204 1.096 . S
C1231 C218 1.096 . S
C1233 C105 1.310 . S
C1249 C119 1.310 . S
C1251 C232 1.096 . S
C1267 C330 1.096 . S
C1269 C133 1.310 . S
C1285 C147 1.310 . S
C1287 C302 1.096 . S
C1303 C161 1.310 . S
C1305 C316 1.096 . S
C1321 C175 1.310 . S
C1323 C246 1.096 . S
C1339 C189 1.310 . S
C1341 C260 1.096 . S
C1357 C203 1.310 . S
C1359 C274 1.096 . S
C1375 C288 1.096 . S
C1377 C217 1.310 . S
C1393 C8 1.096 . S
C1395 C231 1.310 . S
C1411 C245 1.310 . S
C1413 C64 1.096 . S
C1429 C259 1.310 . S
C1431 C78 1.096 . S
C1447 C273 1.310 . S
C1449 C92 1.096 . S
C1465 C106 1.096 . S
C1467 C287 1.310 . S
C1483 C301 1.310 . S
C1485 C36 1.096 . S
C1501 C315 1.310 . S
C1503 C50 1.096 . S
C1519 C22 1.096 . S
C1521 C329 1.310 . S
C1537 C456 1.096 . S
C1539 C343 1.310 . S
C1555 C357 1.310 . S
C1557 C470 1.096 . S
C1573 C371 1.310 . S
C1575 C484 1.096 . S
C1591 C498 1.096 . S
C1593 C385 1.310 . S
C1609 C512 1.096 . S
C1611 C399 1.310 . S
C1627 C413 1.310 . S
C1629 C526 1.096 . S
C1645 C540 1.096 . S
C1647 C427 1.310 . S
C1663 C554 1.096 . S
C1665 C441 1.310 . S
C1681 C455 1.310 . S
C1683 C568 1.096 . S
C1699 C469 1.310 . S
C1701 C666 1.096 . S
C1717 C483 1.310 . S
C1719 C638 1.096 . S
C1735 C652 1.096 . S
C1737 C497 1.310 . S
C1753 C511 1.310 . S
C1755 C582 1.096 . S
C1771 C525 1.310 . S
C1773 C596 1.096 . S
C1789 C610 1.096 . S
C1791 C539 1.310 . S
C1807 C624 1.096 . S
C1809 C553 1.310 . S
C1825 C567 1.310 . S
C1827 C344 1.096 . S
C1843 C581 1.310 . S
C1845 C400 1.096 . S
C1861 C414 1.096 . S
C1863 C595 1.310 . S
C1879 C609 1.310 . S
C1881 C428 1.096 . S
C1897 C623 1.310 . S
C1899 C442 1.096 . S
C1915 C372 1.096 . S
C1917 C637 1.310 . S
C1933 C651 1.310 . S
C1935 C386 1.096 . S
C1951 C358 1.096 . S
C1953 C665 1.310 . S
C1969 C447 1.312 . S
C1971 C13 1.312 . S
C1987 C27 1.312 . S
C1989 C405 1.312 . S
C2005 C419 1.312 . S
C2007 C41 1.312 . S
C2023 C433 1.312 . S
C2025 C55 1.312 . S
C2041 C69 1.312 . S
C2043 C363 1.312 . S
C2059 C377 1.312 . S
C2061 C83 1.312 . S
C2077 C391 1.312 . S
C2079 C97 1.312 . S
C2095 C111 1.312 . S
C2097 C349 1.312 . S
C2113 C629 1.312 . S
C2115 C125 1.312 . S
C2131 C139 1.312 . S
C2133 C587 1.312 . S
C2149 C153 1.312 . S
C2151 C601 1.312 . S
C2167 C615 1.312 . S
C2169 C167 1.312 . S
C2185 C671 1.312 . S
C2187 C181 1.312 . S
C2203 C643 1.312 . S
C2205 C195 1.312 . S
C2221 C209 1.312 . S
C2223 C657 1.312 . S
C2239 C573 1.312 . S
C2241 C223 1.312 . S
C2257 C237 1.312 . S
C2259 C559 1.312 . S
C2275 C475 1.312 . S
C2277 C251 1.312 . S
C2293 C265 1.312 . S
C2295 C489 1.312 . S
C2311 C503 1.312 . S
C2313 C279 1.312 . S
C2329 C461 1.312 . S
C2331 C293 1.312 . S
C2347 C307 1.312 . S
C2349 C531 1.312 . S
C2365 C545 1.312 . S
C2367 C321 1.312 . S
C2383 C517 1.312 . S
C2385 C335 1.312 . S
