# Generated by pormake.
# Topology nfb, (4)-cn, num edge types: 1
# Building blocks:
#     Node 0, Type 0, BuildingBlock: CEKHIL_clean_sbu_0, # of connection points: 4
#     Node 1, Type 0, BuildingBlock: CEKHIL_clean_sbu_0, # of connection points: 4
#     Node 2, Type 0, BuildingBlock: CEKHIL_clean_sbu_0, # of connection points: 4
#     Node 3, Type 0, BuildingBlock: CEKHIL_clean_sbu_0, # of connection points: 4
#     Node 4, Type 0, BuildingBlock: CEKHIL_clean_sbu_0, # of connection points: 4
#     Node 5, Type 0, BuildingBlock: CEKHIL_clean_sbu_0, # of connection points: 4
#     Node 6, Type 0, BuildingBlock: CEKHIL_clean_sbu_0, # of connection points: 4
#     Node 7, Type 0, BuildingBlock: CEKHIL_clean_sbu_0, # of connection points: 4
#     Node 8, Type 0, BuildingBlock: CEKHIL_clean_sbu_0, # of connection points: 4
#     Node 9, Type 0, BuildingBlock: CEKHIL_clean_sbu_0, # of connection points: 4
#     Node 10, Type 0, BuildingBlock: CEKHIL_clean_sbu_0, # of connection points: 4
#     Node 11, Type 0, BuildingBlock: CEKHIL_clean_sbu_0, # of connection points: 4
#     Node 12, Type 0, BuildingBlock: CEKHIL_clean_sbu_0, # of connection points: 4
#     Node 13, Type 0, BuildingBlock: CEKHIL_clean_sbu_0, # of connection points: 4
#     Node 14, Type 0, BuildingBlock: CEKHIL_clean_sbu_0, # of connection points: 4
#     Node 15, Type 0, BuildingBlock: CEKHIL_clean_sbu_0, # of connection points: 4
#     Node 16, Type 0, BuildingBlock: CEKHIL_clean_sbu_0, # of connection points: 4
#     Node 17, Type 0, BuildingBlock: CEKHIL_clean_sbu_0, # of connection points: 4
#     Node 18, Type 0, BuildingBlock: CEKHIL_clean_sbu_0, # of connection points: 4
#     Node 19, Type 0, BuildingBlock: CEKHIL_clean_sbu_0, # of connection points: 4
#     Node 20, Type 0, BuildingBlock: CEKHIL_clean_sbu_0, # of connection points: 4
#     Node 21, Type 0, BuildingBlock: CEKHIL_clean_sbu_0, # of connection points: 4
#     Node 22, Type 0, BuildingBlock: CEKHIL_clean_sbu_0, # of connection points: 4
#     Node 23, Type 0, BuildingBlock: CEKHIL_clean_sbu_0, # of connection points: 4
#     Node 24, Type 0, BuildingBlock: CEKHIL_clean_sbu_0, # of connection points: 4
#     Node 25, Type 0, BuildingBlock: CEKHIL_clean_sbu_0, # of connection points: 4
#     Node 26, Type 0, BuildingBlock: CEKHIL_clean_sbu_0, # of connection points: 4
#     Node 27, Type 0, BuildingBlock: CEKHIL_clean_sbu_0, # of connection points: 4
#     Node 28, Type 0, BuildingBlock: CEKHIL_clean_sbu_0, # of connection points: 4
#     Node 29, Type 0, BuildingBlock: CEKHIL_clean_sbu_0, # of connection points: 4
#     Node 30, Type 0, BuildingBlock: CEKHIL_clean_sbu_0, # of connection points: 4
#     Node 31, Type 0, BuildingBlock: CEKHIL_clean_sbu_0, # of connection points: 4
#     Node 32, Type 0, BuildingBlock: CEKHIL_clean_sbu_0, # of connection points: 4
#     Node 33, Type 0, BuildingBlock: CEKHIL_clean_sbu_0, # of connection points: 4
#     Node 34, Type 0, BuildingBlock: CEKHIL_clean_sbu_0, # of connection points: 4
#     Node 35, Type 0, BuildingBlock: CEKHIL_clean_sbu_0, # of connection points: 4
#     Node 36, Type 0, BuildingBlock: CEKHIL_clean_sbu_0, # of connection points: 4
#     Node 37, Type 0, BuildingBlock: CEKHIL_clean_sbu_0, # of connection points: 4
#     Node 38, Type 0, BuildingBlock: CEKHIL_clean_sbu_0, # of connection points: 4
#     Node 39, Type 0, BuildingBlock: CEKHIL_clean_sbu_0, # of connection points: 4
#     Node 40, Type 0, BuildingBlock: CEKHIL_clean_sbu_0, # of connection points: 4
#     Node 41, Type 0, BuildingBlock: CEKHIL_clean_sbu_0, # of connection points: 4
#     Node 42, Type 0, BuildingBlock: CEKHIL_clean_sbu_0, # of connection points: 4
#     Node 43, Type 0, BuildingBlock: CEKHIL_clean_sbu_0, # of connection points: 4
#     Node 44, Type 0, BuildingBlock: CEKHIL_clean_sbu_0, # of connection points: 4
#     Node 45, Type 0, BuildingBlock: CEKHIL_clean_sbu_0, # of connection points: 4
#     Node 46, Type 0, BuildingBlock: CEKHIL_clean_sbu_0, # of connection points: 4
#     Node 47, Type 0, BuildingBlock: CEKHIL_clean_sbu_0, # of connection points: 4
#     Edge 48, Type (0, 0), BuildingBlock: UVAHIK_clean_linker_0, # of connection points: 2
#     Edge 49, Type (0, 0), BuildingBlock: UVAHIK_clean_linker_0, # of connection points: 2
#     Edge 50, Type (0, 0), BuildingBlock: UVAHIK_clean_linker_0, # of connection points: 2
#     Edge 51, Type (0, 0), BuildingBlock: UVAHIK_clean_linker_0, # of connection points: 2
#     Edge 52, Type (0, 0), BuildingBlock: UVAHIK_clean_linker_0, # of connection points: 2
#     Edge 53, Type (0, 0), BuildingBlock: UVAHIK_clean_linker_0, # of connection points: 2
#     Edge 54, Type (0, 0), BuildingBlock: UVAHIK_clean_linker_0, # of connection points: 2
#     Edge 55, Type (0, 0), BuildingBlock: UVAHIK_clean_linker_0, # of connection points: 2
#     Edge 56, Type (0, 0), BuildingBlock: UVAHIK_clean_linker_0, # of connection points: 2
#     Edge 57, Type (0, 0), BuildingBlock: UVAHIK_clean_linker_0, # of connection points: 2
#     Edge 58, Type (0, 0), BuildingBlock: UVAHIK_clean_linker_0, # of connection points: 2
#     Edge 59, Type (0, 0), BuildingBlock: UVAHIK_clean_linker_0, # of connection points: 2
#     Edge 60, Type (0, 0), BuildingBlock: UVAHIK_clean_linker_0, # of connection points: 2
#     Edge 61, Type (0, 0), BuildingBlock: UVAHIK_clean_linker_0, # of connection points: 2
#     Edge 62, Type (0, 0), BuildingBlock: UVAHIK_clean_linker_0, # of connection points: 2
#     Edge 63, Type (0, 0), BuildingBlock: UVAHIK_clean_linker_0, # of connection points: 2
#     Edge 64, Type (0, 0), BuildingBlock: UVAHIK_clean_linker_0, # of connection points: 2
#     Edge 65, Type (0, 0), BuildingBlock: UVAHIK_clean_linker_0, # of connection points: 2
#     Edge 66, Type (0, 0), BuildingBlock: UVAHIK_clean_linker_0, # of connection points: 2
#     Edge 67, Type (0, 0), BuildingBlock: UVAHIK_clean_linker_0, # of connection points: 2
#     Edge 68, Type (0, 0), BuildingBlock: UVAHIK_clean_linker_0, # of connection points: 2
#     Edge 69, Type (0, 0), BuildingBlock: UVAHIK_clean_linker_0, # of connection points: 2
#     Edge 70, Type (0, 0), BuildingBlock: UVAHIK_clean_linker_0, # of connection points: 2
#     Edge 71, Type (0, 0), BuildingBlock: UVAHIK_clean_linker_0, # of connection points: 2
#     Edge 72, Type (0, 0), BuildingBlock: UVAHIK_clean_linker_0, # of connection points: 2
#     Edge 73, Type (0, 0), BuildingBlock: UVAHIK_clean_linker_0, # of connection points: 2
#     Edge 74, Type (0, 0), BuildingBlock: UVAHIK_clean_linker_0, # of connection points: 2
#     Edge 75, Type (0, 0), BuildingBlock: UVAHIK_clean_linker_0, # of connection points: 2
#     Edge 76, Type (0, 0), BuildingBlock: UVAHIK_clean_linker_0, # of connection points: 2
#     Edge 77, Type (0, 0), BuildingBlock: UVAHIK_clean_linker_0, # of connection points: 2
#     Edge 78, Type (0, 0), BuildingBlock: UVAHIK_clean_linker_0, # of connection points: 2
#     Edge 79, Type (0, 0), BuildingBlock: UVAHIK_clean_linker_0, # of connection points: 2
#     Edge 80, Type (0, 0), BuildingBlock: UVAHIK_clean_linker_0, # of connection points: 2
#     Edge 81, Type (0, 0), BuildingBlock: UVAHIK_clean_linker_0, # of connection points: 2
#     Edge 82, Type (0, 0), BuildingBlock: UVAHIK_clean_linker_0, # of connection points: 2
#     Edge 83, Type (0, 0), BuildingBlock: UVAHIK_clean_linker_0, # of connection points: 2
#     Edge 84, Type (0, 0), BuildingBlock: UVAHIK_clean_linker_0, # of connection points: 2
#     Edge 85, Type (0, 0), BuildingBlock: UVAHIK_clean_linker_0, # of connection points: 2
#     Edge 86, Type (0, 0), BuildingBlock: UVAHIK_clean_linker_0, # of connection points: 2
#     Edge 87, Type (0, 0), BuildingBlock: UVAHIK_clean_linker_0, # of connection points: 2
#     Edge 88, Type (0, 0), BuildingBlock: UVAHIK_clean_linker_0, # of connection points: 2
#     Edge 89, Type (0, 0), BuildingBlock: UVAHIK_clean_linker_0, # of connection points: 2
#     Edge 90, Type (0, 0), BuildingBlock: UVAHIK_clean_linker_0, # of connection points: 2
#     Edge 91, Type (0, 0), BuildingBlock: UVAHIK_clean_linker_0, # of connection points: 2
#     Edge 92, Type (0, 0), BuildingBlock: UVAHIK_clean_linker_0, # of connection points: 2
#     Edge 93, Type (0, 0), BuildingBlock: UVAHIK_clean_linker_0, # of connection points: 2
#     Edge 94, Type (0, 0), BuildingBlock: UVAHIK_clean_linker_0, # of connection points: 2
#     Edge 95, Type (0, 0), BuildingBlock: UVAHIK_clean_linker_0, # of connection points: 2
#     Edge 96, Type (0, 0), BuildingBlock: UVAHIK_clean_linker_0, # of connection points: 2
#     Edge 97, Type (0, 0), BuildingBlock: UVAHIK_clean_linker_0, # of connection points: 2
#     Edge 98, Type (0, 0), BuildingBlock: UVAHIK_clean_linker_0, # of connection points: 2
#     Edge 99, Type (0, 0), BuildingBlock: UVAHIK_clean_linker_0, # of connection points: 2
#     Edge 100, Type (0, 0), BuildingBlock: UVAHIK_clean_linker_0, # of connection points: 2
#     Edge 101, Type (0, 0), BuildingBlock: UVAHIK_clean_linker_0, # of connection points: 2
#     Edge 102, Type (0, 0), BuildingBlock: UVAHIK_clean_linker_0, # of connection points: 2
#     Edge 103, Type (0, 0), BuildingBlock: UVAHIK_clean_linker_0, # of connection points: 2
#     Edge 104, Type (0, 0), BuildingBlock: UVAHIK_clean_linker_0, # of connection points: 2
#     Edge 105, Type (0, 0), BuildingBlock: UVAHIK_clean_linker_0, # of connection points: 2
#     Edge 106, Type (0, 0), BuildingBlock: UVAHIK_clean_linker_0, # of connection points: 2
#     Edge 107, Type (0, 0), BuildingBlock: UVAHIK_clean_linker_0, # of connection points: 2
#     Edge 108, Type (0, 0), BuildingBlock: UVAHIK_clean_linker_0, # of connection points: 2
#     Edge 109, Type (0, 0), BuildingBlock: UVAHIK_clean_linker_0, # of connection points: 2
#     Edge 110, Type (0, 0), BuildingBlock: UVAHIK_clean_linker_0, # of connection points: 2
#     Edge 111, Type (0, 0), BuildingBlock: UVAHIK_clean_linker_0, # of connection points: 2
#     Edge 112, Type (0, 0), BuildingBlock: UVAHIK_clean_linker_0, # of connection points: 2
#     Edge 113, Type (0, 0), BuildingBlock: UVAHIK_clean_linker_0, # of connection points: 2
#     Edge 114, Type (0, 0), BuildingBlock: UVAHIK_clean_linker_0, # of connection points: 2
#     Edge 115, Type (0, 0), BuildingBlock: UVAHIK_clean_linker_0, # of connection points: 2
#     Edge 116, Type (0, 0), BuildingBlock: UVAHIK_clean_linker_0, # of connection points: 2
#     Edge 117, Type (0, 0), BuildingBlock: UVAHIK_clean_linker_0, # of connection points: 2
#     Edge 118, Type (0, 0), BuildingBlock: UVAHIK_clean_linker_0, # of connection points: 2
#     Edge 119, Type (0, 0), BuildingBlock: UVAHIK_clean_linker_0, # of connection points: 2
#     Edge 120, Type (0, 0), BuildingBlock: UVAHIK_clean_linker_0, # of connection points: 2
#     Edge 121, Type (0, 0), BuildingBlock: UVAHIK_clean_linker_0, # of connection points: 2
#     Edge 122, Type (0, 0), BuildingBlock: UVAHIK_clean_linker_0, # of connection points: 2
#     Edge 123, Type (0, 0), BuildingBlock: UVAHIK_clean_linker_0, # of connection points: 2
#     Edge 124, Type (0, 0), BuildingBlock: UVAHIK_clean_linker_0, # of connection points: 2
#     Edge 125, Type (0, 0), BuildingBlock: UVAHIK_clean_linker_0, # of connection points: 2
#     Edge 126, Type (0, 0), BuildingBlock: UVAHIK_clean_linker_0, # of connection points: 2
#     Edge 127, Type (0, 0), BuildingBlock: UVAHIK_clean_linker_0, # of connection points: 2
#     Edge 128, Type (0, 0), BuildingBlock: UVAHIK_clean_linker_0, # of connection points: 2
#     Edge 129, Type (0, 0), BuildingBlock: UVAHIK_clean_linker_0, # of connection points: 2
#     Edge 130, Type (0, 0), BuildingBlock: UVAHIK_clean_linker_0, # of connection points: 2
#     Edge 131, Type (0, 0), BuildingBlock: UVAHIK_clean_linker_0, # of connection points: 2
#     Edge 132, Type (0, 0), BuildingBlock: UVAHIK_clean_linker_0, # of connection points: 2
#     Edge 133, Type (0, 0), BuildingBlock: UVAHIK_clean_linker_0, # of connection points: 2
#     Edge 134, Type (0, 0), BuildingBlock: UVAHIK_clean_linker_0, # of connection points: 2
#     Edge 135, Type (0, 0), BuildingBlock: UVAHIK_clean_linker_0, # of connection points: 2
#     Edge 136, Type (0, 0), BuildingBlock: UVAHIK_clean_linker_0, # of connection points: 2
#     Edge 137, Type (0, 0), BuildingBlock: UVAHIK_clean_linker_0, # of connection points: 2
#     Edge 138, Type (0, 0), BuildingBlock: UVAHIK_clean_linker_0, # of connection points: 2
#     Edge 139, Type (0, 0), BuildingBlock: UVAHIK_clean_linker_0, # of connection points: 2
#     Edge 140, Type (0, 0), BuildingBlock: UVAHIK_clean_linker_0, # of connection points: 2
#     Edge 141, Type (0, 0), BuildingBlock: UVAHIK_clean_linker_0, # of connection points: 2
#     Edge 142, Type (0, 0), BuildingBlock: UVAHIK_clean_linker_0, # of connection points: 2
#     Edge 143, Type (0, 0), BuildingBlock: UVAHIK_clean_linker_0, # of connection points: 2
# Relax obj value: 0.261
# Max RMSD: 0.067
# Mean RMSD: 0.060
data_MOF--net-nfb--node1-CEKHIL_clean_sbu_0--edge1-UVAHIK_clean_linker_0
_symmetry_space_group_name_H-M    P1
_symmetry_Int_Tables_number       1
_symmetry_cell_setting            triclinic
loop_
_symmetry_equiv_pos_as_xyz
'x, y, z'
_cell_length_a     76.70251
_cell_length_b     76.707061
_cell_length_c     76.741398
_cell_angle_alpha  90.032199
_cell_angle_beta   90.294128
_cell_angle_gamma 90.568149
loop_
_atom_site_label
_atom_site_type_symbol
_atom_site_fract_x
_atom_site_fract_y
_atom_site_fract_z
_atom_type_partial_charge
Co0 Co 0.13159 0.13573 0.39616 0.0
O1 O 0.15481 0.14001 0.40483 0.0
O2 O 0.1481 0.11839 0.38715 0.0
C3 C 0.12738 0.16398 0.38902 0.0
O4 O 0.10805 0.12817 0.38478 0.0
Co5 Co 0.10084 0.15484 0.41431 0.0
O6 O 0.08848 0.14849 0.39256 0.0
C7 C 0.11606 0.12314 0.43033 0.0
C8 C 0.16012 0.12685 0.39591 0.0
C9 C 0.0928 0.13531 0.38353 0.0
O10 O 0.12624 0.12092 0.41723 0.0
O11 O 0.10592 0.13623 0.43187 0.0
O12 O 0.13516 0.15362 0.37825 0.0
O13 O 0.12342 0.15725 0.40386 0.0
Co14 Co 0.38592 0.61536 0.89793 0.0
O15 O 0.38502 0.59025 0.89774 0.0
O16 O 0.38769 0.60628 0.87403 0.0
C17 C 0.40536 0.61687 0.91993 0.0
O18 O 0.38764 0.64215 0.89419 0.0
Co19 Co 0.37417 0.63423 0.93187 0.0
O20 O 0.38631 0.65426 0.92097 0.0
C21 C 0.34767 0.62046 0.90719 0.0
C22 C 0.38669 0.59081 0.88105 0.0
C23 C 0.38898 0.65543 0.90463 0.0
O24 O 0.35962 0.61618 0.89627 0.0
O25 O 0.35096 0.62669 0.92235 0.0
O26 O 0.41082 0.61489 0.90409 0.0
O27 O 0.38873 0.61656 0.92201 0.0
Co28 Co 0.86969 0.87311 0.40207 0.0
O29 O 0.84644 0.86891 0.41044 0.0
O30 O 0.85291 0.88935 0.39143 0.0
C31 C 0.87477 0.84458 0.39699 0.0
O32 O 0.89315 0.88032 0.39056 0.0
Co33 Co 0.90046 0.8563 0.42253 0.0
O34 O 0.91365 0.86221 0.40129 0.0
C35 C 0.88437 0.88878 0.43557 0.0
C36 C 0.84096 0.88128 0.40051 0.0
C37 C 0.90878 0.87397 0.39067 0.0
O38 O 0.87431 0.88962 0.42212 0.0
O39 O 0.89481 0.87615 0.43843 0.0
O40 O 0.86699 0.85401 0.38533 0.0
O41 O 0.87818 0.85233 0.41154 0.0
Co42 Co 0.62524 0.39109 0.90049 0.0
O43 O 0.62745 0.41601 0.90222 0.0
O44 O 0.62462 0.4021 0.87725 0.0
C45 C 0.60494 0.38898 0.92149 0.0
O46 O 0.62246 0.36468 0.89491 0.0
Co47 Co 0.63535 0.36984 0.93357 0.0
O48 O 0.62284 0.35099 0.92096 0.0
C49 C 0.66302 0.3842 0.91099 0.0
C50 C 0.62633 0.41693 0.88548 0.0
C51 C 0.62047 0.35087 0.90451 0.0
O52 O 0.65149 0.38918 0.89981 0.0
O53 O 0.65911 0.37738 0.9257 0.0
O54 O 0.60023 0.39236 0.90561 0.0
O55 O 0.62148 0.38847 0.92433 0.0
Co56 Co 0.12221 0.88402 0.60356 0.0
O57 O 0.09716 0.88322 0.60175 0.0
O58 O 0.11135 0.88567 0.62669 0.0
C59 C 0.12528 0.90348 0.58169 0.0
O60 O 0.14865 0.88592 0.60941 0.0
Co61 Co 0.14369 0.87221 0.5711 0.0
O62 O 0.16262 0.88467 0.58359 0.0
C63 C 0.12814 0.84576 0.59454 0.0
C64 C 0.09644 0.88502 0.61845 0.0
C65 C 0.16259 0.88741 0.59997 0.0
O66 O 0.12305 0.8577 0.60515 0.0
O67 O 0.13547 0.84904 0.57993 0.0
O68 O 0.12178 0.90889 0.59731 0.0
O69 O 0.12543 0.88683 0.5797 0.0
Co70 Co 0.63455 0.63329 0.10917 0.0
O71 O 0.63866 0.65668 0.10083 0.0
O72 O 0.61794 0.6497 0.11941 0.0
C73 C 0.66292 0.62813 0.1151 0.0
O74 O 0.62707 0.60972 0.12037 0.0
Co75 Co 0.65197 0.6024 0.08938 0.0
O76 O 0.6455 0.5892 0.11049 0.0
C77 C 0.61999 0.61878 0.07515 0.0
C78 C 0.62591 0.66179 0.11044 0.0
C79 C 0.63331 0.59404 0.12053 0.0
O80 O 0.6186 0.62862 0.08866 0.0
O81 O 0.63276 0.60843 0.07271 0.0
O82 O 0.65335 0.63619 0.12638 0.0
O83 O 0.65547 0.62468 0.1004 0.0
Co84 Co 0.89033 0.11813 0.60942 0.0
O85 O 0.91542 0.11964 0.60857 0.0
O86 O 0.90051 0.1173 0.63297 0.0
C87 C 0.88845 0.09796 0.58816 0.0
O88 O 0.8638 0.1158 0.61441 0.0
Co89 Co 0.8692 0.12795 0.57605 0.0
O90 O 0.85026 0.11537 0.58822 0.0
C91 C 0.8825 0.15574 0.59956 0.0
C92 C 0.91564 0.11838 0.62532 0.0
C93 C 0.85004 0.11351 0.60471 0.0
O94 O 0.88879 0.14443 0.61023 0.0
O95 O 0.87502 0.15177 0.58512 0.0
O96 O 0.89129 0.0931 0.6041 0.0
O97 O 0.88808 0.11451 0.58546 0.0
Co98 Co 0.37298 0.37478 0.10792 0.0
O99 O 0.36914 0.3514 0.09943 0.0
O100 O 0.39039 0.35867 0.1175 0.0
C101 C 0.34464 0.37879 0.11464 0.0
O102 O 0.38027 0.39843 0.11914 0.0
Co103 Co 0.35382 0.40529 0.08922 0.0
O104 O 0.36078 0.41848 0.11026 0.0
C105 C 0.3856 0.38998 0.07363 0.0
C106 C 0.38232 0.34648 0.10866 0.0
C107 C 0.37359 0.4139 0.11976 0.0
O108 O 0.38792 0.38008 0.08698 0.0
O109 O 0.37241 0.39995 0.07179 0.0
O110 O 0.35499 0.37118 0.12563 0.0
O111 O 0.35143 0.38271 0.09982 0.0
Co112 Co 0.39162 0.12937 0.12932 0.0
O113 O 0.40056 0.15262 0.13325 0.0
O114 O 0.38164 0.14596 0.11255 0.0
C115 C 0.38592 0.12458 0.15779 0.0
O116 O 0.37978 0.10596 0.12201 0.0
Co117 Co 0.41034 0.09804 0.14687 0.0
O118 O 0.38827 0.08574 0.14153 0.0
C119 C 0.42453 0.11361 0.11446 0.0
C120 C 0.39097 0.15791 0.12047 0.0
C121 C 0.37869 0.09053 0.12887 0.0
O122 O 0.41188 0.12446 0.11352 0.0
O123 O 0.42648 0.10265 0.12688 0.0
O124 O 0.37467 0.13251 0.14798 0.0
O125 O 0.40045 0.12074 0.1504 0.0
Co126 Co 0.38573 0.90417 0.62491 0.0
O127 O 0.41023 0.909 0.62751 0.0
O128 O 0.3996 0.88275 0.62256 0.0
C129 C 0.38118 0.92652 0.60635 0.0
O130 O 0.3603 0.89534 0.62116 0.0
Co131 Co 0.35998 0.93292 0.63727 0.0
O132 O 0.34337 0.91923 0.62296 0.0
C133 C 0.37635 0.90968 0.66316 0.0
C134 C 0.41332 0.89271 0.62486 0.0
C135 C 0.34546 0.90318 0.61939 0.0
O136 O 0.38369 0.90089 0.65096 0.0
O137 O 0.36713 0.92324 0.66043 0.0
O138 O 0.3868 0.91172 0.60055 0.0
O139 O 0.37988 0.92769 0.62306 0.0
Co140 Co 0.61325 0.87735 0.13078 0.0
O141 O 0.60512 0.85368 0.1338 0.0
O142 O 0.6239 0.86169 0.11364 0.0
C143 C 0.61873 0.88145 0.15946 0.0
O144 O 0.62431 0.90139 0.12448 0.0
Co145 Co 0.59316 0.90724 0.14923 0.0
O146 O 0.61476 0.92055 0.14449 0.0
C147 C 0.57914 0.89151 0.11663 0.0
C148 C 0.61498 0.84917 0.12102 0.0
C149 C 0.62472 0.91661 0.13191 0.0
O150 O 0.59278 0.88202 0.11491 0.0
O151 O 0.5766 0.90154 0.12971 0.0
O152 O 0.63029 0.87421 0.14958 0.0
O153 O 0.60409 0.88494 0.15199 0.0
Co154 Co 0.62517 0.10374 0.62318 0.0
O155 O 0.60014 0.10136 0.62268 0.0
O156 O 0.61395 0.12663 0.62108 0.0
C157 C 0.62967 0.082 0.60393 0.0
O158 O 0.65155 0.11015 0.62253 0.0
Co159 Co 0.6465 0.07176 0.63658 0.0
O160 O 0.66588 0.08467 0.62543 0.0
C161 C 0.62908 0.09472 0.66182 0.0
C162 C 0.59916 0.11806 0.62099 0.0
C163 C 0.66567 0.10094 0.62213 0.0
O164 O 0.62494 0.10539 0.64952 0.0
O165 O 0.63649 0.0801 0.65907 0.0
O166 O 0.62589 0.09749 0.59832 0.0
O167 O 0.62904 0.07999 0.62057 0.0
Co168 Co 0.40247 0.88018 0.88321 0.0
O169 O 0.40628 0.90503 0.88279 0.0
O170 O 0.38045 0.89278 0.8863 0.0
C171 C 0.42509 0.87509 0.90138 0.0
O172 O 0.39457 0.85424 0.88506 0.0
Co173 Co 0.43197 0.85622 0.86911 0.0
O174 O 0.41899 0.83824 0.88225 0.0
C175 C 0.40802 0.8734 0.84439 0.0
C176 C 0.38983 0.90704 0.88548 0.0
C177 C 0.4029 0.8396 0.88595 0.0
O178 O 0.39918 0.87986 0.85703 0.0
O179 O 0.4218 0.86435 0.84651 0.0
O180 O 0.41014 0.87974 0.90764 0.0
O181 O 0.42616 0.87503 0.88463 0.0
Co182 Co 0.62398 0.89362 0.3743 0.0
O183 O 0.64708 0.90253 0.36985 0.0
O184 O 0.64097 0.88457 0.39132 0.0
C185 C 0.61907 0.88683 0.34602 0.0
O186 O 0.60077 0.88186 0.38212 0.0
Co187 Co 0.59229 0.91127 0.35634 0.0
O188 O 0.58043 0.88912 0.36217 0.0
C189 C 0.60775 0.92671 0.38841 0.0
C190 C 0.65276 0.89351 0.38285 0.0
C191 C 0.58535 0.88019 0.37521 0.0
O192 O 0.61898 0.9144 0.3895 0.0
O193 O 0.59658 0.92801 0.37603 0.0
O194 O 0.62711 0.87601 0.35619 0.0
O195 O 0.61509 0.90157 0.35298 0.0
Co196 Co 0.60321 0.12695 0.88058 0.0
O197 O 0.59918 0.10212 0.88028 0.0
O198 O 0.6253 0.11413 0.88235 0.0
C199 C 0.58189 0.13227 0.90001 0.0
O200 O 0.61136 0.15283 0.88207 0.0
Co201 Co 0.57277 0.15087 0.86807 0.0
O202 O 0.58691 0.16897 0.88001 0.0
C203 C 0.59441 0.13277 0.84213 0.0
C204 C 0.61576 0.09995 0.88199 0.0
C205 C 0.60317 0.16753 0.8831 0.0
O206 O 0.60471 0.1273 0.85425 0.0
O207 O 0.58046 0.14125 0.84516 0.0
O208 O 0.59715 0.12741 0.90544 0.0
O209 O 0.57976 0.13228 0.88335 0.0
Co210 Co 0.37694 0.11189 0.37249 0.0
O211 O 0.35362 0.10373 0.3676 0.0
O212 O 0.36009 0.12158 0.38915 0.0
C213 C 0.38254 0.11839 0.34433 0.0
O214 O 0.40046 0.1229 0.38063 0.0
Co215 Co 0.40777 0.0923 0.35517 0.0
O216 O 0.42107 0.11335 0.3621 0.0
C217 C 0.39063 0.07748 0.38645 0.0
C218 C 0.34812 0.11292 0.38051 0.0
C219 C 0.41619 0.1232 0.37446 0.0
O220 O 0.38097 0.09102 0.38789 0.0
O221 O 0.40129 0.0752 0.37387 0.0
O222 O 0.37467 0.12953 0.35423 0.0
O223 O 0.38574 0.10353 0.35142 0.0
Co224 Co 0.13152 0.39934 0.13172 0.0
O225 O 0.13691 0.40796 0.15468 0.0
O226 O 0.11423 0.39117 0.14894 0.0
C227 C 0.15915 0.39085 0.1265 0.0
O228 O 0.1228 0.38813 0.10855 0.0
Co229 Co 0.15062 0.417 0.10038 0.0
O230 O 0.14215 0.39609 0.08782 0.0
C231 C 0.11999 0.43397 0.11635 0.0
C232 C 0.12346 0.39968 0.16055 0.0
C233 C 0.12907 0.38713 0.09288 0.0
O234 O 0.11756 0.42092 0.12664 0.0
O235 O 0.13289 0.4352 0.10587 0.0
O236 O 0.14849 0.38066 0.13485 0.0
O237 O 0.15318 0.40604 0.12275 0.0
Co238 Co 0.12708 0.60814 0.8859 0.0
O239 O 0.13016 0.60544 0.91063 0.0
O240 O 0.12763 0.63094 0.89775 0.0
C241 C 0.10607 0.58754 0.88376 0.0
O242 O 0.12348 0.61492 0.85996 0.0
Co243 Co 0.13507 0.57583 0.86257 0.0
O244 O 0.12248 0.58961 0.84487 0.0
C245 C 0.16408 0.59724 0.87676 0.0
C246 C 0.12957 0.62217 0.91219 0.0
C247 C 0.12071 0.60608 0.84577 0.0
O248 O 0.15324 0.60843 0.88285 0.0
O249 O 0.15933 0.58297 0.86939 0.0
O250 O 0.10199 0.6033 0.88817 0.0
O251 O 0.12246 0.58451 0.8823 0.0
Co252 Co 0.90056 0.62287 0.38541 0.0
O253 O 0.90402 0.62402 0.41026 0.0
O254 O 0.87841 0.61943 0.39788 0.0
C255 C 0.92351 0.60521 0.38105 0.0
O256 O 0.89302 0.62021 0.35948 0.0
Co257 Co 0.93036 0.63691 0.3613 0.0
O258 O 0.91766 0.62297 0.34364 0.0
C259 C 0.90569 0.66154 0.37736 0.0
C260 C 0.88759 0.62083 0.41218 0.0
C261 C 0.90154 0.6191 0.34494 0.0
O262 O 0.89693 0.64895 0.38432 0.0
O263 O 0.91961 0.65942 0.36851 0.0
O264 O 0.90859 0.59863 0.3857 0.0
O265 O 0.92433 0.62198 0.38052 0.0
Co266 Co 0.88304 0.40335 0.8799 0.0
O267 O 0.8812 0.408 0.90442 0.0
O268 O 0.88481 0.3817 0.89358 0.0
C269 C 0.90229 0.42523 0.87493 0.0
O270 O 0.88557 0.39458 0.85449 0.0
Co271 Co 0.87085 0.4328 0.85457 0.0
O272 O 0.88193 0.41795 0.83687 0.0
C273 C 0.84471 0.41089 0.87261 0.0
C274 C 0.88297 0.39154 0.90732 0.0
C275 C 0.88572 0.402 0.83928 0.0
O276 O 0.85682 0.40088 0.87841 0.0
O277 O 0.84778 0.42489 0.86402 0.0
O278 O 0.90774 0.41025 0.88049 0.0
O279 O 0.88561 0.42679 0.87398 0.0
Co280 Co 0.11432 0.37822 0.37782 0.0
O281 O 0.10543 0.3735 0.35478 0.0
O282 O 0.12308 0.39544 0.36079 0.0
C283 C 0.12158 0.35017 0.38265 0.0
O284 O 0.12595 0.38622 0.4011 0.0
Co285 Co 0.09651 0.35975 0.40927 0.0
O286 O 0.11881 0.36564 0.42085 0.0
C287 C 0.08073 0.39135 0.39388 0.0
C288 C 0.11418 0.38674 0.34907 0.0
C289 C 0.12767 0.37898 0.41631 0.0
O290 O 0.09328 0.39287 0.3829 0.0
O291 O 0.07942 0.37889 0.4049 0.0
O292 O 0.13224 0.36057 0.37454 0.0
O293 O 0.1067 0.35672 0.3866 0.0
Co294 Co 0.88492 0.6071 0.12093 0.0
O295 O 0.88513 0.60481 0.09597 0.0
O296 O 0.88674 0.63008 0.10959 0.0
C297 C 0.90438 0.58571 0.12555 0.0
O298 O 0.88567 0.61318 0.14728 0.0
Co299 Co 0.87152 0.57425 0.14151 0.0
O300 O 0.88117 0.58765 0.16147 0.0
C301 C 0.84658 0.59675 0.12328 0.0
C302 C 0.88668 0.62154 0.09487 0.0
C303 C 0.88507 0.60385 0.16139 0.0
O304 O 0.85858 0.60835 0.12081 0.0
O305 O 0.84954 0.58158 0.1295 0.0
O306 O 0.9099 0.60127 0.12166 0.0
O307 O 0.88776 0.58344 0.12481 0.0
Co308 Co 0.89538 0.37034 0.62605 0.0
O309 O 0.90413 0.36722 0.64938 0.0
O310 O 0.88381 0.38613 0.64243 0.0
C311 C 0.89192 0.34145 0.62131 0.0
O312 O 0.88337 0.37654 0.60259 0.0
Co313 Co 0.91572 0.35453 0.59506 0.0
O314 O 0.89327 0.3574 0.58279 0.0
C315 C 0.92726 0.38817 0.61057 0.0
C316 C 0.89347 0.37906 0.6545 0.0
C317 C 0.88277 0.36929 0.58732 0.0
O318 O 0.91451 0.38793 0.62141 0.0
O319 O 0.9302 0.37597 0.5996 0.0
O320 O 0.87974 0.35029 0.62886 0.0
O321 O 0.90599 0.35005 0.61772 0.0
Co322 Co 0.10327 0.6256 0.6225 0.0
O323 O 0.10002 0.62561 0.59762 0.0
O324 O 0.12577 0.62408 0.61035 0.0
C325 C 0.08182 0.60589 0.62749 0.0
O326 O 0.11056 0.62456 0.64857 0.0
Co327 Co 0.07187 0.63798 0.64522 0.0
O328 O 0.08549 0.62651 0.66381 0.0
C329 C 0.09426 0.66401 0.62763 0.0
C330 C 0.11667 0.62415 0.59593 0.0
C331 C 0.1018 0.62362 0.66298 0.0
O332 O 0.10477 0.65197 0.62271 0.0
O333 O 0.07991 0.66087 0.63554 0.0
O334 O 0.0972 0.60061 0.62304 0.0
O335 O 0.07969 0.62251 0.62722 0.0
Co336 Co 0.87732 0.88308 0.61442 0.0
O337 O 0.85363 0.87856 0.60729 0.0
O338 O 0.86181 0.88113 0.63473 0.0
C339 C 0.88179 0.90467 0.59494 0.0
O340 O 0.90166 0.88783 0.62563 0.0
Co341 Co 0.90611 0.8769 0.58632 0.0
O342 O 0.9206 0.89008 0.60321 0.0
C343 C 0.89015 0.84693 0.6047 0.0
C344 C 0.84925 0.87837 0.62349 0.0
C345 C 0.917 0.89138 0.61934 0.0
O346 O 0.88167 0.85722 0.61474 0.0
O347 O 0.89964 0.8522 0.59203 0.0
O348 O 0.87439 0.90808 0.60971 0.0
O349 O 0.88475 0.88845 0.592 0.0
Co350 Co 0.62912 0.38751 0.11972 0.0
O351 O 0.63029 0.41236 0.11606 0.0
O352 O 0.61162 0.39954 0.13381 0.0
C353 C 0.65799 0.38402 0.12348 0.0
O354 O 0.62523 0.36152 0.12639 0.0
Co355 Co 0.64813 0.36383 0.09262 0.0
O356 O 0.64522 0.3463 0.11121 0.0
C357 C 0.61338 0.37804 0.08436 0.0
C358 C 0.61779 0.41395 0.12712 0.0
C359 C 0.63363 0.3473 0.12297 0.0
O360 O 0.61227 0.38512 0.09951 0.0
O361 O 0.62675 0.36983 0.07895 0.0
O362 O 0.6484 0.38901 0.1364 0.0
O363 O 0.65022 0.38313 0.10856 0.0
Co364 Co 0.13612 0.12787 0.61741 0.0
O365 O 0.15965 0.13198 0.60979 0.0
O366 O 0.15274 0.12613 0.63699 0.0
C367 C 0.12906 0.10957 0.59544 0.0
O368 O 0.11215 0.12289 0.62902 0.0
Co369 Co 0.1066 0.14023 0.59208 0.0
O370 O 0.09176 0.1263 0.60787 0.0
C371 C 0.12551 0.16593 0.61383 0.0
C372 C 0.16486 0.12982 0.62565 0.0
C373 C 0.09621 0.12181 0.62322 0.0
O374 O 0.13358 0.1536 0.6217 0.0
O375 O 0.11501 0.16342 0.60102 0.0
O376 O 0.13709 0.1037 0.60913 0.0
O377 O 0.12715 0.12623 0.59488 0.0
Co378 Co 0.37285 0.61999 0.12141 0.0
O379 O 0.37228 0.59509 0.118 0.0
O380 O 0.39215 0.60879 0.13392 0.0
C381 C 0.34427 0.62203 0.12768 0.0
O382 O 0.37645 0.64615 0.12756 0.0
Co383 Co 0.35028 0.6429 0.09653 0.0
O384 O 0.35386 0.66031 0.11519 0.0
C385 C 0.38486 0.63057 0.08513 0.0
C386 C 0.38586 0.59409 0.12792 0.0
C387 C 0.36698 0.65993 0.1254 0.0
O388 O 0.38747 0.6229 0.0998 0.0
O389 O 0.37085 0.63862 0.08117 0.0
O390 O 0.3554 0.61789 0.13974 0.0
O391 O 0.35051 0.62325 0.11214 0.0
Co392 Co 0.88623 0.13141 0.39018 0.0
O393 O 0.9107 0.13343 0.39547 0.0
O394 O 0.89973 0.11398 0.37725 0.0
C395 C 0.88215 0.16011 0.38573 0.0
O396 O 0.8608 0.12658 0.38196 0.0
Co397 Co 0.86043 0.15026 0.41536 0.0
O398 O 0.84433 0.14675 0.39552 0.0
C399 C 0.8747 0.11588 0.42492 0.0
C400 C 0.9135 0.12074 0.38483 0.0
C401 C 0.84625 0.1348 0.38419 0.0
O402 O 0.88309 0.11491 0.41048 0.0
O403 O 0.86562 0.12901 0.42949 0.0
O404 O 0.88816 0.15041 0.37332 0.0
O405 O 0.88058 0.15259 0.40068 0.0
Co406 Co 0.3805 0.37027 0.88634 0.0
O407 O 0.3767 0.34627 0.89285 0.0
O408 O 0.38233 0.35486 0.866 0.0
C409 C 0.39888 0.37645 0.90854 0.0
O410 O 0.38514 0.39477 0.87566 0.0
Co411 Co 0.36844 0.39876 0.91281 0.0
O412 O 0.38193 0.41441 0.89741 0.0
C413 C 0.34249 0.38067 0.89051 0.0
C414 C 0.37897 0.34209 0.87673 0.0
C415 C 0.38618 0.41051 0.88188 0.0
O416 O 0.35468 0.3728 0.88228 0.0
O417 O 0.34522 0.39068 0.90362 0.0
O418 O 0.40475 0.36914 0.89452 0.0
O419 O 0.38221 0.37822 0.90922 0.0
Co420 Co 0.11426 0.87052 0.38301 0.0
O421 O 0.08946 0.86697 0.38162 0.0
O422 O 0.10312 0.88955 0.36999 0.0
C423 C 0.12131 0.84292 0.37619 0.0
O424 O 0.14057 0.87682 0.38206 0.0
Co425 Co 0.13275 0.84907 0.41241 0.0
O426 O 0.15392 0.85824 0.40073 0.0
C427 C 0.11183 0.87941 0.42153 0.0
C428 C 0.08845 0.88128 0.3729 0.0
C429 C 0.15441 0.87017 0.38916 0.0
O430 O 0.11146 0.88403 0.40543 0.0
O431 O 0.11785 0.86481 0.42674 0.0
O432 O 0.11777 0.85394 0.36385 0.0
O433 O 0.11844 0.84844 0.39175 0.0
Co434 Co 0.62573 0.63522 0.89147 0.0
O435 O 0.63077 0.65878 0.89861 0.0
O436 O 0.62595 0.65117 0.87134 0.0
C437 C 0.60586 0.63024 0.91252 0.0
O438 O 0.62011 0.61111 0.88028 0.0
Co439 Co 0.63434 0.6059 0.91849 0.0
O440 O 0.61961 0.59179 0.90254 0.0
C441 C 0.66257 0.62195 0.89765 0.0
C442 C 0.62957 0.66353 0.88253 0.0
C443 C 0.61704 0.59566 0.88659 0.0
O444 O 0.65144 0.63084 0.88887 0.0
O445 O 0.65845 0.61222 0.91058 0.0
O446 O 0.60122 0.63798 0.89822 0.0
O447 O 0.62229 0.6273 0.91412 0.0
Co448 Co 0.61288 0.87854 0.87947 0.0
O449 O 0.60658 0.85445 0.87618 0.0
O450 O 0.63366 0.86358 0.87987 0.0
C451 C 0.59192 0.88385 0.89928 0.0
O452 O 0.62302 0.90348 0.88329 0.0
Co453 Co 0.58427 0.90525 0.86842 0.0
O454 O 0.6 0.92164 0.8809 0.0
C455 C 0.60389 0.8862 0.84174 0.0
C456 C 0.62287 0.85057 0.8771 0.0
C457 C 0.61597 0.91878 0.88452 0.0
O458 O 0.61477 0.88113 0.85344 0.0
O459 O 0.58997 0.89455 0.84531 0.0
O460 O 0.60661 0.87712 0.90425 0.0
O461 O 0.59002 0.88549 0.88269 0.0
Co462 Co 0.62268 0.12414 0.37373 0.0
O463 O 0.59774 0.12119 0.372 0.0
O464 O 0.61085 0.13761 0.39183 0.0
C465 C 0.6269 0.12898 0.34511 0.0
O466 O 0.64877 0.12998 0.37846 0.0
Co467 Co 0.64605 0.09749 0.35385 0.0
O468 O 0.66405 0.11559 0.35794 0.0
C469 C 0.63041 0.08779 0.3877 0.0
C470 C 0.59633 0.13157 0.38515 0.0
C471 C 0.66309 0.12676 0.37015 0.0
O472 O 0.62393 0.1031 0.38948 0.0
O473 O 0.63878 0.08289 0.37419 0.0
O474 O 0.62219 0.14166 0.3552 0.0
O475 O 0.62718 0.11376 0.35223 0.0
Co476 Co 0.39349 0.12729 0.88242 0.0
O477 O 0.39906 0.15131 0.87742 0.0
O478 O 0.37247 0.14173 0.88305 0.0
C479 C 0.41566 0.12374 0.90154 0.0
O480 O 0.38378 0.10254 0.88818 0.0
Co481 Co 0.42142 0.09942 0.87295 0.0
O482 O 0.407 0.08465 0.88834 0.0
C483 C 0.3987 0.114 0.84546 0.0
C484 C 0.38275 0.15482 0.8792 0.0
C485 C 0.39096 0.08758 0.89124 0.0
O486 O 0.39016 0.12285 0.85673 0.0
O487 O 0.41191 0.10461 0.84919 0.0
O488 O 0.40109 0.13044 0.9067 0.0
O489 O 0.41673 0.12084 0.88504 0.0
Co490 Co 0.37901 0.88151 0.37417 0.0
O491 O 0.40388 0.88532 0.37345 0.0
O492 O 0.39094 0.86725 0.39174 0.0
C493 C 0.37576 0.87824 0.34514 0.0
O494 O 0.35295 0.87468 0.37771 0.0
Co495 Co 0.35517 0.90839 0.35506 0.0
O496 O 0.33795 0.88922 0.35699 0.0
C497 C 0.36959 0.91655 0.38999 0.0
C498 C 0.40539 0.87415 0.38591 0.0
C499 C 0.33881 0.87768 0.36887 0.0
O500 O 0.37679 0.90152 0.39108 0.0
O501 O 0.36119 0.92191 0.37661 0.0
O502 O 0.38047 0.86514 0.3547 0.0
O503 O 0.37474 0.893 0.35311 0.0
Co504 Co 0.62421 0.12363 0.13384 0.0
O505 O 0.61988 0.09901 0.13617 0.0
O506 O 0.63553 0.11047 0.11501 0.0
C507 C 0.63155 0.12786 0.16199 0.0
O508 O 0.63093 0.14935 0.12843 0.0
Co509 Co 0.60029 0.14839 0.15542 0.0
O510 O 0.61902 0.16533 0.15003 0.0
C511 C 0.58736 0.13306 0.12235 0.0
C512 C 0.62902 0.09651 0.12234 0.0
C513 C 0.62901 0.16386 0.13693 0.0
O514 O 0.60217 0.12585 0.11961 0.0
O515 O 0.58383 0.14174 0.13614 0.0
O516 O 0.6431 0.12242 0.15101 0.0
O517 O 0.61585 0.12888 0.156 0.0
Co518 Co 0.38058 0.11659 0.62373 0.0
O519 O 0.35706 0.10918 0.6285 0.0
O520 O 0.36475 0.13667 0.6249 0.0
C521 C 0.38512 0.0964 0.60294 0.0
O522 O 0.4047 0.12805 0.61853 0.0
Co523 Co 0.4098 0.08934 0.63119 0.0
O524 O 0.42385 0.10584 0.61728 0.0
C525 C 0.3942 0.10892 0.66026 0.0
C526 C 0.35241 0.12529 0.62811 0.0
C527 C 0.42004 0.12183 0.61523 0.0
O528 O 0.38522 0.11812 0.64954 0.0
O529 O 0.40397 0.09632 0.65561 0.0
O530 O 0.37738 0.11085 0.59899 0.0
O531 O 0.38824 0.09405 0.61926 0.0
Co532 Co 0.37925 0.8846 0.13156 0.0
O533 O 0.38229 0.90957 0.1323 0.0
O534 O 0.36627 0.89581 0.11257 0.0
C535 C 0.37356 0.88178 0.1602 0.0
O536 O 0.37341 0.85837 0.12775 0.0
Co537 Co 0.40494 0.8618 0.15341 0.0
O538 O 0.38671 0.84384 0.14962 0.0
C539 C 0.41563 0.87548 0.11897 0.0
C540 C 0.37216 0.91054 0.11887 0.0
C541 C 0.37614 0.84435 0.1368 0.0
O542 O 0.40067 0.88252 0.11654 0.0
O543 O 0.42001 0.86739 0.13288 0.0
O544 O 0.36123 0.88595 0.14939 0.0
O545 O 0.38899 0.88101 0.15366 0.0
Co546 Co 0.6341 0.89446 0.62384 0.0
O547 O 0.65785 0.9013 0.6286 0.0
O548 O 0.64968 0.87421 0.62333 0.0
C549 C 0.62906 0.9161 0.60455 0.0
O550 O 0.60979 0.88355 0.61839 0.0
Co551 Co 0.60538 0.92143 0.63378 0.0
O552 O 0.59055 0.90571 0.61952 0.0
C553 C 0.62156 0.8997 0.6611 0.0
C554 C 0.66228 0.88519 0.62704 0.0
C555 C 0.59431 0.88993 0.61615 0.0
O556 O 0.63009 0.89116 0.64956 0.0
O557 O 0.61199 0.91283 0.65753 0.0
O558 O 0.63652 0.90187 0.59946 0.0
O559 O 0.62648 0.91728 0.62108 0.0
Co560 Co 0.88177 0.61492 0.87506 0.0
O561 O 0.87845 0.60762 0.85129 0.0
O562 O 0.88155 0.63508 0.85914 0.0
C563 C 0.90219 0.59491 0.88132 0.0
O564 O 0.8856 0.62619 0.89943 0.0
Co565 Co 0.87185 0.58717 0.90334 0.0
O566 O 0.88389 0.60403 0.91887 0.0
C567 C 0.84433 0.60528 0.88376 0.0
C568 C 0.87905 0.62377 0.84663 0.0
C569 C 0.8871 0.61991 0.91509 0.0
O570 O 0.8557 0.61614 0.87779 0.0
O571 O 0.84837 0.5919 0.89283 0.0
O572 O 0.90668 0.60937 0.87373 0.0
O573 O 0.88568 0.59245 0.88315 0.0
Co574 Co 0.86872 0.38773 0.12004 0.0
O575 O 0.86545 0.39333 0.09594 0.0
O576 O 0.88715 0.37738 0.10551 0.0
C577 C 0.84075 0.37968 0.12438 0.0
O578 O 0.87484 0.37977 0.14514 0.0
Co579 Co 0.84741 0.41019 0.14643 0.0
O580 O 0.85343 0.39068 0.16204 0.0
C581 C 0.88024 0.42418 0.1316 0.0
C582 C 0.87911 0.38442 0.09226 0.0
C583 C 0.86656 0.38091 0.15983 0.0
O584 O 0.88291 0.4098 0.12342 0.0
O585 O 0.86652 0.42712 0.14054 0.0
O586 O 0.85173 0.36865 0.11802 0.0
O587 O 0.84659 0.39539 0.12624 0.0
Co588 Co 0.12292 0.37605 0.62287 0.0
O589 O 0.11881 0.37382 0.59824 0.0
O590 O 0.13564 0.39423 0.60972 0.0
C591 C 0.12818 0.3475 0.62716 0.0
O592 O 0.12968 0.38122 0.64862 0.0
Co593 Co 0.09744 0.35574 0.64753 0.0
O594 O 0.11624 0.36033 0.66462 0.0
C595 C 0.08673 0.3893 0.63193 0.0
C596 C 0.12882 0.38718 0.59574 0.0
C597 C 0.1271 0.3729 0.66314 0.0
O598 O 0.10177 0.39139 0.62482 0.0
O599 O 0.08232 0.37573 0.64063 0.0
O600 O 0.14063 0.35783 0.62201 0.0
O601 O 0.11297 0.35441 0.62799 0.0
Co602 Co 0.12341 0.61634 0.13164 0.0
O603 O 0.12403 0.60869 0.15543 0.0
O604 O 0.1235 0.63637 0.14779 0.0
C605 C 0.10276 0.59684 0.12344 0.0
O606 O 0.12219 0.62792 0.10724 0.0
Co607 Co 0.13457 0.58868 0.10392 0.0
O608 O 0.12374 0.6057 0.08788 0.0
C609 C 0.16117 0.60618 0.12565 0.0
C610 C 0.12387 0.62479 0.16026 0.0
C611 C 0.12113 0.62168 0.09152 0.0
O612 O 0.14964 0.61691 0.13114 0.0
O613 O 0.15749 0.59304 0.11596 0.0
O614 O 0.09819 0.61137 0.13073 0.0
O615 O 0.11928 0.59414 0.12293 0.0
Co616 Co 0.89444 0.62525 0.6312 0.0
O617 O 0.90135 0.63078 0.65471 0.0
O618 O 0.87427 0.62471 0.64703 0.0
C619 C 0.91625 0.60622 0.62669 0.0
O620 O 0.88348 0.61892 0.60714 0.0
Co621 Co 0.92104 0.63461 0.60177 0.0
O622 O 0.90594 0.6186 0.58818 0.0
C623 C 0.89873 0.66198 0.61667 0.0
C624 C 0.8853 0.62895 0.65937 0.0
C625 C 0.89003 0.6156 0.59192 0.0
O626 O 0.89089 0.65081 0.62643 0.0
O627 O 0.91139 0.65829 0.60657 0.0
O628 O 0.90205 0.60109 0.63434 0.0
O629 O 0.91729 0.62269 0.62349 0.0
Co630 Co 0.13197 0.38632 0.88741 0.0
O631 O 0.13274 0.38877 0.91239 0.0
O632 O 0.11315 0.37273 0.89841 0.0
C633 C 0.16069 0.38129 0.88434 0.0
O634 O 0.12831 0.38113 0.86108 0.0
Co635 Co 0.15347 0.4134 0.86553 0.0
O636 O 0.14977 0.39579 0.84703 0.0
C637 C 0.11896 0.42287 0.87946 0.0
C638 C 0.11938 0.37847 0.91322 0.0
C639 C 0.13731 0.3847 0.84721 0.0
O640 O 0.11657 0.40746 0.88564 0.0
O641 O 0.13294 0.42796 0.8719 0.0
O642 O 0.15014 0.36859 0.88831 0.0
O643 O 0.15386 0.39658 0.88412 0.0
Co644 Co 0.11666 0.62636 0.37516 0.0
O645 O 0.11018 0.6277 0.35098 0.0
O646 O 0.13703 0.62293 0.36008 0.0
C647 C 0.0939 0.60913 0.38259 0.0
O648 O 0.12705 0.62363 0.40006 0.0
Co649 Co 0.09065 0.64207 0.40193 0.0
O650 O 0.1046 0.62816 0.41846 0.0
C651 C 0.11386 0.66543 0.38208 0.0
C652 C 0.12624 0.62491 0.34703 0.0
C653 C 0.12012 0.62328 0.41548 0.0
O654 O 0.12149 0.65219 0.37542 0.0
O655 O 0.10072 0.66423 0.39224 0.0
O656 O 0.10787 0.60231 0.37609 0.0
O657 O 0.09367 0.62594 0.38289 0.0
Co658 Co 0.87995 0.37106 0.3826 0.0
O659 O 0.88409 0.36923 0.40723 0.0
O660 O 0.86849 0.39008 0.39526 0.0
C661 C 0.8727 0.34278 0.37896 0.0
O662 O 0.87342 0.37597 0.35681 0.0
Co663 Co 0.90405 0.3492 0.35831 0.0
O664 O 0.88539 0.35411 0.34127 0.0
C665 C 0.91691 0.38251 0.37324 0.0
C666 C 0.87489 0.38305 0.40937 0.0
C667 C 0.87539 0.3672 0.34249 0.0
O668 O 0.902 0.38536 0.38022 0.0
O669 O 0.92052 0.36859 0.36483 0.0
O670 O 0.86108 0.35382 0.38408 0.0
O671 O 0.88839 0.34884 0.37783 0.0
C672 C 0.11406 0.3213 0.39557 0.0
C673 C 0.12502 0.33144 0.38496 0.0
C674 C 0.11578 0.30323 0.39611 0.0
C675 C 0.12964 0.26677 0.36935 0.0
H676 H 0.12657 0.24073 0.41252 0.0
C677 C 0.13561 0.19137 0.37324 0.0
C678 C 0.12545 0.18281 0.38584 0.0
C679 C 0.13586 0.20959 0.37233 0.0
C680 C 0.1272 0.24779 0.40032 0.0
H681 H 0.14674 0.33075 0.36701 0.0
H682 H 0.14966 0.299 0.36786 0.0
H683 H 0.12768 0.27245 0.41337 0.0
H684 H 0.10666 0.1864 0.40649 0.0
H685 H 0.1066 0.21804 0.40452 0.0
H686 H 0.12874 0.24211 0.35625 0.0
C687 C 0.13973 0.30509 0.37571 0.0
C688 C 0.12796 0.26595 0.40084 0.0
C689 C 0.13815 0.32324 0.37535 0.0
C690 C 0.11477 0.19268 0.39677 0.0
C691 C 0.11487 0.21082 0.39575 0.0
C692 C 0.12875 0.24855 0.36881 0.0
C693 C 0.12838 0.29491 0.38591 0.0
C694 C 0.129 0.27563 0.38537 0.0
C695 C 0.12584 0.21953 0.38391 0.0
C696 C 0.12729 0.23886 0.38429 0.0
H697 H 0.10383 0.32729 0.40312 0.0
H698 H 0.10677 0.29569 0.40399 0.0
H699 H 0.13025 0.27394 0.35721 0.0
H700 H 0.14403 0.18405 0.36469 0.0
H701 H 0.14449 0.21588 0.36308 0.0
C702 C 0.324 0.60845 0.88762 0.0
C703 C 0.32912 0.61867 0.90201 0.0
C704 C 0.30634 0.60678 0.88312 0.0
C705 C 0.26374 0.62793 0.8885 0.0
H706 H 0.24446 0.58157 0.88136 0.0
C707 C 0.19479 0.59131 0.86798 0.0
C708 C 0.18303 0.6009 0.8781 0.0
C709 C 0.21271 0.59424 0.86942 0.0
C710 C 0.24965 0.59465 0.88303 0.0
H711 H 0.31971 0.63545 0.92269 0.0
H712 H 0.28914 0.63253 0.91481 0.0
H713 H 0.27574 0.58534 0.8858 0.0
H714 H 0.18091 0.62129 0.89754 0.0
H715 H 0.2123 0.62613 0.90039 0.0
H716 H 0.23768 0.63729 0.88576 0.0
C717 C 0.29872 0.62585 0.90699 0.0
C718 C 0.26758 0.59678 0.88557 0.0
C719 C 0.31626 0.62737 0.91159 0.0
C720 C 0.18961 0.61371 0.88953 0.0
C721 C 0.20761 0.61654 0.89109 0.0
C722 C 0.24581 0.62583 0.88583 0.0
C723 C 0.29355 0.61549 0.89278 0.0
C724 C 0.27477 0.61341 0.88856 0.0
C725 C 0.21937 0.60673 0.88114 0.0
C726 C 0.23852 0.60914 0.88326 0.0
H727 H 0.33358 0.60159 0.87997 0.0
H728 H 0.30269 0.59876 0.87204 0.0
H729 H 0.26899 0.64094 0.89058 0.0
H730 H 0.19018 0.5815 0.85885 0.0
H731 H 0.22134 0.58671 0.86129 0.0
C732 C 0.88122 0.81515 0.40903 0.0
C733 C 0.87804 0.82584 0.39451 0.0
C734 C 0.88311 0.79718 0.40697 0.0
C735 C 0.89656 0.76413 0.37652 0.0
H736 H 0.86789 0.73221 0.40347 0.0
C737 C 0.90042 0.69071 0.36463 0.0
C738 C 0.8994 0.67952 0.37905 0.0
C739 C 0.89618 0.70825 0.36624 0.0
C740 C 0.87618 0.74091 0.39602 0.0
H741 H 0.87473 0.82627 0.36646 0.0
H742 H 0.87863 0.79479 0.36279 0.0
H743 H 0.86442 0.76365 0.40701 0.0
H744 H 0.8927 0.6776 0.40633 0.0
H745 H 0.88606 0.70859 0.4095 0.0
H746 H 0.90895 0.74173 0.36607 0.0
C747 C 0.8794 0.80036 0.37576 0.0
C748 C 0.87411 0.75889 0.39799 0.0
C749 C 0.87718 0.81831 0.37785 0.0
C750 C 0.89351 0.68603 0.39502 0.0
C751 C 0.88966 0.70376 0.39677 0.0
C752 C 0.89888 0.7462 0.37478 0.0
C753 C 0.88218 0.78964 0.39033 0.0
C754 C 0.88424 0.77063 0.3882 0.0
C755 C 0.89128 0.71517 0.38245 0.0
C756 C 0.88865 0.73431 0.38442 0.0
H757 H 0.88188 0.8206 0.42204 0.0
H758 H 0.8854 0.78918 0.41836 0.0
H759 H 0.90468 0.77296 0.36901 0.0
H760 H 0.90466 0.6859 0.35209 0.0
H761 H 0.897 0.71641 0.35477 0.0
C762 C 0.81288 0.41418 0.86634 0.0
C763 C 0.82626 0.40613 0.87591 0.0
C764 C 0.79543 0.41026 0.86968 0.0
C765 C 0.76653 0.39492 0.90416 0.0
H766 H 0.73319 0.38857 0.86645 0.0
C767 C 0.69444 0.37791 0.91708 0.0
C768 C 0.68175 0.386 0.90662 0.0
C769 C 0.7121 0.37937 0.91304 0.0
C770 C 0.74229 0.39052 0.87711 0.0
H771 H 0.83173 0.38745 0.89639 0.0
H772 H 0.80108 0.38069 0.90233 0.0
H773 H 0.76408 0.39237 0.85985 0.0
H774 H 0.6778 0.40204 0.88369 0.0
H775 H 0.70872 0.40491 0.87684 0.0
H776 H 0.74479 0.3935 0.92143 0.0
C777 C 0.80422 0.39007 0.89224 0.0
C778 C 0.75999 0.39261 0.87334 0.0
C779 C 0.82175 0.39387 0.88878 0.0
C780 C 0.6872 0.39559 0.89199 0.0
C781 C 0.70493 0.39714 0.88801 0.0
C782 C 0.74883 0.39294 0.90793 0.0
C783 C 0.79089 0.39829 0.88276 0.0
C784 C 0.77227 0.39495 0.88681 0.0
C785 C 0.71759 0.38905 0.8985 0.0
C786 C 0.73647 0.39082 0.89446 0.0
H787 H 0.81587 0.42363 0.85627 0.0
H788 H 0.78545 0.41694 0.86229 0.0
H789 H 0.77567 0.39695 0.91478 0.0
H790 H 0.69074 0.37027 0.92836 0.0
H791 H 0.72145 0.37272 0.92123 0.0
C792 C 0.08926 0.69582 0.63249 0.0
C793 C 0.099 0.68254 0.62459 0.0
C794 C 0.09362 0.71331 0.62995 0.0
C795 C 0.11182 0.74863 0.63028 0.0
H796 H 0.12024 0.76486 0.58324 0.0
C797 C 0.13563 0.81441 0.59075 0.0
C798 C 0.12583 0.82719 0.59932 0.0
C799 C 0.13332 0.7968 0.59463 0.0
C800 C 0.11819 0.76054 0.5965 0.0
H801 H 0.12103 0.67735 0.6078 0.0
H802 H 0.12856 0.70809 0.60325 0.0
H803 H 0.11513 0.73394 0.58849 0.0
H804 H 0.10611 0.83148 0.61895 0.0
H805 H 0.1017 0.80055 0.62545 0.0
H806 H 0.11492 0.77521 0.63833 0.0
C807 C 0.11752 0.70481 0.61141 0.0
C808 C 0.11525 0.7428 0.59949 0.0
C809 C 0.11324 0.68723 0.61406 0.0
C810 C 0.11386 0.82195 0.61213 0.0
C811 C 0.11141 0.80423 0.61591 0.0
C812 C 0.11488 0.76637 0.62732 0.0
C813 C 0.10775 0.71801 0.61937 0.0
C814 C 0.1119 0.73668 0.61638 0.0
C815 C 0.12101 0.79144 0.60705 0.0
C816 C 0.118 0.77256 0.61037 0.0
H817 H 0.07824 0.69274 0.64074 0.0
H818 H 0.08571 0.72318 0.63607 0.0
H819 H 0.10946 0.74424 0.64348 0.0
H820 H 0.1452 0.81798 0.58102 0.0
H821 H 0.14124 0.78737 0.58786 0.0
C822 C 0.6915 0.63448 0.12966 0.0
C823 C 0.68142 0.6242 0.1182 0.0
C824 C 0.7095 0.63194 0.13101 0.0
C825 C 0.74361 0.60021 0.12596 0.0
H826 H 0.77413 0.63852 0.11267 0.0
C827 C 0.81623 0.58843 0.11494 0.0
C828 C 0.82821 0.60135 0.12021 0.0
C829 C 0.79843 0.59193 0.11436 0.0
C830 C 0.76587 0.62775 0.11671 0.0
H831 H 0.68198 0.60281 0.09976 0.0
H832 H 0.7133 0.59794 0.10267 0.0
H833 H 0.74268 0.64301 0.11417 0.0
H834 H 0.83111 0.62818 0.12859 0.0
H835 H 0.79993 0.63418 0.12829 0.0
H836 H 0.76653 0.58501 0.12908 0.0
C837 C 0.70734 0.60811 0.11034 0.0
C838 C 0.74787 0.63035 0.11752 0.0
C839 C 0.68946 0.61091 0.10867 0.0
C840 C 0.82213 0.61805 0.12432 0.0
C841 C 0.80424 0.62145 0.12412 0.0
C842 C 0.76159 0.59769 0.1255 0.0
C843 C 0.71754 0.61881 0.12127 0.0
C844 C 0.73661 0.61652 0.12191 0.0
C845 C 0.79211 0.6083 0.11949 0.0
C846 C 0.77298 0.61133 0.12056 0.0
H847 H 0.6856 0.64488 0.13706 0.0
H848 H 0.71717 0.64029 0.13956 0.0
H849 H 0.73514 0.58941 0.1295 0.0
H850 H 0.82062 0.57549 0.11153 0.0
H851 H 0.78962 0.58164 0.11014 0.0
C852 C 0.8687 0.18479 0.60045 0.0
C853 C 0.88315 0.17435 0.60419 0.0
C854 C 0.86936 0.20269 0.60346 0.0
C855 C 0.89563 0.23805 0.62484 0.0
H856 H 0.87052 0.26684 0.59177 0.0
C857 C 0.90577 0.31259 0.61664 0.0
C858 C 0.89058 0.32247 0.61862 0.0
C859 C 0.90475 0.29446 0.61539 0.0
C860 C 0.8775 0.25892 0.60113 0.0
H861 H 0.9095 0.17421 0.61436 0.0
H862 H 0.91111 0.20578 0.61883 0.0
H863 H 0.86941 0.23527 0.58883 0.0
H864 H 0.8624 0.32127 0.62039 0.0
H865 H 0.86059 0.28944 0.61749 0.0
H866 H 0.90434 0.26205 0.63652 0.0
C867 C 0.89902 0.20011 0.61405 0.0
C868 C 0.87679 0.2408 0.59958 0.0
C869 C 0.89818 0.18204 0.61143 0.0
C870 C 0.8743 0.31394 0.61888 0.0
C871 C 0.87326 0.2958 0.61723 0.0
C872 C 0.89663 0.25622 0.62614 0.0
C873 C 0.88468 0.21072 0.60983 0.0
C874 C 0.88571 0.23007 0.6115 0.0
C875 C 0.8885 0.28593 0.6157 0.0
C876 C 0.88748 0.26676 0.61436 0.0
H877 H 0.85684 0.17909 0.59512 0.0
H878 H 0.85783 0.21023 0.60063 0.0
H879 H 0.90246 0.2303 0.63442 0.0
H880 H 0.9185 0.31884 0.61649 0.0
H881 H 0.91665 0.28708 0.61408 0.0
C882 C 0.3174 0.37111 0.13085 0.0
C883 C 0.32581 0.38073 0.11774 0.0
C884 C 0.29921 0.37109 0.13205 0.0
C885 C 0.26019 0.37986 0.10485 0.0
H886 H 0.23574 0.37904 0.14894 0.0
C887 C 0.1877 0.39671 0.11223 0.0
C888 C 0.17754 0.38642 0.12347 0.0
C889 C 0.2056 0.39402 0.11093 0.0
C890 C 0.24242 0.37902 0.13653 0.0
H891 H 0.32197 0.3987 0.0963 0.0
H892 H 0.29038 0.39919 0.09877 0.0
H893 H 0.26758 0.3794 0.14873 0.0
H894 H 0.17795 0.36487 0.14173 0.0
H895 H 0.20943 0.36029 0.13959 0.0
H896 H 0.235 0.38002 0.0927 0.0
C897 C 0.29769 0.39115 0.10774 0.0
C898 C 0.26065 0.37924 0.1364 0.0
C899 C 0.31581 0.39102 0.10643 0.0
C900 C 0.18549 0.37296 0.13293 0.0
C901 C 0.20348 0.37042 0.13181 0.0
C902 C 0.242 0.3798 0.10499 0.0
C903 C 0.28912 0.38083 0.12025 0.0
C904 C 0.26975 0.37991 0.12055 0.0
C905 C 0.21373 0.38111 0.12099 0.0
C906 C 0.23295 0.37958 0.12083 0.0
H907 H 0.32481 0.36299 0.13968 0.0
H908 H 0.29304 0.36293 0.14179 0.0
H909 H 0.26675 0.37989 0.09239 0.0
H910 H 0.1819 0.40717 0.10478 0.0
H911 H 0.21321 0.40252 0.10257 0.0
C912 C 0.37068 0.13171 0.18557 0.0
C913 C 0.38343 0.12222 0.17667 0.0
C914 C 0.36993 0.13126 0.20377 0.0
C915 C 0.38299 0.10602 0.24221 0.0
H916 H 0.38312 0.15056 0.26619 0.0
C917 C 0.39523 0.1097 0.31584 0.0
C918 C 0.38491 0.12117 0.32548 0.0
C919 C 0.39549 0.11058 0.29768 0.0
C920 C 0.38286 0.138 0.25973 0.0
H921 H 0.40482 0.1042 0.17968 0.0
H922 H 0.40329 0.10314 0.21141 0.0
H923 H 0.38111 0.14971 0.23444 0.0
H924 H 0.36729 0.14303 0.32381 0.0
H925 H 0.36738 0.14434 0.29206 0.0
H926 H 0.38443 0.09422 0.26735 0.0
C927 C 0.39397 0.11101 0.20436 0.0
C928 C 0.3817 0.13753 0.24155 0.0
C929 C 0.39487 0.11165 0.18621 0.0
C930 C 0.37545 0.13407 0.31669 0.0
C931 C 0.37552 0.13482 0.29848 0.0
C932 C 0.38396 0.10647 0.26037 0.0
C933 C 0.38174 0.1211 0.21333 0.0
C934 C 0.3819 0.12154 0.23262 0.0
C935 C 0.38523 0.12281 0.28873 0.0
C936 C 0.38409 0.12247 0.26937 0.0
H937 H 0.36172 0.14001 0.17854 0.0
H938 H 0.36027 0.13902 0.21039 0.0
H939 H 0.38298 0.09351 0.23565 0.0
H940 H 0.40278 0.09972 0.3223 0.0
H941 H 0.4035 0.10144 0.29064 0.0
C942 C 0.39449 0.89761 0.6874 0.0
C943 C 0.37849 0.90396 0.68136 0.0
C944 C 0.39677 0.89357 0.70504 0.0
C945 C 0.37628 0.9011 0.74858 0.0
H946 H 0.40958 0.86626 0.76289 0.0
C947 C 0.39649 0.89268 0.82079 0.0
C948 C 0.40208 0.87625 0.82635 0.0
C949 C 0.39263 0.89559 0.80319 0.0
C950 C 0.39995 0.87582 0.75923 0.0
H951 H 0.35204 0.9102 0.68865 0.0
H952 H 0.35555 0.90212 0.71907 0.0
H953 H 0.40431 0.87106 0.73222 0.0
H954 H 0.40701 0.8497 0.81833 0.0
H955 H 0.39916 0.85433 0.78799 0.0
H956 H 0.37112 0.90508 0.77559 0.0
C957 C 0.3667 0.90106 0.71056 0.0
C958 C 0.39719 0.87885 0.74149 0.0
C959 C 0.3646 0.90555 0.69306 0.0
C960 C 0.40295 0.86257 0.81426 0.0
C961 C 0.39862 0.86532 0.79682 0.0
C962 C 0.37872 0.89776 0.76632 0.0
C963 C 0.38292 0.89535 0.71692 0.0
C964 C 0.38544 0.89166 0.73587 0.0
C965 C 0.39384 0.88198 0.79089 0.0
C966 C 0.39071 0.88517 0.77193 0.0
H967 H 0.40544 0.8964 0.67862 0.0
H968 H 0.40955 0.88952 0.70937 0.0
H969 H 0.36734 0.91131 0.74491 0.0
H970 H 0.39584 0.90345 0.82991 0.0
H971 H 0.38926 0.90866 0.79921 0.0
C972 C 0.60946 0.89388 0.1879 0.0
C973 C 0.62117 0.88367 0.1784 0.0
C974 C 0.61036 0.89443 0.20606 0.0
C975 C 0.62322 0.86806 0.24323 0.0
H976 H 0.61885 0.91116 0.26916 0.0
C977 C 0.62754 0.87147 0.31864 0.0
C978 C 0.61736 0.88399 0.32709 0.0
C979 C 0.62804 0.87078 0.30044 0.0
C980 C 0.6198 0.89897 0.26213 0.0
H981 H 0.64331 0.86642 0.18034 0.0
H982 H 0.64475 0.86724 0.21223 0.0
H983 H 0.62081 0.91205 0.23751 0.0
H984 H 0.59884 0.9048 0.32324 0.0
H985 H 0.59916 0.90318 0.29156 0.0
H986 H 0.62176 0.85491 0.26777 0.0
C987 C 0.6349 0.8748 0.20557 0.0
C988 C 0.62106 0.89952 0.24401 0.0
C989 C 0.63416 0.87444 0.18735 0.0
C990 C 0.60693 0.89512 0.31706 0.0
C991 C 0.60727 0.8943 0.2989 0.0
C992 C 0.62179 0.86749 0.26137 0.0
C993 C 0.62285 0.88461 0.21508 0.0
C994 C 0.62268 0.88408 0.23437 0.0
C995 C 0.61823 0.88248 0.29035 0.0
C996 C 0.61991 0.88293 0.27105 0.0
H997 H 0.59932 0.90113 0.18133 0.0
H998 H 0.60083 0.90201 0.21307 0.0
H999 H 0.62424 0.85594 0.23607 0.0
H1000 H 0.63579 0.86279 0.32607 0.0
H1001 H 0.6367 0.86157 0.29432 0.0
C1002 C 0.61125 0.11697 0.819 0.0
C1003 C 0.59886 0.12949 0.82366 0.0
C1004 C 0.61492 0.11378 0.80143 0.0
C1005 C 0.59623 0.1199 0.75714 0.0
H1006 H 0.64326 0.10991 0.74212 0.0
C1007 C 0.61534 0.11403 0.68438 0.0
C1008 C 0.62565 0.09957 0.68018 0.0
C1009 C 0.61228 0.11838 0.70182 0.0
C1010 C 0.63004 0.1126 0.74615 0.0
H1011 H 0.58105 0.14889 0.81348 0.0
H1012 H 0.58774 0.14365 0.78311 0.0
H1013 H 0.63772 0.11598 0.77279 0.0
H1014 H 0.64095 0.07848 0.69112 0.0
H1015 H 0.63561 0.0861 0.72131 0.0
H1016 H 0.58861 0.11662 0.73044 0.0
C1017 C 0.59427 0.1359 0.79292 0.0
C1018 C 0.62685 0.11601 0.76373 0.0
C1019 C 0.5905 0.13896 0.81039 0.0
C1020 C 0.6329 0.08968 0.69381 0.0
C1021 C 0.62997 0.09411 0.71116 0.0
C1022 C 0.59945 0.11662 0.73955 0.0
C1023 C 0.60639 0.12316 0.78818 0.0
C1024 C 0.60989 0.11962 0.76946 0.0
C1025 C 0.61963 0.10848 0.71537 0.0
C1026 C 0.61636 0.11283 0.73389 0.0
H1027 H 0.61788 0.10942 0.8289 0.0
H1028 H 0.6242 0.10374 0.79825 0.0
H1029 H 0.58295 0.12233 0.76111 0.0
H1030 H 0.60956 0.12192 0.67422 0.0
H1031 H 0.60433 0.1296 0.70471 0.0
C1032 C 0.90306 0.81739 0.60291 0.0
C1033 C 0.88916 0.82799 0.6079 0.0
C1034 C 0.90204 0.79939 0.60501 0.0
C1035 C 0.87751 0.76358 0.62665 0.0
H1036 H 0.89883 0.73685 0.58973 0.0
C1037 C 0.89176 0.68969 0.63207 0.0
C1038 C 0.89268 0.68005 0.61659 0.0
C1039 C 0.88845 0.70759 0.63146 0.0
C1040 C 0.89246 0.74399 0.60003 0.0
H1041 H 0.86342 0.82819 0.61944 0.0
H1042 H 0.86132 0.79648 0.62255 0.0
H1043 H 0.89858 0.7682 0.58786 0.0
H1044 H 0.8894 0.68078 0.5886 0.0
H1045 H 0.88248 0.71165 0.58751 0.0
H1046 H 0.87084 0.73913 0.63847 0.0
C1047 C 0.87317 0.80214 0.61732 0.0
C1048 C 0.89266 0.76209 0.59912 0.0
C1049 C 0.87433 0.82028 0.61548 0.0
C1050 C 0.88902 0.68813 0.60066 0.0
C1051 C 0.88522 0.70583 0.60007 0.0
C1052 C 0.87708 0.74534 0.62744 0.0
C1053 C 0.88693 0.79148 0.61183 0.0
C1054 C 0.88553 0.77216 0.61256 0.0
C1055 C 0.88563 0.71598 0.61536 0.0
C1056 C 0.88475 0.73532 0.61421 0.0
H1057 H 0.91479 0.823 0.59735 0.0
H1058 H 0.91312 0.79167 0.60117 0.0
H1059 H 0.87193 0.77094 0.63726 0.0
H1060 H 0.89457 0.6836 0.6445 0.0
H1061 H 0.88898 0.71495 0.64349 0.0
C1062 C 0.81233 0.38583 0.13861 0.0
C1063 C 0.82259 0.37487 0.12831 0.0
C1064 C 0.79459 0.38231 0.14073 0.0
C1065 C 0.75897 0.36607 0.11581 0.0
H1066 H 0.73264 0.36718 0.15878 0.0
C1067 C 0.68441 0.36819 0.11365 0.0
C1068 C 0.67629 0.37897 0.12586 0.0
C1069 C 0.70192 0.36385 0.11562 0.0
C1070 C 0.73977 0.36701 0.14665 0.0
H1071 H 0.82267 0.35123 0.11281 0.0
H1072 H 0.79141 0.34541 0.11605 0.0
H1073 H 0.76448 0.36649 0.1599 0.0
H1074 H 0.67989 0.39351 0.14983 0.0
H1075 H 0.71073 0.38693 0.15274 0.0
H1076 H 0.73472 0.36797 0.10241 0.0
C1077 C 0.7972 0.35656 0.12263 0.0
C1078 C 0.75797 0.36644 0.14734 0.0
C1079 C 0.81502 0.3599 0.1208 0.0
C1080 C 0.68588 0.38513 0.14024 0.0
C1081 C 0.70353 0.38118 0.14198 0.0
C1082 C 0.74086 0.36703 0.1151 0.0
C1083 C 0.78681 0.36794 0.13233 0.0
C1084 C 0.76767 0.36621 0.13191 0.0
C1085 C 0.71185 0.37064 0.12958 0.0
C1086 C 0.731 0.3678 0.1305 0.0
H1087 H 0.81789 0.3974 0.14463 0.0
H1088 H 0.78677 0.39134 0.14814 0.0
H1089 H 0.76624 0.36617 0.10374 0.0
H1090 H 0.67725 0.36308 0.10254 0.0
H1091 H 0.7077 0.35533 0.10604 0.0
C1092 C 0.11476 0.19607 0.61863 0.0
C1093 C 0.12829 0.18395 0.61997 0.0
C1094 C 0.11736 0.21323 0.62411 0.0
C1095 C 0.12535 0.24557 0.64667 0.0
H1096 H 0.15815 0.27248 0.61907 0.0
C1097 C 0.14775 0.3219 0.63172 0.0
C1098 C 0.13096 0.32903 0.63152 0.0
C1099 C 0.15 0.30406 0.63463 0.0
C1100 C 0.14928 0.26518 0.62729 0.0
H1101 H 0.1551 0.18014 0.62811 0.0
H1102 H 0.15985 0.21059 0.63707 0.0
H1103 H 0.15751 0.24078 0.61662 0.0
H1104 H 0.10343 0.32327 0.63472 0.0
H1105 H 0.10721 0.2923 0.63915 0.0
H1106 H 0.11692 0.26979 0.65728 0.0
C1107 C 0.14719 0.20659 0.63209 0.0
C1108 C 0.14889 0.24702 0.6258 0.0
C1109 C 0.14446 0.18926 0.62699 0.0
C1110 C 0.11654 0.31815 0.63482 0.0
C1111 C 0.11876 0.30037 0.63755 0.0
C1112 C 0.12594 0.26367 0.64842 0.0
C1113 C 0.13363 0.21866 0.63069 0.0
C1114 C 0.13647 0.23719 0.63498 0.0
C1115 C 0.13548 0.29301 0.63725 0.0
C1116 C 0.13737 0.27376 0.63816 0.0
H1117 H 0.10215 0.19228 0.61337 0.0
H1118 H 0.10679 0.2224 0.62276 0.0
H1119 H 0.11578 0.23815 0.65398 0.0
H1120 H 0.15911 0.33005 0.62936 0.0
H1121 H 0.16308 0.29888 0.63456 0.0
C1122 C 0.19221 0.5966 0.12727 0.0
C1123 C 0.17965 0.60945 0.1303 0.0
C1124 C 0.20977 0.59991 0.13085 0.0
C1125 C 0.2413 0.63542 0.13291 0.0
H1126 H 0.27123 0.6 0.15267 0.0
C1127 C 0.31889 0.62082 0.14792 0.0
C1128 C 0.32565 0.62463 0.13136 0.0
C1129 C 0.30097 0.62163 0.1509 0.0
C1130 C 0.26304 0.61016 0.14741 0.0
H1131 H 0.17568 0.63577 0.13986 0.0
H1132 H 0.2065 0.64158 0.1459 0.0
H1133 H 0.23968 0.5957 0.15283 0.0
H1134 H 0.31917 0.63315 0.10521 0.0
H1135 H 0.2879 0.63454 0.11038 0.0
H1136 H 0.26472 0.64963 0.127 0.0
C1137 C 0.20265 0.62896 0.14076 0.0
C1138 C 0.245 0.60761 0.14735 0.0
C1139 C 0.18502 0.62559 0.13734 0.0
C1140 C 0.3143 0.63007 0.11808 0.0
C1141 C 0.29642 0.63099 0.12108 0.0
C1142 C 0.25936 0.63792 0.13286 0.0
C1143 C 0.21519 0.61619 0.13742 0.0
C1144 C 0.234 0.62001 0.13971 0.0
C1145 C 0.28953 0.62641 0.1374 0.0
C1146 C 0.27042 0.62511 0.13973 0.0
H1147 H 0.18852 0.584 0.12195 0.0
H1148 H 0.21918 0.5899 0.12795 0.0
H1149 H 0.23312 0.64515 0.12687 0.0
H1150 H 0.32737 0.61668 0.15843 0.0
H1151 H 0.29601 0.61818 0.16364 0.0
C1152 C 0.88319 0.18758 0.36844 0.0
C1153 C 0.87676 0.17822 0.38275 0.0
C1154 C 0.87886 0.20507 0.36613 0.0
C1155 C 0.86274 0.2428 0.39143 0.0
H1156 H 0.86291 0.26488 0.34597 0.0
C1157 C 0.85363 0.31659 0.38301 0.0
C1158 C 0.86854 0.32432 0.37565 0.0
C1159 C 0.85092 0.2986 0.3818 0.0
C1160 C 0.86266 0.2588 0.35871 0.0
H1161 H 0.86005 0.17942 0.40539 0.0
H1162 H 0.8517 0.20956 0.40091 0.0
H1163 H 0.86452 0.23315 0.34804 0.0
H1164 H 0.89167 0.31963 0.36028 0.0
H1165 H 0.88668 0.28822 0.35782 0.0
H1166 H 0.86077 0.26852 0.402 0.0
C1167 C 0.86068 0.20374 0.39182 0.0
C1168 C 0.86376 0.24067 0.35994 0.0
C1169 C 0.86536 0.1864 0.39434 0.0
C1170 C 0.88012 0.31397 0.36615 0.0
C1171 C 0.87722 0.29605 0.36464 0.0
C1172 C 0.86127 0.26085 0.39015 0.0
C1173 C 0.86768 0.21345 0.3779 0.0
C1174 C 0.8643 0.23247 0.37636 0.0
C1175 C 0.86288 0.28818 0.37287 0.0
C1176 C 0.86166 0.26901 0.37382 0.0
H1177 H 0.89205 0.18157 0.35933 0.0
H1178 H 0.88479 0.21212 0.35545 0.0
H1179 H 0.86345 0.23711 0.40431 0.0
H1180 H 0.84451 0.32431 0.39041 0.0
H1181 H 0.83978 0.29274 0.38825 0.0
C1182 C 0.19016 0.39292 0.8771 0.0
C1183 C 0.17908 0.37852 0.87972 0.0
C1184 C 0.20776 0.39054 0.87351 0.0
C1185 C 0.24275 0.35873 0.87976 0.0
H1186 H 0.26875 0.39314 0.85317 0.0
C1187 C 0.31857 0.36242 0.87732 0.0
C1188 C 0.32437 0.37835 0.88445 0.0
C1189 C 0.30104 0.3601 0.87264 0.0
C1190 C 0.26161 0.3833 0.86042 0.0
H1191 H 0.17749 0.35029 0.87997 0.0
H1192 H 0.20833 0.34607 0.87337 0.0
H1193 H 0.23695 0.39286 0.85186 0.0
H1194 H 0.31673 0.40454 0.89155 0.0
H1195 H 0.2863 0.40063 0.88292 0.0
H1196 H 0.26757 0.34945 0.88851 0.0
C1197 C 0.20346 0.35923 0.87442 0.0
C1198 C 0.24344 0.38321 0.85981 0.0
C1199 C 0.18581 0.36164 0.87816 0.0
C1200 C 0.31256 0.39209 0.88621 0.0
C1201 C 0.29521 0.38991 0.88115 0.0
C1202 C 0.26096 0.35867 0.88014 0.0
C1203 C 0.21469 0.37368 0.87227 0.0
C1204 C 0.23378 0.37144 0.87009 0.0
C1205 C 0.28926 0.37385 0.87456 0.0
C1206 C 0.27048 0.3714 0.87103 0.0
H1207 H 0.18534 0.4061 0.87825 0.0
H1208 H 0.21603 0.40199 0.87232 0.0
H1209 H 0.23577 0.34955 0.88793 0.0
H1210 H 0.32745 0.35162 0.87589 0.0
H1211 H 0.29664 0.34759 0.86765 0.0
C1212 C 0.12985 0.8189 0.35586 0.0
C1213 C 0.128 0.8253 0.3729 0.0
C1214 C 0.13471 0.80158 0.35306 0.0
C1215 C 0.12968 0.76215 0.35286 0.0
H1216 H 0.15711 0.73704 0.38706 0.0
C1217 C 0.11974 0.69623 0.39058 0.0
C1218 C 0.12079 0.68293 0.37809 0.0
C1219 C 0.126 0.71291 0.38687 0.0
C1220 C 0.1497 0.7439 0.3772 0.0
H1221 H 0.13062 0.81896 0.40031 0.0
H1222 H 0.13865 0.78895 0.39554 0.0
H1223 H 0.1596 0.76875 0.38534 0.0
H1224 H 0.12927 0.67652 0.35195 0.0
H1225 H 0.13956 0.70621 0.34516 0.0
H1226 H 0.11938 0.73719 0.34521 0.0
C1227 C 0.1367 0.79718 0.38426 0.0
C1228 C 0.151 0.76202 0.37628 0.0
C1229 C 0.13187 0.81439 0.38703 0.0
C1230 C 0.12835 0.68658 0.36181 0.0
C1231 C 0.13423 0.70346 0.35793 0.0
C1232 C 0.1286 0.74397 0.35361 0.0
C1233 C 0.13784 0.79043 0.36727 0.0
C1234 C 0.14024 0.77141 0.3648 0.0
C1235 C 0.13311 0.71669 0.37047 0.0
C1236 C 0.13793 0.73485 0.36639 0.0
H1237 H 0.12707 0.8271 0.34472 0.0
H1238 H 0.13561 0.79681 0.33981 0.0
H1239 H 0.12116 0.76893 0.34392 0.0
H1240 H 0.11409 0.69372 0.40326 0.0
H1241 H 0.12483 0.72302 0.39664 0.0
C1242 C 0.82004 0.62418 0.87271 0.0
C1243 C 0.82563 0.60845 0.88024 0.0
C1244 C 0.80226 0.62723 0.87003 0.0
C1245 C 0.75952 0.60445 0.86748 0.0
H1246 H 0.74065 0.64735 0.88598 0.0
C1247 C 0.6919 0.60836 0.89674 0.0
C1248 C 0.68099 0.62223 0.89213 0.0
C1249 C 0.70916 0.60813 0.89128 0.0
C1250 C 0.74576 0.63548 0.88042 0.0
H1251 H 0.81692 0.58345 0.89043 0.0
H1252 H 0.78616 0.5888 0.88589 0.0
H1253 H 0.77225 0.64419 0.88329 0.0
H1254 H 0.67968 0.64685 0.87829 0.0
H1255 H 0.71031 0.64662 0.8691 0.0
H1256 H 0.73312 0.59537 0.86555 0.0
C1257 C 0.79545 0.59873 0.88189 0.0
C1258 C 0.76382 0.63366 0.87886 0.0
C1259 C 0.81312 0.59573 0.88466 0.0
C1260 C 0.68779 0.63597 0.88201 0.0
C1261 C 0.70525 0.63587 0.87677 0.0
C1262 C 0.74155 0.60623 0.86913 0.0
C1263 C 0.7898 0.61453 0.87466 0.0
C1264 C 0.77087 0.61785 0.87303 0.0
C1265 C 0.71601 0.62185 0.88126 0.0
C1266 C 0.73456 0.62149 0.87623 0.0
H1267 H 0.82934 0.63425 0.86912 0.0
H1268 H 0.79826 0.6395 0.86439 0.0
H1269 H 0.76458 0.59228 0.86257 0.0
H1270 H 0.68706 0.59752 0.90442 0.0
H1271 H 0.71728 0.59729 0.89514 0.0
C1272 C 0.59491 0.88565 0.81042 0.0
C1273 C 0.6076 0.88236 0.82323 0.0
C1274 C 0.59834 0.88244 0.79292 0.0
C1275 C 0.63385 0.88057 0.76185 0.0
H1276 H 0.59664 0.86441 0.73128 0.0
C1277 C 0.63612 0.88392 0.68582 0.0
C1278 C 0.62204 0.89363 0.67934 0.0
C1279 C 0.63627 0.87832 0.70319 0.0
C1280 C 0.60723 0.86874 0.73968 0.0
H1281 H 0.63381 0.87279 0.82767 0.0
H1282 H 0.63983 0.86734 0.79687 0.0
H1283 H 0.59341 0.86166 0.76277 0.0
H1284 H 0.59695 0.90472 0.68578 0.0
H1285 H 0.59714 0.89475 0.71582 0.0
H1286 H 0.64733 0.88828 0.73862 0.0
C1287 C 0.62724 0.87242 0.80051 0.0
C1288 C 0.60536 0.86723 0.75766 0.0
C1289 C 0.62376 0.87552 0.81812 0.0
C1290 C 0.60805 0.89738 0.69041 0.0
C1291 C 0.60806 0.89153 0.70756 0.0
C1292 C 0.63576 0.88198 0.74379 0.0
C1293 C 0.61455 0.8759 0.78774 0.0
C1294 C 0.61829 0.87388 0.76894 0.0
C1295 C 0.62216 0.882 0.71413 0.0
C1296 C 0.62211 0.87678 0.73263 0.0
H1297 H 0.58231 0.89085 0.81384 0.0
H1298 H 0.58841 0.88558 0.78337 0.0
H1299 H 0.64402 0.88584 0.77024 0.0
H1300 H 0.64709 0.88087 0.67755 0.0
H1301 H 0.64731 0.87104 0.70805 0.0
C1302 C 0.62433 0.14183 0.19035 0.0
C1303 C 0.63585 0.132 0.18024 0.0
C1304 C 0.62749 0.1443 0.2081 0.0
C1305 C 0.64422 0.12084 0.24416 0.0
H1306 H 0.64194 0.1643 0.26984 0.0
C1307 C 0.64301 0.11985 0.31861 0.0
C1308 C 0.63202 0.13174 0.32688 0.0
C1309 C 0.6471 0.12181 0.30104 0.0
C1310 C 0.64243 0.15203 0.26289 0.0
H1311 H 0.66003 0.1176 0.18049 0.0
H1312 H 0.66523 0.12141 0.2118 0.0
H1313 H 0.64246 0.16477 0.23798 0.0
H1314 H 0.61692 0.1552 0.3235 0.0
H1315 H 0.62305 0.15806 0.29251 0.0
H1316 H 0.64283 0.10787 0.2686 0.0
C1317 C 0.65392 0.12739 0.20586 0.0
C1318 C 0.6429 0.15236 0.24469 0.0
C1319 C 0.65095 0.12523 0.18802 0.0
C1320 C 0.62548 0.14588 0.31739 0.0
C1321 C 0.62915 0.14758 0.29965 0.0
C1322 C 0.64336 0.12047 0.26228 0.0
C1323 C 0.64205 0.13669 0.21607 0.0
C1324 C 0.64362 0.13674 0.23521 0.0
C1325 C 0.6398 0.13539 0.29116 0.0
C1326 C 0.64224 0.13604 0.27193 0.0
H1327 H 0.61264 0.14726 0.18464 0.0
H1328 H 0.61809 0.15138 0.21578 0.0
H1329 H 0.64449 0.10862 0.23708 0.0
H1330 H 0.64842 0.10895 0.32567 0.0
H1331 H 0.65577 0.11246 0.29517 0.0
C1332 C 0.40817 0.11091 0.68942 0.0
C1333 C 0.3933 0.11294 0.67897 0.0
C1334 C 0.40721 0.11312 0.70739 0.0
C1335 C 0.37917 0.12841 0.74371 0.0
H1336 H 0.40672 0.09478 0.7692 0.0
C1337 C 0.38993 0.13038 0.81875 0.0
C1338 C 0.39317 0.11449 0.82714 0.0
C1339 C 0.38743 0.13083 0.80067 0.0
C1340 C 0.39866 0.10409 0.76237 0.0
H1341 H 0.36591 0.11957 0.67883 0.0
H1342 H 0.36396 0.12264 0.71052 0.0
H1343 H 0.40754 0.09494 0.73785 0.0
H1344 H 0.39469 0.08653 0.82386 0.0
H1345 H 0.38929 0.08709 0.79262 0.0
H1346 H 0.36977 0.137 0.76851 0.0
C1347 C 0.37648 0.11976 0.70481 0.0
C1348 C 0.39944 0.10444 0.74429 0.0
C1349 C 0.37756 0.11792 0.68669 0.0
C1350 C 0.39253 0.09897 0.81754 0.0
C1351 C 0.38957 0.09934 0.79964 0.0
C1352 C 0.3782 0.12791 0.76193 0.0
C1353 C 0.39123 0.11693 0.71539 0.0
C1354 C 0.3899 0.11671 0.7347 0.0
C1355 C 0.38779 0.11532 0.79084 0.0
C1356 C 0.38799 0.11573 0.77147 0.0
H1357 H 0.42055 0.10742 0.68371 0.0
H1358 H 0.41897 0.11146 0.71505 0.0
H1359 H 0.3717 0.13809 0.73672 0.0
H1360 H 0.39037 0.14251 0.82599 0.0
H1361 H 0.38615 0.14337 0.79435 0.0
C1362 C 0.35531 0.88517 0.18677 0.0
C1363 C 0.37026 0.87848 0.17879 0.0
C1364 C 0.35299 0.88342 0.20473 0.0
C1365 C 0.36444 0.85847 0.24315 0.0
H1366 H 0.36407 0.90243 0.26807 0.0
C1367 C 0.37892 0.86274 0.31679 0.0
C1368 C 0.3718 0.87644 0.32644 0.0
C1369 C 0.37629 0.86181 0.29879 0.0
C1370 C 0.3637 0.88998 0.26143 0.0
H1371 H 0.39405 0.86401 0.18304 0.0
H1372 H 0.38968 0.86053 0.2144 0.0
H1373 H 0.36311 0.90235 0.23643 0.0
H1374 H 0.35557 0.89936 0.32514 0.0
H1375 H 0.35009 0.89722 0.29399 0.0
H1376 H 0.36469 0.84598 0.26803 0.0
C1377 C 0.37991 0.86726 0.20677 0.0
C1378 C 0.36326 0.88999 0.24326 0.0
C1379 C 0.38244 0.86934 0.18889 0.0
C1380 C 0.36139 0.88876 0.31796 0.0
C1381 C 0.35838 0.88759 0.30004 0.0
C1382 C 0.36448 0.85841 0.26136 0.0
C1383 C 0.36536 0.8746 0.21486 0.0
C1384 C 0.36394 0.87428 0.234 0.0
C1385 C 0.36614 0.87435 0.29012 0.0
C1386 C 0.36447 0.8742 0.27076 0.0
H1387 H 0.34574 0.89229 0.17926 0.0
H1388 H 0.34168 0.88919 0.21077 0.0
H1389 H 0.3649 0.84619 0.23619 0.0
H1390 H 0.38708 0.85311 0.32304 0.0
H1391 H 0.38275 0.85158 0.29165 0.0
C1392 C 0.13547 0.08472 0.57557 0.0
C1393 C 0.12463 0.09856 0.58035 0.0
C1394 C 0.13361 0.07692 0.55916 0.0
C1395 C 0.1056 0.07396 0.51986 0.0
H1396 H 0.14709 0.0879 0.4946 0.0
C1397 C 0.10221 0.11007 0.45658 0.0
C1398 C 0.11605 0.11027 0.44467 0.0
C1399 C 0.10287 0.09968 0.47141 0.0
C1400 C 0.13553 0.0833 0.5013 0.0
H1401 H 0.1024 0.114 0.57271 0.0
H1402 H 0.09878 0.10009 0.54437 0.0
H1403 H 0.14839 0.08476 0.52605 0.0
H1404 H 0.14088 0.09865 0.4383 0.0
H1405 H 0.14209 0.0804 0.46445 0.0
H1406 H 0.09247 0.07344 0.49522 0.0
C1407 C 0.1088 0.09532 0.55311 0.0
C1408 C 0.1363 0.08151 0.51939 0.0
C1409 C 0.11093 0.10339 0.56926 0.0
C1410 C 0.13008 0.0989 0.44733 0.0
C1411 C 0.13078 0.08848 0.46231 0.0
C1412 C 0.10488 0.07548 0.50174 0.0
C1413 C 0.12058 0.08256 0.54759 0.0
C1414 C 0.12107 0.07798 0.52889 0.0
C1415 C 0.11741 0.08917 0.47479 0.0
C1416 C 0.11954 0.08143 0.49242 0.0
H1417 H 0.14618 0.08085 0.58392 0.0
H1418 H 0.14289 0.06717 0.55514 0.0
H1419 H 0.09373 0.07101 0.52692 0.0
H1420 H 0.09106 0.11846 0.45482 0.0
H1421 H 0.09243 0.10083 0.48078 0.0
C1422 C 0.41723 0.60466 0.94708 0.0
C1423 C 0.41699 0.61834 0.93502 0.0
C1424 C 0.42406 0.60732 0.96374 0.0
C1425 C 0.42365 0.64256 0.9942 0.0
H1426 H 0.44144 0.60745 0.02577 0.0
C1427 C 0.40491 0.6462 0.06522 0.0
C1428 C 0.39863 0.63039 0.07196 0.0
C1429 C 0.41546 0.64638 0.05047 0.0
C1430 C 0.43649 0.61744 0.01716 0.0
H1431 H 0.42454 0.64511 0.93012 0.0
H1432 H 0.43646 0.64995 0.9595 0.0
H1433 H 0.44619 0.60451 0.99445 0.0
H1434 H 0.39913 0.60233 0.06951 0.0
H1435 H 0.4167 0.60251 0.04309 0.0
H1436 H 0.4126 0.65474 0.01636 0.0
C1437 C 0.43155 0.63711 0.95605 0.0
C1438 C 0.43933 0.61581 0.99923 0.0
C1439 C 0.42484 0.63435 0.93927 0.0
C1440 C 0.40393 0.61466 0.06448 0.0
C1441 C 0.41411 0.61483 0.04941 0.0
C1442 C 0.42066 0.6441 0.01202 0.0
C1443 C 0.43045 0.62384 0.9687 0.0
C1444 C 0.43223 0.62795 0.98752 0.0
C1445 C 0.4194 0.63075 0.04179 0.0
C1446 C 0.42633 0.63114 0.02368 0.0
H1447 H 0.41101 0.59228 0.94402 0.0
H1448 H 0.42278 0.59691 0.97319 0.0
H1449 H 0.4178 0.65203 0.98556 0.0
H1450 H 0.40107 0.65847 0.07099 0.0
H1451 H 0.41971 0.65885 0.04534 0.0
C1452 C 0.86909 0.91312 0.45112 0.0
C1453 C 0.88398 0.90288 0.4487 0.0
C1454 C 0.8682 0.92467 0.46525 0.0
C1455 C 0.86529 0.93179 0.50415 0.0
H1456 H 0.90708 0.95022 0.52639 0.0
C1457 C 0.89791 0.91584 0.56936 0.0
C1458 C 0.88411 0.91767 0.58108 0.0
C1459 C 0.89785 0.92486 0.55361 0.0
C1460 C 0.89514 0.94557 0.52029 0.0
H1461 H 0.91017 0.89789 0.45812 0.0
H1462 H 0.90858 0.91759 0.48261 0.0
H1463 H 0.90633 0.94636 0.49481 0.0
H1464 H 0.86015 0.93133 0.58639 0.0
H1465 H 0.85966 0.94671 0.55835 0.0
H1466 H 0.85458 0.92979 0.52971 0.0
C1467 C 0.89757 0.91694 0.47373 0.0
C1468 C 0.89473 0.94326 0.50223 0.0
C1469 C 0.89839 0.90538 0.4598 0.0
C1470 C 0.87098 0.92982 0.57754 0.0
C1471 C 0.87068 0.93856 0.56152 0.0
C1472 C 0.86565 0.93427 0.52218 0.0
C1473 C 0.88226 0.92629 0.47703 0.0
C1474 C 0.8803 0.93505 0.49418 0.0
C1475 C 0.88374 0.93555 0.54912 0.0
C1476 C 0.88105 0.93994 0.53051 0.0
H1477 H 0.85782 0.91156 0.44268 0.0
H1478 H 0.85626 0.93177 0.46739 0.0
H1479 H 0.85394 0.92548 0.49842 0.0
H1480 H 0.90818 0.90656 0.57186 0.0
H1481 H 0.908 0.92209 0.54428 0.0
C1482 C 0.58299 0.37318 0.93948 0.0
C1483 C 0.59267 0.38835 0.93598 0.0
C1484 C 0.57439 0.37138 0.95544 0.0
C1485 C 0.5638 0.39472 0.99689 0.0
H1486 H 0.58373 0.3537 0.0182 0.0
C1487 C 0.59561 0.39521 0.06363 0.0
C1488 C 0.59874 0.37941 0.07214 0.0
C1489 C 0.58549 0.39544 0.04842 0.0
C1490 C 0.57749 0.365 0.01261 0.0
H1491 H 0.6002 0.4139 0.94539 0.0
H1492 H 0.58525 0.41092 0.97313 0.0
H1493 H 0.58221 0.35571 0.9869 0.0
H1494 H 0.59251 0.35188 0.07293 0.0
H1495 H 0.57404 0.35234 0.04693 0.0
H1496 H 0.56008 0.40444 0.02276 0.0
C1497 C 0.58396 0.40046 0.96371 0.0
C1498 C 0.57662 0.36614 0.99451 0.0
C1499 C 0.59265 0.40215 0.9479 0.0
C1500 C 0.59022 0.36419 0.06644 0.0
C1501 C 0.5798 0.36447 0.05148 0.0
C1502 C 0.56456 0.39354 0.01507 0.0
C1503 C 0.57537 0.38477 0.96799 0.0
C1504 C 0.57075 0.38144 0.98645 0.0
C1505 C 0.57824 0.37986 0.04165 0.0
C1506 C 0.57239 0.3791 0.02312 0.0
H1507 H 0.58304 0.36234 0.93042 0.0
H1508 H 0.56785 0.35916 0.95838 0.0
H1509 H 0.55891 0.40655 0.99101 0.0
H1510 H 0.60224 0.40704 0.0678 0.0
H1511 H 0.58475 0.40754 0.04122 0.0
C1512 C 0.11356 0.92799 0.56402 0.0
C1513 C 0.1261 0.915 0.56644 0.0
C1514 C 0.11082 0.93508 0.54742 0.0
C1515 C 0.12719 0.93506 0.5017 0.0
H1516 H 0.0804 0.91912 0.49019 0.0
C1517 C 0.09949 0.886 0.45065 0.0
C1518 C 0.10675 0.89204 0.43502 0.0
C1519 C 0.09786 0.89717 0.46486 0.0
C1520 C 0.09336 0.92406 0.49315 0.0
H1521 H 0.14688 0.90063 0.55426 0.0
H1522 H 0.14254 0.91324 0.52558 0.0
H1523 H 0.08794 0.92569 0.52037 0.0
H1524 H 0.11695 0.91472 0.42151 0.0
H1525 H 0.11462 0.93425 0.44672 0.0
H1526 H 0.13304 0.93177 0.47469 0.0
C1527 C 0.13468 0.91797 0.53624 0.0
C1528 C 0.09767 0.92796 0.51043 0.0
C1529 C 0.13714 0.91064 0.55266 0.0
C1530 C 0.11125 0.90977 0.43343 0.0
C1531 C 0.10996 0.92092 0.44783 0.0
C1532 C 0.12284 0.93125 0.4844 0.0
C1533 C 0.12086 0.92951 0.53321 0.0
C1534 C 0.11495 0.93231 0.51501 0.0
C1535 C 0.10376 0.91455 0.46383 0.0
C1536 C 0.10622 0.92457 0.48019 0.0
H1537 H 0.1048 0.93142 0.57448 0.0
H1538 H 0.10009 0.94395 0.54543 0.0
H1539 H 0.14055 0.93856 0.50487 0.0
H1540 H 0.09586 0.87239 0.45216 0.0
H1541 H 0.09325 0.89179 0.47706 0.0
C1542 C 0.59694 0.61289 0.93824 0.0
C1543 C 0.59388 0.62697 0.92706 0.0
C1544 C 0.58839 0.61174 0.95417 0.0
C1545 C 0.5671 0.61122 0.98728 0.0
H1546 H 0.58506 0.65168 0.01205 0.0
C1547 C 0.59601 0.63426 0.05907 0.0
C1548 C 0.60648 0.61949 0.06136 0.0
C1549 C 0.58511 0.63562 0.04442 0.0
C1550 C 0.57934 0.64048 0.00549 0.0
H1551 H 0.57871 0.6503 0.92304 0.0
H1552 H 0.56418 0.6487 0.95146 0.0
H1553 H 0.58153 0.65285 0.98063 0.0
H1554 H 0.61253 0.59393 0.05103 0.0
H1555 H 0.59401 0.59637 0.02564 0.0
H1556 H 0.56599 0.59847 0.01203 0.0
C1557 C 0.5729 0.63836 0.94767 0.0
C1558 C 0.57732 0.64117 0.98741 0.0
C1559 C 0.58118 0.63926 0.93146 0.0
C1560 C 0.60485 0.60561 0.0495 0.0
C1561 C 0.59396 0.60692 0.03502 0.0
C1562 C 0.56891 0.6106 0.00539 0.0
C1563 C 0.57692 0.6249 0.9594 0.0
C1564 C 0.57236 0.62616 0.97806 0.0
C1565 C 0.5844 0.62216 0.03195 0.0
C1566 C 0.57632 0.6248 0.01451 0.0
H1567 H 0.60667 0.60325 0.9351 0.0
H1568 H 0.59193 0.60134 0.96301 0.0
H1569 H 0.56303 0.59955 0.98036 0.0
H1570 H 0.5969 0.64512 0.06808 0.0
H1571 H 0.57781 0.64748 0.04249 0.0
C1572 C 0.85994 0.09385 0.44338 0.0
C1573 C 0.87549 0.10133 0.43727 0.0
C1574 C 0.86008 0.08298 0.45794 0.0
C1575 C 0.88941 0.06375 0.49223 0.0
H1576 H 0.85359 0.08153 0.52274 0.0
C1577 C 0.90106 0.08538 0.56165 0.0
C1578 C 0.88729 0.0858 0.57352 0.0
C1579 C 0.89867 0.07787 0.54526 0.0
C1580 C 0.86343 0.0759 0.51443 0.0
H1581 H 0.90348 0.10252 0.44052 0.0
H1582 H 0.90379 0.08431 0.46657 0.0
H1583 H 0.85094 0.08575 0.49177 0.0
H1584 H 0.86064 0.07788 0.57843 0.0
H1585 H 0.85631 0.06465 0.54957 0.0
H1586 H 0.90254 0.05524 0.5154 0.0
C1587 C 0.89148 0.08623 0.45992 0.0
C1588 C 0.86193 0.07833 0.4965 0.0
C1589 C 0.89136 0.09677 0.44504 0.0
C1590 C 0.87147 0.07746 0.56942 0.0
C1591 C 0.869 0.07001 0.55293 0.0
C1592 C 0.89097 0.06142 0.51026 0.0
C1593 C 0.87573 0.0799 0.46705 0.0
C1594 C 0.87531 0.07309 0.48522 0.0
C1595 C 0.88233 0.07091 0.54038 0.0
C1596 C 0.87841 0.06828 0.52159 0.0
H1597 H 0.84757 0.09714 0.4374 0.0
H1598 H 0.84777 0.07792 0.46271 0.0
H1599 H 0.89974 0.05914 0.48391 0.0
H1600 H 0.9133 0.09197 0.56459 0.0
H1601 H 0.90915 0.07902 0.5359 0.0
C1602 C 0.42358 0.36952 0.92858 0.0
C1603 C 0.40997 0.38063 0.92367 0.0
C1604 C 0.43139 0.37123 0.94504 0.0
C1605 C 0.42678 0.36876 0.98485 0.0
H1606 H 0.4355 0.41257 0.00868 0.0
C1607 C 0.39872 0.40352 0.04725 0.0
C1608 C 0.39845 0.38979 0.05933 0.0
C1609 C 0.40905 0.40264 0.03243 0.0
C1610 C 0.43329 0.40016 1.00225 0.0
H1611 H 0.39494 0.40315 0.93113 0.0
H1612 H 0.40887 0.40651 0.95951 0.0
H1613 H 0.43798 0.41112 0.977 0.0
H1614 H 0.40985 0.3649 0.06604 0.0
H1615 H 0.42799 0.36329 0.0399 0.0
H1616 H 0.42021 0.35819 0.00971 0.0
C1617 C 0.41346 0.3964 0.95086 0.0
C1618 C 0.43484 0.39933 0.98415 0.0
C1619 C 0.40538 0.39441 0.93467 0.0
C1620 C 0.40968 0.37563 0.05687 0.0
C1621 C 0.42003 0.3747 0.0419 0.0
C1622 C 0.425 0.36964 0.00293 0.0
C1623 C 0.42599 0.38438 0.95651 0.0
C1624 C 0.43057 0.38388 0.97523 0.0
C1625 C 0.41942 0.38798 0.02926 0.0
C1626 C 0.42711 0.38564 0.01167 0.0
H1627 H 0.42724 0.35874 0.92029 0.0
H1628 H 0.44095 0.36177 0.94916 0.0
H1629 H 0.42335 0.35669 0.97828 0.0
H1630 H 0.39043 0.41475 0.04887 0.0
H1631 H 0.40797 0.41301 0.02293 0.0
C1632 C 0.57197 0.11578 0.09909 0.0
C1633 C 0.57336 0.13097 0.10925 0.0
C1634 C 0.55706 0.1127 0.0889 0.0
C1635 C 0.51565 0.13239 0.07311 0.0
H1636 H 0.49463 0.09089 0.09298 0.0
C1637 C 0.44624 0.13048 0.09723 0.0
C1638 C 0.43841 0.11445 0.10135 0.0
C1639 C 0.46226 0.13094 0.08864 0.0
C1640 C 0.50017 0.10226 0.08668 0.0
H1641 H 0.56127 0.15564 0.11537 0.0
H1642 H 0.53542 0.15035 0.09766 0.0
H1643 H 0.52576 0.09491 0.09459 0.0
H1644 H 0.43962 0.08651 0.0978 0.0
H1645 H 0.467 0.08727 0.0818 0.0
H1646 H 0.48987 0.14014 0.06594 0.0
C1647 C 0.5457 0.14076 0.09751 0.0
C1648 C 0.51819 0.10455 0.08765 0.0
C1649 C 0.5604 0.14369 0.10787 0.0
C1650 C 0.44566 0.09902 0.09499 0.0
C1651 C 0.4614 0.09948 0.08594 0.0
C1652 C 0.49758 0.12999 0.0719 0.0
C1653 C 0.54352 0.12493 0.08851 0.0
C1654 C 0.52596 0.12012 0.08189 0.0
C1655 C 0.47051 0.11534 0.08373 0.0
C1656 C 0.48951 0.11542 0.07973 0.0
H1657 H 0.58185 0.1058 0.09987 0.0
H1658 H 0.5557 0.1004 0.08207 0.0
H1659 H 0.52139 0.1444 0.06831 0.0
H1660 H 0.44083 0.14255 0.10205 0.0
H1661 H 0.46878 0.14344 0.08731 0.0
C1662 C 0.36808 0.95536 0.60012 0.0
C1663 C 0.37935 0.94195 0.59518 0.0
C1664 C 0.36883 0.97147 0.59173 0.0
C1665 C 0.39958 1.00085 0.58134 0.0
H1666 H 0.36551 0.02801 0.55599 0.0
C1667 C 0.40285 0.07412 0.58797 0.0
C1668 C 0.38667 0.08192 0.59064 0.0
C1669 C 0.40374 0.05773 0.58007 0.0
C1670 C 0.37517 0.02069 0.56316 0.0
H1671 H 0.39952 0.9344 0.57708 0.0
H1672 H 0.40142 0.96308 0.56296 0.0
H1673 H 0.36189 0.99637 0.5581 0.0
H1674 H 0.35888 0.07959 0.58647 0.0
H1675 H 0.3601 0.05063 0.57395 0.0
H1676 H 0.41183 0.02474 0.58839 0.0
C1677 C 0.39169 0.96084 0.57292 0.0
C1678 C 0.37317 1.00255 0.56411 0.0
C1679 C 0.3906 0.94453 0.581 0.0
C1680 C 0.37152 0.07379 0.58431 0.0
C1681 C 0.37231 0.05714 0.57702 0.0
C1682 C 0.40133 0.01894 0.58086 0.0
C1683 C 0.38111 0.97452 0.57857 0.0
C1684 C 0.3851 0.99264 0.57365 0.0
C1685 C 0.38838 0.04848 0.57557 0.0
C1686 C 0.38875 0.02924 0.57237 0.0
H1687 H 0.35931 0.95365 0.61101 0.0
H1688 H 0.36076 0.98198 0.59643 0.0
H1689 H 0.4088 0.99339 0.58897 0.0
H1690 H 0.41471 0.08029 0.59272 0.0
H1691 H 0.41644 0.05193 0.57854 0.0
C1692 C 0.43694 0.89266 0.10164 0.0
C1693 C 0.42878 0.87668 0.10525 0.0
C1694 C 0.4525 0.89309 0.09223 0.0
C1695 C 0.48945 0.86382 0.08693 0.0
H1696 H 0.51027 0.90535 0.06681 0.0
C1697 C 0.56203 0.87457 0.09428 0.0
C1698 C 0.56496 0.89011 0.1036 0.0
C1699 C 0.54643 0.87203 0.08504 0.0
C1700 C 0.50462 0.89353 0.07216 0.0
H1701 H 0.42904 0.84889 0.10052 0.0
H1702 H 0.45567 0.84964 0.08324 0.0
H1703 H 0.47856 0.90213 0.06737 0.0
H1704 H 0.55495 0.91593 0.1088 0.0
H1705 H 0.52787 0.9115 0.09293 0.0
H1706 H 0.51532 0.85566 0.09267 0.0
C1707 C 0.45059 0.8618 0.08815 0.0
C1708 C 0.48646 0.89172 0.07257 0.0
C1709 C 0.43529 0.86135 0.09791 0.0
C1710 C 0.55291 0.90369 0.10199 0.0
C1711 C 0.53745 0.90122 0.09268 0.0
C1712 C 0.50754 0.86558 0.0864 0.0
C1713 C 0.45998 0.87752 0.08613 0.0
C1714 C 0.47866 0.8773 0.08089 0.0
C1715 C 0.53362 0.88506 0.08486 0.0
C1716 C 0.5153 0.8809 0.07996 0.0
H1717 H 0.43211 0.9046 0.10733 0.0
H1718 H 0.45934 0.90544 0.0911 0.0
H1719 H 0.48408 0.85257 0.09358 0.0
H1720 H 0.57116 0.86392 0.09519 0.0
H1721 H 0.54391 0.8595 0.07898 0.0
C1722 C 0.64371 0.05366 0.59821 0.0
C1723 C 0.63296 0.06712 0.59235 0.0
C1724 C 0.64433 0.03793 0.58919 0.0
C1725 C 0.61441 0.01005 0.56684 0.0
H1726 H 0.65441 0.97956 0.56753 0.0
C1727 C 0.63507 0.93317 0.5774 0.0
C1728 C 0.62555 0.93088 0.59283 0.0
C1729 C 0.63434 0.94901 0.56836 0.0
C1730 C 0.64308 0.98784 0.5667 0.0
H1731 H 0.61518 0.07526 0.57198 0.0
H1732 H 0.61576 0.04727 0.55638 0.0
H1733 H 0.65885 0.01102 0.56719 0.0
H1734 H 0.60651 0.94247 0.60994 0.0
H1735 H 0.60511 0.96987 0.59426 0.0
H1736 H 0.59866 0.98687 0.56772 0.0
C1737 C 0.62394 0.04907 0.5678 0.0
C1738 C 0.64565 0.00588 0.56662 0.0
C1739 C 0.62365 0.06504 0.57667 0.0
C1740 C 0.61411 0.94396 0.59817 0.0
C1741 C 0.61318 0.95962 0.58904 0.0
C1742 C 0.61184 0.99199 0.56696 0.0
C1743 C 0.63391 0.03519 0.5743 0.0
C1744 C 0.63136 0.01712 0.56786 0.0
C1745 C 0.62385 0.96263 0.57448 0.0
C1746 C 0.62617 0.98075 0.56806 0.0
H1747 H 0.65103 0.05496 0.61025 0.0
H1748 H 0.65194 0.02745 0.5947 0.0
H1749 H 0.60313 0.01838 0.56778 0.0
H1750 H 0.64397 0.92324 0.573 0.0
H1751 H 0.64264 0.95094 0.55713 0.0
C1752 C 0.45436 0.86236 0.90587 0.0
C1753 C 0.4406 0.8723 0.91234 0.0
C1754 C 0.47046 0.86238 0.91435 0.0
C1755 C 0.49752 0.89312 0.93691 0.0
H1756 H 0.5301 0.85487 0.93496 0.0
C1757 C 0.57543 0.87687 0.92646 0.0
C1758 C 0.57725 0.88679 0.91118 0.0
C1759 C 0.55955 0.87661 0.93538 0.0
C1760 C 0.52122 0.8657 0.93612 0.0
H1761 H 0.43238 0.88918 0.93334 0.0
H1762 H 0.46089 0.88963 0.94803 0.0
H1763 H 0.49888 0.84875 0.93511 0.0
H1764 H 0.56479 0.90559 0.8943 0.0
H1765 H 0.5373 0.90533 0.90985 0.0
H1766 H 0.51986 0.9101 0.93657 0.0
C1767 C 0.4591 0.88166 0.93649 0.0
C1768 C 0.50333 0.86217 0.93608 0.0
C1769 C 0.44282 0.88136 0.92813 0.0
C1770 C 0.56366 0.89773 0.90597 0.0
C1771 C 0.54794 0.89768 0.915 0.0
C1772 C 0.51543 0.89665 0.93689 0.0
C1773 C 0.47321 0.87259 0.92935 0.0
C1774 C 0.49133 0.87588 0.9354 0.0
C1775 C 0.54543 0.88651 0.92931 0.0
C1776 C 0.52741 0.88299 0.93541 0.0
H1777 H 0.45295 0.85522 0.89375 0.0
H1778 H 0.48111 0.85543 0.90838 0.0
H1779 H 0.4886 0.90397 0.93639 0.0
H1780 H 0.58576 0.86833 0.93074 0.0
H1781 H 0.55799 0.86795 0.94642 0.0
C1782 C 0.59242 0.94803 0.40716 0.0
C1783 C 0.6081 0.9407 0.40152 0.0
C1784 C 0.59257 0.96343 0.41686 0.0
C1785 C 0.62254 0.99806 0.4354 0.0
H1786 H 0.5897 0.02832 0.41203 0.0
C1787 C 0.64012 0.06176 0.40414 0.0
C1788 C 0.62757 0.07468 0.40142 0.0
C1789 C 0.63622 0.04713 0.41416 0.0
C1790 C 0.59867 0.02015 0.41921 0.0
H1791 H 0.63623 0.94272 0.4027 0.0
H1792 H 0.63662 0.97013 0.41866 0.0
H1793 H 0.58512 0.99725 0.41112 0.0
H1794 H 0.60175 0.08339 0.40842 0.0
H1795 H 0.5947 0.05741 0.42571 0.0
H1796 H 0.63694 0.02128 0.44191 0.0
C1797 C 0.62414 0.96386 0.41619 0.0
C1798 C 0.59606 1.00216 0.41869 0.0
C1799 C 0.62397 0.94819 0.40689 0.0
C1800 C 0.61161 0.07354 0.41026 0.0
C1801 C 0.60759 0.05869 0.42013 0.0
C1802 C 0.62524 0.01612 0.43575 0.0
C1803 C 0.6084 0.97212 0.42057 0.0
C1804 C 0.60851 0.99082 0.42586 0.0
C1805 C 0.61958 0.04498 0.42147 0.0
C1806 C 0.61387 0.02724 0.42673 0.0
H1807 H 0.58001 0.94225 0.40343 0.0
H1808 H 0.58022 0.96906 0.42049 0.0
H1809 H 0.6321 0.98976 0.44155 0.0
H1810 H 0.65262 0.06248 0.39765 0.0
H1811 H 0.64572 0.03678 0.41478 0.0
C1812 C 0.43306 0.13188 0.92806 0.0
C1813 C 0.43087 0.12152 0.91309 0.0
C1814 C 0.44916 0.13242 0.93676 0.0
C1815 C 0.48759 0.14313 0.93739 0.0
H1816 H 0.51997 0.10464 0.9375 0.0
C1817 C 0.5534 0.14595 0.90595 0.0
C1818 C 0.56715 0.13551 0.91173 0.0
C1819 C 0.53772 0.14624 0.91502 0.0
C1820 C 0.51115 0.11556 0.93809 0.0
H1821 H 0.44303 0.10236 0.89649 0.0
H1822 H 0.47089 0.10315 0.91159 0.0
H1823 H 0.48872 0.09872 0.93806 0.0
H1824 H 0.57591 0.11816 0.93217 0.0
H1825 H 0.54815 0.11831 0.94793 0.0
H1826 H 0.51001 0.15993 0.93616 0.0
C1827 C 0.46035 0.1109 0.91671 0.0
C1828 C 0.49322 0.11215 0.93826 0.0
C1829 C 0.44442 0.11056 0.90791 0.0
C1830 C 0.56547 0.12635 0.92749 0.0
C1831 C 0.5496 0.12639 0.93645 0.0
C1832 C 0.50551 0.14654 0.9372 0.0
C1833 C 0.46316 0.12238 0.93076 0.0
C1834 C 0.48129 0.12586 0.93676 0.0
C1835 C 0.53537 0.13587 0.92994 0.0
C1836 C 0.51742 0.13276 0.9364 0.0
H1837 H 0.42277 0.14044 0.93232 0.0
H1838 H 0.45093 0.14133 0.94759 0.0
H1839 H 0.47876 0.154 0.93625 0.0
H1840 H 0.55441 0.15319 0.89388 0.0
H1841 H 0.527 0.15352 0.9095 0.0
C1842 C 0.35683 0.9358 0.41234 0.0
C1843 C 0.37167 0.92894 0.40439 0.0
C1844 C 0.35807 0.95108 0.42215 0.0
C1845 C 0.38949 0.98695 0.43521 0.0
H1846 H 0.35327 0.0155 0.4149 0.0
C1847 C 0.40201 0.05071 0.40084 0.0
C1848 C 0.38894 0.06335 0.39945 0.0
C1849 C 0.39942 0.03586 0.41097 0.0
C1850 C 0.36329 0.00785 0.4212 0.0
H1851 H 0.39958 0.93147 0.40151 0.0
H1852 H 0.40178 0.95865 0.41776 0.0
H1853 H 0.34921 0.9844 0.41621 0.0
H1854 H 0.36356 0.07112 0.40889 0.0
H1855 H 0.35892 0.04491 0.42647 0.0
H1856 H 0.40416 0.01066 0.43863 0.0
C1857 C 0.38921 0.95213 0.41709 0.0
C1858 C 0.36096 0.98984 0.422 0.0
C1859 C 0.38801 0.93657 0.40767 0.0
C1860 C 0.3738 0.06152 0.40956 0.0
C1861 C 0.37115 0.04653 0.41963 0.0
C1862 C 0.39188 0.00503 0.43427 0.0
C1863 C 0.37408 0.96014 0.42355 0.0
C1864 C 0.37445 0.97905 0.42804 0.0
C1865 C 0.38365 0.03324 0.41988 0.0
C1866 C 0.3792 0.01552 0.4263 0.0
H1867 H 0.3441 0.92997 0.40999 0.0
H1868 H 0.34624 0.95654 0.42741 0.0
H1869 H 0.39995 0.97911 0.44043 0.0
H1870 H 0.41396 0.05188 0.39344 0.0
H1871 H 0.40926 0.02583 0.41071 0.0
C1872 C 0.09574 0.4509 0.13027 0.0
C1873 C 0.1073 0.44839 0.11634 0.0
C1874 C 0.08489 0.46549 0.1306 0.0
C1875 C 0.06969 0.50293 0.10335 0.0
H1876 H 0.07784 0.52978 0.14543 0.0
C1877 C 0.09412 0.57171 0.10507 0.0
C1878 C 0.09041 0.58275 0.11908 0.0
C1879 C 0.08592 0.55549 0.10368 0.0
C1880 C 0.07484 0.52238 0.13374 0.0
H1881 H 0.11564 0.45858 0.09131 0.0
H1882 H 0.09714 0.48386 0.09201 0.0
H1883 H 0.08301 0.49862 0.14559 0.0
H1884 H 0.07428 0.58635 0.14184 0.0
H1885 H 0.06024 0.55753 0.13976 0.0
H1886 H 0.06324 0.52713 0.09109 0.0
C1887 C 0.09621 0.47462 0.10263 0.0
C1888 C 0.07784 0.50445 0.13383 0.0
C1889 C 0.10708 0.4602 0.10236 0.0
C1890 C 0.07721 0.57805 0.13083 0.0
C1891 C 0.06926 0.56157 0.12969 0.0
C1892 C 0.06683 0.52089 0.10323 0.0
C1893 C 0.08527 0.47769 0.11692 0.0
C1894 C 0.07643 0.49478 0.11832 0.0
C1895 C 0.07416 0.54985 0.11655 0.0
C1896 C 0.07049 0.53092 0.11814 0.0
H1897 H 0.09552 0.44195 0.14119 0.0
H1898 H 0.07656 0.46749 0.14177 0.0
H1899 H 0.06804 0.49571 0.09131 0.0
H1900 H 0.10429 0.57509 0.09589 0.0
H1901 H 0.09013 0.54671 0.09351 0.0
C1902 C 0.09151 0.56274 0.89807 0.0
C1903 C 0.09345 0.57315 0.88324 0.0
C1904 C 0.08384 0.54623 0.89676 0.0
C1905 C 0.08239 0.5123 0.86377 0.0
H1906 H 0.06498 0.48492 0.90253 0.0
C1907 C 0.09624 0.44033 0.86498 0.0
C1908 C 0.1048 0.43548 0.88037 0.0
C1909 C 0.08604 0.45528 0.86456 0.0
C1910 C 0.06969 0.49238 0.89151 0.0
H1911 H 0.08786 0.57549 0.85572 0.0
H1912 H 0.07387 0.54672 0.85336 0.0
H1913 H 0.06188 0.51661 0.90281 0.0
H1914 H 0.10872 0.44144 0.90764 0.0
H1915 H 0.09132 0.46795 0.90693 0.0
H1916 H 0.09114 0.48844 0.8529 0.0
C1917 C 0.07847 0.55111 0.866 0.0
C1918 C 0.06792 0.51053 0.89166 0.0
C1919 C 0.08632 0.5676 0.86733 0.0
C1920 C 0.10203 0.44494 0.89569 0.0
C1921 C 0.09199 0.46006 0.89525 0.0
C1922 C 0.08408 0.49424 0.86358 0.0
C1923 C 0.07805 0.53984 0.8805 0.0
C1924 C 0.07508 0.52077 0.8782 0.0
C1925 C 0.0846 0.46586 0.87946 0.0
C1926 C 0.07853 0.48414 0.87783 0.0
H1927 H 0.09719 0.56679 0.91041 0.0
H1928 H 0.08397 0.53794 0.90817 0.0
H1929 H 0.08827 0.51965 0.85325 0.0
H1930 H 0.0983 0.43313 0.85302 0.0
H1931 H 0.08026 0.4592 0.85229 0.0
C1932 C 0.07535 0.58236 0.37907 0.0
C1933 C 0.07824 0.59874 0.38683 0.0
C1934 C 0.05898 0.57423 0.3802 0.0
C1935 C 0.01577 0.57629 0.40178 0.0
H1936 H 0.99712 0.57165 0.35492 0.0
C1937 C 0.95241 0.60086 0.36754 0.0
C1938 C 0.93922 0.59469 0.37857 0.0
C1939 C 0.96879 0.59318 0.3677 0.0
C1940 C 1.00217 0.57247 0.36811 0.0
H1941 H 0.06699 0.61868 0.40317 0.0
H1942 H 0.03861 0.60446 0.40537 0.0
H1943 H 0.02861 0.57302 0.35942 0.0
H1944 H 0.93229 0.57506 0.39766 0.0
H1945 H 0.96135 0.56187 0.39838 0.0
H1946 H 0.98927 0.57714 0.41031 0.0
C1947 C 0.04884 0.59788 0.39834 0.0
C1948 C 0.02019 0.57316 0.37072 0.0
C1949 C 0.06506 0.60611 0.39697 0.0
C1950 C 0.94228 0.57997 0.38896 0.0
C1951 C 0.95886 0.57248 0.38942 0.0
C1952 C 0.99774 0.57544 0.39919 0.0
C1953 C 0.04541 0.58221 0.3894 0.0
C1954 C 0.02712 0.57607 0.38747 0.0
C1955 C 0.9724 0.57938 0.37916 0.0
C1956 C 0.99079 0.57452 0.38223 0.0
H1957 H 0.08532 0.5764 0.37117 0.0
H1958 H 0.05667 0.56213 0.37323 0.0
H1959 H 0.02079 0.57838 0.41485 0.0
H1960 H 0.95034 0.61219 0.3594 0.0
H1961 H 0.979 0.59893 0.3598 0.0
C1962 C 0.91462 0.57192 0.90025 0.0
C1963 C 0.91434 0.58058 0.88421 0.0
C1964 C 0.92257 0.55569 0.90175 0.0
C1965 C 0.94439 0.52056 0.87499 0.0
H1966 H 0.91407 0.49103 0.90273 0.0
C1967 C 0.909 0.45424 0.86226 0.0
C1968 C 0.91373 0.44063 0.87347 0.0
C1969 C 0.91692 0.47061 0.86388 0.0
C1970 C 0.92292 0.49912 0.89521 0.0
H1971 H 0.9229 0.57993 0.85745 0.0
H1972 H 0.93557 0.55116 0.8595 0.0
H1973 H 0.91342 0.52221 0.9068 0.0
H1974 H 0.93117 0.43294 0.89433 0.0
H1975 H 0.94451 0.46199 0.89769 0.0
H1976 H 0.95215 0.49698 0.86208 0.0
C1977 C 0.9305 0.55692 0.87127 0.0
C1978 C 0.9227 0.51711 0.89759 0.0
C1979 C 0.92314 0.57346 0.87 0.0
C1980 C 0.92745 0.44322 0.88542 0.0
C1981 C 0.93508 0.45976 0.88735 0.0
C1982 C 0.94423 0.50249 0.87231 0.0
C1983 C 0.92955 0.54739 0.88697 0.0
C1984 C 0.93294 0.52822 0.88707 0.0
C1985 C 0.92942 0.47365 0.87696 0.0
C1986 C 0.93312 0.49178 0.88211 0.0
H1987 H 0.90797 0.57732 0.91141 0.0
H1988 H 0.92221 0.54921 0.91427 0.0
H1989 H 0.95285 0.52852 0.86696 0.0
H1990 H 0.89842 0.45253 0.85298 0.0
H1991 H 0.91221 0.48127 0.85594 0.0
C1992 C 0.05867 0.40807 0.37712 0.0
C1993 C 0.06634 0.40382 0.39315 0.0
C1994 C 0.0425 0.41629 0.37665 0.0
C1995 C 0.00402 0.41737 0.40488 0.0
H1996 H 0.98349 0.43652 0.3629 0.0
C1997 C 0.93223 0.4057 0.39067 0.0
C1998 C 0.93096 0.39559 0.37544 0.0
C1999 C 0.94721 0.41576 0.39394 0.0
C2000 C 0.98904 0.4315 0.37488 0.0
H2001 H 0.06457 0.40674 0.42113 0.0
H2002 H 0.0369 0.42209 0.42037 0.0
H2003 H 0.01496 0.43883 0.36752 0.0
H2004 H 0.94335 0.38945 0.3509 0.0
H2005 H 0.96933 0.407 0.35652 0.0
H2006 H 0.97827 0.40938 0.41186 0.0
C2007 C 0.04277 0.41831 0.40815 0.0
C2008 C 0.00707 0.43266 0.37747 0.0
C2009 C 0.05866 0.40963 0.40862 0.0
C2010 C 0.94413 0.39693 0.36286 0.0
C2011 C 0.95891 0.40718 0.36598 0.0
C2012 C 0.98602 0.41647 0.40241 0.0
C2013 C 0.03391 0.42073 0.39223 0.0
C2014 C 0.0149 0.42459 0.39197 0.0
C2015 C 0.96094 0.4161 0.38186 0.0
C2016 C 0.9785 0.42254 0.3869 0.0
H2017 H 0.0644 0.40369 0.36503 0.0
H2018 H 0.03618 0.41776 0.36411 0.0
H2019 H 0.00937 0.41087 0.41618 0.0
H2020 H 0.92221 0.40494 0.40055 0.0
H2021 H 0.94849 0.42252 0.40629 0.0
C2022 C 0.8946 0.45029 0.14471 0.0
C2023 C 0.89374 0.43804 0.13114 0.0
C2024 C 0.90637 0.46418 0.14405 0.0
C2025 C 0.92583 0.49263 0.11243 0.0
H2026 H 0.94271 0.51498 0.15469 0.0
C2027 C 0.92863 0.56643 0.11649 0.0
C2028 C 0.91597 0.57096 0.12878 0.0
C2029 C 0.93607 0.54982 0.11691 0.0
C2030 C 0.93852 0.50881 0.14265 0.0
H2031 H 0.90516 0.43023 0.10659 0.0
H2032 H 0.92561 0.45503 0.1052 0.0
H2033 H 0.93669 0.48367 0.15459 0.0
H2034 H 0.90233 0.56269 0.15199 0.0
H2035 H 0.91564 0.53415 0.15317 0.0
H2036 H 0.92626 0.518 0.10091 0.0
C2037 C 0.91719 0.45369 0.11641 0.0
C2038 C 0.93499 0.49092 0.1426 0.0
C2039 C 0.90549 0.43955 0.11719 0.0
C2040 C 0.91213 0.55949 0.14244 0.0
C2041 C 0.91986 0.54316 0.14314 0.0
C2042 C 0.92945 0.51052 0.11245 0.0
C2043 C 0.91754 0.4663 0.12973 0.0
C2044 C 0.92736 0.48294 0.12788 0.0
C2045 C 0.93121 0.53781 0.12989 0.0
C2046 C 0.93458 0.51894 0.12794 0.0
H2047 H 0.8859 0.44937 0.15576 0.0
H2048 H 0.90603 0.4738 0.15439 0.0
H2049 H 0.92 0.48687 0.10086 0.0
H2050 H 0.93161 0.57508 0.10573 0.0
H2051 H 0.94472 0.54597 0.10651 0.0
C2052 C 0.94748 0.40743 0.6274 0.0
C2053 C 0.94008 0.40251 0.61139 0.0
C2054 C 0.96284 0.41738 0.62782 0.0
C2055 C 1.00076 0.42183 0.59935 0.0
H2056 H 0.02036 0.4426 0.64119 0.0
C2057 C 0.07217 0.41228 0.61396 0.0
C2058 C 0.07338 0.4028 0.62956 0.0
C2059 C 0.05735 0.42224 0.61045 0.0
C2060 C 0.01507 0.43713 0.62925 0.0
H2061 H 0.94127 0.40595 0.58344 0.0
H2062 H 0.96746 0.4242 0.58413 0.0
H2063 H 0.98882 0.44262 0.63665 0.0
H2064 H 0.06123 0.39789 0.65454 0.0
H2065 H 0.03556 0.41511 0.6485 0.0
H2066 H 0.02679 0.41541 0.59242 0.0
C2067 C 0.96204 0.41973 0.59636 0.0
C2068 C 0.997 0.43701 0.6267 0.0
C2069 C 0.94698 0.40938 0.59593 0.0
C2070 C 0.06048 0.40486 0.64228 0.0
C2071 C 0.04586 0.41494 0.6389 0.0
C2072 C 0.01877 0.4221 0.60183 0.0
C2073 C 0.97085 0.42284 0.61221 0.0
C2074 C 0.98957 0.42829 0.61228 0.0
C2075 C 0.0437 0.42302 0.62261 0.0
C2076 C 0.02602 0.42869 0.61734 0.0
H2077 H 0.94234 0.40225 0.63949 0.0
H2078 H 0.96918 0.41937 0.64031 0.0
H2079 H 0.99571 0.4149 0.58809 0.0
H2080 H 0.08201 0.41099 0.60397 0.0
H2081 H 0.05607 0.42841 0.59783 0.0
C2082 C 0.05377 0.59952 0.6421 0.0
C2083 C 0.06709 0.59401 0.63102 0.0
C2084 C 0.03805 0.59034 0.64284 0.0
C2085 C 0.01004 0.56833 0.61274 0.0
H2086 H 0.97933 0.569 0.65269 0.0
C2087 C 0.93315 0.57919 0.63315 0.0
C2088 C 0.93109 0.5946 0.6235 0.0
C2089 C 0.94891 0.57014 0.63257 0.0
C2090 C 0.98766 0.56818 0.64138 0.0
H2091 H 0.07503 0.57401 0.61287 0.0
H2092 H 0.04708 0.55812 0.61371 0.0
H2093 H 0.01076 0.56842 0.65716 0.0
H2094 H 0.94307 0.61169 0.60445 0.0
H2095 H 0.97034 0.59601 0.60334 0.0
H2096 H 0.98696 0.56941 0.59697 0.0
C2097 C 0.04896 0.56941 0.62202 0.0
C2098 C 0.00569 0.56796 0.64396 0.0
C2099 C 0.06493 0.57845 0.62157 0.0
C2100 C 0.94437 0.59994 0.61214 0.0
C2101 C 0.95995 0.59081 0.61138 0.0
C2102 C 0.992 0.56856 0.61016 0.0
C2103 C 0.03517 0.57564 0.63223 0.0
C2104 C 0.01704 0.56923 0.62968 0.0
C2105 C 0.96269 0.57623 0.62211 0.0
C2106 C 0.98069 0.56968 0.62447 0.0
H2107 H 0.05515 0.61145 0.64955 0.0
H2108 H 0.02765 0.59565 0.65067 0.0
H2109 H 0.01843 0.56928 0.60147 0.0
H2110 H 0.92306 0.57478 0.64198 0.0
H2111 H 0.95063 0.5589 0.64092 0.0
C2112 C 0.93735 0.1087 0.3655 0.0
C2113 C 0.93176 0.11511 0.38169 0.0
C2114 C 0.95525 0.10614 0.36231 0.0
C2115 C 0.99841 0.10196 0.38492 0.0
H2116 H 0.01784 0.12267 0.34319 0.0
C2117 C 0.06618 0.13739 0.36505 0.0
C2118 C 0.07808 0.12679 0.37404 0.0
C2119 C 0.04903 0.13174 0.36192 0.0
C2120 C 0.01266 0.11673 0.35489 0.0
H2121 H 0.94051 0.12308 0.40741 0.0
H2122 H 0.97125 0.11838 0.40205 0.0
H2123 H 0.98619 0.12048 0.3465 0.0
H2124 H 0.08158 0.10138 0.38566 0.0
H2125 H 0.05169 0.09126 0.3799 0.0
H2126 H 0.02471 0.09899 0.39377 0.0
C2127 C 0.96203 0.11532 0.39173 0.0
C2128 C 0.99446 0.11532 0.35671 0.0
C2129 C 0.94433 0.11811 0.39479 0.0
C2130 C 0.07286 0.10974 0.37841 0.0
C2131 C 0.05558 0.10409 0.3754 0.0
C2132 C 0.01655 0.10329 0.38308 0.0
C2133 C 0.96785 0.10961 0.37537 0.0
C2134 C 0.98707 0.10842 0.37201 0.0
C2135 C 0.04319 0.11534 0.36786 0.0
C2136 C 0.02399 0.11117 0.36827 0.0
H2137 H 0.92801 0.10642 0.35509 0.0
H2138 H 0.95925 0.10166 0.34957 0.0
H2139 H 0.99323 0.09635 0.39679 0.0
H2140 H 0.06972 0.1507 0.36177 0.0
H2141 H 0.03999 0.14087 0.35618 0.0
C2142 C 0.40614 0.43454 0.87261 0.0
C2143 C 0.39009 0.42577 0.87071 0.0
C2144 C 0.4078 0.45227 0.86823 0.0
C2145 C 0.38327 0.4908 0.84948 0.0
H2146 H 0.41196 0.5165 0.88253 0.0
C2147 C 0.3735 0.56398 0.8678 0.0
C2148 C 0.38839 0.57423 0.87134 0.0
C2149 C 0.37503 0.54623 0.86357 0.0
C2150 C 0.40407 0.50958 0.87299 0.0
H2151 H 0.36335 0.42859 0.8623 0.0
H2152 H 0.36601 0.45932 0.8549 0.0
H2153 H 0.41263 0.48491 0.88239 0.0
H2154 H 0.41651 0.57401 0.87311 0.0
H2155 H 0.41928 0.54311 0.8656 0.0
H2156 H 0.37407 0.51575 0.84082 0.0
C2157 C 0.37759 0.45261 0.85922 0.0
C2158 C 0.4045 0.49131 0.87282 0.0
C2159 C 0.37605 0.43483 0.86333 0.0
C2160 C 0.40486 0.56654 0.86995 0.0
C2161 C 0.4064 0.54876 0.86591 0.0
C2162 C 0.38267 0.50912 0.84983 0.0
C2163 C 0.3933 0.46186 0.86232 0.0
C2164 C 0.39399 0.48152 0.86119 0.0
C2165 C 0.39148 0.53822 0.86318 0.0
C2166 C 0.39296 0.51878 0.86169 0.0
H2167 H 0.41706 0.42804 0.87871 0.0
H2168 H 0.42029 0.45863 0.87038 0.0
H2169 H 0.37517 0.48393 0.84009 0.0
H2170 H 0.36063 0.56945 0.86935 0.0
H2171 H 0.36325 0.53853 0.86175 0.0
C2172 C 0.06133 0.876 0.35593 0.0
C2173 C 0.07105 0.88708 0.36691 0.0
C2174 C 0.04326 0.87785 0.35417 0.0
C2175 C 0.00485 0.90576 0.36514 0.0
H2176 H 0.98114 0.86096 0.36688 0.0
C2177 C 0.93216 0.89619 0.38604 0.0
C2178 C 0.92298 0.88144 0.37991 0.0
C2179 C 0.94949 0.89939 0.38093 0.0
C2180 C 0.98738 0.87365 0.366 0.0
H2181 H 0.06952 0.9091 0.3844 0.0
H2182 H 0.03784 0.91241 0.38145 0.0
H2183 H 0.01255 0.86211 0.36455 0.0
H2184 H 0.92442 0.85909 0.36286 0.0
H2185 H 0.9541 0.86513 0.3531 0.0
H2186 H 0.97947 0.91723 0.36704 0.0
C2187 C 0.04422 0.90248 0.37382 0.0
C2188 C 0.00557 0.87431 0.36468 0.0
C2189 C 0.06242 0.90069 0.37544 0.0
C2190 C 0.931 0.87078 0.36749 0.0
C2191 C 0.94821 0.87406 0.36222 0.0
C2192 C 0.98653 0.9051 0.36644 0.0
C2193 C 0.03427 0.89062 0.36368 0.0
C2194 C 0.01466 0.89034 0.36427 0.0
C2195 C 0.95806 0.88788 0.36957 0.0
C2196 C 0.97749 0.88899 0.36695 0.0
H2197 H 0.06759 0.8652 0.34944 0.0
H2198 H 0.03622 0.86872 0.34591 0.0
H2199 H 0.01131 0.91836 0.36477 0.0
H2200 H 0.92653 0.9043 0.39607 0.0
H2201 H 0.95653 0.9101 0.38699 0.0
C2202 C 0.61548 0.43907 0.8635 0.0
C2203 C 0.62689 0.43441 0.87707 0.0
C2204 C 0.6139 0.45669 0.85845 0.0
C2205 C 0.63555 0.50062 0.86274 0.0
H2206 H 0.58866 0.51883 0.86043 0.0
C2207 C 0.60016 0.56841 0.88095 0.0
C2208 C 0.6129 0.58043 0.87529 0.0
C2209 C 0.6004 0.55099 0.87545 0.0
C2210 C 0.60187 0.514 0.86095 0.0
H2211 H 0.64615 0.44437 0.89535 0.0
H2212 H 0.64375 0.47461 0.88644 0.0
H2213 H 0.59307 0.48733 0.86172 0.0
H2214 H 0.63519 0.58376 0.85845 0.0
H2215 H 0.63542 0.55341 0.84843 0.0
H2216 H 0.64438 0.52717 0.86293 0.0
C2217 C 0.63595 0.46491 0.8796 0.0
C2218 C 0.6044 0.49587 0.86151 0.0
C2219 C 0.6373 0.44751 0.88478 0.0
C2220 C 0.62496 0.57495 0.86275 0.0
C2221 C 0.6253 0.55742 0.85731 0.0
C2222 C 0.63303 0.5187 0.86213 0.0
C2223 C 0.62394 0.4699 0.86667 0.0
C2224 C 0.62127 0.48893 0.86297 0.0
C2225 C 0.61352 0.545 0.86423 0.0
C2226 C 0.61613 0.52573 0.86175 0.0
H2227 H 0.60711 0.42931 0.85749 0.0
H2228 H 0.60458 0.46002 0.84838 0.0
H2229 H 0.64875 0.49581 0.86361 0.0
H2230 H 0.59092 0.57214 0.89088 0.0
H2231 H 0.59117 0.54196 0.88122 0.0
C2232 C 0.94347 0.90895 0.62607 0.0
C2233 C 0.93235 0.89504 0.63066 0.0
C2234 C 0.96107 0.90909 0.63105 0.0
C2235 C 0.99599 0.87753 0.6414 0.0
H2236 H 0.02414 0.91968 0.64416 0.0
C2237 C 0.07238 0.87675 0.63946 0.0
C2238 C 0.07926 0.888 0.62672 0.0
C2239 C 0.05478 0.87807 0.64452 0.0
C2240 C 0.01649 0.90775 0.64347 0.0
H2241 H 0.93083 0.87081 0.64497 0.0
H2242 H 0.96149 0.87125 0.65424 0.0
H2243 H 0.99249 0.92153 0.64598 0.0
H2244 H 0.07338 0.90965 0.60971 0.0
H2245 H 0.04316 0.91237 0.61888 0.0
H2246 H 0.02013 0.86384 0.63861 0.0
C2247 C 0.95665 0.88202 0.64656 0.0
C2248 C 0.99827 0.90881 0.64444 0.0
C2249 C 0.93894 0.88194 0.64159 0.0
C2250 C 0.06848 0.90096 0.61972 0.0
C2251 C 0.05114 0.90252 0.625 0.0
C2252 C 0.01427 0.87647 0.6406 0.0
C2253 C 0.96817 0.89522 0.64071 0.0
C2254 C 0.98765 0.89378 0.64283 0.0
C2255 C 0.04387 0.89088 0.63718 0.0
C2256 C 0.02474 0.89163 0.64106 0.0
H2257 H 0.93891 0.91901 0.6173 0.0
H2258 H 0.96935 0.91943 0.62606 0.0
H2259 H 0.98841 0.86564 0.63992 0.0
H2260 H 0.08031 0.86643 0.64482 0.0
H2261 H 0.04961 0.86889 0.65394 0.0
C2262 C 0.6048 0.44257 0.11922 0.0
C2263 C 0.61198 0.43165 0.13202 0.0
C2264 C 0.60324 0.46055 0.12215 0.0
C2265 C 0.62603 0.4958 0.14439 0.0
H2266 H 0.586 0.52387 0.13247 0.0
C2267 C 0.63335 0.57068 0.14309 0.0
C2268 C 0.62445 0.57959 0.12984 0.0
C2269 C 0.62888 0.55338 0.1473 0.0
C2270 C 0.59744 0.51636 0.13567 0.0
H2271 H 0.62321 0.43097 0.15791 0.0
H2272 H 0.62083 0.46251 0.16296 0.0
H2273 H 0.58359 0.49213 0.13178 0.0
H2274 H 0.60363 0.57747 0.11088 0.0
H2275 H 0.5961 0.54743 0.11766 0.0
H2276 H 0.64036 0.51962 0.14711 0.0
C2277 C 0.616 0.45708 0.1508 0.0
C2278 C 0.59596 0.49807 0.1354 0.0
C2279 C 0.61717 0.43901 0.14801 0.0
C2280 C 0.61034 0.57115 0.12158 0.0
C2281 C 0.60612 0.55373 0.12545 0.0
C2282 C 0.62765 0.51404 0.14429 0.0
C2283 C 0.60935 0.46813 0.13775 0.0
C2284 C 0.61029 0.48756 0.1396 0.0
C2285 C 0.6158 0.54425 0.13789 0.0
C2286 C 0.61345 0.52473 0.13972 0.0
H2287 H 0.60112 0.43729 0.10661 0.0
H2288 H 0.59824 0.46867 0.11175 0.0
H2289 H 0.63741 0.4881 0.14746 0.0
H2290 H 0.64457 0.57669 0.14939 0.0
H2291 H 0.63636 0.54695 0.15737 0.0
C2292 C 0.94088 0.1005 0.63466 0.0
C2293 C 0.93263 0.11676 0.6344 0.0
C2294 C 0.95874 0.09926 0.63843 0.0
C2295 C 0.99791 0.12313 0.65561 0.0
H2296 H 0.02254 0.09499 0.62199 0.0
C2297 C 0.07218 0.1311 0.64241 0.0
C2298 C 0.08134 0.11737 0.63466 0.0
C2299 C 0.05442 0.12926 0.6465 0.0
C2300 C 0.01602 0.1026 0.63184 0.0
H2301 H 0.93656 0.14446 0.63807 0.0
H2302 H 0.96772 0.14234 0.64511 0.0
H2303 H 0.99094 0.09525 0.62171 0.0
H2304 H 0.07928 0.09061 0.62605 0.0
H2305 H 0.04876 0.08686 0.63429 0.0
H2306 H 0.02303 0.13055 0.66571 0.0
C2307 C 0.96036 0.13047 0.64264 0.0
C2308 C 0.99774 0.1028 0.63159 0.0
C2309 C 0.94247 0.13171 0.63872 0.0
C2310 C 0.07272 0.10128 0.63245 0.0
C2311 C 0.05503 0.09932 0.63677 0.0
C2312 C 0.01625 0.12278 0.65599 0.0
C2313 C 0.96888 0.11428 0.64196 0.0
C2314 C 0.98838 0.11322 0.64331 0.0
C2315 C 0.04531 0.11357 0.64298 0.0
C2316 C 0.02567 0.11268 0.64394 0.0
H2317 H 0.93371 0.08883 0.63092 0.0
H2318 H 0.96476 0.08655 0.63796 0.0
H2319 H 0.99117 0.13119 0.66494 0.0
H2320 H 0.07828 0.14384 0.64369 0.0
H2321 H 0.0476 0.14064 0.65109 0.0
C2322 C 0.40024 0.56622 0.11982 0.0
C2323 C 0.39255 0.57666 0.13265 0.0
C2324 C 0.40225 0.54822 0.12241 0.0
C2325 C 0.37995 0.51214 0.14392 0.0
H2326 H 0.42019 0.48481 0.13135 0.0
C2327 C 0.37385 0.43723 0.14238 0.0
C2328 C 0.38249 0.42851 0.12891 0.0
C2329 C 0.37818 0.45458 0.14659 0.0
C2330 C 0.40871 0.49213 0.13474 0.0
H2331 H 0.38092 0.5765 0.15825 0.0
H2332 H 0.38422 0.54501 0.16277 0.0
H2333 H 0.42213 0.5166 0.13106 0.0
H2334 H 0.40272 0.431 0.10957 0.0
H2335 H 0.41 0.46115 0.11638 0.0
H2336 H 0.36606 0.48807 0.1465 0.0
C2337 C 0.38904 0.55078 0.15083 0.0
C2338 C 0.40991 0.51044 0.13469 0.0
C2339 C 0.38737 0.56885 0.14836 0.0
C2340 C 0.39623 0.43718 0.12043 0.0
C2341 C 0.4003 0.45466 0.12431 0.0
C2342 C 0.37862 0.49389 0.14364 0.0
C2343 C 0.39611 0.54017 0.13771 0.0
C2344 C 0.3955 0.52069 0.13915 0.0
C2345 C 0.39084 0.46394 0.13698 0.0
C2346 C 0.39292 0.48347 0.13888 0.0
H2347 H 0.40387 0.57183 0.10738 0.0
H2348 H 0.40756 0.54044 0.11196 0.0
H2349 H 0.3685 0.51961 0.14716 0.0
H2350 H 0.36292 0.43103 0.14887 0.0
H2351 H 0.37091 0.46085 0.15684 0.0
C2352 C 0.37743 0.06754 0.10622 0.0
C2353 C 0.36922 0.07605 0.12011 0.0
C2354 C 0.37359 0.05 0.1024 0.0
C2355 C 0.35533 0.01053 0.12512 0.0
H2356 H 0.36717 0.98776 0.08172 0.0
C2357 C 0.35149 0.93545 0.11783 0.0
C2358 C 0.36713 0.92793 0.11227 0.0
C2359 C 0.34874 0.95344 0.11594 0.0
C2360 C 0.36376 0.99394 0.09392 0.0
H2361 H 0.34969 0.0732 0.1401 0.0
H2362 H 0.34175 0.04327 0.13254 0.0
H2363 H 0.36644 0.01956 0.08312 0.0
H2364 H 0.39198 0.93319 0.1001 0.0
H2365 H 0.38693 0.96446 0.09609 0.0
H2366 H 0.35248 0.98483 0.13578 0.0
C2367 C 0.35178 0.04972 0.12499 0.0
C2368 C 0.36344 0.01226 0.0948 0.0
C2369 C 0.35596 0.06713 0.12907 0.0
C2370 C 0.37961 0.93858 0.10404 0.0
C2371 C 0.37673 0.9565 0.10185 0.0
C2372 C 0.35531 0.99227 0.12412 0.0
C2373 C 0.36123 0.04051 0.11225 0.0
C2374 C 0.35956 0.02093 0.11054 0.0
C2375 C 0.36152 0.96428 0.1083 0.0
C2376 C 0.35982 0.98371 0.10861 0.0
H2377 H 0.38813 0.07388 0.09947 0.0
H2378 H 0.38136 0.04363 0.0926 0.0
H2379 H 0.35269 0.01638 0.13765 0.0
H2380 H 0.34188 0.92763 0.12465 0.0
H2381 H 0.33687 0.95898 0.12102 0.0
C2382 C 0.44522 0.89883 0.62767 0.0
C2383 C 0.4318 0.88678 0.62371 0.0
C2384 C 0.4627 0.89475 0.62509 0.0
C2385 C 0.49499 0.8602 0.62053 0.0
H2386 H 0.52114 0.89696 0.59746 0.0
C2387 C 0.56956 0.88261 0.5965 0.0
C2388 C 0.57903 0.87882 0.61172 0.0
C2389 C 0.55167 0.87879 0.59534 0.0
C2390 C 0.51413 0.88634 0.60364 0.0
H2391 H 0.42656 0.86051 0.6146 0.0
H2392 H 0.45754 0.8532 0.61024 0.0
H2393 H 0.48988 0.89963 0.6009 0.0
H2394 H 0.57732 0.8671 0.63727 0.0
H2395 H 0.54615 0.86038 0.63534 0.0
H2396 H 0.51952 0.84711 0.62362 0.0
C2397 C 0.45425 0.86593 0.61528 0.0
C2398 C 0.49612 0.888 0.6058 0.0
C2399 C 0.43652 0.87011 0.61777 0.0
C2400 C 0.57051 0.8697 0.62515 0.0
C2401 C 0.55253 0.86602 0.62409 0.0
C2402 C 0.51317 0.85857 0.61848 0.0
C2403 C 0.46752 0.87842 0.61852 0.0
C2404 C 0.48633 0.87518 0.61458 0.0
C2405 C 0.54266 0.87141 0.60955 0.0
C2406 C 0.52306 0.87177 0.61019 0.0
H2407 H 0.44224 0.91175 0.63246 0.0
H2408 H 0.47253 0.90456 0.62809 0.0
H2409 H 0.48785 0.8501 0.62739 0.0
H2410 H 0.57565 0.88999 0.58609 0.0
H2411 H 0.54468 0.88276 0.58373 0.0
C2412 C 0.64745 0.0724 0.10953 0.0
C2413 C 0.63143 0.07837 0.11594 0.0
C2414 C 0.65004 0.05444 0.10662 0.0
C2415 C 0.62622 0.01194 0.10127 0.0
H2416 H 0.66676 0.99127 0.123 0.0
C2417 C 0.64304 0.94327 0.13583 0.0
C2418 C 0.63453 0.93159 0.12441 0.0
C2419 C 0.64665 0.96049 0.13081 0.0
C2420 C 0.65541 0.99681 0.11675 0.0
H2421 H 0.6054 0.07032 0.12351 0.0
H2422 H 0.60971 0.03946 0.11808 0.0
H2423 H 0.6645 0.02303 0.12121 0.0
H2424 H 0.6241 0.92861 0.09833 0.0
H2425 H 0.63061 0.95867 0.08938 0.0
H2426 H 0.61668 0.98588 0.09751 0.0
C2427 C 0.62035 0.04842 0.11533 0.0
C2428 C 0.65419 0.01506 0.11558 0.0
C2429 C 0.61789 0.06617 0.11851 0.0
C2430 C 0.631 0.93716 0.10731 0.0
C2431 C 0.63444 0.95451 0.10232 0.0
C2432 C 0.62748 0.99374 0.10232 0.0
C2433 C 0.63655 0.04218 0.10971 0.0
C2434 C 0.63932 0.02289 0.1083 0.0
C2435 C 0.64163 0.96663 0.11427 0.0
C2436 C 0.64186 0.98587 0.11052 0.0
H2437 H 0.65819 0.08146 0.10763 0.0
H2438 H 0.66268 0.05011 0.10223 0.0
H2439 H 0.61465 0.01748 0.0954 0.0
H2440 H 0.64562 0.93948 0.14919 0.0
H2441 H 0.65207 0.96934 0.14046 0.0
C2442 C 0.57596 0.1405 0.62742 0.0
C2443 C 0.58185 0.12608 0.61787 0.0
C2444 C 0.55847 0.14591 0.62595 0.0
C2445 C 0.51937 0.14335 0.59734 0.0
H2446 H 0.49199 0.14346 0.63961 0.0
C2447 C 0.4459 0.12799 0.597 0.0
C2448 C 0.43522 0.13312 0.61088 0.0
C2449 C 0.46357 0.13271 0.59656 0.0
C2450 C 0.49937 0.14396 0.62764 0.0
H2451 H 0.5743 0.10648 0.59891 0.0
H2452 H 0.54432 0.11628 0.5958 0.0
H2453 H 0.5237 0.14145 0.64144 0.0
H2454 H 0.43454 0.14828 0.63462 0.0
H2455 H 0.46528 0.15725 0.63355 0.0
H2456 H 0.49525 0.14571 0.58344 0.0
C2457 C 0.55298 0.12335 0.60454 0.0
C2458 C 0.51764 0.14273 0.62873 0.0
C2459 C 0.57018 0.11771 0.60635 0.0
C2460 C 0.44229 0.14446 0.62352 0.0
C2461 C 0.46008 0.14923 0.6231 0.0
C2462 C 0.50118 0.14484 0.59624 0.0
C2463 C 0.54675 0.13729 0.61454 0.0
C2464 C 0.52781 0.14182 0.61357 0.0
C2465 C 0.4712 0.14273 0.61004 0.0
C2466 C 0.49077 0.14451 0.61134 0.0
H2467 H 0.5846 0.14705 0.63658 0.0
H2468 H 0.55406 0.1567 0.63385 0.0
H2469 H 0.52683 0.14291 0.58541 0.0
H2470 H 0.44095 0.1189 0.58731 0.0
H2471 H 0.47148 0.12721 0.58635 0.0
C2472 C 0.38756 0.0608 0.90904 0.0
C2473 C 0.38066 0.07187 0.89621 0.0
C2474 C 0.38268 0.04319 0.90983 0.0
C2475 C 0.36647 0.00796 0.88043 0.0
H2476 H 0.37213 0.98028 0.92229 0.0
C2477 C 0.36758 0.93105 0.88123 0.0
C2478 C 0.38308 0.92486 0.88879 0.0
C2479 C 0.36297 0.94875 0.883 0.0
C2480 C 0.37037 0.98781 0.91048 0.0
H2481 H 0.36238 0.07326 0.87472 0.0
H2482 H 0.35328 0.04254 0.87642 0.0
H2483 H 0.37047 0.01192 0.92451 0.0
H2484 H 0.40546 0.93214 0.9046 0.0
H2485 H 0.39713 0.96247 0.90825 0.0
H2486 H 0.36652 0.98361 0.86649 0.0
C2487 C 0.36274 0.04744 0.88577 0.0
C2488 C 0.36954 0.00603 0.91171 0.0
C2489 C 0.36765 0.06519 0.88502 0.0
C2490 C 0.39342 0.93649 0.89865 0.0
C2491 C 0.38862 0.95389 0.90079 0.0
C2492 C 0.36704 0.98966 0.87924 0.0
C2493 C 0.37074 0.03599 0.89774 0.0
C2494 C 0.36825 0.01649 0.89667 0.0
C2495 C 0.37351 0.96037 0.89279 0.0
C2496 C 0.36959 0.9794 0.8942 0.0
H2497 H 0.39788 0.06546 0.9176 0.0
H2498 H 0.38939 0.035 0.91912 0.0
H2499 H 0.36563 0.0154 0.86848 0.0
H2500 H 0.35946 0.92244 0.8734 0.0
H2501 H 0.35125 0.95336 0.87666 0.0
C2502 C 0.5621 0.85729 0.37596 0.0
C2503 C 0.57097 0.87104 0.38434 0.0
C2504 C 0.54475 0.85316 0.38022 0.0
C2505 C 0.50736 0.8663 0.40983 0.0
H2506 H 0.47964 0.85235 0.36972 0.0
C2507 C 0.43415 0.88279 0.39869 0.0
C2508 C 0.42304 0.86956 0.39229 0.0
C2509 C 0.45203 0.87985 0.401 0.0
C2510 C 0.48719 0.85603 0.38114 0.0
H2511 H 0.56875 0.89093 0.40412 0.0
H2512 H 0.53862 0.8843 0.41124 0.0
H2513 H 0.51121 0.85253 0.36778 0.0
H2514 H 0.42194 0.84287 0.38325 0.0
H2515 H 0.45339 0.83779 0.38686 0.0
H2516 H 0.48295 0.87101 0.42259 0.0
C2517 C 0.54498 0.87607 0.40181 0.0
C2518 C 0.50545 0.85603 0.38012 0.0
C2519 C 0.56247 0.87986 0.39785 0.0
C2520 C 0.43013 0.85314 0.38863 0.0
C2521 C 0.44814 0.85032 0.39052 0.0
C2522 C 0.48906 0.86668 0.41068 0.0
C2523 C 0.53552 0.86315 0.39253 0.0
C2524 C 0.51595 0.86139 0.39437 0.0
C2525 C 0.45936 0.86376 0.39642 0.0
C2526 C 0.47875 0.86171 0.39628 0.0
H2527 H 0.56818 0.85053 0.36522 0.0
H2528 H 0.53837 0.8427 0.37312 0.0
H2529 H 0.51471 0.87013 0.4213 0.0
H2530 H 0.42908 0.89568 0.40122 0.0
H2531 H 0.4603 0.89053 0.40539 0.0
C2532 C 0.61261 0.07021 0.89458 0.0
C2533 C 0.62258 0.08203 0.88467 0.0
C2534 C 0.61746 0.05277 0.89621 0.0
C2535 C 0.63827 0.01737 0.87336 0.0
H2536 H 0.63652 0.99429 0.91825 0.0
C2537 C 0.63854 0.9417 0.87778 0.0
C2538 C 0.62617 0.93463 0.88931 0.0
C2539 C 0.6432 0.95951 0.87865 0.0
C2540 C 0.63696 1.00041 0.90555 0.0
H2541 H 0.64559 0.08471 0.86866 0.0
H2542 H 0.65386 0.05372 0.87102 0.0
H2543 H 0.63464 0.02595 0.91669 0.0
H2544 H 0.60968 0.94049 0.91126 0.0
H2545 H 0.61774 0.97106 0.91298 0.0
H2546 H 0.63944 0.99184 0.86208 0.0
C2547 C 0.6424 0.05822 0.87779 0.0
C2548 C 0.63601 0.01864 0.9047 0.0
C2549 C 0.63775 0.07596 0.87653 0.0
C2550 C 0.61958 0.94543 0.90247 0.0
C2551 C 0.62419 0.96311 0.90337 0.0
C2552 C 0.63896 0.99906 0.87418 0.0
C2553 C 0.63223 0.04641 0.88764 0.0
C2554 C 0.6362 0.02735 0.88858 0.0
C2555 C 0.63555 0.97067 0.89105 0.0
C2556 C 0.6378 0.99022 0.89028 0.0
H2557 H 0.60083 0.07446 0.90099 0.0
H2558 H 0.60924 0.04406 0.90374 0.0
H2559 H 0.63833 0.02366 0.86073 0.0
H2560 H 0.6435 0.93384 0.86721 0.0
H2561 H 0.6522 0.96468 0.86909 0.0
C2562 C 0.43943 0.12402 0.39694 0.0
C2563 C 0.43062 0.13259 0.38339 0.0
C2564 C 0.45693 0.12806 0.4008 0.0
C2565 C 0.4959 0.14765 0.37851 0.0
H2566 H 0.51908 0.13503 0.42163 0.0
C2567 C 0.57109 0.15192 0.38583 0.0
C2568 C 0.57875 0.13631 0.39136 0.0
C2569 C 0.55307 0.15447 0.38763 0.0
C2570 C 0.51279 0.13866 0.40951 0.0
H2571 H 0.43292 0.15285 0.36398 0.0
H2572 H 0.46283 0.16102 0.37159 0.0
H2573 H 0.48727 0.13537 0.42028 0.0
H2574 H 0.57372 0.11128 0.40336 0.0
H2575 H 0.54239 0.11596 0.40716 0.0
H2576 H 0.5215 0.15107 0.36787 0.0
C2577 C 0.45661 0.15063 0.37888 0.0
C2578 C 0.49447 0.13876 0.40866 0.0
C2579 C 0.43922 0.14631 0.37478 0.0
C2580 C 0.56821 0.12362 0.39942 0.0
C2581 C 0.55025 0.12629 0.40151 0.0
C2582 C 0.51417 0.14787 0.37948 0.0
C2583 C 0.4661 0.14093 0.3913 0.0
C2584 C 0.48565 0.14289 0.39302 0.0
C2585 C 0.54234 0.14151 0.39514 0.0
C2586 C 0.52288 0.14306 0.39488 0.0
H2587 H 0.43335 0.11298 0.40338 0.0
H2588 H 0.46354 0.12006 0.41032 0.0
H2589 H 0.48992 0.15053 0.36606 0.0
H2590 H 0.57885 0.1617 0.37916 0.0
H2591 H 0.54741 0.16635 0.38262 0.0
C2592 C 0.11768 0.35801 0.93851 0.0
C2593 C 0.11244 0.3736 0.93055 0.0
C2594 C 0.11557 0.35552 0.95653 0.0
C2595 C 0.09364 0.37204 0.99644 0.0
H2596 H 0.13651 0.35915 0.01974 0.0
C2597 C 0.10656 0.38693 0.06962 0.0
C2598 C 0.11966 0.37794 0.07864 0.0
C2599 C 0.10259 0.38292 0.05218 0.0
C2600 C 0.12421 0.36233 0.01364 0.0
H2601 H 0.10062 0.39865 0.9351 0.0
H2602 H 0.09629 0.3941 0.96638 0.0
H2603 H 0.13486 0.3584 0.98818 0.0
H2604 H 0.13812 0.35694 0.07674 0.0
H2605 H 0.13028 0.34887 0.04694 0.0
H2606 H 0.08289 0.37593 0.02184 0.0
C2607 C 0.10193 0.38371 0.95876 0.0
C2608 C 0.12332 0.36198 0.99538 0.0
C2609 C 0.10431 0.38629 0.94081 0.0
C2610 C 0.12765 0.36384 0.07029 0.0
C2611 C 0.12344 0.35955 0.05296 0.0
C2612 C 0.09441 0.37212 0.01476 0.0
C2613 C 0.10807 0.36854 0.96699 0.0
C2614 C 0.10816 0.36714 0.98649 0.0
C2615 C 0.11153 0.36964 0.04326 0.0
C2616 C 0.10984 0.3676 0.02373 0.0
H2617 H 0.12444 0.34822 0.931 0.0
H2618 H 0.12039 0.34365 0.9624 0.0
H2619 H 0.08169 0.37595 0.99003 0.0
H2620 H 0.10061 0.39826 0.07548 0.0
H2621 H 0.09347 0.3912 0.04538 0.0
C2622 C 0.12083 0.64458 0.93479 0.0
C2623 C 0.13071 0.63003 0.92991 0.0
C2624 C 0.11983 0.6496 0.95245 0.0
C2625 C 0.14121 0.64327 0.996 0.0
H2626 H 0.09495 0.64952 0.0149 0.0
C2627 C 0.10495 0.6281 0.06426 0.0
C2628 C 0.11817 0.63295 0.07611 0.0
C2629 C 0.10557 0.63345 0.04682 0.0
C2630 C 0.108 0.6479 0.00987 0.0
H2631 H 0.1479 0.60995 0.93956 0.0
H2632 H 0.14648 0.61879 0.96989 0.0
H2633 H 0.0989 0.64789 0.98335 0.0
H2634 H 0.14195 0.64801 0.07914 0.0
H2635 H 0.14293 0.65777 0.04872 0.0
H2636 H 0.15025 0.64234 0.02241 0.0
C2637 C 0.13945 0.62638 0.96031 0.0
C2638 C 0.11028 0.64714 0.99171 0.0
C2639 C 0.14021 0.62124 0.94286 0.0
C2640 C 0.13135 0.64441 0.07044 0.0
C2641 C 0.13207 0.64971 0.05289 0.0
C2642 C 0.13895 0.64409 0.01411 0.0
C2643 C 0.12896 0.64037 0.96549 0.0
C2644 C 0.12686 0.64426 0.98454 0.0
C2645 C 0.11959 0.64365 0.04065 0.0
C2646 C 0.12224 0.6459 0.02137 0.0
H2647 H 0.11321 0.65149 0.92514 0.0
H2648 H 0.11169 0.66049 0.95595 0.0
H2649 H 0.15421 0.64127 0.99098 0.0
H2650 H 0.09486 0.61892 0.06815 0.0
H2651 H 0.0958 0.62834 0.03791 0.0
C2652 C 0.86543 0.62508 0.43629 0.0
C2653 C 0.88072 0.61738 0.42996 0.0
C2654 C 0.86081 0.62327 0.45399 0.0
C2655 C 0.86766 0.59568 0.49295 0.0
H2656 H 0.86418 0.63781 0.52051 0.0
C2657 C 0.88535 0.5972 0.56573 0.0
C2658 C 0.87909 0.61034 0.57676 0.0
C2659 C 0.88021 0.5963 0.54823 0.0
C2660 C 0.86465 0.62583 0.51309 0.0
H2661 H 0.90271 0.6013 0.43697 0.0
H2662 H 0.89433 0.59757 0.46732 0.0
H2663 H 0.86494 0.63972 0.48875 0.0
H2664 H 0.86158 0.6322 0.57823 0.0
H2665 H 0.85195 0.63026 0.54775 0.0
H2666 H 0.86751 0.5817 0.51707 0.0
C2667 C 0.886 0.60515 0.45885 0.0
C2668 C 0.86515 0.62697 0.4948 0.0
C2669 C 0.89082 0.60734 0.44144 0.0
C2670 C 0.86634 0.62166 0.5702 0.0
C2671 C 0.86115 0.62078 0.55257 0.0
C2672 C 0.86689 0.59449 0.51117 0.0
C2673 C 0.87112 0.61331 0.46548 0.0
C2674 C 0.86726 0.61195 0.48454 0.0
C2675 C 0.86862 0.60856 0.5411 0.0
C2676 C 0.86604 0.60959 0.52163 0.0
H2677 H 0.85751 0.63305 0.42779 0.0
H2678 H 0.84927 0.62973 0.45873 0.0
H2679 H 0.86907 0.58383 0.48542 0.0
H2680 H 0.89548 0.58854 0.57028 0.0
H2681 H 0.88651 0.58679 0.54002 0.0
C2682 C 0.8926 0.37097 0.93146 0.0
C2683 C 0.88255 0.38508 0.9256 0.0
C2684 C 0.89349 0.36692 0.9494 0.0
C2685 C 0.86971 0.37392 0.99093 0.0
H2686 H 0.91448 0.37093 0.01443 0.0
C2687 C 0.87691 0.39413 0.06146 0.0
C2688 C 0.88402 0.38238 0.07358 0.0
C2689 C 0.87843 0.39137 0.04359 0.0
C2690 C 0.90189 0.37142 0.00802 0.0
H2691 H 0.86516 0.40555 0.93388 0.0
H2692 H 0.86636 0.39836 0.9646 0.0
H2693 H 0.91309 0.3709 0.98234 0.0
H2694 H 0.89932 0.35894 0.07621 0.0
H2695 H 0.90228 0.3542 0.04445 0.0
H2696 H 0.85852 0.37525 0.01637 0.0
C2697 C 0.87364 0.3904 0.95559 0.0
C2698 C 0.90107 0.37138 0.98965 0.0
C2699 C 0.873 0.39458 0.93791 0.0
C2700 C 0.89372 0.36825 0.06724 0.0
C2701 C 0.89535 0.36551 0.04909 0.0
C2702 C 0.87053 0.37401 0.00912 0.0
C2703 C 0.88402 0.37666 0.96169 0.0
C2704 C 0.88499 0.37327 0.9809 0.0
C2705 C 0.88719 0.37679 0.03711 0.0
C2706 C 0.88664 0.37339 0.01793 0.0
H2707 H 0.90026 0.36354 0.92232 0.0
H2708 H 0.90158 0.35624 0.95367 0.0
H2709 H 0.85708 0.37503 0.98467 0.0
H2710 H 0.86956 0.40531 0.06578 0.0
H2711 H 0.87232 0.40051 0.03476 0.0
C2712 C 0.11852 0.39036 0.5651 0.0
C2713 C 0.13168 0.39348 0.57759 0.0
C2714 C 0.12126 0.39385 0.54745 0.0
C2715 C 0.15575 0.39651 0.5145 0.0
H2716 H 0.11763 0.41234 0.48536 0.0
C2717 C 0.13237 0.40408 0.4367 0.0
C2718 C 0.13736 0.3875 0.43086 0.0
C2719 C 0.13551 0.4092 0.45407 0.0
C2720 C 0.12861 0.4082 0.4932 0.0
H2721 H 0.15806 0.40311 0.58123 0.0
H2722 H 0.16303 0.40911 0.55004 0.0
H2723 H 0.11508 0.41368 0.51691 0.0
H2724 H 0.15081 0.36396 0.43824 0.0
H2725 H 0.15662 0.3729 0.46813 0.0
H2726 H 0.16911 0.39064 0.49072 0.0
C2727 C 0.15048 0.40398 0.55409 0.0
C2728 C 0.12704 0.40878 0.5114 0.0
C2729 C 0.14761 0.40071 0.57196 0.0
C2730 C 0.14708 0.37695 0.44224 0.0
C2731 C 0.15031 0.38208 0.4595 0.0
C2732 C 0.15731 0.39586 0.49625 0.0
C2733 C 0.13735 0.40042 0.54156 0.0
C2734 C 0.14036 0.40247 0.52234 0.0
C2735 C 0.14377 0.39788 0.46597 0.0
C2736 C 0.14355 0.40127 0.48529 0.0
H2737 H 0.10609 0.38478 0.56894 0.0
H2738 H 0.11091 0.39069 0.5383 0.0
H2739 H 0.16627 0.39149 0.52245 0.0
H2740 H 0.12454 0.41236 0.4284 0.0
H2741 H 0.13054 0.42161 0.45843 0.0
C2742 C 0.90555 0.62584 0.94104 0.0
C2743 C 0.89162 0.63101 0.93032 0.0
C2744 C 0.90649 0.63098 0.95853 0.0
C2745 C 0.87681 0.64337 0.99445 0.0
H2746 H 0.92005 0.64478 0.02078 0.0
C2747 C 0.87882 0.64276 0.07085 0.0
C2748 C 0.88954 0.62954 0.07748 0.0
C2749 C 0.87976 0.64753 0.05311 0.0
C2750 C 0.90784 0.64449 0.01364 0.0
H2751 H 0.86812 0.6463 0.92944 0.0
H2752 H 0.86998 0.65585 0.95992 0.0
H2753 H 0.92083 0.6459 0.98905 0.0
H2754 H 0.90996 0.61143 0.07099 0.0
H2755 H 0.91205 0.62008 0.04055 0.0
H2756 H 0.8639 0.64167 0.01919 0.0
C2757 C 0.88016 0.64764 0.95484 0.0
C2758 C 0.90826 0.64505 0.99538 0.0
C2759 C 0.87928 0.6425 0.93722 0.0
C2760 C 0.90167 0.6218 0.06629 0.0
C2761 C 0.90288 0.62678 0.04881 0.0
C2762 C 0.87639 0.64298 0.01277 0.0
C2763 C 0.89342 0.64136 0.96596 0.0
C2764 C 0.8928 0.6439 0.98542 0.0
C2765 C 0.89169 0.63942 0.04182 0.0
C2766 C 0.89192 0.64296 0.0226 0.0
H2767 H 0.91498 0.61659 0.93624 0.0
H2768 H 0.9168 0.62561 0.96652 0.0
H2769 H 0.86459 0.64228 0.98739 0.0
H2770 H 0.86914 0.64873 0.0791 0.0
H2771 H 0.87096 0.65733 0.04815 0.0
C2772 C 0.88617 0.38857 0.43927 0.0
C2773 C 0.8723 0.38977 0.42732 0.0
C2774 C 0.88361 0.39151 0.45704 0.0
C2775 C 0.85012 0.38727 0.49056 0.0
H2776 H 0.88621 0.40776 0.51987 0.0
C2777 C 0.87391 0.39418 0.5682 0.0
C2778 C 0.87212 0.37654 0.57288 0.0
C2779 C 0.86959 0.39971 0.55125 0.0
C2780 C 0.87578 0.40226 0.51198 0.0
H2781 H 0.84484 0.39543 0.42461 0.0
H2782 H 0.84021 0.40042 0.45599 0.0
H2783 H 0.88767 0.41121 0.48836 0.0
H2784 H 0.86309 0.35124 0.56399 0.0
H2785 H 0.85518 0.36082 0.53482 0.0
H2786 H 0.83854 0.37782 0.5142 0.0
C2787 C 0.85316 0.39732 0.45147 0.0
C2788 C 0.87673 0.40409 0.49383 0.0
C2789 C 0.85583 0.39466 0.43349 0.0
C2790 C 0.86438 0.36496 0.56085 0.0
C2791 C 0.8599 0.37049 0.54404 0.0
C2792 C 0.84921 0.38535 0.50875 0.0
C2793 C 0.867 0.39547 0.46351 0.0
C2794 C 0.86421 0.39618 0.48282 0.0
C2795 C 0.86325 0.38774 0.53869 0.0
C2796 C 0.86231 0.39239 0.51971 0.0
H2797 H 0.89899 0.3847 0.43492 0.0
H2798 H 0.89454 0.38973 0.46584 0.0
H2799 H 0.84028 0.38094 0.48254 0.0
H2800 H 0.88014 0.40334 0.57705 0.0
H2801 H 0.87212 0.41315 0.54769 0.0
C2802 C 0.13922 0.63001 0.57242 0.0
C2803 C 0.12404 0.62144 0.57824 0.0
C2804 C 0.14429 0.6288 0.5548 0.0
C2805 C 0.13865 0.60176 0.515 0.0
H2806 H 0.14287 0.64466 0.48868 0.0
C2807 C 0.12295 0.60491 0.4418 0.0
C2808 C 0.13005 0.61809 0.43123 0.0
C2809 C 0.12737 0.60375 0.45948 0.0
C2810 C 0.14218 0.63248 0.49577 0.0
H2811 H 0.10273 0.60439 0.57038 0.0
H2812 H 0.11184 0.60177 0.54018 0.0
H2813 H 0.14128 0.64574 0.52046 0.0
H2814 H 0.14796 0.64003 0.43082 0.0
H2815 H 0.15625 0.63771 0.46166 0.0
H2816 H 0.13933 0.58843 0.49052 0.0
C2817 C 0.11977 0.60957 0.54899 0.0
C2818 C 0.14121 0.63314 0.51407 0.0
C2819 C 0.11451 0.61113 0.56633 0.0
C2820 C 0.14264 0.62941 0.43851 0.0
C2821 C 0.14708 0.62829 0.45631 0.0
C2822 C 0.13984 0.60107 0.49679 0.0
C2823 C 0.13453 0.61859 0.54286 0.0
C2824 C 0.13884 0.61782 0.52386 0.0
C2825 C 0.13897 0.61586 0.46724 0.0
C2826 C 0.14097 0.61644 0.48678 0.0
H2827 H 0.14671 0.6382 0.58126 0.0
H2828 H 0.15573 0.63592 0.55047 0.0
H2829 H 0.13707 0.58969 0.52217 0.0
H2830 H 0.11285 0.59632 0.43669 0.0
H2831 H 0.12057 0.59412 0.46729 0.0
C2832 C 0.32182 0.12458 0.3968 0.0
C2833 C 0.32902 0.11344 0.38425 0.0
C2834 C 0.3036 0.12524 0.39915 0.0
C2835 C 0.26205 0.10062 0.38889 0.0
H2836 H 0.24034 0.14528 0.39671 0.0
C2837 C 0.18653 0.11129 0.38352 0.0
C2838 C 0.17915 0.12285 0.39558 0.0
C2839 C 0.20478 0.10927 0.38269 0.0
C2840 C 0.24615 0.13263 0.39471 0.0
H2841 H 0.32253 0.09408 0.36453 0.0
H2842 H 0.29131 0.09539 0.36842 0.0
H2843 H 0.27198 0.14357 0.3951 0.0
H2844 H 0.18531 0.14078 0.4167 0.0
H2845 H 0.2166 0.13714 0.41537 0.0
H2846 H 0.23614 0.08975 0.3883 0.0
C2847 C 0.29953 0.10347 0.3767 0.0
C2848 C 0.26439 0.13165 0.39384 0.0
C2849 C 0.31758 0.10283 0.37437 0.0
C2850 C 0.19043 0.13187 0.40708 0.0
C2851 C 0.2085 0.12989 0.40625 0.0
C2852 C 0.24379 0.10162 0.3897 0.0
C2853 C 0.29217 0.11471 0.38905 0.0
C2854 C 0.27267 0.11565 0.39086 0.0
C2855 C 0.21604 0.11881 0.39387 0.0
C2856 C 0.23554 0.11764 0.39263 0.0
H2857 H 0.3302 0.13293 0.40463 0.0
H2858 H 0.29849 0.13396 0.40893 0.0
H2859 H 0.26785 0.08798 0.38685 0.0
H2860 H 0.17827 0.10418 0.37443 0.0
H2861 H 0.21008 0.10063 0.37294 0.0
C2862 C 0.40224 0.68489 0.90855 0.0
C2863 C 0.39221 0.67346 0.89813 0.0
C2864 C 0.4017 0.70292 0.906 0.0
C2865 C 0.3888 0.73879 0.87642 0.0
H2866 H 0.38428 0.7641 0.9199 0.0
C2867 C 0.38333 0.81456 0.87776 0.0
C2868 C 0.39407 0.82289 0.89019 0.0
C2869 C 0.38018 0.79645 0.87865 0.0
C2870 C 0.38565 0.75734 0.90761 0.0
H2871 H 0.37449 0.67208 0.87613 0.0
H2872 H 0.37373 0.70383 0.87143 0.0
H2873 H 0.3861 0.73248 0.92024 0.0
H2874 H 0.40946 0.81891 0.91348 0.0
H2875 H 0.40374 0.78774 0.91536 0.0
H2876 H 0.38877 0.76379 0.86383 0.0
C2877 C 0.38203 0.69871 0.88163 0.0
C2878 C 0.38672 0.73912 0.9078 0.0
C2879 C 0.38258 0.6805 0.8842 0.0
C2880 C 0.40069 0.81295 0.90404 0.0
C2881 C 0.39748 0.79498 0.905 0.0
C2882 C 0.38783 0.75712 0.87622 0.0
C2883 C 0.39104 0.71018 0.89299 0.0
C2884 C 0.38869 0.72957 0.89227 0.0
C2885 C 0.38769 0.7863 0.892 0.0
C2886 C 0.38659 0.7667 0.89187 0.0
H2887 H 0.40981 0.67991 0.91939 0.0
H2888 H 0.4092 0.71125 0.9147 0.0
H2889 H 0.39029 0.73189 0.8642 0.0
H2890 H 0.3785 0.82177 0.86664 0.0
H2891 H 0.3724 0.79032 0.8685 0.0
C2892 C 0.68317 0.90397 0.3769 0.0
C2893 C 0.67188 0.89331 0.38676 0.0
C2894 C 0.70125 0.90348 0.3793 0.0
C2895 C 0.73666 0.87557 0.39681 0.0
H2896 H 0.76474 0.91749 0.3909 0.0
C2897 C 0.81057 0.87605 0.41105 0.0
C2898 C 0.82186 0.8849 0.39956 0.0
C2899 C 0.79249 0.87786 0.40987 0.0
C2900 C 0.75713 0.90562 0.3924 0.0
H2901 H 0.67098 0.87391 0.40722 0.0
H2902 H 0.70271 0.87319 0.41168 0.0
H2903 H 0.73301 0.91913 0.38923 0.0
H2904 H 0.82274 0.90306 0.378 0.0
H2905 H 0.7909 0.90632 0.37589 0.0
H2906 H 0.76078 0.86208 0.40005 0.0
C2907 C 0.69748 0.88181 0.40183 0.0
C2908 C 0.73886 0.90653 0.39146 0.0
C2909 C 0.67925 0.8823 0.3994 0.0
C2910 C 0.81447 0.89608 0.38708 0.0
C2911 C 0.79621 0.89794 0.3859 0.0
C2912 C 0.75491 0.87467 0.39782 0.0
C2913 C 0.70878 0.89234 0.39171 0.0
C2914 C 0.7283 0.89151 0.39358 0.0
C2915 C 0.78495 0.8886 0.39713 0.0
C2916 C 0.76545 0.88967 0.39563 0.0
H2917 H 0.67808 0.91261 0.36699 0.0
H2918 H 0.70934 0.91156 0.37101 0.0
H2919 H 0.72913 0.86364 0.39818 0.0
H2920 H 0.81568 0.86743 0.42098 0.0
H2921 H 0.78439 0.87078 0.41902 0.0
C2922 C 0.62309 0.19231 0.87489 0.0
C2923 C 0.61225 0.18418 0.88724 0.0
C2924 C 0.62666 0.21035 0.87588 0.0
C2925 C 0.62194 0.24946 0.90513 0.0
H2926 H 0.61839 0.27533 0.86186 0.0
C2927 C 0.60584 0.32191 0.90622 0.0
C2928 C 0.61681 0.33334 0.89693 0.0
C2929 C 0.60613 0.30394 0.90323 0.0
C2930 C 0.61956 0.2683 0.87403 0.0
H2931 H 0.59712 0.18842 0.91051 0.0
H2932 H 0.60346 0.21943 0.91251 0.0
H2933 H 0.61929 0.24339 0.86122 0.0
H2934 H 0.63596 0.33484 0.87636 0.0
H2935 H 0.6362 0.3032 0.87077 0.0
H2936 H 0.62165 0.27424 0.91796 0.0
C2937 C 0.60952 0.21211 0.90215 0.0
C2938 C 0.62018 0.24994 0.8737 0.0
C2939 C 0.60593 0.19422 0.9011 0.0
C2940 C 0.62712 0.32643 0.88352 0.0
C2941 C 0.62738 0.30828 0.88046 0.0
C2942 C 0.62115 0.26769 0.90546 0.0
C2943 C 0.61945 0.22063 0.88926 0.0
C2944 C 0.62102 0.24021 0.88929 0.0
C2945 C 0.61744 0.29677 0.89085 0.0
C2946 C 0.61957 0.27737 0.88997 0.0
H2947 H 0.62772 0.18502 0.86378 0.0
H2948 H 0.63453 0.21633 0.86582 0.0
H2949 H 0.62305 0.2426 0.91741 0.0
H2950 H 0.59778 0.32679 0.91668 0.0
H2951 H 0.59799 0.29554 0.91118 0.0
C2952 C 0.32127 0.88237 0.62669 0.0
C2953 C 0.32918 0.89373 0.61467 0.0
C2954 C 0.30324 0.8788 0.62578 0.0
C2955 C 0.26348 0.88504 0.59754 0.0
H2956 H 0.23889 0.88744 0.64152 0.0
C2957 C 0.19137 0.90229 0.5987 0.0
C2958 C 0.18008 0.89093 0.60768 0.0
C2959 C 0.20939 0.90175 0.60138 0.0
C2960 C 0.24557 0.8866 0.62915 0.0
H2961 H 0.32459 0.90963 0.59189 0.0
H2962 H 0.29358 0.90328 0.59 0.0
H2963 H 0.2708 0.88601 0.64135 0.0
H2964 H 0.17884 0.87081 0.62739 0.0
H2965 H 0.21058 0.87013 0.63247 0.0
H2966 H 0.23836 0.88625 0.58533 0.0
C2967 C 0.30106 0.89685 0.60007 0.0
C2968 C 0.26389 0.88566 0.62902 0.0
C2969 C 0.31897 0.90043 0.60104 0.0
C2970 C 0.18716 0.87997 0.62054 0.0
C2971 C 0.20536 0.87945 0.62328 0.0
C2972 C 0.24527 0.88617 0.59768 0.0
C2973 C 0.29274 0.88653 0.61281 0.0
C2974 C 0.27316 0.88523 0.61317 0.0
C2975 C 0.21672 0.88978 0.61312 0.0
C2976 C 0.23607 0.88734 0.61345 0.0
H2977 H 0.32871 0.87743 0.63764 0.0
H2978 H 0.29741 0.8706 0.63569 0.0
H2979 H 0.26998 0.88428 0.58507 0.0
H2980 H 0.18633 0.9108 0.58863 0.0
H2981 H 0.21769 0.91017 0.59362 0.0
C2982 C 0.62342 0.69073 0.09581 0.0
C2983 C 0.62149 0.68063 0.11099 0.0
C2984 C 0.62163 0.70888 0.09627 0.0
C2985 C 0.62837 0.74654 0.12422 0.0
H2986 H 0.59884 0.77129 0.09155 0.0
C2987 C 0.63195 0.82216 0.11344 0.0
C2988 C 0.61592 0.83048 0.11601 0.0
C2989 C 0.63268 0.80386 0.11202 0.0
C2990 C 0.60721 0.76457 0.1007 0.0
H2991 H 0.61611 0.68173 0.13861 0.0
H2992 H 0.61348 0.71373 0.13957 0.0
H2993 H 0.59905 0.73931 0.09147 0.0
H2994 H 0.58808 0.82624 0.11846 0.0
H2995 H 0.58926 0.79457 0.11509 0.0
H2996 H 0.63684 0.77184 0.13316 0.0
C2997 C 0.61611 0.70743 0.12723 0.0
C2998 C 0.60731 0.74626 0.10067 0.0
C2999 C 0.61744 0.68913 0.12667 0.0
C3000 C 0.60062 0.82022 0.11633 0.0
C3001 C 0.60129 0.80207 0.11445 0.0
C3002 C 0.62858 0.76487 0.12397 0.0
C3003 C 0.61832 0.71752 0.11203 0.0
C3004 C 0.6178 0.73701 0.11251 0.0
C3005 C 0.61734 0.7936 0.11269 0.0
C3006 C 0.61793 0.77411 0.11227 0.0
H3007 H 0.62664 0.68457 0.08354 0.0
H3008 H 0.62348 0.71623 0.08437 0.0
H3009 H 0.63672 0.73981 0.13338 0.0
H3010 H 0.64397 0.82969 0.11343 0.0
H3011 H 0.64524 0.79771 0.11062 0.0
C3012 C 0.82121 0.09849 0.60352 0.0
C3013 C 0.8325 0.11012 0.61226 0.0
C3014 C 0.80331 0.09829 0.60688 0.0
C3015 C 0.7679 0.12678 0.62289 0.0
H3016 H 0.74058 0.08436 0.61736 0.0
C3017 C 0.69125 0.12005 0.6304 0.0
C3018 C 0.68303 0.10874 0.6184 0.0
C3019 C 0.70954 0.12224 0.63035 0.0
C3020 C 0.74798 0.09638 0.61881 0.0
H3021 H 0.83384 0.13036 0.63188 0.0
H3022 H 0.8024 0.12981 0.63813 0.0
H3023 H 0.77219 0.08285 0.61822 0.0
H3024 H 0.68736 0.09175 0.59638 0.0
H3025 H 0.7189 0.09585 0.59597 0.0
H3026 H 0.74336 0.1402 0.62361 0.0
C3027 C 0.80745 0.12088 0.62851 0.0
C3028 C 0.76619 0.09552 0.61931 0.0
C3029 C 0.82553 0.12099 0.62519 0.0
C3030 C 0.69328 0.10074 0.60562 0.0
C3031 C 0.71141 0.10288 0.60558 0.0
C3032 C 0.74955 0.12762 0.62255 0.0
C3033 C 0.79601 0.10981 0.61907 0.0
C3034 C 0.77651 0.11072 0.62091 0.0
C3035 C 0.71989 0.113 0.61841 0.0
C3036 C 0.73937 0.11245 0.62004 0.0
H3037 H 0.82612 0.09016 0.59328 0.0
H3038 H 0.79508 0.08973 0.59911 0.0
H3039 H 0.77533 0.13881 0.62402 0.0
H3040 H 0.68375 0.12601 0.64069 0.0
H3041 H 0.71563 0.13015 0.64041 0.0
C3042 C 0.37556 0.18529 0.11062 0.0
C3043 C 0.39081 0.17681 0.11601 0.0
C3044 C 0.37523 0.20361 0.1092 0.0
C3045 C 0.40076 0.24367 0.12339 0.0
H3046 H 0.36938 0.26699 0.09164 0.0
C3047 C 0.39201 0.31933 0.12458 0.0
C3048 C 0.38689 0.32766 0.10912 0.0
C3049 C 0.39318 0.30101 0.12528 0.0
C3050 C 0.37849 0.26082 0.10044 0.0
H3051 H 0.41789 0.18081 0.12319 0.0
H3052 H 0.41769 0.21224 0.11973 0.0
H3053 H 0.37021 0.23544 0.09202 0.0
H3054 H 0.37996 0.32344 0.08206 0.0
H3055 H 0.38304 0.292 0.08289 0.0
H3056 H 0.40966 0.26904 0.1312 0.0
C3057 C 0.40566 0.20511 0.11738 0.0
C3058 C 0.37872 0.24252 0.10088 0.0
C3059 C 0.40587 0.18695 0.11913 0.0
C3060 C 0.38385 0.3174 0.09422 0.0
C3061 C 0.38537 0.29924 0.09479 0.0
C3062 C 0.40075 0.26197 0.12274 0.0
C3063 C 0.39024 0.21388 0.11286 0.0
C3064 C 0.38988 0.23356 0.11234 0.0
C3065 C 0.38954 0.2906 0.11045 0.0
C3066 C 0.38963 0.27092 0.11123 0.0
H3067 H 0.36369 0.17786 0.10833 0.0
H3068 H 0.36299 0.20968 0.10584 0.0
H3069 H 0.4093 0.2375 0.13275 0.0
H3070 H 0.3942 0.32686 0.13635 0.0
H3071 H 0.39629 0.29505 0.13767 0.0
C3072 C 0.10795 0.38836 0.18767 0.0
C3073 C 0.11996 0.39977 0.17971 0.0
C3074 C 0.10634 0.38791 0.20599 0.0
C3075 C 0.13132 0.39959 0.24643 0.0
H3076 H 0.0869 0.3939 0.26957 0.0
C3077 C 0.12545 0.40282 0.32226 0.0
C3078 C 0.114 0.39069 0.32998 0.0
C3079 C 0.12563 0.40507 0.30401 0.0
C3080 C 0.09948 0.39534 0.26337 0.0
H3081 H 0.13917 0.42013 0.18492 0.0
H3082 H 0.13623 0.41947 0.2163 0.0
H3083 H 0.08795 0.39479 0.2378 0.0
H3084 H 0.09352 0.37172 0.3244 0.0
H3085 H 0.09398 0.37546 0.29312 0.0
H3086 H 0.1429 0.39993 0.27192 0.0
C3087 C 0.1283 0.41056 0.20862 0.0
C3088 C 0.10006 0.39582 0.24507 0.0
C3089 C 0.12988 0.41101 0.19049 0.0
C3090 C 0.10255 0.38122 0.31903 0.0
C3091 C 0.1027 0.38346 0.30095 0.0
C3092 C 0.13075 0.39905 0.26471 0.0
C3093 C 0.11675 0.39883 0.21674 0.0
C3094 C 0.11599 0.39796 0.2363 0.0
C3095 C 0.11431 0.3953 0.29306 0.0
C3096 C 0.11483 0.39686 0.27351 0.0
H3097 H 0.10014 0.37949 0.17981 0.0
H3098 H 0.09732 0.37865 0.21174 0.0
H3099 H 0.14391 0.40097 0.24022 0.0
H3100 H 0.13446 0.41032 0.33026 0.0
H3101 H 0.13466 0.41447 0.29849 0.0
C3102 C 0.1022 0.60763 0.69095 0.0
C3103 C 0.11021 0.62 0.68003 0.0
C3104 C 0.10508 0.6079 0.70894 0.0
C3105 C 0.13188 0.6241 0.74555 0.0
H3106 H 0.08764 0.62346 0.76982 0.0
C3107 C 0.10376 0.60717 0.81821 0.0
C3108 C 0.11671 0.61467 0.82891 0.0
C3109 C 0.10304 0.61087 0.80038 0.0
C3110 C 0.10016 0.62352 0.76336 0.0
H3111 H 0.12839 0.64173 0.67936 0.0
H3112 H 0.13387 0.64192 0.71104 0.0
H3113 H 0.08809 0.62215 0.73818 0.0
H3114 H 0.13875 0.63248 0.82937 0.0
H3115 H 0.13727 0.6394 0.79811 0.0
H3116 H 0.14397 0.62484 0.77087 0.0
C3117 C 0.12532 0.632 0.70555 0.0
C3118 C 0.10041 0.62278 0.74515 0.0
C3119 C 0.12236 0.63177 0.68739 0.0
C3120 C 0.12836 0.62682 0.82153 0.0
C3121 C 0.12771 0.63049 0.80354 0.0
C3122 C 0.13165 0.62464 0.7639 0.0
C3123 C 0.11604 0.62058 0.71659 0.0
C3124 C 0.11624 0.62267 0.73599 0.0
C3125 C 0.11534 0.62214 0.7926 0.0
C3126 C 0.11576 0.62397 0.7731 0.0
H3127 H 0.09262 0.59854 0.68569 0.0
H3128 H 0.09798 0.5987 0.71701 0.0
H3129 H 0.1443 0.6241 0.73889 0.0
H3130 H 0.09484 0.59749 0.82344 0.0
H3131 H 0.09346 0.60394 0.79255 0.0
C3132 C 0.9006 0.60272 0.18969 0.0
C3133 C 0.88863 0.61137 0.17889 0.0
C3134 C 0.90028 0.60489 0.20778 0.0
C3135 C 0.88419 0.63084 0.24487 0.0
H3136 H 0.8852 0.58617 0.26851 0.0
C3137 C 0.88068 0.62604 0.32066 0.0
C3138 C 0.89285 0.61467 0.32819 0.0
C3139 C 0.87721 0.62547 0.30261 0.0
C3140 C 0.88503 0.59881 0.26223 0.0
H3141 H 0.86745 0.62977 0.17858 0.0
H3142 H 0.86715 0.63398 0.21041 0.0
H3143 H 0.88668 0.58726 0.2369 0.0
H3144 H 0.91034 0.59341 0.32288 0.0
H3145 H 0.90418 0.59212 0.29186 0.0
H3146 H 0.88309 0.6424 0.27033 0.0
C3147 C 0.87684 0.62552 0.20478 0.0
C3148 C 0.88589 0.59943 0.24402 0.0
C3149 C 0.87713 0.62329 0.18653 0.0
C3150 C 0.90056 0.60204 0.31754 0.0
C3151 C 0.89707 0.6014 0.29964 0.0
C3152 C 0.88351 0.63023 0.2632 0.0
C3153 C 0.88791 0.61571 0.21566 0.0
C3154 C 0.88585 0.61544 0.23507 0.0
C3155 C 0.8858 0.61348 0.29173 0.0
C3156 C 0.88428 0.6142 0.27219 0.0
H3157 H 0.90944 0.59327 0.18421 0.0
H3158 H 0.90925 0.59742 0.21569 0.0
H3159 H 0.88408 0.64338 0.23841 0.0
H3160 H 0.8749 0.63623 0.32844 0.0
H3161 H 0.86829 0.63485 0.2971 0.0
C3162 C 0.90417 0.39231 0.81452 0.0
C3163 C 0.88805 0.3919 0.82308 0.0
C3164 C 0.90515 0.389 0.79654 0.0
C3165 C 0.87836 0.37526 0.75713 0.0
H3166 H 0.91202 0.40426 0.73286 0.0
C3167 C 0.87661 0.38661 0.6817 0.0
C3168 C 0.89254 0.38338 0.67336 0.0
C3169 C 0.87584 0.38768 0.70001 0.0
C3170 C 0.90255 0.39605 0.73944 0.0
H3171 H 0.8604 0.38735 0.81964 0.0
H3172 H 0.86191 0.38178 0.7885 0.0
H3173 H 0.91172 0.40406 0.76455 0.0
H3174 H 0.92017 0.37948 0.6776 0.0
H3175 H 0.91894 0.38203 0.70924 0.0
H3176 H 0.86891 0.36779 0.73176 0.0
C3177 C 0.87399 0.3841 0.79551 0.0
C3178 C 0.90248 0.39575 0.75771 0.0
C3179 C 0.87309 0.38716 0.81349 0.0
C3180 C 0.90771 0.38205 0.68362 0.0
C3181 C 0.90701 0.38351 0.70178 0.0
C3182 C 0.87826 0.3758 0.73883 0.0
C3183 C 0.88995 0.38565 0.78656 0.0
C3184 C 0.89044 0.38529 0.76693 0.0
C3185 C 0.89104 0.38597 0.71027 0.0
C3186 C 0.89041 0.38615 0.72975 0.0
H3187 H 0.91584 0.39641 0.82148 0.0
H3188 H 0.91778 0.38987 0.79036 0.0
H3189 H 0.86902 0.36681 0.76356 0.0
H3190 H 0.86468 0.38747 0.67415 0.0
H3191 H 0.86335 0.3897 0.70616 0.0
C3192 C 0.69175 0.89131 0.6397 0.0
C3193 C 0.68089 0.88034 0.62959 0.0
C3194 C 0.70968 0.88839 0.64103 0.0
C3195 C 0.74603 0.86968 0.61678 0.0
H3196 H 0.77181 0.87646 0.65992 0.0
C3197 C 0.82082 0.86355 0.6176 0.0
C3198 C 0.8307 0.87501 0.62809 0.0
C3199 C 0.80274 0.86206 0.61948 0.0
C3200 C 0.76491 0.87471 0.64769 0.0
H3201 H 0.68044 0.85737 0.61321 0.0
H3202 H 0.71207 0.85235 0.61525 0.0
H3203 H 0.73998 0.87729 0.66001 0.0
H3204 H 0.82932 0.8936 0.64921 0.0
H3205 H 0.79753 0.89149 0.65226 0.0
H3206 H 0.77073 0.86786 0.60424 0.0
C3207 C 0.70654 0.86323 0.62224 0.0
C3208 C 0.74659 0.87508 0.64778 0.0
C3209 C 0.68842 0.86601 0.62116 0.0
C3210 C 0.82209 0.88451 0.64107 0.0
C3211 C 0.80382 0.88327 0.64276 0.0
C3212 C 0.76432 0.86951 0.61665 0.0
C3213 C 0.71744 0.87453 0.63207 0.0
C3214 C 0.73689 0.87267 0.6323 0.0
C3215 C 0.79378 0.87231 0.63167 0.0
C3216 C 0.77413 0.87207 0.63209 0.0
H3217 H 0.68641 0.90246 0.64643 0.0
H3218 H 0.71759 0.89746 0.64856 0.0
H3219 H 0.73906 0.8681 0.60457 0.0
H3220 H 0.82709 0.85593 0.60756 0.0
H3221 H 0.79577 0.85302 0.61107 0.0
C3222 C 0.62638 0.18956 0.11765 0.0
C3223 C 0.63595 0.18068 0.13046 0.0
C3224 C 0.62696 0.20785 0.11669 0.0
C3225 C 0.63691 0.24593 0.14582 0.0
H3226 H 0.62629 0.27272 0.1044 0.0
C3227 C 0.64135 0.32177 0.14114 0.0
C3228 C 0.62889 0.33034 0.13084 0.0
C3229 C 0.64118 0.30353 0.1426 0.0
C3230 C 0.62905 0.2654 0.11614 0.0
H3231 H 0.65447 0.18391 0.15154 0.0
H3232 H 0.6566 0.21557 0.14909 0.0
H3233 H 0.63058 0.24137 0.10205 0.0
H3234 H 0.60617 0.32652 0.11443 0.0
H3235 H 0.60567 0.2947 0.11714 0.0
H3236 H 0.63582 0.27017 0.15976 0.0
C3237 C 0.6481 0.2086 0.14013 0.0
C3238 C 0.63155 0.24735 0.1148 0.0
C3239 C 0.64729 0.19036 0.14125 0.0
C3240 C 0.61558 0.32035 0.12294 0.0
C3241 C 0.61555 0.30208 0.12418 0.0
C3242 C 0.63464 0.26402 0.1471 0.0
C3243 C 0.63723 0.21773 0.12847 0.0
C3244 C 0.63548 0.23725 0.12963 0.0
C3245 C 0.62876 0.2934 0.13346 0.0
C3246 C 0.63057 0.274 0.1323 0.0
H3247 H 0.61705 0.18253 0.10958 0.0
H3248 H 0.61827 0.21419 0.10758 0.0
H3249 H 0.63945 0.23873 0.15767 0.0
H3250 H 0.65212 0.32907 0.14684 0.0
H3251 H 0.6516 0.29732 0.14978 0.0
C3252 C 0.19185 0.12303 0.64367 0.0
C3253 C 0.18377 0.13193 0.62987 0.0
C3254 C 0.21012 0.12387 0.64585 0.0
C3255 C 0.24988 0.14949 0.63343 0.0
H3256 H 0.27388 0.10566 0.6389 0.0
C3257 C 0.32503 0.14276 0.62232 0.0
C3258 C 0.33385 0.12964 0.63149 0.0
C3259 C 0.30679 0.14441 0.62381 0.0
C3260 C 0.26752 0.11814 0.63772 0.0
H3261 H 0.18846 0.14933 0.60809 0.0
H3262 H 0.21988 0.15103 0.61206 0.0
H3263 H 0.24221 0.10614 0.63952 0.0
H3264 H 0.33064 0.10878 0.65024 0.0
H3265 H 0.29943 0.11217 0.65353 0.0
H3266 H 0.27516 0.16155 0.63168 0.0
C3267 C 0.21231 0.14331 0.62116 0.0
C3268 C 0.24924 0.11836 0.63806 0.0
C3269 C 0.19424 0.14223 0.61883 0.0
C3270 C 0.32422 0.11892 0.64284 0.0
C3271 C 0.30619 0.12074 0.64456 0.0
C3272 C 0.26821 0.14931 0.63329 0.0
C3273 C 0.2206 0.13392 0.63449 0.0
C3274 C 0.24013 0.13399 0.63574 0.0
C3275 C 0.29701 0.13312 0.63468 0.0
C3276 C 0.27737 0.1336 0.63531 0.0
H3277 H 0.18418 0.11493 0.65235 0.0
H3278 H 0.21606 0.11654 0.65633 0.0
H3279 H 0.24332 0.16181 0.63173 0.0
H3280 H 0.33206 0.15111 0.61335 0.0
H3281 H 0.30032 0.15407 0.61588 0.0
C3282 C 0.35859 0.81767 0.14273 0.0
C3283 C 0.36934 0.8271 0.13129 0.0
C3284 C 0.35755 0.79942 0.14186 0.0
C3285 C 0.37197 0.76023 0.11601 0.0
H3286 H 0.36904 0.73762 0.16111 0.0
C3287 C 0.38565 0.68655 0.12403 0.0
C3288 C 0.37228 0.67717 0.1324 0.0
C3289 C 0.38639 0.70484 0.12504 0.0
C3290 C 0.36985 0.74371 0.14841 0.0
H3291 H 0.38712 0.82482 0.10968 0.0
H3292 H 0.38557 0.79311 0.10816 0.0
H3293 H 0.36637 0.76916 0.15912 0.0
H3294 H 0.34971 0.6795 0.14896 0.0
H3295 H 0.3515 0.71125 0.15151 0.0
H3296 H 0.3759 0.73466 0.10546 0.0
C3297 C 0.37745 0.79966 0.11756 0.0
C3298 C 0.36813 0.76187 0.14719 0.0
C3299 C 0.37823 0.81796 0.11827 0.0
C3300 C 0.36048 0.68634 0.14285 0.0
C3301 C 0.3614 0.70457 0.14412 0.0
C3302 C 0.37394 0.74209 0.11728 0.0
C3303 C 0.36766 0.79003 0.12983 0.0
C3304 C 0.36904 0.77048 0.13095 0.0
C3305 C 0.37388 0.71412 0.1346 0.0
C3306 C 0.37285 0.73357 0.13348 0.0
H3307 H 0.35194 0.82434 0.15319 0.0
H3308 H 0.34943 0.79267 0.15122 0.0
H3309 H 0.37253 0.76615 0.10323 0.0
H3310 H 0.39455 0.6799 0.11542 0.0
H3311 H 0.39628 0.71177 0.11769 0.0
C3312 C 0.68967 0.14435 0.36407 0.0
C3313 C 0.68014 0.13395 0.3758 0.0
C3314 C 0.70793 0.14531 0.36505 0.0
C3315 C 0.74431 0.11735 0.37745 0.0
H3316 H 0.77319 0.15843 0.37058 0.0
C3317 C 0.8198 0.11616 0.38398 0.0
C3318 C 0.82978 0.12918 0.37576 0.0
C3319 C 0.80157 0.11583 0.38231 0.0
C3320 C 0.76539 0.14671 0.37212 0.0
H3321 H 0.68225 0.11686 0.39808 0.0
H3322 H 0.71412 0.11862 0.39996 0.0
H3323 H 0.74169 0.16138 0.37288 0.0
H3324 H 0.8286 0.15134 0.35844 0.0
H3325 H 0.79704 0.15001 0.35435 0.0
H3326 H 0.76777 0.10255 0.37618 0.0
C3327 C 0.70747 0.12614 0.39006 0.0
C3328 C 0.74726 0.14848 0.37364 0.0
C3329 C 0.68919 0.12543 0.38923 0.0
C3330 C 0.82129 0.14086 0.36457 0.0
C3331 C 0.80309 0.14038 0.36265 0.0
C3332 C 0.7624 0.11553 0.37566 0.0
C3333 C 0.7171 0.13553 0.37755 0.0
C3334 C 0.73649 0.13384 0.37647 0.0
C3335 C 0.79283 0.12847 0.37226 0.0
C3336 C 0.7733 0.13018 0.37305 0.0
H3337 H 0.68309 0.15055 0.35322 0.0
H3338 H 0.7149 0.15259 0.35517 0.0
H3339 H 0.73637 0.10574 0.37924 0.0
H3340 H 0.8259 0.10739 0.39319 0.0
H3341 H 0.79433 0.10649 0.39006 0.0
C3342 C 0.39211 0.3138 0.8673 0.0
C3343 C 0.37733 0.32355 0.87148 0.0
C3344 C 0.39112 0.29549 0.86634 0.0
C3345 C 0.36251 0.25795 0.88082 0.0
H3346 H 0.39479 0.23121 0.85324 0.0
C3347 C 0.37066 0.18299 0.89046 0.0
C3348 C 0.37685 0.17298 0.87653 0.0
C3349 C 0.3691 0.20119 0.88883 0.0
C3350 C 0.38539 0.23832 0.86085 0.0
H3351 H 0.34986 0.32196 0.87745 0.0
H3352 H 0.34772 0.29035 0.87462 0.0
H3353 H 0.39494 0.26267 0.85101 0.0
H3354 H 0.38563 0.17397 0.84983 0.0
H3355 H 0.38177 0.20526 0.84648 0.0
H3356 H 0.35244 0.23355 0.89007 0.0
C3357 C 0.36031 0.29652 0.87267 0.0
C3358 C 0.38572 0.2566 0.8598 0.0
C3359 C 0.36141 0.31474 0.87397 0.0
C3360 C 0.38065 0.18137 0.86073 0.0
C3361 C 0.37874 0.19944 0.85896 0.0
C3362 C 0.36198 0.23965 0.88165 0.0
C3363 C 0.37524 0.28648 0.86937 0.0
C3364 C 0.3744 0.2668 0.86988 0.0
C3365 C 0.37351 0.20981 0.87315 0.0
C3366 C 0.3735 0.22946 0.87178 0.0
H3367 H 0.40464 0.32024 0.86579 0.0
H3368 H 0.40303 0.28845 0.86404 0.0
H3369 H 0.35373 0.2651 0.8891 0.0
H3370 H 0.36806 0.1769 0.90292 0.0
H3371 H 0.36524 0.20852 0.9002 0.0
C3372 C 0.18318 0.8826 0.39762 0.0
C3373 C 0.17221 0.87606 0.38438 0.0
C3374 C 0.20133 0.88274 0.39568 0.0
C3375 C 0.23766 0.87695 0.36404 0.0
H3376 H 0.26299 0.8619 0.40516 0.0
C3377 C 0.31115 0.86306 0.36008 0.0
C3378 C 0.32174 0.86981 0.37354 0.0
C3379 C 0.29302 0.8619 0.36196 0.0
C3380 C 0.2562 0.86626 0.39358 0.0
H3381 H 0.17167 0.8649 0.35851 0.0
H3382 H 0.20344 0.86534 0.3549 0.0
H3383 H 0.23151 0.86561 0.40647 0.0
H3384 H 0.32162 0.87989 0.39985 0.0
H3385 H 0.28997 0.87778 0.40329 0.0
H3386 H 0.26234 0.87773 0.35117 0.0
C3387 C 0.19801 0.87063 0.36676 0.0
C3388 C 0.23807 0.86846 0.39433 0.0
C3389 C 0.17976 0.87055 0.36871 0.0
C3390 C 0.31388 0.87415 0.38944 0.0
C3391 C 0.29566 0.87312 0.3913 0.0
C3392 C 0.2558 0.87479 0.36329 0.0
C3393 C 0.20908 0.8761 0.38051 0.0
C3394 C 0.2285 0.87392 0.37959 0.0
C3395 C 0.28489 0.86771 0.37728 0.0
C3396 C 0.26539 0.8694 0.37805 0.0
H3397 H 0.17774 0.88659 0.40998 0.0
H3398 H 0.20931 0.88744 0.40641 0.0
H3399 H 0.23085 0.88134 0.35247 0.0
H3400 H 0.3168 0.85991 0.34757 0.0
H3401 H 0.28531 0.85721 0.35103 0.0
C3402 C 0.64184 0.693 0.88947 0.0
C3403 C 0.63218 0.68227 0.87799 0.0
C3404 C 0.64299 0.71103 0.88693 0.0
C3405 C 0.61874 0.74739 0.86778 0.0
H3406 H 0.66097 0.77403 0.87735 0.0
C3407 C 0.61858 0.82218 0.862 0.0
C3408 C 0.62808 0.83216 0.87421 0.0
C3409 C 0.62091 0.80418 0.86062 0.0
C3410 C 0.64899 0.76686 0.87482 0.0
H3411 H 0.61648 0.68218 0.85449 0.0
H3412 H 0.61829 0.71394 0.85008 0.0
H3413 H 0.66167 0.74219 0.87767 0.0
H3414 H 0.64792 0.83108 0.89427 0.0
H3415 H 0.65175 0.79936 0.89231 0.0
H3416 H 0.60582 0.77183 0.86558 0.0
C3417 C 0.62503 0.70825 0.8611 0.0
C3418 C 0.64942 0.74854 0.87491 0.0
C3419 C 0.62409 0.69004 0.86352 0.0
C3420 C 0.64055 0.82376 0.88462 0.0
C3421 C 0.64269 0.80554 0.88346 0.0
C3422 C 0.61826 0.76566 0.86786 0.0
C3423 C 0.63433 0.71902 0.87293 0.0
C3424 C 0.63427 0.73853 0.87146 0.0
C3425 C 0.63255 0.79539 0.87171 0.0
C3426 C 0.63336 0.77577 0.8714 0.0
H3427 H 0.64829 0.68748 0.90076 0.0
H3428 H 0.65012 0.71881 0.89641 0.0
H3429 H 0.60674 0.74018 0.86542 0.0
H3430 H 0.60898 0.8283 0.85366 0.0
H3431 H 0.61327 0.79713 0.85099 0.0
C3432 C 0.86732 0.61657 0.81709 0.0
C3433 C 0.87666 0.62826 0.82787 0.0
C3434 C 0.86625 0.61913 0.79907 0.0
C3435 C 0.89034 0.63861 0.76273 0.0
H3436 H 0.84806 0.62898 0.73634 0.0
C3437 C 0.89047 0.64386 0.6878 0.0
C3438 C 0.88061 0.63181 0.67796 0.0
C3439 C 0.88833 0.64531 0.70583 0.0
C3440 C 0.86006 0.63152 0.74342 0.0
H3441 H 0.89194 0.65211 0.82808 0.0
H3442 H 0.89036 0.65652 0.7963 0.0
H3443 H 0.84738 0.62865 0.76815 0.0
H3444 H 0.86034 0.61208 0.67937 0.0
H3445 H 0.85687 0.61412 0.71109 0.0
H3446 H 0.90327 0.64075 0.73824 0.0
C3447 C 0.88376 0.64535 0.80195 0.0
C3448 C 0.85963 0.63144 0.76173 0.0
C3449 C 0.88457 0.64293 0.82016 0.0
C3450 C 0.86802 0.62161 0.68657 0.0
C3451 C 0.86607 0.62282 0.7048 0.0
C3452 C 0.89082 0.63849 0.74446 0.0
C3453 C 0.87471 0.63336 0.79115 0.0
C3454 C 0.87479 0.6349 0.77166 0.0
C3455 C 0.8765 0.63445 0.7148 0.0
C3456 C 0.87571 0.6349 0.73443 0.0
H3457 H 0.86101 0.60513 0.82257 0.0
H3458 H 0.85932 0.60953 0.79125 0.0
H3459 H 0.90233 0.641 0.76989 0.0
H3460 H 0.90017 0.65207 0.68155 0.0
H3461 H 0.89621 0.65485 0.71275 0.0
C3462 C 0.85763 0.36196 0.31593 0.0
C3463 C 0.86844 0.37329 0.3256 0.0
C3464 C 0.85691 0.363 0.29771 0.0
C3465 C 0.87209 0.38903 0.25893 0.0
H3466 H 0.8708 0.3437 0.23649 0.0
C3467 C 0.88622 0.38214 0.18546 0.0
C3468 C 0.8732 0.37308 0.1761 0.0
C3469 C 0.88721 0.38084 0.20369 0.0
C3470 C 0.87115 0.35646 0.24253 0.0
H3471 H 0.8864 0.39508 0.32378 0.0
H3472 H 0.88528 0.39699 0.29207 0.0
H3473 H 0.86727 0.34575 0.26794 0.0
H3474 H 0.85173 0.35477 0.1784 0.0
H3475 H 0.85394 0.3518 0.21001 0.0
H3476 H 0.87627 0.39964 0.23342 0.0
C3477 C 0.87699 0.38747 0.29845 0.0
C3478 C 0.86894 0.3577 0.26062 0.0
C3479 C 0.87749 0.38656 0.31673 0.0
C3480 C 0.86226 0.36146 0.18518 0.0
C3481 C 0.86339 0.35997 0.20337 0.0
C3482 C 0.87448 0.38776 0.24085 0.0
C3483 C 0.86732 0.37516 0.28861 0.0
C3484 C 0.86924 0.37402 0.26914 0.0
C3485 C 0.87528 0.37033 0.21294 0.0
C3486 C 0.87398 0.37146 0.23238 0.0
H3487 H 0.85083 0.35135 0.32238 0.0
H3488 H 0.84888 0.35361 0.29073 0.0
H3489 H 0.87223 0.40184 0.26483 0.0
H3490 H 0.89446 0.39161 0.1789 0.0
H3491 H 0.89669 0.38882 0.21062 0.0
C3492 C 0.11906 0.38601 0.82041 0.0
C3493 C 0.1324 0.3778 0.82985 0.0
C3494 C 0.11852 0.38507 0.80213 0.0
C3495 C 0.13568 0.36208 0.76327 0.0
H3496 H 0.13197 0.40719 0.74086 0.0
C3497 C 0.14579 0.36788 0.6891 0.0
C3498 C 0.13455 0.37896 0.67991 0.0
C3499 C 0.14721 0.36887 0.70732 0.0
C3500 C 0.13283 0.39442 0.74677 0.0
H3501 H 0.15524 0.36168 0.82759 0.0
H3502 H 0.15384 0.35926 0.79582 0.0
H3503 H 0.12878 0.40488 0.77236 0.0
H3504 H 0.11637 0.40011 0.68259 0.0
H3505 H 0.11863 0.40189 0.7142 0.0
H3506 H 0.13926 0.35145 0.7378 0.0
C3507 C 0.14377 0.36645 0.80247 0.0
C3508 C 0.13096 0.39311 0.76492 0.0
C3509 C 0.14446 0.36764 0.82071 0.0
C3510 C 0.12564 0.39183 0.68924 0.0
C3511 C 0.12682 0.39267 0.70749 0.0
C3512 C 0.1373 0.36334 0.7451 0.0
C3513 C 0.13125 0.37577 0.79289 0.0
C3514 C 0.13239 0.37693 0.77343 0.0
C3515 C 0.13704 0.38069 0.71692 0.0
C3516 C 0.13598 0.37954 0.7365 0.0
H3517 H 0.10995 0.39441 0.82705 0.0
H3518 H 0.10859 0.39226 0.79518 0.0
H3519 H 0.13676 0.3494 0.76936 0.0
H3520 H 0.15246 0.35752 0.68232 0.0
H3521 H 0.15565 0.35974 0.7139 0.0
C3522 C 0.14415 0.63439 0.32105 0.0
C3523 C 0.13108 0.62375 0.32838 0.0
C3524 C 0.14593 0.63555 0.30279 0.0
C3525 C 0.13488 0.61224 0.26181 0.0
H3526 H 0.13354 0.6576 0.23956 0.0
C3527 C 0.11499 0.61734 0.19038 0.0
C3528 C 0.12397 0.62879 0.17923 0.0
C3529 C 0.11721 0.61825 0.20841 0.0
C3530 C 0.13418 0.64483 0.24553 0.0
H3531 H 0.10996 0.60576 0.32247 0.0
H3532 H 0.11347 0.60717 0.29098 0.0
H3533 H 0.13647 0.65555 0.2714 0.0
H3534 H 0.14192 0.65071 0.17839 0.0
H3535 H 0.14602 0.65228 0.21026 0.0
H3536 H 0.13256 0.60139 0.23626 0.0
C3537 C 0.12232 0.61471 0.29913 0.0
C3538 C 0.13588 0.64366 0.26379 0.0
C3539 C 0.12033 0.61386 0.3172 0.0
C3540 C 0.13467 0.64184 0.18667 0.0
C3541 C 0.13707 0.64265 0.20492 0.0
C3542 C 0.13331 0.61339 0.24368 0.0
C3543 C 0.1349 0.62579 0.29161 0.0
C3544 C 0.13577 0.62732 0.27218 0.0
C3545 C 0.12876 0.63046 0.216 0.0
C3546 C 0.13237 0.62968 0.23525 0.0
H3547 H 0.15235 0.64246 0.32936 0.0
H3548 H 0.15577 0.64418 0.29741 0.0
H3549 H 0.13507 0.59944 0.26777 0.0
H3550 H 0.10656 0.60722 0.18507 0.0
H3551 H 0.11009 0.60903 0.21642 0.0
loop_
_geom_bond_atom_site_label_1
_geom_bond_atom_site_label_2
_geom_bond_distance
_geom_bond_site_symmetry_2
_ccdc_geom_bond_type
Co0 O1 2.216 . S
Co0 O2 2.091 . S
Co0 O4 2.004 . S
Co0 O10 2.021 . S
Co0 O12 2.137 . S
Co0 O13 2.244 . S
O1 Co0 2.216 . S
O1 C8 1.247 . S
O2 Co0 2.091 . S
O2 C8 1.261 . S
C3 O12 1.247 . S
C3 O13 1.272 . S
O4 Co0 2.004 . S
O4 C9 1.259 . S
Co5 O6 2.061 . S
Co5 O11 2.052 . S
Co5 O13 2.135 . S
O6 Co5 2.061 . S
O6 C9 1.235 . S
C7 O10 1.238 . S
C7 O11 1.241 . S
C8 O1 1.247 . S
C8 O2 1.261 . S
C9 O4 1.259 . S
C9 O6 1.235 . S
O10 Co0 2.021 . S
O10 C7 1.238 . S
O11 Co5 2.052 . S
O11 C7 1.241 . S
O12 Co0 2.137 . S
O12 C3 1.247 . S
O13 Co0 2.244 . S
O13 C3 1.272 . S
O13 Co5 2.135 . S
Co14 O15 2.216 . S
Co14 O16 2.091 . S
Co14 O18 2.004 . S
Co14 O24 2.021 . S
Co14 O26 2.137 . S
Co14 O27 2.244 . S
O15 Co14 2.216 . S
O15 C22 1.247 . S
O16 Co14 2.091 . S
O16 C22 1.261 . S
C17 O26 1.247 . S
C17 O27 1.272 . S
O18 Co14 2.004 . S
O18 C23 1.259 . S
Co19 O20 2.061 . S
Co19 O25 2.052 . S
Co19 O27 2.135 . S
O20 Co19 2.061 . S
O20 C23 1.235 . S
C21 O24 1.238 . S
C21 O25 1.241 . S
C22 O15 1.247 . S
C22 O16 1.261 . S
C23 O18 1.259 . S
C23 O20 1.235 . S
O24 Co14 2.021 . S
O24 C21 1.238 . S
O25 Co19 2.052 . S
O25 C21 1.241 . S
O26 Co14 2.137 . S
O26 C17 1.247 . S
O27 Co14 2.244 . S
O27 C17 1.272 . S
O27 Co19 2.135 . S
Co28 O29 2.216 . S
Co28 O30 2.091 . S
Co28 O32 2.004 . S
Co28 O38 2.021 . S
Co28 O40 2.137 . S
Co28 O41 2.244 . S
O29 Co28 2.216 . S
O29 C36 1.247 . S
O30 Co28 2.091 . S
O30 C36 1.261 . S
C31 O40 1.247 . S
C31 O41 1.272 . S
O32 Co28 2.004 . S
O32 C37 1.259 . S
Co33 O34 2.061 . S
Co33 O39 2.052 . S
Co33 O41 2.135 . S
O34 Co33 2.061 . S
O34 C37 1.235 . S
C35 O38 1.238 . S
C35 O39 1.241 . S
C36 O29 1.247 . S
C36 O30 1.261 . S
C37 O32 1.259 . S
C37 O34 1.235 . S
O38 Co28 2.021 . S
O38 C35 1.238 . S
O39 Co33 2.052 . S
O39 C35 1.241 . S
O40 Co28 2.137 . S
O40 C31 1.247 . S
O41 Co28 2.244 . S
O41 C31 1.272 . S
O41 Co33 2.135 . S
Co42 O43 2.216 . S
Co42 O44 2.091 . S
Co42 O46 2.004 . S
Co42 O52 2.021 . S
Co42 O54 2.137 . S
Co42 O55 2.244 . S
O43 Co42 2.216 . S
O43 C50 1.247 . S
O44 Co42 2.091 . S
O44 C50 1.261 . S
C45 O54 1.247 . S
C45 O55 1.272 . S
O46 Co42 2.004 . S
O46 C51 1.259 . S
Co47 O48 2.061 . S
Co47 O53 2.052 . S
Co47 O55 2.135 . S
O48 Co47 2.061 . S
O48 C51 1.235 . S
C49 O52 1.238 . S
C49 O53 1.241 . S
C50 O43 1.247 . S
C50 O44 1.261 . S
C51 O46 1.259 . S
C51 O48 1.235 . S
O52 Co42 2.021 . S
O52 C49 1.238 . S
O53 Co47 2.052 . S
O53 C49 1.241 . S
O54 Co42 2.137 . S
O54 C45 1.247 . S
O55 Co42 2.244 . S
O55 C45 1.272 . S
O55 Co47 2.135 . S
Co56 O57 2.216 . S
Co56 O58 2.091 . S
Co56 O60 2.004 . S
Co56 O66 2.021 . S
Co56 O68 2.137 . S
Co56 O69 2.244 . S
O57 Co56 2.216 . S
O57 C64 1.247 . S
O58 Co56 2.091 . S
O58 C64 1.261 . S
C59 O68 1.247 . S
C59 O69 1.272 . S
O60 Co56 2.004 . S
O60 C65 1.259 . S
Co61 O62 2.061 . S
Co61 O67 2.052 . S
Co61 O69 2.135 . S
O62 Co61 2.061 . S
O62 C65 1.235 . S
C63 O66 1.238 . S
C63 O67 1.241 . S
C64 O57 1.247 . S
C64 O58 1.261 . S
C65 O60 1.259 . S
C65 O62 1.235 . S
O66 Co56 2.021 . S
O66 C63 1.238 . S
O67 Co61 2.052 . S
O67 C63 1.241 . S
O68 Co56 2.137 . S
O68 C59 1.247 . S
O69 Co56 2.244 . S
O69 C59 1.272 . S
O69 Co61 2.135 . S
Co70 O71 2.216 . S
Co70 O72 2.091 . S
Co70 O74 2.004 . S
Co70 O80 2.021 . S
Co70 O82 2.137 . S
Co70 O83 2.244 . S
O71 Co70 2.216 . S
O71 C78 1.247 . S
O72 Co70 2.091 . S
O72 C78 1.261 . S
C73 O82 1.247 . S
C73 O83 1.272 . S
O74 Co70 2.004 . S
O74 C79 1.259 . S
Co75 O76 2.061 . S
Co75 O81 2.052 . S
Co75 O83 2.135 . S
O76 Co75 2.061 . S
O76 C79 1.235 . S
C77 O80 1.238 . S
C77 O81 1.241 . S
C78 O71 1.247 . S
C78 O72 1.261 . S
C79 O74 1.259 . S
C79 O76 1.235 . S
O80 Co70 2.021 . S
O80 C77 1.238 . S
O81 Co75 2.052 . S
O81 C77 1.241 . S
O82 Co70 2.137 . S
O82 C73 1.247 . S
O83 Co70 2.244 . S
O83 C73 1.272 . S
O83 Co75 2.135 . S
Co84 O85 2.216 . S
Co84 O86 2.091 . S
Co84 O88 2.004 . S
Co84 O94 2.021 . S
Co84 O96 2.137 . S
Co84 O97 2.244 . S
O85 Co84 2.216 . S
O85 C92 1.247 . S
O86 Co84 2.091 . S
O86 C92 1.261 . S
C87 O96 1.247 . S
C87 O97 1.272 . S
O88 Co84 2.004 . S
O88 C93 1.259 . S
Co89 O90 2.061 . S
Co89 O95 2.052 . S
Co89 O97 2.135 . S
O90 Co89 2.061 . S
O90 C93 1.235 . S
C91 O94 1.238 . S
C91 O95 1.241 . S
C92 O85 1.247 . S
C92 O86 1.261 . S
C93 O88 1.259 . S
C93 O90 1.235 . S
O94 Co84 2.021 . S
O94 C91 1.238 . S
O95 Co89 2.052 . S
O95 C91 1.241 . S
O96 Co84 2.137 . S
O96 C87 1.247 . S
O97 Co84 2.244 . S
O97 C87 1.272 . S
O97 Co89 2.135 . S
Co98 O99 2.216 . S
Co98 O100 2.091 . S
Co98 O102 2.004 . S
Co98 O108 2.021 . S
Co98 O110 2.137 . S
Co98 O111 2.244 . S
O99 Co98 2.216 . S
O99 C106 1.247 . S
O100 Co98 2.091 . S
O100 C106 1.261 . S
C101 O110 1.247 . S
C101 O111 1.272 . S
O102 Co98 2.004 . S
O102 C107 1.259 . S
Co103 O104 2.061 . S
Co103 O109 2.052 . S
Co103 O111 2.135 . S
O104 Co103 2.061 . S
O104 C107 1.235 . S
C105 O108 1.238 . S
C105 O109 1.241 . S
C106 O99 1.247 . S
C106 O100 1.261 . S
C107 O102 1.259 . S
C107 O104 1.235 . S
O108 Co98 2.021 . S
O108 C105 1.238 . S
O109 Co103 2.052 . S
O109 C105 1.241 . S
O110 Co98 2.137 . S
O110 C101 1.247 . S
O111 Co98 2.244 . S
O111 C101 1.272 . S
O111 Co103 2.135 . S
Co112 O113 2.216 . S
Co112 O114 2.091 . S
Co112 O116 2.004 . S
Co112 O122 2.021 . S
Co112 O124 2.137 . S
Co112 O125 2.244 . S
O113 Co112 2.216 . S
O113 C120 1.247 . S
O114 Co112 2.091 . S
O114 C120 1.261 . S
C115 O124 1.247 . S
C115 O125 1.272 . S
O116 Co112 2.004 . S
O116 C121 1.259 . S
Co117 O118 2.061 . S
Co117 O123 2.052 . S
Co117 O125 2.135 . S
O118 Co117 2.061 . S
O118 C121 1.235 . S
C119 O122 1.238 . S
C119 O123 1.241 . S
C120 O113 1.247 . S
C120 O114 1.261 . S
C121 O116 1.259 . S
C121 O118 1.235 . S
O122 Co112 2.021 . S
O122 C119 1.238 . S
O123 Co117 2.052 . S
O123 C119 1.241 . S
O124 Co112 2.137 . S
O124 C115 1.247 . S
O125 Co112 2.244 . S
O125 C115 1.272 . S
O125 Co117 2.135 . S
Co126 O127 2.216 . S
Co126 O128 2.091 . S
Co126 O130 2.004 . S
Co126 O136 2.021 . S
Co126 O138 2.137 . S
Co126 O139 2.244 . S
O127 Co126 2.216 . S
O127 C134 1.247 . S
O128 Co126 2.091 . S
O128 C134 1.261 . S
C129 O138 1.247 . S
C129 O139 1.272 . S
O130 Co126 2.004 . S
O130 C135 1.259 . S
Co131 O132 2.061 . S
Co131 O137 2.052 . S
Co131 O139 2.135 . S
O132 Co131 2.061 . S
O132 C135 1.235 . S
C133 O136 1.238 . S
C133 O137 1.241 . S
C134 O127 1.247 . S
C134 O128 1.261 . S
C135 O130 1.259 . S
C135 O132 1.235 . S
O136 Co126 2.021 . S
O136 C133 1.238 . S
O137 Co131 2.052 . S
O137 C133 1.241 . S
O138 Co126 2.137 . S
O138 C129 1.247 . S
O139 Co126 2.244 . S
O139 C129 1.272 . S
O139 Co131 2.135 . S
Co140 O141 2.216 . S
Co140 O142 2.091 . S
Co140 O144 2.004 . S
Co140 O150 2.021 . S
Co140 O152 2.137 . S
Co140 O153 2.244 . S
O141 Co140 2.216 . S
O141 C148 1.247 . S
O142 Co140 2.091 . S
O142 C148 1.261 . S
C143 O152 1.247 . S
C143 O153 1.272 . S
O144 Co140 2.004 . S
O144 C149 1.259 . S
Co145 O146 2.061 . S
Co145 O151 2.052 . S
Co145 O153 2.135 . S
O146 Co145 2.061 . S
O146 C149 1.235 . S
C147 O150 1.238 . S
C147 O151 1.241 . S
C148 O141 1.247 . S
C148 O142 1.261 . S
C149 O144 1.259 . S
C149 O146 1.235 . S
O150 Co140 2.021 . S
O150 C147 1.238 . S
O151 Co145 2.052 . S
O151 C147 1.241 . S
O152 Co140 2.137 . S
O152 C143 1.247 . S
O153 Co140 2.244 . S
O153 C143 1.272 . S
O153 Co145 2.135 . S
Co154 O155 2.216 . S
Co154 O156 2.091 . S
Co154 O158 2.004 . S
Co154 O164 2.021 . S
Co154 O166 2.137 . S
Co154 O167 2.244 . S
O155 Co154 2.216 . S
O155 C162 1.247 . S
O156 Co154 2.091 . S
O156 C162 1.261 . S
C157 O166 1.247 . S
C157 O167 1.272 . S
O158 Co154 2.004 . S
O158 C163 1.259 . S
Co159 O160 2.061 . S
Co159 O165 2.052 . S
Co159 O167 2.135 . S
O160 Co159 2.061 . S
O160 C163 1.235 . S
C161 O164 1.238 . S
C161 O165 1.241 . S
C162 O155 1.247 . S
C162 O156 1.261 . S
C163 O158 1.259 . S
C163 O160 1.235 . S
O164 Co154 2.021 . S
O164 C161 1.238 . S
O165 Co159 2.052 . S
O165 C161 1.241 . S
O166 Co154 2.137 . S
O166 C157 1.247 . S
O167 Co154 2.244 . S
O167 C157 1.272 . S
O167 Co159 2.135 . S
Co168 O169 2.216 . S
Co168 O170 2.091 . S
Co168 O172 2.004 . S
Co168 O178 2.021 . S
Co168 O180 2.137 . S
Co168 O181 2.244 . S
O169 Co168 2.216 . S
O169 C176 1.247 . S
O170 Co168 2.091 . S
O170 C176 1.261 . S
C171 O180 1.247 . S
C171 O181 1.272 . S
O172 Co168 2.004 . S
O172 C177 1.259 . S
Co173 O174 2.061 . S
Co173 O179 2.052 . S
Co173 O181 2.135 . S
O174 Co173 2.061 . S
O174 C177 1.235 . S
C175 O178 1.238 . S
C175 O179 1.241 . S
C176 O169 1.247 . S
C176 O170 1.261 . S
C177 O172 1.259 . S
C177 O174 1.235 . S
O178 Co168 2.021 . S
O178 C175 1.238 . S
O179 Co173 2.052 . S
O179 C175 1.241 . S
O180 Co168 2.137 . S
O180 C171 1.247 . S
O181 Co168 2.244 . S
O181 C171 1.272 . S
O181 Co173 2.135 . S
Co182 O183 2.216 . S
Co182 O184 2.091 . S
Co182 O186 2.004 . S
Co182 O192 2.021 . S
Co182 O194 2.137 . S
Co182 O195 2.244 . S
O183 Co182 2.216 . S
O183 C190 1.247 . S
O184 Co182 2.091 . S
O184 C190 1.261 . S
C185 O194 1.247 . S
C185 O195 1.272 . S
O186 Co182 2.004 . S
O186 C191 1.259 . S
Co187 O188 2.061 . S
Co187 O193 2.052 . S
Co187 O195 2.135 . S
O188 Co187 2.061 . S
O188 C191 1.235 . S
C189 O192 1.238 . S
C189 O193 1.241 . S
C190 O183 1.247 . S
C190 O184 1.261 . S
C191 O186 1.259 . S
C191 O188 1.235 . S
O192 Co182 2.021 . S
O192 C189 1.238 . S
O193 Co187 2.052 . S
O193 C189 1.241 . S
O194 Co182 2.137 . S
O194 C185 1.247 . S
O195 Co182 2.244 . S
O195 C185 1.272 . S
O195 Co187 2.135 . S
Co196 O197 2.216 . S
Co196 O198 2.091 . S
Co196 O200 2.004 . S
Co196 O206 2.021 . S
Co196 O208 2.137 . S
Co196 O209 2.244 . S
O197 Co196 2.216 . S
O197 C204 1.247 . S
O198 Co196 2.091 . S
O198 C204 1.261 . S
C199 O208 1.247 . S
C199 O209 1.272 . S
O200 Co196 2.004 . S
O200 C205 1.259 . S
Co201 O202 2.061 . S
Co201 O207 2.052 . S
Co201 O209 2.135 . S
O202 Co201 2.061 . S
O202 C205 1.235 . S
C203 O206 1.238 . S
C203 O207 1.241 . S
C204 O197 1.247 . S
C204 O198 1.261 . S
C205 O200 1.259 . S
C205 O202 1.235 . S
O206 Co196 2.021 . S
O206 C203 1.238 . S
O207 Co201 2.052 . S
O207 C203 1.241 . S
O208 Co196 2.137 . S
O208 C199 1.247 . S
O209 Co196 2.244 . S
O209 C199 1.272 . S
O209 Co201 2.135 . S
Co210 O211 2.216 . S
Co210 O212 2.091 . S
Co210 O214 2.004 . S
Co210 O220 2.021 . S
Co210 O222 2.137 . S
Co210 O223 2.244 . S
O211 Co210 2.216 . S
O211 C218 1.247 . S
O212 Co210 2.091 . S
O212 C218 1.261 . S
C213 O222 1.247 . S
C213 O223 1.272 . S
O214 Co210 2.004 . S
O214 C219 1.259 . S
Co215 O216 2.061 . S
Co215 O221 2.052 . S
Co215 O223 2.135 . S
O216 Co215 2.061 . S
O216 C219 1.235 . S
C217 O220 1.238 . S
C217 O221 1.241 . S
C218 O211 1.247 . S
C218 O212 1.261 . S
C219 O214 1.259 . S
C219 O216 1.235 . S
O220 Co210 2.021 . S
O220 C217 1.238 . S
O221 Co215 2.052 . S
O221 C217 1.241 . S
O222 Co210 2.137 . S
O222 C213 1.247 . S
O223 Co210 2.244 . S
O223 C213 1.272 . S
O223 Co215 2.135 . S
Co224 O225 2.216 . S
Co224 O226 2.091 . S
Co224 O228 2.004 . S
Co224 O234 2.021 . S
Co224 O236 2.137 . S
Co224 O237 2.244 . S
O225 Co224 2.216 . S
O225 C232 1.247 . S
O226 Co224 2.091 . S
O226 C232 1.261 . S
C227 O236 1.247 . S
C227 O237 1.272 . S
O228 Co224 2.004 . S
O228 C233 1.259 . S
Co229 O230 2.061 . S
Co229 O235 2.052 . S
Co229 O237 2.135 . S
O230 Co229 2.061 . S
O230 C233 1.235 . S
C231 O234 1.238 . S
C231 O235 1.241 . S
C232 O225 1.247 . S
C232 O226 1.261 . S
C233 O228 1.259 . S
C233 O230 1.235 . S
O234 Co224 2.021 . S
O234 C231 1.238 . S
O235 Co229 2.052 . S
O235 C231 1.241 . S
O236 Co224 2.137 . S
O236 C227 1.247 . S
O237 Co224 2.244 . S
O237 C227 1.272 . S
O237 Co229 2.135 . S
Co238 O239 2.216 . S
Co238 O240 2.091 . S
Co238 O242 2.004 . S
Co238 O248 2.021 . S
Co238 O250 2.137 . S
Co238 O251 2.244 . S
O239 Co238 2.216 . S
O239 C246 1.247 . S
O240 Co238 2.091 . S
O240 C246 1.261 . S
C241 O250 1.247 . S
C241 O251 1.272 . S
O242 Co238 2.004 . S
O242 C247 1.259 . S
Co243 O244 2.061 . S
Co243 O249 2.052 . S
Co243 O251 2.135 . S
O244 Co243 2.061 . S
O244 C247 1.235 . S
C245 O248 1.238 . S
C245 O249 1.241 . S
C246 O239 1.247 . S
C246 O240 1.261 . S
C247 O242 1.259 . S
C247 O244 1.235 . S
O248 Co238 2.021 . S
O248 C245 1.238 . S
O249 Co243 2.052 . S
O249 C245 1.241 . S
O250 Co238 2.137 . S
O250 C241 1.247 . S
O251 Co238 2.244 . S
O251 C241 1.272 . S
O251 Co243 2.135 . S
Co252 O253 2.216 . S
Co252 O254 2.091 . S
Co252 O256 2.004 . S
Co252 O262 2.021 . S
Co252 O264 2.137 . S
Co252 O265 2.244 . S
O253 Co252 2.216 . S
O253 C260 1.247 . S
O254 Co252 2.091 . S
O254 C260 1.261 . S
C255 O264 1.247 . S
C255 O265 1.272 . S
O256 Co252 2.004 . S
O256 C261 1.259 . S
Co257 O258 2.061 . S
Co257 O263 2.052 . S
Co257 O265 2.135 . S
O258 Co257 2.061 . S
O258 C261 1.235 . S
C259 O262 1.238 . S
C259 O263 1.241 . S
C260 O253 1.247 . S
C260 O254 1.261 . S
C261 O256 1.259 . S
C261 O258 1.235 . S
O262 Co252 2.021 . S
O262 C259 1.238 . S
O263 Co257 2.052 . S
O263 C259 1.241 . S
O264 Co252 2.137 . S
O264 C255 1.247 . S
O265 Co252 2.244 . S
O265 C255 1.272 . S
O265 Co257 2.135 . S
Co266 O267 2.216 . S
Co266 O268 2.091 . S
Co266 O270 2.004 . S
Co266 O276 2.021 . S
Co266 O278 2.137 . S
Co266 O279 2.244 . S
O267 Co266 2.216 . S
O267 C274 1.247 . S
O268 Co266 2.091 . S
O268 C274 1.261 . S
C269 O278 1.247 . S
C269 O279 1.272 . S
O270 Co266 2.004 . S
O270 C275 1.259 . S
Co271 O272 2.061 . S
Co271 O277 2.052 . S
Co271 O279 2.135 . S
O272 Co271 2.061 . S
O272 C275 1.235 . S
C273 O276 1.238 . S
C273 O277 1.241 . S
C274 O267 1.247 . S
C274 O268 1.261 . S
C275 O270 1.259 . S
C275 O272 1.235 . S
O276 Co266 2.021 . S
O276 C273 1.238 . S
O277 Co271 2.052 . S
O277 C273 1.241 . S
O278 Co266 2.137 . S
O278 C269 1.247 . S
O279 Co266 2.244 . S
O279 C269 1.272 . S
O279 Co271 2.135 . S
Co280 O281 2.216 . S
Co280 O282 2.091 . S
Co280 O284 2.004 . S
Co280 O290 2.021 . S
Co280 O292 2.137 . S
Co280 O293 2.244 . S
O281 Co280 2.216 . S
O281 C288 1.247 . S
O282 Co280 2.091 . S
O282 C288 1.261 . S
C283 O292 1.247 . S
C283 O293 1.272 . S
O284 Co280 2.004 . S
O284 C289 1.259 . S
Co285 O286 2.061 . S
Co285 O291 2.052 . S
Co285 O293 2.135 . S
O286 Co285 2.061 . S
O286 C289 1.235 . S
C287 O290 1.238 . S
C287 O291 1.241 . S
C288 O281 1.247 . S
C288 O282 1.261 . S
C289 O284 1.259 . S
C289 O286 1.235 . S
O290 Co280 2.021 . S
O290 C287 1.238 . S
O291 Co285 2.052 . S
O291 C287 1.241 . S
O292 Co280 2.137 . S
O292 C283 1.247 . S
O293 Co280 2.244 . S
O293 C283 1.272 . S
O293 Co285 2.135 . S
Co294 O295 2.216 . S
Co294 O296 2.091 . S
Co294 O298 2.004 . S
Co294 O304 2.021 . S
Co294 O306 2.137 . S
Co294 O307 2.244 . S
O295 Co294 2.216 . S
O295 C302 1.247 . S
O296 Co294 2.091 . S
O296 C302 1.261 . S
C297 O306 1.247 . S
C297 O307 1.272 . S
O298 Co294 2.004 . S
O298 C303 1.259 . S
Co299 O300 2.061 . S
Co299 O305 2.052 . S
Co299 O307 2.135 . S
O300 Co299 2.061 . S
O300 C303 1.235 . S
C301 O304 1.238 . S
C301 O305 1.241 . S
C302 O295 1.247 . S
C302 O296 1.261 . S
C303 O298 1.259 . S
C303 O300 1.235 . S
O304 Co294 2.021 . S
O304 C301 1.238 . S
O305 Co299 2.052 . S
O305 C301 1.241 . S
O306 Co294 2.137 . S
O306 C297 1.247 . S
O307 Co294 2.244 . S
O307 C297 1.272 . S
O307 Co299 2.135 . S
Co308 O309 2.216 . S
Co308 O310 2.091 . S
Co308 O312 2.004 . S
Co308 O318 2.021 . S
Co308 O320 2.137 . S
Co308 O321 2.244 . S
O309 Co308 2.216 . S
O309 C316 1.247 . S
O310 Co308 2.091 . S
O310 C316 1.261 . S
C311 O320 1.247 . S
C311 O321 1.272 . S
O312 Co308 2.004 . S
O312 C317 1.259 . S
Co313 O314 2.061 . S
Co313 O319 2.052 . S
Co313 O321 2.135 . S
O314 Co313 2.061 . S
O314 C317 1.235 . S
C315 O318 1.238 . S
C315 O319 1.241 . S
C316 O309 1.247 . S
C316 O310 1.261 . S
C317 O312 1.259 . S
C317 O314 1.235 . S
O318 Co308 2.021 . S
O318 C315 1.238 . S
O319 Co313 2.052 . S
O319 C315 1.241 . S
O320 Co308 2.137 . S
O320 C311 1.247 . S
O321 Co308 2.244 . S
O321 C311 1.272 . S
O321 Co313 2.135 . S
Co322 O323 2.216 . S
Co322 O324 2.091 . S
Co322 O326 2.004 . S
Co322 O332 2.021 . S
Co322 O334 2.137 . S
Co322 O335 2.244 . S
O323 Co322 2.216 . S
O323 C330 1.247 . S
O324 Co322 2.091 . S
O324 C330 1.261 . S
C325 O334 1.247 . S
C325 O335 1.272 . S
O326 Co322 2.004 . S
O326 C331 1.259 . S
Co327 O328 2.061 . S
Co327 O333 2.052 . S
Co327 O335 2.135 . S
O328 Co327 2.061 . S
O328 C331 1.235 . S
C329 O332 1.238 . S
C329 O333 1.241 . S
C330 O323 1.247 . S
C330 O324 1.261 . S
C331 O326 1.259 . S
C331 O328 1.235 . S
O332 Co322 2.021 . S
O332 C329 1.238 . S
O333 Co327 2.052 . S
O333 C329 1.241 . S
O334 Co322 2.137 . S
O334 C325 1.247 . S
O335 Co322 2.244 . S
O335 C325 1.272 . S
O335 Co327 2.135 . S
Co336 O337 2.216 . S
Co336 O338 2.091 . S
Co336 O340 2.004 . S
Co336 O346 2.021 . S
Co336 O348 2.137 . S
Co336 O349 2.244 . S
O337 Co336 2.216 . S
O337 C344 1.247 . S
O338 Co336 2.091 . S
O338 C344 1.261 . S
C339 O348 1.247 . S
C339 O349 1.272 . S
O340 Co336 2.004 . S
O340 C345 1.259 . S
Co341 O342 2.061 . S
Co341 O347 2.052 . S
Co341 O349 2.135 . S
O342 Co341 2.061 . S
O342 C345 1.235 . S
C343 O346 1.238 . S
C343 O347 1.241 . S
C344 O337 1.247 . S
C344 O338 1.261 . S
C345 O340 1.259 . S
C345 O342 1.235 . S
O346 Co336 2.021 . S
O346 C343 1.238 . S
O347 Co341 2.052 . S
O347 C343 1.241 . S
O348 Co336 2.137 . S
O348 C339 1.247 . S
O349 Co336 2.244 . S
O349 C339 1.272 . S
O349 Co341 2.135 . S
Co350 O351 2.216 . S
Co350 O352 2.091 . S
Co350 O354 2.004 . S
Co350 O360 2.021 . S
Co350 O362 2.137 . S
Co350 O363 2.244 . S
O351 Co350 2.216 . S
O351 C358 1.247 . S
O352 Co350 2.091 . S
O352 C358 1.261 . S
C353 O362 1.247 . S
C353 O363 1.272 . S
O354 Co350 2.004 . S
O354 C359 1.259 . S
Co355 O356 2.061 . S
Co355 O361 2.052 . S
Co355 O363 2.135 . S
O356 Co355 2.061 . S
O356 C359 1.235 . S
C357 O360 1.238 . S
C357 O361 1.241 . S
C358 O351 1.247 . S
C358 O352 1.261 . S
C359 O354 1.259 . S
C359 O356 1.235 . S
O360 Co350 2.021 . S
O360 C357 1.238 . S
O361 Co355 2.052 . S
O361 C357 1.241 . S
O362 Co350 2.137 . S
O362 C353 1.247 . S
O363 Co350 2.244 . S
O363 C353 1.272 . S
O363 Co355 2.135 . S
Co364 O365 2.216 . S
Co364 O366 2.091 . S
Co364 O368 2.004 . S
Co364 O374 2.021 . S
Co364 O376 2.137 . S
Co364 O377 2.244 . S
O365 Co364 2.216 . S
O365 C372 1.247 . S
O366 Co364 2.091 . S
O366 C372 1.261 . S
C367 O376 1.247 . S
C367 O377 1.272 . S
O368 Co364 2.004 . S
O368 C373 1.259 . S
Co369 O370 2.061 . S
Co369 O375 2.052 . S
Co369 O377 2.135 . S
O370 Co369 2.061 . S
O370 C373 1.235 . S
C371 O374 1.238 . S
C371 O375 1.241 . S
C372 O365 1.247 . S
C372 O366 1.261 . S
C373 O368 1.259 . S
C373 O370 1.235 . S
O374 Co364 2.021 . S
O374 C371 1.238 . S
O375 Co369 2.052 . S
O375 C371 1.241 . S
O376 Co364 2.137 . S
O376 C367 1.247 . S
O377 Co364 2.244 . S
O377 C367 1.272 . S
O377 Co369 2.135 . S
Co378 O379 2.216 . S
Co378 O380 2.091 . S
Co378 O382 2.004 . S
Co378 O388 2.021 . S
Co378 O390 2.137 . S
Co378 O391 2.244 . S
O379 Co378 2.216 . S
O379 C386 1.247 . S
O380 Co378 2.091 . S
O380 C386 1.261 . S
C381 O390 1.247 . S
C381 O391 1.272 . S
O382 Co378 2.004 . S
O382 C387 1.259 . S
Co383 O384 2.061 . S
Co383 O389 2.052 . S
Co383 O391 2.135 . S
O384 Co383 2.061 . S
O384 C387 1.235 . S
C385 O388 1.238 . S
C385 O389 1.241 . S
C386 O379 1.247 . S
C386 O380 1.261 . S
C387 O382 1.259 . S
C387 O384 1.235 . S
O388 Co378 2.021 . S
O388 C385 1.238 . S
O389 Co383 2.052 . S
O389 C385 1.241 . S
O390 Co378 2.137 . S
O390 C381 1.247 . S
O391 Co378 2.244 . S
O391 C381 1.272 . S
O391 Co383 2.135 . S
Co392 O393 2.216 . S
Co392 O394 2.091 . S
Co392 O396 2.004 . S
Co392 O402 2.021 . S
Co392 O404 2.137 . S
Co392 O405 2.244 . S
O393 Co392 2.216 . S
O393 C400 1.247 . S
O394 Co392 2.091 . S
O394 C400 1.261 . S
C395 O404 1.247 . S
C395 O405 1.272 . S
O396 Co392 2.004 . S
O396 C401 1.259 . S
Co397 O398 2.061 . S
Co397 O403 2.052 . S
Co397 O405 2.135 . S
O398 Co397 2.061 . S
O398 C401 1.235 . S
C399 O402 1.238 . S
C399 O403 1.241 . S
C400 O393 1.247 . S
C400 O394 1.261 . S
C401 O396 1.259 . S
C401 O398 1.235 . S
O402 Co392 2.021 . S
O402 C399 1.238 . S
O403 Co397 2.052 . S
O403 C399 1.241 . S
O404 Co392 2.137 . S
O404 C395 1.247 . S
O405 Co392 2.244 . S
O405 C395 1.272 . S
O405 Co397 2.135 . S
Co406 O407 2.216 . S
Co406 O408 2.091 . S
Co406 O410 2.004 . S
Co406 O416 2.021 . S
Co406 O418 2.137 . S
Co406 O419 2.244 . S
O407 Co406 2.216 . S
O407 C414 1.247 . S
O408 Co406 2.091 . S
O408 C414 1.261 . S
C409 O418 1.247 . S
C409 O419 1.272 . S
O410 Co406 2.004 . S
O410 C415 1.259 . S
Co411 O412 2.061 . S
Co411 O417 2.052 . S
Co411 O419 2.135 . S
O412 Co411 2.061 . S
O412 C415 1.235 . S
C413 O416 1.238 . S
C413 O417 1.241 . S
C414 O407 1.247 . S
C414 O408 1.261 . S
C415 O410 1.259 . S
C415 O412 1.235 . S
O416 Co406 2.021 . S
O416 C413 1.238 . S
O417 Co411 2.052 . S
O417 C413 1.241 . S
O418 Co406 2.137 . S
O418 C409 1.247 . S
O419 Co406 2.244 . S
O419 C409 1.272 . S
O419 Co411 2.135 . S
Co420 O421 2.216 . S
Co420 O422 2.091 . S
Co420 O424 2.004 . S
Co420 O430 2.021 . S
Co420 O432 2.137 . S
Co420 O433 2.244 . S
O421 Co420 2.216 . S
O421 C428 1.247 . S
O422 Co420 2.091 . S
O422 C428 1.261 . S
C423 O432 1.247 . S
C423 O433 1.272 . S
O424 Co420 2.004 . S
O424 C429 1.259 . S
Co425 O426 2.061 . S
Co425 O431 2.052 . S
Co425 O433 2.135 . S
O426 Co425 2.061 . S
O426 C429 1.235 . S
C427 O430 1.238 . S
C427 O431 1.241 . S
C428 O421 1.247 . S
C428 O422 1.261 . S
C429 O424 1.259 . S
C429 O426 1.235 . S
O430 Co420 2.021 . S
O430 C427 1.238 . S
O431 Co425 2.052 . S
O431 C427 1.241 . S
O432 Co420 2.137 . S
O432 C423 1.247 . S
O433 Co420 2.244 . S
O433 C423 1.272 . S
O433 Co425 2.135 . S
Co434 O435 2.216 . S
Co434 O436 2.091 . S
Co434 O438 2.004 . S
Co434 O444 2.021 . S
Co434 O446 2.137 . S
Co434 O447 2.244 . S
O435 Co434 2.216 . S
O435 C442 1.247 . S
O436 Co434 2.091 . S
O436 C442 1.261 . S
C437 O446 1.247 . S
C437 O447 1.272 . S
O438 Co434 2.004 . S
O438 C443 1.259 . S
Co439 O440 2.061 . S
Co439 O445 2.052 . S
Co439 O447 2.135 . S
O440 Co439 2.061 . S
O440 C443 1.235 . S
C441 O444 1.238 . S
C441 O445 1.241 . S
C442 O435 1.247 . S
C442 O436 1.261 . S
C443 O438 1.259 . S
C443 O440 1.235 . S
O444 Co434 2.021 . S
O444 C441 1.238 . S
O445 Co439 2.052 . S
O445 C441 1.241 . S
O446 Co434 2.137 . S
O446 C437 1.247 . S
O447 Co434 2.244 . S
O447 C437 1.272 . S
O447 Co439 2.135 . S
Co448 O449 2.216 . S
Co448 O450 2.091 . S
Co448 O452 2.004 . S
Co448 O458 2.021 . S
Co448 O460 2.137 . S
Co448 O461 2.244 . S
O449 Co448 2.216 . S
O449 C456 1.247 . S
O450 Co448 2.091 . S
O450 C456 1.261 . S
C451 O460 1.247 . S
C451 O461 1.272 . S
O452 Co448 2.004 . S
O452 C457 1.259 . S
Co453 O454 2.061 . S
Co453 O459 2.052 . S
Co453 O461 2.135 . S
O454 Co453 2.061 . S
O454 C457 1.235 . S
C455 O458 1.238 . S
C455 O459 1.241 . S
C456 O449 1.247 . S
C456 O450 1.261 . S
C457 O452 1.259 . S
C457 O454 1.235 . S
O458 Co448 2.021 . S
O458 C455 1.238 . S
O459 Co453 2.052 . S
O459 C455 1.241 . S
O460 Co448 2.137 . S
O460 C451 1.247 . S
O461 Co448 2.244 . S
O461 C451 1.272 . S
O461 Co453 2.135 . S
Co462 O463 2.216 . S
Co462 O464 2.091 . S
Co462 O466 2.004 . S
Co462 O472 2.021 . S
Co462 O474 2.137 . S
Co462 O475 2.244 . S
O463 Co462 2.216 . S
O463 C470 1.247 . S
O464 Co462 2.091 . S
O464 C470 1.261 . S
C465 O474 1.247 . S
C465 O475 1.272 . S
O466 Co462 2.004 . S
O466 C471 1.259 . S
Co467 O468 2.061 . S
Co467 O473 2.052 . S
Co467 O475 2.135 . S
O468 Co467 2.061 . S
O468 C471 1.235 . S
C469 O472 1.238 . S
C469 O473 1.241 . S
C470 O463 1.247 . S
C470 O464 1.261 . S
C471 O466 1.259 . S
C471 O468 1.235 . S
O472 Co462 2.021 . S
O472 C469 1.238 . S
O473 Co467 2.052 . S
O473 C469 1.241 . S
O474 Co462 2.137 . S
O474 C465 1.247 . S
O475 Co462 2.244 . S
O475 C465 1.272 . S
O475 Co467 2.135 . S
Co476 O477 2.216 . S
Co476 O478 2.091 . S
Co476 O480 2.004 . S
Co476 O486 2.021 . S
Co476 O488 2.137 . S
Co476 O489 2.244 . S
O477 Co476 2.216 . S
O477 C484 1.247 . S
O478 Co476 2.091 . S
O478 C484 1.261 . S
C479 O488 1.247 . S
C479 O489 1.272 . S
O480 Co476 2.004 . S
O480 C485 1.259 . S
Co481 O482 2.061 . S
Co481 O487 2.052 . S
Co481 O489 2.135 . S
O482 Co481 2.061 . S
O482 C485 1.235 . S
C483 O486 1.238 . S
C483 O487 1.241 . S
C484 O477 1.247 . S
C484 O478 1.261 . S
C485 O480 1.259 . S
C485 O482 1.235 . S
O486 Co476 2.021 . S
O486 C483 1.238 . S
O487 Co481 2.052 . S
O487 C483 1.241 . S
O488 Co476 2.137 . S
O488 C479 1.247 . S
O489 Co476 2.244 . S
O489 C479 1.272 . S
O489 Co481 2.135 . S
Co490 O491 2.216 . S
Co490 O492 2.091 . S
Co490 O494 2.004 . S
Co490 O500 2.021 . S
Co490 O502 2.137 . S
Co490 O503 2.244 . S
O491 Co490 2.216 . S
O491 C498 1.247 . S
O492 Co490 2.091 . S
O492 C498 1.261 . S
C493 O502 1.247 . S
C493 O503 1.272 . S
O494 Co490 2.004 . S
O494 C499 1.259 . S
Co495 O496 2.061 . S
Co495 O501 2.052 . S
Co495 O503 2.135 . S
O496 Co495 2.061 . S
O496 C499 1.235 . S
C497 O500 1.238 . S
C497 O501 1.241 . S
C498 O491 1.247 . S
C498 O492 1.261 . S
C499 O494 1.259 . S
C499 O496 1.235 . S
O500 Co490 2.021 . S
O500 C497 1.238 . S
O501 Co495 2.052 . S
O501 C497 1.241 . S
O502 Co490 2.137 . S
O502 C493 1.247 . S
O503 Co490 2.244 . S
O503 C493 1.272 . S
O503 Co495 2.135 . S
Co504 O505 2.216 . S
Co504 O506 2.091 . S
Co504 O508 2.004 . S
Co504 O514 2.021 . S
Co504 O516 2.137 . S
Co504 O517 2.244 . S
O505 Co504 2.216 . S
O505 C512 1.247 . S
O506 Co504 2.091 . S
O506 C512 1.261 . S
C507 O516 1.247 . S
C507 O517 1.272 . S
O508 Co504 2.004 . S
O508 C513 1.259 . S
Co509 O510 2.061 . S
Co509 O515 2.052 . S
Co509 O517 2.135 . S
O510 Co509 2.061 . S
O510 C513 1.235 . S
C511 O514 1.238 . S
C511 O515 1.241 . S
C512 O505 1.247 . S
C512 O506 1.261 . S
C513 O508 1.259 . S
C513 O510 1.235 . S
O514 Co504 2.021 . S
O514 C511 1.238 . S
O515 Co509 2.052 . S
O515 C511 1.241 . S
O516 Co504 2.137 . S
O516 C507 1.247 . S
O517 Co504 2.244 . S
O517 C507 1.272 . S
O517 Co509 2.135 . S
Co518 O519 2.216 . S
Co518 O520 2.091 . S
Co518 O522 2.004 . S
Co518 O528 2.021 . S
Co518 O530 2.137 . S
Co518 O531 2.244 . S
O519 Co518 2.216 . S
O519 C526 1.247 . S
O520 Co518 2.091 . S
O520 C526 1.261 . S
C521 O530 1.247 . S
C521 O531 1.272 . S
O522 Co518 2.004 . S
O522 C527 1.259 . S
Co523 O524 2.061 . S
Co523 O529 2.052 . S
Co523 O531 2.135 . S
O524 Co523 2.061 . S
O524 C527 1.235 . S
C525 O528 1.238 . S
C525 O529 1.241 . S
C526 O519 1.247 . S
C526 O520 1.261 . S
C527 O522 1.259 . S
C527 O524 1.235 . S
O528 Co518 2.021 . S
O528 C525 1.238 . S
O529 Co523 2.052 . S
O529 C525 1.241 . S
O530 Co518 2.137 . S
O530 C521 1.247 . S
O531 Co518 2.244 . S
O531 C521 1.272 . S
O531 Co523 2.135 . S
Co532 O533 2.216 . S
Co532 O534 2.091 . S
Co532 O536 2.004 . S
Co532 O542 2.021 . S
Co532 O544 2.137 . S
Co532 O545 2.244 . S
O533 Co532 2.216 . S
O533 C540 1.247 . S
O534 Co532 2.091 . S
O534 C540 1.261 . S
C535 O544 1.247 . S
C535 O545 1.272 . S
O536 Co532 2.004 . S
O536 C541 1.259 . S
Co537 O538 2.061 . S
Co537 O543 2.052 . S
Co537 O545 2.135 . S
O538 Co537 2.061 . S
O538 C541 1.235 . S
C539 O542 1.238 . S
C539 O543 1.241 . S
C540 O533 1.247 . S
C540 O534 1.261 . S
C541 O536 1.259 . S
C541 O538 1.235 . S
O542 Co532 2.021 . S
O542 C539 1.238 . S
O543 Co537 2.052 . S
O543 C539 1.241 . S
O544 Co532 2.137 . S
O544 C535 1.247 . S
O545 Co532 2.244 . S
O545 C535 1.272 . S
O545 Co537 2.135 . S
Co546 O547 2.216 . S
Co546 O548 2.091 . S
Co546 O550 2.004 . S
Co546 O556 2.021 . S
Co546 O558 2.137 . S
Co546 O559 2.244 . S
O547 Co546 2.216 . S
O547 C554 1.247 . S
O548 Co546 2.091 . S
O548 C554 1.261 . S
C549 O558 1.247 . S
C549 O559 1.272 . S
O550 Co546 2.004 . S
O550 C555 1.259 . S
Co551 O552 2.061 . S
Co551 O557 2.052 . S
Co551 O559 2.135 . S
O552 Co551 2.061 . S
O552 C555 1.235 . S
C553 O556 1.238 . S
C553 O557 1.241 . S
C554 O547 1.247 . S
C554 O548 1.261 . S
C555 O550 1.259 . S
C555 O552 1.235 . S
O556 Co546 2.021 . S
O556 C553 1.238 . S
O557 Co551 2.052 . S
O557 C553 1.241 . S
O558 Co546 2.137 . S
O558 C549 1.247 . S
O559 Co546 2.244 . S
O559 C549 1.272 . S
O559 Co551 2.135 . S
Co560 O561 2.216 . S
Co560 O562 2.091 . S
Co560 O564 2.004 . S
Co560 O570 2.021 . S
Co560 O572 2.137 . S
Co560 O573 2.244 . S
O561 Co560 2.216 . S
O561 C568 1.247 . S
O562 Co560 2.091 . S
O562 C568 1.261 . S
C563 O572 1.247 . S
C563 O573 1.272 . S
O564 Co560 2.004 . S
O564 C569 1.259 . S
Co565 O566 2.061 . S
Co565 O571 2.052 . S
Co565 O573 2.135 . S
O566 Co565 2.061 . S
O566 C569 1.235 . S
C567 O570 1.238 . S
C567 O571 1.241 . S
C568 O561 1.247 . S
C568 O562 1.261 . S
C569 O564 1.259 . S
C569 O566 1.235 . S
O570 Co560 2.021 . S
O570 C567 1.238 . S
O571 Co565 2.052 . S
O571 C567 1.241 . S
O572 Co560 2.137 . S
O572 C563 1.247 . S
O573 Co560 2.244 . S
O573 C563 1.272 . S
O573 Co565 2.135 . S
Co574 O575 2.216 . S
Co574 O576 2.091 . S
Co574 O578 2.004 . S
Co574 O584 2.021 . S
Co574 O586 2.137 . S
Co574 O587 2.244 . S
O575 Co574 2.216 . S
O575 C582 1.247 . S
O576 Co574 2.091 . S
O576 C582 1.261 . S
C577 O586 1.247 . S
C577 O587 1.272 . S
O578 Co574 2.004 . S
O578 C583 1.259 . S
Co579 O580 2.061 . S
Co579 O585 2.052 . S
Co579 O587 2.135 . S
O580 Co579 2.061 . S
O580 C583 1.235 . S
C581 O584 1.238 . S
C581 O585 1.241 . S
C582 O575 1.247 . S
C582 O576 1.261 . S
C583 O578 1.259 . S
C583 O580 1.235 . S
O584 Co574 2.021 . S
O584 C581 1.238 . S
O585 Co579 2.052 . S
O585 C581 1.241 . S
O586 Co574 2.137 . S
O586 C577 1.247 . S
O587 Co574 2.244 . S
O587 C577 1.272 . S
O587 Co579 2.135 . S
Co588 O589 2.216 . S
Co588 O590 2.091 . S
Co588 O592 2.004 . S
Co588 O598 2.021 . S
Co588 O600 2.137 . S
Co588 O601 2.244 . S
O589 Co588 2.216 . S
O589 C596 1.247 . S
O590 Co588 2.091 . S
O590 C596 1.261 . S
C591 O600 1.247 . S
C591 O601 1.272 . S
O592 Co588 2.004 . S
O592 C597 1.259 . S
Co593 O594 2.061 . S
Co593 O599 2.052 . S
Co593 O601 2.135 . S
O594 Co593 2.061 . S
O594 C597 1.235 . S
C595 O598 1.238 . S
C595 O599 1.241 . S
C596 O589 1.247 . S
C596 O590 1.261 . S
C597 O592 1.259 . S
C597 O594 1.235 . S
O598 Co588 2.021 . S
O598 C595 1.238 . S
O599 Co593 2.052 . S
O599 C595 1.241 . S
O600 Co588 2.137 . S
O600 C591 1.247 . S
O601 Co588 2.244 . S
O601 C591 1.272 . S
O601 Co593 2.135 . S
Co602 O603 2.216 . S
Co602 O604 2.091 . S
Co602 O606 2.004 . S
Co602 O612 2.021 . S
Co602 O614 2.137 . S
Co602 O615 2.244 . S
O603 Co602 2.216 . S
O603 C610 1.247 . S
O604 Co602 2.091 . S
O604 C610 1.261 . S
C605 O614 1.247 . S
C605 O615 1.272 . S
O606 Co602 2.004 . S
O606 C611 1.259 . S
Co607 O608 2.061 . S
Co607 O613 2.052 . S
Co607 O615 2.135 . S
O608 Co607 2.061 . S
O608 C611 1.235 . S
C609 O612 1.238 . S
C609 O613 1.241 . S
C610 O603 1.247 . S
C610 O604 1.261 . S
C611 O606 1.259 . S
C611 O608 1.235 . S
O612 Co602 2.021 . S
O612 C609 1.238 . S
O613 Co607 2.052 . S
O613 C609 1.241 . S
O614 Co602 2.137 . S
O614 C605 1.247 . S
O615 Co602 2.244 . S
O615 C605 1.272 . S
O615 Co607 2.135 . S
Co616 O617 2.216 . S
Co616 O618 2.091 . S
Co616 O620 2.004 . S
Co616 O626 2.021 . S
Co616 O628 2.137 . S
Co616 O629 2.244 . S
O617 Co616 2.216 . S
O617 C624 1.247 . S
O618 Co616 2.091 . S
O618 C624 1.261 . S
C619 O628 1.247 . S
C619 O629 1.272 . S
O620 Co616 2.004 . S
O620 C625 1.259 . S
Co621 O622 2.061 . S
Co621 O627 2.052 . S
Co621 O629 2.135 . S
O622 Co621 2.061 . S
O622 C625 1.235 . S
C623 O626 1.238 . S
C623 O627 1.241 . S
C624 O617 1.247 . S
C624 O618 1.261 . S
C625 O620 1.259 . S
C625 O622 1.235 . S
O626 Co616 2.021 . S
O626 C623 1.238 . S
O627 Co621 2.052 . S
O627 C623 1.241 . S
O628 Co616 2.137 . S
O628 C619 1.247 . S
O629 Co616 2.244 . S
O629 C619 1.272 . S
O629 Co621 2.135 . S
Co630 O631 2.216 . S
Co630 O632 2.091 . S
Co630 O634 2.004 . S
Co630 O640 2.021 . S
Co630 O642 2.137 . S
Co630 O643 2.244 . S
O631 Co630 2.216 . S
O631 C638 1.247 . S
O632 Co630 2.091 . S
O632 C638 1.261 . S
C633 O642 1.247 . S
C633 O643 1.272 . S
O634 Co630 2.004 . S
O634 C639 1.259 . S
Co635 O636 2.061 . S
Co635 O641 2.052 . S
Co635 O643 2.135 . S
O636 Co635 2.061 . S
O636 C639 1.235 . S
C637 O640 1.238 . S
C637 O641 1.241 . S
C638 O631 1.247 . S
C638 O632 1.261 . S
C639 O634 1.259 . S
C639 O636 1.235 . S
O640 Co630 2.021 . S
O640 C637 1.238 . S
O641 Co635 2.052 . S
O641 C637 1.241 . S
O642 Co630 2.137 . S
O642 C633 1.247 . S
O643 Co630 2.244 . S
O643 C633 1.272 . S
O643 Co635 2.135 . S
Co644 O645 2.216 . S
Co644 O646 2.091 . S
Co644 O648 2.004 . S
Co644 O654 2.021 . S
Co644 O656 2.137 . S
Co644 O657 2.244 . S
O645 Co644 2.216 . S
O645 C652 1.247 . S
O646 Co644 2.091 . S
O646 C652 1.261 . S
C647 O656 1.247 . S
C647 O657 1.272 . S
O648 Co644 2.004 . S
O648 C653 1.259 . S
Co649 O650 2.061 . S
Co649 O655 2.052 . S
Co649 O657 2.135 . S
O650 Co649 2.061 . S
O650 C653 1.235 . S
C651 O654 1.238 . S
C651 O655 1.241 . S
C652 O645 1.247 . S
C652 O646 1.261 . S
C653 O648 1.259 . S
C653 O650 1.235 . S
O654 Co644 2.021 . S
O654 C651 1.238 . S
O655 Co649 2.052 . S
O655 C651 1.241 . S
O656 Co644 2.137 . S
O656 C647 1.247 . S
O657 Co644 2.244 . S
O657 C647 1.272 . S
O657 Co649 2.135 . S
Co658 O659 2.216 . S
Co658 O660 2.091 . S
Co658 O662 2.004 . S
Co658 O668 2.021 . S
Co658 O670 2.137 . S
Co658 O671 2.244 . S
O659 Co658 2.216 . S
O659 C666 1.247 . S
O660 Co658 2.091 . S
O660 C666 1.261 . S
C661 O670 1.247 . S
C661 O671 1.272 . S
O662 Co658 2.004 . S
O662 C667 1.259 . S
Co663 O664 2.061 . S
Co663 O669 2.052 . S
Co663 O671 2.135 . S
O664 Co663 2.061 . S
O664 C667 1.235 . S
C665 O668 1.238 . S
C665 O669 1.241 . S
C666 O659 1.247 . S
C666 O660 1.261 . S
C667 O662 1.259 . S
C667 O664 1.235 . S
O668 Co658 2.021 . S
O668 C665 1.238 . S
O669 Co663 2.052 . S
O669 C665 1.241 . S
O670 Co658 2.137 . S
O670 C661 1.247 . S
O671 Co658 2.244 . S
O671 C661 1.272 . S
O671 Co663 2.135 . S
C672 C673 1.349 . S
C672 C674 1.327 . S
C672 H697 0.950 . S
C673 C672 1.349 . S
C673 C689 1.349 . S
C674 C672 1.327 . S
C674 C693 1.429 . S
C674 H698 0.950 . S
C675 C692 1.574 . S
C675 C694 1.368 . S
C675 H699 0.949 . S
H676 C680 0.949 . S
C677 C678 1.349 . S
C677 C679 1.327 . S
C677 H700 0.950 . S
C678 C677 1.349 . S
C678 C690 1.349 . S
C679 C677 1.327 . S
C679 C695 1.429 . S
C679 H701 0.950 . S
C680 H676 0.949 . S
C680 C688 1.574 . S
C680 C696 1.368 . S
H681 C689 0.950 . S
H682 C687 0.950 . S
H683 C688 0.949 . S
H684 C690 0.950 . S
H685 C691 0.950 . S
H686 C692 0.949 . S
C687 H682 0.950 . S
C687 C689 1.327 . S
C687 C693 1.429 . S
C688 C680 1.574 . S
C688 H683 0.949 . S
C688 C694 1.368 . S
C689 C673 1.349 . S
C689 H681 0.950 . S
C689 C687 1.327 . S
C690 C678 1.349 . S
C690 H684 0.950 . S
C690 C691 1.327 . S
C691 H685 0.950 . S
C691 C690 1.327 . S
C691 C695 1.429 . S
C692 C675 1.574 . S
C692 H686 0.949 . S
C692 C696 1.368 . S
C693 C674 1.429 . S
C693 C687 1.429 . S
C693 C694 1.523 . S
C694 C675 1.368 . S
C694 C688 1.368 . S
C694 C693 1.523 . S
C695 C679 1.429 . S
C695 C691 1.429 . S
C695 C696 1.523 . S
C696 C680 1.368 . S
C696 C692 1.368 . S
C696 C695 1.523 . S
H697 C672 0.950 . S
H698 C674 0.950 . S
H699 C675 0.949 . S
H700 C677 0.950 . S
H701 C679 0.950 . S
C702 C703 1.349 . S
C702 C704 1.327 . S
C702 H727 0.950 . S
C703 C702 1.349 . S
C703 C719 1.349 . S
C704 C702 1.327 . S
C704 C723 1.429 . S
C704 H728 0.950 . S
C705 C722 1.574 . S
C705 C724 1.368 . S
C705 H729 0.949 . S
H706 C710 0.949 . S
C707 C708 1.349 . S
C707 C709 1.327 . S
C707 H730 0.950 . S
C708 C707 1.349 . S
C708 C720 1.349 . S
C709 C707 1.327 . S
C709 C725 1.429 . S
C709 H731 0.950 . S
C710 H706 0.949 . S
C710 C718 1.574 . S
C710 C726 1.368 . S
H711 C719 0.950 . S
H712 C717 0.950 . S
H713 C718 0.949 . S
H714 C720 0.950 . S
H715 C721 0.950 . S
H716 C722 0.949 . S
C717 H712 0.950 . S
C717 C719 1.327 . S
C717 C723 1.429 . S
C718 C710 1.574 . S
C718 H713 0.949 . S
C718 C724 1.368 . S
C719 C703 1.349 . S
C719 H711 0.950 . S
C719 C717 1.327 . S
C720 C708 1.349 . S
C720 H714 0.950 . S
C720 C721 1.327 . S
C721 H715 0.950 . S
C721 C720 1.327 . S
C721 C725 1.429 . S
C722 C705 1.574 . S
C722 H716 0.949 . S
C722 C726 1.368 . S
C723 C704 1.429 . S
C723 C717 1.429 . S
C723 C724 1.523 . S
C724 C705 1.368 . S
C724 C718 1.368 . S
C724 C723 1.523 . S
C725 C709 1.429 . S
C725 C721 1.429 . S
C725 C726 1.523 . S
C726 C710 1.368 . S
C726 C722 1.368 . S
C726 C725 1.523 . S
H727 C702 0.950 . S
H728 C704 0.950 . S
H729 C705 0.949 . S
H730 C707 0.950 . S
H731 C709 0.950 . S
C732 C733 1.349 . S
C732 C734 1.327 . S
C732 H757 0.950 . S
C733 C732 1.349 . S
C733 C749 1.349 . S
C734 C732 1.327 . S
C734 C753 1.429 . S
C734 H758 0.950 . S
C735 C752 1.574 . S
C735 C754 1.368 . S
C735 H759 0.949 . S
H736 C740 0.949 . S
C737 C738 1.349 . S
C737 C739 1.327 . S
C737 H760 0.950 . S
C738 C737 1.349 . S
C738 C750 1.349 . S
C739 C737 1.327 . S
C739 C755 1.429 . S
C739 H761 0.950 . S
C740 H736 0.949 . S
C740 C748 1.574 . S
C740 C756 1.368 . S
H741 C749 0.950 . S
H742 C747 0.950 . S
H743 C748 0.949 . S
H744 C750 0.950 . S
H745 C751 0.950 . S
H746 C752 0.949 . S
C747 H742 0.950 . S
C747 C749 1.327 . S
C747 C753 1.429 . S
C748 C740 1.574 . S
C748 H743 0.949 . S
C748 C754 1.368 . S
C749 C733 1.349 . S
C749 H741 0.950 . S
C749 C747 1.327 . S
C750 C738 1.349 . S
C750 H744 0.950 . S
C750 C751 1.327 . S
C751 H745 0.950 . S
C751 C750 1.327 . S
C751 C755 1.429 . S
C752 C735 1.574 . S
C752 H746 0.949 . S
C752 C756 1.368 . S
C753 C734 1.429 . S
C753 C747 1.429 . S
C753 C754 1.523 . S
C754 C735 1.368 . S
C754 C748 1.368 . S
C754 C753 1.523 . S
C755 C739 1.429 . S
C755 C751 1.429 . S
C755 C756 1.523 . S
C756 C740 1.368 . S
C756 C752 1.368 . S
C756 C755 1.523 . S
H757 C732 0.950 . S
H758 C734 0.950 . S
H759 C735 0.949 . S
H760 C737 0.950 . S
H761 C739 0.950 . S
C762 C763 1.349 . S
C762 C764 1.327 . S
C762 H787 0.950 . S
C763 C762 1.349 . S
C763 C779 1.349 . S
C764 C762 1.327 . S
C764 C783 1.429 . S
C764 H788 0.950 . S
C765 C782 1.574 . S
C765 C784 1.368 . S
C765 H789 0.949 . S
H766 C770 0.949 . S
C767 C768 1.349 . S
C767 C769 1.327 . S
C767 H790 0.950 . S
C768 C767 1.349 . S
C768 C780 1.349 . S
C769 C767 1.327 . S
C769 C785 1.429 . S
C769 H791 0.950 . S
C770 H766 0.949 . S
C770 C778 1.574 . S
C770 C786 1.368 . S
H771 C779 0.950 . S
H772 C777 0.950 . S
H773 C778 0.949 . S
H774 C780 0.950 . S
H775 C781 0.950 . S
H776 C782 0.949 . S
C777 H772 0.950 . S
C777 C779 1.327 . S
C777 C783 1.429 . S
C778 C770 1.574 . S
C778 H773 0.949 . S
C778 C784 1.368 . S
C779 C763 1.349 . S
C779 H771 0.950 . S
C779 C777 1.327 . S
C780 C768 1.349 . S
C780 H774 0.950 . S
C780 C781 1.327 . S
C781 H775 0.950 . S
C781 C780 1.327 . S
C781 C785 1.429 . S
C782 C765 1.574 . S
C782 H776 0.949 . S
C782 C786 1.368 . S
C783 C764 1.429 . S
C783 C777 1.429 . S
C783 C784 1.523 . S
C784 C765 1.368 . S
C784 C778 1.368 . S
C784 C783 1.523 . S
C785 C769 1.429 . S
C785 C781 1.429 . S
C785 C786 1.523 . S
C786 C770 1.368 . S
C786 C782 1.368 . S
C786 C785 1.523 . S
H787 C762 0.950 . S
H788 C764 0.950 . S
H789 C765 0.949 . S
H790 C767 0.950 . S
H791 C769 0.950 . S
C792 C793 1.349 . S
C792 C794 1.327 . S
C792 H817 0.950 . S
C793 C792 1.349 . S
C793 C809 1.349 . S
C794 C792 1.327 . S
C794 C813 1.429 . S
C794 H818 0.950 . S
C795 C812 1.574 . S
C795 C814 1.368 . S
C795 H819 0.949 . S
H796 C800 0.949 . S
C797 C798 1.349 . S
C797 C799 1.327 . S
C797 H820 0.950 . S
C798 C797 1.349 . S
C798 C810 1.349 . S
C799 C797 1.327 . S
C799 C815 1.429 . S
C799 H821 0.950 . S
C800 H796 0.949 . S
C800 C808 1.574 . S
C800 C816 1.368 . S
H801 C809 0.950 . S
H802 C807 0.950 . S
H803 C808 0.949 . S
H804 C810 0.950 . S
H805 C811 0.950 . S
H806 C812 0.949 . S
C807 H802 0.950 . S
C807 C809 1.327 . S
C807 C813 1.429 . S
C808 C800 1.574 . S
C808 H803 0.949 . S
C808 C814 1.368 . S
C809 C793 1.349 . S
C809 H801 0.950 . S
C809 C807 1.327 . S
C810 C798 1.349 . S
C810 H804 0.950 . S
C810 C811 1.327 . S
C811 H805 0.950 . S
C811 C810 1.327 . S
C811 C815 1.429 . S
C812 C795 1.574 . S
C812 H806 0.949 . S
C812 C816 1.368 . S
C813 C794 1.429 . S
C813 C807 1.429 . S
C813 C814 1.523 . S
C814 C795 1.368 . S
C814 C808 1.368 . S
C814 C813 1.523 . S
C815 C799 1.429 . S
C815 C811 1.429 . S
C815 C816 1.523 . S
C816 C800 1.368 . S
C816 C812 1.368 . S
C816 C815 1.523 . S
H817 C792 0.950 . S
H818 C794 0.950 . S
H819 C795 0.949 . S
H820 C797 0.950 . S
H821 C799 0.950 . S
C822 C823 1.349 . S
C822 C824 1.327 . S
C822 H847 0.950 . S
C823 C822 1.349 . S
C823 C839 1.349 . S
C824 C822 1.327 . S
C824 C843 1.429 . S
C824 H848 0.950 . S
C825 C842 1.574 . S
C825 C844 1.368 . S
C825 H849 0.949 . S
H826 C830 0.949 . S
C827 C828 1.349 . S
C827 C829 1.327 . S
C827 H850 0.950 . S
C828 C827 1.349 . S
C828 C840 1.349 . S
C829 C827 1.327 . S
C829 C845 1.429 . S
C829 H851 0.950 . S
C830 H826 0.949 . S
C830 C838 1.574 . S
C830 C846 1.368 . S
H831 C839 0.950 . S
H832 C837 0.950 . S
H833 C838 0.949 . S
H834 C840 0.950 . S
H835 C841 0.950 . S
H836 C842 0.949 . S
C837 H832 0.950 . S
C837 C839 1.327 . S
C837 C843 1.429 . S
C838 C830 1.574 . S
C838 H833 0.949 . S
C838 C844 1.368 . S
C839 C823 1.349 . S
C839 H831 0.950 . S
C839 C837 1.327 . S
C840 C828 1.349 . S
C840 H834 0.950 . S
C840 C841 1.327 . S
C841 H835 0.950 . S
C841 C840 1.327 . S
C841 C845 1.429 . S
C842 C825 1.574 . S
C842 H836 0.949 . S
C842 C846 1.368 . S
C843 C824 1.429 . S
C843 C837 1.429 . S
C843 C844 1.523 . S
C844 C825 1.368 . S
C844 C838 1.368 . S
C844 C843 1.523 . S
C845 C829 1.429 . S
C845 C841 1.429 . S
C845 C846 1.523 . S
C846 C830 1.368 . S
C846 C842 1.368 . S
C846 C845 1.523 . S
H847 C822 0.950 . S
H848 C824 0.950 . S
H849 C825 0.949 . S
H850 C827 0.950 . S
H851 C829 0.950 . S
C852 C853 1.349 . S
C852 C854 1.327 . S
C852 H877 0.950 . S
C853 C852 1.349 . S
C853 C869 1.349 . S
C854 C852 1.327 . S
C854 C873 1.429 . S
C854 H878 0.950 . S
C855 C872 1.574 . S
C855 C874 1.368 . S
C855 H879 0.949 . S
H856 C860 0.949 . S
C857 C858 1.349 . S
C857 C859 1.327 . S
C857 H880 0.950 . S
C858 C857 1.349 . S
C858 C870 1.349 . S
C859 C857 1.327 . S
C859 C875 1.429 . S
C859 H881 0.950 . S
C860 H856 0.949 . S
C860 C868 1.574 . S
C860 C876 1.368 . S
H861 C869 0.950 . S
H862 C867 0.950 . S
H863 C868 0.949 . S
H864 C870 0.950 . S
H865 C871 0.950 . S
H866 C872 0.949 . S
C867 H862 0.950 . S
C867 C869 1.327 . S
C867 C873 1.429 . S
C868 C860 1.574 . S
C868 H863 0.949 . S
C868 C874 1.368 . S
C869 C853 1.349 . S
C869 H861 0.950 . S
C869 C867 1.327 . S
C870 C858 1.349 . S
C870 H864 0.950 . S
C870 C871 1.327 . S
C871 H865 0.950 . S
C871 C870 1.327 . S
C871 C875 1.429 . S
C872 C855 1.574 . S
C872 H866 0.949 . S
C872 C876 1.368 . S
C873 C854 1.429 . S
C873 C867 1.429 . S
C873 C874 1.523 . S
C874 C855 1.368 . S
C874 C868 1.368 . S
C874 C873 1.523 . S
C875 C859 1.429 . S
C875 C871 1.429 . S
C875 C876 1.523 . S
C876 C860 1.368 . S
C876 C872 1.368 . S
C876 C875 1.523 . S
H877 C852 0.950 . S
H878 C854 0.950 . S
H879 C855 0.949 . S
H880 C857 0.950 . S
H881 C859 0.950 . S
C882 C883 1.349 . S
C882 C884 1.327 . S
C882 H907 0.950 . S
C883 C882 1.349 . S
C883 C899 1.349 . S
C884 C882 1.327 . S
C884 C903 1.429 . S
C884 H908 0.950 . S
C885 C902 1.574 . S
C885 C904 1.368 . S
C885 H909 0.949 . S
H886 C890 0.949 . S
C887 C888 1.349 . S
C887 C889 1.327 . S
C887 H910 0.950 . S
C888 C887 1.349 . S
C888 C900 1.349 . S
C889 C887 1.327 . S
C889 C905 1.429 . S
C889 H911 0.950 . S
C890 H886 0.949 . S
C890 C898 1.574 . S
C890 C906 1.368 . S
H891 C899 0.950 . S
H892 C897 0.950 . S
H893 C898 0.949 . S
H894 C900 0.950 . S
H895 C901 0.950 . S
H896 C902 0.949 . S
C897 H892 0.950 . S
C897 C899 1.327 . S
C897 C903 1.429 . S
C898 C890 1.574 . S
C898 H893 0.949 . S
C898 C904 1.368 . S
C899 C883 1.349 . S
C899 H891 0.950 . S
C899 C897 1.327 . S
C900 C888 1.349 . S
C900 H894 0.950 . S
C900 C901 1.327 . S
C901 H895 0.950 . S
C901 C900 1.327 . S
C901 C905 1.429 . S
C902 C885 1.574 . S
C902 H896 0.949 . S
C902 C906 1.368 . S
C903 C884 1.429 . S
C903 C897 1.429 . S
C903 C904 1.523 . S
C904 C885 1.368 . S
C904 C898 1.368 . S
C904 C903 1.523 . S
C905 C889 1.429 . S
C905 C901 1.429 . S
C905 C906 1.523 . S
C906 C890 1.368 . S
C906 C902 1.368 . S
C906 C905 1.523 . S
H907 C882 0.950 . S
H908 C884 0.950 . S
H909 C885 0.949 . S
H910 C887 0.950 . S
H911 C889 0.950 . S
C912 C913 1.349 . S
C912 C914 1.327 . S
C912 H937 0.950 . S
C913 C912 1.349 . S
C913 C929 1.349 . S
C914 C912 1.327 . S
C914 C933 1.429 . S
C914 H938 0.950 . S
C915 C932 1.574 . S
C915 C934 1.368 . S
C915 H939 0.949 . S
H916 C920 0.949 . S
C917 C918 1.349 . S
C917 C919 1.327 . S
C917 H940 0.950 . S
C918 C917 1.349 . S
C918 C930 1.349 . S
C919 C917 1.327 . S
C919 C935 1.429 . S
C919 H941 0.950 . S
C920 H916 0.949 . S
C920 C928 1.574 . S
C920 C936 1.368 . S
H921 C929 0.950 . S
H922 C927 0.950 . S
H923 C928 0.949 . S
H924 C930 0.950 . S
H925 C931 0.950 . S
H926 C932 0.949 . S
C927 H922 0.950 . S
C927 C929 1.327 . S
C927 C933 1.429 . S
C928 C920 1.574 . S
C928 H923 0.949 . S
C928 C934 1.368 . S
C929 C913 1.349 . S
C929 H921 0.950 . S
C929 C927 1.327 . S
C930 C918 1.349 . S
C930 H924 0.950 . S
C930 C931 1.327 . S
C931 H925 0.950 . S
C931 C930 1.327 . S
C931 C935 1.429 . S
C932 C915 1.574 . S
C932 H926 0.949 . S
C932 C936 1.368 . S
C933 C914 1.429 . S
C933 C927 1.429 . S
C933 C934 1.523 . S
C934 C915 1.368 . S
C934 C928 1.368 . S
C934 C933 1.523 . S
C935 C919 1.429 . S
C935 C931 1.429 . S
C935 C936 1.523 . S
C936 C920 1.368 . S
C936 C932 1.368 . S
C936 C935 1.523 . S
H937 C912 0.950 . S
H938 C914 0.950 . S
H939 C915 0.949 . S
H940 C917 0.950 . S
H941 C919 0.950 . S
C942 C943 1.349 . S
C942 C944 1.327 . S
C942 H967 0.950 . S
C943 C942 1.349 . S
C943 C959 1.349 . S
C944 C942 1.327 . S
C944 C963 1.429 . S
C944 H968 0.950 . S
C945 C962 1.574 . S
C945 C964 1.368 . S
C945 H969 0.949 . S
H946 C950 0.949 . S
C947 C948 1.349 . S
C947 C949 1.327 . S
C947 H970 0.950 . S
C948 C947 1.349 . S
C948 C960 1.349 . S
C949 C947 1.327 . S
C949 C965 1.429 . S
C949 H971 0.950 . S
C950 H946 0.949 . S
C950 C958 1.574 . S
C950 C966 1.368 . S
H951 C959 0.950 . S
H952 C957 0.950 . S
H953 C958 0.949 . S
H954 C960 0.950 . S
H955 C961 0.950 . S
H956 C962 0.949 . S
C957 H952 0.950 . S
C957 C959 1.327 . S
C957 C963 1.429 . S
C958 C950 1.574 . S
C958 H953 0.949 . S
C958 C964 1.368 . S
C959 C943 1.349 . S
C959 H951 0.950 . S
C959 C957 1.327 . S
C960 C948 1.349 . S
C960 H954 0.950 . S
C960 C961 1.327 . S
C961 H955 0.950 . S
C961 C960 1.327 . S
C961 C965 1.429 . S
C962 C945 1.574 . S
C962 H956 0.949 . S
C962 C966 1.368 . S
C963 C944 1.429 . S
C963 C957 1.429 . S
C963 C964 1.523 . S
C964 C945 1.368 . S
C964 C958 1.368 . S
C964 C963 1.523 . S
C965 C949 1.429 . S
C965 C961 1.429 . S
C965 C966 1.523 . S
C966 C950 1.368 . S
C966 C962 1.368 . S
C966 C965 1.523 . S
H967 C942 0.950 . S
H968 C944 0.950 . S
H969 C945 0.949 . S
H970 C947 0.950 . S
H971 C949 0.950 . S
C972 C973 1.349 . S
C972 C974 1.327 . S
C972 H997 0.950 . S
C973 C972 1.349 . S
C973 C989 1.349 . S
C974 C972 1.327 . S
C974 C993 1.429 . S
C974 H998 0.950 . S
C975 C992 1.574 . S
C975 C994 1.368 . S
C975 H999 0.949 . S
H976 C980 0.949 . S
C977 C978 1.349 . S
C977 C979 1.327 . S
C977 H1000 0.950 . S
C978 C977 1.349 . S
C978 C990 1.349 . S
C979 C977 1.327 . S
C979 C995 1.429 . S
C979 H1001 0.950 . S
C980 H976 0.949 . S
C980 C988 1.574 . S
C980 C996 1.368 . S
H981 C989 0.950 . S
H982 C987 0.950 . S
H983 C988 0.949 . S
H984 C990 0.950 . S
H985 C991 0.950 . S
H986 C992 0.949 . S
C987 H982 0.950 . S
C987 C989 1.327 . S
C987 C993 1.429 . S
C988 C980 1.574 . S
C988 H983 0.949 . S
C988 C994 1.368 . S
C989 C973 1.349 . S
C989 H981 0.950 . S
C989 C987 1.327 . S
C990 C978 1.349 . S
C990 H984 0.950 . S
C990 C991 1.327 . S
C991 H985 0.950 . S
C991 C990 1.327 . S
C991 C995 1.429 . S
C992 C975 1.574 . S
C992 H986 0.949 . S
C992 C996 1.368 . S
C993 C974 1.429 . S
C993 C987 1.429 . S
C993 C994 1.523 . S
C994 C975 1.368 . S
C994 C988 1.368 . S
C994 C993 1.523 . S
C995 C979 1.429 . S
C995 C991 1.429 . S
C995 C996 1.523 . S
C996 C980 1.368 . S
C996 C992 1.368 . S
C996 C995 1.523 . S
H997 C972 0.950 . S
H998 C974 0.950 . S
H999 C975 0.949 . S
H1000 C977 0.950 . S
H1001 C979 0.950 . S
C1002 C1003 1.349 . S
C1002 C1004 1.327 . S
C1002 H1027 0.950 . S
C1003 C1002 1.349 . S
C1003 C1019 1.349 . S
C1004 C1002 1.327 . S
C1004 C1023 1.429 . S
C1004 H1028 0.950 . S
C1005 C1022 1.574 . S
C1005 C1024 1.368 . S
C1005 H1029 0.949 . S
H1006 C1010 0.949 . S
C1007 C1008 1.349 . S
C1007 C1009 1.327 . S
C1007 H1030 0.950 . S
C1008 C1007 1.349 . S
C1008 C1020 1.349 . S
C1009 C1007 1.327 . S
C1009 C1025 1.429 . S
C1009 H1031 0.950 . S
C1010 H1006 0.949 . S
C1010 C1018 1.574 . S
C1010 C1026 1.368 . S
H1011 C1019 0.950 . S
H1012 C1017 0.950 . S
H1013 C1018 0.949 . S
H1014 C1020 0.950 . S
H1015 C1021 0.950 . S
H1016 C1022 0.949 . S
C1017 H1012 0.950 . S
C1017 C1019 1.327 . S
C1017 C1023 1.429 . S
C1018 C1010 1.574 . S
C1018 H1013 0.949 . S
C1018 C1024 1.368 . S
C1019 C1003 1.349 . S
C1019 H1011 0.950 . S
C1019 C1017 1.327 . S
C1020 C1008 1.349 . S
C1020 H1014 0.950 . S
C1020 C1021 1.327 . S
C1021 H1015 0.950 . S
C1021 C1020 1.327 . S
C1021 C1025 1.429 . S
C1022 C1005 1.574 . S
C1022 H1016 0.949 . S
C1022 C1026 1.368 . S
C1023 C1004 1.429 . S
C1023 C1017 1.429 . S
C1023 C1024 1.523 . S
C1024 C1005 1.368 . S
C1024 C1018 1.368 . S
C1024 C1023 1.523 . S
C1025 C1009 1.429 . S
C1025 C1021 1.429 . S
C1025 C1026 1.523 . S
C1026 C1010 1.368 . S
C1026 C1022 1.368 . S
C1026 C1025 1.523 . S
H1027 C1002 0.950 . S
H1028 C1004 0.950 . S
H1029 C1005 0.949 . S
H1030 C1007 0.950 . S
H1031 C1009 0.950 . S
C1032 C1033 1.349 . S
C1032 C1034 1.327 . S
C1032 H1057 0.950 . S
C1033 C1032 1.349 . S
C1033 C1049 1.349 . S
C1034 C1032 1.327 . S
C1034 C1053 1.429 . S
C1034 H1058 0.950 . S
C1035 C1052 1.574 . S
C1035 C1054 1.368 . S
C1035 H1059 0.949 . S
H1036 C1040 0.949 . S
C1037 C1038 1.349 . S
C1037 C1039 1.327 . S
C1037 H1060 0.950 . S
C1038 C1037 1.349 . S
C1038 C1050 1.349 . S
C1039 C1037 1.327 . S
C1039 C1055 1.429 . S
C1039 H1061 0.950 . S
C1040 H1036 0.949 . S
C1040 C1048 1.574 . S
C1040 C1056 1.368 . S
H1041 C1049 0.950 . S
H1042 C1047 0.950 . S
H1043 C1048 0.949 . S
H1044 C1050 0.950 . S
H1045 C1051 0.950 . S
H1046 C1052 0.949 . S
C1047 H1042 0.950 . S
C1047 C1049 1.327 . S
C1047 C1053 1.429 . S
C1048 C1040 1.574 . S
C1048 H1043 0.949 . S
C1048 C1054 1.368 . S
C1049 C1033 1.349 . S
C1049 H1041 0.950 . S
C1049 C1047 1.327 . S
C1050 C1038 1.349 . S
C1050 H1044 0.950 . S
C1050 C1051 1.327 . S
C1051 H1045 0.950 . S
C1051 C1050 1.327 . S
C1051 C1055 1.429 . S
C1052 C1035 1.574 . S
C1052 H1046 0.949 . S
C1052 C1056 1.368 . S
C1053 C1034 1.429 . S
C1053 C1047 1.429 . S
C1053 C1054 1.523 . S
C1054 C1035 1.368 . S
C1054 C1048 1.368 . S
C1054 C1053 1.523 . S
C1055 C1039 1.429 . S
C1055 C1051 1.429 . S
C1055 C1056 1.523 . S
C1056 C1040 1.368 . S
C1056 C1052 1.368 . S
C1056 C1055 1.523 . S
H1057 C1032 0.950 . S
H1058 C1034 0.950 . S
H1059 C1035 0.949 . S
H1060 C1037 0.950 . S
H1061 C1039 0.950 . S
C1062 C1063 1.349 . S
C1062 C1064 1.327 . S
C1062 H1087 0.950 . S
C1063 C1062 1.349 . S
C1063 C1079 1.349 . S
C1064 C1062 1.327 . S
C1064 C1083 1.429 . S
C1064 H1088 0.950 . S
C1065 C1082 1.574 . S
C1065 C1084 1.368 . S
C1065 H1089 0.949 . S
H1066 C1070 0.949 . S
C1067 C1068 1.349 . S
C1067 C1069 1.327 . S
C1067 H1090 0.950 . S
C1068 C1067 1.349 . S
C1068 C1080 1.349 . S
C1069 C1067 1.327 . S
C1069 C1085 1.429 . S
C1069 H1091 0.950 . S
C1070 H1066 0.949 . S
C1070 C1078 1.574 . S
C1070 C1086 1.368 . S
H1071 C1079 0.950 . S
H1072 C1077 0.950 . S
H1073 C1078 0.949 . S
H1074 C1080 0.950 . S
H1075 C1081 0.950 . S
H1076 C1082 0.949 . S
C1077 H1072 0.950 . S
C1077 C1079 1.327 . S
C1077 C1083 1.429 . S
C1078 C1070 1.574 . S
C1078 H1073 0.949 . S
C1078 C1084 1.368 . S
C1079 C1063 1.349 . S
C1079 H1071 0.950 . S
C1079 C1077 1.327 . S
C1080 C1068 1.349 . S
C1080 H1074 0.950 . S
C1080 C1081 1.327 . S
C1081 H1075 0.950 . S
C1081 C1080 1.327 . S
C1081 C1085 1.429 . S
C1082 C1065 1.574 . S
C1082 H1076 0.949 . S
C1082 C1086 1.368 . S
C1083 C1064 1.429 . S
C1083 C1077 1.429 . S
C1083 C1084 1.523 . S
C1084 C1065 1.368 . S
C1084 C1078 1.368 . S
C1084 C1083 1.523 . S
C1085 C1069 1.429 . S
C1085 C1081 1.429 . S
C1085 C1086 1.523 . S
C1086 C1070 1.368 . S
C1086 C1082 1.368 . S
C1086 C1085 1.523 . S
H1087 C1062 0.950 . S
H1088 C1064 0.950 . S
H1089 C1065 0.949 . S
H1090 C1067 0.950 . S
H1091 C1069 0.950 . S
C1092 C1093 1.349 . S
C1092 C1094 1.327 . S
C1092 H1117 0.950 . S
C1093 C1092 1.349 . S
C1093 C1109 1.349 . S
C1094 C1092 1.327 . S
C1094 C1113 1.429 . S
C1094 H1118 0.950 . S
C1095 C1112 1.574 . S
C1095 C1114 1.368 . S
C1095 H1119 0.949 . S
H1096 C1100 0.949 . S
C1097 C1098 1.349 . S
C1097 C1099 1.327 . S
C1097 H1120 0.950 . S
C1098 C1097 1.349 . S
C1098 C1110 1.349 . S
C1099 C1097 1.327 . S
C1099 C1115 1.429 . S
C1099 H1121 0.950 . S
C1100 H1096 0.949 . S
C1100 C1108 1.574 . S
C1100 C1116 1.368 . S
H1101 C1109 0.950 . S
H1102 C1107 0.950 . S
H1103 C1108 0.949 . S
H1104 C1110 0.950 . S
H1105 C1111 0.950 . S
H1106 C1112 0.949 . S
C1107 H1102 0.950 . S
C1107 C1109 1.327 . S
C1107 C1113 1.429 . S
C1108 C1100 1.574 . S
C1108 H1103 0.949 . S
C1108 C1114 1.368 . S
C1109 C1093 1.349 . S
C1109 H1101 0.950 . S
C1109 C1107 1.327 . S
C1110 C1098 1.349 . S
C1110 H1104 0.950 . S
C1110 C1111 1.327 . S
C1111 H1105 0.950 . S
C1111 C1110 1.327 . S
C1111 C1115 1.429 . S
C1112 C1095 1.574 . S
C1112 H1106 0.949 . S
C1112 C1116 1.368 . S
C1113 C1094 1.429 . S
C1113 C1107 1.429 . S
C1113 C1114 1.523 . S
C1114 C1095 1.368 . S
C1114 C1108 1.368 . S
C1114 C1113 1.523 . S
C1115 C1099 1.429 . S
C1115 C1111 1.429 . S
C1115 C1116 1.523 . S
C1116 C1100 1.368 . S
C1116 C1112 1.368 . S
C1116 C1115 1.523 . S
H1117 C1092 0.950 . S
H1118 C1094 0.950 . S
H1119 C1095 0.949 . S
H1120 C1097 0.950 . S
H1121 C1099 0.950 . S
C1122 C1123 1.349 . S
C1122 C1124 1.327 . S
C1122 H1147 0.950 . S
C1123 C1122 1.349 . S
C1123 C1139 1.349 . S
C1124 C1122 1.327 . S
C1124 C1143 1.429 . S
C1124 H1148 0.950 . S
C1125 C1142 1.574 . S
C1125 C1144 1.368 . S
C1125 H1149 0.949 . S
H1126 C1130 0.949 . S
C1127 C1128 1.349 . S
C1127 C1129 1.327 . S
C1127 H1150 0.950 . S
C1128 C1127 1.349 . S
C1128 C1140 1.349 . S
C1129 C1127 1.327 . S
C1129 C1145 1.429 . S
C1129 H1151 0.950 . S
C1130 H1126 0.949 . S
C1130 C1138 1.574 . S
C1130 C1146 1.368 . S
H1131 C1139 0.950 . S
H1132 C1137 0.950 . S
H1133 C1138 0.949 . S
H1134 C1140 0.950 . S
H1135 C1141 0.950 . S
H1136 C1142 0.949 . S
C1137 H1132 0.950 . S
C1137 C1139 1.327 . S
C1137 C1143 1.429 . S
C1138 C1130 1.574 . S
C1138 H1133 0.949 . S
C1138 C1144 1.368 . S
C1139 C1123 1.349 . S
C1139 H1131 0.950 . S
C1139 C1137 1.327 . S
C1140 C1128 1.349 . S
C1140 H1134 0.950 . S
C1140 C1141 1.327 . S
C1141 H1135 0.950 . S
C1141 C1140 1.327 . S
C1141 C1145 1.429 . S
C1142 C1125 1.574 . S
C1142 H1136 0.949 . S
C1142 C1146 1.368 . S
C1143 C1124 1.429 . S
C1143 C1137 1.429 . S
C1143 C1144 1.523 . S
C1144 C1125 1.368 . S
C1144 C1138 1.368 . S
C1144 C1143 1.523 . S
C1145 C1129 1.429 . S
C1145 C1141 1.429 . S
C1145 C1146 1.523 . S
C1146 C1130 1.368 . S
C1146 C1142 1.368 . S
C1146 C1145 1.523 . S
H1147 C1122 0.950 . S
H1148 C1124 0.950 . S
H1149 C1125 0.949 . S
H1150 C1127 0.950 . S
H1151 C1129 0.950 . S
C1152 C1153 1.349 . S
C1152 C1154 1.327 . S
C1152 H1177 0.950 . S
C1153 C1152 1.349 . S
C1153 C1169 1.349 . S
C1154 C1152 1.327 . S
C1154 C1173 1.429 . S
C1154 H1178 0.950 . S
C1155 C1172 1.574 . S
C1155 C1174 1.368 . S
C1155 H1179 0.949 . S
H1156 C1160 0.949 . S
C1157 C1158 1.349 . S
C1157 C1159 1.327 . S
C1157 H1180 0.950 . S
C1158 C1157 1.349 . S
C1158 C1170 1.349 . S
C1159 C1157 1.327 . S
C1159 C1175 1.429 . S
C1159 H1181 0.950 . S
C1160 H1156 0.949 . S
C1160 C1168 1.574 . S
C1160 C1176 1.368 . S
H1161 C1169 0.950 . S
H1162 C1167 0.950 . S
H1163 C1168 0.949 . S
H1164 C1170 0.950 . S
H1165 C1171 0.950 . S
H1166 C1172 0.949 . S
C1167 H1162 0.950 . S
C1167 C1169 1.327 . S
C1167 C1173 1.429 . S
C1168 C1160 1.574 . S
C1168 H1163 0.949 . S
C1168 C1174 1.368 . S
C1169 C1153 1.349 . S
C1169 H1161 0.950 . S
C1169 C1167 1.327 . S
C1170 C1158 1.349 . S
C1170 H1164 0.950 . S
C1170 C1171 1.327 . S
C1171 H1165 0.950 . S
C1171 C1170 1.327 . S
C1171 C1175 1.429 . S
C1172 C1155 1.574 . S
C1172 H1166 0.949 . S
C1172 C1176 1.368 . S
C1173 C1154 1.429 . S
C1173 C1167 1.429 . S
C1173 C1174 1.523 . S
C1174 C1155 1.368 . S
C1174 C1168 1.368 . S
C1174 C1173 1.523 . S
C1175 C1159 1.429 . S
C1175 C1171 1.429 . S
C1175 C1176 1.523 . S
C1176 C1160 1.368 . S
C1176 C1172 1.368 . S
C1176 C1175 1.523 . S
H1177 C1152 0.950 . S
H1178 C1154 0.950 . S
H1179 C1155 0.949 . S
H1180 C1157 0.950 . S
H1181 C1159 0.950 . S
C1182 C1183 1.349 . S
C1182 C1184 1.327 . S
C1182 H1207 0.950 . S
C1183 C1182 1.349 . S
C1183 C1199 1.349 . S
C1184 C1182 1.327 . S
C1184 C1203 1.429 . S
C1184 H1208 0.950 . S
C1185 C1202 1.574 . S
C1185 C1204 1.368 . S
C1185 H1209 0.949 . S
H1186 C1190 0.949 . S
C1187 C1188 1.349 . S
C1187 C1189 1.327 . S
C1187 H1210 0.950 . S
C1188 C1187 1.349 . S
C1188 C1200 1.349 . S
C1189 C1187 1.327 . S
C1189 C1205 1.429 . S
C1189 H1211 0.950 . S
C1190 H1186 0.949 . S
C1190 C1198 1.574 . S
C1190 C1206 1.368 . S
H1191 C1199 0.950 . S
H1192 C1197 0.950 . S
H1193 C1198 0.949 . S
H1194 C1200 0.950 . S
H1195 C1201 0.950 . S
H1196 C1202 0.949 . S
C1197 H1192 0.950 . S
C1197 C1199 1.327 . S
C1197 C1203 1.429 . S
C1198 C1190 1.574 . S
C1198 H1193 0.949 . S
C1198 C1204 1.368 . S
C1199 C1183 1.349 . S
C1199 H1191 0.950 . S
C1199 C1197 1.327 . S
C1200 C1188 1.349 . S
C1200 H1194 0.950 . S
C1200 C1201 1.327 . S
C1201 H1195 0.950 . S
C1201 C1200 1.327 . S
C1201 C1205 1.429 . S
C1202 C1185 1.574 . S
C1202 H1196 0.949 . S
C1202 C1206 1.368 . S
C1203 C1184 1.429 . S
C1203 C1197 1.429 . S
C1203 C1204 1.523 . S
C1204 C1185 1.368 . S
C1204 C1198 1.368 . S
C1204 C1203 1.523 . S
C1205 C1189 1.429 . S
C1205 C1201 1.429 . S
C1205 C1206 1.523 . S
C1206 C1190 1.368 . S
C1206 C1202 1.368 . S
C1206 C1205 1.523 . S
H1207 C1182 0.950 . S
H1208 C1184 0.950 . S
H1209 C1185 0.949 . S
H1210 C1187 0.950 . S
H1211 C1189 0.950 . S
C1212 C1213 1.349 . S
C1212 C1214 1.327 . S
C1212 H1237 0.950 . S
C1213 C1212 1.349 . S
C1213 C1229 1.349 . S
C1214 C1212 1.327 . S
C1214 C1233 1.429 . S
C1214 H1238 0.950 . S
C1215 C1232 1.574 . S
C1215 C1234 1.368 . S
C1215 H1239 0.949 . S
H1216 C1220 0.949 . S
C1217 C1218 1.349 . S
C1217 C1219 1.327 . S
C1217 H1240 0.950 . S
C1218 C1217 1.349 . S
C1218 C1230 1.349 . S
C1219 C1217 1.327 . S
C1219 C1235 1.429 . S
C1219 H1241 0.950 . S
C1220 H1216 0.949 . S
C1220 C1228 1.574 . S
C1220 C1236 1.368 . S
H1221 C1229 0.950 . S
H1222 C1227 0.950 . S
H1223 C1228 0.949 . S
H1224 C1230 0.950 . S
H1225 C1231 0.950 . S
H1226 C1232 0.949 . S
C1227 H1222 0.950 . S
C1227 C1229 1.327 . S
C1227 C1233 1.429 . S
C1228 C1220 1.574 . S
C1228 H1223 0.949 . S
C1228 C1234 1.368 . S
C1229 C1213 1.349 . S
C1229 H1221 0.950 . S
C1229 C1227 1.327 . S
C1230 C1218 1.349 . S
C1230 H1224 0.950 . S
C1230 C1231 1.327 . S
C1231 H1225 0.950 . S
C1231 C1230 1.327 . S
C1231 C1235 1.429 . S
C1232 C1215 1.574 . S
C1232 H1226 0.949 . S
C1232 C1236 1.368 . S
C1233 C1214 1.429 . S
C1233 C1227 1.429 . S
C1233 C1234 1.523 . S
C1234 C1215 1.368 . S
C1234 C1228 1.368 . S
C1234 C1233 1.523 . S
C1235 C1219 1.429 . S
C1235 C1231 1.429 . S
C1235 C1236 1.523 . S
C1236 C1220 1.368 . S
C1236 C1232 1.368 . S
C1236 C1235 1.523 . S
H1237 C1212 0.950 . S
H1238 C1214 0.950 . S
H1239 C1215 0.949 . S
H1240 C1217 0.950 . S
H1241 C1219 0.950 . S
C1242 C1243 1.349 . S
C1242 C1244 1.327 . S
C1242 H1267 0.950 . S
C1243 C1242 1.349 . S
C1243 C1259 1.349 . S
C1244 C1242 1.327 . S
C1244 C1263 1.429 . S
C1244 H1268 0.950 . S
C1245 C1262 1.574 . S
C1245 C1264 1.368 . S
C1245 H1269 0.949 . S
H1246 C1250 0.949 . S
C1247 C1248 1.349 . S
C1247 C1249 1.327 . S
C1247 H1270 0.950 . S
C1248 C1247 1.349 . S
C1248 C1260 1.349 . S
C1249 C1247 1.327 . S
C1249 C1265 1.429 . S
C1249 H1271 0.950 . S
C1250 H1246 0.949 . S
C1250 C1258 1.574 . S
C1250 C1266 1.368 . S
H1251 C1259 0.950 . S
H1252 C1257 0.950 . S
H1253 C1258 0.949 . S
H1254 C1260 0.950 . S
H1255 C1261 0.950 . S
H1256 C1262 0.949 . S
C1257 H1252 0.950 . S
C1257 C1259 1.327 . S
C1257 C1263 1.429 . S
C1258 C1250 1.574 . S
C1258 H1253 0.949 . S
C1258 C1264 1.368 . S
C1259 C1243 1.349 . S
C1259 H1251 0.950 . S
C1259 C1257 1.327 . S
C1260 C1248 1.349 . S
C1260 H1254 0.950 . S
C1260 C1261 1.327 . S
C1261 H1255 0.950 . S
C1261 C1260 1.327 . S
C1261 C1265 1.429 . S
C1262 C1245 1.574 . S
C1262 H1256 0.949 . S
C1262 C1266 1.368 . S
C1263 C1244 1.429 . S
C1263 C1257 1.429 . S
C1263 C1264 1.523 . S
C1264 C1245 1.368 . S
C1264 C1258 1.368 . S
C1264 C1263 1.523 . S
C1265 C1249 1.429 . S
C1265 C1261 1.429 . S
C1265 C1266 1.523 . S
C1266 C1250 1.368 . S
C1266 C1262 1.368 . S
C1266 C1265 1.523 . S
H1267 C1242 0.950 . S
H1268 C1244 0.950 . S
H1269 C1245 0.949 . S
H1270 C1247 0.950 . S
H1271 C1249 0.950 . S
C1272 C1273 1.349 . S
C1272 C1274 1.327 . S
C1272 H1297 0.950 . S
C1273 C1272 1.349 . S
C1273 C1289 1.349 . S
C1274 C1272 1.327 . S
C1274 C1293 1.429 . S
C1274 H1298 0.950 . S
C1275 C1292 1.574 . S
C1275 C1294 1.368 . S
C1275 H1299 0.949 . S
H1276 C1280 0.949 . S
C1277 C1278 1.349 . S
C1277 C1279 1.327 . S
C1277 H1300 0.950 . S
C1278 C1277 1.349 . S
C1278 C1290 1.349 . S
C1279 C1277 1.327 . S
C1279 C1295 1.429 . S
C1279 H1301 0.950 . S
C1280 H1276 0.949 . S
C1280 C1288 1.574 . S
C1280 C1296 1.368 . S
H1281 C1289 0.950 . S
H1282 C1287 0.950 . S
H1283 C1288 0.949 . S
H1284 C1290 0.950 . S
H1285 C1291 0.950 . S
H1286 C1292 0.949 . S
C1287 H1282 0.950 . S
C1287 C1289 1.327 . S
C1287 C1293 1.429 . S
C1288 C1280 1.574 . S
C1288 H1283 0.949 . S
C1288 C1294 1.368 . S
C1289 C1273 1.349 . S
C1289 H1281 0.950 . S
C1289 C1287 1.327 . S
C1290 C1278 1.349 . S
C1290 H1284 0.950 . S
C1290 C1291 1.327 . S
C1291 H1285 0.950 . S
C1291 C1290 1.327 . S
C1291 C1295 1.429 . S
C1292 C1275 1.574 . S
C1292 H1286 0.949 . S
C1292 C1296 1.368 . S
C1293 C1274 1.429 . S
C1293 C1287 1.429 . S
C1293 C1294 1.523 . S
C1294 C1275 1.368 . S
C1294 C1288 1.368 . S
C1294 C1293 1.523 . S
C1295 C1279 1.429 . S
C1295 C1291 1.429 . S
C1295 C1296 1.523 . S
C1296 C1280 1.368 . S
C1296 C1292 1.368 . S
C1296 C1295 1.523 . S
H1297 C1272 0.950 . S
H1298 C1274 0.950 . S
H1299 C1275 0.949 . S
H1300 C1277 0.950 . S
H1301 C1279 0.950 . S
C1302 C1303 1.349 . S
C1302 C1304 1.327 . S
C1302 H1327 0.950 . S
C1303 C1302 1.349 . S
C1303 C1319 1.349 . S
C1304 C1302 1.327 . S
C1304 C1323 1.429 . S
C1304 H1328 0.950 . S
C1305 C1322 1.574 . S
C1305 C1324 1.368 . S
C1305 H1329 0.949 . S
H1306 C1310 0.949 . S
C1307 C1308 1.349 . S
C1307 C1309 1.327 . S
C1307 H1330 0.950 . S
C1308 C1307 1.349 . S
C1308 C1320 1.349 . S
C1309 C1307 1.327 . S
C1309 C1325 1.429 . S
C1309 H1331 0.950 . S
C1310 H1306 0.949 . S
C1310 C1318 1.574 . S
C1310 C1326 1.368 . S
H1311 C1319 0.950 . S
H1312 C1317 0.950 . S
H1313 C1318 0.949 . S
H1314 C1320 0.950 . S
H1315 C1321 0.950 . S
H1316 C1322 0.949 . S
C1317 H1312 0.950 . S
C1317 C1319 1.327 . S
C1317 C1323 1.429 . S
C1318 C1310 1.574 . S
C1318 H1313 0.949 . S
C1318 C1324 1.368 . S
C1319 C1303 1.349 . S
C1319 H1311 0.950 . S
C1319 C1317 1.327 . S
C1320 C1308 1.349 . S
C1320 H1314 0.950 . S
C1320 C1321 1.327 . S
C1321 H1315 0.950 . S
C1321 C1320 1.327 . S
C1321 C1325 1.429 . S
C1322 C1305 1.574 . S
C1322 H1316 0.949 . S
C1322 C1326 1.368 . S
C1323 C1304 1.429 . S
C1323 C1317 1.429 . S
C1323 C1324 1.523 . S
C1324 C1305 1.368 . S
C1324 C1318 1.368 . S
C1324 C1323 1.523 . S
C1325 C1309 1.429 . S
C1325 C1321 1.429 . S
C1325 C1326 1.523 . S
C1326 C1310 1.368 . S
C1326 C1322 1.368 . S
C1326 C1325 1.523 . S
H1327 C1302 0.950 . S
H1328 C1304 0.950 . S
H1329 C1305 0.949 . S
H1330 C1307 0.950 . S
H1331 C1309 0.950 . S
C1332 C1333 1.349 . S
C1332 C1334 1.327 . S
C1332 H1357 0.950 . S
C1333 C1332 1.349 . S
C1333 C1349 1.349 . S
C1334 C1332 1.327 . S
C1334 C1353 1.429 . S
C1334 H1358 0.950 . S
C1335 C1352 1.574 . S
C1335 C1354 1.368 . S
C1335 H1359 0.949 . S
H1336 C1340 0.949 . S
C1337 C1338 1.349 . S
C1337 C1339 1.327 . S
C1337 H1360 0.950 . S
C1338 C1337 1.349 . S
C1338 C1350 1.349 . S
C1339 C1337 1.327 . S
C1339 C1355 1.429 . S
C1339 H1361 0.950 . S
C1340 H1336 0.949 . S
C1340 C1348 1.574 . S
C1340 C1356 1.368 . S
H1341 C1349 0.950 . S
H1342 C1347 0.950 . S
H1343 C1348 0.949 . S
H1344 C1350 0.950 . S
H1345 C1351 0.950 . S
H1346 C1352 0.949 . S
C1347 H1342 0.950 . S
C1347 C1349 1.327 . S
C1347 C1353 1.429 . S
C1348 C1340 1.574 . S
C1348 H1343 0.949 . S
C1348 C1354 1.368 . S
C1349 C1333 1.349 . S
C1349 H1341 0.950 . S
C1349 C1347 1.327 . S
C1350 C1338 1.349 . S
C1350 H1344 0.950 . S
C1350 C1351 1.327 . S
C1351 H1345 0.950 . S
C1351 C1350 1.327 . S
C1351 C1355 1.429 . S
C1352 C1335 1.574 . S
C1352 H1346 0.949 . S
C1352 C1356 1.368 . S
C1353 C1334 1.429 . S
C1353 C1347 1.429 . S
C1353 C1354 1.523 . S
C1354 C1335 1.368 . S
C1354 C1348 1.368 . S
C1354 C1353 1.523 . S
C1355 C1339 1.429 . S
C1355 C1351 1.429 . S
C1355 C1356 1.523 . S
C1356 C1340 1.368 . S
C1356 C1352 1.368 . S
C1356 C1355 1.523 . S
H1357 C1332 0.950 . S
H1358 C1334 0.950 . S
H1359 C1335 0.949 . S
H1360 C1337 0.950 . S
H1361 C1339 0.950 . S
C1362 C1363 1.349 . S
C1362 C1364 1.327 . S
C1362 H1387 0.950 . S
C1363 C1362 1.349 . S
C1363 C1379 1.349 . S
C1364 C1362 1.327 . S
C1364 C1383 1.429 . S
C1364 H1388 0.950 . S
C1365 C1382 1.574 . S
C1365 C1384 1.368 . S
C1365 H1389 0.949 . S
H1366 C1370 0.949 . S
C1367 C1368 1.349 . S
C1367 C1369 1.327 . S
C1367 H1390 0.950 . S
C1368 C1367 1.349 . S
C1368 C1380 1.349 . S
C1369 C1367 1.327 . S
C1369 C1385 1.429 . S
C1369 H1391 0.950 . S
C1370 H1366 0.949 . S
C1370 C1378 1.574 . S
C1370 C1386 1.368 . S
H1371 C1379 0.950 . S
H1372 C1377 0.950 . S
H1373 C1378 0.949 . S
H1374 C1380 0.950 . S
H1375 C1381 0.950 . S
H1376 C1382 0.949 . S
C1377 H1372 0.950 . S
C1377 C1379 1.327 . S
C1377 C1383 1.429 . S
C1378 C1370 1.574 . S
C1378 H1373 0.949 . S
C1378 C1384 1.368 . S
C1379 C1363 1.349 . S
C1379 H1371 0.950 . S
C1379 C1377 1.327 . S
C1380 C1368 1.349 . S
C1380 H1374 0.950 . S
C1380 C1381 1.327 . S
C1381 H1375 0.950 . S
C1381 C1380 1.327 . S
C1381 C1385 1.429 . S
C1382 C1365 1.574 . S
C1382 H1376 0.949 . S
C1382 C1386 1.368 . S
C1383 C1364 1.429 . S
C1383 C1377 1.429 . S
C1383 C1384 1.523 . S
C1384 C1365 1.368 . S
C1384 C1378 1.368 . S
C1384 C1383 1.523 . S
C1385 C1369 1.429 . S
C1385 C1381 1.429 . S
C1385 C1386 1.523 . S
C1386 C1370 1.368 . S
C1386 C1382 1.368 . S
C1386 C1385 1.523 . S
H1387 C1362 0.950 . S
H1388 C1364 0.950 . S
H1389 C1365 0.949 . S
H1390 C1367 0.950 . S
H1391 C1369 0.950 . S
C1392 C1393 1.349 . S
C1392 C1394 1.327 . S
C1392 H1417 0.950 . S
C1393 C1392 1.349 . S
C1393 C1409 1.349 . S
C1394 C1392 1.327 . S
C1394 C1413 1.429 . S
C1394 H1418 0.950 . S
C1395 C1412 1.574 . S
C1395 C1414 1.368 . S
C1395 H1419 0.949 . S
H1396 C1400 0.949 . S
C1397 C1398 1.349 . S
C1397 C1399 1.327 . S
C1397 H1420 0.950 . S
C1398 C1397 1.349 . S
C1398 C1410 1.349 . S
C1399 C1397 1.327 . S
C1399 C1415 1.429 . S
C1399 H1421 0.950 . S
C1400 H1396 0.949 . S
C1400 C1408 1.574 . S
C1400 C1416 1.368 . S
H1401 C1409 0.950 . S
H1402 C1407 0.950 . S
H1403 C1408 0.949 . S
H1404 C1410 0.950 . S
H1405 C1411 0.950 . S
H1406 C1412 0.949 . S
C1407 H1402 0.950 . S
C1407 C1409 1.327 . S
C1407 C1413 1.429 . S
C1408 C1400 1.574 . S
C1408 H1403 0.949 . S
C1408 C1414 1.368 . S
C1409 C1393 1.349 . S
C1409 H1401 0.950 . S
C1409 C1407 1.327 . S
C1410 C1398 1.349 . S
C1410 H1404 0.950 . S
C1410 C1411 1.327 . S
C1411 H1405 0.950 . S
C1411 C1410 1.327 . S
C1411 C1415 1.429 . S
C1412 C1395 1.574 . S
C1412 H1406 0.949 . S
C1412 C1416 1.368 . S
C1413 C1394 1.429 . S
C1413 C1407 1.429 . S
C1413 C1414 1.523 . S
C1414 C1395 1.368 . S
C1414 C1408 1.368 . S
C1414 C1413 1.523 . S
C1415 C1399 1.429 . S
C1415 C1411 1.429 . S
C1415 C1416 1.523 . S
C1416 C1400 1.368 . S
C1416 C1412 1.368 . S
C1416 C1415 1.523 . S
H1417 C1392 0.950 . S
H1418 C1394 0.950 . S
H1419 C1395 0.949 . S
H1420 C1397 0.950 . S
H1421 C1399 0.950 . S
C1422 C1423 1.349 . S
C1422 C1424 1.327 . S
C1422 H1447 0.950 . S
C1423 C1422 1.349 . S
C1423 C1439 1.349 . S
C1424 C1422 1.327 . S
C1424 C1443 1.429 . S
C1424 H1448 0.950 . S
C1425 C1442 1.574 1_556 S
C1425 C1444 1.368 . S
C1425 H1449 0.949 . S
H1426 C1430 0.949 . S
C1427 C1428 1.349 . S
C1427 C1429 1.327 . S
C1427 H1450 0.950 . S
C1428 C1427 1.349 . S
C1428 C1440 1.349 . S
C1429 C1427 1.327 . S
C1429 C1445 1.429 . S
C1429 H1451 0.950 . S
C1430 H1426 0.949 . S
C1430 C1438 1.574 1_554 S
C1430 C1446 1.368 . S
H1431 C1439 0.950 . S
H1432 C1437 0.950 . S
H1433 C1438 0.949 . S
H1434 C1440 0.950 . S
H1435 C1441 0.950 . S
H1436 C1442 0.949 . S
C1437 H1432 0.950 . S
C1437 C1439 1.327 . S
C1437 C1443 1.429 . S
C1438 C1430 1.574 1_556 S
C1438 H1433 0.949 . S
C1438 C1444 1.368 . S
C1439 C1423 1.349 . S
C1439 H1431 0.950 . S
C1439 C1437 1.327 . S
C1440 C1428 1.349 . S
C1440 H1434 0.950 . S
C1440 C1441 1.327 . S
C1441 H1435 0.950 . S
C1441 C1440 1.327 . S
C1441 C1445 1.429 . S
C1442 C1425 1.574 1_554 S
C1442 H1436 0.949 . S
C1442 C1446 1.368 . S
C1443 C1424 1.429 . S
C1443 C1437 1.429 . S
C1443 C1444 1.523 . S
C1444 C1425 1.368 . S
C1444 C1438 1.368 . S
C1444 C1443 1.523 . S
C1445 C1429 1.429 . S
C1445 C1441 1.429 . S
C1445 C1446 1.523 . S
C1446 C1430 1.368 . S
C1446 C1442 1.368 . S
C1446 C1445 1.523 . S
H1447 C1422 0.950 . S
H1448 C1424 0.950 . S
H1449 C1425 0.949 . S
H1450 C1427 0.950 . S
H1451 C1429 0.950 . S
C1452 C1453 1.349 . S
C1452 C1454 1.327 . S
C1452 H1477 0.950 . S
C1453 C1452 1.349 . S
C1453 C1469 1.349 . S
C1454 C1452 1.327 . S
C1454 C1473 1.429 . S
C1454 H1478 0.950 . S
C1455 C1472 1.574 . S
C1455 C1474 1.368 . S
C1455 H1479 0.949 . S
H1456 C1460 0.949 . S
C1457 C1458 1.349 . S
C1457 C1459 1.327 . S
C1457 H1480 0.950 . S
C1458 C1457 1.349 . S
C1458 C1470 1.349 . S
C1459 C1457 1.327 . S
C1459 C1475 1.429 . S
C1459 H1481 0.950 . S
C1460 H1456 0.949 . S
C1460 C1468 1.574 . S
C1460 C1476 1.368 . S
H1461 C1469 0.950 . S
H1462 C1467 0.950 . S
H1463 C1468 0.949 . S
H1464 C1470 0.950 . S
H1465 C1471 0.950 . S
H1466 C1472 0.949 . S
C1467 H1462 0.950 . S
C1467 C1469 1.327 . S
C1467 C1473 1.429 . S
C1468 C1460 1.574 . S
C1468 H1463 0.949 . S
C1468 C1474 1.368 . S
C1469 C1453 1.349 . S
C1469 H1461 0.950 . S
C1469 C1467 1.327 . S
C1470 C1458 1.349 . S
C1470 H1464 0.950 . S
C1470 C1471 1.327 . S
C1471 H1465 0.950 . S
C1471 C1470 1.327 . S
C1471 C1475 1.429 . S
C1472 C1455 1.574 . S
C1472 H1466 0.949 . S
C1472 C1476 1.368 . S
C1473 C1454 1.429 . S
C1473 C1467 1.429 . S
C1473 C1474 1.523 . S
C1474 C1455 1.368 . S
C1474 C1468 1.368 . S
C1474 C1473 1.523 . S
C1475 C1459 1.429 . S
C1475 C1471 1.429 . S
C1475 C1476 1.523 . S
C1476 C1460 1.368 . S
C1476 C1472 1.368 . S
C1476 C1475 1.523 . S
H1477 C1452 0.950 . S
H1478 C1454 0.950 . S
H1479 C1455 0.949 . S
H1480 C1457 0.950 . S
H1481 C1459 0.950 . S
C1482 C1483 1.349 . S
C1482 C1484 1.327 . S
C1482 H1507 0.950 . S
C1483 C1482 1.349 . S
C1483 C1499 1.349 . S
C1484 C1482 1.327 . S
C1484 C1503 1.429 . S
C1484 H1508 0.950 . S
C1485 C1502 1.574 1_556 S
C1485 C1504 1.368 . S
C1485 H1509 0.949 . S
H1486 C1490 0.949 . S
C1487 C1488 1.349 . S
C1487 C1489 1.327 . S
C1487 H1510 0.950 . S
C1488 C1487 1.349 . S
C1488 C1500 1.349 . S
C1489 C1487 1.327 . S
C1489 C1505 1.429 . S
C1489 H1511 0.950 . S
C1490 H1486 0.949 . S
C1490 C1498 1.574 1_554 S
C1490 C1506 1.368 . S
H1491 C1499 0.950 . S
H1492 C1497 0.950 . S
H1493 C1498 0.949 . S
H1494 C1500 0.950 . S
H1495 C1501 0.950 . S
H1496 C1502 0.949 . S
C1497 H1492 0.950 . S
C1497 C1499 1.327 . S
C1497 C1503 1.429 . S
C1498 C1490 1.574 1_556 S
C1498 H1493 0.949 . S
C1498 C1504 1.368 . S
C1499 C1483 1.349 . S
C1499 H1491 0.950 . S
C1499 C1497 1.327 . S
C1500 C1488 1.349 . S
C1500 H1494 0.950 . S
C1500 C1501 1.327 . S
C1501 H1495 0.950 . S
C1501 C1500 1.327 . S
C1501 C1505 1.429 . S
C1502 C1485 1.574 1_554 S
C1502 H1496 0.949 . S
C1502 C1506 1.368 . S
C1503 C1484 1.429 . S
C1503 C1497 1.429 . S
C1503 C1504 1.523 . S
C1504 C1485 1.368 . S
C1504 C1498 1.368 . S
C1504 C1503 1.523 . S
C1505 C1489 1.429 . S
C1505 C1501 1.429 . S
C1505 C1506 1.523 . S
C1506 C1490 1.368 . S
C1506 C1502 1.368 . S
C1506 C1505 1.523 . S
H1507 C1482 0.950 . S
H1508 C1484 0.950 . S
H1509 C1485 0.949 . S
H1510 C1487 0.950 . S
H1511 C1489 0.950 . S
C1512 C1513 1.349 . S
C1512 C1514 1.327 . S
C1512 H1537 0.950 . S
C1513 C1512 1.349 . S
C1513 C1529 1.349 . S
C1514 C1512 1.327 . S
C1514 C1533 1.429 . S
C1514 H1538 0.950 . S
C1515 C1532 1.574 . S
C1515 C1534 1.368 . S
C1515 H1539 0.949 . S
H1516 C1520 0.949 . S
C1517 C1518 1.349 . S
C1517 C1519 1.327 . S
C1517 H1540 0.950 . S
C1518 C1517 1.349 . S
C1518 C1530 1.349 . S
C1519 C1517 1.327 . S
C1519 C1535 1.429 . S
C1519 H1541 0.950 . S
C1520 H1516 0.949 . S
C1520 C1528 1.574 . S
C1520 C1536 1.368 . S
H1521 C1529 0.950 . S
H1522 C1527 0.950 . S
H1523 C1528 0.949 . S
H1524 C1530 0.950 . S
H1525 C1531 0.950 . S
H1526 C1532 0.949 . S
C1527 H1522 0.950 . S
C1527 C1529 1.327 . S
C1527 C1533 1.429 . S
C1528 C1520 1.574 . S
C1528 H1523 0.949 . S
C1528 C1534 1.368 . S
C1529 C1513 1.349 . S
C1529 H1521 0.950 . S
C1529 C1527 1.327 . S
C1530 C1518 1.349 . S
C1530 H1524 0.950 . S
C1530 C1531 1.327 . S
C1531 H1525 0.950 . S
C1531 C1530 1.327 . S
C1531 C1535 1.429 . S
C1532 C1515 1.574 . S
C1532 H1526 0.949 . S
C1532 C1536 1.368 . S
C1533 C1514 1.429 . S
C1533 C1527 1.429 . S
C1533 C1534 1.523 . S
C1534 C1515 1.368 . S
C1534 C1528 1.368 . S
C1534 C1533 1.523 . S
C1535 C1519 1.429 . S
C1535 C1531 1.429 . S
C1535 C1536 1.523 . S
C1536 C1520 1.368 . S
C1536 C1532 1.368 . S
C1536 C1535 1.523 . S
H1537 C1512 0.950 . S
H1538 C1514 0.950 . S
H1539 C1515 0.949 . S
H1540 C1517 0.950 . S
H1541 C1519 0.950 . S
C1542 C1543 1.349 . S
C1542 C1544 1.327 . S
C1542 H1567 0.950 . S
C1543 C1542 1.349 . S
C1543 C1559 1.349 . S
C1544 C1542 1.327 . S
C1544 C1563 1.429 . S
C1544 H1568 0.950 . S
C1545 C1562 1.574 1_556 S
C1545 C1564 1.368 . S
C1545 H1569 0.949 . S
H1546 C1550 0.949 . S
C1547 C1548 1.349 . S
C1547 C1549 1.327 . S
C1547 H1570 0.950 . S
C1548 C1547 1.349 . S
C1548 C1560 1.349 . S
C1549 C1547 1.327 . S
C1549 C1565 1.429 . S
C1549 H1571 0.950 . S
C1550 H1546 0.949 . S
C1550 C1558 1.574 1_554 S
C1550 C1566 1.368 . S
H1551 C1559 0.950 . S
H1552 C1557 0.950 . S
H1553 C1558 0.949 . S
H1554 C1560 0.950 . S
H1555 C1561 0.950 . S
H1556 C1562 0.949 . S
C1557 H1552 0.950 . S
C1557 C1559 1.327 . S
C1557 C1563 1.429 . S
C1558 C1550 1.574 1_556 S
C1558 H1553 0.949 . S
C1558 C1564 1.368 . S
C1559 C1543 1.349 . S
C1559 H1551 0.950 . S
C1559 C1557 1.327 . S
C1560 C1548 1.349 . S
C1560 H1554 0.950 . S
C1560 C1561 1.327 . S
C1561 H1555 0.950 . S
C1561 C1560 1.327 . S
C1561 C1565 1.429 . S
C1562 C1545 1.574 1_554 S
C1562 H1556 0.949 . S
C1562 C1566 1.368 . S
C1563 C1544 1.429 . S
C1563 C1557 1.429 . S
C1563 C1564 1.523 . S
C1564 C1545 1.368 . S
C1564 C1558 1.368 . S
C1564 C1563 1.523 . S
C1565 C1549 1.429 . S
C1565 C1561 1.429 . S
C1565 C1566 1.523 . S
C1566 C1550 1.368 . S
C1566 C1562 1.368 . S
C1566 C1565 1.523 . S
H1567 C1542 0.950 . S
H1568 C1544 0.950 . S
H1569 C1545 0.949 . S
H1570 C1547 0.950 . S
H1571 C1549 0.950 . S
C1572 C1573 1.349 . S
C1572 C1574 1.327 . S
C1572 H1597 0.950 . S
C1573 C1572 1.349 . S
C1573 C1589 1.349 . S
C1574 C1572 1.327 . S
C1574 C1593 1.429 . S
C1574 H1598 0.950 . S
C1575 C1592 1.574 . S
C1575 C1594 1.368 . S
C1575 H1599 0.949 . S
H1576 C1580 0.949 . S
C1577 C1578 1.349 . S
C1577 C1579 1.327 . S
C1577 H1600 0.950 . S
C1578 C1577 1.349 . S
C1578 C1590 1.349 . S
C1579 C1577 1.327 . S
C1579 C1595 1.429 . S
C1579 H1601 0.950 . S
C1580 H1576 0.949 . S
C1580 C1588 1.574 . S
C1580 C1596 1.368 . S
H1581 C1589 0.950 . S
H1582 C1587 0.950 . S
H1583 C1588 0.949 . S
H1584 C1590 0.950 . S
H1585 C1591 0.950 . S
H1586 C1592 0.949 . S
C1587 H1582 0.950 . S
C1587 C1589 1.327 . S
C1587 C1593 1.429 . S
C1588 C1580 1.574 . S
C1588 H1583 0.949 . S
C1588 C1594 1.368 . S
C1589 C1573 1.349 . S
C1589 H1581 0.950 . S
C1589 C1587 1.327 . S
C1590 C1578 1.349 . S
C1590 H1584 0.950 . S
C1590 C1591 1.327 . S
C1591 H1585 0.950 . S
C1591 C1590 1.327 . S
C1591 C1595 1.429 . S
C1592 C1575 1.574 . S
C1592 H1586 0.949 . S
C1592 C1596 1.368 . S
C1593 C1574 1.429 . S
C1593 C1587 1.429 . S
C1593 C1594 1.523 . S
C1594 C1575 1.368 . S
C1594 C1588 1.368 . S
C1594 C1593 1.523 . S
C1595 C1579 1.429 . S
C1595 C1591 1.429 . S
C1595 C1596 1.523 . S
C1596 C1580 1.368 . S
C1596 C1592 1.368 . S
C1596 C1595 1.523 . S
H1597 C1572 0.950 . S
H1598 C1574 0.950 . S
H1599 C1575 0.949 . S
H1600 C1577 0.950 . S
H1601 C1579 0.950 . S
C1602 C1603 1.349 . S
C1602 C1604 1.327 . S
C1602 H1627 0.950 . S
C1603 C1602 1.349 . S
C1603 C1619 1.349 . S
C1604 C1602 1.327 . S
C1604 C1623 1.429 . S
C1604 H1628 0.950 . S
C1605 C1622 1.574 1_556 S
C1605 C1624 1.368 . S
C1605 H1629 0.949 . S
H1606 C1610 0.949 . S
C1607 C1608 1.349 . S
C1607 C1609 1.327 . S
C1607 H1630 0.950 . S
C1608 C1607 1.349 . S
C1608 C1620 1.349 . S
C1609 C1607 1.327 . S
C1609 C1625 1.429 . S
C1609 H1631 0.950 . S
C1610 H1606 0.949 . S
C1610 C1618 1.574 1_554 S
C1610 C1626 1.368 . S
H1611 C1619 0.950 . S
H1612 C1617 0.950 . S
H1613 C1618 0.949 . S
H1614 C1620 0.950 . S
H1615 C1621 0.950 . S
H1616 C1622 0.949 . S
C1617 H1612 0.950 . S
C1617 C1619 1.327 . S
C1617 C1623 1.429 . S
C1618 C1610 1.574 1_556 S
C1618 H1613 0.949 . S
C1618 C1624 1.368 . S
C1619 C1603 1.349 . S
C1619 H1611 0.950 . S
C1619 C1617 1.327 . S
C1620 C1608 1.349 . S
C1620 H1614 0.950 . S
C1620 C1621 1.327 . S
C1621 H1615 0.950 . S
C1621 C1620 1.327 . S
C1621 C1625 1.429 . S
C1622 C1605 1.574 1_554 S
C1622 H1616 0.949 . S
C1622 C1626 1.368 . S
C1623 C1604 1.429 . S
C1623 C1617 1.429 . S
C1623 C1624 1.523 . S
C1624 C1605 1.368 . S
C1624 C1618 1.368 . S
C1624 C1623 1.523 . S
C1625 C1609 1.429 . S
C1625 C1621 1.429 . S
C1625 C1626 1.523 . S
C1626 C1610 1.368 . S
C1626 C1622 1.368 . S
C1626 C1625 1.523 . S
H1627 C1602 0.950 . S
H1628 C1604 0.950 . S
H1629 C1605 0.949 . S
H1630 C1607 0.950 . S
H1631 C1609 0.950 . S
C1632 C1633 1.349 . S
C1632 C1634 1.327 . S
C1632 H1657 0.950 . S
C1633 C1632 1.349 . S
C1633 C1649 1.349 . S
C1634 C1632 1.327 . S
C1634 C1653 1.429 . S
C1634 H1658 0.950 . S
C1635 C1652 1.574 . S
C1635 C1654 1.368 . S
C1635 H1659 0.949 . S
H1636 C1640 0.949 . S
C1637 C1638 1.349 . S
C1637 C1639 1.327 . S
C1637 H1660 0.950 . S
C1638 C1637 1.349 . S
C1638 C1650 1.349 . S
C1639 C1637 1.327 . S
C1639 C1655 1.429 . S
C1639 H1661 0.950 . S
C1640 H1636 0.949 . S
C1640 C1648 1.574 . S
C1640 C1656 1.368 . S
H1641 C1649 0.950 . S
H1642 C1647 0.950 . S
H1643 C1648 0.949 . S
H1644 C1650 0.950 . S
H1645 C1651 0.950 . S
H1646 C1652 0.949 . S
C1647 H1642 0.950 . S
C1647 C1649 1.327 . S
C1647 C1653 1.429 . S
C1648 C1640 1.574 . S
C1648 H1643 0.949 . S
C1648 C1654 1.368 . S
C1649 C1633 1.349 . S
C1649 H1641 0.950 . S
C1649 C1647 1.327 . S
C1650 C1638 1.349 . S
C1650 H1644 0.950 . S
C1650 C1651 1.327 . S
C1651 H1645 0.950 . S
C1651 C1650 1.327 . S
C1651 C1655 1.429 . S
C1652 C1635 1.574 . S
C1652 H1646 0.949 . S
C1652 C1656 1.368 . S
C1653 C1634 1.429 . S
C1653 C1647 1.429 . S
C1653 C1654 1.523 . S
C1654 C1635 1.368 . S
C1654 C1648 1.368 . S
C1654 C1653 1.523 . S
C1655 C1639 1.429 . S
C1655 C1651 1.429 . S
C1655 C1656 1.523 . S
C1656 C1640 1.368 . S
C1656 C1652 1.368 . S
C1656 C1655 1.523 . S
H1657 C1632 0.950 . S
H1658 C1634 0.950 . S
H1659 C1635 0.949 . S
H1660 C1637 0.950 . S
H1661 C1639 0.950 . S
C1662 C1663 1.349 . S
C1662 C1664 1.327 . S
C1662 H1687 0.950 . S
C1663 C1662 1.349 . S
C1663 C1679 1.349 . S
C1664 C1662 1.327 . S
C1664 C1683 1.429 . S
C1664 H1688 0.950 . S
C1665 C1682 1.574 1_565 S
C1665 C1684 1.368 . S
C1665 H1689 0.949 . S
H1666 C1670 0.949 . S
C1667 C1668 1.349 . S
C1667 C1669 1.327 . S
C1667 H1690 0.950 . S
C1668 C1667 1.349 . S
C1668 C1680 1.349 . S
C1669 C1667 1.327 . S
C1669 C1685 1.429 . S
C1669 H1691 0.950 . S
C1670 H1666 0.949 . S
C1670 C1678 1.574 1_545 S
C1670 C1686 1.368 . S
H1671 C1679 0.950 . S
H1672 C1677 0.950 . S
H1673 C1678 0.949 . S
H1674 C1680 0.950 . S
H1675 C1681 0.950 . S
H1676 C1682 0.949 . S
C1677 H1672 0.950 . S
C1677 C1679 1.327 . S
C1677 C1683 1.429 . S
C1678 C1670 1.574 1_565 S
C1678 H1673 0.949 . S
C1678 C1684 1.368 . S
C1679 C1663 1.349 . S
C1679 H1671 0.950 . S
C1679 C1677 1.327 . S
C1680 C1668 1.349 . S
C1680 H1674 0.950 . S
C1680 C1681 1.327 . S
C1681 H1675 0.950 . S
C1681 C1680 1.327 . S
C1681 C1685 1.429 . S
C1682 C1665 1.574 1_545 S
C1682 H1676 0.949 . S
C1682 C1686 1.368 . S
C1683 C1664 1.429 . S
C1683 C1677 1.429 . S
C1683 C1684 1.523 . S
C1684 C1665 1.368 . S
C1684 C1678 1.368 . S
C1684 C1683 1.523 . S
C1685 C1669 1.429 . S
C1685 C1681 1.429 . S
C1685 C1686 1.523 . S
C1686 C1670 1.368 . S
C1686 C1682 1.368 . S
C1686 C1685 1.523 . S
H1687 C1662 0.950 . S
H1688 C1664 0.950 . S
H1689 C1665 0.949 . S
H1690 C1667 0.950 . S
H1691 C1669 0.950 . S
C1692 C1693 1.349 . S
C1692 C1694 1.327 . S
C1692 H1717 0.950 . S
C1693 C1692 1.349 . S
C1693 C1709 1.349 . S
C1694 C1692 1.327 . S
C1694 C1713 1.429 . S
C1694 H1718 0.950 . S
C1695 C1712 1.574 . S
C1695 C1714 1.368 . S
C1695 H1719 0.949 . S
H1696 C1700 0.949 . S
C1697 C1698 1.349 . S
C1697 C1699 1.327 . S
C1697 H1720 0.950 . S
C1698 C1697 1.349 . S
C1698 C1710 1.349 . S
C1699 C1697 1.327 . S
C1699 C1715 1.429 . S
C1699 H1721 0.950 . S
C1700 H1696 0.949 . S
C1700 C1708 1.574 . S
C1700 C1716 1.368 . S
H1701 C1709 0.950 . S
H1702 C1707 0.950 . S
H1703 C1708 0.949 . S
H1704 C1710 0.950 . S
H1705 C1711 0.950 . S
H1706 C1712 0.949 . S
C1707 H1702 0.950 . S
C1707 C1709 1.327 . S
C1707 C1713 1.429 . S
C1708 C1700 1.574 . S
C1708 H1703 0.949 . S
C1708 C1714 1.368 . S
C1709 C1693 1.349 . S
C1709 H1701 0.950 . S
C1709 C1707 1.327 . S
C1710 C1698 1.349 . S
C1710 H1704 0.950 . S
C1710 C1711 1.327 . S
C1711 H1705 0.950 . S
C1711 C1710 1.327 . S
C1711 C1715 1.429 . S
C1712 C1695 1.574 . S
C1712 H1706 0.949 . S
C1712 C1716 1.368 . S
C1713 C1694 1.429 . S
C1713 C1707 1.429 . S
C1713 C1714 1.523 . S
C1714 C1695 1.368 . S
C1714 C1708 1.368 . S
C1714 C1713 1.523 . S
C1715 C1699 1.429 . S
C1715 C1711 1.429 . S
C1715 C1716 1.523 . S
C1716 C1700 1.368 . S
C1716 C1712 1.368 . S
C1716 C1715 1.523 . S
H1717 C1692 0.950 . S
H1718 C1694 0.950 . S
H1719 C1695 0.949 . S
H1720 C1697 0.950 . S
H1721 C1699 0.950 . S
C1722 C1723 1.349 . S
C1722 C1724 1.327 . S
C1722 H1747 0.950 . S
C1723 C1722 1.349 . S
C1723 C1739 1.349 . S
C1724 C1722 1.327 . S
C1724 C1743 1.429 . S
C1724 H1748 0.950 . S
C1725 C1742 1.574 1_545 S
C1725 C1744 1.368 . S
C1725 H1749 0.949 . S
H1726 C1730 0.949 . S
C1727 C1728 1.349 . S
C1727 C1729 1.327 . S
C1727 H1750 0.950 . S
C1728 C1727 1.349 . S
C1728 C1740 1.349 . S
C1729 C1727 1.327 . S
C1729 C1745 1.429 . S
C1729 H1751 0.950 . S
C1730 H1726 0.949 . S
C1730 C1738 1.574 1_565 S
C1730 C1746 1.368 . S
H1731 C1739 0.950 . S
H1732 C1737 0.950 . S
H1733 C1738 0.949 . S
H1734 C1740 0.950 . S
H1735 C1741 0.950 . S
H1736 C1742 0.949 . S
C1737 H1732 0.950 . S
C1737 C1739 1.327 . S
C1737 C1743 1.429 . S
C1738 C1730 1.574 1_545 S
C1738 H1733 0.949 . S
C1738 C1744 1.368 . S
C1739 C1723 1.349 . S
C1739 H1731 0.950 . S
C1739 C1737 1.327 . S
C1740 C1728 1.349 . S
C1740 H1734 0.950 . S
C1740 C1741 1.327 . S
C1741 H1735 0.950 . S
C1741 C1740 1.327 . S
C1741 C1745 1.429 . S
C1742 C1725 1.574 1_565 S
C1742 H1736 0.949 . S
C1742 C1746 1.368 . S
C1743 C1724 1.429 . S
C1743 C1737 1.429 . S
C1743 C1744 1.523 . S
C1744 C1725 1.368 . S
C1744 C1738 1.368 . S
C1744 C1743 1.523 . S
C1745 C1729 1.429 . S
C1745 C1741 1.429 . S
C1745 C1746 1.523 . S
C1746 C1730 1.368 . S
C1746 C1742 1.368 . S
C1746 C1745 1.523 . S
H1747 C1722 0.950 . S
H1748 C1724 0.950 . S
H1749 C1725 0.949 . S
H1750 C1727 0.950 . S
H1751 C1729 0.950 . S
C1752 C1753 1.349 . S
C1752 C1754 1.327 . S
C1752 H1777 0.950 . S
C1753 C1752 1.349 . S
C1753 C1769 1.349 . S
C1754 C1752 1.327 . S
C1754 C1773 1.429 . S
C1754 H1778 0.950 . S
C1755 C1772 1.574 . S
C1755 C1774 1.368 . S
C1755 H1779 0.949 . S
H1756 C1760 0.949 . S
C1757 C1758 1.349 . S
C1757 C1759 1.327 . S
C1757 H1780 0.950 . S
C1758 C1757 1.349 . S
C1758 C1770 1.349 . S
C1759 C1757 1.327 . S
C1759 C1775 1.429 . S
C1759 H1781 0.950 . S
C1760 H1756 0.949 . S
C1760 C1768 1.574 . S
C1760 C1776 1.368 . S
H1761 C1769 0.950 . S
H1762 C1767 0.950 . S
H1763 C1768 0.949 . S
H1764 C1770 0.950 . S
H1765 C1771 0.950 . S
H1766 C1772 0.949 . S
C1767 H1762 0.950 . S
C1767 C1769 1.327 . S
C1767 C1773 1.429 . S
C1768 C1760 1.574 . S
C1768 H1763 0.949 . S
C1768 C1774 1.368 . S
C1769 C1753 1.349 . S
C1769 H1761 0.950 . S
C1769 C1767 1.327 . S
C1770 C1758 1.349 . S
C1770 H1764 0.950 . S
C1770 C1771 1.327 . S
C1771 H1765 0.950 . S
C1771 C1770 1.327 . S
C1771 C1775 1.429 . S
C1772 C1755 1.574 . S
C1772 H1766 0.949 . S
C1772 C1776 1.368 . S
C1773 C1754 1.429 . S
C1773 C1767 1.429 . S
C1773 C1774 1.523 . S
C1774 C1755 1.368 . S
C1774 C1768 1.368 . S
C1774 C1773 1.523 . S
C1775 C1759 1.429 . S
C1775 C1771 1.429 . S
C1775 C1776 1.523 . S
C1776 C1760 1.368 . S
C1776 C1772 1.368 . S
C1776 C1775 1.523 . S
H1777 C1752 0.950 . S
H1778 C1754 0.950 . S
H1779 C1755 0.949 . S
H1780 C1757 0.950 . S
H1781 C1759 0.950 . S
C1782 C1783 1.349 . S
C1782 C1784 1.327 . S
C1782 H1807 0.950 . S
C1783 C1782 1.349 . S
C1783 C1799 1.349 . S
C1784 C1782 1.327 . S
C1784 C1803 1.429 . S
C1784 H1808 0.950 . S
C1785 C1802 1.574 1_565 S
C1785 C1804 1.368 . S
C1785 H1809 0.949 . S
H1786 C1790 0.949 . S
C1787 C1788 1.349 . S
C1787 C1789 1.327 . S
C1787 H1810 0.950 . S
C1788 C1787 1.349 . S
C1788 C1800 1.349 . S
C1789 C1787 1.327 . S
C1789 C1805 1.429 . S
C1789 H1811 0.950 . S
C1790 H1786 0.949 . S
C1790 C1798 1.574 1_545 S
C1790 C1806 1.368 . S
H1791 C1799 0.950 . S
H1792 C1797 0.950 . S
H1793 C1798 0.949 . S
H1794 C1800 0.950 . S
H1795 C1801 0.950 . S
H1796 C1802 0.949 . S
C1797 H1792 0.950 . S
C1797 C1799 1.327 . S
C1797 C1803 1.429 . S
C1798 C1790 1.574 1_565 S
C1798 H1793 0.949 . S
C1798 C1804 1.368 . S
C1799 C1783 1.349 . S
C1799 H1791 0.950 . S
C1799 C1797 1.327 . S
C1800 C1788 1.349 . S
C1800 H1794 0.950 . S
C1800 C1801 1.327 . S
C1801 H1795 0.950 . S
C1801 C1800 1.327 . S
C1801 C1805 1.429 . S
C1802 C1785 1.574 1_545 S
C1802 H1796 0.949 . S
C1802 C1806 1.368 . S
C1803 C1784 1.429 . S
C1803 C1797 1.429 . S
C1803 C1804 1.523 . S
C1804 C1785 1.368 . S
C1804 C1798 1.368 . S
C1804 C1803 1.523 . S
C1805 C1789 1.429 . S
C1805 C1801 1.429 . S
C1805 C1806 1.523 . S
C1806 C1790 1.368 . S
C1806 C1802 1.368 . S
C1806 C1805 1.523 . S
H1807 C1782 0.950 . S
H1808 C1784 0.950 . S
H1809 C1785 0.949 . S
H1810 C1787 0.950 . S
H1811 C1789 0.950 . S
C1812 C1813 1.349 . S
C1812 C1814 1.327 . S
C1812 H1837 0.950 . S
C1813 C1812 1.349 . S
C1813 C1829 1.349 . S
C1814 C1812 1.327 . S
C1814 C1833 1.429 . S
C1814 H1838 0.950 . S
C1815 C1832 1.574 . S
C1815 C1834 1.368 . S
C1815 H1839 0.949 . S
H1816 C1820 0.949 . S
C1817 C1818 1.349 . S
C1817 C1819 1.327 . S
C1817 H1840 0.950 . S
C1818 C1817 1.349 . S
C1818 C1830 1.349 . S
C1819 C1817 1.327 . S
C1819 C1835 1.429 . S
C1819 H1841 0.950 . S
C1820 H1816 0.949 . S
C1820 C1828 1.574 . S
C1820 C1836 1.368 . S
H1821 C1829 0.950 . S
H1822 C1827 0.950 . S
H1823 C1828 0.949 . S
H1824 C1830 0.950 . S
H1825 C1831 0.950 . S
H1826 C1832 0.949 . S
C1827 H1822 0.950 . S
C1827 C1829 1.327 . S
C1827 C1833 1.429 . S
C1828 C1820 1.574 . S
C1828 H1823 0.949 . S
C1828 C1834 1.368 . S
C1829 C1813 1.349 . S
C1829 H1821 0.950 . S
C1829 C1827 1.327 . S
C1830 C1818 1.349 . S
C1830 H1824 0.950 . S
C1830 C1831 1.327 . S
C1831 H1825 0.950 . S
C1831 C1830 1.327 . S
C1831 C1835 1.429 . S
C1832 C1815 1.574 . S
C1832 H1826 0.949 . S
C1832 C1836 1.368 . S
C1833 C1814 1.429 . S
C1833 C1827 1.429 . S
C1833 C1834 1.523 . S
C1834 C1815 1.368 . S
C1834 C1828 1.368 . S
C1834 C1833 1.523 . S
C1835 C1819 1.429 . S
C1835 C1831 1.429 . S
C1835 C1836 1.523 . S
C1836 C1820 1.368 . S
C1836 C1832 1.368 . S
C1836 C1835 1.523 . S
H1837 C1812 0.950 . S
H1838 C1814 0.950 . S
H1839 C1815 0.949 . S
H1840 C1817 0.950 . S
H1841 C1819 0.950 . S
C1842 C1843 1.349 . S
C1842 C1844 1.327 . S
C1842 H1867 0.950 . S
C1843 C1842 1.349 . S
C1843 C1859 1.349 . S
C1844 C1842 1.327 . S
C1844 C1863 1.429 . S
C1844 H1868 0.950 . S
C1845 C1862 1.574 1_565 S
C1845 C1864 1.368 . S
C1845 H1869 0.949 . S
H1846 C1850 0.949 . S
C1847 C1848 1.349 . S
C1847 C1849 1.327 . S
C1847 H1870 0.950 . S
C1848 C1847 1.349 . S
C1848 C1860 1.349 . S
C1849 C1847 1.327 . S
C1849 C1865 1.429 . S
C1849 H1871 0.950 . S
C1850 H1846 0.949 . S
C1850 C1858 1.574 1_545 S
C1850 C1866 1.368 . S
H1851 C1859 0.950 . S
H1852 C1857 0.950 . S
H1853 C1858 0.949 . S
H1854 C1860 0.950 . S
H1855 C1861 0.950 . S
H1856 C1862 0.949 . S
C1857 H1852 0.950 . S
C1857 C1859 1.327 . S
C1857 C1863 1.429 . S
C1858 C1850 1.574 1_565 S
C1858 H1853 0.949 . S
C1858 C1864 1.368 . S
C1859 C1843 1.349 . S
C1859 H1851 0.950 . S
C1859 C1857 1.327 . S
C1860 C1848 1.349 . S
C1860 H1854 0.950 . S
C1860 C1861 1.327 . S
C1861 H1855 0.950 . S
C1861 C1860 1.327 . S
C1861 C1865 1.429 . S
C1862 C1845 1.574 1_545 S
C1862 H1856 0.949 . S
C1862 C1866 1.368 . S
C1863 C1844 1.429 . S
C1863 C1857 1.429 . S
C1863 C1864 1.523 . S
C1864 C1845 1.368 . S
C1864 C1858 1.368 . S
C1864 C1863 1.523 . S
C1865 C1849 1.429 . S
C1865 C1861 1.429 . S
C1865 C1866 1.523 . S
C1866 C1850 1.368 . S
C1866 C1862 1.368 . S
C1866 C1865 1.523 . S
H1867 C1842 0.950 . S
H1868 C1844 0.950 . S
H1869 C1845 0.949 . S
H1870 C1847 0.950 . S
H1871 C1849 0.950 . S
C1872 C1873 1.349 . S
C1872 C1874 1.327 . S
C1872 H1897 0.950 . S
C1873 C1872 1.349 . S
C1873 C1889 1.349 . S
C1874 C1872 1.327 . S
C1874 C1893 1.429 . S
C1874 H1898 0.950 . S
C1875 C1892 1.574 . S
C1875 C1894 1.368 . S
C1875 H1899 0.949 . S
H1876 C1880 0.949 . S
C1877 C1878 1.349 . S
C1877 C1879 1.327 . S
C1877 H1900 0.950 . S
C1878 C1877 1.349 . S
C1878 C1890 1.349 . S
C1879 C1877 1.327 . S
C1879 C1895 1.429 . S
C1879 H1901 0.950 . S
C1880 H1876 0.949 . S
C1880 C1888 1.574 . S
C1880 C1896 1.368 . S
H1881 C1889 0.950 . S
H1882 C1887 0.950 . S
H1883 C1888 0.949 . S
H1884 C1890 0.950 . S
H1885 C1891 0.950 . S
H1886 C1892 0.949 . S
C1887 H1882 0.950 . S
C1887 C1889 1.327 . S
C1887 C1893 1.429 . S
C1888 C1880 1.574 . S
C1888 H1883 0.949 . S
C1888 C1894 1.368 . S
C1889 C1873 1.349 . S
C1889 H1881 0.950 . S
C1889 C1887 1.327 . S
C1890 C1878 1.349 . S
C1890 H1884 0.950 . S
C1890 C1891 1.327 . S
C1891 H1885 0.950 . S
C1891 C1890 1.327 . S
C1891 C1895 1.429 . S
C1892 C1875 1.574 . S
C1892 H1886 0.949 . S
C1892 C1896 1.368 . S
C1893 C1874 1.429 . S
C1893 C1887 1.429 . S
C1893 C1894 1.523 . S
C1894 C1875 1.368 . S
C1894 C1888 1.368 . S
C1894 C1893 1.523 . S
C1895 C1879 1.429 . S
C1895 C1891 1.429 . S
C1895 C1896 1.523 . S
C1896 C1880 1.368 . S
C1896 C1892 1.368 . S
C1896 C1895 1.523 . S
H1897 C1872 0.950 . S
H1898 C1874 0.950 . S
H1899 C1875 0.949 . S
H1900 C1877 0.950 . S
H1901 C1879 0.950 . S
C1902 C1903 1.349 . S
C1902 C1904 1.327 . S
C1902 H1927 0.950 . S
C1903 C1902 1.349 . S
C1903 C1919 1.349 . S
C1904 C1902 1.327 . S
C1904 C1923 1.429 . S
C1904 H1928 0.950 . S
C1905 C1922 1.574 . S
C1905 C1924 1.368 . S
C1905 H1929 0.949 . S
H1906 C1910 0.949 . S
C1907 C1908 1.349 . S
C1907 C1909 1.327 . S
C1907 H1930 0.950 . S
C1908 C1907 1.349 . S
C1908 C1920 1.349 . S
C1909 C1907 1.327 . S
C1909 C1925 1.429 . S
C1909 H1931 0.950 . S
C1910 H1906 0.949 . S
C1910 C1918 1.574 . S
C1910 C1926 1.368 . S
H1911 C1919 0.950 . S
H1912 C1917 0.950 . S
H1913 C1918 0.949 . S
H1914 C1920 0.950 . S
H1915 C1921 0.950 . S
H1916 C1922 0.949 . S
C1917 H1912 0.950 . S
C1917 C1919 1.327 . S
C1917 C1923 1.429 . S
C1918 C1910 1.574 . S
C1918 H1913 0.949 . S
C1918 C1924 1.368 . S
C1919 C1903 1.349 . S
C1919 H1911 0.950 . S
C1919 C1917 1.327 . S
C1920 C1908 1.349 . S
C1920 H1914 0.950 . S
C1920 C1921 1.327 . S
C1921 H1915 0.950 . S
C1921 C1920 1.327 . S
C1921 C1925 1.429 . S
C1922 C1905 1.574 . S
C1922 H1916 0.949 . S
C1922 C1926 1.368 . S
C1923 C1904 1.429 . S
C1923 C1917 1.429 . S
C1923 C1924 1.523 . S
C1924 C1905 1.368 . S
C1924 C1918 1.368 . S
C1924 C1923 1.523 . S
C1925 C1909 1.429 . S
C1925 C1921 1.429 . S
C1925 C1926 1.523 . S
C1926 C1910 1.368 . S
C1926 C1922 1.368 . S
C1926 C1925 1.523 . S
H1927 C1902 0.950 . S
H1928 C1904 0.950 . S
H1929 C1905 0.949 . S
H1930 C1907 0.950 . S
H1931 C1909 0.950 . S
C1932 C1933 1.349 . S
C1932 C1934 1.327 . S
C1932 H1957 0.950 . S
C1933 C1932 1.349 . S
C1933 C1949 1.349 . S
C1934 C1932 1.327 . S
C1934 C1953 1.429 . S
C1934 H1958 0.950 . S
C1935 C1952 1.574 1_455 S
C1935 C1954 1.368 . S
C1935 H1959 0.949 . S
H1936 C1940 0.949 . S
C1937 C1938 1.349 . S
C1937 C1939 1.327 . S
C1937 H1960 0.950 . S
C1938 C1937 1.349 . S
C1938 C1950 1.349 . S
C1939 C1937 1.327 . S
C1939 C1955 1.429 . S
C1939 H1961 0.950 . S
C1940 H1936 0.949 . S
C1940 C1948 1.574 1_655 S
C1940 C1956 1.368 . S
H1941 C1949 0.950 . S
H1942 C1947 0.950 . S
H1943 C1948 0.949 . S
H1944 C1950 0.950 . S
H1945 C1951 0.950 . S
H1946 C1952 0.949 . S
C1947 H1942 0.950 . S
C1947 C1949 1.327 . S
C1947 C1953 1.429 . S
C1948 C1940 1.574 1_455 S
C1948 H1943 0.949 . S
C1948 C1954 1.368 . S
C1949 C1933 1.349 . S
C1949 H1941 0.950 . S
C1949 C1947 1.327 . S
C1950 C1938 1.349 . S
C1950 H1944 0.950 . S
C1950 C1951 1.327 . S
C1951 H1945 0.950 . S
C1951 C1950 1.327 . S
C1951 C1955 1.429 . S
C1952 C1935 1.574 1_655 S
C1952 H1946 0.949 . S
C1952 C1956 1.368 . S
C1953 C1934 1.429 . S
C1953 C1947 1.429 . S
C1953 C1954 1.523 . S
C1954 C1935 1.368 . S
C1954 C1948 1.368 . S
C1954 C1953 1.523 . S
C1955 C1939 1.429 . S
C1955 C1951 1.429 . S
C1955 C1956 1.523 . S
C1956 C1940 1.368 . S
C1956 C1952 1.368 . S
C1956 C1955 1.523 . S
H1957 C1932 0.950 . S
H1958 C1934 0.950 . S
H1959 C1935 0.949 . S
H1960 C1937 0.950 . S
H1961 C1939 0.950 . S
C1962 C1963 1.349 . S
C1962 C1964 1.327 . S
C1962 H1987 0.950 . S
C1963 C1962 1.349 . S
C1963 C1979 1.349 . S
C1964 C1962 1.327 . S
C1964 C1983 1.429 . S
C1964 H1988 0.950 . S
C1965 C1982 1.574 . S
C1965 C1984 1.368 . S
C1965 H1989 0.949 . S
H1966 C1970 0.949 . S
C1967 C1968 1.349 . S
C1967 C1969 1.327 . S
C1967 H1990 0.950 . S
C1968 C1967 1.349 . S
C1968 C1980 1.349 . S
C1969 C1967 1.327 . S
C1969 C1985 1.429 . S
C1969 H1991 0.950 . S
C1970 H1966 0.949 . S
C1970 C1978 1.574 . S
C1970 C1986 1.368 . S
H1971 C1979 0.950 . S
H1972 C1977 0.950 . S
H1973 C1978 0.949 . S
H1974 C1980 0.950 . S
H1975 C1981 0.950 . S
H1976 C1982 0.949 . S
C1977 H1972 0.950 . S
C1977 C1979 1.327 . S
C1977 C1983 1.429 . S
C1978 C1970 1.574 . S
C1978 H1973 0.949 . S
C1978 C1984 1.368 . S
C1979 C1963 1.349 . S
C1979 H1971 0.950 . S
C1979 C1977 1.327 . S
C1980 C1968 1.349 . S
C1980 H1974 0.950 . S
C1980 C1981 1.327 . S
C1981 H1975 0.950 . S
C1981 C1980 1.327 . S
C1981 C1985 1.429 . S
C1982 C1965 1.574 . S
C1982 H1976 0.949 . S
C1982 C1986 1.368 . S
C1983 C1964 1.429 . S
C1983 C1977 1.429 . S
C1983 C1984 1.523 . S
C1984 C1965 1.368 . S
C1984 C1978 1.368 . S
C1984 C1983 1.523 . S
C1985 C1969 1.429 . S
C1985 C1981 1.429 . S
C1985 C1986 1.523 . S
C1986 C1970 1.368 . S
C1986 C1982 1.368 . S
C1986 C1985 1.523 . S
H1987 C1962 0.950 . S
H1988 C1964 0.950 . S
H1989 C1965 0.949 . S
H1990 C1967 0.950 . S
H1991 C1969 0.950 . S
C1992 C1993 1.349 . S
C1992 C1994 1.327 . S
C1992 H2017 0.950 . S
C1993 C1992 1.349 . S
C1993 C2009 1.349 . S
C1994 C1992 1.327 . S
C1994 C2013 1.429 . S
C1994 H2018 0.950 . S
C1995 C2012 1.574 1_455 S
C1995 C2014 1.368 . S
C1995 H2019 0.949 . S
H1996 C2000 0.949 . S
C1997 C1998 1.349 . S
C1997 C1999 1.327 . S
C1997 H2020 0.950 . S
C1998 C1997 1.349 . S
C1998 C2010 1.349 . S
C1999 C1997 1.327 . S
C1999 C2015 1.429 . S
C1999 H2021 0.950 . S
C2000 H1996 0.949 . S
C2000 C2008 1.574 1_655 S
C2000 C2016 1.368 . S
H2001 C2009 0.950 . S
H2002 C2007 0.950 . S
H2003 C2008 0.949 . S
H2004 C2010 0.950 . S
H2005 C2011 0.950 . S
H2006 C2012 0.949 . S
C2007 H2002 0.950 . S
C2007 C2009 1.327 . S
C2007 C2013 1.429 . S
C2008 C2000 1.574 1_455 S
C2008 H2003 0.949 . S
C2008 C2014 1.368 . S
C2009 C1993 1.349 . S
C2009 H2001 0.950 . S
C2009 C2007 1.327 . S
C2010 C1998 1.349 . S
C2010 H2004 0.950 . S
C2010 C2011 1.327 . S
C2011 H2005 0.950 . S
C2011 C2010 1.327 . S
C2011 C2015 1.429 . S
C2012 C1995 1.574 1_655 S
C2012 H2006 0.949 . S
C2012 C2016 1.368 . S
C2013 C1994 1.429 . S
C2013 C2007 1.429 . S
C2013 C2014 1.523 . S
C2014 C1995 1.368 . S
C2014 C2008 1.368 . S
C2014 C2013 1.523 . S
C2015 C1999 1.429 . S
C2015 C2011 1.429 . S
C2015 C2016 1.523 . S
C2016 C2000 1.368 . S
C2016 C2012 1.368 . S
C2016 C2015 1.523 . S
H2017 C1992 0.950 . S
H2018 C1994 0.950 . S
H2019 C1995 0.949 . S
H2020 C1997 0.950 . S
H2021 C1999 0.950 . S
C2022 C2023 1.349 . S
C2022 C2024 1.327 . S
C2022 H2047 0.950 . S
C2023 C2022 1.349 . S
C2023 C2039 1.349 . S
C2024 C2022 1.327 . S
C2024 C2043 1.429 . S
C2024 H2048 0.950 . S
C2025 C2042 1.574 . S
C2025 C2044 1.368 . S
C2025 H2049 0.949 . S
H2026 C2030 0.949 . S
C2027 C2028 1.349 . S
C2027 C2029 1.327 . S
C2027 H2050 0.950 . S
C2028 C2027 1.349 . S
C2028 C2040 1.349 . S
C2029 C2027 1.327 . S
C2029 C2045 1.429 . S
C2029 H2051 0.950 . S
C2030 H2026 0.949 . S
C2030 C2038 1.574 . S
C2030 C2046 1.368 . S
H2031 C2039 0.950 . S
H2032 C2037 0.950 . S
H2033 C2038 0.949 . S
H2034 C2040 0.950 . S
H2035 C2041 0.950 . S
H2036 C2042 0.949 . S
C2037 H2032 0.950 . S
C2037 C2039 1.327 . S
C2037 C2043 1.429 . S
C2038 C2030 1.574 . S
C2038 H2033 0.949 . S
C2038 C2044 1.368 . S
C2039 C2023 1.349 . S
C2039 H2031 0.950 . S
C2039 C2037 1.327 . S
C2040 C2028 1.349 . S
C2040 H2034 0.950 . S
C2040 C2041 1.327 . S
C2041 H2035 0.950 . S
C2041 C2040 1.327 . S
C2041 C2045 1.429 . S
C2042 C2025 1.574 . S
C2042 H2036 0.949 . S
C2042 C2046 1.368 . S
C2043 C2024 1.429 . S
C2043 C2037 1.429 . S
C2043 C2044 1.523 . S
C2044 C2025 1.368 . S
C2044 C2038 1.368 . S
C2044 C2043 1.523 . S
C2045 C2029 1.429 . S
C2045 C2041 1.429 . S
C2045 C2046 1.523 . S
C2046 C2030 1.368 . S
C2046 C2042 1.368 . S
C2046 C2045 1.523 . S
H2047 C2022 0.950 . S
H2048 C2024 0.950 . S
H2049 C2025 0.949 . S
H2050 C2027 0.950 . S
H2051 C2029 0.950 . S
C2052 C2053 1.349 . S
C2052 C2054 1.327 . S
C2052 H2077 0.950 . S
C2053 C2052 1.349 . S
C2053 C2069 1.349 . S
C2054 C2052 1.327 . S
C2054 C2073 1.429 . S
C2054 H2078 0.950 . S
C2055 C2072 1.574 1_655 S
C2055 C2074 1.368 . S
C2055 H2079 0.949 . S
H2056 C2060 0.949 . S
C2057 C2058 1.349 . S
C2057 C2059 1.327 . S
C2057 H2080 0.950 . S
C2058 C2057 1.349 . S
C2058 C2070 1.349 . S
C2059 C2057 1.327 . S
C2059 C2075 1.429 . S
C2059 H2081 0.950 . S
C2060 H2056 0.949 . S
C2060 C2068 1.574 1_455 S
C2060 C2076 1.368 . S
H2061 C2069 0.950 . S
H2062 C2067 0.950 . S
H2063 C2068 0.949 . S
H2064 C2070 0.950 . S
H2065 C2071 0.950 . S
H2066 C2072 0.949 . S
C2067 H2062 0.950 . S
C2067 C2069 1.327 . S
C2067 C2073 1.429 . S
C2068 C2060 1.574 1_655 S
C2068 H2063 0.949 . S
C2068 C2074 1.368 . S
C2069 C2053 1.349 . S
C2069 H2061 0.950 . S
C2069 C2067 1.327 . S
C2070 C2058 1.349 . S
C2070 H2064 0.950 . S
C2070 C2071 1.327 . S
C2071 H2065 0.950 . S
C2071 C2070 1.327 . S
C2071 C2075 1.429 . S
C2072 C2055 1.574 1_455 S
C2072 H2066 0.949 . S
C2072 C2076 1.368 . S
C2073 C2054 1.429 . S
C2073 C2067 1.429 . S
C2073 C2074 1.523 . S
C2074 C2055 1.368 . S
C2074 C2068 1.368 . S
C2074 C2073 1.523 . S
C2075 C2059 1.429 . S
C2075 C2071 1.429 . S
C2075 C2076 1.523 . S
C2076 C2060 1.368 . S
C2076 C2072 1.368 . S
C2076 C2075 1.523 . S
H2077 C2052 0.950 . S
H2078 C2054 0.950 . S
H2079 C2055 0.949 . S
H2080 C2057 0.950 . S
H2081 C2059 0.950 . S
C2082 C2083 1.349 . S
C2082 C2084 1.327 . S
C2082 H2107 0.950 . S
C2083 C2082 1.349 . S
C2083 C2099 1.349 . S
C2084 C2082 1.327 . S
C2084 C2103 1.429 . S
C2084 H2108 0.950 . S
C2085 C2102 1.574 1_455 S
C2085 C2104 1.368 . S
C2085 H2109 0.949 . S
H2086 C2090 0.949 . S
C2087 C2088 1.349 . S
C2087 C2089 1.327 . S
C2087 H2110 0.950 . S
C2088 C2087 1.349 . S
C2088 C2100 1.349 . S
C2089 C2087 1.327 . S
C2089 C2105 1.429 . S
C2089 H2111 0.950 . S
C2090 H2086 0.949 . S
C2090 C2098 1.574 1_655 S
C2090 C2106 1.368 . S
H2091 C2099 0.950 . S
H2092 C2097 0.950 . S
H2093 C2098 0.949 . S
H2094 C2100 0.950 . S
H2095 C2101 0.950 . S
H2096 C2102 0.949 . S
C2097 H2092 0.950 . S
C2097 C2099 1.327 . S
C2097 C2103 1.429 . S
C2098 C2090 1.574 1_455 S
C2098 H2093 0.949 . S
C2098 C2104 1.368 . S
C2099 C2083 1.349 . S
C2099 H2091 0.950 . S
C2099 C2097 1.327 . S
C2100 C2088 1.349 . S
C2100 H2094 0.950 . S
C2100 C2101 1.327 . S
C2101 H2095 0.950 . S
C2101 C2100 1.327 . S
C2101 C2105 1.429 . S
C2102 C2085 1.574 1_655 S
C2102 H2096 0.949 . S
C2102 C2106 1.368 . S
C2103 C2084 1.429 . S
C2103 C2097 1.429 . S
C2103 C2104 1.523 . S
C2104 C2085 1.368 . S
C2104 C2098 1.368 . S
C2104 C2103 1.523 . S
C2105 C2089 1.429 . S
C2105 C2101 1.429 . S
C2105 C2106 1.523 . S
C2106 C2090 1.368 . S
C2106 C2102 1.368 . S
C2106 C2105 1.523 . S
H2107 C2082 0.950 . S
H2108 C2084 0.950 . S
H2109 C2085 0.949 . S
H2110 C2087 0.950 . S
H2111 C2089 0.950 . S
C2112 C2113 1.349 . S
C2112 C2114 1.327 . S
C2112 H2137 0.950 . S
C2113 C2112 1.349 . S
C2113 C2129 1.349 . S
C2114 C2112 1.327 . S
C2114 C2133 1.429 . S
C2114 H2138 0.950 . S
C2115 C2132 1.574 1_655 S
C2115 C2134 1.368 . S
C2115 H2139 0.949 . S
H2116 C2120 0.949 . S
C2117 C2118 1.349 . S
C2117 C2119 1.327 . S
C2117 H2140 0.950 . S
C2118 C2117 1.349 . S
C2118 C2130 1.349 . S
C2119 C2117 1.327 . S
C2119 C2135 1.429 . S
C2119 H2141 0.950 . S
C2120 H2116 0.949 . S
C2120 C2128 1.574 1_455 S
C2120 C2136 1.368 . S
H2121 C2129 0.950 . S
H2122 C2127 0.950 . S
H2123 C2128 0.949 . S
H2124 C2130 0.950 . S
H2125 C2131 0.950 . S
H2126 C2132 0.949 . S
C2127 H2122 0.950 . S
C2127 C2129 1.327 . S
C2127 C2133 1.429 . S
C2128 C2120 1.574 1_655 S
C2128 H2123 0.949 . S
C2128 C2134 1.368 . S
C2129 C2113 1.349 . S
C2129 H2121 0.950 . S
C2129 C2127 1.327 . S
C2130 C2118 1.349 . S
C2130 H2124 0.950 . S
C2130 C2131 1.327 . S
C2131 H2125 0.950 . S
C2131 C2130 1.327 . S
C2131 C2135 1.429 . S
C2132 C2115 1.574 1_455 S
C2132 H2126 0.949 . S
C2132 C2136 1.368 . S
C2133 C2114 1.429 . S
C2133 C2127 1.429 . S
C2133 C2134 1.523 . S
C2134 C2115 1.368 . S
C2134 C2128 1.368 . S
C2134 C2133 1.523 . S
C2135 C2119 1.429 . S
C2135 C2131 1.429 . S
C2135 C2136 1.523 . S
C2136 C2120 1.368 . S
C2136 C2132 1.368 . S
C2136 C2135 1.523 . S
H2137 C2112 0.950 . S
H2138 C2114 0.950 . S
H2139 C2115 0.949 . S
H2140 C2117 0.950 . S
H2141 C2119 0.950 . S
C2142 C2143 1.349 . S
C2142 C2144 1.327 . S
C2142 H2167 0.950 . S
C2143 C2142 1.349 . S
C2143 C2159 1.349 . S
C2144 C2142 1.327 . S
C2144 C2163 1.429 . S
C2144 H2168 0.950 . S
C2145 C2162 1.574 . S
C2145 C2164 1.368 . S
C2145 H2169 0.949 . S
H2146 C2150 0.949 . S
C2147 C2148 1.349 . S
C2147 C2149 1.327 . S
C2147 H2170 0.950 . S
C2148 C2147 1.349 . S
C2148 C2160 1.349 . S
C2149 C2147 1.327 . S
C2149 C2165 1.429 . S
C2149 H2171 0.950 . S
C2150 H2146 0.949 . S
C2150 C2158 1.574 . S
C2150 C2166 1.368 . S
H2151 C2159 0.950 . S
H2152 C2157 0.950 . S
H2153 C2158 0.949 . S
H2154 C2160 0.950 . S
H2155 C2161 0.950 . S
H2156 C2162 0.949 . S
C2157 H2152 0.950 . S
C2157 C2159 1.327 . S
C2157 C2163 1.429 . S
C2158 C2150 1.574 . S
C2158 H2153 0.949 . S
C2158 C2164 1.368 . S
C2159 C2143 1.349 . S
C2159 H2151 0.950 . S
C2159 C2157 1.327 . S
C2160 C2148 1.349 . S
C2160 H2154 0.950 . S
C2160 C2161 1.327 . S
C2161 H2155 0.950 . S
C2161 C2160 1.327 . S
C2161 C2165 1.429 . S
C2162 C2145 1.574 . S
C2162 H2156 0.949 . S
C2162 C2166 1.368 . S
C2163 C2144 1.429 . S
C2163 C2157 1.429 . S
C2163 C2164 1.523 . S
C2164 C2145 1.368 . S
C2164 C2158 1.368 . S
C2164 C2163 1.523 . S
C2165 C2149 1.429 . S
C2165 C2161 1.429 . S
C2165 C2166 1.523 . S
C2166 C2150 1.368 . S
C2166 C2162 1.368 . S
C2166 C2165 1.523 . S
H2167 C2142 0.950 . S
H2168 C2144 0.950 . S
H2169 C2145 0.949 . S
H2170 C2147 0.950 . S
H2171 C2149 0.950 . S
C2172 C2173 1.349 . S
C2172 C2174 1.327 . S
C2172 H2197 0.950 . S
C2173 C2172 1.349 . S
C2173 C2189 1.349 . S
C2174 C2172 1.327 . S
C2174 C2193 1.429 . S
C2174 H2198 0.950 . S
C2175 C2192 1.574 1_455 S
C2175 C2194 1.368 . S
C2175 H2199 0.949 . S
H2176 C2180 0.949 . S
C2177 C2178 1.349 . S
C2177 C2179 1.327 . S
C2177 H2200 0.950 . S
C2178 C2177 1.349 . S
C2178 C2190 1.349 . S
C2179 C2177 1.327 . S
C2179 C2195 1.429 . S
C2179 H2201 0.950 . S
C2180 H2176 0.949 . S
C2180 C2188 1.574 1_655 S
C2180 C2196 1.368 . S
H2181 C2189 0.950 . S
H2182 C2187 0.950 . S
H2183 C2188 0.949 . S
H2184 C2190 0.950 . S
H2185 C2191 0.950 . S
H2186 C2192 0.949 . S
C2187 H2182 0.950 . S
C2187 C2189 1.327 . S
C2187 C2193 1.429 . S
C2188 C2180 1.574 1_455 S
C2188 H2183 0.949 . S
C2188 C2194 1.368 . S
C2189 C2173 1.349 . S
C2189 H2181 0.950 . S
C2189 C2187 1.327 . S
C2190 C2178 1.349 . S
C2190 H2184 0.950 . S
C2190 C2191 1.327 . S
C2191 H2185 0.950 . S
C2191 C2190 1.327 . S
C2191 C2195 1.429 . S
C2192 C2175 1.574 1_655 S
C2192 H2186 0.949 . S
C2192 C2196 1.368 . S
C2193 C2174 1.429 . S
C2193 C2187 1.429 . S
C2193 C2194 1.523 . S
C2194 C2175 1.368 . S
C2194 C2188 1.368 . S
C2194 C2193 1.523 . S
C2195 C2179 1.429 . S
C2195 C2191 1.429 . S
C2195 C2196 1.523 . S
C2196 C2180 1.368 . S
C2196 C2192 1.368 . S
C2196 C2195 1.523 . S
H2197 C2172 0.950 . S
H2198 C2174 0.950 . S
H2199 C2175 0.949 . S
H2200 C2177 0.950 . S
H2201 C2179 0.950 . S
C2202 C2203 1.349 . S
C2202 C2204 1.327 . S
C2202 H2227 0.950 . S
C2203 C2202 1.349 . S
C2203 C2219 1.349 . S
C2204 C2202 1.327 . S
C2204 C2223 1.429 . S
C2204 H2228 0.950 . S
C2205 C2222 1.574 . S
C2205 C2224 1.368 . S
C2205 H2229 0.949 . S
H2206 C2210 0.949 . S
C2207 C2208 1.349 . S
C2207 C2209 1.327 . S
C2207 H2230 0.950 . S
C2208 C2207 1.349 . S
C2208 C2220 1.349 . S
C2209 C2207 1.327 . S
C2209 C2225 1.429 . S
C2209 H2231 0.950 . S
C2210 H2206 0.949 . S
C2210 C2218 1.574 . S
C2210 C2226 1.368 . S
H2211 C2219 0.950 . S
H2212 C2217 0.950 . S
H2213 C2218 0.949 . S
H2214 C2220 0.950 . S
H2215 C2221 0.950 . S
H2216 C2222 0.949 . S
C2217 H2212 0.950 . S
C2217 C2219 1.327 . S
C2217 C2223 1.429 . S
C2218 C2210 1.574 . S
C2218 H2213 0.949 . S
C2218 C2224 1.368 . S
C2219 C2203 1.349 . S
C2219 H2211 0.950 . S
C2219 C2217 1.327 . S
C2220 C2208 1.349 . S
C2220 H2214 0.950 . S
C2220 C2221 1.327 . S
C2221 H2215 0.950 . S
C2221 C2220 1.327 . S
C2221 C2225 1.429 . S
C2222 C2205 1.574 . S
C2222 H2216 0.949 . S
C2222 C2226 1.368 . S
C2223 C2204 1.429 . S
C2223 C2217 1.429 . S
C2223 C2224 1.523 . S
C2224 C2205 1.368 . S
C2224 C2218 1.368 . S
C2224 C2223 1.523 . S
C2225 C2209 1.429 . S
C2225 C2221 1.429 . S
C2225 C2226 1.523 . S
C2226 C2210 1.368 . S
C2226 C2222 1.368 . S
C2226 C2225 1.523 . S
H2227 C2202 0.950 . S
H2228 C2204 0.950 . S
H2229 C2205 0.949 . S
H2230 C2207 0.950 . S
H2231 C2209 0.950 . S
C2232 C2233 1.349 . S
C2232 C2234 1.327 . S
C2232 H2257 0.950 . S
C2233 C2232 1.349 . S
C2233 C2249 1.349 . S
C2234 C2232 1.327 . S
C2234 C2253 1.429 . S
C2234 H2258 0.950 . S
C2235 C2252 1.574 1_655 S
C2235 C2254 1.368 . S
C2235 H2259 0.949 . S
H2236 C2240 0.949 . S
C2237 C2238 1.349 . S
C2237 C2239 1.327 . S
C2237 H2260 0.950 . S
C2238 C2237 1.349 . S
C2238 C2250 1.349 . S
C2239 C2237 1.327 . S
C2239 C2255 1.429 . S
C2239 H2261 0.950 . S
C2240 H2236 0.949 . S
C2240 C2248 1.574 1_455 S
C2240 C2256 1.368 . S
H2241 C2249 0.950 . S
H2242 C2247 0.950 . S
H2243 C2248 0.949 . S
H2244 C2250 0.950 . S
H2245 C2251 0.950 . S
H2246 C2252 0.949 . S
C2247 H2242 0.950 . S
C2247 C2249 1.327 . S
C2247 C2253 1.429 . S
C2248 C2240 1.574 1_655 S
C2248 H2243 0.949 . S
C2248 C2254 1.368 . S
C2249 C2233 1.349 . S
C2249 H2241 0.950 . S
C2249 C2247 1.327 . S
C2250 C2238 1.349 . S
C2250 H2244 0.950 . S
C2250 C2251 1.327 . S
C2251 H2245 0.950 . S
C2251 C2250 1.327 . S
C2251 C2255 1.429 . S
C2252 C2235 1.574 1_455 S
C2252 H2246 0.949 . S
C2252 C2256 1.368 . S
C2253 C2234 1.429 . S
C2253 C2247 1.429 . S
C2253 C2254 1.523 . S
C2254 C2235 1.368 . S
C2254 C2248 1.368 . S
C2254 C2253 1.523 . S
C2255 C2239 1.429 . S
C2255 C2251 1.429 . S
C2255 C2256 1.523 . S
C2256 C2240 1.368 . S
C2256 C2252 1.368 . S
C2256 C2255 1.523 . S
H2257 C2232 0.950 . S
H2258 C2234 0.950 . S
H2259 C2235 0.949 . S
H2260 C2237 0.950 . S
H2261 C2239 0.950 . S
C2262 C2263 1.349 . S
C2262 C2264 1.327 . S
C2262 H2287 0.950 . S
C2263 C2262 1.349 . S
C2263 C2279 1.349 . S
C2264 C2262 1.327 . S
C2264 C2283 1.429 . S
C2264 H2288 0.950 . S
C2265 C2282 1.574 . S
C2265 C2284 1.368 . S
C2265 H2289 0.949 . S
H2266 C2270 0.949 . S
C2267 C2268 1.349 . S
C2267 C2269 1.327 . S
C2267 H2290 0.950 . S
C2268 C2267 1.349 . S
C2268 C2280 1.349 . S
C2269 C2267 1.327 . S
C2269 C2285 1.429 . S
C2269 H2291 0.950 . S
C2270 H2266 0.949 . S
C2270 C2278 1.574 . S
C2270 C2286 1.368 . S
H2271 C2279 0.950 . S
H2272 C2277 0.950 . S
H2273 C2278 0.949 . S
H2274 C2280 0.950 . S
H2275 C2281 0.950 . S
H2276 C2282 0.949 . S
C2277 H2272 0.950 . S
C2277 C2279 1.327 . S
C2277 C2283 1.429 . S
C2278 C2270 1.574 . S
C2278 H2273 0.949 . S
C2278 C2284 1.368 . S
C2279 C2263 1.349 . S
C2279 H2271 0.950 . S
C2279 C2277 1.327 . S
C2280 C2268 1.349 . S
C2280 H2274 0.950 . S
C2280 C2281 1.327 . S
C2281 H2275 0.950 . S
C2281 C2280 1.327 . S
C2281 C2285 1.429 . S
C2282 C2265 1.574 . S
C2282 H2276 0.949 . S
C2282 C2286 1.368 . S
C2283 C2264 1.429 . S
C2283 C2277 1.429 . S
C2283 C2284 1.523 . S
C2284 C2265 1.368 . S
C2284 C2278 1.368 . S
C2284 C2283 1.523 . S
C2285 C2269 1.429 . S
C2285 C2281 1.429 . S
C2285 C2286 1.523 . S
C2286 C2270 1.368 . S
C2286 C2282 1.368 . S
C2286 C2285 1.523 . S
H2287 C2262 0.950 . S
H2288 C2264 0.950 . S
H2289 C2265 0.949 . S
H2290 C2267 0.950 . S
H2291 C2269 0.950 . S
C2292 C2293 1.349 . S
C2292 C2294 1.327 . S
C2292 H2317 0.950 . S
C2293 C2292 1.349 . S
C2293 C2309 1.349 . S
C2294 C2292 1.327 . S
C2294 C2313 1.429 . S
C2294 H2318 0.950 . S
C2295 C2312 1.574 1_655 S
C2295 C2314 1.368 . S
C2295 H2319 0.949 . S
H2296 C2300 0.949 . S
C2297 C2298 1.349 . S
C2297 C2299 1.327 . S
C2297 H2320 0.950 . S
C2298 C2297 1.349 . S
C2298 C2310 1.349 . S
C2299 C2297 1.327 . S
C2299 C2315 1.429 . S
C2299 H2321 0.950 . S
C2300 H2296 0.949 . S
C2300 C2308 1.574 1_455 S
C2300 C2316 1.368 . S
H2301 C2309 0.950 . S
H2302 C2307 0.950 . S
H2303 C2308 0.949 . S
H2304 C2310 0.950 . S
H2305 C2311 0.950 . S
H2306 C2312 0.949 . S
C2307 H2302 0.950 . S
C2307 C2309 1.327 . S
C2307 C2313 1.429 . S
C2308 C2300 1.574 1_655 S
C2308 H2303 0.949 . S
C2308 C2314 1.368 . S
C2309 C2293 1.349 . S
C2309 H2301 0.950 . S
C2309 C2307 1.327 . S
C2310 C2298 1.349 . S
C2310 H2304 0.950 . S
C2310 C2311 1.327 . S
C2311 H2305 0.950 . S
C2311 C2310 1.327 . S
C2311 C2315 1.429 . S
C2312 C2295 1.574 1_455 S
C2312 H2306 0.949 . S
C2312 C2316 1.368 . S
C2313 C2294 1.429 . S
C2313 C2307 1.429 . S
C2313 C2314 1.523 . S
C2314 C2295 1.368 . S
C2314 C2308 1.368 . S
C2314 C2313 1.523 . S
C2315 C2299 1.429 . S
C2315 C2311 1.429 . S
C2315 C2316 1.523 . S
C2316 C2300 1.368 . S
C2316 C2312 1.368 . S
C2316 C2315 1.523 . S
H2317 C2292 0.950 . S
H2318 C2294 0.950 . S
H2319 C2295 0.949 . S
H2320 C2297 0.950 . S
H2321 C2299 0.950 . S
C2322 C2323 1.349 . S
C2322 C2324 1.327 . S
C2322 H2347 0.950 . S
C2323 C2322 1.349 . S
C2323 C2339 1.349 . S
C2324 C2322 1.327 . S
C2324 C2343 1.429 . S
C2324 H2348 0.950 . S
C2325 C2342 1.574 . S
C2325 C2344 1.368 . S
C2325 H2349 0.949 . S
H2326 C2330 0.949 . S
C2327 C2328 1.349 . S
C2327 C2329 1.327 . S
C2327 H2350 0.950 . S
C2328 C2327 1.349 . S
C2328 C2340 1.349 . S
C2329 C2327 1.327 . S
C2329 C2345 1.429 . S
C2329 H2351 0.950 . S
C2330 H2326 0.949 . S
C2330 C2338 1.574 . S
C2330 C2346 1.368 . S
H2331 C2339 0.950 . S
H2332 C2337 0.950 . S
H2333 C2338 0.949 . S
H2334 C2340 0.950 . S
H2335 C2341 0.950 . S
H2336 C2342 0.949 . S
C2337 H2332 0.950 . S
C2337 C2339 1.327 . S
C2337 C2343 1.429 . S
C2338 C2330 1.574 . S
C2338 H2333 0.949 . S
C2338 C2344 1.368 . S
C2339 C2323 1.349 . S
C2339 H2331 0.950 . S
C2339 C2337 1.327 . S
C2340 C2328 1.349 . S
C2340 H2334 0.950 . S
C2340 C2341 1.327 . S
C2341 H2335 0.950 . S
C2341 C2340 1.327 . S
C2341 C2345 1.429 . S
C2342 C2325 1.574 . S
C2342 H2336 0.949 . S
C2342 C2346 1.368 . S
C2343 C2324 1.429 . S
C2343 C2337 1.429 . S
C2343 C2344 1.523 . S
C2344 C2325 1.368 . S
C2344 C2338 1.368 . S
C2344 C2343 1.523 . S
C2345 C2329 1.429 . S
C2345 C2341 1.429 . S
C2345 C2346 1.523 . S
C2346 C2330 1.368 . S
C2346 C2342 1.368 . S
C2346 C2345 1.523 . S
H2347 C2322 0.950 . S
H2348 C2324 0.950 . S
H2349 C2325 0.949 . S
H2350 C2327 0.950 . S
H2351 C2329 0.950 . S
C2352 C2353 1.349 . S
C2352 C2354 1.327 . S
C2352 H2377 0.950 . S
C2353 C2352 1.349 . S
C2353 C2369 1.349 . S
C2354 C2352 1.327 . S
C2354 C2373 1.429 . S
C2354 H2378 0.950 . S
C2355 C2372 1.574 1_545 S
C2355 C2374 1.368 . S
C2355 H2379 0.949 . S
H2356 C2360 0.949 . S
C2357 C2358 1.349 . S
C2357 C2359 1.327 . S
C2357 H2380 0.950 . S
C2358 C2357 1.349 . S
C2358 C2370 1.349 . S
C2359 C2357 1.327 . S
C2359 C2375 1.429 . S
C2359 H2381 0.950 . S
C2360 H2356 0.949 . S
C2360 C2368 1.574 1_565 S
C2360 C2376 1.368 . S
H2361 C2369 0.950 . S
H2362 C2367 0.950 . S
H2363 C2368 0.949 . S
H2364 C2370 0.950 . S
H2365 C2371 0.950 . S
H2366 C2372 0.949 . S
C2367 H2362 0.950 . S
C2367 C2369 1.327 . S
C2367 C2373 1.429 . S
C2368 C2360 1.574 1_545 S
C2368 H2363 0.949 . S
C2368 C2374 1.368 . S
C2369 C2353 1.349 . S
C2369 H2361 0.950 . S
C2369 C2367 1.327 . S
C2370 C2358 1.349 . S
C2370 H2364 0.950 . S
C2370 C2371 1.327 . S
C2371 H2365 0.950 . S
C2371 C2370 1.327 . S
C2371 C2375 1.429 . S
C2372 C2355 1.574 1_565 S
C2372 H2366 0.949 . S
C2372 C2376 1.368 . S
C2373 C2354 1.429 . S
C2373 C2367 1.429 . S
C2373 C2374 1.523 . S
C2374 C2355 1.368 . S
C2374 C2368 1.368 . S
C2374 C2373 1.523 . S
C2375 C2359 1.429 . S
C2375 C2371 1.429 . S
C2375 C2376 1.523 . S
C2376 C2360 1.368 . S
C2376 C2372 1.368 . S
C2376 C2375 1.523 . S
H2377 C2352 0.950 . S
H2378 C2354 0.950 . S
H2379 C2355 0.949 . S
H2380 C2357 0.950 . S
H2381 C2359 0.950 . S
C2382 C2383 1.349 . S
C2382 C2384 1.327 . S
C2382 H2407 0.950 . S
C2383 C2382 1.349 . S
C2383 C2399 1.349 . S
C2384 C2382 1.327 . S
C2384 C2403 1.429 . S
C2384 H2408 0.950 . S
C2385 C2402 1.574 . S
C2385 C2404 1.368 . S
C2385 H2409 0.949 . S
H2386 C2390 0.949 . S
C2387 C2388 1.349 . S
C2387 C2389 1.327 . S
C2387 H2410 0.950 . S
C2388 C2387 1.349 . S
C2388 C2400 1.349 . S
C2389 C2387 1.327 . S
C2389 C2405 1.429 . S
C2389 H2411 0.950 . S
C2390 H2386 0.949 . S
C2390 C2398 1.574 . S
C2390 C2406 1.368 . S
H2391 C2399 0.950 . S
H2392 C2397 0.950 . S
H2393 C2398 0.949 . S
H2394 C2400 0.950 . S
H2395 C2401 0.950 . S
H2396 C2402 0.949 . S
C2397 H2392 0.950 . S
C2397 C2399 1.327 . S
C2397 C2403 1.429 . S
C2398 C2390 1.574 . S
C2398 H2393 0.949 . S
C2398 C2404 1.368 . S
C2399 C2383 1.349 . S
C2399 H2391 0.950 . S
C2399 C2397 1.327 . S
C2400 C2388 1.349 . S
C2400 H2394 0.950 . S
C2400 C2401 1.327 . S
C2401 H2395 0.950 . S
C2401 C2400 1.327 . S
C2401 C2405 1.429 . S
C2402 C2385 1.574 . S
C2402 H2396 0.949 . S
C2402 C2406 1.368 . S
C2403 C2384 1.429 . S
C2403 C2397 1.429 . S
C2403 C2404 1.523 . S
C2404 C2385 1.368 . S
C2404 C2398 1.368 . S
C2404 C2403 1.523 . S
C2405 C2389 1.429 . S
C2405 C2401 1.429 . S
C2405 C2406 1.523 . S
C2406 C2390 1.368 . S
C2406 C2402 1.368 . S
C2406 C2405 1.523 . S
H2407 C2382 0.950 . S
H2408 C2384 0.950 . S
H2409 C2385 0.949 . S
H2410 C2387 0.950 . S
H2411 C2389 0.950 . S
C2412 C2413 1.349 . S
C2412 C2414 1.327 . S
C2412 H2437 0.950 . S
C2413 C2412 1.349 . S
C2413 C2429 1.349 . S
C2414 C2412 1.327 . S
C2414 C2433 1.429 . S
C2414 H2438 0.950 . S
C2415 C2432 1.574 1_545 S
C2415 C2434 1.368 . S
C2415 H2439 0.949 . S
H2416 C2420 0.949 . S
C2417 C2418 1.349 . S
C2417 C2419 1.327 . S
C2417 H2440 0.950 . S
C2418 C2417 1.349 . S
C2418 C2430 1.349 . S
C2419 C2417 1.327 . S
C2419 C2435 1.429 . S
C2419 H2441 0.950 . S
C2420 H2416 0.949 . S
C2420 C2428 1.574 1_565 S
C2420 C2436 1.368 . S
H2421 C2429 0.950 . S
H2422 C2427 0.950 . S
H2423 C2428 0.949 . S
H2424 C2430 0.950 . S
H2425 C2431 0.950 . S
H2426 C2432 0.949 . S
C2427 H2422 0.950 . S
C2427 C2429 1.327 . S
C2427 C2433 1.429 . S
C2428 C2420 1.574 1_545 S
C2428 H2423 0.949 . S
C2428 C2434 1.368 . S
C2429 C2413 1.349 . S
C2429 H2421 0.950 . S
C2429 C2427 1.327 . S
C2430 C2418 1.349 . S
C2430 H2424 0.950 . S
C2430 C2431 1.327 . S
C2431 H2425 0.950 . S
C2431 C2430 1.327 . S
C2431 C2435 1.429 . S
C2432 C2415 1.574 1_565 S
C2432 H2426 0.949 . S
C2432 C2436 1.368 . S
C2433 C2414 1.429 . S
C2433 C2427 1.429 . S
C2433 C2434 1.523 . S
C2434 C2415 1.368 . S
C2434 C2428 1.368 . S
C2434 C2433 1.523 . S
C2435 C2419 1.429 . S
C2435 C2431 1.429 . S
C2435 C2436 1.523 . S
C2436 C2420 1.368 . S
C2436 C2432 1.368 . S
C2436 C2435 1.523 . S
H2437 C2412 0.950 . S
H2438 C2414 0.950 . S
H2439 C2415 0.949 . S
H2440 C2417 0.950 . S
H2441 C2419 0.950 . S
C2442 C2443 1.349 . S
C2442 C2444 1.327 . S
C2442 H2467 0.950 . S
C2443 C2442 1.349 . S
C2443 C2459 1.349 . S
C2444 C2442 1.327 . S
C2444 C2463 1.429 . S
C2444 H2468 0.950 . S
C2445 C2462 1.574 . S
C2445 C2464 1.368 . S
C2445 H2469 0.949 . S
H2446 C2450 0.949 . S
C2447 C2448 1.349 . S
C2447 C2449 1.327 . S
C2447 H2470 0.950 . S
C2448 C2447 1.349 . S
C2448 C2460 1.349 . S
C2449 C2447 1.327 . S
C2449 C2465 1.429 . S
C2449 H2471 0.950 . S
C2450 H2446 0.949 . S
C2450 C2458 1.574 . S
C2450 C2466 1.368 . S
H2451 C2459 0.950 . S
H2452 C2457 0.950 . S
H2453 C2458 0.949 . S
H2454 C2460 0.950 . S
H2455 C2461 0.950 . S
H2456 C2462 0.949 . S
C2457 H2452 0.950 . S
C2457 C2459 1.327 . S
C2457 C2463 1.429 . S
C2458 C2450 1.574 . S
C2458 H2453 0.949 . S
C2458 C2464 1.368 . S
C2459 C2443 1.349 . S
C2459 H2451 0.950 . S
C2459 C2457 1.327 . S
C2460 C2448 1.349 . S
C2460 H2454 0.950 . S
C2460 C2461 1.327 . S
C2461 H2455 0.950 . S
C2461 C2460 1.327 . S
C2461 C2465 1.429 . S
C2462 C2445 1.574 . S
C2462 H2456 0.949 . S
C2462 C2466 1.368 . S
C2463 C2444 1.429 . S
C2463 C2457 1.429 . S
C2463 C2464 1.523 . S
C2464 C2445 1.368 . S
C2464 C2458 1.368 . S
C2464 C2463 1.523 . S
C2465 C2449 1.429 . S
C2465 C2461 1.429 . S
C2465 C2466 1.523 . S
C2466 C2450 1.368 . S
C2466 C2462 1.368 . S
C2466 C2465 1.523 . S
H2467 C2442 0.950 . S
H2468 C2444 0.950 . S
H2469 C2445 0.949 . S
H2470 C2447 0.950 . S
H2471 C2449 0.950 . S
C2472 C2473 1.349 . S
C2472 C2474 1.327 . S
C2472 H2497 0.950 . S
C2473 C2472 1.349 . S
C2473 C2489 1.349 . S
C2474 C2472 1.327 . S
C2474 C2493 1.429 . S
C2474 H2498 0.950 . S
C2475 C2492 1.574 1_545 S
C2475 C2494 1.368 . S
C2475 H2499 0.949 . S
H2476 C2480 0.949 . S
C2477 C2478 1.349 . S
C2477 C2479 1.327 . S
C2477 H2500 0.950 . S
C2478 C2477 1.349 . S
C2478 C2490 1.349 . S
C2479 C2477 1.327 . S
C2479 C2495 1.429 . S
C2479 H2501 0.950 . S
C2480 H2476 0.949 . S
C2480 C2488 1.574 1_565 S
C2480 C2496 1.368 . S
H2481 C2489 0.950 . S
H2482 C2487 0.950 . S
H2483 C2488 0.949 . S
H2484 C2490 0.950 . S
H2485 C2491 0.950 . S
H2486 C2492 0.949 . S
C2487 H2482 0.950 . S
C2487 C2489 1.327 . S
C2487 C2493 1.429 . S
C2488 C2480 1.574 1_545 S
C2488 H2483 0.949 . S
C2488 C2494 1.368 . S
C2489 C2473 1.349 . S
C2489 H2481 0.950 . S
C2489 C2487 1.327 . S
C2490 C2478 1.349 . S
C2490 H2484 0.950 . S
C2490 C2491 1.327 . S
C2491 H2485 0.950 . S
C2491 C2490 1.327 . S
C2491 C2495 1.429 . S
C2492 C2475 1.574 1_565 S
C2492 H2486 0.949 . S
C2492 C2496 1.368 . S
C2493 C2474 1.429 . S
C2493 C2487 1.429 . S
C2493 C2494 1.523 . S
C2494 C2475 1.368 . S
C2494 C2488 1.368 . S
C2494 C2493 1.523 . S
C2495 C2479 1.429 . S
C2495 C2491 1.429 . S
C2495 C2496 1.523 . S
C2496 C2480 1.368 . S
C2496 C2492 1.368 . S
C2496 C2495 1.523 . S
H2497 C2472 0.950 . S
H2498 C2474 0.950 . S
H2499 C2475 0.949 . S
H2500 C2477 0.950 . S
H2501 C2479 0.950 . S
C2502 C2503 1.349 . S
C2502 C2504 1.327 . S
C2502 H2527 0.950 . S
C2503 C2502 1.349 . S
C2503 C2519 1.349 . S
C2504 C2502 1.327 . S
C2504 C2523 1.429 . S
C2504 H2528 0.950 . S
C2505 C2522 1.574 . S
C2505 C2524 1.368 . S
C2505 H2529 0.949 . S
H2506 C2510 0.949 . S
C2507 C2508 1.349 . S
C2507 C2509 1.327 . S
C2507 H2530 0.950 . S
C2508 C2507 1.349 . S
C2508 C2520 1.349 . S
C2509 C2507 1.327 . S
C2509 C2525 1.429 . S
C2509 H2531 0.950 . S
C2510 H2506 0.949 . S
C2510 C2518 1.574 . S
C2510 C2526 1.368 . S
H2511 C2519 0.950 . S
H2512 C2517 0.950 . S
H2513 C2518 0.949 . S
H2514 C2520 0.950 . S
H2515 C2521 0.950 . S
H2516 C2522 0.949 . S
C2517 H2512 0.950 . S
C2517 C2519 1.327 . S
C2517 C2523 1.429 . S
C2518 C2510 1.574 . S
C2518 H2513 0.949 . S
C2518 C2524 1.368 . S
C2519 C2503 1.349 . S
C2519 H2511 0.950 . S
C2519 C2517 1.327 . S
C2520 C2508 1.349 . S
C2520 H2514 0.950 . S
C2520 C2521 1.327 . S
C2521 H2515 0.950 . S
C2521 C2520 1.327 . S
C2521 C2525 1.429 . S
C2522 C2505 1.574 . S
C2522 H2516 0.949 . S
C2522 C2526 1.368 . S
C2523 C2504 1.429 . S
C2523 C2517 1.429 . S
C2523 C2524 1.523 . S
C2524 C2505 1.368 . S
C2524 C2518 1.368 . S
C2524 C2523 1.523 . S
C2525 C2509 1.429 . S
C2525 C2521 1.429 . S
C2525 C2526 1.523 . S
C2526 C2510 1.368 . S
C2526 C2522 1.368 . S
C2526 C2525 1.523 . S
H2527 C2502 0.950 . S
H2528 C2504 0.950 . S
H2529 C2505 0.949 . S
H2530 C2507 0.950 . S
H2531 C2509 0.950 . S
C2532 C2533 1.349 . S
C2532 C2534 1.327 . S
C2532 H2557 0.950 . S
C2533 C2532 1.349 . S
C2533 C2549 1.349 . S
C2534 C2532 1.327 . S
C2534 C2553 1.429 . S
C2534 H2558 0.950 . S
C2535 C2552 1.574 1_545 S
C2535 C2554 1.368 . S
C2535 H2559 0.949 . S
H2536 C2540 0.949 . S
C2537 C2538 1.349 . S
C2537 C2539 1.327 . S
C2537 H2560 0.950 . S
C2538 C2537 1.349 . S
C2538 C2550 1.349 . S
C2539 C2537 1.327 . S
C2539 C2555 1.429 . S
C2539 H2561 0.950 . S
C2540 H2536 0.949 . S
C2540 C2548 1.574 1_565 S
C2540 C2556 1.368 . S
H2541 C2549 0.950 . S
H2542 C2547 0.950 . S
H2543 C2548 0.949 . S
H2544 C2550 0.950 . S
H2545 C2551 0.950 . S
H2546 C2552 0.949 . S
C2547 H2542 0.950 . S
C2547 C2549 1.327 . S
C2547 C2553 1.429 . S
C2548 C2540 1.574 1_545 S
C2548 H2543 0.949 . S
C2548 C2554 1.368 . S
C2549 C2533 1.349 . S
C2549 H2541 0.950 . S
C2549 C2547 1.327 . S
C2550 C2538 1.349 . S
C2550 H2544 0.950 . S
C2550 C2551 1.327 . S
C2551 H2545 0.950 . S
C2551 C2550 1.327 . S
C2551 C2555 1.429 . S
C2552 C2535 1.574 1_565 S
C2552 H2546 0.949 . S
C2552 C2556 1.368 . S
C2553 C2534 1.429 . S
C2553 C2547 1.429 . S
C2553 C2554 1.523 . S
C2554 C2535 1.368 . S
C2554 C2548 1.368 . S
C2554 C2553 1.523 . S
C2555 C2539 1.429 . S
C2555 C2551 1.429 . S
C2555 C2556 1.523 . S
C2556 C2540 1.368 . S
C2556 C2552 1.368 . S
C2556 C2555 1.523 . S
H2557 C2532 0.950 . S
H2558 C2534 0.950 . S
H2559 C2535 0.949 . S
H2560 C2537 0.950 . S
H2561 C2539 0.950 . S
C2562 C2563 1.349 . S
C2562 C2564 1.327 . S
C2562 H2587 0.950 . S
C2563 C2562 1.349 . S
C2563 C2579 1.349 . S
C2564 C2562 1.327 . S
C2564 C2583 1.429 . S
C2564 H2588 0.950 . S
C2565 C2582 1.574 . S
C2565 C2584 1.368 . S
C2565 H2589 0.949 . S
H2566 C2570 0.949 . S
C2567 C2568 1.349 . S
C2567 C2569 1.327 . S
C2567 H2590 0.950 . S
C2568 C2567 1.349 . S
C2568 C2580 1.349 . S
C2569 C2567 1.327 . S
C2569 C2585 1.429 . S
C2569 H2591 0.950 . S
C2570 H2566 0.949 . S
C2570 C2578 1.574 . S
C2570 C2586 1.368 . S
H2571 C2579 0.950 . S
H2572 C2577 0.950 . S
H2573 C2578 0.949 . S
H2574 C2580 0.950 . S
H2575 C2581 0.950 . S
H2576 C2582 0.949 . S
C2577 H2572 0.950 . S
C2577 C2579 1.327 . S
C2577 C2583 1.429 . S
C2578 C2570 1.574 . S
C2578 H2573 0.949 . S
C2578 C2584 1.368 . S
C2579 C2563 1.349 . S
C2579 H2571 0.950 . S
C2579 C2577 1.327 . S
C2580 C2568 1.349 . S
C2580 H2574 0.950 . S
C2580 C2581 1.327 . S
C2581 H2575 0.950 . S
C2581 C2580 1.327 . S
C2581 C2585 1.429 . S
C2582 C2565 1.574 . S
C2582 H2576 0.949 . S
C2582 C2586 1.368 . S
C2583 C2564 1.429 . S
C2583 C2577 1.429 . S
C2583 C2584 1.523 . S
C2584 C2565 1.368 . S
C2584 C2578 1.368 . S
C2584 C2583 1.523 . S
C2585 C2569 1.429 . S
C2585 C2581 1.429 . S
C2585 C2586 1.523 . S
C2586 C2570 1.368 . S
C2586 C2582 1.368 . S
C2586 C2585 1.523 . S
H2587 C2562 0.950 . S
H2588 C2564 0.950 . S
H2589 C2565 0.949 . S
H2590 C2567 0.950 . S
H2591 C2569 0.950 . S
C2592 C2593 1.349 . S
C2592 C2594 1.327 . S
C2592 H2617 0.950 . S
C2593 C2592 1.349 . S
C2593 C2609 1.349 . S
C2594 C2592 1.327 . S
C2594 C2613 1.429 . S
C2594 H2618 0.950 . S
C2595 C2612 1.574 1_556 S
C2595 C2614 1.368 . S
C2595 H2619 0.949 . S
H2596 C2600 0.949 . S
C2597 C2598 1.349 . S
C2597 C2599 1.327 . S
C2597 H2620 0.950 . S
C2598 C2597 1.349 . S
C2598 C2610 1.349 . S
C2599 C2597 1.327 . S
C2599 C2615 1.429 . S
C2599 H2621 0.950 . S
C2600 H2596 0.949 . S
C2600 C2608 1.574 1_554 S
C2600 C2616 1.368 . S
H2601 C2609 0.950 . S
H2602 C2607 0.950 . S
H2603 C2608 0.949 . S
H2604 C2610 0.950 . S
H2605 C2611 0.950 . S
H2606 C2612 0.949 . S
C2607 H2602 0.950 . S
C2607 C2609 1.327 . S
C2607 C2613 1.429 . S
C2608 C2600 1.574 1_556 S
C2608 H2603 0.949 . S
C2608 C2614 1.368 . S
C2609 C2593 1.349 . S
C2609 H2601 0.950 . S
C2609 C2607 1.327 . S
C2610 C2598 1.349 . S
C2610 H2604 0.950 . S
C2610 C2611 1.327 . S
C2611 H2605 0.950 . S
C2611 C2610 1.327 . S
C2611 C2615 1.429 . S
C2612 C2595 1.574 1_554 S
C2612 H2606 0.949 . S
C2612 C2616 1.368 . S
C2613 C2594 1.429 . S
C2613 C2607 1.429 . S
C2613 C2614 1.523 . S
C2614 C2595 1.368 . S
C2614 C2608 1.368 . S
C2614 C2613 1.523 . S
C2615 C2599 1.429 . S
C2615 C2611 1.429 . S
C2615 C2616 1.523 . S
C2616 C2600 1.368 . S
C2616 C2612 1.368 . S
C2616 C2615 1.523 . S
H2617 C2592 0.950 . S
H2618 C2594 0.950 . S
H2619 C2595 0.949 . S
H2620 C2597 0.950 . S
H2621 C2599 0.950 . S
C2622 C2623 1.349 . S
C2622 C2624 1.327 . S
C2622 H2647 0.950 . S
C2623 C2622 1.349 . S
C2623 C2639 1.349 . S
C2624 C2622 1.327 . S
C2624 C2643 1.429 . S
C2624 H2648 0.950 . S
C2625 C2642 1.574 1_556 S
C2625 C2644 1.368 . S
C2625 H2649 0.949 . S
H2626 C2630 0.949 . S
C2627 C2628 1.349 . S
C2627 C2629 1.327 . S
C2627 H2650 0.950 . S
C2628 C2627 1.349 . S
C2628 C2640 1.349 . S
C2629 C2627 1.327 . S
C2629 C2645 1.429 . S
C2629 H2651 0.950 . S
C2630 H2626 0.949 . S
C2630 C2638 1.574 1_554 S
C2630 C2646 1.368 . S
H2631 C2639 0.950 . S
H2632 C2637 0.950 . S
H2633 C2638 0.949 . S
H2634 C2640 0.950 . S
H2635 C2641 0.950 . S
H2636 C2642 0.949 . S
C2637 H2632 0.950 . S
C2637 C2639 1.327 . S
C2637 C2643 1.429 . S
C2638 C2630 1.574 1_556 S
C2638 H2633 0.949 . S
C2638 C2644 1.368 . S
C2639 C2623 1.349 . S
C2639 H2631 0.950 . S
C2639 C2637 1.327 . S
C2640 C2628 1.349 . S
C2640 H2634 0.950 . S
C2640 C2641 1.327 . S
C2641 H2635 0.950 . S
C2641 C2640 1.327 . S
C2641 C2645 1.429 . S
C2642 C2625 1.574 1_554 S
C2642 H2636 0.949 . S
C2642 C2646 1.368 . S
C2643 C2624 1.429 . S
C2643 C2637 1.429 . S
C2643 C2644 1.523 . S
C2644 C2625 1.368 . S
C2644 C2638 1.368 . S
C2644 C2643 1.523 . S
C2645 C2629 1.429 . S
C2645 C2641 1.429 . S
C2645 C2646 1.523 . S
C2646 C2630 1.368 . S
C2646 C2642 1.368 . S
C2646 C2645 1.523 . S
H2647 C2622 0.950 . S
H2648 C2624 0.950 . S
H2649 C2625 0.949 . S
H2650 C2627 0.950 . S
H2651 C2629 0.950 . S
C2652 C2653 1.349 . S
C2652 C2654 1.327 . S
C2652 H2677 0.950 . S
C2653 C2652 1.349 . S
C2653 C2669 1.349 . S
C2654 C2652 1.327 . S
C2654 C2673 1.429 . S
C2654 H2678 0.950 . S
C2655 C2672 1.574 . S
C2655 C2674 1.368 . S
C2655 H2679 0.949 . S
H2656 C2660 0.949 . S
C2657 C2658 1.349 . S
C2657 C2659 1.327 . S
C2657 H2680 0.950 . S
C2658 C2657 1.349 . S
C2658 C2670 1.349 . S
C2659 C2657 1.327 . S
C2659 C2675 1.429 . S
C2659 H2681 0.950 . S
C2660 H2656 0.949 . S
C2660 C2668 1.574 . S
C2660 C2676 1.368 . S
H2661 C2669 0.950 . S
H2662 C2667 0.950 . S
H2663 C2668 0.949 . S
H2664 C2670 0.950 . S
H2665 C2671 0.950 . S
H2666 C2672 0.949 . S
C2667 H2662 0.950 . S
C2667 C2669 1.327 . S
C2667 C2673 1.429 . S
C2668 C2660 1.574 . S
C2668 H2663 0.949 . S
C2668 C2674 1.368 . S
C2669 C2653 1.349 . S
C2669 H2661 0.950 . S
C2669 C2667 1.327 . S
C2670 C2658 1.349 . S
C2670 H2664 0.950 . S
C2670 C2671 1.327 . S
C2671 H2665 0.950 . S
C2671 C2670 1.327 . S
C2671 C2675 1.429 . S
C2672 C2655 1.574 . S
C2672 H2666 0.949 . S
C2672 C2676 1.368 . S
C2673 C2654 1.429 . S
C2673 C2667 1.429 . S
C2673 C2674 1.523 . S
C2674 C2655 1.368 . S
C2674 C2668 1.368 . S
C2674 C2673 1.523 . S
C2675 C2659 1.429 . S
C2675 C2671 1.429 . S
C2675 C2676 1.523 . S
C2676 C2660 1.368 . S
C2676 C2672 1.368 . S
C2676 C2675 1.523 . S
H2677 C2652 0.950 . S
H2678 C2654 0.950 . S
H2679 C2655 0.949 . S
H2680 C2657 0.950 . S
H2681 C2659 0.950 . S
C2682 C2683 1.349 . S
C2682 C2684 1.327 . S
C2682 H2707 0.950 . S
C2683 C2682 1.349 . S
C2683 C2699 1.349 . S
C2684 C2682 1.327 . S
C2684 C2703 1.429 . S
C2684 H2708 0.950 . S
C2685 C2702 1.574 1_556 S
C2685 C2704 1.368 . S
C2685 H2709 0.949 . S
H2686 C2690 0.949 . S
C2687 C2688 1.349 . S
C2687 C2689 1.327 . S
C2687 H2710 0.950 . S
C2688 C2687 1.349 . S
C2688 C2700 1.349 . S
C2689 C2687 1.327 . S
C2689 C2705 1.429 . S
C2689 H2711 0.950 . S
C2690 H2686 0.949 . S
C2690 C2698 1.574 1_554 S
C2690 C2706 1.368 . S
H2691 C2699 0.950 . S
H2692 C2697 0.950 . S
H2693 C2698 0.949 . S
H2694 C2700 0.950 . S
H2695 C2701 0.950 . S
H2696 C2702 0.949 . S
C2697 H2692 0.950 . S
C2697 C2699 1.327 . S
C2697 C2703 1.429 . S
C2698 C2690 1.574 1_556 S
C2698 H2693 0.949 . S
C2698 C2704 1.368 . S
C2699 C2683 1.349 . S
C2699 H2691 0.950 . S
C2699 C2697 1.327 . S
C2700 C2688 1.349 . S
C2700 H2694 0.950 . S
C2700 C2701 1.327 . S
C2701 H2695 0.950 . S
C2701 C2700 1.327 . S
C2701 C2705 1.429 . S
C2702 C2685 1.574 1_554 S
C2702 H2696 0.949 . S
C2702 C2706 1.368 . S
C2703 C2684 1.429 . S
C2703 C2697 1.429 . S
C2703 C2704 1.523 . S
C2704 C2685 1.368 . S
C2704 C2698 1.368 . S
C2704 C2703 1.523 . S
C2705 C2689 1.429 . S
C2705 C2701 1.429 . S
C2705 C2706 1.523 . S
C2706 C2690 1.368 . S
C2706 C2702 1.368 . S
C2706 C2705 1.523 . S
H2707 C2682 0.950 . S
H2708 C2684 0.950 . S
H2709 C2685 0.949 . S
H2710 C2687 0.950 . S
H2711 C2689 0.950 . S
C2712 C2713 1.349 . S
C2712 C2714 1.327 . S
C2712 H2737 0.950 . S
C2713 C2712 1.349 . S
C2713 C2729 1.349 . S
C2714 C2712 1.327 . S
C2714 C2733 1.429 . S
C2714 H2738 0.950 . S
C2715 C2732 1.574 . S
C2715 C2734 1.368 . S
C2715 H2739 0.949 . S
H2716 C2720 0.949 . S
C2717 C2718 1.349 . S
C2717 C2719 1.327 . S
C2717 H2740 0.950 . S
C2718 C2717 1.349 . S
C2718 C2730 1.349 . S
C2719 C2717 1.327 . S
C2719 C2735 1.429 . S
C2719 H2741 0.950 . S
C2720 H2716 0.949 . S
C2720 C2728 1.574 . S
C2720 C2736 1.368 . S
H2721 C2729 0.950 . S
H2722 C2727 0.950 . S
H2723 C2728 0.949 . S
H2724 C2730 0.950 . S
H2725 C2731 0.950 . S
H2726 C2732 0.949 . S
C2727 H2722 0.950 . S
C2727 C2729 1.327 . S
C2727 C2733 1.429 . S
C2728 C2720 1.574 . S
C2728 H2723 0.949 . S
C2728 C2734 1.368 . S
C2729 C2713 1.349 . S
C2729 H2721 0.950 . S
C2729 C2727 1.327 . S
C2730 C2718 1.349 . S
C2730 H2724 0.950 . S
C2730 C2731 1.327 . S
C2731 H2725 0.950 . S
C2731 C2730 1.327 . S
C2731 C2735 1.429 . S
C2732 C2715 1.574 . S
C2732 H2726 0.949 . S
C2732 C2736 1.368 . S
C2733 C2714 1.429 . S
C2733 C2727 1.429 . S
C2733 C2734 1.523 . S
C2734 C2715 1.368 . S
C2734 C2728 1.368 . S
C2734 C2733 1.523 . S
C2735 C2719 1.429 . S
C2735 C2731 1.429 . S
C2735 C2736 1.523 . S
C2736 C2720 1.368 . S
C2736 C2732 1.368 . S
C2736 C2735 1.523 . S
H2737 C2712 0.950 . S
H2738 C2714 0.950 . S
H2739 C2715 0.949 . S
H2740 C2717 0.950 . S
H2741 C2719 0.950 . S
C2742 C2743 1.349 . S
C2742 C2744 1.327 . S
C2742 H2767 0.950 . S
C2743 C2742 1.349 . S
C2743 C2759 1.349 . S
C2744 C2742 1.327 . S
C2744 C2763 1.429 . S
C2744 H2768 0.950 . S
C2745 C2762 1.574 1_556 S
C2745 C2764 1.368 . S
C2745 H2769 0.949 . S
H2746 C2750 0.949 . S
C2747 C2748 1.349 . S
C2747 C2749 1.327 . S
C2747 H2770 0.950 . S
C2748 C2747 1.349 . S
C2748 C2760 1.349 . S
C2749 C2747 1.327 . S
C2749 C2765 1.429 . S
C2749 H2771 0.950 . S
C2750 H2746 0.949 . S
C2750 C2758 1.574 1_554 S
C2750 C2766 1.368 . S
H2751 C2759 0.950 . S
H2752 C2757 0.950 . S
H2753 C2758 0.949 . S
H2754 C2760 0.950 . S
H2755 C2761 0.950 . S
H2756 C2762 0.949 . S
C2757 H2752 0.950 . S
C2757 C2759 1.327 . S
C2757 C2763 1.429 . S
C2758 C2750 1.574 1_556 S
C2758 H2753 0.949 . S
C2758 C2764 1.368 . S
C2759 C2743 1.349 . S
C2759 H2751 0.950 . S
C2759 C2757 1.327 . S
C2760 C2748 1.349 . S
C2760 H2754 0.950 . S
C2760 C2761 1.327 . S
C2761 H2755 0.950 . S
C2761 C2760 1.327 . S
C2761 C2765 1.429 . S
C2762 C2745 1.574 1_554 S
C2762 H2756 0.949 . S
C2762 C2766 1.368 . S
C2763 C2744 1.429 . S
C2763 C2757 1.429 . S
C2763 C2764 1.523 . S
C2764 C2745 1.368 . S
C2764 C2758 1.368 . S
C2764 C2763 1.523 . S
C2765 C2749 1.429 . S
C2765 C2761 1.429 . S
C2765 C2766 1.523 . S
C2766 C2750 1.368 . S
C2766 C2762 1.368 . S
C2766 C2765 1.523 . S
H2767 C2742 0.950 . S
H2768 C2744 0.950 . S
H2769 C2745 0.949 . S
H2770 C2747 0.950 . S
H2771 C2749 0.950 . S
C2772 C2773 1.349 . S
C2772 C2774 1.327 . S
C2772 H2797 0.950 . S
C2773 C2772 1.349 . S
C2773 C2789 1.349 . S
C2774 C2772 1.327 . S
C2774 C2793 1.429 . S
C2774 H2798 0.950 . S
C2775 C2792 1.574 . S
C2775 C2794 1.368 . S
C2775 H2799 0.949 . S
H2776 C2780 0.949 . S
C2777 C2778 1.349 . S
C2777 C2779 1.327 . S
C2777 H2800 0.950 . S
C2778 C2777 1.349 . S
C2778 C2790 1.349 . S
C2779 C2777 1.327 . S
C2779 C2795 1.429 . S
C2779 H2801 0.950 . S
C2780 H2776 0.949 . S
C2780 C2788 1.574 . S
C2780 C2796 1.368 . S
H2781 C2789 0.950 . S
H2782 C2787 0.950 . S
H2783 C2788 0.949 . S
H2784 C2790 0.950 . S
H2785 C2791 0.950 . S
H2786 C2792 0.949 . S
C2787 H2782 0.950 . S
C2787 C2789 1.327 . S
C2787 C2793 1.429 . S
C2788 C2780 1.574 . S
C2788 H2783 0.949 . S
C2788 C2794 1.368 . S
C2789 C2773 1.349 . S
C2789 H2781 0.950 . S
C2789 C2787 1.327 . S
C2790 C2778 1.349 . S
C2790 H2784 0.950 . S
C2790 C2791 1.327 . S
C2791 H2785 0.950 . S
C2791 C2790 1.327 . S
C2791 C2795 1.429 . S
C2792 C2775 1.574 . S
C2792 H2786 0.949 . S
C2792 C2796 1.368 . S
C2793 C2774 1.429 . S
C2793 C2787 1.429 . S
C2793 C2794 1.523 . S
C2794 C2775 1.368 . S
C2794 C2788 1.368 . S
C2794 C2793 1.523 . S
C2795 C2779 1.429 . S
C2795 C2791 1.429 . S
C2795 C2796 1.523 . S
C2796 C2780 1.368 . S
C2796 C2792 1.368 . S
C2796 C2795 1.523 . S
H2797 C2772 0.950 . S
H2798 C2774 0.950 . S
H2799 C2775 0.949 . S
H2800 C2777 0.950 . S
H2801 C2779 0.950 . S
C2802 C2803 1.349 . S
C2802 C2804 1.327 . S
C2802 H2827 0.950 . S
C2803 C2802 1.349 . S
C2803 C2819 1.349 . S
C2804 C2802 1.327 . S
C2804 C2823 1.429 . S
C2804 H2828 0.950 . S
C2805 C2822 1.574 . S
C2805 C2824 1.368 . S
C2805 H2829 0.949 . S
H2806 C2810 0.949 . S
C2807 C2808 1.349 . S
C2807 C2809 1.327 . S
C2807 H2830 0.950 . S
C2808 C2807 1.349 . S
C2808 C2820 1.349 . S
C2809 C2807 1.327 . S
C2809 C2825 1.429 . S
C2809 H2831 0.950 . S
C2810 H2806 0.949 . S
C2810 C2818 1.574 . S
C2810 C2826 1.368 . S
H2811 C2819 0.950 . S
H2812 C2817 0.950 . S
H2813 C2818 0.949 . S
H2814 C2820 0.950 . S
H2815 C2821 0.950 . S
H2816 C2822 0.949 . S
C2817 H2812 0.950 . S
C2817 C2819 1.327 . S
C2817 C2823 1.429 . S
C2818 C2810 1.574 . S
C2818 H2813 0.949 . S
C2818 C2824 1.368 . S
C2819 C2803 1.349 . S
C2819 H2811 0.950 . S
C2819 C2817 1.327 . S
C2820 C2808 1.349 . S
C2820 H2814 0.950 . S
C2820 C2821 1.327 . S
C2821 H2815 0.950 . S
C2821 C2820 1.327 . S
C2821 C2825 1.429 . S
C2822 C2805 1.574 . S
C2822 H2816 0.949 . S
C2822 C2826 1.368 . S
C2823 C2804 1.429 . S
C2823 C2817 1.429 . S
C2823 C2824 1.523 . S
C2824 C2805 1.368 . S
C2824 C2818 1.368 . S
C2824 C2823 1.523 . S
C2825 C2809 1.429 . S
C2825 C2821 1.429 . S
C2825 C2826 1.523 . S
C2826 C2810 1.368 . S
C2826 C2822 1.368 . S
C2826 C2825 1.523 . S
H2827 C2802 0.950 . S
H2828 C2804 0.950 . S
H2829 C2805 0.949 . S
H2830 C2807 0.950 . S
H2831 C2809 0.950 . S
C2832 C2833 1.349 . S
C2832 C2834 1.327 . S
C2832 H2857 0.950 . S
C2833 C2832 1.349 . S
C2833 C2849 1.349 . S
C2834 C2832 1.327 . S
C2834 C2853 1.429 . S
C2834 H2858 0.950 . S
C2835 C2852 1.574 . S
C2835 C2854 1.368 . S
C2835 H2859 0.949 . S
H2836 C2840 0.949 . S
C2837 C2838 1.349 . S
C2837 C2839 1.327 . S
C2837 H2860 0.950 . S
C2838 C2837 1.349 . S
C2838 C2850 1.349 . S
C2839 C2837 1.327 . S
C2839 C2855 1.429 . S
C2839 H2861 0.950 . S
C2840 H2836 0.949 . S
C2840 C2848 1.574 . S
C2840 C2856 1.368 . S
H2841 C2849 0.950 . S
H2842 C2847 0.950 . S
H2843 C2848 0.949 . S
H2844 C2850 0.950 . S
H2845 C2851 0.950 . S
H2846 C2852 0.949 . S
C2847 H2842 0.950 . S
C2847 C2849 1.327 . S
C2847 C2853 1.429 . S
C2848 C2840 1.574 . S
C2848 H2843 0.949 . S
C2848 C2854 1.368 . S
C2849 C2833 1.349 . S
C2849 H2841 0.950 . S
C2849 C2847 1.327 . S
C2850 C2838 1.349 . S
C2850 H2844 0.950 . S
C2850 C2851 1.327 . S
C2851 H2845 0.950 . S
C2851 C2850 1.327 . S
C2851 C2855 1.429 . S
C2852 C2835 1.574 . S
C2852 H2846 0.949 . S
C2852 C2856 1.368 . S
C2853 C2834 1.429 . S
C2853 C2847 1.429 . S
C2853 C2854 1.523 . S
C2854 C2835 1.368 . S
C2854 C2848 1.368 . S
C2854 C2853 1.523 . S
C2855 C2839 1.429 . S
C2855 C2851 1.429 . S
C2855 C2856 1.523 . S
C2856 C2840 1.368 . S
C2856 C2852 1.368 . S
C2856 C2855 1.523 . S
H2857 C2832 0.950 . S
H2858 C2834 0.950 . S
H2859 C2835 0.949 . S
H2860 C2837 0.950 . S
H2861 C2839 0.950 . S
C2862 C2863 1.349 . S
C2862 C2864 1.327 . S
C2862 H2887 0.950 . S
C2863 C2862 1.349 . S
C2863 C2879 1.349 . S
C2864 C2862 1.327 . S
C2864 C2883 1.429 . S
C2864 H2888 0.950 . S
C2865 C2882 1.574 . S
C2865 C2884 1.368 . S
C2865 H2889 0.949 . S
H2866 C2870 0.949 . S
C2867 C2868 1.349 . S
C2867 C2869 1.327 . S
C2867 H2890 0.950 . S
C2868 C2867 1.349 . S
C2868 C2880 1.349 . S
C2869 C2867 1.327 . S
C2869 C2885 1.429 . S
C2869 H2891 0.950 . S
C2870 H2866 0.949 . S
C2870 C2878 1.574 . S
C2870 C2886 1.368 . S
H2871 C2879 0.950 . S
H2872 C2877 0.950 . S
H2873 C2878 0.949 . S
H2874 C2880 0.950 . S
H2875 C2881 0.950 . S
H2876 C2882 0.949 . S
C2877 H2872 0.950 . S
C2877 C2879 1.327 . S
C2877 C2883 1.429 . S
C2878 C2870 1.574 . S
C2878 H2873 0.949 . S
C2878 C2884 1.368 . S
C2879 C2863 1.349 . S
C2879 H2871 0.950 . S
C2879 C2877 1.327 . S
C2880 C2868 1.349 . S
C2880 H2874 0.950 . S
C2880 C2881 1.327 . S
C2881 H2875 0.950 . S
C2881 C2880 1.327 . S
C2881 C2885 1.429 . S
C2882 C2865 1.574 . S
C2882 H2876 0.949 . S
C2882 C2886 1.368 . S
C2883 C2864 1.429 . S
C2883 C2877 1.429 . S
C2883 C2884 1.523 . S
C2884 C2865 1.368 . S
C2884 C2878 1.368 . S
C2884 C2883 1.523 . S
C2885 C2869 1.429 . S
C2885 C2881 1.429 . S
C2885 C2886 1.523 . S
C2886 C2870 1.368 . S
C2886 C2882 1.368 . S
C2886 C2885 1.523 . S
H2887 C2862 0.950 . S
H2888 C2864 0.950 . S
H2889 C2865 0.949 . S
H2890 C2867 0.950 . S
H2891 C2869 0.950 . S
C2892 C2893 1.349 . S
C2892 C2894 1.327 . S
C2892 H2917 0.950 . S
C2893 C2892 1.349 . S
C2893 C2909 1.349 . S
C2894 C2892 1.327 . S
C2894 C2913 1.429 . S
C2894 H2918 0.950 . S
C2895 C2912 1.574 . S
C2895 C2914 1.368 . S
C2895 H2919 0.949 . S
H2896 C2900 0.949 . S
C2897 C2898 1.349 . S
C2897 C2899 1.327 . S
C2897 H2920 0.950 . S
C2898 C2897 1.349 . S
C2898 C2910 1.349 . S
C2899 C2897 1.327 . S
C2899 C2915 1.429 . S
C2899 H2921 0.950 . S
C2900 H2896 0.949 . S
C2900 C2908 1.574 . S
C2900 C2916 1.368 . S
H2901 C2909 0.950 . S
H2902 C2907 0.950 . S
H2903 C2908 0.949 . S
H2904 C2910 0.950 . S
H2905 C2911 0.950 . S
H2906 C2912 0.949 . S
C2907 H2902 0.950 . S
C2907 C2909 1.327 . S
C2907 C2913 1.429 . S
C2908 C2900 1.574 . S
C2908 H2903 0.949 . S
C2908 C2914 1.368 . S
C2909 C2893 1.349 . S
C2909 H2901 0.950 . S
C2909 C2907 1.327 . S
C2910 C2898 1.349 . S
C2910 H2904 0.950 . S
C2910 C2911 1.327 . S
C2911 H2905 0.950 . S
C2911 C2910 1.327 . S
C2911 C2915 1.429 . S
C2912 C2895 1.574 . S
C2912 H2906 0.949 . S
C2912 C2916 1.368 . S
C2913 C2894 1.429 . S
C2913 C2907 1.429 . S
C2913 C2914 1.523 . S
C2914 C2895 1.368 . S
C2914 C2908 1.368 . S
C2914 C2913 1.523 . S
C2915 C2899 1.429 . S
C2915 C2911 1.429 . S
C2915 C2916 1.523 . S
C2916 C2900 1.368 . S
C2916 C2912 1.368 . S
C2916 C2915 1.523 . S
H2917 C2892 0.950 . S
H2918 C2894 0.950 . S
H2919 C2895 0.949 . S
H2920 C2897 0.950 . S
H2921 C2899 0.950 . S
C2922 C2923 1.349 . S
C2922 C2924 1.327 . S
C2922 H2947 0.950 . S
C2923 C2922 1.349 . S
C2923 C2939 1.349 . S
C2924 C2922 1.327 . S
C2924 C2943 1.429 . S
C2924 H2948 0.950 . S
C2925 C2942 1.574 . S
C2925 C2944 1.368 . S
C2925 H2949 0.949 . S
H2926 C2930 0.949 . S
C2927 C2928 1.349 . S
C2927 C2929 1.327 . S
C2927 H2950 0.950 . S
C2928 C2927 1.349 . S
C2928 C2940 1.349 . S
C2929 C2927 1.327 . S
C2929 C2945 1.429 . S
C2929 H2951 0.950 . S
C2930 H2926 0.949 . S
C2930 C2938 1.574 . S
C2930 C2946 1.368 . S
H2931 C2939 0.950 . S
H2932 C2937 0.950 . S
H2933 C2938 0.949 . S
H2934 C2940 0.950 . S
H2935 C2941 0.950 . S
H2936 C2942 0.949 . S
C2937 H2932 0.950 . S
C2937 C2939 1.327 . S
C2937 C2943 1.429 . S
C2938 C2930 1.574 . S
C2938 H2933 0.949 . S
C2938 C2944 1.368 . S
C2939 C2923 1.349 . S
C2939 H2931 0.950 . S
C2939 C2937 1.327 . S
C2940 C2928 1.349 . S
C2940 H2934 0.950 . S
C2940 C2941 1.327 . S
C2941 H2935 0.950 . S
C2941 C2940 1.327 . S
C2941 C2945 1.429 . S
C2942 C2925 1.574 . S
C2942 H2936 0.949 . S
C2942 C2946 1.368 . S
C2943 C2924 1.429 . S
C2943 C2937 1.429 . S
C2943 C2944 1.523 . S
C2944 C2925 1.368 . S
C2944 C2938 1.368 . S
C2944 C2943 1.523 . S
C2945 C2929 1.429 . S
C2945 C2941 1.429 . S
C2945 C2946 1.523 . S
C2946 C2930 1.368 . S
C2946 C2942 1.368 . S
C2946 C2945 1.523 . S
H2947 C2922 0.950 . S
H2948 C2924 0.950 . S
H2949 C2925 0.949 . S
H2950 C2927 0.950 . S
H2951 C2929 0.950 . S
C2952 C2953 1.349 . S
C2952 C2954 1.327 . S
C2952 H2977 0.950 . S
C2953 C2952 1.349 . S
C2953 C2969 1.349 . S
C2954 C2952 1.327 . S
C2954 C2973 1.429 . S
C2954 H2978 0.950 . S
C2955 C2972 1.574 . S
C2955 C2974 1.368 . S
C2955 H2979 0.949 . S
H2956 C2960 0.949 . S
C2957 C2958 1.349 . S
C2957 C2959 1.327 . S
C2957 H2980 0.950 . S
C2958 C2957 1.349 . S
C2958 C2970 1.349 . S
C2959 C2957 1.327 . S
C2959 C2975 1.429 . S
C2959 H2981 0.950 . S
C2960 H2956 0.949 . S
C2960 C2968 1.574 . S
C2960 C2976 1.368 . S
H2961 C2969 0.950 . S
H2962 C2967 0.950 . S
H2963 C2968 0.949 . S
H2964 C2970 0.950 . S
H2965 C2971 0.950 . S
H2966 C2972 0.949 . S
C2967 H2962 0.950 . S
C2967 C2969 1.327 . S
C2967 C2973 1.429 . S
C2968 C2960 1.574 . S
C2968 H2963 0.949 . S
C2968 C2974 1.368 . S
C2969 C2953 1.349 . S
C2969 H2961 0.950 . S
C2969 C2967 1.327 . S
C2970 C2958 1.349 . S
C2970 H2964 0.950 . S
C2970 C2971 1.327 . S
C2971 H2965 0.950 . S
C2971 C2970 1.327 . S
C2971 C2975 1.429 . S
C2972 C2955 1.574 . S
C2972 H2966 0.949 . S
C2972 C2976 1.368 . S
C2973 C2954 1.429 . S
C2973 C2967 1.429 . S
C2973 C2974 1.523 . S
C2974 C2955 1.368 . S
C2974 C2968 1.368 . S
C2974 C2973 1.523 . S
C2975 C2959 1.429 . S
C2975 C2971 1.429 . S
C2975 C2976 1.523 . S
C2976 C2960 1.368 . S
C2976 C2972 1.368 . S
C2976 C2975 1.523 . S
H2977 C2952 0.950 . S
H2978 C2954 0.950 . S
H2979 C2955 0.949 . S
H2980 C2957 0.950 . S
H2981 C2959 0.950 . S
C2982 C2983 1.349 . S
C2982 C2984 1.327 . S
C2982 H3007 0.950 . S
C2983 C2982 1.349 . S
C2983 C2999 1.349 . S
C2984 C2982 1.327 . S
C2984 C3003 1.429 . S
C2984 H3008 0.950 . S
C2985 C3002 1.574 . S
C2985 C3004 1.368 . S
C2985 H3009 0.949 . S
H2986 C2990 0.949 . S
C2987 C2988 1.349 . S
C2987 C2989 1.327 . S
C2987 H3010 0.950 . S
C2988 C2987 1.349 . S
C2988 C3000 1.349 . S
C2989 C2987 1.327 . S
C2989 C3005 1.429 . S
C2989 H3011 0.950 . S
C2990 H2986 0.949 . S
C2990 C2998 1.574 . S
C2990 C3006 1.368 . S
H2991 C2999 0.950 . S
H2992 C2997 0.950 . S
H2993 C2998 0.949 . S
H2994 C3000 0.950 . S
H2995 C3001 0.950 . S
H2996 C3002 0.949 . S
C2997 H2992 0.950 . S
C2997 C2999 1.327 . S
C2997 C3003 1.429 . S
C2998 C2990 1.574 . S
C2998 H2993 0.949 . S
C2998 C3004 1.368 . S
C2999 C2983 1.349 . S
C2999 H2991 0.950 . S
C2999 C2997 1.327 . S
C3000 C2988 1.349 . S
C3000 H2994 0.950 . S
C3000 C3001 1.327 . S
C3001 H2995 0.950 . S
C3001 C3000 1.327 . S
C3001 C3005 1.429 . S
C3002 C2985 1.574 . S
C3002 H2996 0.949 . S
C3002 C3006 1.368 . S
C3003 C2984 1.429 . S
C3003 C2997 1.429 . S
C3003 C3004 1.523 . S
C3004 C2985 1.368 . S
C3004 C2998 1.368 . S
C3004 C3003 1.523 . S
C3005 C2989 1.429 . S
C3005 C3001 1.429 . S
C3005 C3006 1.523 . S
C3006 C2990 1.368 . S
C3006 C3002 1.368 . S
C3006 C3005 1.523 . S
H3007 C2982 0.950 . S
H3008 C2984 0.950 . S
H3009 C2985 0.949 . S
H3010 C2987 0.950 . S
H3011 C2989 0.950 . S
C3012 C3013 1.349 . S
C3012 C3014 1.327 . S
C3012 H3037 0.950 . S
C3013 C3012 1.349 . S
C3013 C3029 1.349 . S
C3014 C3012 1.327 . S
C3014 C3033 1.429 . S
C3014 H3038 0.950 . S
C3015 C3032 1.574 . S
C3015 C3034 1.368 . S
C3015 H3039 0.949 . S
H3016 C3020 0.949 . S
C3017 C3018 1.349 . S
C3017 C3019 1.327 . S
C3017 H3040 0.950 . S
C3018 C3017 1.349 . S
C3018 C3030 1.349 . S
C3019 C3017 1.327 . S
C3019 C3035 1.429 . S
C3019 H3041 0.950 . S
C3020 H3016 0.949 . S
C3020 C3028 1.574 . S
C3020 C3036 1.368 . S
H3021 C3029 0.950 . S
H3022 C3027 0.950 . S
H3023 C3028 0.949 . S
H3024 C3030 0.950 . S
H3025 C3031 0.950 . S
H3026 C3032 0.949 . S
C3027 H3022 0.950 . S
C3027 C3029 1.327 . S
C3027 C3033 1.429 . S
C3028 C3020 1.574 . S
C3028 H3023 0.949 . S
C3028 C3034 1.368 . S
C3029 C3013 1.349 . S
C3029 H3021 0.950 . S
C3029 C3027 1.327 . S
C3030 C3018 1.349 . S
C3030 H3024 0.950 . S
C3030 C3031 1.327 . S
C3031 H3025 0.950 . S
C3031 C3030 1.327 . S
C3031 C3035 1.429 . S
C3032 C3015 1.574 . S
C3032 H3026 0.949 . S
C3032 C3036 1.368 . S
C3033 C3014 1.429 . S
C3033 C3027 1.429 . S
C3033 C3034 1.523 . S
C3034 C3015 1.368 . S
C3034 C3028 1.368 . S
C3034 C3033 1.523 . S
C3035 C3019 1.429 . S
C3035 C3031 1.429 . S
C3035 C3036 1.523 . S
C3036 C3020 1.368 . S
C3036 C3032 1.368 . S
C3036 C3035 1.523 . S
H3037 C3012 0.950 . S
H3038 C3014 0.950 . S
H3039 C3015 0.949 . S
H3040 C3017 0.950 . S
H3041 C3019 0.950 . S
C3042 C3043 1.349 . S
C3042 C3044 1.327 . S
C3042 H3067 0.950 . S
C3043 C3042 1.349 . S
C3043 C3059 1.349 . S
C3044 C3042 1.327 . S
C3044 C3063 1.429 . S
C3044 H3068 0.950 . S
C3045 C3062 1.574 . S
C3045 C3064 1.368 . S
C3045 H3069 0.949 . S
H3046 C3050 0.949 . S
C3047 C3048 1.349 . S
C3047 C3049 1.327 . S
C3047 H3070 0.950 . S
C3048 C3047 1.349 . S
C3048 C3060 1.349 . S
C3049 C3047 1.327 . S
C3049 C3065 1.429 . S
C3049 H3071 0.950 . S
C3050 H3046 0.949 . S
C3050 C3058 1.574 . S
C3050 C3066 1.368 . S
H3051 C3059 0.950 . S
H3052 C3057 0.950 . S
H3053 C3058 0.949 . S
H3054 C3060 0.950 . S
H3055 C3061 0.950 . S
H3056 C3062 0.949 . S
C3057 H3052 0.950 . S
C3057 C3059 1.327 . S
C3057 C3063 1.429 . S
C3058 C3050 1.574 . S
C3058 H3053 0.949 . S
C3058 C3064 1.368 . S
C3059 C3043 1.349 . S
C3059 H3051 0.950 . S
C3059 C3057 1.327 . S
C3060 C3048 1.349 . S
C3060 H3054 0.950 . S
C3060 C3061 1.327 . S
C3061 H3055 0.950 . S
C3061 C3060 1.327 . S
C3061 C3065 1.429 . S
C3062 C3045 1.574 . S
C3062 H3056 0.949 . S
C3062 C3066 1.368 . S
C3063 C3044 1.429 . S
C3063 C3057 1.429 . S
C3063 C3064 1.523 . S
C3064 C3045 1.368 . S
C3064 C3058 1.368 . S
C3064 C3063 1.523 . S
C3065 C3049 1.429 . S
C3065 C3061 1.429 . S
C3065 C3066 1.523 . S
C3066 C3050 1.368 . S
C3066 C3062 1.368 . S
C3066 C3065 1.523 . S
H3067 C3042 0.950 . S
H3068 C3044 0.950 . S
H3069 C3045 0.949 . S
H3070 C3047 0.950 . S
H3071 C3049 0.950 . S
C3072 C3073 1.349 . S
C3072 C3074 1.327 . S
C3072 H3097 0.950 . S
C3073 C3072 1.349 . S
C3073 C3089 1.349 . S
C3074 C3072 1.327 . S
C3074 C3093 1.429 . S
C3074 H3098 0.950 . S
C3075 C3092 1.574 . S
C3075 C3094 1.368 . S
C3075 H3099 0.949 . S
H3076 C3080 0.949 . S
C3077 C3078 1.349 . S
C3077 C3079 1.327 . S
C3077 H3100 0.950 . S
C3078 C3077 1.349 . S
C3078 C3090 1.349 . S
C3079 C3077 1.327 . S
C3079 C3095 1.429 . S
C3079 H3101 0.950 . S
C3080 H3076 0.949 . S
C3080 C3088 1.574 . S
C3080 C3096 1.368 . S
H3081 C3089 0.950 . S
H3082 C3087 0.950 . S
H3083 C3088 0.949 . S
H3084 C3090 0.950 . S
H3085 C3091 0.950 . S
H3086 C3092 0.949 . S
C3087 H3082 0.950 . S
C3087 C3089 1.327 . S
C3087 C3093 1.429 . S
C3088 C3080 1.574 . S
C3088 H3083 0.949 . S
C3088 C3094 1.368 . S
C3089 C3073 1.349 . S
C3089 H3081 0.950 . S
C3089 C3087 1.327 . S
C3090 C3078 1.349 . S
C3090 H3084 0.950 . S
C3090 C3091 1.327 . S
C3091 H3085 0.950 . S
C3091 C3090 1.327 . S
C3091 C3095 1.429 . S
C3092 C3075 1.574 . S
C3092 H3086 0.949 . S
C3092 C3096 1.368 . S
C3093 C3074 1.429 . S
C3093 C3087 1.429 . S
C3093 C3094 1.523 . S
C3094 C3075 1.368 . S
C3094 C3088 1.368 . S
C3094 C3093 1.523 . S
C3095 C3079 1.429 . S
C3095 C3091 1.429 . S
C3095 C3096 1.523 . S
C3096 C3080 1.368 . S
C3096 C3092 1.368 . S
C3096 C3095 1.523 . S
H3097 C3072 0.950 . S
H3098 C3074 0.950 . S
H3099 C3075 0.949 . S
H3100 C3077 0.950 . S
H3101 C3079 0.950 . S
C3102 C3103 1.349 . S
C3102 C3104 1.327 . S
C3102 H3127 0.950 . S
C3103 C3102 1.349 . S
C3103 C3119 1.349 . S
C3104 C3102 1.327 . S
C3104 C3123 1.429 . S
C3104 H3128 0.950 . S
C3105 C3122 1.574 . S
C3105 C3124 1.368 . S
C3105 H3129 0.949 . S
H3106 C3110 0.949 . S
C3107 C3108 1.349 . S
C3107 C3109 1.327 . S
C3107 H3130 0.950 . S
C3108 C3107 1.349 . S
C3108 C3120 1.349 . S
C3109 C3107 1.327 . S
C3109 C3125 1.429 . S
C3109 H3131 0.950 . S
C3110 H3106 0.949 . S
C3110 C3118 1.574 . S
C3110 C3126 1.368 . S
H3111 C3119 0.950 . S
H3112 C3117 0.950 . S
H3113 C3118 0.949 . S
H3114 C3120 0.950 . S
H3115 C3121 0.950 . S
H3116 C3122 0.949 . S
C3117 H3112 0.950 . S
C3117 C3119 1.327 . S
C3117 C3123 1.429 . S
C3118 C3110 1.574 . S
C3118 H3113 0.949 . S
C3118 C3124 1.368 . S
C3119 C3103 1.349 . S
C3119 H3111 0.950 . S
C3119 C3117 1.327 . S
C3120 C3108 1.349 . S
C3120 H3114 0.950 . S
C3120 C3121 1.327 . S
C3121 H3115 0.950 . S
C3121 C3120 1.327 . S
C3121 C3125 1.429 . S
C3122 C3105 1.574 . S
C3122 H3116 0.949 . S
C3122 C3126 1.368 . S
C3123 C3104 1.429 . S
C3123 C3117 1.429 . S
C3123 C3124 1.523 . S
C3124 C3105 1.368 . S
C3124 C3118 1.368 . S
C3124 C3123 1.523 . S
C3125 C3109 1.429 . S
C3125 C3121 1.429 . S
C3125 C3126 1.523 . S
C3126 C3110 1.368 . S
C3126 C3122 1.368 . S
C3126 C3125 1.523 . S
H3127 C3102 0.950 . S
H3128 C3104 0.950 . S
H3129 C3105 0.949 . S
H3130 C3107 0.950 . S
H3131 C3109 0.950 . S
C3132 C3133 1.349 . S
C3132 C3134 1.327 . S
C3132 H3157 0.950 . S
C3133 C3132 1.349 . S
C3133 C3149 1.349 . S
C3134 C3132 1.327 . S
C3134 C3153 1.429 . S
C3134 H3158 0.950 . S
C3135 C3152 1.574 . S
C3135 C3154 1.368 . S
C3135 H3159 0.949 . S
H3136 C3140 0.949 . S
C3137 C3138 1.349 . S
C3137 C3139 1.327 . S
C3137 H3160 0.950 . S
C3138 C3137 1.349 . S
C3138 C3150 1.349 . S
C3139 C3137 1.327 . S
C3139 C3155 1.429 . S
C3139 H3161 0.950 . S
C3140 H3136 0.949 . S
C3140 C3148 1.574 . S
C3140 C3156 1.368 . S
H3141 C3149 0.950 . S
H3142 C3147 0.950 . S
H3143 C3148 0.949 . S
H3144 C3150 0.950 . S
H3145 C3151 0.950 . S
H3146 C3152 0.949 . S
C3147 H3142 0.950 . S
C3147 C3149 1.327 . S
C3147 C3153 1.429 . S
C3148 C3140 1.574 . S
C3148 H3143 0.949 . S
C3148 C3154 1.368 . S
C3149 C3133 1.349 . S
C3149 H3141 0.950 . S
C3149 C3147 1.327 . S
C3150 C3138 1.349 . S
C3150 H3144 0.950 . S
C3150 C3151 1.327 . S
C3151 H3145 0.950 . S
C3151 C3150 1.327 . S
C3151 C3155 1.429 . S
C3152 C3135 1.574 . S
C3152 H3146 0.949 . S
C3152 C3156 1.368 . S
C3153 C3134 1.429 . S
C3153 C3147 1.429 . S
C3153 C3154 1.523 . S
C3154 C3135 1.368 . S
C3154 C3148 1.368 . S
C3154 C3153 1.523 . S
C3155 C3139 1.429 . S
C3155 C3151 1.429 . S
C3155 C3156 1.523 . S
C3156 C3140 1.368 . S
C3156 C3152 1.368 . S
C3156 C3155 1.523 . S
H3157 C3132 0.950 . S
H3158 C3134 0.950 . S
H3159 C3135 0.949 . S
H3160 C3137 0.950 . S
H3161 C3139 0.950 . S
C3162 C3163 1.349 . S
C3162 C3164 1.327 . S
C3162 H3187 0.950 . S
C3163 C3162 1.349 . S
C3163 C3179 1.349 . S
C3164 C3162 1.327 . S
C3164 C3183 1.429 . S
C3164 H3188 0.950 . S
C3165 C3182 1.574 . S
C3165 C3184 1.368 . S
C3165 H3189 0.949 . S
H3166 C3170 0.949 . S
C3167 C3168 1.349 . S
C3167 C3169 1.327 . S
C3167 H3190 0.950 . S
C3168 C3167 1.349 . S
C3168 C3180 1.349 . S
C3169 C3167 1.327 . S
C3169 C3185 1.429 . S
C3169 H3191 0.950 . S
C3170 H3166 0.949 . S
C3170 C3178 1.574 . S
C3170 C3186 1.368 . S
H3171 C3179 0.950 . S
H3172 C3177 0.950 . S
H3173 C3178 0.949 . S
H3174 C3180 0.950 . S
H3175 C3181 0.950 . S
H3176 C3182 0.949 . S
C3177 H3172 0.950 . S
C3177 C3179 1.327 . S
C3177 C3183 1.429 . S
C3178 C3170 1.574 . S
C3178 H3173 0.949 . S
C3178 C3184 1.368 . S
C3179 C3163 1.349 . S
C3179 H3171 0.950 . S
C3179 C3177 1.327 . S
C3180 C3168 1.349 . S
C3180 H3174 0.950 . S
C3180 C3181 1.327 . S
C3181 H3175 0.950 . S
C3181 C3180 1.327 . S
C3181 C3185 1.429 . S
C3182 C3165 1.574 . S
C3182 H3176 0.949 . S
C3182 C3186 1.368 . S
C3183 C3164 1.429 . S
C3183 C3177 1.429 . S
C3183 C3184 1.523 . S
C3184 C3165 1.368 . S
C3184 C3178 1.368 . S
C3184 C3183 1.523 . S
C3185 C3169 1.429 . S
C3185 C3181 1.429 . S
C3185 C3186 1.523 . S
C3186 C3170 1.368 . S
C3186 C3182 1.368 . S
C3186 C3185 1.523 . S
H3187 C3162 0.950 . S
H3188 C3164 0.950 . S
H3189 C3165 0.949 . S
H3190 C3167 0.950 . S
H3191 C3169 0.950 . S
C3192 C3193 1.349 . S
C3192 C3194 1.327 . S
C3192 H3217 0.950 . S
C3193 C3192 1.349 . S
C3193 C3209 1.349 . S
C3194 C3192 1.327 . S
C3194 C3213 1.429 . S
C3194 H3218 0.950 . S
C3195 C3212 1.574 . S
C3195 C3214 1.368 . S
C3195 H3219 0.949 . S
H3196 C3200 0.949 . S
C3197 C3198 1.349 . S
C3197 C3199 1.327 . S
C3197 H3220 0.950 . S
C3198 C3197 1.349 . S
C3198 C3210 1.349 . S
C3199 C3197 1.327 . S
C3199 C3215 1.429 . S
C3199 H3221 0.950 . S
C3200 H3196 0.949 . S
C3200 C3208 1.574 . S
C3200 C3216 1.368 . S
H3201 C3209 0.950 . S
H3202 C3207 0.950 . S
H3203 C3208 0.949 . S
H3204 C3210 0.950 . S
H3205 C3211 0.950 . S
H3206 C3212 0.949 . S
C3207 H3202 0.950 . S
C3207 C3209 1.327 . S
C3207 C3213 1.429 . S
C3208 C3200 1.574 . S
C3208 H3203 0.949 . S
C3208 C3214 1.368 . S
C3209 C3193 1.349 . S
C3209 H3201 0.950 . S
C3209 C3207 1.327 . S
C3210 C3198 1.349 . S
C3210 H3204 0.950 . S
C3210 C3211 1.327 . S
C3211 H3205 0.950 . S
C3211 C3210 1.327 . S
C3211 C3215 1.429 . S
C3212 C3195 1.574 . S
C3212 H3206 0.949 . S
C3212 C3216 1.368 . S
C3213 C3194 1.429 . S
C3213 C3207 1.429 . S
C3213 C3214 1.523 . S
C3214 C3195 1.368 . S
C3214 C3208 1.368 . S
C3214 C3213 1.523 . S
C3215 C3199 1.429 . S
C3215 C3211 1.429 . S
C3215 C3216 1.523 . S
C3216 C3200 1.368 . S
C3216 C3212 1.368 . S
C3216 C3215 1.523 . S
H3217 C3192 0.950 . S
H3218 C3194 0.950 . S
H3219 C3195 0.949 . S
H3220 C3197 0.950 . S
H3221 C3199 0.950 . S
C3222 C3223 1.349 . S
C3222 C3224 1.327 . S
C3222 H3247 0.950 . S
C3223 C3222 1.349 . S
C3223 C3239 1.349 . S
C3224 C3222 1.327 . S
C3224 C3243 1.429 . S
C3224 H3248 0.950 . S
C3225 C3242 1.574 . S
C3225 C3244 1.368 . S
C3225 H3249 0.949 . S
H3226 C3230 0.949 . S
C3227 C3228 1.349 . S
C3227 C3229 1.327 . S
C3227 H3250 0.950 . S
C3228 C3227 1.349 . S
C3228 C3240 1.349 . S
C3229 C3227 1.327 . S
C3229 C3245 1.429 . S
C3229 H3251 0.950 . S
C3230 H3226 0.949 . S
C3230 C3238 1.574 . S
C3230 C3246 1.368 . S
H3231 C3239 0.950 . S
H3232 C3237 0.950 . S
H3233 C3238 0.949 . S
H3234 C3240 0.950 . S
H3235 C3241 0.950 . S
H3236 C3242 0.949 . S
C3237 H3232 0.950 . S
C3237 C3239 1.327 . S
C3237 C3243 1.429 . S
C3238 C3230 1.574 . S
C3238 H3233 0.949 . S
C3238 C3244 1.368 . S
C3239 C3223 1.349 . S
C3239 H3231 0.950 . S
C3239 C3237 1.327 . S
C3240 C3228 1.349 . S
C3240 H3234 0.950 . S
C3240 C3241 1.327 . S
C3241 H3235 0.950 . S
C3241 C3240 1.327 . S
C3241 C3245 1.429 . S
C3242 C3225 1.574 . S
C3242 H3236 0.949 . S
C3242 C3246 1.368 . S
C3243 C3224 1.429 . S
C3243 C3237 1.429 . S
C3243 C3244 1.523 . S
C3244 C3225 1.368 . S
C3244 C3238 1.368 . S
C3244 C3243 1.523 . S
C3245 C3229 1.429 . S
C3245 C3241 1.429 . S
C3245 C3246 1.523 . S
C3246 C3230 1.368 . S
C3246 C3242 1.368 . S
C3246 C3245 1.523 . S
H3247 C3222 0.950 . S
H3248 C3224 0.950 . S
H3249 C3225 0.949 . S
H3250 C3227 0.950 . S
H3251 C3229 0.950 . S
C3252 C3253 1.349 . S
C3252 C3254 1.327 . S
C3252 H3277 0.950 . S
C3253 C3252 1.349 . S
C3253 C3269 1.349 . S
C3254 C3252 1.327 . S
C3254 C3273 1.429 . S
C3254 H3278 0.950 . S
C3255 C3272 1.574 . S
C3255 C3274 1.368 . S
C3255 H3279 0.949 . S
H3256 C3260 0.949 . S
C3257 C3258 1.349 . S
C3257 C3259 1.327 . S
C3257 H3280 0.950 . S
C3258 C3257 1.349 . S
C3258 C3270 1.349 . S
C3259 C3257 1.327 . S
C3259 C3275 1.429 . S
C3259 H3281 0.950 . S
C3260 H3256 0.949 . S
C3260 C3268 1.574 . S
C3260 C3276 1.368 . S
H3261 C3269 0.950 . S
H3262 C3267 0.950 . S
H3263 C3268 0.949 . S
H3264 C3270 0.950 . S
H3265 C3271 0.950 . S
H3266 C3272 0.949 . S
C3267 H3262 0.950 . S
C3267 C3269 1.327 . S
C3267 C3273 1.429 . S
C3268 C3260 1.574 . S
C3268 H3263 0.949 . S
C3268 C3274 1.368 . S
C3269 C3253 1.349 . S
C3269 H3261 0.950 . S
C3269 C3267 1.327 . S
C3270 C3258 1.349 . S
C3270 H3264 0.950 . S
C3270 C3271 1.327 . S
C3271 H3265 0.950 . S
C3271 C3270 1.327 . S
C3271 C3275 1.429 . S
C3272 C3255 1.574 . S
C3272 H3266 0.949 . S
C3272 C3276 1.368 . S
C3273 C3254 1.429 . S
C3273 C3267 1.429 . S
C3273 C3274 1.523 . S
C3274 C3255 1.368 . S
C3274 C3268 1.368 . S
C3274 C3273 1.523 . S
C3275 C3259 1.429 . S
C3275 C3271 1.429 . S
C3275 C3276 1.523 . S
C3276 C3260 1.368 . S
C3276 C3272 1.368 . S
C3276 C3275 1.523 . S
H3277 C3252 0.950 . S
H3278 C3254 0.950 . S
H3279 C3255 0.949 . S
H3280 C3257 0.950 . S
H3281 C3259 0.950 . S
C3282 C3283 1.349 . S
C3282 C3284 1.327 . S
C3282 H3307 0.950 . S
C3283 C3282 1.349 . S
C3283 C3299 1.349 . S
C3284 C3282 1.327 . S
C3284 C3303 1.429 . S
C3284 H3308 0.950 . S
C3285 C3302 1.574 . S
C3285 C3304 1.368 . S
C3285 H3309 0.949 . S
H3286 C3290 0.949 . S
C3287 C3288 1.349 . S
C3287 C3289 1.327 . S
C3287 H3310 0.950 . S
C3288 C3287 1.349 . S
C3288 C3300 1.349 . S
C3289 C3287 1.327 . S
C3289 C3305 1.429 . S
C3289 H3311 0.950 . S
C3290 H3286 0.949 . S
C3290 C3298 1.574 . S
C3290 C3306 1.368 . S
H3291 C3299 0.950 . S
H3292 C3297 0.950 . S
H3293 C3298 0.949 . S
H3294 C3300 0.950 . S
H3295 C3301 0.950 . S
H3296 C3302 0.949 . S
C3297 H3292 0.950 . S
C3297 C3299 1.327 . S
C3297 C3303 1.429 . S
C3298 C3290 1.574 . S
C3298 H3293 0.949 . S
C3298 C3304 1.368 . S
C3299 C3283 1.349 . S
C3299 H3291 0.950 . S
C3299 C3297 1.327 . S
C3300 C3288 1.349 . S
C3300 H3294 0.950 . S
C3300 C3301 1.327 . S
C3301 H3295 0.950 . S
C3301 C3300 1.327 . S
C3301 C3305 1.429 . S
C3302 C3285 1.574 . S
C3302 H3296 0.949 . S
C3302 C3306 1.368 . S
C3303 C3284 1.429 . S
C3303 C3297 1.429 . S
C3303 C3304 1.523 . S
C3304 C3285 1.368 . S
C3304 C3298 1.368 . S
C3304 C3303 1.523 . S
C3305 C3289 1.429 . S
C3305 C3301 1.429 . S
C3305 C3306 1.523 . S
C3306 C3290 1.368 . S
C3306 C3302 1.368 . S
C3306 C3305 1.523 . S
H3307 C3282 0.950 . S
H3308 C3284 0.950 . S
H3309 C3285 0.949 . S
H3310 C3287 0.950 . S
H3311 C3289 0.950 . S
C3312 C3313 1.349 . S
C3312 C3314 1.327 . S
C3312 H3337 0.950 . S
C3313 C3312 1.349 . S
C3313 C3329 1.349 . S
C3314 C3312 1.327 . S
C3314 C3333 1.429 . S
C3314 H3338 0.950 . S
C3315 C3332 1.574 . S
C3315 C3334 1.368 . S
C3315 H3339 0.949 . S
H3316 C3320 0.949 . S
C3317 C3318 1.349 . S
C3317 C3319 1.327 . S
C3317 H3340 0.950 . S
C3318 C3317 1.349 . S
C3318 C3330 1.349 . S
C3319 C3317 1.327 . S
C3319 C3335 1.429 . S
C3319 H3341 0.950 . S
C3320 H3316 0.949 . S
C3320 C3328 1.574 . S
C3320 C3336 1.368 . S
H3321 C3329 0.950 . S
H3322 C3327 0.950 . S
H3323 C3328 0.949 . S
H3324 C3330 0.950 . S
H3325 C3331 0.950 . S
H3326 C3332 0.949 . S
C3327 H3322 0.950 . S
C3327 C3329 1.327 . S
C3327 C3333 1.429 . S
C3328 C3320 1.574 . S
C3328 H3323 0.949 . S
C3328 C3334 1.368 . S
C3329 C3313 1.349 . S
C3329 H3321 0.950 . S
C3329 C3327 1.327 . S
C3330 C3318 1.349 . S
C3330 H3324 0.950 . S
C3330 C3331 1.327 . S
C3331 H3325 0.950 . S
C3331 C3330 1.327 . S
C3331 C3335 1.429 . S
C3332 C3315 1.574 . S
C3332 H3326 0.949 . S
C3332 C3336 1.368 . S
C3333 C3314 1.429 . S
C3333 C3327 1.429 . S
C3333 C3334 1.523 . S
C3334 C3315 1.368 . S
C3334 C3328 1.368 . S
C3334 C3333 1.523 . S
C3335 C3319 1.429 . S
C3335 C3331 1.429 . S
C3335 C3336 1.523 . S
C3336 C3320 1.368 . S
C3336 C3332 1.368 . S
C3336 C3335 1.523 . S
H3337 C3312 0.950 . S
H3338 C3314 0.950 . S
H3339 C3315 0.949 . S
H3340 C3317 0.950 . S
H3341 C3319 0.950 . S
C3342 C3343 1.349 . S
C3342 C3344 1.327 . S
C3342 H3367 0.950 . S
C3343 C3342 1.349 . S
C3343 C3359 1.349 . S
C3344 C3342 1.327 . S
C3344 C3363 1.429 . S
C3344 H3368 0.950 . S
C3345 C3362 1.574 . S
C3345 C3364 1.368 . S
C3345 H3369 0.949 . S
H3346 C3350 0.949 . S
C3347 C3348 1.349 . S
C3347 C3349 1.327 . S
C3347 H3370 0.950 . S
C3348 C3347 1.349 . S
C3348 C3360 1.349 . S
C3349 C3347 1.327 . S
C3349 C3365 1.429 . S
C3349 H3371 0.950 . S
C3350 H3346 0.949 . S
C3350 C3358 1.574 . S
C3350 C3366 1.368 . S
H3351 C3359 0.950 . S
H3352 C3357 0.950 . S
H3353 C3358 0.949 . S
H3354 C3360 0.950 . S
H3355 C3361 0.950 . S
H3356 C3362 0.949 . S
C3357 H3352 0.950 . S
C3357 C3359 1.327 . S
C3357 C3363 1.429 . S
C3358 C3350 1.574 . S
C3358 H3353 0.949 . S
C3358 C3364 1.368 . S
C3359 C3343 1.349 . S
C3359 H3351 0.950 . S
C3359 C3357 1.327 . S
C3360 C3348 1.349 . S
C3360 H3354 0.950 . S
C3360 C3361 1.327 . S
C3361 H3355 0.950 . S
C3361 C3360 1.327 . S
C3361 C3365 1.429 . S
C3362 C3345 1.574 . S
C3362 H3356 0.949 . S
C3362 C3366 1.368 . S
C3363 C3344 1.429 . S
C3363 C3357 1.429 . S
C3363 C3364 1.523 . S
C3364 C3345 1.368 . S
C3364 C3358 1.368 . S
C3364 C3363 1.523 . S
C3365 C3349 1.429 . S
C3365 C3361 1.429 . S
C3365 C3366 1.523 . S
C3366 C3350 1.368 . S
C3366 C3362 1.368 . S
C3366 C3365 1.523 . S
H3367 C3342 0.950 . S
H3368 C3344 0.950 . S
H3369 C3345 0.949 . S
H3370 C3347 0.950 . S
H3371 C3349 0.950 . S
C3372 C3373 1.349 . S
C3372 C3374 1.327 . S
C3372 H3397 0.950 . S
C3373 C3372 1.349 . S
C3373 C3389 1.349 . S
C3374 C3372 1.327 . S
C3374 C3393 1.429 . S
C3374 H3398 0.950 . S
C3375 C3392 1.574 . S
C3375 C3394 1.368 . S
C3375 H3399 0.949 . S
H3376 C3380 0.949 . S
C3377 C3378 1.349 . S
C3377 C3379 1.327 . S
C3377 H3400 0.950 . S
C3378 C3377 1.349 . S
C3378 C3390 1.349 . S
C3379 C3377 1.327 . S
C3379 C3395 1.429 . S
C3379 H3401 0.950 . S
C3380 H3376 0.949 . S
C3380 C3388 1.574 . S
C3380 C3396 1.368 . S
H3381 C3389 0.950 . S
H3382 C3387 0.950 . S
H3383 C3388 0.949 . S
H3384 C3390 0.950 . S
H3385 C3391 0.950 . S
H3386 C3392 0.949 . S
C3387 H3382 0.950 . S
C3387 C3389 1.327 . S
C3387 C3393 1.429 . S
C3388 C3380 1.574 . S
C3388 H3383 0.949 . S
C3388 C3394 1.368 . S
C3389 C3373 1.349 . S
C3389 H3381 0.950 . S
C3389 C3387 1.327 . S
C3390 C3378 1.349 . S
C3390 H3384 0.950 . S
C3390 C3391 1.327 . S
C3391 H3385 0.950 . S
C3391 C3390 1.327 . S
C3391 C3395 1.429 . S
C3392 C3375 1.574 . S
C3392 H3386 0.949 . S
C3392 C3396 1.368 . S
C3393 C3374 1.429 . S
C3393 C3387 1.429 . S
C3393 C3394 1.523 . S
C3394 C3375 1.368 . S
C3394 C3388 1.368 . S
C3394 C3393 1.523 . S
C3395 C3379 1.429 . S
C3395 C3391 1.429 . S
C3395 C3396 1.523 . S
C3396 C3380 1.368 . S
C3396 C3392 1.368 . S
C3396 C3395 1.523 . S
H3397 C3372 0.950 . S
H3398 C3374 0.950 . S
H3399 C3375 0.949 . S
H3400 C3377 0.950 . S
H3401 C3379 0.950 . S
C3402 C3403 1.349 . S
C3402 C3404 1.327 . S
C3402 H3427 0.950 . S
C3403 C3402 1.349 . S
C3403 C3419 1.349 . S
C3404 C3402 1.327 . S
C3404 C3423 1.429 . S
C3404 H3428 0.950 . S
C3405 C3422 1.574 . S
C3405 C3424 1.368 . S
C3405 H3429 0.949 . S
H3406 C3410 0.949 . S
C3407 C3408 1.349 . S
C3407 C3409 1.327 . S
C3407 H3430 0.950 . S
C3408 C3407 1.349 . S
C3408 C3420 1.349 . S
C3409 C3407 1.327 . S
C3409 C3425 1.429 . S
C3409 H3431 0.950 . S
C3410 H3406 0.949 . S
C3410 C3418 1.574 . S
C3410 C3426 1.368 . S
H3411 C3419 0.950 . S
H3412 C3417 0.950 . S
H3413 C3418 0.949 . S
H3414 C3420 0.950 . S
H3415 C3421 0.950 . S
H3416 C3422 0.949 . S
C3417 H3412 0.950 . S
C3417 C3419 1.327 . S
C3417 C3423 1.429 . S
C3418 C3410 1.574 . S
C3418 H3413 0.949 . S
C3418 C3424 1.368 . S
C3419 C3403 1.349 . S
C3419 H3411 0.950 . S
C3419 C3417 1.327 . S
C3420 C3408 1.349 . S
C3420 H3414 0.950 . S
C3420 C3421 1.327 . S
C3421 H3415 0.950 . S
C3421 C3420 1.327 . S
C3421 C3425 1.429 . S
C3422 C3405 1.574 . S
C3422 H3416 0.949 . S
C3422 C3426 1.368 . S
C3423 C3404 1.429 . S
C3423 C3417 1.429 . S
C3423 C3424 1.523 . S
C3424 C3405 1.368 . S
C3424 C3418 1.368 . S
C3424 C3423 1.523 . S
C3425 C3409 1.429 . S
C3425 C3421 1.429 . S
C3425 C3426 1.523 . S
C3426 C3410 1.368 . S
C3426 C3422 1.368 . S
C3426 C3425 1.523 . S
H3427 C3402 0.950 . S
H3428 C3404 0.950 . S
H3429 C3405 0.949 . S
H3430 C3407 0.950 . S
H3431 C3409 0.950 . S
C3432 C3433 1.349 . S
C3432 C3434 1.327 . S
C3432 H3457 0.950 . S
C3433 C3432 1.349 . S
C3433 C3449 1.349 . S
C3434 C3432 1.327 . S
C3434 C3453 1.429 . S
C3434 H3458 0.950 . S
C3435 C3452 1.574 . S
C3435 C3454 1.368 . S
C3435 H3459 0.949 . S
H3436 C3440 0.949 . S
C3437 C3438 1.349 . S
C3437 C3439 1.327 . S
C3437 H3460 0.950 . S
C3438 C3437 1.349 . S
C3438 C3450 1.349 . S
C3439 C3437 1.327 . S
C3439 C3455 1.429 . S
C3439 H3461 0.950 . S
C3440 H3436 0.949 . S
C3440 C3448 1.574 . S
C3440 C3456 1.368 . S
H3441 C3449 0.950 . S
H3442 C3447 0.950 . S
H3443 C3448 0.949 . S
H3444 C3450 0.950 . S
H3445 C3451 0.950 . S
H3446 C3452 0.949 . S
C3447 H3442 0.950 . S
C3447 C3449 1.327 . S
C3447 C3453 1.429 . S
C3448 C3440 1.574 . S
C3448 H3443 0.949 . S
C3448 C3454 1.368 . S
C3449 C3433 1.349 . S
C3449 H3441 0.950 . S
C3449 C3447 1.327 . S
C3450 C3438 1.349 . S
C3450 H3444 0.950 . S
C3450 C3451 1.327 . S
C3451 H3445 0.950 . S
C3451 C3450 1.327 . S
C3451 C3455 1.429 . S
C3452 C3435 1.574 . S
C3452 H3446 0.949 . S
C3452 C3456 1.368 . S
C3453 C3434 1.429 . S
C3453 C3447 1.429 . S
C3453 C3454 1.523 . S
C3454 C3435 1.368 . S
C3454 C3448 1.368 . S
C3454 C3453 1.523 . S
C3455 C3439 1.429 . S
C3455 C3451 1.429 . S
C3455 C3456 1.523 . S
C3456 C3440 1.368 . S
C3456 C3452 1.368 . S
C3456 C3455 1.523 . S
H3457 C3432 0.950 . S
H3458 C3434 0.950 . S
H3459 C3435 0.949 . S
H3460 C3437 0.950 . S
H3461 C3439 0.950 . S
C3462 C3463 1.349 . S
C3462 C3464 1.327 . S
C3462 H3487 0.950 . S
C3463 C3462 1.349 . S
C3463 C3479 1.349 . S
C3464 C3462 1.327 . S
C3464 C3483 1.429 . S
C3464 H3488 0.950 . S
C3465 C3482 1.574 . S
C3465 C3484 1.368 . S
C3465 H3489 0.949 . S
H3466 C3470 0.949 . S
C3467 C3468 1.349 . S
C3467 C3469 1.327 . S
C3467 H3490 0.950 . S
C3468 C3467 1.349 . S
C3468 C3480 1.349 . S
C3469 C3467 1.327 . S
C3469 C3485 1.429 . S
C3469 H3491 0.950 . S
C3470 H3466 0.949 . S
C3470 C3478 1.574 . S
C3470 C3486 1.368 . S
H3471 C3479 0.950 . S
H3472 C3477 0.950 . S
H3473 C3478 0.949 . S
H3474 C3480 0.950 . S
H3475 C3481 0.950 . S
H3476 C3482 0.949 . S
C3477 H3472 0.950 . S
C3477 C3479 1.327 . S
C3477 C3483 1.429 . S
C3478 C3470 1.574 . S
C3478 H3473 0.949 . S
C3478 C3484 1.368 . S
C3479 C3463 1.349 . S
C3479 H3471 0.950 . S
C3479 C3477 1.327 . S
C3480 C3468 1.349 . S
C3480 H3474 0.950 . S
C3480 C3481 1.327 . S
C3481 H3475 0.950 . S
C3481 C3480 1.327 . S
C3481 C3485 1.429 . S
C3482 C3465 1.574 . S
C3482 H3476 0.949 . S
C3482 C3486 1.368 . S
C3483 C3464 1.429 . S
C3483 C3477 1.429 . S
C3483 C3484 1.523 . S
C3484 C3465 1.368 . S
C3484 C3478 1.368 . S
C3484 C3483 1.523 . S
C3485 C3469 1.429 . S
C3485 C3481 1.429 . S
C3485 C3486 1.523 . S
C3486 C3470 1.368 . S
C3486 C3482 1.368 . S
C3486 C3485 1.523 . S
H3487 C3462 0.950 . S
H3488 C3464 0.950 . S
H3489 C3465 0.949 . S
H3490 C3467 0.950 . S
H3491 C3469 0.950 . S
C3492 C3493 1.349 . S
C3492 C3494 1.327 . S
C3492 H3517 0.950 . S
C3493 C3492 1.349 . S
C3493 C3509 1.349 . S
C3494 C3492 1.327 . S
C3494 C3513 1.429 . S
C3494 H3518 0.950 . S
C3495 C3512 1.574 . S
C3495 C3514 1.368 . S
C3495 H3519 0.949 . S
H3496 C3500 0.949 . S
C3497 C3498 1.349 . S
C3497 C3499 1.327 . S
C3497 H3520 0.950 . S
C3498 C3497 1.349 . S
C3498 C3510 1.349 . S
C3499 C3497 1.327 . S
C3499 C3515 1.429 . S
C3499 H3521 0.950 . S
C3500 H3496 0.949 . S
C3500 C3508 1.574 . S
C3500 C3516 1.368 . S
H3501 C3509 0.950 . S
H3502 C3507 0.950 . S
H3503 C3508 0.949 . S
H3504 C3510 0.950 . S
H3505 C3511 0.950 . S
H3506 C3512 0.949 . S
C3507 H3502 0.950 . S
C3507 C3509 1.327 . S
C3507 C3513 1.429 . S
C3508 C3500 1.574 . S
C3508 H3503 0.949 . S
C3508 C3514 1.368 . S
C3509 C3493 1.349 . S
C3509 H3501 0.950 . S
C3509 C3507 1.327 . S
C3510 C3498 1.349 . S
C3510 H3504 0.950 . S
C3510 C3511 1.327 . S
C3511 H3505 0.950 . S
C3511 C3510 1.327 . S
C3511 C3515 1.429 . S
C3512 C3495 1.574 . S
C3512 H3506 0.949 . S
C3512 C3516 1.368 . S
C3513 C3494 1.429 . S
C3513 C3507 1.429 . S
C3513 C3514 1.523 . S
C3514 C3495 1.368 . S
C3514 C3508 1.368 . S
C3514 C3513 1.523 . S
C3515 C3499 1.429 . S
C3515 C3511 1.429 . S
C3515 C3516 1.523 . S
C3516 C3500 1.368 . S
C3516 C3512 1.368 . S
C3516 C3515 1.523 . S
H3517 C3492 0.950 . S
H3518 C3494 0.950 . S
H3519 C3495 0.949 . S
H3520 C3497 0.950 . S
H3521 C3499 0.950 . S
C3522 C3523 1.349 . S
C3522 C3524 1.327 . S
C3522 H3547 0.950 . S
C3523 C3522 1.349 . S
C3523 C3539 1.349 . S
C3524 C3522 1.327 . S
C3524 C3543 1.429 . S
C3524 H3548 0.950 . S
C3525 C3542 1.574 . S
C3525 C3544 1.368 . S
C3525 H3549 0.949 . S
H3526 C3530 0.949 . S
C3527 C3528 1.349 . S
C3527 C3529 1.327 . S
C3527 H3550 0.950 . S
C3528 C3527 1.349 . S
C3528 C3540 1.349 . S
C3529 C3527 1.327 . S
C3529 C3545 1.429 . S
C3529 H3551 0.950 . S
C3530 H3526 0.949 . S
C3530 C3538 1.574 . S
C3530 C3546 1.368 . S
H3531 C3539 0.950 . S
H3532 C3537 0.950 . S
H3533 C3538 0.949 . S
H3534 C3540 0.950 . S
H3535 C3541 0.950 . S
H3536 C3542 0.949 . S
C3537 H3532 0.950 . S
C3537 C3539 1.327 . S
C3537 C3543 1.429 . S
C3538 C3530 1.574 . S
C3538 H3533 0.949 . S
C3538 C3544 1.368 . S
C3539 C3523 1.349 . S
C3539 H3531 0.950 . S
C3539 C3537 1.327 . S
C3540 C3528 1.349 . S
C3540 H3534 0.950 . S
C3540 C3541 1.327 . S
C3541 H3535 0.950 . S
C3541 C3540 1.327 . S
C3541 C3545 1.429 . S
C3542 C3525 1.574 . S
C3542 H3536 0.949 . S
C3542 C3546 1.368 . S
C3543 C3524 1.429 . S
C3543 C3537 1.429 . S
C3543 C3544 1.523 . S
C3544 C3525 1.368 . S
C3544 C3538 1.368 . S
C3544 C3543 1.523 . S
C3545 C3529 1.429 . S
C3545 C3541 1.429 . S
C3545 C3546 1.523 . S
C3546 C3530 1.368 . S
C3546 C3542 1.368 . S
C3546 C3545 1.523 . S
H3547 C3522 0.950 . S
H3548 C3524 0.950 . S
H3549 C3525 0.949 . S
H3550 C3527 0.950 . S
H3551 C3529 0.950 . S
C673 C283 1.465 . S
C678 C3 1.464 . S
C703 C21 1.365 . S
C708 C245 1.366 . S
C733 C31 1.464 . S
C738 C259 1.395 . S
C763 C273 1.378 . S
C768 C49 1.379 . S
C793 C329 1.369 . S
C798 C63 1.370 . S
C823 C73 1.462 . S
C828 C301 1.394 . S
C853 C91 1.378 . S
C858 C311 1.445 . S
C883 C101 1.470 . S
C888 C227 1.470 . S
C913 C115 1.458 . S
C918 C213 1.458 . S
C943 C133 1.374 . S
C948 C175 1.374 . S
C973 C143 1.443 . S
C978 C185 1.443 . S
C1003 C203 1.383 . S
C1008 C161 1.383 . S
C1033 C343 1.340 . S
C1038 C623 1.341 . S
C1063 C577 1.375 . S
C1068 C353 1.375 . S
C1093 C371 1.340 . S
C1098 C591 1.408 . S
C1123 C609 1.314 . S
C1128 C381 1.379 . S
C1153 C395 1.375 . S
C1158 C661 1.375 . S
C1183 C633 1.401 . S
C1188 C413 1.333 . S
C1213 C423 1.371 . S
C1218 C651 1.306 . S
C1243 C567 1.344 . S
C1248 C441 1.344 . S
C1273 C455 1.325 . S
C1278 C553 1.326 . S
C1303 C507 1.387 . S
C1308 C465 1.387 . S
C1333 C525 1.314 . S
C1338 C483 1.314 . S
C1363 C535 1.401 . S
C1368 C493 1.401 . S
C1393 C367 0.976 . S
C1398 C7 0.943 . S
C1423 C17 0.971 . S
C1428 C385 0.944 . S
C1453 C35 0.942 . S
C1458 C339 0.975 . S
C1483 C45 0.995 . S
C1488 C357 0.965 . S
C1513 C59 0.970 . S
C1518 C427 0.943 . S
C1543 C437 0.983 . S
C1548 C77 0.950 . S
C1573 C399 0.941 . S
C1578 C87 0.969 . S
C1603 C409 0.976 . S
C1608 C105 0.944 . S
C1633 C511 0.949 . S
C1638 C119 0.945 . S
C1663 C129 0.971 . S
C1668 C521 0.972 . S
C1693 C539 0.947 . S
C1698 C147 0.943 . S
C1723 C157 0.973 . S
C1728 C549 0.974 . S
C1753 C171 0.973 . S
C1758 C451 0.974 . S
C1783 C189 0.943 . S
C1788 C469 0.947 . S
C1813 C479 0.976 . S
C1818 C199 0.975 . S
C1843 C497 0.949 . S
C1848 C217 0.945 . S
C1873 C231 0.941 . S
C1878 C605 0.973 . S
C1903 C241 0.971 . S
C1908 C637 0.944 . S
C1933 C647 0.971 . S
C1938 C255 0.970 . S
C1963 C563 0.972 . S
C1968 C269 0.971 . S
C1993 C287 0.945 . S
C1998 C665 0.949 . S
C2023 C581 0.957 . S
C2028 C297 0.986 . S
C2053 C315 0.952 . S
C2058 C595 0.956 . S
C2083 C325 0.969 . S
C2088 C619 0.970 . S
C2113 C400 1.730 . S
C2118 C9 1.670 . S
C2143 C415 1.668 . S
C2148 C22 1.739 . S
C2173 C428 1.733 . S
C2178 C37 1.676 . S
C2203 C50 1.734 . S
C2208 C443 1.663 . S
C2233 C345 1.666 . S
C2238 C64 1.738 . S
C2263 C358 1.736 . S
C2268 C79 1.678 . S
C2293 C92 1.736 . S
C2298 C373 1.666 . S
C2323 C386 1.730 . S
C2328 C107 1.672 . S
C2353 C121 1.675 . S
C2358 C540 1.735 . S
C2383 C134 1.739 . S
C2388 C555 1.668 . S
C2413 C512 1.731 . S
C2418 C149 1.672 . S
C2443 C162 1.738 . S
C2448 C527 1.665 . S
C2473 C485 1.667 . S
C2478 C176 1.740 . S
C2503 C191 1.673 . S
C2508 C498 1.733 . S
C2533 C204 1.738 . S
C2538 C457 1.666 . S
C2563 C219 1.674 . S
C2568 C470 1.731 . S
C2593 C638 1.730 . S
C2598 C233 1.670 . S
C2623 C246 1.744 . S
C2628 C611 1.671 . S
C2653 C260 1.730 . S
C2658 C625 1.658 . S
C2683 C274 1.721 . S
C2688 C582 1.716 . S
C2713 C596 1.729 . S
C2718 C289 1.671 . S
C2743 C569 1.678 . S
C2748 C302 1.752 . S
C2773 C666 1.755 . S
C2778 C317 1.695 . S
C2803 C330 1.742 . S
C2808 C653 1.670 . S
C2833 C218 1.391 . S
C2838 C8 1.390 . S
C2863 C23 1.305 . S
C2868 C177 1.304 . S
C2893 C190 1.385 . S
C2898 C36 1.386 . S
C2923 C205 1.302 . S
C2928 C51 1.304 . S
C2953 C135 1.300 . S
C2958 C65 1.302 . S
C2983 C78 1.389 . S
C2988 C148 1.389 . S
C3013 C93 1.302 . S
C3018 C163 1.302 . S
C3043 C120 1.388 . S
C3048 C106 1.388 . S
C3073 C232 1.397 . S
C3078 C288 1.397 . S
C3103 C331 1.310 . S
C3108 C247 1.312 . S
C3133 C303 1.306 . S
C3138 C261 1.304 . S
C3163 C275 1.323 . S
C3168 C316 1.401 . S
C3193 C554 1.322 . S
C3198 C344 1.320 . S
C3223 C513 1.239 . S
C3228 C359 1.240 . S
C3253 C372 1.322 . S
C3258 C526 1.323 . S
C3283 C541 1.242 . S
C3288 C387 1.242 . S
C3313 C471 1.238 . S
C3318 C401 1.240 . S
C3343 C414 1.319 . S
C3348 C484 1.321 . S
C3373 C429 1.242 . S
C3378 C499 1.243 . S
C3403 C442 1.321 . S
C3408 C456 1.322 . S
C3433 C568 1.314 . S
C3438 C624 1.316 . S
C3463 C667 1.243 . S
C3468 C583 1.246 . S
C3493 C639 1.240 . S
C3498 C597 1.238 . S
C3523 C652 1.319 . S
C3528 C610 1.317 . S
