# Generated by pormake.
# Topology unu, (4)-cn, num edge types: 1
# Building blocks:
#     Node 0, Type 0, BuildingBlock: QUQFOY_clean_sbu_1, # of connection points: 4
#     Node 1, Type 0, BuildingBlock: QUQFOY_clean_sbu_1, # of connection points: 4
#     Node 2, Type 0, BuildingBlock: QUQFOY_clean_sbu_1, # of connection points: 4
#     Node 3, Type 0, BuildingBlock: QUQFOY_clean_sbu_1, # of connection points: 4
#     Node 4, Type 0, BuildingBlock: QUQFOY_clean_sbu_1, # of connection points: 4
#     Node 5, Type 0, BuildingBlock: QUQFOY_clean_sbu_1, # of connection points: 4
#     Node 6, Type 0, BuildingBlock: QUQFOY_clean_sbu_1, # of connection points: 4
#     Node 7, Type 0, BuildingBlock: QUQFOY_clean_sbu_1, # of connection points: 4
#     Node 8, Type 0, BuildingBlock: QUQFOY_clean_sbu_1, # of connection points: 4
#     Node 9, Type 0, BuildingBlock: QUQFOY_clean_sbu_1, # of connection points: 4
#     Node 10, Type 0, BuildingBlock: QUQFOY_clean_sbu_1, # of connection points: 4
#     Node 11, Type 0, BuildingBlock: QUQFOY_clean_sbu_1, # of connection points: 4
#     Node 12, Type 0, BuildingBlock: QUQFOY_clean_sbu_1, # of connection points: 4
#     Node 13, Type 0, BuildingBlock: QUQFOY_clean_sbu_1, # of connection points: 4
#     Node 14, Type 0, BuildingBlock: QUQFOY_clean_sbu_1, # of connection points: 4
#     Node 15, Type 0, BuildingBlock: QUQFOY_clean_sbu_1, # of connection points: 4
#     Node 16, Type 0, BuildingBlock: QUQFOY_clean_sbu_1, # of connection points: 4
#     Node 17, Type 0, BuildingBlock: QUQFOY_clean_sbu_1, # of connection points: 4
#     Node 18, Type 0, BuildingBlock: QUQFOY_clean_sbu_1, # of connection points: 4
#     Node 19, Type 0, BuildingBlock: QUQFOY_clean_sbu_1, # of connection points: 4
#     Node 20, Type 0, BuildingBlock: QUQFOY_clean_sbu_1, # of connection points: 4
#     Node 21, Type 0, BuildingBlock: QUQFOY_clean_sbu_1, # of connection points: 4
#     Node 22, Type 0, BuildingBlock: QUQFOY_clean_sbu_1, # of connection points: 4
#     Node 23, Type 0, BuildingBlock: QUQFOY_clean_sbu_1, # of connection points: 4
#     Node 24, Type 0, BuildingBlock: QUQFOY_clean_sbu_1, # of connection points: 4
#     Node 25, Type 0, BuildingBlock: QUQFOY_clean_sbu_1, # of connection points: 4
#     Node 26, Type 0, BuildingBlock: QUQFOY_clean_sbu_1, # of connection points: 4
#     Node 27, Type 0, BuildingBlock: QUQFOY_clean_sbu_1, # of connection points: 4
#     Node 28, Type 0, BuildingBlock: QUQFOY_clean_sbu_1, # of connection points: 4
#     Node 29, Type 0, BuildingBlock: QUQFOY_clean_sbu_1, # of connection points: 4
#     Node 30, Type 0, BuildingBlock: QUQFOY_clean_sbu_1, # of connection points: 4
#     Node 31, Type 0, BuildingBlock: QUQFOY_clean_sbu_1, # of connection points: 4
#     Node 32, Type 0, BuildingBlock: QUQFOY_clean_sbu_1, # of connection points: 4
#     Node 33, Type 0, BuildingBlock: QUQFOY_clean_sbu_1, # of connection points: 4
#     Node 34, Type 0, BuildingBlock: QUQFOY_clean_sbu_1, # of connection points: 4
#     Node 35, Type 0, BuildingBlock: QUQFOY_clean_sbu_1, # of connection points: 4
#     Edge 36, Type (0, 0), BuildingBlock: UVAHIK_clean_linker_0, # of connection points: 2
#     Edge 37, Type (0, 0), BuildingBlock: UVAHIK_clean_linker_0, # of connection points: 2
#     Edge 38, Type (0, 0), BuildingBlock: UVAHIK_clean_linker_0, # of connection points: 2
#     Edge 39, Type (0, 0), BuildingBlock: UVAHIK_clean_linker_0, # of connection points: 2
#     Edge 40, Type (0, 0), BuildingBlock: UVAHIK_clean_linker_0, # of connection points: 2
#     Edge 41, Type (0, 0), BuildingBlock: UVAHIK_clean_linker_0, # of connection points: 2
#     Edge 42, Type (0, 0), BuildingBlock: UVAHIK_clean_linker_0, # of connection points: 2
#     Edge 43, Type (0, 0), BuildingBlock: UVAHIK_clean_linker_0, # of connection points: 2
#     Edge 44, Type (0, 0), BuildingBlock: UVAHIK_clean_linker_0, # of connection points: 2
#     Edge 45, Type (0, 0), BuildingBlock: UVAHIK_clean_linker_0, # of connection points: 2
#     Edge 46, Type (0, 0), BuildingBlock: UVAHIK_clean_linker_0, # of connection points: 2
#     Edge 47, Type (0, 0), BuildingBlock: UVAHIK_clean_linker_0, # of connection points: 2
#     Edge 48, Type (0, 0), BuildingBlock: UVAHIK_clean_linker_0, # of connection points: 2
#     Edge 49, Type (0, 0), BuildingBlock: UVAHIK_clean_linker_0, # of connection points: 2
#     Edge 50, Type (0, 0), BuildingBlock: UVAHIK_clean_linker_0, # of connection points: 2
#     Edge 51, Type (0, 0), BuildingBlock: UVAHIK_clean_linker_0, # of connection points: 2
#     Edge 52, Type (0, 0), BuildingBlock: UVAHIK_clean_linker_0, # of connection points: 2
#     Edge 53, Type (0, 0), BuildingBlock: UVAHIK_clean_linker_0, # of connection points: 2
#     Edge 54, Type (0, 0), BuildingBlock: UVAHIK_clean_linker_0, # of connection points: 2
#     Edge 55, Type (0, 0), BuildingBlock: UVAHIK_clean_linker_0, # of connection points: 2
#     Edge 56, Type (0, 0), BuildingBlock: UVAHIK_clean_linker_0, # of connection points: 2
#     Edge 57, Type (0, 0), BuildingBlock: UVAHIK_clean_linker_0, # of connection points: 2
#     Edge 58, Type (0, 0), BuildingBlock: UVAHIK_clean_linker_0, # of connection points: 2
#     Edge 59, Type (0, 0), BuildingBlock: UVAHIK_clean_linker_0, # of connection points: 2
#     Edge 60, Type (0, 0), BuildingBlock: UVAHIK_clean_linker_0, # of connection points: 2
#     Edge 61, Type (0, 0), BuildingBlock: UVAHIK_clean_linker_0, # of connection points: 2
#     Edge 62, Type (0, 0), BuildingBlock: UVAHIK_clean_linker_0, # of connection points: 2
#     Edge 63, Type (0, 0), BuildingBlock: UVAHIK_clean_linker_0, # of connection points: 2
#     Edge 64, Type (0, 0), BuildingBlock: UVAHIK_clean_linker_0, # of connection points: 2
#     Edge 65, Type (0, 0), BuildingBlock: UVAHIK_clean_linker_0, # of connection points: 2
#     Edge 66, Type (0, 0), BuildingBlock: UVAHIK_clean_linker_0, # of connection points: 2
#     Edge 67, Type (0, 0), BuildingBlock: UVAHIK_clean_linker_0, # of connection points: 2
#     Edge 68, Type (0, 0), BuildingBlock: UVAHIK_clean_linker_0, # of connection points: 2
#     Edge 69, Type (0, 0), BuildingBlock: UVAHIK_clean_linker_0, # of connection points: 2
#     Edge 70, Type (0, 0), BuildingBlock: UVAHIK_clean_linker_0, # of connection points: 2
#     Edge 71, Type (0, 0), BuildingBlock: UVAHIK_clean_linker_0, # of connection points: 2
#     Edge 72, Type (0, 0), BuildingBlock: UVAHIK_clean_linker_0, # of connection points: 2
#     Edge 73, Type (0, 0), BuildingBlock: UVAHIK_clean_linker_0, # of connection points: 2
#     Edge 74, Type (0, 0), BuildingBlock: UVAHIK_clean_linker_0, # of connection points: 2
#     Edge 75, Type (0, 0), BuildingBlock: UVAHIK_clean_linker_0, # of connection points: 2
#     Edge 76, Type (0, 0), BuildingBlock: UVAHIK_clean_linker_0, # of connection points: 2
#     Edge 77, Type (0, 0), BuildingBlock: UVAHIK_clean_linker_0, # of connection points: 2
#     Edge 78, Type (0, 0), BuildingBlock: UVAHIK_clean_linker_0, # of connection points: 2
#     Edge 79, Type (0, 0), BuildingBlock: UVAHIK_clean_linker_0, # of connection points: 2
#     Edge 80, Type (0, 0), BuildingBlock: UVAHIK_clean_linker_0, # of connection points: 2
#     Edge 81, Type (0, 0), BuildingBlock: UVAHIK_clean_linker_0, # of connection points: 2
#     Edge 82, Type (0, 0), BuildingBlock: UVAHIK_clean_linker_0, # of connection points: 2
#     Edge 83, Type (0, 0), BuildingBlock: UVAHIK_clean_linker_0, # of connection points: 2
#     Edge 84, Type (0, 0), BuildingBlock: UVAHIK_clean_linker_0, # of connection points: 2
#     Edge 85, Type (0, 0), BuildingBlock: UVAHIK_clean_linker_0, # of connection points: 2
#     Edge 86, Type (0, 0), BuildingBlock: UVAHIK_clean_linker_0, # of connection points: 2
#     Edge 87, Type (0, 0), BuildingBlock: UVAHIK_clean_linker_0, # of connection points: 2
#     Edge 88, Type (0, 0), BuildingBlock: UVAHIK_clean_linker_0, # of connection points: 2
#     Edge 89, Type (0, 0), BuildingBlock: UVAHIK_clean_linker_0, # of connection points: 2
#     Edge 90, Type (0, 0), BuildingBlock: UVAHIK_clean_linker_0, # of connection points: 2
#     Edge 91, Type (0, 0), BuildingBlock: UVAHIK_clean_linker_0, # of connection points: 2
#     Edge 92, Type (0, 0), BuildingBlock: UVAHIK_clean_linker_0, # of connection points: 2
#     Edge 93, Type (0, 0), BuildingBlock: UVAHIK_clean_linker_0, # of connection points: 2
#     Edge 94, Type (0, 0), BuildingBlock: UVAHIK_clean_linker_0, # of connection points: 2
#     Edge 95, Type (0, 0), BuildingBlock: UVAHIK_clean_linker_0, # of connection points: 2
#     Edge 96, Type (0, 0), BuildingBlock: UVAHIK_clean_linker_0, # of connection points: 2
#     Edge 97, Type (0, 0), BuildingBlock: UVAHIK_clean_linker_0, # of connection points: 2
#     Edge 98, Type (0, 0), BuildingBlock: UVAHIK_clean_linker_0, # of connection points: 2
#     Edge 99, Type (0, 0), BuildingBlock: UVAHIK_clean_linker_0, # of connection points: 2
#     Edge 100, Type (0, 0), BuildingBlock: UVAHIK_clean_linker_0, # of connection points: 2
#     Edge 101, Type (0, 0), BuildingBlock: UVAHIK_clean_linker_0, # of connection points: 2
#     Edge 102, Type (0, 0), BuildingBlock: UVAHIK_clean_linker_0, # of connection points: 2
#     Edge 103, Type (0, 0), BuildingBlock: UVAHIK_clean_linker_0, # of connection points: 2
#     Edge 104, Type (0, 0), BuildingBlock: UVAHIK_clean_linker_0, # of connection points: 2
#     Edge 105, Type (0, 0), BuildingBlock: UVAHIK_clean_linker_0, # of connection points: 2
#     Edge 106, Type (0, 0), BuildingBlock: UVAHIK_clean_linker_0, # of connection points: 2
#     Edge 107, Type (0, 0), BuildingBlock: UVAHIK_clean_linker_0, # of connection points: 2
# Relax obj value: 0.088
# Max RMSD: 0.131
# Mean RMSD: 0.131
data_MOF--net-unu--node1-QUQFOY_clean_sbu_1--edge1-UVAHIK_clean_linker_0
_symmetry_space_group_name_H-M    P1
_symmetry_Int_Tables_number       1
_symmetry_cell_setting            triclinic
loop_
_symmetry_equiv_pos_as_xyz
'x, y, z'
_cell_length_a     56.429043
_cell_length_b     56.429611
_cell_length_c     161.46507
_cell_angle_alpha  90.000391
_cell_angle_beta   89.996358
_cell_angle_gamma 120.00621
loop_
_atom_site_label
_atom_site_type_symbol
_atom_site_fract_x
_atom_site_fract_y
_atom_site_fract_z
_atom_type_partial_charge
O0 O 0.18897 0.01874 0.11695 0.0
Cd1 Cd 0.22387 0.05636 0.1156 0.0
Cd2 Cd 0.21861 0.05642 0.13208 0.0
O3 O 0.19108 0.01498 0.13049 0.0
O4 O 0.24068 0.05492 0.10485 0.0
O5 O 0.25983 0.05733 0.11701 0.0
C6 C 0.26008 0.05482 0.10905 0.0
C7 C 0.25086 0.07523 0.14276 0.0
C8 C 0.1799 1.00473 0.12355 0.0
C9 C 0.20746 0.095 0.12201 0.0
O10 O 0.20455 0.08238 0.12878 0.0
O11 O 0.2178 0.0898 0.11574 0.0
O12 O 0.22496 0.0634 0.14422 0.0
O13 O 0.25848 0.07435 0.13527 0.0
O14 O 0.99768 0.17484 0.11736 0.0
Cd15 Cd 0.95952 0.17092 0.1162 0.0
Cd16 Cd 0.96089 0.16716 0.13277 0.0
O17 O 1.00215 0.18062 0.1309 0.0
O18 O 0.95975 0.1885 0.10542 0.0
O19 O 0.95785 0.20552 0.11759 0.0
C20 C 0.95981 0.20801 0.10962 0.0
C21 C 0.94285 0.18159 0.14339 0.0
C22 C 0.01208 0.17992 0.12388 0.0
C23 C 0.92162 0.11637 0.12319 0.0
O24 O 0.93443 0.12695 0.12987 0.0
O25 O 0.92664 0.13102 0.11671 0.0
O26 O 0.95482 0.1677 0.14493 0.0
O27 O 0.9433 0.18948 0.13585 0.0
O28 O 0.84069 0.82648 0.11739 0.0
Cd29 Cd 0.84409 0.79241 0.11507 0.0
Cd30 Cd 0.84901 0.79437 0.13184 0.0
O31 O 0.8361 0.82292 0.13096 0.0
O32 O 0.82627 0.77923 0.10404 0.0
O33 O 0.80971 0.75543 0.11558 0.0
C34 C 0.80697 0.75809 0.10774 0.0
C35 C 0.83582 0.76191 0.14247 0.0
C36 C 0.8364 0.83482 0.12423 0.0
C37 C 0.89887 0.80713 0.12133 0.0
O38 O 0.88871 0.8077 0.1283 0.0
O39 O 0.88391 0.79933 0.11487 0.0
O40 O 0.85064 0.78773 0.14392 0.0
O41 O 0.82652 0.75449 0.13504 0.0
O42 O 0.01928 0.18531 0.39458 0.0
Cd43 Cd 0.05735 0.21953 0.39594 0.0
Cd44 Cd 0.05724 0.21446 0.37936 0.0
O45 O 0.01592 0.18632 0.38099 0.0
O46 O 0.05616 0.23718 0.40656 0.0
O47 O 0.05945 0.25587 0.39425 0.0
C48 C 0.05666 0.25659 0.40219 0.0
C49 C 0.0756 0.24692 0.36872 0.0
C50 C 1.00545 0.1758 0.38798 0.0
C51 C 0.0959 0.20308 0.38938 0.0
O52 O 0.08382 0.20114 0.38257 0.0
O53 O 0.09016 0.21238 0.39579 0.0
O54 O 0.0641 0.22106 0.36721 0.0
O55 O 0.07455 0.25432 0.37622 0.0
O56 O 0.82827 0.83669 0.39454 0.0
Cd57 Cd 0.79366 0.83988 0.39599 0.0
Cd58 Cd 0.79844 0.84509 0.3795 0.0
O59 O 0.82575 0.8309 0.381 0.0
O60 O 0.7763 0.82089 0.40662 0.0
O61 O 0.75751 0.80539 0.39433 0.0
C62 C 0.75691 0.80191 0.40226 0.0
C63 C 0.76624 0.83183 0.36881 0.0
C64 C 0.83704 0.83165 0.3879 0.0
C65 C 0.81027 0.89501 0.38961 0.0
O66 O 0.81277 0.88515 0.38281 0.0
O67 O 0.80014 0.87956 0.39591 0.0
O68 O 0.79214 0.84586 0.36736 0.0
O69 O 0.75857 0.82333 0.3763 0.0
O70 O 0.17502 0.99209 0.39484 0.0
Cd71 Cd 0.17209 0.95451 0.39647 0.0
Cd72 Cd 0.16791 0.95365 0.37982 0.0
O73 O 0.18087 0.99498 0.38129 0.0
O74 O 0.1902 0.95626 0.40728 0.0
O75 O 0.20692 0.95321 0.39518 0.0
C76 C 0.20964 0.95602 0.40313 0.0
C77 C 0.18177 0.93543 0.36906 0.0
C78 C 0.17986 1.00563 0.38815 0.0
C79 C 0.11768 0.915 0.38982 0.0
O80 O 0.12796 0.92691 0.383 0.0
O81 O 0.13251 0.92118 0.39629 0.0
O82 O 0.16731 0.94687 0.36766 0.0
O83 O 0.19046 0.93643 0.37653 0.0
O84 O 0.82671 0.9944 0.89494 0.0
Cd85 Cd 0.79292 0.95664 0.89701 0.0
Cd86 Cd 0.79737 0.95226 0.88028 0.0
O87 O 0.82678 0.99356 0.88127 0.0
O88 O 0.77668 0.95998 0.90765 0.0
O89 O 0.756 0.9535 0.89553 0.0
C90 C 0.75636 0.95796 0.9034 0.0
C91 C 0.76578 0.93359 0.86941 0.0
C92 C 0.83682 0.00609 0.88807 0.0
C93 C 0.80804 0.91564 0.89161 0.0
O94 O 0.80872 0.92488 0.88439 0.0
O95 O 0.80075 0.92443 0.8978 0.0
O96 O 0.79163 0.94361 0.8682 0.0
O97 O 0.75796 0.93614 0.87672 0.0
O98 O 0.01738 0.83473 0.89313 0.0
Cd99 Cd 0.05538 0.83866 0.89499 0.0
Cd100 Cd 0.05873 0.84743 0.87838 0.0
O101 O 0.0176 0.8354 0.87945 0.0
O102 O 0.05249 0.81898 0.90558 0.0
O103 O 0.05801 0.80465 0.89336 0.0
C104 C 0.05399 0.80055 0.90124 0.0
C105 C 0.07772 0.83455 0.86761 0.0
C106 C 1.00542 0.83302 0.8863 0.0
C107 C 0.09581 0.89497 0.88947 0.0
O108 O 0.08538 0.88634 0.88237 0.0
O109 O 0.08826 0.87863 0.89561 0.0
O110 O 0.06726 0.84995 0.86631 0.0
O111 O 0.07541 0.82454 0.87496 0.0
O112 O 0.17664 0.18491 0.89425 0.0
Cd113 Cd 0.17322 0.21954 0.89504 0.0
Cd114 Cd 0.16811 0.21213 0.87868 0.0
O115 O 0.18231 0.18502 0.88073 0.0
O116 O 0.19197 0.23817 0.90558 0.0
O117 O 0.20778 0.25545 0.89316 0.0
C118 C 0.21113 0.25696 0.90111 0.0
C119 C 0.182 0.24447 0.86803 0.0
C120 C 0.18164 0.17499 0.88785 0.0
C121 C 0.11801 0.20146 0.88841 0.0
O122 O 0.12796 0.19785 0.8818 0.0
O123 O 0.13341 0.21282 0.89465 0.0
O124 O 0.16833 0.21857 0.86651 0.0
O125 O 0.18992 0.25201 0.87557 0.0
O126 O 0.99903 0.8267 0.6177 0.0
Cd127 Cd 0.96107 0.79303 0.61561 0.0
Cd128 Cd 0.95888 0.79722 0.63242 0.0
O129 O 1.0003 0.82564 0.63134 0.0
O130 O 0.96511 0.77968 0.60453 0.0
O131 O 0.95784 0.75573 0.61603 0.0
C132 C 0.96304 0.75838 0.60817 0.0
C133 C 0.93977 0.76522 0.64317 0.0
C134 C 0.01184 0.83614 0.62446 0.0
C135 C 0.92168 0.80915 0.62171 0.0
O136 O 0.93248 0.81025 0.6287 0.0
O137 O 0.92863 0.80071 0.61535 0.0
O138 O 0.95077 0.79111 0.64452 0.0
O139 O 0.94157 0.7575 0.63577 0.0
O140 O 0.18841 0.17533 0.61719 0.0
Cd141 Cd 0.22304 0.17204 0.61594 0.0
Cd142 Cd 0.21798 0.16793 0.63241 0.0
O143 O 0.19101 0.18243 0.63067 0.0
O144 O 0.23996 0.18959 0.60512 0.0
O145 O 0.25919 0.20687 0.61724 0.0
C146 C 0.25948 0.20922 0.60926 0.0
C147 C 0.25044 0.18147 0.64302 0.0
C148 C 0.1797 0.18105 0.62372 0.0
C149 C 0.20597 0.11729 0.62274 0.0
O150 O 0.20312 0.12758 0.6294 0.0
O151 O 0.2166 0.13237 0.6164 0.0
O152 O 0.22457 0.16801 0.64456 0.0
O153 O 0.25797 0.18938 0.63548 0.0
O154 O 0.84221 0.01995 0.61545 0.0
Cd155 Cd 0.84489 0.05744 0.61389 0.0
Cd156 Cd 0.8487 0.05791 0.63055 0.0
O157 O 0.83592 0.01666 0.62898 0.0
O158 O 0.82674 0.05581 0.6031 0.0
O159 O 0.80991 0.05844 0.61523 0.0
C160 C 0.80721 0.05579 0.60728 0.0
C161 C 0.83464 0.07558 0.6414 0.0
C162 C 0.83722 0.00624 0.62211 0.0
C163 C 0.89906 0.09701 0.62066 0.0
O164 O 0.88867 0.08491 0.62745 0.0
O165 O 0.88438 0.09092 0.61416 0.0
O166 O 0.8492 0.06421 0.64273 0.0
O167 O 0.82598 0.07484 0.63395 0.0
O168 O 0.85483 0.34945 0.4498 0.0
Cd169 Cd 0.88939 0.38743 0.44862 0.0
Cd170 Cd 0.88299 0.38686 0.4651 0.0
O171 O 0.85533 0.34553 0.46338 0.0
O172 O 0.90659 0.38661 0.43787 0.0
O173 O 0.92558 0.38887 0.45005 0.0
C174 C 0.92603 0.38662 0.44209 0.0
C175 C 0.91544 0.40541 0.47572 0.0
C176 C 0.84506 0.33534 0.45635 0.0
C177 C 0.87226 0.42569 0.45504 0.0
O178 O 0.86922 0.41302 0.46181 0.0
O179 O 0.88275 0.42058 0.4488 0.0
O180 O 0.88957 0.39374 0.47724 0.0
O181 O 0.92287 0.40449 0.46821 0.0
O182 O 0.66392 0.50795 0.45036 0.0
Cd183 Cd 0.62594 0.50451 0.44916 0.0
Cd184 Cd 0.62638 0.49851 0.46564 0.0
O185 O 0.66774 0.51221 0.46395 0.0
O186 O 0.62685 0.52239 0.43837 0.0
O187 O 0.62446 0.53927 0.45051 0.0
C188 C 0.62678 0.54186 0.44254 0.0
C189 C 0.60764 0.51219 0.47626 0.0
C190 C 0.67798 0.51221 0.45692 0.0
C191 C 0.58765 0.44905 0.45553 0.0
O192 O 0.60029 0.45861 0.46231 0.0
O193 O 0.59279 0.46473 0.4493 0.0
O194 O 0.61938 0.49806 0.47777 0.0
O195 O 0.60862 0.52064 0.46876 0.0
O196 O 0.50524 0.15853 0.45032 0.0
Cd197 Cd 0.50867 0.12401 0.44904 0.0
Cd198 Cd 0.51533 0.13046 0.46548 0.0
O199 O 0.50158 0.15813 0.46393 0.0
O200 O 0.48941 0.10622 0.43848 0.0
O201 O 0.47429 0.08784 0.45084 0.0
C202 C 0.47057 0.08696 0.44291 0.0
C203 C 0.50202 0.09803 0.47609 0.0
C204 C 0.50126 0.16834 0.45692 0.0
C205 C 0.56437 0.14116 0.45513 0.0
O206 O 0.55507 0.14419 0.46197 0.0
O207 O 0.54846 0.13069 0.44895 0.0
O208 O 0.51626 0.1239 0.4776 0.0
O209 O 0.49328 0.09059 0.46861 0.0
O210 O 0.68641 0.51795 0.72814 0.0
Cd211 Cd 0.72421 0.55238 0.72972 0.0
Cd212 Cd 0.72458 0.54922 0.7131 0.0
O213 O 0.6832 0.52121 0.71462 0.0
O214 O 0.72292 0.56886 0.74055 0.0
O215 O 0.72581 0.58866 0.72846 0.0
C216 C 0.72322 0.58861 0.73642 0.0
C217 C 0.74287 0.58167 0.70245 0.0
C218 C 0.67266 0.50949 0.72148 0.0
C219 C 0.76311 0.53697 0.72288 0.0
O220 O 0.75102 0.53548 0.7161 0.0
O221 O 0.75731 0.54578 0.72938 0.0
O222 O 0.73119 0.55582 0.70095 0.0
O223 O 0.7421 0.58914 0.70997 0.0
O224 O 0.49486 0.1708 0.72808 0.0
Cd225 Cd 0.46027 0.17389 0.72963 0.0
Cd226 Cd 0.46385 0.17803 0.71303 0.0
O227 O 0.49188 0.16468 0.71454 0.0
O228 O 0.44347 0.15557 0.74038 0.0
O229 O 0.42415 0.13915 0.7282 0.0
C230 C 0.42393 0.13623 0.73616 0.0
C231 C 0.43167 0.16428 0.70232 0.0
C232 C 0.50349 0.16574 0.72141 0.0
C233 C 0.47567 0.2284 0.72297 0.0
O234 O 0.47743 0.21809 0.71616 0.0
O235 O 0.4667 0.21354 0.72942 0.0
O236 O 0.45756 0.17847 0.70088 0.0
O237 O 0.42401 0.15577 0.7098 0.0
O238 O 0.84236 0.32634 0.72773 0.0
Cd239 Cd 0.83921 0.28867 0.72935 0.0
Cd240 Cd 0.83467 0.28768 0.71271 0.0
O241 O 0.84787 0.32906 0.71417 0.0
O242 O 0.85837 0.29061 0.73996 0.0
O243 O 0.87364 0.28694 0.72767 0.0
C244 C 0.87728 0.29008 0.73559 0.0
C245 C 0.84814 0.26947 0.70185 0.0
C246 C 0.84712 0.33982 0.72103 0.0
C247 C 0.78457 0.24932 0.72284 0.0
O248 O 0.79478 0.26108 0.71599 0.0
O249 O 0.79951 0.25551 0.72928 0.0
O250 O 0.83364 0.28091 0.70054 0.0
O251 O 0.85703 0.27038 0.70929 0.0
O252 O 0.49525 0.32716 0.22839 0.0
Cd253 Cd 0.4608 0.28928 0.22978 0.0
Cd254 Cd 0.46577 0.28909 0.21316 0.0
O255 O 0.49428 0.3303 0.21478 0.0
O256 O 0.44328 0.29072 0.2404 0.0
O257 O 0.42459 0.28746 0.22809 0.0
C258 C 0.42391 0.2903 0.23602 0.0
C259 C 0.43387 0.27119 0.20236 0.0
C260 C 0.50487 0.34084 0.22176 0.0
C261 C 0.47653 0.25012 0.22328 0.0
O262 O 0.4785 0.26209 0.21644 0.0
O263 O 0.46754 0.25621 0.22969 0.0
O264 O 0.45978 0.28243 0.20099 0.0
O265 O 0.42611 0.27222 0.20981 0.0
O266 O 0.68702 0.17049 0.22815 0.0
Cd267 Cd 0.72462 0.17323 0.22958 0.0
Cd268 Cd 0.72525 0.17882 0.21312 0.0
O269 O 0.68378 0.16497 0.21459 0.0
O270 O 0.72275 0.15389 0.24016 0.0
O271 O 0.72597 0.13862 0.22782 0.0
C272 C 0.72303 0.13495 0.23574 0.0
C273 C 0.74429 0.16567 0.20243 0.0
C274 C 0.67327 0.16572 0.2215 0.0
C275 C 0.76361 0.22834 0.22332 0.0
O276 O 0.75123 0.21873 0.21651 0.0
O277 O 0.7581 0.21273 0.22959 0.0
O278 O 0.73253 0.1798 0.20098 0.0
O279 O 0.7432 0.15694 0.2099 0.0
O280 O 0.84543 0.51847 0.22772 0.0
Cd281 Cd 0.84172 0.55287 0.22882 0.0
Cd282 Cd 0.83538 0.54587 0.21237 0.0
O283 O 0.84935 0.51848 0.21412 0.0
O284 O 0.86066 0.57092 0.23939 0.0
O285 O 0.87603 0.5891 0.22703 0.0
C286 C 0.87957 0.59014 0.23497 0.0
C287 C 0.84879 0.57784 0.20163 0.0
C288 C 0.84964 0.50854 0.22118 0.0
C289 C 0.78605 0.5352 0.22257 0.0
O290 O 0.79554 0.53206 0.21579 0.0
O291 O 0.80183 0.54593 0.22878 0.0
O292 O 0.8346 0.55191 0.20022 0.0
O293 O 0.85739 0.58562 0.2091 0.0
O294 O 0.66272 0.15799 0.95153 0.0
Cd295 Cd 0.62465 0.12367 0.95017 0.0
Cd296 Cd 0.62415 0.13027 0.96665 0.0
O297 O 0.66562 0.15774 0.96516 0.0
O298 O 0.62599 0.1069 0.93939 0.0
O299 O 0.62278 0.08725 0.95152 0.0
C300 C 0.6255 0.08715 0.94357 0.0
C301 C 0.60476 0.09796 0.97727 0.0
C302 C 0.67636 0.16781 0.95816 0.0
C303 C 0.58628 0.14127 0.9562 0.0
O304 O 0.59844 0.14427 0.96307 0.0
O305 O 0.59174 0.13065 0.95005 0.0
O306 O 0.61651 0.12384 0.97876 0.0
O307 O 0.60605 0.0904 0.96981 0.0
O308 O 0.85335 0.5067 0.94939 0.0
Cd309 Cd 0.88788 0.5033 0.94812 0.0
Cd310 Cd 0.88383 0.50024 0.96447 0.0
O311 O 0.85729 0.51532 0.96279 0.0
O312 O 0.90481 0.52058 0.93726 0.0
O313 O 0.92394 0.53818 0.94936 0.0
C314 C 0.92424 0.54036 0.94138 0.0
C315 C 0.91931 0.51555 0.9741 0.0
C316 C 0.84533 0.51325 0.95591 0.0
C317 C 0.87061 0.44881 0.95525 0.0
O318 O 0.86786 0.45944 0.96186 0.0
O319 O 0.88137 0.46363 0.94887 0.0
O320 O 0.89408 0.50351 0.97644 0.0
O321 O 0.92452 0.521 0.96632 0.0
O322 O 0.50575 0.35062 0.94905 0.0
Cd323 Cd 0.50931 0.38853 0.94758 0.0
Cd324 Cd 0.51431 0.38889 0.96424 0.0
O325 O 0.50143 0.34765 0.96265 0.0
O326 O 0.49132 0.38721 0.93679 0.0
O327 O 0.47467 0.39022 0.9489 0.0
C328 C 0.47195 0.38755 0.94095 0.0
C329 C 0.50035 0.40676 0.97505 0.0
C330 C 0.50152 0.33701 0.9557 0.0
C331 C 0.56417 0.42774 0.95416 0.0
O332 O 0.55412 0.41581 0.961 0.0
O333 O 0.54913 0.42159 0.94774 0.0
O334 O 0.51496 0.39546 0.97641 0.0
O335 O 0.49159 0.40583 0.9676 0.0
O336 O 0.52162 0.68177 0.78392 0.0
Cd337 Cd 0.55616 0.71974 0.78271 0.0
Cd338 Cd 0.54937 0.71968 0.79917 0.0
O339 O 0.5216 0.67832 0.79753 0.0
O340 O 0.57397 0.71842 0.77214 0.0
O341 O 0.59233 0.72151 0.78449 0.0
C342 C 0.59323 0.71879 0.77656 0.0
C343 C 0.58143 0.73828 0.8099 0.0
C344 C 0.51159 0.66789 0.79049 0.0
C345 C 0.53901 0.75828 0.78882 0.0
O346 O 0.53593 0.74592 0.79566 0.0
O347 O 0.54948 0.75284 0.78264 0.0
O348 O 0.55553 0.72687 0.81131 0.0
O349 O 0.58911 0.7371 0.80244 0.0
O350 O 0.33042 0.83988 0.78276 0.0
Cd351 Cd 0.29246 0.83632 0.78145 0.0
Cd352 Cd 0.29265 0.83162 0.79802 0.0
O353 O 0.33389 0.8445 0.79635 0.0
O354 O 0.29363 0.85549 0.7709 0.0
O355 O 0.29063 0.87062 0.78329 0.0
C356 C 0.29331 0.87434 0.77536 0.0
C357 C 0.27472 0.84598 0.80871 0.0
C358 C 0.34428 0.84425 0.78937 0.0
C359 C 0.25358 0.78154 0.78806 0.0
O360 O 0.26575 0.79174 0.79486 0.0
O361 O 0.25943 0.79648 0.78163 0.0
O362 O 0.28604 0.83145 0.81018 0.0
O363 O 0.27571 0.85446 0.80121 0.0
O364 O 0.17316 0.4912 0.78352 0.0
Cd365 Cd 0.17597 0.45639 0.78205 0.0
Cd366 Cd 0.1812 0.46112 0.79853 0.0
O367 O 0.16729 0.4887 0.79706 0.0
O368 O 0.15773 0.43978 0.77127 0.0
O369 O 0.14104 0.42036 0.78341 0.0
C370 C 0.13827 0.42025 0.77546 0.0
C371 C 0.16775 0.42849 0.8091 0.0
C372 C 0.16822 0.50008 0.79016 0.0
C373 C 0.23103 0.47272 0.78846 0.0
O374 O 0.22125 0.47537 0.79525 0.0
O375 O 0.21555 0.46256 0.78217 0.0
O376 O 0.18173 0.45433 0.81065 0.0
O377 O 0.15932 0.42113 0.80159 0.0
O378 O 0.35195 0.85094 0.06201 0.0
Cd379 Cd 0.38976 0.88567 0.06312 0.0
Cd380 Cd 0.38792 0.88162 0.04662 0.0
O381 O 0.34666 0.85385 0.04858 0.0
O382 O 0.38939 0.90392 0.07371 0.0
O383 O 0.39092 0.92147 0.06132 0.0
C384 C 0.38901 0.92279 0.06927 0.0
C385 C 0.40568 0.9143 0.03603 0.0
C386 C 0.33718 0.84229 0.05554 0.0
C387 C 0.42781 0.87005 0.05585 0.0
O388 O 0.41454 0.8678 0.04926 0.0
O389 O 0.42309 0.87949 0.06241 0.0
O390 O 0.39357 0.88846 0.03444 0.0
O391 O 0.40549 0.92159 0.04361 0.0
O392 O 0.1601 0.50556 0.06153 0.0
Cd393 Cd 0.12514 0.50766 0.0635 0.0
Cd394 Cd 0.12925 0.51488 0.04656 0.0
O395 O 0.15887 0.50348 0.04787 0.0
O396 O 0.10882 0.48763 0.07408 0.0
O397 O 0.08909 0.47298 0.06186 0.0
C398 C 0.08915 0.4689 0.06974 0.0
C399 C 0.10145 0.5045 0.03476 0.0
C400 C 0.16982 0.50291 0.05471 0.0
C401 C 0.13845 0.56255 0.05777 0.0
O402 O 0.13978 0.55333 0.05072 0.0
O403 O 0.13093 0.54701 0.06409 0.0
O404 O 0.12747 0.52091 0.03444 0.0
O405 O 0.09128 0.49194 0.04167 0.0
O406 O 0.51032 0.66267 0.05983 0.0
Cd407 Cd 0.50645 0.62493 0.06199 0.0
Cd408 Cd 0.5016 0.62272 0.04525 0.0
O409 O 0.51508 0.66426 0.04625 0.0
O410 O 0.52406 0.629 0.07303 0.0
O411 O 0.54063 0.62197 0.06146 0.0
C412 C 0.5433 0.62711 0.06932 0.0
C413 C 0.51448 0.60333 0.03458 0.0
C414 C 0.51483 0.67564 0.05304 0.0
C415 C 0.45148 0.58576 0.05566 0.0
O416 O 0.46176 0.59677 0.04873 0.0
O417 O 0.46645 0.59233 0.06211 0.0
O418 O 0.50001 0.61473 0.03315 0.0
O419 O 0.52363 0.60487 0.04201 0.0
O420 O 0.1625 0.66247 0.55978 0.0
Cd421 Cd 0.12851 0.62455 0.56172 0.0
Cd422 Cd 0.13389 0.62272 0.54505 0.0
O423 O 0.16185 0.66422 0.54615 0.0
O424 O 0.11494 0.6285 0.57277 0.0
O425 O 0.09136 0.62169 0.56122 0.0
C426 C 0.09383 0.62672 0.56908 0.0
C427 C 0.10142 0.60304 0.53446 0.0
C428 C 0.17215 0.67553 0.55306 0.0
C429 C 0.14548 0.58558 0.55582 0.0
O430 O 0.14755 0.59689 0.54885 0.0
O431 O 0.13581 0.59186 0.56203 0.0
O432 O 0.12727 0.61423 0.53298 0.0
O433 O 0.094 0.60495 0.54189 0.0
O434 O 0.35439 0.5038 0.56132 0.0
Cd435 Cd 0.39223 0.50693 0.5625 0.0
Cd436 Cd 0.39179 0.513 0.54603 0.0
O437 O 0.35048 0.49952 0.54774 0.0
O438 O 0.39095 0.48801 0.57311 0.0
O439 O 0.39362 0.47229 0.5608 0.0
C440 C 0.39101 0.46889 0.56874 0.0
C441 C 0.4103 0.49933 0.53533 0.0
C442 C 0.34032 0.49961 0.55478 0.0
C443 C 0.43078 0.56231 0.55619 0.0
O444 O 0.41814 0.55281 0.54941 0.0
O445 O 0.42552 0.54662 0.56242 0.0
O446 O 0.39872 0.51364 0.53387 0.0
O447 O 0.4093 0.49072 0.54281 0.0
O448 O 0.51195 0.85238 0.56031 0.0
Cd449 Cd 0.5084 0.8869 0.56132 0.0
Cd450 Cd 0.50314 0.88024 0.54491 0.0
O451 O 0.51711 0.85287 0.54675 0.0
O452 O 0.52721 0.90516 0.57188 0.0
O453 O 0.54286 0.92296 0.5595 0.0
C454 C 0.54627 0.92418 0.56745 0.0
C455 C 0.51704 0.91289 0.53436 0.0
C456 C 0.51672 0.84265 0.55382 0.0
C457 C 0.45317 0.86936 0.55475 0.0
O458 O 0.46306 0.86611 0.54807 0.0
O459 O 0.46858 0.88021 0.56102 0.0
O460 O 0.50324 0.88705 0.53277 0.0
O461 O 0.5251 0.9202 0.5419 0.0
O462 O 0.33113 0.49129 0.28405 0.0
Cd463 Cd 0.293 0.45701 0.28277 0.0
Cd464 Cd 0.29314 0.4634 0.29925 0.0
O465 O 0.33461 0.49076 0.29765 0.0
O466 O 0.29402 0.44011 0.27198 0.0
O467 O 0.29116 0.42059 0.2841 0.0
C468 C 0.29369 0.42043 0.27615 0.0
C469 C 0.27394 0.4309 0.30984 0.0
C470 C 0.34507 0.50096 0.29064 0.0
C471 C 0.25502 0.47474 0.28904 0.0
O472 O 0.26745 0.47762 0.29585 0.0
O473 O 0.26014 0.4641 0.28283 0.0
O474 O 0.28582 0.45677 0.31137 0.0
O475 O 0.27502 0.42347 0.30234 0.0
O476 O 0.52134 0.8395 0.28344 0.0
Cd477 Cd 0.55605 0.83646 0.28205 0.0
Cd478 Cd 0.55128 0.83159 0.29853 0.0
O479 O 0.52393 0.84571 0.29696 0.0
O480 O 0.5729 0.85455 0.27128 0.0
O481 O 0.59214 0.87128 0.28344 0.0
C482 C 0.5924 0.87399 0.27548 0.0
C483 C 0.5836 0.84518 0.30919 0.0
C484 C 0.51258 0.84471 0.29005 0.0
C485 C 0.53962 0.78152 0.28857 0.0
O486 O 0.53696 0.79144 0.29533 0.0
O487 O 0.5498 0.79687 0.28226 0.0
O488 O 0.55772 0.83121 0.31067 0.0
O489 O 0.59118 0.85346 0.30168 0.0
O490 O 0.1736 0.68394 0.28317 0.0
Cd491 Cd 0.17703 0.72182 0.28176 0.0
Cd492 Cd 0.18212 0.72194 0.29843 0.0
O493 O 0.16941 0.68073 0.29678 0.0
O494 O 0.15917 0.7206 0.27095 0.0
O495 O 0.14233 0.72341 0.28306 0.0
C496 C 0.13973 0.72086 0.2751 0.0
C497 C 0.16816 0.73979 0.30925 0.0
C498 C 0.1695 0.67023 0.2898 0.0
C499 C 0.23187 0.76099 0.28835 0.0
O500 O 0.22187 0.74895 0.29518 0.0
O501 O 0.2168 0.75492 0.28193 0.0
O502 O 0.18277 0.72848 0.3106 0.0
O503 O 0.15936 0.73882 0.3018 0.0
C504 C 0.26172 0.09314 0.15728 0.0
C505 C 0.27086 0.09204 0.14926 0.0
C506 C 0.27951 0.11216 0.16306 0.0
C507 C 0.35275 0.15984 0.16781 0.0
H508 H 0.32378 0.19794 0.18057 0.0
C509 C 0.4232 0.25366 0.18779 0.0
C510 C 0.41394 0.25472 0.1958 0.0
C511 C 0.40544 0.23481 0.18196 0.0
C512 C 0.33215 0.18734 0.17712 0.0
H513 H 0.30626 0.10935 0.14117 0.0
H514 H 0.33733 0.14258 0.15127 0.0
H515 H 0.29405 0.16182 0.17099 0.0
H516 H 0.37837 0.23754 0.20382 0.0
H517 H 0.34736 0.2046 0.19365 0.0
H518 H 0.39084 0.18533 0.17395 0.0
C519 C 0.3164 0.12862 0.1531 0.0
C520 C 0.31507 0.16656 0.17163 0.0
C521 C 0.29857 0.10955 0.1473 0.0
C522 C 0.38615 0.23738 0.1977 0.0
C523 C 0.36836 0.21847 0.19186 0.0
C524 C 0.36983 0.18062 0.17331 0.0
C525 C 0.30691 0.13061 0.16099 0.0
C526 C 0.32513 0.1525 0.16691 0.0
C527 C 0.37795 0.21648 0.18398 0.0
C528 C 0.35977 0.19467 0.17803 0.0
H529 H 0.24053 0.07989 0.15902 0.0
H530 H 0.27164 0.11269 0.16914 0.0
H531 H 0.36111 0.14925 0.16436 0.0
H532 H 0.44446 0.26678 0.1861 0.0
H533 H 0.41341 0.2343 0.1759 0.0
C534 C 0.76237 0.17288 0.18793 0.0
C535 C 0.76131 0.16271 0.19596 0.0
C536 C 0.7816 0.17439 0.18218 0.0
C537 C 0.8304 0.15002 0.1776 0.0
H538 H 0.8676 0.21699 0.16476 0.0
C539 C 0.92532 0.17522 0.15794 0.0
C540 C 0.92613 0.185 0.14987 0.0
C541 C 0.90617 0.17387 0.1637 0.0
C542 C 0.85727 0.19807 0.16824 0.0
H543 H 0.77891 0.14503 0.2041 0.0
H544 H 0.81254 0.14774 0.19406 0.0
H545 H 0.83103 0.20997 0.17425 0.0
H546 H 0.90825 0.20224 0.14167 0.0
H547 H 0.87483 0.19988 0.15173 0.0
H548 H 0.85666 0.13813 0.1716 0.0
C549 C 0.79837 0.15441 0.19219 0.0
C550 C 0.83621 0.19398 0.17367 0.0
C551 C 0.77907 0.15284 0.19796 0.0
C552 C 0.90828 0.19472 0.14784 0.0
C553 C 0.88909 0.19336 0.15362 0.0
C554 C 0.85147 0.15412 0.17218 0.0
C555 C 0.80033 0.16584 0.1843 0.0
C556 C 0.82246 0.16988 0.17842 0.0
C557 C 0.88732 0.18223 0.16155 0.0
C558 C 0.86521 0.17821 0.16743 0.0
H559 H 0.74892 0.18054 0.18616 0.0
H560 H 0.78208 0.18273 0.1761 0.0
H561 H 0.82006 0.13108 0.18107 0.0
H562 H 0.93883 0.16766 0.15973 0.0
H563 H 0.90582 0.16576 0.16981 0.0
C564 C 0.84158 0.5885 0.1871 0.0
C565 C 0.85202 0.59775 0.1951 0.0
C566 C 0.84045 0.60628 0.18129 0.0
C567 C 0.86658 0.6796 0.17646 0.0
H568 H 0.79928 0.6511 0.16384 0.0
C569 C 0.84309 0.75068 0.15691 0.0
C570 C 0.8326 0.74172 0.1489 0.0
C571 C 0.84427 0.73271 0.16263 0.0
C572 C 0.81831 0.65933 0.16725 0.0
H573 H 0.87058 0.63332 0.20312 0.0
H574 H 0.86858 0.66436 0.19298 0.0
H575 H 0.80558 0.62116 0.17336 0.0
H576 H 0.81401 0.70646 0.14076 0.0
H577 H 0.8161 0.67504 0.15075 0.0
H578 H 0.87931 0.71776 0.17035 0.0
C579 C 0.86138 0.64336 0.19118 0.0
C580 C 0.82197 0.64214 0.1727 0.0
C581 C 0.86253 0.62554 0.19701 0.0
C582 C 0.82208 0.714 0.14689 0.0
C583 C 0.8233 0.69598 0.15262 0.0
C584 C 0.86292 0.69678 0.17101 0.0
C585 C 0.84971 0.63379 0.18332 0.0
C586 C 0.84616 0.65204 0.17738 0.0
C587 C 0.83504 0.7053 0.1605 0.0
C588 C 0.8387 0.6869 0.16635 0.0
H589 H 0.8334 0.56725 0.1854 0.0
H590 H 0.83188 0.59834 0.17524 0.0
H591 H 0.8856 0.68783 0.17987 0.0
H592 H 0.85125 0.77187 0.15869 0.0
H593 H 0.85285 0.74045 0.16869 0.0
C594 C 0.10962 0.29485 0.3643 0.0
C595 C 0.09237 0.26715 0.36227 0.0
C596 C 0.1288 0.31291 0.35856 0.0
C597 C 0.14816 0.32134 0.33626 0.0
H598 H 0.22111 0.37 0.3447 0.0
C599 C 0.23949 0.38307 0.31423 0.0
C600 C 0.25688 0.41073 0.31627 0.0
C601 C 0.22019 0.36507 0.31995 0.0
C602 C 0.20081 0.35672 0.34224 0.0
H603 H 0.08088 0.23707 0.35246 0.0
H604 H 0.11417 0.26844 0.34251 0.0
H605 H 0.18459 0.34086 0.35426 0.0
H606 H 0.26843 0.44082 0.32607 0.0
H607 H 0.23493 0.40957 0.336 0.0
H608 H 0.16438 0.33719 0.32424 0.0
C609 C 0.1129 0.27632 0.34851 0.0
C610 C 0.17981 0.34007 0.34773 0.0
C611 C 0.0938 0.25828 0.35424 0.0
C612 C 0.25541 0.41964 0.32429 0.0
C613 C 0.2362 0.40166 0.33 0.0
C614 C 0.16916 0.33799 0.33077 0.0
C615 C 0.13111 0.30372 0.35066 0.0
C616 C 0.1532 0.32215 0.34482 0.0
C617 C 0.21789 0.37429 0.32785 0.0
C618 C 0.19578 0.3559 0.33368 0.0
H619 H 0.10909 0.30237 0.37043 0.0
H620 H 0.14216 0.334 0.36038 0.0
H621 H 0.12786 0.30804 0.3338 0.0
H622 H 0.24004 0.37552 0.3081 0.0
H623 H 0.20675 0.344 0.31813 0.0
C624 C 0.75546 0.83864 0.35426 0.0
C625 C 0.7463 0.82866 0.3623 0.0
C626 C 0.73773 0.83985 0.34845 0.0
C627 C 0.66454 0.81472 0.34372 0.0
H628 H 0.69395 0.88138 0.33074 0.0
C629 C 0.59453 0.83864 0.32375 0.0
C630 C 0.60362 0.84849 0.31569 0.0
C631 C 0.61229 0.83748 0.32955 0.0
C632 C 0.68546 0.86253 0.33425 0.0
H633 H 0.71093 0.81102 0.37041 0.0
H634 H 0.67998 0.81318 0.36027 0.0
H635 H 0.72357 0.87496 0.34036 0.0
H636 H 0.63891 0.86598 0.30755 0.0
H637 H 0.66994 0.86393 0.31769 0.0
H638 H 0.62643 0.8023 0.33762 0.0
C639 C 0.70087 0.81994 0.35844 0.0
C640 C 0.70247 0.8588 0.33976 0.0
C641 C 0.71862 0.81869 0.36426 0.0
C642 C 0.63127 0.8584 0.31371 0.0
C643 C 0.64907 0.85722 0.31953 0.0
C644 C 0.64753 0.81846 0.33821 0.0
C645 C 0.71038 0.83116 0.35052 0.0
C646 C 0.69225 0.83483 0.34456 0.0
C647 C 0.63961 0.8461 0.32746 0.0
C648 C 0.65776 0.84243 0.33341 0.0
H649 H 0.77661 0.84638 0.35252 0.0
H650 H 0.74562 0.84803 0.34236 0.0
H651 H 0.65605 0.79587 0.34723 0.0
H652 H 0.57339 0.83094 0.3255 0.0
H653 H 0.60446 0.82937 0.33566 0.0
C654 C 0.17482 0.9178 0.35452 0.0
C655 C 0.18509 0.91882 0.36253 0.0
C656 C 0.17358 0.89886 0.3487 0.0
C657 C 0.19898 0.8511 0.34385 0.0
H658 H 0.13179 0.8132 0.33114 0.0
C659 C 0.17513 0.75725 0.32382 0.0
C660 C 0.16479 0.75626 0.31583 0.0
C661 C 0.17633 0.77611 0.32967 0.0
C662 C 0.15079 0.82374 0.33458 0.0
H663 H 0.20325 0.90146 0.37057 0.0
H664 H 0.20108 0.86835 0.36042 0.0
H665 H 0.13835 0.8493 0.34076 0.0
H666 H 0.14646 0.77358 0.30784 0.0
H667 H 0.14859 0.80655 0.31803 0.0
H668 H 0.21143 0.82555 0.33767 0.0
C669 C 0.19409 0.88233 0.35861 0.0
C670 C 0.1546 0.84452 0.34009 0.0
C671 C 0.19536 0.90134 0.36444 0.0
C672 C 0.15441 0.77368 0.31395 0.0
C673 C 0.15565 0.79261 0.3198 0.0
C674 C 0.19517 0.83032 0.33835 0.0
C675 C 0.18254 0.88039 0.35074 0.0
C676 C 0.17877 0.85851 0.34479 0.0
C677 C 0.16727 0.79453 0.32767 0.0
C678 C 0.17101 0.81634 0.33364 0.0
H679 H 0.16685 0.93104 0.35281 0.0
H680 H 0.16515 0.89838 0.34264 0.0
H681 H 0.21798 0.86164 0.34729 0.0
H682 H 0.18319 0.74405 0.3255 0.0
H683 H 0.18482 0.77656 0.33572 0.0
C684 C 0.6294 0.77144 0.81453 0.0
C685 C 0.60146 0.75494 0.81641 0.0
C686 C 0.64746 0.79037 0.82032 0.0
C687 C 0.65482 0.81 0.8426 0.0
H688 H 0.70676 0.88209 0.83424 0.0
C689 C 0.71781 0.90087 0.86468 0.0
C690 C 0.74585 0.91698 0.86287 0.0
C691 C 0.69976 0.88193 0.85889 0.0
C692 C 0.69253 0.86201 0.83668 0.0
H693 H 0.57088 0.74459 0.826 0.0
H694 H 0.60222 0.77749 0.83603 0.0
H695 H 0.67726 0.84607 0.82459 0.0
H696 H 0.77664 0.92669 0.8534 0.0
H697 H 0.74528 0.89386 0.84334 0.0
H698 H 0.67007 0.82598 0.85469 0.0
C699 C 0.61031 0.77578 0.83012 0.0
C700 C 0.67567 0.84129 0.83114 0.0
C701 C 0.59228 0.75691 0.82434 0.0
C702 C 0.75516 0.91465 0.855 0.0
C703 C 0.73714 0.89583 0.84921 0.0
C704 C 0.67165 0.83073 0.84814 0.0
C705 C 0.63802 0.79321 0.82812 0.0
C706 C 0.65659 0.81499 0.83402 0.0
C707 C 0.70932 0.87878 0.85115 0.0
C708 C 0.69074 0.85702 0.84525 0.0
H709 H 0.63716 0.77046 0.80848 0.0
H710 H 0.66877 0.8031 0.81862 0.0
H711 H 0.64063 0.78992 0.84504 0.0
H712 H 0.70995 0.90211 0.87069 0.0
H713 H 0.67838 0.86945 0.86054 0.0
C714 C 0.09664 0.84259 0.8532 0.0
C715 C 0.09459 0.83138 0.86113 0.0
C716 C 0.11572 0.84368 0.84747 0.0
C717 C 0.16203 0.81642 0.84268 0.0
H718 H 0.20227 0.88417 0.83035 0.0
C719 C 0.25657 0.83902 0.82319 0.0
C720 C 0.25818 0.84962 0.8152 0.0
C721 C 0.23759 0.83809 0.82894 0.0
C722 C 0.19108 0.86503 0.83369 0.0
H723 H 0.11028 0.81148 0.8691 0.0
H724 H 0.14369 0.81347 0.85911 0.0
H725 H 0.16599 0.87815 0.83981 0.0
H726 H 0.2419 0.86874 0.80712 0.0
H727 H 0.20878 0.86716 0.81716 0.0
H728 H 0.18718 0.80334 0.83657 0.0
C729 C 0.13039 0.82127 0.8573 0.0
C730 C 0.17019 0.86152 0.8391 0.0
C731 C 0.11121 0.82012 0.86304 0.0
C732 C 0.2413 0.86056 0.81324 0.0
C733 C 0.22228 0.85964 0.819 0.0
C734 C 0.18295 0.81995 0.83728 0.0
C735 C 0.13333 0.83366 0.84951 0.0
C736 C 0.15534 0.83714 0.84366 0.0
C737 C 0.21972 0.84775 0.82685 0.0
C738 C 0.19777 0.84431 0.83271 0.0
H739 H 0.08406 0.85134 0.8515 0.0
H740 H 0.11696 0.8528 0.84146 0.0
H741 H 0.15082 0.79725 0.846 0.0
H742 H 0.26932 0.83051 0.82493 0.0
H743 H 0.2366 0.82935 0.83499 0.0
C744 C 0.19516 0.29215 0.86355 0.0
C745 C 0.18527 0.26453 0.86154 0.0
C746 C 0.1939 0.31001 0.85777 0.0
C747 C 0.15502 0.30873 0.83914 0.0
H748 H 0.21126 0.38493 0.83719 0.0
C749 C 0.15475 0.3807 0.81345 0.0
C750 C 0.16461 0.40828 0.81552 0.0
C751 C 0.1561 0.36274 0.81917 0.0
C752 C 0.19516 0.36378 0.83773 0.0
H753 H 0.16766 0.23441 0.85171 0.0
H754 H 0.16596 0.26559 0.84161 0.0
H755 H 0.21787 0.3551 0.84666 0.0
H756 H 0.18226 0.43818 0.82541 0.0
H757 H 0.18411 0.40683 0.8354 0.0
H758 H 0.1323 0.31742 0.83021 0.0
C759 C 0.17412 0.27335 0.84771 0.0
C760 C 0.19901 0.34665 0.84316 0.0
C761 C 0.17536 0.25553 0.85348 0.0
C762 C 0.17459 0.41711 0.82358 0.0
C763 C 0.17592 0.39919 0.82929 0.0
C764 C 0.15117 0.32586 0.83371 0.0
C765 C 0.18273 0.30065 0.84984 0.0
C766 C 0.17899 0.31888 0.84394 0.0
C767 C 0.16734 0.37195 0.8271 0.0
C768 C 0.17116 0.35364 0.83295 0.0
H769 H 0.20279 0.29974 0.86971 0.0
H770 H 0.2006 0.33084 0.85964 0.0
H771 H 0.13892 0.28758 0.83969 0.0
H772 H 0.14707 0.37325 0.80728 0.0
H773 H 0.14942 0.34195 0.81725 0.0
C774 C 0.76053 0.59278 0.68792 0.0
C775 C 0.75949 0.6018 0.69596 0.0
C776 C 0.77951 0.61064 0.68214 0.0
C777 C 0.82722 0.68387 0.67744 0.0
H778 H 0.86557 0.65501 0.66475 0.0
C779 C 0.92149 0.75449 0.65765 0.0
C780 C 0.92288 0.74527 0.64967 0.0
C781 C 0.90242 0.73669 0.66342 0.0
C782 C 0.8549 0.66335 0.66818 0.0
H783 H 0.77683 0.63709 0.70409 0.0
H784 H 0.80997 0.66832 0.694 0.0
H785 H 0.8293 0.62521 0.67428 0.0
H786 H 0.90603 0.70976 0.64163 0.0
H787 H 0.87266 0.67869 0.6517 0.0
H788 H 0.85277 0.722 0.67132 0.0
C789 C 0.796 0.64741 0.69215 0.0
C790 C 0.83403 0.64624 0.67364 0.0
C791 C 0.77698 0.62949 0.69794 0.0
C792 C 0.90561 0.71749 0.64773 0.0
C793 C 0.88645 0.69967 0.65352 0.0
C794 C 0.84807 0.70098 0.67197 0.0
C795 C 0.79797 0.63801 0.68424 0.0
C796 C 0.81989 0.65626 0.67833 0.0
C797 C 0.88418 0.70921 0.66137 0.0
C798 C 0.86222 0.69097 0.66727 0.0
H799 H 0.74729 0.57161 0.68616 0.0
H800 H 0.78003 0.60286 0.67605 0.0
H801 H 0.81656 0.6922 0.68087 0.0
H802 H 0.93457 0.77572 0.65936 0.0
H803 H 0.9017 0.74462 0.66947 0.0
C804 C 0.38413 0.15151 0.69779 0.0
C805 C 0.41172 0.16111 0.69581 0.0
C806 C 0.36649 0.15305 0.69198 0.0
C807 C 0.36873 0.19239 0.67335 0.0
H808 H 0.29219 0.13713 0.67131 0.0
C809 C 0.29794 0.19379 0.64746 0.0
C810 C 0.27043 0.18446 0.64949 0.0
C811 C 0.31559 0.19216 0.65324 0.0
C812 C 0.31345 0.15295 0.67188 0.0
H813 H 0.44197 0.17839 0.686 0.0
H814 H 0.41116 0.18054 0.67586 0.0
H815 H 0.32145 0.12984 0.68085 0.0
H816 H 0.24035 0.16751 0.65935 0.0
H817 H 0.27118 0.16516 0.66944 0.0
H818 H 0.36072 0.21548 0.66438 0.0
C819 C 0.40326 0.17244 0.68196 0.0
C820 C 0.33025 0.14872 0.67734 0.0
C821 C 0.42087 0.17094 0.68776 0.0
C822 C 0.26138 0.17477 0.65756 0.0
C823 C 0.27899 0.17316 0.66333 0.0
C824 C 0.35193 0.19661 0.66789 0.0
C825 C 0.37604 0.16421 0.68406 0.0
C826 C 0.35812 0.16837 0.67814 0.0
C827 C 0.30613 0.18116 0.66119 0.0
C828 C 0.32405 0.17697 0.66709 0.0
H829 H 0.37644 0.14396 0.70395 0.0
H830 H 0.34569 0.14663 0.69384 0.0
H831 H 0.38997 0.20822 0.67392 0.0
H832 H 0.30555 0.20122 0.64129 0.0
H833 H 0.33632 0.19841 0.65136 0.0
C834 C 0.84103 0.25219 0.68726 0.0
C835 C 0.85135 0.25298 0.69525 0.0
C836 C 0.83977 0.23342 0.68138 0.0
C837 C 0.86521 0.18584 0.67631 0.0
H838 H 0.79809 0.14839 0.66354 0.0
C839 C 0.84134 0.09254 0.65602 0.0
C840 C 0.83118 0.09187 0.64802 0.0
C841 C 0.84249 0.11123 0.66192 0.0
C842 C 0.81706 0.15881 0.667 0.0
H843 H 0.86955 0.2354 0.70318 0.0
H844 H 0.86732 0.20258 0.69291 0.0
H845 H 0.80461 0.18417 0.67329 0.0
H846 H 0.81309 0.10954 0.64008 0.0
H847 H 0.81511 0.1422 0.65037 0.0
H848 H 0.87766 0.16047 0.67002 0.0
C849 C 0.86032 0.2166 0.69118 0.0
C850 C 0.82086 0.17941 0.67257 0.0
C851 C 0.86162 0.23544 0.69708 0.0
C852 C 0.82091 0.10941 0.64619 0.0
C853 C 0.82209 0.12816 0.6521 0.0
C854 C 0.86141 0.16524 0.67073 0.0
C855 C 0.84875 0.2149 0.68332 0.0
C856 C 0.845 0.19323 0.6773 0.0
C857 C 0.83355 0.12978 0.65998 0.0
C858 C 0.83727 0.15142 0.666 0.0
H859 H 0.83306 0.26549 0.68563 0.0
H860 H 0.83132 0.23313 0.67533 0.0
H861 H 0.88419 0.19626 0.67975 0.0
H862 H 0.84931 0.07925 0.65766 0.0
H863 H 0.85086 0.11146 0.66798 0.0
C864 C 0.09008 0.58418 0.52005 0.0
C865 C 0.0812 0.58591 0.52805 0.0
C866 C 0.07201 0.56498 0.51435 0.0
C867 C 0.99843 0.51786 0.50982 0.0
H868 H 0.02633 0.47867 0.49713 0.0
C869 C 0.92673 0.4235 0.49021 0.0
C870 C 0.93564 0.42213 0.48218 0.0
C871 C 0.94477 0.44249 0.49596 0.0
C872 C 0.01826 0.48957 0.50057 0.0
H873 H 0.04598 0.56951 0.53621 0.0
H874 H 0.01442 0.53593 0.52627 0.0
H875 H 0.05661 0.51494 0.50659 0.0
H876 H 0.97089 0.43892 0.47404 0.0
H877 H 1.0024 0.47209 0.48407 0.0
H878 H 0.96008 0.49248 0.5038 0.0
C879 C 0.03536 0.54955 0.52438 0.0
C880 C 0.03565 0.51044 0.50598 0.0
C881 C 0.05347 0.56882 0.53009 0.0
C882 C 0.96337 0.43932 0.48018 0.0
C883 C 0.98145 0.45836 0.48594 0.0
C884 C 0.98104 0.49697 0.50441 0.0
C885 C 0.04457 0.54696 0.5165 0.0
C886 C 0.02599 0.52492 0.51067 0.0
C887 C 0.97221 0.46063 0.49384 0.0
C888 C 0.99072 0.48253 0.49971 0.0
H889 H 0.11127 0.5971 0.51826 0.0
H890 H 0.07967 0.56401 0.50829 0.0
H891 H 0.99037 0.52878 0.51325 0.0
H892 H 0.90553 0.4105 0.49199 0.0
H893 H 0.93708 0.44324 0.50205 0.0
C894 C 0.44441 0.48565 0.53081 0.0
C895 C 0.42706 0.49603 0.52883 0.0
C896 C 0.4635 0.48682 0.52502 0.0
C897 C 0.50173 0.52605 0.50651 0.0
H898 H 0.52059 0.46906 0.50436 0.0
C899 C 0.57335 0.52573 0.4807 0.0
C900 C 0.59077 0.51548 0.48272 0.0
C901 C 0.55418 0.52454 0.48646 0.0
C902 C 0.51584 0.48536 0.50496 0.0
H903 H 0.41517 0.51439 0.51906 0.0
H904 H 0.44796 0.51591 0.50897 0.0
H905 H 0.48427 0.46273 0.51385 0.0
H906 H 0.60268 0.4973 0.49254 0.0
H907 H 0.56973 0.49573 0.50258 0.0
H908 H 0.53331 0.54867 0.49761 0.0
C909 C 0.44732 0.50746 0.51504 0.0
C910 C 0.49494 0.48167 0.51039 0.0
C911 C 0.4283 0.50633 0.52081 0.0
C912 C 0.5895 0.50527 0.49075 0.0
C913 C 0.57039 0.50411 0.4965 0.0
C914 C 0.52264 0.52973 0.50107 0.0
C915 C 0.46564 0.49836 0.51713 0.0
C916 C 0.48758 0.50196 0.51124 0.0
C917 C 0.55201 0.51309 0.49436 0.0
C918 C 0.53001 0.50945 0.50023 0.0
H919 H 0.44411 0.47772 0.53694 0.0
H920 H 0.47735 0.47974 0.52687 0.0
H921 H 0.497 0.54235 0.50711 0.0
H922 H 0.57367 0.53359 0.47456 0.0
H923 H 0.54028 0.53154 0.48458 0.0
C924 C 0.50932 0.08671 0.49052 0.0
C925 C 0.49895 0.07784 0.4825 0.0
C926 C 0.51069 0.06874 0.49621 0.0
C927 C 0.48557 0.9953 0.5006 0.0
H928 H 0.55277 0.0241 0.51329 0.0
C929 C 0.51016 0.92439 0.5199 0.0
C930 C 0.52029 0.93316 0.52795 0.0
C931 C 0.50883 0.9424 0.51421 0.0
C932 C 0.53378 0.01578 0.50986 0.0
H933 H 0.48077 0.04272 0.4743 0.0
H934 H 0.48322 0.01136 0.48421 0.0
H935 H 0.546 0.05414 0.50395 0.0
H936 H 0.53812 0.96816 0.5362 0.0
H937 H 0.53579 0.99959 0.52629 0.0
H938 H 0.47337 0.95692 0.50651 0.0
C939 C 0.49016 0.03221 0.48613 0.0
C940 C 0.52984 0.03303 0.50451 0.0
C941 C 0.48875 0.05021 0.48044 0.0
C942 C 0.53032 0.96075 0.53004 0.0
C943 C 0.52898 0.97879 0.52435 0.0
C944 C 0.48952 0.97804 0.50595 0.0
C945 C 0.50178 0.04143 0.49402 0.0
C946 C 0.50566 0.02304 0.49982 0.0
C947 C 0.51757 0.96965 0.51643 0.0
C948 C 0.51369 0.98804 0.51064 0.0
H949 H 0.51726 0.10783 0.49234 0.0
H950 H 0.51919 0.07641 0.50229 0.0
H951 H 0.46657 0.98697 0.49718 0.0
H952 H 0.50235 0.90331 0.51806 0.0
H953 H 0.50049 0.9348 0.50812 0.0
C954 C 0.44018 0.96209 0.03163 0.0
C955 C 0.42233 0.93454 0.02957 0.0
C956 C 0.45936 0.98002 0.02587 0.0
C957 C 0.49701 0.97872 0.00729 0.0
H958 H 0.5175 0.05506 1.00535 0.0
C959 C 0.56983 0.0503 0.98166 0.0
C960 C 0.58757 0.07789 0.98371 0.0
C961 C 0.55042 0.03247 0.98739 0.0
C962 C 0.51231 0.03387 0.00589 0.0
H963 H 0.4096 0.90468 0.01965 0.0
H964 H 0.4426 0.93598 0.0096 0.0
H965 H 0.48084 0.02534 0.01479 0.0
H966 H 0.59978 0.10797 0.99354 0.0
H967 H 0.56642 0.07682 1.00354 0.0
H968 H 0.52851 0.98725 0.99842 0.0
C969 C 0.44225 0.94362 0.01573 0.0
C970 C 0.4912 0.01681 0.0113 0.0
C971 C 0.42311 0.92573 0.02148 0.0
C972 C 0.58635 0.08688 0.99174 0.0
C973 C 0.56701 0.06907 0.99745 0.0
C974 C 0.51814 0.99579 1.0019 0.0
C975 C 0.46111 0.9708 0.01792 0.0
C976 C 0.48324 0.98899 0.01206 0.0
C977 C 0.54832 0.04181 0.99529 0.0
C978 C 0.5261 0.02361 1.00113 0.0
H979 H 0.44024 0.96953 0.03782 0.0
H980 H 0.47362 1.00078 0.02779 0.0
H981 H 0.4918 0.95752 0.00784 0.0
H982 H 0.57011 0.04274 0.97552 0.0
H983 H 0.53629 0.01166 0.98548 0.0
C984 C 0.93727 0.52082 0.98858 0.0
C985 C 0.94102 0.51953 0.98003 0.0
C986 C 0.95573 0.52026 0.99425 0.0
C987 C 0.02396 0.52363 0.99577 0.0
H988 H 0.99442 0.48871 0.01689 0.0
C989 C 0.05612 0.48263 0.02732 0.0
C990 C 0.08381 0.50302 0.02774 0.0
C991 C 0.03908 0.48344 0.02114 0.0
C992 C 1.00305 0.49809 0.01098 0.0
H993 H 0.96727 0.51702 0.97071 0.0
H994 H 0.99866 0.51471 0.98052 0.0
H995 H 0.9648 0.49306 0.00694 0.0
H996 H 0.11535 0.54016 0.02195 0.0
H997 H 0.08579 0.54238 0.01153 0.0
H998 H 0.06172 0.52697 0.99957 0.0
C999 C 0.98214 0.51718 0.98293 0.0
C1000 C 0.98606 0.5012 1.00529 0.0
C1001 C 0.96405 0.51845 0.97726 0.0
C1002 C 0.09419 0.52389 0.02175 0.0
C1003 C 0.07711 0.52507 0.01571 0.0
C1004 C 0.04077 0.51994 1.00137 0.0
C1005 C 0.97804 0.51759 0.99154 0.0
C1006 C 0.99629 0.51428 0.99762 0.0
C1007 C 0.04919 0.50503 0.01533 0.0
C1008 C 0.03071 0.5074 0.00912 0.0
H1009 H 0.91972 0.52175 0.99089 0.0
H1010 H 0.95218 0.52152 1.00078 0.0
H1011 H 0.03293 0.53413 0.99001 0.0
H1012 H 0.04754 0.46625 0.03184 0.0
H1013 H 0.01793 0.46722 0.02098 0.0
C1014 C 0.50721 0.42415 0.98963 0.0
C1015 C 0.4969 0.42318 0.98163 0.0
C1016 C 0.50836 0.44297 0.99548 0.0
C1017 C 0.48271 0.49049 1.00039 0.0
H1018 H 0.55003 0.52867 0.01303 0.0
C1019 C 0.50702 0.58502 0.02011 0.0
C1020 C 0.51747 0.58631 0.02811 0.0
C1021 C 0.50562 0.56586 0.01435 0.0
C1022 C 0.531 0.51805 0.00962 0.0
H1023 H 0.47854 0.44046 0.97364 0.0
H1024 H 0.48056 0.47335 0.98384 0.0
H1025 H 0.54345 0.49248 1.00345 0.0
H1026 H 0.53575 0.5692 0.0362 0.0
H1027 H 0.5333 0.5357 0.02615 0.0
H1028 H 0.47027 0.51608 0.00655 0.0
C1029 C 0.48765 0.45944 0.98561 0.0
C1030 C 0.52717 0.49721 1.00413 0.0
C1031 C 0.48648 0.44056 0.97975 0.0
C1032 C 0.52771 0.56885 0.03008 0.0
C1033 C 0.52629 0.54962 0.02431 0.0
C1034 C 0.48654 0.51132 0.00588 0.0
C1035 C 0.49926 0.46135 0.99348 0.0
C1036 C 0.50297 0.48315 0.99944 0.0
C1037 C 0.5146 0.54744 0.01644 0.0
C1038 C 0.51076 0.52543 0.01055 0.0
H1039 H 0.51531 0.41098 0.9913 0.0
H1040 H 0.51685 0.44343 1.00153 0.0
H1041 H 0.46369 0.47988 0.99697 0.0
H1042 H 0.49906 0.59824 0.01836 0.0
H1043 H 0.49708 0.5652 0.00829 0.0
C1044 C 0.28249 0.05025 0.09622 0.0
C1045 C 0.28034 0.04935 0.1049 0.0
C1046 C 0.29874 0.04151 0.09219 0.0
C1047 C 0.35192 0.02119 0.09564 0.0
H1048 H 0.32051 0.97903 0.07562 0.0
C1049 C 0.38265 0.9453 0.08183 0.0
C1050 C 0.38376 0.9436 0.07316 0.0
C1051 C 0.37398 0.96215 0.08551 0.0
C1052 C 0.32983 0.99109 0.08113 0.0
H1053 H 0.29438 0.03941 0.11616 0.0
H1054 H 0.32214 0.02352 0.10916 0.0
H1055 H 0.29813 1.00102 0.08239 0.0
H1056 H 0.37769 0.95924 0.06157 0.0
H1057 H 0.36252 0.9886 0.06799 0.0
H1058 H 0.3831 0.0102 0.09447 0.0
C1059 C 0.31173 0.03147 0.10543 0.0
C1060 C 0.317 1.00382 0.08502 0.0
C1061 C 0.29571 0.04053 0.10947 0.0
C1062 C 0.37708 0.96004 0.06826 0.0
C1063 C 0.36818 0.97672 0.07194 0.0
C1064 C 0.36463 0.00821 0.09177 0.0
C1065 C 0.313 0.03126 0.09672 0.0
C1066 C 0.32773 0.01896 0.09237 0.0
C1067 C 0.36598 0.97755 0.0806 0.0
C1068 C 0.35364 0.99286 0.08449 0.0
H1069 H 0.27109 0.05713 0.09251 0.0
H1070 H 0.2997 0.04238 0.08549 0.0
H1071 H 0.36108 0.03297 0.1012 0.0
H1072 H 0.38762 0.93291 0.08579 0.0
H1073 H 0.37236 0.96216 0.09219 0.0
C1074 C 0.05202 0.41962 0.06872 0.0
C1075 C 0.0688 0.44261 0.07363 0.0
C1076 C 0.03558 0.39394 0.07239 0.0
C1077 C 1.00503 0.35871 0.09225 0.0
H1078 H 0.01161 0.2993 0.08267 0.0
C1079 C 0.97372 0.25782 0.10997 0.0
C1080 C 0.96482 0.23355 0.10544 0.0
C1081 C 0.98246 0.28279 0.1059 0.0
C1082 C 0.00897 0.31539 0.08536 0.0
H1083 H 0.08043 0.45684 0.08625 0.0
H1084 H 0.05155 0.4122 0.09262 0.0
H1085 H 0.0333 0.34367 0.07588 0.0
H1086 H 0.95657 0.21625 0.09308 0.0
H1087 H 0.97075 0.25942 0.086 0.0
H1088 H 0.9807 0.33046 0.10175 0.0
C1089 C 0.05112 0.41397 0.08595 0.0
C1090 C 0.02153 0.34095 0.08145 0.0
C1091 C 0.06777 0.43957 0.08229 0.0
C1092 C 0.96351 0.2346 0.09676 0.0
C1093 C 0.97192 0.25947 0.0927 0.0
C1094 C 0.9922 0.33303 0.09612 0.0
C1095 C 0.03529 0.39072 0.08104 0.0
C1096 C 0.02002 0.36303 0.0849 0.0
C1097 C 0.98227 0.28409 0.09718 0.0
C1098 C 0.99425 0.31104 0.09279 0.0
H1099 H 0.05234 0.42121 0.06204 0.0
H1100 H 0.02339 0.37648 0.06843 0.0
H1101 H 1.00324 0.37523 0.09502 0.0
H1102 H 0.97517 0.25778 0.11666 0.0
H1103 H 0.99051 0.30121 0.1096 0.0
C1104 C 0.5892 0.6297 0.07007 0.0
C1105 C 0.56888 0.63365 0.07379 0.0
C1106 C 0.61469 0.63928 0.07393 0.0
C1107 C 0.66186 0.69495 0.08693 0.0
H1108 H 0.69813 0.65335 0.09153 0.0
C1109 C 0.77586 0.74695 0.09553 0.0
C1110 C 0.78131 0.73925 0.10327 0.0
C1111 C 0.75027 0.73152 0.09177 0.0
C1112 C 0.68818 0.66514 0.09026 0.0
H1113 H 0.55918 0.64998 0.08462 0.0
H1114 H 0.60371 0.66716 0.09121 0.0
H1115 H 0.65192 0.63036 0.08541 0.0
H1116 H 0.76449 0.70842 0.11292 0.0
H1117 H 0.71983 0.68094 0.10617 0.0
H1118 H 0.69811 0.7298 0.09157 0.0
C1119 C 0.59984 0.65648 0.08535 0.0
C1120 C 0.66189 0.65206 0.08674 0.0
C1121 C 0.57429 0.64651 0.08158 0.0
C1122 C 0.76097 0.7149 0.10695 0.0
C1123 C 0.73544 0.69915 0.1031 0.0
C1124 C 0.68825 0.70809 0.09025 0.0
C1125 C 0.62046 0.65342 0.0815 0.0
C1126 C 0.64842 0.66685 0.08511 0.0
C1127 C 0.72965 0.70775 0.09558 0.0
C1128 C 0.70166 0.69334 0.09198 0.0
H1129 H 0.58571 0.6199 0.06407 0.0
H1130 H 0.6303 0.63674 0.07083 0.0
H1131 H 0.65202 0.70687 0.08568 0.0
H1132 H 0.79098 0.76558 0.09251 0.0
H1133 H 0.74638 0.73851 0.08595 0.0
C1134 C 0.94892 0.38273 0.42926 0.0
C1135 C 0.94652 0.38148 0.43794 0.0
C1136 C 0.96537 0.37427 0.42522 0.0
C1137 C 0.01866 0.35405 0.42868 0.0
H1138 H 0.98811 0.3128 0.40847 0.0
C1139 C 0.04979 0.27863 0.41477 0.0
C1140 C 0.05136 0.27733 0.4061 0.0
C1141 C 0.04102 0.29538 0.41846 0.0
C1142 C 0.99719 0.32461 0.41404 0.0
H1143 H 0.96035 0.37122 0.44919 0.0
H1144 H 0.98846 0.35579 0.44216 0.0
H1145 H 0.96539 0.33441 0.41526 0.0
H1146 H 0.04596 0.29357 0.39453 0.0
H1147 H 0.03057 0.32272 0.40097 0.0
H1148 H 0.04991 0.34314 0.42756 0.0
C1149 C 0.97809 0.36381 0.43845 0.0
C1150 C 0.98417 0.33713 0.41795 0.0
C1151 C 0.96186 0.37261 0.4425 0.0
C1152 C 0.04502 0.29407 0.40122 0.0
C1153 C 0.03599 0.31063 0.40491 0.0
C1154 C 0.03155 0.34127 0.4248 0.0
C1155 C 0.97961 0.36394 0.42973 0.0
C1156 C 0.99458 0.35192 0.42536 0.0
C1157 C 0.03334 0.31106 0.41357 0.0
C1158 C 0.02087 0.32624 0.41746 0.0
H1159 H 0.93754 0.38966 0.42556 0.0
H1160 H 0.96652 0.3754 0.41853 0.0
H1161 H 0.02759 0.36558 0.4343 0.0
H1162 H 0.0545 0.26601 0.41872 0.0
H1163 H 0.03905 0.29507 0.42514 0.0
C1164 C 0.64078 0.59171 0.44286 0.0
C1165 C 0.63191 0.56741 0.43834 0.0
C1166 C 0.64958 0.61666 0.43876 0.0
C1167 C 0.67634 0.64904 0.41822 0.0
H1168 H 0.67034 0.70896 0.42769 0.0
C1169 C 0.71954 0.75272 0.40134 0.0
C1170 C 0.73625 0.77586 0.4062 0.0
C1171 C 0.70297 0.72718 0.40506 0.0
C1172 C 0.67221 0.69242 0.42497 0.0
H1173 H 0.62375 0.55002 0.42599 0.0
H1174 H 0.63802 0.59314 0.41888 0.0
H1175 H 0.64783 0.66432 0.4345 0.0
H1176 H 0.74755 0.79051 0.4188 0.0
H1177 H 0.71848 0.74608 0.42527 0.0
H1178 H 0.70074 0.67716 0.40872 0.0
C1179 C 0.63914 0.59324 0.42558 0.0
C1180 C 0.65939 0.66681 0.42889 0.0
C1181 C 0.63067 0.5684 0.42966 0.0
C1182 C 0.73495 0.77312 0.41487 0.0
C1183 C 0.71819 0.74764 0.41859 0.0
C1184 C 0.68891 0.67452 0.41427 0.0
C1185 C 0.64947 0.61789 0.43004 0.0
C1186 C 0.66152 0.64479 0.42563 0.0
C1187 C 0.70251 0.72422 0.41372 0.0
C1188 C 0.68728 0.69663 0.41764 0.0
H1189 H 0.64215 0.5917 0.44955 0.0
H1190 H 0.6576 0.63512 0.44244 0.0
H1191 H 0.67905 0.63292 0.41558 0.0
H1192 H 0.72004 0.75408 0.39464 0.0
H1193 H 0.69088 0.70961 0.40114 0.0
C1194 C 0.44146 0.06451 0.4304 0.0
C1195 C 0.44441 0.06618 0.43907 0.0
C1196 C 0.41587 0.04769 0.42676 0.0
C1197 C 0.34293 0.01905 0.43119 0.0
H1198 H 0.33198 0.97689 0.41116 0.0
C1199 C 0.23642 0.96067 0.41602 0.0
C1200 C 0.23527 0.9614 0.40734 0.0
C1201 C 0.26132 0.96924 0.42009 0.0
C1202 C 0.33468 0.98875 0.41671 0.0
H1203 H 0.42288 0.05057 0.45069 0.0
H1204 H 0.3782 0.0213 0.44432 0.0
H1205 H 0.37677 0.99945 0.41788 0.0
H1206 H 0.25932 0.97088 0.3961 0.0
H1207 H 0.30283 0.98652 0.40315 0.0
H1208 H 0.3014 0.00946 0.42991 0.0
C1209 C 0.3957 0.03314 0.44035 0.0
C1210 C 0.36037 1.0016 0.42058 0.0
C1211 C 0.42136 0.04976 0.444 0.0
C1212 C 0.25946 0.9699 0.4028 0.0
C1213 C 0.28446 0.97881 0.40686 0.0
C1214 C 0.31736 0.00646 0.42729 0.0
C1215 C 0.39254 0.03232 0.43169 0.0
C1216 C 0.36485 0.01706 0.42784 0.0
C1217 C 0.28586 0.97916 0.41558 0.0
C1218 C 0.31285 0.99125 0.41996 0.0
H1219 H 0.45877 0.07687 0.42642 0.0
H1220 H 0.41415 0.04769 0.42008 0.0
H1221 H 0.34578 0.03119 0.43669 0.0
H1222 H 0.21813 0.95403 0.41971 0.0
H1223 H 0.26135 0.96849 0.42678 0.0
C1224 C 0.73492 0.9654 0.91602 0.0
C1225 C 0.73565 0.96321 0.90736 0.0
C1226 C 0.71802 0.97394 0.91973 0.0
C1227 C 0.68743 0.01642 0.91531 0.0
H1228 H 0.64728 0.98613 0.93571 0.0
C1229 C 0.62923 0.06429 0.93072 0.0
C1230 C 0.63062 0.0667 0.93939 0.0
C1231 C 0.6377 0.0479 0.92665 0.0
C1232 C 0.65858 0.99504 0.93006 0.0
H1233 H 0.71836 0.96732 0.89582 0.0
H1234 H 0.68899 0.98242 0.90231 0.0
H1235 H 0.67001 0.96416 0.92893 0.0
H1236 H 0.64117 0.05298 0.95061 0.0
H1237 H 0.65668 0.02504 0.94353 0.0
H1238 H 0.67721 0.04792 0.91654 0.0
C1239 C 0.70159 0.97759 0.90622 0.0
C1240 C 0.67151 0.98234 0.92615 0.0
C1241 C 0.71827 0.96874 0.90251 0.0
C1242 C 0.63966 0.05144 0.94392 0.0
C1243 C 0.6485 0.03531 0.93984 0.0
C1244 C 0.67479 0.02928 0.91925 0.0
C1245 C 0.70165 0.98079 0.91487 0.0
C1246 C 0.68625 0.99299 0.91876 0.0
C1247 C 0.64822 0.03377 0.93112 0.0
C1248 C 0.66031 0.01893 0.92671 0.0
H1249 H 0.74804 0.96131 0.91994 0.0
H1250 H 0.71871 0.97636 0.9264 0.0
H1251 H 0.69901 0.02544 0.9097 0.0
H1252 H 0.62217 0.07561 0.92704 0.0
H1253 H 0.63643 0.04673 0.91995 0.0
C1254 C 0.94668 0.56671 0.92844 0.0
C1255 C 0.94457 0.56583 0.93712 0.0
C1256 C 0.96306 0.59151 0.92432 0.0
C1257 C 0.01654 0.6651 0.92762 0.0
H1258 H 0.98574 0.67554 0.90742 0.0
C1259 C 0.04674 0.77142 0.91379 0.0
C1260 C 0.0486 0.77444 0.90512 0.0
C1261 C 0.03807 0.74588 0.91745 0.0
C1262 C 0.99487 0.67287 0.91298 0.0
H1263 H 0.95879 0.59028 0.94829 0.0
H1264 H 0.98671 0.63356 0.94115 0.0
H1265 H 0.96316 0.63122 0.91425 0.0
H1266 H 0.04377 0.75309 0.89353 0.0
H1267 H 0.02847 0.70845 0.89993 0.0
H1268 H 0.04766 0.7073 0.92647 0.0
C1269 C 0.97622 0.61507 0.93748 0.0
C1270 C 0.98195 0.64735 0.91691 0.0
C1271 C 0.96008 0.59019 0.9416 0.0
C1272 C 0.04261 0.75151 0.90022 0.0
C1273 C 0.03364 0.72588 0.90388 0.0
C1274 C 0.02932 0.69074 0.92373 0.0
C1275 C 0.9775 0.6162 0.92876 0.0
C1276 C 0.99244 0.64308 0.92433 0.0
C1277 C 0.03078 0.72266 0.91253 0.0
C1278 C 0.01851 0.69499 0.91639 0.0
H1279 H 0.93516 0.54829 0.92479 0.0
H1280 H 0.964 0.59132 0.91762 0.0
H1281 H 0.02557 0.66259 0.93323 0.0
H1282 H 0.05119 0.78865 0.91775 0.0
H1283 H 0.03592 0.7441 0.92412 0.0
C1284 C 0.44518 0.38302 0.92806 0.0
C1285 C 0.44636 0.38233 0.93675 0.0
C1286 C 0.42028 0.37449 0.924 0.0
C1287 C 0.34699 0.3552 0.92735 0.0
H1288 H 0.33578 0.3124 0.90745 0.0
C1289 C 0.2401 0.27979 0.91362 0.0
C1290 C 0.23726 0.27782 0.90495 0.0
C1291 C 0.26567 0.29657 0.91728 0.0
C1292 C 0.33866 0.32464 0.91292 0.0
H1293 H 0.42234 0.37299 0.94799 0.0
H1294 H 0.37883 0.35746 0.94094 0.0
H1295 H 0.38013 0.33409 0.91424 0.0
H1296 H 0.25901 0.29293 0.89334 0.0
H1297 H 0.30363 0.32217 0.89973 0.0
H1298 H 0.30496 0.34468 0.92614 0.0
C1299 C 0.39719 0.36509 0.93723 0.0
C1300 C 0.36421 0.3372 0.91683 0.0
C1301 C 0.42219 0.37394 0.94129 0.0
C1302 C 0.26042 0.29395 0.90003 0.0
C1303 C 0.28606 0.31056 0.90369 0.0
C1304 C 0.32131 0.34239 0.92347 0.0
C1305 C 0.39576 0.36465 0.92851 0.0
C1306 C 0.36877 0.35255 0.92414 0.0
C1307 C 0.28911 0.31163 0.91236 0.0
C1308 C 0.31678 0.32681 0.91624 0.0
H1309 H 0.46345 0.38956 0.92437 0.0
H1310 H 0.42024 0.37517 0.9173 0.0
H1311 H 0.34973 0.36716 0.93288 0.0
H1312 H 0.2227 0.26764 0.9176 0.0
H1313 H 0.26729 0.29677 0.92397 0.0
C1314 C 0.98231 0.74699 0.59584 0.0
C1315 C 0.96947 0.73938 0.60363 0.0
C1316 C 0.9922 0.73146 0.592 0.0
C1317 C 0.9876 0.665 0.59035 0.0
H1318 H 0.06542 0.70649 0.58564 0.0
C1319 C 0.05066 0.62956 0.56989 0.0
C1320 C 0.07486 0.63327 0.57359 0.0
C1321 C 0.03485 0.63917 0.57381 0.0
C1322 C 0.04369 0.69465 0.58692 0.0
H1323 H 0.95568 0.70857 0.61328 0.0
H1324 H 0.97238 0.68089 0.6064 0.0
H1325 H 0.04255 0.72953 0.59166 0.0
H1326 H 0.10085 0.64916 0.58445 0.0
H1327 H 0.07369 0.66639 0.59112 0.0
H1328 H 0.98881 0.63019 0.5854 0.0
C1329 C 0.97495 0.69912 0.60335 0.0
C1330 C 0.03059 0.70784 0.59032 0.0
C1331 C 0.96545 0.71499 0.60728 0.0
C1332 C 0.08234 0.64589 0.58142 0.0
C1333 C 0.06686 0.65588 0.58524 0.0
C1334 C 1.00065 0.65186 0.58676 0.0
C1335 C 0.98907 0.70765 0.59578 0.0
C1336 C 1.00246 0.69318 0.5921 0.0
C1337 C 0.04326 0.65308 0.58141 0.0
C1338 C 0.02887 0.66657 0.58508 0.0
H1339 H 0.98583 0.76566 0.59285 0.0
H1340 H 1.00287 0.73839 0.58615 0.0
H1341 H 0.96588 0.65327 0.59166 0.0
H1342 H 0.04435 0.61996 0.56387 0.0
H1343 H 0.01677 0.63684 0.57072 0.0
C1344 C 0.28199 0.23551 0.59633 0.0
C1345 C 0.27992 0.23466 0.60501 0.0
C1346 C 0.29847 0.26026 0.5922 0.0
C1347 C 0.35245 0.33364 0.59541 0.0
H1348 H 0.32146 0.34426 0.57528 0.0
C1349 C 0.38424 0.44012 0.58134 0.0
C1350 C 0.38548 0.44279 0.57267 0.0
C1351 C 0.37532 0.41461 0.58507 0.0
C1352 C 0.33066 0.34154 0.58082 0.0
H1353 H 0.29432 0.2591 0.61618 0.0
H1354 H 0.32248 0.30234 0.60901 0.0
H1355 H 0.29858 0.3001 0.58219 0.0
H1356 H 0.37933 0.42085 0.56112 0.0
H1357 H 0.36368 0.37633 0.56762 0.0
H1358 H 0.384 0.37564 0.59415 0.0
C1359 C 0.31184 0.28384 0.60536 0.0
C1360 C 0.31755 0.3161 0.5848 0.0
C1361 C 0.29558 0.259 0.60949 0.0
C1362 C 0.37865 0.41954 0.56781 0.0
C1363 C 0.36948 0.39398 0.57154 0.0
C1364 C 0.36544 0.35921 0.59147 0.0
C1365 C 0.31306 0.28494 0.59664 0.0
C1366 C 0.32811 0.31177 0.59219 0.0
C1367 C 0.36717 0.3911 0.58021 0.0
C1368 C 0.35459 0.36352 0.58415 0.0
H1369 H 0.27036 0.21711 0.59269 0.0
H1370 H 0.29937 0.26005 0.58551 0.0
H1371 H 0.36151 0.33107 0.601 0.0
H1372 H 0.38934 0.45758 0.58527 0.0
H1373 H 0.37363 0.41312 0.59175 0.0
C1374 C 0.75731 0.04164 0.60764 0.0
C1375 C 0.78151 0.05029 0.60309 0.0
C1376 C 0.73227 0.03262 0.60358 0.0
C1377 C 0.69935 1.0049 0.58317 0.0
H1378 H 0.63981 0.01169 0.59257 0.0
C1379 C 0.59548 0.9614 0.5664 0.0
C1380 C 0.57237 0.94502 0.57131 0.0
C1381 C 0.62109 0.97804 0.57007 0.0
C1382 C 0.65624 0.00959 0.58988 0.0
H1383 H 0.79859 0.05781 0.5907 0.0
H1384 H 0.75531 0.04314 0.58365 0.0
H1385 H 0.6846 0.03433 0.5993 0.0
H1386 H 0.55785 0.93443 0.58396 0.0
H1387 H 0.60241 0.96363 0.59033 0.0
H1388 H 0.671 0.98014 0.57377 0.0
C1389 C 0.75536 0.04237 0.59035 0.0
C1390 C 0.68193 0.02249 0.59375 0.0
C1391 C 0.78031 0.05106 0.5944 0.0
C1392 C 0.57521 0.94677 0.57998 0.0
C1393 C 0.60077 0.9636 0.58365 0.0
C1394 C 0.6738 0.99226 0.57927 0.0
C1395 C 0.73083 0.0323 0.59487 0.0
C1396 C 0.70382 0.0201 0.5905 0.0
C1397 C 0.62416 0.97891 0.57874 0.0
C1398 C 0.65182 0.99418 0.58261 0.0
H1399 H 0.75748 0.04062 0.61434 0.0
H1400 H 0.7139 0.0248 0.6073 0.0
H1401 H 0.71537 1.00198 0.58055 0.0
H1402 H 0.59405 0.96055 0.55971 0.0
H1403 H 0.63863 0.98985 0.56611 0.0
C1404 C 0.70961 0.62475 0.73616 0.0
C1405 C 0.71808 0.60897 0.74066 0.0
C1406 C 0.70087 0.64092 0.74027 0.0
C1407 C 0.67355 0.64616 0.76075 0.0
H1408 H 0.68062 0.7127 0.75142 0.0
C1409 C 0.63044 0.70678 0.77759 0.0
C1410 C 0.61401 0.71347 0.77269 0.0
C1411 C 0.64704 0.69779 0.77391 0.0
C1412 C 0.67846 0.69412 0.75409 0.0
H1413 H 0.7256 0.59913 0.75301 0.0
H1414 H 0.71143 0.628 0.76015 0.0
H1415 H 0.70304 0.69043 0.74463 0.0
H1416 H 0.6033 0.71729 0.76005 0.0
H1417 H 0.63245 0.7019 0.75366 0.0
H1418 H 0.64894 0.64984 0.77019 0.0
C1419 C 0.71057 0.62725 0.75345 0.0
C1420 C 0.69122 0.68125 0.75019 0.0
C1421 C 0.71898 0.61085 0.74935 0.0
C1422 C 0.61567 0.71229 0.76402 0.0
C1423 C 0.63248 0.70356 0.76034 0.0
C1424 C 0.66104 0.65915 0.76469 0.0
C1425 C 0.70066 0.64195 0.74899 0.0
C1426 C 0.6887 0.65688 0.75341 0.0
C1427 C 0.64784 0.69554 0.76525 0.0
C1428 C 0.66306 0.68311 0.76136 0.0
H1429 H 0.70851 0.62364 0.72946 0.0
H1430 H 0.69316 0.65164 0.73659 0.0
H1431 H 0.67054 0.62716 0.76335 0.0
H1432 H 0.62965 0.70742 0.78428 0.0
H1433 H 0.65889 0.69208 0.77787 0.0
C1434 C 0.40137 0.10908 0.74896 0.0
C1435 C 0.40354 0.11048 0.74028 0.0
C1436 C 0.38495 0.08405 0.75295 0.0
C1437 C 0.33137 0.01072 0.74935 0.0
H1438 H 0.3622 0.99923 0.76938 0.0
C1439 C 0.30012 0.90365 0.76288 0.0
C1440 C 0.29867 0.90053 0.77154 0.0
C1441 C 0.30892 0.9293 0.75927 0.0
C1442 C 0.35305 1.00218 0.76387 0.0
H1443 H 0.38938 0.08674 0.72897 0.0
H1444 H 0.36134 0.04301 0.73591 0.0
H1445 H 0.38494 0.04378 0.76271 0.0
H1446 H 0.30431 0.92184 0.78319 0.0
H1447 H 0.31977 0.96661 0.77689 0.0
H1448 H 0.30002 0.96856 0.7504 0.0
C1449 C 0.37185 0.06128 0.73966 0.0
C1450 C 0.36608 0.02785 0.76003 0.0
C1451 C 0.38804 0.08641 0.73567 0.0
C1452 C 0.30516 0.92348 0.7765 0.0
C1453 C 0.31423 0.94919 0.77289 0.0
C1454 C 0.31847 0.98492 0.75316 0.0
C1455 C 0.37053 0.05963 0.74838 0.0
C1456 C 0.35556 0.03251 0.75268 0.0
C1457 C 0.31675 0.95253 0.76424 0.0
C1458 C 0.32925 0.9803 0.76044 0.0
H1459 H 0.41288 0.12727 0.7527 0.0
H1460 H 0.38396 0.08384 0.75965 0.0
H1461 H 0.32235 0.01353 0.74379 0.0
H1462 H 0.29529 0.88642 0.75887 0.0
H1463 H 0.31079 0.93115 0.7526 0.0
C1464 C 0.90629 0.29721 0.74817 0.0
C1465 C 0.90341 0.2956 0.7395 0.0
C1466 C 0.93184 0.30604 0.75185 0.0
C1467 C 1.00487 0.34991 0.74744 0.0
H1468 H 0.01551 0.31917 0.76762 0.0
C1469 C 0.11135 0.39785 0.76261 0.0
C1470 C 0.11255 0.4 0.77129 0.0
C1471 C 0.0864 0.38154 0.75857 0.0
C1472 C 0.0129 0.32821 0.76203 0.0
H1473 H 0.92501 0.30102 0.72792 0.0
H1474 H 0.96961 0.31654 0.73435 0.0
H1475 H 0.97072 0.29697 0.76089 0.0
H1476 H 0.08852 0.38592 0.78254 0.0
H1477 H 0.04492 0.35809 0.77552 0.0
H1478 H 0.04649 0.3817 0.74867 0.0
C1479 C 0.95209 0.31109 0.7383 0.0
C1480 C 0.98721 0.31538 0.75815 0.0
C1481 C 0.92648 0.30199 0.73462 0.0
C1482 C 0.08835 0.38459 0.77585 0.0
C1483 C 0.0633 0.36852 0.7718 0.0
C1484 C 0.03043 0.36287 0.75134 0.0
C1485 C 0.95519 0.31373 0.74695 0.0
C1486 C 0.98285 0.32618 0.75083 0.0
C1487 C 0.06186 0.36721 0.76309 0.0
C1488 C 0.03484 0.35234 0.75872 0.0
H1489 H 0.88896 0.29246 0.75212 0.0
H1490 H 0.93351 0.308 0.75853 0.0
H1491 H 1.00212 0.35907 0.74189 0.0
H1492 H 0.12965 0.40928 0.75891 0.0
H1493 H 0.08635 0.38056 0.75187 0.0
C1494 C 0.38659 0.30217 0.23507 0.0
C1495 C 0.40321 0.29567 0.23994 0.0
C1496 C 0.37003 0.31119 0.23877 0.0
C1497 C 0.3391 0.31518 0.25865 0.0
H1498 H 0.34625 0.38166 0.24927 0.0
C1499 C 0.30751 0.38444 0.27648 0.0
C1500 C 0.29881 0.39998 0.27195 0.0
C1501 C 0.31634 0.3683 0.2724 0.0
C1502 C 0.34344 0.36279 0.2519 0.0
H1503 H 0.41436 0.29224 0.25256 0.0
H1504 H 0.38529 0.30765 0.259 0.0
H1505 H 0.36794 0.35907 0.24243 0.0
H1506 H 0.29096 0.40939 0.25959 0.0
H1507 H 0.30527 0.38055 0.2525 0.0
H1508 H 0.31462 0.3189 0.26814 0.0
C1509 C 0.38507 0.30583 0.25231 0.0
C1510 C 0.35601 0.34985 0.24797 0.0
C1511 C 0.40182 0.29708 0.24861 0.0
C1512 C 0.29776 0.39786 0.26327 0.0
C1513 C 0.30625 0.38148 0.2592 0.0
C1514 C 0.32627 0.32799 0.26255 0.0
C1515 C 0.36949 0.31365 0.24743 0.0
C1516 C 0.35427 0.32606 0.25134 0.0
C1517 C 0.31642 0.36705 0.26368 0.0
C1518 C 0.3285 0.35218 0.25929 0.0
H1519 H 0.38716 0.30136 0.22837 0.0
H1520 H 0.35801 0.31673 0.23484 0.0
H1521 H 0.33714 0.29673 0.26136 0.0
H1522 H 0.30875 0.38575 0.28317 0.0
H1523 H 0.32424 0.35778 0.2761 0.0
C1524 C 0.62828 0.92382 0.27587 0.0
C1525 C 0.61281 0.89963 0.27131 0.0
C1526 C 0.64448 0.94884 0.27182 0.0
C1527 C 0.65023 0.98169 0.25136 0.0
H1528 H 0.71627 0.04126 0.2609 0.0
C1529 C 0.71102 0.08574 0.23469 0.0
C1530 C 0.71751 0.10877 0.23961 0.0
C1531 C 0.70196 0.06009 0.23835 0.0
C1532 C 0.69783 0.02482 0.25817 0.0
H1533 H 0.60356 0.88249 0.25893 0.0
H1534 H 0.63248 0.92574 0.25189 0.0
H1535 H 0.694 0.99646 0.26762 0.0
H1536 H 0.72088 0.12312 0.25225 0.0
H1537 H 0.70536 0.07851 0.25861 0.0
H1538 H 0.65404 0.01007 0.24194 0.0
C1539 C 0.63146 0.9257 0.25859 0.0
C1540 C 0.68496 0.99912 0.26203 0.0
C1541 C 0.61503 0.90079 0.26263 0.0
C1542 C 0.71604 0.10582 0.24828 0.0
C1543 C 0.70723 0.08024 0.25193 0.0
C1544 C 0.66322 0.00726 0.24747 0.0
C1545 C 0.64584 0.95024 0.2631 0.0
C1546 C 0.66077 0.97724 0.25874 0.0
C1547 C 0.69944 0.05693 0.24701 0.0
C1548 C 0.687 0.02924 0.25086 0.0
H1549 H 0.6269 0.92368 0.28256 0.0
H1550 H 0.65496 0.96722 0.27553 0.0
H1551 H 0.63137 0.96568 0.24871 0.0
H1552 H 0.71189 0.08726 0.228 0.0
H1553 H 0.69643 0.0426 0.23438 0.0
C1554 C 0.90842 0.61272 0.24751 0.0
C1555 C 0.90562 0.61102 0.23884 0.0
C1556 C 0.93394 0.62959 0.25119 0.0
C1557 C 1.00698 0.65838 0.24686 0.0
H1558 H 0.01751 0.70025 0.26693 0.0
C1559 C 0.1132 0.71665 0.26219 0.0
C1560 C 0.1142 0.7157 0.27087 0.0
C1561 C 0.08837 0.70818 0.25809 0.0
C1562 C 0.01493 0.68847 0.26137 0.0
H1563 H 0.92733 0.62667 0.22725 0.0
H1564 H 0.97187 0.65604 0.23367 0.0
H1565 H 0.97283 0.67771 0.26014 0.0
H1566 H 0.08996 0.70595 0.28208 0.0
H1567 H 0.04656 0.69049 0.27496 0.0
H1568 H 0.04851 0.66805 0.24819 0.0
C1569 C 0.95431 0.64417 0.23762 0.0
C1570 C 0.9893 0.67563 0.25746 0.0
C1571 C 0.92873 0.62748 0.23394 0.0
C1572 C 0.08994 0.7071 0.27538 0.0
C1573 C 0.065 0.69829 0.27128 0.0
C1574 C 0.03248 0.67097 0.2508 0.0
C1575 C 0.95733 0.64499 0.24629 0.0
C1576 C 0.98497 0.66028 0.25018 0.0
C1577 C 0.06375 0.69813 0.26256 0.0
C1578 C 0.03684 0.68607 0.25815 0.0
H1579 H 0.89106 0.60032 0.25147 0.0
H1580 H 0.93555 0.62959 0.25788 0.0
H1581 H 1.00425 0.64632 0.24135 0.0
H1582 H 0.13155 0.72337 0.25852 0.0
H1583 H 0.08846 0.70907 0.25139 0.0
C1584 C 0.05088 0.18321 0.11545 0.0
C1585 C 0.0394 0.18221 0.12327 0.0
C1586 C 0.07444 0.18112 0.11472 0.0
C1587 C 0.13185 0.18254 0.12649 0.0
H1588 H 0.12553 0.12992 0.10992 0.0
C1589 C 0.18867 0.12206 0.12869 0.0
C1590 C 0.19652 0.114 0.12143 0.0
C1591 C 0.17462 0.13652 0.12828 0.0
C1592 C 0.12803 0.14513 0.11447 0.0
H1593 H 0.04468 0.17979 0.13648 0.0
H1594 H 0.08567 0.17585 0.1352 0.0
H1595 H 0.09144 0.14417 0.11049 0.0
H1596 H 0.19713 0.11629 0.10803 0.0
H1597 H 0.17264 0.14185 0.1073 0.0
H1598 H 0.16807 0.1828 0.13061 0.0
C1599 C 0.07655 0.17848 0.12963 0.0
C1600 C 0.1084 0.1533 0.1148 0.0
C1601 C 0.05297 0.18065 0.13037 0.0
C1602 C 0.19131 0.12212 0.11374 0.0
C1603 C 0.1771 0.13658 0.11332 0.0
C1604 C 0.15154 0.17439 0.12615 0.0
C1605 C 0.08711 0.1779 0.12178 0.0
C1606 C 0.10973 0.17168 0.12093 0.0
C1607 C 0.16799 0.14334 0.12059 0.0
C1608 C 0.14953 0.15511 0.12024 0.0
H1609 H 0.04115 0.18471 0.10985 0.0
H1610 H 0.08233 0.18133 0.10859 0.0
H1611 H 0.13373 0.19706 0.1312 0.0
H1612 H 0.19248 0.11631 0.13474 0.0
H1613 H 0.16773 0.14109 0.13401 0.0
C1614 C 0.89234 0.07225 0.13051 0.0
C1615 C 0.90258 0.08641 0.12301 0.0
C1616 C 0.8784 0.04372 0.13072 0.0
C1617 C 0.84552 0.98047 0.11796 0.0
H1618 H 0.87257 0.95282 0.13537 0.0
C1619 C 0.83676 0.87408 0.11687 0.0
C1620 C 0.83468 0.86024 0.12432 0.0
C1621 C 0.83933 0.90002 0.11692 0.0
C1622 C 0.86426 0.95998 0.13057 0.0
H1623 H 0.90467 0.08168 0.10976 0.0
H1624 H 0.8805 0.03156 0.11013 0.0
H1625 H 0.88723 1.00117 0.13489 0.0
H1626 H 0.83181 0.86218 0.13767 0.0
H1627 H 0.83576 0.90729 0.13777 0.0
H1628 H 0.82294 0.93915 0.11356 0.0
C1629 C 0.88311 0.04263 0.11585 0.0
C1630 C 0.87275 0.98783 0.13028 0.0
C1631 C 0.89698 0.07134 0.11563 0.0
C1632 C 0.83358 0.87232 0.13182 0.0
C1633 C 0.83606 0.89829 0.13187 0.0
C1634 C 0.83691 0.95249 0.11827 0.0
C1635 C 0.87449 0.02855 0.12344 0.0
C1636 C 0.86374 0.99851 0.12393 0.0
C1637 C 0.83977 0.91281 0.12444 0.0
C1638 C 0.84646 0.94194 0.12452 0.0
H1639 H 0.89594 0.08325 0.1363 0.0
H1640 H 0.87143 0.03354 0.13664 0.0
H1641 H 0.83798 0.988 0.11304 0.0
H1642 H 0.83759 0.86541 0.11096 0.0
H1643 H 0.84238 0.91059 0.11108 0.0
C1644 C 0.94331 0.81992 0.12814 0.0
C1645 C 0.92879 0.81805 0.12086 0.0
C1646 C 0.97185 0.83466 0.12825 0.0
C1647 C 0.0346 0.86942 0.11532 0.0
H1648 H 0.0622 0.91916 0.13402 0.0
C1649 C 0.14062 0.96784 0.11559 0.0
C1650 C 0.15451 0.9776 0.12316 0.0
C1651 C 0.11474 0.94439 0.11532 0.0
C1652 C 0.05507 0.90508 0.12884 0.0
H1653 H 0.9329 0.82866 0.10784 0.0
H1654 H 0.98302 0.85483 0.10804 0.0
H1655 H 0.014 0.8851 0.13334 0.0
H1656 H 0.15275 0.96917 0.13632 0.0
H1657 H 0.10783 0.92788 0.13583 0.0
H1658 H 0.07579 0.88991 0.11076 0.0
C1659 C 0.97223 0.84467 0.11366 0.0
C1660 C 0.02731 0.88551 0.12844 0.0
C1661 C 0.94352 0.82969 0.11354 0.0
C1662 C 0.14256 0.96239 0.13039 0.0
C1663 C 0.11669 0.9388 0.13011 0.0
C1664 C 0.06251 0.889 0.11574 0.0
C1665 C 0.98665 0.84811 0.1211 0.0
C1666 C 0.01663 0.86759 0.12165 0.0
C1667 C 0.1021 0.92995 0.12261 0.0
C1668 C 0.07304 0.90731 0.12246 0.0
H1669 H 0.93259 0.81083 0.13387 0.0
H1670 H 0.98231 0.8363 0.13403 0.0
H1671 H 0.02707 0.85576 0.11005 0.0
H1672 H 0.14918 0.97896 0.10989 0.0
H1673 H 0.10411 0.93841 0.10944 0.0
C1674 C 0.11911 0.18166 0.39717 0.0
C1675 C 0.11488 0.19213 0.38977 0.0
C1676 C 0.13276 0.16661 0.39707 0.0
C1677 C 0.14501 0.12359 0.38256 0.0
H1678 H 0.19133 0.12168 0.39995 0.0
C1679 C 0.18396 0.04711 0.38097 0.0
C1680 C 0.18145 0.03271 0.38832 0.0
C1681 C 0.1815 0.07061 0.38108 0.0
C1682 C 0.17833 0.1219 0.39506 0.0
H1683 H 0.12377 0.19717 0.37661 0.0
H1684 H 0.14797 0.17165 0.37648 0.0
H1685 H 0.17673 0.15583 0.40046 0.0
H1686 H 0.17593 0.03272 0.40163 0.0
H1687 H 0.17119 0.07317 0.4018 0.0
H1688 H 0.14575 0.08931 0.37726 0.0
C1689 C 0.14007 0.17423 0.38231 0.0
C1690 C 0.16997 0.14147 0.39536 0.0
C1691 C 0.12632 0.18901 0.3824 0.0
C1692 C 0.1779 0.04321 0.39584 0.0
C1693 C 0.17534 0.0666 0.39594 0.0
C1694 C 0.15327 0.10406 0.38227 0.0
C1695 C 0.14255 0.16194 0.38958 0.0
C1696 C 0.15303 0.14241 0.38914 0.0
C1697 C 0.17637 0.0802 0.38854 0.0
C1698 C 0.16982 0.10274 0.38855 0.0
H1699 H 0.11046 0.18367 0.40294 0.0
H1700 H 0.13427 0.15737 0.40278 0.0
H1701 H 0.13148 0.12329 0.37775 0.0
H1702 H 0.18689 0.03975 0.37508 0.0
H1703 H 0.18295 0.08088 0.37528 0.0
C1704 C 0.96621 0.1402 0.39625 0.0
C1705 C 0.97816 0.15066 0.38848 0.0
C1706 C 0.94273 0.11446 0.39691 0.0
C1707 C 0.88619 0.05819 0.38498 0.0
H1708 H 0.89207 0.01217 0.40175 0.0
C1709 C 0.82938 0.94084 0.3829 0.0
C1710 C 0.82139 0.92499 0.39017 0.0
C1711 C 0.84348 0.96936 0.38329 0.0
C1712 C 0.88969 0.02479 0.39715 0.0
H1713 H 0.97377 0.14283 0.37526 0.0
H1714 H 0.93288 0.09776 0.37642 0.0
H1715 H 0.92601 0.06056 0.4012 0.0
H1716 H 0.8206 0.92679 0.40357 0.0
H1717 H 0.84512 0.97684 0.40426 0.0
H1718 H 0.8502 0.02212 0.3808 0.0
C1719 C 0.9416 0.10958 0.38201 0.0
C1720 C 0.90924 0.05262 0.39682 0.0
C1721 C 0.96512 0.13542 0.38134 0.0
C1722 C 0.82653 0.93838 0.39785 0.0
C1723 C 0.84077 0.96706 0.39825 0.0
C1724 C 0.86656 0.03032 0.38532 0.0
C1725 C 0.93059 0.09847 0.38982 0.0
C1726 C 0.90806 0.06957 0.39064 0.0
C1727 C 0.85 0.98289 0.39096 0.0
C1728 C 0.86841 0.01314 0.3913 0.0
H1729 H 0.97551 0.15149 0.40188 0.0
H1730 H 0.93447 0.10678 0.40301 0.0
H1731 H 0.88444 0.07075 0.38022 0.0
H1732 H 0.82563 0.93124 0.37686 0.0
H1733 H 0.85047 0.98076 0.37755 0.0
C1734 C 0.07347 0.88401 0.38278 0.0
C1735 C 0.0878 0.89578 0.39016 0.0
C1736 C 0.04494 0.87001 0.38263 0.0
C1737 C 0.98195 0.84028 0.39555 0.0
H1738 H 0.95433 0.86394 0.37723 0.0
C1739 C 0.87619 0.83324 0.39572 0.0
C1740 C 0.86226 0.82959 0.38818 0.0
C1741 C 0.90198 0.83545 0.3959 0.0
C1742 C 0.96148 0.85657 0.38229 0.0
H1743 H 0.08337 0.90053 0.40329 0.0
H1744 H 0.03328 0.87632 0.40301 0.0
H1745 H 1.00255 0.87814 0.37781 0.0
H1746 H 0.86384 0.82353 0.37497 0.0
H1747 H 0.90863 0.82685 0.3753 0.0
H1748 H 0.94075 0.81918 0.4001 0.0
C1749 C 0.0442 0.87773 0.39735 0.0
C1750 C 0.98925 0.86479 0.38264 0.0
C1751 C 0.0729 0.89163 0.39751 0.0
C1752 C 0.87406 0.82656 0.38088 0.0
C1753 C 0.89985 0.82867 0.38106 0.0
C1754 C 0.95404 0.83197 0.39518 0.0
C1755 C 0.02994 0.86762 0.38984 0.0
C1756 C 0.99993 0.85701 0.38931 0.0
C1757 C 0.91449 0.83395 0.38854 0.0
C1758 C 0.94352 0.8403 0.3886 0.0
H1759 H 0.08436 0.8865 0.37703 0.0
H1760 H 0.03462 0.86187 0.37679 0.0
H1761 H 0.98947 0.83371 0.40072 0.0
H1762 H 0.86772 0.83559 0.40148 0.0
H1763 H 0.91266 0.83974 0.40176 0.0
C1764 C 0.83823 0.90172 0.89886 0.0
C1765 C 0.81878 0.89679 0.8927 0.0
C1766 C 0.85331 0.88817 0.89866 0.0
C1767 C 0.87387 0.85181 0.88345 0.0
H1768 H 0.91161 0.84548 0.9026 0.0
C1769 C 0.97097 0.84336 0.8801 0.0
C1770 C 0.97839 0.83136 0.88645 0.0
C1771 C 0.94771 0.846 0.88089 0.0
C1772 C 0.90092 0.8465 0.89717 0.0
H1773 H 0.79808 0.87232 0.88193 0.0
H1774 H 0.82268 0.84711 0.88193 0.0
H1775 H 0.87645 0.85763 0.90449 0.0
H1776 H 0.9663 0.811 0.89834 0.0
H1777 H 0.92488 0.81407 0.89952 0.0
H1778 H 0.89741 0.83948 0.87617 0.0
C1779 C 0.82757 0.86243 0.88667 0.0
C1780 C 0.88097 0.85405 0.89825 0.0
C1781 C 0.81311 0.87656 0.88673 0.0
C1782 C 0.96119 0.82057 0.89338 0.0
C1783 C 0.93757 0.82263 0.89408 0.0
C1784 C 0.89335 0.84366 0.88239 0.0
C1785 C 0.84881 0.8689 0.89239 0.0
C1786 C 0.86762 0.85753 0.89139 0.0
C1787 C 0.93092 0.83617 0.88797 0.0
C1788 C 0.90776 0.84161 0.8892 0.0
H1789 H 0.84323 0.91753 0.90346 0.0
H1790 H 0.86958 0.89411 0.90314 0.0
H1791 H 0.86452 0.85454 0.87796 0.0
H1792 H 0.98398 0.85214 0.87472 0.0
H1793 H 0.94375 0.85696 0.87609 0.0
C1794 C 0.12058 0.9373 0.89831 0.0
C1795 C 0.11507 0.92472 0.89049 0.0
C1796 C 0.13514 0.96593 0.89898 0.0
C1797 C 0.17724 0.0304 0.88686 0.0
H1798 H 0.14266 0.05929 0.90121 0.0
C1799 C 0.18359 0.13495 0.88174 0.0
C1800 C 0.18379 0.14993 0.88873 0.0
C1801 C 0.18136 0.10922 0.88266 0.0
C1802 C 0.15295 0.0517 0.89727 0.0
H1803 H 0.12221 0.93231 0.87729 0.0
H1804 H 0.14703 0.98169 0.87844 0.0
H1805 H 0.12827 0.01091 0.90181 0.0
H1806 H 0.18369 0.15034 0.90218 0.0
H1807 H 0.18002 0.10574 0.90375 0.0
H1808 H 0.20113 0.07116 0.88209 0.0
C1809 C 0.1404 0.96973 0.88408 0.0
C1810 C 0.14473 0.02389 0.89764 0.0
C1811 C 0.12588 0.94128 0.88342 0.0
C1812 C 0.1833 0.13928 0.89665 0.0
C1813 C 0.18106 0.11362 0.89756 0.0
C1814 C 0.18538 0.05823 0.88647 0.0
C1815 C 0.14458 0.9825 0.89184 0.0
C1816 C 0.15632 0.01273 0.89231 0.0
C1817 C 0.17927 0.09793 0.89059 0.0
C1818 C 0.17294 0.0691 0.89156 0.0
H1819 H 0.11259 0.92513 0.90388 0.0
H1820 H 0.13835 0.97509 0.90506 0.0
H1821 H 0.18695 0.02261 0.88276 0.0
H1822 H 0.18392 0.14252 0.87555 0.0
H1823 H 0.17987 0.09761 0.87716 0.0
C1824 C 0.07449 0.18662 0.89646 0.0
C1825 C 0.08799 0.19028 0.88885 0.0
C1826 C 0.0458 0.1724 0.89682 0.0
C1827 C 0.98274 0.14378 0.88366 0.0
H1828 H 0.95209 0.0881 0.90072 0.0
C1829 C 0.87764 0.0444 0.88089 0.0
C1830 C 0.86212 0.03333 0.88813 0.0
C1831 C 0.90354 0.06795 0.88127 0.0
C1832 C 0.96017 0.10383 0.89599 0.0
H1833 H 0.08189 0.18332 0.8756 0.0
H1834 H 0.0324 0.15847 0.87624 0.0
H1835 H 1.00051 0.12209 0.90106 0.0
H1836 H 0.86094 0.03955 0.90136 0.0
H1837 H 0.9058 0.08058 0.90199 0.0
H1838 H 0.94243 0.12471 0.87842 0.0
C1839 C 0.0437 0.16664 0.88194 0.0
C1840 C 0.988 0.12341 0.8962 0.0
C1841 C 0.07222 0.18075 0.88159 0.0
C1842 C 0.87242 0.04728 0.89567 0.0
C1843 C 0.89824 0.07077 0.89604 0.0
C1844 C 0.95488 0.12408 0.88343 0.0
C1845 C 0.03007 0.16166 0.88957 0.0
C1846 C 0.9998 0.14332 0.88995 0.0
C1847 C 0.91446 0.08095 0.88889 0.0
C1848 C 0.94337 0.10357 0.88951 0.0
H1849 H 0.08602 0.19376 0.90217 0.0
H1850 H 0.03595 0.16926 0.9028 0.0
H1851 H 0.99103 0.15908 0.87881 0.0
H1852 H 0.87036 0.03419 0.87498 0.0
H1853 H 0.91556 0.07516 0.87565 0.0
C1854 C 0.8325 0.9644 0.62921 0.0
C1855 C 0.83577 0.97923 0.6219 0.0
C1856 C 0.83502 0.94094 0.62911 0.0
C1857 C 0.83993 0.89064 0.61512 0.0
H1858 H 0.88454 0.888 0.63294 0.0
C1859 C 0.89968 0.83127 0.61365 0.0
C1860 C 0.90276 0.82013 0.62108 0.0
C1861 C 0.88598 0.84628 0.61359 0.0
C1862 C 0.87165 0.88806 0.62798 0.0
H1863 H 0.84274 0.98004 0.60865 0.0
H1864 H 0.84764 0.93969 0.6085 0.0
H1865 H 0.87021 0.92195 0.63329 0.0
H1866 H 0.8918 0.81385 0.6341 0.0
H1867 H 0.86758 0.83935 0.63395 0.0
H1868 H 0.84229 0.85713 0.60969 0.0
C1869 C 0.84281 0.94588 0.61432 0.0
C1870 C 0.86335 0.90756 0.62819 0.0
C1871 C 0.84017 0.96921 0.61442 0.0
C1872 C 0.89015 0.82254 0.62829 0.0
C1873 C 0.87639 0.8373 0.62822 0.0
C1874 C 0.84836 0.87111 0.61489 0.0
C1875 C 0.841 0.93183 0.62169 0.0
C1876 C 0.84759 0.90932 0.62174 0.0
C1877 C 0.87503 0.85025 0.62096 0.0
C1878 C 0.86449 0.86973 0.6213 0.0
H1879 H 0.82889 0.97138 0.63508 0.0
H1880 H 0.83294 0.93031 0.63488 0.0
H1881 H 0.82755 0.89119 0.61008 0.0
H1882 H 0.90923 0.82982 0.608 0.0
H1883 H 0.88535 0.85604 0.60789 0.0
C1884 C 0.18594 0.0718 0.62973 0.0
C1885 C 0.19484 0.08727 0.62239 0.0
C1886 C 0.17201 0.04327 0.62949 0.0
C1887 C 0.12804 0.98688 0.61555 0.0
H1888 H 0.1313 0.94218 0.63328 0.0
C1889 C 0.05245 0.87136 0.61658 0.0
C1890 C 0.03919 0.86125 0.62422 0.0
C1891 C 0.07591 0.89714 0.61605 0.0
C1892 C 0.13012 0.95439 0.62829 0.0
H1893 H 0.19738 0.08477 0.60906 0.0
H1894 H 0.17317 0.03469 0.60863 0.0
H1895 H 0.16527 0.99088 0.63266 0.0
H1896 H 0.04127 0.86974 0.63738 0.0
H1897 H 0.08217 0.91492 0.63644 0.0
H1898 H 0.09256 0.95065 0.6113 0.0
C1899 C 0.17667 0.04478 0.61457 0.0
C1900 C 0.14959 0.9823 0.62793 0.0
C1901 C 0.19072 0.07347 0.61482 0.0
C1902 C 0.05096 0.87688 0.6314 0.0
C1903 C 0.07447 0.90278 0.63086 0.0
C1904 C 0.10867 0.959 0.6159 0.0
C1905 C 0.16658 0.02933 0.6219 0.0
C1906 C 0.14843 0.99903 0.62166 0.0
C1907 C 0.08672 0.91354 0.62314 0.0
C1908 C 0.10913 0.9425 0.62236 0.0
H1909 H 0.18888 0.0817 0.63569 0.0
H1910 H 0.16433 0.03217 0.63525 0.0
H1911 H 0.12618 0.99913 0.61071 0.0
H1912 H 0.04416 0.85975 0.61093 0.0
H1913 H 0.08516 0.90456 0.61003 0.0
C1914 C 0.14078 0.17916 0.61569 0.0
C1915 C 0.15451 0.18313 0.62329 0.0
C1916 C 0.11498 0.17693 0.61538 0.0
C1917 C 0.05509 0.15619 0.62877 0.0
H1918 H 0.02757 0.17839 0.61006 0.0
C1919 C 0.94298 0.12825 0.6278 0.0
C1920 C 0.92893 0.11636 0.6204 0.0
C1921 C 0.97151 0.14235 0.62804 0.0
C1922 C 0.03495 0.17199 0.61531 0.0
H1923 H 0.15258 0.18974 0.63644 0.0
H1924 H 0.10776 0.18633 0.63588 0.0
H1925 H 0.07629 0.19303 0.61087 0.0
H1926 H 0.93383 0.11149 0.60731 0.0
H1927 H 0.98391 0.13585 0.60774 0.0
H1928 H 0.01389 0.13464 0.63313 0.0
C1929 C 0.11671 0.18431 0.63018 0.0
C1930 C 0.06286 0.18038 0.61578 0.0
C1931 C 0.14252 0.18646 0.6305 0.0
C1932 C 0.94409 0.12049 0.6131 0.0
C1933 C 0.97279 0.13447 0.61336 0.0
C1934 C 0.02732 0.14788 0.62831 0.0
C1935 C 0.10227 0.1787 0.62265 0.0
C1936 C 0.07323 0.17229 0.62247 0.0
C1937 C 0.98678 0.1447 0.6209 0.0
C1938 C 0.01679 0.15542 0.62154 0.0
H1939 H 0.1494 0.17658 0.61 0.0
H1940 H 0.10445 0.17239 0.60949 0.0
H1941 H 0.06212 0.14901 0.63391 0.0
H1942 H 0.93188 0.12577 0.63351 0.0
H1943 H 0.98161 0.15059 0.63391 0.0
C1944 C 0.71857 0.51233 0.46342 0.0
C1945 C 0.70521 0.51427 0.45632 0.0
C1946 C 0.74204 0.50997 0.46268 0.0
C1947 C 0.77382 0.48486 0.44781 0.0
H1948 H 0.83331 0.51376 0.46368 0.0
C1949 C 0.85625 0.45293 0.44676 0.0
C1950 C 0.86137 0.44475 0.45446 0.0
C1951 C 0.84214 0.4675 0.44634 0.0
C1952 C 0.81683 0.5055 0.4592 0.0
H1953 H 0.70724 0.51722 0.4429 0.0
H1954 H 0.74822 0.51347 0.44164 0.0
H1955 H 0.79919 0.52828 0.46428 0.0
H1956 H 0.85728 0.44701 0.46776 0.0
H1957 H 0.8327 0.47196 0.46703 0.0
H1958 H 0.79077 0.46136 0.4429 0.0
C1959 C 0.74024 0.51314 0.44777 0.0
C1960 C 0.79726 0.51382 0.45955 0.0
C1961 C 0.7168 0.51545 0.44851 0.0
C1962 C 0.85353 0.45281 0.46172 0.0
C1963 C 0.83958 0.46738 0.4613 0.0
C1964 C 0.79332 0.47652 0.44747 0.0
C1965 C 0.7527 0.50957 0.45483 0.0
C1966 C 0.77521 0.50318 0.45396 0.0
C1967 C 0.83305 0.4743 0.45362 0.0
C1968 C 0.81475 0.48626 0.45327 0.0
H1969 H 0.71021 0.51134 0.46953 0.0
H1970 H 0.751 0.50707 0.46824 0.0
H1971 H 0.75691 0.47592 0.44348 0.0
H1972 H 0.86206 0.44709 0.44105 0.0
H1973 H 0.83775 0.47284 0.44032 0.0
C1974 C 0.50125 0.20873 0.46352 0.0
C1975 C 0.49915 0.19349 0.45639 0.0
C1976 C 0.50355 0.23455 0.46284 0.0
C1977 C 0.52829 0.29155 0.44804 0.0
H1978 H 0.49963 0.32193 0.46406 0.0
C1979 C 0.5603 0.40593 0.4472 0.0
C1980 C 0.56859 0.41913 0.45491 0.0
C1981 C 0.5457 0.37726 0.44675 0.0
C1982 C 0.50782 0.31376 0.45953 0.0
H1983 H 0.49584 0.19266 0.44298 0.0
H1984 H 0.4995 0.23737 0.44182 0.0
H1985 H 0.48513 0.27328 0.46458 0.0
H1986 H 0.56645 0.41256 0.46821 0.0
H1987 H 0.54146 0.36305 0.46741 0.0
H1988 H 0.55173 0.33207 0.44317 0.0
C1989 C 0.49999 0.22968 0.44793 0.0
C1990 C 0.49952 0.28588 0.45984 0.0
C1991 C 0.49775 0.20395 0.44861 0.0
C1992 C 0.56058 0.4031 0.46215 0.0
C1993 C 0.54599 0.3746 0.4617 0.0
C1994 C 0.53663 0.3194 0.44774 0.0
C1995 C 0.50373 0.24565 0.45501 0.0
C1996 C 0.51008 0.27455 0.4542 0.0
C1997 C 0.53896 0.36126 0.45399 0.0
C1998 C 0.52698 0.331 0.45359 0.0
H1999 H 0.50242 0.20132 0.46961 0.0
H2000 H 0.50658 0.24636 0.46842 0.0
H2001 H 0.53716 0.28364 0.44366 0.0
H2002 H 0.56609 0.41767 0.44151 0.0
H2003 H 0.54028 0.36763 0.44071 0.0
C2004 C 0.80477 0.29458 0.46286 0.0
C2005 C 0.81989 0.30811 0.45575 0.0
C2006 C 0.77895 0.27109 0.46213 0.0
C2007 C 0.72167 0.23955 0.44741 0.0
H2008 H 0.69166 0.1797 0.46316 0.0
C2009 C 0.60725 0.15722 0.44665 0.0
C2010 C 0.59426 0.15198 0.45441 0.0
C2011 C 0.6359 0.17129 0.44613 0.0
C2012 C 0.69973 0.19628 0.45871 0.0
H2013 H 0.82047 0.30636 0.44232 0.0
H2014 H 0.77574 0.26535 0.44109 0.0
H2015 H 0.74032 0.21385 0.46366 0.0
H2016 H 0.60118 0.15582 0.46769 0.0
H2017 H 0.65066 0.18032 0.46677 0.0
H2018 H 0.68104 0.22268 0.44265 0.0
C2019 C 0.78355 0.27321 0.44722 0.0
C2020 C 0.72761 0.21586 0.45901 0.0
C2021 C 0.80928 0.29667 0.44793 0.0
C2022 C 0.61048 0.15966 0.4616 0.0
C2023 C 0.63897 0.17356 0.46108 0.0
C2024 C 0.69382 0.22004 0.44713 0.0
C2025 C 0.76771 0.26058 0.45429 0.0
C2026 C 0.73881 0.23804 0.45347 0.0
C2027 C 0.6521 0.18021 0.45334 0.0
C2028 C 0.68235 0.19849 0.45289 0.0
H2029 H 0.81229 0.30283 0.46897 0.0
H2030 H 0.76724 0.26199 0.46772 0.0
H2031 H 0.72948 0.25656 0.44312 0.0
H2032 H 0.59536 0.15154 0.44099 0.0
H2033 H 0.64538 0.17577 0.44006 0.0
C2034 C 0.79321 0.52291 0.71567 0.0
C2035 C 0.78212 0.52603 0.72312 0.0
C2036 C 0.80709 0.50827 0.71548 0.0
C2037 C 0.83798 0.47599 0.72831 0.0
H2038 H 0.81304 0.42352 0.71029 0.0
C2039 C 0.84572 0.37767 0.72873 0.0
C2040 C 0.84891 0.36699 0.72121 0.0
C2041 C 0.84329 0.40113 0.72885 0.0
C2042 C 0.82075 0.43837 0.71527 0.0
H2043 H 0.77843 0.5177 0.73629 0.0
H2044 H 0.80246 0.49164 0.73594 0.0
H2045 H 0.79866 0.45742 0.71087 0.0
H2046 H 0.8539 0.37379 0.70795 0.0
H2047 H 0.85017 0.41505 0.70816 0.0
H2048 H 0.85962 0.45635 0.73279 0.0
C2049 C 0.80059 0.50078 0.73026 0.0
C2050 C 0.81244 0.45785 0.71561 0.0
C2051 C 0.7868 0.51569 0.73047 0.0
C2052 C 0.85124 0.3813 0.71385 0.0
C2053 C 0.8489 0.40486 0.71397 0.0
C2054 C 0.84639 0.45646 0.72795 0.0
C2055 C 0.81006 0.49612 0.7227 0.0
C2056 C 0.8207 0.47675 0.72217 0.0
C2057 C 0.84411 0.41462 0.72145 0.0
C2058 C 0.83759 0.43718 0.72148 0.0
H2059 H 0.79031 0.53098 0.70991 0.0
H2060 H 0.81473 0.50568 0.70959 0.0
H2061 H 0.84493 0.49042 0.7334 0.0
H2062 H 0.84391 0.36727 0.73454 0.0
H2063 H 0.83939 0.40784 0.73472 0.0
C2064 C 0.4894 0.27269 0.7159 0.0
C2065 C 0.48647 0.25831 0.72329 0.0
C2066 C 0.50398 0.30123 0.71577 0.0
C2067 C 0.53655 0.3641 0.72874 0.0
H2068 H 0.58851 0.39208 0.7106 0.0
C2069 C 0.63499 0.4701 0.72918 0.0
C2070 C 0.64545 0.48416 0.72167 0.0
C2071 C 0.61149 0.44423 0.7293 0.0
C2072 C 0.57381 0.38483 0.71562 0.0
H2073 H 0.49505 0.26265 0.73646 0.0
H2074 H 0.521 0.31274 0.73622 0.0
H2075 H 0.55463 0.3438 0.71111 0.0
H2076 H 0.63823 0.48272 0.70844 0.0
H2077 H 0.59692 0.43777 0.70865 0.0
H2078 H 0.55634 0.40527 0.73333 0.0
C2079 C 0.51176 0.30187 0.73053 0.0
C2080 C 0.55433 0.35702 0.71592 0.0
C2081 C 0.49691 0.27316 0.73067 0.0
C2082 C 0.63089 0.4724 0.71433 0.0
C2083 C 0.6073 0.44652 0.71445 0.0
C2084 C 0.55607 0.39204 0.72843 0.0
C2085 C 0.51626 0.31618 0.72301 0.0
C2086 C 0.53561 0.34621 0.72252 0.0
C2087 C 0.59776 0.43177 0.7219 0.0
C2088 C 0.57517 0.4027 0.7219 0.0
H2089 H 0.48125 0.26185 0.71013 0.0
H2090 H 0.50642 0.31158 0.70991 0.0
H2091 H 0.52226 0.35649 0.73387 0.0
H2092 H 0.64559 0.47853 0.73497 0.0
H2093 H 0.60494 0.43346 0.73514 0.0
C2094 C 0.74016 0.21854 0.71587 0.0
C2095 C 0.75465 0.23025 0.72323 0.0
C2096 C 0.71162 0.2047 0.71576 0.0
C2097 C 0.64888 0.17509 0.72877 0.0
H2098 H 0.621 0.19885 0.71055 0.0
C2099 C 0.54293 0.16763 0.72914 0.0
C2100 C 0.52887 0.16395 0.72162 0.0
C2101 C 0.5688 0.17002 0.72926 0.0
C2102 C 0.62822 0.19146 0.71559 0.0
H2103 H 0.7505 0.23505 0.73637 0.0
H2104 H 0.7004 0.21108 0.73617 0.0
H2105 H 0.66924 0.21306 0.71106 0.0
H2106 H 0.53035 0.15809 0.7084 0.0
H2107 H 0.5753 0.16175 0.70864 0.0
H2108 H 0.60773 0.15392 0.73337 0.0
C2109 C 0.7112 0.21245 0.73049 0.0
C2110 C 0.656 0.19968 0.71589 0.0
C2111 C 0.7399 0.2262 0.73061 0.0
C2112 C 0.54066 0.16113 0.71429 0.0
C2113 C 0.56655 0.16343 0.71442 0.0
C2114 C 0.62096 0.16676 0.72845 0.0
C2115 C 0.69679 0.20239 0.723 0.0
C2116 C 0.66678 0.19185 0.72252 0.0
C2117 C 0.58128 0.16869 0.72188 0.0
C2118 C 0.61034 0.17512 0.7219 0.0
H2119 H 0.75091 0.22095 0.71009 0.0
H2120 H 0.70118 0.1966 0.70993 0.0
H2121 H 0.65647 0.16848 0.73392 0.0
H2122 H 0.53448 0.16983 0.73492 0.0
H2123 H 0.57956 0.1743 0.73512 0.0
C2124 C 0.63132 0.1611 0.2145 0.0
C2125 C 0.64613 0.16398 0.22179 0.0
C2126 C 0.60777 0.16345 0.2147 0.0
C2127 C 0.55717 0.16718 0.22886 0.0
H2128 H 0.55483 0.21318 0.21144 0.0
C2129 C 0.49795 0.22691 0.23106 0.0
C2130 C 0.48714 0.23087 0.22369 0.0
C2131 C 0.5128 0.21305 0.23094 0.0
C2132 C 0.55479 0.19989 0.21628 0.0
H2133 H 0.64678 0.17001 0.23509 0.0
H2134 H 0.60624 0.17459 0.2354 0.0
H2135 H 0.58876 0.19888 0.21086 0.0
H2136 H 0.48123 0.22126 0.21058 0.0
H2137 H 0.5064 0.1967 0.21041 0.0
H2138 H 0.52358 0.16908 0.2344 0.0
C2139 C 0.61253 0.17022 0.22953 0.0
C2140 C 0.57429 0.19161 0.21594 0.0
C2141 C 0.63597 0.16776 0.22934 0.0
C2142 C 0.48967 0.21892 0.21634 0.0
C2143 C 0.50424 0.20497 0.21624 0.0
C2144 C 0.53763 0.17556 0.22922 0.0
C2145 C 0.59853 0.16884 0.22218 0.0
C2146 C 0.57597 0.17537 0.22226 0.0
C2147 C 0.51692 0.20279 0.22346 0.0
C2148 C 0.53635 0.1922 0.22296 0.0
H2149 H 0.63841 0.15797 0.20859 0.0
H2150 H 0.59717 0.16172 0.20894 0.0
H2151 H 0.55767 0.15442 0.23379 0.0
H2152 H 0.4964 0.23595 0.23681 0.0
H2153 H 0.52235 0.21179 0.23661 0.0
C2154 C 0.79112 0.27416 0.21668 0.0
C2155 C 0.78278 0.25823 0.22393 0.0
C2156 C 0.80581 0.30267 0.2171 0.0
C2157 C 0.8148 0.35806 0.2309 0.0
H2158 H 0.86679 0.40388 0.21411 0.0
C2159 C 0.85332 0.47337 0.22968 0.0
C2160 C 0.85198 0.48354 0.22184 0.0
C2161 C 0.85125 0.44775 0.23047 0.0
C2162 C 0.85227 0.39136 0.21883 0.0
H2163 H 0.78481 0.25985 0.23734 0.0
H2164 H 0.8108 0.30989 0.23809 0.0
H2165 H 0.85232 0.35525 0.21477 0.0
H2166 H 0.84904 0.47534 0.20865 0.0
H2167 H 0.84519 0.43049 0.21004 0.0
H2168 H 0.8141 0.39388 0.23482 0.0
C2169 C 0.80555 0.30018 0.23206 0.0
C2170 C 0.84399 0.3635 0.21922 0.0
C2171 C 0.79084 0.27152 0.23164 0.0
C2172 C 0.85015 0.46815 0.21478 0.0
C2173 C 0.84803 0.44244 0.21557 0.0
C2174 C 0.82313 0.3859 0.23052 0.0
C2175 C 0.81261 0.3161 0.22479 0.0
C2176 C 0.82464 0.34636 0.22514 0.0
C2177 C 0.84776 0.43161 0.22345 0.0
C2178 C 0.84151 0.40278 0.22438 0.0
H2179 H 0.78542 0.26464 0.21063 0.0
H2180 H 0.81058 0.31414 0.21137 0.0
H2181 H 0.79956 0.34547 0.23544 0.0
H2182 H 0.85502 0.48479 0.23526 0.0
H2183 H 0.85167 0.44026 0.23662 0.0
C2184 C 0.73998 0.51603 0.21602 0.0
C2185 C 0.75611 0.5242 0.22323 0.0
C2186 C 0.71149 0.50202 0.2165 0.0
C2187 C 0.65651 0.45624 0.23055 0.0
H2188 H 0.61007 0.46141 0.21378 0.0
C2189 C 0.54094 0.37995 0.22996 0.0
C2190 C 0.53018 0.368 0.22221 0.0
C2191 C 0.56677 0.40334 0.23057 0.0
C2192 C 0.62276 0.45968 0.2185 0.0
H2193 H 0.75483 0.52538 0.23663 0.0
H2194 H 0.7048 0.50096 0.2375 0.0
H2195 H 0.65874 0.49554 0.2142 0.0
H2196 H 0.53763 0.37229 0.20897 0.0
H2197 H 0.58285 0.413 0.21003 0.0
H2198 H 0.62081 0.42002 0.23471 0.0
C2199 C 0.71435 0.50514 0.23145 0.0
C2200 C 0.65065 0.47925 0.21875 0.0
C2201 C 0.74301 0.51931 0.23096 0.0
C2202 C 0.54526 0.38094 0.21504 0.0
C2203 C 0.57119 0.40437 0.21565 0.0
C2204 C 0.62865 0.43674 0.23031 0.0
C2205 C 0.69825 0.49575 0.22423 0.0
C2206 C 0.668 0.47743 0.22467 0.0
C2207 C 0.58257 0.41539 0.22344 0.0
C2208 C 0.61152 0.43788 0.22418 0.0
H2209 H 0.74936 0.51959 0.20995 0.0
H2210 H 0.69986 0.4949 0.21081 0.0
H2211 H 0.66926 0.45389 0.2351 0.0
H2212 H 0.52979 0.37072 0.23562 0.0
H2213 H 0.57467 0.4116 0.23665 0.0
C2214 C 0.55971 0.15722 0.94756 0.0
C2215 C 0.56747 0.15235 0.95537 0.0
C2216 C 0.54535 0.17148 0.94691 0.0
C2217 C 0.50719 0.19783 0.95923 0.0
H2218 H 0.53789 0.25699 0.94325 0.0
C2219 C 0.50108 0.29672 0.96254 0.0
C2220 C 0.49948 0.30975 0.95531 0.0
C2221 C 0.50331 0.27314 0.96202 0.0
C2222 C 0.52865 0.24029 0.94765 0.0
H2223 H 0.56465 0.1571 0.96862 0.0
H2224 H 0.54009 0.18196 0.96747 0.0
H2225 H 0.55212 0.22284 0.94309 0.0
H2226 H 0.49703 0.30704 0.9419 0.0
H2227 H 0.50058 0.26587 0.94103 0.0
H2228 H 0.48445 0.21598 0.96397 0.0
C2229 C 0.54484 0.17475 0.96184 0.0
C2230 C 0.53679 0.22063 0.94754 0.0
C2231 C 0.55918 0.16063 0.96249 0.0
C2232 C 0.49855 0.29774 0.94759 0.0
C2233 C 0.50073 0.27419 0.94708 0.0
C2234 C 0.49908 0.21756 0.95935 0.0
C2235 C 0.53834 0.181 0.95405 0.0
C2236 C 0.52663 0.19947 0.95344 0.0
C2237 C 0.50393 0.26203 0.95427 0.0
C2238 C 0.51012 0.23934 0.95366 0.0
H2239 H 0.56571 0.15106 0.94196 0.0
H2240 H 0.54034 0.17565 0.94081 0.0
H2241 H 0.49862 0.18156 0.96378 0.0
H2242 H 0.50188 0.30541 0.96859 0.0
H2243 H 0.50593 0.26442 0.96769 0.0
C2244 C 0.85503 0.40475 0.94745 0.0
C2245 C 0.85929 0.41876 0.955 0.0
C2246 C 0.84092 0.37606 0.94728 0.0
C2247 C 0.81437 0.31394 0.9607 0.0
H2248 H 0.75637 0.28197 0.94437 0.0
C2249 C 0.71628 0.20865 0.96476 0.0
C2250 C 0.70368 0.19289 0.95766 0.0
C2251 C 0.73976 0.23449 0.96404 0.0
C2252 C 0.77276 0.29039 0.94889 0.0
H2253 H 0.8535 0.41358 0.96831 0.0
H2254 H 0.8289 0.36399 0.96798 0.0
H2255 H 0.78997 0.33044 0.94365 0.0
H2256 H 0.70711 0.19113 0.94431 0.0
H2257 H 0.74814 0.23584 0.9431 0.0
H2258 H 0.79649 0.27392 0.9661 0.0
C2259 C 0.83649 0.37495 0.9622 0.0
C2260 C 0.79211 0.31826 0.94846 0.0
C2261 C 0.85045 0.4035 0.96237 0.0
C2262 C 0.71607 0.20283 0.9499 0.0
C2263 C 0.73954 0.22856 0.9492 0.0
C2264 C 0.79498 0.28602 0.96114 0.0
C2265 C 0.83094 0.36083 0.95464 0.0
C2266 C 0.81282 0.33053 0.95446 0.0
C2267 C 0.75119 0.24509 0.95622 0.0
C2268 C 0.77361 0.27401 0.95532 0.0
H2269 H 0.86164 0.41589 0.94167 0.0
H2270 H 0.83729 0.3658 0.94135 0.0
H2271 H 0.83031 0.32264 0.96536 0.0
H2272 H 0.70728 0.20165 0.97082 0.0
H2273 H 0.74807 0.24671 0.96958 0.0
C2274 C 0.80851 0.51892 0.96283 0.0
C2275 C 0.82013 0.51534 0.95558 0.0
C2276 C 0.78262 0.5166 0.96263 0.0
C2277 C 0.72774 0.51163 0.94849 0.0
H2278 H 0.67993 0.46626 0.96611 0.0
C2279 C 0.60882 0.45105 0.9464 0.0
C2280 C 0.59403 0.44706 0.95376 0.0
C2281 C 0.63754 0.46512 0.94651 0.0
C2282 C 0.69302 0.47939 0.96121 0.0
H2283 H 0.81428 0.50821 0.94233 0.0
H2284 H 0.76921 0.50375 0.94202 0.0
H2285 H 0.7283 0.48107 0.96666 0.0
H2286 H 0.59764 0.45677 0.96686 0.0
H2287 H 0.64738 0.48175 0.96702 0.0
H2288 H 0.69199 0.50909 0.94293 0.0
C2289 C 0.78008 0.5086 0.94786 0.0
C2290 C 0.72088 0.48795 0.96153 0.0
C2291 C 0.80595 0.51099 0.94805 0.0
C2292 C 0.60845 0.45914 0.9611 0.0
C2293 C 0.63699 0.47333 0.9612 0.0
C2294 C 0.69975 0.50299 0.94816 0.0
C2295 C 0.76772 0.51058 0.95518 0.0
C2296 C 0.7386 0.50393 0.95514 0.0
C2297 C 0.65191 0.47559 0.95399 0.0
C2298 C 0.682 0.48654 0.95448 0.0
H2299 H 0.81891 0.52248 0.96873 0.0
H2300 H 0.77394 0.51879 0.96837 0.0
H2301 H 0.74084 0.52416 0.9435 0.0
H2302 H 0.59827 0.4419 0.94065 0.0
H2303 H 0.64838 0.46642 0.94084 0.0
C2304 C 0.38328 0.84722 0.78112 0.0
C2305 C 0.3715 0.84626 0.78888 0.0
C2306 C 0.40677 0.84495 0.78051 0.0
C2307 C 0.46363 0.84622 0.79254 0.0
H2308 H 0.45763 0.79325 0.77614 0.0
C2309 C 0.5202 0.78566 0.79527 0.0
C2310 C 0.52815 0.77732 0.78808 0.0
C2311 C 0.50622 0.80016 0.79472 0.0
C2312 C 0.46005 0.80856 0.78064 0.0
H2313 H 0.37619 0.84372 0.80213 0.0
H2314 H 0.41708 0.83952 0.80106 0.0
H2315 H 0.42363 0.80766 0.7765 0.0
H2316 H 0.52901 0.77913 0.77467 0.0
H2317 H 0.50465 0.80477 0.7737 0.0
H2318 H 0.49969 0.84648 0.79681 0.0
C2319 C 0.40823 0.84222 0.79544 0.0
C2320 C 0.44046 0.81681 0.78085 0.0
C2321 C 0.38471 0.84455 0.79605 0.0
C2322 C 0.52311 0.78518 0.78032 0.0
C2323 C 0.50897 0.79969 0.77977 0.0
C2324 C 0.48328 0.83801 0.79231 0.0
C2325 C 0.41909 0.84163 0.78764 0.0
C2326 C 0.44167 0.83531 0.78691 0.0
C2327 C 0.49976 0.80675 0.78696 0.0
C2328 C 0.48138 0.81859 0.78647 0.0
H2329 H 0.37385 0.84882 0.77546 0.0
H2330 H 0.4149 0.84513 0.77442 0.0
H2331 H 0.46541 0.86083 0.7972 0.0
H2332 H 0.52389 0.78011 0.80136 0.0
H2333 H 0.49925 0.80494 0.80039 0.0
C2334 C 0.22272 0.73734 0.79512 0.0
C2335 C 0.23435 0.75165 0.78773 0.0
C2336 C 0.20873 0.7088 0.79528 0.0
C2337 C 0.17857 0.64576 0.7824 0.0
H2338 H 0.20226 0.61804 0.80068 0.0
C2339 C 0.17016 0.53935 0.78231 0.0
C2340 C 0.16654 0.52551 0.78987 0.0
C2341 C 0.17275 0.5653 0.78211 0.0
C2342 C 0.19489 0.62522 0.79563 0.0
H2343 H 0.23888 0.7472 0.77459 0.0
H2344 H 0.21465 0.69708 0.77488 0.0
H2345 H 0.21683 0.66634 0.80005 0.0
H2346 H 0.16095 0.52747 0.80309 0.0
H2347 H 0.16493 0.57255 0.80273 0.0
H2348 H 0.15706 0.60449 0.7779 0.0
C2349 C 0.21618 0.70802 0.78054 0.0
C2350 C 0.20332 0.65304 0.79525 0.0
C2351 C 0.23008 0.73673 0.78037 0.0
C2352 C 0.16394 0.5376 0.79717 0.0
C2353 C 0.16643 0.56356 0.79696 0.0
C2354 C 0.17004 0.61779 0.78279 0.0
C2355 C 0.2062 0.69378 0.78807 0.0
C2356 C 0.1955 0.66375 0.7886 0.0
C2357 C 0.17167 0.57809 0.78946 0.0
C2358 C 0.17836 0.60722 0.78937 0.0
H2359 H 0.22531 0.74823 0.80088 0.0
H2360 H 0.20068 0.69851 0.80113 0.0
H2361 H 0.17197 0.6533 0.77724 0.0
H2362 H 0.17219 0.53067 0.77656 0.0
H2363 H 0.17699 0.57588 0.77623 0.0
C2364 C 0.47616 0.62894 0.78208 0.0
C2365 C 0.48645 0.64064 0.78989 0.0
C2366 C 0.45047 0.60544 0.78134 0.0
C2367 C 0.39415 0.54837 0.7931 0.0
H2368 H 0.34817 0.5546 0.77639 0.0
C2369 C 0.27684 0.49153 0.79516 0.0
C2370 C 0.26099 0.48372 0.78789 0.0
C2371 C 0.30536 0.50559 0.79477 0.0
C2372 C 0.36079 0.55212 0.78097 0.0
H2373 H 0.47833 0.63577 0.8031 0.0
H2374 H 0.43336 0.59485 0.8018 0.0
H2375 H 0.39654 0.58862 0.777 0.0
H2376 H 0.26278 0.4832 0.77449 0.0
H2377 H 0.31284 0.50767 0.77379 0.0
H2378 H 0.35811 0.51221 0.7972 0.0
C2379 C 0.44528 0.60378 0.79624 0.0
C2380 C 0.3886 0.57171 0.78133 0.0
C2381 C 0.47106 0.62733 0.79699 0.0
C2382 C 0.27438 0.48899 0.7802 0.0
C2383 C 0.30306 0.50319 0.77981 0.0
C2384 C 0.3663 0.52869 0.79272 0.0
C2385 C 0.43436 0.59302 0.78839 0.0
C2386 C 0.40552 0.57042 0.78751 0.0
C2387 C 0.31889 0.51226 0.78709 0.0
C2388 C 0.34914 0.53068 0.78677 0.0
H2389 H 0.48756 0.63846 0.77648 0.0
H2390 H 0.44292 0.59738 0.77521 0.0
H2391 H 0.40669 0.54652 0.79784 0.0
H2392 H 0.26724 0.48768 0.8012 0.0
H2393 H 0.31676 0.51245 0.80051 0.0
C2394 C 0.45704 0.85587 0.04818 0.0
C2395 C 0.44712 0.85946 0.05579 0.0
C2396 C 0.47132 0.84164 0.04777 0.0
C2397 C 0.50563 0.81176 0.06007 0.0
H2398 H 0.4782 0.75741 0.04256 0.0
C2399 C 0.51505 0.7145 0.0606 0.0
C2400 C 0.51679 0.70288 0.05307 0.0
C2401 C 0.51248 0.73787 0.06068 0.0
C2402 C 0.48662 0.7728 0.04738 0.0
H2403 H 0.44593 0.85241 0.06901 0.0
H2404 H 0.47066 0.82707 0.06828 0.0
H2405 H 0.46305 0.79068 0.04334 0.0
H2406 H 0.51913 0.70796 0.03973 0.0
H2407 H 0.51517 0.74912 0.03987 0.0
H2408 H 0.52878 0.79332 0.0642 0.0
C2409 C 0.46755 0.83552 0.06264 0.0
C2410 C 0.47785 0.79191 0.04784 0.0
C2411 C 0.45336 0.85001 0.06306 0.0
C2412 C 0.51763 0.71623 0.04564 0.0
C2413 C 0.51514 0.73972 0.04572 0.0
C2414 C 0.51451 0.79262 0.05959 0.0
C2415 C 0.47587 0.8304 0.05494 0.0
C2416 C 0.48698 0.81145 0.05424 0.0
C2417 C 0.5117 0.75035 0.05323 0.0
C2418 C 0.50481 0.77265 0.0533 0.0
H2419 H 0.45294 0.86327 0.04247 0.0
H2420 H 0.47803 0.83869 0.04176 0.0
H2421 H 0.51328 0.82672 0.06502 0.0
H2422 H 0.51445 0.70488 0.06646 0.0
H2423 H 0.50966 0.74526 0.06658 0.0
C2424 C 0.1493 0.60704 0.05139 0.0
C2425 C 0.14857 0.59227 0.05849 0.0
C2426 C 0.16397 0.63557 0.05137 0.0
C2427 C 0.20132 0.69794 0.06437 0.0
H2428 H 0.24847 0.72543 0.0451 0.0
C2429 C 0.30096 0.80286 0.06362 0.0
C2430 C 0.30995 0.81705 0.05606 0.0
C2431 C 0.27725 0.7772 0.06398 0.0
C2432 C 0.23511 0.71835 0.05045 0.0
H2433 H 0.16102 0.59589 0.07133 0.0
H2434 H 0.18705 0.64601 0.07129 0.0
H2435 H 0.21379 0.67745 0.04581 0.0
H2436 H 0.29995 0.81604 0.04305 0.0
H2437 H 0.25821 0.77149 0.04372 0.0
H2438 H 0.22318 0.73895 0.06906 0.0
C2439 C 0.17605 0.63543 0.06575 0.0
C2440 C 0.21518 0.69071 0.05087 0.0
C2441 C 0.16113 0.60672 0.06578 0.0
C2442 C 0.29377 0.8056 0.04896 0.0
C2443 C 0.26992 0.77995 0.04934 0.0
C2444 C 0.22126 0.72573 0.06393 0.0
C2445 C 0.1785 0.65012 0.05843 0.0
C2446 C 0.19821 0.68005 0.05787 0.0
C2447 C 0.26176 0.76507 0.05681 0.0
C2448 C 0.23867 0.73622 0.057 0.0
H2449 H 0.13952 0.59649 0.0457 0.0
H2450 H 0.16484 0.64625 0.0457 0.0
H2451 H 0.18842 0.69043 0.06981 0.0
H2452 H 0.31284 0.81103 0.06923 0.0
H2453 H 0.27184 0.76634 0.06983 0.0
C2454 C 0.40693 0.5634 0.06352 0.0
C2455 C 0.42147 0.56715 0.05611 0.0
C2456 C 0.37823 0.55005 0.06345 0.0
C2457 C 0.32314 0.5385 0.04904 0.0
H2458 H 0.27452 0.49157 0.06627 0.0
C2459 C 0.2078 0.50021 0.0474 0.0
C2460 C 0.19559 0.50182 0.0548 0.0
C2461 C 0.23381 0.5028 0.04748 0.0
C2462 C 0.28785 0.50478 0.06142 0.0
H2463 H 0.4173 0.55774 0.04297 0.0
H2464 H 0.3676 0.53423 0.0429 0.0
H2465 H 0.3232 0.50589 0.0668 0.0
H2466 H 0.20069 0.50605 0.06815 0.0
H2467 H 0.24601 0.51113 0.06826 0.0
H2468 H 0.28834 0.53833 0.04379 0.0
C2469 C 0.37822 0.5422 0.04872 0.0
C2470 C 0.31573 0.51295 0.06173 0.0
C2471 C 0.40674 0.55557 0.04877 0.0
C2472 C 0.20944 0.50475 0.06232 0.0
C2473 C 0.23546 0.50749 0.06239 0.0
C2474 C 0.29541 0.53049 0.04875 0.0
C2475 C 0.36364 0.54017 0.05598 0.0
C2476 C 0.33372 0.53005 0.05556 0.0
C2477 C 0.2483 0.50723 0.05496 0.0
C2478 C 0.27738 0.5137 0.05497 0.0
H2479 H 0.4177 0.57214 0.06926 0.0
H2480 H 0.3676 0.54886 0.06916 0.0
H2481 H 0.33649 0.55214 0.04427 0.0
H2482 H 0.19765 0.49776 0.04151 0.0
H2483 H 0.24281 0.50191 0.04165 0.0
C2484 C 0.1625 0.55983 0.56442 0.0
C2485 C 0.15654 0.56673 0.55664 0.0
C2486 C 0.17675 0.54543 0.56499 0.0
C2487 C 0.20114 0.50575 0.55255 0.0
H2488 H 0.26225 0.53754 0.56783 0.0
C2489 C 0.29948 0.49905 0.54829 0.0
C2490 C 0.31316 0.4977 0.55539 0.0
C2491 C 0.27603 0.50146 0.54901 0.0
C2492 C 0.24502 0.52801 0.56363 0.0
H2493 H 0.1593 0.56233 0.54337 0.0
H2494 H 0.18415 0.53774 0.54437 0.0
H2495 H 0.22832 0.55203 0.56829 0.0
H2496 H 0.31174 0.49594 0.56883 0.0
H2497 H 0.27086 0.49987 0.57007 0.0
H2498 H 0.21858 0.4825 0.54768 0.0
C2499 C 0.1778 0.54317 0.55004 0.0
C2500 C 0.22547 0.5363 0.56391 0.0
C2501 C 0.1637 0.55755 0.54947 0.0
C2502 C 0.30193 0.49723 0.56322 0.0
C2503 C 0.27854 0.49963 0.56394 0.0
C2504 C 0.22078 0.49753 0.55225 0.0
C2505 C 0.18516 0.53752 0.5578 0.0
C2506 C 0.20359 0.52573 0.55826 0.0
C2507 C 0.26575 0.50255 0.55686 0.0
C2508 C 0.24325 0.50895 0.55768 0.0
H2509 H 0.15722 0.56654 0.57006 0.0
H2510 H 0.18175 0.54108 0.57107 0.0
H2511 H 0.18431 0.49684 0.54819 0.0
H2512 H 0.30755 0.49948 0.54217 0.0
H2513 H 0.26678 0.50384 0.54343 0.0
C2514 C 0.45783 0.60552 0.5645 0.0
C2515 C 0.44995 0.59221 0.5568 0.0
C2516 C 0.47243 0.63419 0.56492 0.0
C2517 C 0.511 0.69751 0.55209 0.0
H2518 H 0.48045 0.72774 0.56751 0.0
C2519 C 0.51744 0.80226 0.54749 0.0
C2520 C 0.51893 0.81759 0.55454 0.0
C2521 C 0.51521 0.77651 0.54832 0.0
C2522 C 0.48966 0.7198 0.56326 0.0
H2523 H 0.45286 0.59856 0.54349 0.0
H2524 H 0.47787 0.64808 0.54422 0.0
H2525 H 0.46604 0.67937 0.56818 0.0
H2526 H 0.52124 0.81867 0.56797 0.0
H2527 H 0.51774 0.77409 0.56939 0.0
H2528 H 0.53389 0.7379 0.547 0.0
C2529 C 0.47301 0.63662 0.54995 0.0
C2530 C 0.48141 0.69199 0.56366 0.0
C2531 C 0.45841 0.60811 0.54954 0.0
C2532 C 0.51981 0.8073 0.5624 0.0
C2533 C 0.51765 0.78165 0.56323 0.0
C2534 C 0.51922 0.72536 0.55168 0.0
C2535 C 0.47959 0.65008 0.55764 0.0
C2536 C 0.49149 0.68034 0.55797 0.0
C2537 C 0.51451 0.76557 0.55622 0.0
C2538 C 0.50823 0.73673 0.55716 0.0
H2539 H 0.45168 0.59386 0.57021 0.0
H2540 H 0.47749 0.64392 0.57094 0.0
H2541 H 0.51951 0.6893 0.54769 0.0
H2542 H 0.51668 0.80954 0.54135 0.0
H2543 H 0.51265 0.76462 0.54279 0.0
C2544 C 0.40753 0.84994 0.5479 0.0
C2545 C 0.4232 0.85845 0.55521 0.0
C2546 C 0.37901 0.83609 0.54822 0.0
C2547 C 0.32295 0.7915 0.56215 0.0
H2548 H 0.27793 0.79557 0.54468 0.0
C2549 C 0.20742 0.71569 0.5611 0.0
C2550 C 0.19728 0.70287 0.5534 0.0
C2551 C 0.23319 0.73915 0.56169 0.0
C2552 C 0.29022 0.79417 0.5496 0.0
H2553 H 0.42108 0.86041 0.56857 0.0
H2554 H 0.371 0.83632 0.56913 0.0
H2555 H 0.32661 0.8296 0.54531 0.0
H2556 H 0.20571 0.70571 0.54023 0.0
H2557 H 0.25085 0.74661 0.54128 0.0
H2558 H 0.28682 0.75574 0.56633 0.0
C2559 C 0.38093 0.84008 0.56315 0.0
C2560 C 0.31812 0.81367 0.54996 0.0
C2561 C 0.40962 0.85406 0.56284 0.0
C2562 C 0.21287 0.71505 0.54625 0.0
C2563 C 0.23874 0.73856 0.54685 0.0
C2564 C 0.29507 0.7721 0.5618 0.0
C2565 C 0.36528 0.83034 0.55585 0.0
C2566 C 0.33498 0.81221 0.55614 0.0
C2567 C 0.24953 0.7504 0.55462 0.0
C2568 C 0.27847 0.77285 0.55543 0.0
H2569 H 0.41727 0.8531 0.5419 0.0
H2570 H 0.36777 0.82869 0.54247 0.0
H2571 H 0.3353 0.78941 0.56691 0.0
H2572 H 0.19585 0.70707 0.56673 0.0
H2573 H 0.24063 0.74806 0.56775 0.0
C2574 C 0.22829 0.49106 0.28063 0.0
C2575 C 0.23627 0.48595 0.28837 0.0
C2576 C 0.21399 0.50542 0.28013 0.0
C2577 C 0.17629 0.5315 0.2928 0.0
H2578 H 0.20625 0.59092 0.27691 0.0
C2579 C 0.16961 0.63004 0.29651 0.0
C2580 C 0.16764 0.64307 0.28934 0.0
C2581 C 0.17205 0.60658 0.2959 0.0
C2582 C 0.19721 0.57416 0.28129 0.0
H2583 H 0.23393 0.49041 0.30165 0.0
H2584 H 0.20945 0.51542 0.30077 0.0
H2585 H 0.22059 0.55687 0.27652 0.0
H2586 H 0.16479 0.64049 0.27592 0.0
H2587 H 0.16868 0.59955 0.27489 0.0
H2588 H 0.15363 0.54947 0.29774 0.0
C2589 C 0.21399 0.50832 0.29508 0.0
C2590 C 0.20542 0.55454 0.28105 0.0
C2591 C 0.22828 0.49412 0.29558 0.0
C2592 C 0.16658 0.63119 0.28158 0.0
C2593 C 0.16896 0.60777 0.28098 0.0
C2594 C 0.16811 0.55118 0.29305 0.0
C2595 C 0.20725 0.5148 0.28735 0.0
C2596 C 0.19552 0.53328 0.28691 0.0
C2597 C 0.17252 0.59561 0.28811 0.0
C2598 C 0.17887 0.57305 0.28739 0.0
H2599 H 0.23407 0.485 0.27496 0.0
H2600 H 0.20879 0.50975 0.27408 0.0
H2601 H 0.16791 0.51515 0.29732 0.0
H2602 H 0.17053 0.63863 0.30258 0.0
H2603 H 0.17494 0.59786 0.30153 0.0
C2604 C 0.52372 0.73808 0.2804 0.0
C2605 C 0.52866 0.75155 0.28806 0.0
C2606 C 0.50965 0.7094 0.28004 0.0
C2607 C 0.48403 0.64634 0.29304 0.0
H2608 H 0.42464 0.61568 0.27714 0.0
C2609 C 0.38558 0.54137 0.29718 0.0
C2610 C 0.37242 0.52598 0.29008 0.0
C2611 C 0.40914 0.56715 0.29646 0.0
C2612 C 0.4414 0.62374 0.28153 0.0
H2613 H 0.52422 0.74546 0.30138 0.0
H2614 H 0.49967 0.69592 0.30074 0.0
H2615 H 0.45846 0.6641 0.27654 0.0
H2616 H 0.37493 0.5248 0.27668 0.0
H2617 H 0.41606 0.56942 0.27545 0.0
H2618 H 0.46626 0.60601 0.2982 0.0
C2619 C 0.5067 0.70727 0.295 0.0
C2620 C 0.46089 0.65158 0.28117 0.0
C2621 C 0.52063 0.73579 0.29536 0.0
C2622 C 0.38432 0.53622 0.28229 0.0
C2623 C 0.40786 0.5619 0.28157 0.0
C2624 C 0.46448 0.61846 0.29341 0.0
C2625 C 0.50038 0.69366 0.28734 0.0
C2626 C 0.48212 0.66339 0.28702 0.0
C2627 C 0.42009 0.57805 0.28862 0.0
C2628 C 0.44262 0.60693 0.28775 0.0
H2629 H 0.52969 0.7496 0.27467 0.0
H2630 H 0.50544 0.69955 0.27404 0.0
H2631 H 0.50037 0.65467 0.29757 0.0
H2632 H 0.37697 0.53414 0.30328 0.0
H2633 H 0.41792 0.5791 0.30202 0.0
C2634 C 0.47561 0.85 0.29702 0.0
C2635 C 0.48732 0.8467 0.28974 0.0
C2636 C 0.4498 0.84786 0.29682 0.0
C2637 C 0.39539 0.84396 0.28269 0.0
H2638 H 0.34717 0.7984 0.3002 0.0
C2639 C 0.27646 0.78426 0.28056 0.0
C2640 C 0.26172 0.7803 0.28794 0.0
C2641 C 0.30517 0.79819 0.28067 0.0
C2642 C 0.36039 0.81159 0.29533 0.0
H2643 H 0.48169 0.84017 0.27646 0.0
H2644 H 0.43671 0.83596 0.27616 0.0
H2645 H 0.39539 0.81264 0.30075 0.0
H2646 H 0.2654 0.78995 0.30104 0.0
H2647 H 0.31514 0.81467 0.30119 0.0
H2648 H 0.35987 0.84202 0.27716 0.0
C2649 C 0.44748 0.84049 0.28202 0.0
C2650 C 0.38816 0.81982 0.29566 0.0
C2651 C 0.47329 0.84274 0.2822 0.0
C2652 C 0.27618 0.7923 0.29527 0.0
C2653 C 0.30471 0.80635 0.29537 0.0
C2654 C 0.36747 0.83563 0.28235 0.0
C2655 C 0.43506 0.84226 0.28936 0.0
C2656 C 0.40602 0.83587 0.28931 0.0
C2657 C 0.31957 0.80852 0.28815 0.0
C2658 C 0.34959 0.81914 0.28865 0.0
H2659 H 0.48592 0.85329 0.30292 0.0
H2660 H 0.44109 0.84989 0.30257 0.0
H2661 H 0.4086 0.85657 0.27773 0.0
H2662 H 0.26588 0.77517 0.27482 0.0
H2663 H 0.31598 0.79944 0.275 0.0
loop_
_geom_bond_atom_site_label_1
_geom_bond_atom_site_label_2
_geom_bond_distance
_geom_bond_site_symmetry_2
_ccdc_geom_bond_type
O0 Cd1 2.223 . S
O0 C8 1.315 1_545 S
Cd1 O0 2.223 . S
Cd1 O4 2.297 . S
Cd1 O5 2.439 . S
Cd1 O11 2.240 . S
Cd2 O3 2.240 . S
Cd2 O10 2.223 . S
Cd2 O12 2.297 . S
Cd2 O13 2.439 . S
O3 Cd2 2.240 . S
O3 C8 1.279 1_545 S
O4 Cd1 2.297 . S
O4 C6 1.247 . S
O5 Cd1 2.439 . S
O5 C6 1.208 . S
C6 O4 1.247 . S
C6 O5 1.208 . S
C7 O12 1.247 . S
C7 O13 1.208 . S
C8 O0 1.315 1_565 S
C8 O3 1.279 1_565 S
C9 O10 1.315 . S
C9 O11 1.279 . S
O10 Cd2 2.223 . S
O10 C9 1.315 . S
O11 Cd1 2.240 . S
O11 C9 1.279 . S
O12 Cd2 2.297 . S
O12 C7 1.247 . S
O13 Cd2 2.439 . S
O13 C7 1.208 . S
O14 Cd15 2.223 . S
O14 C22 1.315 1_655 S
Cd15 O14 2.223 . S
Cd15 O18 2.297 . S
Cd15 O19 2.439 . S
Cd15 O25 2.240 . S
Cd16 O17 2.240 . S
Cd16 O24 2.223 . S
Cd16 O26 2.297 . S
Cd16 O27 2.439 . S
O17 Cd16 2.240 . S
O17 C22 1.279 1_655 S
O18 Cd15 2.297 . S
O18 C20 1.247 . S
O19 Cd15 2.439 . S
O19 C20 1.208 . S
C20 O18 1.247 . S
C20 O19 1.208 . S
C21 O26 1.247 . S
C21 O27 1.208 . S
C22 O14 1.315 1_455 S
C22 O17 1.279 1_455 S
C23 O24 1.315 . S
C23 O25 1.279 . S
O24 Cd16 2.223 . S
O24 C23 1.315 . S
O25 Cd15 2.240 . S
O25 C23 1.279 . S
O26 Cd16 2.297 . S
O26 C21 1.247 . S
O27 Cd16 2.439 . S
O27 C21 1.208 . S
O28 Cd29 2.223 . S
O28 C36 1.315 . S
Cd29 O28 2.223 . S
Cd29 O32 2.297 . S
Cd29 O33 2.439 . S
Cd29 O39 2.240 . S
Cd30 O31 2.240 . S
Cd30 O38 2.223 . S
Cd30 O40 2.297 . S
Cd30 O41 2.439 . S
O31 Cd30 2.240 . S
O31 C36 1.279 . S
O32 Cd29 2.297 . S
O32 C34 1.247 . S
O33 Cd29 2.439 . S
O33 C34 1.208 . S
C34 O32 1.247 . S
C34 O33 1.208 . S
C35 O40 1.247 . S
C35 O41 1.208 . S
C36 O28 1.315 . S
C36 O31 1.279 . S
C37 O38 1.315 . S
C37 O39 1.279 . S
O38 Cd30 2.223 . S
O38 C37 1.315 . S
O39 Cd29 2.240 . S
O39 C37 1.279 . S
O40 Cd30 2.297 . S
O40 C35 1.247 . S
O41 Cd30 2.439 . S
O41 C35 1.208 . S
O42 Cd43 2.223 . S
O42 C50 1.315 1_455 S
Cd43 O42 2.223 . S
Cd43 O46 2.297 . S
Cd43 O47 2.439 . S
Cd43 O53 2.240 . S
Cd44 O45 2.240 . S
Cd44 O52 2.223 . S
Cd44 O54 2.297 . S
Cd44 O55 2.439 . S
O45 Cd44 2.240 . S
O45 C50 1.279 1_455 S
O46 Cd43 2.297 . S
O46 C48 1.247 . S
O47 Cd43 2.439 . S
O47 C48 1.208 . S
C48 O46 1.247 . S
C48 O47 1.208 . S
C49 O54 1.247 . S
C49 O55 1.208 . S
C50 O42 1.315 1_655 S
C50 O45 1.279 1_655 S
C51 O52 1.315 . S
C51 O53 1.279 . S
O52 Cd44 2.223 . S
O52 C51 1.315 . S
O53 Cd43 2.240 . S
O53 C51 1.279 . S
O54 Cd44 2.297 . S
O54 C49 1.247 . S
O55 Cd44 2.439 . S
O55 C49 1.208 . S
O56 Cd57 2.223 . S
O56 C64 1.315 . S
Cd57 O56 2.223 . S
Cd57 O60 2.297 . S
Cd57 O61 2.439 . S
Cd57 O67 2.240 . S
Cd58 O59 2.240 . S
Cd58 O66 2.223 . S
Cd58 O68 2.297 . S
Cd58 O69 2.439 . S
O59 Cd58 2.240 . S
O59 C64 1.279 . S
O60 Cd57 2.297 . S
O60 C62 1.247 . S
O61 Cd57 2.439 . S
O61 C62 1.208 . S
C62 O60 1.247 . S
C62 O61 1.208 . S
C63 O68 1.247 . S
C63 O69 1.208 . S
C64 O56 1.315 . S
C64 O59 1.279 . S
C65 O66 1.315 . S
C65 O67 1.279 . S
O66 Cd58 2.223 . S
O66 C65 1.315 . S
O67 Cd57 2.240 . S
O67 C65 1.279 . S
O68 Cd58 2.297 . S
O68 C63 1.247 . S
O69 Cd58 2.439 . S
O69 C63 1.208 . S
O70 Cd71 2.223 . S
O70 C78 1.315 1_565 S
Cd71 O70 2.223 . S
Cd71 O74 2.297 . S
Cd71 O75 2.439 . S
Cd71 O81 2.240 . S
Cd72 O73 2.240 . S
Cd72 O80 2.223 . S
Cd72 O82 2.297 . S
Cd72 O83 2.439 . S
O73 Cd72 2.240 . S
O73 C78 1.279 1_565 S
O74 Cd71 2.297 . S
O74 C76 1.247 . S
O75 Cd71 2.439 . S
O75 C76 1.208 . S
C76 O74 1.247 . S
C76 O75 1.208 . S
C77 O82 1.247 . S
C77 O83 1.208 . S
C78 O70 1.315 1_545 S
C78 O73 1.279 1_545 S
C79 O80 1.315 . S
C79 O81 1.279 . S
O80 Cd72 2.223 . S
O80 C79 1.315 . S
O81 Cd71 2.240 . S
O81 C79 1.279 . S
O82 Cd72 2.297 . S
O82 C77 1.247 . S
O83 Cd72 2.439 . S
O83 C77 1.208 . S
O84 Cd85 2.223 . S
O84 C92 1.315 1_565 S
Cd85 O84 2.223 . S
Cd85 O88 2.297 . S
Cd85 O89 2.439 . S
Cd85 O95 2.240 . S
Cd86 O87 2.240 . S
Cd86 O94 2.223 . S
Cd86 O96 2.297 . S
Cd86 O97 2.439 . S
O87 Cd86 2.240 . S
O87 C92 1.279 1_565 S
O88 Cd85 2.297 . S
O88 C90 1.247 . S
O89 Cd85 2.439 . S
O89 C90 1.208 . S
C90 O88 1.247 . S
C90 O89 1.208 . S
C91 O96 1.247 . S
C91 O97 1.208 . S
C92 O84 1.315 1_545 S
C92 O87 1.279 1_545 S
C93 O94 1.315 . S
C93 O95 1.279 . S
O94 Cd86 2.223 . S
O94 C93 1.315 . S
O95 Cd85 2.240 . S
O95 C93 1.279 . S
O96 Cd86 2.297 . S
O96 C91 1.247 . S
O97 Cd86 2.439 . S
O97 C91 1.208 . S
O98 Cd99 2.223 . S
O98 C106 1.315 1_455 S
Cd99 O98 2.223 . S
Cd99 O102 2.297 . S
Cd99 O103 2.439 . S
Cd99 O109 2.240 . S
Cd100 O101 2.240 . S
Cd100 O108 2.223 . S
Cd100 O110 2.297 . S
Cd100 O111 2.439 . S
O101 Cd100 2.240 . S
O101 C106 1.279 1_455 S
O102 Cd99 2.297 . S
O102 C104 1.247 . S
O103 Cd99 2.439 . S
O103 C104 1.208 . S
C104 O102 1.247 . S
C104 O103 1.208 . S
C105 O110 1.247 . S
C105 O111 1.208 . S
C106 O98 1.315 1_655 S
C106 O101 1.279 1_655 S
C107 O108 1.315 . S
C107 O109 1.279 . S
O108 Cd100 2.223 . S
O108 C107 1.315 . S
O109 Cd99 2.240 . S
O109 C107 1.279 . S
O110 Cd100 2.297 . S
O110 C105 1.247 . S
O111 Cd100 2.439 . S
O111 C105 1.208 . S
O112 Cd113 2.223 . S
O112 C120 1.315 . S
Cd113 O112 2.223 . S
Cd113 O116 2.297 . S
Cd113 O117 2.439 . S
Cd113 O123 2.240 . S
Cd114 O115 2.240 . S
Cd114 O122 2.223 . S
Cd114 O124 2.297 . S
Cd114 O125 2.439 . S
O115 Cd114 2.240 . S
O115 C120 1.279 . S
O116 Cd113 2.297 . S
O116 C118 1.247 . S
O117 Cd113 2.439 . S
O117 C118 1.208 . S
C118 O116 1.247 . S
C118 O117 1.208 . S
C119 O124 1.247 . S
C119 O125 1.208 . S
C120 O112 1.315 . S
C120 O115 1.279 . S
C121 O122 1.315 . S
C121 O123 1.279 . S
O122 Cd114 2.223 . S
O122 C121 1.315 . S
O123 Cd113 2.240 . S
O123 C121 1.279 . S
O124 Cd114 2.297 . S
O124 C119 1.247 . S
O125 Cd114 2.439 . S
O125 C119 1.208 . S
O126 Cd127 2.223 . S
O126 C134 1.315 1_655 S
Cd127 O126 2.223 . S
Cd127 O130 2.297 . S
Cd127 O131 2.439 . S
Cd127 O137 2.240 . S
Cd128 O129 2.240 . S
Cd128 O136 2.223 . S
Cd128 O138 2.297 . S
Cd128 O139 2.439 . S
O129 Cd128 2.240 . S
O129 C134 1.279 1_655 S
O130 Cd127 2.297 . S
O130 C132 1.247 . S
O131 Cd127 2.439 . S
O131 C132 1.208 . S
C132 O130 1.247 . S
C132 O131 1.208 . S
C133 O138 1.247 . S
C133 O139 1.208 . S
C134 O126 1.315 1_455 S
C134 O129 1.279 1_455 S
C135 O136 1.315 . S
C135 O137 1.279 . S
O136 Cd128 2.223 . S
O136 C135 1.315 . S
O137 Cd127 2.240 . S
O137 C135 1.279 . S
O138 Cd128 2.297 . S
O138 C133 1.247 . S
O139 Cd128 2.439 . S
O139 C133 1.208 . S
O140 Cd141 2.223 . S
O140 C148 1.315 . S
Cd141 O140 2.223 . S
Cd141 O144 2.297 . S
Cd141 O145 2.439 . S
Cd141 O151 2.240 . S
Cd142 O143 2.240 . S
Cd142 O150 2.223 . S
Cd142 O152 2.297 . S
Cd142 O153 2.439 . S
O143 Cd142 2.240 . S
O143 C148 1.279 . S
O144 Cd141 2.297 . S
O144 C146 1.247 . S
O145 Cd141 2.439 . S
O145 C146 1.208 . S
C146 O144 1.247 . S
C146 O145 1.208 . S
C147 O152 1.247 . S
C147 O153 1.208 . S
C148 O140 1.315 . S
C148 O143 1.279 . S
C149 O150 1.315 . S
C149 O151 1.279 . S
O150 Cd142 2.223 . S
O150 C149 1.315 . S
O151 Cd141 2.240 . S
O151 C149 1.279 . S
O152 Cd142 2.297 . S
O152 C147 1.247 . S
O153 Cd142 2.439 . S
O153 C147 1.208 . S
O154 Cd155 2.223 . S
O154 C162 1.315 1_545 S
Cd155 O154 2.223 . S
Cd155 O158 2.297 . S
Cd155 O159 2.439 . S
Cd155 O165 2.240 . S
Cd156 O157 2.240 . S
Cd156 O164 2.223 . S
Cd156 O166 2.297 . S
Cd156 O167 2.439 . S
O157 Cd156 2.240 . S
O157 C162 1.279 1_545 S
O158 Cd155 2.297 . S
O158 C160 1.247 . S
O159 Cd155 2.439 . S
O159 C160 1.208 . S
C160 O158 1.247 . S
C160 O159 1.208 . S
C161 O166 1.247 . S
C161 O167 1.208 . S
C162 O154 1.315 1_565 S
C162 O157 1.279 1_565 S
C163 O164 1.315 . S
C163 O165 1.279 . S
O164 Cd156 2.223 . S
O164 C163 1.315 . S
O165 Cd155 2.240 . S
O165 C163 1.279 . S
O166 Cd156 2.297 . S
O166 C161 1.247 . S
O167 Cd156 2.439 . S
O167 C161 1.208 . S
O168 Cd169 2.223 . S
O168 C176 1.315 . S
Cd169 O168 2.223 . S
Cd169 O172 2.297 . S
Cd169 O173 2.439 . S
Cd169 O179 2.240 . S
Cd170 O171 2.240 . S
Cd170 O178 2.223 . S
Cd170 O180 2.297 . S
Cd170 O181 2.439 . S
O171 Cd170 2.240 . S
O171 C176 1.279 . S
O172 Cd169 2.297 . S
O172 C174 1.247 . S
O173 Cd169 2.439 . S
O173 C174 1.208 . S
C174 O172 1.247 . S
C174 O173 1.208 . S
C175 O180 1.247 . S
C175 O181 1.208 . S
C176 O168 1.315 . S
C176 O171 1.279 . S
C177 O178 1.315 . S
C177 O179 1.279 . S
O178 Cd170 2.223 . S
O178 C177 1.315 . S
O179 Cd169 2.240 . S
O179 C177 1.279 . S
O180 Cd170 2.297 . S
O180 C175 1.247 . S
O181 Cd170 2.439 . S
O181 C175 1.208 . S
O182 Cd183 2.223 . S
O182 C190 1.315 . S
Cd183 O182 2.223 . S
Cd183 O186 2.297 . S
Cd183 O187 2.439 . S
Cd183 O193 2.240 . S
Cd184 O185 2.240 . S
Cd184 O192 2.223 . S
Cd184 O194 2.297 . S
Cd184 O195 2.439 . S
O185 Cd184 2.240 . S
O185 C190 1.279 . S
O186 Cd183 2.297 . S
O186 C188 1.247 . S
O187 Cd183 2.439 . S
O187 C188 1.208 . S
C188 O186 1.247 . S
C188 O187 1.208 . S
C189 O194 1.247 . S
C189 O195 1.208 . S
C190 O182 1.315 . S
C190 O185 1.279 . S
C191 O192 1.315 . S
C191 O193 1.279 . S
O192 Cd184 2.223 . S
O192 C191 1.315 . S
O193 Cd183 2.240 . S
O193 C191 1.279 . S
O194 Cd184 2.297 . S
O194 C189 1.247 . S
O195 Cd184 2.439 . S
O195 C189 1.208 . S
O196 Cd197 2.223 . S
O196 C204 1.315 . S
Cd197 O196 2.223 . S
Cd197 O200 2.297 . S
Cd197 O201 2.439 . S
Cd197 O207 2.240 . S
Cd198 O199 2.240 . S
Cd198 O206 2.223 . S
Cd198 O208 2.297 . S
Cd198 O209 2.439 . S
O199 Cd198 2.240 . S
O199 C204 1.279 . S
O200 Cd197 2.297 . S
O200 C202 1.247 . S
O201 Cd197 2.439 . S
O201 C202 1.208 . S
C202 O200 1.247 . S
C202 O201 1.208 . S
C203 O208 1.247 . S
C203 O209 1.208 . S
C204 O196 1.315 . S
C204 O199 1.279 . S
C205 O206 1.315 . S
C205 O207 1.279 . S
O206 Cd198 2.223 . S
O206 C205 1.315 . S
O207 Cd197 2.240 . S
O207 C205 1.279 . S
O208 Cd198 2.297 . S
O208 C203 1.247 . S
O209 Cd198 2.439 . S
O209 C203 1.208 . S
O210 Cd211 2.223 . S
O210 C218 1.315 . S
Cd211 O210 2.223 . S
Cd211 O214 2.297 . S
Cd211 O215 2.439 . S
Cd211 O221 2.240 . S
Cd212 O213 2.240 . S
Cd212 O220 2.223 . S
Cd212 O222 2.297 . S
Cd212 O223 2.439 . S
O213 Cd212 2.240 . S
O213 C218 1.279 . S
O214 Cd211 2.297 . S
O214 C216 1.247 . S
O215 Cd211 2.439 . S
O215 C216 1.208 . S
C216 O214 1.247 . S
C216 O215 1.208 . S
C217 O222 1.247 . S
C217 O223 1.208 . S
C218 O210 1.315 . S
C218 O213 1.279 . S
C219 O220 1.315 . S
C219 O221 1.279 . S
O220 Cd212 2.223 . S
O220 C219 1.315 . S
O221 Cd211 2.240 . S
O221 C219 1.279 . S
O222 Cd212 2.297 . S
O222 C217 1.247 . S
O223 Cd212 2.439 . S
O223 C217 1.208 . S
O224 Cd225 2.223 . S
O224 C232 1.315 . S
Cd225 O224 2.223 . S
Cd225 O228 2.297 . S
Cd225 O229 2.439 . S
Cd225 O235 2.240 . S
Cd226 O227 2.240 . S
Cd226 O234 2.223 . S
Cd226 O236 2.297 . S
Cd226 O237 2.439 . S
O227 Cd226 2.240 . S
O227 C232 1.279 . S
O228 Cd225 2.297 . S
O228 C230 1.247 . S
O229 Cd225 2.439 . S
O229 C230 1.208 . S
C230 O228 1.247 . S
C230 O229 1.208 . S
C231 O236 1.247 . S
C231 O237 1.208 . S
C232 O224 1.315 . S
C232 O227 1.279 . S
C233 O234 1.315 . S
C233 O235 1.279 . S
O234 Cd226 2.223 . S
O234 C233 1.315 . S
O235 Cd225 2.240 . S
O235 C233 1.279 . S
O236 Cd226 2.297 . S
O236 C231 1.247 . S
O237 Cd226 2.439 . S
O237 C231 1.208 . S
O238 Cd239 2.223 . S
O238 C246 1.315 . S
Cd239 O238 2.223 . S
Cd239 O242 2.297 . S
Cd239 O243 2.439 . S
Cd239 O249 2.240 . S
Cd240 O241 2.240 . S
Cd240 O248 2.223 . S
Cd240 O250 2.297 . S
Cd240 O251 2.439 . S
O241 Cd240 2.240 . S
O241 C246 1.279 . S
O242 Cd239 2.297 . S
O242 C244 1.247 . S
O243 Cd239 2.439 . S
O243 C244 1.208 . S
C244 O242 1.247 . S
C244 O243 1.208 . S
C245 O250 1.247 . S
C245 O251 1.208 . S
C246 O238 1.315 . S
C246 O241 1.279 . S
C247 O248 1.315 . S
C247 O249 1.279 . S
O248 Cd240 2.223 . S
O248 C247 1.315 . S
O249 Cd239 2.240 . S
O249 C247 1.279 . S
O250 Cd240 2.297 . S
O250 C245 1.247 . S
O251 Cd240 2.439 . S
O251 C245 1.208 . S
O252 Cd253 2.223 . S
O252 C260 1.315 . S
Cd253 O252 2.223 . S
Cd253 O256 2.297 . S
Cd253 O257 2.439 . S
Cd253 O263 2.240 . S
Cd254 O255 2.240 . S
Cd254 O262 2.223 . S
Cd254 O264 2.297 . S
Cd254 O265 2.439 . S
O255 Cd254 2.240 . S
O255 C260 1.279 . S
O256 Cd253 2.297 . S
O256 C258 1.247 . S
O257 Cd253 2.439 . S
O257 C258 1.208 . S
C258 O256 1.247 . S
C258 O257 1.208 . S
C259 O264 1.247 . S
C259 O265 1.208 . S
C260 O252 1.315 . S
C260 O255 1.279 . S
C261 O262 1.315 . S
C261 O263 1.279 . S
O262 Cd254 2.223 . S
O262 C261 1.315 . S
O263 Cd253 2.240 . S
O263 C261 1.279 . S
O264 Cd254 2.297 . S
O264 C259 1.247 . S
O265 Cd254 2.439 . S
O265 C259 1.208 . S
O266 Cd267 2.223 . S
O266 C274 1.315 . S
Cd267 O266 2.223 . S
Cd267 O270 2.297 . S
Cd267 O271 2.439 . S
Cd267 O277 2.240 . S
Cd268 O269 2.240 . S
Cd268 O276 2.223 . S
Cd268 O278 2.297 . S
Cd268 O279 2.439 . S
O269 Cd268 2.240 . S
O269 C274 1.279 . S
O270 Cd267 2.297 . S
O270 C272 1.247 . S
O271 Cd267 2.439 . S
O271 C272 1.208 . S
C272 O270 1.247 . S
C272 O271 1.208 . S
C273 O278 1.247 . S
C273 O279 1.208 . S
C274 O266 1.315 . S
C274 O269 1.279 . S
C275 O276 1.315 . S
C275 O277 1.279 . S
O276 Cd268 2.223 . S
O276 C275 1.315 . S
O277 Cd267 2.240 . S
O277 C275 1.279 . S
O278 Cd268 2.297 . S
O278 C273 1.247 . S
O279 Cd268 2.439 . S
O279 C273 1.208 . S
O280 Cd281 2.223 . S
O280 C288 1.315 . S
Cd281 O280 2.223 . S
Cd281 O284 2.297 . S
Cd281 O285 2.439 . S
Cd281 O291 2.240 . S
Cd282 O283 2.240 . S
Cd282 O290 2.223 . S
Cd282 O292 2.297 . S
Cd282 O293 2.439 . S
O283 Cd282 2.240 . S
O283 C288 1.279 . S
O284 Cd281 2.297 . S
O284 C286 1.247 . S
O285 Cd281 2.439 . S
O285 C286 1.208 . S
C286 O284 1.247 . S
C286 O285 1.208 . S
C287 O292 1.247 . S
C287 O293 1.208 . S
C288 O280 1.315 . S
C288 O283 1.279 . S
C289 O290 1.315 . S
C289 O291 1.279 . S
O290 Cd282 2.223 . S
O290 C289 1.315 . S
O291 Cd281 2.240 . S
O291 C289 1.279 . S
O292 Cd282 2.297 . S
O292 C287 1.247 . S
O293 Cd282 2.439 . S
O293 C287 1.208 . S
O294 Cd295 2.223 . S
O294 C302 1.315 . S
Cd295 O294 2.223 . S
Cd295 O298 2.297 . S
Cd295 O299 2.439 . S
Cd295 O305 2.240 . S
Cd296 O297 2.240 . S
Cd296 O304 2.223 . S
Cd296 O306 2.297 . S
Cd296 O307 2.439 . S
O297 Cd296 2.240 . S
O297 C302 1.279 . S
O298 Cd295 2.297 . S
O298 C300 1.247 . S
O299 Cd295 2.439 . S
O299 C300 1.208 . S
C300 O298 1.247 . S
C300 O299 1.208 . S
C301 O306 1.247 . S
C301 O307 1.208 . S
C302 O294 1.315 . S
C302 O297 1.279 . S
C303 O304 1.315 . S
C303 O305 1.279 . S
O304 Cd296 2.223 . S
O304 C303 1.315 . S
O305 Cd295 2.240 . S
O305 C303 1.279 . S
O306 Cd296 2.297 . S
O306 C301 1.247 . S
O307 Cd296 2.439 . S
O307 C301 1.208 . S
O308 Cd309 2.223 . S
O308 C316 1.315 . S
Cd309 O308 2.223 . S
Cd309 O312 2.297 . S
Cd309 O313 2.439 . S
Cd309 O319 2.240 . S
Cd310 O311 2.240 . S
Cd310 O318 2.223 . S
Cd310 O320 2.297 . S
Cd310 O321 2.439 . S
O311 Cd310 2.240 . S
O311 C316 1.279 . S
O312 Cd309 2.297 . S
O312 C314 1.247 . S
O313 Cd309 2.439 . S
O313 C314 1.208 . S
C314 O312 1.247 . S
C314 O313 1.208 . S
C315 O320 1.247 . S
C315 O321 1.208 . S
C316 O308 1.315 . S
C316 O311 1.279 . S
C317 O318 1.315 . S
C317 O319 1.279 . S
O318 Cd310 2.223 . S
O318 C317 1.315 . S
O319 Cd309 2.240 . S
O319 C317 1.279 . S
O320 Cd310 2.297 . S
O320 C315 1.247 . S
O321 Cd310 2.439 . S
O321 C315 1.208 . S
O322 Cd323 2.223 . S
O322 C330 1.315 . S
Cd323 O322 2.223 . S
Cd323 O326 2.297 . S
Cd323 O327 2.439 . S
Cd323 O333 2.240 . S
Cd324 O325 2.240 . S
Cd324 O332 2.223 . S
Cd324 O334 2.297 . S
Cd324 O335 2.439 . S
O325 Cd324 2.240 . S
O325 C330 1.279 . S
O326 Cd323 2.297 . S
O326 C328 1.247 . S
O327 Cd323 2.439 . S
O327 C328 1.208 . S
C328 O326 1.247 . S
C328 O327 1.208 . S
C329 O334 1.247 . S
C329 O335 1.208 . S
C330 O322 1.315 . S
C330 O325 1.279 . S
C331 O332 1.315 . S
C331 O333 1.279 . S
O332 Cd324 2.223 . S
O332 C331 1.315 . S
O333 Cd323 2.240 . S
O333 C331 1.279 . S
O334 Cd324 2.297 . S
O334 C329 1.247 . S
O335 Cd324 2.439 . S
O335 C329 1.208 . S
O336 Cd337 2.223 . S
O336 C344 1.315 . S
Cd337 O336 2.223 . S
Cd337 O340 2.297 . S
Cd337 O341 2.439 . S
Cd337 O347 2.240 . S
Cd338 O339 2.240 . S
Cd338 O346 2.223 . S
Cd338 O348 2.297 . S
Cd338 O349 2.439 . S
O339 Cd338 2.240 . S
O339 C344 1.279 . S
O340 Cd337 2.297 . S
O340 C342 1.247 . S
O341 Cd337 2.439 . S
O341 C342 1.208 . S
C342 O340 1.247 . S
C342 O341 1.208 . S
C343 O348 1.247 . S
C343 O349 1.208 . S
C344 O336 1.315 . S
C344 O339 1.279 . S
C345 O346 1.315 . S
C345 O347 1.279 . S
O346 Cd338 2.223 . S
O346 C345 1.315 . S
O347 Cd337 2.240 . S
O347 C345 1.279 . S
O348 Cd338 2.297 . S
O348 C343 1.247 . S
O349 Cd338 2.439 . S
O349 C343 1.208 . S
O350 Cd351 2.223 . S
O350 C358 1.315 . S
Cd351 O350 2.223 . S
Cd351 O354 2.297 . S
Cd351 O355 2.439 . S
Cd351 O361 2.240 . S
Cd352 O353 2.240 . S
Cd352 O360 2.223 . S
Cd352 O362 2.297 . S
Cd352 O363 2.439 . S
O353 Cd352 2.240 . S
O353 C358 1.279 . S
O354 Cd351 2.297 . S
O354 C356 1.247 . S
O355 Cd351 2.439 . S
O355 C356 1.208 . S
C356 O354 1.247 . S
C356 O355 1.208 . S
C357 O362 1.247 . S
C357 O363 1.208 . S
C358 O350 1.315 . S
C358 O353 1.279 . S
C359 O360 1.315 . S
C359 O361 1.279 . S
O360 Cd352 2.223 . S
O360 C359 1.315 . S
O361 Cd351 2.240 . S
O361 C359 1.279 . S
O362 Cd352 2.297 . S
O362 C357 1.247 . S
O363 Cd352 2.439 . S
O363 C357 1.208 . S
O364 Cd365 2.223 . S
O364 C372 1.315 . S
Cd365 O364 2.223 . S
Cd365 O368 2.297 . S
Cd365 O369 2.439 . S
Cd365 O375 2.240 . S
Cd366 O367 2.240 . S
Cd366 O374 2.223 . S
Cd366 O376 2.297 . S
Cd366 O377 2.439 . S
O367 Cd366 2.240 . S
O367 C372 1.279 . S
O368 Cd365 2.297 . S
O368 C370 1.247 . S
O369 Cd365 2.439 . S
O369 C370 1.208 . S
C370 O368 1.247 . S
C370 O369 1.208 . S
C371 O376 1.247 . S
C371 O377 1.208 . S
C372 O364 1.315 . S
C372 O367 1.279 . S
C373 O374 1.315 . S
C373 O375 1.279 . S
O374 Cd366 2.223 . S
O374 C373 1.315 . S
O375 Cd365 2.240 . S
O375 C373 1.279 . S
O376 Cd366 2.297 . S
O376 C371 1.247 . S
O377 Cd366 2.439 . S
O377 C371 1.208 . S
O378 Cd379 2.223 . S
O378 C386 1.315 . S
Cd379 O378 2.223 . S
Cd379 O382 2.297 . S
Cd379 O383 2.439 . S
Cd379 O389 2.240 . S
Cd380 O381 2.240 . S
Cd380 O388 2.223 . S
Cd380 O390 2.297 . S
Cd380 O391 2.439 . S
O381 Cd380 2.240 . S
O381 C386 1.279 . S
O382 Cd379 2.297 . S
O382 C384 1.247 . S
O383 Cd379 2.439 . S
O383 C384 1.208 . S
C384 O382 1.247 . S
C384 O383 1.208 . S
C385 O390 1.247 . S
C385 O391 1.208 . S
C386 O378 1.315 . S
C386 O381 1.279 . S
C387 O388 1.315 . S
C387 O389 1.279 . S
O388 Cd380 2.223 . S
O388 C387 1.315 . S
O389 Cd379 2.240 . S
O389 C387 1.279 . S
O390 Cd380 2.297 . S
O390 C385 1.247 . S
O391 Cd380 2.439 . S
O391 C385 1.208 . S
O392 Cd393 2.223 . S
O392 C400 1.315 . S
Cd393 O392 2.223 . S
Cd393 O396 2.297 . S
Cd393 O397 2.439 . S
Cd393 O403 2.240 . S
Cd394 O395 2.240 . S
Cd394 O402 2.223 . S
Cd394 O404 2.297 . S
Cd394 O405 2.439 . S
O395 Cd394 2.240 . S
O395 C400 1.279 . S
O396 Cd393 2.297 . S
O396 C398 1.247 . S
O397 Cd393 2.439 . S
O397 C398 1.208 . S
C398 O396 1.247 . S
C398 O397 1.208 . S
C399 O404 1.247 . S
C399 O405 1.208 . S
C400 O392 1.315 . S
C400 O395 1.279 . S
C401 O402 1.315 . S
C401 O403 1.279 . S
O402 Cd394 2.223 . S
O402 C401 1.315 . S
O403 Cd393 2.240 . S
O403 C401 1.279 . S
O404 Cd394 2.297 . S
O404 C399 1.247 . S
O405 Cd394 2.439 . S
O405 C399 1.208 . S
O406 Cd407 2.223 . S
O406 C414 1.315 . S
Cd407 O406 2.223 . S
Cd407 O410 2.297 . S
Cd407 O411 2.439 . S
Cd407 O417 2.240 . S
Cd408 O409 2.240 . S
Cd408 O416 2.223 . S
Cd408 O418 2.297 . S
Cd408 O419 2.439 . S
O409 Cd408 2.240 . S
O409 C414 1.279 . S
O410 Cd407 2.297 . S
O410 C412 1.247 . S
O411 Cd407 2.439 . S
O411 C412 1.208 . S
C412 O410 1.247 . S
C412 O411 1.208 . S
C413 O418 1.247 . S
C413 O419 1.208 . S
C414 O406 1.315 . S
C414 O409 1.279 . S
C415 O416 1.315 . S
C415 O417 1.279 . S
O416 Cd408 2.223 . S
O416 C415 1.315 . S
O417 Cd407 2.240 . S
O417 C415 1.279 . S
O418 Cd408 2.297 . S
O418 C413 1.247 . S
O419 Cd408 2.439 . S
O419 C413 1.208 . S
O420 Cd421 2.223 . S
O420 C428 1.315 . S
Cd421 O420 2.223 . S
Cd421 O424 2.297 . S
Cd421 O425 2.439 . S
Cd421 O431 2.240 . S
Cd422 O423 2.240 . S
Cd422 O430 2.223 . S
Cd422 O432 2.297 . S
Cd422 O433 2.439 . S
O423 Cd422 2.240 . S
O423 C428 1.279 . S
O424 Cd421 2.297 . S
O424 C426 1.247 . S
O425 Cd421 2.439 . S
O425 C426 1.208 . S
C426 O424 1.247 . S
C426 O425 1.208 . S
C427 O432 1.247 . S
C427 O433 1.208 . S
C428 O420 1.315 . S
C428 O423 1.279 . S
C429 O430 1.315 . S
C429 O431 1.279 . S
O430 Cd422 2.223 . S
O430 C429 1.315 . S
O431 Cd421 2.240 . S
O431 C429 1.279 . S
O432 Cd422 2.297 . S
O432 C427 1.247 . S
O433 Cd422 2.439 . S
O433 C427 1.208 . S
O434 Cd435 2.223 . S
O434 C442 1.315 . S
Cd435 O434 2.223 . S
Cd435 O438 2.297 . S
Cd435 O439 2.439 . S
Cd435 O445 2.240 . S
Cd436 O437 2.240 . S
Cd436 O444 2.223 . S
Cd436 O446 2.297 . S
Cd436 O447 2.439 . S
O437 Cd436 2.240 . S
O437 C442 1.279 . S
O438 Cd435 2.297 . S
O438 C440 1.247 . S
O439 Cd435 2.439 . S
O439 C440 1.208 . S
C440 O438 1.247 . S
C440 O439 1.208 . S
C441 O446 1.247 . S
C441 O447 1.208 . S
C442 O434 1.315 . S
C442 O437 1.279 . S
C443 O444 1.315 . S
C443 O445 1.279 . S
O444 Cd436 2.223 . S
O444 C443 1.315 . S
O445 Cd435 2.240 . S
O445 C443 1.279 . S
O446 Cd436 2.297 . S
O446 C441 1.247 . S
O447 Cd436 2.439 . S
O447 C441 1.208 . S
O448 Cd449 2.223 . S
O448 C456 1.315 . S
Cd449 O448 2.223 . S
Cd449 O452 2.297 . S
Cd449 O453 2.439 . S
Cd449 O459 2.240 . S
Cd450 O451 2.240 . S
Cd450 O458 2.223 . S
Cd450 O460 2.297 . S
Cd450 O461 2.439 . S
O451 Cd450 2.240 . S
O451 C456 1.279 . S
O452 Cd449 2.297 . S
O452 C454 1.247 . S
O453 Cd449 2.439 . S
O453 C454 1.208 . S
C454 O452 1.247 . S
C454 O453 1.208 . S
C455 O460 1.247 . S
C455 O461 1.208 . S
C456 O448 1.315 . S
C456 O451 1.279 . S
C457 O458 1.315 . S
C457 O459 1.279 . S
O458 Cd450 2.223 . S
O458 C457 1.315 . S
O459 Cd449 2.240 . S
O459 C457 1.279 . S
O460 Cd450 2.297 . S
O460 C455 1.247 . S
O461 Cd450 2.439 . S
O461 C455 1.208 . S
O462 Cd463 2.223 . S
O462 C470 1.315 . S
Cd463 O462 2.223 . S
Cd463 O466 2.297 . S
Cd463 O467 2.439 . S
Cd463 O473 2.240 . S
Cd464 O465 2.240 . S
Cd464 O472 2.223 . S
Cd464 O474 2.297 . S
Cd464 O475 2.439 . S
O465 Cd464 2.240 . S
O465 C470 1.279 . S
O466 Cd463 2.297 . S
O466 C468 1.247 . S
O467 Cd463 2.439 . S
O467 C468 1.208 . S
C468 O466 1.247 . S
C468 O467 1.208 . S
C469 O474 1.247 . S
C469 O475 1.208 . S
C470 O462 1.315 . S
C470 O465 1.279 . S
C471 O472 1.315 . S
C471 O473 1.279 . S
O472 Cd464 2.223 . S
O472 C471 1.315 . S
O473 Cd463 2.240 . S
O473 C471 1.279 . S
O474 Cd464 2.297 . S
O474 C469 1.247 . S
O475 Cd464 2.439 . S
O475 C469 1.208 . S
O476 Cd477 2.223 . S
O476 C484 1.315 . S
Cd477 O476 2.223 . S
Cd477 O480 2.297 . S
Cd477 O481 2.439 . S
Cd477 O487 2.240 . S
Cd478 O479 2.240 . S
Cd478 O486 2.223 . S
Cd478 O488 2.297 . S
Cd478 O489 2.439 . S
O479 Cd478 2.240 . S
O479 C484 1.279 . S
O480 Cd477 2.297 . S
O480 C482 1.247 . S
O481 Cd477 2.439 . S
O481 C482 1.208 . S
C482 O480 1.247 . S
C482 O481 1.208 . S
C483 O488 1.247 . S
C483 O489 1.208 . S
C484 O476 1.315 . S
C484 O479 1.279 . S
C485 O486 1.315 . S
C485 O487 1.279 . S
O486 Cd478 2.223 . S
O486 C485 1.315 . S
O487 Cd477 2.240 . S
O487 C485 1.279 . S
O488 Cd478 2.297 . S
O488 C483 1.247 . S
O489 Cd478 2.439 . S
O489 C483 1.208 . S
O490 Cd491 2.223 . S
O490 C498 1.315 . S
Cd491 O490 2.223 . S
Cd491 O494 2.297 . S
Cd491 O495 2.439 . S
Cd491 O501 2.240 . S
Cd492 O493 2.240 . S
Cd492 O500 2.223 . S
Cd492 O502 2.297 . S
Cd492 O503 2.439 . S
O493 Cd492 2.240 . S
O493 C498 1.279 . S
O494 Cd491 2.297 . S
O494 C496 1.247 . S
O495 Cd491 2.439 . S
O495 C496 1.208 . S
C496 O494 1.247 . S
C496 O495 1.208 . S
C497 O502 1.247 . S
C497 O503 1.208 . S
C498 O490 1.315 . S
C498 O493 1.279 . S
C499 O500 1.315 . S
C499 O501 1.279 . S
O500 Cd492 2.223 . S
O500 C499 1.315 . S
O501 Cd491 2.240 . S
O501 C499 1.279 . S
O502 Cd492 2.297 . S
O502 C497 1.247 . S
O503 Cd492 2.439 . S
O503 C497 1.208 . S
C504 C505 1.349 . S
C504 C506 1.327 . S
C504 H529 0.950 . S
C505 C504 1.349 . S
C505 C521 1.349 . S
C506 C504 1.327 . S
C506 C525 1.429 . S
C506 H530 0.950 . S
C507 C524 1.574 . S
C507 C526 1.368 . S
C507 H531 0.949 . S
H508 C512 0.949 . S
C509 C510 1.349 . S
C509 C511 1.327 . S
C509 H532 0.950 . S
C510 C509 1.349 . S
C510 C522 1.349 . S
C511 C509 1.327 . S
C511 C527 1.429 . S
C511 H533 0.950 . S
C512 H508 0.949 . S
C512 C520 1.574 . S
C512 C528 1.368 . S
H513 C521 0.950 . S
H514 C519 0.950 . S
H515 C520 0.949 . S
H516 C522 0.950 . S
H517 C523 0.950 . S
H518 C524 0.949 . S
C519 H514 0.950 . S
C519 C521 1.327 . S
C519 C525 1.429 . S
C520 C512 1.574 . S
C520 H515 0.949 . S
C520 C526 1.368 . S
C521 C505 1.349 . S
C521 H513 0.950 . S
C521 C519 1.327 . S
C522 C510 1.349 . S
C522 H516 0.950 . S
C522 C523 1.327 . S
C523 H517 0.950 . S
C523 C522 1.327 . S
C523 C527 1.429 . S
C524 C507 1.574 . S
C524 H518 0.949 . S
C524 C528 1.368 . S
C525 C506 1.429 . S
C525 C519 1.429 . S
C525 C526 1.523 . S
C526 C507 1.368 . S
C526 C520 1.368 . S
C526 C525 1.523 . S
C527 C511 1.429 . S
C527 C523 1.429 . S
C527 C528 1.523 . S
C528 C512 1.368 . S
C528 C524 1.368 . S
C528 C527 1.523 . S
H529 C504 0.950 . S
H530 C506 0.950 . S
H531 C507 0.949 . S
H532 C509 0.950 . S
H533 C511 0.950 . S
C534 C535 1.349 . S
C534 C536 1.327 . S
C534 H559 0.950 . S
C535 C534 1.349 . S
C535 C551 1.349 . S
C536 C534 1.327 . S
C536 C555 1.429 . S
C536 H560 0.950 . S
C537 C554 1.574 . S
C537 C556 1.368 . S
C537 H561 0.949 . S
H538 C542 0.949 . S
C539 C540 1.349 . S
C539 C541 1.327 . S
C539 H562 0.950 . S
C540 C539 1.349 . S
C540 C552 1.349 . S
C541 C539 1.327 . S
C541 C557 1.429 . S
C541 H563 0.950 . S
C542 H538 0.949 . S
C542 C550 1.574 . S
C542 C558 1.368 . S
H543 C551 0.950 . S
H544 C549 0.950 . S
H545 C550 0.949 . S
H546 C552 0.950 . S
H547 C553 0.950 . S
H548 C554 0.949 . S
C549 H544 0.950 . S
C549 C551 1.327 . S
C549 C555 1.429 . S
C550 C542 1.574 . S
C550 H545 0.949 . S
C550 C556 1.368 . S
C551 C535 1.349 . S
C551 H543 0.950 . S
C551 C549 1.327 . S
C552 C540 1.349 . S
C552 H546 0.950 . S
C552 C553 1.327 . S
C553 H547 0.950 . S
C553 C552 1.327 . S
C553 C557 1.429 . S
C554 C537 1.574 . S
C554 H548 0.949 . S
C554 C558 1.368 . S
C555 C536 1.429 . S
C555 C549 1.429 . S
C555 C556 1.523 . S
C556 C537 1.368 . S
C556 C550 1.368 . S
C556 C555 1.523 . S
C557 C541 1.429 . S
C557 C553 1.429 . S
C557 C558 1.523 . S
C558 C542 1.368 . S
C558 C554 1.368 . S
C558 C557 1.523 . S
H559 C534 0.950 . S
H560 C536 0.950 . S
H561 C537 0.949 . S
H562 C539 0.950 . S
H563 C541 0.950 . S
C564 C565 1.349 . S
C564 C566 1.327 . S
C564 H589 0.950 . S
C565 C564 1.349 . S
C565 C581 1.349 . S
C566 C564 1.327 . S
C566 C585 1.429 . S
C566 H590 0.950 . S
C567 C584 1.574 . S
C567 C586 1.368 . S
C567 H591 0.949 . S
H568 C572 0.949 . S
C569 C570 1.349 . S
C569 C571 1.327 . S
C569 H592 0.950 . S
C570 C569 1.349 . S
C570 C582 1.349 . S
C571 C569 1.327 . S
C571 C587 1.429 . S
C571 H593 0.950 . S
C572 H568 0.949 . S
C572 C580 1.574 . S
C572 C588 1.368 . S
H573 C581 0.950 . S
H574 C579 0.950 . S
H575 C580 0.949 . S
H576 C582 0.950 . S
H577 C583 0.950 . S
H578 C584 0.949 . S
C579 H574 0.950 . S
C579 C581 1.327 . S
C579 C585 1.429 . S
C580 C572 1.574 . S
C580 H575 0.949 . S
C580 C586 1.368 . S
C581 C565 1.349 . S
C581 H573 0.950 . S
C581 C579 1.327 . S
C582 C570 1.349 . S
C582 H576 0.950 . S
C582 C583 1.327 . S
C583 H577 0.950 . S
C583 C582 1.327 . S
C583 C587 1.429 . S
C584 C567 1.574 . S
C584 H578 0.949 . S
C584 C588 1.368 . S
C585 C566 1.429 . S
C585 C579 1.429 . S
C585 C586 1.523 . S
C586 C567 1.368 . S
C586 C580 1.368 . S
C586 C585 1.523 . S
C587 C571 1.429 . S
C587 C583 1.429 . S
C587 C588 1.523 . S
C588 C572 1.368 . S
C588 C584 1.368 . S
C588 C587 1.523 . S
H589 C564 0.950 . S
H590 C566 0.950 . S
H591 C567 0.949 . S
H592 C569 0.950 . S
H593 C571 0.950 . S
C594 C595 1.349 . S
C594 C596 1.327 . S
C594 H619 0.950 . S
C595 C594 1.349 . S
C595 C611 1.349 . S
C596 C594 1.327 . S
C596 C615 1.429 . S
C596 H620 0.950 . S
C597 C614 1.574 . S
C597 C616 1.368 . S
C597 H621 0.949 . S
H598 C602 0.949 . S
C599 C600 1.349 . S
C599 C601 1.327 . S
C599 H622 0.950 . S
C600 C599 1.349 . S
C600 C612 1.349 . S
C601 C599 1.327 . S
C601 C617 1.429 . S
C601 H623 0.950 . S
C602 H598 0.949 . S
C602 C610 1.574 . S
C602 C618 1.368 . S
H603 C611 0.950 . S
H604 C609 0.950 . S
H605 C610 0.949 . S
H606 C612 0.950 . S
H607 C613 0.950 . S
H608 C614 0.949 . S
C609 H604 0.950 . S
C609 C611 1.327 . S
C609 C615 1.429 . S
C610 C602 1.574 . S
C610 H605 0.949 . S
C610 C616 1.368 . S
C611 C595 1.349 . S
C611 H603 0.950 . S
C611 C609 1.327 . S
C612 C600 1.349 . S
C612 H606 0.950 . S
C612 C613 1.327 . S
C613 H607 0.950 . S
C613 C612 1.327 . S
C613 C617 1.429 . S
C614 C597 1.574 . S
C614 H608 0.949 . S
C614 C618 1.368 . S
C615 C596 1.429 . S
C615 C609 1.429 . S
C615 C616 1.523 . S
C616 C597 1.368 . S
C616 C610 1.368 . S
C616 C615 1.523 . S
C617 C601 1.429 . S
C617 C613 1.429 . S
C617 C618 1.523 . S
C618 C602 1.368 . S
C618 C614 1.368 . S
C618 C617 1.523 . S
H619 C594 0.950 . S
H620 C596 0.950 . S
H621 C597 0.949 . S
H622 C599 0.950 . S
H623 C601 0.950 . S
C624 C625 1.349 . S
C624 C626 1.327 . S
C624 H649 0.950 . S
C625 C624 1.349 . S
C625 C641 1.349 . S
C626 C624 1.327 . S
C626 C645 1.429 . S
C626 H650 0.950 . S
C627 C644 1.574 . S
C627 C646 1.368 . S
C627 H651 0.949 . S
H628 C632 0.949 . S
C629 C630 1.349 . S
C629 C631 1.327 . S
C629 H652 0.950 . S
C630 C629 1.349 . S
C630 C642 1.349 . S
C631 C629 1.327 . S
C631 C647 1.429 . S
C631 H653 0.950 . S
C632 H628 0.949 . S
C632 C640 1.574 . S
C632 C648 1.368 . S
H633 C641 0.950 . S
H634 C639 0.950 . S
H635 C640 0.949 . S
H636 C642 0.950 . S
H637 C643 0.950 . S
H638 C644 0.949 . S
C639 H634 0.950 . S
C639 C641 1.327 . S
C639 C645 1.429 . S
C640 C632 1.574 . S
C640 H635 0.949 . S
C640 C646 1.368 . S
C641 C625 1.349 . S
C641 H633 0.950 . S
C641 C639 1.327 . S
C642 C630 1.349 . S
C642 H636 0.950 . S
C642 C643 1.327 . S
C643 H637 0.950 . S
C643 C642 1.327 . S
C643 C647 1.429 . S
C644 C627 1.574 . S
C644 H638 0.949 . S
C644 C648 1.368 . S
C645 C626 1.429 . S
C645 C639 1.429 . S
C645 C646 1.523 . S
C646 C627 1.368 . S
C646 C640 1.368 . S
C646 C645 1.523 . S
C647 C631 1.429 . S
C647 C643 1.429 . S
C647 C648 1.523 . S
C648 C632 1.368 . S
C648 C644 1.368 . S
C648 C647 1.523 . S
H649 C624 0.950 . S
H650 C626 0.950 . S
H651 C627 0.949 . S
H652 C629 0.950 . S
H653 C631 0.950 . S
C654 C655 1.349 . S
C654 C656 1.327 . S
C654 H679 0.950 . S
C655 C654 1.349 . S
C655 C671 1.349 . S
C656 C654 1.327 . S
C656 C675 1.429 . S
C656 H680 0.950 . S
C657 C674 1.574 . S
C657 C676 1.368 . S
C657 H681 0.949 . S
H658 C662 0.949 . S
C659 C660 1.349 . S
C659 C661 1.327 . S
C659 H682 0.950 . S
C660 C659 1.349 . S
C660 C672 1.349 . S
C661 C659 1.327 . S
C661 C677 1.429 . S
C661 H683 0.950 . S
C662 H658 0.949 . S
C662 C670 1.574 . S
C662 C678 1.368 . S
H663 C671 0.950 . S
H664 C669 0.950 . S
H665 C670 0.949 . S
H666 C672 0.950 . S
H667 C673 0.950 . S
H668 C674 0.949 . S
C669 H664 0.950 . S
C669 C671 1.327 . S
C669 C675 1.429 . S
C670 C662 1.574 . S
C670 H665 0.949 . S
C670 C676 1.368 . S
C671 C655 1.349 . S
C671 H663 0.950 . S
C671 C669 1.327 . S
C672 C660 1.349 . S
C672 H666 0.950 . S
C672 C673 1.327 . S
C673 H667 0.950 . S
C673 C672 1.327 . S
C673 C677 1.429 . S
C674 C657 1.574 . S
C674 H668 0.949 . S
C674 C678 1.368 . S
C675 C656 1.429 . S
C675 C669 1.429 . S
C675 C676 1.523 . S
C676 C657 1.368 . S
C676 C670 1.368 . S
C676 C675 1.523 . S
C677 C661 1.429 . S
C677 C673 1.429 . S
C677 C678 1.523 . S
C678 C662 1.368 . S
C678 C674 1.368 . S
C678 C677 1.523 . S
H679 C654 0.950 . S
H680 C656 0.950 . S
H681 C657 0.949 . S
H682 C659 0.950 . S
H683 C661 0.950 . S
C684 C685 1.349 . S
C684 C686 1.327 . S
C684 H709 0.950 . S
C685 C684 1.349 . S
C685 C701 1.349 . S
C686 C684 1.327 . S
C686 C705 1.429 . S
C686 H710 0.950 . S
C687 C704 1.574 . S
C687 C706 1.368 . S
C687 H711 0.949 . S
H688 C692 0.949 . S
C689 C690 1.349 . S
C689 C691 1.327 . S
C689 H712 0.950 . S
C690 C689 1.349 . S
C690 C702 1.349 . S
C691 C689 1.327 . S
C691 C707 1.429 . S
C691 H713 0.950 . S
C692 H688 0.949 . S
C692 C700 1.574 . S
C692 C708 1.368 . S
H693 C701 0.950 . S
H694 C699 0.950 . S
H695 C700 0.949 . S
H696 C702 0.950 . S
H697 C703 0.950 . S
H698 C704 0.949 . S
C699 H694 0.950 . S
C699 C701 1.327 . S
C699 C705 1.429 . S
C700 C692 1.574 . S
C700 H695 0.949 . S
C700 C706 1.368 . S
C701 C685 1.349 . S
C701 H693 0.950 . S
C701 C699 1.327 . S
C702 C690 1.349 . S
C702 H696 0.950 . S
C702 C703 1.327 . S
C703 H697 0.950 . S
C703 C702 1.327 . S
C703 C707 1.429 . S
C704 C687 1.574 . S
C704 H698 0.949 . S
C704 C708 1.368 . S
C705 C686 1.429 . S
C705 C699 1.429 . S
C705 C706 1.523 . S
C706 C687 1.368 . S
C706 C700 1.368 . S
C706 C705 1.523 . S
C707 C691 1.429 . S
C707 C703 1.429 . S
C707 C708 1.523 . S
C708 C692 1.368 . S
C708 C704 1.368 . S
C708 C707 1.523 . S
H709 C684 0.950 . S
H710 C686 0.950 . S
H711 C687 0.949 . S
H712 C689 0.950 . S
H713 C691 0.950 . S
C714 C715 1.349 . S
C714 C716 1.327 . S
C714 H739 0.950 . S
C715 C714 1.349 . S
C715 C731 1.349 . S
C716 C714 1.327 . S
C716 C735 1.429 . S
C716 H740 0.950 . S
C717 C734 1.574 . S
C717 C736 1.368 . S
C717 H741 0.949 . S
H718 C722 0.949 . S
C719 C720 1.349 . S
C719 C721 1.327 . S
C719 H742 0.950 . S
C720 C719 1.349 . S
C720 C732 1.349 . S
C721 C719 1.327 . S
C721 C737 1.429 . S
C721 H743 0.950 . S
C722 H718 0.949 . S
C722 C730 1.574 . S
C722 C738 1.368 . S
H723 C731 0.950 . S
H724 C729 0.950 . S
H725 C730 0.949 . S
H726 C732 0.950 . S
H727 C733 0.950 . S
H728 C734 0.949 . S
C729 H724 0.950 . S
C729 C731 1.327 . S
C729 C735 1.429 . S
C730 C722 1.574 . S
C730 H725 0.949 . S
C730 C736 1.368 . S
C731 C715 1.349 . S
C731 H723 0.950 . S
C731 C729 1.327 . S
C732 C720 1.349 . S
C732 H726 0.950 . S
C732 C733 1.327 . S
C733 H727 0.950 . S
C733 C732 1.327 . S
C733 C737 1.429 . S
C734 C717 1.574 . S
C734 H728 0.949 . S
C734 C738 1.368 . S
C735 C716 1.429 . S
C735 C729 1.429 . S
C735 C736 1.523 . S
C736 C717 1.368 . S
C736 C730 1.368 . S
C736 C735 1.523 . S
C737 C721 1.429 . S
C737 C733 1.429 . S
C737 C738 1.523 . S
C738 C722 1.368 . S
C738 C734 1.368 . S
C738 C737 1.523 . S
H739 C714 0.950 . S
H740 C716 0.950 . S
H741 C717 0.949 . S
H742 C719 0.950 . S
H743 C721 0.950 . S
C744 C745 1.349 . S
C744 C746 1.327 . S
C744 H769 0.950 . S
C745 C744 1.349 . S
C745 C761 1.349 . S
C746 C744 1.327 . S
C746 C765 1.429 . S
C746 H770 0.950 . S
C747 C764 1.574 . S
C747 C766 1.368 . S
C747 H771 0.949 . S
H748 C752 0.949 . S
C749 C750 1.349 . S
C749 C751 1.327 . S
C749 H772 0.950 . S
C750 C749 1.349 . S
C750 C762 1.349 . S
C751 C749 1.327 . S
C751 C767 1.429 . S
C751 H773 0.950 . S
C752 H748 0.949 . S
C752 C760 1.574 . S
C752 C768 1.368 . S
H753 C761 0.950 . S
H754 C759 0.950 . S
H755 C760 0.949 . S
H756 C762 0.950 . S
H757 C763 0.950 . S
H758 C764 0.949 . S
C759 H754 0.950 . S
C759 C761 1.327 . S
C759 C765 1.429 . S
C760 C752 1.574 . S
C760 H755 0.949 . S
C760 C766 1.368 . S
C761 C745 1.349 . S
C761 H753 0.950 . S
C761 C759 1.327 . S
C762 C750 1.349 . S
C762 H756 0.950 . S
C762 C763 1.327 . S
C763 H757 0.950 . S
C763 C762 1.327 . S
C763 C767 1.429 . S
C764 C747 1.574 . S
C764 H758 0.949 . S
C764 C768 1.368 . S
C765 C746 1.429 . S
C765 C759 1.429 . S
C765 C766 1.523 . S
C766 C747 1.368 . S
C766 C760 1.368 . S
C766 C765 1.523 . S
C767 C751 1.429 . S
C767 C763 1.429 . S
C767 C768 1.523 . S
C768 C752 1.368 . S
C768 C764 1.368 . S
C768 C767 1.523 . S
H769 C744 0.950 . S
H770 C746 0.950 . S
H771 C747 0.949 . S
H772 C749 0.950 . S
H773 C751 0.950 . S
C774 C775 1.349 . S
C774 C776 1.327 . S
C774 H799 0.950 . S
C775 C774 1.349 . S
C775 C791 1.349 . S
C776 C774 1.327 . S
C776 C795 1.429 . S
C776 H800 0.950 . S
C777 C794 1.574 . S
C777 C796 1.368 . S
C777 H801 0.949 . S
H778 C782 0.949 . S
C779 C780 1.349 . S
C779 C781 1.327 . S
C779 H802 0.950 . S
C780 C779 1.349 . S
C780 C792 1.349 . S
C781 C779 1.327 . S
C781 C797 1.429 . S
C781 H803 0.950 . S
C782 H778 0.949 . S
C782 C790 1.574 . S
C782 C798 1.368 . S
H783 C791 0.950 . S
H784 C789 0.950 . S
H785 C790 0.949 . S
H786 C792 0.950 . S
H787 C793 0.950 . S
H788 C794 0.949 . S
C789 H784 0.950 . S
C789 C791 1.327 . S
C789 C795 1.429 . S
C790 C782 1.574 . S
C790 H785 0.949 . S
C790 C796 1.368 . S
C791 C775 1.349 . S
C791 H783 0.950 . S
C791 C789 1.327 . S
C792 C780 1.349 . S
C792 H786 0.950 . S
C792 C793 1.327 . S
C793 H787 0.950 . S
C793 C792 1.327 . S
C793 C797 1.429 . S
C794 C777 1.574 . S
C794 H788 0.949 . S
C794 C798 1.368 . S
C795 C776 1.429 . S
C795 C789 1.429 . S
C795 C796 1.523 . S
C796 C777 1.368 . S
C796 C790 1.368 . S
C796 C795 1.523 . S
C797 C781 1.429 . S
C797 C793 1.429 . S
C797 C798 1.523 . S
C798 C782 1.368 . S
C798 C794 1.368 . S
C798 C797 1.523 . S
H799 C774 0.950 . S
H800 C776 0.950 . S
H801 C777 0.949 . S
H802 C779 0.950 . S
H803 C781 0.950 . S
C804 C805 1.349 . S
C804 C806 1.327 . S
C804 H829 0.950 . S
C805 C804 1.349 . S
C805 C821 1.349 . S
C806 C804 1.327 . S
C806 C825 1.429 . S
C806 H830 0.950 . S
C807 C824 1.574 . S
C807 C826 1.368 . S
C807 H831 0.949 . S
H808 C812 0.949 . S
C809 C810 1.349 . S
C809 C811 1.327 . S
C809 H832 0.950 . S
C810 C809 1.349 . S
C810 C822 1.349 . S
C811 C809 1.327 . S
C811 C827 1.429 . S
C811 H833 0.950 . S
C812 H808 0.949 . S
C812 C820 1.574 . S
C812 C828 1.368 . S
H813 C821 0.950 . S
H814 C819 0.950 . S
H815 C820 0.949 . S
H816 C822 0.950 . S
H817 C823 0.950 . S
H818 C824 0.949 . S
C819 H814 0.950 . S
C819 C821 1.327 . S
C819 C825 1.429 . S
C820 C812 1.574 . S
C820 H815 0.949 . S
C820 C826 1.368 . S
C821 C805 1.349 . S
C821 H813 0.950 . S
C821 C819 1.327 . S
C822 C810 1.349 . S
C822 H816 0.950 . S
C822 C823 1.327 . S
C823 H817 0.950 . S
C823 C822 1.327 . S
C823 C827 1.429 . S
C824 C807 1.574 . S
C824 H818 0.949 . S
C824 C828 1.368 . S
C825 C806 1.429 . S
C825 C819 1.429 . S
C825 C826 1.523 . S
C826 C807 1.368 . S
C826 C820 1.368 . S
C826 C825 1.523 . S
C827 C811 1.429 . S
C827 C823 1.429 . S
C827 C828 1.523 . S
C828 C812 1.368 . S
C828 C824 1.368 . S
C828 C827 1.523 . S
H829 C804 0.950 . S
H830 C806 0.950 . S
H831 C807 0.949 . S
H832 C809 0.950 . S
H833 C811 0.950 . S
C834 C835 1.349 . S
C834 C836 1.327 . S
C834 H859 0.950 . S
C835 C834 1.349 . S
C835 C851 1.349 . S
C836 C834 1.327 . S
C836 C855 1.429 . S
C836 H860 0.950 . S
C837 C854 1.574 . S
C837 C856 1.368 . S
C837 H861 0.949 . S
H838 C842 0.949 . S
C839 C840 1.349 . S
C839 C841 1.327 . S
C839 H862 0.950 . S
C840 C839 1.349 . S
C840 C852 1.349 . S
C841 C839 1.327 . S
C841 C857 1.429 . S
C841 H863 0.950 . S
C842 H838 0.949 . S
C842 C850 1.574 . S
C842 C858 1.368 . S
H843 C851 0.950 . S
H844 C849 0.950 . S
H845 C850 0.949 . S
H846 C852 0.950 . S
H847 C853 0.950 . S
H848 C854 0.949 . S
C849 H844 0.950 . S
C849 C851 1.327 . S
C849 C855 1.429 . S
C850 C842 1.574 . S
C850 H845 0.949 . S
C850 C856 1.368 . S
C851 C835 1.349 . S
C851 H843 0.950 . S
C851 C849 1.327 . S
C852 C840 1.349 . S
C852 H846 0.950 . S
C852 C853 1.327 . S
C853 H847 0.950 . S
C853 C852 1.327 . S
C853 C857 1.429 . S
C854 C837 1.574 . S
C854 H848 0.949 . S
C854 C858 1.368 . S
C855 C836 1.429 . S
C855 C849 1.429 . S
C855 C856 1.523 . S
C856 C837 1.368 . S
C856 C850 1.368 . S
C856 C855 1.523 . S
C857 C841 1.429 . S
C857 C853 1.429 . S
C857 C858 1.523 . S
C858 C842 1.368 . S
C858 C854 1.368 . S
C858 C857 1.523 . S
H859 C834 0.950 . S
H860 C836 0.950 . S
H861 C837 0.949 . S
H862 C839 0.950 . S
H863 C841 0.950 . S
C864 C865 1.349 . S
C864 C866 1.327 . S
C864 H889 0.950 . S
C865 C864 1.349 . S
C865 C881 1.349 . S
C866 C864 1.327 . S
C866 C885 1.429 . S
C866 H890 0.950 . S
C867 C884 1.574 . S
C867 C886 1.368 1_655 S
C867 H891 0.949 . S
H868 C872 0.949 . S
C869 C870 1.349 . S
C869 C871 1.327 . S
C869 H892 0.950 . S
C870 C869 1.349 . S
C870 C882 1.349 . S
C871 C869 1.327 . S
C871 C887 1.429 . S
C871 H893 0.950 . S
C872 H868 0.949 . S
C872 C880 1.574 . S
C872 C888 1.368 1_455 S
H873 C881 0.950 . S
H874 C879 0.950 . S
H875 C880 0.949 . S
H876 C882 0.950 . S
H877 C883 0.950 . S
H878 C884 0.949 . S
C879 H874 0.950 . S
C879 C881 1.327 . S
C879 C885 1.429 . S
C880 C872 1.574 . S
C880 H875 0.949 . S
C880 C886 1.368 . S
C881 C865 1.349 . S
C881 H873 0.950 . S
C881 C879 1.327 . S
C882 C870 1.349 . S
C882 H876 0.950 . S
C882 C883 1.327 . S
C883 H877 0.950 . S
C883 C882 1.327 . S
C883 C887 1.429 . S
C884 C867 1.574 . S
C884 H878 0.949 . S
C884 C888 1.368 . S
C885 C866 1.429 . S
C885 C879 1.429 . S
C885 C886 1.523 . S
C886 C867 1.368 1_455 S
C886 C880 1.368 . S
C886 C885 1.523 . S
C887 C871 1.429 . S
C887 C883 1.429 . S
C887 C888 1.523 . S
C888 C872 1.368 1_655 S
C888 C884 1.368 . S
C888 C887 1.523 . S
H889 C864 0.950 . S
H890 C866 0.950 . S
H891 C867 0.949 . S
H892 C869 0.950 . S
H893 C871 0.950 . S
C894 C895 1.349 . S
C894 C896 1.327 . S
C894 H919 0.950 . S
C895 C894 1.349 . S
C895 C911 1.349 . S
C896 C894 1.327 . S
C896 C915 1.429 . S
C896 H920 0.950 . S
C897 C914 1.574 . S
C897 C916 1.368 . S
C897 H921 0.949 . S
H898 C902 0.949 . S
C899 C900 1.349 . S
C899 C901 1.327 . S
C899 H922 0.950 . S
C900 C899 1.349 . S
C900 C912 1.349 . S
C901 C899 1.327 . S
C901 C917 1.429 . S
C901 H923 0.950 . S
C902 H898 0.949 . S
C902 C910 1.574 . S
C902 C918 1.368 . S
H903 C911 0.950 . S
H904 C909 0.950 . S
H905 C910 0.949 . S
H906 C912 0.950 . S
H907 C913 0.950 . S
H908 C914 0.949 . S
C909 H904 0.950 . S
C909 C911 1.327 . S
C909 C915 1.429 . S
C910 C902 1.574 . S
C910 H905 0.949 . S
C910 C916 1.368 . S
C911 C895 1.349 . S
C911 H903 0.950 . S
C911 C909 1.327 . S
C912 C900 1.349 . S
C912 H906 0.950 . S
C912 C913 1.327 . S
C913 H907 0.950 . S
C913 C912 1.327 . S
C913 C917 1.429 . S
C914 C897 1.574 . S
C914 H908 0.949 . S
C914 C918 1.368 . S
C915 C896 1.429 . S
C915 C909 1.429 . S
C915 C916 1.523 . S
C916 C897 1.368 . S
C916 C910 1.368 . S
C916 C915 1.523 . S
C917 C901 1.429 . S
C917 C913 1.429 . S
C917 C918 1.523 . S
C918 C902 1.368 . S
C918 C914 1.368 . S
C918 C917 1.523 . S
H919 C894 0.950 . S
H920 C896 0.950 . S
H921 C897 0.949 . S
H922 C899 0.950 . S
H923 C901 0.950 . S
C924 C925 1.349 . S
C924 C926 1.327 . S
C924 H949 0.950 . S
C925 C924 1.349 . S
C925 C941 1.349 . S
C926 C924 1.327 . S
C926 C945 1.429 . S
C926 H950 0.950 . S
C927 C944 1.574 . S
C927 C946 1.368 1_565 S
C927 H951 0.949 . S
H928 C932 0.949 . S
C929 C930 1.349 . S
C929 C931 1.327 . S
C929 H952 0.950 . S
C930 C929 1.349 . S
C930 C942 1.349 . S
C931 C929 1.327 . S
C931 C947 1.429 . S
C931 H953 0.950 . S
C932 H928 0.949 . S
C932 C940 1.574 . S
C932 C948 1.368 1_545 S
H933 C941 0.950 . S
H934 C939 0.950 . S
H935 C940 0.949 . S
H936 C942 0.950 . S
H937 C943 0.950 . S
H938 C944 0.949 . S
C939 H934 0.950 . S
C939 C941 1.327 . S
C939 C945 1.429 . S
C940 C932 1.574 . S
C940 H935 0.949 . S
C940 C946 1.368 . S
C941 C925 1.349 . S
C941 H933 0.950 . S
C941 C939 1.327 . S
C942 C930 1.349 . S
C942 H936 0.950 . S
C942 C943 1.327 . S
C943 H937 0.950 . S
C943 C942 1.327 . S
C943 C947 1.429 . S
C944 C927 1.574 . S
C944 H938 0.949 . S
C944 C948 1.368 . S
C945 C926 1.429 . S
C945 C939 1.429 . S
C945 C946 1.523 . S
C946 C927 1.368 1_545 S
C946 C940 1.368 . S
C946 C945 1.523 . S
C947 C931 1.429 . S
C947 C943 1.429 . S
C947 C948 1.523 . S
C948 C932 1.368 1_565 S
C948 C944 1.368 . S
C948 C947 1.523 . S
H949 C924 0.950 . S
H950 C926 0.950 . S
H951 C927 0.949 . S
H952 C929 0.950 . S
H953 C931 0.950 . S
C954 C955 1.349 . S
C954 C956 1.327 . S
C954 H979 0.950 . S
C955 C954 1.349 . S
C955 C971 1.349 . S
C956 C954 1.327 . S
C956 C975 1.429 . S
C956 H980 0.950 . S
C957 C974 1.578 1_564 S
C957 C976 1.364 . S
C957 H981 0.949 . S
H958 C962 0.949 . S
C959 C960 1.349 . S
C959 C961 1.327 . S
C959 H982 0.950 . S
C960 C959 1.349 . S
C960 C972 1.349 . S
C961 C959 1.327 . S
C961 C977 1.429 . S
C961 H983 0.950 . S
C962 H958 0.949 . S
C962 C970 1.578 1_546 S
C962 C978 1.364 . S
H963 C971 0.950 . S
H964 C969 0.950 . S
H965 C970 0.949 . S
H966 C972 0.950 . S
H967 C973 0.950 . S
H968 C974 0.949 . S
C969 H964 0.950 . S
C969 C971 1.327 . S
C969 C975 1.429 . S
C970 C962 1.578 1_564 S
C970 H965 0.949 . S
C970 C976 1.368 . S
C971 C955 1.349 . S
C971 H963 0.950 . S
C971 C969 1.327 . S
C972 C960 1.349 . S
C972 H966 0.950 . S
C972 C973 1.327 . S
C973 H967 0.950 . S
C973 C972 1.327 . S
C973 C977 1.429 . S
C974 C957 1.578 1_546 S
C974 H968 0.949 . S
C974 C978 1.368 . S
C975 C956 1.429 . S
C975 C969 1.429 . S
C975 C976 1.523 . S
C976 C957 1.364 . S
C976 C970 1.368 . S
C976 C975 1.523 . S
C977 C961 1.429 . S
C977 C973 1.429 . S
C977 C978 1.523 . S
C978 C962 1.364 . S
C978 C974 1.368 . S
C978 C977 1.523 . S
H979 C954 0.950 . S
H980 C956 0.950 . S
H981 C957 0.949 . S
H982 C959 0.950 . S
H983 C961 0.950 . S
C984 C985 1.349 . S
C984 C986 1.327 . S
C984 H1009 0.950 . S
C985 C984 1.349 . S
C985 C1001 1.349 . S
C986 C984 1.327 . S
C986 C1005 1.429 . S
C986 H1010 0.950 . S
C987 C1004 1.552 1_656 S
C987 C1006 1.368 . S
C987 H1011 0.949 . S
H988 C992 0.949 . S
C989 C990 1.349 . S
C989 C991 1.327 . S
C989 H1012 0.950 . S
C990 C989 1.349 . S
C990 C1002 1.349 . S
C991 C989 1.327 . S
C991 C1007 1.429 . S
C991 H1013 0.950 . S
C992 H988 0.949 . S
C992 C1000 1.552 1_454 S
C992 C1008 1.368 . S
H993 C1001 0.950 . S
H994 C999 0.950 . S
H995 C1000 0.948 . S
H996 C1002 0.950 . S
H997 C1003 0.950 . S
H998 C1004 0.948 . S
C999 H994 0.950 . S
C999 C1001 1.327 . S
C999 C1005 1.429 . S
C1000 C992 1.552 1_656 S
C1000 H995 0.948 . S
C1000 C1006 1.389 . S
C1001 C985 1.349 . S
C1001 H993 0.950 . S
C1001 C999 1.327 . S
C1002 C990 1.349 . S
C1002 H996 0.950 . S
C1002 C1003 1.327 . S
C1003 H997 0.950 . S
C1003 C1002 1.327 . S
C1003 C1007 1.429 . S
C1004 C987 1.552 1_454 S
C1004 H998 0.948 . S
C1004 C1008 1.389 . S
C1005 C986 1.429 . S
C1005 C999 1.429 . S
C1005 C1006 1.523 . S
C1006 C987 1.368 . S
C1006 C1000 1.389 . S
C1006 C1005 1.523 . S
C1007 C991 1.429 . S
C1007 C1003 1.429 . S
C1007 C1008 1.523 . S
C1008 C992 1.368 . S
C1008 C1004 1.389 . S
C1008 C1007 1.523 . S
H1009 C984 0.950 . S
H1010 C986 0.950 . S
H1011 C987 0.949 . S
H1012 C989 0.950 . S
H1013 C991 0.950 . S
C1014 C1015 1.349 . S
C1014 C1016 1.327 . S
C1014 H1039 0.950 . S
C1015 C1014 1.349 . S
C1015 C1031 1.349 . S
C1016 C1014 1.327 . S
C1016 C1035 1.429 . S
C1016 H1040 0.950 . S
C1017 C1034 1.574 . S
C1017 C1036 1.368 . S
C1017 H1041 0.949 . S
H1018 C1022 0.949 . S
C1019 C1020 1.349 . S
C1019 C1021 1.327 . S
C1019 H1042 0.950 . S
C1020 C1019 1.349 . S
C1020 C1032 1.349 . S
C1021 C1019 1.327 . S
C1021 C1037 1.429 . S
C1021 H1043 0.950 . S
C1022 H1018 0.949 . S
C1022 C1030 1.574 . S
C1022 C1038 1.368 . S
H1023 C1031 0.950 . S
H1024 C1029 0.950 . S
H1025 C1030 0.949 . S
H1026 C1032 0.950 . S
H1027 C1033 0.950 . S
H1028 C1034 0.949 . S
C1029 H1024 0.950 . S
C1029 C1031 1.327 . S
C1029 C1035 1.429 . S
C1030 C1022 1.574 . S
C1030 H1025 0.949 . S
C1030 C1036 1.368 1_554 S
C1031 C1015 1.349 . S
C1031 H1023 0.950 . S
C1031 C1029 1.327 . S
C1032 C1020 1.349 . S
C1032 H1026 0.950 . S
C1032 C1033 1.327 . S
C1033 H1027 0.950 . S
C1033 C1032 1.327 . S
C1033 C1037 1.429 . S
C1034 C1017 1.574 . S
C1034 H1028 0.949 . S
C1034 C1038 1.368 1_556 S
C1035 C1016 1.429 . S
C1035 C1029 1.429 . S
C1035 C1036 1.523 . S
C1036 C1017 1.368 . S
C1036 C1030 1.368 1_556 S
C1036 C1035 1.523 . S
C1037 C1021 1.429 . S
C1037 C1033 1.429 . S
C1037 C1038 1.523 . S
C1038 C1022 1.368 . S
C1038 C1034 1.368 1_554 S
C1038 C1037 1.523 . S
H1039 C1014 0.950 . S
H1040 C1016 0.950 . S
H1041 C1017 0.949 . S
H1042 C1019 0.950 . S
H1043 C1021 0.950 . S
C1044 C1045 1.377 . S
C1044 C1046 1.327 . S
C1044 H1069 0.950 . S
C1045 C1044 1.377 . S
C1045 C1061 1.352 1_565 S
C1046 C1044 1.327 . S
C1046 C1065 1.429 . S
C1046 H1070 0.950 . S
C1047 C1064 1.574 . S
C1047 C1066 1.368 . S
C1047 H1071 0.949 . S
H1048 C1052 0.949 . S
C1049 C1050 1.349 . S
C1049 C1051 1.327 . S
C1049 H1072 0.950 . S
C1050 C1049 1.349 . S
C1050 C1062 1.349 . S
C1051 C1049 1.327 . S
C1051 C1067 1.429 . S
C1051 H1073 0.950 . S
C1052 H1048 0.949 . S
C1052 C1060 1.574 . S
C1052 C1068 1.368 . S
H1053 C1061 0.950 . S
H1054 C1059 0.950 . S
H1055 C1060 0.949 . S
H1056 C1062 0.950 . S
H1057 C1063 0.950 . S
H1058 C1064 0.949 . S
C1059 H1054 0.950 . S
C1059 C1061 1.359 . S
C1059 C1065 1.398 1_545 S
C1060 C1052 1.574 . S
C1060 H1055 0.949 . S
C1060 C1066 1.368 . S
C1061 C1045 1.352 1_545 S
C1061 H1053 0.950 . S
C1061 C1059 1.359 . S
C1062 C1050 1.349 . S
C1062 H1056 0.950 . S
C1062 C1063 1.327 . S
C1063 H1057 0.950 . S
C1063 C1062 1.327 . S
C1063 C1067 1.429 . S
C1064 C1047 1.574 . S
C1064 H1058 0.949 . S
C1064 C1068 1.368 . S
C1065 C1046 1.429 . S
C1065 C1059 1.398 1_565 S
C1065 C1066 1.523 . S
C1066 C1047 1.368 . S
C1066 C1060 1.368 . S
C1066 C1065 1.523 . S
C1067 C1051 1.429 . S
C1067 C1063 1.429 . S
C1067 C1068 1.523 . S
C1068 C1052 1.368 . S
C1068 C1064 1.368 . S
C1068 C1067 1.523 . S
H1069 C1044 0.950 . S
H1070 C1046 0.950 . S
H1071 C1047 0.949 . S
H1072 C1049 0.950 . S
H1073 C1051 0.950 . S
C1074 C1075 1.349 . S
C1074 C1076 1.327 . S
C1074 H1099 0.950 . S
C1075 C1074 1.349 . S
C1075 C1091 1.349 . S
C1076 C1074 1.327 . S
C1076 C1095 1.429 . S
C1076 H1100 0.950 . S
C1077 C1094 1.574 . S
C1077 C1096 1.368 . S
C1077 H1101 0.949 . S
H1078 C1082 0.949 . S
C1079 C1080 1.299 1_655 S
C1079 C1081 1.329 1_655 S
C1079 H1102 0.977 . S
C1080 C1079 1.299 1_455 S
C1080 C1092 1.375 . S
C1081 C1079 1.329 1_455 S
C1081 C1097 1.429 . S
C1081 H1103 0.950 . S
C1082 H1078 0.949 . S
C1082 C1090 1.574 . S
C1082 C1098 1.368 . S
H1083 C1091 0.950 . S
H1084 C1089 0.950 . S
H1085 C1090 0.949 . S
H1086 C1092 0.950 . S
H1087 C1093 0.950 . S
H1088 C1094 0.949 . S
C1089 H1084 0.950 . S
C1089 C1091 1.327 . S
C1089 C1095 1.429 . S
C1090 C1082 1.574 . S
C1090 H1085 0.949 . S
C1090 C1096 1.368 . S
C1091 C1075 1.349 . S
C1091 H1083 0.950 . S
C1091 C1089 1.327 . S
C1092 C1080 1.375 . S
C1092 H1086 0.950 . S
C1092 C1093 1.327 . S
C1093 H1087 0.950 . S
C1093 C1092 1.327 . S
C1093 C1097 1.429 . S
C1094 C1077 1.574 . S
C1094 H1088 0.949 . S
C1094 C1098 1.368 . S
C1095 C1076 1.429 . S
C1095 C1089 1.429 . S
C1095 C1096 1.523 . S
C1096 C1077 1.368 . S
C1096 C1090 1.368 . S
C1096 C1095 1.523 . S
C1097 C1081 1.429 . S
C1097 C1093 1.429 . S
C1097 C1098 1.523 . S
C1098 C1082 1.368 . S
C1098 C1094 1.368 . S
C1098 C1097 1.523 . S
H1099 C1074 0.950 . S
H1100 C1076 0.950 . S
H1101 C1077 0.949 . S
H1102 C1079 0.977 . S
H1103 C1081 0.950 . S
C1104 C1105 1.349 . S
C1104 C1106 1.327 . S
C1104 H1129 0.950 . S
C1105 C1104 1.349 . S
C1105 C1121 1.349 . S
C1106 C1104 1.327 . S
C1106 C1125 1.429 . S
C1106 H1130 0.950 . S
C1107 C1124 1.574 . S
C1107 C1126 1.368 . S
C1107 H1131 0.949 . S
H1108 C1112 0.949 . S
C1109 C1110 1.349 . S
C1109 C1111 1.327 . S
C1109 H1132 0.950 . S
C1110 C1109 1.349 . S
C1110 C1122 1.349 . S
C1111 C1109 1.327 . S
C1111 C1127 1.429 . S
C1111 H1133 0.950 . S
C1112 H1108 0.949 . S
C1112 C1120 1.574 . S
C1112 C1128 1.368 . S
H1113 C1121 0.950 . S
H1114 C1119 0.950 . S
H1115 C1120 0.949 . S
H1116 C1122 0.950 . S
H1117 C1123 0.950 . S
H1118 C1124 0.949 . S
C1119 H1114 0.950 . S
C1119 C1121 1.327 . S
C1119 C1125 1.429 . S
C1120 C1112 1.574 . S
C1120 H1115 0.949 . S
C1120 C1126 1.368 . S
C1121 C1105 1.349 . S
C1121 H1113 0.950 . S
C1121 C1119 1.327 . S
C1122 C1110 1.349 . S
C1122 H1116 0.950 . S
C1122 C1123 1.327 . S
C1123 H1117 0.950 . S
C1123 C1122 1.327 . S
C1123 C1127 1.429 . S
C1124 C1107 1.574 . S
C1124 H1118 0.949 . S
C1124 C1128 1.368 . S
C1125 C1106 1.429 . S
C1125 C1119 1.429 . S
C1125 C1126 1.523 . S
C1126 C1107 1.368 . S
C1126 C1120 1.368 . S
C1126 C1125 1.523 . S
C1127 C1111 1.429 . S
C1127 C1123 1.429 . S
C1127 C1128 1.523 . S
C1128 C1112 1.368 . S
C1128 C1124 1.368 . S
C1128 C1127 1.523 . S
H1129 C1104 0.950 . S
H1130 C1106 0.950 . S
H1131 C1107 0.949 . S
H1132 C1109 0.950 . S
H1133 C1111 0.950 . S
C1134 C1135 1.349 . S
C1134 C1136 1.327 . S
C1134 H1159 0.950 . S
C1135 C1134 1.349 . S
C1135 C1151 1.349 . S
C1136 C1134 1.327 . S
C1136 C1155 1.429 . S
C1136 H1160 0.950 . S
C1137 C1154 1.574 . S
C1137 C1156 1.368 . S
C1137 H1161 0.949 . S
H1138 C1142 0.949 . S
C1139 C1140 1.339 1_455 S
C1139 C1141 1.339 . S
C1139 H1162 0.950 . S
C1140 C1139 1.339 1_655 S
C1140 C1152 1.389 . S
C1141 C1139 1.339 . S
C1141 C1157 1.412 1_455 S
C1141 H1163 0.955 . S
C1142 H1138 0.949 . S
C1142 C1150 1.574 . S
C1142 C1158 1.368 . S
H1143 C1151 0.950 . S
H1144 C1149 0.950 . S
H1145 C1150 0.949 . S
H1146 C1152 0.950 . S
H1147 C1153 0.950 . S
H1148 C1154 0.949 . S
C1149 H1144 0.950 . S
C1149 C1151 1.327 . S
C1149 C1155 1.429 . S
C1150 C1142 1.574 . S
C1150 H1145 0.949 . S
C1150 C1156 1.368 . S
C1151 C1135 1.349 . S
C1151 H1143 0.950 . S
C1151 C1149 1.327 . S
C1152 C1140 1.389 . S
C1152 H1146 0.950 . S
C1152 C1153 1.327 . S
C1153 H1147 0.950 . S
C1153 C1152 1.327 . S
C1153 C1157 1.429 . S
C1154 C1137 1.574 . S
C1154 H1148 0.949 . S
C1154 C1158 1.368 . S
C1155 C1136 1.429 . S
C1155 C1149 1.429 . S
C1155 C1156 1.523 . S
C1156 C1137 1.368 . S
C1156 C1150 1.368 . S
C1156 C1155 1.523 . S
C1157 C1141 1.412 1_655 S
C1157 C1153 1.429 . S
C1157 C1158 1.523 . S
C1158 C1142 1.368 . S
C1158 C1154 1.368 . S
C1158 C1157 1.523 . S
H1159 C1134 0.950 . S
H1160 C1136 0.950 . S
H1161 C1137 0.949 . S
H1162 C1139 0.950 . S
H1163 C1141 0.955 . S
C1164 C1165 1.349 . S
C1164 C1166 1.327 . S
C1164 H1189 0.950 . S
C1165 C1164 1.349 . S
C1165 C1181 1.349 . S
C1166 C1164 1.327 . S
C1166 C1185 1.429 . S
C1166 H1190 0.950 . S
C1167 C1184 1.574 . S
C1167 C1186 1.368 . S
C1167 H1191 0.949 . S
H1168 C1172 0.949 . S
C1169 C1170 1.349 . S
C1169 C1171 1.327 . S
C1169 H1192 0.950 . S
C1170 C1169 1.349 . S
C1170 C1182 1.349 . S
C1171 C1169 1.327 . S
C1171 C1187 1.429 . S
C1171 H1193 0.950 . S
C1172 H1168 0.949 . S
C1172 C1180 1.574 . S
C1172 C1188 1.368 . S
H1173 C1181 0.950 . S
H1174 C1179 0.950 . S
H1175 C1180 0.949 . S
H1176 C1182 0.950 . S
H1177 C1183 0.950 . S
H1178 C1184 0.949 . S
C1179 H1174 0.950 . S
C1179 C1181 1.327 . S
C1179 C1185 1.429 . S
C1180 C1172 1.574 . S
C1180 H1175 0.949 . S
C1180 C1186 1.368 . S
C1181 C1165 1.349 . S
C1181 H1173 0.950 . S
C1181 C1179 1.327 . S
C1182 C1170 1.349 . S
C1182 H1176 0.950 . S
C1182 C1183 1.327 . S
C1183 H1177 0.950 . S
C1183 C1182 1.327 . S
C1183 C1187 1.429 . S
C1184 C1167 1.574 . S
C1184 H1178 0.949 . S
C1184 C1188 1.368 . S
C1185 C1166 1.429 . S
C1185 C1179 1.429 . S
C1185 C1186 1.523 . S
C1186 C1167 1.368 . S
C1186 C1180 1.368 . S
C1186 C1185 1.523 . S
C1187 C1171 1.429 . S
C1187 C1183 1.429 . S
C1187 C1188 1.523 . S
C1188 C1172 1.368 . S
C1188 C1184 1.368 . S
C1188 C1187 1.523 . S
H1189 C1164 0.950 . S
H1190 C1166 0.950 . S
H1191 C1167 0.949 . S
H1192 C1169 0.950 . S
H1193 C1171 0.950 . S
C1194 C1195 1.349 . S
C1194 C1196 1.327 . S
C1194 H1219 0.950 . S
C1195 C1194 1.349 . S
C1195 C1211 1.349 . S
C1196 C1194 1.327 . S
C1196 C1215 1.429 . S
C1196 H1220 0.950 . S
C1197 C1214 1.574 . S
C1197 C1216 1.368 . S
C1197 H1221 0.949 . S
H1198 C1202 0.949 . S
C1199 C1200 1.367 . S
C1199 C1201 1.327 . S
C1199 H1222 0.950 . S
C1200 C1199 1.367 . S
C1200 C1212 1.332 . S
C1201 C1199 1.327 . S
C1201 C1217 1.429 . S
C1201 H1223 0.950 . S
C1202 H1198 0.949 . S
C1202 C1210 1.574 . S
C1202 C1218 1.368 . S
H1203 C1211 0.950 . S
H1204 C1209 0.950 . S
H1205 C1210 0.949 . S
H1206 C1212 0.950 1_565 S
H1207 C1213 0.950 . S
H1208 C1214 0.949 . S
C1209 H1204 0.950 . S
C1209 C1211 1.327 . S
C1209 C1215 1.429 . S
C1210 C1202 1.574 . S
C1210 H1205 0.949 . S
C1210 C1216 1.368 . S
C1211 C1195 1.349 . S
C1211 H1203 0.950 . S
C1211 C1209 1.327 . S
C1212 C1200 1.332 . S
C1212 H1206 0.950 1_545 S
C1212 C1213 1.327 . S
C1213 H1207 0.950 . S
C1213 C1212 1.327 . S
C1213 C1217 1.429 . S
C1214 C1197 1.574 . S
C1214 H1208 0.949 . S
C1214 C1218 1.368 . S
C1215 C1196 1.429 . S
C1215 C1209 1.429 . S
C1215 C1216 1.523 . S
C1216 C1197 1.368 . S
C1216 C1210 1.368 . S
C1216 C1215 1.523 . S
C1217 C1201 1.429 . S
C1217 C1213 1.429 . S
C1217 C1218 1.523 . S
C1218 C1202 1.368 . S
C1218 C1214 1.368 . S
C1218 C1217 1.523 . S
H1219 C1194 0.950 . S
H1220 C1196 0.950 . S
H1221 C1197 0.949 . S
H1222 C1199 0.950 . S
H1223 C1201 0.950 . S
C1224 C1225 1.343 1_565 S
C1224 C1226 1.327 1_565 S
C1224 H1249 0.950 . S
C1225 C1224 1.343 1_545 S
C1225 C1241 1.386 . S
C1226 C1224 1.327 1_545 S
C1226 C1245 1.429 . S
C1226 H1250 0.950 . S
C1227 C1244 1.574 . S
C1227 C1246 1.368 . S
C1227 H1251 0.949 . S
H1228 C1232 0.949 . S
C1229 C1230 1.349 . S
C1229 C1231 1.327 . S
C1229 H1252 0.950 . S
C1230 C1229 1.349 . S
C1230 C1242 1.349 . S
C1231 C1229 1.327 . S
C1231 C1247 1.429 . S
C1231 H1253 0.950 . S
C1232 H1228 0.949 . S
C1232 C1240 1.574 . S
C1232 C1248 1.368 . S
H1233 C1241 0.950 . S
H1234 C1239 0.950 . S
H1235 C1240 0.949 . S
H1236 C1242 0.950 . S
H1237 C1243 0.950 . S
H1238 C1244 0.949 . S
C1239 H1234 0.950 . S
C1239 C1241 1.327 . S
C1239 C1245 1.429 . S
C1240 C1232 1.574 . S
C1240 H1235 0.949 . S
C1240 C1246 1.368 . S
C1241 C1225 1.386 . S
C1241 H1233 0.950 . S
C1241 C1239 1.327 . S
C1242 C1230 1.349 . S
C1242 H1236 0.950 . S
C1242 C1243 1.327 . S
C1243 H1237 0.950 . S
C1243 C1242 1.327 . S
C1243 C1247 1.429 . S
C1244 C1227 1.574 . S
C1244 H1238 0.949 . S
C1244 C1248 1.368 . S
C1245 C1226 1.429 . S
C1245 C1239 1.429 . S
C1245 C1246 1.523 . S
C1246 C1227 1.368 . S
C1246 C1240 1.368 . S
C1246 C1245 1.523 . S
C1247 C1231 1.429 . S
C1247 C1243 1.429 . S
C1247 C1248 1.523 . S
C1248 C1232 1.368 . S
C1248 C1244 1.368 . S
C1248 C1247 1.523 . S
H1249 C1224 0.950 . S
H1250 C1226 0.950 . S
H1251 C1227 0.949 . S
H1252 C1229 0.950 . S
H1253 C1231 0.950 . S
C1254 C1255 1.349 . S
C1254 C1256 1.327 . S
C1254 H1279 0.950 . S
C1255 C1254 1.349 . S
C1255 C1271 1.349 . S
C1256 C1254 1.327 . S
C1256 C1275 1.429 . S
C1256 H1280 0.950 . S
C1257 C1274 1.574 . S
C1257 C1276 1.368 . S
C1257 H1281 0.949 . S
H1258 C1262 0.949 . S
C1259 C1260 1.327 1_455 S
C1259 C1261 1.327 1_455 S
C1259 H1282 0.950 . S
C1260 C1259 1.327 1_655 S
C1260 C1272 1.372 . S
C1261 C1259 1.327 1_655 S
C1261 C1277 1.432 . S
C1261 H1283 0.946 1_655 S
C1262 H1258 0.949 . S
C1262 C1270 1.574 . S
C1262 C1278 1.368 . S
H1263 C1271 0.950 . S
H1264 C1269 0.950 . S
H1265 C1270 0.949 . S
H1266 C1272 0.950 . S
H1267 C1273 0.950 . S
H1268 C1274 0.949 . S
C1269 H1264 0.950 . S
C1269 C1271 1.327 . S
C1269 C1275 1.429 . S
C1270 C1262 1.574 . S
C1270 H1265 0.949 . S
C1270 C1276 1.368 . S
C1271 C1255 1.349 . S
C1271 H1263 0.950 . S
C1271 C1269 1.327 . S
C1272 C1260 1.372 . S
C1272 H1266 0.950 . S
C1272 C1273 1.327 . S
C1273 H1267 0.950 . S
C1273 C1272 1.327 . S
C1273 C1277 1.429 . S
C1274 C1257 1.574 . S
C1274 H1268 0.949 . S
C1274 C1278 1.368 . S
C1275 C1256 1.429 . S
C1275 C1269 1.429 . S
C1275 C1276 1.523 . S
C1276 C1257 1.368 . S
C1276 C1270 1.368 . S
C1276 C1275 1.523 . S
C1277 C1261 1.432 . S
C1277 C1273 1.429 . S
C1277 C1278 1.523 . S
C1278 C1262 1.368 . S
C1278 C1274 1.368 . S
C1278 C1277 1.523 . S
H1279 C1254 0.950 . S
H1280 C1256 0.950 . S
H1281 C1257 0.949 . S
H1282 C1259 0.950 . S
H1283 C1261 0.946 1_455 S
C1284 C1285 1.349 . S
C1284 C1286 1.327 . S
C1284 H1309 0.950 . S
C1285 C1284 1.349 . S
C1285 C1301 1.349 . S
C1286 C1284 1.327 . S
C1286 C1305 1.429 . S
C1286 H1310 0.950 . S
C1287 C1304 1.574 . S
C1287 C1306 1.368 . S
C1287 H1311 0.949 . S
H1288 C1292 0.949 . S
C1289 C1290 1.349 . S
C1289 C1291 1.327 . S
C1289 H1312 0.950 . S
C1290 C1289 1.349 . S
C1290 C1302 1.349 . S
C1291 C1289 1.327 . S
C1291 C1307 1.429 . S
C1291 H1313 0.950 . S
C1292 H1288 0.949 . S
C1292 C1300 1.574 . S
C1292 C1308 1.368 . S
H1293 C1301 0.950 . S
H1294 C1299 0.950 . S
H1295 C1300 0.949 . S
H1296 C1302 0.950 . S
H1297 C1303 0.950 . S
H1298 C1304 0.949 . S
C1299 H1294 0.950 . S
C1299 C1301 1.327 . S
C1299 C1305 1.429 . S
C1300 C1292 1.574 . S
C1300 H1295 0.949 . S
C1300 C1306 1.368 . S
C1301 C1285 1.349 . S
C1301 H1293 0.950 . S
C1301 C1299 1.327 . S
C1302 C1290 1.349 . S
C1302 H1296 0.950 . S
C1302 C1303 1.327 . S
C1303 H1297 0.950 . S
C1303 C1302 1.327 . S
C1303 C1307 1.429 . S
C1304 C1287 1.574 . S
C1304 H1298 0.949 . S
C1304 C1308 1.368 . S
C1305 C1286 1.429 . S
C1305 C1299 1.429 . S
C1305 C1306 1.523 . S
C1306 C1287 1.368 . S
C1306 C1300 1.368 . S
C1306 C1305 1.523 . S
C1307 C1291 1.429 . S
C1307 C1303 1.429 . S
C1307 C1308 1.523 . S
C1308 C1292 1.368 . S
C1308 C1304 1.368 . S
C1308 C1307 1.523 . S
H1309 C1284 0.950 . S
H1310 C1286 0.950 . S
H1311 C1287 0.949 . S
H1312 C1289 0.950 . S
H1313 C1291 0.950 . S
C1314 C1315 1.381 . S
C1314 C1316 1.327 . S
C1314 H1339 0.950 . S
C1315 C1314 1.381 . S
C1315 C1331 1.348 1_455 S
C1316 C1314 1.327 . S
C1316 C1335 1.429 . S
C1316 H1340 0.950 . S
C1317 C1334 1.574 . S
C1317 C1336 1.368 . S
C1317 H1341 0.949 . S
H1318 C1322 0.949 . S
C1319 C1320 1.349 . S
C1319 C1321 1.327 . S
C1319 H1342 0.950 . S
C1320 C1319 1.349 . S
C1320 C1332 1.349 . S
C1321 C1319 1.327 . S
C1321 C1337 1.429 . S
C1321 H1343 0.950 . S
C1322 H1318 0.949 . S
C1322 C1330 1.574 . S
C1322 C1338 1.368 . S
H1323 C1331 0.950 . S
H1324 C1329 0.950 . S
H1325 C1330 0.949 . S
H1326 C1332 0.950 . S
H1327 C1333 0.950 . S
H1328 C1334 0.949 . S
C1329 H1324 0.950 . S
C1329 C1331 1.327 . S
C1329 C1335 1.429 1_655 S
C1330 C1322 1.574 . S
C1330 H1325 0.949 . S
C1330 C1336 1.368 . S
C1331 C1315 1.348 1_655 S
C1331 H1323 0.950 . S
C1331 C1329 1.327 . S
C1332 C1320 1.349 . S
C1332 H1326 0.950 . S
C1332 C1333 1.327 . S
C1333 H1327 0.950 . S
C1333 C1332 1.327 . S
C1333 C1337 1.429 . S
C1334 C1317 1.574 . S
C1334 H1328 0.949 . S
C1334 C1338 1.368 . S
C1335 C1316 1.429 . S
C1335 C1329 1.429 1_455 S
C1335 C1336 1.523 . S
C1336 C1317 1.368 . S
C1336 C1330 1.368 . S
C1336 C1335 1.523 . S
C1337 C1321 1.429 . S
C1337 C1333 1.429 . S
C1337 C1338 1.523 . S
C1338 C1322 1.368 . S
C1338 C1334 1.368 . S
C1338 C1337 1.523 . S
H1339 C1314 0.950 . S
H1340 C1316 0.950 . S
H1341 C1317 0.949 . S
H1342 C1319 0.950 . S
H1343 C1321 0.950 . S
C1344 C1345 1.349 . S
C1344 C1346 1.327 . S
C1344 H1369 0.950 . S
C1345 C1344 1.349 . S
C1345 C1361 1.349 . S
C1346 C1344 1.327 . S
C1346 C1365 1.429 . S
C1346 H1370 0.950 . S
C1347 C1364 1.574 . S
C1347 C1366 1.368 . S
C1347 H1371 0.949 . S
H1348 C1352 0.949 . S
C1349 C1350 1.349 . S
C1349 C1351 1.327 . S
C1349 H1372 0.950 . S
C1350 C1349 1.349 . S
C1350 C1362 1.349 . S
C1351 C1349 1.327 . S
C1351 C1367 1.429 . S
C1351 H1373 0.950 . S
C1352 H1348 0.949 . S
C1352 C1360 1.574 . S
C1352 C1368 1.368 . S
H1353 C1361 0.950 . S
H1354 C1359 0.950 . S
H1355 C1360 0.949 . S
H1356 C1362 0.950 . S
H1357 C1363 0.950 . S
H1358 C1364 0.949 . S
C1359 H1354 0.950 . S
C1359 C1361 1.327 . S
C1359 C1365 1.429 . S
C1360 C1352 1.574 . S
C1360 H1355 0.949 . S
C1360 C1366 1.368 . S
C1361 C1345 1.349 . S
C1361 H1353 0.950 . S
C1361 C1359 1.327 . S
C1362 C1350 1.349 . S
C1362 H1356 0.950 . S
C1362 C1363 1.327 . S
C1363 H1357 0.950 . S
C1363 C1362 1.327 . S
C1363 C1367 1.429 . S
C1364 C1347 1.574 . S
C1364 H1358 0.949 . S
C1364 C1368 1.368 . S
C1365 C1346 1.429 . S
C1365 C1359 1.429 . S
C1365 C1366 1.523 . S
C1366 C1347 1.368 . S
C1366 C1360 1.368 . S
C1366 C1365 1.523 . S
C1367 C1351 1.429 . S
C1367 C1363 1.429 . S
C1367 C1368 1.523 . S
C1368 C1352 1.368 . S
C1368 C1364 1.368 . S
C1368 C1367 1.523 . S
H1369 C1344 0.950 . S
H1370 C1346 0.950 . S
H1371 C1347 0.949 . S
H1372 C1349 0.950 . S
H1373 C1351 0.950 . S
C1374 C1375 1.328 . S
C1374 C1376 1.327 . S
C1374 H1399 0.950 1_565 S
C1375 C1374 1.328 . S
C1375 C1391 1.371 . S
C1376 C1374 1.327 . S
C1376 C1395 1.429 . S
C1376 H1400 0.950 . S
C1377 C1394 1.574 . S
C1377 C1396 1.368 . S
C1377 H1401 0.949 . S
H1378 C1382 0.949 . S
C1379 C1380 1.349 . S
C1379 C1381 1.327 . S
C1379 H1402 0.950 . S
C1380 C1379 1.349 . S
C1380 C1392 1.349 . S
C1381 C1379 1.327 . S
C1381 C1397 1.429 . S
C1381 H1403 0.950 . S
C1382 H1378 0.949 . S
C1382 C1390 1.574 . S
C1382 C1398 1.368 . S
H1383 C1391 0.950 . S
H1384 C1389 0.950 . S
H1385 C1390 0.949 . S
H1386 C1392 0.950 . S
H1387 C1393 0.950 . S
H1388 C1394 0.949 . S
C1389 H1384 0.950 . S
C1389 C1391 1.327 . S
C1389 C1395 1.429 . S
C1390 C1382 1.574 . S
C1390 H1385 0.949 . S
C1390 C1396 1.368 . S
C1391 C1375 1.371 . S
C1391 H1383 0.950 . S
C1391 C1389 1.327 . S
C1392 C1380 1.349 . S
C1392 H1386 0.950 . S
C1392 C1393 1.327 . S
C1393 H1387 0.950 . S
C1393 C1392 1.327 . S
C1393 C1397 1.429 . S
C1394 C1377 1.574 . S
C1394 H1388 0.949 . S
C1394 C1398 1.368 . S
C1395 C1376 1.429 . S
C1395 C1389 1.429 . S
C1395 C1396 1.523 . S
C1396 C1377 1.368 . S
C1396 C1390 1.368 . S
C1396 C1395 1.523 . S
C1397 C1381 1.429 . S
C1397 C1393 1.429 . S
C1397 C1398 1.523 . S
C1398 C1382 1.368 . S
C1398 C1394 1.368 . S
C1398 C1397 1.523 . S
H1399 C1374 0.950 1_545 S
H1400 C1376 0.950 . S
H1401 C1377 0.949 . S
H1402 C1379 0.950 . S
H1403 C1381 0.950 . S
C1404 C1405 1.349 . S
C1404 C1406 1.327 . S
C1404 H1429 0.950 . S
C1405 C1404 1.349 . S
C1405 C1421 1.349 . S
C1406 C1404 1.327 . S
C1406 C1425 1.429 . S
C1406 H1430 0.950 . S
C1407 C1424 1.574 . S
C1407 C1426 1.368 . S
C1407 H1431 0.949 . S
H1408 C1412 0.949 . S
C1409 C1410 1.349 . S
C1409 C1411 1.327 . S
C1409 H1432 0.950 . S
C1410 C1409 1.349 . S
C1410 C1422 1.349 . S
C1411 C1409 1.327 . S
C1411 C1427 1.429 . S
C1411 H1433 0.950 . S
C1412 H1408 0.949 . S
C1412 C1420 1.574 . S
C1412 C1428 1.368 . S
H1413 C1421 0.950 . S
H1414 C1419 0.950 . S
H1415 C1420 0.949 . S
H1416 C1422 0.950 . S
H1417 C1423 0.950 . S
H1418 C1424 0.949 . S
C1419 H1414 0.950 . S
C1419 C1421 1.327 . S
C1419 C1425 1.429 . S
C1420 C1412 1.574 . S
C1420 H1415 0.949 . S
C1420 C1426 1.368 . S
C1421 C1405 1.349 . S
C1421 H1413 0.950 . S
C1421 C1419 1.327 . S
C1422 C1410 1.349 . S
C1422 H1416 0.950 . S
C1422 C1423 1.327 . S
C1423 H1417 0.950 . S
C1423 C1422 1.327 . S
C1423 C1427 1.429 . S
C1424 C1407 1.574 . S
C1424 H1418 0.949 . S
C1424 C1428 1.368 . S
C1425 C1406 1.429 . S
C1425 C1419 1.429 . S
C1425 C1426 1.523 . S
C1426 C1407 1.368 . S
C1426 C1420 1.368 . S
C1426 C1425 1.523 . S
C1427 C1411 1.429 . S
C1427 C1423 1.429 . S
C1427 C1428 1.523 . S
C1428 C1412 1.368 . S
C1428 C1424 1.368 . S
C1428 C1427 1.523 . S
H1429 C1404 0.950 . S
H1430 C1406 0.950 . S
H1431 C1407 0.949 . S
H1432 C1409 0.950 . S
H1433 C1411 0.950 . S
C1434 C1435 1.349 . S
C1434 C1436 1.327 . S
C1434 H1459 0.950 . S
C1435 C1434 1.349 . S
C1435 C1451 1.349 . S
C1436 C1434 1.327 . S
C1436 C1455 1.429 . S
C1436 H1460 0.950 . S
C1437 C1454 1.571 . S
C1437 C1456 1.370 1_565 S
C1437 H1461 0.945 1_565 S
H1438 C1442 0.943 . S
C1439 C1440 1.349 . S
C1439 C1441 1.327 . S
C1439 H1462 0.950 . S
C1440 C1439 1.349 . S
C1440 C1452 1.349 . S
C1441 C1439 1.327 . S
C1441 C1457 1.429 . S
C1441 H1463 0.950 . S
C1442 H1438 0.943 . S
C1442 C1450 1.573 1_565 S
C1442 C1458 1.369 . S
H1443 C1451 0.950 . S
H1444 C1449 0.950 . S
H1445 C1450 0.949 . S
H1446 C1452 0.950 . S
H1447 C1453 0.950 . S
H1448 C1454 0.949 . S
C1449 H1444 0.950 . S
C1449 C1451 1.327 . S
C1449 C1455 1.429 . S
C1450 C1442 1.573 1_545 S
C1450 H1445 0.949 . S
C1450 C1456 1.368 . S
C1451 C1435 1.349 . S
C1451 H1443 0.950 . S
C1451 C1449 1.327 . S
C1452 C1440 1.349 . S
C1452 H1446 0.950 . S
C1452 C1453 1.327 . S
C1453 H1447 0.950 . S
C1453 C1452 1.327 . S
C1453 C1457 1.429 . S
C1454 C1437 1.571 . S
C1454 H1448 0.949 . S
C1454 C1458 1.368 . S
C1455 C1436 1.429 . S
C1455 C1449 1.429 . S
C1455 C1456 1.523 . S
C1456 C1437 1.370 1_545 S
C1456 C1450 1.368 . S
C1456 C1455 1.523 . S
C1457 C1441 1.429 . S
C1457 C1453 1.429 . S
C1457 C1458 1.523 . S
C1458 C1442 1.369 . S
C1458 C1454 1.368 . S
C1458 C1457 1.523 . S
H1459 C1434 0.950 . S
H1460 C1436 0.950 . S
H1461 C1437 0.945 1_545 S
H1462 C1439 0.950 . S
H1463 C1441 0.950 . S
C1464 C1465 1.349 . S
C1464 C1466 1.327 . S
C1464 H1489 0.950 . S
C1465 C1464 1.349 . S
C1465 C1481 1.349 . S
C1466 C1464 1.327 . S
C1466 C1485 1.429 . S
C1466 H1490 0.950 . S
C1467 C1484 1.560 1_655 S
C1467 C1486 1.377 . S
C1467 H1491 0.954 . S
H1468 C1472 0.952 . S
C1469 C1470 1.349 . S
C1469 C1471 1.327 . S
C1469 H1492 0.950 . S
C1470 C1469 1.349 . S
C1470 C1482 1.349 . S
C1471 C1469 1.327 . S
C1471 C1487 1.429 . S
C1471 H1493 0.950 . S
C1472 H1468 0.952 . S
C1472 C1480 1.566 1_455 S
C1472 C1488 1.373 . S
H1473 C1481 0.950 . S
H1474 C1479 0.950 . S
H1475 C1480 0.949 . S
H1476 C1482 0.950 . S
H1477 C1483 0.950 . S
H1478 C1484 0.949 . S
C1479 H1474 0.950 . S
C1479 C1481 1.327 . S
C1479 C1485 1.429 . S
C1480 C1472 1.566 1_655 S
C1480 H1475 0.949 . S
C1480 C1486 1.368 . S
C1481 C1465 1.349 . S
C1481 H1473 0.950 . S
C1481 C1479 1.327 . S
C1482 C1470 1.349 . S
C1482 H1476 0.950 . S
C1482 C1483 1.327 . S
C1483 H1477 0.950 . S
C1483 C1482 1.327 . S
C1483 C1487 1.429 . S
C1484 C1467 1.560 1_455 S
C1484 H1478 0.949 . S
C1484 C1488 1.368 . S
C1485 C1466 1.429 . S
C1485 C1479 1.429 . S
C1485 C1486 1.523 . S
C1486 C1467 1.377 . S
C1486 C1480 1.368 . S
C1486 C1485 1.523 . S
C1487 C1471 1.429 . S
C1487 C1483 1.429 . S
C1487 C1488 1.523 . S
C1488 C1472 1.373 . S
C1488 C1484 1.368 . S
C1488 C1487 1.523 . S
H1489 C1464 0.950 . S
H1490 C1466 0.950 . S
H1491 C1467 0.954 . S
H1492 C1469 0.950 . S
H1493 C1471 0.950 . S
C1494 C1495 1.349 . S
C1494 C1496 1.327 . S
C1494 H1519 0.950 . S
C1495 C1494 1.349 . S
C1495 C1511 1.349 . S
C1496 C1494 1.327 . S
C1496 C1515 1.429 . S
C1496 H1520 0.950 . S
C1497 C1514 1.574 . S
C1497 C1516 1.368 . S
C1497 H1521 0.949 . S
H1498 C1502 0.949 . S
C1499 C1500 1.349 . S
C1499 C1501 1.327 . S
C1499 H1522 0.950 . S
C1500 C1499 1.349 . S
C1500 C1512 1.349 . S
C1501 C1499 1.327 . S
C1501 C1517 1.429 . S
C1501 H1523 0.950 . S
C1502 H1498 0.949 . S
C1502 C1510 1.574 . S
C1502 C1518 1.368 . S
H1503 C1511 0.950 . S
H1504 C1509 0.950 . S
H1505 C1510 0.949 . S
H1506 C1512 0.950 . S
H1507 C1513 0.950 . S
H1508 C1514 0.949 . S
C1509 H1504 0.950 . S
C1509 C1511 1.327 . S
C1509 C1515 1.429 . S
C1510 C1502 1.574 . S
C1510 H1505 0.949 . S
C1510 C1516 1.368 . S
C1511 C1495 1.349 . S
C1511 H1503 0.950 . S
C1511 C1509 1.327 . S
C1512 C1500 1.349 . S
C1512 H1506 0.950 . S
C1512 C1513 1.327 . S
C1513 H1507 0.950 . S
C1513 C1512 1.327 . S
C1513 C1517 1.429 . S
C1514 C1497 1.574 . S
C1514 H1508 0.949 . S
C1514 C1518 1.368 . S
C1515 C1496 1.429 . S
C1515 C1509 1.429 . S
C1515 C1516 1.523 . S
C1516 C1497 1.368 . S
C1516 C1510 1.368 . S
C1516 C1515 1.523 . S
C1517 C1501 1.429 . S
C1517 C1513 1.429 . S
C1517 C1518 1.523 . S
C1518 C1502 1.368 . S
C1518 C1514 1.368 . S
C1518 C1517 1.523 . S
H1519 C1494 0.950 . S
H1520 C1496 0.950 . S
H1521 C1497 0.949 . S
H1522 C1499 0.950 . S
H1523 C1501 0.950 . S
C1524 C1525 1.349 . S
C1524 C1526 1.327 . S
C1524 H1549 0.950 . S
C1525 C1524 1.349 . S
C1525 C1541 1.349 . S
C1526 C1524 1.327 . S
C1526 C1545 1.429 . S
C1526 H1550 0.950 . S
C1527 C1544 1.610 . S
C1527 C1546 1.368 . S
C1527 H1551 0.949 . S
H1528 C1532 0.949 . S
C1529 C1530 1.349 . S
C1529 C1531 1.327 . S
C1529 H1552 0.950 . S
C1530 C1529 1.349 . S
C1530 C1542 1.349 . S
C1531 C1529 1.327 . S
C1531 C1547 1.429 . S
C1531 H1553 0.950 . S
C1532 H1528 0.949 . S
C1532 C1540 1.574 . S
C1532 C1548 1.368 . S
H1533 C1541 0.950 . S
H1534 C1539 0.950 . S
H1535 C1540 0.949 . S
H1536 C1542 0.950 . S
H1537 C1543 0.950 . S
H1538 C1544 0.946 . S
C1539 H1534 0.950 . S
C1539 C1541 1.327 . S
C1539 C1545 1.429 . S
C1540 C1532 1.574 . S
C1540 H1535 0.949 . S
C1540 C1546 1.368 1_545 S
C1541 C1525 1.349 . S
C1541 H1533 0.950 . S
C1541 C1539 1.327 . S
C1542 C1530 1.349 . S
C1542 H1536 0.950 . S
C1542 C1543 1.327 . S
C1543 H1537 0.950 . S
C1543 C1542 1.327 . S
C1543 C1547 1.429 . S
C1544 C1527 1.610 . S
C1544 H1538 0.946 . S
C1544 C1548 1.338 1_565 S
C1545 C1526 1.429 . S
C1545 C1539 1.429 . S
C1545 C1546 1.523 . S
C1546 C1527 1.368 . S
C1546 C1540 1.368 1_565 S
C1546 C1545 1.523 . S
C1547 C1531 1.429 . S
C1547 C1543 1.429 . S
C1547 C1548 1.523 . S
C1548 C1532 1.368 . S
C1548 C1544 1.338 1_545 S
C1548 C1547 1.523 . S
H1549 C1524 0.950 . S
H1550 C1526 0.950 . S
H1551 C1527 0.949 . S
H1552 C1529 0.950 . S
H1553 C1531 0.950 . S
C1554 C1555 1.349 . S
C1554 C1556 1.327 . S
C1554 H1579 0.950 . S
C1555 C1554 1.349 . S
C1555 C1571 1.349 . S
C1556 C1554 1.327 . S
C1556 C1575 1.429 . S
C1556 H1580 0.950 . S
C1557 C1574 1.598 . S
C1557 C1576 1.339 1_455 S
C1557 H1581 0.950 . S
H1558 C1562 0.950 . S
C1559 C1560 1.349 . S
C1559 C1561 1.327 . S
C1559 H1582 0.950 . S
C1560 C1559 1.349 . S
C1560 C1572 1.349 . S
C1561 C1559 1.327 . S
C1561 C1577 1.429 . S
C1561 H1583 0.950 . S
C1562 H1558 0.950 . S
C1562 C1570 1.592 . S
C1562 C1578 1.346 1_655 S
H1563 C1571 0.950 . S
H1564 C1569 0.950 . S
H1565 C1570 0.949 . S
H1566 C1572 0.950 . S
H1567 C1573 0.950 . S
H1568 C1574 0.949 . S
C1569 H1564 0.950 . S
C1569 C1571 1.327 . S
C1569 C1575 1.429 . S
C1570 C1562 1.592 . S
C1570 H1565 0.949 . S
C1570 C1576 1.368 . S
C1571 C1555 1.349 . S
C1571 H1563 0.950 . S
C1571 C1569 1.327 . S
C1572 C1560 1.349 . S
C1572 H1566 0.950 . S
C1572 C1573 1.327 . S
C1573 H1567 0.950 . S
C1573 C1572 1.327 . S
C1573 C1577 1.429 . S
C1574 C1557 1.598 . S
C1574 H1568 0.949 . S
C1574 C1578 1.368 . S
C1575 C1556 1.429 . S
C1575 C1569 1.429 . S
C1575 C1576 1.523 . S
C1576 C1557 1.339 1_655 S
C1576 C1570 1.368 . S
C1576 C1575 1.523 . S
C1577 C1561 1.429 . S
C1577 C1573 1.429 . S
C1577 C1578 1.523 . S
C1578 C1562 1.346 1_455 S
C1578 C1574 1.368 . S
C1578 C1577 1.523 . S
H1579 C1554 0.950 . S
H1580 C1556 0.950 . S
H1581 C1557 0.950 . S
H1582 C1559 0.950 . S
H1583 C1561 0.950 . S
C1584 C1585 1.349 . S
C1584 C1586 1.327 . S
C1584 H1609 0.950 . S
C1585 C1584 1.349 . S
C1585 C1601 1.349 . S
C1586 C1584 1.327 . S
C1586 C1605 1.429 . S
C1586 H1610 0.950 . S
C1587 C1604 1.574 . S
C1587 C1606 1.368 . S
C1587 H1611 0.949 . S
H1588 C1592 0.949 . S
C1589 C1590 1.349 . S
C1589 C1591 1.327 . S
C1589 H1612 0.950 . S
C1590 C1589 1.349 . S
C1590 C1602 1.349 . S
C1591 C1589 1.327 . S
C1591 C1607 1.429 . S
C1591 H1613 0.950 . S
C1592 H1588 0.949 . S
C1592 C1600 1.574 . S
C1592 C1608 1.368 . S
H1593 C1601 0.950 . S
H1594 C1599 0.950 . S
H1595 C1600 0.949 . S
H1596 C1602 0.950 . S
H1597 C1603 0.950 . S
H1598 C1604 0.949 . S
C1599 H1594 0.950 . S
C1599 C1601 1.327 . S
C1599 C1605 1.429 . S
C1600 C1592 1.574 . S
C1600 H1595 0.949 . S
C1600 C1606 1.368 . S
C1601 C1585 1.349 . S
C1601 H1593 0.950 . S
C1601 C1599 1.327 . S
C1602 C1590 1.349 . S
C1602 H1596 0.950 . S
C1602 C1603 1.327 . S
C1603 H1597 0.950 . S
C1603 C1602 1.327 . S
C1603 C1607 1.429 . S
C1604 C1587 1.574 . S
C1604 H1598 0.949 . S
C1604 C1608 1.368 . S
C1605 C1586 1.429 . S
C1605 C1599 1.429 . S
C1605 C1606 1.523 . S
C1606 C1587 1.368 . S
C1606 C1600 1.368 . S
C1606 C1605 1.523 . S
C1607 C1591 1.429 . S
C1607 C1603 1.429 . S
C1607 C1608 1.523 . S
C1608 C1592 1.368 . S
C1608 C1604 1.368 . S
C1608 C1607 1.523 . S
H1609 C1584 0.950 . S
H1610 C1586 0.950 . S
H1611 C1587 0.949 . S
H1612 C1589 0.950 . S
H1613 C1591 0.950 . S
C1614 C1615 1.349 . S
C1614 C1616 1.327 . S
C1614 H1639 0.950 . S
C1615 C1614 1.349 . S
C1615 C1631 1.349 . S
C1616 C1614 1.327 . S
C1616 C1635 1.429 . S
C1616 H1640 0.950 . S
C1617 C1634 1.574 . S
C1617 C1636 1.368 1_565 S
C1617 H1641 0.949 1_565 S
H1618 C1622 0.949 . S
C1619 C1620 1.349 . S
C1619 C1621 1.327 . S
C1619 H1642 0.950 . S
C1620 C1619 1.349 . S
C1620 C1632 1.349 . S
C1621 C1619 1.327 . S
C1621 C1637 1.429 . S
C1621 H1643 0.950 . S
C1622 H1618 0.949 . S
C1622 C1630 1.574 . S
C1622 C1638 1.368 . S
H1623 C1631 0.950 . S
H1624 C1629 0.950 . S
H1625 C1630 0.914 1_545 S
H1626 C1632 0.950 . S
H1627 C1633 0.950 . S
H1628 C1634 0.949 . S
C1629 H1624 0.950 . S
C1629 C1631 1.327 . S
C1629 C1635 1.429 . S
C1630 C1622 1.574 . S
C1630 H1625 0.914 1_565 S
C1630 C1636 1.368 1_565 S
C1631 C1615 1.349 . S
C1631 H1623 0.950 . S
C1631 C1629 1.327 . S
C1632 C1620 1.349 . S
C1632 H1626 0.950 . S
C1632 C1633 1.327 . S
C1633 H1627 0.950 . S
C1633 C1632 1.327 . S
C1633 C1637 1.429 . S
C1634 C1617 1.574 . S
C1634 H1628 0.949 . S
C1634 C1638 1.368 . S
C1635 C1616 1.429 . S
C1635 C1629 1.429 . S
C1635 C1636 1.523 . S
C1636 C1617 1.368 1_545 S
C1636 C1630 1.368 1_545 S
C1636 C1635 1.523 . S
C1637 C1621 1.429 . S
C1637 C1633 1.429 . S
C1637 C1638 1.523 . S
C1638 C1622 1.368 . S
C1638 C1634 1.368 . S
C1638 C1637 1.523 . S
H1639 C1614 0.950 . S
H1640 C1616 0.950 . S
H1641 C1617 0.949 1_545 S
H1642 C1619 0.950 . S
H1643 C1621 0.950 . S
C1644 C1645 1.349 . S
C1644 C1646 1.327 . S
C1644 H1669 0.950 . S
C1645 C1644 1.349 . S
C1645 C1661 1.349 . S
C1646 C1644 1.327 . S
C1646 C1665 1.429 . S
C1646 H1670 0.950 . S
C1647 C1664 1.574 . S
C1647 C1666 1.368 1_455 S
C1647 H1671 0.949 1_455 S
H1648 C1652 0.949 . S
C1649 C1650 1.349 . S
C1649 C1651 1.327 . S
C1649 H1672 0.950 . S
C1650 C1649 1.349 . S
C1650 C1662 1.349 . S
C1651 C1649 1.327 . S
C1651 C1667 1.429 . S
C1651 H1673 0.950 . S
C1652 H1648 0.949 . S
C1652 C1660 1.574 . S
C1652 C1668 1.368 . S
H1653 C1661 0.950 . S
H1654 C1659 0.950 . S
H1655 C1660 0.949 1_655 S
H1656 C1662 0.950 . S
H1657 C1663 0.950 . S
H1658 C1664 0.949 . S
C1659 H1654 0.950 . S
C1659 C1661 1.327 . S
C1659 C1665 1.429 . S
C1660 C1652 1.574 . S
C1660 H1655 0.949 1_455 S
C1660 C1666 1.368 1_455 S
C1661 C1645 1.349 . S
C1661 H1653 0.950 . S
C1661 C1659 1.327 . S
C1662 C1650 1.349 . S
C1662 H1656 0.950 . S
C1662 C1663 1.327 . S
C1663 H1657 0.950 . S
C1663 C1662 1.327 . S
C1663 C1667 1.429 . S
C1664 C1647 1.574 . S
C1664 H1658 0.949 . S
C1664 C1668 1.368 . S
C1665 C1646 1.429 . S
C1665 C1659 1.429 . S
C1665 C1666 1.523 . S
C1666 C1647 1.368 1_655 S
C1666 C1660 1.368 1_655 S
C1666 C1665 1.523 . S
C1667 C1651 1.429 . S
C1667 C1663 1.429 . S
C1667 C1668 1.523 . S
C1668 C1652 1.368 . S
C1668 C1664 1.368 . S
C1668 C1667 1.523 . S
H1669 C1644 0.950 . S
H1670 C1646 0.950 . S
H1671 C1647 0.949 1_655 S
H1672 C1649 0.950 . S
H1673 C1651 0.950 . S
C1674 C1675 1.349 . S
C1674 C1676 1.327 . S
C1674 H1699 0.950 . S
C1675 C1674 1.349 . S
C1675 C1691 1.349 . S
C1676 C1674 1.327 . S
C1676 C1695 1.429 . S
C1676 H1700 0.950 . S
C1677 C1694 1.574 . S
C1677 C1696 1.368 . S
C1677 H1701 0.949 . S
H1678 C1682 0.949 . S
C1679 C1680 1.349 . S
C1679 C1681 1.327 . S
C1679 H1702 0.950 . S
C1680 C1679 1.349 . S
C1680 C1692 1.349 . S
C1681 C1679 1.327 . S
C1681 C1697 1.429 . S
C1681 H1703 0.950 . S
C1682 H1678 0.949 . S
C1682 C1690 1.574 . S
C1682 C1698 1.368 . S
H1683 C1691 0.950 . S
H1684 C1689 0.950 . S
H1685 C1690 0.949 . S
H1686 C1692 0.950 . S
H1687 C1693 0.950 . S
H1688 C1694 0.949 . S
C1689 H1684 0.950 . S
C1689 C1691 1.327 . S
C1689 C1695 1.429 . S
C1690 C1682 1.574 . S
C1690 H1685 0.949 . S
C1690 C1696 1.368 . S
C1691 C1675 1.349 . S
C1691 H1683 0.950 . S
C1691 C1689 1.327 . S
C1692 C1680 1.349 . S
C1692 H1686 0.950 . S
C1692 C1693 1.327 . S
C1693 H1687 0.950 . S
C1693 C1692 1.327 . S
C1693 C1697 1.429 . S
C1694 C1677 1.574 . S
C1694 H1688 0.949 . S
C1694 C1698 1.368 . S
C1695 C1676 1.429 . S
C1695 C1689 1.429 . S
C1695 C1696 1.523 . S
C1696 C1677 1.368 . S
C1696 C1690 1.368 . S
C1696 C1695 1.523 . S
C1697 C1681 1.429 . S
C1697 C1693 1.429 . S
C1697 C1698 1.523 . S
C1698 C1682 1.368 . S
C1698 C1694 1.368 . S
C1698 C1697 1.523 . S
H1699 C1674 0.950 . S
H1700 C1676 0.950 . S
H1701 C1677 0.949 . S
H1702 C1679 0.950 . S
H1703 C1681 0.950 . S
C1704 C1705 1.349 . S
C1704 C1706 1.327 . S
C1704 H1729 0.950 . S
C1705 C1704 1.349 . S
C1705 C1721 1.349 . S
C1706 C1704 1.327 . S
C1706 C1725 1.429 . S
C1706 H1730 0.950 . S
C1707 C1724 1.574 . S
C1707 C1726 1.368 . S
C1707 H1731 0.949 . S
H1708 C1712 0.950 . S
C1709 C1710 1.349 . S
C1709 C1711 1.327 . S
C1709 H1732 0.950 . S
C1710 C1709 1.349 . S
C1710 C1722 1.349 . S
C1711 C1709 1.327 . S
C1711 C1727 1.429 . S
C1711 H1733 0.950 . S
C1712 H1708 0.950 . S
C1712 C1720 1.574 . S
C1712 C1728 1.368 1_545 S
H1713 C1721 0.950 . S
H1714 C1719 0.950 . S
H1715 C1720 0.949 . S
H1716 C1722 0.950 . S
H1717 C1723 0.950 . S
H1718 C1724 0.949 1_565 S
C1719 H1714 0.950 . S
C1719 C1721 1.327 . S
C1719 C1725 1.429 . S
C1720 C1712 1.574 . S
C1720 H1715 0.949 . S
C1720 C1726 1.368 . S
C1721 C1705 1.349 . S
C1721 H1713 0.950 . S
C1721 C1719 1.327 . S
C1722 C1710 1.349 . S
C1722 H1716 0.950 . S
C1722 C1723 1.327 . S
C1723 H1717 0.950 . S
C1723 C1722 1.327 . S
C1723 C1727 1.429 . S
C1724 C1707 1.574 . S
C1724 H1718 0.949 1_545 S
C1724 C1728 1.368 1_545 S
C1725 C1706 1.429 . S
C1725 C1719 1.429 . S
C1725 C1726 1.523 . S
C1726 C1707 1.368 . S
C1726 C1720 1.368 . S
C1726 C1725 1.523 . S
C1727 C1711 1.429 . S
C1727 C1723 1.429 . S
C1727 C1728 1.523 . S
C1728 C1712 1.368 1_565 S
C1728 C1724 1.368 1_565 S
C1728 C1727 1.523 . S
H1729 C1704 0.950 . S
H1730 C1706 0.950 . S
H1731 C1707 0.949 . S
H1732 C1709 0.950 . S
H1733 C1711 0.950 . S
C1734 C1735 1.349 . S
C1734 C1736 1.327 . S
C1734 H1759 0.950 . S
C1735 C1734 1.349 . S
C1735 C1751 1.349 . S
C1736 C1734 1.327 . S
C1736 C1755 1.429 . S
C1736 H1760 0.950 . S
C1737 C1754 1.574 . S
C1737 C1756 1.368 1_655 S
C1737 H1761 0.949 1_655 S
H1738 C1742 0.949 . S
C1739 C1740 1.349 . S
C1739 C1741 1.327 . S
C1739 H1762 0.950 . S
C1740 C1739 1.349 . S
C1740 C1752 1.349 . S
C1741 C1739 1.327 . S
C1741 C1757 1.429 . S
C1741 H1763 0.950 . S
C1742 H1738 0.949 . S
C1742 C1750 1.574 . S
C1742 C1758 1.368 . S
H1743 C1751 0.950 . S
H1744 C1749 0.950 . S
H1745 C1750 0.949 1_455 S
H1746 C1752 0.950 . S
H1747 C1753 0.950 . S
H1748 C1754 0.949 . S
C1749 H1744 0.950 . S
C1749 C1751 1.327 . S
C1749 C1755 1.429 . S
C1750 C1742 1.574 . S
C1750 H1745 0.949 1_655 S
C1750 C1756 1.368 1_655 S
C1751 C1735 1.349 . S
C1751 H1743 0.950 . S
C1751 C1749 1.327 . S
C1752 C1740 1.349 . S
C1752 H1746 0.950 . S
C1752 C1753 1.327 . S
C1753 H1747 0.950 . S
C1753 C1752 1.327 . S
C1753 C1757 1.429 . S
C1754 C1737 1.574 . S
C1754 H1748 0.949 . S
C1754 C1758 1.368 . S
C1755 C1736 1.429 . S
C1755 C1749 1.429 . S
C1755 C1756 1.523 . S
C1756 C1737 1.368 1_455 S
C1756 C1750 1.368 1_455 S
C1756 C1755 1.523 . S
C1757 C1741 1.429 . S
C1757 C1753 1.429 . S
C1757 C1758 1.523 . S
C1758 C1742 1.368 . S
C1758 C1754 1.368 . S
C1758 C1757 1.523 . S
H1759 C1734 0.950 . S
H1760 C1736 0.950 . S
H1761 C1737 0.949 1_455 S
H1762 C1739 0.950 . S
H1763 C1741 0.950 . S
C1764 C1765 1.349 . S
C1764 C1766 1.327 . S
C1764 H1789 0.950 . S
C1765 C1764 1.349 . S
C1765 C1781 1.349 . S
C1766 C1764 1.327 . S
C1766 C1785 1.429 . S
C1766 H1790 0.950 . S
C1767 C1784 1.574 . S
C1767 C1786 1.368 . S
C1767 H1791 0.949 . S
H1768 C1772 0.949 . S
C1769 C1770 1.349 . S
C1769 C1771 1.327 . S
C1769 H1792 0.950 . S
C1770 C1769 1.349 . S
C1770 C1782 1.349 . S
C1771 C1769 1.327 . S
C1771 C1787 1.429 . S
C1771 H1793 0.950 . S
C1772 H1768 0.949 . S
C1772 C1780 1.574 . S
C1772 C1788 1.368 . S
H1773 C1781 0.950 . S
H1774 C1779 0.950 . S
H1775 C1780 0.949 . S
H1776 C1782 0.950 . S
H1777 C1783 0.950 . S
H1778 C1784 0.949 . S
C1779 H1774 0.950 . S
C1779 C1781 1.327 . S
C1779 C1785 1.429 . S
C1780 C1772 1.574 . S
C1780 H1775 0.949 . S
C1780 C1786 1.368 . S
C1781 C1765 1.349 . S
C1781 H1773 0.950 . S
C1781 C1779 1.327 . S
C1782 C1770 1.349 . S
C1782 H1776 0.950 . S
C1782 C1783 1.327 . S
C1783 H1777 0.950 . S
C1783 C1782 1.327 . S
C1783 C1787 1.429 . S
C1784 C1767 1.574 . S
C1784 H1778 0.949 . S
C1784 C1788 1.368 . S
C1785 C1766 1.429 . S
C1785 C1779 1.429 . S
C1785 C1786 1.523 . S
C1786 C1767 1.368 . S
C1786 C1780 1.368 . S
C1786 C1785 1.523 . S
C1787 C1771 1.429 . S
C1787 C1783 1.429 . S
C1787 C1788 1.523 . S
C1788 C1772 1.368 . S
C1788 C1784 1.368 . S
C1788 C1787 1.523 . S
H1789 C1764 0.950 . S
H1790 C1766 0.950 . S
H1791 C1767 0.949 . S
H1792 C1769 0.950 . S
H1793 C1771 0.950 . S
C1794 C1795 1.349 . S
C1794 C1796 1.327 . S
C1794 H1819 0.950 . S
C1795 C1794 1.349 . S
C1795 C1811 1.349 . S
C1796 C1794 1.327 . S
C1796 C1815 1.429 . S
C1796 H1820 0.950 . S
C1797 C1814 1.574 . S
C1797 C1816 1.368 1_545 S
C1797 H1821 0.949 1_545 S
H1798 C1802 0.949 . S
C1799 C1800 1.349 . S
C1799 C1801 1.327 . S
C1799 H1822 0.950 . S
C1800 C1799 1.349 . S
C1800 C1812 1.349 . S
C1801 C1799 1.327 . S
C1801 C1817 1.429 . S
C1801 H1823 0.950 . S
C1802 H1798 0.949 . S
C1802 C1810 1.574 . S
C1802 C1818 1.368 . S
H1803 C1811 0.950 . S
H1804 C1809 0.950 . S
H1805 C1810 0.951 1_565 S
H1806 C1812 0.950 . S
H1807 C1813 0.950 . S
H1808 C1814 0.949 . S
C1809 H1804 0.950 . S
C1809 C1811 1.327 . S
C1809 C1815 1.429 . S
C1810 C1802 1.574 . S
C1810 H1805 0.951 1_545 S
C1810 C1816 1.368 1_545 S
C1811 C1795 1.349 . S
C1811 H1803 0.950 . S
C1811 C1809 1.327 . S
C1812 C1800 1.349 . S
C1812 H1806 0.950 . S
C1812 C1813 1.327 . S
C1813 H1807 0.950 . S
C1813 C1812 1.327 . S
C1813 C1817 1.429 . S
C1814 C1797 1.574 . S
C1814 H1808 0.949 . S
C1814 C1818 1.368 . S
C1815 C1796 1.429 . S
C1815 C1809 1.429 . S
C1815 C1816 1.523 . S
C1816 C1797 1.368 1_565 S
C1816 C1810 1.368 1_565 S
C1816 C1815 1.523 . S
C1817 C1801 1.429 . S
C1817 C1813 1.429 . S
C1817 C1818 1.523 . S
C1818 C1802 1.368 . S
C1818 C1814 1.368 . S
C1818 C1817 1.523 . S
H1819 C1794 0.950 . S
H1820 C1796 0.950 . S
H1821 C1797 0.949 1_565 S
H1822 C1799 0.950 . S
H1823 C1801 0.950 . S
C1824 C1825 1.349 . S
C1824 C1826 1.327 . S
C1824 H1849 0.950 . S
C1825 C1824 1.349 . S
C1825 C1841 1.349 . S
C1826 C1824 1.327 . S
C1826 C1845 1.429 . S
C1826 H1850 0.950 . S
C1827 C1844 1.574 . S
C1827 C1846 1.368 1_655 S
C1827 H1851 0.949 1_655 S
H1828 C1832 0.949 . S
C1829 C1830 1.349 . S
C1829 C1831 1.327 . S
C1829 H1852 0.950 . S
C1830 C1829 1.349 . S
C1830 C1842 1.349 . S
C1831 C1829 1.327 . S
C1831 C1847 1.429 . S
C1831 H1853 0.950 . S
C1832 H1828 0.949 . S
C1832 C1840 1.574 . S
C1832 C1848 1.368 . S
H1833 C1841 0.950 . S
H1834 C1839 0.950 . S
H1835 C1840 0.949 . S
H1836 C1842 0.950 . S
H1837 C1843 0.950 . S
H1838 C1844 0.949 . S
C1839 H1834 0.950 . S
C1839 C1841 1.327 . S
C1839 C1845 1.429 . S
C1840 C1832 1.574 . S
C1840 H1835 0.949 . S
C1840 C1846 1.368 1_655 S
C1841 C1825 1.349 . S
C1841 H1833 0.950 . S
C1841 C1839 1.327 . S
C1842 C1830 1.349 . S
C1842 H1836 0.950 . S
C1842 C1843 1.327 . S
C1843 H1837 0.950 . S
C1843 C1842 1.327 . S
C1843 C1847 1.429 . S
C1844 C1827 1.574 . S
C1844 H1838 0.949 . S
C1844 C1848 1.368 . S
C1845 C1826 1.429 . S
C1845 C1839 1.429 . S
C1845 C1846 1.523 . S
C1846 C1827 1.368 1_455 S
C1846 C1840 1.368 1_455 S
C1846 C1845 1.523 . S
C1847 C1831 1.429 . S
C1847 C1843 1.429 . S
C1847 C1848 1.523 . S
C1848 C1832 1.368 . S
C1848 C1844 1.368 . S
C1848 C1847 1.523 . S
H1849 C1824 0.950 . S
H1850 C1826 0.950 . S
H1851 C1827 0.949 1_455 S
H1852 C1829 0.950 . S
H1853 C1831 0.950 . S
C1854 C1855 1.349 . S
C1854 C1856 1.327 . S
C1854 H1879 0.950 . S
C1855 C1854 1.349 . S
C1855 C1871 1.349 . S
C1856 C1854 1.327 . S
C1856 C1875 1.429 . S
C1856 H1880 0.950 . S
C1857 C1874 1.574 . S
C1857 C1876 1.368 . S
C1857 H1881 0.949 . S
H1858 C1862 0.949 . S
C1859 C1860 1.349 . S
C1859 C1861 1.327 . S
C1859 H1882 0.950 . S
C1860 C1859 1.349 . S
C1860 C1872 1.349 . S
C1861 C1859 1.327 . S
C1861 C1877 1.429 . S
C1861 H1883 0.950 . S
C1862 H1858 0.949 . S
C1862 C1870 1.574 . S
C1862 C1878 1.368 . S
H1863 C1871 0.950 . S
H1864 C1869 0.950 . S
H1865 C1870 0.949 . S
H1866 C1872 0.950 . S
H1867 C1873 0.950 . S
H1868 C1874 0.949 . S
C1869 H1864 0.950 . S
C1869 C1871 1.327 . S
C1869 C1875 1.429 . S
C1870 C1862 1.574 . S
C1870 H1865 0.949 . S
C1870 C1876 1.368 . S
C1871 C1855 1.349 . S
C1871 H1863 0.950 . S
C1871 C1869 1.327 . S
C1872 C1860 1.349 . S
C1872 H1866 0.950 . S
C1872 C1873 1.327 . S
C1873 H1867 0.950 . S
C1873 C1872 1.327 . S
C1873 C1877 1.429 . S
C1874 C1857 1.574 . S
C1874 H1868 0.949 . S
C1874 C1878 1.368 . S
C1875 C1856 1.429 . S
C1875 C1869 1.429 . S
C1875 C1876 1.523 . S
C1876 C1857 1.368 . S
C1876 C1870 1.368 . S
C1876 C1875 1.523 . S
C1877 C1861 1.429 . S
C1877 C1873 1.429 . S
C1877 C1878 1.523 . S
C1878 C1862 1.368 . S
C1878 C1874 1.368 . S
C1878 C1877 1.523 . S
H1879 C1854 0.950 . S
H1880 C1856 0.950 . S
H1881 C1857 0.949 . S
H1882 C1859 0.950 . S
H1883 C1861 0.950 . S
C1884 C1885 1.349 . S
C1884 C1886 1.327 . S
C1884 H1909 0.950 . S
C1885 C1884 1.349 . S
C1885 C1901 1.349 . S
C1886 C1884 1.327 . S
C1886 C1905 1.429 . S
C1886 H1910 0.950 . S
C1887 C1904 1.574 . S
C1887 C1906 1.368 1_565 S
C1887 H1911 0.950 1_565 S
H1888 C1892 0.949 . S
C1889 C1890 1.349 . S
C1889 C1891 1.327 . S
C1889 H1912 0.950 . S
C1890 C1889 1.349 . S
C1890 C1902 1.349 . S
C1891 C1889 1.327 . S
C1891 C1907 1.429 . S
C1891 H1913 0.950 . S
C1892 H1888 0.949 . S
C1892 C1900 1.574 . S
C1892 C1908 1.368 . S
H1893 C1901 0.950 . S
H1894 C1899 0.950 . S
H1895 C1900 0.949 1_545 S
H1896 C1902 0.950 . S
H1897 C1903 0.950 . S
H1898 C1904 0.949 . S
C1899 H1894 0.950 . S
C1899 C1901 1.327 . S
C1899 C1905 1.429 . S
C1900 C1892 1.574 . S
C1900 H1895 0.949 1_565 S
C1900 C1906 1.368 1_565 S
C1901 C1885 1.349 . S
C1901 H1893 0.950 . S
C1901 C1899 1.327 . S
C1902 C1890 1.349 . S
C1902 H1896 0.950 . S
C1902 C1903 1.327 . S
C1903 H1897 0.950 . S
C1903 C1902 1.327 . S
C1903 C1907 1.429 . S
C1904 C1887 1.574 . S
C1904 H1898 0.949 . S
C1904 C1908 1.368 . S
C1905 C1886 1.429 . S
C1905 C1899 1.429 . S
C1905 C1906 1.523 . S
C1906 C1887 1.368 1_545 S
C1906 C1900 1.368 1_545 S
C1906 C1905 1.523 . S
C1907 C1891 1.429 . S
C1907 C1903 1.429 . S
C1907 C1908 1.523 . S
C1908 C1892 1.368 . S
C1908 C1904 1.368 . S
C1908 C1907 1.523 . S
H1909 C1884 0.950 . S
H1910 C1886 0.950 . S
H1911 C1887 0.950 1_545 S
H1912 C1889 0.950 . S
H1913 C1891 0.950 . S
C1914 C1915 1.349 . S
C1914 C1916 1.327 . S
C1914 H1939 0.950 . S
C1915 C1914 1.349 . S
C1915 C1931 1.349 . S
C1916 C1914 1.327 . S
C1916 C1935 1.429 . S
C1916 H1940 0.950 . S
C1917 C1934 1.574 . S
C1917 C1936 1.368 . S
C1917 H1941 0.949 . S
H1918 C1922 0.949 1_655 S
C1919 C1920 1.349 . S
C1919 C1921 1.327 . S
C1919 H1942 0.950 . S
C1920 C1919 1.349 . S
C1920 C1932 1.349 . S
C1921 C1919 1.327 . S
C1921 C1937 1.429 . S
C1921 H1943 0.950 . S
C1922 H1918 0.949 1_455 S
C1922 C1930 1.574 . S
C1922 C1938 1.368 1_455 S
H1923 C1931 0.950 . S
H1924 C1929 0.950 . S
H1925 C1930 0.949 . S
H1926 C1932 0.950 . S
H1927 C1933 0.950 . S
H1928 C1934 0.917 1_655 S
C1929 H1924 0.950 . S
C1929 C1931 1.327 . S
C1929 C1935 1.429 . S
C1930 C1922 1.574 . S
C1930 H1925 0.949 . S
C1930 C1936 1.368 . S
C1931 C1915 1.349 . S
C1931 H1923 0.950 . S
C1931 C1929 1.327 . S
C1932 C1920 1.349 . S
C1932 H1926 0.950 . S
C1932 C1933 1.327 . S
C1933 H1927 0.950 . S
C1933 C1932 1.327 . S
C1933 C1937 1.429 . S
C1934 C1917 1.574 . S
C1934 H1928 0.917 1_455 S
C1934 C1938 1.368 1_455 S
C1935 C1916 1.429 . S
C1935 C1929 1.429 . S
C1935 C1936 1.523 . S
C1936 C1917 1.368 . S
C1936 C1930 1.368 . S
C1936 C1935 1.523 . S
C1937 C1921 1.429 . S
C1937 C1933 1.429 . S
C1937 C1938 1.523 . S
C1938 C1922 1.368 1_655 S
C1938 C1934 1.368 1_655 S
C1938 C1937 1.523 . S
H1939 C1914 0.950 . S
H1940 C1916 0.950 . S
H1941 C1917 0.949 . S
H1942 C1919 0.950 . S
H1943 C1921 0.950 . S
C1944 C1945 1.349 . S
C1944 C1946 1.327 . S
C1944 H1969 0.950 . S
C1945 C1944 1.349 . S
C1945 C1961 1.349 . S
C1946 C1944 1.327 . S
C1946 C1965 1.429 . S
C1946 H1970 0.950 . S
C1947 C1964 1.574 . S
C1947 C1966 1.368 . S
C1947 H1971 0.949 . S
H1948 C1952 0.949 . S
C1949 C1950 1.349 . S
C1949 C1951 1.327 . S
C1949 H1972 0.950 . S
C1950 C1949 1.349 . S
C1950 C1962 1.349 . S
C1951 C1949 1.327 . S
C1951 C1967 1.429 . S
C1951 H1973 0.950 . S
C1952 H1948 0.949 . S
C1952 C1960 1.574 . S
C1952 C1968 1.368 . S
H1953 C1961 0.950 . S
H1954 C1959 0.950 . S
H1955 C1960 0.949 . S
H1956 C1962 0.950 . S
H1957 C1963 0.950 . S
H1958 C1964 0.949 . S
C1959 H1954 0.950 . S
C1959 C1961 1.327 . S
C1959 C1965 1.429 . S
C1960 C1952 1.574 . S
C1960 H1955 0.949 . S
C1960 C1966 1.368 . S
C1961 C1945 1.349 . S
C1961 H1953 0.950 . S
C1961 C1959 1.327 . S
C1962 C1950 1.349 . S
C1962 H1956 0.950 . S
C1962 C1963 1.327 . S
C1963 H1957 0.950 . S
C1963 C1962 1.327 . S
C1963 C1967 1.429 . S
C1964 C1947 1.574 . S
C1964 H1958 0.949 . S
C1964 C1968 1.368 . S
C1965 C1946 1.429 . S
C1965 C1959 1.429 . S
C1965 C1966 1.523 . S
C1966 C1947 1.368 . S
C1966 C1960 1.368 . S
C1966 C1965 1.523 . S
C1967 C1951 1.429 . S
C1967 C1963 1.429 . S
C1967 C1968 1.523 . S
C1968 C1952 1.368 . S
C1968 C1964 1.368 . S
C1968 C1967 1.523 . S
H1969 C1944 0.950 . S
H1970 C1946 0.950 . S
H1971 C1947 0.949 . S
H1972 C1949 0.950 . S
H1973 C1951 0.950 . S
C1974 C1975 1.349 . S
C1974 C1976 1.327 . S
C1974 H1999 0.950 . S
C1975 C1974 1.349 . S
C1975 C1991 1.349 . S
C1976 C1974 1.327 . S
C1976 C1995 1.429 . S
C1976 H2000 0.950 . S
C1977 C1994 1.574 . S
C1977 C1996 1.368 . S
C1977 H2001 0.949 . S
H1978 C1982 0.949 . S
C1979 C1980 1.349 . S
C1979 C1981 1.327 . S
C1979 H2002 0.950 . S
C1980 C1979 1.349 . S
C1980 C1992 1.349 . S
C1981 C1979 1.327 . S
C1981 C1997 1.429 . S
C1981 H2003 0.950 . S
C1982 H1978 0.949 . S
C1982 C1990 1.574 . S
C1982 C1998 1.368 . S
H1983 C1991 0.950 . S
H1984 C1989 0.950 . S
H1985 C1990 0.949 . S
H1986 C1992 0.950 . S
H1987 C1993 0.950 . S
H1988 C1994 0.949 . S
C1989 H1984 0.950 . S
C1989 C1991 1.327 . S
C1989 C1995 1.429 . S
C1990 C1982 1.574 . S
C1990 H1985 0.949 . S
C1990 C1996 1.368 . S
C1991 C1975 1.349 . S
C1991 H1983 0.950 . S
C1991 C1989 1.327 . S
C1992 C1980 1.349 . S
C1992 H1986 0.950 . S
C1992 C1993 1.327 . S
C1993 H1987 0.950 . S
C1993 C1992 1.327 . S
C1993 C1997 1.429 . S
C1994 C1977 1.574 . S
C1994 H1988 0.949 . S
C1994 C1998 1.368 . S
C1995 C1976 1.429 . S
C1995 C1989 1.429 . S
C1995 C1996 1.523 . S
C1996 C1977 1.368 . S
C1996 C1990 1.368 . S
C1996 C1995 1.523 . S
C1997 C1981 1.429 . S
C1997 C1993 1.429 . S
C1997 C1998 1.523 . S
C1998 C1982 1.368 . S
C1998 C1994 1.368 . S
C1998 C1997 1.523 . S
H1999 C1974 0.950 . S
H2000 C1976 0.950 . S
H2001 C1977 0.949 . S
H2002 C1979 0.950 . S
H2003 C1981 0.950 . S
C2004 C2005 1.349 . S
C2004 C2006 1.327 . S
C2004 H2029 0.950 . S
C2005 C2004 1.349 . S
C2005 C2021 1.349 . S
C2006 C2004 1.327 . S
C2006 C2025 1.429 . S
C2006 H2030 0.950 . S
C2007 C2024 1.574 . S
C2007 C2026 1.368 . S
C2007 H2031 0.949 . S
H2008 C2012 0.949 . S
C2009 C2010 1.349 . S
C2009 C2011 1.327 . S
C2009 H2032 0.950 . S
C2010 C2009 1.349 . S
C2010 C2022 1.349 . S
C2011 C2009 1.327 . S
C2011 C2027 1.429 . S
C2011 H2033 0.950 . S
C2012 H2008 0.949 . S
C2012 C2020 1.574 . S
C2012 C2028 1.368 . S
H2013 C2021 0.950 . S
H2014 C2019 0.950 . S
H2015 C2020 0.949 . S
H2016 C2022 0.950 . S
H2017 C2023 0.950 . S
H2018 C2024 0.949 . S
C2019 H2014 0.950 . S
C2019 C2021 1.327 . S
C2019 C2025 1.429 . S
C2020 C2012 1.574 . S
C2020 H2015 0.949 . S
C2020 C2026 1.368 . S
C2021 C2005 1.349 . S
C2021 H2013 0.950 . S
C2021 C2019 1.327 . S
C2022 C2010 1.349 . S
C2022 H2016 0.950 . S
C2022 C2023 1.327 . S
C2023 H2017 0.950 . S
C2023 C2022 1.327 . S
C2023 C2027 1.429 . S
C2024 C2007 1.574 . S
C2024 H2018 0.949 . S
C2024 C2028 1.368 . S
C2025 C2006 1.429 . S
C2025 C2019 1.429 . S
C2025 C2026 1.523 . S
C2026 C2007 1.368 . S
C2026 C2020 1.368 . S
C2026 C2025 1.523 . S
C2027 C2011 1.429 . S
C2027 C2023 1.429 . S
C2027 C2028 1.523 . S
C2028 C2012 1.368 . S
C2028 C2024 1.368 . S
C2028 C2027 1.523 . S
H2029 C2004 0.950 . S
H2030 C2006 0.950 . S
H2031 C2007 0.949 . S
H2032 C2009 0.950 . S
H2033 C2011 0.950 . S
C2034 C2035 1.349 . S
C2034 C2036 1.327 . S
C2034 H2059 0.950 . S
C2035 C2034 1.349 . S
C2035 C2051 1.349 . S
C2036 C2034 1.327 . S
C2036 C2055 1.429 . S
C2036 H2060 0.950 . S
C2037 C2054 1.574 . S
C2037 C2056 1.368 . S
C2037 H2061 0.949 . S
H2038 C2042 0.949 . S
C2039 C2040 1.349 . S
C2039 C2041 1.327 . S
C2039 H2062 0.950 . S
C2040 C2039 1.349 . S
C2040 C2052 1.349 . S
C2041 C2039 1.327 . S
C2041 C2057 1.429 . S
C2041 H2063 0.950 . S
C2042 H2038 0.949 . S
C2042 C2050 1.574 . S
C2042 C2058 1.368 . S
H2043 C2051 0.950 . S
H2044 C2049 0.950 . S
H2045 C2050 0.949 . S
H2046 C2052 0.950 . S
H2047 C2053 0.950 . S
H2048 C2054 0.949 . S
C2049 H2044 0.950 . S
C2049 C2051 1.327 . S
C2049 C2055 1.429 . S
C2050 C2042 1.574 . S
C2050 H2045 0.949 . S
C2050 C2056 1.368 . S
C2051 C2035 1.349 . S
C2051 H2043 0.950 . S
C2051 C2049 1.327 . S
C2052 C2040 1.349 . S
C2052 H2046 0.950 . S
C2052 C2053 1.327 . S
C2053 H2047 0.950 . S
C2053 C2052 1.327 . S
C2053 C2057 1.429 . S
C2054 C2037 1.574 . S
C2054 H2048 0.949 . S
C2054 C2058 1.368 . S
C2055 C2036 1.429 . S
C2055 C2049 1.429 . S
C2055 C2056 1.523 . S
C2056 C2037 1.368 . S
C2056 C2050 1.368 . S
C2056 C2055 1.523 . S
C2057 C2041 1.429 . S
C2057 C2053 1.429 . S
C2057 C2058 1.523 . S
C2058 C2042 1.368 . S
C2058 C2054 1.368 . S
C2058 C2057 1.523 . S
H2059 C2034 0.950 . S
H2060 C2036 0.950 . S
H2061 C2037 0.949 . S
H2062 C2039 0.950 . S
H2063 C2041 0.950 . S
C2064 C2065 1.349 . S
C2064 C2066 1.327 . S
C2064 H2089 0.950 . S
C2065 C2064 1.349 . S
C2065 C2081 1.349 . S
C2066 C2064 1.327 . S
C2066 C2085 1.429 . S
C2066 H2090 0.950 . S
C2067 C2084 1.574 . S
C2067 C2086 1.368 . S
C2067 H2091 0.949 . S
H2068 C2072 0.949 . S
C2069 C2070 1.349 . S
C2069 C2071 1.327 . S
C2069 H2092 0.950 . S
C2070 C2069 1.349 . S
C2070 C2082 1.349 . S
C2071 C2069 1.327 . S
C2071 C2087 1.429 . S
C2071 H2093 0.950 . S
C2072 H2068 0.949 . S
C2072 C2080 1.574 . S
C2072 C2088 1.368 . S
H2073 C2081 0.950 . S
H2074 C2079 0.950 . S
H2075 C2080 0.949 . S
H2076 C2082 0.950 . S
H2077 C2083 0.950 . S
H2078 C2084 0.949 . S
C2079 H2074 0.950 . S
C2079 C2081 1.327 . S
C2079 C2085 1.429 . S
C2080 C2072 1.574 . S
C2080 H2075 0.949 . S
C2080 C2086 1.368 . S
C2081 C2065 1.349 . S
C2081 H2073 0.950 . S
C2081 C2079 1.327 . S
C2082 C2070 1.349 . S
C2082 H2076 0.950 . S
C2082 C2083 1.327 . S
C2083 H2077 0.950 . S
C2083 C2082 1.327 . S
C2083 C2087 1.429 . S
C2084 C2067 1.574 . S
C2084 H2078 0.949 . S
C2084 C2088 1.368 . S
C2085 C2066 1.429 . S
C2085 C2079 1.429 . S
C2085 C2086 1.523 . S
C2086 C2067 1.368 . S
C2086 C2080 1.368 . S
C2086 C2085 1.523 . S
C2087 C2071 1.429 . S
C2087 C2083 1.429 . S
C2087 C2088 1.523 . S
C2088 C2072 1.368 . S
C2088 C2084 1.368 . S
C2088 C2087 1.523 . S
H2089 C2064 0.950 . S
H2090 C2066 0.950 . S
H2091 C2067 0.949 . S
H2092 C2069 0.950 . S
H2093 C2071 0.950 . S
C2094 C2095 1.349 . S
C2094 C2096 1.327 . S
C2094 H2119 0.950 . S
C2095 C2094 1.349 . S
C2095 C2111 1.349 . S
C2096 C2094 1.327 . S
C2096 C2115 1.429 . S
C2096 H2120 0.950 . S
C2097 C2114 1.574 . S
C2097 C2116 1.368 . S
C2097 H2121 0.949 . S
H2098 C2102 0.949 . S
C2099 C2100 1.349 . S
C2099 C2101 1.327 . S
C2099 H2122 0.950 . S
C2100 C2099 1.349 . S
C2100 C2112 1.349 . S
C2101 C2099 1.327 . S
C2101 C2117 1.429 . S
C2101 H2123 0.950 . S
C2102 H2098 0.949 . S
C2102 C2110 1.574 . S
C2102 C2118 1.368 . S
H2103 C2111 0.950 . S
H2104 C2109 0.950 . S
H2105 C2110 0.949 . S
H2106 C2112 0.950 . S
H2107 C2113 0.950 . S
H2108 C2114 0.949 . S
C2109 H2104 0.950 . S
C2109 C2111 1.327 . S
C2109 C2115 1.429 . S
C2110 C2102 1.574 . S
C2110 H2105 0.949 . S
C2110 C2116 1.368 . S
C2111 C2095 1.349 . S
C2111 H2103 0.950 . S
C2111 C2109 1.327 . S
C2112 C2100 1.349 . S
C2112 H2106 0.950 . S
C2112 C2113 1.327 . S
C2113 H2107 0.950 . S
C2113 C2112 1.327 . S
C2113 C2117 1.429 . S
C2114 C2097 1.574 . S
C2114 H2108 0.949 . S
C2114 C2118 1.368 . S
C2115 C2096 1.429 . S
C2115 C2109 1.429 . S
C2115 C2116 1.523 . S
C2116 C2097 1.368 . S
C2116 C2110 1.368 . S
C2116 C2115 1.523 . S
C2117 C2101 1.429 . S
C2117 C2113 1.429 . S
C2117 C2118 1.523 . S
C2118 C2102 1.368 . S
C2118 C2114 1.368 . S
C2118 C2117 1.523 . S
H2119 C2094 0.950 . S
H2120 C2096 0.950 . S
H2121 C2097 0.949 . S
H2122 C2099 0.950 . S
H2123 C2101 0.950 . S
C2124 C2125 1.349 . S
C2124 C2126 1.327 . S
C2124 H2149 0.950 . S
C2125 C2124 1.349 . S
C2125 C2141 1.349 . S
C2126 C2124 1.327 . S
C2126 C2145 1.429 . S
C2126 H2150 0.950 . S
C2127 C2144 1.574 . S
C2127 C2146 1.368 . S
C2127 H2151 0.949 . S
H2128 C2132 0.949 . S
C2129 C2130 1.349 . S
C2129 C2131 1.327 . S
C2129 H2152 0.950 . S
C2130 C2129 1.349 . S
C2130 C2142 1.349 . S
C2131 C2129 1.327 . S
C2131 C2147 1.429 . S
C2131 H2153 0.950 . S
C2132 H2128 0.949 . S
C2132 C2140 1.574 . S
C2132 C2148 1.368 . S
H2133 C2141 0.950 . S
H2134 C2139 0.950 . S
H2135 C2140 0.949 . S
H2136 C2142 0.950 . S
H2137 C2143 0.950 . S
H2138 C2144 0.949 . S
C2139 H2134 0.950 . S
C2139 C2141 1.327 . S
C2139 C2145 1.429 . S
C2140 C2132 1.574 . S
C2140 H2135 0.949 . S
C2140 C2146 1.368 . S
C2141 C2125 1.349 . S
C2141 H2133 0.950 . S
C2141 C2139 1.327 . S
C2142 C2130 1.349 . S
C2142 H2136 0.950 . S
C2142 C2143 1.327 . S
C2143 H2137 0.950 . S
C2143 C2142 1.327 . S
C2143 C2147 1.429 . S
C2144 C2127 1.574 . S
C2144 H2138 0.949 . S
C2144 C2148 1.368 . S
C2145 C2126 1.429 . S
C2145 C2139 1.429 . S
C2145 C2146 1.523 . S
C2146 C2127 1.368 . S
C2146 C2140 1.368 . S
C2146 C2145 1.523 . S
C2147 C2131 1.429 . S
C2147 C2143 1.429 . S
C2147 C2148 1.523 . S
C2148 C2132 1.368 . S
C2148 C2144 1.368 . S
C2148 C2147 1.523 . S
H2149 C2124 0.950 . S
H2150 C2126 0.950 . S
H2151 C2127 0.949 . S
H2152 C2129 0.950 . S
H2153 C2131 0.950 . S
C2154 C2155 1.349 . S
C2154 C2156 1.327 . S
C2154 H2179 0.950 . S
C2155 C2154 1.349 . S
C2155 C2171 1.349 . S
C2156 C2154 1.327 . S
C2156 C2175 1.429 . S
C2156 H2180 0.950 . S
C2157 C2174 1.574 . S
C2157 C2176 1.368 . S
C2157 H2181 0.949 . S
H2158 C2162 0.949 . S
C2159 C2160 1.349 . S
C2159 C2161 1.327 . S
C2159 H2182 0.950 . S
C2160 C2159 1.349 . S
C2160 C2172 1.349 . S
C2161 C2159 1.327 . S
C2161 C2177 1.429 . S
C2161 H2183 0.950 . S
C2162 H2158 0.949 . S
C2162 C2170 1.574 . S
C2162 C2178 1.368 . S
H2163 C2171 0.950 . S
H2164 C2169 0.950 . S
H2165 C2170 0.949 . S
H2166 C2172 0.950 . S
H2167 C2173 0.950 . S
H2168 C2174 0.949 . S
C2169 H2164 0.950 . S
C2169 C2171 1.327 . S
C2169 C2175 1.429 . S
C2170 C2162 1.574 . S
C2170 H2165 0.949 . S
C2170 C2176 1.368 . S
C2171 C2155 1.349 . S
C2171 H2163 0.950 . S
C2171 C2169 1.327 . S
C2172 C2160 1.349 . S
C2172 H2166 0.950 . S
C2172 C2173 1.327 . S
C2173 H2167 0.950 . S
C2173 C2172 1.327 . S
C2173 C2177 1.429 . S
C2174 C2157 1.574 . S
C2174 H2168 0.949 . S
C2174 C2178 1.368 . S
C2175 C2156 1.429 . S
C2175 C2169 1.429 . S
C2175 C2176 1.523 . S
C2176 C2157 1.368 . S
C2176 C2170 1.368 . S
C2176 C2175 1.523 . S
C2177 C2161 1.429 . S
C2177 C2173 1.429 . S
C2177 C2178 1.523 . S
C2178 C2162 1.368 . S
C2178 C2174 1.368 . S
C2178 C2177 1.523 . S
H2179 C2154 0.950 . S
H2180 C2156 0.950 . S
H2181 C2157 0.949 . S
H2182 C2159 0.950 . S
H2183 C2161 0.950 . S
C2184 C2185 1.349 . S
C2184 C2186 1.327 . S
C2184 H2209 0.950 . S
C2185 C2184 1.349 . S
C2185 C2201 1.349 . S
C2186 C2184 1.327 . S
C2186 C2205 1.429 . S
C2186 H2210 0.950 . S
C2187 C2204 1.574 . S
C2187 C2206 1.368 . S
C2187 H2211 0.949 . S
H2188 C2192 0.949 . S
C2189 C2190 1.349 . S
C2189 C2191 1.327 . S
C2189 H2212 0.950 . S
C2190 C2189 1.349 . S
C2190 C2202 1.349 . S
C2191 C2189 1.327 . S
C2191 C2207 1.429 . S
C2191 H2213 0.950 . S
C2192 H2188 0.949 . S
C2192 C2200 1.574 . S
C2192 C2208 1.368 . S
H2193 C2201 0.950 . S
H2194 C2199 0.950 . S
H2195 C2200 0.949 . S
H2196 C2202 0.950 . S
H2197 C2203 0.950 . S
H2198 C2204 0.949 . S
C2199 H2194 0.950 . S
C2199 C2201 1.327 . S
C2199 C2205 1.429 . S
C2200 C2192 1.574 . S
C2200 H2195 0.949 . S
C2200 C2206 1.368 . S
C2201 C2185 1.349 . S
C2201 H2193 0.950 . S
C2201 C2199 1.327 . S
C2202 C2190 1.349 . S
C2202 H2196 0.950 . S
C2202 C2203 1.327 . S
C2203 H2197 0.950 . S
C2203 C2202 1.327 . S
C2203 C2207 1.429 . S
C2204 C2187 1.574 . S
C2204 H2198 0.949 . S
C2204 C2208 1.368 . S
C2205 C2186 1.429 . S
C2205 C2199 1.429 . S
C2205 C2206 1.523 . S
C2206 C2187 1.368 . S
C2206 C2200 1.368 . S
C2206 C2205 1.523 . S
C2207 C2191 1.429 . S
C2207 C2203 1.429 . S
C2207 C2208 1.523 . S
C2208 C2192 1.368 . S
C2208 C2204 1.368 . S
C2208 C2207 1.523 . S
H2209 C2184 0.950 . S
H2210 C2186 0.950 . S
H2211 C2187 0.949 . S
H2212 C2189 0.950 . S
H2213 C2191 0.950 . S
C2214 C2215 1.349 . S
C2214 C2216 1.327 . S
C2214 H2239 0.950 . S
C2215 C2214 1.349 . S
C2215 C2231 1.349 . S
C2216 C2214 1.327 . S
C2216 C2235 1.429 . S
C2216 H2240 0.950 . S
C2217 C2234 1.574 . S
C2217 C2236 1.368 . S
C2217 H2241 0.949 . S
H2218 C2222 0.949 . S
C2219 C2220 1.349 . S
C2219 C2221 1.327 . S
C2219 H2242 0.950 . S
C2220 C2219 1.349 . S
C2220 C2232 1.349 . S
C2221 C2219 1.327 . S
C2221 C2237 1.429 . S
C2221 H2243 0.950 . S
C2222 H2218 0.949 . S
C2222 C2230 1.574 . S
C2222 C2238 1.368 . S
H2223 C2231 0.950 . S
H2224 C2229 0.950 . S
H2225 C2230 0.949 . S
H2226 C2232 0.950 . S
H2227 C2233 0.950 . S
H2228 C2234 0.949 . S
C2229 H2224 0.950 . S
C2229 C2231 1.327 . S
C2229 C2235 1.429 . S
C2230 C2222 1.574 . S
C2230 H2225 0.949 . S
C2230 C2236 1.368 . S
C2231 C2215 1.349 . S
C2231 H2223 0.950 . S
C2231 C2229 1.327 . S
C2232 C2220 1.349 . S
C2232 H2226 0.950 . S
C2232 C2233 1.327 . S
C2233 H2227 0.950 . S
C2233 C2232 1.327 . S
C2233 C2237 1.429 . S
C2234 C2217 1.574 . S
C2234 H2228 0.949 . S
C2234 C2238 1.368 . S
C2235 C2216 1.429 . S
C2235 C2229 1.429 . S
C2235 C2236 1.523 . S
C2236 C2217 1.368 . S
C2236 C2230 1.368 . S
C2236 C2235 1.523 . S
C2237 C2221 1.429 . S
C2237 C2233 1.429 . S
C2237 C2238 1.523 . S
C2238 C2222 1.368 . S
C2238 C2234 1.368 . S
C2238 C2237 1.523 . S
H2239 C2214 0.950 . S
H2240 C2216 0.950 . S
H2241 C2217 0.949 . S
H2242 C2219 0.950 . S
H2243 C2221 0.950 . S
C2244 C2245 1.349 . S
C2244 C2246 1.327 . S
C2244 H2269 0.950 . S
C2245 C2244 1.349 . S
C2245 C2261 1.349 . S
C2246 C2244 1.327 . S
C2246 C2265 1.429 . S
C2246 H2270 0.950 . S
C2247 C2264 1.574 . S
C2247 C2266 1.368 . S
C2247 H2271 0.949 . S
H2248 C2252 0.949 . S
C2249 C2250 1.349 . S
C2249 C2251 1.327 . S
C2249 H2272 0.950 . S
C2250 C2249 1.349 . S
C2250 C2262 1.349 . S
C2251 C2249 1.327 . S
C2251 C2267 1.429 . S
C2251 H2273 0.950 . S
C2252 H2248 0.949 . S
C2252 C2260 1.574 . S
C2252 C2268 1.368 . S
H2253 C2261 0.950 . S
H2254 C2259 0.950 . S
H2255 C2260 0.949 . S
H2256 C2262 0.950 . S
H2257 C2263 0.950 . S
H2258 C2264 0.949 . S
C2259 H2254 0.950 . S
C2259 C2261 1.327 . S
C2259 C2265 1.429 . S
C2260 C2252 1.574 . S
C2260 H2255 0.949 . S
C2260 C2266 1.368 . S
C2261 C2245 1.349 . S
C2261 H2253 0.950 . S
C2261 C2259 1.327 . S
C2262 C2250 1.349 . S
C2262 H2256 0.950 . S
C2262 C2263 1.327 . S
C2263 H2257 0.950 . S
C2263 C2262 1.327 . S
C2263 C2267 1.429 . S
C2264 C2247 1.574 . S
C2264 H2258 0.949 . S
C2264 C2268 1.368 . S
C2265 C2246 1.429 . S
C2265 C2259 1.429 . S
C2265 C2266 1.523 . S
C2266 C2247 1.368 . S
C2266 C2260 1.368 . S
C2266 C2265 1.523 . S
C2267 C2251 1.429 . S
C2267 C2263 1.429 . S
C2267 C2268 1.523 . S
C2268 C2252 1.368 . S
C2268 C2264 1.368 . S
C2268 C2267 1.523 . S
H2269 C2244 0.950 . S
H2270 C2246 0.950 . S
H2271 C2247 0.949 . S
H2272 C2249 0.950 . S
H2273 C2251 0.950 . S
C2274 C2275 1.349 . S
C2274 C2276 1.327 . S
C2274 H2299 0.950 . S
C2275 C2274 1.349 . S
C2275 C2291 1.349 . S
C2276 C2274 1.327 . S
C2276 C2295 1.429 . S
C2276 H2300 0.950 . S
C2277 C2294 1.574 . S
C2277 C2296 1.368 . S
C2277 H2301 0.949 . S
H2278 C2282 0.949 . S
C2279 C2280 1.349 . S
C2279 C2281 1.327 . S
C2279 H2302 0.950 . S
C2280 C2279 1.349 . S
C2280 C2292 1.349 . S
C2281 C2279 1.327 . S
C2281 C2297 1.429 . S
C2281 H2303 0.950 . S
C2282 H2278 0.949 . S
C2282 C2290 1.574 . S
C2282 C2298 1.368 . S
H2283 C2291 0.950 . S
H2284 C2289 0.950 . S
H2285 C2290 0.949 . S
H2286 C2292 0.950 . S
H2287 C2293 0.950 . S
H2288 C2294 0.949 . S
C2289 H2284 0.950 . S
C2289 C2291 1.327 . S
C2289 C2295 1.429 . S
C2290 C2282 1.574 . S
C2290 H2285 0.949 . S
C2290 C2296 1.368 . S
C2291 C2275 1.349 . S
C2291 H2283 0.950 . S
C2291 C2289 1.327 . S
C2292 C2280 1.349 . S
C2292 H2286 0.950 . S
C2292 C2293 1.327 . S
C2293 H2287 0.950 . S
C2293 C2292 1.327 . S
C2293 C2297 1.429 . S
C2294 C2277 1.574 . S
C2294 H2288 0.949 . S
C2294 C2298 1.368 . S
C2295 C2276 1.429 . S
C2295 C2289 1.429 . S
C2295 C2296 1.523 . S
C2296 C2277 1.368 . S
C2296 C2290 1.368 . S
C2296 C2295 1.523 . S
C2297 C2281 1.429 . S
C2297 C2293 1.429 . S
C2297 C2298 1.523 . S
C2298 C2282 1.368 . S
C2298 C2294 1.368 . S
C2298 C2297 1.523 . S
H2299 C2274 0.950 . S
H2300 C2276 0.950 . S
H2301 C2277 0.949 . S
H2302 C2279 0.950 . S
H2303 C2281 0.950 . S
C2304 C2305 1.349 . S
C2304 C2306 1.327 . S
C2304 H2329 0.950 . S
C2305 C2304 1.349 . S
C2305 C2321 1.349 . S
C2306 C2304 1.327 . S
C2306 C2325 1.429 . S
C2306 H2330 0.950 . S
C2307 C2324 1.574 . S
C2307 C2326 1.368 . S
C2307 H2331 0.949 . S
H2308 C2312 0.949 . S
C2309 C2310 1.349 . S
C2309 C2311 1.327 . S
C2309 H2332 0.950 . S
C2310 C2309 1.349 . S
C2310 C2322 1.349 . S
C2311 C2309 1.327 . S
C2311 C2327 1.429 . S
C2311 H2333 0.950 . S
C2312 H2308 0.949 . S
C2312 C2320 1.574 . S
C2312 C2328 1.368 . S
H2313 C2321 0.950 . S
H2314 C2319 0.950 . S
H2315 C2320 0.949 . S
H2316 C2322 0.950 . S
H2317 C2323 0.950 . S
H2318 C2324 0.949 . S
C2319 H2314 0.950 . S
C2319 C2321 1.327 . S
C2319 C2325 1.429 . S
C2320 C2312 1.574 . S
C2320 H2315 0.949 . S
C2320 C2326 1.368 . S
C2321 C2305 1.349 . S
C2321 H2313 0.950 . S
C2321 C2319 1.327 . S
C2322 C2310 1.349 . S
C2322 H2316 0.950 . S
C2322 C2323 1.327 . S
C2323 H2317 0.950 . S
C2323 C2322 1.327 . S
C2323 C2327 1.429 . S
C2324 C2307 1.574 . S
C2324 H2318 0.949 . S
C2324 C2328 1.368 . S
C2325 C2306 1.429 . S
C2325 C2319 1.429 . S
C2325 C2326 1.523 . S
C2326 C2307 1.368 . S
C2326 C2320 1.368 . S
C2326 C2325 1.523 . S
C2327 C2311 1.429 . S
C2327 C2323 1.429 . S
C2327 C2328 1.523 . S
C2328 C2312 1.368 . S
C2328 C2324 1.368 . S
C2328 C2327 1.523 . S
H2329 C2304 0.950 . S
H2330 C2306 0.950 . S
H2331 C2307 0.949 . S
H2332 C2309 0.950 . S
H2333 C2311 0.950 . S
C2334 C2335 1.349 . S
C2334 C2336 1.327 . S
C2334 H2359 0.950 . S
C2335 C2334 1.349 . S
C2335 C2351 1.349 . S
C2336 C2334 1.327 . S
C2336 C2355 1.429 . S
C2336 H2360 0.950 . S
C2337 C2354 1.574 . S
C2337 C2356 1.368 . S
C2337 H2361 0.949 . S
H2338 C2342 0.949 . S
C2339 C2340 1.349 . S
C2339 C2341 1.327 . S
C2339 H2362 0.950 . S
C2340 C2339 1.349 . S
C2340 C2352 1.349 . S
C2341 C2339 1.327 . S
C2341 C2357 1.429 . S
C2341 H2363 0.950 . S
C2342 H2338 0.949 . S
C2342 C2350 1.574 . S
C2342 C2358 1.368 . S
H2343 C2351 0.950 . S
H2344 C2349 0.950 . S
H2345 C2350 0.949 . S
H2346 C2352 0.950 . S
H2347 C2353 0.950 . S
H2348 C2354 0.949 . S
C2349 H2344 0.950 . S
C2349 C2351 1.327 . S
C2349 C2355 1.429 . S
C2350 C2342 1.574 . S
C2350 H2345 0.949 . S
C2350 C2356 1.368 . S
C2351 C2335 1.349 . S
C2351 H2343 0.950 . S
C2351 C2349 1.327 . S
C2352 C2340 1.349 . S
C2352 H2346 0.950 . S
C2352 C2353 1.327 . S
C2353 H2347 0.950 . S
C2353 C2352 1.327 . S
C2353 C2357 1.429 . S
C2354 C2337 1.574 . S
C2354 H2348 0.949 . S
C2354 C2358 1.368 . S
C2355 C2336 1.429 . S
C2355 C2349 1.429 . S
C2355 C2356 1.523 . S
C2356 C2337 1.368 . S
C2356 C2350 1.368 . S
C2356 C2355 1.523 . S
C2357 C2341 1.429 . S
C2357 C2353 1.429 . S
C2357 C2358 1.523 . S
C2358 C2342 1.368 . S
C2358 C2354 1.368 . S
C2358 C2357 1.523 . S
H2359 C2334 0.950 . S
H2360 C2336 0.950 . S
H2361 C2337 0.949 . S
H2362 C2339 0.950 . S
H2363 C2341 0.950 . S
C2364 C2365 1.349 . S
C2364 C2366 1.327 . S
C2364 H2389 0.950 . S
C2365 C2364 1.349 . S
C2365 C2381 1.349 . S
C2366 C2364 1.327 . S
C2366 C2385 1.429 . S
C2366 H2390 0.950 . S
C2367 C2384 1.574 . S
C2367 C2386 1.368 . S
C2367 H2391 0.949 . S
H2368 C2372 0.949 . S
C2369 C2370 1.349 . S
C2369 C2371 1.327 . S
C2369 H2392 0.950 . S
C2370 C2369 1.349 . S
C2370 C2382 1.349 . S
C2371 C2369 1.327 . S
C2371 C2387 1.429 . S
C2371 H2393 0.950 . S
C2372 H2368 0.949 . S
C2372 C2380 1.574 . S
C2372 C2388 1.368 . S
H2373 C2381 0.950 . S
H2374 C2379 0.950 . S
H2375 C2380 0.949 . S
H2376 C2382 0.950 . S
H2377 C2383 0.950 . S
H2378 C2384 0.949 . S
C2379 H2374 0.950 . S
C2379 C2381 1.327 . S
C2379 C2385 1.429 . S
C2380 C2372 1.574 . S
C2380 H2375 0.949 . S
C2380 C2386 1.368 . S
C2381 C2365 1.349 . S
C2381 H2373 0.950 . S
C2381 C2379 1.327 . S
C2382 C2370 1.349 . S
C2382 H2376 0.950 . S
C2382 C2383 1.327 . S
C2383 H2377 0.950 . S
C2383 C2382 1.327 . S
C2383 C2387 1.429 . S
C2384 C2367 1.574 . S
C2384 H2378 0.949 . S
C2384 C2388 1.368 . S
C2385 C2366 1.429 . S
C2385 C2379 1.429 . S
C2385 C2386 1.523 . S
C2386 C2367 1.368 . S
C2386 C2380 1.368 . S
C2386 C2385 1.523 . S
C2387 C2371 1.429 . S
C2387 C2383 1.429 . S
C2387 C2388 1.523 . S
C2388 C2372 1.368 . S
C2388 C2384 1.368 . S
C2388 C2387 1.523 . S
H2389 C2364 0.950 . S
H2390 C2366 0.950 . S
H2391 C2367 0.949 . S
H2392 C2369 0.950 . S
H2393 C2371 0.950 . S
C2394 C2395 1.349 . S
C2394 C2396 1.327 . S
C2394 H2419 0.950 . S
C2395 C2394 1.349 . S
C2395 C2411 1.349 . S
C2396 C2394 1.327 . S
C2396 C2415 1.429 . S
C2396 H2420 0.950 . S
C2397 C2414 1.574 . S
C2397 C2416 1.368 . S
C2397 H2421 0.949 . S
H2398 C2402 0.949 . S
C2399 C2400 1.349 . S
C2399 C2401 1.327 . S
C2399 H2422 0.950 . S
C2400 C2399 1.349 . S
C2400 C2412 1.349 . S
C2401 C2399 1.327 . S
C2401 C2417 1.429 . S
C2401 H2423 0.950 . S
C2402 H2398 0.949 . S
C2402 C2410 1.574 . S
C2402 C2418 1.368 . S
H2403 C2411 0.950 . S
H2404 C2409 0.950 . S
H2405 C2410 0.949 . S
H2406 C2412 0.950 . S
H2407 C2413 0.950 . S
H2408 C2414 0.949 . S
C2409 H2404 0.950 . S
C2409 C2411 1.327 . S
C2409 C2415 1.429 . S
C2410 C2402 1.574 . S
C2410 H2405 0.949 . S
C2410 C2416 1.368 . S
C2411 C2395 1.349 . S
C2411 H2403 0.950 . S
C2411 C2409 1.327 . S
C2412 C2400 1.349 . S
C2412 H2406 0.950 . S
C2412 C2413 1.327 . S
C2413 H2407 0.950 . S
C2413 C2412 1.327 . S
C2413 C2417 1.429 . S
C2414 C2397 1.574 . S
C2414 H2408 0.949 . S
C2414 C2418 1.368 . S
C2415 C2396 1.429 . S
C2415 C2409 1.429 . S
C2415 C2416 1.523 . S
C2416 C2397 1.368 . S
C2416 C2410 1.368 . S
C2416 C2415 1.523 . S
C2417 C2401 1.429 . S
C2417 C2413 1.429 . S
C2417 C2418 1.523 . S
C2418 C2402 1.368 . S
C2418 C2414 1.368 . S
C2418 C2417 1.523 . S
H2419 C2394 0.950 . S
H2420 C2396 0.950 . S
H2421 C2397 0.949 . S
H2422 C2399 0.950 . S
H2423 C2401 0.950 . S
C2424 C2425 1.349 . S
C2424 C2426 1.327 . S
C2424 H2449 0.950 . S
C2425 C2424 1.349 . S
C2425 C2441 1.349 . S
C2426 C2424 1.327 . S
C2426 C2445 1.429 . S
C2426 H2450 0.950 . S
C2427 C2444 1.574 . S
C2427 C2446 1.368 . S
C2427 H2451 0.949 . S
H2428 C2432 0.949 . S
C2429 C2430 1.349 . S
C2429 C2431 1.327 . S
C2429 H2452 0.950 . S
C2430 C2429 1.349 . S
C2430 C2442 1.349 . S
C2431 C2429 1.327 . S
C2431 C2447 1.429 . S
C2431 H2453 0.950 . S
C2432 H2428 0.949 . S
C2432 C2440 1.574 . S
C2432 C2448 1.368 . S
H2433 C2441 0.950 . S
H2434 C2439 0.950 . S
H2435 C2440 0.949 . S
H2436 C2442 0.950 . S
H2437 C2443 0.950 . S
H2438 C2444 0.949 . S
C2439 H2434 0.950 . S
C2439 C2441 1.327 . S
C2439 C2445 1.429 . S
C2440 C2432 1.574 . S
C2440 H2435 0.949 . S
C2440 C2446 1.368 . S
C2441 C2425 1.349 . S
C2441 H2433 0.950 . S
C2441 C2439 1.327 . S
C2442 C2430 1.349 . S
C2442 H2436 0.950 . S
C2442 C2443 1.327 . S
C2443 H2437 0.950 . S
C2443 C2442 1.327 . S
C2443 C2447 1.429 . S
C2444 C2427 1.574 . S
C2444 H2438 0.949 . S
C2444 C2448 1.368 . S
C2445 C2426 1.429 . S
C2445 C2439 1.429 . S
C2445 C2446 1.523 . S
C2446 C2427 1.368 . S
C2446 C2440 1.368 . S
C2446 C2445 1.523 . S
C2447 C2431 1.429 . S
C2447 C2443 1.429 . S
C2447 C2448 1.523 . S
C2448 C2432 1.368 . S
C2448 C2444 1.368 . S
C2448 C2447 1.523 . S
H2449 C2424 0.950 . S
H2450 C2426 0.950 . S
H2451 C2427 0.949 . S
H2452 C2429 0.950 . S
H2453 C2431 0.950 . S
C2454 C2455 1.349 . S
C2454 C2456 1.327 . S
C2454 H2479 0.950 . S
C2455 C2454 1.349 . S
C2455 C2471 1.349 . S
C2456 C2454 1.327 . S
C2456 C2475 1.429 . S
C2456 H2480 0.950 . S
C2457 C2474 1.574 . S
C2457 C2476 1.368 . S
C2457 H2481 0.949 . S
H2458 C2462 0.949 . S
C2459 C2460 1.349 . S
C2459 C2461 1.327 . S
C2459 H2482 0.950 . S
C2460 C2459 1.349 . S
C2460 C2472 1.349 . S
C2461 C2459 1.327 . S
C2461 C2477 1.429 . S
C2461 H2483 0.950 . S
C2462 H2458 0.949 . S
C2462 C2470 1.574 . S
C2462 C2478 1.368 . S
H2463 C2471 0.950 . S
H2464 C2469 0.950 . S
H2465 C2470 0.949 . S
H2466 C2472 0.950 . S
H2467 C2473 0.950 . S
H2468 C2474 0.949 . S
C2469 H2464 0.950 . S
C2469 C2471 1.327 . S
C2469 C2475 1.429 . S
C2470 C2462 1.574 . S
C2470 H2465 0.949 . S
C2470 C2476 1.368 . S
C2471 C2455 1.349 . S
C2471 H2463 0.950 . S
C2471 C2469 1.327 . S
C2472 C2460 1.349 . S
C2472 H2466 0.950 . S
C2472 C2473 1.327 . S
C2473 H2467 0.950 . S
C2473 C2472 1.327 . S
C2473 C2477 1.429 . S
C2474 C2457 1.574 . S
C2474 H2468 0.949 . S
C2474 C2478 1.368 . S
C2475 C2456 1.429 . S
C2475 C2469 1.429 . S
C2475 C2476 1.523 . S
C2476 C2457 1.368 . S
C2476 C2470 1.368 . S
C2476 C2475 1.523 . S
C2477 C2461 1.429 . S
C2477 C2473 1.429 . S
C2477 C2478 1.523 . S
C2478 C2462 1.368 . S
C2478 C2474 1.368 . S
C2478 C2477 1.523 . S
H2479 C2454 0.950 . S
H2480 C2456 0.950 . S
H2481 C2457 0.949 . S
H2482 C2459 0.950 . S
H2483 C2461 0.950 . S
C2484 C2485 1.349 . S
C2484 C2486 1.327 . S
C2484 H2509 0.950 . S
C2485 C2484 1.349 . S
C2485 C2501 1.349 . S
C2486 C2484 1.327 . S
C2486 C2505 1.429 . S
C2486 H2510 0.950 . S
C2487 C2504 1.574 . S
C2487 C2506 1.368 . S
C2487 H2511 0.949 . S
H2488 C2492 0.949 . S
C2489 C2490 1.349 . S
C2489 C2491 1.327 . S
C2489 H2512 0.950 . S
C2490 C2489 1.349 . S
C2490 C2502 1.349 . S
C2491 C2489 1.327 . S
C2491 C2507 1.429 . S
C2491 H2513 0.950 . S
C2492 H2488 0.949 . S
C2492 C2500 1.574 . S
C2492 C2508 1.368 . S
H2493 C2501 0.950 . S
H2494 C2499 0.950 . S
H2495 C2500 0.949 . S
H2496 C2502 0.950 . S
H2497 C2503 0.950 . S
H2498 C2504 0.949 . S
C2499 H2494 0.950 . S
C2499 C2501 1.327 . S
C2499 C2505 1.429 . S
C2500 C2492 1.574 . S
C2500 H2495 0.949 . S
C2500 C2506 1.368 . S
C2501 C2485 1.349 . S
C2501 H2493 0.950 . S
C2501 C2499 1.327 . S
C2502 C2490 1.349 . S
C2502 H2496 0.950 . S
C2502 C2503 1.327 . S
C2503 H2497 0.950 . S
C2503 C2502 1.327 . S
C2503 C2507 1.429 . S
C2504 C2487 1.574 . S
C2504 H2498 0.949 . S
C2504 C2508 1.368 . S
C2505 C2486 1.429 . S
C2505 C2499 1.429 . S
C2505 C2506 1.523 . S
C2506 C2487 1.368 . S
C2506 C2500 1.368 . S
C2506 C2505 1.523 . S
C2507 C2491 1.429 . S
C2507 C2503 1.429 . S
C2507 C2508 1.523 . S
C2508 C2492 1.368 . S
C2508 C2504 1.368 . S
C2508 C2507 1.523 . S
H2509 C2484 0.950 . S
H2510 C2486 0.950 . S
H2511 C2487 0.949 . S
H2512 C2489 0.950 . S
H2513 C2491 0.950 . S
C2514 C2515 1.349 . S
C2514 C2516 1.327 . S
C2514 H2539 0.950 . S
C2515 C2514 1.349 . S
C2515 C2531 1.349 . S
C2516 C2514 1.327 . S
C2516 C2535 1.429 . S
C2516 H2540 0.950 . S
C2517 C2534 1.574 . S
C2517 C2536 1.368 . S
C2517 H2541 0.949 . S
H2518 C2522 0.949 . S
C2519 C2520 1.349 . S
C2519 C2521 1.327 . S
C2519 H2542 0.950 . S
C2520 C2519 1.349 . S
C2520 C2532 1.349 . S
C2521 C2519 1.327 . S
C2521 C2537 1.429 . S
C2521 H2543 0.950 . S
C2522 H2518 0.949 . S
C2522 C2530 1.574 . S
C2522 C2538 1.368 . S
H2523 C2531 0.950 . S
H2524 C2529 0.950 . S
H2525 C2530 0.949 . S
H2526 C2532 0.950 . S
H2527 C2533 0.950 . S
H2528 C2534 0.949 . S
C2529 H2524 0.950 . S
C2529 C2531 1.327 . S
C2529 C2535 1.429 . S
C2530 C2522 1.574 . S
C2530 H2525 0.949 . S
C2530 C2536 1.368 . S
C2531 C2515 1.349 . S
C2531 H2523 0.950 . S
C2531 C2529 1.327 . S
C2532 C2520 1.349 . S
C2532 H2526 0.950 . S
C2532 C2533 1.327 . S
C2533 H2527 0.950 . S
C2533 C2532 1.327 . S
C2533 C2537 1.429 . S
C2534 C2517 1.574 . S
C2534 H2528 0.949 . S
C2534 C2538 1.368 . S
C2535 C2516 1.429 . S
C2535 C2529 1.429 . S
C2535 C2536 1.523 . S
C2536 C2517 1.368 . S
C2536 C2530 1.368 . S
C2536 C2535 1.523 . S
C2537 C2521 1.429 . S
C2537 C2533 1.429 . S
C2537 C2538 1.523 . S
C2538 C2522 1.368 . S
C2538 C2534 1.368 . S
C2538 C2537 1.523 . S
H2539 C2514 0.950 . S
H2540 C2516 0.950 . S
H2541 C2517 0.949 . S
H2542 C2519 0.950 . S
H2543 C2521 0.950 . S
C2544 C2545 1.349 . S
C2544 C2546 1.327 . S
C2544 H2569 0.950 . S
C2545 C2544 1.349 . S
C2545 C2561 1.349 . S
C2546 C2544 1.327 . S
C2546 C2565 1.429 . S
C2546 H2570 0.950 . S
C2547 C2564 1.574 . S
C2547 C2566 1.368 . S
C2547 H2571 0.949 . S
H2548 C2552 0.949 . S
C2549 C2550 1.349 . S
C2549 C2551 1.327 . S
C2549 H2572 0.950 . S
C2550 C2549 1.349 . S
C2550 C2562 1.349 . S
C2551 C2549 1.327 . S
C2551 C2567 1.429 . S
C2551 H2573 0.950 . S
C2552 H2548 0.949 . S
C2552 C2560 1.574 . S
C2552 C2568 1.368 . S
H2553 C2561 0.950 . S
H2554 C2559 0.950 . S
H2555 C2560 0.949 . S
H2556 C2562 0.950 . S
H2557 C2563 0.950 . S
H2558 C2564 0.949 . S
C2559 H2554 0.950 . S
C2559 C2561 1.327 . S
C2559 C2565 1.429 . S
C2560 C2552 1.574 . S
C2560 H2555 0.949 . S
C2560 C2566 1.368 . S
C2561 C2545 1.349 . S
C2561 H2553 0.950 . S
C2561 C2559 1.327 . S
C2562 C2550 1.349 . S
C2562 H2556 0.950 . S
C2562 C2563 1.327 . S
C2563 H2557 0.950 . S
C2563 C2562 1.327 . S
C2563 C2567 1.429 . S
C2564 C2547 1.574 . S
C2564 H2558 0.949 . S
C2564 C2568 1.368 . S
C2565 C2546 1.429 . S
C2565 C2559 1.429 . S
C2565 C2566 1.523 . S
C2566 C2547 1.368 . S
C2566 C2560 1.368 . S
C2566 C2565 1.523 . S
C2567 C2551 1.429 . S
C2567 C2563 1.429 . S
C2567 C2568 1.523 . S
C2568 C2552 1.368 . S
C2568 C2564 1.368 . S
C2568 C2567 1.523 . S
H2569 C2544 0.950 . S
H2570 C2546 0.950 . S
H2571 C2547 0.949 . S
H2572 C2549 0.950 . S
H2573 C2551 0.950 . S
C2574 C2575 1.349 . S
C2574 C2576 1.327 . S
C2574 H2599 0.950 . S
C2575 C2574 1.349 . S
C2575 C2591 1.349 . S
C2576 C2574 1.327 . S
C2576 C2595 1.429 . S
C2576 H2600 0.950 . S
C2577 C2594 1.574 . S
C2577 C2596 1.368 . S
C2577 H2601 0.949 . S
H2578 C2582 0.949 . S
C2579 C2580 1.349 . S
C2579 C2581 1.327 . S
C2579 H2602 0.950 . S
C2580 C2579 1.349 . S
C2580 C2592 1.349 . S
C2581 C2579 1.327 . S
C2581 C2597 1.429 . S
C2581 H2603 0.950 . S
C2582 H2578 0.949 . S
C2582 C2590 1.574 . S
C2582 C2598 1.368 . S
H2583 C2591 0.950 . S
H2584 C2589 0.950 . S
H2585 C2590 0.949 . S
H2586 C2592 0.950 . S
H2587 C2593 0.950 . S
H2588 C2594 0.949 . S
C2589 H2584 0.950 . S
C2589 C2591 1.327 . S
C2589 C2595 1.429 . S
C2590 C2582 1.574 . S
C2590 H2585 0.949 . S
C2590 C2596 1.368 . S
C2591 C2575 1.349 . S
C2591 H2583 0.950 . S
C2591 C2589 1.327 . S
C2592 C2580 1.349 . S
C2592 H2586 0.950 . S
C2592 C2593 1.327 . S
C2593 H2587 0.950 . S
C2593 C2592 1.327 . S
C2593 C2597 1.429 . S
C2594 C2577 1.574 . S
C2594 H2588 0.949 . S
C2594 C2598 1.368 . S
C2595 C2576 1.429 . S
C2595 C2589 1.429 . S
C2595 C2596 1.523 . S
C2596 C2577 1.368 . S
C2596 C2590 1.368 . S
C2596 C2595 1.523 . S
C2597 C2581 1.429 . S
C2597 C2593 1.429 . S
C2597 C2598 1.523 . S
C2598 C2582 1.368 . S
C2598 C2594 1.368 . S
C2598 C2597 1.523 . S
H2599 C2574 0.950 . S
H2600 C2576 0.950 . S
H2601 C2577 0.949 . S
H2602 C2579 0.950 . S
H2603 C2581 0.950 . S
C2604 C2605 1.349 . S
C2604 C2606 1.327 . S
C2604 H2629 0.950 . S
C2605 C2604 1.349 . S
C2605 C2621 1.349 . S
C2606 C2604 1.327 . S
C2606 C2625 1.429 . S
C2606 H2630 0.950 . S
C2607 C2624 1.574 . S
C2607 C2626 1.368 . S
C2607 H2631 0.949 . S
H2608 C2612 0.949 . S
C2609 C2610 1.349 . S
C2609 C2611 1.327 . S
C2609 H2632 0.950 . S
C2610 C2609 1.349 . S
C2610 C2622 1.349 . S
C2611 C2609 1.327 . S
C2611 C2627 1.429 . S
C2611 H2633 0.950 . S
C2612 H2608 0.949 . S
C2612 C2620 1.574 . S
C2612 C2628 1.368 . S
H2613 C2621 0.950 . S
H2614 C2619 0.950 . S
H2615 C2620 0.949 . S
H2616 C2622 0.950 . S
H2617 C2623 0.950 . S
H2618 C2624 0.949 . S
C2619 H2614 0.950 . S
C2619 C2621 1.327 . S
C2619 C2625 1.429 . S
C2620 C2612 1.574 . S
C2620 H2615 0.949 . S
C2620 C2626 1.368 . S
C2621 C2605 1.349 . S
C2621 H2613 0.950 . S
C2621 C2619 1.327 . S
C2622 C2610 1.349 . S
C2622 H2616 0.950 . S
C2622 C2623 1.327 . S
C2623 H2617 0.950 . S
C2623 C2622 1.327 . S
C2623 C2627 1.429 . S
C2624 C2607 1.574 . S
C2624 H2618 0.949 . S
C2624 C2628 1.368 . S
C2625 C2606 1.429 . S
C2625 C2619 1.429 . S
C2625 C2626 1.523 . S
C2626 C2607 1.368 . S
C2626 C2620 1.368 . S
C2626 C2625 1.523 . S
C2627 C2611 1.429 . S
C2627 C2623 1.429 . S
C2627 C2628 1.523 . S
C2628 C2612 1.368 . S
C2628 C2624 1.368 . S
C2628 C2627 1.523 . S
H2629 C2604 0.950 . S
H2630 C2606 0.950 . S
H2631 C2607 0.949 . S
H2632 C2609 0.950 . S
H2633 C2611 0.950 . S
C2634 C2635 1.349 . S
C2634 C2636 1.327 . S
C2634 H2659 0.950 . S
C2635 C2634 1.349 . S
C2635 C2651 1.349 . S
C2636 C2634 1.327 . S
C2636 C2655 1.429 . S
C2636 H2660 0.950 . S
C2637 C2654 1.574 . S
C2637 C2656 1.368 . S
C2637 H2661 0.949 . S
H2638 C2642 0.949 . S
C2639 C2640 1.349 . S
C2639 C2641 1.327 . S
C2639 H2662 0.950 . S
C2640 C2639 1.349 . S
C2640 C2652 1.349 . S
C2641 C2639 1.327 . S
C2641 C2657 1.429 . S
C2641 H2663 0.950 . S
C2642 H2638 0.949 . S
C2642 C2650 1.574 . S
C2642 C2658 1.368 . S
H2643 C2651 0.950 . S
H2644 C2649 0.950 . S
H2645 C2650 0.949 . S
H2646 C2652 0.950 . S
H2647 C2653 0.950 . S
H2648 C2654 0.949 . S
C2649 H2644 0.950 . S
C2649 C2651 1.327 . S
C2649 C2655 1.429 . S
C2650 C2642 1.574 . S
C2650 H2645 0.949 . S
C2650 C2656 1.368 . S
C2651 C2635 1.349 . S
C2651 H2643 0.950 . S
C2651 C2649 1.327 . S
C2652 C2640 1.349 . S
C2652 H2646 0.950 . S
C2652 C2653 1.327 . S
C2653 H2647 0.950 . S
C2653 C2652 1.327 . S
C2653 C2657 1.429 . S
C2654 C2637 1.574 . S
C2654 H2648 0.949 . S
C2654 C2658 1.368 . S
C2655 C2636 1.429 . S
C2655 C2649 1.429 . S
C2655 C2656 1.523 . S
C2656 C2637 1.368 . S
C2656 C2650 1.368 . S
C2656 C2655 1.523 . S
C2657 C2641 1.429 . S
C2657 C2653 1.429 . S
C2657 C2658 1.523 . S
C2658 C2642 1.368 . S
C2658 C2654 1.368 . S
C2658 C2657 1.523 . S
H2659 C2634 0.950 . S
H2660 C2636 0.950 . S
H2661 C2637 0.949 . S
H2662 C2639 0.950 . S
H2663 C2641 0.950 . S
C505 C7 1.443 . S
C510 C259 1.443 . S
C535 C273 1.443 . S
C540 C21 1.443 . S
C565 C287 1.443 . S
C570 C35 1.443 . S
C595 C49 1.443 . S
C600 C469 1.443 . S
C625 C63 1.443 . S
C630 C483 1.443 . S
C655 C77 1.443 . S
C660 C497 1.443 . S
C685 C343 1.443 . S
C690 C91 1.443 . S
C715 C105 1.443 . S
C720 C357 1.443 . S
C745 C119 1.443 . S
C750 C371 1.443 . S
C775 C217 1.443 . S
C780 C133 1.443 . S
C805 C231 1.443 . S
C810 C147 1.443 . S
C835 C245 1.443 . S
C840 C161 1.443 . S
C865 C427 1.442 . S
C870 C175 1.442 . S
C895 C441 1.443 . S
C900 C189 1.443 . S
C925 C203 1.443 . S
C930 C455 1.443 . S
C955 C385 1.442 . S
C960 C301 1.442 . S
C985 C315 1.443 . S
C990 C399 1.443 . S
C1015 C329 1.443 . S
C1020 C413 1.443 . S
C1045 C6 1.416 1_565 S
C1050 C384 1.448 . S
C1075 C398 1.448 . S
C1080 C20 1.451 1_455 S
C1105 C412 1.448 . S
C1110 C34 1.448 . S
C1135 C174 1.448 . S
C1140 C48 1.416 1_655 S
C1165 C188 1.449 . S
C1170 C62 1.449 . S
C1195 C202 1.447 . S
C1200 C76 1.451 1_545 S
C1225 C90 1.416 1_545 S
C1230 C300 1.448 . S
C1255 C314 1.448 . S
C1260 C104 1.451 1_655 S
C1285 C328 1.448 . S
C1290 C118 1.448 . S
C1315 C132 1.416 1_455 S
C1320 C426 1.448 . S
C1345 C146 1.449 . S
C1350 C440 1.449 . S
C1375 C160 1.451 1_565 S
C1380 C454 1.447 . S
C1405 C216 1.448 . S
C1410 C342 1.448 . S
C1435 C230 1.448 . S
C1440 C356 1.448 . S
C1465 C244 1.448 . S
C1470 C370 1.448 . S
C1495 C258 1.448 . S
C1500 C468 1.448 . S
C1525 C482 1.448 . S
C1530 C272 1.448 . S
C1555 C286 1.448 . S
C1560 C496 1.448 . S
C1585 C22 1.084 . S
C1590 C9 1.076 . S
C1615 C23 1.076 . S
C1620 C36 1.084 . S
C1645 C37 1.076 . S
C1650 C8 1.084 . S
C1675 C51 1.076 . S
C1680 C78 1.084 . S
C1705 C50 1.084 . S
C1710 C65 1.076 . S
C1735 C79 1.076 . S
C1740 C64 1.084 . S
C1765 C93 1.076 . S
C1770 C106 1.084 . S
C1795 C107 1.076 . S
C1800 C120 1.084 . S
C1825 C121 1.076 . S
C1830 C92 1.084 . S
C1855 C162 1.084 . S
C1860 C135 1.076 . S
C1885 C149 1.076 . S
C1890 C134 1.084 . S
C1915 C148 1.084 . S
C1920 C163 1.076 . S
C1945 C190 1.084 . S
C1950 C177 1.076 . S
C1975 C204 1.084 . S
C1980 C191 1.076 . S
C2005 C176 1.084 . S
C2010 C205 1.076 . S
C2035 C219 1.076 . S
C2040 C246 1.084 . S
C2065 C233 1.076 . S
C2070 C218 1.084 . S
C2095 C247 1.076 . S
C2100 C232 1.084 . S
C2125 C274 1.084 . S
C2130 C261 1.076 . S
C2155 C275 1.076 . S
C2160 C288 1.084 . S
C2185 C289 1.076 . S
C2190 C260 1.084 . S
C2215 C303 1.076 . S
C2220 C330 1.084 . S
C2245 C317 1.076 . S
C2250 C302 1.084 . S
C2275 C316 1.084 . S
C2280 C331 1.076 . S
C2305 C358 1.084 . S
C2310 C345 1.076 . S
C2335 C359 1.076 . S
C2340 C372 1.084 . S
C2365 C344 1.084 . S
C2370 C373 1.076 . S
C2395 C387 1.076 . S
C2400 C414 1.084 . S
C2425 C401 1.076 . S
C2430 C386 1.084 . S
C2455 C415 1.076 . S
C2460 C400 1.084 . S
C2485 C429 1.076 . S
C2490 C442 1.084 . S
C2515 C443 1.076 . S
C2520 C456 1.084 . S
C2545 C457 1.076 . S
C2550 C428 1.084 . S
C2575 C471 1.076 . S
C2580 C498 1.084 . S
C2605 C485 1.076 . S
C2610 C470 1.084 . S
C2635 C484 1.084 . S
C2640 C499 1.076 . S
