# Generated by pormake.
# Topology fst, (5)-cn, num edge types: 1
# Building blocks:
#     Node 0, Type 0, BuildingBlock: BEQFEK_clean_sbu_0, # of connection points: 5
#     Node 1, Type 0, BuildingBlock: BEQFEK_clean_sbu_0, # of connection points: 5
#     Node 2, Type 0, BuildingBlock: BEQFEK_clean_sbu_0, # of connection points: 5
#     Node 3, Type 0, BuildingBlock: BEQFEK_clean_sbu_0, # of connection points: 5
#     Node 4, Type 0, BuildingBlock: BEQFEK_clean_sbu_0, # of connection points: 5
#     Node 5, Type 0, BuildingBlock: BEQFEK_clean_sbu_0, # of connection points: 5
#     Node 6, Type 0, BuildingBlock: BEQFEK_clean_sbu_0, # of connection points: 5
#     Node 7, Type 0, BuildingBlock: BEQFEK_clean_sbu_0, # of connection points: 5
#     Node 8, Type 0, BuildingBlock: BEQFEK_clean_sbu_0, # of connection points: 5
#     Node 9, Type 0, BuildingBlock: BEQFEK_clean_sbu_0, # of connection points: 5
#     Node 10, Type 0, BuildingBlock: BEQFEK_clean_sbu_0, # of connection points: 5
#     Node 11, Type 0, BuildingBlock: BEQFEK_clean_sbu_0, # of connection points: 5
#     Edge 12, Type (0, 0), BuildingBlock: XUDNAN_clean_linker_2, # of connection points: 2
#     Edge 13, Type (0, 0), BuildingBlock: XUDNAN_clean_linker_2, # of connection points: 2
#     Edge 14, Type (0, 0), BuildingBlock: XUDNAN_clean_linker_2, # of connection points: 2
#     Edge 15, Type (0, 0), BuildingBlock: XUDNAN_clean_linker_2, # of connection points: 2
#     Edge 16, Type (0, 0), BuildingBlock: XUDNAN_clean_linker_2, # of connection points: 2
#     Edge 17, Type (0, 0), BuildingBlock: XUDNAN_clean_linker_2, # of connection points: 2
#     Edge 18, Type (0, 0), BuildingBlock: XUDNAN_clean_linker_2, # of connection points: 2
#     Edge 19, Type (0, 0), BuildingBlock: XUDNAN_clean_linker_2, # of connection points: 2
#     Edge 20, Type (0, 0), BuildingBlock: XUDNAN_clean_linker_2, # of connection points: 2
#     Edge 21, Type (0, 0), BuildingBlock: XUDNAN_clean_linker_2, # of connection points: 2
#     Edge 22, Type (0, 0), BuildingBlock: XUDNAN_clean_linker_2, # of connection points: 2
#     Edge 23, Type (0, 0), BuildingBlock: XUDNAN_clean_linker_2, # of connection points: 2
#     Edge 24, Type (0, 0), BuildingBlock: XUDNAN_clean_linker_2, # of connection points: 2
#     Edge 25, Type (0, 0), BuildingBlock: XUDNAN_clean_linker_2, # of connection points: 2
#     Edge 26, Type (0, 0), BuildingBlock: XUDNAN_clean_linker_2, # of connection points: 2
#     Edge 27, Type (0, 0), BuildingBlock: XUDNAN_clean_linker_2, # of connection points: 2
#     Edge 28, Type (0, 0), BuildingBlock: XUDNAN_clean_linker_2, # of connection points: 2
#     Edge 29, Type (0, 0), BuildingBlock: XUDNAN_clean_linker_2, # of connection points: 2
#     Edge 30, Type (0, 0), BuildingBlock: XUDNAN_clean_linker_2, # of connection points: 2
#     Edge 31, Type (0, 0), BuildingBlock: XUDNAN_clean_linker_2, # of connection points: 2
#     Edge 32, Type (0, 0), BuildingBlock: XUDNAN_clean_linker_2, # of connection points: 2
#     Edge 33, Type (0, 0), BuildingBlock: XUDNAN_clean_linker_2, # of connection points: 2
#     Edge 34, Type (0, 0), BuildingBlock: XUDNAN_clean_linker_2, # of connection points: 2
#     Edge 35, Type (0, 0), BuildingBlock: XUDNAN_clean_linker_2, # of connection points: 2
#     Edge 36, Type (0, 0), BuildingBlock: XUDNAN_clean_linker_2, # of connection points: 2
#     Edge 37, Type (0, 0), BuildingBlock: XUDNAN_clean_linker_2, # of connection points: 2
#     Edge 38, Type (0, 0), BuildingBlock: XUDNAN_clean_linker_2, # of connection points: 2
#     Edge 39, Type (0, 0), BuildingBlock: XUDNAN_clean_linker_2, # of connection points: 2
#     Edge 40, Type (0, 0), BuildingBlock: XUDNAN_clean_linker_2, # of connection points: 2
#     Edge 41, Type (0, 0), BuildingBlock: XUDNAN_clean_linker_2, # of connection points: 2
# Relax obj value: 0.025
# Max RMSD: 0.072
# Mean RMSD: 0.072
data_MOF--net-fst--node1-BEQFEK_clean_sbu_0--edge1-XUDNAN_clean_linker_2
_symmetry_space_group_name_H-M    P1
_symmetry_Int_Tables_number       1
_symmetry_cell_setting            triclinic
loop_
_symmetry_equiv_pos_as_xyz
'x, y, z'
_cell_length_a     74.797312
_cell_length_b     74.804236
_cell_length_c     19.558919
_cell_angle_alpha  89.949945
_cell_angle_beta   90.028424
_cell_angle_gamma 119.93925
loop_
_atom_site_label
_atom_site_type_symbol
_atom_site_fract_x
_atom_site_fract_y
_atom_site_fract_z
_atom_type_partial_charge
Co0 Co 0.11466 0.45994 0.24297 0.0
Co1 Co 0.11721 0.45977 0.08172 0.0
C2 C 0.07793 0.43189 0.15386 0.0
O3 O 0.08611 0.43933 0.21174 0.0
O4 O 0.08835 0.43809 0.09876 0.0
C5 C 0.10297 0.44052 0.37472 0.0
O6 O 0.08948 0.42491 0.3379 0.0
C7 C 0.11453 0.44784 0.9359 0.0
C8 C 0.13506 0.47814 0.88857 0.0
C9 C 0.12176 0.45758 0.87268 0.0
N10 N 0.12297 0.46211 0.98561 0.0
N11 N 0.13533 0.48013 0.95689 0.0
C12 C 0.10053 0.42541 0.95035 0.0
H13 H 0.103 0.42168 0.00323 0.0
H14 H 0.10334 0.41579 0.91353 0.0
H15 H 0.08427 0.42176 0.94588 0.0
C16 C 0.14912 0.45082 0.22594 0.0
N17 N 0.13474 0.45481 0.20008 0.0
N18 N 0.1356 0.45461 0.13283 0.0
C19 C 0.15048 0.45052 0.11377 0.0
C20 C 0.15953 0.44787 0.17206 0.0
C21 C 0.15198 0.44884 0.30074 0.0
H22 H 0.15532 0.46331 0.32708 0.0
H23 H 0.13742 0.43619 0.32227 0.0
H24 H 0.16459 0.44547 0.31081 0.0
O25 O 0.11995 0.48842 0.22087 0.0
O26 O 0.12069 0.48666 0.10784 0.0
H27 H 0.15921 0.46448 0.0149 0.0
H28 H 0.17068 0.44905 0.03693 0.0
C29 C 0.15649 0.45018 0.04097 0.0
H30 H 0.14364 0.43689 0.01429 0.0
H31 H 0.14361 0.49391 0.9839 0.0
O32 O 0.11565 0.45724 0.34476 0.0
C33 C 0.12174 0.49652 0.16202 0.0
Co34 Co 0.66424 0.11733 0.27104 0.0
Co35 Co 0.65521 0.11342 0.11315 0.0
C36 C 0.65197 0.07793 0.19357 0.0
O37 O 0.65712 0.08895 0.24742 0.0
O38 O 0.65058 0.08518 0.13588 0.0
C39 C 0.66447 0.10853 0.41247 0.0
O40 O 0.64932 0.09043 0.39334 0.0
C41 C 0.6605 0.11106 0.96334 0.0
C42 C 0.6474 0.12999 0.92577 0.0
C43 C 0.65717 0.1194 0.90469 0.0
N44 N 0.6531 0.11661 0.01704 0.0
N45 N 0.64497 0.1276 0.99389 0.0
C46 C 0.67217 0.09971 0.96883 0.0
H47 H 0.67673 0.09939 0.02263 0.0
H48 H 0.68605 0.10706 0.93561 0.0
H49 H 0.6622 0.08365 0.95069 0.0
C50 C 0.70311 0.15339 0.22558 0.0
N51 N 0.68494 0.13634 0.21214 0.0
N52 N 0.68133 0.13506 0.14592 0.0
C53 C 0.69715 0.15156 0.11525 0.0
C54 C 0.71149 0.16363 0.16462 0.0
C55 C 0.71098 0.16078 0.29626 0.0
H56 H 0.69934 0.16279 0.32515 0.0
H57 H 0.7131 0.1489 0.32319 0.0
H58 H 0.72582 0.17558 0.29573 0.0
O59 O 0.63936 0.12018 0.26481 0.0
O60 O 0.63251 0.11649 0.15377 0.0
H61 H 0.68474 0.15816 0.02652 0.0
H62 H 0.71258 0.1707 0.02711 0.0
C63 C 0.69812 0.15638 0.04064 0.0
H64 H 0.69735 0.14345 0.01075 0.0
H65 H 0.63853 0.13423 0.02503 0.0
O66 O 0.67356 0.12257 0.36772 0.0
C67 C 0.6282 0.11931 0.21433 0.0
Co68 Co 0.54344 0.65497 0.28848 0.0
Co69 Co 0.54726 0.65808 0.12744 0.0
C70 C 0.57377 0.64701 0.20744 0.0
O71 O 0.56485 0.64806 0.26149 0.0
O72 O 0.56898 0.65078 0.14873 0.0
C73 C 0.56318 0.66603 0.41814 0.0
O74 O 0.57946 0.67169 0.37933 0.0
C75 C 0.55918 0.66712 0.98066 0.0
C76 C 0.52877 0.65799 0.93522 0.0
C77 C 0.5492 0.66496 0.91803 0.0
N78 N 0.54513 0.6614 0.03115 0.0
N79 N 0.52706 0.65611 0.00348 0.0
C80 C 0.58162 0.67528 0.99401 0.0
H81 H 0.58546 0.68079 0.04758 0.0
H82 H 0.59117 0.68816 0.95855 0.0
H83 H 0.58525 0.66273 0.98656 0.0
C84 C 0.54806 0.69631 0.26906 0.0
N85 N 0.54836 0.67968 0.24435 0.0
N86 N 0.55071 0.68144 0.17749 0.0
C87 C 0.55203 0.69935 0.15763 0.0
C88 C 0.5503 0.70935 0.21503 0.0
C89 C 0.54474 0.69907 0.34288 0.0
H90 H 0.55738 0.69942 0.37357 0.0
H91 H 0.54454 0.7136 0.35205 0.0
H92 H 0.53002 0.68571 0.36049 0.0
O93 O 0.51559 0.63157 0.26337 0.0
O94 O 0.5201 0.63444 0.151 0.0
H95 H 0.53695 0.69468 0.06124 0.0
H96 H 0.55514 0.72133 0.07954 0.0
C97 C 0.55215 0.70531 0.08451 0.0
H98 H 0.56411 0.70374 0.05601 0.0
H99 H 0.51346 0.65093 0.03126 0.0
O100 O 0.54552 0.65869 0.39014 0.0
C101 C 0.50898 0.62544 0.20295 0.0
Co102 Co 0.89195 0.54927 0.2935 0.0
Co103 Co 0.89021 0.54341 0.13251 0.0
C104 C 0.9288 0.57473 0.20404 0.0
O105 O 0.92051 0.56954 0.26299 0.0
O106 O 0.9187 0.56614 0.14982 0.0
C107 C 0.90223 0.56927 0.42572 0.0
O108 O 0.91667 0.5847 0.3906 0.0
C109 C 0.89295 0.55459 0.98619 0.0
C110 C 0.87692 0.52395 0.93707 0.0
C111 C 0.88742 0.5449 0.92237 0.0
N112 N 0.88616 0.54001 0.03523 0.0
N113 N 0.87656 0.52174 0.00543 0.0
C114 C 0.90357 0.57717 0.00174 0.0
H115 H 0.90002 0.57972 0.05473 0.0
H116 H 0.89872 0.58528 0.96513 0.0
H117 H 0.9205 0.5837 0.99772 0.0
C118 C 0.85707 0.55643 0.26082 0.0
N119 N 0.87186 0.55215 0.24182 0.0
N120 N 0.87088 0.54931 0.1751 0.0
C121 C 0.85537 0.55157 0.14973 0.0
C122 C 0.84617 0.55629 0.20303 0.0
C123 C 0.85411 0.56132 0.33265 0.0
H124 H 0.84857 0.54726 0.3646 0.0
H125 H 0.86915 0.57326 0.35372 0.0
H126 H 0.84292 0.56692 0.33554 0.0
O127 O 0.88774 0.52109 0.28159 0.0
O128 O 0.88722 0.51728 0.16891 0.0
H129 H 0.84876 0.53419 0.05688 0.0
H130 H 0.833 0.54587 0.07008 0.0
C131 C 0.8487 0.54805 0.07645 0.0
H132 H 0.8597 0.56154 0.04563 0.0
H133 H 0.86992 0.50774 0.03176 0.0
O134 O 0.8895 0.55291 0.39422 0.0
C135 C 0.88637 0.5104 0.22912 0.0
Co136 Co 0.35034 0.89091 0.27498 0.0
Co137 Co 0.34745 0.88935 0.11558 0.0
C138 C 0.35716 0.92772 0.18845 0.0
O139 O 0.35676 0.91929 0.24569 0.0
O140 O 0.35323 0.91772 0.13249 0.0
C141 C 0.35227 0.90198 0.42023 0.0
O142 O 0.3658 0.92107 0.40352 0.0
C143 C 0.34035 0.89045 0.96627 0.0
C144 C 0.3416 0.86271 0.93449 0.0
C145 C 0.33856 0.87834 0.91014 0.0
N146 N 0.34411 0.88214 0.02158 0.0
N147 N 0.3451 0.86576 0.00193 0.0
C148 C 0.33751 0.90885 0.96824 0.0
H149 H 0.32938 0.90868 0.01592 0.0
H150 H 0.32873 0.90925 0.92303 0.0
H151 H 0.35289 0.92304 0.96848 0.0
C152 C 0.30932 0.85271 0.25709 0.0
N153 N 0.32588 0.86978 0.23204 0.0
N154 N 0.32425 0.86985 0.16513 0.0
C155 C 0.30649 0.85311 0.14571 0.0
C156 C 0.29652 0.84155 0.20316 0.0
C157 C 0.30695 0.84612 0.33025 0.0
H158 H 0.3219 0.84863 0.35033 0.0
H159 H 0.30233 0.85574 0.36027 0.0
H160 H 0.29503 0.82966 0.3367 0.0
O161 O 0.37444 0.88709 0.25448 0.0
O162 O 0.37156 0.88707 0.14182 0.0
H163 H 0.30682 0.83965 0.04976 0.0
H164 H 0.28239 0.83737 0.07103 0.0
C165 C 0.29937 0.84776 0.07327 0.0
H166 H 0.30359 0.86196 0.04363 0.0
H167 H 0.34782 0.85641 0.03504 0.0
O168 O 0.34498 0.8881 0.37442 0.0
C169 C 0.38076 0.88601 0.19496 0.0
Co170 Co 0.45741 0.34577 0.28863 0.0
Co171 Co 0.46143 0.34595 0.12731 0.0
C172 C 0.43172 0.35623 0.1971 0.0
O173 O 0.43738 0.35416 0.25664 0.0
O174 O 0.43953 0.35321 0.14342 0.0
C175 C 0.43748 0.33367 0.42091 0.0
O176 O 0.42043 0.32657 0.38497 0.0
C177 C 0.45178 0.34066 0.97815 0.0
C178 C 0.47843 0.33887 0.93785 0.0
C179 C 0.46031 0.33818 0.91805 0.0
N180 N 0.46413 0.34232 0.0309 0.0
N181 N 0.48008 0.34138 0.00616 0.0
C182 C 0.43339 0.34344 0.98516 0.0
H183 H 0.42099 0.33 0.01281 0.0
H184 H 0.42758 0.34525 0.93502 0.0
H185 H 0.43768 0.35747 0.01576 0.0
C186 C 0.44896 0.30284 0.26867 0.0
N187 N 0.45316 0.32136 0.2439 0.0
N188 N 0.45486 0.32132 0.1768 0.0
C189 C 0.4515 0.30259 0.15694 0.0
C190 C 0.44771 0.29032 0.21447 0.0
C191 C 0.44747 0.29773 0.34319 0.0
H192 H 0.45994 0.31087 0.37156 0.0
H193 H 0.43243 0.295 0.36304 0.0
H194 H 0.44871 0.28375 0.35245 0.0
O195 O 0.48576 0.3682 0.27067 0.0
O196 O 0.48868 0.36929 0.15753 0.0
H197 H 0.46703 0.30311 0.06482 0.0
H198 H 0.44338 0.2792 0.07923 0.0
C199 C 0.451 0.29622 0.08416 0.0
H200 H 0.4426 0.3019 0.05235 0.0
H201 H 0.49213 0.34246 0.03603 0.0
O202 O 0.45475 0.3421 0.38999 0.0
C203 C 0.49622 0.37611 0.21654 0.0
Co204 Co 0.55053 0.89037 0.12507 0.0
Co205 Co 0.54527 0.88942 0.2862 0.0
C206 C 0.57666 0.9275 0.21295 0.0
O207 O 0.57111 0.91883 0.15471 0.0
O208 O 0.56829 0.91777 0.26797 0.0
C209 C 0.57072 0.89997 0.99331 0.0
O210 O 0.58645 0.91383 0.02886 0.0
C211 C 0.55642 0.89229 0.43269 0.0
C212 C 0.52574 0.87575 0.48147 0.0
C213 C 0.54667 0.88652 0.4964 0.0
N214 N 0.54189 0.88535 0.3835 0.0
N215 N 0.5236 0.87547 0.41311 0.0
C216 C 0.57902 0.90303 0.41729 0.0
H217 H 0.58165 0.89948 0.36439 0.0
H218 H 0.58718 0.89826 0.454 0.0
H219 H 0.58545 0.91994 0.42122 0.0
C220 C 0.55344 0.85312 0.1567 0.0
N221 N 0.55266 0.86995 0.17673 0.0
N222 N 0.55019 0.86935 0.24357 0.0
C223 C 0.54933 0.8521 0.26806 0.0
C224 C 0.55129 0.84117 0.21393 0.0
C225 C 0.55348 0.84743 0.08339 0.0
H226 H 0.54016 0.84697 0.05668 0.0
H227 H 0.56774 0.85952 0.05838 0.0
H228 H 0.55263 0.83226 0.07801 0.0
O229 O 0.52262 0.88654 0.13791 0.0
O230 O 0.51909 0.88682 0.25065 0.0
H231 H 0.53015 0.84295 0.35699 0.0
H232 H 0.5465 0.83153 0.35092 0.0
C233 C 0.54558 0.84568 0.34156 0.0
H234 H 0.55729 0.85826 0.37372 0.0
H235 H 0.50962 0.86864 0.38663 0.0
O236 O 0.55404 0.88779 0.02438 0.0
C237 C 0.51209 0.88562 0.19039 0.0
Co238 Co 0.65712 0.54289 0.12974 0.0
Co239 Co 0.66037 0.54303 0.28907 0.0
C240 C 0.64844 0.57079 0.2196 0.0
O241 O 0.64931 0.56366 0.16115 0.0
O242 O 0.6527 0.56443 0.27437 0.0
C243 C 0.65308 0.55046 0.9835 0.0
O244 O 0.63733 0.55284 0.99926 0.0
C245 C 0.66631 0.55073 0.43834 0.0
C246 C 0.67095 0.52483 0.46875 0.0
C247 C 0.67027 0.54174 0.49402 0.0
N248 N 0.66484 0.53961 0.38247 0.0
N249 N 0.6674 0.52406 0.40122 0.0
C250 C 0.6652 0.57014 0.4371 0.0
H251 H 0.67413 0.57977 0.39292 0.0
H252 H 0.67125 0.57905 0.48513 0.0
H253 H 0.64889 0.56613 0.43019 0.0
C254 C 0.70037 0.551 0.14478 0.0
N255 N 0.68236 0.54777 0.17148 0.0
N256 N 0.68407 0.54899 0.23842 0.0
C257 C 0.70331 0.55354 0.25634 0.0
C258 C 0.71427 0.55485 0.19757 0.0
C259 C 0.70375 0.54917 0.07046 0.0
H260 H 0.68979 0.53592 0.04825 0.0
H261 H 0.7066 0.56351 0.04421 0.0
H262 H 0.71714 0.5469 0.06186 0.0
O263 O 0.63411 0.51434 0.14947 0.0
O264 O 0.63734 0.51593 0.26224 0.0
H265 H 0.70749 0.54293 0.35322 0.0
H266 H 0.72849 0.56774 0.32843 0.0
C267 C 0.71146 0.55774 0.32795 0.0
H268 H 0.70446 0.56537 0.35728 0.0
H269 H 0.66702 0.51307 0.36752 0.0
O270 O 0.6622 0.54616 0.03004 0.0
C271 C 0.62834 0.50608 0.20827 0.0
Co272 Co 0.11737 0.66294 0.11765 0.0
Co273 Co 0.11623 0.65519 0.27436 0.0
C274 C 0.07926 0.65097 0.20031 0.0
O275 O 0.08934 0.65581 0.14457 0.0
O276 O 0.08756 0.65008 0.25625 0.0
C277 C 0.10948 0.65739 0.97867 0.0
O278 O 0.0971 0.63863 0.00142 0.0
C279 C 0.11586 0.66282 0.42196 0.0
C280 C 0.12567 0.64161 0.464 0.0
C281 C 0.11959 0.65563 0.48258 0.0
N282 N 0.11964 0.65347 0.36984 0.0
N283 N 0.12559 0.64091 0.39536 0.0
C284 C 0.10745 0.67712 0.41362 0.0
H285 H 0.10276 0.67722 0.35988 0.0
H286 H 0.11946 0.693 0.42777 0.0
H287 H 0.09411 0.67244 0.44839 0.0
C288 C 0.15415 0.70189 0.15513 0.0
N289 N 0.1372 0.68417 0.17268 0.0
N290 N 0.1374 0.68112 0.23886 0.0
C291 C 0.15487 0.69689 0.26544 0.0
C292 C 0.16601 0.71059 0.21312 0.0
C293 C 0.15958 0.70943 0.08306 0.0
H294 H 0.14622 0.70944 0.05846 0.0
H295 H 0.17314 0.72523 0.08083 0.0
H296 H 0.16296 0.69873 0.05393 0.0
O297 O 0.12077 0.63835 0.12275 0.0
O298 O 0.11897 0.63227 0.23411 0.0
H299 H 0.1785 0.70948 0.34371 0.0
H300 H 0.15253 0.70058 0.3726 0.0
C301 C 0.16212 0.69738 0.33708 0.0
H302 H 0.16024 0.68213 0.35056 0.0
H303 H 0.12932 0.63161 0.36593 0.0
O304 O 0.1205 0.67146 0.02108 0.0
C305 C 0.12087 0.6276 0.17307 0.0
Co306 Co 0.46255 0.11737 0.13836 0.0
Co307 Co 0.45973 0.11464 0.29791 0.0
C308 C 0.43239 0.07815 0.21533 0.0
O309 O 0.44087 0.0888 0.16182 0.0
O310 O 0.43781 0.08587 0.27511 0.0
C311 C 0.45328 0.10722 0.99507 0.0
O312 O 0.44739 0.08819 0.0137 0.0
C313 C 0.45071 0.1129 0.44751 0.0
C314 C 0.48049 0.13928 0.48104 0.0
C315 C 0.46122 0.1246 0.50414 0.0
N316 N 0.46327 0.12057 0.39298 0.0
N317 N 0.4811 0.13611 0.4138 0.0
C318 C 0.42883 0.09575 0.4444 0.0
H319 H 0.42241 0.09472 0.39243 0.0
H320 H 0.4193 0.09805 0.48307 0.0
H321 H 0.42836 0.08099 0.45583 0.0
C322 C 0.45412 0.15163 0.16483 0.0
N323 N 0.45738 0.13636 0.18643 0.0
N324 N 0.45527 0.13467 0.25323 0.0
C325 C 0.45054 0.1488 0.2764 0.0
C326 C 0.44968 0.16006 0.22112 0.0
C327 C 0.45387 0.15693 0.09119 0.0
H328 H 0.44196 0.14309 0.06387 0.0
H329 H 0.45039 0.1696 0.08454 0.0
H330 H 0.46905 0.1614 0.06781 0.0
O331 O 0.49051 0.12135 0.15899 0.0
O332 O 0.4867 0.11828 0.27129 0.0
H333 H 0.44292 0.16356 0.35824 0.0
H334 H 0.43644 0.13714 0.37377 0.0
C335 C 0.44788 0.15202 0.35042 0.0
H336 H 0.4628 0.15762 0.37711 0.0
H337 H 0.49353 0.14499 0.38145 0.0
O338 O 0.46054 0.12151 0.03951 0.0
C339 C 0.49748 0.12098 0.21807 0.0
Co340 Co 0.34521 0.45787 0.10434 0.0
Co341 Co 0.34615 0.45989 0.26235 0.0
C342 C 0.35454 0.42987 0.18949 0.0
O343 O 0.35177 0.43649 0.13263 0.0
O344 O 0.35297 0.43734 0.2465 0.0
C345 C 0.34021 0.4452 0.95952 0.0
O346 O 0.33769 0.42711 0.97665 0.0
C347 C 0.34657 0.45826 0.41466 0.0
C348 C 0.33935 0.48306 0.43546 0.0
C349 C 0.34418 0.46946 0.46695 0.0
N350 N 0.34311 0.46497 0.355 0.0
N351 N 0.33885 0.47977 0.36802 0.0
C352 C 0.35414 0.4432 0.42038 0.0
H353 H 0.36336 0.44418 0.37469 0.0
H354 H 0.34067 0.42735 0.42321 0.0
H355 H 0.36366 0.44612 0.46703 0.0
C356 C 0.30284 0.45007 0.12459 0.0
N357 N 0.32135 0.45404 0.14846 0.0
N358 N 0.32116 0.45406 0.21566 0.0
C359 C 0.30217 0.44966 0.23676 0.0
C360 C 0.29004 0.44718 0.17979 0.0
C361 C 0.29789 0.44961 0.05025 0.0
H362 H 0.31056 0.46323 0.02428 0.0
H363 H 0.29672 0.43557 0.0267 0.0
H364 H 0.28322 0.44963 0.04218 0.0
O365 O 0.36856 0.4854 0.1221 0.0
O366 O 0.37022 0.48692 0.23462 0.0
H367 H 0.29796 0.46086 0.33234 0.0
H368 H 0.27816 0.43507 0.31246 0.0
C369 C 0.29501 0.44607 0.30952 0.0
H370 H 0.30332 0.43989 0.33941 0.0
H371 H 0.33617 0.48806 0.33039 0.0
O372 O 0.34239 0.45811 0.00535 0.0
C373 C 0.3771 0.49507 0.17657 0.0
Co374 Co 0.89062 0.3521 0.101 0.0
Co375 Co 0.89012 0.34324 0.25784 0.0
C376 C 0.92766 0.35522 0.17713 0.0
O377 O 0.91809 0.35611 0.1246 0.0
O378 O 0.91901 0.35037 0.2356 0.0
C379 C 0.89376 0.3414 0.96322 0.0
O380 O 0.89551 0.32652 0.99238 0.0
C381 C 0.89662 0.34039 0.40564 0.0
C382 C 0.86495 0.32803 0.4453 0.0
C383 C 0.88508 0.33499 0.46539 0.0
N384 N 0.88377 0.33632 0.35236 0.0
N385 N 0.86491 0.32915 0.37668 0.0
C386 C 0.91955 0.35031 0.39923 0.0
H387 H 0.92572 0.36576 0.37538 0.0
H388 H 0.92336 0.34088 0.36492 0.0
H389 H 0.92701 0.35188 0.44963 0.0
C390 C 0.85248 0.31101 0.10557 0.0
N391 N 0.86948 0.32641 0.1351 0.0
N392 N 0.87034 0.32164 0.19943 0.0
C393 C 0.85444 0.30242 0.21145 0.0
C394 C 0.84232 0.29523 0.15294 0.0
C395 C 0.84612 0.31154 0.03327 0.0
H396 H 0.85417 0.30604 0.99898 0.0
H397 H 0.82935 0.30129 0.02542 0.0
H398 H 0.85057 0.32755 0.01855 0.0
O399 O 0.88763 0.37502 0.13785 0.0
O400 O 0.88777 0.36845 0.24821 0.0
H401 H 0.83764 0.29159 0.30519 0.0
H402 H 0.84561 0.27475 0.26923 0.0
C403 C 0.85045 0.29118 0.27805 0.0
H404 H 0.86451 0.29803 0.31016 0.0
H405 H 0.85214 0.32599 0.34667 0.0
O406 O 0.89071 0.35364 -0.0001 0.0
C407 C 0.88684 0.37944 0.20014 0.0
H408 H 0.1163 0.59751 0.26462 0.0
H409 H 0.1307 0.61631 0.05217 0.0
H410 H 0.13429 0.58589 0.0294 0.0
H411 H 0.15113 0.57691 0.28381 0.0
H412 H 0.13347 0.55559 0.33659 0.0
H413 H 0.13298 0.57943 0.33778 0.0
H414 H 0.09413 0.55965 0.30683 0.0
H415 H 0.09449 0.53576 0.30565 0.0
H416 H 0.08569 0.54357 0.23166 0.0
H417 H 0.13538 0.55341 0.0279 0.0
H418 H 0.13274 0.51973 0.0461 0.0
H419 H 0.11719 0.52093 0.25952 0.0
C420 C 0.12037 0.59532 0.21342 0.0
C421 C 0.12328 0.60939 0.1602 0.0
C422 C 0.12839 0.60581 0.0938 0.0
C423 C 0.13053 0.58859 0.08036 0.0
C424 C 0.1275 0.57504 0.13377 0.0
C425 C 0.12247 0.57811 0.19893 0.0
C426 C 0.11925 0.56063 0.24626 0.0
C427 C 0.13516 0.56862 0.30456 0.0
C428 C 0.09707 0.54923 0.27423 0.0
C429 C 0.12305 0.54717 0.19717 0.0
C430 C 0.12793 0.55595 0.13276 0.0
C431 C 0.13163 0.54639 0.07811 0.0
C432 C 0.13004 0.52719 0.08911 0.0
C433 C 0.12472 0.51758 0.15432 0.0
C434 C 0.12143 0.5279 0.20928 0.0
H435 H 0.59878 0.11548 0.12102 0.0
H436 H 0.61608 0.12838 0.33509 0.0
H437 H 0.58555 0.1319 0.35642 0.0
H438 H 0.57873 0.15076 0.10273 0.0
H439 H 0.55778 0.13365 0.04771 0.0
H440 H 0.58152 0.13295 0.04786 0.0
H441 H 0.56124 0.09387 0.0754 0.0
H442 H 0.53746 0.09444 0.07522 0.0
H443 H 0.54455 0.08494 0.14911 0.0
H444 H 0.553 0.13287 0.3564 0.0
H445 H 0.51955 0.1306 0.33605 0.0
H446 H 0.52256 0.11709 0.1217 0.0
C447 C 0.59623 0.11918 0.17232 0.0
C448 C 0.60991 0.12168 0.2264 0.0
C449 C 0.60589 0.12638 0.29281 0.0
C450 C 0.5886 0.12847 0.30545 0.0
C451 C 0.57545 0.12584 0.25121 0.0
C452 C 0.57898 0.12128 0.18597 0.0
C453 C 0.56194 0.11859 0.13746 0.0
C454 C 0.57051 0.13497 0.08058 0.0
C455 C 0.55063 0.09665 0.10756 0.0
C456 C 0.54818 0.12213 0.18597 0.0
C457 C 0.55641 0.12639 0.25117 0.0
C458 C 0.54642 0.12963 0.30554 0.0
C459 C 0.52736 0.12825 0.29334 0.0
C460 C 0.51836 0.12365 0.22721 0.0
C461 C 0.5291 0.12081 0.17261 0.0
H462 H 0.40526 0.51816 0.27728 0.0
H463 H 0.39028 0.51939 0.06323 0.0
H464 H 0.42113 0.55355 0.05054 0.0
H465 H 0.42652 0.57358 0.30996 0.0
H466 H 0.44679 0.57551 0.36474 0.0
H467 H 0.42265 0.55158 0.35937 0.0
H468 H 0.44221 0.53245 0.32603 0.0
H469 H 0.46639 0.55629 0.3312 0.0
H470 H 0.45941 0.54133 0.25358 0.0
H471 H 0.45389 0.58612 0.0576 0.0
H472 H 0.48769 0.61598 0.08358 0.0
H473 H 0.48277 0.59486 0.29348 0.0
C474 C 0.40836 0.52576 0.22803 0.0
C475 C 0.39529 0.51606 0.17126 0.0
C476 C 0.40003 0.52641 0.10744 0.0
C477 C 0.4175 0.54589 0.0997 0.0
C478 C 0.43015 0.55489 0.1562 0.0
C479 C 0.4259 0.54528 0.21919 0.0
C480 C 0.44277 0.55817 0.27041 0.0
C481 C 0.43416 0.56512 0.32963 0.0
C482 C 0.45332 0.54635 0.29684 0.0
C483 C 0.45725 0.57632 0.22581 0.0
C484 C 0.44947 0.57404 0.16032 0.0
C485 C 0.46012 0.58819 0.10878 0.0
C486 C 0.4794 0.6051 0.12416 0.0
C487 C 0.48796 0.60783 0.19064 0.0
C488 C 0.47657 0.59331 0.24241 0.0
H489 H 0.88712 0.40845 0.11262 0.0
H490 H 0.8827 0.39206 0.3276 0.0
H491 H 0.8807 0.42299 0.35773 0.0
H492 H 0.91921 0.46256 0.13527 0.0
H493 H 0.90702 0.46947 0.06897 0.0
H494 H 0.90714 0.44551 0.06377 0.0
H495 H 0.86726 0.42552 0.05404 0.0
H496 H 0.86702 0.44944 0.05923 0.0
H497 H 0.85208 0.42892 0.1188 0.0
H498 H 0.88043 0.45628 0.36524 0.0
H499 H 0.88207 0.48978 0.34945 0.0
H500 H 0.88658 0.48452 0.12969 0.0
C501 C 0.88557 0.41126 0.16601 0.0
C502 C 0.88505 0.39776 0.21767 0.0
C503 C 0.88314 0.40213 0.28698 0.0
C504 C 0.88196 0.41965 0.3047 0.0
C505 C 0.88265 0.43268 0.2526 0.0
C506 C 0.88439 0.4287 0.18467 0.0
C507 C 0.88538 0.44551 0.1388 0.0
C508 C 0.90591 0.45641 0.09941 0.0
C509 C 0.86683 0.43682 0.08984 0.0
C510 C 0.88414 0.45964 0.19166 0.0
C511 C 0.88249 0.4519 0.25694 0.0
C512 C 0.88161 0.46245 0.31433 0.0
C513 C 0.88257 0.48149 0.3048 0.0
C514 C 0.88442 0.48982 0.23834 0.0
C515 C 0.88505 0.47858 0.18116 0.0
H516 H 0.41042 0.89041 0.2897 0.0
H517 H 0.39226 0.87545 0.07692 0.0
H518 H 0.42288 0.87239 0.05532 0.0
H519 H 0.4643 0.92139 0.25814 0.0
H520 H 0.4723 0.91272 0.33197 0.0
H521 H 0.44817 0.91261 0.33319 0.0
H522 H 0.42888 0.87369 0.36338 0.0
H523 H 0.45298 0.8737 0.36241 0.0
H524 H 0.43189 0.85588 0.30922 0.0
H525 H 0.4559 0.8727 0.05331 0.0
H526 H 0.48984 0.87579 0.07212 0.0
H527 H 0.48748 0.89019 0.28603 0.0
C528 C 0.41279 0.88626 0.23886 0.0
C529 C 0.39889 0.88324 0.18508 0.0
C530 C 0.40267 0.87799 0.11904 0.0
C531 C 0.42002 0.87612 0.10611 0.0
C532 C 0.43354 0.87948 0.15966 0.0
C533 C 0.4302 0.88436 0.2248 0.0
C534 C 0.44773 0.88782 0.27221 0.0
C535 C 0.45878 0.90995 0.30053 0.0
C536 C 0.4399 0.87181 0.33024 0.0
C537 C 0.46146 0.8844 0.22306 0.0
C538 C 0.45286 0.87954 0.15854 0.0
C539 C 0.46277 0.87634 0.10372 0.0
C540 C 0.4821 0.87821 0.11493 0.0
C541 C 0.49136 0.8832 0.18054 0.0
C542 C 0.48076 0.8862 0.23539 0.0
H543 H 0.59746 0.48233 0.11522 0.0
H544 H 0.61947 0.48168 0.32039 0.0
H545 H 0.58926 0.44757 0.34058 0.0
H546 H 0.54482 0.45949 0.15861 0.0
H547 H 0.53508 0.44409 0.08233 0.0
H548 H 0.55944 0.46779 0.08028 0.0
H549 H 0.57737 0.44813 0.03532 0.0
H550 H 0.55302 0.42435 0.03695 0.0
H551 H 0.57488 0.42628 0.08249 0.0
H552 H 0.55586 0.41546 0.34393 0.0
H553 H 0.5209 0.38587 0.32847 0.0
H554 H 0.51972 0.40586 0.12075 0.0
C555 C 0.59608 0.47481 0.16383 0.0
C556 C 0.61087 0.48475 0.21619 0.0
C557 C 0.60834 0.4745 0.27952 0.0
C558 C 0.59126 0.45504 0.29153 0.0
C559 C 0.57677 0.44587 0.23971 0.0
C560 C 0.57896 0.45525 0.17692 0.0
C561 C 0.56042 0.44223 0.13164 0.0
C562 C 0.54929 0.45411 0.11209 0.0
C563 C 0.56681 0.43481 0.06781 0.0
C564 C 0.54738 0.4244 0.17953 0.0
C565 C 0.55724 0.42687 0.24142 0.0
C566 C 0.54804 0.41316 0.29544 0.0
C567 C 0.52812 0.39646 0.28623 0.0
C568 C 0.5176 0.39349 0.22336 0.0
C569 C 0.52749 0.40757 0.16906 0.0
H570 H 0.27341 0.46825 0.24191 0.0
H571 H 0.25799 0.41541 0.11307 0.0
H572 H 0.22196 0.40821 0.10485 0.0
H573 H 0.22377 0.44634 0.33308 0.0
H574 H 0.22388 0.47049 0.33385 0.0
H575 H 0.24791 0.47035 0.33469 0.0
H576 H 0.2599 0.49354 0.22676 0.0
H577 H 0.23595 0.49376 0.2256 0.0
H578 H 0.24395 0.48535 0.15122 0.0
H579 H 0.18834 0.40793 0.10541 0.0
H580 H 0.15958 0.41528 0.11119 0.0
H581 H 0.19689 0.46884 0.2373 0.0
C582 C 0.26229 0.45497 0.21303 0.0
C583 C 0.26829 0.44229 0.17822 0.0
C584 C 0.25357 0.42527 0.13983 0.0
C585 C 0.23311 0.42104 0.13521 0.0
C586 C 0.22768 0.434 0.16932 0.0
C587 C 0.24183 0.45065 0.20743 0.0
C588 C 0.23234 0.46294 0.23533 0.0
C589 C 0.23195 0.4625 0.31391 0.0
C590 C 0.24371 0.48521 0.20807 0.0
C591 C 0.21074 0.45081 0.20602 0.0
C592 C 0.20833 0.43404 0.16878 0.0
C593 C 0.19 0.42093 0.1348 0.0
C594 C 0.1738 0.42522 0.13821 0.0
C595 C 0.17609 0.44254 0.17481 0.0
C596 C 0.1947 0.45533 0.20984 0.0
H597 H 0.8294 0.2541 0.17377 0.0
H598 H 0.80741 0.29627 0.12345 0.0
H599 H 0.77172 0.26698 0.11664 0.0
H600 H 0.79381 0.21112 0.07046 0.0
H601 H 0.79011 0.1919 0.13319 0.0
H602 H 0.81411 0.216 0.13022 0.0
H603 H 0.80986 0.22255 0.25769 0.0
H604 H 0.78588 0.19844 0.26111 0.0
H605 H 0.78661 0.22205 0.28512 0.0
H606 H 0.73859 0.23331 0.11487 0.0
H607 H 0.70964 0.19743 0.12553 0.0
H608 H 0.75248 0.17725 0.18612 0.0
C609 C 0.81703 0.25713 0.16167 0.0
C610 C 0.82113 0.27737 0.14797 0.0
C611 C 0.8046 0.28077 0.13222 0.0
C612 C 0.7843 0.26428 0.12871 0.0
C613 C 0.78074 0.24449 0.14233 0.0
C614 C 0.79659 0.24084 0.15923 0.0
C615 C 0.78838 0.21818 0.17461 0.0
C616 C 0.79712 0.20875 0.12409 0.0
C617 C 0.79295 0.21513 0.24906 0.0
C618 C 0.76548 0.20968 0.16332 0.0
C619 C 0.76146 0.22513 0.14415 0.0
C620 C 0.74152 0.2211 0.13002 0.0
C621 C 0.72523 0.20075 0.136 0.0
C622 C 0.729 0.1848 0.15645 0.0
C623 C 0.74933 0.1893 0.17038 0.0
H624 H 0.57607 0.74916 0.17249 0.0
H625 H 0.5159 0.70893 0.26092 0.0
H626 H 0.5093 0.73815 0.26713 0.0
H627 H 0.5881 0.79369 0.27278 0.0
H628 H 0.60076 0.81191 0.20448 0.0
H629 H 0.60054 0.78773 0.20476 0.0
H630 H 0.58415 0.77949 0.08393 0.0
H631 H 0.58434 0.80368 0.08324 0.0
H632 H 0.56055 0.77988 0.06927 0.0
H633 H 0.50956 0.77159 0.26698 0.0
H634 H 0.51664 0.80756 0.26017 0.0
H635 H 0.57652 0.82652 0.17097 0.0
C636 C 0.56148 0.74658 0.19261 0.0
C637 C 0.54648 0.72693 0.2166 0.0
C638 C 0.5276 0.72398 0.24292 0.0
C639 C 0.5237 0.74043 0.24637 0.0
C640 C 0.53883 0.7597 0.2229 0.0
C641 C 0.55733 0.76289 0.19633 0.0
C642 C 0.57108 0.78527 0.17583 0.0
C643 C 0.59132 0.79523 0.21693 0.0
C644 C 0.57527 0.78719 0.09846 0.0
C645 C 0.55752 0.79418 0.19578 0.0
C646 C 0.53896 0.7791 0.2226 0.0
C647 C 0.524 0.78353 0.24593 0.0
C648 C 0.52816 0.80395 0.24211 0.0
C649 C 0.54711 0.81966 0.2154 0.0
C650 C 0.5619 0.81469 0.19139 0.0
H651 H 0.73227 0.53639 0.26854 0.0
H652 H 0.74467 0.58289 0.1146 0.0
H653 H 0.78038 0.58941 0.10289 0.0
H654 H 0.78308 0.56293 0.3493 0.0
H655 H 0.78362 0.53944 0.36448 0.0
H656 H 0.75933 0.53902 0.36249 0.0
H657 H 0.7461 0.5109 0.26846 0.0
H658 H 0.77033 0.51122 0.27016 0.0
H659 H 0.76081 0.51561 0.19088 0.0
H660 H 0.81417 0.58989 0.10492 0.0
H661 H 0.84379 0.58416 0.12001 0.0
H662 H 0.80962 0.53759 0.27346 0.0
C663 C 0.74263 0.54813 0.23309 0.0
C664 C 0.73582 0.55917 0.19236 0.0
C665 C 0.74962 0.57418 0.14575 0.0
C666 C 0.76992 0.57805 0.13907 0.0
C667 C 0.77615 0.56682 0.17966 0.0
C668 C 0.76294 0.55218 0.22586 0.0
C669 C 0.77331 0.5418 0.26181 0.0
C670 C 0.77493 0.54606 0.33911 0.0
C671 C 0.76196 0.5185 0.2469 0.0
C672 C 0.79434 0.55272 0.22808 0.0
C673 C 0.79568 0.56715 0.18105 0.0
C674 C 0.81335 0.57874 0.14189 0.0
C675 C 0.83004 0.57537 0.15064 0.0
C676 C 0.82892 0.56054 0.19802 0.0
C677 C 0.81092 0.54923 0.23762 0.0
H678 H 0.18254 0.74807 0.278 0.0
H679 H 0.19804 0.7108 0.14853 0.0
H680 H 0.23382 0.73976 0.13837 0.0
H681 H 0.2111 0.79444 0.18687 0.0
H682 H 0.2197 0.81113 0.26053 0.0
H683 H 0.19587 0.78691 0.26402 0.0
H684 H 0.20896 0.77613 0.37028 0.0
H685 H 0.23281 0.80041 0.36742 0.0
H686 H 0.23323 0.77653 0.36614 0.0
H687 H 0.26659 0.77312 0.13367 0.0
H688 H 0.29528 0.80914 0.13748 0.0
H689 H 0.25932 0.82553 0.27026 0.0
C690 C 0.19368 0.746 0.24886 0.0
C691 C 0.18775 0.72732 0.21414 0.0
C692 C 0.20246 0.72507 0.17543 0.0
C693 C 0.22275 0.74139 0.16949 0.0
C694 C 0.22809 0.75982 0.20288 0.0
C695 C 0.21409 0.76224 0.24224 0.0
C696 C 0.22366 0.78411 0.26951 0.0
C697 C 0.21188 0.79477 0.24367 0.0
C698 C 0.22473 0.7843 0.34801 0.0
C699 C 0.24503 0.79366 0.23809 0.0
C700 C 0.24722 0.77928 0.20019 0.0
C701 C 0.26515 0.78448 0.1637 0.0
C702 C 0.28129 0.80496 0.1658 0.0
C703 C 0.27939 0.81996 0.204 0.0
C704 C 0.26112 0.81422 0.24117 0.0
H705 H 0.47291 0.19902 0.16901 0.0
H706 H 0.4157 0.15924 0.27527 0.0
H707 H 0.40842 0.18805 0.28252 0.0
H708 H 0.48678 0.2448 0.26195 0.0
H709 H 0.497 0.26179 0.18925 0.0
H710 H 0.49735 0.2379 0.19057 0.0
H711 H 0.47732 0.22715 0.07595 0.0
H712 H 0.47695 0.25106 0.07417 0.0
H713 H 0.45312 0.22683 0.06881 0.0
H714 H 0.40841 0.22167 0.28372 0.0
H715 H 0.41494 0.25747 0.27436 0.0
H716 H 0.47142 0.27505 0.1631 0.0
C717 C 0.45875 0.19638 0.19303 0.0
C718 C 0.4449 0.17704 0.22212 0.0
C719 C 0.42659 0.17407 0.25352 0.0
C720 C 0.42231 0.19029 0.25757 0.0
C721 C 0.4364 0.20929 0.22916 0.0
C722 C 0.45417 0.21236 0.19694 0.0
C723 C 0.46687 0.23434 0.17126 0.0
C724 C 0.48826 0.24535 0.20532 0.0
C725 C 0.46866 0.23487 0.09289 0.0
C726 C 0.45363 0.24323 0.19501 0.0
C727 C 0.43613 0.22852 0.22834 0.0
C728 C 0.42195 0.23326 0.25716 0.0
C729 C 0.42579 0.25358 0.25184 0.0
C730 C 0.44356 0.26882 0.21773 0.0
C731 C 0.45757 0.26354 0.18863 0.0
H732 H 0.13268 0.46639 0.46627 0.0
H733 H 0.0731 0.41033 0.45395 0.0
H734 H 0.07216 0.40739 0.57964 0.0
H735 H 0.15231 0.44964 0.6093 0.0
H736 H 0.16564 0.47493 0.64744 0.0
H737 H 0.162 0.4723 0.55616 0.0
H738 H 0.14421 0.49444 0.55951 0.0
H739 H 0.14782 0.49715 0.65068 0.0
H740 H 0.12234 0.48689 0.61498 0.0
H741 H 0.07632 0.4121 0.70691 0.0
H742 H 0.08584 0.42326 0.82563 0.0
H743 H 0.14397 0.47481 0.75633 0.0
C744 C 0.11949 0.45345 0.49001 0.0
C745 C 0.10294 0.43862 0.45018 0.0
C746 C 0.08599 0.42187 0.48326 0.0
C747 C 0.0853 0.42005 0.55471 0.0
C748 C 0.10178 0.43497 0.59249 0.0
C749 C 0.11864 0.45126 0.56135 0.0
C750 C 0.13418 0.46532 0.61398 0.0
C751 C 0.15475 0.46555 0.60624 0.0
C752 C 0.13731 0.48724 0.60951 0.0
C753 C 0.12323 0.4546 0.67947 0.0
C754 C 0.10458 0.43713 0.66596 0.0
C755 C 0.09116 0.42544 0.71823 0.0
C756 C 0.09691 0.43179 0.78613 0.0
C757 C 0.1161 0.44953 0.80154 0.0
C758 C 0.12936 0.46095 0.74691 0.0
H759 H 0.6471 0.08219 0.52115 0.0
H760 H 0.69326 0.14511 0.46992 0.0
H761 H 0.69947 0.15347 0.59273 0.0
H762 H 0.62498 0.09404 0.65574 0.0
H763 H 0.62034 0.07242 0.70881 0.0
H764 H 0.62148 0.07059 0.61744 0.0
H765 H 0.65022 0.06108 0.63022 0.0
H766 H 0.64915 0.06287 0.7219 0.0
H767 H 0.67328 0.07791 0.67757 0.0
H768 H 0.69731 0.15627 0.71922 0.0
H769 H 0.68736 0.153 0.84122 0.0
H770 H 0.64356 0.08815 0.81165 0.0
C771 C 0.65883 0.09762 0.53568 0.0
C772 C 0.66971 0.11299 0.48583 0.0
C773 C 0.68477 0.13305 0.50709 0.0
C774 C 0.68846 0.13794 0.57678 0.0
C775 C 0.67715 0.12253 0.62457 0.0
C776 C 0.66277 0.10272 0.60501 0.0
C777 C 0.65162 0.08943 0.66645 0.0
C778 C 0.62823 0.08115 0.66181 0.0
C779 C 0.65636 0.07178 0.6745 0.0
C780 C 0.66137 0.10509 0.72342 0.0
C781 C 0.67624 0.12404 0.69815 0.0
C782 C 0.68608 0.14141 0.73984 0.0
C783 C 0.68035 0.13945 0.80883 0.0
C784 C 0.66507 0.12026 0.8353 0.0
C785 C 0.65573 0.1028 0.79255 0.0
H786 H 0.53684 0.66744 0.51336 0.0
H787 H 0.59488 0.668 0.4928 0.0
H788 H 0.59868 0.66942 0.61835 0.0
H789 H 0.55315 0.70327 0.6576 0.0
H790 H 0.52816 0.69016 0.69798 0.0
H791 H 0.53018 0.68957 0.6063 0.0
H792 H 0.50974 0.64959 0.60873 0.0
H793 H 0.50765 0.65007 0.7003 0.0
H794 H 0.51876 0.63597 0.66172 0.0
H795 H 0.59465 0.66776 0.74643 0.0
H796 H 0.5842 0.66523 0.86641 0.0
H797 H 0.53044 0.66911 0.80425 0.0
C798 C 0.55036 0.66792 0.53536 0.0
C799 C 0.56552 0.66753 0.49339 0.0
C800 C 0.5831 0.66836 0.52399 0.0
C801 C 0.58539 0.66913 0.59527 0.0
C802 C 0.57015 0.66943 0.63529 0.0
C803 C 0.55309 0.66908 0.60647 0.0
C804 C 0.539 0.66958 0.66108 0.0
C805 C 0.53754 0.68932 0.65539 0.0
C806 C 0.51752 0.65015 0.65775 0.0
C807 C 0.55056 0.66978 0.72499 0.0
C808 C 0.56846 0.66965 0.70908 0.0
C809 C 0.58095 0.66844 0.75964 0.0
C810 C 0.57498 0.66731 0.82832 0.0
C811 C 0.55683 0.66775 0.84615 0.0
C812 C 0.54462 0.6691 0.79314 0.0
H813 H 0.87447 0.54029 0.51587 0.0
H814 H 0.92942 0.60085 0.50746 0.0
H815 H 0.9306 0.60211 0.63339 0.0
H816 H 0.85171 0.55036 0.66719 0.0
H817 H 0.84184 0.52467 0.70066 0.0
H818 H 0.84455 0.52902 0.60967 0.0
H819 H 0.86713 0.51176 0.60335 0.0
H820 H 0.86454 0.50742 0.69424 0.0
H821 H 0.88983 0.5214 0.65627 0.0
H822 H 0.9277 0.59551 0.76 0.0
H823 H 0.92009 0.58226 0.87748 0.0
H824 H 0.86588 0.52679 0.8054 0.0
C825 C 0.8866 0.55393 0.54047 0.0
C826 C 0.90185 0.57047 0.5015 0.0
C827 C 0.91752 0.58798 0.53592 0.0
C828 C 0.91834 0.58886 0.60758 0.0
C829 C 0.90328 0.57219 0.6444 0.0
C830 C 0.88759 0.55512 0.61211 0.0
C831 C 0.87368 0.53904 0.66379 0.0
C832 C 0.85164 0.53558 0.6601 0.0
C833 C 0.87382 0.51871 0.6538 0.0
C834 C 0.88422 0.54958 0.73001 0.0
C835 C 0.90123 0.5687 0.71768 0.0
C836 C 0.91409 0.5808 0.77047 0.0
C837 C 0.90943 0.5732 0.83765 0.0
C838 C 0.89188 0.55376 0.85192 0.0
C839 C 0.87921 0.54188 0.79682 0.0
H840 H 0.35842 0.91224 0.82706 0.0
H841 H 0.30937 0.84841 0.83176 0.0
H842 H 0.30505 0.84916 0.70698 0.0
H843 H 0.33719 0.92939 0.68118 0.0
H844 H 0.36257 0.94571 0.64616 0.0
H845 H 0.35924 0.94152 0.73719 0.0
H846 H 0.3859 0.92904 0.73702 0.0
H847 H 0.38911 0.9329 0.64608 0.0
H848 H 0.3818 0.90798 0.68206 0.0
H849 H 0.30928 0.85477 0.58346 0.0
H850 H 0.32092 0.8652 0.46566 0.0
H851 H 0.36768 0.92571 0.53681 0.0
C852 C 0.34626 0.89876 0.80181 0.0
C853 C 0.33392 0.88037 0.83852 0.0
C854 C 0.31874 0.86267 0.80412 0.0
C855 C 0.31616 0.86298 0.73347 0.0
C856 C 0.32898 0.8811 0.69809 0.0
C857 C 0.34365 0.89875 0.73083 0.0
C858 C 0.35687 0.91537 0.67944 0.0
C859 C 0.35377 0.93411 0.68641 0.0
C860 C 0.37977 0.92168 0.6866 0.0
C861 C 0.34783 0.90397 0.61296 0.0
C862 C 0.33159 0.88434 0.62528 0.0
C863 C 0.32168 0.87024 0.57293 0.0
C864 C 0.3285 0.87633 0.506 0.0
C865 C 0.3451 0.89635 0.49162 0.0
C866 C 0.35477 0.91041 0.54599 0.0
H867 H 0.46986 0.35045 0.51178 0.0
H868 H 0.40315 0.31262 0.50133 0.0
H869 H 0.40163 0.30957 0.62722 0.0
H870 H 0.47748 0.32339 0.65081 0.0
H871 H 0.49791 0.34646 0.68931 0.0
H872 H 0.49373 0.34545 0.59836 0.0
H873 H 0.49017 0.37812 0.60576 0.0
H874 H 0.4943 0.37922 0.69674 0.0
H875 H 0.47145 0.37838 0.66317 0.0
H876 H 0.40747 0.31011 0.75465 0.0
H877 H 0.4202 0.31501 0.87362 0.0
H878 H 0.48288 0.35359 0.80115 0.0
C879 C 0.45492 0.34147 0.53586 0.0
C880 C 0.43661 0.33174 0.49652 0.0
C881 C 0.41739 0.32023 0.53025 0.0
C882 C 0.41636 0.31839 0.60179 0.0
C883 C 0.43468 0.32821 0.639 0.0
C884 C 0.4536 0.33957 0.60721 0.0
C885 C 0.47097 0.34884 0.65902 0.0
C886 C 0.4859 0.34053 0.64875 0.0
C887 C 0.48239 0.37254 0.65598 0.0
C888 C 0.45889 0.34089 0.72493 0.0
C889 C 0.43799 0.32898 0.7123 0.0
C890 C 0.42378 0.31968 0.76517 0.0
C891 C 0.43113 0.32275 0.83269 0.0
C892 C 0.45245 0.33527 0.84687 0.0
C893 C 0.46646 0.34419 0.79197 0.0
H894 H 0.52846 0.86471 0.61289 0.0
H895 H 0.58395 0.91916 0.54204 0.0
H896 H 0.59711 0.92644 0.65963 0.0
H897 H 0.5229 0.88826 0.76191 0.0
H898 H 0.51314 0.86545 0.81436 0.0
H899 H 0.50902 0.86304 0.72336 0.0
H900 H 0.52627 0.84046 0.71629 0.0
H901 H 0.53044 0.84279 0.80738 0.0
H902 H 0.5519 0.85019 0.75018 0.0
H903 H 0.60371 0.92888 0.78623 0.0
H904 H 0.60239 0.92731 0.91214 0.0
H905 H 0.54172 0.87253 0.90256 0.0
C906 C 0.54354 0.87802 0.62176 0.0
C907 C 0.55545 0.89084 0.56694 0.0
C908 C 0.57486 0.90838 0.58161 0.0
C909 C 0.58242 0.91285 0.64885 0.0
C910 C 0.57029 0.89983 0.70134 0.0
C911 C 0.5512 0.88284 0.68866 0.0
C912 C 0.54059 0.87215 0.7547 0.0
C913 C 0.52021 0.87224 0.76412 0.0
C914 C 0.5371 0.85009 0.75727 0.0
C915 C 0.55661 0.88595 0.80661 0.0
C916 C 0.57373 0.90168 0.77465 0.0
C917 C 0.59042 0.91658 0.81178 0.0
C918 C 0.58951 0.91554 0.88342 0.0
C919 C 0.57195 0.89981 0.9175 0.0
C920 C 0.55539 0.88473 0.87822 0.0
H921 H 0.63484 0.55423 0.86541 0.0
H922 H 0.68806 0.55135 0.93962 0.0
H923 H 0.70023 0.55341 0.8223 0.0
H924 H 0.62532 0.52205 0.72453 0.0
H925 H 0.61776 0.53591 0.66692 0.0
H926 H 0.61434 0.53695 0.75758 0.0
H927 H 0.63583 0.57686 0.75366 0.0
H928 H 0.63938 0.57593 0.66281 0.0
H929 H 0.66148 0.58926 0.71804 0.0
H930 H 0.7049 0.55174 0.69919 0.0
H931 H 0.70142 0.54601 0.57454 0.0
H932 H 0.64578 0.55038 0.57584 0.0
C933 C 0.64924 0.55442 0.85695 0.0
C934 C 0.66054 0.55274 0.91216 0.0
C935 C 0.67913 0.55269 0.89872 0.0
C936 C 0.68627 0.55396 0.832 0.0
C937 C 0.67471 0.55535 0.77883 0.0
C938 C 0.65661 0.55562 0.79016 0.0
C939 C 0.64639 0.55552 0.723 0.0
C940 C 0.62467 0.53647 0.71772 0.0
C941 C 0.64574 0.57559 0.71385 0.0
C942 C 0.66121 0.55437 0.67267 0.0
C943 C 0.67758 0.55459 0.70628 0.0
C944 C 0.69242 0.55198 0.67197 0.0
C945 C 0.69032 0.54869 0.60141 0.0
C946 C 0.6736 0.54818 0.56602 0.0
C947 C 0.65905 0.55139 0.60177 0.0
H948 H 0.10115 0.62846 0.58575 0.0
H949 H 0.1333 0.69383 0.53924 0.0
H950 H 0.13215 0.70167 0.66164 0.0
H951 H 0.06768 0.63024 0.72133 0.0
H952 H 0.06916 0.61075 0.77125 0.0
H953 H 0.07086 0.61056 0.67938 0.0
H954 H 0.10573 0.61117 0.68953 0.0
H955 H 0.10424 0.61155 0.78124 0.0
H956 H 0.1265 0.6315 0.73754 0.0
H957 H 0.13094 0.70214 0.79106 0.0
H958 H 0.1276 0.69521 0.91553 0.0
H959 H 0.09518 0.62939 0.8749 0.0
C960 C 0.10759 0.64441 0.6013 0.0
C961 C 0.11705 0.66056 0.55342 0.0
C962 C 0.12552 0.68125 0.57517 0.0
C963 C 0.12507 0.68582 0.64455 0.0
C964 C 0.11586 0.66948 0.69084 0.0
C965 C 0.10702 0.64918 0.66986 0.0
C966 C 0.0988 0.63443 0.72962 0.0
C967 C 0.07522 0.62069 0.72511 0.0
C968 C 0.10946 0.62141 0.73476 0.0
C969 C 0.10496 0.6496 0.7879 0.0
C970 C 0.11476 0.66975 0.76472 0.0
C971 C 0.12298 0.68642 0.80973 0.0
C972 C 0.12109 0.68234 0.88023 0.0
C973 C 0.11098 0.66177 0.90472 0.0
C974 C 0.10271 0.64528 0.85775 0.0
H975 H 0.44639 0.09164 0.59117 0.0
H976 H 0.46193 0.15558 0.57643 0.0
H977 H 0.45713 0.15652 0.7009 0.0
H978 H 0.40862 0.07683 0.73909 0.0
H979 H 0.41769 0.06079 0.7766 0.0
H980 H 0.41794 0.06372 0.68503 0.0
H981 H 0.45695 0.07572 0.68346 0.0
H982 H 0.45694 0.07317 0.77487 0.0
H983 H 0.47444 0.09747 0.735 0.0
H984 H 0.45645 0.15258 0.82581 0.0
H985 H 0.4585 0.14362 0.94538 0.0
H986 H 0.44386 0.08212 0.88223 0.0
C987 C 0.44785 0.10547 0.61413 0.0
C988 C 0.4541 0.12343 0.57477 0.0
C989 C 0.45684 0.14163 0.60618 0.0
C990 C 0.45413 0.14229 0.67664 0.0
C991 C 0.44876 0.1246 0.71484 0.0
C992 C 0.44544 0.10644 0.68487 0.0
C993 C 0.44227 0.09051 0.73872 0.0
C994 C 0.42032 0.07186 0.73461 0.0
C995 C 0.45863 0.08384 0.73262 0.0
C996 C 0.44522 0.10288 0.8033 0.0
C997 C 0.44863 0.12239 0.78817 0.0
C998 C 0.45336 0.13722 0.83854 0.0
C999 C 0.45462 0.132 0.90635 0.0
C1000 C 0.45124 0.11213 0.92329 0.0
C1001 C 0.44626 0.09734 0.87099 0.0
H1002 H 0.3307 0.4216 0.84196 0.0
H1003 H 0.35659 0.48462 0.91502 0.0
H1004 H 0.36265 0.49721 0.79704 0.0
H1005 H 0.36497 0.43341 0.69472 0.0
H1006 H 0.345 0.41499 0.63936 0.0
H1007 H 0.34359 0.41043 0.73023 0.0
H1008 H 0.30734 0.40694 0.73371 0.0
H1009 H 0.30858 0.41131 0.64287 0.0
H1010 H 0.30393 0.42747 0.6999 0.0
H1011 H 0.36521 0.50343 0.67447 0.0
H1012 H 0.36204 0.50276 0.54931 0.0
H1013 H 0.33366 0.43601 0.55128 0.0
C1014 C 0.33774 0.43803 0.83291 0.0
C1015 C 0.34319 0.4521 0.88774 0.0
C1016 C 0.35218 0.47349 0.87398 0.0
C1017 C 0.35585 0.48087 0.80708 0.0
C1018 C 0.35037 0.4667 0.75431 0.0
C1019 C 0.34136 0.44574 0.76592 0.0
C1020 C 0.33594 0.43394 0.69896 0.0
C1021 C 0.34811 0.42252 0.69033 0.0
C1022 C 0.31256 0.41904 0.69356 0.0
C1023 C 0.34312 0.45161 0.64844 0.0
C1024 C 0.35161 0.47034 0.68192 0.0
C1025 C 0.35872 0.48891 0.64738 0.0
C1026 C 0.3568 0.48835 0.57642 0.0
C1027 C 0.34782 0.46937 0.54081 0.0
C1028 C 0.34107 0.45076 0.57717 0.0
H1029 H 0.8793 0.31172 0.86417 0.0
H1030 H 0.91328 0.37793 0.89506 0.0
H1031 H 0.91793 0.38328 0.76999 0.0
H1032 H 0.90746 0.30937 0.71532 0.0
H1033 H 0.88457 0.28982 0.67321 0.0
H1034 H 0.88571 0.29106 0.76524 0.0
H1035 H 0.85242 0.29363 0.76831 0.0
H1036 H 0.85109 0.29221 0.67646 0.0
H1037 H 0.85135 0.31359 0.71983 0.0
H1038 H 0.91871 0.38139 0.64194 0.0
H1039 H 0.91117 0.37268 0.51925 0.0
H1040 H 0.87402 0.30796 0.57149 0.0
C1041 C 0.88792 0.3273 0.84438 0.0
C1042 C 0.89617 0.34444 0.88875 0.0
C1043 C 0.9069 0.36464 0.86149 0.0
C1044 C 0.90974 0.36781 0.79074 0.0
C1045 C 0.90143 0.35059 0.74812 0.0
C1046 C 0.89041 0.33075 0.77378 0.0
C1047 C 0.88137 0.31503 0.71671 0.0
C1048 C 0.89032 0.30046 0.7177 0.0
C1049 C 0.85765 0.30291 0.72057 0.0
C1050 C 0.88887 0.32914 0.655 0.0
C1051 C 0.90085 0.34956 0.67422 0.0
C1052 C 0.90941 0.36546 0.62624 0.0
C1053 C 0.90519 0.3604 0.55684 0.0
C1054 C 0.89229 0.33968 0.53655 0.0
C1055 C 0.88416 0.32388 0.5861 0.0
H1056 H 0.04814 0.42109 0.25337 0.0
H1057 H 0.05734 0.40737 0.04492 0.0
H1058 H 0.0201 0.38296 0.03445 0.0
H1059 H 0.00569 0.36849 0.29747 0.0
H1060 H 0.99202 0.37826 0.34651 0.0
H1061 H 0.01977 0.39288 0.34114 0.0
H1062 H 0.01786 0.42448 0.29633 0.0
H1063 H 0.99016 0.40999 0.30162 0.0
H1064 H 1.0025 0.4217 0.22178 0.0
H1065 H 0.98204 0.3631 0.04128 0.0
H1066 H 0.94506 0.34926 0.06438 0.0
H1067 H 0.95963 0.37501 0.26899 0.0
C1068 C 0.04237 0.41263 0.20601 0.0
C1069 C 0.05573 0.41612 0.14999 0.0
C1070 C 0.04748 0.40501 0.08851 0.0
C1071 C 0.02633 0.391 0.08216 0.0
C1072 C 0.01357 0.38817 0.1378 0.0
C1073 C 0.02121 0.39861 0.19866 0.0
C1074 C 0.00385 0.39391 0.24854 0.0
C1075 C 0.00543 0.38272 0.31219 0.0
C1076 C 0.00358 0.4137 0.26818 0.0
C1077 C 0.98524 0.37969 0.20537 0.0
C1078 C 0.9913 0.37645 0.14197 0.0
C1079 C 0.97708 0.36522 0.09108 0.0
C1080 C 0.95612 0.35746 0.10465 0.0
C1081 C 0.9495 0.36089 0.16866 0.0
C1082 C 0.96424 0.37175 0.22023 0.0
H1083 H 0.5861 0.95731 0.11547 0.0
H1084 H 0.60216 0.94775 0.32016 0.0
H1085 H 0.62646 0.98513 0.33073 0.0
H1086 H 0.63751 1.00072 0.06626 0.0
H1087 H 0.62656 0.0141 0.0217 0.0
H1088 H 0.61258 0.98632 0.02609 0.0
H1089 H 0.5812 0.98719 0.07836 0.0
H1090 H 0.59506 0.01491 0.07417 0.0
H1091 H 0.58467 0.00212 0.15458 0.0
H1092 H 0.64661 0.02328 0.3234 0.0
H1093 H 0.66 0.06018 0.30209 0.0
H1094 H 0.63023 0.04578 0.10308 0.0
C1095 C 0.59512 0.96305 0.16182 0.0
C1096 C 0.59244 0.94962 0.21679 0.0
C1097 C 0.60405 0.95775 0.27739 0.0
C1098 C 0.61796 0.97894 0.2837 0.0
C1099 C 0.62001 0.99181 0.22909 0.0
C1100 C 0.60887 0.98424 0.16936 0.0
C1101 C 0.61245 1.00166 0.12124 0.0
C1102 C 0.6229 1.00064 0.05489 0.0
C1103 C 0.59214 1.00145 0.10625 0.0
C1104 C 0.62696 0.02022 0.16397 0.0
C1105 C 0.63134 0.0141 0.22547 0.0
C1106 C 0.64347 0.02828 0.27519 0.0
C1107 C 0.65096 0.04924 0.26254 0.0
C1108 C 0.64621 0.05595 0.2008 0.0
C1109 C 0.63439 0.0412 0.15031 0.0
H1110 H 0.62814 0.58098 0.12283 0.0
H1111 H 0.65299 0.59535 0.32894 0.0
H1112 H 0.63962 0.61926 0.34223 0.0
H1113 H 0.63688 0.63315 0.08 0.0
H1114 H 0.61296 0.62301 0.03351 0.0
H1115 H 0.6265 0.60872 0.03654 0.0
H1116 H 0.59373 0.57694 0.08409 0.0
H1117 H 0.58011 0.5911 0.08126 0.0
H1118 H 0.58174 0.57961 0.16038 0.0
H1119 H 0.62106 0.63878 0.33841 0.0
H1120 H 0.59786 0.65265 0.31833 0.0
H1121 H 0.58468 0.62634 0.11434 0.0
C1122 C 0.63114 0.58949 0.1702 0.0
C1123 C 0.64172 0.58634 0.22476 0.0
C1124 C 0.64495 0.59747 0.28642 0.0
C1125 C 0.6375 0.61119 0.29438 0.0
C1126 C 0.62685 0.61368 0.2402 0.0
C1127 C 0.62367 0.60321 0.17921 0.0
C1128 C 0.61034 0.6076 0.13119 0.0
C1129 C 0.6224 0.61879 0.06647 0.0
C1130 C 0.59029 0.58763 0.11321 0.0
C1131 C 0.6061 0.62171 0.17556 0.0
C1132 C 0.616 0.62513 0.23792 0.0
C1133 C 0.61346 0.63647 0.28947 0.0
C1134 C 0.60017 0.64423 0.2776 0.0
C1135 C 0.58955 0.6407 0.21465 0.0
C1136 C 0.5929 0.62962 0.16244 0.0
H1137 H 0.04856 0.62886 0.29514 0.0
H1138 H 0.05987 0.65914 0.09748 0.0
H1139 H 0.02267 0.64559 0.08297 0.0
H1140 H 0.00481 0.5835 0.24738 0.0
H1141 H 0.99079 0.57948 0.32615 0.0
H1142 H 0.01854 0.59379 0.32646 0.0
H1143 H 0.01803 0.62481 0.38313 0.0
H1144 H 0.99021 0.61052 0.38344 0.0
H1145 H 0.00372 0.63555 0.34346 0.0
H1146 H 0.98458 0.62526 0.08145 0.0
H1147 H 0.94746 0.60063 0.09666 0.0
H1148 H 0.95991 0.58404 0.29654 0.0
C1149 C 0.04324 0.63311 0.24977 0.0
C1150 C 0.05719 0.64511 0.19754 0.0
C1151 C 0.04954 0.64996 0.13823 0.0
C1152 C 0.0284 0.64239 0.1295 0.0
C1153 C 0.01501 0.63009 0.18074 0.0
C1154 C 0.02206 0.62564 0.24013 0.0
C1155 C 0.00414 0.6108 0.28476 0.0
C1156 C 0.00461 0.59071 0.29686 0.0
C1157 C 0.00402 0.62104 0.35273 0.0
C1158 C 0.98603 0.60714 0.24003 0.0
C1159 C 0.99271 0.61855 0.18044 0.0
C1160 C 0.97909 0.61656 0.12848 0.0
C1161 C 0.95806 0.60246 0.1374 0.0
C1162 C 0.95082 0.59061 0.19798 0.0
C1163 C 0.96498 0.59324 0.25034 0.0
H1164 H 0.37718 0.95718 0.2879 0.0
H1165 H 0.3521 0.94862 0.08252 0.0
H1166 H 0.36555 0.98604 0.07317 0.0
H1167 H 0.36884 1.00052 0.33726 0.0
H1168 H 0.39285 0.01363 0.38355 0.0
H1169 H 0.37904 0.98587 0.37798 0.0
H1170 H 0.41155 0.98682 0.32794 0.0
H1171 H 0.42543 0.01453 0.33317 0.0
H1172 H 0.42352 0.00203 0.25256 0.0
H1173 H 0.38454 0.02418 0.08046 0.0
H1174 H 0.40816 0.061 0.10365 0.0
H1175 H 0.42123 0.04565 0.30469 0.0
C1176 C 0.37407 0.96312 0.24161 0.0
C1177 C 0.36344 0.94991 0.18607 0.0
C1178 C 0.36014 0.95838 0.12579 0.0
C1179 C 0.36765 0.97963 0.12007 0.0
C1180 C 0.37842 0.99225 0.17509 0.0
C1181 C 0.3816 0.98437 0.23485 0.0
C1182 C 0.39514 1.00157 0.28402 0.0
C1183 C 0.38325 1.00032 0.34959 0.0
C1184 C 0.41509 1.00121 0.30034 0.0
C1185 C 0.39953 0.02035 0.24174 0.0
C1186 C 0.38952 0.01454 0.17937 0.0
C1187 C 0.39221 0.02894 0.12948 0.0
C1188 C 0.40573 0.04983 0.14309 0.0
C1189 C 0.41644 0.05622 0.20614 0.0
C1190 C 0.41296 0.04126 0.2566 0.0
H1191 H 0.37668 0.42155 0.28507 0.0
H1192 H 0.34696 0.40259 0.08677 0.0
H1193 H 0.36102 0.3793 0.07265 0.0
H1194 H 0.42258 0.42392 0.23752 0.0
H1195 H 0.42675 0.41408 0.31646 0.0
H1196 H 0.4121 0.4272 0.31644 0.0
H1197 H 0.3813 0.3955 0.37318 0.0
H1198 H 0.39594 0.38231 0.37391 0.0
H1199 H 0.37092 0.37048 0.33378 0.0
H1200 H 0.38138 0.3615 0.07248 0.0
H1201 H 0.4059 0.34892 0.08908 0.0
H1202 H 0.42254 0.3786 0.2878 0.0
C1203 C 0.37266 0.41203 0.23969 0.0
C1204 C 0.36065 0.41384 0.18715 0.0
C1205 C 0.35613 0.40149 0.1277 0.0
C1206 C 0.364 0.38815 0.11922 0.0
C1207 C 0.37632 0.3872 0.17074 0.0
C1208 C 0.38051 0.39862 0.23016 0.0
C1209 C 0.39549 0.39578 0.275 0.0
C1210 C 0.41541 0.41648 0.28702 0.0
C1211 C 0.3853 0.3854 0.34301 0.0
C1212 C 0.39946 0.3815 0.23051 0.0
C1213 C 0.3881 0.37666 0.17083 0.0
C1214 C 0.39013 0.3649 0.11947 0.0
C1215 C 0.4042 0.35794 0.12913 0.0
C1216 C 0.41607 0.36271 0.18973 0.0
C1217 C 0.41342 0.37442 0.24141 0.0
loop_
_geom_bond_atom_site_label_1
_geom_bond_atom_site_label_2
_geom_bond_distance
_geom_bond_site_symmetry_2
_ccdc_geom_bond_type
Co0 O3 1.970 . S
Co0 N17 1.989 . S
Co0 O25 1.967 . S
Co0 O32 1.920 . S
Co1 O4 1.966 . S
Co1 N10 2.022 1_554 S
Co1 N18 1.993 . S
Co1 O26 1.941 . S
C2 O3 1.258 . S
C2 O4 1.263 . S
O3 Co0 1.970 . S
O3 C2 1.258 . S
O4 Co1 1.966 . S
O4 C2 1.263 . S
C5 O6 1.235 . S
C5 O32 1.289 . S
O6 C5 1.235 . S
C7 C9 1.400 . S
C7 N10 1.351 . S
C7 C12 1.501 . S
C8 C9 1.387 . S
C8 N11 1.341 . S
C9 C7 1.400 . S
C9 C8 1.387 . S
N10 Co1 2.022 1_556 S
N10 C7 1.351 . S
N10 N11 1.365 . S
N11 C8 1.341 . S
N11 N10 1.365 . S
N11 H31 0.862 . S
C12 C7 1.501 . S
C12 H13 0.961 1_556 S
C12 H14 0.961 . S
C12 H15 0.960 . S
H13 C12 0.961 1_554 S
H14 C12 0.961 . S
H15 C12 0.960 . S
C16 N17 1.342 . S
C16 C20 1.401 . S
C16 C21 1.499 . S
N17 Co0 1.989 . S
N17 C16 1.342 . S
N17 N18 1.388 . S
N18 Co1 1.993 . S
N18 N17 1.388 . S
N18 C19 1.346 . S
C19 N18 1.346 . S
C19 C20 1.396 . S
C19 C29 1.510 . S
C20 C16 1.401 . S
C20 C19 1.396 . S
C21 C16 1.499 . S
C21 H22 0.959 . S
C21 H23 0.960 . S
C21 H24 0.961 . S
H22 C21 0.959 . S
H23 C21 0.960 . S
H24 C21 0.961 . S
O25 Co0 1.967 . S
O25 C33 1.258 . S
O26 Co1 1.941 . S
O26 C33 1.266 . S
H27 C29 0.959 . S
H28 C29 0.961 . S
C29 C19 1.510 . S
C29 H27 0.959 . S
C29 H28 0.961 . S
C29 H30 0.960 . S
H30 C29 0.960 . S
H31 N11 0.862 . S
O32 Co0 1.920 . S
O32 C5 1.289 . S
C33 O25 1.258 . S
C33 O26 1.266 . S
Co34 O37 1.970 . S
Co34 N51 1.989 . S
Co34 O59 1.967 . S
Co34 O66 1.920 . S
Co35 O38 1.966 . S
Co35 N44 2.022 1_554 S
Co35 N52 1.993 . S
Co35 O60 1.941 . S
C36 O37 1.258 . S
C36 O38 1.263 . S
O37 Co34 1.970 . S
O37 C36 1.258 . S
O38 Co35 1.966 . S
O38 C36 1.263 . S
C39 O40 1.235 . S
C39 O66 1.289 . S
O40 C39 1.235 . S
C41 C43 1.400 . S
C41 N44 1.351 . S
C41 C46 1.501 . S
C42 C43 1.387 . S
C42 N45 1.341 . S
C43 C41 1.400 . S
C43 C42 1.387 . S
N44 Co35 2.022 1_556 S
N44 C41 1.351 . S
N44 N45 1.365 . S
N45 C42 1.341 . S
N45 N44 1.365 . S
N45 H65 0.862 . S
C46 C41 1.501 . S
C46 H47 0.961 1_556 S
C46 H48 0.961 . S
C46 H49 0.960 . S
H47 C46 0.961 1_554 S
H48 C46 0.961 . S
H49 C46 0.960 . S
C50 N51 1.342 . S
C50 C54 1.401 . S
C50 C55 1.499 . S
N51 Co34 1.989 . S
N51 C50 1.342 . S
N51 N52 1.388 . S
N52 Co35 1.993 . S
N52 N51 1.388 . S
N52 C53 1.346 . S
C53 N52 1.346 . S
C53 C54 1.396 . S
C53 C63 1.510 . S
C54 C50 1.401 . S
C54 C53 1.396 . S
C55 C50 1.499 . S
C55 H56 0.959 . S
C55 H57 0.960 . S
C55 H58 0.961 . S
H56 C55 0.959 . S
H57 C55 0.960 . S
H58 C55 0.961 . S
O59 Co34 1.967 . S
O59 C67 1.258 . S
O60 Co35 1.941 . S
O60 C67 1.266 . S
H61 C63 0.959 . S
H62 C63 0.961 . S
C63 C53 1.510 . S
C63 H61 0.959 . S
C63 H62 0.961 . S
C63 H64 0.960 . S
H64 C63 0.960 . S
H65 N45 0.862 . S
O66 Co34 1.920 . S
O66 C39 1.289 . S
C67 O59 1.258 . S
C67 O60 1.266 . S
Co68 O71 1.970 . S
Co68 N85 1.989 . S
Co68 O93 1.967 . S
Co68 O100 1.920 . S
Co69 O72 1.966 . S
Co69 N78 2.022 1_554 S
Co69 N86 1.993 . S
Co69 O94 1.941 . S
C70 O71 1.258 . S
C70 O72 1.263 . S
O71 Co68 1.970 . S
O71 C70 1.258 . S
O72 Co69 1.966 . S
O72 C70 1.263 . S
C73 O74 1.235 . S
C73 O100 1.289 . S
O74 C73 1.235 . S
C75 C77 1.400 . S
C75 N78 1.351 . S
C75 C80 1.501 . S
C76 C77 1.387 . S
C76 N79 1.341 . S
C77 C75 1.400 . S
C77 C76 1.387 . S
N78 Co69 2.022 1_556 S
N78 C75 1.351 . S
N78 N79 1.365 . S
N79 C76 1.341 . S
N79 N78 1.365 . S
N79 H99 0.862 . S
C80 C75 1.501 . S
C80 H81 0.961 1_556 S
C80 H82 0.961 . S
C80 H83 0.960 . S
H81 C80 0.961 1_554 S
H82 C80 0.961 . S
H83 C80 0.960 . S
C84 N85 1.342 . S
C84 C88 1.401 . S
C84 C89 1.499 . S
N85 Co68 1.989 . S
N85 C84 1.342 . S
N85 N86 1.388 . S
N86 Co69 1.993 . S
N86 N85 1.388 . S
N86 C87 1.346 . S
C87 N86 1.346 . S
C87 C88 1.396 . S
C87 C97 1.510 . S
C88 C84 1.401 . S
C88 C87 1.396 . S
C89 C84 1.499 . S
C89 H90 0.959 . S
C89 H91 0.960 . S
C89 H92 0.961 . S
H90 C89 0.959 . S
H91 C89 0.960 . S
H92 C89 0.961 . S
O93 Co68 1.967 . S
O93 C101 1.258 . S
O94 Co69 1.941 . S
O94 C101 1.266 . S
H95 C97 0.959 . S
H96 C97 0.961 . S
C97 C87 1.510 . S
C97 H95 0.959 . S
C97 H96 0.961 . S
C97 H98 0.960 . S
H98 C97 0.960 . S
H99 N79 0.862 . S
O100 Co68 1.920 . S
O100 C73 1.289 . S
C101 O93 1.258 . S
C101 O94 1.266 . S
Co102 O105 1.970 . S
Co102 N119 1.989 . S
Co102 O127 1.967 . S
Co102 O134 1.920 . S
Co103 O106 1.966 . S
Co103 N112 2.022 1_554 S
Co103 N120 1.993 . S
Co103 O128 1.941 . S
C104 O105 1.258 . S
C104 O106 1.263 . S
O105 Co102 1.970 . S
O105 C104 1.258 . S
O106 Co103 1.966 . S
O106 C104 1.263 . S
C107 O108 1.235 . S
C107 O134 1.289 . S
O108 C107 1.235 . S
C109 C111 1.400 . S
C109 N112 1.351 . S
C109 C114 1.501 . S
C110 C111 1.387 . S
C110 N113 1.341 . S
C111 C109 1.400 . S
C111 C110 1.387 . S
N112 Co103 2.022 1_556 S
N112 C109 1.351 . S
N112 N113 1.365 . S
N113 C110 1.341 . S
N113 N112 1.365 . S
N113 H133 0.862 . S
C114 C109 1.501 . S
C114 H115 0.961 1_556 S
C114 H116 0.961 . S
C114 H117 0.960 . S
H115 C114 0.961 1_554 S
H116 C114 0.961 . S
H117 C114 0.960 . S
C118 N119 1.342 . S
C118 C122 1.401 . S
C118 C123 1.499 . S
N119 Co102 1.989 . S
N119 C118 1.342 . S
N119 N120 1.388 . S
N120 Co103 1.993 . S
N120 N119 1.388 . S
N120 C121 1.346 . S
C121 N120 1.346 . S
C121 C122 1.396 . S
C121 C131 1.510 . S
C122 C118 1.401 . S
C122 C121 1.396 . S
C123 C118 1.499 . S
C123 H124 0.959 . S
C123 H125 0.960 . S
C123 H126 0.961 . S
H124 C123 0.959 . S
H125 C123 0.960 . S
H126 C123 0.961 . S
O127 Co102 1.967 . S
O127 C135 1.258 . S
O128 Co103 1.941 . S
O128 C135 1.266 . S
H129 C131 0.959 . S
H130 C131 0.961 . S
C131 C121 1.510 . S
C131 H129 0.959 . S
C131 H130 0.961 . S
C131 H132 0.960 . S
H132 C131 0.960 . S
H133 N113 0.862 . S
O134 Co102 1.920 . S
O134 C107 1.289 . S
C135 O127 1.258 . S
C135 O128 1.266 . S
Co136 O139 1.970 . S
Co136 N153 1.989 . S
Co136 O161 1.967 . S
Co136 O168 1.920 . S
Co137 O140 1.966 . S
Co137 N146 2.022 1_554 S
Co137 N154 1.993 . S
Co137 O162 1.941 . S
C138 O139 1.258 . S
C138 O140 1.263 . S
O139 Co136 1.970 . S
O139 C138 1.258 . S
O140 Co137 1.966 . S
O140 C138 1.263 . S
C141 O142 1.235 . S
C141 O168 1.289 . S
O142 C141 1.235 . S
C143 C145 1.400 . S
C143 N146 1.351 . S
C143 C148 1.501 . S
C144 C145 1.387 . S
C144 N147 1.341 . S
C145 C143 1.400 . S
C145 C144 1.387 . S
N146 Co137 2.022 1_556 S
N146 C143 1.351 . S
N146 N147 1.365 . S
N147 C144 1.341 . S
N147 N146 1.365 . S
N147 H167 0.862 . S
C148 C143 1.501 . S
C148 H149 0.961 1_556 S
C148 H150 0.961 . S
C148 H151 0.960 . S
H149 C148 0.961 1_554 S
H150 C148 0.961 . S
H151 C148 0.960 . S
C152 N153 1.342 . S
C152 C156 1.401 . S
C152 C157 1.499 . S
N153 Co136 1.989 . S
N153 C152 1.342 . S
N153 N154 1.388 . S
N154 Co137 1.993 . S
N154 N153 1.388 . S
N154 C155 1.346 . S
C155 N154 1.346 . S
C155 C156 1.396 . S
C155 C165 1.510 . S
C156 C152 1.401 . S
C156 C155 1.396 . S
C157 C152 1.499 . S
C157 H158 0.959 . S
C157 H159 0.960 . S
C157 H160 0.961 . S
H158 C157 0.959 . S
H159 C157 0.960 . S
H160 C157 0.961 . S
O161 Co136 1.967 . S
O161 C169 1.258 . S
O162 Co137 1.941 . S
O162 C169 1.266 . S
H163 C165 0.959 . S
H164 C165 0.961 . S
C165 C155 1.510 . S
C165 H163 0.959 . S
C165 H164 0.961 . S
C165 H166 0.960 . S
H166 C165 0.960 . S
H167 N147 0.862 . S
O168 Co136 1.920 . S
O168 C141 1.289 . S
C169 O161 1.258 . S
C169 O162 1.266 . S
Co170 O173 1.970 . S
Co170 N187 1.989 . S
Co170 O195 1.967 . S
Co170 O202 1.920 . S
Co171 O174 1.966 . S
Co171 N180 2.022 1_554 S
Co171 N188 1.993 . S
Co171 O196 1.941 . S
C172 O173 1.258 . S
C172 O174 1.263 . S
O173 Co170 1.970 . S
O173 C172 1.258 . S
O174 Co171 1.966 . S
O174 C172 1.263 . S
C175 O176 1.235 . S
C175 O202 1.289 . S
O176 C175 1.235 . S
C177 C179 1.400 . S
C177 N180 1.351 . S
C177 C182 1.501 . S
C178 C179 1.387 . S
C178 N181 1.341 . S
C179 C177 1.400 . S
C179 C178 1.387 . S
N180 Co171 2.022 1_556 S
N180 C177 1.351 . S
N180 N181 1.365 . S
N181 C178 1.341 . S
N181 N180 1.365 . S
N181 H201 0.862 . S
C182 C177 1.501 . S
C182 H183 0.961 1_556 S
C182 H184 0.961 . S
C182 H185 0.960 . S
H183 C182 0.961 1_554 S
H184 C182 0.961 . S
H185 C182 0.960 . S
C186 N187 1.342 . S
C186 C190 1.401 . S
C186 C191 1.499 . S
N187 Co170 1.989 . S
N187 C186 1.342 . S
N187 N188 1.388 . S
N188 Co171 1.993 . S
N188 N187 1.388 . S
N188 C189 1.346 . S
C189 N188 1.346 . S
C189 C190 1.396 . S
C189 C199 1.510 . S
C190 C186 1.401 . S
C190 C189 1.396 . S
C191 C186 1.499 . S
C191 H192 0.959 . S
C191 H193 0.960 . S
C191 H194 0.961 . S
H192 C191 0.959 . S
H193 C191 0.960 . S
H194 C191 0.961 . S
O195 Co170 1.967 . S
O195 C203 1.258 . S
O196 Co171 1.941 . S
O196 C203 1.266 . S
H197 C199 0.959 . S
H198 C199 0.961 . S
C199 C189 1.510 . S
C199 H197 0.959 . S
C199 H198 0.961 . S
C199 H200 0.960 . S
H200 C199 0.960 . S
H201 N181 0.862 . S
O202 Co170 1.920 . S
O202 C175 1.289 . S
C203 O195 1.258 . S
C203 O196 1.266 . S
Co204 O207 1.970 . S
Co204 N221 1.989 . S
Co204 O229 1.967 . S
Co204 O236 1.920 . S
Co205 O208 1.966 . S
Co205 N214 2.022 . S
Co205 N222 1.993 . S
Co205 O230 1.941 . S
C206 O207 1.258 . S
C206 O208 1.263 . S
O207 Co204 1.970 . S
O207 C206 1.258 . S
O208 Co205 1.966 . S
O208 C206 1.263 . S
C209 O210 1.235 1_556 S
C209 O236 1.289 1_556 S
O210 C209 1.235 1_554 S
C211 C213 1.400 . S
C211 N214 1.351 . S
C211 C216 1.501 . S
C212 C213 1.387 . S
C212 N215 1.341 . S
C213 C211 1.400 . S
C213 C212 1.387 . S
N214 Co205 2.022 . S
N214 C211 1.351 . S
N214 N215 1.365 . S
N215 C212 1.341 . S
N215 N214 1.365 . S
N215 H235 0.862 . S
C216 C211 1.501 . S
C216 H217 0.961 . S
C216 H218 0.961 . S
C216 H219 0.960 . S
H217 C216 0.961 . S
H218 C216 0.961 . S
H219 C216 0.960 . S
C220 N221 1.342 . S
C220 C224 1.401 . S
C220 C225 1.499 . S
N221 Co204 1.989 . S
N221 C220 1.342 . S
N221 N222 1.388 . S
N222 Co205 1.993 . S
N222 N221 1.388 . S
N222 C223 1.346 . S
C223 N222 1.346 . S
C223 C224 1.396 . S
C223 C233 1.510 . S
C224 C220 1.401 . S
C224 C223 1.396 . S
C225 C220 1.499 . S
C225 H226 0.959 . S
C225 H227 0.960 . S
C225 H228 0.961 . S
H226 C225 0.959 . S
H227 C225 0.960 . S
H228 C225 0.961 . S
O229 Co204 1.967 . S
O229 C237 1.258 . S
O230 Co205 1.941 . S
O230 C237 1.266 . S
H231 C233 0.959 . S
H232 C233 0.961 . S
C233 C223 1.510 . S
C233 H231 0.959 . S
C233 H232 0.961 . S
C233 H234 0.960 . S
H234 C233 0.960 . S
H235 N215 0.862 . S
O236 Co204 1.920 . S
O236 C209 1.289 1_554 S
C237 O229 1.258 . S
C237 O230 1.266 . S
Co238 O241 1.970 . S
Co238 N255 1.989 . S
Co238 O263 1.967 . S
Co238 O270 1.920 . S
Co239 O242 1.966 . S
Co239 N248 2.022 . S
Co239 N256 1.993 . S
Co239 O264 1.941 . S
C240 O241 1.258 . S
C240 O242 1.263 . S
O241 Co238 1.970 . S
O241 C240 1.258 . S
O242 Co239 1.966 . S
O242 C240 1.263 . S
C243 O244 1.235 1_556 S
C243 O270 1.289 1_556 S
O244 C243 1.235 1_554 S
C245 C247 1.400 . S
C245 N248 1.351 . S
C245 C250 1.501 . S
C246 C247 1.387 . S
C246 N249 1.341 . S
C247 C245 1.400 . S
C247 C246 1.387 . S
N248 Co239 2.022 . S
N248 C245 1.351 . S
N248 N249 1.365 . S
N249 C246 1.341 . S
N249 N248 1.365 . S
N249 H269 0.862 . S
C250 C245 1.501 . S
C250 H251 0.961 . S
C250 H252 0.961 . S
C250 H253 0.960 . S
H251 C250 0.961 . S
H252 C250 0.961 . S
H253 C250 0.960 . S
C254 N255 1.342 . S
C254 C258 1.401 . S
C254 C259 1.499 . S
N255 Co238 1.989 . S
N255 C254 1.342 . S
N255 N256 1.388 . S
N256 Co239 1.993 . S
N256 N255 1.388 . S
N256 C257 1.346 . S
C257 N256 1.346 . S
C257 C258 1.396 . S
C257 C267 1.510 . S
C258 C254 1.401 . S
C258 C257 1.396 . S
C259 C254 1.499 . S
C259 H260 0.959 . S
C259 H261 0.960 . S
C259 H262 0.961 . S
H260 C259 0.959 . S
H261 C259 0.960 . S
H262 C259 0.961 . S
O263 Co238 1.967 . S
O263 C271 1.258 . S
O264 Co239 1.941 . S
O264 C271 1.266 . S
H265 C267 0.959 . S
H266 C267 0.961 . S
C267 C257 1.510 . S
C267 H265 0.959 . S
C267 H266 0.961 . S
C267 H268 0.960 . S
H268 C267 0.960 . S
H269 N249 0.862 . S
O270 Co238 1.920 . S
O270 C243 1.289 1_554 S
C271 O263 1.258 . S
C271 O264 1.266 . S
Co272 O275 1.970 . S
Co272 N289 1.989 . S
Co272 O297 1.967 . S
Co272 O304 1.920 . S
Co273 O276 1.966 . S
Co273 N282 2.022 . S
Co273 N290 1.993 . S
Co273 O298 1.941 . S
C274 O275 1.258 . S
C274 O276 1.263 . S
O275 Co272 1.970 . S
O275 C274 1.258 . S
O276 Co273 1.966 . S
O276 C274 1.263 . S
C277 O278 1.235 1_556 S
C277 O304 1.289 1_556 S
O278 C277 1.235 1_554 S
C279 C281 1.400 . S
C279 N282 1.351 . S
C279 C284 1.501 . S
C280 C281 1.387 . S
C280 N283 1.341 . S
C281 C279 1.400 . S
C281 C280 1.387 . S
N282 Co273 2.022 . S
N282 C279 1.351 . S
N282 N283 1.365 . S
N283 C280 1.341 . S
N283 N282 1.365 . S
N283 H303 0.862 . S
C284 C279 1.501 . S
C284 H285 0.961 . S
C284 H286 0.961 . S
C284 H287 0.960 . S
H285 C284 0.961 . S
H286 C284 0.961 . S
H287 C284 0.960 . S
C288 N289 1.342 . S
C288 C292 1.401 . S
C288 C293 1.499 . S
N289 Co272 1.989 . S
N289 C288 1.342 . S
N289 N290 1.388 . S
N290 Co273 1.993 . S
N290 N289 1.388 . S
N290 C291 1.346 . S
C291 N290 1.346 . S
C291 C292 1.396 . S
C291 C301 1.510 . S
C292 C288 1.401 . S
C292 C291 1.396 . S
C293 C288 1.499 . S
C293 H294 0.959 . S
C293 H295 0.960 . S
C293 H296 0.961 . S
H294 C293 0.959 . S
H295 C293 0.960 . S
H296 C293 0.961 . S
O297 Co272 1.967 . S
O297 C305 1.258 . S
O298 Co273 1.941 . S
O298 C305 1.266 . S
H299 C301 0.959 . S
H300 C301 0.961 . S
C301 C291 1.510 . S
C301 H299 0.959 . S
C301 H300 0.961 . S
C301 H302 0.960 . S
H302 C301 0.960 . S
H303 N283 0.862 . S
O304 Co272 1.920 . S
O304 C277 1.289 1_554 S
C305 O297 1.258 . S
C305 O298 1.266 . S
Co306 O309 1.970 . S
Co306 N323 1.989 . S
Co306 O331 1.967 . S
Co306 O338 1.920 . S
Co307 O310 1.966 . S
Co307 N316 2.022 . S
Co307 N324 1.993 . S
Co307 O332 1.941 . S
C308 O309 1.258 . S
C308 O310 1.263 . S
O309 Co306 1.970 . S
O309 C308 1.258 . S
O310 Co307 1.966 . S
O310 C308 1.263 . S
C311 O312 1.235 1_556 S
C311 O338 1.289 1_556 S
O312 C311 1.235 1_554 S
C313 C315 1.400 . S
C313 N316 1.351 . S
C313 C318 1.501 . S
C314 C315 1.387 . S
C314 N317 1.341 . S
C315 C313 1.400 . S
C315 C314 1.387 . S
N316 Co307 2.022 . S
N316 C313 1.351 . S
N316 N317 1.365 . S
N317 C314 1.341 . S
N317 N316 1.365 . S
N317 H337 0.862 . S
C318 C313 1.501 . S
C318 H319 0.961 . S
C318 H320 0.961 . S
C318 H321 0.960 . S
H319 C318 0.961 . S
H320 C318 0.961 . S
H321 C318 0.960 . S
C322 N323 1.342 . S
C322 C326 1.401 . S
C322 C327 1.499 . S
N323 Co306 1.989 . S
N323 C322 1.342 . S
N323 N324 1.388 . S
N324 Co307 1.993 . S
N324 N323 1.388 . S
N324 C325 1.346 . S
C325 N324 1.346 . S
C325 C326 1.396 . S
C325 C335 1.510 . S
C326 C322 1.401 . S
C326 C325 1.396 . S
C327 C322 1.499 . S
C327 H328 0.959 . S
C327 H329 0.960 . S
C327 H330 0.961 . S
H328 C327 0.959 . S
H329 C327 0.960 . S
H330 C327 0.961 . S
O331 Co306 1.967 . S
O331 C339 1.258 . S
O332 Co307 1.941 . S
O332 C339 1.266 . S
H333 C335 0.959 . S
H334 C335 0.961 . S
C335 C325 1.510 . S
C335 H333 0.959 . S
C335 H334 0.961 . S
C335 H336 0.960 . S
H336 C335 0.960 . S
H337 N317 0.862 . S
O338 Co306 1.920 . S
O338 C311 1.289 1_554 S
C339 O331 1.258 . S
C339 O332 1.266 . S
Co340 O343 1.970 . S
Co340 N357 1.989 . S
Co340 O365 1.967 . S
Co340 O372 1.920 . S
Co341 O344 1.966 . S
Co341 N350 2.022 . S
Co341 N358 1.993 . S
Co341 O366 1.941 . S
C342 O343 1.258 . S
C342 O344 1.263 . S
O343 Co340 1.970 . S
O343 C342 1.258 . S
O344 Co341 1.966 . S
O344 C342 1.263 . S
C345 O346 1.235 1_556 S
C345 O372 1.289 1_556 S
O346 C345 1.235 1_554 S
C347 C349 1.400 . S
C347 N350 1.351 . S
C347 C352 1.501 . S
C348 C349 1.387 . S
C348 N351 1.341 . S
C349 C347 1.400 . S
C349 C348 1.387 . S
N350 Co341 2.022 . S
N350 C347 1.351 . S
N350 N351 1.365 . S
N351 C348 1.341 . S
N351 N350 1.365 . S
N351 H371 0.862 . S
C352 C347 1.501 . S
C352 H353 0.961 . S
C352 H354 0.961 . S
C352 H355 0.960 . S
H353 C352 0.961 . S
H354 C352 0.961 . S
H355 C352 0.960 . S
C356 N357 1.342 . S
C356 C360 1.401 . S
C356 C361 1.499 . S
N357 Co340 1.989 . S
N357 C356 1.342 . S
N357 N358 1.388 . S
N358 Co341 1.993 . S
N358 N357 1.388 . S
N358 C359 1.346 . S
C359 N358 1.346 . S
C359 C360 1.396 . S
C359 C369 1.510 . S
C360 C356 1.401 . S
C360 C359 1.396 . S
C361 C356 1.499 . S
C361 H362 0.959 . S
C361 H363 0.960 . S
C361 H364 0.961 . S
H362 C361 0.959 . S
H363 C361 0.960 . S
H364 C361 0.961 . S
O365 Co340 1.967 . S
O365 C373 1.258 . S
O366 Co341 1.941 . S
O366 C373 1.266 . S
H367 C369 0.959 . S
H368 C369 0.961 . S
C369 C359 1.510 . S
C369 H367 0.959 . S
C369 H368 0.961 . S
C369 H370 0.960 . S
H370 C369 0.960 . S
H371 N351 0.862 . S
O372 Co340 1.920 . S
O372 C345 1.289 1_554 S
C373 O365 1.258 . S
C373 O366 1.266 . S
Co374 O377 1.970 . S
Co374 N391 1.989 . S
Co374 O399 1.967 . S
Co374 O406 1.920 . S
Co375 O378 1.966 . S
Co375 N384 2.022 . S
Co375 N392 1.993 . S
Co375 O400 1.941 . S
C376 O377 1.258 . S
C376 O378 1.263 . S
O377 Co374 1.970 . S
O377 C376 1.258 . S
O378 Co375 1.966 . S
O378 C376 1.263 . S
C379 O380 1.235 1_556 S
C379 O406 1.289 1_556 S
O380 C379 1.235 1_554 S
C381 C383 1.400 . S
C381 N384 1.351 . S
C381 C386 1.501 . S
C382 C383 1.387 . S
C382 N385 1.341 . S
C383 C381 1.400 . S
C383 C382 1.387 . S
N384 Co375 2.022 . S
N384 C381 1.351 . S
N384 N385 1.365 . S
N385 C382 1.341 . S
N385 N384 1.365 . S
N385 H405 0.862 . S
C386 C381 1.501 . S
C386 H387 0.961 . S
C386 H388 0.961 . S
C386 H389 0.960 . S
H387 C386 0.961 . S
H388 C386 0.961 . S
H389 C386 0.960 . S
C390 N391 1.342 . S
C390 C394 1.401 . S
C390 C395 1.499 . S
N391 Co374 1.989 . S
N391 C390 1.342 . S
N391 N392 1.388 . S
N392 Co375 1.993 . S
N392 N391 1.388 . S
N392 C393 1.346 . S
C393 N392 1.346 . S
C393 C394 1.396 . S
C393 C403 1.510 . S
C394 C390 1.401 . S
C394 C393 1.396 . S
C395 C390 1.499 . S
C395 H396 0.959 . S
C395 H397 0.960 . S
C395 H398 0.961 . S
H396 C395 0.959 . S
H397 C395 0.960 . S
H398 C395 0.961 . S
O399 Co374 1.967 . S
O399 C407 1.258 . S
O400 Co375 1.941 . S
O400 C407 1.266 . S
H401 C403 0.959 . S
H402 C403 0.961 . S
C403 C393 1.510 . S
C403 H401 0.959 . S
C403 H402 0.961 . S
C403 H404 0.960 . S
H404 C403 0.960 . S
H405 N385 0.862 . S
O406 Co374 1.920 . S
O406 C379 1.289 1_554 S
C407 O399 1.258 . S
C407 O400 1.266 . S
H408 C420 0.930 . S
H409 C422 0.930 . S
H410 C423 0.930 . S
H411 C427 0.959 . S
H412 C427 0.959 . S
H413 C427 0.961 . S
H414 C428 0.960 . S
H415 C428 0.961 . S
H416 C428 0.959 . S
H417 C431 0.929 . S
H418 C432 0.931 . S
H419 C434 0.930 . S
C420 H408 0.930 . S
C420 C421 1.399 . S
C420 C425 1.399 . S
C421 C420 1.399 . S
C421 C422 1.376 . S
C422 H409 0.930 . S
C422 C421 1.376 . S
C422 C423 1.388 . S
C423 H410 0.930 . S
C423 C422 1.388 . S
C423 C424 1.390 . S
C424 C423 1.390 . S
C424 C425 1.394 . S
C424 C430 1.465 . S
C425 C420 1.399 . S
C425 C424 1.394 . S
C425 C426 1.516 . S
C426 C425 1.516 . S
C426 C427 1.502 . S
C426 C428 1.561 . S
C426 C429 1.526 . S
C427 H411 0.959 . S
C427 H412 0.959 . S
C427 H413 0.961 . S
C427 C426 1.502 . S
C428 H414 0.960 . S
C428 H415 0.961 . S
C428 H416 0.959 . S
C428 C426 1.561 . S
C429 C426 1.526 . S
C429 C430 1.396 . S
C429 C434 1.390 . S
C430 C424 1.465 . S
C430 C429 1.396 . S
C430 C431 1.399 . S
C431 H417 0.929 . S
C431 C430 1.399 . S
C431 C432 1.385 . S
C432 H418 0.931 . S
C432 C431 1.385 . S
C432 C433 1.389 . S
C433 C432 1.389 . S
C433 C434 1.387 . S
C434 H419 0.930 . S
C434 C429 1.390 . S
C434 C433 1.387 . S
H435 C447 0.930 . S
H436 C449 0.930 . S
H437 C450 0.930 . S
H438 C454 0.959 . S
H439 C454 0.959 . S
H440 C454 0.961 . S
H441 C455 0.960 . S
H442 C455 0.961 . S
H443 C455 0.959 . S
H444 C458 0.929 . S
H445 C459 0.931 . S
H446 C461 0.930 . S
C447 H435 0.930 . S
C447 C448 1.399 . S
C447 C452 1.399 . S
C448 C447 1.399 . S
C448 C449 1.376 . S
C449 H436 0.930 . S
C449 C448 1.376 . S
C449 C450 1.388 . S
C450 H437 0.930 . S
C450 C449 1.388 . S
C450 C451 1.390 . S
C451 C450 1.390 . S
C451 C452 1.394 . S
C451 C457 1.465 . S
C452 C447 1.399 . S
C452 C451 1.394 . S
C452 C453 1.516 . S
C453 C452 1.516 . S
C453 C454 1.502 . S
C453 C455 1.561 . S
C453 C456 1.526 . S
C454 H438 0.959 . S
C454 H439 0.959 . S
C454 H440 0.961 . S
C454 C453 1.502 . S
C455 H441 0.960 . S
C455 H442 0.961 . S
C455 H443 0.959 . S
C455 C453 1.561 . S
C456 C453 1.526 . S
C456 C457 1.396 . S
C456 C461 1.390 . S
C457 C451 1.465 . S
C457 C456 1.396 . S
C457 C458 1.399 . S
C458 H444 0.929 . S
C458 C457 1.399 . S
C458 C459 1.385 . S
C459 H445 0.931 . S
C459 C458 1.385 . S
C459 C460 1.389 . S
C460 C459 1.389 . S
C460 C461 1.387 . S
C461 H446 0.930 . S
C461 C456 1.390 . S
C461 C460 1.387 . S
H462 C474 0.930 . S
H463 C476 0.930 . S
H464 C477 0.930 . S
H465 C481 0.959 . S
H466 C481 0.959 . S
H467 C481 0.961 . S
H468 C482 0.960 . S
H469 C482 0.961 . S
H470 C482 0.959 . S
H471 C485 0.929 . S
H472 C486 0.931 . S
H473 C488 0.930 . S
C474 H462 0.930 . S
C474 C475 1.399 . S
C474 C479 1.399 . S
C475 C474 1.399 . S
C475 C476 1.376 . S
C476 H463 0.930 . S
C476 C475 1.376 . S
C476 C477 1.388 . S
C477 H464 0.930 . S
C477 C476 1.388 . S
C477 C478 1.390 . S
C478 C477 1.390 . S
C478 C479 1.394 . S
C478 C484 1.465 . S
C479 C474 1.399 . S
C479 C478 1.394 . S
C479 C480 1.516 . S
C480 C479 1.516 . S
C480 C481 1.502 . S
C480 C482 1.561 . S
C480 C483 1.526 . S
C481 H465 0.959 . S
C481 H466 0.959 . S
C481 H467 0.961 . S
C481 C480 1.502 . S
C482 H468 0.960 . S
C482 H469 0.961 . S
C482 H470 0.959 . S
C482 C480 1.561 . S
C483 C480 1.526 . S
C483 C484 1.396 . S
C483 C488 1.390 . S
C484 C478 1.465 . S
C484 C483 1.396 . S
C484 C485 1.399 . S
C485 H471 0.929 . S
C485 C484 1.399 . S
C485 C486 1.385 . S
C486 H472 0.931 . S
C486 C485 1.385 . S
C486 C487 1.389 . S
C487 C486 1.389 . S
C487 C488 1.387 . S
C488 H473 0.930 . S
C488 C483 1.390 . S
C488 C487 1.387 . S
H489 C501 0.930 . S
H490 C503 0.930 . S
H491 C504 0.930 . S
H492 C508 0.959 . S
H493 C508 0.959 . S
H494 C508 0.961 . S
H495 C509 0.960 . S
H496 C509 0.961 . S
H497 C509 0.959 . S
H498 C512 0.929 . S
H499 C513 0.931 . S
H500 C515 0.930 . S
C501 H489 0.930 . S
C501 C502 1.399 . S
C501 C506 1.399 . S
C502 C501 1.399 . S
C502 C503 1.376 . S
C503 H490 0.930 . S
C503 C502 1.376 . S
C503 C504 1.388 . S
C504 H491 0.930 . S
C504 C503 1.388 . S
C504 C505 1.390 . S
C505 C504 1.390 . S
C505 C506 1.394 . S
C505 C511 1.465 . S
C506 C501 1.399 . S
C506 C505 1.394 . S
C506 C507 1.516 . S
C507 C506 1.516 . S
C507 C508 1.502 . S
C507 C509 1.561 . S
C507 C510 1.526 . S
C508 H492 0.959 . S
C508 H493 0.959 . S
C508 H494 0.961 . S
C508 C507 1.502 . S
C509 H495 0.960 . S
C509 H496 0.961 . S
C509 H497 0.959 . S
C509 C507 1.561 . S
C510 C507 1.526 . S
C510 C511 1.396 . S
C510 C515 1.390 . S
C511 C505 1.465 . S
C511 C510 1.396 . S
C511 C512 1.399 . S
C512 H498 0.929 . S
C512 C511 1.399 . S
C512 C513 1.385 . S
C513 H499 0.931 . S
C513 C512 1.385 . S
C513 C514 1.389 . S
C514 C513 1.389 . S
C514 C515 1.387 . S
C515 H500 0.930 . S
C515 C510 1.390 . S
C515 C514 1.387 . S
H516 C528 0.930 . S
H517 C530 0.930 . S
H518 C531 0.930 . S
H519 C535 0.959 . S
H520 C535 0.959 . S
H521 C535 0.961 . S
H522 C536 0.960 . S
H523 C536 0.961 . S
H524 C536 0.959 . S
H525 C539 0.929 . S
H526 C540 0.931 . S
H527 C542 0.930 . S
C528 H516 0.930 . S
C528 C529 1.399 . S
C528 C533 1.399 . S
C529 C528 1.399 . S
C529 C530 1.376 . S
C530 H517 0.930 . S
C530 C529 1.376 . S
C530 C531 1.388 . S
C531 H518 0.930 . S
C531 C530 1.388 . S
C531 C532 1.390 . S
C532 C531 1.390 . S
C532 C533 1.394 . S
C532 C538 1.465 . S
C533 C528 1.399 . S
C533 C532 1.394 . S
C533 C534 1.516 . S
C534 C533 1.516 . S
C534 C535 1.502 . S
C534 C536 1.561 . S
C534 C537 1.526 . S
C535 H519 0.959 . S
C535 H520 0.959 . S
C535 H521 0.961 . S
C535 C534 1.502 . S
C536 H522 0.960 . S
C536 H523 0.961 . S
C536 H524 0.959 . S
C536 C534 1.561 . S
C537 C534 1.526 . S
C537 C538 1.396 . S
C537 C542 1.390 . S
C538 C532 1.465 . S
C538 C537 1.396 . S
C538 C539 1.399 . S
C539 H525 0.929 . S
C539 C538 1.399 . S
C539 C540 1.385 . S
C540 H526 0.931 . S
C540 C539 1.385 . S
C540 C541 1.389 . S
C541 C540 1.389 . S
C541 C542 1.387 . S
C542 H527 0.930 . S
C542 C537 1.390 . S
C542 C541 1.387 . S
H543 C555 0.930 . S
H544 C557 0.930 . S
H545 C558 0.930 . S
H546 C562 0.959 . S
H547 C562 0.959 . S
H548 C562 0.961 . S
H549 C563 0.960 . S
H550 C563 0.961 . S
H551 C563 0.959 . S
H552 C566 0.929 . S
H553 C567 0.931 . S
H554 C569 0.930 . S
C555 H543 0.930 . S
C555 C556 1.399 . S
C555 C560 1.399 . S
C556 C555 1.399 . S
C556 C557 1.376 . S
C557 H544 0.930 . S
C557 C556 1.376 . S
C557 C558 1.388 . S
C558 H545 0.930 . S
C558 C557 1.388 . S
C558 C559 1.390 . S
C559 C558 1.390 . S
C559 C560 1.394 . S
C559 C565 1.465 . S
C560 C555 1.399 . S
C560 C559 1.394 . S
C560 C561 1.516 . S
C561 C560 1.516 . S
C561 C562 1.502 . S
C561 C563 1.561 . S
C561 C564 1.526 . S
C562 H546 0.959 . S
C562 H547 0.959 . S
C562 H548 0.961 . S
C562 C561 1.502 . S
C563 H549 0.960 . S
C563 H550 0.961 . S
C563 H551 0.959 . S
C563 C561 1.561 . S
C564 C561 1.526 . S
C564 C565 1.396 . S
C564 C569 1.390 . S
C565 C559 1.465 . S
C565 C564 1.396 . S
C565 C566 1.399 . S
C566 H552 0.929 . S
C566 C565 1.399 . S
C566 C567 1.385 . S
C567 H553 0.931 . S
C567 C566 1.385 . S
C567 C568 1.389 . S
C568 C567 1.389 . S
C568 C569 1.387 . S
C569 H554 0.930 . S
C569 C564 1.390 . S
C569 C568 1.387 . S
H570 C582 0.930 . S
H571 C584 0.930 . S
H572 C585 0.930 . S
H573 C589 0.959 . S
H574 C589 0.959 . S
H575 C589 0.961 . S
H576 C590 0.960 . S
H577 C590 0.961 . S
H578 C590 0.959 . S
H579 C593 0.929 . S
H580 C594 0.931 . S
H581 C596 0.930 . S
C582 H570 0.930 . S
C582 C583 1.399 . S
C582 C587 1.399 . S
C583 C582 1.399 . S
C583 C584 1.376 . S
C584 H571 0.930 . S
C584 C583 1.376 . S
C584 C585 1.388 . S
C585 H572 0.930 . S
C585 C584 1.388 . S
C585 C586 1.390 . S
C586 C585 1.390 . S
C586 C587 1.394 . S
C586 C592 1.465 . S
C587 C582 1.399 . S
C587 C586 1.394 . S
C587 C588 1.516 . S
C588 C587 1.516 . S
C588 C589 1.502 . S
C588 C590 1.561 . S
C588 C591 1.526 . S
C589 H573 0.959 . S
C589 H574 0.959 . S
C589 H575 0.961 . S
C589 C588 1.502 . S
C590 H576 0.960 . S
C590 H577 0.961 . S
C590 H578 0.959 . S
C590 C588 1.561 . S
C591 C588 1.526 . S
C591 C592 1.396 . S
C591 C596 1.390 . S
C592 C586 1.465 . S
C592 C591 1.396 . S
C592 C593 1.399 . S
C593 H579 0.929 . S
C593 C592 1.399 . S
C593 C594 1.385 . S
C594 H580 0.931 . S
C594 C593 1.385 . S
C594 C595 1.389 . S
C595 C594 1.389 . S
C595 C596 1.387 . S
C596 H581 0.930 . S
C596 C591 1.390 . S
C596 C595 1.387 . S
H597 C609 0.930 . S
H598 C611 0.930 . S
H599 C612 0.930 . S
H600 C616 0.959 . S
H601 C616 0.959 . S
H602 C616 0.961 . S
H603 C617 0.960 . S
H604 C617 0.961 . S
H605 C617 0.959 . S
H606 C620 0.929 . S
H607 C621 0.931 . S
H608 C623 0.930 . S
C609 H597 0.930 . S
C609 C610 1.399 . S
C609 C614 1.399 . S
C610 C609 1.399 . S
C610 C611 1.376 . S
C611 H598 0.930 . S
C611 C610 1.376 . S
C611 C612 1.388 . S
C612 H599 0.930 . S
C612 C611 1.388 . S
C612 C613 1.390 . S
C613 C612 1.390 . S
C613 C614 1.394 . S
C613 C619 1.465 . S
C614 C609 1.399 . S
C614 C613 1.394 . S
C614 C615 1.516 . S
C615 C614 1.516 . S
C615 C616 1.502 . S
C615 C617 1.561 . S
C615 C618 1.526 . S
C616 H600 0.959 . S
C616 H601 0.959 . S
C616 H602 0.961 . S
C616 C615 1.502 . S
C617 H603 0.960 . S
C617 H604 0.961 . S
C617 H605 0.959 . S
C617 C615 1.561 . S
C618 C615 1.526 . S
C618 C619 1.396 . S
C618 C623 1.390 . S
C619 C613 1.465 . S
C619 C618 1.396 . S
C619 C620 1.399 . S
C620 H606 0.929 . S
C620 C619 1.399 . S
C620 C621 1.385 . S
C621 H607 0.931 . S
C621 C620 1.385 . S
C621 C622 1.389 . S
C622 C621 1.389 . S
C622 C623 1.387 . S
C623 H608 0.930 . S
C623 C618 1.390 . S
C623 C622 1.387 . S
H624 C636 0.930 . S
H625 C638 0.930 . S
H626 C639 0.930 . S
H627 C643 0.959 . S
H628 C643 0.959 . S
H629 C643 0.961 . S
H630 C644 0.960 . S
H631 C644 0.961 . S
H632 C644 0.959 . S
H633 C647 0.929 . S
H634 C648 0.931 . S
H635 C650 0.930 . S
C636 H624 0.930 . S
C636 C637 1.399 . S
C636 C641 1.399 . S
C637 C636 1.399 . S
C637 C638 1.376 . S
C638 H625 0.930 . S
C638 C637 1.376 . S
C638 C639 1.388 . S
C639 H626 0.930 . S
C639 C638 1.388 . S
C639 C640 1.390 . S
C640 C639 1.390 . S
C640 C641 1.394 . S
C640 C646 1.465 . S
C641 C636 1.399 . S
C641 C640 1.394 . S
C641 C642 1.516 . S
C642 C641 1.516 . S
C642 C643 1.502 . S
C642 C644 1.561 . S
C642 C645 1.526 . S
C643 H627 0.959 . S
C643 H628 0.959 . S
C643 H629 0.961 . S
C643 C642 1.502 . S
C644 H630 0.960 . S
C644 H631 0.961 . S
C644 H632 0.959 . S
C644 C642 1.561 . S
C645 C642 1.526 . S
C645 C646 1.396 . S
C645 C650 1.390 . S
C646 C640 1.465 . S
C646 C645 1.396 . S
C646 C647 1.399 . S
C647 H633 0.929 . S
C647 C646 1.399 . S
C647 C648 1.385 . S
C648 H634 0.931 . S
C648 C647 1.385 . S
C648 C649 1.389 . S
C649 C648 1.389 . S
C649 C650 1.387 . S
C650 H635 0.930 . S
C650 C645 1.390 . S
C650 C649 1.387 . S
H651 C663 0.930 . S
H652 C665 0.930 . S
H653 C666 0.930 . S
H654 C670 0.959 . S
H655 C670 0.959 . S
H656 C670 0.961 . S
H657 C671 0.960 . S
H658 C671 0.961 . S
H659 C671 0.959 . S
H660 C674 0.929 . S
H661 C675 0.931 . S
H662 C677 0.930 . S
C663 H651 0.930 . S
C663 C664 1.399 . S
C663 C668 1.399 . S
C664 C663 1.399 . S
C664 C665 1.376 . S
C665 H652 0.930 . S
C665 C664 1.376 . S
C665 C666 1.388 . S
C666 H653 0.930 . S
C666 C665 1.388 . S
C666 C667 1.390 . S
C667 C666 1.390 . S
C667 C668 1.394 . S
C667 C673 1.465 . S
C668 C663 1.399 . S
C668 C667 1.394 . S
C668 C669 1.516 . S
C669 C668 1.516 . S
C669 C670 1.502 . S
C669 C671 1.561 . S
C669 C672 1.526 . S
C670 H654 0.959 . S
C670 H655 0.959 . S
C670 H656 0.961 . S
C670 C669 1.502 . S
C671 H657 0.960 . S
C671 H658 0.961 . S
C671 H659 0.959 . S
C671 C669 1.561 . S
C672 C669 1.526 . S
C672 C673 1.396 . S
C672 C677 1.390 . S
C673 C667 1.465 . S
C673 C672 1.396 . S
C673 C674 1.399 . S
C674 H660 0.929 . S
C674 C673 1.399 . S
C674 C675 1.385 . S
C675 H661 0.931 . S
C675 C674 1.385 . S
C675 C676 1.389 . S
C676 C675 1.389 . S
C676 C677 1.387 . S
C677 H662 0.930 . S
C677 C672 1.390 . S
C677 C676 1.387 . S
H678 C690 0.930 . S
H679 C692 0.930 . S
H680 C693 0.930 . S
H681 C697 0.959 . S
H682 C697 0.959 . S
H683 C697 0.961 . S
H684 C698 0.960 . S
H685 C698 0.961 . S
H686 C698 0.959 . S
H687 C701 0.929 . S
H688 C702 0.931 . S
H689 C704 0.930 . S
C690 H678 0.930 . S
C690 C691 1.399 . S
C690 C695 1.399 . S
C691 C690 1.399 . S
C691 C692 1.376 . S
C692 H679 0.930 . S
C692 C691 1.376 . S
C692 C693 1.388 . S
C693 H680 0.930 . S
C693 C692 1.388 . S
C693 C694 1.390 . S
C694 C693 1.390 . S
C694 C695 1.394 . S
C694 C700 1.465 . S
C695 C690 1.399 . S
C695 C694 1.394 . S
C695 C696 1.516 . S
C696 C695 1.516 . S
C696 C697 1.502 . S
C696 C698 1.561 . S
C696 C699 1.526 . S
C697 H681 0.959 . S
C697 H682 0.959 . S
C697 H683 0.961 . S
C697 C696 1.502 . S
C698 H684 0.960 . S
C698 H685 0.961 . S
C698 H686 0.959 . S
C698 C696 1.561 . S
C699 C696 1.526 . S
C699 C700 1.396 . S
C699 C704 1.390 . S
C700 C694 1.465 . S
C700 C699 1.396 . S
C700 C701 1.399 . S
C701 H687 0.929 . S
C701 C700 1.399 . S
C701 C702 1.385 . S
C702 H688 0.931 . S
C702 C701 1.385 . S
C702 C703 1.389 . S
C703 C702 1.389 . S
C703 C704 1.387 . S
C704 H689 0.930 . S
C704 C699 1.390 . S
C704 C703 1.387 . S
H705 C717 0.930 . S
H706 C719 0.930 . S
H707 C720 0.930 . S
H708 C724 0.959 . S
H709 C724 0.959 . S
H710 C724 0.961 . S
H711 C725 0.960 . S
H712 C725 0.961 . S
H713 C725 0.959 . S
H714 C728 0.929 . S
H715 C729 0.931 . S
H716 C731 0.930 . S
C717 H705 0.930 . S
C717 C718 1.399 . S
C717 C722 1.399 . S
C718 C717 1.399 . S
C718 C719 1.376 . S
C719 H706 0.930 . S
C719 C718 1.376 . S
C719 C720 1.388 . S
C720 H707 0.930 . S
C720 C719 1.388 . S
C720 C721 1.390 . S
C721 C720 1.390 . S
C721 C722 1.394 . S
C721 C727 1.465 . S
C722 C717 1.399 . S
C722 C721 1.394 . S
C722 C723 1.516 . S
C723 C722 1.516 . S
C723 C724 1.502 . S
C723 C725 1.561 . S
C723 C726 1.526 . S
C724 H708 0.959 . S
C724 H709 0.959 . S
C724 H710 0.961 . S
C724 C723 1.502 . S
C725 H711 0.960 . S
C725 H712 0.961 . S
C725 H713 0.959 . S
C725 C723 1.561 . S
C726 C723 1.526 . S
C726 C727 1.396 . S
C726 C731 1.390 . S
C727 C721 1.465 . S
C727 C726 1.396 . S
C727 C728 1.399 . S
C728 H714 0.929 . S
C728 C727 1.399 . S
C728 C729 1.385 . S
C729 H715 0.931 . S
C729 C728 1.385 . S
C729 C730 1.389 . S
C730 C729 1.389 . S
C730 C731 1.387 . S
C731 H716 0.930 . S
C731 C726 1.390 . S
C731 C730 1.387 . S
H732 C744 0.930 . S
H733 C746 0.930 . S
H734 C747 0.930 . S
H735 C751 0.959 . S
H736 C751 0.959 . S
H737 C751 0.961 . S
H738 C752 0.960 . S
H739 C752 0.961 . S
H740 C752 0.959 . S
H741 C755 0.929 . S
H742 C756 0.931 . S
H743 C758 0.930 . S
C744 H732 0.930 . S
C744 C745 1.399 . S
C744 C749 1.399 . S
C745 C744 1.399 . S
C745 C746 1.376 . S
C746 H733 0.930 . S
C746 C745 1.376 . S
C746 C747 1.388 . S
C747 H734 0.930 . S
C747 C746 1.388 . S
C747 C748 1.390 . S
C748 C747 1.390 . S
C748 C749 1.394 . S
C748 C754 1.465 . S
C749 C744 1.399 . S
C749 C748 1.394 . S
C749 C750 1.516 . S
C750 C749 1.516 . S
C750 C751 1.502 . S
C750 C752 1.561 . S
C750 C753 1.526 . S
C751 H735 0.959 . S
C751 H736 0.959 . S
C751 H737 0.961 . S
C751 C750 1.502 . S
C752 H738 0.960 . S
C752 H739 0.961 . S
C752 H740 0.959 . S
C752 C750 1.561 . S
C753 C750 1.526 . S
C753 C754 1.396 . S
C753 C758 1.390 . S
C754 C748 1.465 . S
C754 C753 1.396 . S
C754 C755 1.399 . S
C755 H741 0.929 . S
C755 C754 1.399 . S
C755 C756 1.385 . S
C756 H742 0.931 . S
C756 C755 1.385 . S
C756 C757 1.389 . S
C757 C756 1.389 . S
C757 C758 1.387 . S
C758 H743 0.930 . S
C758 C753 1.390 . S
C758 C757 1.387 . S
H759 C771 0.930 . S
H760 C773 0.930 . S
H761 C774 0.930 . S
H762 C778 0.959 . S
H763 C778 0.959 . S
H764 C778 0.961 . S
H765 C779 0.960 . S
H766 C779 0.961 . S
H767 C779 0.959 . S
H768 C782 0.929 . S
H769 C783 0.931 . S
H770 C785 0.930 . S
C771 H759 0.930 . S
C771 C772 1.399 . S
C771 C776 1.399 . S
C772 C771 1.399 . S
C772 C773 1.376 . S
C773 H760 0.930 . S
C773 C772 1.376 . S
C773 C774 1.388 . S
C774 H761 0.930 . S
C774 C773 1.388 . S
C774 C775 1.390 . S
C775 C774 1.390 . S
C775 C776 1.394 . S
C775 C781 1.465 . S
C776 C771 1.399 . S
C776 C775 1.394 . S
C776 C777 1.516 . S
C777 C776 1.516 . S
C777 C778 1.502 . S
C777 C779 1.561 . S
C777 C780 1.526 . S
C778 H762 0.959 . S
C778 H763 0.959 . S
C778 H764 0.961 . S
C778 C777 1.502 . S
C779 H765 0.960 . S
C779 H766 0.961 . S
C779 H767 0.959 . S
C779 C777 1.561 . S
C780 C777 1.526 . S
C780 C781 1.396 . S
C780 C785 1.390 . S
C781 C775 1.465 . S
C781 C780 1.396 . S
C781 C782 1.399 . S
C782 H768 0.929 . S
C782 C781 1.399 . S
C782 C783 1.385 . S
C783 H769 0.931 . S
C783 C782 1.385 . S
C783 C784 1.389 . S
C784 C783 1.389 . S
C784 C785 1.387 . S
C785 H770 0.930 . S
C785 C780 1.390 . S
C785 C784 1.387 . S
H786 C798 0.930 . S
H787 C800 0.930 . S
H788 C801 0.930 . S
H789 C805 0.959 . S
H790 C805 0.959 . S
H791 C805 0.961 . S
H792 C806 0.960 . S
H793 C806 0.961 . S
H794 C806 0.959 . S
H795 C809 0.929 . S
H796 C810 0.931 . S
H797 C812 0.930 . S
C798 H786 0.930 . S
C798 C799 1.399 . S
C798 C803 1.399 . S
C799 C798 1.399 . S
C799 C800 1.376 . S
C800 H787 0.930 . S
C800 C799 1.376 . S
C800 C801 1.388 . S
C801 H788 0.930 . S
C801 C800 1.388 . S
C801 C802 1.390 . S
C802 C801 1.390 . S
C802 C803 1.394 . S
C802 C808 1.465 . S
C803 C798 1.399 . S
C803 C802 1.394 . S
C803 C804 1.516 . S
C804 C803 1.516 . S
C804 C805 1.502 . S
C804 C806 1.561 . S
C804 C807 1.526 . S
C805 H789 0.959 . S
C805 H790 0.959 . S
C805 H791 0.961 . S
C805 C804 1.502 . S
C806 H792 0.960 . S
C806 H793 0.961 . S
C806 H794 0.959 . S
C806 C804 1.561 . S
C807 C804 1.526 . S
C807 C808 1.396 . S
C807 C812 1.390 . S
C808 C802 1.465 . S
C808 C807 1.396 . S
C808 C809 1.399 . S
C809 H795 0.929 . S
C809 C808 1.399 . S
C809 C810 1.385 . S
C810 H796 0.931 . S
C810 C809 1.385 . S
C810 C811 1.389 . S
C811 C810 1.389 . S
C811 C812 1.387 . S
C812 H797 0.930 . S
C812 C807 1.390 . S
C812 C811 1.387 . S
H813 C825 0.930 . S
H814 C827 0.930 . S
H815 C828 0.930 . S
H816 C832 0.959 . S
H817 C832 0.959 . S
H818 C832 0.961 . S
H819 C833 0.960 . S
H820 C833 0.961 . S
H821 C833 0.959 . S
H822 C836 0.929 . S
H823 C837 0.931 . S
H824 C839 0.930 . S
C825 H813 0.930 . S
C825 C826 1.399 . S
C825 C830 1.399 . S
C826 C825 1.399 . S
C826 C827 1.376 . S
C827 H814 0.930 . S
C827 C826 1.376 . S
C827 C828 1.388 . S
C828 H815 0.930 . S
C828 C827 1.388 . S
C828 C829 1.390 . S
C829 C828 1.390 . S
C829 C830 1.394 . S
C829 C835 1.465 . S
C830 C825 1.399 . S
C830 C829 1.394 . S
C830 C831 1.516 . S
C831 C830 1.516 . S
C831 C832 1.502 . S
C831 C833 1.561 . S
C831 C834 1.526 . S
C832 H816 0.959 . S
C832 H817 0.959 . S
C832 H818 0.961 . S
C832 C831 1.502 . S
C833 H819 0.960 . S
C833 H820 0.961 . S
C833 H821 0.959 . S
C833 C831 1.561 . S
C834 C831 1.526 . S
C834 C835 1.396 . S
C834 C839 1.390 . S
C835 C829 1.465 . S
C835 C834 1.396 . S
C835 C836 1.399 . S
C836 H822 0.929 . S
C836 C835 1.399 . S
C836 C837 1.385 . S
C837 H823 0.931 . S
C837 C836 1.385 . S
C837 C838 1.389 . S
C838 C837 1.389 . S
C838 C839 1.387 . S
C839 H824 0.930 . S
C839 C834 1.390 . S
C839 C838 1.387 . S
H840 C852 0.930 . S
H841 C854 0.930 . S
H842 C855 0.930 . S
H843 C859 0.959 . S
H844 C859 0.959 . S
H845 C859 0.961 . S
H846 C860 0.960 . S
H847 C860 0.961 . S
H848 C860 0.959 . S
H849 C863 0.929 . S
H850 C864 0.931 . S
H851 C866 0.930 . S
C852 H840 0.930 . S
C852 C853 1.399 . S
C852 C857 1.399 . S
C853 C852 1.399 . S
C853 C854 1.376 . S
C854 H841 0.930 . S
C854 C853 1.376 . S
C854 C855 1.388 . S
C855 H842 0.930 . S
C855 C854 1.388 . S
C855 C856 1.390 . S
C856 C855 1.390 . S
C856 C857 1.394 . S
C856 C862 1.465 . S
C857 C852 1.399 . S
C857 C856 1.394 . S
C857 C858 1.516 . S
C858 C857 1.516 . S
C858 C859 1.502 . S
C858 C860 1.561 . S
C858 C861 1.526 . S
C859 H843 0.959 . S
C859 H844 0.959 . S
C859 H845 0.961 . S
C859 C858 1.502 . S
C860 H846 0.960 . S
C860 H847 0.961 . S
C860 H848 0.959 . S
C860 C858 1.561 . S
C861 C858 1.526 . S
C861 C862 1.396 . S
C861 C866 1.390 . S
C862 C856 1.465 . S
C862 C861 1.396 . S
C862 C863 1.399 . S
C863 H849 0.929 . S
C863 C862 1.399 . S
C863 C864 1.385 . S
C864 H850 0.931 . S
C864 C863 1.385 . S
C864 C865 1.389 . S
C865 C864 1.389 . S
C865 C866 1.387 . S
C866 H851 0.930 . S
C866 C861 1.390 . S
C866 C865 1.387 . S
H867 C879 0.930 . S
H868 C881 0.930 . S
H869 C882 0.930 . S
H870 C886 0.959 . S
H871 C886 0.959 . S
H872 C886 0.961 . S
H873 C887 0.960 . S
H874 C887 0.961 . S
H875 C887 0.959 . S
H876 C890 0.929 . S
H877 C891 0.931 . S
H878 C893 0.930 . S
C879 H867 0.930 . S
C879 C880 1.399 . S
C879 C884 1.399 . S
C880 C879 1.399 . S
C880 C881 1.376 . S
C881 H868 0.930 . S
C881 C880 1.376 . S
C881 C882 1.388 . S
C882 H869 0.930 . S
C882 C881 1.388 . S
C882 C883 1.390 . S
C883 C882 1.390 . S
C883 C884 1.394 . S
C883 C889 1.465 . S
C884 C879 1.399 . S
C884 C883 1.394 . S
C884 C885 1.516 . S
C885 C884 1.516 . S
C885 C886 1.502 . S
C885 C887 1.561 . S
C885 C888 1.526 . S
C886 H870 0.959 . S
C886 H871 0.959 . S
C886 H872 0.961 . S
C886 C885 1.502 . S
C887 H873 0.960 . S
C887 H874 0.961 . S
C887 H875 0.959 . S
C887 C885 1.561 . S
C888 C885 1.526 . S
C888 C889 1.396 . S
C888 C893 1.390 . S
C889 C883 1.465 . S
C889 C888 1.396 . S
C889 C890 1.399 . S
C890 H876 0.929 . S
C890 C889 1.399 . S
C890 C891 1.385 . S
C891 H877 0.931 . S
C891 C890 1.385 . S
C891 C892 1.389 . S
C892 C891 1.389 . S
C892 C893 1.387 . S
C893 H878 0.930 . S
C893 C888 1.390 . S
C893 C892 1.387 . S
H894 C906 0.930 . S
H895 C908 0.930 . S
H896 C909 0.930 . S
H897 C913 0.959 . S
H898 C913 0.959 . S
H899 C913 0.961 . S
H900 C914 0.960 . S
H901 C914 0.961 . S
H902 C914 0.959 . S
H903 C917 0.929 . S
H904 C918 0.931 . S
H905 C920 0.930 . S
C906 H894 0.930 . S
C906 C907 1.399 . S
C906 C911 1.399 . S
C907 C906 1.399 . S
C907 C908 1.376 . S
C908 H895 0.930 . S
C908 C907 1.376 . S
C908 C909 1.388 . S
C909 H896 0.930 . S
C909 C908 1.388 . S
C909 C910 1.390 . S
C910 C909 1.390 . S
C910 C911 1.394 . S
C910 C916 1.465 . S
C911 C906 1.399 . S
C911 C910 1.394 . S
C911 C912 1.516 . S
C912 C911 1.516 . S
C912 C913 1.502 . S
C912 C914 1.561 . S
C912 C915 1.526 . S
C913 H897 0.959 . S
C913 H898 0.959 . S
C913 H899 0.961 . S
C913 C912 1.502 . S
C914 H900 0.960 . S
C914 H901 0.961 . S
C914 H902 0.959 . S
C914 C912 1.561 . S
C915 C912 1.526 . S
C915 C916 1.396 . S
C915 C920 1.390 . S
C916 C910 1.465 . S
C916 C915 1.396 . S
C916 C917 1.399 . S
C917 H903 0.929 . S
C917 C916 1.399 . S
C917 C918 1.385 . S
C918 H904 0.931 . S
C918 C917 1.385 . S
C918 C919 1.389 . S
C919 C918 1.389 . S
C919 C920 1.387 . S
C920 H905 0.930 . S
C920 C915 1.390 . S
C920 C919 1.387 . S
H921 C933 0.930 . S
H922 C935 0.930 . S
H923 C936 0.930 . S
H924 C940 0.959 . S
H925 C940 0.959 . S
H926 C940 0.961 . S
H927 C941 0.960 . S
H928 C941 0.961 . S
H929 C941 0.959 . S
H930 C944 0.929 . S
H931 C945 0.931 . S
H932 C947 0.930 . S
C933 H921 0.930 . S
C933 C934 1.399 . S
C933 C938 1.399 . S
C934 C933 1.399 . S
C934 C935 1.376 . S
C935 H922 0.930 . S
C935 C934 1.376 . S
C935 C936 1.388 . S
C936 H923 0.930 . S
C936 C935 1.388 . S
C936 C937 1.390 . S
C937 C936 1.390 . S
C937 C938 1.394 . S
C937 C943 1.465 . S
C938 C933 1.399 . S
C938 C937 1.394 . S
C938 C939 1.516 . S
C939 C938 1.516 . S
C939 C940 1.502 . S
C939 C941 1.561 . S
C939 C942 1.526 . S
C940 H924 0.959 . S
C940 H925 0.959 . S
C940 H926 0.961 . S
C940 C939 1.502 . S
C941 H927 0.960 . S
C941 H928 0.961 . S
C941 H929 0.959 . S
C941 C939 1.561 . S
C942 C939 1.526 . S
C942 C943 1.396 . S
C942 C947 1.390 . S
C943 C937 1.465 . S
C943 C942 1.396 . S
C943 C944 1.399 . S
C944 H930 0.929 . S
C944 C943 1.399 . S
C944 C945 1.385 . S
C945 H931 0.931 . S
C945 C944 1.385 . S
C945 C946 1.389 . S
C946 C945 1.389 . S
C946 C947 1.387 . S
C947 H932 0.930 . S
C947 C942 1.390 . S
C947 C946 1.387 . S
H948 C960 0.930 . S
H949 C962 0.930 . S
H950 C963 0.930 . S
H951 C967 0.959 . S
H952 C967 0.959 . S
H953 C967 0.961 . S
H954 C968 0.960 . S
H955 C968 0.961 . S
H956 C968 0.959 . S
H957 C971 0.929 . S
H958 C972 0.931 . S
H959 C974 0.930 . S
C960 H948 0.930 . S
C960 C961 1.399 . S
C960 C965 1.399 . S
C961 C960 1.399 . S
C961 C962 1.376 . S
C962 H949 0.930 . S
C962 C961 1.376 . S
C962 C963 1.388 . S
C963 H950 0.930 . S
C963 C962 1.388 . S
C963 C964 1.390 . S
C964 C963 1.390 . S
C964 C965 1.394 . S
C964 C970 1.465 . S
C965 C960 1.399 . S
C965 C964 1.394 . S
C965 C966 1.516 . S
C966 C965 1.516 . S
C966 C967 1.502 . S
C966 C968 1.561 . S
C966 C969 1.526 . S
C967 H951 0.959 . S
C967 H952 0.959 . S
C967 H953 0.961 . S
C967 C966 1.502 . S
C968 H954 0.960 . S
C968 H955 0.961 . S
C968 H956 0.959 . S
C968 C966 1.561 . S
C969 C966 1.526 . S
C969 C970 1.396 . S
C969 C974 1.390 . S
C970 C964 1.465 . S
C970 C969 1.396 . S
C970 C971 1.399 . S
C971 H957 0.929 . S
C971 C970 1.399 . S
C971 C972 1.385 . S
C972 H958 0.931 . S
C972 C971 1.385 . S
C972 C973 1.389 . S
C973 C972 1.389 . S
C973 C974 1.387 . S
C974 H959 0.930 . S
C974 C969 1.390 . S
C974 C973 1.387 . S
H975 C987 0.930 . S
H976 C989 0.930 . S
H977 C990 0.930 . S
H978 C994 0.959 . S
H979 C994 0.959 . S
H980 C994 0.961 . S
H981 C995 0.960 . S
H982 C995 0.961 . S
H983 C995 0.959 . S
H984 C998 0.929 . S
H985 C999 0.931 . S
H986 C1001 0.930 . S
C987 H975 0.930 . S
C987 C988 1.399 . S
C987 C992 1.399 . S
C988 C987 1.399 . S
C988 C989 1.376 . S
C989 H976 0.930 . S
C989 C988 1.376 . S
C989 C990 1.388 . S
C990 H977 0.930 . S
C990 C989 1.388 . S
C990 C991 1.390 . S
C991 C990 1.390 . S
C991 C992 1.394 . S
C991 C997 1.465 . S
C992 C987 1.399 . S
C992 C991 1.394 . S
C992 C993 1.516 . S
C993 C992 1.516 . S
C993 C994 1.502 . S
C993 C995 1.561 . S
C993 C996 1.526 . S
C994 H978 0.959 . S
C994 H979 0.959 . S
C994 H980 0.961 . S
C994 C993 1.502 . S
C995 H981 0.960 . S
C995 H982 0.961 . S
C995 H983 0.959 . S
C995 C993 1.561 . S
C996 C993 1.526 . S
C996 C997 1.396 . S
C996 C1001 1.390 . S
C997 C991 1.465 . S
C997 C996 1.396 . S
C997 C998 1.399 . S
C998 H984 0.929 . S
C998 C997 1.399 . S
C998 C999 1.385 . S
C999 H985 0.931 . S
C999 C998 1.385 . S
C999 C1000 1.389 . S
C1000 C999 1.389 . S
C1000 C1001 1.387 . S
C1001 H986 0.930 . S
C1001 C996 1.390 . S
C1001 C1000 1.387 . S
H1002 C1014 0.930 . S
H1003 C1016 0.930 . S
H1004 C1017 0.930 . S
H1005 C1021 0.959 . S
H1006 C1021 0.959 . S
H1007 C1021 0.961 . S
H1008 C1022 0.960 . S
H1009 C1022 0.961 . S
H1010 C1022 0.959 . S
H1011 C1025 0.929 . S
H1012 C1026 0.931 . S
H1013 C1028 0.930 . S
C1014 H1002 0.930 . S
C1014 C1015 1.399 . S
C1014 C1019 1.399 . S
C1015 C1014 1.399 . S
C1015 C1016 1.376 . S
C1016 H1003 0.930 . S
C1016 C1015 1.376 . S
C1016 C1017 1.388 . S
C1017 H1004 0.930 . S
C1017 C1016 1.388 . S
C1017 C1018 1.390 . S
C1018 C1017 1.390 . S
C1018 C1019 1.394 . S
C1018 C1024 1.465 . S
C1019 C1014 1.399 . S
C1019 C1018 1.394 . S
C1019 C1020 1.516 . S
C1020 C1019 1.516 . S
C1020 C1021 1.502 . S
C1020 C1022 1.561 . S
C1020 C1023 1.526 . S
C1021 H1005 0.959 . S
C1021 H1006 0.959 . S
C1021 H1007 0.961 . S
C1021 C1020 1.502 . S
C1022 H1008 0.960 . S
C1022 H1009 0.961 . S
C1022 H1010 0.959 . S
C1022 C1020 1.561 . S
C1023 C1020 1.526 . S
C1023 C1024 1.396 . S
C1023 C1028 1.390 . S
C1024 C1018 1.465 . S
C1024 C1023 1.396 . S
C1024 C1025 1.399 . S
C1025 H1011 0.929 . S
C1025 C1024 1.399 . S
C1025 C1026 1.385 . S
C1026 H1012 0.931 . S
C1026 C1025 1.385 . S
C1026 C1027 1.389 . S
C1027 C1026 1.389 . S
C1027 C1028 1.387 . S
C1028 H1013 0.930 . S
C1028 C1023 1.390 . S
C1028 C1027 1.387 . S
H1029 C1041 0.930 . S
H1030 C1043 0.930 . S
H1031 C1044 0.930 . S
H1032 C1048 0.959 . S
H1033 C1048 0.959 . S
H1034 C1048 0.961 . S
H1035 C1049 0.960 . S
H1036 C1049 0.961 . S
H1037 C1049 0.959 . S
H1038 C1052 0.929 . S
H1039 C1053 0.931 . S
H1040 C1055 0.930 . S
C1041 H1029 0.930 . S
C1041 C1042 1.399 . S
C1041 C1046 1.399 . S
C1042 C1041 1.399 . S
C1042 C1043 1.376 . S
C1043 H1030 0.930 . S
C1043 C1042 1.376 . S
C1043 C1044 1.388 . S
C1044 H1031 0.930 . S
C1044 C1043 1.388 . S
C1044 C1045 1.390 . S
C1045 C1044 1.390 . S
C1045 C1046 1.394 . S
C1045 C1051 1.465 . S
C1046 C1041 1.399 . S
C1046 C1045 1.394 . S
C1046 C1047 1.516 . S
C1047 C1046 1.516 . S
C1047 C1048 1.502 . S
C1047 C1049 1.561 . S
C1047 C1050 1.526 . S
C1048 H1032 0.959 . S
C1048 H1033 0.959 . S
C1048 H1034 0.961 . S
C1048 C1047 1.502 . S
C1049 H1035 0.960 . S
C1049 H1036 0.961 . S
C1049 H1037 0.959 . S
C1049 C1047 1.561 . S
C1050 C1047 1.526 . S
C1050 C1051 1.396 . S
C1050 C1055 1.390 . S
C1051 C1045 1.465 . S
C1051 C1050 1.396 . S
C1051 C1052 1.399 . S
C1052 H1038 0.929 . S
C1052 C1051 1.399 . S
C1052 C1053 1.385 . S
C1053 H1039 0.931 . S
C1053 C1052 1.385 . S
C1053 C1054 1.389 . S
C1054 C1053 1.389 . S
C1054 C1055 1.387 . S
C1055 H1040 0.930 . S
C1055 C1050 1.390 . S
C1055 C1054 1.387 . S
H1056 C1068 0.930 . S
H1057 C1070 0.930 . S
H1058 C1071 0.930 . S
H1059 C1075 0.954 . S
H1060 C1075 0.959 1_655 S
H1061 C1075 0.961 . S
H1062 C1076 0.960 . S
H1063 C1076 0.961 1_655 S
H1064 C1076 0.959 . S
H1065 C1079 0.929 . S
H1066 C1080 0.931 . S
H1067 C1082 0.930 . S
C1068 H1056 0.930 . S
C1068 C1069 1.399 . S
C1068 C1073 1.399 . S
C1069 C1068 1.399 . S
C1069 C1070 1.376 . S
C1070 H1057 0.930 . S
C1070 C1069 1.376 . S
C1070 C1071 1.388 . S
C1071 H1058 0.930 . S
C1071 C1070 1.388 . S
C1071 C1072 1.390 . S
C1072 C1071 1.390 . S
C1072 C1073 1.394 . S
C1072 C1078 1.465 1_455 S
C1073 C1068 1.399 . S
C1073 C1072 1.394 . S
C1073 C1074 1.516 . S
C1074 C1073 1.516 . S
C1074 C1075 1.502 . S
C1074 C1076 1.561 . S
C1074 C1077 1.526 1_455 S
C1075 H1059 0.954 . S
C1075 H1060 0.959 1_455 S
C1075 H1061 0.961 . S
C1075 C1074 1.502 . S
C1076 H1062 0.960 . S
C1076 H1063 0.961 1_455 S
C1076 H1064 0.959 . S
C1076 C1074 1.561 . S
C1077 C1074 1.526 1_655 S
C1077 C1078 1.396 . S
C1077 C1082 1.390 . S
C1078 C1072 1.465 1_655 S
C1078 C1077 1.396 . S
C1078 C1079 1.399 . S
C1079 H1065 0.929 . S
C1079 C1078 1.399 . S
C1079 C1080 1.385 . S
C1080 H1066 0.931 . S
C1080 C1079 1.385 . S
C1080 C1081 1.389 . S
C1081 C1080 1.389 . S
C1081 C1082 1.387 . S
C1082 H1067 0.930 . S
C1082 C1077 1.390 . S
C1082 C1081 1.387 . S
H1083 C1095 0.930 . S
H1084 C1097 0.930 . S
H1085 C1098 0.930 . S
H1086 C1102 0.958 . S
H1087 C1102 0.959 1_545 S
H1088 C1102 0.961 . S
H1089 C1103 0.960 . S
H1090 C1103 0.961 1_545 S
H1091 C1103 0.959 . S
H1092 C1106 0.929 . S
H1093 C1107 0.931 . S
H1094 C1109 0.930 . S
C1095 H1083 0.930 . S
C1095 C1096 1.399 . S
C1095 C1100 1.399 . S
C1096 C1095 1.399 . S
C1096 C1097 1.376 . S
C1097 H1084 0.930 . S
C1097 C1096 1.376 . S
C1097 C1098 1.388 . S
C1098 H1085 0.930 . S
C1098 C1097 1.388 . S
C1098 C1099 1.390 . S
C1099 C1098 1.390 . S
C1099 C1100 1.394 . S
C1099 C1105 1.465 1_565 S
C1100 C1095 1.399 . S
C1100 C1099 1.394 . S
C1100 C1101 1.516 . S
C1101 C1100 1.516 . S
C1101 C1102 1.502 . S
C1101 C1103 1.561 . S
C1101 C1104 1.526 1_565 S
C1102 H1086 0.958 . S
C1102 H1087 0.959 1_565 S
C1102 H1088 0.961 . S
C1102 C1101 1.502 . S
C1103 H1089 0.960 . S
C1103 H1090 0.961 1_565 S
C1103 H1091 0.959 . S
C1103 C1101 1.561 . S
C1104 C1101 1.526 1_545 S
C1104 C1105 1.396 . S
C1104 C1109 1.390 . S
C1105 C1099 1.465 1_545 S
C1105 C1104 1.396 . S
C1105 C1106 1.399 . S
C1106 H1092 0.929 . S
C1106 C1105 1.399 . S
C1106 C1107 1.385 . S
C1107 H1093 0.931 . S
C1107 C1106 1.385 . S
C1107 C1108 1.389 . S
C1108 C1107 1.389 . S
C1108 C1109 1.387 . S
C1109 H1094 0.930 . S
C1109 C1104 1.390 . S
C1109 C1108 1.387 . S
H1110 C1122 0.930 . S
H1111 C1124 0.930 . S
H1112 C1125 0.930 . S
H1113 C1129 0.959 . S
H1114 C1129 0.959 . S
H1115 C1129 0.961 . S
H1116 C1130 0.960 . S
H1117 C1130 0.961 . S
H1118 C1130 0.959 . S
H1119 C1133 0.929 . S
H1120 C1134 0.931 . S
H1121 C1136 0.930 . S
C1122 H1110 0.930 . S
C1122 C1123 1.399 . S
C1122 C1127 1.399 . S
C1123 C1122 1.399 . S
C1123 C1124 1.376 . S
C1124 H1111 0.930 . S
C1124 C1123 1.376 . S
C1124 C1125 1.388 . S
C1125 H1112 0.930 . S
C1125 C1124 1.388 . S
C1125 C1126 1.390 . S
C1126 C1125 1.390 . S
C1126 C1127 1.394 . S
C1126 C1132 1.465 . S
C1127 C1122 1.399 . S
C1127 C1126 1.394 . S
C1127 C1128 1.516 . S
C1128 C1127 1.516 . S
C1128 C1129 1.502 . S
C1128 C1130 1.561 . S
C1128 C1131 1.526 . S
C1129 H1113 0.959 . S
C1129 H1114 0.959 . S
C1129 H1115 0.961 . S
C1129 C1128 1.502 . S
C1130 H1116 0.960 . S
C1130 H1117 0.961 . S
C1130 H1118 0.959 . S
C1130 C1128 1.561 . S
C1131 C1128 1.526 . S
C1131 C1132 1.396 . S
C1131 C1136 1.390 . S
C1132 C1126 1.465 . S
C1132 C1131 1.396 . S
C1132 C1133 1.399 . S
C1133 H1119 0.929 . S
C1133 C1132 1.399 . S
C1133 C1134 1.385 . S
C1134 H1120 0.931 . S
C1134 C1133 1.385 . S
C1134 C1135 1.389 . S
C1135 C1134 1.389 . S
C1135 C1136 1.387 . S
C1136 H1121 0.930 . S
C1136 C1131 1.390 . S
C1136 C1135 1.387 . S
H1137 C1149 0.930 . S
H1138 C1151 0.930 . S
H1139 C1152 0.930 . S
H1140 C1156 0.959 . S
H1141 C1156 0.959 . S
H1142 C1156 0.961 1_455 S
H1143 C1157 0.960 1_455 S
H1144 C1157 0.961 . S
H1145 C1157 0.959 . S
H1146 C1160 0.929 . S
H1147 C1161 0.931 . S
H1148 C1163 0.930 . S
C1149 H1137 0.930 . S
C1149 C1150 1.399 . S
C1149 C1154 1.399 . S
C1150 C1149 1.399 . S
C1150 C1151 1.376 . S
C1151 H1138 0.930 . S
C1151 C1150 1.376 . S
C1151 C1152 1.388 . S
C1152 H1139 0.930 . S
C1152 C1151 1.388 . S
C1152 C1153 1.390 . S
C1153 C1152 1.390 . S
C1153 C1154 1.394 . S
C1153 C1159 1.465 1_455 S
C1154 C1149 1.399 . S
C1154 C1153 1.394 . S
C1154 C1155 1.516 1_455 S
C1155 C1154 1.516 1_655 S
C1155 C1156 1.502 . S
C1155 C1157 1.561 . S
C1155 C1158 1.526 . S
C1156 H1140 0.959 . S
C1156 H1141 0.959 . S
C1156 H1142 0.961 1_655 S
C1156 C1155 1.502 . S
C1157 H1143 0.960 1_655 S
C1157 H1144 0.961 . S
C1157 H1145 0.959 . S
C1157 C1155 1.561 . S
C1158 C1155 1.526 . S
C1158 C1159 1.396 . S
C1158 C1163 1.390 . S
C1159 C1153 1.465 1_655 S
C1159 C1158 1.396 . S
C1159 C1160 1.399 . S
C1160 H1146 0.929 . S
C1160 C1159 1.399 . S
C1160 C1161 1.385 . S
C1161 H1147 0.931 . S
C1161 C1160 1.385 . S
C1161 C1162 1.389 . S
C1162 C1161 1.389 . S
C1162 C1163 1.387 . S
C1163 H1148 0.930 . S
C1163 C1158 1.390 . S
C1163 C1162 1.387 . S
H1164 C1176 0.930 . S
H1165 C1178 0.930 . S
H1166 C1179 0.930 . S
H1167 C1183 0.954 1_545 S
H1168 C1183 0.959 1_545 S
H1169 C1183 0.961 . S
H1170 C1184 0.960 . S
H1171 C1184 0.961 1_545 S
H1172 C1184 0.959 . S
H1173 C1187 0.929 . S
H1174 C1188 0.931 . S
H1175 C1190 0.930 . S
C1176 H1164 0.930 . S
C1176 C1177 1.399 . S
C1176 C1181 1.399 . S
C1177 C1176 1.399 . S
C1177 C1178 1.376 . S
C1178 H1165 0.930 . S
C1178 C1177 1.376 . S
C1178 C1179 1.388 . S
C1179 H1166 0.930 . S
C1179 C1178 1.388 . S
C1179 C1180 1.390 . S
C1180 C1179 1.390 . S
C1180 C1181 1.394 . S
C1180 C1186 1.465 1_565 S
C1181 C1176 1.399 . S
C1181 C1180 1.394 . S
C1181 C1182 1.516 . S
C1182 C1181 1.516 . S
C1182 C1183 1.502 . S
C1182 C1184 1.561 . S
C1182 C1185 1.526 1_565 S
C1183 H1167 0.954 1_565 S
C1183 H1168 0.959 1_565 S
C1183 H1169 0.961 . S
C1183 C1182 1.502 . S
C1184 H1170 0.960 . S
C1184 H1171 0.961 1_565 S
C1184 H1172 0.959 . S
C1184 C1182 1.561 . S
C1185 C1182 1.526 1_545 S
C1185 C1186 1.396 . S
C1185 C1190 1.390 . S
C1186 C1180 1.465 1_545 S
C1186 C1185 1.396 . S
C1186 C1187 1.399 . S
C1187 H1173 0.929 . S
C1187 C1186 1.399 . S
C1187 C1188 1.385 . S
C1188 H1174 0.931 . S
C1188 C1187 1.385 . S
C1188 C1189 1.389 . S
C1189 C1188 1.389 . S
C1189 C1190 1.387 . S
C1190 H1175 0.930 . S
C1190 C1185 1.390 . S
C1190 C1189 1.387 . S
H1191 C1203 0.930 . S
H1192 C1205 0.930 . S
H1193 C1206 0.930 . S
H1194 C1210 0.959 . S
H1195 C1210 0.959 . S
H1196 C1210 0.961 . S
H1197 C1211 0.960 . S
H1198 C1211 0.961 . S
H1199 C1211 0.959 . S
H1200 C1214 0.929 . S
H1201 C1215 0.931 . S
H1202 C1217 0.930 . S
C1203 H1191 0.930 . S
C1203 C1204 1.399 . S
C1203 C1208 1.399 . S
C1204 C1203 1.399 . S
C1204 C1205 1.376 . S
C1205 H1192 0.930 . S
C1205 C1204 1.376 . S
C1205 C1206 1.388 . S
C1206 H1193 0.930 . S
C1206 C1205 1.388 . S
C1206 C1207 1.390 . S
C1207 C1206 1.390 . S
C1207 C1208 1.394 . S
C1207 C1213 1.465 . S
C1208 C1203 1.399 . S
C1208 C1207 1.394 . S
C1208 C1209 1.516 . S
C1209 C1208 1.516 . S
C1209 C1210 1.502 . S
C1209 C1211 1.561 . S
C1209 C1212 1.526 . S
C1210 H1194 0.959 . S
C1210 H1195 0.959 . S
C1210 H1196 0.961 . S
C1210 C1209 1.502 . S
C1211 H1197 0.960 . S
C1211 H1198 0.961 . S
C1211 H1199 0.959 . S
C1211 C1209 1.561 . S
C1212 C1209 1.526 . S
C1212 C1213 1.396 . S
C1212 C1217 1.390 . S
C1213 C1207 1.465 . S
C1213 C1212 1.396 . S
C1213 C1214 1.399 . S
C1214 H1200 0.929 . S
C1214 C1213 1.399 . S
C1214 C1215 1.385 . S
C1215 H1201 0.931 . S
C1215 C1214 1.385 . S
C1215 C1216 1.389 . S
C1216 C1215 1.389 . S
C1216 C1217 1.387 . S
C1217 H1202 0.930 . S
C1217 C1212 1.390 . S
C1217 C1216 1.387 . S
C421 C305 1.486 . S
C433 C33 1.478 . S
C448 C67 1.497 . S
C460 C339 1.488 . S
C475 C373 1.497 . S
C487 C101 1.487 . S
C502 C407 1.479 . S
C514 C135 1.493 . S
C529 C169 1.488 . S
C541 C237 1.497 . S
C556 C271 1.487 . S
C568 C203 1.497 . S
C583 C360 1.462 . S
C595 C20 1.476 . S
C610 C394 1.465 . S
C622 C54 1.483 . S
C637 C88 1.470 . S
C649 C224 1.484 . S
C664 C258 1.463 . S
C676 C122 1.473 . S
C691 C292 1.466 . S
C703 C156 1.483 . S
C718 C326 1.479 . S
C730 C190 1.462 . S
C745 C5 1.480 . S
C757 C9 1.437 . S
C772 C39 1.492 . S
C784 C43 1.361 . S
C799 C73 1.502 . S
C811 C77 1.363 . S
C826 C107 1.479 . S
C838 C111 1.437 . S
C853 C145 1.341 . S
C865 C141 1.501 . S
C880 C175 1.472 . S
C892 C179 1.443 . S
C907 C213 1.447 . S
C919 C209 1.474 . S
C934 C243 1.496 . S
C946 C247 1.351 . S
C961 C281 1.381 . S
C973 C277 1.486 . S
C988 C315 1.341 . S
C1000 C311 1.501 . S
C1015 C345 1.497 . S
C1027 C349 1.348 . S
C1042 C379 1.504 . S
C1054 C383 1.348 . S
C1069 C2 1.475 . S
C1081 C376 1.459 . S
C1096 C206 1.474 . S
C1108 C36 1.459 . S
C1123 C240 1.462 . S
C1135 C70 1.465 . S
C1150 C274 1.462 . S
C1162 C104 1.482 . S
C1177 C138 1.472 . S
C1189 C308 1.459 . S
C1204 C342 1.466 . S
C1216 C172 1.484 . S
