# Generated by pormake.
# Topology bcs, (6)-cn, num edge types: 1
# Building blocks:
#     Node 0, Type 0, BuildingBlock: BETFEN_clean_sbu_0, # of connection points: 6
#     Node 1, Type 0, BuildingBlock: BETFEN_clean_sbu_0, # of connection points: 6
#     Node 2, Type 0, BuildingBlock: BETFEN_clean_sbu_0, # of connection points: 6
#     Node 3, Type 0, BuildingBlock: BETFEN_clean_sbu_0, # of connection points: 6
#     Node 4, Type 0, BuildingBlock: BETFEN_clean_sbu_0, # of connection points: 6
#     Node 5, Type 0, BuildingBlock: BETFEN_clean_sbu_0, # of connection points: 6
#     Node 6, Type 0, BuildingBlock: BETFEN_clean_sbu_0, # of connection points: 6
#     Node 7, Type 0, BuildingBlock: BETFEN_clean_sbu_0, # of connection points: 6
#     Node 8, Type 0, BuildingBlock: BETFEN_clean_sbu_0, # of connection points: 6
#     Node 9, Type 0, BuildingBlock: BETFEN_clean_sbu_0, # of connection points: 6
#     Node 10, Type 0, BuildingBlock: BETFEN_clean_sbu_0, # of connection points: 6
#     Node 11, Type 0, BuildingBlock: BETFEN_clean_sbu_0, # of connection points: 6
#     Node 12, Type 0, BuildingBlock: BETFEN_clean_sbu_0, # of connection points: 6
#     Node 13, Type 0, BuildingBlock: BETFEN_clean_sbu_0, # of connection points: 6
#     Node 14, Type 0, BuildingBlock: BETFEN_clean_sbu_0, # of connection points: 6
#     Node 15, Type 0, BuildingBlock: BETFEN_clean_sbu_0, # of connection points: 6
#     Edge 16, Type (0, 0), BuildingBlock: XIVTED_clean_linker_0, # of connection points: 2
#     Edge 17, Type (0, 0), BuildingBlock: XIVTED_clean_linker_0, # of connection points: 2
#     Edge 18, Type (0, 0), BuildingBlock: XIVTED_clean_linker_0, # of connection points: 2
#     Edge 19, Type (0, 0), BuildingBlock: XIVTED_clean_linker_0, # of connection points: 2
#     Edge 20, Type (0, 0), BuildingBlock: XIVTED_clean_linker_0, # of connection points: 2
#     Edge 21, Type (0, 0), BuildingBlock: XIVTED_clean_linker_0, # of connection points: 2
#     Edge 22, Type (0, 0), BuildingBlock: XIVTED_clean_linker_0, # of connection points: 2
#     Edge 23, Type (0, 0), BuildingBlock: XIVTED_clean_linker_0, # of connection points: 2
#     Edge 24, Type (0, 0), BuildingBlock: XIVTED_clean_linker_0, # of connection points: 2
#     Edge 25, Type (0, 0), BuildingBlock: XIVTED_clean_linker_0, # of connection points: 2
#     Edge 26, Type (0, 0), BuildingBlock: XIVTED_clean_linker_0, # of connection points: 2
#     Edge 27, Type (0, 0), BuildingBlock: XIVTED_clean_linker_0, # of connection points: 2
#     Edge 28, Type (0, 0), BuildingBlock: XIVTED_clean_linker_0, # of connection points: 2
#     Edge 29, Type (0, 0), BuildingBlock: XIVTED_clean_linker_0, # of connection points: 2
#     Edge 30, Type (0, 0), BuildingBlock: XIVTED_clean_linker_0, # of connection points: 2
#     Edge 31, Type (0, 0), BuildingBlock: XIVTED_clean_linker_0, # of connection points: 2
#     Edge 32, Type (0, 0), BuildingBlock: XIVTED_clean_linker_0, # of connection points: 2
#     Edge 33, Type (0, 0), BuildingBlock: XIVTED_clean_linker_0, # of connection points: 2
#     Edge 34, Type (0, 0), BuildingBlock: XIVTED_clean_linker_0, # of connection points: 2
#     Edge 35, Type (0, 0), BuildingBlock: XIVTED_clean_linker_0, # of connection points: 2
#     Edge 36, Type (0, 0), BuildingBlock: XIVTED_clean_linker_0, # of connection points: 2
#     Edge 37, Type (0, 0), BuildingBlock: XIVTED_clean_linker_0, # of connection points: 2
#     Edge 38, Type (0, 0), BuildingBlock: XIVTED_clean_linker_0, # of connection points: 2
#     Edge 39, Type (0, 0), BuildingBlock: XIVTED_clean_linker_0, # of connection points: 2
#     Edge 40, Type (0, 0), BuildingBlock: XIVTED_clean_linker_0, # of connection points: 2
#     Edge 41, Type (0, 0), BuildingBlock: XIVTED_clean_linker_0, # of connection points: 2
#     Edge 42, Type (0, 0), BuildingBlock: XIVTED_clean_linker_0, # of connection points: 2
#     Edge 43, Type (0, 0), BuildingBlock: XIVTED_clean_linker_0, # of connection points: 2
#     Edge 44, Type (0, 0), BuildingBlock: XIVTED_clean_linker_0, # of connection points: 2
#     Edge 45, Type (0, 0), BuildingBlock: XIVTED_clean_linker_0, # of connection points: 2
#     Edge 46, Type (0, 0), BuildingBlock: XIVTED_clean_linker_0, # of connection points: 2
#     Edge 47, Type (0, 0), BuildingBlock: XIVTED_clean_linker_0, # of connection points: 2
#     Edge 48, Type (0, 0), BuildingBlock: XIVTED_clean_linker_0, # of connection points: 2
#     Edge 49, Type (0, 0), BuildingBlock: XIVTED_clean_linker_0, # of connection points: 2
#     Edge 50, Type (0, 0), BuildingBlock: XIVTED_clean_linker_0, # of connection points: 2
#     Edge 51, Type (0, 0), BuildingBlock: XIVTED_clean_linker_0, # of connection points: 2
#     Edge 52, Type (0, 0), BuildingBlock: XIVTED_clean_linker_0, # of connection points: 2
#     Edge 53, Type (0, 0), BuildingBlock: XIVTED_clean_linker_0, # of connection points: 2
#     Edge 54, Type (0, 0), BuildingBlock: XIVTED_clean_linker_0, # of connection points: 2
#     Edge 55, Type (0, 0), BuildingBlock: XIVTED_clean_linker_0, # of connection points: 2
#     Edge 56, Type (0, 0), BuildingBlock: XIVTED_clean_linker_0, # of connection points: 2
#     Edge 57, Type (0, 0), BuildingBlock: XIVTED_clean_linker_0, # of connection points: 2
#     Edge 58, Type (0, 0), BuildingBlock: XIVTED_clean_linker_0, # of connection points: 2
#     Edge 59, Type (0, 0), BuildingBlock: XIVTED_clean_linker_0, # of connection points: 2
#     Edge 60, Type (0, 0), BuildingBlock: XIVTED_clean_linker_0, # of connection points: 2
#     Edge 61, Type (0, 0), BuildingBlock: XIVTED_clean_linker_0, # of connection points: 2
#     Edge 62, Type (0, 0), BuildingBlock: XIVTED_clean_linker_0, # of connection points: 2
#     Edge 63, Type (0, 0), BuildingBlock: XIVTED_clean_linker_0, # of connection points: 2
# Relax obj value: 0.161
# Max RMSD: 0.239
# Mean RMSD: 0.187
data_MOF--net-bcs--node1-BETFEN_clean_sbu_0--edge1-XIVTED_clean_linker_0
_symmetry_space_group_name_H-M    P1
_symmetry_Int_Tables_number       1
_symmetry_cell_setting            triclinic
loop_
_symmetry_equiv_pos_as_xyz
'x, y, z'
_cell_length_a     47.809749
_cell_length_b     41.132106
_cell_length_c     41.146441
_cell_angle_alpha  111.57653
_cell_angle_beta   70.97793
_cell_angle_gamma 121.99611
loop_
_atom_site_label
_atom_site_type_symbol
_atom_site_fract_x
_atom_site_fract_y
_atom_site_fract_z
_atom_type_partial_charge
Pr0 Pr 0.04219 0.01087 0.04004 0.0
Pr1 Pr 1.01699 0.98739 0.97568 0.0
C2 C 0.05806 0.00792 0.09523 0.0
C3 C 0.07823 0.9931 0.0997 0.0
C4 C 0.10268 0.01783 0.12151 0.0
C5 C 0.12048 0.00334 0.12784 0.0
C6 C 0.11383 0.9637 0.11271 0.0
C7 C 0.0903 0.93945 0.08966 0.0
C8 C 0.07274 0.95404 0.08309 0.0
C9 C 0.0822 0.06351 0.99763 0.0
C10 C 0.07331 0.95039 0.96213 0.0
C11 C 1.00149 0.99125 0.92071 0.0
C12 C 0.98133 0.00625 0.91633 0.0
C13 C 0.95267 0.97991 0.90054 0.0
C14 C 0.93434 0.99402 0.89464 0.0
C15 C 0.94461 0.0348 0.90407 0.0
C16 C 0.97264 0.06103 0.92102 0.0
C17 C 0.9908 0.04691 0.92716 0.0
C18 C 0.97687 0.93517 0.01843 0.0
C19 C 0.98556 0.04747 0.05351 0.0
O20 O 0.0307 0.9811 0.08215 0.0
O21 O 0.07423 0.03952 0.08281 0.0
O22 O 0.06973 0.02651 0.98754 0.0
O23 O 0.07465 0.07561 0.03177 0.0
O24 O 0.0553 0.95524 0.94632 0.0
O25 O 0.07036 0.96696 0.99796 0.0
O26 O 1.02875 0.01786 0.93403 0.0
O27 O 0.98535 0.9593 0.93264 0.0
O28 O 0.98947 0.97218 0.02831 0.0
O29 O 0.98421 0.92279 0.98429 0.0
O30 O 1.00359 0.04268 0.06934 0.0
O31 O 0.98859 0.031 0.01767 0.0
H32 H 0.10755 0.04815 0.13418 0.0
H33 H 0.13898 0.02294 0.14516 0.0
H34 H 0.08441 0.90872 0.07784 0.0
H35 H 0.05427 0.93438 0.06572 0.0
H36 H 0.94475 0.94845 0.89223 0.0
H37 H 0.91249 0.97304 0.88206 0.0
H38 H 0.98142 0.09263 0.92823 0.0
H39 H 1.01269 0.06805 0.93966 0.0
Pr40 Pr 0.27457 0.78368 0.26066 0.0
Pr41 Pr 0.28625 0.71593 0.25642 0.0
C42 C 0.26999 0.83834 0.24508 0.0
C43 C 0.24865 0.84037 0.22778 0.0
C44 C 0.21558 0.83267 0.24356 0.0
C45 C 0.19681 0.83813 0.2282 0.0
C46 C 0.21077 0.85134 0.19686 0.0
C47 C 0.24315 0.85691 0.18008 0.0
C48 C 0.26198 0.85161 0.19551 0.0
C49 C 0.22601 0.73213 0.303 0.0
C50 C 0.2432 0.69796 0.20052 0.0
C51 C 0.29235 0.66097 0.26944 0.0
C52 C 0.31371 0.65794 0.28582 0.0
C53 C 0.33291 0.63886 0.26443 0.0
C54 C 0.35022 0.63123 0.27963 0.0
C55 C 0.34841 0.64225 0.31654 0.0
C56 C 0.33094 0.66356 0.3379 0.0
C57 C 0.31361 0.67132 0.32264 0.0
C58 C 0.33359 0.7668 0.21303 0.0
C59 C 0.31683 0.80099 0.31729 0.0
O60 O 0.28859 0.82168 0.22437 0.0
O61 O 0.25737 0.82973 0.27605 0.0
O62 O 0.23903 0.72236 0.27166 0.0
O63 O 0.23651 0.77009 0.31337 0.0
O64 O 0.24609 0.68077 0.21977 0.0
O65 O 0.25604 0.73681 0.20789 0.0
O66 O 0.27262 0.67596 0.29052 0.0
O67 O 0.30562 0.6716 0.2394 0.0
O68 O 0.32166 0.7769 0.24484 0.0
O69 O 0.32238 0.72874 0.20267 0.0
O70 O 0.31401 0.81843 0.2982 0.0
O71 O 0.30415 0.76215 0.30958 0.0
H72 H 0.20447 0.82345 0.26821 0.0
H73 H 0.1717 0.83312 0.24138 0.0
H74 H 0.25461 0.8674 0.15606 0.0
H75 H 0.28738 0.85752 0.18277 0.0
H76 H 0.33355 0.62855 0.23601 0.0
H77 H 0.36403 0.6153 0.26261 0.0
H78 H 0.32919 0.67226 0.36646 0.0
H79 H 0.2992 0.68644 0.3398 0.0
Pr80 Pr 0.53281 0.02228 0.48802 0.0
Pr81 Pr 0.5149 0.97435 0.54119 0.0
C82 C 0.53639 0.0585 0.443 0.0
C83 C 0.51998 0.07662 0.43632 0.0
C84 C 0.53689 0.11749 0.43925 0.0
C85 C 0.52278 0.13526 0.4313 0.0
C86 C 0.4916 0.11237 0.41996 0.0
C87 C 0.47444 0.0715 0.41747 0.0
C88 C 0.48853 0.05372 0.42555 0.0
C89 C 0.57934 0.05768 0.53256 0.0
C90 C 0.47993 0.02663 0.56288 0.0
C91 C 0.51096 0.93343 0.58209 0.0
C92 C 0.52886 0.9155 0.58617 0.0
C93 C 0.5112 0.87573 0.5876 0.0
C94 C 0.52695 0.85821 0.59312 0.0
C95 C 0.56062 0.88034 0.59757 0.0
C96 C 0.5786 0.91987 0.59506 0.0
C97 C 0.56288 0.93733 0.58931 0.0
C98 C 0.46994 0.94003 0.49451 0.0
C99 C 0.57223 0.97567 0.47059 0.0
O100 O 0.52113 0.02006 0.43806 0.0
O101 O 0.55179 0.07739 0.47041 0.0
O102 O 0.54801 0.04041 0.54225 0.0
O103 O 0.58743 0.05882 0.49956 0.0
O104 O 0.49279 0.0152 0.57736 0.0
O105 O 0.48695 0.02542 0.52878 0.0
O106 O 0.52451 0.97204 0.59038 0.0
O107 O 0.49676 0.91662 0.55396 0.0
O108 O 0.50133 0.95649 0.48617 0.0
O109 O 0.46057 0.94006 0.52789 0.0
O110 O 0.55827 0.98428 0.45464 0.0
O111 O 0.5633 0.97575 0.5044 0.0
H112 H 0.56134 0.13565 0.44716 0.0
H113 H 0.53672 0.16673 0.43305 0.0
H114 H 0.45016 0.05324 0.40921 0.0
H115 H 0.47493 0.02209 0.423 0.0
H116 H 0.48497 0.85839 0.5851 0.0
H117 H 0.51245 0.82779 0.59516 0.0
H118 H 0.60474 0.93739 0.59788 0.0
H119 H 0.57718 0.96795 0.58782 0.0
Pr120 Pr 0.27756 0.21088 0.74221 0.0
Pr121 Pr 0.28171 0.28593 0.77365 0.0
C122 C 0.27949 0.14741 0.69607 0.0
C123 C 0.31006 0.15096 0.67081 0.0
C124 C 0.33899 0.16314 0.6833 0.0
C125 C 0.36966 0.17453 0.66117 0.0
C126 C 0.37217 0.17383 0.62588 0.0
C127 C 0.34354 0.16376 0.61403 0.0
C128 C 0.31265 0.15172 0.63609 0.0
C129 C 0.32209 0.2566 0.79108 0.0
C130 C 0.3341 0.28473 0.70408 0.0
C131 C 0.27959 0.34946 0.8194 0.0
C132 C 0.24868 0.34623 0.84374 0.0
C133 C 0.22014 0.33325 0.83009 0.0
C134 C 0.18926 0.32294 0.85179 0.0
C135 C 0.18616 0.32558 0.88777 0.0
C136 C 0.21428 0.33595 0.90077 0.0
C137 C 0.24541 0.34689 0.87909 0.0
C138 C 0.23741 0.24023 0.72463 0.0
C139 C 0.22532 0.21229 0.81201 0.0
O140 O 0.26522 0.16459 0.6912 0.0
O141 O 0.28113 0.15477 0.72939 0.0
O142 O 0.32089 0.26778 0.76723 0.0
O143 O 0.29958 0.22023 0.79075 0.0
O144 O 0.33139 0.3075 0.73568 0.0
O145 O 0.31295 0.2466 0.69793 0.0
O146 O 0.29291 0.33174 0.82511 0.0
O147 O 0.27901 0.34247 0.78581 0.0
O148 O 0.23832 0.22907 0.74869 0.0
O149 O 0.2602 0.27642 0.72472 0.0
O150 O 0.22814 0.18933 0.78055 0.0
O151 O 0.24634 0.25045 0.81801 0.0
H152 H 0.33819 0.16427 0.7103 0.0
H153 H 0.39091 0.18135 0.67131 0.0
H154 H 0.34477 0.16306 0.58705 0.0
H155 H 0.29086 0.14385 0.62627 0.0
H156 H 0.22144 0.33085 0.80257 0.0
H157 H 0.16839 0.31568 0.84071 0.0
H158 H 0.21255 0.33804 0.92831 0.0
H159 H 0.26687 0.35524 0.88979 0.0
Pr160 Pr 1.01593 0.0236 0.5101 0.0
Pr161 Pr 0.04129 0.96883 0.50394 0.0
C162 C 0.99778 0.06872 0.4968 0.0
C163 C 0.9757 0.0666 0.47705 0.0
C164 C 0.94165 0.05549 0.49071 0.0
C165 C 0.92232 0.05855 0.47378 0.0
C166 C 0.93675 0.073 0.44305 0.0
C167 C 0.97028 0.082 0.42844 0.0
C168 C 0.98955 0.07902 0.44531 0.0
C169 C 0.97815 0.97439 0.55738 0.0
C170 C 0.98777 0.93478 0.45314 0.0
C171 C 0.06052 0.92514 0.51804 0.0
C172 C 0.08537 0.9292 0.53536 0.0
C173 C 0.11676 0.93301 0.51607 0.0
C174 C 0.13853 0.93198 0.53109 0.0
C175 C 0.12938 0.92687 0.56569 0.0
C176 C 0.0987 0.92503 0.58565 0.0
C177 C 0.07686 0.92601 0.57059 0.0
C178 C 0.07937 0.01875 0.45699 0.0
C179 C 0.06859 0.05691 0.56141 0.0
O180 O 1.02307 0.06231 0.47796 0.0
O181 O 0.9843 0.05458 0.52502 0.0
O182 O 0.9889 0.96359 0.52506 0.0
O183 O 0.98617 0.01173 0.56627 0.0
O184 O 0.9988 0.92339 0.47021 0.0
O185 O 0.9954 0.97233 0.46012 0.0
O186 O 0.03703 0.93421 0.53862 0.0
O187 O 0.07098 0.93535 0.48796 0.0
O188 O 0.06851 0.02914 0.48934 0.0
O189 O 0.07149 0.98146 0.44795 0.0
O190 O 0.05831 0.06868 0.54394 0.0
O191 O 0.06081 0.0194 0.55456 0.0
H192 H 0.93021 0.04577 0.51512 0.0
H193 H 0.89659 0.05152 0.48577 0.0
H194 H 0.98196 0.09251 0.40442 0.0
H195 H 1.01568 0.08774 0.43407 0.0
H196 H 0.12417 0.93557 0.48893 0.0
H197 H 0.16223 0.9341 0.51522 0.0
H198 H 0.09078 0.92079 0.61227 0.0
H199 H 0.05279 0.92283 0.58617 0.0
Pr200 Pr 0.29355 0.77037 0.73418 0.0
Pr201 Pr 0.26603 0.72726 0.78306 0.0
C202 C 0.30175 0.80576 0.68552 0.0
C203 C 0.28344 0.82157 0.67814 0.0
C204 C 0.29842 0.86194 0.67928 0.0
C205 C 0.28205 0.8767 0.67042 0.0
C206 C 0.25057 0.85121 0.6598 0.0
C207 C 0.23521 0.81108 0.65961 0.0
C208 C 0.25135 0.79643 0.66879 0.0
C209 C 0.33424 0.80717 0.78655 0.0
C210 C 0.23139 0.79174 0.80512 0.0
C211 C 0.25755 0.69171 0.83172 0.0
C212 C 0.27486 0.67399 0.83788 0.0
C213 C 0.25628 0.63728 0.84658 0.0
C214 C 0.27215 0.62097 0.85403 0.0
C215 C 0.30702 0.6412 0.8532 0.0
C216 C 0.32563 0.67767 0.84371 0.0
C217 C 0.30978 0.69377 0.83599 0.0
C218 C 0.2253 0.6909 0.73089 0.0
C219 C 0.32809 0.70578 0.71176 0.0
O220 O 0.2876 0.76752 0.68083 0.0
O221 O 0.31642 0.82515 0.71341 0.0
O222 O 0.30286 0.79341 0.79203 0.0
O223 O 0.34587 0.80129 0.75273 0.0
O224 O 0.23381 0.76676 0.817 0.0
O225 O 0.25031 0.79543 0.77241 0.0
O226 O 0.27359 0.72994 0.83553 0.0
O227 O 0.24158 0.67283 0.8048 0.0
O228 O 0.25664 0.70415 0.72533 0.0
O229 O 0.21379 0.6973 0.76471 0.0
O230 O 0.32583 0.73107 0.70019 0.0
O231 O 0.30901 0.70173 0.74438 0.0
H232 H 0.32309 0.88196 0.68641 0.0
H233 H 0.29452 0.90773 0.67064 0.0
H234 H 0.21076 0.79087 0.65196 0.0
H235 H 0.23882 0.76523 0.66796 0.0
H236 H 0.22937 0.62135 0.84795 0.0
H237 H 0.25702 0.59251 0.86053 0.0
H238 H 0.3524 0.69446 0.8432 0.0
H239 H 0.32488 0.72206 0.82911 0.0
Pr240 Pr 0.53529 0.96 0.98628 0.0
Pr241 Pr 0.52427 0.03196 0.02835 0.0
C242 C 0.54414 0.90171 0.93664 0.0
C243 C 0.57437 0.90848 0.91135 0.0
C244 C 0.60214 0.94585 0.91799 0.0
C245 C 0.6326 0.95289 0.89636 0.0
C246 C 0.63562 0.92191 0.86912 0.0
C247 C 0.6072 0.8858 0.86007 0.0
C248 C 0.57623 0.87912 0.88128 0.0
C249 C 0.57151 0.00914 0.04314 0.0
C250 C 0.58062 0.04319 0.9575 0.0
C251 C 0.52545 0.09277 0.08187 0.0
C252 C 0.49589 0.09158 0.10646 0.0
C253 C 0.46653 0.05553 0.10229 0.0
C254 C 0.43623 0.05361 0.1206 0.0
C255 C 0.43499 0.08812 0.14227 0.0
C256 C 0.46446 0.12388 0.14841 0.0
C257 C 0.49524 0.12556 0.13048 0.0
C258 C 0.47804 0.98358 0.97969 0.0
C259 C 0.47354 0.94576 0.04977 0.0
O260 O 0.52783 0.9171 0.93305 0.0
O261 O 0.54795 0.91001 0.96933 0.0
O262 O 0.5682 0.02031 0.02047 0.0
O263 O 0.55559 0.97075 0.03685 0.0
O264 O 0.56885 0.0618 0.98727 0.0
O265 O 0.57053 0.00485 0.94974 0.0
O266 O 0.53377 0.06783 0.08349 0.0
O267 O 0.52478 0.09105 0.0496 0.0
O268 O 0.49962 0.97838 0.98489 0.0
O269 O 0.47892 0.01625 1.00172 0.0
O270 O 0.4827 0.92913 0.01725 0.0
O271 O 0.48983 0.98434 0.06247 0.0
H272 H 0.60095 0.96859 0.94152 0.0
H273 H 0.65451 0.98044 0.90407 0.0
H274 H 0.60967 0.86155 0.83923 0.0
H275 H 0.55455 0.85055 0.87576 0.0
H276 H 0.4666 0.02952 0.08267 0.0
H277 H 0.41359 0.02621 0.11477 0.0
H278 H 0.46337 0.15081 0.16481 0.0
H279 H 0.51792 0.15349 0.13345 0.0
Pr280 Pr 0.29765 0.25917 0.28309 0.0
Pr281 Pr 0.25743 0.23403 0.23036 0.0
C282 C 0.33014 0.26982 0.33173 0.0
C283 C 0.34814 0.25371 0.33839 0.0
C284 C 0.37766 0.28005 0.35261 0.0
C285 C 0.39559 0.26588 0.35914 0.0
C286 C 0.38413 0.22502 0.35173 0.0
C287 C 0.35461 0.19863 0.3371 0.0
C288 C 0.3368 0.21288 0.33033 0.0
C289 C 0.33338 0.3009 0.22965 0.0
C290 C 0.28697 0.17887 0.21971 0.0
C291 C 0.22475 0.22135 0.18117 0.0
C292 C 0.20648 0.23689 0.17437 0.0
C293 C 0.175 0.21037 0.16431 0.0
C294 C 0.15654 0.22418 0.15839 0.0
C295 C 0.16947 0.26476 0.16217 0.0
C296 C 0.20113 0.29132 0.17224 0.0
C297 C 0.21945 0.2775 0.1785 0.0
C298 C 0.22213 0.19243 0.28386 0.0
C299 C 0.26885 0.31552 0.29192 0.0
O300 O 0.29778 0.24846 0.33319 0.0
O301 O 0.34474 0.28773 0.30601 0.0
O302 O 0.31494 0.26369 0.22379 0.0
O303 O 0.33354 0.31684 0.26325 0.0
O304 O 0.28201 0.19451 0.20111 0.0
O305 O 0.29048 0.19574 0.25313 0.0
O306 O 0.25708 0.24316 0.17965 0.0
O307 O 0.21034 0.20383 0.20716 0.0
O308 O 0.24029 0.22966 0.28966 0.0
O309 O 0.22216 0.17634 0.25027 0.0
O310 O 0.27483 0.30138 0.31121 0.0
O311 O 0.26435 0.29714 0.25896 0.0
H312 H 0.38691 0.31168 0.35862 0.0
H313 H 0.41853 0.28697 0.3698 0.0
H314 H 0.34493 0.16697 0.33146 0.0
H315 H 0.31417 0.19205 0.31901 0.0
H316 H 0.16459 0.17894 0.16131 0.0
H317 H 0.13202 0.20314 0.15122 0.0
H318 H 0.21191 0.32272 0.17489 0.0
H319 H 0.24365 0.29852 0.18653 0.0
Pr320 Pr 0.51736 0.52928 0.0134 0.0
Pr321 Pr 0.54344 0.47493 1.00539 0.0
C322 C 0.4974 0.57331 1.00097 0.0
C323 C 0.47413 0.56963 0.98166 0.0
C324 C 0.44719 0.57732 1.00085 0.0
C325 C 0.4269 0.57799 0.9834 0.0
C326 C 0.43314 0.57115 0.94624 0.0
C327 C 0.4595 0.56217 0.92691 0.0
C328 C 0.47978 0.56141 0.9444 0.0
C329 C 0.47955 0.47818 0.05942 0.0
C330 C 0.49084 0.44224 0.95432 0.0
C331 C 0.5634 0.43003 0.01619 0.0
C332 C 0.58494 0.43215 0.03666 0.0
C333 C 0.61919 0.44397 0.02382 0.0
C334 C 0.6382 0.44084 0.04111 0.0
C335 C 0.62323 0.42556 0.07137 0.0
C336 C 0.58947 0.41585 0.08525 0.0
C337 C 0.57052 0.41897 0.06804 0.0
C338 C 0.58027 0.52495 0.95877 0.0
C339 C 0.56992 0.56194 0.06469 0.0
O340 O 0.52321 0.56805 0.98206 0.0
O341 O 0.4846 0.5591 0.0291 0.0
O342 O 0.49054 0.46829 0.02697 0.0
O343 O 0.48747 0.51552 0.06907 0.0
O344 O 0.50157 0.43012 0.97095 0.0
O345 O 0.49821 0.47974 0.96218 0.0
O346 O 0.5364 0.4331 0.03406 0.0
O347 O 0.57769 0.44724 0.98985 0.0
O348 O 0.57014 0.53555 0.99141 0.0
O349 O 0.57171 0.48744 0.94923 0.0
O350 O 0.55924 0.57413 0.04802 0.0
O351 O 0.56241 0.52435 0.0568 0.0
H352 H 0.44238 0.58399 0.02955 0.0
H353 H 0.40714 0.58549 0.99923 0.0
H354 H 0.46473 0.55617 0.89825 0.0
H355 H 0.50028 0.55523 0.9287 0.0
H356 H 0.63106 0.45424 0.9997 0.0
H357 H 0.66413 0.44841 0.0297 0.0
H358 H 0.57739 0.40462 0.10888 0.0
H359 H 0.54423 0.40969 0.0787 0.0
Pr360 Pr 0.79463 0.27372 0.23155 0.0
Pr361 Pr 0.76359 0.22253 0.28267 0.0
C362 C 0.80387 0.30564 0.17981 0.0
C363 C 0.78487 0.318 0.16951 0.0
C364 C 0.802 0.34782 0.1511 0.0
C365 C 0.78463 0.36184 0.14311 0.0
C366 C 0.74974 0.34637 0.15352 0.0
C367 C 0.73272 0.31667 0.17235 0.0
C368 C 0.75014 0.30267 0.18032 0.0
C369 C 0.83873 0.31269 0.28084 0.0
C370 C 0.73254 0.29248 0.30438 0.0
C371 C 0.75439 0.19073 0.33451 0.0
C372 C 0.77357 0.1787 0.34496 0.0
C373 C 0.7568 0.1505 0.36508 0.0
C374 C 0.77426 0.13669 0.37322 0.0
C375 C 0.80889 0.15076 0.36122 0.0
C376 C 0.82555 0.17891 0.34076 0.0
C377 C 0.80804 0.19272 0.33268 0.0
C378 C 0.71962 0.18368 0.23298 0.0
C379 C 0.826 0.2041 0.2102 0.0
O380 O 0.79225 0.26766 0.17526 0.0
O381 O 0.81448 0.32656 0.20998 0.0
O382 O 0.81187 0.28047 0.28145 0.0
O383 O 0.84376 0.32472 0.25353 0.0
O384 O 0.73335 0.26515 0.3149 0.0
O385 O 0.7528 0.29911 0.27274 0.0
O386 O 0.76581 0.22866 0.33905 0.0
O387 O 0.74397 0.16975 0.30425 0.0
O388 O 0.74649 0.21588 0.23277 0.0
O389 O 0.71442 0.1714 0.26021 0.0
O390 O 0.82507 0.23125 0.19953 0.0
O391 O 0.8057 0.19746 0.24181 0.0
H392 H 0.8289 0.36044 0.14307 0.0
H393 H 0.79853 0.38441 0.12831 0.0
H394 H 0.70598 0.30458 0.18139 0.0
H395 H 0.73657 0.28027 0.1953 0.0
H396 H 0.73009 0.13893 0.37432 0.0
H397 H 0.76066 0.11538 0.38932 0.0
H398 H 0.85205 0.1899 0.33052 0.0
H399 H 0.82131 0.21392 0.31646 0.0
Pr400 Pr 0.03596 0.46477 0.48866 0.0
Pr401 Pr 1.02193 0.53377 0.52714 0.0
C402 C 0.03757 0.40166 0.44014 0.0
C403 C 0.06743 0.39862 0.41833 0.0
C404 C 0.08527 0.38991 0.43214 0.0
C405 C 0.11864 0.40014 0.41817 0.0
C406 C 0.13448 0.41895 0.39012 0.0
C407 C 0.11591 0.42459 0.37444 0.0
C408 C 0.08245 0.4139 0.38808 0.0
C409 C 0.08006 0.51413 0.53928 0.0
C410 C 0.08437 0.54863 0.46443 0.0
C411 C 1.01169 0.59341 0.57238 0.0
C412 C 0.98031 0.59033 0.59525 0.0
C413 C 0.96031 0.59882 0.58473 0.0
C414 C 0.92673 0.58512 0.59932 0.0
C415 C 0.9129 0.56328 0.62497 0.0
C416 C 0.9333 0.55701 0.63722 0.0
C417 C 0.96688 0.57055 0.62252 0.0
C418 C 0.98899 0.48392 0.46819 0.0
C419 C 0.97303 0.45108 0.55491 0.0
O420 O 0.03156 0.42608 0.43358 0.0
O421 O 0.03412 0.40539 0.47412 0.0
O422 O 0.0587 0.5193 0.5334 0.0
O423 O 0.07982 0.48171 0.5176 0.0
O424 O 0.07503 0.5646 0.49714 0.0
O425 O 0.06985 0.50986 0.45214 0.0
O426 O 1.02582 0.5778 0.57993 0.0
O427 O 1.01126 0.58431 0.53847 0.0
O428 O 0.99124 0.47314 0.49183 0.0
O429 O 1.0044 0.52227 0.47444 0.0
O430 O 0.98887 0.43462 0.52759 0.0
O431 O 0.98153 0.48897 0.56225 0.0
H432 H 0.07417 0.37768 0.4552 0.0
H433 H 0.13215 0.39395 0.42975 0.0
H434 H 0.1275 0.43861 0.35249 0.0
H435 H 0.06918 0.42054 0.3766 0.0
H436 H 0.97016 0.61398 0.56375 0.0
H437 H 0.91157 0.59159 0.59051 0.0
H438 H 0.92311 0.54093 0.65754 0.0
H439 H 0.98172 0.56354 0.63123 0.0
Pr440 Pr 0.77621 0.70627 0.23797 0.0
Pr441 Pr 0.78665 0.78422 0.27437 0.0
C442 C 0.77398 0.64303 0.18865 0.0
C443 C 0.80667 0.64918 0.16895 0.0
C444 C 0.83389 0.68358 0.18319 0.0
C445 C 0.8661 0.69269 0.16589 0.0
C446 C 0.87156 0.66665 0.13467 0.0
C447 C 0.84426 0.63353 0.11889 0.0
C448 C 0.81162 0.62494 0.13603 0.0
C449 C 0.8252 0.74723 0.28235 0.0
C450 C 0.83319 0.78079 0.20082 0.0
C451 C 0.79153 0.84846 0.3237 0.0
C452 C 0.75961 0.8451 0.34326 0.0
C453 C 0.73158 0.81259 0.32877 0.0
C454 C 0.6999 0.80659 0.34563 0.0
C455 C 0.69603 0.83357 0.3768 0.0
C456 C 0.7238 0.86438 0.39304 0.0
C457 C 0.75589 0.87006 0.37619 0.0
C458 C 0.73782 0.7443 0.23015 0.0
C459 C 0.7283 0.70916 0.31086 0.0
O460 O 0.76476 0.66562 0.18414 0.0
O461 O 0.77076 0.64462 0.22199 0.0
O462 O 0.82266 0.75975 0.26053 0.0
O463 O 0.80194 0.71113 0.28184 0.0
O464 O 0.83441 0.80239 0.23335 0.0
O465 O 0.8093 0.7439 0.19455 0.0
O466 O 0.79815 0.82367 0.32846 0.0
O467 O 0.79538 0.84723 0.29031 0.0
O468 O 0.7401 0.73091 0.25152 0.0
O469 O 0.76091 0.78063 0.23142 0.0
O470 O 0.72812 0.68719 0.27844 0.0
O471 O 0.75168 0.74639 0.31741 0.0
H472 H 0.83034 0.70297 0.20847 0.0
H473 H 0.88677 0.71788 0.17858 0.0
H474 H 0.84812 0.61256 0.09495 0.0
H475 H 0.79066 0.599 0.12446 0.0
H476 H 0.73418 0.79245 0.30362 0.0
H477 H 0.67871 0.78321 0.33271 0.0
H478 H 0.7209 0.88587 0.41704 0.0
H479 H 0.77746 0.89434 0.38795 0.0
Pr480 Pr 0.77543 0.2849 0.76311 0.0
Pr481 Pr 0.78528 0.21394 0.75332 0.0
C482 C 0.76998 0.34143 0.75196 0.0
C483 C 0.74917 0.34374 0.73402 0.0
C484 C 0.71757 0.3408 0.75127 0.0
C485 C 0.69928 0.34634 0.73533 0.0
C486 C 0.7123 0.35515 0.70197 0.0
C487 C 0.74307 0.35603 0.68388 0.0
C488 C 0.76142 0.35053 0.69983 0.0
C489 C 0.72925 0.23375 0.8062 0.0
C490 C 0.73941 0.20012 0.70281 0.0
C491 C 0.79036 0.15714 0.76428 0.0
C492 C 0.8113 0.15463 0.78188 0.0
C493 C 0.84122 0.1535 0.76302 0.0
C494 C 0.85946 0.14757 0.77863 0.0
C495 C 0.848 0.14229 0.81327 0.0
C496 C 0.81909 0.14555 0.83287 0.0
C497 C 0.80081 0.15153 0.81726 0.0
C498 C 0.83092 0.26496 0.7097 0.0
C499 C 0.82142 0.29802 0.81381 0.0
O500 O 0.79098 0.32812 0.7315 0.0
O501 O 0.75569 0.32901 0.78116 0.0
O502 O 0.73941 0.22378 0.77375 0.0
O503 O 0.74232 0.27194 0.818 0.0
O504 O 0.74366 0.1815 0.71935 0.0
O505 O 0.75268 0.23916 0.71148 0.0
O506 O 0.76947 0.17062 0.78492 0.0
O507 O 0.80456 0.16944 0.73502 0.0
O508 O 0.82102 0.27484 0.74225 0.0
O509 O 0.81838 0.22674 0.69829 0.0
O510 O 0.81675 0.31716 0.79815 0.0
O511 O 0.80818 0.25905 0.80448 0.0
H512 H 0.70728 0.3353 0.77749 0.0
H513 H 0.67536 0.34496 0.74961 0.0
H514 H 0.7538 0.36305 0.65824 0.0
H515 H 0.78569 0.35285 0.68585 0.0
H516 H 0.85011 0.15606 0.73582 0.0
H517 H 0.88198 0.14576 0.76314 0.0
H518 H 0.80959 0.14132 0.85955 0.0
H519 H 0.77788 0.15239 0.83253 0.0
Pr520 Pr 0.79941 0.76032 0.78403 0.0
Pr521 Pr 0.76042 0.73631 0.72953 0.0
C522 C 0.83028 0.77089 0.834 0.0
C523 C 0.84944 0.75594 0.84005 0.0
C524 C 0.88003 0.78311 0.85196 0.0
C525 C 0.89888 0.76995 0.85812 0.0
C526 C 0.88721 0.72933 0.85276 0.0
C527 C 0.85667 0.7021 0.84039 0.0
C528 C 0.83797 0.71529 0.83389 0.0
C529 C 0.83642 0.80086 0.73003 0.0
C530 C 0.78737 0.67858 0.72241 0.0
C531 C 0.73007 0.7276 0.67972 0.0
C532 C 0.71074 0.74241 0.67346 0.0
C533 C 0.68003 0.71514 0.66172 0.0
C534 C 0.66119 0.72806 0.65505 0.0
C535 C 0.67287 0.76858 0.65977 0.0
C536 C 0.70362 0.79591 0.67178 0.0
C537 C 0.72234 0.78296 0.67872 0.0
C538 C 0.72295 0.69612 0.78376 0.0
C539 C 0.77208 0.81721 0.79292 0.0
O540 O 0.79836 0.74737 0.83333 0.0
O541 O 0.84498 0.79126 0.81006 0.0
O542 O 0.8174 0.76382 0.72453 0.0
O543 O 0.83666 0.81727 0.76354 0.0
O544 O 0.78252 0.69321 0.70254 0.0
O545 O 0.79143 0.69686 0.75549 0.0
O546 O 0.76186 0.75126 0.68107 0.0
O547 O 0.71521 0.70633 0.70296 0.0
O548 O 0.74237 0.73308 0.7891 0.0
O549 O 0.7223 0.67972 0.75028 0.0
O550 O 0.77583 0.8011 0.81216 0.0
O551 O 0.76864 0.80014 0.75948 0.0
H552 H 0.88935 0.81459 0.85651 0.0
H553 H 0.92258 0.79157 0.86704 0.0
H554 H 0.84684 0.67063 0.83643 0.0
H555 H 0.81451 0.69377 0.82438 0.0
H556 H 0.6706 0.68371 0.65767 0.0
H557 H 0.63739 0.70629 0.6464 0.0
H558 H 0.71358 0.82731 0.67522 0.0
H559 H 0.74592 0.80463 0.68791 0.0
Pr560 Pr 0.54269 0.51004 0.54047 0.0
Pr561 Pr 0.5174 0.48685 0.47623 0.0
C562 C 0.55865 0.50663 0.59533 0.0
C563 C 0.579 0.49182 0.59954 0.0
C564 C 0.60615 0.5178 0.61771 0.0
C565 C 0.62441 0.50368 0.62373 0.0
C566 C 0.61554 0.4632 0.61202 0.0
C567 C 0.58919 0.43748 0.59254 0.0
C568 C 0.57114 0.45166 0.58625 0.0
C569 C 0.58295 0.56223 0.49766 0.0
C570 C 0.57379 0.4498 0.4625 0.0
C571 C 0.50366 0.49193 0.42063 0.0
C572 C 0.48433 0.50727 0.41508 0.0
C573 C 0.4493 0.48631 0.41873 0.0
C574 C 0.43162 0.50207 0.41411 0.0
C575 C 0.44868 0.53901 0.40583 0.0
C576 C 0.48365 0.55998 0.4024 0.0
C577 C 0.50131 0.54418 0.4068 0.0
C578 C 0.47727 0.43421 0.51859 0.0
C579 C 0.48615 0.54698 0.55447 0.0
O580 O 0.53129 0.47988 0.58224 0.0
O581 O 0.57465 0.53846 0.58326 0.0
O582 O 0.57017 0.52522 0.48788 0.0
O583 O 0.57555 0.57466 0.53178 0.0
O584 O 0.55576 0.45475 0.44681 0.0
O585 O 0.57084 0.46621 0.49834 0.0
O586 O 0.52998 0.51877 0.43548 0.0
O587 O 0.48723 0.45956 0.43202 0.0
O588 O 0.4899 0.47124 0.52874 0.0
O589 O 0.48437 0.42208 0.48436 0.0
O590 O 0.50451 0.54232 0.56996 0.0
O591 O 0.48872 0.53021 0.51864 0.0
H592 H 0.61286 0.54892 0.62783 0.0
H593 H 0.64503 0.52433 0.63823 0.0
H594 H 0.58154 0.40611 0.58344 0.0
H595 H 0.55052 0.43088 0.57176 0.0
H596 H 0.43553 0.45784 0.42517 0.0
H597 H 0.40461 0.48538 0.41701 0.0
H598 H 0.49749 0.58815 0.39536 0.0
H599 H 0.52834 0.56088 0.40365 0.0
Pr600 Pr 0.04464 0.52968 0.97887 0.0
Pr601 Pr 1.02853 0.47545 0.03009 0.0
C602 C 0.04961 0.57536 0.9428 0.0
C603 C 0.03133 0.58978 0.93458 0.0
C604 C 0.04698 0.62989 0.93518 0.0
C605 C 0.03073 0.64502 0.9272 0.0
C606 C 0.99856 0.62012 0.91838 0.0
C607 C 0.98267 0.57989 0.91818 0.0
C608 C 0.99895 0.56476 0.92636 0.0
C609 C 0.08855 0.56001 0.02548 0.0
C610 C 0.98159 0.51373 0.04587 0.0
C611 C 0.03368 0.45192 0.07953 0.0
C612 C 0.04448 0.42607 0.08291 0.0
C613 C 1.02095 0.38854 0.0891 0.0
C614 C 0.03131 0.36583 0.0956 0.0
C615 C 0.06517 0.38074 0.0964 0.0
C616 C 0.08874 0.41746 0.08882 0.0
C617 C 0.07851 0.44001 0.08229 0.0
C618 C 0.98679 0.43215 0.97866 0.0
C619 C 0.07739 0.47299 0.95153 0.0
O620 O 0.04291 0.53823 0.92864 0.0
O621 O 0.05506 0.5885 0.9755 0.0
O622 O 0.05713 0.54185 0.03291 0.0
O623 O 0.0984 0.56323 0.99298 0.0
O624 O 0.99601 0.50539 0.06159 0.0
O625 O 0.99257 0.51849 0.01318 0.0
O626 O 0.05727 0.48312 0.06792 0.0
O627 O 1.00571 0.43534 0.06743 0.0
O628 O 1.0094 0.4672 0.98294 0.0
O629 O 0.9855 0.4165 1.0018 0.0
O630 O 0.06517 0.48801 0.94014 0.0
O631 O 0.07159 0.47136 0.98479 0.0
H632 H 0.07197 0.64949 0.94159 0.0
H633 H 0.04366 0.67601 0.92714 0.0
H634 H 0.95768 0.56025 0.91183 0.0
H635 H 0.98638 0.53371 0.92616 0.0
H636 H 0.99454 0.37727 0.08995 0.0
H637 H 1.01277 0.33757 0.10158 0.0
H638 H 0.11507 0.42924 0.08894 0.0
H639 H 0.0973 0.46885 0.07774 0.0
H640 H 0.17382 0.13784 0.80444 0.0
H641 H 0.11369 0.14489 0.01119 0.0
H642 H 0.21877 0.24471 0.88405 0.0
H643 H 0.09538 0.03907 0.92657 0.0
H644 H 0.14562 0.18454 0.96663 0.0
H645 H 0.13638 0.10406 0.85085 0.0
C646 C 0.17566 0.15436 0.83178 0.0
C647 C 0.19982 0.19401 0.84044 0.0
C648 C 0.13438 0.15262 0.95805 0.0
C649 C 0.15705 0.15519 0.8939 0.0
C650 C 0.1163 0.13011 0.98335 0.0
C651 C 0.10188 0.08877 0.97245 0.0
C652 C 0.13748 0.13335 0.92191 0.0
C653 C 0.10594 0.07088 0.93616 0.0
C654 C 0.15428 0.13496 0.85831 0.0
C655 C 0.20063 0.214 0.87633 0.0
N656 N 0.12322 0.09324 0.91227 0.0
N657 N 0.17971 0.19419 0.90193 0.0
H658 H 0.1374 0.91057 0.07109 0.0
H659 H 0.17852 0.89482 0.23632 0.0
H660 H 0.12439 0.97763 0.17876 0.0
H661 H 0.20424 0.83726 0.12836 0.0
H662 H 0.15439 0.92094 0.21517 0.0
H663 H 0.15896 0.87996 0.09097 0.0
C664 C 0.13919 0.91895 0.09884 0.0
C665 C 0.12923 0.94684 0.1233 0.0
C666 C 0.16512 0.90242 0.19602 0.0
C667 C 0.15376 0.91206 0.14608 0.0
C668 C 0.17856 0.88712 0.20814 0.0
C669 C 0.19326 0.86374 0.18404 0.0
C670 C 0.16635 0.89435 0.15949 0.0
C671 C 0.19331 0.85544 0.14775 0.0
C672 C 0.15155 0.90156 0.11012 0.0
C673 C 0.1323 0.95684 0.15886 0.0
N674 N 0.18008 0.87084 0.1365 0.0
N675 N 0.14421 0.9394 0.16915 0.0
H676 H 0.48508 0.94362 0.42548 0.0
H677 H 0.30748 0.78186 0.37796 0.0
H678 H 0.40206 0.8966 0.50656 0.0
H679 H 0.37113 0.8743 0.3221 0.0
H680 H 0.34355 0.8193 0.42335 0.0
H681 H 0.44582 0.91443 0.38442 0.0
C682 C 0.45858 0.9275 0.43472 0.0
C683 C 0.44671 0.92277 0.46949 0.0
C684 C 0.3494 0.83154 0.40134 0.0
C685 C 0.40197 0.8884 0.42253 0.0
C686 C 0.32895 0.81018 0.37544 0.0
C687 C 0.3365 0.82504 0.34631 0.0
C688 C 0.37806 0.86741 0.39749 0.0
C689 C 0.36447 0.86195 0.34428 0.0
C690 C 0.43625 0.91088 0.41132 0.0
C691 C 0.41219 0.90094 0.47995 0.0
N692 N 0.38464 0.88166 0.36928 0.0
N693 N 0.39101 0.88412 0.45641 0.0
H694 H 0.43934 0.21741 0.63157 0.0
H695 H 0.41584 0.00221 0.5643 0.0
H696 H 0.37125 0.12256 0.56103 0.0
H697 H 0.50472 0.09911 0.60515 0.0
H698 H 0.39837 0.0489 0.56676 0.0
H699 H 0.4699 0.18024 0.61662 0.0
C700 C 0.43189 0.1898 0.61144 0.0
C701 C 0.40104 0.17124 0.60004 0.0
C702 C 0.42149 0.06009 0.57574 0.0
C703 C 0.43514 0.12924 0.58322 0.0
C704 C 0.43062 0.03338 0.5757 0.0
C705 C 0.46149 0.04742 0.58453 0.0
C706 C 0.44337 0.10073 0.58524 0.0
C707 C 0.48049 0.08774 0.59849 0.0
C708 C 0.44893 0.16828 0.6035 0.0
C709 C 0.39367 0.1369 0.57242 0.0
N710 N 0.47143 0.11348 0.59777 0.0
N711 N 0.40964 0.11577 0.56619 0.0
H712 H 0.15976 0.88035 0.53004 0.0
H713 H 0.24065 0.91702 0.69057 0.0
H714 H 0.14587 0.95581 0.63269 0.0
H715 H 0.22436 0.81817 0.59912 0.0
H716 H 0.21299 0.93866 0.66792 0.0
H717 H 0.1913 0.865 0.55285 0.0
C718 C 0.16373 0.89416 0.55731 0.0
C719 C 0.15024 0.91957 0.57941 0.0
C720 C 0.21551 0.91225 0.65292 0.0
C721 C 0.18604 0.90148 0.60599 0.0
C722 C 0.23137 0.90002 0.66571 0.0
C723 C 0.23451 0.86557 0.6468 0.0
C724 C 0.20334 0.89023 0.62072 0.0
C725 C 0.22203 0.84456 0.61479 0.0
C726 C 0.1815 0.88505 0.57042 0.0
C727 C 0.15566 0.93588 0.61478 0.0
N728 N 0.20713 0.85726 0.60276 0.0
N729 N 0.1732 0.92658 0.62701 0.0
H730 H 0.31432 0.83551 0.85681 0.0
H731 H 0.49171 0.93568 0.9169 0.0
H732 H 0.40221 0.83703 0.78197 0.0
H733 H 0.41658 0.97262 0.97644 0.0
H734 H 0.45725 0.89251 0.87014 0.0
H735 H 0.34895 0.87827 0.90348 0.0
C736 C 0.34092 0.84478 0.85014 0.0
C737 C 0.35531 0.8327 0.8152 0.0
C738 C 0.44822 0.90998 0.89342 0.0
C739 C 0.39528 0.88167 0.869 0.0
C740 C 0.4678 0.93444 0.92036 0.0
C741 C 0.45701 0.95767 0.95098 0.0
C742 C 0.4171 0.90799 0.89713 0.0
C743 C 0.426 0.95536 0.9534 0.0
C744 C 0.36071 0.86935 0.87686 0.0
C745 C 0.38998 0.84567 0.80839 0.0
N746 N 0.40708 0.93079 0.9271 0.0
N747 N 0.40868 0.86918 0.83497 0.0
H748 H 0.42177 0.12929 0.11768 0.0
H749 H 0.28611 0.13155 0.25206 0.0
H750 H 0.37682 0.04323 0.17945 0.0
H751 H 0.29052 0.14201 0.14957 0.0
H752 H 0.30712 0.08391 0.22294 0.0
H753 H 0.36758 0.12495 0.12462 0.0
C754 C 0.40029 0.10987 0.13314 0.0
C755 C 0.40339 0.08814 0.14977 0.0
C756 C 0.30204 0.09518 0.20669 0.0
C757 C 0.34157 0.0814 0.15639 0.0
C758 C 0.29068 0.12294 0.22335 0.0
C759 C 0.28909 0.14243 0.20299 0.0
C760 C 0.31281 0.08859 0.16993 0.0
C761 C 0.2934 0.129 0.16607 0.0
C762 C 0.36927 0.10627 0.13606 0.0
C763 C 0.37503 0.06161 0.16776 0.0
N764 N 0.30633 0.10358 0.15044 0.0
N765 N 0.34507 0.05961 0.17142 0.0
H766 H 0.10583 0.09992 0.47339 0.0
H767 H 0.18714 0.11273 0.27146 0.0
H768 H 0.10118 4e-05 0.38582 0.0
H769 H 0.21053 0.21725 0.35769 0.0
H770 H 0.15289 0.07201 0.31378 0.0
H771 H 0.14113 0.14391 0.4327 0.0
C772 C 0.11223 0.08723 0.44563 0.0
C773 C 0.10062 0.04615 0.43303 0.0
C774 C 0.16544 0.10381 0.3237 0.0
C775 C 0.14086 0.09634 0.3863 0.0
C776 C 0.18507 0.12725 0.29942 0.0
C777 C 0.20176 0.16864 0.3109 0.0
C778 C 0.16203 0.12153 0.36016 0.0
C779 C 0.19808 0.18548 0.34761 0.0
C780 C 0.13244 0.11239 0.42245 0.0
C781 C 0.10964 0.03143 0.39681 0.0
N782 N 0.1785 0.16188 0.37096 0.0
N783 N 0.12903 0.05638 0.37487 0.0
H784 H 0.84874 0.15912 0.22839 0.0
H785 H 0.9511 0.0777 0.03225 0.0
H786 H 0.86175 0.19194 0.13503 0.0
H787 H 0.96164 0.07477 0.13042 0.0
H788 H 0.91679 0.11238 0.06608 0.0
H789 H 0.88386 0.12556 0.19457 0.0
C790 C 0.85839 0.15987 0.20081 0.0
C791 C 0.84995 0.18081 0.18689 0.0
C792 C 0.92624 0.10449 0.08101 0.0
C793 C 0.89396 0.13761 0.14363 0.0
C794 C 0.94677 0.08371 0.06086 0.0
C795 C 0.96176 0.07107 0.07621 0.0
C796 C 0.91779 0.11437 0.11924 0.0
C797 C 0.9525 0.08222 0.11477 0.0
C798 C 0.87942 0.13978 0.18067 0.0
C799 C 0.86567 0.17788 0.14957 0.0
N800 N 0.93225 0.10166 0.13341 0.0
N801 N 0.88532 0.15769 0.13069 0.0
H802 H 0.10635 0.62768 0.47968 0.0
H803 H 0.20674 0.65322 0.28564 0.0
H804 H 0.11579 0.53135 0.39561 0.0
H805 H 0.19855 0.74796 0.37272 0.0
H806 H 0.17451 0.60808 0.32494 0.0
H807 H 0.1411 0.67173 0.44055 0.0
C808 C 0.11612 0.61575 0.45304 0.0
C809 C 0.10813 0.57557 0.44097 0.0
C810 C 0.1797 0.6387 0.33543 0.0
C811 C 0.14818 0.62647 0.39563 0.0
C812 C 0.19802 0.66447 0.31304 0.0
C813 C 0.20527 0.70438 0.32606 0.0
C814 C 0.1683 0.65289 0.37099 0.0
C815 C 0.19344 0.71742 0.36166 0.0
C816 C 0.13594 0.6411 0.4306 0.0
C817 C 0.12129 0.56206 0.40599 0.0
N818 N 0.17549 0.69171 0.38287 0.0
N819 N 0.14069 0.58751 0.38446 0.0
H820 H 0.59922 0.91423 0.64857 0.0
H821 H 0.63733 0.73449 0.6051 0.0
H822 H 0.55707 0.80675 0.56854 0.0
H823 H 0.66382 0.83396 0.69594 0.0
H824 H 0.60769 0.75965 0.59084 0.0
H825 H 0.62425 0.88531 0.66499 0.0
C826 C 0.59549 0.88461 0.63425 0.0
C827 C 0.57634 0.86298 0.60696 0.0
C828 C 0.61991 0.77585 0.61395 0.0
C829 C 0.60454 0.8294 0.6259 0.0
C830 C 0.63669 0.76141 0.62226 0.0
C831 C 0.6534 0.78234 0.65163 0.0
C832 C 0.62008 0.81162 0.635 0.0
C833 C 0.65199 0.81729 0.6726 0.0
C834 C 0.60951 0.86795 0.64385 0.0
C835 C 0.57164 0.82437 0.58981 0.0
N836 N 0.63583 0.83092 0.66374 0.0
N837 N 0.58582 0.80882 0.59946 0.0
H838 H 0.48118 0.45643 0.90033 0.0
H839 H 0.32846 0.24051 0.84692 0.0
H840 H 0.44802 0.36325 0.95006 0.0
H841 H 0.37085 0.33206 0.79189 0.0
H842 H 0.37014 0.28495 0.8867 0.0
H843 H 0.43986 0.41084 0.86113 0.0
C844 C 0.46526 0.42623 0.90285 0.0
C845 C 0.46805 0.41357 0.92841 0.0
C846 C 0.37037 0.29515 0.86578 0.0
C847 C 0.42015 0.36115 0.88392 0.0
C848 C 0.34662 0.26983 0.84311 0.0
C849 C 0.3465 0.28244 0.8158 0.0
C850 C 0.39407 0.33328 0.861 0.0
C851 C 0.37022 0.32093 0.81235 0.0
C852 C 0.44159 0.40018 0.8805 0.0
C853 C 0.44687 0.37407 0.93044 0.0
N854 N 0.393 0.34485 0.83458 0.0
N855 N 0.4236 0.3493 0.90865 0.0
H856 H 0.86327 0.82662 0.29369 0.0
H857 H 0.95464 0.8534 0.44096 0.0
H858 H 0.8404 0.72804 0.33021 0.0
H859 H 0.96758 0.94892 0.40718 0.0
H860 H 0.91403 0.80628 0.40045 0.0
H861 H 0.90198 0.8709 0.33534 0.0
C862 C 0.86654 0.81416 0.3104 0.0
C863 C 0.84871 0.77339 0.30817 0.0
C864 C 0.92586 0.83755 0.40191 0.0
C865 C 0.89372 0.82446 0.35624 0.0
C866 C 0.94919 0.86447 0.42487 0.0
C867 C 0.96466 0.90526 0.42746 0.0
C868 C 0.91816 0.85154 0.38126 0.0
C869 C 0.95635 0.91785 0.40621 0.0
C870 C 0.88872 0.83962 0.33434 0.0
C871 C 0.85378 0.75924 0.33093 0.0
N872 N 0.93381 0.89119 0.38411 0.0
N873 N 0.876 0.78474 0.35394 0.0
H874 H 0.46622 0.57669 0.63121 0.0
H875 H 0.35918 0.69022 0.63606 0.0
H876 H 0.44827 0.57544 0.53528 0.0
H877 H 0.35485 0.66338 0.72929 0.0
H878 H 0.39304 0.65524 0.60133 0.0
H879 H 0.4316 0.6107 0.66571 0.0
C880 C 0.45552 0.58308 0.61633 0.0
C881 C 0.46253 0.57074 0.57789 0.0
C882 C 0.38514 0.65658 0.62941 0.0
C883 C 0.41891 0.61446 0.62153 0.0
C884 C 0.36489 0.67754 0.65031 0.0
C885 C 0.35174 0.68211 0.68805 0.0
C886 C 0.39524 0.63829 0.64426 0.0
C887 C 0.3625 0.66265 0.70133 0.0
C888 C 0.43478 0.60342 0.6371 0.0
C889 C 0.4456 0.58245 0.56381 0.0
N890 N 0.38253 0.64327 0.68064 0.0
N891 N 0.42613 0.60254 0.58452 0.0
H892 H 0.575 0.03453 0.89102 0.0
H893 H 0.7296 0.24525 0.87576 0.0
H894 H 0.64125 0.10609 0.96808 0.0
H895 H 0.68417 0.157 0.78584 0.0
H896 H 0.69635 0.19577 0.91112 0.0
H897 H 0.61328 0.08025 0.8527 0.0
C898 C 0.59816 0.05931 0.89926 0.0
C899 C 0.6055 0.06655 0.93222 0.0
C900 C 0.69362 0.18729 0.88367 0.0
C901 C 0.64896 0.11892 0.8892 0.0
C902 C 0.71229 0.21556 0.8637 0.0
C903 C 0.70895 0.20516 0.82825 0.0
C904 C 0.67104 0.14877 0.86814 0.0
C905 C 0.68703 0.16613 0.81333 0.0
C906 C 0.61987 0.08545 0.87761 0.0
C907 C 0.63506 0.09966 0.94259 0.0
N908 N 0.66856 0.1394 0.83348 0.0
N909 N 0.65578 0.12479 0.92115 0.0
H910 H 0.05166 0.30305 0.07271 0.0
H911 H 0.16256 0.33105 0.19956 0.0
H912 H 0.10289 0.41202 0.1471 0.0
H913 H 0.13226 0.23147 0.10944 0.0
H914 H 0.13318 0.35671 0.18594 0.0
H915 H 0.07332 0.27143 0.09145 0.0
C916 C 0.06725 0.32009 0.09312 0.0
C917 C 0.07599 0.36014 0.10815 0.0
C918 C 0.13283 0.32913 0.16923 0.0
C919 C 0.10049 0.32468 0.12958 0.0
C920 C 0.14976 0.31462 0.17687 0.0
C921 C 0.15016 0.27935 0.15535 0.0
C922 C 0.1161 0.30816 0.13994 0.0
C923 C 0.13241 0.2587 0.12682 0.0
C924 C 0.07965 0.30221 0.10367 0.0
C925 C 0.09615 0.38119 0.13448 0.0
N926 N 0.11618 0.27356 0.11979 0.0
N927 N 0.10783 0.36322 0.14429 0.0
H928 H 0.61033 0.60659 0.97549 0.0
H929 H 0.68315 0.61708 0.77216 0.0
H930 H 0.59846 0.50544 0.88706 0.0
H931 H 0.71555 0.72149 0.8576 0.0
H932 H 0.64894 0.57716 0.81506 0.0
H933 H 0.64567 0.65014 0.93436 0.0
C934 C 0.61512 0.59354 0.94746 0.0
C935 C 0.60147 0.55223 0.93472 0.0
C936 C 0.66346 0.60876 0.82468 0.0
C937 C 0.64167 0.60186 0.88754 0.0
C938 C 0.68306 0.63176 0.80008 0.0
C939 C 0.70228 0.67289 0.81116 0.0
C940 C 0.66264 0.62667 0.86111 0.0
C941 C 0.70106 0.68993 0.84783 0.0
C942 C 0.63535 0.61843 0.92404 0.0
C943 C 0.6085 0.53702 0.89816 0.0
N944 N 0.68149 0.66676 0.87154 0.0
N945 N 0.62791 0.56171 0.87602 0.0
H946 H 0.7686 0.42206 0.15225 0.0
H947 H 0.60017 0.35834 0.09149 0.0
H948 H 0.6883 0.30256 0.13267 0.0
H949 H 0.68812 0.47027 0.0846 0.0
H950 H 0.63044 0.34079 0.11378 0.0
H951 H 0.73807 0.44318 0.13386 0.0
C952 C 0.74464 0.40021 0.14402 0.0
C953 C 0.7311 0.36035 0.14395 0.0
C954 C 0.64317 0.36928 0.10755 0.0
C955 C 0.6959 0.38455 0.12341 0.0
C956 C 0.62578 0.37949 0.09511 0.0
C957 C 0.64155 0.41596 0.08639 0.0
C958 C 0.67668 0.3957 0.11149 0.0
C959 C 0.67507 0.44178 0.09087 0.0
C960 C 0.72721 0.41238 0.13368 0.0
C961 C 0.69962 0.33364 0.13369 0.0
N962 N 0.69156 0.43117 0.10319 0.0
N963 N 0.68318 0.34622 0.12385 0.0
H964 H 0.94574 0.40388 0.45852 0.0
H965 H 0.89234 0.38578 0.28388 0.0
H966 H 0.98361 0.50171 0.41309 0.0
H967 H 0.83734 0.29326 0.3398 0.0
H968 H 0.92922 0.42576 0.32811 0.0
H969 H 0.90957 0.36068 0.41296 0.0
C970 C 0.94655 0.4163 0.43894 0.0
C971 C 0.96769 0.45672 0.43991 0.0
C972 C 0.90917 0.39674 0.33087 0.0
C973 C 0.92631 0.40715 0.38737 0.0
C974 C 0.88801 0.3737 0.30545 0.0
C975 C 0.86146 0.33594 0.30799 0.0
C976 C 0.90423 0.38218 0.35935 0.0
C977 C 0.85735 0.32217 0.33674 0.0
C978 C 0.92579 0.39158 0.41296 0.0
C979 C 0.96765 0.47093 0.41366 0.0
N980 N 0.87849 0.34521 0.36122 0.0
N981 N 0.94744 0.44631 0.38862 0.0
H982 H 0.61486 0.64355 0.51043 0.0
H983 H 0.67633 0.63483 0.30348 0.0
H984 H 0.59598 0.53696 0.42665 0.0
H985 H 0.72246 0.74128 0.38296 0.0
H986 H 0.63819 0.60152 0.34998 0.0
H987 H 0.6474 0.68255 0.46542 0.0
C988 C 0.61748 0.62846 0.48268 0.0
C989 C 0.60278 0.5871 0.47216 0.0
C990 C 0.65653 0.63223 0.35737 0.0
C991 C 0.6391 0.63097 0.4211 0.0
C992 C 0.67834 0.65138 0.33079 0.0
C993 C 0.70301 0.69079 0.33939 0.0
C994 C 0.65931 0.65249 0.39294 0.0
C995 C 0.704 0.71074 0.37526 0.0
C996 C 0.6359 0.6506 0.45712 0.0
C997 C 0.6068 0.56881 0.43595 0.0
N998 N 0.68258 0.69121 0.40089 0.0
N999 N 0.62446 0.59083 0.41179 0.0
H1000 H 0.86381 0.37797 0.83176 0.0
H1001 H 0.94123 0.35482 0.96288 0.0
H1002 H 0.83079 0.26813 0.85614 0.0
H1003 H 0.97806 0.46592 0.93899 0.0
H1004 H 0.89996 0.32327 0.92406 0.0
H1005 H 0.9045 0.41192 0.87217 0.0
C1006 C 0.86488 0.36106 0.84581 0.0
C1007 C 0.84399 0.32008 0.84038 0.0
C1008 C 0.91702 0.35456 0.92721 0.0
C1009 C 0.8905 0.35858 0.8863 0.0
C1010 C 0.94063 0.3725 0.9493 0.0
C1011 C 0.96305 0.41286 0.95392 0.0
C1012 C 0.91562 0.37722 0.90978 0.0
C1013 C 0.96127 0.43457 0.93582 0.0
C1014 C 0.88821 0.38042 0.86872 0.0
C1015 C 0.84651 0.29967 0.85923 0.0
N1016 N 0.93784 0.41647 0.91454 0.0
N1017 N 0.86938 0.31909 0.88118 0.0
H1018 H 0.83704 0.74917 0.12868 0.0
H1019 H 0.96468 0.96029 0.08951 0.0
H1020 H 0.88455 0.85543 0.20764 0.0
H1021 H 0.94367 0.85377 1.00538 0.0
H1022 H 0.93317 0.92073 0.13264 0.0
H1023 H 0.87437 0.78494 0.08231 0.0
C1024 C 0.85548 0.77977 0.13621 0.0
C1025 C 0.8574 0.79948 0.17202 0.0
C1026 C 0.93546 0.90578 0.10481 0.0
C1027 C 0.89963 0.84028 0.11957 0.0
C1028 C 0.95344 0.9284 0.08009 0.0
C1029 C 0.95693 0.9102 0.04383 0.0
C1030 C 0.92013 0.86443 0.09332 0.0
C1031 C 0.94155 0.86882 0.03317 0.0
C1032 C 0.87671 0.8001 0.10982 0.0
C1033 C 0.88183 0.83907 0.18041 0.0
N1034 N 0.9235 0.84713 0.05792 0.0
N1035 N 0.9017 0.85818 0.15443 0.0
H1036 H 0.86759 0.08567 0.77817 0.0
H1037 H 0.9298 0.09627 0.94158 0.0
H1038 H 0.86326 0.16685 0.88005 0.0
H1039 H 0.92268 0.00912 0.84162 0.0
H1040 H 0.90693 0.12431 0.92022 0.0
H1041 H 0.89031 0.05974 0.80135 0.0
C1042 C 0.87191 0.09845 0.80536 0.0
C1043 C 0.86383 0.12868 0.82715 0.0
C1044 C 0.91017 0.09886 0.90317 0.0
C1045 C 0.8892 0.09844 0.85424 0.0
C1046 C 0.92328 0.08292 0.91526 0.0
C1047 C 0.92808 0.05023 0.89336 0.0
C1048 C 0.90203 0.08202 0.86893 0.0
C1049 C 0.91892 0.03387 0.85966 0.0
C1050 C 0.88455 0.08332 0.81873 0.0
C1051 C 0.86911 0.14342 0.86245 0.0
N1052 N 0.90648 0.05004 0.84849 0.0
N1053 N 0.88156 0.12814 0.87498 0.0
H1054 H 0.68801 0.12516 0.69765 0.0
H1055 H 0.64569 0.10766 0.51879 0.0
H1056 H 0.74102 0.22195 0.64679 0.0
H1057 H 0.56924 0.05039 0.59935 0.0
H1058 H 0.68652 0.14066 0.55875 0.0
H1059 H 0.64966 0.08797 0.65451 0.0
C1060 C 0.69175 0.1384 0.67719 0.0
C1061 C 0.7175 0.17675 0.67581 0.0
C1062 C 0.66081 0.12077 0.56755 0.0
C1063 C 0.67417 0.13433 0.62648 0.0
C1064 C 0.63755 0.10193 0.54486 0.0
C1065 C 0.60406 0.07662 0.55608 0.0
C1066 C 0.65054 0.11355 0.60131 0.0
C1067 C 0.59481 0.06991 0.5899 0.0
C1068 C 0.66981 0.11728 0.6528 0.0
C1069 C 0.72123 0.19261 0.6489 0.0
N1070 N 0.61802 0.08823 0.6114 0.0
N1071 N 0.69982 0.17122 0.62511 0.0
H1072 H 0.61918 0.97912 0.49546 0.0
H1073 H 0.67142 0.84304 0.33307 0.0
H1074 H 0.57738 0.93854 0.40083 0.0
H1075 H 0.65549 0.83627 0.44043 0.0
H1076 H 0.63824 0.87755 0.35287 0.0
H1077 H 0.64124 0.93237 0.46969 0.0
C1078 C 0.61547 0.96093 0.46881 0.0
C1079 C 0.59561 0.96103 0.45045 0.0
C1080 C 0.64072 0.86683 0.3717 0.0
C1081 C 0.6198 0.90789 0.42161 0.0
C1082 C 0.65924 0.84685 0.3605 0.0
C1083 C 0.66608 0.8375 0.38561 0.0
C1084 C 0.62976 0.87739 0.40792 0.0
C1085 C 0.6507 0.8436 0.42075 0.0
C1086 C 0.62736 0.93388 0.45453 0.0
C1087 C 0.59215 0.93826 0.41576 0.0
N1088 N 0.6336 0.86425 0.43125 0.0
N1089 N 0.60386 0.91165 0.40232 0.0
H1090 H 0.78886 0.07591 0.36588 0.0
H1091 H 0.96003 0.13869 0.42023 0.0
H1092 H 0.87183 0.19394 0.37852 0.0
H1093 H 0.87098 0.02914 0.43257 0.0
H1094 H 0.92942 0.15567 0.39786 0.0
H1095 H 0.81968 0.05507 0.38413 0.0
C1096 C 0.81347 0.0975 0.37256 0.0
C1097 C 0.82766 0.13688 0.37074 0.0
C1098 C 0.91651 0.12783 0.40532 0.0
C1099 C 0.86319 0.11295 0.39111 0.0
C1100 C 0.93409 0.11791 0.41782 0.0
C1101 C 0.91813 0.08228 0.42809 0.0
C1102 C 0.8826 0.102 0.40296 0.0
C1103 C 0.88421 0.05701 0.42512 0.0
C1104 C 0.83107 0.08548 0.38282 0.0
C1105 C 0.85995 0.16321 0.37901 0.0
N1106 N 0.86753 0.06733 0.41277 0.0
N1107 N 0.87652 0.15078 0.38883 0.0
H1108 H 0.72277 0.20376 0.17371 0.0
H1109 H 0.57411 0.99094 0.09962 0.0
H1110 H 0.66505 0.11089 0.22925 0.0
H1111 H 0.61559 0.08929 0.05364 0.0
H1112 H 0.60864 0.03454 0.14617 0.0
H1113 H 0.68574 0.16308 0.12859 0.0
C1114 C 0.70233 0.17495 0.17652 0.0
C1115 C 0.69721 0.16084 0.20543 0.0
C1116 C 0.61029 0.04676 0.12597 0.0
C1117 C 0.65475 0.11374 0.15355 0.0
C1118 C 0.59053 0.02172 0.09923 0.0
C1119 C 0.592 0.03617 0.0723 0.0
C1120 C 0.63228 0.08681 0.12589 0.0
C1121 C 0.61367 0.07664 0.07365 0.0
C1122 C 0.68113 0.15169 0.15073 0.0
C1123 C 0.67017 0.12316 0.20753 0.0
N1124 N 0.63306 0.10035 0.09968 0.0
N1125 N 0.65028 0.10106 0.18205 0.0
H1126 H 0.77504 0.86457 0.75892 0.0
H1127 H 0.64805 0.88311 0.8968 0.0
H1128 H 0.77209 0.85749 0.86228 0.0
H1129 H 0.69426 0.96427 0.8299 0.0
H1130 H 0.701 0.88464 0.88955 0.0
H1131 H 0.75935 0.91696 0.78697 0.0
C1132 C 0.77182 0.87475 0.78756 0.0
C1133 C 0.77221 0.85506 0.80865 0.0
C1134 C 0.70004 0.90296 0.87702 0.0
C1135 C 0.75465 0.91452 0.84052 0.0
C1136 C 0.66966 0.901 0.88024 0.0
C1137 C 0.66711 0.92186 0.86212 0.0
C1138 C 0.7277 0.9251 0.85469 0.0
C1139 C 0.69557 0.94642 0.84266 0.0
C1140 C 0.76359 0.90526 0.80356 0.0
C1141 C 0.76991 0.87061 0.84532 0.0
N1142 N 0.7249 0.94654 0.8385 0.0
N1143 N 0.76008 0.89893 0.86042 0.0
H1144 H 0.95634 0.89439 0.54252 0.0
H1145 H 0.86293 0.87993 0.74161 0.0
H1146 H 0.9509 0.99229 0.62695 0.0
H1147 H 0.85314 0.77614 0.65693 0.0
H1148 H 0.89629 0.92081 0.69928 0.0
H1149 H 0.92051 0.85038 0.583 0.0
C1150 C 0.94755 0.90662 0.56954 0.0
C1151 C 0.95658 0.94714 0.58134 0.0
C1152 C 0.88695 0.88914 0.68971 0.0
C1153 C 0.91558 0.89691 0.6278 0.0
C1154 C 0.86786 0.86565 0.71397 0.0
C1155 C 0.85539 0.82448 0.70291 0.0
C1156 C 0.89416 0.87166 0.65377 0.0
C1157 C 0.86233 0.80777 0.66662 0.0
C1158 C 0.92705 0.88144 0.59259 0.0
C1159 C 0.94458 0.96133 0.61663 0.0
N1160 N 0.88148 0.83146 0.64334 0.0
N1161 N 0.92484 0.93635 0.63849 0.0
H1162 H 0.20771 0.83559 0.78628 0.0
H1163 H 0.10801 0.92027 0.98322 0.0
H1164 H 0.19726 0.80607 0.88056 0.0
H1165 H 0.09659 0.92242 0.88517 0.0
H1166 H 0.14205 0.88528 0.94925 0.0
H1167 H 0.17299 0.86969 0.82022 0.0
C1168 C 0.19868 0.83563 0.81406 0.0
C1169 C 0.20768 0.81542 0.82821 0.0
C1170 C 0.13246 0.89306 0.93436 0.0
C1171 C 0.16415 0.85925 0.8716 0.0
C1172 C 0.11209 0.91403 0.95461 0.0
C1173 C 0.09695 0.92657 0.93935 0.0
C1174 C 0.14056 0.88281 0.8961 0.0
C1175 C 0.10587 0.91509 0.90077 0.0
C1176 C 0.17789 0.85606 0.83428 0.0
C1177 C 0.19282 0.81946 0.86581 0.0
N1178 N 0.12595 0.89543 0.88203 0.0
N1179 N 0.17335 0.83987 0.88472 0.0
H1180 H 0.93244 0.37261 0.53355 0.0
H1181 H 0.85877 0.34508 0.73059 0.0
H1182 H 0.94992 0.47025 0.62616 0.0
H1183 H 0.84133 0.24828 0.6373 0.0
H1184 H 0.88627 0.39147 0.69291 0.0
H1185 H 0.89235 0.32722 0.57094 0.0
C1186 C 0.92755 0.38452 0.56184 0.0
C1187 C 0.94492 0.42515 0.57699 0.0
C1188 C 0.8764 0.36011 0.68064 0.0
C1189 C 0.89942 0.37321 0.62002 0.0
C1190 C 0.86087 0.33363 0.70209 0.0
C1191 C 0.84825 0.29288 0.68691 0.0
C1192 C 0.8797 0.34575 0.64368 0.0
C1193 C 0.85123 0.27954 0.64998 0.0
C1194 C 0.90465 0.35856 0.58317 0.0
C1195 C 0.93718 0.43909 0.61357 0.0
N1196 N 0.86687 0.30597 0.62957 0.0
N1197 N 0.91534 0.41301 0.634 0.0
H1198 H 0.49032 0.18289 0.45341 0.0
H1199 H 0.39596 0.16205 0.31259 0.0
H1200 H 0.46146 0.08414 0.36252 0.0
H1201 H 0.41431 0.25391 0.40962 0.0
H1202 H 0.42407 0.13608 0.32816 0.0
H1203 H 0.46708 0.21278 0.43517 0.0
C1204 C 0.47918 0.16759 0.42957 0.0
C1205 C 0.47754 0.13085 0.40957 0.0
C1206 C 0.42204 0.162 0.34599 0.0
C1207 C 0.4508 0.16463 0.38873 0.0
C1208 C 0.40583 0.17671 0.3372 0.0
C1209 C 0.40253 0.21001 0.35995 0.0
C1210 C 0.4351 0.18075 0.37773 0.0
C1211 C 0.4165 0.22836 0.39112 0.0
C1212 C 0.46582 0.18455 0.41926 0.0
C1213 C 0.46266 0.11214 0.37906 0.0
N1214 N 0.43208 0.21338 0.39916 0.0
N1215 N 0.44982 0.12922 0.3696 0.0
H1216 H 0.58087 0.54651 0.11701 0.0
H1217 H 0.72843 0.76458 0.17881 0.0
H1218 H 0.61066 0.64213 0.0721 0.0
H1219 H 0.69028 0.6679 0.22603 0.0
H1220 H 0.68652 0.72148 0.13896 0.0
H1221 H 0.62117 0.59185 0.15722 0.0
C1222 C 0.59584 0.57718 0.11572 0.0
C1223 C 0.59237 0.59051 0.09113 0.0
C1224 C 0.68729 0.70988 0.15822 0.0
C1225 C 0.63921 0.6429 0.13706 0.0
C1226 C 0.71116 0.73446 0.18094 0.0
C1227 C 0.71267 0.71996 0.20601 0.0
C1228 C 0.66492 0.67058 0.16062 0.0
C1229 C 0.68995 0.68054 0.20736 0.0
C1230 C 0.61895 0.60314 0.13871 0.0
C1231 C 0.61237 0.63068 0.09084 0.0
N1232 N 0.66717 0.65739 0.18508 0.0
N1233 N 0.63514 0.65543 0.11328 0.0
H1234 H 0.23732 0.25195 0.66302 0.0
H1235 H 0.06917 0.04854 0.62358 0.0
H1236 H 0.18208 0.16993 0.72998 0.0
H1237 H 0.12042 0.13041 0.55677 0.0
H1238 H 0.1103 0.09381 0.66323 0.0
H1239 H 0.19576 0.20823 0.62307 0.0
C1240 C 0.21631 0.22494 0.66944 0.0
C1241 C 0.21286 0.21477 0.70005 0.0
C1242 C 0.11264 0.10205 0.63996 0.0
C1243 C 0.16529 0.16482 0.65476 0.0
C1244 C 0.08909 0.07624 0.61743 0.0
C1245 C 0.0914 0.08595 0.58709 0.0
C1246 C 0.13915 0.13761 0.6318 0.0
C1247 C 0.11758 0.12219 0.58026 0.0
C1248 C 0.19265 0.19999 0.64665 0.0
C1249 C 0.18558 0.17907 0.7068 0.0
N1250 N 0.14066 0.14662 0.60229 0.0
N1251 N 0.16284 0.15555 0.68447 0.0
H1252 H 0.7107 0.3388 0.28689 0.0
H1253 H 0.60764 0.41851 0.48334 0.0
H1254 H 0.69634 0.30375 0.37942 0.0
H1255 H 0.59808 0.4234 0.38555 0.0
H1256 H 0.6418 0.3837 0.4492 0.0
H1257 H 0.67578 0.37257 0.32104 0.0
C1258 C 0.70077 0.33758 0.31435 0.0
C1259 C 0.70877 0.31595 0.32792 0.0
C1260 C 0.6326 0.39206 0.43442 0.0
C1261 C 0.66501 0.35937 0.3716 0.0
C1262 C 0.61216 0.41292 0.45476 0.0
C1263 C 0.59749 0.42612 0.43961 0.0
C1264 C 0.64128 0.38269 0.3962 0.0
C1265 C 0.60696 0.41548 0.40105 0.0
C1266 C 0.67987 0.35779 0.33468 0.0
C1267 C 0.69277 0.31835 0.36513 0.0
N1268 N 0.62713 0.39596 0.38223 0.0
N1269 N 0.67324 0.33866 0.38422 0.0
H1270 H 0.43591 0.86561 0.03105 0.0
H1271 H 0.35704 0.84656 0.23068 0.0
H1272 H 0.45012 0.96623 0.12087 0.0
H1273 H 0.34962 0.74762 0.14086 0.0
H1274 H 0.38512 0.8904 0.19041 0.0
H1275 H 0.39761 0.82187 0.07023 0.0
C1276 C 0.43078 0.87862 0.05902 0.0
C1277 C 0.44685 0.91974 0.07283 0.0
C1278 C 0.37737 0.85912 0.17949 0.0
C1279 C 0.40296 0.86949 0.11795 0.0
C1280 C 0.36149 0.83412 0.20245 0.0
C1281 C 0.35143 0.79353 0.18902 0.0
C1282 C 0.38348 0.84343 0.14287 0.0
C1283 C 0.3574 0.77884 0.15229 0.0
C1284 C 0.40887 0.8535 0.0814 0.0
C1285 C 0.43871 0.93472 0.10919 0.0
N1286 N 0.37319 0.80382 0.13048 0.0
N1287 N 0.41758 0.90955 0.1306 0.0
H1288 H 0.96494 0.58715 0.86299 0.0
H1289 H 0.92022 0.7621 0.90892 0.0
H1290 H 0.99572 0.68962 0.95063 0.0
H1291 H 0.89751 0.66498 0.81583 0.0
H1292 H 0.94919 0.7369 0.92396 0.0
H1293 H 0.93972 0.61516 0.84547 0.0
C1294 C 0.96611 0.61541 0.87868 0.0
C1295 C 0.98224 0.63608 0.90834 0.0
C1296 C 0.93796 0.72118 0.90018 0.0
C1297 C 0.95402 0.66852 0.88825 0.0
C1298 C 0.92162 0.73569 0.89143 0.0
C1299 C 0.90627 0.71546 0.86116 0.0
C1300 C 0.93871 0.68603 0.87866 0.0
C1301 C 0.90845 0.68108 0.83977 0.0
C1302 C 0.95203 0.63155 0.86851 0.0
C1303 C 0.98369 0.67291 0.92742 0.0
N1304 N 0.92423 0.66731 0.84905 0.0
N1305 N 0.96967 0.68797 0.91706 0.0
H1306 H 0.45516 0.39715 0.04261 0.0
H1307 H 0.36394 0.38053 0.24216 0.0
H1308 H 0.45364 0.49504 0.12964 0.0
H1309 H 0.34889 0.27679 0.15595 0.0
H1310 H 0.39854 0.42193 0.20043 0.0
H1311 H 0.41861 0.35216 0.08231 0.0
C1312 C 0.44714 0.4092 0.07002 0.0
C1313 C 0.45749 0.45006 0.08275 0.0
C1314 C 0.38777 0.39016 0.19036 0.0
C1315 C 0.41567 0.39866 0.12838 0.0
C1316 C 0.36794 0.36633 0.21432 0.0
C1317 C 0.35351 0.32495 0.20272 0.0
C1318 C 0.39378 0.37291 0.15408 0.0
C1319 C 0.35952 0.30853 0.16613 0.0
C1320 C 0.4262 0.38345 0.09265 0.0
C1321 C 0.44633 0.46389 0.11853 0.0
N1322 N 0.37936 0.33254 0.14312 0.0
N1323 N 0.42623 0.4384 0.13991 0.0
H1324 H 0.45558 0.60474 0.8901 0.0
H1325 H 0.283 0.60068 0.90475 0.0
H1326 H 0.36575 0.54857 0.96136 0.0
H1327 H 0.36948 0.64547 0.82561 0.0
H1328 H 0.31202 0.5785 0.92374 0.0
H1329 H 0.42382 0.61703 0.86421 0.0
C1330 C 0.42908 0.59445 0.90001 0.0
C1331 C 0.41343 0.57573 0.92817 0.0
C1332 C 0.3246 0.59301 0.9021 0.0
C1333 C 0.37694 0.59045 0.89893 0.0
C1334 C 0.30792 0.60549 0.891 0.0
C1335 C 0.32376 0.6253 0.86356 0.0
C1336 C 0.35756 0.60057 0.88591 0.0
C1337 C 0.35639 0.63112 0.84733 0.0
C1338 C 0.41098 0.60175 0.88533 0.0
C1339 C 0.37907 0.56371 0.94016 0.0
N1340 N 0.37224 0.61908 0.85889 0.0
N1341 N 0.36208 0.57149 0.92566 0.0
H1342 H 0.07504 0.57544 0.59365 0.0
H1343 H 0.24165 0.65028 0.66436 0.0
H1344 H 0.1337 0.51334 0.55012 0.0
H1345 H 0.16035 0.67234 0.7326 0.0
H1346 H 0.20639 0.60717 0.61823 0.0
H1347 H 0.10961 0.61812 0.64045 0.0
C1348 C 0.09522 0.57078 0.59382 0.0
C1349 C 0.10134 0.54059 0.56772 0.0
C1350 C 0.19623 0.62142 0.64328 0.0
C1351 C 0.1415 0.58994 0.62135 0.0
C1352 C 0.2164 0.6462 0.66963 0.0
C1353 C 0.20398 0.66496 0.70256 0.0
C1354 C 0.16347 0.6159 0.64932 0.0
C1355 C 0.17096 0.65836 0.70774 0.0
C1356 C 0.1149 0.59513 0.6207 0.0
C1357 C 0.12796 0.53612 0.56956 0.0
N1358 N 0.15201 0.63474 0.68139 0.0
N1359 N 0.14711 0.5606 0.59563 0.0
H1360 H 0.38513 0.35952 0.71179 0.0
H1361 H 0.44511 0.35276 0.50499 0.0
H1362 H 0.34085 0.25255 0.63198 0.0
H1363 H 0.46469 0.45862 0.58975 0.0
H1364 H 0.41305 0.31309 0.54952 0.0
H1365 H 0.42239 0.39355 0.66551 0.0
C1366 C 0.3834 0.34302 0.68443 0.0
C1367 C 0.3595 0.30324 0.67569 0.0
C1368 C 0.42458 0.34502 0.55815 0.0
C1369 C 0.4021 0.34238 0.62234 0.0
C1370 C 0.44274 0.36756 0.53286 0.0
C1371 C 0.45754 0.40892 0.54379 0.0
C1372 C 0.42176 0.36426 0.59432 0.0
C1373 C 0.45381 0.42679 0.58011 0.0
C1374 C 0.40469 0.36258 0.65796 0.0
C1375 C 0.35881 0.28334 0.63977 0.0
N1376 N 0.43642 0.4044 0.60399 0.0
N1377 N 0.37965 0.30328 0.61424 0.0
H1378 H 0.25198 0.71592 0.13951 0.0
H1379 H 0.0729 0.55812 0.09528 0.0
H1380 H 0.18811 0.62544 0.19751 0.0
H1381 H 0.15644 0.59973 0.01266 0.0
H1382 H 0.11227 0.58671 0.13621 0.0
H1383 H 0.21502 0.67823 0.09502 0.0
C1384 C 0.23027 0.68796 0.14267 0.0
C1385 C 0.22293 0.67369 0.17209 0.0
C1386 C 0.12186 0.5891 0.10899 0.0
C1387 C 0.18039 0.63107 0.12197 0.0
C1388 C 0.09951 0.57281 0.08566 0.0
C1389 C 0.11153 0.5762 0.05048 0.0
C1390 C 0.15629 0.60999 0.09723 0.0
C1391 C 0.14616 0.59638 0.03957 0.0
C1392 C 0.20932 0.66647 0.1173 0.0
C1393 C 0.19461 0.63726 0.17502 0.0
N1394 N 0.16735 0.61296 0.06299 0.0
N1395 N 0.17395 0.6174 0.1505 0.0
H1396 H 0.68666 0.40599 0.73879 0.0
H1397 H 0.63378 0.40472 0.57299 0.0
H1398 H 0.70158 0.33485 0.63381 0.0
H1399 H 0.63284 0.48475 0.67635 0.0
H1400 H 0.65612 0.37593 0.5942 0.0
H1401 H 0.66327 0.4315 0.71599 0.0
C1402 C 0.68452 0.39527 0.71096 0.0
C1403 C 0.69584 0.36807 0.68819 0.0
C1404 C 0.65122 0.39999 0.61205 0.0
C1405 C 0.66973 0.39792 0.6616 0.0
C1406 C 0.63842 0.41635 0.60004 0.0
C1407 C 0.63158 0.44732 0.62291 0.0
C1408 C 0.65699 0.41465 0.64716 0.0
C1409 C 0.63827 0.46145 0.65757 0.0
C1410 C 0.67149 0.41019 0.69784 0.0
C1411 C 0.69323 0.35596 0.65217 0.0
N1412 N 0.65049 0.44492 0.66861 0.0
N1413 N 0.68039 0.371 0.63991 0.0
H1414 H 0.90311 0.66821 0.17916 0.0
H1415 H 0.93156 0.5079 0.02406 0.0
H1416 H 0.91003 0.66066 0.06957 0.0
H1417 H 0.97938 0.55269 0.11496 0.0
H1418 H 0.91485 0.55974 0.04774 0.0
H1419 H 0.9322 0.62923 0.16057 0.0
C1420 C 0.91266 0.66048 0.1512 0.0
C1421 C 0.90331 0.66611 0.12546 0.0
C1422 C 0.92878 0.55794 0.0626 0.0
C1423 C 0.935 0.62099 0.10462 0.0
C1424 C 0.93733 0.52783 0.04971 0.0
C1425 C 0.95779 0.52759 0.06714 0.0
C1426 C 0.94032 0.5868 0.09324 0.0
C1427 C 0.96415 0.55294 0.10059 0.0
C1428 C 0.92872 0.63768 0.14071 0.0
C1429 C 0.91616 0.65569 0.08984 0.0
N1430 N 0.95605 0.58264 0.11244 0.0
N1431 N 0.93051 0.63207 0.08017 0.0
H1432 H 0.88866 0.5747 0.69509 0.0
H1433 H 0.79045 0.63641 0.65355 0.0
H1434 H 0.85858 0.52586 0.5924 0.0
H1435 H 0.78115 0.63294 0.7604 0.0
H1436 H 0.80103 0.57966 0.63117 0.0
H1437 H 0.83672 0.57768 0.72164 0.0
C1438 C 0.8703 0.56281 0.67837 0.0
C1439 C 0.87802 0.55127 0.64154 0.0
C1440 C 0.79554 0.59042 0.65957 0.0
C1441 C 0.81924 0.55583 0.67129 0.0
C1442 C 0.78998 0.62314 0.67224 0.0
C1443 C 0.78695 0.64041 0.70859 0.0
C1444 C 0.79864 0.5759 0.68359 0.0
C1445 C 0.78522 0.62154 0.73194 0.0
C1446 C 0.84053 0.56452 0.69349 0.0
C1447 C 0.85363 0.53625 0.62091 0.0
N1448 N 0.79196 0.59072 0.71898 0.0
N1449 N 0.82555 0.54019 0.63598 0.0
H1450 H 0.45788 0.61506 0.42709 0.0
H1451 H 0.33824 0.56738 0.30102 0.0
H1452 H 0.39853 0.49836 0.36683 0.0
H1453 H 0.38728 0.68306 0.36895 0.0
H1454 H 0.35971 0.54198 0.32653 0.0
H1455 H 0.4315 0.641 0.4083 0.0
C1456 C 0.43912 0.5949 0.41013 0.0
C1457 C 0.43045 0.55455 0.3983 0.0
C1458 C 0.36582 0.57293 0.33602 0.0
C1459 C 0.40033 0.58387 0.37686 0.0
C1460 C 0.3538 0.58749 0.32122 0.0
C1461 C 0.36149 0.62744 0.33258 0.0
C1462 C 0.38586 0.59852 0.36233 0.0
C1463 C 0.38098 0.65206 0.35946 0.0
C1464 C 0.42403 0.60967 0.39955 0.0
C1465 C 0.40574 0.52958 0.37681 0.0
N1466 N 0.3928 0.63723 0.37332 0.0
N1467 N 0.39175 0.54473 0.36656 0.0
H1468 H 0.11912 0.28306 0.88174 0.0
H1469 H 0.14293 0.49882 0.94218 0.0
H1470 H 0.18817 0.38095 0.94993 0.0
H1471 H 0.05074 0.40042 0.90978 0.0
H1472 H 0.16248 0.45296 0.93681 0.0
H1473 H 0.08956 0.32072 0.89343 0.0
C1474 C 0.127 0.31154 0.90067 0.0
C1475 C 0.1577 0.33037 0.91247 0.0
C1476 C 0.13818 0.44129 0.93018 0.0
C1477 C 0.12482 0.37295 0.92542 0.0
C1478 C 0.12774 0.46747 0.93184 0.0
C1479 C 0.09534 0.45277 0.9267 0.0
C1480 C 0.116 0.40061 0.92276 0.0
C1481 C 0.07603 0.41226 0.91385 0.0
C1482 C 0.11058 0.33329 0.90667 0.0
C1483 C 0.16576 0.36613 0.93842 0.0
N1484 N 0.08632 0.38706 0.91317 0.0
N1485 N 0.15036 0.38733 0.94275 0.0
H1486 H 0.27358 0.3611 0.25485 0.0
H1487 H 0.18575 0.4533 0.42696 0.0
H1488 H 0.26621 0.3572 0.36097 0.0
H1489 H 0.16342 0.41022 0.32089 0.0
H1490 H 0.24014 0.45446 0.40214 0.0
H1491 H 0.2611 0.41633 0.27943 0.0
C1492 C 0.26987 0.37236 0.28338 0.0
C1493 C 0.26878 0.35339 0.30622 0.0
C1494 C 0.2238 0.44646 0.38439 0.0
C1495 C 0.25487 0.41617 0.33407 0.0
C1496 C 0.19271 0.44519 0.39845 0.0
C1497 C 0.16982 0.43023 0.37589 0.0
C1498 C 0.23157 0.43257 0.34778 0.0
C1499 C 0.18021 0.42148 0.33923 0.0
C1500 C 0.26338 0.40428 0.29729 0.0
C1501 C 0.26565 0.37013 0.34268 0.0
N1502 N 0.21018 0.42196 0.3263 0.0
N1503 N 0.25772 0.40012 0.35571 0.0
loop_
_geom_bond_atom_site_label_1
_geom_bond_atom_site_label_2
_geom_bond_distance
_geom_bond_site_symmetry_2
_ccdc_geom_bond_type
Pr0 C2 2.880 . S
Pr0 O20 2.562 1_545 S
Pr0 O21 2.490 . S
Pr0 O22 2.695 1_554 S
Pr0 O23 2.512 1_554 S
Pr0 O25 2.437 1_544 S
Pr0 O28 2.436 1_445 S
Pr0 O30 2.438 . S
Pr1 C11 2.857 1_565 S
Pr1 O22 2.436 1_665 S
Pr1 O24 2.451 . S
Pr1 O26 2.562 1_565 S
Pr1 O27 2.490 . S
Pr1 O28 2.695 1_556 S
Pr1 O29 2.512 1_556 S
Pr1 O31 2.437 1_566 S
C2 Pr0 2.880 . S
C2 C3 1.491 1_545 S
C2 O20 1.254 1_545 S
C2 O21 1.225 . S
C3 C2 1.491 1_565 S
C3 C4 1.392 1_565 S
C3 C8 1.356 . S
C4 C3 1.392 1_545 S
C4 C5 1.368 . S
C4 H32 0.929 . S
C5 C4 1.368 . S
C5 C6 1.386 1_545 S
C5 H33 0.929 . S
C6 C5 1.386 1_565 S
C6 C7 1.373 . S
C7 C6 1.373 . S
C7 C8 1.409 . S
C7 H34 0.931 . S
C8 C3 1.356 . S
C8 C7 1.409 . S
C8 H35 0.930 . S
C9 O22 1.270 . S
C9 O23 1.248 . S
C10 O24 1.254 1_455 S
C10 O25 1.278 . S
C11 Pr1 2.857 1_545 S
C11 C12 1.513 . S
C11 O26 1.256 . S
C11 O27 1.201 1_545 S
C12 C11 1.513 . S
C12 C13 1.392 1_545 S
C12 C17 1.356 . S
C13 C12 1.392 1_565 S
C13 C14 1.368 . S
C13 H36 0.929 . S
C14 C13 1.368 . S
C14 C15 1.386 1_565 S
C14 H37 0.929 . S
C15 C14 1.386 1_545 S
C15 C16 1.373 . S
C16 C15 1.373 . S
C16 C17 1.409 . S
C16 H38 0.931 . S
C17 C12 1.356 . S
C17 C16 1.409 . S
C17 H39 0.930 . S
C18 O28 1.270 . S
C18 O29 1.248 . S
C19 O30 1.267 1_655 S
C19 O31 1.278 . S
O20 Pr0 2.562 1_565 S
O20 C2 1.254 1_565 S
O21 Pr0 2.490 . S
O21 C2 1.225 . S
O22 Pr0 2.695 1_556 S
O22 Pr1 2.436 1_445 S
O22 C9 1.270 . S
O23 Pr0 2.512 1_556 S
O23 C9 1.248 . S
O24 Pr1 2.451 . S
O24 C10 1.254 1_655 S
O25 Pr0 2.437 1_566 S
O25 C10 1.278 . S
O26 Pr1 2.562 1_545 S
O26 C11 1.256 . S
O27 Pr1 2.490 . S
O27 C11 1.201 1_565 S
O28 Pr0 2.436 1_665 S
O28 Pr1 2.695 1_554 S
O28 C18 1.270 . S
O29 Pr1 2.512 1_554 S
O29 C18 1.248 . S
O30 Pr0 2.438 . S
O30 C19 1.267 1_455 S
O31 Pr1 2.437 1_544 S
O31 C19 1.278 . S
H32 C4 0.929 . S
H33 C5 0.929 . S
H34 C7 0.931 . S
H35 C8 0.930 . S
H36 C13 0.929 . S
H37 C14 0.929 . S
H38 C16 0.931 . S
H39 C17 0.930 . S
Pr40 C42 2.880 . S
Pr40 O60 2.562 . S
Pr40 O61 2.490 . S
Pr40 O62 2.695 . S
Pr40 O63 2.512 . S
Pr40 O65 2.437 . S
Pr40 O68 2.436 . S
Pr40 O70 2.438 . S
Pr41 C51 2.880 . S
Pr41 O62 2.436 . S
Pr41 O64 2.438 . S
Pr41 O66 2.562 . S
Pr41 O67 2.490 . S
Pr41 O68 2.695 . S
Pr41 O69 2.512 . S
Pr41 O71 2.437 . S
C42 Pr40 2.880 . S
C42 C43 1.491 . S
C42 O60 1.254 . S
C42 O61 1.225 . S
C43 C42 1.491 . S
C43 C44 1.392 . S
C43 C48 1.356 . S
C44 C43 1.392 . S
C44 C45 1.368 . S
C44 H72 0.929 . S
C45 C44 1.368 . S
C45 C46 1.386 . S
C45 H73 0.929 . S
C46 C45 1.386 . S
C46 C47 1.373 . S
C47 C46 1.373 . S
C47 C48 1.409 . S
C47 H74 0.931 . S
C48 C43 1.356 . S
C48 C47 1.409 . S
C48 H75 0.930 . S
C49 O62 1.270 . S
C49 O63 1.248 . S
C50 O64 1.267 . S
C50 O65 1.278 . S
C51 Pr41 2.880 . S
C51 C52 1.491 . S
C51 O66 1.254 . S
C51 O67 1.225 . S
C52 C51 1.491 . S
C52 C53 1.392 . S
C52 C57 1.356 . S
C53 C52 1.392 . S
C53 C54 1.368 . S
C53 H76 0.929 . S
C54 C53 1.368 . S
C54 C55 1.386 . S
C54 H77 0.929 . S
C55 C54 1.386 . S
C55 C56 1.373 . S
C56 C55 1.373 . S
C56 C57 1.409 . S
C56 H78 0.931 . S
C57 C52 1.356 . S
C57 C56 1.409 . S
C57 H79 0.930 . S
C58 O68 1.270 . S
C58 O69 1.248 . S
C59 O70 1.267 . S
C59 O71 1.278 . S
O60 Pr40 2.562 . S
O60 C42 1.254 . S
O61 Pr40 2.490 . S
O61 C42 1.225 . S
O62 Pr40 2.695 . S
O62 Pr41 2.436 . S
O62 C49 1.270 . S
O63 Pr40 2.512 . S
O63 C49 1.248 . S
O64 Pr41 2.438 . S
O64 C50 1.267 . S
O65 Pr40 2.437 . S
O65 C50 1.278 . S
O66 Pr41 2.562 . S
O66 C51 1.254 . S
O67 Pr41 2.490 . S
O67 C51 1.225 . S
O68 Pr40 2.436 . S
O68 Pr41 2.695 . S
O68 C58 1.270 . S
O69 Pr41 2.512 . S
O69 C58 1.248 . S
O70 Pr40 2.438 . S
O70 C59 1.267 . S
O71 Pr41 2.437 . S
O71 C59 1.278 . S
H72 C44 0.929 . S
H73 C45 0.929 . S
H74 C47 0.931 . S
H75 C48 0.930 . S
H76 C53 0.929 . S
H77 C54 0.929 . S
H78 C56 0.931 . S
H79 C57 0.930 . S
Pr80 C82 2.880 . S
Pr80 O100 2.562 . S
Pr80 O101 2.490 . S
Pr80 O102 2.695 . S
Pr80 O103 2.512 . S
Pr80 O105 2.437 . S
Pr80 O108 2.436 1_545 S
Pr80 O110 2.438 . S
Pr81 C91 2.880 . S
Pr81 O102 2.436 1_565 S
Pr81 O104 2.409 1_565 S
Pr81 O106 2.562 . S
Pr81 O107 2.490 . S
Pr81 O108 2.695 . S
Pr81 O109 2.512 . S
Pr81 O111 2.437 . S
C82 Pr80 2.880 . S
C82 C83 1.491 . S
C82 O100 1.254 . S
C82 O101 1.225 . S
C83 C82 1.491 . S
C83 C84 1.392 . S
C83 C88 1.356 . S
C84 C83 1.392 . S
C84 C85 1.368 . S
C84 H112 0.929 . S
C85 C84 1.368 . S
C85 C86 1.386 . S
C85 H113 0.929 . S
C86 C85 1.386 . S
C86 C87 1.373 . S
C87 C86 1.373 . S
C87 C88 1.409 . S
C87 H114 0.931 . S
C88 C83 1.356 . S
C88 C87 1.409 . S
C88 H115 0.930 . S
C89 O102 1.270 . S
C89 O103 1.248 . S
C90 O104 1.298 . S
C90 O105 1.278 . S
C91 Pr81 2.880 . S
C91 C92 1.491 . S
C91 O106 1.254 . S
C91 O107 1.225 . S
C92 C91 1.491 . S
C92 C93 1.392 . S
C92 C97 1.356 . S
C93 C92 1.392 . S
C93 C94 1.368 . S
C93 H116 0.929 . S
C94 C93 1.368 . S
C94 C95 1.386 . S
C94 H117 0.929 . S
C95 C94 1.386 . S
C95 C96 1.373 . S
C96 C95 1.373 . S
C96 C97 1.409 . S
C96 H118 0.931 . S
C97 C92 1.356 . S
C97 C96 1.409 . S
C97 H119 0.930 . S
C98 O108 1.270 . S
C98 O109 1.248 . S
C99 O110 1.267 1_565 S
C99 O111 1.278 . S
O100 Pr80 2.562 . S
O100 C82 1.254 . S
O101 Pr80 2.490 . S
O101 C82 1.225 . S
O102 Pr80 2.695 . S
O102 Pr81 2.436 1_545 S
O102 C89 1.270 . S
O103 Pr80 2.512 . S
O103 C89 1.248 . S
O104 Pr81 2.409 1_545 S
O104 C90 1.298 . S
O105 Pr80 2.437 . S
O105 C90 1.278 . S
O106 Pr81 2.562 . S
O106 C91 1.254 . S
O107 Pr81 2.490 . S
O107 C91 1.225 . S
O108 Pr80 2.436 1_565 S
O108 Pr81 2.695 . S
O108 C98 1.270 . S
O109 Pr81 2.512 . S
O109 C98 1.248 . S
O110 Pr80 2.438 . S
O110 C99 1.267 1_545 S
O111 Pr81 2.437 . S
O111 C99 1.278 . S
H112 C84 0.929 . S
H113 C85 0.929 . S
H114 C87 0.931 . S
H115 C88 0.930 . S
H116 C93 0.929 . S
H117 C94 0.929 . S
H118 C96 0.931 . S
H119 C97 0.930 . S
Pr120 C122 2.880 . S
Pr120 O140 2.562 . S
Pr120 O141 2.490 . S
Pr120 O142 2.695 . S
Pr120 O143 2.512 . S
Pr120 O145 2.437 . S
Pr120 O148 2.436 . S
Pr120 O150 2.438 . S
Pr121 C131 2.880 . S
Pr121 O142 2.436 . S
Pr121 O144 2.438 . S
Pr121 O146 2.562 . S
Pr121 O147 2.490 . S
Pr121 O148 2.695 . S
Pr121 O149 2.512 . S
Pr121 O151 2.437 . S
C122 Pr120 2.880 . S
C122 C123 1.491 . S
C122 O140 1.254 . S
C122 O141 1.225 . S
C123 C122 1.491 . S
C123 C124 1.392 . S
C123 C128 1.356 . S
C124 C123 1.392 . S
C124 C125 1.368 . S
C124 H152 0.929 . S
C125 C124 1.368 . S
C125 C126 1.386 . S
C125 H153 0.929 . S
C126 C125 1.386 . S
C126 C127 1.373 . S
C127 C126 1.373 . S
C127 C128 1.409 . S
C127 H154 0.931 . S
C128 C123 1.356 . S
C128 C127 1.409 . S
C128 H155 0.930 . S
C129 O142 1.270 . S
C129 O143 1.248 . S
C130 O144 1.267 . S
C130 O145 1.278 . S
C131 Pr121 2.880 . S
C131 C132 1.491 . S
C131 O146 1.254 . S
C131 O147 1.225 . S
C132 C131 1.491 . S
C132 C133 1.392 . S
C132 C137 1.356 . S
C133 C132 1.392 . S
C133 C134 1.368 . S
C133 H156 0.929 . S
C134 C133 1.368 . S
C134 C135 1.386 . S
C134 H157 0.929 . S
C135 C134 1.386 . S
C135 C136 1.373 . S
C136 C135 1.373 . S
C136 C137 1.409 . S
C136 H158 0.931 . S
C137 C132 1.356 . S
C137 C136 1.409 . S
C137 H159 0.930 . S
C138 O148 1.270 . S
C138 O149 1.248 . S
C139 O150 1.267 . S
C139 O151 1.278 . S
O140 Pr120 2.562 . S
O140 C122 1.254 . S
O141 Pr120 2.490 . S
O141 C122 1.225 . S
O142 Pr120 2.695 . S
O142 Pr121 2.436 . S
O142 C129 1.270 . S
O143 Pr120 2.512 . S
O143 C129 1.248 . S
O144 Pr121 2.438 . S
O144 C130 1.267 . S
O145 Pr120 2.437 . S
O145 C130 1.278 . S
O146 Pr121 2.562 . S
O146 C131 1.254 . S
O147 Pr121 2.490 . S
O147 C131 1.225 . S
O148 Pr120 2.436 . S
O148 Pr121 2.695 . S
O148 C138 1.270 . S
O149 Pr121 2.512 . S
O149 C138 1.248 . S
O150 Pr120 2.438 . S
O150 C139 1.267 . S
O151 Pr121 2.437 . S
O151 C139 1.278 . S
H152 C124 0.929 . S
H153 C125 0.929 . S
H154 C127 0.931 . S
H155 C128 0.930 . S
H156 C133 0.929 . S
H157 C134 0.929 . S
H158 C136 0.931 . S
H159 C137 0.930 . S
Pr160 C162 2.880 . S
Pr160 O180 2.562 . S
Pr160 O181 2.490 . S
Pr160 O182 2.695 1_545 S
Pr160 O183 2.512 1_545 S
Pr160 O185 2.437 1_545 S
Pr160 O188 2.436 1_655 S
Pr160 O190 2.438 1_655 S
Pr161 C171 2.880 . S
Pr161 O182 2.436 1_455 S
Pr161 O184 2.438 1_455 S
Pr161 O186 2.562 . S
Pr161 O187 2.490 . S
Pr161 O188 2.695 1_565 S
Pr161 O189 2.512 1_565 S
Pr161 O191 2.437 1_565 S
C162 Pr160 2.880 . S
C162 C163 1.491 . S
C162 O180 1.254 . S
C162 O181 1.225 . S
C163 C162 1.491 . S
C163 C164 1.392 . S
C163 C168 1.356 . S
C164 C163 1.392 . S
C164 C165 1.368 . S
C164 H192 0.929 . S
C165 C164 1.368 . S
C165 C166 1.386 . S
C165 H193 0.929 . S
C166 C165 1.386 . S
C166 C167 1.373 . S
C167 C166 1.373 . S
C167 C168 1.409 . S
C167 H194 0.931 . S
C168 C163 1.356 . S
C168 C167 1.409 . S
C168 H195 0.930 . S
C169 O182 1.270 . S
C169 O183 1.248 . S
C170 O184 1.267 . S
C170 O185 1.278 . S
C171 Pr161 2.880 . S
C171 C172 1.491 . S
C171 O186 1.254 . S
C171 O187 1.225 . S
C172 C171 1.491 . S
C172 C173 1.392 . S
C172 C177 1.356 . S
C173 C172 1.392 . S
C173 C174 1.368 . S
C173 H196 0.929 . S
C174 C173 1.368 . S
C174 C175 1.386 . S
C174 H197 0.929 . S
C175 C174 1.386 . S
C175 C176 1.373 . S
C176 C175 1.373 . S
C176 C177 1.409 . S
C176 H198 0.931 . S
C177 C172 1.356 . S
C177 C176 1.409 . S
C177 H199 0.930 . S
C178 O188 1.270 . S
C178 O189 1.248 . S
C179 O190 1.267 . S
C179 O191 1.278 . S
O180 Pr160 2.562 . S
O180 C162 1.254 . S
O181 Pr160 2.490 . S
O181 C162 1.225 . S
O182 Pr160 2.695 1_565 S
O182 Pr161 2.436 1_655 S
O182 C169 1.270 . S
O183 Pr160 2.512 1_565 S
O183 C169 1.248 . S
O184 Pr161 2.438 1_655 S
O184 C170 1.267 . S
O185 Pr160 2.437 1_565 S
O185 C170 1.278 . S
O186 Pr161 2.562 . S
O186 C171 1.254 . S
O187 Pr161 2.490 . S
O187 C171 1.225 . S
O188 Pr160 2.436 1_455 S
O188 Pr161 2.695 1_545 S
O188 C178 1.270 . S
O189 Pr161 2.512 1_545 S
O189 C178 1.248 . S
O190 Pr160 2.438 1_455 S
O190 C179 1.267 . S
O191 Pr161 2.437 1_545 S
O191 C179 1.278 . S
H192 C164 0.929 . S
H193 C165 0.929 . S
H194 C167 0.931 . S
H195 C168 0.930 . S
H196 C173 0.929 . S
H197 C174 0.929 . S
H198 C176 0.931 . S
H199 C177 0.930 . S
Pr200 C202 2.880 . S
Pr200 O220 2.562 . S
Pr200 O221 2.490 . S
Pr200 O222 2.695 . S
Pr200 O223 2.512 . S
Pr200 O225 2.437 . S
Pr200 O228 2.436 . S
Pr200 O230 2.438 . S
Pr201 C211 2.880 . S
Pr201 O222 2.436 . S
Pr201 O224 2.438 . S
Pr201 O226 2.562 . S
Pr201 O227 2.490 . S
Pr201 O228 2.695 . S
Pr201 O229 2.512 . S
Pr201 O231 2.437 . S
C202 Pr200 2.880 . S
C202 C203 1.491 . S
C202 O220 1.254 . S
C202 O221 1.225 . S
C203 C202 1.491 . S
C203 C204 1.392 . S
C203 C208 1.356 . S
C204 C203 1.392 . S
C204 C205 1.368 . S
C204 H232 0.929 . S
C205 C204 1.368 . S
C205 C206 1.386 . S
C205 H233 0.929 . S
C206 C205 1.386 . S
C206 C207 1.373 . S
C207 C206 1.373 . S
C207 C208 1.409 . S
C207 H234 0.931 . S
C208 C203 1.356 . S
C208 C207 1.409 . S
C208 H235 0.930 . S
C209 O222 1.270 . S
C209 O223 1.248 . S
C210 O224 1.267 . S
C210 O225 1.278 . S
C211 Pr201 2.880 . S
C211 C212 1.491 . S
C211 O226 1.254 . S
C211 O227 1.225 . S
C212 C211 1.491 . S
C212 C213 1.392 . S
C212 C217 1.356 . S
C213 C212 1.392 . S
C213 C214 1.368 . S
C213 H236 0.929 . S
C214 C213 1.368 . S
C214 C215 1.386 . S
C214 H237 0.929 . S
C215 C214 1.386 . S
C215 C216 1.373 . S
C216 C215 1.373 . S
C216 C217 1.409 . S
C216 H238 0.931 . S
C217 C212 1.356 . S
C217 C216 1.409 . S
C217 H239 0.930 . S
C218 O228 1.270 . S
C218 O229 1.248 . S
C219 O230 1.267 . S
C219 O231 1.278 . S
O220 Pr200 2.562 . S
O220 C202 1.254 . S
O221 Pr200 2.490 . S
O221 C202 1.225 . S
O222 Pr200 2.695 . S
O222 Pr201 2.436 . S
O222 C209 1.270 . S
O223 Pr200 2.512 . S
O223 C209 1.248 . S
O224 Pr201 2.438 . S
O224 C210 1.267 . S
O225 Pr200 2.437 . S
O225 C210 1.278 . S
O226 Pr201 2.562 . S
O226 C211 1.254 . S
O227 Pr201 2.490 . S
O227 C211 1.225 . S
O228 Pr200 2.436 . S
O228 Pr201 2.695 . S
O228 C218 1.270 . S
O229 Pr201 2.512 . S
O229 C218 1.248 . S
O230 Pr200 2.438 . S
O230 C219 1.267 . S
O231 Pr201 2.437 . S
O231 C219 1.278 . S
H232 C204 0.929 . S
H233 C205 0.929 . S
H234 C207 0.931 . S
H235 C208 0.930 . S
H236 C213 0.929 . S
H237 C214 0.929 . S
H238 C216 0.931 . S
H239 C217 0.930 . S
Pr240 C242 2.880 . S
Pr240 O260 2.562 . S
Pr240 O261 2.490 . S
Pr240 O262 2.695 1_566 S
Pr240 O263 2.512 1_566 S
Pr240 O265 2.437 1_565 S
Pr240 O268 2.436 . S
Pr240 O270 2.438 1_556 S
Pr241 C251 2.880 . S
Pr241 O262 2.436 . S
Pr241 O264 2.438 1_554 S
Pr241 O266 2.562 . S
Pr241 O267 2.490 . S
Pr241 O268 2.695 1_544 S
Pr241 O269 2.512 1_544 S
Pr241 O271 2.437 1_545 S
C242 Pr240 2.880 . S
C242 C243 1.491 . S
C242 O260 1.254 . S
C242 O261 1.225 . S
C243 C242 1.491 . S
C243 C244 1.392 . S
C243 C248 1.356 . S
C244 C243 1.392 . S
C244 C245 1.368 . S
C244 H272 0.929 . S
C245 C244 1.368 . S
C245 C246 1.386 . S
C245 H273 0.929 . S
C246 C245 1.386 . S
C246 C247 1.373 . S
C247 C246 1.373 . S
C247 C248 1.409 . S
C247 H274 0.931 . S
C248 C243 1.356 . S
C248 C247 1.409 . S
C248 H275 0.930 . S
C249 O262 1.270 . S
C249 O263 1.248 . S
C250 O264 1.267 . S
C250 O265 1.278 . S
C251 Pr241 2.880 . S
C251 C252 1.491 . S
C251 O266 1.254 . S
C251 O267 1.225 . S
C252 C251 1.491 . S
C252 C253 1.392 . S
C252 C257 1.356 . S
C253 C252 1.392 . S
C253 C254 1.368 . S
C253 H276 0.929 . S
C254 C253 1.368 . S
C254 C255 1.386 . S
C254 H277 0.929 . S
C255 C254 1.386 . S
C255 C256 1.373 . S
C256 C255 1.373 . S
C256 C257 1.409 . S
C256 H278 0.931 . S
C257 C252 1.356 . S
C257 C256 1.409 . S
C257 H279 0.930 . S
C258 O268 1.270 . S
C258 O269 1.248 . S
C259 O270 1.267 . S
C259 O271 1.278 . S
O260 Pr240 2.562 . S
O260 C242 1.254 . S
O261 Pr240 2.490 . S
O261 C242 1.225 . S
O262 Pr240 2.695 1_544 S
O262 Pr241 2.436 . S
O262 C249 1.270 . S
O263 Pr240 2.512 1_544 S
O263 C249 1.248 . S
O264 Pr241 2.438 1_556 S
O264 C250 1.267 . S
O265 Pr240 2.437 1_545 S
O265 C250 1.278 . S
O266 Pr241 2.562 . S
O266 C251 1.254 . S
O267 Pr241 2.490 . S
O267 C251 1.225 . S
O268 Pr240 2.436 . S
O268 Pr241 2.695 1_566 S
O268 C258 1.270 . S
O269 Pr241 2.512 1_566 S
O269 C258 1.248 . S
O270 Pr240 2.438 1_554 S
O270 C259 1.267 . S
O271 Pr241 2.437 1_565 S
O271 C259 1.278 . S
H272 C244 0.929 . S
H273 C245 0.929 . S
H274 C247 0.931 . S
H275 C248 0.930 . S
H276 C253 0.929 . S
H277 C254 0.929 . S
H278 C256 0.931 . S
H279 C257 0.930 . S
Pr280 C282 2.880 . S
Pr280 O300 2.562 . S
Pr280 O301 2.490 . S
Pr280 O302 2.695 . S
Pr280 O303 2.512 . S
Pr280 O305 2.437 . S
Pr280 O308 2.436 . S
Pr280 O310 2.438 . S
Pr281 C291 2.880 . S
Pr281 O302 2.436 . S
Pr281 O304 2.438 . S
Pr281 O306 2.562 . S
Pr281 O307 2.490 . S
Pr281 O308 2.695 . S
Pr281 O309 2.512 . S
Pr281 O311 2.437 . S
C282 Pr280 2.880 . S
C282 C283 1.491 . S
C282 O300 1.254 . S
C282 O301 1.225 . S
C283 C282 1.491 . S
C283 C284 1.392 . S
C283 C288 1.356 . S
C284 C283 1.392 . S
C284 C285 1.368 . S
C284 H312 0.929 . S
C285 C284 1.368 . S
C285 C286 1.386 . S
C285 H313 0.929 . S
C286 C285 1.386 . S
C286 C287 1.373 . S
C287 C286 1.373 . S
C287 C288 1.409 . S
C287 H314 0.931 . S
C288 C283 1.356 . S
C288 C287 1.409 . S
C288 H315 0.930 . S
C289 O302 1.270 . S
C289 O303 1.248 . S
C290 O304 1.267 . S
C290 O305 1.278 . S
C291 Pr281 2.880 . S
C291 C292 1.491 . S
C291 O306 1.254 . S
C291 O307 1.225 . S
C292 C291 1.491 . S
C292 C293 1.392 . S
C292 C297 1.356 . S
C293 C292 1.392 . S
C293 C294 1.368 . S
C293 H316 0.929 . S
C294 C293 1.368 . S
C294 C295 1.386 . S
C294 H317 0.929 . S
C295 C294 1.386 . S
C295 C296 1.373 . S
C296 C295 1.373 . S
C296 C297 1.409 . S
C296 H318 0.931 . S
C297 C292 1.356 . S
C297 C296 1.409 . S
C297 H319 0.930 . S
C298 O308 1.270 . S
C298 O309 1.248 . S
C299 O310 1.267 . S
C299 O311 1.278 . S
O300 Pr280 2.562 . S
O300 C282 1.254 . S
O301 Pr280 2.490 . S
O301 C282 1.225 . S
O302 Pr280 2.695 . S
O302 Pr281 2.436 . S
O302 C289 1.270 . S
O303 Pr280 2.512 . S
O303 C289 1.248 . S
O304 Pr281 2.438 . S
O304 C290 1.267 . S
O305 Pr280 2.437 . S
O305 C290 1.278 . S
O306 Pr281 2.562 . S
O306 C291 1.254 . S
O307 Pr281 2.490 . S
O307 C291 1.225 . S
O308 Pr280 2.436 . S
O308 Pr281 2.695 . S
O308 C298 1.270 . S
O309 Pr281 2.512 . S
O309 C298 1.248 . S
O310 Pr280 2.438 . S
O310 C299 1.267 . S
O311 Pr281 2.437 . S
O311 C299 1.278 . S
H312 C284 0.929 . S
H313 C285 0.929 . S
H314 C287 0.931 . S
H315 C288 0.930 . S
H316 C293 0.929 . S
H317 C294 0.929 . S
H318 C296 0.931 . S
H319 C297 0.930 . S
Pr320 C322 2.880 1_554 S
Pr320 O340 2.562 1_554 S
Pr320 O341 2.490 . S
Pr320 O342 2.695 . S
Pr320 O343 2.512 . S
Pr320 O345 2.437 1_554 S
Pr320 O348 2.436 1_554 S
Pr320 O350 2.438 . S
Pr321 C331 2.880 1_556 S
Pr321 O342 2.436 1_556 S
Pr321 O344 2.438 . S
Pr321 O346 2.562 1_556 S
Pr321 O347 2.490 . S
Pr321 O348 2.695 . S
Pr321 O349 2.512 . S
Pr321 O351 2.437 1_556 S
C322 Pr320 2.880 1_556 S
C322 C323 1.491 . S
C322 O340 1.254 . S
C322 O341 1.225 1_556 S
C323 C322 1.491 . S
C323 C324 1.392 . S
C323 C328 1.356 . S
C324 C323 1.392 . S
C324 C325 1.368 . S
C324 H352 0.929 1_556 S
C325 C324 1.368 . S
C325 C326 1.386 . S
C325 H353 0.929 . S
C326 C325 1.386 . S
C326 C327 1.373 . S
C327 C326 1.373 . S
C327 C328 1.409 . S
C327 H354 0.931 . S
C328 C323 1.356 . S
C328 C327 1.409 . S
C328 H355 0.930 . S
C329 O342 1.270 . S
C329 O343 1.248 . S
C330 O344 1.267 . S
C330 O345 1.278 . S
C331 Pr321 2.880 1_554 S
C331 C332 1.491 . S
C331 O346 1.254 . S
C331 O347 1.225 1_554 S
C332 C331 1.491 . S
C332 C333 1.392 . S
C332 C337 1.356 . S
C333 C332 1.392 . S
C333 C334 1.368 . S
C333 H356 0.929 1_554 S
C334 C333 1.368 . S
C334 C335 1.386 . S
C334 H357 0.929 . S
C335 C334 1.386 . S
C335 C336 1.373 . S
C336 C335 1.373 . S
C336 C337 1.409 . S
C336 H358 0.931 . S
C337 C332 1.356 . S
C337 C336 1.409 . S
C337 H359 0.930 . S
C338 O348 1.270 . S
C338 O349 1.248 . S
C339 O350 1.267 . S
C339 O351 1.278 . S
O340 Pr320 2.562 1_556 S
O340 C322 1.254 . S
O341 Pr320 2.490 . S
O341 C322 1.225 1_554 S
O342 Pr320 2.695 . S
O342 Pr321 2.436 1_554 S
O342 C329 1.270 . S
O343 Pr320 2.512 . S
O343 C329 1.248 . S
O344 Pr321 2.438 . S
O344 C330 1.267 . S
O345 Pr320 2.437 1_556 S
O345 C330 1.278 . S
O346 Pr321 2.562 1_554 S
O346 C331 1.254 . S
O347 Pr321 2.490 . S
O347 C331 1.225 1_556 S
O348 Pr320 2.436 1_556 S
O348 Pr321 2.695 . S
O348 C338 1.270 . S
O349 Pr321 2.512 . S
O349 C338 1.248 . S
O350 Pr320 2.438 . S
O350 C339 1.267 . S
O351 Pr321 2.437 1_554 S
O351 C339 1.278 . S
H352 C324 0.929 1_554 S
H353 C325 0.929 . S
H354 C327 0.931 . S
H355 C328 0.930 . S
H356 C333 0.929 1_556 S
H357 C334 0.929 . S
H358 C336 0.931 . S
H359 C337 0.930 . S
Pr360 C362 2.880 . S
Pr360 O380 2.562 . S
Pr360 O381 2.490 . S
Pr360 O382 2.695 . S
Pr360 O383 2.512 . S
Pr360 O385 2.437 . S
Pr360 O388 2.436 . S
Pr360 O390 2.438 . S
Pr361 C371 2.880 . S
Pr361 O382 2.436 . S
Pr361 O384 2.438 . S
Pr361 O386 2.562 . S
Pr361 O387 2.490 . S
Pr361 O388 2.695 . S
Pr361 O389 2.512 . S
Pr361 O391 2.437 . S
C362 Pr360 2.880 . S
C362 C363 1.491 . S
C362 O380 1.254 . S
C362 O381 1.225 . S
C363 C362 1.491 . S
C363 C364 1.392 . S
C363 C368 1.356 . S
C364 C363 1.392 . S
C364 C365 1.368 . S
C364 H392 0.929 . S
C365 C364 1.368 . S
C365 C366 1.386 . S
C365 H393 0.929 . S
C366 C365 1.386 . S
C366 C367 1.373 . S
C367 C366 1.373 . S
C367 C368 1.409 . S
C367 H394 0.931 . S
C368 C363 1.356 . S
C368 C367 1.409 . S
C368 H395 0.930 . S
C369 O382 1.270 . S
C369 O383 1.248 . S
C370 O384 1.267 . S
C370 O385 1.278 . S
C371 Pr361 2.880 . S
C371 C372 1.491 . S
C371 O386 1.254 . S
C371 O387 1.225 . S
C372 C371 1.491 . S
C372 C373 1.392 . S
C372 C377 1.356 . S
C373 C372 1.392 . S
C373 C374 1.368 . S
C373 H396 0.929 . S
C374 C373 1.368 . S
C374 C375 1.386 . S
C374 H397 0.929 . S
C375 C374 1.386 . S
C375 C376 1.373 . S
C376 C375 1.373 . S
C376 C377 1.409 . S
C376 H398 0.931 . S
C377 C372 1.356 . S
C377 C376 1.409 . S
C377 H399 0.930 . S
C378 O388 1.270 . S
C378 O389 1.248 . S
C379 O390 1.267 . S
C379 O391 1.278 . S
O380 Pr360 2.562 . S
O380 C362 1.254 . S
O381 Pr360 2.490 . S
O381 C362 1.225 . S
O382 Pr360 2.695 . S
O382 Pr361 2.436 . S
O382 C369 1.270 . S
O383 Pr360 2.512 . S
O383 C369 1.248 . S
O384 Pr361 2.438 . S
O384 C370 1.267 . S
O385 Pr360 2.437 . S
O385 C370 1.278 . S
O386 Pr361 2.562 . S
O386 C371 1.254 . S
O387 Pr361 2.490 . S
O387 C371 1.225 . S
O388 Pr360 2.436 . S
O388 Pr361 2.695 . S
O388 C378 1.270 . S
O389 Pr361 2.512 . S
O389 C378 1.248 . S
O390 Pr360 2.438 . S
O390 C379 1.267 . S
O391 Pr361 2.437 . S
O391 C379 1.278 . S
H392 C364 0.929 . S
H393 C365 0.929 . S
H394 C367 0.931 . S
H395 C368 0.930 . S
H396 C373 0.929 . S
H397 C374 0.929 . S
H398 C376 0.931 . S
H399 C377 0.930 . S
Pr400 C402 2.880 . S
Pr400 O420 2.562 . S
Pr400 O421 2.490 . S
Pr400 O422 2.695 . S
Pr400 O423 2.512 . S
Pr400 O425 2.437 . S
Pr400 O428 2.436 1_455 S
Pr400 O430 2.438 1_455 S
Pr401 C411 2.880 . S
Pr401 O422 2.436 1_655 S
Pr401 O424 2.438 1_655 S
Pr401 O426 2.562 . S
Pr401 O427 2.490 . S
Pr401 O428 2.695 . S
Pr401 O429 2.512 . S
Pr401 O431 2.437 . S
C402 Pr400 2.880 . S
C402 C403 1.491 . S
C402 O420 1.254 . S
C402 O421 1.225 . S
C403 C402 1.491 . S
C403 C404 1.392 . S
C403 C408 1.356 . S
C404 C403 1.392 . S
C404 C405 1.368 . S
C404 H432 0.929 . S
C405 C404 1.368 . S
C405 C406 1.386 . S
C405 H433 0.929 . S
C406 C405 1.386 . S
C406 C407 1.373 . S
C407 C406 1.373 . S
C407 C408 1.409 . S
C407 H434 0.931 . S
C408 C403 1.356 . S
C408 C407 1.409 . S
C408 H435 0.930 . S
C409 O422 1.270 . S
C409 O423 1.248 . S
C410 O424 1.267 . S
C410 O425 1.278 . S
C411 Pr401 2.880 . S
C411 C412 1.491 . S
C411 O426 1.254 . S
C411 O427 1.225 . S
C412 C411 1.491 . S
C412 C413 1.392 . S
C412 C417 1.356 . S
C413 C412 1.392 . S
C413 C414 1.368 . S
C413 H436 0.929 . S
C414 C413 1.368 . S
C414 C415 1.386 . S
C414 H437 0.929 . S
C415 C414 1.386 . S
C415 C416 1.373 . S
C416 C415 1.373 . S
C416 C417 1.409 . S
C416 H438 0.931 . S
C417 C412 1.356 . S
C417 C416 1.409 . S
C417 H439 0.930 . S
C418 O428 1.270 . S
C418 O429 1.248 . S
C419 O430 1.267 . S
C419 O431 1.278 . S
O420 Pr400 2.562 . S
O420 C402 1.254 . S
O421 Pr400 2.490 . S
O421 C402 1.225 . S
O422 Pr400 2.695 . S
O422 Pr401 2.436 1_455 S
O422 C409 1.270 . S
O423 Pr400 2.512 . S
O423 C409 1.248 . S
O424 Pr401 2.438 1_455 S
O424 C410 1.267 . S
O425 Pr400 2.437 . S
O425 C410 1.278 . S
O426 Pr401 2.562 . S
O426 C411 1.254 . S
O427 Pr401 2.490 . S
O427 C411 1.225 . S
O428 Pr400 2.436 1_655 S
O428 Pr401 2.695 . S
O428 C418 1.270 . S
O429 Pr401 2.512 . S
O429 C418 1.248 . S
O430 Pr400 2.438 1_655 S
O430 C419 1.267 . S
O431 Pr401 2.437 . S
O431 C419 1.278 . S
H432 C404 0.929 . S
H433 C405 0.929 . S
H434 C407 0.931 . S
H435 C408 0.930 . S
H436 C413 0.929 . S
H437 C414 0.929 . S
H438 C416 0.931 . S
H439 C417 0.930 . S
Pr440 C442 2.880 . S
Pr440 O460 2.562 . S
Pr440 O461 2.490 . S
Pr440 O462 2.695 . S
Pr440 O463 2.512 . S
Pr440 O465 2.437 . S
Pr440 O468 2.436 . S
Pr440 O470 2.438 . S
Pr441 C451 2.880 . S
Pr441 O462 2.436 . S
Pr441 O464 2.438 . S
Pr441 O466 2.562 . S
Pr441 O467 2.490 . S
Pr441 O468 2.695 . S
Pr441 O469 2.512 . S
Pr441 O471 2.437 . S
C442 Pr440 2.880 . S
C442 C443 1.491 . S
C442 O460 1.254 . S
C442 O461 1.225 . S
C443 C442 1.491 . S
C443 C444 1.392 . S
C443 C448 1.356 . S
C444 C443 1.392 . S
C444 C445 1.368 . S
C444 H472 0.929 . S
C445 C444 1.368 . S
C445 C446 1.386 . S
C445 H473 0.929 . S
C446 C445 1.386 . S
C446 C447 1.373 . S
C447 C446 1.373 . S
C447 C448 1.409 . S
C447 H474 0.931 . S
C448 C443 1.356 . S
C448 C447 1.409 . S
C448 H475 0.930 . S
C449 O462 1.270 . S
C449 O463 1.248 . S
C450 O464 1.267 . S
C450 O465 1.278 . S
C451 Pr441 2.880 . S
C451 C452 1.491 . S
C451 O466 1.254 . S
C451 O467 1.225 . S
C452 C451 1.491 . S
C452 C453 1.392 . S
C452 C457 1.356 . S
C453 C452 1.392 . S
C453 C454 1.368 . S
C453 H476 0.929 . S
C454 C453 1.368 . S
C454 C455 1.386 . S
C454 H477 0.929 . S
C455 C454 1.386 . S
C455 C456 1.373 . S
C456 C455 1.373 . S
C456 C457 1.409 . S
C456 H478 0.931 . S
C457 C452 1.356 . S
C457 C456 1.409 . S
C457 H479 0.930 . S
C458 O468 1.270 . S
C458 O469 1.248 . S
C459 O470 1.267 . S
C459 O471 1.278 . S
O460 Pr440 2.562 . S
O460 C442 1.254 . S
O461 Pr440 2.490 . S
O461 C442 1.225 . S
O462 Pr440 2.695 . S
O462 Pr441 2.436 . S
O462 C449 1.270 . S
O463 Pr440 2.512 . S
O463 C449 1.248 . S
O464 Pr441 2.438 . S
O464 C450 1.267 . S
O465 Pr440 2.437 . S
O465 C450 1.278 . S
O466 Pr441 2.562 . S
O466 C451 1.254 . S
O467 Pr441 2.490 . S
O467 C451 1.225 . S
O468 Pr440 2.436 . S
O468 Pr441 2.695 . S
O468 C458 1.270 . S
O469 Pr441 2.512 . S
O469 C458 1.248 . S
O470 Pr440 2.438 . S
O470 C459 1.267 . S
O471 Pr441 2.437 . S
O471 C459 1.278 . S
H472 C444 0.929 . S
H473 C445 0.929 . S
H474 C447 0.931 . S
H475 C448 0.930 . S
H476 C453 0.929 . S
H477 C454 0.929 . S
H478 C456 0.931 . S
H479 C457 0.930 . S
Pr480 C482 2.880 . S
Pr480 O500 2.562 . S
Pr480 O501 2.490 . S
Pr480 O502 2.695 . S
Pr480 O503 2.512 . S
Pr480 O505 2.437 . S
Pr480 O508 2.436 . S
Pr480 O510 2.438 . S
Pr481 C491 2.880 . S
Pr481 O502 2.436 . S
Pr481 O504 2.438 . S
Pr481 O506 2.562 . S
Pr481 O507 2.490 . S
Pr481 O508 2.695 . S
Pr481 O509 2.512 . S
Pr481 O511 2.437 . S
C482 Pr480 2.880 . S
C482 C483 1.491 . S
C482 O500 1.254 . S
C482 O501 1.225 . S
C483 C482 1.491 . S
C483 C484 1.392 . S
C483 C488 1.356 . S
C484 C483 1.392 . S
C484 C485 1.368 . S
C484 H512 0.929 . S
C485 C484 1.368 . S
C485 C486 1.386 . S
C485 H513 0.929 . S
C486 C485 1.386 . S
C486 C487 1.373 . S
C487 C486 1.373 . S
C487 C488 1.409 . S
C487 H514 0.931 . S
C488 C483 1.356 . S
C488 C487 1.409 . S
C488 H515 0.930 . S
C489 O502 1.270 . S
C489 O503 1.248 . S
C490 O504 1.267 . S
C490 O505 1.278 . S
C491 Pr481 2.880 . S
C491 C492 1.491 . S
C491 O506 1.254 . S
C491 O507 1.225 . S
C492 C491 1.491 . S
C492 C493 1.392 . S
C492 C497 1.356 . S
C493 C492 1.392 . S
C493 C494 1.368 . S
C493 H516 0.929 . S
C494 C493 1.368 . S
C494 C495 1.386 . S
C494 H517 0.929 . S
C495 C494 1.386 . S
C495 C496 1.373 . S
C496 C495 1.373 . S
C496 C497 1.409 . S
C496 H518 0.931 . S
C497 C492 1.356 . S
C497 C496 1.409 . S
C497 H519 0.930 . S
C498 O508 1.270 . S
C498 O509 1.248 . S
C499 O510 1.267 . S
C499 O511 1.278 . S
O500 Pr480 2.562 . S
O500 C482 1.254 . S
O501 Pr480 2.490 . S
O501 C482 1.225 . S
O502 Pr480 2.695 . S
O502 Pr481 2.436 . S
O502 C489 1.270 . S
O503 Pr480 2.512 . S
O503 C489 1.248 . S
O504 Pr481 2.438 . S
O504 C490 1.267 . S
O505 Pr480 2.437 . S
O505 C490 1.278 . S
O506 Pr481 2.562 . S
O506 C491 1.254 . S
O507 Pr481 2.490 . S
O507 C491 1.225 . S
O508 Pr480 2.436 . S
O508 Pr481 2.695 . S
O508 C498 1.270 . S
O509 Pr481 2.512 . S
O509 C498 1.248 . S
O510 Pr480 2.438 . S
O510 C499 1.267 . S
O511 Pr481 2.437 . S
O511 C499 1.278 . S
H512 C484 0.929 . S
H513 C485 0.929 . S
H514 C487 0.931 . S
H515 C488 0.930 . S
H516 C493 0.929 . S
H517 C494 0.929 . S
H518 C496 0.931 . S
H519 C497 0.930 . S
Pr520 C522 2.880 . S
Pr520 O540 2.562 . S
Pr520 O541 2.490 . S
Pr520 O542 2.695 . S
Pr520 O543 2.512 . S
Pr520 O545 2.437 . S
Pr520 O548 2.436 . S
Pr520 O550 2.438 . S
Pr521 C531 2.880 . S
Pr521 O542 2.436 . S
Pr521 O544 2.438 . S
Pr521 O546 2.562 . S
Pr521 O547 2.490 . S
Pr521 O548 2.695 . S
Pr521 O549 2.512 . S
Pr521 O551 2.437 . S
C522 Pr520 2.880 . S
C522 C523 1.491 . S
C522 O540 1.254 . S
C522 O541 1.225 . S
C523 C522 1.491 . S
C523 C524 1.392 . S
C523 C528 1.356 . S
C524 C523 1.392 . S
C524 C525 1.368 . S
C524 H552 0.929 . S
C525 C524 1.368 . S
C525 C526 1.386 . S
C525 H553 0.929 . S
C526 C525 1.386 . S
C526 C527 1.373 . S
C527 C526 1.373 . S
C527 C528 1.409 . S
C527 H554 0.931 . S
C528 C523 1.356 . S
C528 C527 1.409 . S
C528 H555 0.930 . S
C529 O542 1.270 . S
C529 O543 1.248 . S
C530 O544 1.267 . S
C530 O545 1.278 . S
C531 Pr521 2.880 . S
C531 C532 1.491 . S
C531 O546 1.254 . S
C531 O547 1.225 . S
C532 C531 1.491 . S
C532 C533 1.392 . S
C532 C537 1.356 . S
C533 C532 1.392 . S
C533 C534 1.368 . S
C533 H556 0.929 . S
C534 C533 1.368 . S
C534 C535 1.386 . S
C534 H557 0.929 . S
C535 C534 1.386 . S
C535 C536 1.373 . S
C536 C535 1.373 . S
C536 C537 1.409 . S
C536 H558 0.931 . S
C537 C532 1.356 . S
C537 C536 1.409 . S
C537 H559 0.930 . S
C538 O548 1.270 . S
C538 O549 1.248 . S
C539 O550 1.267 . S
C539 O551 1.278 . S
O540 Pr520 2.562 . S
O540 C522 1.254 . S
O541 Pr520 2.490 . S
O541 C522 1.225 . S
O542 Pr520 2.695 . S
O542 Pr521 2.436 . S
O542 C529 1.270 . S
O543 Pr520 2.512 . S
O543 C529 1.248 . S
O544 Pr521 2.438 . S
O544 C530 1.267 . S
O545 Pr520 2.437 . S
O545 C530 1.278 . S
O546 Pr521 2.562 . S
O546 C531 1.254 . S
O547 Pr521 2.490 . S
O547 C531 1.225 . S
O548 Pr520 2.436 . S
O548 Pr521 2.695 . S
O548 C538 1.270 . S
O549 Pr521 2.512 . S
O549 C538 1.248 . S
O550 Pr520 2.438 . S
O550 C539 1.267 . S
O551 Pr521 2.437 . S
O551 C539 1.278 . S
H552 C524 0.929 . S
H553 C525 0.929 . S
H554 C527 0.931 . S
H555 C528 0.930 . S
H556 C533 0.929 . S
H557 C534 0.929 . S
H558 C536 0.931 . S
H559 C537 0.930 . S
Pr560 C562 2.880 . S
Pr560 O580 2.562 . S
Pr560 O581 2.490 . S
Pr560 O582 2.695 . S
Pr560 O583 2.512 . S
Pr560 O585 2.437 . S
Pr560 O588 2.436 . S
Pr560 O590 2.438 . S
Pr561 C571 2.880 . S
Pr561 O582 2.436 . S
Pr561 O584 2.438 . S
Pr561 O586 2.562 . S
Pr561 O587 2.490 . S
Pr561 O588 2.695 . S
Pr561 O589 2.512 . S
Pr561 O591 2.437 . S
C562 Pr560 2.880 . S
C562 C563 1.491 . S
C562 O580 1.254 . S
C562 O581 1.225 . S
C563 C562 1.491 . S
C563 C564 1.392 . S
C563 C568 1.356 . S
C564 C563 1.392 . S
C564 C565 1.368 . S
C564 H592 0.929 . S
C565 C564 1.368 . S
C565 C566 1.386 . S
C565 H593 0.929 . S
C566 C565 1.386 . S
C566 C567 1.373 . S
C567 C566 1.373 . S
C567 C568 1.409 . S
C567 H594 0.931 . S
C568 C563 1.356 . S
C568 C567 1.409 . S
C568 H595 0.930 . S
C569 O582 1.270 . S
C569 O583 1.248 . S
C570 O584 1.267 . S
C570 O585 1.278 . S
C571 Pr561 2.880 . S
C571 C572 1.491 . S
C571 O586 1.254 . S
C571 O587 1.225 . S
C572 C571 1.491 . S
C572 C573 1.392 . S
C572 C577 1.356 . S
C573 C572 1.392 . S
C573 C574 1.368 . S
C573 H596 0.929 . S
C574 C573 1.368 . S
C574 C575 1.386 . S
C574 H597 0.929 . S
C575 C574 1.386 . S
C575 C576 1.373 . S
C576 C575 1.373 . S
C576 C577 1.409 . S
C576 H598 0.931 . S
C577 C572 1.356 . S
C577 C576 1.409 . S
C577 H599 0.930 . S
C578 O588 1.270 . S
C578 O589 1.248 . S
C579 O590 1.267 . S
C579 O591 1.278 . S
O580 Pr560 2.562 . S
O580 C562 1.254 . S
O581 Pr560 2.490 . S
O581 C562 1.225 . S
O582 Pr560 2.695 . S
O582 Pr561 2.436 . S
O582 C569 1.270 . S
O583 Pr560 2.512 . S
O583 C569 1.248 . S
O584 Pr561 2.438 . S
O584 C570 1.267 . S
O585 Pr560 2.437 . S
O585 C570 1.278 . S
O586 Pr561 2.562 . S
O586 C571 1.254 . S
O587 Pr561 2.490 . S
O587 C571 1.225 . S
O588 Pr560 2.436 . S
O588 Pr561 2.695 . S
O588 C578 1.270 . S
O589 Pr561 2.512 . S
O589 C578 1.248 . S
O590 Pr560 2.438 . S
O590 C579 1.267 . S
O591 Pr561 2.437 . S
O591 C579 1.278 . S
H592 C564 0.929 . S
H593 C565 0.929 . S
H594 C567 0.931 . S
H595 C568 0.930 . S
H596 C573 0.929 . S
H597 C574 0.929 . S
H598 C576 0.931 . S
H599 C577 0.930 . S
Pr600 C602 2.883 1_455 S
Pr600 O620 2.562 1_455 S
Pr600 O621 2.490 . S
Pr600 O622 2.695 1_556 S
Pr600 O623 2.512 1_556 S
Pr600 O625 2.437 1_456 S
Pr600 O628 2.436 1_455 S
Pr600 O630 2.438 . S
Pr601 C611 2.880 1_655 S
Pr601 O622 2.436 1_655 S
Pr601 O624 2.438 . S
Pr601 O626 2.562 1_655 S
Pr601 O627 2.490 . S
Pr601 O628 2.695 1_554 S
Pr601 O629 2.512 1_554 S
Pr601 O631 2.437 1_654 S
C602 Pr600 2.883 1_655 S
C602 C603 1.489 . S
C602 O620 1.253 . S
C602 O621 1.228 1_655 S
C603 C602 1.489 . S
C603 C604 1.392 1_655 S
C603 C608 1.356 . S
C604 C603 1.392 1_455 S
C604 C605 1.368 . S
C604 H632 0.929 . S
C605 C604 1.368 . S
C605 C606 1.386 1_455 S
C605 H633 0.929 . S
C606 C605 1.386 1_655 S
C606 C607 1.373 . S
C607 C606 1.373 . S
C607 C608 1.409 . S
C607 H634 0.931 . S
C608 C603 1.356 . S
C608 C607 1.409 . S
C608 H635 0.930 . S
C609 O622 1.270 . S
C609 O623 1.248 . S
C610 O624 1.267 . S
C610 O625 1.278 . S
C611 Pr601 2.880 1_455 S
C611 C612 1.491 . S
C611 O626 1.254 . S
C611 O627 1.225 1_455 S
C612 C611 1.491 . S
C612 C613 1.392 1_455 S
C612 C617 1.356 . S
C613 C612 1.392 1_655 S
C613 C614 1.368 . S
C613 H636 0.929 . S
C614 C613 1.368 . S
C614 C615 1.386 1_655 S
C614 H637 0.929 . S
C615 C614 1.386 1_455 S
C615 C616 1.373 . S
C616 C615 1.373 . S
C616 C617 1.409 . S
C616 H638 0.931 . S
C617 C612 1.356 . S
C617 C616 1.409 . S
C617 H639 0.930 . S
C618 O628 1.270 . S
C618 O629 1.248 . S
C619 O630 1.267 . S
C619 O631 1.278 . S
O620 Pr600 2.562 1_655 S
O620 C602 1.253 . S
O621 Pr600 2.490 . S
O621 C602 1.228 1_455 S
O622 Pr600 2.695 1_554 S
O622 Pr601 2.436 1_455 S
O622 C609 1.270 . S
O623 Pr600 2.512 1_554 S
O623 C609 1.248 . S
O624 Pr601 2.438 . S
O624 C610 1.267 . S
O625 Pr600 2.437 1_654 S
O625 C610 1.278 . S
O626 Pr601 2.562 1_455 S
O626 C611 1.254 . S
O627 Pr601 2.490 . S
O627 C611 1.225 1_655 S
O628 Pr600 2.436 1_655 S
O628 Pr601 2.695 1_556 S
O628 C618 1.270 . S
O629 Pr601 2.512 1_556 S
O629 C618 1.248 . S
O630 Pr600 2.438 . S
O630 C619 1.267 . S
O631 Pr601 2.437 1_456 S
O631 C619 1.278 . S
H632 C604 0.929 . S
H633 C605 0.929 . S
H634 C607 0.931 . S
H635 C608 0.930 . S
H636 C613 0.929 . S
H637 C614 0.929 . S
H638 C616 0.931 . S
H639 C617 0.930 . S
H640 C646 0.930 . S
H641 C650 0.930 . S
H642 C655 0.929 . S
H643 C653 0.929 . S
H644 C648 0.929 . S
H645 C654 0.929 . S
C646 H640 0.930 . S
C646 C647 1.367 . S
C646 C654 1.378 . S
C647 C646 1.367 . S
C647 C655 1.433 . S
C648 H644 0.929 . S
C648 C650 1.378 . S
C648 C652 1.350 . S
C649 C652 1.463 . S
C649 C654 1.350 . S
C649 N657 1.427 . S
C650 H641 0.930 . S
C650 C648 1.378 . S
C650 C651 1.367 . S
C651 C650 1.367 . S
C651 C653 1.433 . S
C652 C648 1.350 . S
C652 C649 1.463 . S
C652 N656 1.427 . S
C653 H643 0.929 . S
C653 C651 1.433 . S
C653 N656 1.384 . S
C654 H645 0.929 . S
C654 C646 1.378 . S
C654 C649 1.350 . S
C655 H642 0.929 . S
C655 C647 1.433 . S
C655 N657 1.384 . S
N656 C652 1.427 . S
N656 C653 1.384 . S
N657 C649 1.427 . S
N657 C655 1.384 . S
H658 C664 0.930 . S
H659 C668 0.930 . S
H660 C673 0.929 . S
H661 C671 0.929 . S
H662 C666 0.929 . S
H663 C672 0.929 . S
C664 H658 0.930 . S
C664 C665 1.367 . S
C664 C672 1.378 . S
C665 C664 1.367 . S
C665 C673 1.433 . S
C666 H662 0.929 . S
C666 C668 1.378 . S
C666 C670 1.350 . S
C667 C670 1.463 . S
C667 C672 1.350 . S
C667 N675 1.427 . S
C668 H659 0.930 . S
C668 C666 1.378 . S
C668 C669 1.367 . S
C669 C668 1.367 . S
C669 C671 1.433 . S
C670 C666 1.350 . S
C670 C667 1.463 . S
C670 N674 1.427 . S
C671 H661 0.929 . S
C671 C669 1.433 . S
C671 N674 1.384 . S
C672 H663 0.929 . S
C672 C664 1.378 . S
C672 C667 1.350 . S
C673 H660 0.929 . S
C673 C665 1.433 . S
C673 N675 1.384 . S
N674 C670 1.427 . S
N674 C671 1.384 . S
N675 C667 1.427 . S
N675 C673 1.384 . S
H676 C682 0.930 . S
H677 C686 0.930 . S
H678 C691 0.929 . S
H679 C689 0.929 . S
H680 C684 0.929 . S
H681 C690 0.929 . S
C682 H676 0.930 . S
C682 C683 1.367 . S
C682 C690 1.378 . S
C683 C682 1.367 . S
C683 C691 1.433 . S
C684 H680 0.929 . S
C684 C686 1.378 . S
C684 C688 1.350 . S
C685 C688 1.463 . S
C685 C690 1.350 . S
C685 N693 1.427 . S
C686 H677 0.930 . S
C686 C684 1.378 . S
C686 C687 1.367 . S
C687 C686 1.367 . S
C687 C689 1.433 . S
C688 C684 1.350 . S
C688 C685 1.463 . S
C688 N692 1.427 . S
C689 H679 0.929 . S
C689 C687 1.433 . S
C689 N692 1.384 . S
C690 H681 0.929 . S
C690 C682 1.378 . S
C690 C685 1.350 . S
C691 H678 0.929 . S
C691 C683 1.433 . S
C691 N693 1.384 . S
N692 C688 1.427 . S
N692 C689 1.384 . S
N693 C685 1.427 . S
N693 C691 1.384 . S
H694 C700 0.930 . S
H695 C704 0.930 1_565 S
H696 C709 0.929 . S
H697 C707 0.929 . S
H698 C702 0.929 . S
H699 C708 0.929 . S
C700 H694 0.930 . S
C700 C701 1.367 . S
C700 C708 1.378 . S
C701 C700 1.367 . S
C701 C709 1.433 . S
C702 H698 0.929 . S
C702 C704 1.378 . S
C702 C706 1.350 . S
C703 C706 1.463 . S
C703 C708 1.350 . S
C703 N711 1.427 . S
C704 H695 0.930 1_545 S
C704 C702 1.378 . S
C704 C705 1.367 . S
C705 C704 1.367 . S
C705 C707 1.433 . S
C706 C702 1.350 . S
C706 C703 1.463 . S
C706 N710 1.427 . S
C707 H697 0.929 . S
C707 C705 1.433 . S
C707 N710 1.384 . S
C708 H699 0.929 . S
C708 C700 1.378 . S
C708 C703 1.350 . S
C709 H696 0.929 . S
C709 C701 1.433 . S
C709 N711 1.384 . S
N710 C706 1.427 . S
N710 C707 1.384 . S
N711 C703 1.427 . S
N711 C709 1.384 . S
H712 C718 0.930 . S
H713 C722 0.930 . S
H714 C727 0.929 . S
H715 C725 0.929 . S
H716 C720 0.929 . S
H717 C726 0.929 . S
C718 H712 0.930 . S
C718 C719 1.367 . S
C718 C726 1.378 . S
C719 C718 1.367 . S
C719 C727 1.433 . S
C720 H716 0.929 . S
C720 C722 1.378 . S
C720 C724 1.350 . S
C721 C724 1.463 . S
C721 C726 1.350 . S
C721 N729 1.427 . S
C722 H713 0.930 . S
C722 C720 1.378 . S
C722 C723 1.367 . S
C723 C722 1.367 . S
C723 C725 1.433 . S
C724 C720 1.350 . S
C724 C721 1.463 . S
C724 N728 1.427 . S
C725 H715 0.929 . S
C725 C723 1.433 . S
C725 N728 1.384 . S
C726 H717 0.929 . S
C726 C718 1.378 . S
C726 C721 1.350 . S
C727 H714 0.929 . S
C727 C719 1.433 . S
C727 N729 1.384 . S
N728 C724 1.427 . S
N728 C725 1.384 . S
N729 C721 1.427 . S
N729 C727 1.384 . S
H730 C736 0.930 . S
H731 C740 0.930 . S
H732 C745 0.929 . S
H733 C743 0.929 . S
H734 C738 0.929 . S
H735 C744 0.929 . S
C736 H730 0.930 . S
C736 C737 1.367 . S
C736 C744 1.378 . S
C737 C736 1.367 . S
C737 C745 1.433 . S
C738 H734 0.929 . S
C738 C740 1.378 . S
C738 C742 1.350 . S
C739 C742 1.463 . S
C739 C744 1.350 . S
C739 N747 1.427 . S
C740 H731 0.930 . S
C740 C738 1.378 . S
C740 C741 1.367 . S
C741 C740 1.367 . S
C741 C743 1.433 . S
C742 C738 1.350 . S
C742 C739 1.463 . S
C742 N746 1.427 . S
C743 H733 0.929 . S
C743 C741 1.433 . S
C743 N746 1.384 . S
C744 H735 0.929 . S
C744 C736 1.378 . S
C744 C739 1.350 . S
C745 H732 0.929 . S
C745 C737 1.433 . S
C745 N747 1.384 . S
N746 C742 1.427 . S
N746 C743 1.384 . S
N747 C739 1.427 . S
N747 C745 1.384 . S
H748 C754 0.930 . S
H749 C758 0.930 . S
H750 C763 0.929 . S
H751 C761 0.929 . S
H752 C756 0.929 . S
H753 C762 0.929 . S
C754 H748 0.930 . S
C754 C755 1.367 . S
C754 C762 1.378 . S
C755 C754 1.367 . S
C755 C763 1.433 . S
C756 H752 0.929 . S
C756 C758 1.378 . S
C756 C760 1.350 . S
C757 C760 1.463 . S
C757 C762 1.350 . S
C757 N765 1.427 . S
C758 H749 0.930 . S
C758 C756 1.378 . S
C758 C759 1.367 . S
C759 C758 1.367 . S
C759 C761 1.433 . S
C760 C756 1.350 . S
C760 C757 1.463 . S
C760 N764 1.427 . S
C761 H751 0.929 . S
C761 C759 1.433 . S
C761 N764 1.384 . S
C762 H753 0.929 . S
C762 C754 1.378 . S
C762 C757 1.350 . S
C763 H750 0.929 . S
C763 C755 1.433 . S
C763 N765 1.384 . S
N764 C760 1.427 . S
N764 C761 1.384 . S
N765 C757 1.427 . S
N765 C763 1.384 . S
H766 C772 0.930 . S
H767 C776 0.930 . S
H768 C781 0.929 . S
H769 C779 0.929 . S
H770 C774 0.929 . S
H771 C780 0.929 . S
C772 H766 0.930 . S
C772 C773 1.367 . S
C772 C780 1.378 . S
C773 C772 1.367 . S
C773 C781 1.433 . S
C774 H770 0.929 . S
C774 C776 1.378 . S
C774 C778 1.350 . S
C775 C778 1.463 . S
C775 C780 1.350 . S
C775 N783 1.427 . S
C776 H767 0.930 . S
C776 C774 1.378 . S
C776 C777 1.367 . S
C777 C776 1.367 . S
C777 C779 1.433 . S
C778 C774 1.350 . S
C778 C775 1.463 . S
C778 N782 1.427 . S
C779 H769 0.929 . S
C779 C777 1.433 . S
C779 N782 1.384 . S
C780 H771 0.929 . S
C780 C772 1.378 . S
C780 C775 1.350 . S
C781 H768 0.929 . S
C781 C773 1.433 . S
C781 N783 1.384 . S
N782 C778 1.427 . S
N782 C779 1.384 . S
N783 C775 1.427 . S
N783 C781 1.384 . S
H784 C790 0.930 . S
H785 C794 0.930 . S
H786 C799 0.929 . S
H787 C797 0.929 . S
H788 C792 0.929 . S
H789 C798 0.929 . S
C790 H784 0.930 . S
C790 C791 1.367 . S
C790 C798 1.378 . S
C791 C790 1.367 . S
C791 C799 1.433 . S
C792 H788 0.929 . S
C792 C794 1.378 . S
C792 C796 1.350 . S
C793 C796 1.463 . S
C793 C798 1.350 . S
C793 N801 1.427 . S
C794 H785 0.930 . S
C794 C792 1.378 . S
C794 C795 1.367 . S
C795 C794 1.367 . S
C795 C797 1.433 . S
C796 C792 1.350 . S
C796 C793 1.463 . S
C796 N800 1.427 . S
C797 H787 0.929 . S
C797 C795 1.433 . S
C797 N800 1.384 . S
C798 H789 0.929 . S
C798 C790 1.378 . S
C798 C793 1.350 . S
C799 H786 0.929 . S
C799 C791 1.433 . S
C799 N801 1.384 . S
N800 C796 1.427 . S
N800 C797 1.384 . S
N801 C793 1.427 . S
N801 C799 1.384 . S
H802 C808 0.930 . S
H803 C812 0.930 . S
H804 C817 0.929 . S
H805 C815 0.929 . S
H806 C810 0.929 . S
H807 C816 0.929 . S
C808 H802 0.930 . S
C808 C809 1.367 . S
C808 C816 1.378 . S
C809 C808 1.367 . S
C809 C817 1.433 . S
C810 H806 0.929 . S
C810 C812 1.378 . S
C810 C814 1.350 . S
C811 C814 1.463 . S
C811 C816 1.350 . S
C811 N819 1.427 . S
C812 H803 0.930 . S
C812 C810 1.378 . S
C812 C813 1.367 . S
C813 C812 1.367 . S
C813 C815 1.433 . S
C814 C810 1.350 . S
C814 C811 1.463 . S
C814 N818 1.427 . S
C815 H805 0.929 . S
C815 C813 1.433 . S
C815 N818 1.384 . S
C816 H807 0.929 . S
C816 C808 1.378 . S
C816 C811 1.350 . S
C817 H804 0.929 . S
C817 C809 1.433 . S
C817 N819 1.384 . S
N818 C814 1.427 . S
N818 C815 1.384 . S
N819 C811 1.427 . S
N819 C817 1.384 . S
H820 C826 0.930 . S
H821 C830 0.930 . S
H822 C835 0.929 . S
H823 C833 0.929 . S
H824 C828 0.929 . S
H825 C834 0.929 . S
C826 H820 0.930 . S
C826 C827 1.367 . S
C826 C834 1.378 . S
C827 C826 1.367 . S
C827 C835 1.433 . S
C828 H824 0.929 . S
C828 C830 1.378 . S
C828 C832 1.350 . S
C829 C832 1.463 . S
C829 C834 1.350 . S
C829 N837 1.427 . S
C830 H821 0.930 . S
C830 C828 1.378 . S
C830 C831 1.367 . S
C831 C830 1.367 . S
C831 C833 1.433 . S
C832 C828 1.350 . S
C832 C829 1.463 . S
C832 N836 1.427 . S
C833 H823 0.929 . S
C833 C831 1.433 . S
C833 N836 1.384 . S
C834 H825 0.929 . S
C834 C826 1.378 . S
C834 C829 1.350 . S
C835 H822 0.929 . S
C835 C827 1.433 . S
C835 N837 1.384 . S
N836 C832 1.427 . S
N836 C833 1.384 . S
N837 C829 1.427 . S
N837 C835 1.384 . S
H838 C844 0.930 . S
H839 C848 0.930 . S
H840 C853 0.929 . S
H841 C851 0.929 . S
H842 C846 0.929 . S
H843 C852 0.929 . S
C844 H838 0.930 . S
C844 C845 1.367 . S
C844 C852 1.378 . S
C845 C844 1.367 . S
C845 C853 1.433 . S
C846 H842 0.929 . S
C846 C848 1.378 . S
C846 C850 1.350 . S
C847 C850 1.463 . S
C847 C852 1.350 . S
C847 N855 1.427 . S
C848 H839 0.930 . S
C848 C846 1.378 . S
C848 C849 1.367 . S
C849 C848 1.367 . S
C849 C851 1.433 . S
C850 C846 1.350 . S
C850 C847 1.463 . S
C850 N854 1.427 . S
C851 H841 0.929 . S
C851 C849 1.433 . S
C851 N854 1.384 . S
C852 H843 0.929 . S
C852 C844 1.378 . S
C852 C847 1.350 . S
C853 H840 0.929 . S
C853 C845 1.433 . S
C853 N855 1.384 . S
N854 C850 1.427 . S
N854 C851 1.384 . S
N855 C847 1.427 . S
N855 C853 1.384 . S
H856 C862 0.930 . S
H857 C866 0.930 . S
H858 C871 0.929 . S
H859 C869 0.929 . S
H860 C864 0.929 . S
H861 C870 0.929 . S
C862 H856 0.930 . S
C862 C863 1.367 . S
C862 C870 1.378 . S
C863 C862 1.367 . S
C863 C871 1.433 . S
C864 H860 0.929 . S
C864 C866 1.378 . S
C864 C868 1.350 . S
C865 C868 1.463 . S
C865 C870 1.350 . S
C865 N873 1.427 . S
C866 H857 0.930 . S
C866 C864 1.378 . S
C866 C867 1.367 . S
C867 C866 1.367 . S
C867 C869 1.433 . S
C868 C864 1.350 . S
C868 C865 1.463 . S
C868 N872 1.427 . S
C869 H859 0.929 . S
C869 C867 1.433 . S
C869 N872 1.384 . S
C870 H861 0.929 . S
C870 C862 1.378 . S
C870 C865 1.350 . S
C871 H858 0.929 . S
C871 C863 1.433 . S
C871 N873 1.384 . S
N872 C868 1.427 . S
N872 C869 1.384 . S
N873 C865 1.427 . S
N873 C871 1.384 . S
H874 C880 0.930 . S
H875 C884 0.930 . S
H876 C889 0.929 . S
H877 C887 0.929 . S
H878 C882 0.929 . S
H879 C888 0.929 . S
C880 H874 0.930 . S
C880 C881 1.367 . S
C880 C888 1.378 . S
C881 C880 1.367 . S
C881 C889 1.433 . S
C882 H878 0.929 . S
C882 C884 1.378 . S
C882 C886 1.350 . S
C883 C886 1.463 . S
C883 C888 1.350 . S
C883 N891 1.427 . S
C884 H875 0.930 . S
C884 C882 1.378 . S
C884 C885 1.367 . S
C885 C884 1.367 . S
C885 C887 1.433 . S
C886 C882 1.350 . S
C886 C883 1.463 . S
C886 N890 1.427 . S
C887 H877 0.929 . S
C887 C885 1.433 . S
C887 N890 1.384 . S
C888 H879 0.929 . S
C888 C880 1.378 . S
C888 C883 1.350 . S
C889 H876 0.929 . S
C889 C881 1.433 . S
C889 N891 1.384 . S
N890 C886 1.427 . S
N890 C887 1.384 . S
N891 C883 1.427 . S
N891 C889 1.384 . S
H892 C898 0.930 . S
H893 C902 0.930 . S
H894 C907 0.929 . S
H895 C905 0.929 . S
H896 C900 0.929 . S
H897 C906 0.929 . S
C898 H892 0.930 . S
C898 C899 1.367 . S
C898 C906 1.378 . S
C899 C898 1.367 . S
C899 C907 1.433 . S
C900 H896 0.929 . S
C900 C902 1.378 . S
C900 C904 1.350 . S
C901 C904 1.463 . S
C901 C906 1.350 . S
C901 N909 1.427 . S
C902 H893 0.930 . S
C902 C900 1.378 . S
C902 C903 1.367 . S
C903 C902 1.367 . S
C903 C905 1.433 . S
C904 C900 1.350 . S
C904 C901 1.463 . S
C904 N908 1.427 . S
C905 H895 0.929 . S
C905 C903 1.433 . S
C905 N908 1.384 . S
C906 H897 0.929 . S
C906 C898 1.378 . S
C906 C901 1.350 . S
C907 H894 0.929 . S
C907 C899 1.433 . S
C907 N909 1.384 . S
N908 C904 1.427 . S
N908 C905 1.384 . S
N909 C901 1.427 . S
N909 C907 1.384 . S
H910 C916 0.930 . S
H911 C920 0.930 . S
H912 C925 0.929 . S
H913 C923 0.929 . S
H914 C918 0.929 . S
H915 C924 0.929 . S
C916 H910 0.930 . S
C916 C917 1.367 . S
C916 C924 1.378 . S
C917 C916 1.367 . S
C917 C925 1.433 . S
C918 H914 0.929 . S
C918 C920 1.378 . S
C918 C922 1.350 . S
C919 C922 1.463 . S
C919 C924 1.350 . S
C919 N927 1.427 . S
C920 H911 0.930 . S
C920 C918 1.378 . S
C920 C921 1.367 . S
C921 C920 1.367 . S
C921 C923 1.433 . S
C922 C918 1.350 . S
C922 C919 1.463 . S
C922 N926 1.427 . S
C923 H913 0.929 . S
C923 C921 1.433 . S
C923 N926 1.384 . S
C924 H915 0.929 . S
C924 C916 1.378 . S
C924 C919 1.350 . S
C925 H912 0.929 . S
C925 C917 1.433 . S
C925 N927 1.384 . S
N926 C922 1.427 . S
N926 C923 1.384 . S
N927 C919 1.427 . S
N927 C925 1.384 . S
H928 C934 0.930 . S
H929 C938 0.930 . S
H930 C943 0.929 . S
H931 C941 0.929 . S
H932 C936 0.929 . S
H933 C942 0.929 . S
C934 H928 0.930 . S
C934 C935 1.367 . S
C934 C942 1.378 . S
C935 C934 1.367 . S
C935 C943 1.433 . S
C936 H932 0.929 . S
C936 C938 1.378 . S
C936 C940 1.350 . S
C937 C940 1.463 . S
C937 C942 1.350 . S
C937 N945 1.427 . S
C938 H929 0.930 . S
C938 C936 1.378 . S
C938 C939 1.367 . S
C939 C938 1.367 . S
C939 C941 1.433 . S
C940 C936 1.350 . S
C940 C937 1.463 . S
C940 N944 1.427 . S
C941 H931 0.929 . S
C941 C939 1.433 . S
C941 N944 1.384 . S
C942 H933 0.929 . S
C942 C934 1.378 . S
C942 C937 1.350 . S
C943 H930 0.929 . S
C943 C935 1.433 . S
C943 N945 1.384 . S
N944 C940 1.427 . S
N944 C941 1.384 . S
N945 C937 1.427 . S
N945 C943 1.384 . S
H946 C952 0.930 . S
H947 C956 0.930 . S
H948 C961 0.929 . S
H949 C959 0.929 . S
H950 C954 0.929 . S
H951 C960 0.929 . S
C952 H946 0.930 . S
C952 C953 1.367 . S
C952 C960 1.378 . S
C953 C952 1.367 . S
C953 C961 1.433 . S
C954 H950 0.929 . S
C954 C956 1.378 . S
C954 C958 1.350 . S
C955 C958 1.463 . S
C955 C960 1.350 . S
C955 N963 1.427 . S
C956 H947 0.930 . S
C956 C954 1.378 . S
C956 C957 1.367 . S
C957 C956 1.367 . S
C957 C959 1.433 . S
C958 C954 1.350 . S
C958 C955 1.463 . S
C958 N962 1.427 . S
C959 H949 0.929 . S
C959 C957 1.433 . S
C959 N962 1.384 . S
C960 H951 0.929 . S
C960 C952 1.378 . S
C960 C955 1.350 . S
C961 H948 0.929 . S
C961 C953 1.433 . S
C961 N963 1.384 . S
N962 C958 1.427 . S
N962 C959 1.384 . S
N963 C955 1.427 . S
N963 C961 1.384 . S
H964 C970 0.930 . S
H965 C974 0.930 . S
H966 C979 0.929 . S
H967 C977 0.929 . S
H968 C972 0.929 . S
H969 C978 0.929 . S
C970 H964 0.930 . S
C970 C971 1.367 . S
C970 C978 1.378 . S
C971 C970 1.367 . S
C971 C979 1.433 . S
C972 H968 0.929 . S
C972 C974 1.378 . S
C972 C976 1.350 . S
C973 C976 1.463 . S
C973 C978 1.350 . S
C973 N981 1.427 . S
C974 H965 0.930 . S
C974 C972 1.378 . S
C974 C975 1.367 . S
C975 C974 1.367 . S
C975 C977 1.433 . S
C976 C972 1.350 . S
C976 C973 1.463 . S
C976 N980 1.427 . S
C977 H967 0.929 . S
C977 C975 1.433 . S
C977 N980 1.384 . S
C978 H969 0.929 . S
C978 C970 1.378 . S
C978 C973 1.350 . S
C979 H966 0.929 . S
C979 C971 1.433 . S
C979 N981 1.384 . S
N980 C976 1.427 . S
N980 C977 1.384 . S
N981 C973 1.427 . S
N981 C979 1.384 . S
H982 C988 0.930 . S
H983 C992 0.930 . S
H984 C997 0.929 . S
H985 C995 0.929 . S
H986 C990 0.929 . S
H987 C996 0.929 . S
C988 H982 0.930 . S
C988 C989 1.367 . S
C988 C996 1.378 . S
C989 C988 1.367 . S
C989 C997 1.433 . S
C990 H986 0.929 . S
C990 C992 1.378 . S
C990 C994 1.350 . S
C991 C994 1.463 . S
C991 C996 1.350 . S
C991 N999 1.427 . S
C992 H983 0.930 . S
C992 C990 1.378 . S
C992 C993 1.367 . S
C993 C992 1.367 . S
C993 C995 1.433 . S
C994 C990 1.350 . S
C994 C991 1.463 . S
C994 N998 1.427 . S
C995 H985 0.929 . S
C995 C993 1.433 . S
C995 N998 1.384 . S
C996 H987 0.929 . S
C996 C988 1.378 . S
C996 C991 1.350 . S
C997 H984 0.929 . S
C997 C989 1.433 . S
C997 N999 1.384 . S
N998 C994 1.427 . S
N998 C995 1.384 . S
N999 C991 1.427 . S
N999 C997 1.384 . S
H1000 C1006 0.930 . S
H1001 C1010 0.930 . S
H1002 C1015 0.929 . S
H1003 C1013 0.929 . S
H1004 C1008 0.929 . S
H1005 C1014 0.929 . S
C1006 H1000 0.930 . S
C1006 C1007 1.367 . S
C1006 C1014 1.378 . S
C1007 C1006 1.367 . S
C1007 C1015 1.433 . S
C1008 H1004 0.929 . S
C1008 C1010 1.378 . S
C1008 C1012 1.350 . S
C1009 C1012 1.463 . S
C1009 C1014 1.350 . S
C1009 N1017 1.427 . S
C1010 H1001 0.930 . S
C1010 C1008 1.378 . S
C1010 C1011 1.367 . S
C1011 C1010 1.367 . S
C1011 C1013 1.433 . S
C1012 C1008 1.350 . S
C1012 C1009 1.463 . S
C1012 N1016 1.427 . S
C1013 H1003 0.929 . S
C1013 C1011 1.433 . S
C1013 N1016 1.384 . S
C1014 H1005 0.929 . S
C1014 C1006 1.378 . S
C1014 C1009 1.350 . S
C1015 H1002 0.929 . S
C1015 C1007 1.433 . S
C1015 N1017 1.384 . S
N1016 C1012 1.427 . S
N1016 C1013 1.384 . S
N1017 C1009 1.427 . S
N1017 C1015 1.384 . S
H1018 C1024 0.930 . S
H1019 C1028 0.930 . S
H1020 C1033 0.929 . S
H1021 C1031 0.929 . S
H1022 C1026 0.929 . S
H1023 C1032 0.929 . S
C1024 H1018 0.930 . S
C1024 C1025 1.367 . S
C1024 C1032 1.378 . S
C1025 C1024 1.367 . S
C1025 C1033 1.433 . S
C1026 H1022 0.929 . S
C1026 C1028 1.378 . S
C1026 C1030 1.350 . S
C1027 C1030 1.463 . S
C1027 C1032 1.350 . S
C1027 N1035 1.427 . S
C1028 H1019 0.930 . S
C1028 C1026 1.378 . S
C1028 C1029 1.367 . S
C1029 C1028 1.367 . S
C1029 C1031 1.433 . S
C1030 C1026 1.350 . S
C1030 C1027 1.463 . S
C1030 N1034 1.427 . S
C1031 H1021 0.929 . S
C1031 C1029 1.433 . S
C1031 N1034 1.384 . S
C1032 H1023 0.929 . S
C1032 C1024 1.378 . S
C1032 C1027 1.350 . S
C1033 H1020 0.929 . S
C1033 C1025 1.433 . S
C1033 N1035 1.384 . S
N1034 C1030 1.427 . S
N1034 C1031 1.384 . S
N1035 C1027 1.427 . S
N1035 C1033 1.384 . S
H1036 C1042 0.930 . S
H1037 C1046 0.930 . S
H1038 C1051 0.929 . S
H1039 C1049 0.929 . S
H1040 C1044 0.929 . S
H1041 C1050 0.929 . S
C1042 H1036 0.930 . S
C1042 C1043 1.367 . S
C1042 C1050 1.378 . S
C1043 C1042 1.367 . S
C1043 C1051 1.433 . S
C1044 H1040 0.929 . S
C1044 C1046 1.378 . S
C1044 C1048 1.350 . S
C1045 C1048 1.463 . S
C1045 C1050 1.350 . S
C1045 N1053 1.427 . S
C1046 H1037 0.930 . S
C1046 C1044 1.378 . S
C1046 C1047 1.367 . S
C1047 C1046 1.367 . S
C1047 C1049 1.433 . S
C1048 C1044 1.350 . S
C1048 C1045 1.463 . S
C1048 N1052 1.427 . S
C1049 H1039 0.929 . S
C1049 C1047 1.433 . S
C1049 N1052 1.384 . S
C1050 H1041 0.929 . S
C1050 C1042 1.378 . S
C1050 C1045 1.350 . S
C1051 H1038 0.929 . S
C1051 C1043 1.433 . S
C1051 N1053 1.384 . S
N1052 C1048 1.427 . S
N1052 C1049 1.384 . S
N1053 C1045 1.427 . S
N1053 C1051 1.384 . S
H1054 C1060 0.930 . S
H1055 C1064 0.930 . S
H1056 C1069 0.929 . S
H1057 C1067 0.929 . S
H1058 C1062 0.929 . S
H1059 C1068 0.929 . S
C1060 H1054 0.930 . S
C1060 C1061 1.367 . S
C1060 C1068 1.378 . S
C1061 C1060 1.367 . S
C1061 C1069 1.433 . S
C1062 H1058 0.929 . S
C1062 C1064 1.378 . S
C1062 C1066 1.350 . S
C1063 C1066 1.463 . S
C1063 C1068 1.350 . S
C1063 N1071 1.427 . S
C1064 H1055 0.930 . S
C1064 C1062 1.378 . S
C1064 C1065 1.367 . S
C1065 C1064 1.367 . S
C1065 C1067 1.433 . S
C1066 C1062 1.350 . S
C1066 C1063 1.463 . S
C1066 N1070 1.427 . S
C1067 H1057 0.929 . S
C1067 C1065 1.433 . S
C1067 N1070 1.384 . S
C1068 H1059 0.929 . S
C1068 C1060 1.378 . S
C1068 C1063 1.350 . S
C1069 H1056 0.929 . S
C1069 C1061 1.433 . S
C1069 N1071 1.384 . S
N1070 C1066 1.427 . S
N1070 C1067 1.384 . S
N1071 C1063 1.427 . S
N1071 C1069 1.384 . S
H1072 C1078 0.930 . S
H1073 C1082 0.930 . S
H1074 C1087 0.929 . S
H1075 C1085 0.929 . S
H1076 C1080 0.929 . S
H1077 C1086 0.929 . S
C1078 H1072 0.930 . S
C1078 C1079 1.367 . S
C1078 C1086 1.378 . S
C1079 C1078 1.367 . S
C1079 C1087 1.433 . S
C1080 H1076 0.929 . S
C1080 C1082 1.378 . S
C1080 C1084 1.350 . S
C1081 C1084 1.463 . S
C1081 C1086 1.350 . S
C1081 N1089 1.427 . S
C1082 H1073 0.930 . S
C1082 C1080 1.378 . S
C1082 C1083 1.367 . S
C1083 C1082 1.367 . S
C1083 C1085 1.433 . S
C1084 C1080 1.350 . S
C1084 C1081 1.463 . S
C1084 N1088 1.427 . S
C1085 H1075 0.929 . S
C1085 C1083 1.433 . S
C1085 N1088 1.384 . S
C1086 H1077 0.929 . S
C1086 C1078 1.378 . S
C1086 C1081 1.350 . S
C1087 H1074 0.929 . S
C1087 C1079 1.433 . S
C1087 N1089 1.384 . S
N1088 C1084 1.427 . S
N1088 C1085 1.384 . S
N1089 C1081 1.427 . S
N1089 C1087 1.384 . S
H1090 C1096 0.930 . S
H1091 C1100 0.930 . S
H1092 C1105 0.929 . S
H1093 C1103 0.929 . S
H1094 C1098 0.929 . S
H1095 C1104 0.929 . S
C1096 H1090 0.930 . S
C1096 C1097 1.367 . S
C1096 C1104 1.378 . S
C1097 C1096 1.367 . S
C1097 C1105 1.433 . S
C1098 H1094 0.929 . S
C1098 C1100 1.378 . S
C1098 C1102 1.350 . S
C1099 C1102 1.463 . S
C1099 C1104 1.350 . S
C1099 N1107 1.427 . S
C1100 H1091 0.930 . S
C1100 C1098 1.378 . S
C1100 C1101 1.367 . S
C1101 C1100 1.367 . S
C1101 C1103 1.433 . S
C1102 C1098 1.350 . S
C1102 C1099 1.463 . S
C1102 N1106 1.427 . S
C1103 H1093 0.929 . S
C1103 C1101 1.433 . S
C1103 N1106 1.384 . S
C1104 H1095 0.929 . S
C1104 C1096 1.378 . S
C1104 C1099 1.350 . S
C1105 H1092 0.929 . S
C1105 C1097 1.433 . S
C1105 N1107 1.384 . S
N1106 C1102 1.427 . S
N1106 C1103 1.384 . S
N1107 C1099 1.427 . S
N1107 C1105 1.384 . S
H1108 C1114 0.930 . S
H1109 C1118 0.930 . S
H1110 C1123 0.929 . S
H1111 C1121 0.929 . S
H1112 C1116 0.929 . S
H1113 C1122 0.929 . S
C1114 H1108 0.930 . S
C1114 C1115 1.367 . S
C1114 C1122 1.378 . S
C1115 C1114 1.367 . S
C1115 C1123 1.433 . S
C1116 H1112 0.929 . S
C1116 C1118 1.378 . S
C1116 C1120 1.350 . S
C1117 C1120 1.463 . S
C1117 C1122 1.350 . S
C1117 N1125 1.427 . S
C1118 H1109 0.930 . S
C1118 C1116 1.378 . S
C1118 C1119 1.367 . S
C1119 C1118 1.367 . S
C1119 C1121 1.433 . S
C1120 C1116 1.350 . S
C1120 C1117 1.463 . S
C1120 N1124 1.427 . S
C1121 H1111 0.929 . S
C1121 C1119 1.433 . S
C1121 N1124 1.384 . S
C1122 H1113 0.929 . S
C1122 C1114 1.378 . S
C1122 C1117 1.350 . S
C1123 H1110 0.929 . S
C1123 C1115 1.433 . S
C1123 N1125 1.384 . S
N1124 C1120 1.427 . S
N1124 C1121 1.384 . S
N1125 C1117 1.427 . S
N1125 C1123 1.384 . S
H1126 C1132 0.930 . S
H1127 C1136 0.930 . S
H1128 C1141 0.929 . S
H1129 C1139 0.929 . S
H1130 C1134 0.929 . S
H1131 C1140 0.929 . S
C1132 H1126 0.930 . S
C1132 C1133 1.367 . S
C1132 C1140 1.378 . S
C1133 C1132 1.367 . S
C1133 C1141 1.433 . S
C1134 H1130 0.929 . S
C1134 C1136 1.378 . S
C1134 C1138 1.350 . S
C1135 C1138 1.463 . S
C1135 C1140 1.350 . S
C1135 N1143 1.427 . S
C1136 H1127 0.930 . S
C1136 C1134 1.378 . S
C1136 C1137 1.367 . S
C1137 C1136 1.367 . S
C1137 C1139 1.433 . S
C1138 C1134 1.350 . S
C1138 C1135 1.463 . S
C1138 N1142 1.427 . S
C1139 H1129 0.929 . S
C1139 C1137 1.433 . S
C1139 N1142 1.384 . S
C1140 H1131 0.929 . S
C1140 C1132 1.378 . S
C1140 C1135 1.350 . S
C1141 H1128 0.929 . S
C1141 C1133 1.433 . S
C1141 N1143 1.384 . S
N1142 C1138 1.427 . S
N1142 C1139 1.384 . S
N1143 C1135 1.427 . S
N1143 C1141 1.384 . S
H1144 C1150 0.930 . S
H1145 C1154 0.930 . S
H1146 C1159 0.929 . S
H1147 C1157 0.929 . S
H1148 C1152 0.929 . S
H1149 C1158 0.929 . S
C1150 H1144 0.930 . S
C1150 C1151 1.367 . S
C1150 C1158 1.378 . S
C1151 C1150 1.367 . S
C1151 C1159 1.433 . S
C1152 H1148 0.929 . S
C1152 C1154 1.378 . S
C1152 C1156 1.350 . S
C1153 C1156 1.463 . S
C1153 C1158 1.350 . S
C1153 N1161 1.427 . S
C1154 H1145 0.930 . S
C1154 C1152 1.378 . S
C1154 C1155 1.367 . S
C1155 C1154 1.367 . S
C1155 C1157 1.433 . S
C1156 C1152 1.350 . S
C1156 C1153 1.463 . S
C1156 N1160 1.427 . S
C1157 H1147 0.929 . S
C1157 C1155 1.433 . S
C1157 N1160 1.384 . S
C1158 H1149 0.929 . S
C1158 C1150 1.378 . S
C1158 C1153 1.350 . S
C1159 H1146 0.929 . S
C1159 C1151 1.433 . S
C1159 N1161 1.384 . S
N1160 C1156 1.427 . S
N1160 C1157 1.384 . S
N1161 C1153 1.427 . S
N1161 C1159 1.384 . S
H1162 C1168 0.930 . S
H1163 C1172 0.930 . S
H1164 C1177 0.929 . S
H1165 C1175 0.929 . S
H1166 C1170 0.929 . S
H1167 C1176 0.929 . S
C1168 H1162 0.930 . S
C1168 C1169 1.367 . S
C1168 C1176 1.378 . S
C1169 C1168 1.367 . S
C1169 C1177 1.433 . S
C1170 H1166 0.929 . S
C1170 C1172 1.378 . S
C1170 C1174 1.350 . S
C1171 C1174 1.463 . S
C1171 C1176 1.350 . S
C1171 N1179 1.427 . S
C1172 H1163 0.930 . S
C1172 C1170 1.378 . S
C1172 C1173 1.367 . S
C1173 C1172 1.367 . S
C1173 C1175 1.433 . S
C1174 C1170 1.350 . S
C1174 C1171 1.463 . S
C1174 N1178 1.427 . S
C1175 H1165 0.929 . S
C1175 C1173 1.433 . S
C1175 N1178 1.384 . S
C1176 H1167 0.929 . S
C1176 C1168 1.378 . S
C1176 C1171 1.350 . S
C1177 H1164 0.929 . S
C1177 C1169 1.433 . S
C1177 N1179 1.384 . S
N1178 C1174 1.427 . S
N1178 C1175 1.384 . S
N1179 C1171 1.427 . S
N1179 C1177 1.384 . S
H1180 C1186 0.930 . S
H1181 C1190 0.930 . S
H1182 C1195 0.929 . S
H1183 C1193 0.929 . S
H1184 C1188 0.929 . S
H1185 C1194 0.929 . S
C1186 H1180 0.930 . S
C1186 C1187 1.367 . S
C1186 C1194 1.378 . S
C1187 C1186 1.367 . S
C1187 C1195 1.433 . S
C1188 H1184 0.929 . S
C1188 C1190 1.378 . S
C1188 C1192 1.350 . S
C1189 C1192 1.463 . S
C1189 C1194 1.350 . S
C1189 N1197 1.427 . S
C1190 H1181 0.930 . S
C1190 C1188 1.378 . S
C1190 C1191 1.367 . S
C1191 C1190 1.367 . S
C1191 C1193 1.433 . S
C1192 C1188 1.350 . S
C1192 C1189 1.463 . S
C1192 N1196 1.427 . S
C1193 H1183 0.929 . S
C1193 C1191 1.433 . S
C1193 N1196 1.384 . S
C1194 H1185 0.929 . S
C1194 C1186 1.378 . S
C1194 C1189 1.350 . S
C1195 H1182 0.929 . S
C1195 C1187 1.433 . S
C1195 N1197 1.384 . S
N1196 C1192 1.427 . S
N1196 C1193 1.384 . S
N1197 C1189 1.427 . S
N1197 C1195 1.384 . S
H1198 C1204 0.930 . S
H1199 C1208 0.930 . S
H1200 C1213 0.929 . S
H1201 C1211 0.929 . S
H1202 C1206 0.929 . S
H1203 C1212 0.929 . S
C1204 H1198 0.930 . S
C1204 C1205 1.367 . S
C1204 C1212 1.378 . S
C1205 C1204 1.367 . S
C1205 C1213 1.433 . S
C1206 H1202 0.929 . S
C1206 C1208 1.378 . S
C1206 C1210 1.350 . S
C1207 C1210 1.463 . S
C1207 C1212 1.350 . S
C1207 N1215 1.427 . S
C1208 H1199 0.930 . S
C1208 C1206 1.378 . S
C1208 C1209 1.367 . S
C1209 C1208 1.367 . S
C1209 C1211 1.433 . S
C1210 C1206 1.350 . S
C1210 C1207 1.463 . S
C1210 N1214 1.427 . S
C1211 H1201 0.929 . S
C1211 C1209 1.433 . S
C1211 N1214 1.384 . S
C1212 H1203 0.929 . S
C1212 C1204 1.378 . S
C1212 C1207 1.350 . S
C1213 H1200 0.929 . S
C1213 C1205 1.433 . S
C1213 N1215 1.384 . S
N1214 C1210 1.427 . S
N1214 C1211 1.384 . S
N1215 C1207 1.427 . S
N1215 C1213 1.384 . S
H1216 C1222 0.930 . S
H1217 C1226 0.930 . S
H1218 C1231 0.929 . S
H1219 C1229 0.929 . S
H1220 C1224 0.929 . S
H1221 C1230 0.929 . S
C1222 H1216 0.930 . S
C1222 C1223 1.367 . S
C1222 C1230 1.378 . S
C1223 C1222 1.367 . S
C1223 C1231 1.433 . S
C1224 H1220 0.929 . S
C1224 C1226 1.378 . S
C1224 C1228 1.350 . S
C1225 C1228 1.463 . S
C1225 C1230 1.350 . S
C1225 N1233 1.427 . S
C1226 H1217 0.930 . S
C1226 C1224 1.378 . S
C1226 C1227 1.367 . S
C1227 C1226 1.367 . S
C1227 C1229 1.433 . S
C1228 C1224 1.350 . S
C1228 C1225 1.463 . S
C1228 N1232 1.427 . S
C1229 H1219 0.929 . S
C1229 C1227 1.433 . S
C1229 N1232 1.384 . S
C1230 H1221 0.929 . S
C1230 C1222 1.378 . S
C1230 C1225 1.350 . S
C1231 H1218 0.929 . S
C1231 C1223 1.433 . S
C1231 N1233 1.384 . S
N1232 C1228 1.427 . S
N1232 C1229 1.384 . S
N1233 C1225 1.427 . S
N1233 C1231 1.384 . S
H1234 C1240 0.930 . S
H1235 C1244 0.930 . S
H1236 C1249 0.929 . S
H1237 C1247 0.929 . S
H1238 C1242 0.929 . S
H1239 C1248 0.929 . S
C1240 H1234 0.930 . S
C1240 C1241 1.367 . S
C1240 C1248 1.378 . S
C1241 C1240 1.367 . S
C1241 C1249 1.433 . S
C1242 H1238 0.929 . S
C1242 C1244 1.378 . S
C1242 C1246 1.350 . S
C1243 C1246 1.463 . S
C1243 C1248 1.350 . S
C1243 N1251 1.427 . S
C1244 H1235 0.930 . S
C1244 C1242 1.378 . S
C1244 C1245 1.367 . S
C1245 C1244 1.367 . S
C1245 C1247 1.433 . S
C1246 C1242 1.350 . S
C1246 C1243 1.463 . S
C1246 N1250 1.427 . S
C1247 H1237 0.929 . S
C1247 C1245 1.433 . S
C1247 N1250 1.384 . S
C1248 H1239 0.929 . S
C1248 C1240 1.378 . S
C1248 C1243 1.350 . S
C1249 H1236 0.929 . S
C1249 C1241 1.433 . S
C1249 N1251 1.384 . S
N1250 C1246 1.427 . S
N1250 C1247 1.384 . S
N1251 C1243 1.427 . S
N1251 C1249 1.384 . S
H1252 C1258 0.930 . S
H1253 C1262 0.930 . S
H1254 C1267 0.929 . S
H1255 C1265 0.929 . S
H1256 C1260 0.929 . S
H1257 C1266 0.929 . S
C1258 H1252 0.930 . S
C1258 C1259 1.367 . S
C1258 C1266 1.378 . S
C1259 C1258 1.367 . S
C1259 C1267 1.433 . S
C1260 H1256 0.929 . S
C1260 C1262 1.378 . S
C1260 C1264 1.350 . S
C1261 C1264 1.463 . S
C1261 C1266 1.350 . S
C1261 N1269 1.427 . S
C1262 H1253 0.930 . S
C1262 C1260 1.378 . S
C1262 C1263 1.367 . S
C1263 C1262 1.367 . S
C1263 C1265 1.433 . S
C1264 C1260 1.350 . S
C1264 C1261 1.463 . S
C1264 N1268 1.427 . S
C1265 H1255 0.929 . S
C1265 C1263 1.433 . S
C1265 N1268 1.384 . S
C1266 H1257 0.929 . S
C1266 C1258 1.378 . S
C1266 C1261 1.350 . S
C1267 H1254 0.929 . S
C1267 C1259 1.433 . S
C1267 N1269 1.384 . S
N1268 C1264 1.427 . S
N1268 C1265 1.384 . S
N1269 C1261 1.427 . S
N1269 C1267 1.384 . S
H1270 C1276 0.930 . S
H1271 C1280 0.930 . S
H1272 C1285 0.929 . S
H1273 C1283 0.929 . S
H1274 C1278 0.929 . S
H1275 C1284 0.929 . S
C1276 H1270 0.930 . S
C1276 C1277 1.367 . S
C1276 C1284 1.378 . S
C1277 C1276 1.367 . S
C1277 C1285 1.433 . S
C1278 H1274 0.929 . S
C1278 C1280 1.378 . S
C1278 C1282 1.350 . S
C1279 C1282 1.463 . S
C1279 C1284 1.350 . S
C1279 N1287 1.427 . S
C1280 H1271 0.930 . S
C1280 C1278 1.378 . S
C1280 C1281 1.367 . S
C1281 C1280 1.367 . S
C1281 C1283 1.433 . S
C1282 C1278 1.350 . S
C1282 C1279 1.463 . S
C1282 N1286 1.427 . S
C1283 H1273 0.929 . S
C1283 C1281 1.433 . S
C1283 N1286 1.384 . S
C1284 H1275 0.929 . S
C1284 C1276 1.378 . S
C1284 C1279 1.350 . S
C1285 H1272 0.929 . S
C1285 C1277 1.433 . S
C1285 N1287 1.384 . S
N1286 C1282 1.427 . S
N1286 C1283 1.384 . S
N1287 C1279 1.427 . S
N1287 C1285 1.384 . S
H1288 C1294 0.930 . S
H1289 C1298 0.930 . S
H1290 C1303 0.929 . S
H1291 C1301 0.929 . S
H1292 C1296 0.929 . S
H1293 C1302 0.929 . S
C1294 H1288 0.930 . S
C1294 C1295 1.367 . S
C1294 C1302 1.378 . S
C1295 C1294 1.367 . S
C1295 C1303 1.433 . S
C1296 H1292 0.929 . S
C1296 C1298 1.378 . S
C1296 C1300 1.350 . S
C1297 C1300 1.463 . S
C1297 C1302 1.350 . S
C1297 N1305 1.427 . S
C1298 H1289 0.930 . S
C1298 C1296 1.378 . S
C1298 C1299 1.367 . S
C1299 C1298 1.367 . S
C1299 C1301 1.433 . S
C1300 C1296 1.350 . S
C1300 C1297 1.463 . S
C1300 N1304 1.427 . S
C1301 H1291 0.929 . S
C1301 C1299 1.433 . S
C1301 N1304 1.384 . S
C1302 H1293 0.929 . S
C1302 C1294 1.378 . S
C1302 C1297 1.350 . S
C1303 H1290 0.929 . S
C1303 C1295 1.433 . S
C1303 N1305 1.384 . S
N1304 C1300 1.427 . S
N1304 C1301 1.384 . S
N1305 C1297 1.427 . S
N1305 C1303 1.384 . S
H1306 C1312 0.930 . S
H1307 C1316 0.930 . S
H1308 C1321 0.929 . S
H1309 C1319 0.929 . S
H1310 C1314 0.929 . S
H1311 C1320 0.929 . S
C1312 H1306 0.930 . S
C1312 C1313 1.367 . S
C1312 C1320 1.378 . S
C1313 C1312 1.367 . S
C1313 C1321 1.433 . S
C1314 H1310 0.929 . S
C1314 C1316 1.378 . S
C1314 C1318 1.350 . S
C1315 C1318 1.463 . S
C1315 C1320 1.350 . S
C1315 N1323 1.427 . S
C1316 H1307 0.930 . S
C1316 C1314 1.378 . S
C1316 C1317 1.367 . S
C1317 C1316 1.367 . S
C1317 C1319 1.433 . S
C1318 C1314 1.350 . S
C1318 C1315 1.463 . S
C1318 N1322 1.427 . S
C1319 H1309 0.929 . S
C1319 C1317 1.433 . S
C1319 N1322 1.384 . S
C1320 H1311 0.929 . S
C1320 C1312 1.378 . S
C1320 C1315 1.350 . S
C1321 H1308 0.929 . S
C1321 C1313 1.433 . S
C1321 N1323 1.384 . S
N1322 C1318 1.427 . S
N1322 C1319 1.384 . S
N1323 C1315 1.427 . S
N1323 C1321 1.384 . S
H1324 C1330 0.930 . S
H1325 C1334 0.930 . S
H1326 C1339 0.929 . S
H1327 C1337 0.929 . S
H1328 C1332 0.929 . S
H1329 C1338 0.929 . S
C1330 H1324 0.930 . S
C1330 C1331 1.367 . S
C1330 C1338 1.378 . S
C1331 C1330 1.367 . S
C1331 C1339 1.433 . S
C1332 H1328 0.929 . S
C1332 C1334 1.378 . S
C1332 C1336 1.350 . S
C1333 C1336 1.463 . S
C1333 C1338 1.350 . S
C1333 N1341 1.427 . S
C1334 H1325 0.930 . S
C1334 C1332 1.378 . S
C1334 C1335 1.367 . S
C1335 C1334 1.367 . S
C1335 C1337 1.433 . S
C1336 C1332 1.350 . S
C1336 C1333 1.463 . S
C1336 N1340 1.427 . S
C1337 H1327 0.929 . S
C1337 C1335 1.433 . S
C1337 N1340 1.384 . S
C1338 H1329 0.929 . S
C1338 C1330 1.378 . S
C1338 C1333 1.350 . S
C1339 H1326 0.929 . S
C1339 C1331 1.433 . S
C1339 N1341 1.384 . S
N1340 C1336 1.427 . S
N1340 C1337 1.384 . S
N1341 C1333 1.427 . S
N1341 C1339 1.384 . S
H1342 C1348 0.930 . S
H1343 C1352 0.930 . S
H1344 C1357 0.929 . S
H1345 C1355 0.929 . S
H1346 C1350 0.929 . S
H1347 C1356 0.929 . S
C1348 H1342 0.930 . S
C1348 C1349 1.367 . S
C1348 C1356 1.378 . S
C1349 C1348 1.367 . S
C1349 C1357 1.433 . S
C1350 H1346 0.929 . S
C1350 C1352 1.378 . S
C1350 C1354 1.350 . S
C1351 C1354 1.463 . S
C1351 C1356 1.350 . S
C1351 N1359 1.427 . S
C1352 H1343 0.930 . S
C1352 C1350 1.378 . S
C1352 C1353 1.367 . S
C1353 C1352 1.367 . S
C1353 C1355 1.433 . S
C1354 C1350 1.350 . S
C1354 C1351 1.463 . S
C1354 N1358 1.427 . S
C1355 H1345 0.929 . S
C1355 C1353 1.433 . S
C1355 N1358 1.384 . S
C1356 H1347 0.929 . S
C1356 C1348 1.378 . S
C1356 C1351 1.350 . S
C1357 H1344 0.929 . S
C1357 C1349 1.433 . S
C1357 N1359 1.384 . S
N1358 C1354 1.427 . S
N1358 C1355 1.384 . S
N1359 C1351 1.427 . S
N1359 C1357 1.384 . S
H1360 C1366 0.930 . S
H1361 C1370 0.930 . S
H1362 C1375 0.929 . S
H1363 C1373 0.929 . S
H1364 C1368 0.929 . S
H1365 C1374 0.929 . S
C1366 H1360 0.930 . S
C1366 C1367 1.367 . S
C1366 C1374 1.378 . S
C1367 C1366 1.367 . S
C1367 C1375 1.433 . S
C1368 H1364 0.929 . S
C1368 C1370 1.378 . S
C1368 C1372 1.350 . S
C1369 C1372 1.463 . S
C1369 C1374 1.350 . S
C1369 N1377 1.427 . S
C1370 H1361 0.930 . S
C1370 C1368 1.378 . S
C1370 C1371 1.367 . S
C1371 C1370 1.367 . S
C1371 C1373 1.433 . S
C1372 C1368 1.350 . S
C1372 C1369 1.463 . S
C1372 N1376 1.427 . S
C1373 H1363 0.929 . S
C1373 C1371 1.433 . S
C1373 N1376 1.384 . S
C1374 H1365 0.929 . S
C1374 C1366 1.378 . S
C1374 C1369 1.350 . S
C1375 H1362 0.929 . S
C1375 C1367 1.433 . S
C1375 N1377 1.384 . S
N1376 C1372 1.427 . S
N1376 C1373 1.384 . S
N1377 C1369 1.427 . S
N1377 C1375 1.384 . S
H1378 C1384 0.930 . S
H1379 C1388 0.930 . S
H1380 C1393 0.929 . S
H1381 C1391 0.929 . S
H1382 C1386 0.929 . S
H1383 C1392 0.929 . S
C1384 H1378 0.930 . S
C1384 C1385 1.367 . S
C1384 C1392 1.378 . S
C1385 C1384 1.367 . S
C1385 C1393 1.433 . S
C1386 H1382 0.929 . S
C1386 C1388 1.378 . S
C1386 C1390 1.350 . S
C1387 C1390 1.463 . S
C1387 C1392 1.350 . S
C1387 N1395 1.427 . S
C1388 H1379 0.930 . S
C1388 C1386 1.378 . S
C1388 C1389 1.367 . S
C1389 C1388 1.367 . S
C1389 C1391 1.433 . S
C1390 C1386 1.350 . S
C1390 C1387 1.463 . S
C1390 N1394 1.427 . S
C1391 H1381 0.929 . S
C1391 C1389 1.433 . S
C1391 N1394 1.384 . S
C1392 H1383 0.929 . S
C1392 C1384 1.378 . S
C1392 C1387 1.350 . S
C1393 H1380 0.929 . S
C1393 C1385 1.433 . S
C1393 N1395 1.384 . S
N1394 C1390 1.427 . S
N1394 C1391 1.384 . S
N1395 C1387 1.427 . S
N1395 C1393 1.384 . S
H1396 C1402 0.930 . S
H1397 C1406 0.930 . S
H1398 C1411 0.929 . S
H1399 C1409 0.929 . S
H1400 C1404 0.929 . S
H1401 C1410 0.929 . S
C1402 H1396 0.930 . S
C1402 C1403 1.367 . S
C1402 C1410 1.378 . S
C1403 C1402 1.367 . S
C1403 C1411 1.433 . S
C1404 H1400 0.929 . S
C1404 C1406 1.378 . S
C1404 C1408 1.350 . S
C1405 C1408 1.463 . S
C1405 C1410 1.350 . S
C1405 N1413 1.427 . S
C1406 H1397 0.930 . S
C1406 C1404 1.378 . S
C1406 C1407 1.367 . S
C1407 C1406 1.367 . S
C1407 C1409 1.433 . S
C1408 C1404 1.350 . S
C1408 C1405 1.463 . S
C1408 N1412 1.427 . S
C1409 H1399 0.929 . S
C1409 C1407 1.433 . S
C1409 N1412 1.384 . S
C1410 H1401 0.929 . S
C1410 C1402 1.378 . S
C1410 C1405 1.350 . S
C1411 H1398 0.929 . S
C1411 C1403 1.433 . S
C1411 N1413 1.384 . S
N1412 C1408 1.427 . S
N1412 C1409 1.384 . S
N1413 C1405 1.427 . S
N1413 C1411 1.384 . S
H1414 C1420 0.930 . S
H1415 C1424 0.930 . S
H1416 C1429 0.929 . S
H1417 C1427 0.929 . S
H1418 C1422 0.929 . S
H1419 C1428 0.929 . S
C1420 H1414 0.930 . S
C1420 C1421 1.367 . S
C1420 C1428 1.378 . S
C1421 C1420 1.367 . S
C1421 C1429 1.433 . S
C1422 H1418 0.929 . S
C1422 C1424 1.378 . S
C1422 C1426 1.350 . S
C1423 C1426 1.463 . S
C1423 C1428 1.350 . S
C1423 N1431 1.427 . S
C1424 H1415 0.930 . S
C1424 C1422 1.378 . S
C1424 C1425 1.367 . S
C1425 C1424 1.367 . S
C1425 C1427 1.433 . S
C1426 C1422 1.350 . S
C1426 C1423 1.463 . S
C1426 N1430 1.427 . S
C1427 H1417 0.929 . S
C1427 C1425 1.433 . S
C1427 N1430 1.384 . S
C1428 H1419 0.929 . S
C1428 C1420 1.378 . S
C1428 C1423 1.350 . S
C1429 H1416 0.929 . S
C1429 C1421 1.433 . S
C1429 N1431 1.384 . S
N1430 C1426 1.427 . S
N1430 C1427 1.384 . S
N1431 C1423 1.427 . S
N1431 C1429 1.384 . S
H1432 C1438 0.930 . S
H1433 C1442 0.930 . S
H1434 C1447 0.929 . S
H1435 C1445 0.929 . S
H1436 C1440 0.929 . S
H1437 C1446 0.929 . S
C1438 H1432 0.930 . S
C1438 C1439 1.367 . S
C1438 C1446 1.378 . S
C1439 C1438 1.367 . S
C1439 C1447 1.433 . S
C1440 H1436 0.929 . S
C1440 C1442 1.378 . S
C1440 C1444 1.350 . S
C1441 C1444 1.463 . S
C1441 C1446 1.350 . S
C1441 N1449 1.427 . S
C1442 H1433 0.930 . S
C1442 C1440 1.378 . S
C1442 C1443 1.367 . S
C1443 C1442 1.367 . S
C1443 C1445 1.433 . S
C1444 C1440 1.350 . S
C1444 C1441 1.463 . S
C1444 N1448 1.427 . S
C1445 H1435 0.929 . S
C1445 C1443 1.433 . S
C1445 N1448 1.384 . S
C1446 H1437 0.929 . S
C1446 C1438 1.378 . S
C1446 C1441 1.350 . S
C1447 H1434 0.929 . S
C1447 C1439 1.433 . S
C1447 N1449 1.384 . S
N1448 C1444 1.427 . S
N1448 C1445 1.384 . S
N1449 C1441 1.427 . S
N1449 C1447 1.384 . S
H1450 C1456 0.930 . S
H1451 C1460 0.930 . S
H1452 C1465 0.929 . S
H1453 C1463 0.929 . S
H1454 C1458 0.929 . S
H1455 C1464 0.929 . S
C1456 H1450 0.930 . S
C1456 C1457 1.367 . S
C1456 C1464 1.378 . S
C1457 C1456 1.367 . S
C1457 C1465 1.433 . S
C1458 H1454 0.929 . S
C1458 C1460 1.378 . S
C1458 C1462 1.350 . S
C1459 C1462 1.463 . S
C1459 C1464 1.350 . S
C1459 N1467 1.427 . S
C1460 H1451 0.930 . S
C1460 C1458 1.378 . S
C1460 C1461 1.367 . S
C1461 C1460 1.367 . S
C1461 C1463 1.433 . S
C1462 C1458 1.350 . S
C1462 C1459 1.463 . S
C1462 N1466 1.427 . S
C1463 H1453 0.929 . S
C1463 C1461 1.433 . S
C1463 N1466 1.384 . S
C1464 H1455 0.929 . S
C1464 C1456 1.378 . S
C1464 C1459 1.350 . S
C1465 H1452 0.929 . S
C1465 C1457 1.433 . S
C1465 N1467 1.384 . S
N1466 C1462 1.427 . S
N1466 C1463 1.384 . S
N1467 C1459 1.427 . S
N1467 C1465 1.384 . S
H1468 C1474 0.930 . S
H1469 C1478 0.930 . S
H1470 C1483 0.929 . S
H1471 C1481 0.929 . S
H1472 C1476 0.929 . S
H1473 C1482 0.929 . S
C1474 H1468 0.930 . S
C1474 C1475 1.367 . S
C1474 C1482 1.378 . S
C1475 C1474 1.367 . S
C1475 C1483 1.433 . S
C1476 H1472 0.929 . S
C1476 C1478 1.378 . S
C1476 C1480 1.350 . S
C1477 C1480 1.463 . S
C1477 C1482 1.350 . S
C1477 N1485 1.427 . S
C1478 H1469 0.930 . S
C1478 C1476 1.378 . S
C1478 C1479 1.367 . S
C1479 C1478 1.367 . S
C1479 C1481 1.433 . S
C1480 C1476 1.350 . S
C1480 C1477 1.463 . S
C1480 N1484 1.427 . S
C1481 H1471 0.929 . S
C1481 C1479 1.433 . S
C1481 N1484 1.384 . S
C1482 H1473 0.929 . S
C1482 C1474 1.378 . S
C1482 C1477 1.350 . S
C1483 H1470 0.929 . S
C1483 C1475 1.433 . S
C1483 N1485 1.384 . S
N1484 C1480 1.427 . S
N1484 C1481 1.384 . S
N1485 C1477 1.427 . S
N1485 C1483 1.384 . S
H1486 C1492 0.930 . S
H1487 C1496 0.930 . S
H1488 C1501 0.929 . S
H1489 C1499 0.929 . S
H1490 C1494 0.929 . S
H1491 C1500 0.929 . S
C1492 H1486 0.930 . S
C1492 C1493 1.367 . S
C1492 C1500 1.378 . S
C1493 C1492 1.367 . S
C1493 C1501 1.433 . S
C1494 H1490 0.929 . S
C1494 C1496 1.378 . S
C1494 C1498 1.350 . S
C1495 C1498 1.463 . S
C1495 C1500 1.350 . S
C1495 N1503 1.427 . S
C1496 H1487 0.930 . S
C1496 C1494 1.378 . S
C1496 C1497 1.367 . S
C1497 C1496 1.367 . S
C1497 C1499 1.433 . S
C1498 C1494 1.350 . S
C1498 C1495 1.463 . S
C1498 N1502 1.427 . S
C1499 H1489 0.929 . S
C1499 C1497 1.433 . S
C1499 N1502 1.384 . S
C1500 H1491 0.929 . S
C1500 C1492 1.378 . S
C1500 C1495 1.350 . S
C1501 H1488 0.929 . S
C1501 C1493 1.433 . S
C1501 N1503 1.384 . S
N1502 C1498 1.427 . S
N1502 C1499 1.384 . S
N1503 C1495 1.427 . S
N1503 C1501 1.384 . S
C647 C139 1.258 . S
C651 C9 1.266 . S
C665 C6 1.365 . S
C669 C46 1.375 . S
C683 C98 1.391 . S
C687 C59 1.388 . S
C701 C126 1.107 . S
C705 C90 1.120 . S
C719 C175 1.353 . S
C723 C206 1.314 . S
C737 C209 1.526 . S
C741 C258 1.461 . S
C755 C255 1.068 . S
C759 C290 1.085 . S
C773 C178 1.378 . S
C777 C298 1.381 . S
C791 C379 3.912 . S
C795 C19 3.872 . S
C809 C410 1.246 . S
C813 C49 1.283 . S
C827 C95 1.248 . S
C831 C535 1.271 . S
C845 C330 1.335 . S
C849 C129 1.298 . S
C863 C449 1.304 . S
C867 C170 1.327 . S
C881 C579 3.873 . S
C885 C219 3.909 . S
C899 C250 1.252 . S
C903 C489 1.281 . S
C917 C615 1.258 . S
C921 C295 1.272 . S
C935 C338 1.376 . S
C939 C538 1.380 . S
C953 C366 1.317 . S
C957 C335 1.352 . S
C971 C418 1.461 . S
C975 C369 1.521 . S
C989 C569 1.266 . S
C993 C459 1.258 . S
C1007 C499 1.383 . S
C1011 C618 1.386 . S
C1025 C450 1.266 . S
C1029 C18 1.274 . S
C1043 C495 1.371 . S
C1047 C15 1.361 . S
C1061 C490 1.380 . S
C1065 C89 1.384 . S
C1079 C99 1.106 . S
C1083 C455 1.092 . S
C1097 C375 1.316 . S
C1101 C166 1.351 . S
C1115 C378 1.526 . S
C1119 C249 1.451 . S
C1133 C539 1.085 . S
C1137 C246 1.068 . S
C1151 C169 1.379 . S
C1155 C529 1.385 . S
C1169 C210 3.912 . S
C1173 C10 3.873 . S
C1187 C419 1.244 . S
C1191 C498 1.279 . S
C1205 C86 1.257 . S
C1209 C286 1.272 . S
C1223 C339 1.336 . S
C1227 C458 1.295 . S
C1241 C138 1.303 . S
C1245 C179 1.334 . S
C1259 C370 3.912 . S
C1263 C570 3.873 . S
C1277 C259 1.244 . S
C1281 C58 1.282 . S
C1295 C606 1.248 . S
C1299 C526 1.271 . S
C1313 C329 1.379 . S
C1317 C289 1.383 . S
C1331 C326 1.347 . S
C1335 C215 1.310 . S
C1349 C409 1.464 . S
C1353 C218 1.524 . S
C1367 C130 1.258 . S
C1371 C578 1.266 . S
C1385 C50 1.388 . S
C1389 C609 1.390 . S
C1403 C486 1.372 . S
C1407 C566 1.362 . S
C1421 C446 1.092 . S
C1425 C610 1.109 . S
C1439 C415 1.080 . S
C1443 C530 1.084 . S
C1457 C575 1.354 . S
C1461 C55 1.364 . S
C1475 C135 1.107 . S
C1479 C619 1.120 . S
C1493 C299 1.078 . S
C1497 C406 1.071 . S
