# Generated by pormake.
# Topology uop, (4)-cn, num edge types: 1
# Building blocks:
#     Node 0, Type 0, BuildingBlock: QUQFOY_clean_sbu_1, # of connection points: 4
#     Node 1, Type 0, BuildingBlock: QUQFOY_clean_sbu_1, # of connection points: 4
#     Node 2, Type 0, BuildingBlock: QUQFOY_clean_sbu_1, # of connection points: 4
#     Node 3, Type 0, BuildingBlock: QUQFOY_clean_sbu_1, # of connection points: 4
#     Node 4, Type 0, BuildingBlock: QUQFOY_clean_sbu_1, # of connection points: 4
#     Node 5, Type 0, BuildingBlock: QUQFOY_clean_sbu_1, # of connection points: 4
#     Node 6, Type 0, BuildingBlock: QUQFOY_clean_sbu_1, # of connection points: 4
#     Node 7, Type 0, BuildingBlock: QUQFOY_clean_sbu_1, # of connection points: 4
#     Node 8, Type 0, BuildingBlock: QUQFOY_clean_sbu_1, # of connection points: 4
#     Node 9, Type 0, BuildingBlock: QUQFOY_clean_sbu_1, # of connection points: 4
#     Node 10, Type 0, BuildingBlock: QUQFOY_clean_sbu_1, # of connection points: 4
#     Node 11, Type 0, BuildingBlock: QUQFOY_clean_sbu_1, # of connection points: 4
#     Edge 12, Type (0, 0), BuildingBlock: UVAHIK_clean_linker_0, # of connection points: 2
#     Edge 13, Type (0, 0), BuildingBlock: UVAHIK_clean_linker_0, # of connection points: 2
#     Edge 14, Type (0, 0), BuildingBlock: UVAHIK_clean_linker_0, # of connection points: 2
#     Edge 15, Type (0, 0), BuildingBlock: UVAHIK_clean_linker_0, # of connection points: 2
#     Edge 16, Type (0, 0), BuildingBlock: UVAHIK_clean_linker_0, # of connection points: 2
#     Edge 17, Type (0, 0), BuildingBlock: UVAHIK_clean_linker_0, # of connection points: 2
#     Edge 18, Type (0, 0), BuildingBlock: UVAHIK_clean_linker_0, # of connection points: 2
#     Edge 19, Type (0, 0), BuildingBlock: UVAHIK_clean_linker_0, # of connection points: 2
#     Edge 20, Type (0, 0), BuildingBlock: UVAHIK_clean_linker_0, # of connection points: 2
#     Edge 21, Type (0, 0), BuildingBlock: UVAHIK_clean_linker_0, # of connection points: 2
#     Edge 22, Type (0, 0), BuildingBlock: UVAHIK_clean_linker_0, # of connection points: 2
#     Edge 23, Type (0, 0), BuildingBlock: UVAHIK_clean_linker_0, # of connection points: 2
#     Edge 24, Type (0, 0), BuildingBlock: UVAHIK_clean_linker_0, # of connection points: 2
#     Edge 25, Type (0, 0), BuildingBlock: UVAHIK_clean_linker_0, # of connection points: 2
#     Edge 26, Type (0, 0), BuildingBlock: UVAHIK_clean_linker_0, # of connection points: 2
#     Edge 27, Type (0, 0), BuildingBlock: UVAHIK_clean_linker_0, # of connection points: 2
#     Edge 28, Type (0, 0), BuildingBlock: UVAHIK_clean_linker_0, # of connection points: 2
#     Edge 29, Type (0, 0), BuildingBlock: UVAHIK_clean_linker_0, # of connection points: 2
#     Edge 30, Type (0, 0), BuildingBlock: UVAHIK_clean_linker_0, # of connection points: 2
#     Edge 31, Type (0, 0), BuildingBlock: UVAHIK_clean_linker_0, # of connection points: 2
#     Edge 32, Type (0, 0), BuildingBlock: UVAHIK_clean_linker_0, # of connection points: 2
#     Edge 33, Type (0, 0), BuildingBlock: UVAHIK_clean_linker_0, # of connection points: 2
#     Edge 34, Type (0, 0), BuildingBlock: UVAHIK_clean_linker_0, # of connection points: 2
#     Edge 35, Type (0, 0), BuildingBlock: UVAHIK_clean_linker_0, # of connection points: 2
# Relax obj value: 0.097
# Max RMSD: 0.124
# Mean RMSD: 0.124
data_MOF--net-uop--node1-QUQFOY_clean_sbu_1--edge1-UVAHIK_clean_linker_0
_symmetry_space_group_name_H-M    P1
_symmetry_Int_Tables_number       1
_symmetry_cell_setting            triclinic
loop_
_symmetry_equiv_pos_as_xyz
'x, y, z'
_cell_length_a     42.121091
_cell_length_b     42.115869
_cell_length_c     69.569554
_cell_angle_alpha  90.032459
_cell_angle_beta   89.979909
_cell_angle_gamma 119.98621
loop_
_atom_site_label
_atom_site_type_symbol
_atom_site_fract_x
_atom_site_fract_y
_atom_site_fract_z
_atom_type_partial_charge
O0 O 0.23103 0.43014 0.19919 0.0
Cd1 Cd 0.23627 0.38443 0.20142 0.0
Cd2 Cd 0.27109 0.41893 0.23464 0.0
O3 O 0.25176 0.45474 0.22774 0.0
O4 O 0.20186 0.35026 0.18187 0.0
O5 O 0.19566 0.33803 0.21301 0.0
C6 C 0.18355 0.3284 0.19569 0.0
C7 C 0.27139 0.39684 0.26563 0.0
C8 C 0.23811 0.45522 0.21144 0.0
C9 C 0.31529 0.41077 0.20241 0.0
O10 O 0.31482 0.42453 0.21859 0.0
O11 O 0.28594 0.39155 0.19308 0.0
O12 O 0.29237 0.43081 0.26113 0.0
O13 O 0.24784 0.37574 0.25295 0.0
O14 O 0.80172 0.23623 0.53189 0.0
Cd15 Cd 0.85205 0.24033 0.53468 0.0
Cd16 Cd 0.85368 0.27723 0.56689 0.0
O17 O 0.79866 0.25876 0.56003 0.0
O18 O 0.85017 0.20203 0.51735 0.0
O19 O 0.85717 0.20158 0.54887 0.0
C20 C 0.85354 0.18603 0.53236 0.0
C21 C 0.87592 0.27847 0.59805 0.0
C22 C 0.78425 0.24449 0.54387 0.0
C23 C 0.90613 0.31856 0.53406 0.0
O24 O 0.89238 0.31941 0.55019 0.0
O25 O 0.89515 0.28857 0.5252 0.0
O26 O 0.8639 0.30003 0.59305 0.0
O27 O 0.87267 0.25396 0.58577 0.0
O28 O 0.5647 0.80003 0.86671 0.0
Cd29 Cd 0.61086 0.85063 0.86893 0.0
Cd30 Cd 0.57637 0.85138 0.90214 0.0
O31 O 0.5402 0.79631 0.89528 0.0
O32 O 0.64468 0.84972 0.84938 0.0
O33 O 0.65699 0.85571 0.88051 0.0
C34 C 0.66646 0.853 0.86319 0.0
C35 C 0.59838 0.87427 0.93307 0.0
C36 C 0.53956 0.7822 0.87894 0.0
C37 C 0.58536 0.90392 0.86983 0.0
O38 O 0.57132 0.88965 0.88595 0.0
O39 O 0.60448 0.8936 0.86054 0.0
O40 O 0.56445 0.86138 0.92849 0.0
O41 O 0.6194 0.87123 0.92055 0.0
O42 O 0.76453 0.56607 0.19968 0.0
Cd43 Cd 0.75929 0.61179 0.20146 0.0
Cd44 Cd 0.72231 0.5777 0.23413 0.0
O45 O 0.74073 0.54091 0.22772 0.0
O46 O 0.79722 0.64784 0.18387 0.0
O47 O 0.79717 0.65686 0.21522 0.0
C48 C 0.81269 0.66824 0.19866 0.0
C49 C 0.72029 0.59876 0.26518 0.0
C50 C 0.75579 0.54056 0.21186 0.0
C51 C 0.68084 0.58708 0.20074 0.0
O52 O 0.68023 0.57385 0.21723 0.0
O53 O 0.71064 0.60514 0.19159 0.0
O54 O 0.69895 0.56515 0.26014 0.0
O55 O 0.74505 0.62001 0.25303 0.0
O56 O 0.19471 0.76498 0.53323 0.0
Cd57 Cd 0.14385 0.75994 0.53514 0.0
Cd58 Cd 0.14051 0.72174 0.56736 0.0
O59 O 0.19561 0.7399 0.56092 0.0
O60 O 0.14603 0.79822 0.51772 0.0
O61 O 0.13687 0.79785 0.54907 0.0
C62 C 0.14115 0.81359 0.53257 0.0
C63 C 0.11762 0.71932 0.59851 0.0
C64 C 0.21122 0.75554 0.5452 0.0
C65 C 0.08989 0.68151 0.53371 0.0
O66 O 0.10224 0.68025 0.55018 0.0
O67 O 0.10187 0.71166 0.52487 0.0
O68 O 0.12953 0.6978 0.59322 0.0
O69 O 0.12127 0.74438 0.58653 0.0
O70 O 0.4273 0.19666 0.86673 0.0
Cd71 Cd 0.38165 0.14558 0.8684 0.0
Cd72 Cd 0.41559 0.14409 0.90186 0.0
O73 O 0.45185 0.19919 0.89513 0.0
O74 O 0.34792 0.1463 0.84873 0.0
O75 O 0.33483 0.13917 0.87978 0.0
C76 C 0.3256 0.14211 0.86245 0.0
C77 C 0.39424 0.1216 0.93295 0.0
C78 C 0.45243 0.214 0.87904 0.0
C79 C 0.40768 0.09257 0.86916 0.0
O80 O 0.42072 0.10594 0.88558 0.0
O81 O 0.38923 0.10347 0.85971 0.0
O82 O 0.42803 0.13434 0.92814 0.0
O83 O 0.37292 0.12433 0.92054 0.0
O84 O 0.56194 0.76216 0.49344 0.0
Cd85 Cd 0.60883 0.75893 0.49173 0.0
Cd86 Cd 0.57486 0.72235 0.45833 0.0
O87 O 0.53767 0.74012 0.46497 0.0
O88 O 0.64135 0.79393 0.51158 0.0
O89 O 0.65507 0.80065 0.48062 0.0
C90 C 0.66361 0.81277 0.498 0.0
C91 C 0.59631 0.72085 0.42732 0.0
C92 C 0.53668 0.7539 0.48115 0.0
C93 C 0.5853 0.6805 0.49114 0.0
O94 O 0.57136 0.68005 0.47488 0.0
O95 O 0.60347 0.71015 0.50041 0.0
O96 O 0.56267 0.69934 0.43222 0.0
O97 O 0.61729 0.74565 0.43954 0.0
O98 O 0.7982 0.56319 0.82739 0.0
Cd99 Cd 0.8488 0.60931 0.82536 0.0
Cd100 Cd 0.85154 0.57462 0.79292 0.0
O101 O 0.79637 0.53782 0.79934 0.0
O102 O 0.84645 0.64501 0.84305 0.0
O103 O 0.85505 0.65412 0.81169 0.0
C104 C 0.85086 0.66531 0.8283 0.0
C105 C 0.87488 0.59612 0.76199 0.0
C106 C 0.78126 0.53756 0.81529 0.0
C107 C 0.90291 0.58509 0.82623 0.0
O108 O 0.88989 0.5711 0.80991 0.0
O109 O 0.89136 0.60355 0.83517 0.0
O110 O 0.86277 0.56248 0.7669 0.0
O111 O 0.87098 0.61711 0.77417 0.0
O112 O 0.22954 0.79828 0.16009 0.0
Cd113 Cd 0.23571 0.8497 0.15867 0.0
Cd114 Cd 0.27129 0.85128 0.12541 0.0
O115 O 0.25161 0.79584 0.13168 0.0
O116 O 0.2011 0.84905 0.17823 0.0
O117 O 0.19586 0.8569 0.14719 0.0
C118 C 0.18339 0.85374 0.16447 0.0
C119 C 0.27255 0.87526 0.09473 0.0
C120 C 0.23707 0.78085 0.1477 0.0
C121 C 0.31494 0.90179 0.15839 0.0
O122 O 0.31468 0.88852 0.14195 0.0
O123 O 0.28546 0.89124 0.16767 0.0
O124 O 0.29335 0.86198 0.09908 0.0
O125 O 0.24857 0.87212 0.10733 0.0
O126 O 0.43028 0.22995 0.49166 0.0
Cd127 Cd 0.38489 0.23592 0.49053 0.0
Cd128 Cd 0.41853 0.27167 0.45713 0.0
O129 O 0.45468 0.25242 0.46329 0.0
O130 O 0.35177 0.20171 0.51046 0.0
O131 O 0.33741 0.19575 0.47958 0.0
C132 C 0.32881 0.1837 0.49698 0.0
C133 C 0.39565 0.27296 0.4265 0.0
C134 C 0.45526 0.23778 0.47925 0.0
C135 C 0.41179 0.31517 0.49023 0.0
O136 O 0.42456 0.31495 0.47372 0.0
O137 O 0.39315 0.2857 0.49956 0.0
O138 O 0.42971 0.29387 0.43085 0.0
O139 O 0.37494 0.24884 0.43907 0.0
O140 O 0.19701 0.431 0.82613 0.0
Cd141 Cd 0.14579 0.38564 0.82442 0.0
Cd142 Cd 0.14303 0.42048 0.79209 0.0
O143 O 0.19838 0.45683 0.79831 0.0
O144 O 0.14751 0.34954 0.84204 0.0
O145 O 0.13801 0.34024 0.81074 0.0
C146 C 0.14221 0.32892 0.8273 0.0
C147 C 0.11916 0.39897 0.76123 0.0
C148 C 0.21386 0.45669 0.81405 0.0
C149 C 0.09279 0.41135 0.82572 0.0
O150 O 0.10534 0.42479 0.80925 0.0
O151 O 0.10426 0.39279 0.83461 0.0
O152 O 0.13169 0.4327 0.76612 0.0
O153 O 0.12291 0.37786 0.77338 0.0
O154 O 0.76284 0.19612 0.16076 0.0
Cd155 Cd 0.75838 0.14554 0.15856 0.0
Cd156 Cd 0.72179 0.14313 0.12596 0.0
O157 O 0.73986 0.19818 0.13259 0.0
O158 O 0.79635 0.14751 0.17615 0.0
O159 O 0.79683 0.13936 0.14473 0.0
C160 C 0.81219 0.14325 0.16131 0.0
C161 C 0.72062 0.12057 0.09489 0.0
C162 C 0.75433 0.21314 0.14862 0.0
C163 C 0.68014 0.09127 0.15896 0.0
O164 O 0.67955 0.10444 0.14262 0.0
O165 O 0.70992 0.10283 0.1681 0.0
O166 O 0.699 0.13257 0.09982 0.0
O167 O 0.74518 0.12408 0.10718 0.0
C168 C 0.23703 0.72216 0.13985 0.0
C169 C 0.23177 0.74433 0.15309 0.0
C170 C 0.23469 0.68919 0.14578 0.0
C171 C 0.20421 0.62283 0.18721 0.0
H172 H 0.27018 0.59461 0.16411 0.0
C173 C 0.23598 0.51297 0.21888 0.0
C174 C 0.23333 0.48654 0.2056 0.0
C175 C 0.23369 0.54349 0.21265 0.0
C176 C 0.25152 0.60212 0.17065 0.0
H177 H 0.21967 0.74882 0.183 0.0
H178 H 0.21699 0.69284 0.19334 0.0
H179 H 0.2696 0.64882 0.15238 0.0
H180 H 0.22592 0.47158 0.17535 0.0
H181 H 0.2227 0.5248 0.16464 0.0
H182 H 0.18725 0.57657 0.20593 0.0
C183 C 0.22179 0.69992 0.17825 0.0
C184 C 0.2509 0.63306 0.16381 0.0
C185 C 0.22359 0.73242 0.17229 0.0
C186 C 0.22798 0.49121 0.18604 0.0
C187 C 0.22636 0.52187 0.17983 0.0
C188 C 0.20534 0.59226 0.19426 0.0
C189 C 0.22753 0.67784 0.16516 0.0
C190 C 0.22723 0.64394 0.17198 0.0
C191 C 0.22945 0.54847 0.193 0.0
C192 C 0.22891 0.58154 0.18601 0.0
H193 H 0.24329 0.73044 0.12495 0.0
H194 H 0.23863 0.6727 0.13515 0.0
H195 H 0.18501 0.62967 0.19366 0.0
H196 H 0.24015 0.51025 0.23402 0.0
H197 H 0.23621 0.56369 0.2231 0.0
C198 C 0.73887 0.23534 0.51825 0.0
C199 C 0.74839 0.24009 0.53788 0.0
C200 C 0.70653 0.23346 0.51194 0.0
C201 C 0.61428 0.20965 0.52593 0.0
H202 H 0.62091 0.27453 0.48463 0.0
C203 C 0.49028 0.22415 0.50372 0.0
C204 C 0.48678 0.23293 0.48461 0.0
C205 C 0.52134 0.22309 0.50974 0.0
C206 C 0.6183 0.25566 0.49589 0.0
H207 H 0.73072 0.2458 0.56629 0.0
H208 H 0.67318 0.24134 0.5552 0.0
H209 H 0.67633 0.27662 0.49656 0.0
H210 H 0.51295 0.24621 0.45666 0.0
H211 H 0.5667 0.24283 0.46695 0.0
H212 H 0.5563 0.18761 0.52494 0.0
C213 C 0.6913 0.2395 0.54478 0.0
C214 C 0.65019 0.25715 0.50285 0.0
C215 C 0.7242 0.24211 0.55111 0.0
C216 C 0.51477 0.23944 0.47149 0.0
C217 C 0.54579 0.23786 0.47748 0.0
C218 C 0.58227 0.20765 0.51875 0.0
C219 C 0.68246 0.23565 0.52508 0.0
C220 C 0.64854 0.23433 0.51801 0.0
C221 C 0.54978 0.23021 0.4968 0.0
C222 C 0.58378 0.23086 0.50372 0.0
H223 H 0.75683 0.23386 0.5076 0.0
H224 H 0.70026 0.23016 0.49672 0.0
H225 H 0.61218 0.19136 0.53743 0.0
H226 H 0.46952 0.21924 0.51434 0.0
H227 H 0.52342 0.21784 0.52479 0.0
C228 C 0.503 0.7367 0.85341 0.0
C229 C 0.50798 0.74632 0.87302 0.0
C230 C 0.47219 0.70464 0.84713 0.0
C231 C 0.40222 0.61299 0.86108 0.0
H232 H 0.34477 0.62167 0.81999 0.0
C233 C 0.26239 0.4911 0.83868 0.0
C234 C 0.25024 0.488 0.81957 0.0
C235 C 0.29475 0.52177 0.8448 0.0
C236 C 0.36078 0.61847 0.8312 0.0
H237 H 0.48466 0.72898 0.90147 0.0
H238 H 0.43094 0.67191 0.89043 0.0
H239 H 0.39897 0.67624 0.83194 0.0
H240 H 0.26353 0.51453 0.79172 0.0
H241 H 0.32107 0.56757 0.80216 0.0
H242 H 0.36513 0.55523 0.86 0.0
C243 C 0.45102 0.68976 0.87999 0.0
C244 C 0.39169 0.64989 0.83817 0.0
C245 C 0.48169 0.72239 0.88629 0.0
C246 C 0.27201 0.51605 0.80655 0.0
C247 C 0.30487 0.54667 0.81263 0.0
C248 C 0.37168 0.58144 0.85389 0.0
C249 C 0.44575 0.68093 0.86029 0.0
C250 C 0.4126 0.6475 0.85324 0.0
C251 C 0.31647 0.5502 0.83194 0.0
C252 C 0.35026 0.58369 0.83893 0.0
H253 H 0.52251 0.75443 0.84272 0.0
H254 H 0.46902 0.69834 0.83191 0.0
H255 H 0.41817 0.61032 0.87252 0.0
H256 H 0.24627 0.47029 0.84923 0.0
H257 H 0.30203 0.52354 0.85984 0.0
C258 C 0.76818 0.50498 0.18715 0.0
C259 C 0.76037 0.50893 0.20639 0.0
C260 C 0.76957 0.47407 0.18116 0.0
C261 C 0.74038 0.37812 0.19571 0.0
H262 H 0.80352 0.3848 0.1534 0.0
C263 C 0.76427 0.25958 0.1738 0.0
C264 C 0.75853 0.24908 0.15432 0.0
C265 C 0.76555 0.29178 0.1799 0.0
C266 C 0.78556 0.38253 0.16513 0.0
H267 H 0.74896 0.48367 0.23455 0.0
H268 H 0.75297 0.43023 0.22429 0.0
H269 H 0.80585 0.44025 0.16557 0.0
H270 H 0.75059 0.26498 0.12589 0.0
H271 H 0.75399 0.32228 0.13657 0.0
H272 H 0.72123 0.3204 0.1956 0.0
C273 C 0.75692 0.45063 0.21366 0.0
C274 C 0.78673 0.41429 0.17212 0.0
C275 C 0.75495 0.48147 0.21962 0.0
C276 C 0.75507 0.27226 0.14097 0.0
C277 C 0.75706 0.30502 0.14707 0.0
C278 C 0.73974 0.3465 0.18894 0.0
C279 C 0.76381 0.44626 0.19425 0.0
C280 C 0.76393 0.41257 0.18743 0.0
C281 C 0.76176 0.31474 0.16666 0.0
C282 C 0.76216 0.34835 0.17352 0.0
H283 H 0.77215 0.5253 0.17645 0.0
H284 H 0.77413 0.47164 0.16605 0.0
H285 H 0.72184 0.37531 0.20722 0.0
H286 H 0.76691 0.24245 0.18455 0.0
H287 H 0.76956 0.29877 0.19503 0.0
C288 C 0.47853 0.75506 0.47341 0.0
C289 C 0.50463 0.75757 0.48685 0.0
C290 C 0.4476 0.75677 0.47949 0.0
C291 C 0.38739 0.73719 0.52096 0.0
H292 H 0.36187 0.80603 0.49908 0.0
C293 C 0.26879 0.75317 0.55259 0.0
C294 C 0.2473 0.75993 0.53961 0.0
C295 C 0.30136 0.75482 0.54646 0.0
C296 C 0.36811 0.78616 0.5052 0.0
H297 H 0.51846 0.76382 0.51724 0.0
H298 H 0.46453 0.76597 0.52768 0.0
H299 H 0.41476 0.80352 0.48671 0.0
H300 H 0.24349 0.77389 0.50998 0.0
H301 H 0.29875 0.77539 0.49927 0.0
H302 H 0.34036 0.7188 0.53902 0.0
C303 C 0.46806 0.76296 0.51248 0.0
C304 C 0.39856 0.78487 0.49809 0.0
C305 C 0.49912 0.76196 0.50642 0.0
C306 C 0.25942 0.76884 0.52048 0.0
C307 C 0.29149 0.76995 0.51432 0.0
C308 C 0.35657 0.73797 0.52785 0.0
C309 C 0.44187 0.7602 0.49914 0.0
C310 C 0.40861 0.76051 0.50597 0.0
C311 C 0.31293 0.76276 0.52714 0.0
C312 C 0.34647 0.76256 0.52012 0.0
H313 H 0.48191 0.75162 0.45825 0.0
H314 H 0.42772 0.75454 0.46891 0.0
H315 H 0.39441 0.71794 0.52722 0.0
H316 H 0.26033 0.74631 0.56743 0.0
H317 H 0.31737 0.74979 0.5569 0.0
C318 C 0.48807 0.26155 0.85416 0.0
C319 C 0.48402 0.25015 0.87346 0.0
C320 C 0.51909 0.29363 0.84807 0.0
C321 C 0.61517 0.35997 0.86257 0.0
H322 H 0.60933 0.41602 0.81984 0.0
C323 C 0.73457 0.5015 0.84041 0.0
C324 C 0.74521 0.50598 0.82095 0.0
C325 C 0.70222 0.47081 0.8465 0.0
C326 C 0.61136 0.40043 0.83168 0.0
H327 H 0.5092 0.2645 0.90164 0.0
H328 H 0.56284 0.32154 0.89121 0.0
H329 H 0.55355 0.36345 0.83211 0.0
H330 H 0.72943 0.48185 0.79257 0.0
H331 H 0.67185 0.42833 0.80325 0.0
H332 H 0.67298 0.39806 0.86247 0.0
C333 C 0.54242 0.30496 0.8806 0.0
C334 C 0.57941 0.37016 0.83873 0.0
C335 C 0.51146 0.27239 0.88666 0.0
C336 C 0.72204 0.47927 0.80763 0.0
C337 C 0.68912 0.44872 0.81373 0.0
C338 C 0.64698 0.39061 0.85574 0.0
C339 C 0.54693 0.3158 0.86113 0.0
C340 C 0.58083 0.34926 0.85421 0.0
C341 C 0.67924 0.44399 0.83329 0.0
C342 C 0.64543 0.41104 0.84017 0.0
H343 H 0.46775 0.24505 0.84348 0.0
H344 H 0.52161 0.30033 0.83292 0.0
H345 H 0.61775 0.34433 0.8742 0.0
H346 H 0.75169 0.52134 0.85115 0.0
H347 H 0.69511 0.46806 0.86162 0.0
C348 C 0.61781 0.57729 0.2026 0.0
C349 C 0.64592 0.57783 0.19158 0.0
C350 C 0.58246 0.56184 0.19517 0.0
C351 C 0.5123 0.53632 0.17043 0.0
H352 H 0.47292 0.43116 0.1735 0.0
C353 C 0.35708 0.42956 0.17412 0.0
C354 C 0.35078 0.4205 0.19373 0.0
C355 C 0.39264 0.44575 0.16669 0.0
C356 C 0.48364 0.46037 0.17196 0.0
H357 H 0.66001 0.56421 0.16402 0.0
H358 H 0.5972 0.53526 0.15132 0.0
H359 H 0.53943 0.47243 0.17229 0.0
H360 H 0.3756 0.4185 0.22061 0.0
H361 H 0.43756 0.44535 0.20741 0.0
H362 H 0.45652 0.52431 0.1713 0.0
C363 C 0.60297 0.54787 0.16542 0.0
C364 C 0.5215 0.4839 0.17123 0.0
C365 C 0.63869 0.5644 0.17266 0.0
C366 C 0.37989 0.42526 0.20546 0.0
C367 C 0.41514 0.44041 0.19791 0.0
C368 C 0.47443 0.51276 0.1707 0.0
C369 C 0.57457 0.54582 0.17683 0.0
C370 C 0.536 0.52202 0.1714 0.0
C371 C 0.42189 0.45182 0.17867 0.0
C372 C 0.46002 0.47479 0.17238 0.0
H373 H 0.62287 0.5874 0.21726 0.0
H374 H 0.56073 0.56004 0.20428 0.0
H375 H 0.52308 0.56568 0.17079 0.0
H376 H 0.335 0.42644 0.16487 0.0
H377 H 0.39755 0.45481 0.15186 0.0
C378 C 0.07133 0.64073 0.50507 0.0
C379 C 0.06461 0.64694 0.5241 0.0
C380 C 0.05281 0.60531 0.49739 0.0
C381 C 0.03712 0.52429 0.50234 0.0
H382 H 0.93215 0.45735 0.50186 0.0
C383 C 0.95794 0.38246 0.53605 0.0
C384 C 0.93204 0.35335 0.52484 0.0
C385 C 0.97781 0.4175 0.52822 0.0
C386 C 0.96151 0.4758 0.50138 0.0
H387 H 0.03163 0.62236 0.54949 0.0
H388 H -0.002 0.56073 0.53574 0.0
H389 H 0.95582 0.52365 0.50185 0.0
H390 H 0.90742 0.33724 0.49658 0.0
H391 H 0.94117 0.39944 0.48312 0.0
H392 H 0.04269 0.47647 0.50429 0.0
C393 C 0.01783 0.58303 0.5269 0.0
C394 C 0.97495 0.51355 0.50141 0.0
C395 C 0.03708 0.6181 0.53477 0.0
C396 C 0.9276 0.35933 0.5054 0.0
C397 C 0.94674 0.39471 0.49772 0.0
C398 C 0.02366 0.48656 0.50278 0.0
C399 C 0.02658 0.57617 0.50847 0.0
C400 C 0.01278 0.53794 0.50262 0.0
C401 C 0.97134 0.42407 0.50925 0.0
C402 C 0.98576 0.46218 0.50304 0.0
H403 H 0.09281 0.66261 0.4967 0.0
H404 H 0.06014 0.60035 0.48323 0.0
H405 H 0.0664 0.54276 0.50357 0.0
H406 H 0.96165 0.3784 0.55108 0.0
H407 H 0.99636 0.43998 0.5374 0.0
C408 C 0.42939 0.07183 0.84114 0.0
C409 C 0.41764 0.06709 0.86037 0.0
C410 C 0.44623 0.05289 0.83396 0.0
C411 C 0.51219 0.03736 0.83983 0.0
H412 H 0.47215 0.93203 0.83932 0.0
C413 C 0.57229 0.95497 0.87288 0.0
C414 C 0.57599 0.92992 0.86116 0.0
C415 C 0.5572 0.97522 0.86547 0.0
C416 C 0.4836 0.96149 0.83886 0.0
H417 H 0.41148 0.03722 0.88672 0.0
H418 H 0.43944 0.00284 0.87388 0.0
H419 H 0.43059 0.95703 0.83939 0.0
H420 H 0.56828 0.90712 0.83247 0.0
H421 H 0.53997 0.94155 0.81972 0.0
H422 H 0.56506 0.0417 0.84168 0.0
C423 C 0.43608 0.0215 0.86451 0.0
C424 C 0.45991 0.97567 0.83893 0.0
C425 C 0.42029 0.04117 0.87185 0.0
C426 C 0.56599 0.92663 0.84168 0.0
C427 C 0.54984 0.94615 0.83441 0.0
C428 C 0.53584 0.02315 0.84022 0.0
C429 C 0.45028 0.02819 0.84577 0.0
C430 C 0.47411 0.01362 0.84009 0.0
C431 C 0.54475 0.96998 0.8464 0.0
C432 C 0.52158 0.98513 0.84042 0.0
H433 H 0.42794 0.09204 0.83212 0.0
H434 H 0.45745 0.05861 0.81954 0.0
H435 H 0.52354 0.06673 0.84104 0.0
H436 H 0.57978 0.95783 0.88794 0.0
H437 H 0.55302 0.9932 0.87498 0.0
C438 C 0.5751 0.61735 0.48845 0.0
C439 C 0.57695 0.64554 0.49996 0.0
C440 C 0.56087 0.58212 0.4959 0.0
C441 C 0.53954 0.51255 0.52029 0.0
H442 H 0.43412 0.47211 0.52198 0.0
C443 C 0.43314 0.35692 0.51856 0.0
C444 C 0.42207 0.35054 0.49922 0.0
C445 C 0.44995 0.3925 0.52603 0.0
C446 C 0.46352 0.48315 0.52221 0.0
H447 H 0.56695 0.65988 0.52836 0.0
H448 H 0.54012 0.5973 0.54115 0.0
H449 H 0.47496 0.53875 0.52251 0.0
H450 H 0.41713 0.3752 0.47291 0.0
H451 H 0.44506 0.43717 0.48623 0.0
H452 H 0.52795 0.45694 0.51874 0.0
C453 C 0.55075 0.60292 0.52661 0.0
C454 C 0.48681 0.52107 0.52254 0.0
C455 C 0.56606 0.63851 0.51931 0.0
C456 C 0.42544 0.37956 0.48787 0.0
C457 C 0.44121 0.41481 0.49548 0.0
C458 C 0.51629 0.47462 0.52041 0.0
C459 C 0.54741 0.57444 0.51479 0.0
C460 C 0.52482 0.53593 0.52062 0.0
C461 C 0.45462 0.42165 0.51437 0.0
C462 C 0.47815 0.45984 0.52044 0.0
H463 H 0.5833 0.62224 0.47349 0.0
H464 H 0.55804 0.56033 0.48649 0.0
H465 H 0.56878 0.5236 0.51858 0.0
H466 H 0.43112 0.33491 0.52749 0.0
H467 H 0.46057 0.3975 0.54057 0.0
C468 C 0.95586 0.57476 0.82438 0.0
C469 C 0.92897 0.57644 0.83548 0.0
C470 C 0.97628 0.56014 0.83214 0.0
C471 C 0.02275 0.53752 0.85725 0.0
H472 H 0.95715 0.43216 0.85741 0.0
C473 C 0.07338 0.43294 0.85433 0.0
C474 C 0.06745 0.42077 0.83516 0.0
C475 C 0.05436 0.44931 0.86202 0.0
C476 C 0.97565 0.46151 0.85807 0.0
H477 H 0.90304 0.56571 0.86348 0.0
H478 H 0.93778 0.53818 0.87679 0.0
H479 H 0.93177 0.47336 0.8578 0.0
H480 H 0.03547 0.41336 0.80947 0.0
H481 H 0.001 0.44046 0.82322 0.0
H482 H 0.06657 0.52561 0.85628 0.0
C483 C 0.94369 0.54927 0.86235 0.0
C484 C 0.96125 0.485 0.85832 0.0
C485 C 0.92398 0.56498 0.85476 0.0
C486 C 0.04034 0.4225 0.8243 0.0
C487 C 0.02061 0.43779 0.83217 0.0
C488 C 0.03717 0.51404 0.85747 0.0
C489 C 0.96938 0.5461 0.85091 0.0
C490 C 0.98469 0.52305 0.85694 0.0
C491 C 0.02842 0.45245 0.85081 0.0
C492 C 0.01364 0.47593 0.8569 0.0
H493 H 0.96002 0.58338 0.80948 0.0
H494 H 0.99567 0.55744 0.82302 0.0
H495 H 0.04118 0.5668 0.85597 0.0
H496 H 0.09451 0.43219 0.86286 0.0
H497 H 0.06096 0.46089 0.87636 0.0
C498 C 0.35672 0.92222 0.18669 0.0
C499 C 0.35032 0.92688 0.16734 0.0
C500 C 0.39231 0.941 0.19413 0.0
C501 C 0.47418 0.95647 0.18887 0.0
H502 H 0.53892 0.06186 0.18997 0.0
C503 C 0.61693 0.03837 0.15665 0.0
C504 C 0.64524 0.06504 0.16797 0.0
C505 C 0.58172 0.01782 0.16418 0.0
C506 C 0.52107 0.03238 0.19028 0.0
H507 H 0.37495 0.95638 0.14102 0.0
H508 H 0.43693 0.99044 0.1543 0.0
H509 H 0.47237 0.03654 0.18939 0.0
H510 H 0.65979 0.09042 0.19612 0.0
H511 H 0.59722 0.05544 0.20903 0.0
H512 H 0.52291 0.95244 0.18738 0.0
C513 C 0.41459 0.97197 0.16356 0.0
C514 C 0.48319 0.01801 0.18992 0.0
C515 C 0.37933 0.95247 0.15597 0.0
C516 C 0.63832 0.06966 0.18723 0.0
C517 C 0.60274 0.04982 0.19459 0.0
C518 C 0.51206 0.97086 0.18878 0.0
C519 C 0.42146 0.96544 0.18246 0.0
C520 C 0.45965 0.98005 0.18852 0.0
C521 C 0.57415 0.02436 0.18294 0.0
C522 C 0.53567 0.00893 0.18876 0.0
H523 H 0.33471 0.90227 0.19563 0.0
H524 H 0.39731 0.9354 0.20867 0.0
H525 H 0.45633 0.92711 0.18749 0.0
H526 H 0.62174 0.03449 0.14175 0.0
H527 H 0.55985 -0.00139 0.1549 0.0
C528 C 0.25506 0.34513 0.28909 0.0
C529 C 0.27722 0.38218 0.28394 0.0
C530 C 0.26364 0.3308 0.30523 0.0
C531 C 0.32374 0.35958 0.34916 0.0
H532 H 0.30983 0.26146 0.34606 0.0
C533 C 0.40171 0.31189 0.39802 0.0
C534 C 0.38035 0.27971 0.4087 0.0
C535 C 0.38635 0.32159 0.38292 0.0
C536 C 0.3136 0.2888 0.34716 0.0
H537 H 0.3255 0.43326 0.29199 0.0
H538 H 0.34095 0.40844 0.31946 0.0
H539 H 0.28733 0.28426 0.32012 0.0
H540 H 0.32636 0.23159 0.41118 0.0
H541 H 0.29977 0.24814 0.38422 0.0
H542 H 0.35146 0.36456 0.37578 0.0
C543 C 0.31634 0.39035 0.31151 0.0
C544 C 0.30052 0.30188 0.33236 0.0
C545 C 0.30755 0.40468 0.29557 0.0
C546 C 0.3436 0.25652 0.40324 0.0
C547 C 0.32835 0.26598 0.38783 0.0
C548 C 0.33731 0.34674 0.36372 0.0
C549 C 0.2948 0.3531 0.31652 0.0
C550 C 0.30588 0.33773 0.33299 0.0
C551 C 0.34938 0.29911 0.37786 0.0
C552 C 0.33283 0.31142 0.36279 0.0
H553 H 0.23149 0.327 0.28043 0.0
H554 H 0.24596 0.30216 0.30873 0.0
H555 H 0.32756 0.38687 0.35058 0.0
H556 H 0.43006 0.33048 0.40179 0.0
H557 H 0.40332 0.34707 0.37535 0.0
C558 C 0.90447 0.31533 0.62779 0.0
C559 C 0.8961 0.28445 0.61648 0.0
C560 C 0.92716 0.32401 0.6439 0.0
C561 C -0.00219 0.30654 0.66593 0.0
H562 H 0.98582 0.35849 0.7088 0.0
C563 C 0.08423 0.3479 0.73734 0.0
C564 C 0.09758 0.3844 0.74322 0.0
C565 C 0.06003 0.33329 0.7217 0.0
C566 C 0.9896 0.3441 0.6969 0.0
H567 H 0.90418 0.23772 0.61371 0.0
H568 H 0.94278 0.25208 0.6423 0.0
H569 H 0.9406 0.3354 0.68311 0.0
H570 H 0.09671 0.4344 0.73679 0.0
H571 H 0.05436 0.40881 0.70987 0.0
H572 H 0.04664 0.31483 0.68024 0.0
C573 C 0.93255 0.27022 0.63841 0.0
C574 C 0.96374 0.33096 0.68206 0.0
C575 C 0.91005 0.26171 0.62211 0.0
C576 C 0.08708 0.4062 0.73271 0.0
C577 C 0.06256 0.39149 0.71734 0.0
C578 C 0.02344 0.31923 0.68099 0.0
C579 C 0.9419 0.30184 0.64941 0.0
C580 C 0.96779 0.31267 0.66611 0.0
C581 C 0.04825 0.35473 0.71185 0.0
C582 C 0.01998 0.33881 0.69644 0.0
H583 H 0.89455 0.33371 0.62383 0.0
H584 H 0.9341 0.34897 0.65163 0.0
H585 H 0.00227 0.29299 0.65387 0.0
H586 H 0.09169 0.33033 0.74514 0.0
H587 H 0.04943 0.30486 0.71777 0.0
C588 C 0.65004 0.90977 0.95654 0.0
C589 C 0.61323 0.89577 0.95108 0.0
C590 C 0.6649 0.93418 0.9721 0.0
C591 C 0.65402 0.00446 0.99681 0.0
H592 H 0.70629 0.99336 0.03973 0.0
C593 C 0.68354 0.0913 0.06532 0.0
C594 C 0.71458 0.10007 0.07656 0.0
C595 C 0.67476 0.06825 0.04935 0.0
C596 C 0.69242 0.99739 0.02769 0.0
H597 H 0.56297 0.89564 0.95817 0.0
H598 H 0.58901 0.93842 0.9849 0.0
H599 H 0.68416 0.94829 0.01366 0.0
H600 H 0.7615 0.09232 0.07934 0.0
H601 H 0.74698 0.0531 0.05098 0.0
H602 H 0.6627 0.05373 1.01028 0.0
C603 C 0.60635 0.93052 0.97719 0.0
C604 C 0.67956 0.97136 1.01281 0.0
C605 C 0.59139 0.90577 0.96193 0.0
C606 C 0.73738 0.08615 0.071 0.0
C607 C 0.72879 0.0633 0.05482 0.0
C608 C 0.66734 0.03074 1.01145 0.0
C609 C 0.64341 0.94555 0.98223 0.0
C610 C 0.65955 0.97424 0.99743 0.0
C611 C 0.69699 0.05354 0.04391 0.0
C612 C 0.68604 0.02724 0.02737 0.0
H613 H 0.66765 0.90271 0.94848 0.0
H614 H 0.69356 0.94535 0.97568 0.0
H615 H 0.63928 0.00777 0.98494 0.0
H616 H 0.66509 0.10117 0.06924 0.0
H617 H 0.64967 0.06101 0.04169 0.0
C618 C 0.58932 0.68191 0.39865 0.0
C619 C 0.611 0.71411 0.40926 0.0
C620 C 0.60423 0.67219 0.38332 0.0
C621 C 0.67715 0.70534 0.34734 0.0
H622 H 0.66097 0.60634 0.34962 0.0
C623 C 0.73628 0.64963 0.28916 0.0
C624 C 0.71376 0.61294 0.28348 0.0
C625 C 0.72729 0.6636 0.30532 0.0
C626 C 0.66542 0.63391 0.34852 0.0
H627 H 0.66505 0.76225 0.41139 0.0
H628 H 0.69085 0.74562 0.38411 0.0
H629 H 0.63729 0.62842 0.37505 0.0
H630 H 0.66437 0.5621 0.29057 0.0
H631 H 0.64829 0.58633 0.3181 0.0
H632 H 0.70402 0.71046 0.32041 0.0
C633 C 0.66236 0.7278 0.38791 0.0
C634 C 0.65193 0.64661 0.36321 0.0
C635 C 0.64757 0.7373 0.40351 0.0
C636 C 0.6826 0.5904 0.29458 0.0
C637 C 0.67343 0.60437 0.31054 0.0
C638 C 0.69019 0.69242 0.33242 0.0
C639 C 0.64106 0.69463 0.37799 0.0
C640 C 0.65723 0.68228 0.36269 0.0
C641 C 0.69539 0.64128 0.31611 0.0
C642 C 0.68409 0.65629 0.33265 0.0
H643 H 0.56109 0.66333 0.40263 0.0
H644 H 0.587 0.64672 0.37579 0.0
H645 H 0.68157 0.73294 0.34654 0.0
H646 H 0.76048 0.66778 0.28093 0.0
H647 H 0.74527 0.69197 0.30926 0.0
C648 C 0.08346 0.73549 0.62287 0.0
C649 C 0.09725 0.71278 0.61692 0.0
C650 C 0.0609 0.72658 0.63918 0.0
C651 C 0.0295 0.66467 0.68233 0.0
H652 H 0.9469 0.68133 0.68117 0.0
C653 C 0.90667 0.58909 0.73326 0.0
C654 C 0.89623 0.61079 0.74392 0.0
C655 C 0.93104 0.60392 0.71783 0.0
C656 C 0.97002 0.67677 0.68174 0.0
H657 H 0.09842 0.66311 0.62369 0.0
H658 H 0.05879 0.64719 0.6515 0.0
H659 H 0.99118 0.70361 0.65476 0.0
H660 H 0.90205 0.66482 0.74605 0.0
H661 H 0.94406 0.69051 0.71861 0.0
H662 H 0.00746 0.63662 0.70894 0.0
C663 C 0.0659 0.67241 0.64402 0.0
C664 C 0.99559 0.68971 0.66665 0.0
C665 C 0.08863 0.68148 0.6279 0.0
C666 C 0.90947 0.64732 0.73814 0.0
C667 C 0.93352 0.66205 0.72245 0.0
C668 C 0.0037 0.65131 0.6972 0.0
C669 C 0.05135 0.69458 0.64986 0.0
C670 C 0.02549 0.68341 0.66659 0.0
C671 C 0.94527 0.64071 0.71245 0.0
C672 C 0.97343 0.65679 0.69698 0.0
H673 H 0.08952 0.7598 0.61473 0.0
H674 H 0.05081 0.74472 0.64333 0.0
H675 H 0.05255 0.66008 0.68319 0.0
H676 H 0.89711 0.56088 0.73726 0.0
H677 H 0.93919 0.58666 0.71024 0.0
C678 C 0.31118 0.90748 0.06604 0.0
C679 C 0.27922 0.89709 0.07685 0.0
C680 C 0.32081 0.9323 0.05083 0.0
C681 C 0.28767 0.97234 0.01519 0.0
H682 H 0.38643 0.05547 0.01763 0.0
C683 C 0.34321 0.08671 0.95684 0.0
C684 C 0.38001 0.10113 0.9513 0.0
C685 C 0.32923 0.06391 0.97304 0.0
C686 C 0.35893 0.03226 0.01648 0.0
H687 H 0.23142 0.90349 0.07946 0.0
H688 H 0.24785 0.94623 0.05234 0.0
H689 H 0.36445 0.00965 0.04302 0.0
H690 H 0.43101 0.10316 0.95869 0.0
H691 H 0.40677 0.06307 0.98627 0.0
H692 H 0.28255 0.99397 0.98824 0.0
C693 C 0.26557 0.93532 0.05592 0.0
C694 C 0.34629 0.00607 0.03115 0.0
C695 C 0.25618 0.91085 0.07143 0.0
C696 C 0.40262 0.0929 0.96259 0.0
C697 C 0.38864 0.06989 0.97858 0.0
C698 C 0.30055 -0.00171 1.00028 0.0
C699 C 0.29849 0.94699 0.04579 0.0
C700 C 0.31071 0.97559 0.03057 0.0
C701 C 0.35163 0.05468 0.984 0.0
C702 C 0.33661 0.02843 1.00057 0.0
H703 H 0.32965 0.89755 0.06978 0.0
H704 H 0.34611 0.94045 0.04314 0.0
H705 H 0.26014 0.94906 0.01435 0.0
H706 H 0.325 0.09245 0.94846 0.0
H707 H 0.30078 0.05333 0.97686 0.0
C708 C 0.86381 0.14952 0.18163 0.0
C709 C 0.84826 0.14565 0.16331 0.0
C710 C 0.89998 0.15741 0.18363 0.0
C711 C 0.98586 0.205 0.15719 0.0
H712 H 0.02382 0.17761 0.20104 0.0
C713 C 0.1392 0.28216 0.17266 0.0
C714 C 0.14834 0.29487 0.19165 0.0
C715 C 0.10385 0.25437 0.1681 0.0
C716 C 0.01363 0.18546 0.18871 0.0
H717 H 0.85752 0.14429 0.13273 0.0
H718 H 0.92084 0.15786 0.13622 0.0
H719 H 0.95796 0.14454 0.19452 0.0
H720 H 0.12846 0.28678 0.22098 0.0
H721 H 0.06634 0.23881 0.21298 0.0
H722 H 0.04095 0.24687 0.15179 0.0
C723 C 0.90514 0.15534 0.14904 0.0
C724 C 0.97595 0.16651 0.18495 0.0
C725 C 0.86885 0.14742 0.14704 0.0
C726 C 0.12216 0.27755 0.20621 0.0
C727 C 0.08661 0.24992 0.20162 0.0
C728 C 0.0234 0.22388 0.16093 0.0
C729 C 0.92145 0.16158 0.16734 0.0
C730 C 0.96157 0.17679 0.16945 0.0
C731 C 0.07674 0.23895 0.1824 0.0
C732 C 0.03765 0.21501 0.17701 0.0
H733 H 0.8486 0.14808 0.19447 0.0
H734 H 0.9117 0.16238 0.19792 0.0
H735 H 0.97574 0.21409 0.14533 0.0
H736 H 0.159 0.29462 0.16116 0.0
H737 H 0.09737 0.24597 0.15323 0.0
C738 C 0.84697 0.1339 0.51236 0.0
C739 C 0.85019 0.1495 0.53062 0.0
C740 C 0.83792 0.09735 0.51051 0.0
C741 C 0.78612 0.01156 0.53663 0.0
H742 H 0.81475 0.97192 0.49398 0.0
C743 C 0.7078 0.85782 0.52154 0.0
C744 C 0.69646 0.84835 0.50238 0.0
C745 C 0.73527 0.89324 0.52623 0.0
C746 C 0.80651 0.98259 0.50597 0.0
H747 H 0.84918 0.13986 0.56129 0.0
H748 H 0.83357 0.07587 0.55806 0.0
H749 H 0.84898 0.03778 0.50049 0.0
H750 H 0.70652 0.86784 0.47295 0.0
H751 H 0.754 0.93009 0.48118 0.0
H752 H 0.74281 0.95695 0.54168 0.0
C753 C 0.83751 0.09184 0.54517 0.0
C754 C 0.82613 0.02026 0.50972 0.0
C755 C 0.84662 0.12852 0.54702 0.0
C756 C 0.71469 0.87437 0.48785 0.0
C757 C 0.74203 0.90999 0.49257 0.0
C758 C 0.76657 0.97402 0.53289 0.0
C759 C 0.8319 0.07555 0.52689 0.0
C760 C 0.81554 0.03526 0.5248 0.0
C761 C 0.75179 0.92011 0.5119 0.0
C762 C 0.77594 0.95918 0.51724 0.0
H763 H 0.84978 0.14941 0.49943 0.0
H764 H 0.8335 0.08565 0.49623 0.0
H765 H 0.77677 0.0222 0.54814 0.0
H766 H 0.69462 0.83818 0.53304 0.0
H767 H 0.74271 0.89991 0.5412 0.0
C768 C 0.84646 0.71778 0.8142 0.0
C769 C 0.84828 0.69887 0.8304 0.0
C770 C 0.83839 0.74604 0.81631 0.0
C771 C 0.82717 0.80541 0.8524 0.0
H772 H 0.74689 0.79041 0.81927 0.0
C773 C 0.71682 0.84166 0.8737 0.0
C774 C 0.6997 0.85076 0.85914 0.0
C775 C 0.74418 0.83333 0.86911 0.0
C776 C 0.76985 0.79574 0.8284 0.0
H777 H 0.84575 0.69647 0.86156 0.0
H778 H 0.83124 0.74512 0.86519 0.0
H779 H 0.77952 0.75782 0.81273 0.0
H780 H 0.69999 0.8616 0.82864 0.0
H781 H 0.74818 0.84792 0.82071 0.0
H782 H 0.81623 0.84226 0.86855 0.0
C783 C 0.83627 0.73852 0.85087 0.0
C784 C 0.78864 0.77699 0.82462 0.0
C785 C 0.84428 0.71033 0.84877 0.0
C786 C 0.71231 0.8541 0.84014 0.0
C787 C 0.73983 0.84613 0.83558 0.0
C788 C 0.80831 0.82423 0.85619 0.0
C789 C 0.83208 0.75592 0.83464 0.0
C790 C 0.81685 0.78081 0.83686 0.0
C791 C 0.75507 0.83426 0.84989 0.0
C792 C 0.77881 0.81886 0.84451 0.0
H793 H 0.84967 0.70974 0.79986 0.0
H794 H 0.83585 0.75931 0.80354 0.0
H795 H 0.84913 0.8093 0.86195 0.0
H796 H 0.70765 0.8389 0.88847 0.0
H797 H 0.75515 0.82404 0.88047 0.0
C798 C 0.8642 0.71379 0.17836 0.0
C799 C 0.84858 0.70212 0.19667 0.0
C800 C 0.9003 0.74223 0.17639 0.0
C801 C 0.98599 0.7807 0.20295 0.0
H802 H 0.02414 0.84599 0.15908 0.0
C803 C 0.13928 0.85603 0.18752 0.0
C804 C 0.1484 0.85252 0.16852 0.0
C805 C 0.10402 0.84878 0.19208 0.0
C806 C 0.0139 0.82796 0.17142 0.0
H807 H 0.85761 0.71292 0.22724 0.0
H808 H 0.92081 0.7629 0.2238 0.0
H809 H 0.95826 0.81324 0.16553 0.0
H810 H 0.12862 0.84118 0.13917 0.0
H811 H 0.06664 0.82749 0.14716 0.0
H812 H 0.04102 0.79381 0.2084 0.0
C813 C 0.90522 0.74962 0.21097 0.0
C814 C 0.97621 0.80927 0.17514 0.0
C815 C 0.86899 0.72111 0.21294 0.0
C816 C 0.12233 0.84406 0.15394 0.0
C817 C 0.08685 0.8364 0.15853 0.0
C818 C 0.02354 0.7993 0.19924 0.0
C819 C 0.92163 0.75967 0.1927 0.0
C820 C 0.96175 0.78463 0.19064 0.0
C821 C 0.07696 0.8374 0.17777 0.0
C822 C 0.03787 0.8224 0.18314 0.0
H823 H 0.84911 0.69989 0.16551 0.0
H824 H 0.91211 0.74898 0.16212 0.0
H825 H 0.97581 0.76149 0.21481 0.0
H826 H 0.15901 0.86306 0.19903 0.0
H827 H 0.09756 0.85065 0.20696 0.0
C828 C 0.14568 0.87028 0.54704 0.0
C829 C 0.14341 0.84962 0.53071 0.0
C830 C 0.15375 0.90663 0.54512 0.0
C831 C 0.16464 0.97764 0.50942 0.0
H832 H 0.24682 0.04203 0.54176 0.0
C833 C 0.27658 0.12265 0.48705 0.0
C834 C 0.29511 0.14892 0.50143 0.0
C835 C 0.24865 0.08741 0.49195 0.0
C836 C 0.22334 0.02468 0.53286 0.0
H837 H 0.14495 0.84984 0.49953 0.0
H838 H 0.15943 0.91303 0.49621 0.0
H839 H 0.2133 0.97691 0.54844 0.0
H840 H 0.29678 0.16015 0.53196 0.0
H841 H 0.24759 0.09913 0.54043 0.0
H842 H 0.17593 0.02557 0.49334 0.0
C843 C 0.15479 0.90133 0.51049 0.0
C844 C 0.20403 0.98719 0.53673 0.0
C845 C 0.14681 0.86512 0.51241 0.0
C846 C 0.28336 0.14025 0.52059 0.0
C847 C 0.25527 0.10524 0.52545 0.0
C848 C 0.184 0.01527 0.50554 0.0
C849 C 0.15958 0.9229 0.52683 0.0
C850 C 0.17516 0.96308 0.52473 0.0
C851 C 0.23858 0.07797 0.51131 0.0
C852 C 0.21423 0.03907 0.51692 0.0
H853 H 0.14293 0.85899 0.56133 0.0
H854 H 0.15677 0.92243 0.55797 0.0
H855 H 0.14218 0.95979 0.50006 0.0
H856 H 0.28506 0.12859 0.47216 0.0
H857 H 0.23658 0.06702 0.48069 0.0
C858 C 0.14517 0.2757 0.8131 0.0
C859 C 0.14387 0.29486 0.82934 0.0
C860 C 0.15263 0.24702 0.81514 0.0
C861 C 0.16345 0.18726 0.85113 0.0
H862 H 0.24374 0.20216 0.81801 0.0
C863 C 0.2744 0.15227 0.87276 0.0
C864 C 0.29199 0.14355 0.85828 0.0
C865 C 0.24668 0.16001 0.86805 0.0
C866 C 0.22075 0.19683 0.82713 0.0
H867 H 0.14652 0.29718 0.8605 0.0
H868 H 0.15997 0.24779 0.864 0.0
H869 H 0.21105 0.23464 0.81142 0.0
H870 H 0.29215 0.13267 0.82781 0.0
H871 H 0.2433 0.14524 0.81968 0.0
H872 H 0.17444 0.15054 0.86733 0.0
C873 C 0.15502 0.25454 0.84971 0.0
C874 C 0.20193 0.21552 0.82332 0.0
C875 C 0.14763 0.28316 0.84768 0.0
C876 C 0.27946 0.1399 0.83925 0.0
C877 C 0.25156 0.14724 0.83458 0.0
C878 C 0.18232 0.16848 0.85495 0.0
C879 C 0.15882 0.23695 0.83344 0.0
C880 C 0.17377 0.21181 0.83558 0.0
C881 C 0.23587 0.15883 0.84879 0.0
C882 C 0.21188 0.17386 0.84329 0.0
H883 H 0.14212 0.28392 0.79879 0.0
H884 H 0.15488 0.23362 0.80234 0.0
H885 H 0.14152 0.18344 0.86069 0.0
H886 H 0.28349 0.15526 0.88756 0.0
H887 H 0.23537 0.16909 0.87936 0.0
loop_
_geom_bond_atom_site_label_1
_geom_bond_atom_site_label_2
_geom_bond_distance
_geom_bond_site_symmetry_2
_ccdc_geom_bond_type
O0 Cd1 2.223 . S
O0 C8 1.315 . S
Cd1 O0 2.223 . S
Cd1 O4 2.297 . S
Cd1 O5 2.439 . S
Cd1 O11 2.240 . S
Cd2 O3 2.240 . S
Cd2 O10 2.223 . S
Cd2 O12 2.297 . S
Cd2 O13 2.439 . S
O3 Cd2 2.240 . S
O3 C8 1.279 . S
O4 Cd1 2.297 . S
O4 C6 1.247 . S
O5 Cd1 2.439 . S
O5 C6 1.208 . S
C6 O4 1.247 . S
C6 O5 1.208 . S
C7 O12 1.247 . S
C7 O13 1.208 . S
C8 O0 1.315 . S
C8 O3 1.279 . S
C9 O10 1.315 . S
C9 O11 1.279 . S
O10 Cd2 2.223 . S
O10 C9 1.315 . S
O11 Cd1 2.240 . S
O11 C9 1.279 . S
O12 Cd2 2.297 . S
O12 C7 1.247 . S
O13 Cd2 2.439 . S
O13 C7 1.208 . S
O14 Cd15 2.223 . S
O14 C22 1.315 . S
Cd15 O14 2.223 . S
Cd15 O18 2.297 . S
Cd15 O19 2.439 . S
Cd15 O25 2.240 . S
Cd16 O17 2.240 . S
Cd16 O24 2.223 . S
Cd16 O26 2.297 . S
Cd16 O27 2.439 . S
O17 Cd16 2.240 . S
O17 C22 1.279 . S
O18 Cd15 2.297 . S
O18 C20 1.247 . S
O19 Cd15 2.439 . S
O19 C20 1.208 . S
C20 O18 1.247 . S
C20 O19 1.208 . S
C21 O26 1.247 . S
C21 O27 1.208 . S
C22 O14 1.315 . S
C22 O17 1.279 . S
C23 O24 1.315 . S
C23 O25 1.279 . S
O24 Cd16 2.223 . S
O24 C23 1.315 . S
O25 Cd15 2.240 . S
O25 C23 1.279 . S
O26 Cd16 2.297 . S
O26 C21 1.247 . S
O27 Cd16 2.439 . S
O27 C21 1.208 . S
O28 Cd29 2.223 . S
O28 C36 1.315 . S
Cd29 O28 2.223 . S
Cd29 O32 2.297 . S
Cd29 O33 2.439 . S
Cd29 O39 2.240 . S
Cd30 O31 2.240 . S
Cd30 O38 2.223 . S
Cd30 O40 2.297 . S
Cd30 O41 2.439 . S
O31 Cd30 2.240 . S
O31 C36 1.279 . S
O32 Cd29 2.297 . S
O32 C34 1.247 . S
O33 Cd29 2.439 . S
O33 C34 1.208 . S
C34 O32 1.247 . S
C34 O33 1.208 . S
C35 O40 1.247 . S
C35 O41 1.208 . S
C36 O28 1.315 . S
C36 O31 1.279 . S
C37 O38 1.315 . S
C37 O39 1.279 . S
O38 Cd30 2.223 . S
O38 C37 1.315 . S
O39 Cd29 2.240 . S
O39 C37 1.279 . S
O40 Cd30 2.297 . S
O40 C35 1.247 . S
O41 Cd30 2.439 . S
O41 C35 1.208 . S
O42 Cd43 2.223 . S
O42 C50 1.315 . S
Cd43 O42 2.223 . S
Cd43 O46 2.297 . S
Cd43 O47 2.439 . S
Cd43 O53 2.240 . S
Cd44 O45 2.240 . S
Cd44 O52 2.223 . S
Cd44 O54 2.297 . S
Cd44 O55 2.439 . S
O45 Cd44 2.240 . S
O45 C50 1.279 . S
O46 Cd43 2.297 . S
O46 C48 1.247 . S
O47 Cd43 2.439 . S
O47 C48 1.208 . S
C48 O46 1.247 . S
C48 O47 1.208 . S
C49 O54 1.247 . S
C49 O55 1.208 . S
C50 O42 1.315 . S
C50 O45 1.279 . S
C51 O52 1.315 . S
C51 O53 1.279 . S
O52 Cd44 2.223 . S
O52 C51 1.315 . S
O53 Cd43 2.240 . S
O53 C51 1.279 . S
O54 Cd44 2.297 . S
O54 C49 1.247 . S
O55 Cd44 2.439 . S
O55 C49 1.208 . S
O56 Cd57 2.223 . S
O56 C64 1.315 . S
Cd57 O56 2.223 . S
Cd57 O60 2.297 . S
Cd57 O61 2.439 . S
Cd57 O67 2.240 . S
Cd58 O59 2.240 . S
Cd58 O66 2.223 . S
Cd58 O68 2.297 . S
Cd58 O69 2.439 . S
O59 Cd58 2.240 . S
O59 C64 1.279 . S
O60 Cd57 2.297 . S
O60 C62 1.247 . S
O61 Cd57 2.439 . S
O61 C62 1.208 . S
C62 O60 1.247 . S
C62 O61 1.208 . S
C63 O68 1.247 . S
C63 O69 1.208 . S
C64 O56 1.315 . S
C64 O59 1.279 . S
C65 O66 1.315 . S
C65 O67 1.279 . S
O66 Cd58 2.223 . S
O66 C65 1.315 . S
O67 Cd57 2.240 . S
O67 C65 1.279 . S
O68 Cd58 2.297 . S
O68 C63 1.247 . S
O69 Cd58 2.439 . S
O69 C63 1.208 . S
O70 Cd71 2.223 . S
O70 C78 1.315 . S
Cd71 O70 2.223 . S
Cd71 O74 2.297 . S
Cd71 O75 2.439 . S
Cd71 O81 2.240 . S
Cd72 O73 2.240 . S
Cd72 O80 2.223 . S
Cd72 O82 2.297 . S
Cd72 O83 2.439 . S
O73 Cd72 2.240 . S
O73 C78 1.279 . S
O74 Cd71 2.297 . S
O74 C76 1.247 . S
O75 Cd71 2.439 . S
O75 C76 1.208 . S
C76 O74 1.247 . S
C76 O75 1.208 . S
C77 O82 1.247 . S
C77 O83 1.208 . S
C78 O70 1.315 . S
C78 O73 1.279 . S
C79 O80 1.315 . S
C79 O81 1.279 . S
O80 Cd72 2.223 . S
O80 C79 1.315 . S
O81 Cd71 2.240 . S
O81 C79 1.279 . S
O82 Cd72 2.297 . S
O82 C77 1.247 . S
O83 Cd72 2.439 . S
O83 C77 1.208 . S
O84 Cd85 2.223 . S
O84 C92 1.315 . S
Cd85 O84 2.223 . S
Cd85 O88 2.297 . S
Cd85 O89 2.439 . S
Cd85 O95 2.240 . S
Cd86 O87 2.240 . S
Cd86 O94 2.223 . S
Cd86 O96 2.297 . S
Cd86 O97 2.439 . S
O87 Cd86 2.240 . S
O87 C92 1.279 . S
O88 Cd85 2.297 . S
O88 C90 1.247 . S
O89 Cd85 2.439 . S
O89 C90 1.208 . S
C90 O88 1.247 . S
C90 O89 1.208 . S
C91 O96 1.247 . S
C91 O97 1.208 . S
C92 O84 1.315 . S
C92 O87 1.279 . S
C93 O94 1.315 . S
C93 O95 1.279 . S
O94 Cd86 2.223 . S
O94 C93 1.315 . S
O95 Cd85 2.240 . S
O95 C93 1.279 . S
O96 Cd86 2.297 . S
O96 C91 1.247 . S
O97 Cd86 2.439 . S
O97 C91 1.208 . S
O98 Cd99 2.223 . S
O98 C106 1.315 . S
Cd99 O98 2.223 . S
Cd99 O102 2.297 . S
Cd99 O103 2.439 . S
Cd99 O109 2.240 . S
Cd100 O101 2.240 . S
Cd100 O108 2.223 . S
Cd100 O110 2.297 . S
Cd100 O111 2.439 . S
O101 Cd100 2.240 . S
O101 C106 1.279 . S
O102 Cd99 2.297 . S
O102 C104 1.247 . S
O103 Cd99 2.439 . S
O103 C104 1.208 . S
C104 O102 1.247 . S
C104 O103 1.208 . S
C105 O110 1.247 . S
C105 O111 1.208 . S
C106 O98 1.315 . S
C106 O101 1.279 . S
C107 O108 1.315 . S
C107 O109 1.279 . S
O108 Cd100 2.223 . S
O108 C107 1.315 . S
O109 Cd99 2.240 . S
O109 C107 1.279 . S
O110 Cd100 2.297 . S
O110 C105 1.247 . S
O111 Cd100 2.439 . S
O111 C105 1.208 . S
O112 Cd113 2.223 . S
O112 C120 1.315 . S
Cd113 O112 2.223 . S
Cd113 O116 2.297 . S
Cd113 O117 2.439 . S
Cd113 O123 2.240 . S
Cd114 O115 2.240 . S
Cd114 O122 2.223 . S
Cd114 O124 2.297 . S
Cd114 O125 2.439 . S
O115 Cd114 2.240 . S
O115 C120 1.279 . S
O116 Cd113 2.297 . S
O116 C118 1.247 . S
O117 Cd113 2.439 . S
O117 C118 1.208 . S
C118 O116 1.247 . S
C118 O117 1.208 . S
C119 O124 1.247 . S
C119 O125 1.208 . S
C120 O112 1.315 . S
C120 O115 1.279 . S
C121 O122 1.315 . S
C121 O123 1.279 . S
O122 Cd114 2.223 . S
O122 C121 1.315 . S
O123 Cd113 2.240 . S
O123 C121 1.279 . S
O124 Cd114 2.297 . S
O124 C119 1.247 . S
O125 Cd114 2.439 . S
O125 C119 1.208 . S
O126 Cd127 2.223 . S
O126 C134 1.315 . S
Cd127 O126 2.223 . S
Cd127 O130 2.297 . S
Cd127 O131 2.439 . S
Cd127 O137 2.240 . S
Cd128 O129 2.240 . S
Cd128 O136 2.223 . S
Cd128 O138 2.297 . S
Cd128 O139 2.439 . S
O129 Cd128 2.240 . S
O129 C134 1.279 . S
O130 Cd127 2.297 . S
O130 C132 1.247 . S
O131 Cd127 2.439 . S
O131 C132 1.208 . S
C132 O130 1.247 . S
C132 O131 1.208 . S
C133 O138 1.247 . S
C133 O139 1.208 . S
C134 O126 1.315 . S
C134 O129 1.279 . S
C135 O136 1.315 . S
C135 O137 1.279 . S
O136 Cd128 2.223 . S
O136 C135 1.315 . S
O137 Cd127 2.240 . S
O137 C135 1.279 . S
O138 Cd128 2.297 . S
O138 C133 1.247 . S
O139 Cd128 2.439 . S
O139 C133 1.208 . S
O140 Cd141 2.223 . S
O140 C148 1.315 . S
Cd141 O140 2.223 . S
Cd141 O144 2.297 . S
Cd141 O145 2.439 . S
Cd141 O151 2.240 . S
Cd142 O143 2.240 . S
Cd142 O150 2.223 . S
Cd142 O152 2.297 . S
Cd142 O153 2.439 . S
O143 Cd142 2.240 . S
O143 C148 1.279 . S
O144 Cd141 2.297 . S
O144 C146 1.247 . S
O145 Cd141 2.439 . S
O145 C146 1.208 . S
C146 O144 1.247 . S
C146 O145 1.208 . S
C147 O152 1.247 . S
C147 O153 1.208 . S
C148 O140 1.315 . S
C148 O143 1.279 . S
C149 O150 1.315 . S
C149 O151 1.279 . S
O150 Cd142 2.223 . S
O150 C149 1.315 . S
O151 Cd141 2.240 . S
O151 C149 1.279 . S
O152 Cd142 2.297 . S
O152 C147 1.247 . S
O153 Cd142 2.439 . S
O153 C147 1.208 . S
O154 Cd155 2.223 . S
O154 C162 1.315 . S
Cd155 O154 2.223 . S
Cd155 O158 2.297 . S
Cd155 O159 2.439 . S
Cd155 O165 2.240 . S
Cd156 O157 2.240 . S
Cd156 O164 2.223 . S
Cd156 O166 2.297 . S
Cd156 O167 2.439 . S
O157 Cd156 2.240 . S
O157 C162 1.279 . S
O158 Cd155 2.297 . S
O158 C160 1.247 . S
O159 Cd155 2.439 . S
O159 C160 1.208 . S
C160 O158 1.247 . S
C160 O159 1.208 . S
C161 O166 1.247 . S
C161 O167 1.208 . S
C162 O154 1.315 . S
C162 O157 1.279 . S
C163 O164 1.315 . S
C163 O165 1.279 . S
O164 Cd156 2.223 . S
O164 C163 1.315 . S
O165 Cd155 2.240 . S
O165 C163 1.279 . S
O166 Cd156 2.297 . S
O166 C161 1.247 . S
O167 Cd156 2.439 . S
O167 C161 1.208 . S
C168 C169 1.349 . S
C168 C170 1.327 . S
C168 H193 0.950 . S
C169 C168 1.349 . S
C169 C185 1.349 . S
C170 C168 1.327 . S
C170 C189 1.429 . S
C170 H194 0.950 . S
C171 C188 1.574 . S
C171 C190 1.368 . S
C171 H195 0.949 . S
H172 C176 0.949 . S
C173 C174 1.349 . S
C173 C175 1.327 . S
C173 H196 0.950 . S
C174 C173 1.349 . S
C174 C186 1.349 . S
C175 C173 1.327 . S
C175 C191 1.429 . S
C175 H197 0.950 . S
C176 H172 0.949 . S
C176 C184 1.574 . S
C176 C192 1.368 . S
H177 C185 0.950 . S
H178 C183 0.950 . S
H179 C184 0.949 . S
H180 C186 0.950 . S
H181 C187 0.950 . S
H182 C188 0.949 . S
C183 H178 0.950 . S
C183 C185 1.327 . S
C183 C189 1.429 . S
C184 C176 1.574 . S
C184 H179 0.949 . S
C184 C190 1.368 . S
C185 C169 1.349 . S
C185 H177 0.950 . S
C185 C183 1.327 . S
C186 C174 1.349 . S
C186 H180 0.950 . S
C186 C187 1.327 . S
C187 H181 0.950 . S
C187 C186 1.327 . S
C187 C191 1.429 . S
C188 C171 1.574 . S
C188 H182 0.949 . S
C188 C192 1.368 . S
C189 C170 1.429 . S
C189 C183 1.429 . S
C189 C190 1.523 . S
C190 C171 1.368 . S
C190 C184 1.368 . S
C190 C189 1.523 . S
C191 C175 1.429 . S
C191 C187 1.429 . S
C191 C192 1.523 . S
C192 C176 1.368 . S
C192 C188 1.368 . S
C192 C191 1.523 . S
H193 C168 0.950 . S
H194 C170 0.950 . S
H195 C171 0.949 . S
H196 C173 0.950 . S
H197 C175 0.950 . S
C198 C199 1.349 . S
C198 C200 1.327 . S
C198 H223 0.950 . S
C199 C198 1.349 . S
C199 C215 1.349 . S
C200 C198 1.327 . S
C200 C219 1.429 . S
C200 H224 0.950 . S
C201 C218 1.574 . S
C201 C220 1.368 . S
C201 H225 0.949 . S
H202 C206 0.949 . S
C203 C204 1.349 . S
C203 C205 1.327 . S
C203 H226 0.950 . S
C204 C203 1.349 . S
C204 C216 1.349 . S
C205 C203 1.327 . S
C205 C221 1.429 . S
C205 H227 0.950 . S
C206 H202 0.949 . S
C206 C214 1.574 . S
C206 C222 1.368 . S
H207 C215 0.950 . S
H208 C213 0.950 . S
H209 C214 0.949 . S
H210 C216 0.950 . S
H211 C217 0.950 . S
H212 C218 0.949 . S
C213 H208 0.950 . S
C213 C215 1.327 . S
C213 C219 1.429 . S
C214 C206 1.574 . S
C214 H209 0.949 . S
C214 C220 1.368 . S
C215 C199 1.349 . S
C215 H207 0.950 . S
C215 C213 1.327 . S
C216 C204 1.349 . S
C216 H210 0.950 . S
C216 C217 1.327 . S
C217 H211 0.950 . S
C217 C216 1.327 . S
C217 C221 1.429 . S
C218 C201 1.574 . S
C218 H212 0.949 . S
C218 C222 1.368 . S
C219 C200 1.429 . S
C219 C213 1.429 . S
C219 C220 1.523 . S
C220 C201 1.368 . S
C220 C214 1.368 . S
C220 C219 1.523 . S
C221 C205 1.429 . S
C221 C217 1.429 . S
C221 C222 1.523 . S
C222 C206 1.368 . S
C222 C218 1.368 . S
C222 C221 1.523 . S
H223 C198 0.950 . S
H224 C200 0.950 . S
H225 C201 0.949 . S
H226 C203 0.950 . S
H227 C205 0.950 . S
C228 C229 1.349 . S
C228 C230 1.327 . S
C228 H253 0.950 . S
C229 C228 1.349 . S
C229 C245 1.349 . S
C230 C228 1.327 . S
C230 C249 1.429 . S
C230 H254 0.950 . S
C231 C248 1.574 . S
C231 C250 1.368 . S
C231 H255 0.949 . S
H232 C236 0.949 . S
C233 C234 1.349 . S
C233 C235 1.327 . S
C233 H256 0.950 . S
C234 C233 1.349 . S
C234 C246 1.349 . S
C235 C233 1.327 . S
C235 C251 1.429 . S
C235 H257 0.950 . S
C236 H232 0.949 . S
C236 C244 1.574 . S
C236 C252 1.368 . S
H237 C245 0.950 . S
H238 C243 0.950 . S
H239 C244 0.949 . S
H240 C246 0.950 . S
H241 C247 0.950 . S
H242 C248 0.949 . S
C243 H238 0.950 . S
C243 C245 1.327 . S
C243 C249 1.429 . S
C244 C236 1.574 . S
C244 H239 0.949 . S
C244 C250 1.368 . S
C245 C229 1.349 . S
C245 H237 0.950 . S
C245 C243 1.327 . S
C246 C234 1.349 . S
C246 H240 0.950 . S
C246 C247 1.327 . S
C247 H241 0.950 . S
C247 C246 1.327 . S
C247 C251 1.429 . S
C248 C231 1.574 . S
C248 H242 0.949 . S
C248 C252 1.368 . S
C249 C230 1.429 . S
C249 C243 1.429 . S
C249 C250 1.523 . S
C250 C231 1.368 . S
C250 C244 1.368 . S
C250 C249 1.523 . S
C251 C235 1.429 . S
C251 C247 1.429 . S
C251 C252 1.523 . S
C252 C236 1.368 . S
C252 C248 1.368 . S
C252 C251 1.523 . S
H253 C228 0.950 . S
H254 C230 0.950 . S
H255 C231 0.949 . S
H256 C233 0.950 . S
H257 C235 0.950 . S
C258 C259 1.349 . S
C258 C260 1.327 . S
C258 H283 0.950 . S
C259 C258 1.349 . S
C259 C275 1.349 . S
C260 C258 1.327 . S
C260 C279 1.429 . S
C260 H284 0.950 . S
C261 C278 1.574 . S
C261 C280 1.368 . S
C261 H285 0.949 . S
H262 C266 0.949 . S
C263 C264 1.349 . S
C263 C265 1.327 . S
C263 H286 0.950 . S
C264 C263 1.349 . S
C264 C276 1.349 . S
C265 C263 1.327 . S
C265 C281 1.429 . S
C265 H287 0.950 . S
C266 H262 0.949 . S
C266 C274 1.574 . S
C266 C282 1.368 . S
H267 C275 0.950 . S
H268 C273 0.950 . S
H269 C274 0.949 . S
H270 C276 0.950 . S
H271 C277 0.950 . S
H272 C278 0.949 . S
C273 H268 0.950 . S
C273 C275 1.327 . S
C273 C279 1.429 . S
C274 C266 1.574 . S
C274 H269 0.949 . S
C274 C280 1.368 . S
C275 C259 1.349 . S
C275 H267 0.950 . S
C275 C273 1.327 . S
C276 C264 1.349 . S
C276 H270 0.950 . S
C276 C277 1.327 . S
C277 H271 0.950 . S
C277 C276 1.327 . S
C277 C281 1.429 . S
C278 C261 1.574 . S
C278 H272 0.949 . S
C278 C282 1.368 . S
C279 C260 1.429 . S
C279 C273 1.429 . S
C279 C280 1.523 . S
C280 C261 1.368 . S
C280 C274 1.368 . S
C280 C279 1.523 . S
C281 C265 1.429 . S
C281 C277 1.429 . S
C281 C282 1.523 . S
C282 C266 1.368 . S
C282 C278 1.368 . S
C282 C281 1.523 . S
H283 C258 0.950 . S
H284 C260 0.950 . S
H285 C261 0.949 . S
H286 C263 0.950 . S
H287 C265 0.950 . S
C288 C289 1.349 . S
C288 C290 1.327 . S
C288 H313 0.950 . S
C289 C288 1.349 . S
C289 C305 1.349 . S
C290 C288 1.327 . S
C290 C309 1.429 . S
C290 H314 0.950 . S
C291 C308 1.574 . S
C291 C310 1.368 . S
C291 H315 0.949 . S
H292 C296 0.949 . S
C293 C294 1.349 . S
C293 C295 1.327 . S
C293 H316 0.950 . S
C294 C293 1.349 . S
C294 C306 1.349 . S
C295 C293 1.327 . S
C295 C311 1.429 . S
C295 H317 0.950 . S
C296 H292 0.949 . S
C296 C304 1.574 . S
C296 C312 1.368 . S
H297 C305 0.950 . S
H298 C303 0.950 . S
H299 C304 0.949 . S
H300 C306 0.950 . S
H301 C307 0.950 . S
H302 C308 0.949 . S
C303 H298 0.950 . S
C303 C305 1.327 . S
C303 C309 1.429 . S
C304 C296 1.574 . S
C304 H299 0.949 . S
C304 C310 1.368 . S
C305 C289 1.349 . S
C305 H297 0.950 . S
C305 C303 1.327 . S
C306 C294 1.349 . S
C306 H300 0.950 . S
C306 C307 1.327 . S
C307 H301 0.950 . S
C307 C306 1.327 . S
C307 C311 1.429 . S
C308 C291 1.574 . S
C308 H302 0.949 . S
C308 C312 1.368 . S
C309 C290 1.429 . S
C309 C303 1.429 . S
C309 C310 1.523 . S
C310 C291 1.368 . S
C310 C304 1.368 . S
C310 C309 1.523 . S
C311 C295 1.429 . S
C311 C307 1.429 . S
C311 C312 1.523 . S
C312 C296 1.368 . S
C312 C308 1.368 . S
C312 C311 1.523 . S
H313 C288 0.950 . S
H314 C290 0.950 . S
H315 C291 0.949 . S
H316 C293 0.950 . S
H317 C295 0.950 . S
C318 C319 1.349 . S
C318 C320 1.327 . S
C318 H343 0.950 . S
C319 C318 1.349 . S
C319 C335 1.349 . S
C320 C318 1.327 . S
C320 C339 1.429 . S
C320 H344 0.950 . S
C321 C338 1.574 . S
C321 C340 1.368 . S
C321 H345 0.949 . S
H322 C326 0.949 . S
C323 C324 1.349 . S
C323 C325 1.327 . S
C323 H346 0.950 . S
C324 C323 1.349 . S
C324 C336 1.349 . S
C325 C323 1.327 . S
C325 C341 1.429 . S
C325 H347 0.950 . S
C326 H322 0.949 . S
C326 C334 1.574 . S
C326 C342 1.368 . S
H327 C335 0.950 . S
H328 C333 0.950 . S
H329 C334 0.949 . S
H330 C336 0.950 . S
H331 C337 0.950 . S
H332 C338 0.949 . S
C333 H328 0.950 . S
C333 C335 1.327 . S
C333 C339 1.429 . S
C334 C326 1.574 . S
C334 H329 0.949 . S
C334 C340 1.368 . S
C335 C319 1.349 . S
C335 H327 0.950 . S
C335 C333 1.327 . S
C336 C324 1.349 . S
C336 H330 0.950 . S
C336 C337 1.327 . S
C337 H331 0.950 . S
C337 C336 1.327 . S
C337 C341 1.429 . S
C338 C321 1.574 . S
C338 H332 0.949 . S
C338 C342 1.368 . S
C339 C320 1.429 . S
C339 C333 1.429 . S
C339 C340 1.523 . S
C340 C321 1.368 . S
C340 C334 1.368 . S
C340 C339 1.523 . S
C341 C325 1.429 . S
C341 C337 1.429 . S
C341 C342 1.523 . S
C342 C326 1.368 . S
C342 C338 1.368 . S
C342 C341 1.523 . S
H343 C318 0.950 . S
H344 C320 0.950 . S
H345 C321 0.949 . S
H346 C323 0.950 . S
H347 C325 0.950 . S
C348 C349 1.349 . S
C348 C350 1.327 . S
C348 H373 0.950 . S
C349 C348 1.349 . S
C349 C365 1.349 . S
C350 C348 1.327 . S
C350 C369 1.429 . S
C350 H374 0.950 . S
C351 C368 1.574 . S
C351 C370 1.368 . S
C351 H375 0.949 . S
H352 C356 0.949 . S
C353 C354 1.349 . S
C353 C355 1.327 . S
C353 H376 0.950 . S
C354 C353 1.349 . S
C354 C366 1.349 . S
C355 C353 1.327 . S
C355 C371 1.429 . S
C355 H377 0.950 . S
C356 H352 0.949 . S
C356 C364 1.574 . S
C356 C372 1.368 . S
H357 C365 0.950 . S
H358 C363 0.950 . S
H359 C364 0.949 . S
H360 C366 0.950 . S
H361 C367 0.950 . S
H362 C368 0.949 . S
C363 H358 0.950 . S
C363 C365 1.327 . S
C363 C369 1.429 . S
C364 C356 1.574 . S
C364 H359 0.949 . S
C364 C370 1.368 . S
C365 C349 1.349 . S
C365 H357 0.950 . S
C365 C363 1.327 . S
C366 C354 1.349 . S
C366 H360 0.950 . S
C366 C367 1.327 . S
C367 H361 0.950 . S
C367 C366 1.327 . S
C367 C371 1.429 . S
C368 C351 1.574 . S
C368 H362 0.949 . S
C368 C372 1.368 . S
C369 C350 1.429 . S
C369 C363 1.429 . S
C369 C370 1.523 . S
C370 C351 1.368 . S
C370 C364 1.368 . S
C370 C369 1.523 . S
C371 C355 1.429 . S
C371 C367 1.429 . S
C371 C372 1.523 . S
C372 C356 1.368 . S
C372 C368 1.368 . S
C372 C371 1.523 . S
H373 C348 0.950 . S
H374 C350 0.950 . S
H375 C351 0.949 . S
H376 C353 0.950 . S
H377 C355 0.950 . S
C378 C379 1.349 . S
C378 C380 1.327 . S
C378 H403 0.950 . S
C379 C378 1.349 . S
C379 C395 1.349 . S
C380 C378 1.327 . S
C380 C399 1.429 . S
C380 H404 0.950 . S
C381 C398 1.574 . S
C381 C400 1.368 1_655 S
C381 H405 0.949 . S
H382 C386 0.949 . S
C383 C384 1.349 . S
C383 C385 1.327 . S
C383 H406 0.950 . S
C384 C383 1.349 . S
C384 C396 1.349 . S
C385 C383 1.327 . S
C385 C401 1.429 . S
C385 H407 0.950 . S
C386 H382 0.949 . S
C386 C394 1.574 . S
C386 C402 1.368 1_455 S
H387 C395 0.950 . S
H388 C393 0.950 . S
H389 C394 0.949 . S
H390 C396 0.950 . S
H391 C397 0.950 . S
H392 C398 0.949 . S
C393 H388 0.950 . S
C393 C395 1.327 . S
C393 C399 1.429 . S
C394 C386 1.574 . S
C394 H389 0.949 . S
C394 C400 1.368 . S
C395 C379 1.349 . S
C395 H387 0.950 . S
C395 C393 1.327 . S
C396 C384 1.349 . S
C396 H390 0.950 . S
C396 C397 1.327 . S
C397 H391 0.950 . S
C397 C396 1.327 . S
C397 C401 1.429 . S
C398 C381 1.574 . S
C398 H392 0.949 . S
C398 C402 1.368 . S
C399 C380 1.429 . S
C399 C393 1.429 . S
C399 C400 1.523 . S
C400 C381 1.368 1_455 S
C400 C394 1.368 . S
C400 C399 1.523 . S
C401 C385 1.429 . S
C401 C397 1.429 . S
C401 C402 1.523 . S
C402 C386 1.368 1_655 S
C402 C398 1.368 . S
C402 C401 1.523 . S
H403 C378 0.950 . S
H404 C380 0.950 . S
H405 C381 0.949 . S
H406 C383 0.950 . S
H407 C385 0.950 . S
C408 C409 1.349 . S
C408 C410 1.327 . S
C408 H433 0.950 . S
C409 C408 1.349 . S
C409 C425 1.349 . S
C410 C408 1.327 . S
C410 C429 1.429 . S
C410 H434 0.950 . S
C411 C428 1.574 . S
C411 C430 1.368 1_565 S
C411 H435 0.949 . S
H412 C416 0.949 . S
C413 C414 1.349 . S
C413 C415 1.327 . S
C413 H436 0.950 . S
C414 C413 1.349 . S
C414 C426 1.349 . S
C415 C413 1.327 . S
C415 C431 1.429 . S
C415 H437 0.950 . S
C416 H412 0.949 . S
C416 C424 1.574 . S
C416 C432 1.368 1_545 S
H417 C425 0.950 . S
H418 C423 0.950 . S
H419 C424 0.949 . S
H420 C426 0.950 . S
H421 C427 0.950 . S
H422 C428 0.949 . S
C423 H418 0.950 . S
C423 C425 1.327 . S
C423 C429 1.429 . S
C424 C416 1.574 . S
C424 H419 0.949 . S
C424 C430 1.368 . S
C425 C409 1.349 . S
C425 H417 0.950 . S
C425 C423 1.327 . S
C426 C414 1.349 . S
C426 H420 0.950 . S
C426 C427 1.327 . S
C427 H421 0.950 . S
C427 C426 1.327 . S
C427 C431 1.429 . S
C428 C411 1.574 . S
C428 H422 0.949 . S
C428 C432 1.368 . S
C429 C410 1.429 . S
C429 C423 1.429 . S
C429 C430 1.523 . S
C430 C411 1.368 1_545 S
C430 C424 1.368 . S
C430 C429 1.523 . S
C431 C415 1.429 . S
C431 C427 1.429 . S
C431 C432 1.523 . S
C432 C416 1.368 1_565 S
C432 C428 1.368 . S
C432 C431 1.523 . S
H433 C408 0.950 . S
H434 C410 0.950 . S
H435 C411 0.949 . S
H436 C413 0.950 . S
H437 C415 0.950 . S
C438 C439 1.349 . S
C438 C440 1.327 . S
C438 H463 0.950 . S
C439 C438 1.349 . S
C439 C455 1.349 . S
C440 C438 1.327 . S
C440 C459 1.429 . S
C440 H464 0.950 . S
C441 C458 1.574 . S
C441 C460 1.368 . S
C441 H465 0.949 . S
H442 C446 0.949 . S
C443 C444 1.349 . S
C443 C445 1.327 . S
C443 H466 0.950 . S
C444 C443 1.349 . S
C444 C456 1.349 . S
C445 C443 1.327 . S
C445 C461 1.429 . S
C445 H467 0.950 . S
C446 H442 0.949 . S
C446 C454 1.574 . S
C446 C462 1.368 . S
H447 C455 0.950 . S
H448 C453 0.950 . S
H449 C454 0.949 . S
H450 C456 0.950 . S
H451 C457 0.950 . S
H452 C458 0.949 . S
C453 H448 0.950 . S
C453 C455 1.327 . S
C453 C459 1.429 . S
C454 C446 1.574 . S
C454 H449 0.949 . S
C454 C460 1.368 . S
C455 C439 1.349 . S
C455 H447 0.950 . S
C455 C453 1.327 . S
C456 C444 1.349 . S
C456 H450 0.950 . S
C456 C457 1.327 . S
C457 H451 0.950 . S
C457 C456 1.327 . S
C457 C461 1.429 . S
C458 C441 1.574 . S
C458 H452 0.949 . S
C458 C462 1.368 . S
C459 C440 1.429 . S
C459 C453 1.429 . S
C459 C460 1.523 . S
C460 C441 1.368 . S
C460 C454 1.368 . S
C460 C459 1.523 . S
C461 C445 1.429 . S
C461 C457 1.429 . S
C461 C462 1.523 . S
C462 C446 1.368 . S
C462 C458 1.368 . S
C462 C461 1.523 . S
H463 C438 0.950 . S
H464 C440 0.950 . S
H465 C441 0.949 . S
H466 C443 0.950 . S
H467 C445 0.950 . S
C468 C469 1.349 . S
C468 C470 1.327 . S
C468 H493 0.950 . S
C469 C468 1.349 . S
C469 C485 1.349 . S
C470 C468 1.327 . S
C470 C489 1.429 . S
C470 H494 0.950 . S
C471 C488 1.574 . S
C471 C490 1.368 . S
C471 H495 0.949 . S
H472 C476 0.949 . S
C473 C474 1.349 . S
C473 C475 1.327 . S
C473 H496 0.950 . S
C474 C473 1.349 . S
C474 C486 1.349 . S
C475 C473 1.327 . S
C475 C491 1.429 . S
C475 H497 0.950 . S
C476 H472 0.949 . S
C476 C484 1.574 . S
C476 C492 1.368 . S
H477 C485 0.950 . S
H478 C483 0.950 . S
H479 C484 0.949 . S
H480 C486 0.950 . S
H481 C487 0.950 . S
H482 C488 0.949 . S
C483 H478 0.950 . S
C483 C485 1.327 . S
C483 C489 1.429 . S
C484 C476 1.574 . S
C484 H479 0.949 . S
C484 C490 1.368 1_455 S
C485 C469 1.349 . S
C485 H477 0.950 . S
C485 C483 1.327 . S
C486 C474 1.349 . S
C486 H480 0.950 . S
C486 C487 1.327 . S
C487 H481 0.950 . S
C487 C486 1.327 . S
C487 C491 1.429 . S
C488 C471 1.574 . S
C488 H482 0.949 . S
C488 C492 1.368 1_655 S
C489 C470 1.429 . S
C489 C483 1.429 . S
C489 C490 1.523 . S
C490 C471 1.368 . S
C490 C484 1.368 1_655 S
C490 C489 1.523 . S
C491 C475 1.429 . S
C491 C487 1.429 . S
C491 C492 1.523 . S
C492 C476 1.368 . S
C492 C488 1.368 1_455 S
C492 C491 1.523 . S
H493 C468 0.950 . S
H494 C470 0.950 . S
H495 C471 0.949 . S
H496 C473 0.950 . S
H497 C475 0.950 . S
C498 C499 1.349 . S
C498 C500 1.327 . S
C498 H523 0.950 . S
C499 C498 1.349 . S
C499 C515 1.349 . S
C500 C498 1.327 . S
C500 C519 1.429 . S
C500 H524 0.950 . S
C501 C518 1.574 . S
C501 C520 1.368 1_545 S
C501 H525 0.949 . S
H502 C506 0.949 . S
C503 C504 1.349 . S
C503 C505 1.327 . S
C503 H526 0.950 . S
C504 C503 1.349 . S
C504 C516 1.349 . S
C505 C503 1.327 . S
C505 C521 1.429 . S
C505 H527 0.950 . S
C506 H502 0.949 . S
C506 C514 1.574 . S
C506 C522 1.368 1_565 S
H507 C515 0.950 . S
H508 C513 0.950 . S
H509 C514 0.949 . S
H510 C516 0.950 . S
H511 C517 0.950 . S
H512 C518 0.949 . S
C513 H508 0.950 . S
C513 C515 1.327 . S
C513 C519 1.429 . S
C514 C506 1.574 . S
C514 H509 0.949 . S
C514 C520 1.368 . S
C515 C499 1.349 . S
C515 H507 0.950 . S
C515 C513 1.327 . S
C516 C504 1.349 . S
C516 H510 0.950 . S
C516 C517 1.327 . S
C517 H511 0.950 . S
C517 C516 1.327 . S
C517 C521 1.429 . S
C518 C501 1.574 . S
C518 H512 0.949 . S
C518 C522 1.368 . S
C519 C500 1.429 . S
C519 C513 1.429 . S
C519 C520 1.523 . S
C520 C501 1.368 1_565 S
C520 C514 1.368 . S
C520 C519 1.523 . S
C521 C505 1.429 . S
C521 C517 1.429 . S
C521 C522 1.523 . S
C522 C506 1.368 1_545 S
C522 C518 1.368 . S
C522 C521 1.523 . S
H523 C498 0.950 . S
H524 C500 0.950 . S
H525 C501 0.949 . S
H526 C503 0.950 . S
H527 C505 0.950 . S
C528 C529 1.349 . S
C528 C530 1.327 . S
C528 H553 0.950 . S
C529 C528 1.349 . S
C529 C545 1.349 . S
C530 C528 1.327 . S
C530 C549 1.429 . S
C530 H554 0.950 . S
C531 C548 1.574 . S
C531 C550 1.368 . S
C531 H555 0.949 . S
H532 C536 0.949 . S
C533 C534 1.349 . S
C533 C535 1.327 . S
C533 H556 0.950 . S
C534 C533 1.349 . S
C534 C546 1.349 . S
C535 C533 1.327 . S
C535 C551 1.429 . S
C535 H557 0.950 . S
C536 H532 0.949 . S
C536 C544 1.574 . S
C536 C552 1.368 . S
H537 C545 0.950 . S
H538 C543 0.950 . S
H539 C544 0.949 . S
H540 C546 0.950 . S
H541 C547 0.950 . S
H542 C548 0.949 . S
C543 H538 0.950 . S
C543 C545 1.327 . S
C543 C549 1.429 . S
C544 C536 1.574 . S
C544 H539 0.949 . S
C544 C550 1.368 . S
C545 C529 1.349 . S
C545 H537 0.950 . S
C545 C543 1.327 . S
C546 C534 1.349 . S
C546 H540 0.950 . S
C546 C547 1.327 . S
C547 H541 0.950 . S
C547 C546 1.327 . S
C547 C551 1.429 . S
C548 C531 1.574 . S
C548 H542 0.949 . S
C548 C552 1.368 . S
C549 C530 1.429 . S
C549 C543 1.429 . S
C549 C550 1.523 . S
C550 C531 1.368 . S
C550 C544 1.368 . S
C550 C549 1.523 . S
C551 C535 1.429 . S
C551 C547 1.429 . S
C551 C552 1.523 . S
C552 C536 1.368 . S
C552 C548 1.368 . S
C552 C551 1.523 . S
H553 C528 0.950 . S
H554 C530 0.950 . S
H555 C531 0.949 . S
H556 C533 0.950 . S
H557 C535 0.950 . S
C558 C559 1.349 . S
C558 C560 1.327 . S
C558 H583 0.950 . S
C559 C558 1.349 . S
C559 C575 1.349 . S
C560 C558 1.327 . S
C560 C579 1.429 . S
C560 H584 0.950 . S
C561 C578 1.574 1_655 S
C561 C580 1.368 . S
C561 H585 0.949 . S
H562 C566 0.949 . S
C563 C564 1.349 . S
C563 C565 1.327 . S
C563 H586 0.950 . S
C564 C563 1.349 . S
C564 C576 1.349 . S
C565 C563 1.327 . S
C565 C581 1.429 . S
C565 H587 0.950 . S
C566 H562 0.949 . S
C566 C574 1.574 1_455 S
C566 C582 1.368 . S
H567 C575 0.950 . S
H568 C573 0.950 . S
H569 C574 0.949 . S
H570 C576 0.950 . S
H571 C577 0.950 . S
H572 C578 0.949 . S
C573 H568 0.950 . S
C573 C575 1.327 . S
C573 C579 1.429 . S
C574 C566 1.574 1_655 S
C574 H569 0.949 . S
C574 C580 1.368 . S
C575 C559 1.349 . S
C575 H567 0.950 . S
C575 C573 1.327 . S
C576 C564 1.349 . S
C576 H570 0.950 . S
C576 C577 1.327 . S
C577 H571 0.950 . S
C577 C576 1.327 . S
C577 C581 1.429 . S
C578 C561 1.574 1_455 S
C578 H572 0.949 . S
C578 C582 1.368 . S
C579 C560 1.429 . S
C579 C573 1.429 . S
C579 C580 1.523 . S
C580 C561 1.368 . S
C580 C574 1.368 . S
C580 C579 1.523 . S
C581 C565 1.429 . S
C581 C577 1.429 . S
C581 C582 1.523 . S
C582 C566 1.368 . S
C582 C578 1.368 . S
C582 C581 1.523 . S
H583 C558 0.950 . S
H584 C560 0.950 . S
H585 C561 0.949 . S
H586 C563 0.950 . S
H587 C565 0.950 . S
C588 C589 1.349 . S
C588 C590 1.327 . S
C588 H613 0.950 . S
C589 C588 1.349 . S
C589 C605 1.349 . S
C590 C588 1.327 . S
C590 C609 1.429 . S
C590 H614 0.950 . S
C591 C608 1.574 1_556 S
C591 C610 1.368 1_545 S
C591 H615 0.949 . S
H592 C596 0.949 . S
C593 C594 1.349 . S
C593 C595 1.327 . S
C593 H616 0.950 . S
C594 C593 1.349 . S
C594 C606 1.349 . S
C595 C593 1.327 . S
C595 C611 1.429 . S
C595 H617 0.950 . S
C596 H592 0.949 . S
C596 C604 1.574 1_554 S
C596 C612 1.368 1_565 S
H597 C605 0.950 . S
H598 C603 0.962 . S
H599 C604 0.949 . S
H600 C606 0.950 . S
H601 C607 0.962 . S
H602 C608 0.949 . S
C603 H598 0.962 . S
C603 C605 1.327 . S
C603 C609 1.429 . S
C604 C596 1.574 1_556 S
C604 H599 0.949 . S
C604 C610 1.368 . S
C605 C589 1.349 . S
C605 H597 0.950 . S
C605 C603 1.327 . S
C606 C594 1.349 . S
C606 H600 0.950 . S
C606 C607 1.327 . S
C607 H601 0.962 . S
C607 C606 1.327 . S
C607 C611 1.429 . S
C608 C591 1.574 1_554 S
C608 H602 0.949 . S
C608 C612 1.368 . S
C609 C590 1.429 . S
C609 C603 1.429 . S
C609 C610 1.523 . S
C610 C591 1.368 1_565 S
C610 C604 1.368 . S
C610 C609 1.523 . S
C611 C595 1.429 . S
C611 C607 1.429 . S
C611 C612 1.523 . S
C612 C596 1.368 1_545 S
C612 C608 1.368 . S
C612 C611 1.523 . S
H613 C588 0.950 . S
H614 C590 0.950 . S
H615 C591 0.949 . S
H616 C593 0.950 . S
H617 C595 0.950 . S
C618 C619 1.349 . S
C618 C620 1.327 . S
C618 H643 0.950 . S
C619 C618 1.349 . S
C619 C635 1.349 . S
C620 C618 1.327 . S
C620 C639 1.429 . S
C620 H644 0.950 . S
C621 C638 1.574 . S
C621 C640 1.368 . S
C621 H645 0.949 . S
H622 C626 0.949 . S
C623 C624 1.349 . S
C623 C625 1.327 . S
C623 H646 0.950 . S
C624 C623 1.349 . S
C624 C636 1.349 . S
C625 C623 1.327 . S
C625 C641 1.429 . S
C625 H647 0.950 . S
C626 H622 0.949 . S
C626 C634 1.574 . S
C626 C642 1.368 . S
H627 C635 0.950 . S
H628 C633 0.950 . S
H629 C634 0.949 . S
H630 C636 0.950 . S
H631 C637 0.950 . S
H632 C638 0.949 . S
C633 H628 0.950 . S
C633 C635 1.327 . S
C633 C639 1.429 . S
C634 C626 1.574 . S
C634 H629 0.949 . S
C634 C640 1.368 . S
C635 C619 1.349 . S
C635 H627 0.950 . S
C635 C633 1.327 . S
C636 C624 1.349 . S
C636 H630 0.950 . S
C636 C637 1.327 . S
C637 H631 0.950 . S
C637 C636 1.327 . S
C637 C641 1.429 . S
C638 C621 1.574 . S
C638 H632 0.949 . S
C638 C642 1.368 . S
C639 C620 1.429 . S
C639 C633 1.429 . S
C639 C640 1.523 . S
C640 C621 1.368 . S
C640 C634 1.368 . S
C640 C639 1.523 . S
C641 C625 1.429 . S
C641 C637 1.429 . S
C641 C642 1.523 . S
C642 C626 1.368 . S
C642 C638 1.368 . S
C642 C641 1.523 . S
H643 C618 0.950 . S
H644 C620 0.950 . S
H645 C621 0.949 . S
H646 C623 0.950 . S
H647 C625 0.950 . S
C648 C649 1.349 . S
C648 C650 1.327 . S
C648 H673 0.950 . S
C649 C648 1.349 . S
C649 C665 1.349 . S
C650 C648 1.327 . S
C650 C669 1.429 . S
C650 H674 0.950 . S
C651 C668 1.574 1_455 S
C651 C670 1.368 . S
C651 H675 0.949 . S
H652 C656 0.949 . S
C653 C654 1.349 . S
C653 C655 1.327 . S
C653 H676 0.950 . S
C654 C653 1.349 . S
C654 C666 1.349 . S
C655 C653 1.327 . S
C655 C671 1.429 . S
C655 H677 0.950 . S
C656 H652 0.949 . S
C656 C664 1.574 1_655 S
C656 C672 1.368 . S
H657 C665 0.950 . S
H658 C663 0.950 . S
H659 C664 0.949 . S
H660 C666 0.950 . S
H661 C667 0.950 . S
H662 C668 0.949 . S
C663 H658 0.950 . S
C663 C665 1.327 . S
C663 C669 1.429 . S
C664 C656 1.574 1_455 S
C664 H659 0.949 . S
C664 C670 1.368 . S
C665 C649 1.349 . S
C665 H657 0.950 . S
C665 C663 1.327 . S
C666 C654 1.349 . S
C666 H660 0.950 . S
C666 C667 1.327 . S
C667 H661 0.950 . S
C667 C666 1.327 . S
C667 C671 1.429 . S
C668 C651 1.574 1_655 S
C668 H662 0.949 . S
C668 C672 1.368 . S
C669 C650 1.429 . S
C669 C663 1.429 . S
C669 C670 1.523 . S
C670 C651 1.368 . S
C670 C664 1.368 . S
C670 C669 1.523 . S
C671 C655 1.429 . S
C671 C667 1.429 . S
C671 C672 1.523 . S
C672 C656 1.368 . S
C672 C668 1.368 . S
C672 C671 1.523 . S
H673 C648 0.950 . S
H674 C650 0.950 . S
H675 C651 0.949 . S
H676 C653 0.950 . S
H677 C655 0.950 . S
C678 C679 1.349 . S
C678 C680 1.327 . S
C678 H703 0.950 . S
C679 C678 1.349 . S
C679 C695 1.349 . S
C680 C678 1.327 . S
C680 C699 1.429 . S
C680 H704 0.950 1_565 S
C681 C698 1.574 1_554 S
C681 C700 1.368 . S
C681 H705 0.949 . S
H682 C686 0.949 . S
C683 C684 1.349 . S
C683 C685 1.327 . S
C683 H706 0.950 . S
C684 C683 1.349 . S
C684 C696 1.349 . S
C685 C683 1.327 . S
C685 C701 1.429 . S
C685 H707 0.950 1_545 S
C686 H682 0.949 . S
C686 C694 1.574 1_556 S
C686 C702 1.368 . S
H687 C695 0.950 . S
H688 C693 0.950 . S
H689 C694 0.949 . S
H690 C696 0.950 . S
H691 C697 0.950 . S
H692 C698 0.949 . S
C693 H688 0.950 . S
C693 C695 1.327 . S
C693 C699 1.429 . S
C694 C686 1.574 1_554 S
C694 H689 0.949 . S
C694 C700 1.368 1_545 S
C695 C679 1.349 . S
C695 H687 0.950 . S
C695 C693 1.327 . S
C696 C684 1.349 . S
C696 H690 0.950 . S
C696 C697 1.327 . S
C697 H691 0.950 . S
C697 C696 1.327 . S
C697 C701 1.429 . S
C698 C681 1.574 1_556 S
C698 H692 0.949 . S
C698 C702 1.368 1_565 S
C699 C680 1.429 . S
C699 C693 1.429 . S
C699 C700 1.523 . S
C700 C681 1.368 . S
C700 C694 1.368 1_565 S
C700 C699 1.523 . S
C701 C685 1.429 . S
C701 C697 1.429 . S
C701 C702 1.523 . S
C702 C686 1.368 . S
C702 C698 1.368 1_545 S
C702 C701 1.523 . S
H703 C678 0.950 . S
H704 C680 0.950 1_545 S
H705 C681 0.949 . S
H706 C683 0.950 . S
H707 C685 0.950 1_565 S
C708 C709 1.349 . S
C708 C710 1.327 . S
C708 H733 0.950 . S
C709 C708 1.349 . S
C709 C725 1.349 . S
C710 C708 1.327 . S
C710 C729 1.429 . S
C710 H734 0.950 . S
C711 C728 1.574 1_655 S
C711 C730 1.368 . S
C711 H735 0.949 . S
H712 C716 0.949 . S
C713 C714 1.349 . S
C713 C715 1.327 . S
C713 H736 0.950 . S
C714 C713 1.349 . S
C714 C726 1.349 . S
C715 C713 1.327 . S
C715 C731 1.429 . S
C715 H737 0.950 . S
C716 H712 0.949 . S
C716 C724 1.574 1_455 S
C716 C732 1.368 . S
H717 C725 0.950 . S
H718 C723 0.950 . S
H719 C724 0.949 . S
H720 C726 0.950 . S
H721 C727 0.950 . S
H722 C728 0.949 . S
C723 H718 0.950 . S
C723 C725 1.327 . S
C723 C729 1.429 . S
C724 C716 1.574 1_655 S
C724 H719 0.949 . S
C724 C730 1.368 . S
C725 C709 1.349 . S
C725 H717 0.950 . S
C725 C723 1.327 . S
C726 C714 1.349 . S
C726 H720 0.950 . S
C726 C727 1.327 . S
C727 H721 0.950 . S
C727 C726 1.327 . S
C727 C731 1.429 . S
C728 C711 1.574 1_455 S
C728 H722 0.949 . S
C728 C732 1.368 . S
C729 C710 1.429 . S
C729 C723 1.429 . S
C729 C730 1.523 . S
C730 C711 1.368 . S
C730 C724 1.368 . S
C730 C729 1.523 . S
C731 C715 1.429 . S
C731 C727 1.429 . S
C731 C732 1.523 . S
C732 C716 1.368 . S
C732 C728 1.368 . S
C732 C731 1.523 . S
H733 C708 0.950 . S
H734 C710 0.950 . S
H735 C711 0.949 . S
H736 C713 0.950 . S
H737 C715 0.950 . S
C738 C739 1.349 . S
C738 C740 1.327 . S
C738 H763 0.950 . S
C739 C738 1.349 . S
C739 C755 1.349 . S
C740 C738 1.327 . S
C740 C759 1.429 . S
C740 H764 0.950 . S
C741 C758 1.574 1_545 S
C741 C760 1.368 . S
C741 H765 0.949 . S
H742 C746 0.949 . S
C743 C744 1.349 . S
C743 C745 1.327 . S
C743 H766 0.950 . S
C744 C743 1.349 . S
C744 C756 1.349 . S
C745 C743 1.327 . S
C745 C761 1.429 . S
C745 H767 0.950 . S
C746 H742 0.949 . S
C746 C754 1.574 1_565 S
C746 C762 1.368 . S
H747 C755 0.950 . S
H748 C753 0.950 . S
H749 C754 0.949 . S
H750 C756 0.950 . S
H751 C757 0.950 . S
H752 C758 0.949 . S
C753 H748 0.950 . S
C753 C755 1.327 . S
C753 C759 1.429 . S
C754 C746 1.574 1_545 S
C754 H749 0.949 . S
C754 C760 1.368 . S
C755 C739 1.349 . S
C755 H747 0.950 . S
C755 C753 1.327 . S
C756 C744 1.349 . S
C756 H750 0.950 . S
C756 C757 1.327 . S
C757 H751 0.950 . S
C757 C756 1.327 . S
C757 C761 1.429 . S
C758 C741 1.574 1_565 S
C758 H752 0.949 . S
C758 C762 1.368 . S
C759 C740 1.429 . S
C759 C753 1.429 . S
C759 C760 1.523 . S
C760 C741 1.368 . S
C760 C754 1.368 . S
C760 C759 1.523 . S
C761 C745 1.429 . S
C761 C757 1.429 . S
C761 C762 1.523 . S
C762 C746 1.368 . S
C762 C758 1.368 . S
C762 C761 1.523 . S
H763 C738 0.950 . S
H764 C740 0.950 . S
H765 C741 0.949 . S
H766 C743 0.950 . S
H767 C745 0.950 . S
C768 C769 1.349 . S
C768 C770 1.327 . S
C768 H793 0.950 . S
C769 C768 1.349 . S
C769 C785 1.349 . S
C770 C768 1.327 . S
C770 C789 1.429 . S
C770 H794 0.950 . S
C771 C788 1.574 . S
C771 C790 1.368 . S
C771 H795 0.949 . S
H772 C776 0.949 . S
C773 C774 1.349 . S
C773 C775 1.327 . S
C773 H796 0.950 . S
C774 C773 1.349 . S
C774 C786 1.349 . S
C775 C773 1.327 . S
C775 C791 1.429 . S
C775 H797 0.950 . S
C776 H772 0.949 . S
C776 C784 1.574 . S
C776 C792 1.368 . S
H777 C785 0.950 . S
H778 C783 0.950 . S
H779 C784 0.949 . S
H780 C786 0.950 . S
H781 C787 0.950 . S
H782 C788 0.949 . S
C783 H778 0.950 . S
C783 C785 1.327 . S
C783 C789 1.429 . S
C784 C776 1.574 . S
C784 H779 0.949 . S
C784 C790 1.368 . S
C785 C769 1.349 . S
C785 H777 0.950 . S
C785 C783 1.327 . S
C786 C774 1.349 . S
C786 H780 0.950 . S
C786 C787 1.327 . S
C787 H781 0.950 . S
C787 C786 1.327 . S
C787 C791 1.429 . S
C788 C771 1.574 . S
C788 H782 0.949 . S
C788 C792 1.368 . S
C789 C770 1.429 . S
C789 C783 1.429 . S
C789 C790 1.523 . S
C790 C771 1.368 . S
C790 C784 1.368 . S
C790 C789 1.523 . S
C791 C775 1.429 . S
C791 C787 1.429 . S
C791 C792 1.523 . S
C792 C776 1.368 . S
C792 C788 1.368 . S
C792 C791 1.523 . S
H793 C768 0.950 . S
H794 C770 0.950 . S
H795 C771 0.949 . S
H796 C773 0.950 . S
H797 C775 0.950 . S
C798 C799 1.349 . S
C798 C800 1.327 . S
C798 H823 0.950 . S
C799 C798 1.349 . S
C799 C815 1.349 . S
C800 C798 1.327 . S
C800 C819 1.429 . S
C800 H824 0.950 . S
C801 C818 1.574 1_655 S
C801 C820 1.368 . S
C801 H825 0.949 . S
H802 C806 0.949 . S
C803 C804 1.349 . S
C803 C805 1.327 . S
C803 H826 0.950 . S
C804 C803 1.349 . S
C804 C816 1.349 . S
C805 C803 1.327 . S
C805 C821 1.429 . S
C805 H827 0.950 . S
C806 H802 0.949 . S
C806 C814 1.574 1_455 S
C806 C822 1.368 . S
H807 C815 0.950 . S
H808 C813 0.950 . S
H809 C814 0.949 . S
H810 C816 0.950 . S
H811 C817 0.950 . S
H812 C818 0.949 . S
C813 H808 0.950 . S
C813 C815 1.327 . S
C813 C819 1.429 . S
C814 C806 1.574 1_655 S
C814 H809 0.949 . S
C814 C820 1.368 . S
C815 C799 1.349 . S
C815 H807 0.950 . S
C815 C813 1.327 . S
C816 C804 1.349 . S
C816 H810 0.950 . S
C816 C817 1.327 . S
C817 H811 0.950 . S
C817 C816 1.327 . S
C817 C821 1.429 . S
C818 C801 1.574 1_455 S
C818 H812 0.949 . S
C818 C822 1.368 . S
C819 C800 1.429 . S
C819 C813 1.429 . S
C819 C820 1.523 . S
C820 C801 1.368 . S
C820 C814 1.368 . S
C820 C819 1.523 . S
C821 C805 1.429 . S
C821 C817 1.429 . S
C821 C822 1.523 . S
C822 C806 1.368 . S
C822 C818 1.368 . S
C822 C821 1.523 . S
H823 C798 0.950 . S
H824 C800 0.950 . S
H825 C801 0.949 . S
H826 C803 0.950 . S
H827 C805 0.950 . S
C828 C829 1.349 . S
C828 C830 1.327 . S
C828 H853 0.950 . S
C829 C828 1.349 . S
C829 C845 1.349 . S
C830 C828 1.327 . S
C830 C849 1.429 . S
C830 H854 0.950 . S
C831 C848 1.574 1_565 S
C831 C850 1.368 . S
C831 H855 0.949 . S
H832 C836 0.949 . S
C833 C834 1.349 . S
C833 C835 1.327 . S
C833 H856 0.950 . S
C834 C833 1.349 . S
C834 C846 1.349 . S
C835 C833 1.327 . S
C835 C851 1.429 . S
C835 H857 0.950 . S
C836 H832 0.949 . S
C836 C844 1.574 1_545 S
C836 C852 1.368 . S
H837 C845 0.950 . S
H838 C843 0.950 . S
H839 C844 0.949 . S
H840 C846 0.950 . S
H841 C847 0.950 . S
H842 C848 0.949 . S
C843 H838 0.950 . S
C843 C845 1.327 . S
C843 C849 1.429 . S
C844 C836 1.574 1_565 S
C844 H839 0.949 . S
C844 C850 1.368 . S
C845 C829 1.349 . S
C845 H837 0.950 . S
C845 C843 1.327 . S
C846 C834 1.349 . S
C846 H840 0.950 . S
C846 C847 1.327 . S
C847 H841 0.950 . S
C847 C846 1.327 . S
C847 C851 1.429 . S
C848 C831 1.574 1_545 S
C848 H842 0.949 . S
C848 C852 1.368 . S
C849 C830 1.429 . S
C849 C843 1.429 . S
C849 C850 1.523 . S
C850 C831 1.368 . S
C850 C844 1.368 . S
C850 C849 1.523 . S
C851 C835 1.429 . S
C851 C847 1.429 . S
C851 C852 1.523 . S
C852 C836 1.368 . S
C852 C848 1.368 . S
C852 C851 1.523 . S
H853 C828 0.950 . S
H854 C830 0.950 . S
H855 C831 0.949 . S
H856 C833 0.950 . S
H857 C835 0.950 . S
C858 C859 1.349 . S
C858 C860 1.327 . S
C858 H883 0.950 . S
C859 C858 1.349 . S
C859 C875 1.349 . S
C860 C858 1.327 . S
C860 C879 1.429 . S
C860 H884 0.950 . S
C861 C878 1.574 . S
C861 C880 1.368 . S
C861 H885 0.949 . S
H862 C866 0.949 . S
C863 C864 1.349 . S
C863 C865 1.327 . S
C863 H886 0.950 . S
C864 C863 1.349 . S
C864 C876 1.349 . S
C865 C863 1.327 . S
C865 C881 1.429 . S
C865 H887 0.950 . S
C866 H862 0.949 . S
C866 C874 1.574 . S
C866 C882 1.368 . S
H867 C875 0.950 . S
H868 C873 0.950 . S
H869 C874 0.949 . S
H870 C876 0.950 . S
H871 C877 0.950 . S
H872 C878 0.949 . S
C873 H868 0.950 . S
C873 C875 1.327 . S
C873 C879 1.429 . S
C874 C866 1.574 . S
C874 H869 0.949 . S
C874 C880 1.368 . S
C875 C859 1.349 . S
C875 H867 0.950 . S
C875 C873 1.327 . S
C876 C864 1.349 . S
C876 H870 0.950 . S
C876 C877 1.327 . S
C877 H871 0.950 . S
C877 C876 1.327 . S
C877 C881 1.429 . S
C878 C861 1.574 . S
C878 H872 0.949 . S
C878 C882 1.368 . S
C879 C860 1.429 . S
C879 C873 1.429 . S
C879 C880 1.523 . S
C880 C861 1.368 . S
C880 C874 1.368 . S
C880 C879 1.523 . S
C881 C865 1.429 . S
C881 C877 1.429 . S
C881 C882 1.523 . S
C882 C866 1.368 . S
C882 C878 1.368 . S
C882 C881 1.523 . S
H883 C858 0.950 . S
H884 C860 0.950 . S
H885 C861 0.949 . S
H886 C863 0.950 . S
H887 C865 0.950 . S
C169 C120 2.271 . S
C174 C8 2.271 . S
C199 C22 2.271 . S
C204 C134 2.271 . S
C229 C36 2.272 . S
C234 C148 2.272 . S
C259 C50 2.271 . S
C264 C162 2.271 . S
C289 C92 2.271 . S
C294 C64 2.271 . S
C319 C78 2.272 . S
C324 C106 2.272 . S
C349 C51 0.627 . S
C354 C9 0.627 . S
C379 C65 0.627 . S
C384 C23 0.627 . S
C409 C79 0.627 . S
C414 C37 0.627 . S
C439 C93 0.627 . S
C444 C135 0.627 . S
C469 C107 0.627 . S
C474 C149 0.627 . S
C499 C121 0.627 . S
C504 C163 0.627 . S
C529 C7 1.532 . S
C534 C133 1.532 . S
C559 C21 1.531 . S
C564 C147 1.531 . S
C589 C35 1.531 . S
C594 C161 1.531 . S
C619 C91 1.532 . S
C624 C49 1.532 . S
C649 C63 1.531 . S
C654 C105 1.531 . S
C679 C119 1.531 . S
C684 C77 1.531 . S
C709 C160 1.065 . S
C714 C6 1.065 . S
C739 C20 1.065 . S
C744 C90 1.065 . S
C769 C104 1.065 . S
C774 C34 1.065 . S
C799 C48 1.065 . S
C804 C118 1.065 . S
C829 C62 1.065 . S
C834 C132 1.065 . S
C859 C146 1.065 . S
C864 C76 1.065 . S
