# Generated by pormake.
# Topology sod-e, (6)-cn, num edge types: 1
# Building blocks:
#     Node 0, Type 0, BuildingBlock: MAKGUD_clean_sbu_1, # of connection points: 6
#     Node 1, Type 0, BuildingBlock: MAKGUD_clean_sbu_1, # of connection points: 6
#     Node 2, Type 0, BuildingBlock: MAKGUD_clean_sbu_1, # of connection points: 6
#     Node 3, Type 0, BuildingBlock: MAKGUD_clean_sbu_1, # of connection points: 6
#     Node 4, Type 0, BuildingBlock: MAKGUD_clean_sbu_1, # of connection points: 6
#     Node 5, Type 0, BuildingBlock: MAKGUD_clean_sbu_1, # of connection points: 6
#     Node 6, Type 0, BuildingBlock: MAKGUD_clean_sbu_1, # of connection points: 6
#     Node 7, Type 0, BuildingBlock: MAKGUD_clean_sbu_1, # of connection points: 6
#     Node 8, Type 0, BuildingBlock: MAKGUD_clean_sbu_1, # of connection points: 6
#     Node 9, Type 0, BuildingBlock: MAKGUD_clean_sbu_1, # of connection points: 6
#     Node 10, Type 0, BuildingBlock: MAKGUD_clean_sbu_1, # of connection points: 6
#     Node 11, Type 0, BuildingBlock: MAKGUD_clean_sbu_1, # of connection points: 6
#     Node 12, Type 0, BuildingBlock: MAKGUD_clean_sbu_1, # of connection points: 6
#     Node 13, Type 0, BuildingBlock: MAKGUD_clean_sbu_1, # of connection points: 6
#     Node 14, Type 0, BuildingBlock: MAKGUD_clean_sbu_1, # of connection points: 6
#     Node 15, Type 0, BuildingBlock: MAKGUD_clean_sbu_1, # of connection points: 6
#     Node 16, Type 0, BuildingBlock: MAKGUD_clean_sbu_1, # of connection points: 6
#     Node 17, Type 0, BuildingBlock: MAKGUD_clean_sbu_1, # of connection points: 6
#     Node 18, Type 0, BuildingBlock: MAKGUD_clean_sbu_1, # of connection points: 6
#     Node 19, Type 0, BuildingBlock: MAKGUD_clean_sbu_1, # of connection points: 6
#     Node 20, Type 0, BuildingBlock: MAKGUD_clean_sbu_1, # of connection points: 6
#     Node 21, Type 0, BuildingBlock: MAKGUD_clean_sbu_1, # of connection points: 6
#     Node 22, Type 0, BuildingBlock: MAKGUD_clean_sbu_1, # of connection points: 6
#     Node 23, Type 0, BuildingBlock: MAKGUD_clean_sbu_1, # of connection points: 6
#     Edge 24, Type (0, 0), None
#     Edge 25, Type (0, 0), None
#     Edge 26, Type (0, 0), None
#     Edge 27, Type (0, 0), None
#     Edge 28, Type (0, 0), None
#     Edge 29, Type (0, 0), None
#     Edge 30, Type (0, 0), None
#     Edge 31, Type (0, 0), None
#     Edge 32, Type (0, 0), None
#     Edge 33, Type (0, 0), None
#     Edge 34, Type (0, 0), None
#     Edge 35, Type (0, 0), None
#     Edge 36, Type (0, 0), None
#     Edge 37, Type (0, 0), None
#     Edge 38, Type (0, 0), None
#     Edge 39, Type (0, 0), None
#     Edge 40, Type (0, 0), None
#     Edge 41, Type (0, 0), None
#     Edge 42, Type (0, 0), None
#     Edge 43, Type (0, 0), None
#     Edge 44, Type (0, 0), None
#     Edge 45, Type (0, 0), None
#     Edge 46, Type (0, 0), None
#     Edge 47, Type (0, 0), None
#     Edge 48, Type (0, 0), None
#     Edge 49, Type (0, 0), None
#     Edge 50, Type (0, 0), None
#     Edge 51, Type (0, 0), None
#     Edge 52, Type (0, 0), None
#     Edge 53, Type (0, 0), None
#     Edge 54, Type (0, 0), None
#     Edge 55, Type (0, 0), None
#     Edge 56, Type (0, 0), None
#     Edge 57, Type (0, 0), None
#     Edge 58, Type (0, 0), None
#     Edge 59, Type (0, 0), None
#     Edge 60, Type (0, 0), None
#     Edge 61, Type (0, 0), None
#     Edge 62, Type (0, 0), None
#     Edge 63, Type (0, 0), None
#     Edge 64, Type (0, 0), None
#     Edge 65, Type (0, 0), None
#     Edge 66, Type (0, 0), None
#     Edge 67, Type (0, 0), None
#     Edge 68, Type (0, 0), None
#     Edge 69, Type (0, 0), None
#     Edge 70, Type (0, 0), None
#     Edge 71, Type (0, 0), None
#     Edge 72, Type (0, 0), None
#     Edge 73, Type (0, 0), None
#     Edge 74, Type (0, 0), None
#     Edge 75, Type (0, 0), None
#     Edge 76, Type (0, 0), None
#     Edge 77, Type (0, 0), None
#     Edge 78, Type (0, 0), None
#     Edge 79, Type (0, 0), None
#     Edge 80, Type (0, 0), None
#     Edge 81, Type (0, 0), None
#     Edge 82, Type (0, 0), None
#     Edge 83, Type (0, 0), None
#     Edge 84, Type (0, 0), None
#     Edge 85, Type (0, 0), None
#     Edge 86, Type (0, 0), None
#     Edge 87, Type (0, 0), None
#     Edge 88, Type (0, 0), None
#     Edge 89, Type (0, 0), None
#     Edge 90, Type (0, 0), None
#     Edge 91, Type (0, 0), None
#     Edge 92, Type (0, 0), None
#     Edge 93, Type (0, 0), None
#     Edge 94, Type (0, 0), None
#     Edge 95, Type (0, 0), None
# Relax obj value: 0.196
# Max RMSD: 0.242
# Mean RMSD: 0.186
data_MOF--net-sod-e--node1-MAKGUD_clean_sbu_1--edge1-none
_symmetry_space_group_name_H-M    P1
_symmetry_Int_Tables_number       1
_symmetry_cell_setting            triclinic
loop_
_symmetry_equiv_pos_as_xyz
'x, y, z'
_cell_length_a     28.690287
_cell_length_b     25.950193
_cell_length_c     26.102104
_cell_angle_alpha  89.845383
_cell_angle_beta   90.75713
_cell_angle_gamma 91.94288
loop_
_atom_site_label
_atom_site_type_symbol
_atom_site_fract_x
_atom_site_fract_y
_atom_site_fract_z
_atom_type_partial_charge
O0 O 0.18625 0.45702 0.3597 0.0
Tb1 Tb 0.18698 0.49296 0.43547 0.0
C2 C 0.19788 0.5986 0.4916 0.0
O3 O 0.23691 0.48561 0.55662 0.0
Tb4 Tb 0.16474 0.50729 0.5591 0.0
C5 C 0.14775 0.50227 0.65868 0.0
O6 O 0.22274 0.43434 0.48755 0.0
O7 O 1.1152 0.4614 0.51399 0.0
C8 C 1.08353 0.43381 0.53855 0.0
O9 O 1.0848 0.43279 0.58872 0.0
O10 O 0.21693 0.56656 0.45986 0.0
O11 O 0.17072 0.58411 0.52933 0.0
O12 O 1.11823 0.53357 0.416 0.0
C13 C 0.2479 0.44512 0.53042 0.0
C14 C 0.22513 0.47878 0.34389 0.0
O15 O 0.177 0.47472 0.63432 0.0
O16 O 1.12694 0.53304 0.62695 0.0
C17 C 1.09743 0.54081 0.36928 0.0
O18 O 1.11234 0.51532 0.32977 0.0
O19 O 0.24222 0.50785 0.38039 0.0
O20 O 0.91686 1.07221 0.4399 0.0
Tb21 Tb 0.84772 1.06876 0.47403 0.0
C22 C 0.79242 1.07603 0.56996 0.0
O23 O 0.73379 1.05291 0.42212 0.0
Tb24 Tb 0.75438 0.11963 0.47039 0.0
C25 C 0.66755 0.13012 0.49385 0.0
O26 O 0.80607 1.02038 0.41652 0.0
O27 O 0.77444 0.19007 0.4272 0.0
C28 C 0.74451 0.21697 0.39942 0.0
O29 O 0.70329 0.19659 0.38765 0.0
O30 O 0.81556 1.04201 0.54462 0.0
O31 O 0.7817 0.11895 0.54746 0.0
O32 O 0.85991 0.14889 0.50913 0.0
C33 C 0.76018 1.01561 0.40729 0.0
C34 C 0.9334 1.0336 0.46554 0.0
O35 O 0.68851 1.08697 0.49439 0.0
O36 O 0.69701 0.16796 0.48564 0.0
C37 C 0.90093 0.17207 0.52356 0.0
O38 O 0.93991 0.15382 0.50681 0.0
O39 O 0.90109 1.01569 0.49591 0.0
O40 O 1.13154 0.76063 0.34067 0.0
Tb41 Tb 0.17592 0.74149 0.40519 0.0
C42 C 0.20032 0.65257 0.47929 0.0
O43 O 1.12494 0.78628 0.51171 0.0
Tb44 Tb 0.18889 0.75043 0.53858 0.0
C45 C 0.18121 0.74324 0.63847 0.0
O46 O 0.16126 0.81807 0.44133 0.0
O47 O 0.23772 0.81341 0.5311 0.0
C48 C 0.26141 0.82599 0.49046 0.0
O49 O 0.2558 0.80008 0.44759 0.0
O50 O 0.16957 0.66945 0.4466 0.0
O51 O 0.22206 0.68345 0.5112 0.0
O52 O 0.22289 0.70662 0.34471 0.0
C53 C 1.12759 0.82199 0.4762 0.0
C54 C 1.09299 0.74413 0.36191 0.0
O55 O 0.15103 0.72414 0.60544 0.0
O56 O 0.21613 0.76515 0.61521 0.0
C57 C 0.25085 0.66542 0.34691 0.0
O58 O 0.26233 0.64599 0.39152 0.0
O59 O 1.10179 0.72288 0.40582 0.0
O60 O 0.38923 0.23594 0.40103 0.0
Tb61 Tb 0.43803 0.17452 0.3936 0.0
C62 C 0.48266 0.13523 0.48588 0.0
O63 O 0.55706 0.1718 0.34224 0.0
Tb64 Tb 0.55063 0.12951 0.41108 0.0
C65 C 0.62376 0.13119 0.4688 0.0
O66 O 0.49532 0.22497 0.35217 0.0
O67 O 0.53162 1.05428 0.37948 0.0
C68 C 0.55995 1.02642 0.35215 0.0
O69 O 0.54479 0.98081 0.33627 0.0
O70 O 0.45461 0.11733 0.45111 0.0
O71 O 0.51496 0.1662 0.4703 0.0
O72 O 0.36928 0.1303 0.41228 0.0
C73 C 0.53996 0.21745 0.33819 0.0
C74 C 0.41055 0.25794 0.44015 0.0
O75 O 0.61438 0.16681 0.4356 0.0
O76 O 0.59575 1.09107 0.46421 0.0
C77 C 0.3631 1.08105 0.42903 0.0
O78 O 0.39508 1.0477 0.41873 0.0
O79 O 0.44699 0.23234 0.45309 0.0
O80 O 0.19254 0.68801 0.81434 0.0
Tb81 Tb 0.17933 0.76821 0.80265 0.0
C82 C 1.07935 0.7811 0.84173 0.0
O83 O 1.12537 0.76709 0.69667 0.0
Tb84 Tb 1.11524 0.8358 0.73934 0.0
C85 C 1.05365 0.88412 0.68717 0.0
O86 O 0.1995 0.77504 0.72306 0.0
O87 O 0.1822 0.87021 0.70378 0.0
C88 C 0.18764 0.91267 0.67388 0.0
O89 O 0.15462 0.94637 0.67246 0.0
O90 O 1.12371 0.78718 0.8562 0.0
O91 O 1.06794 0.79603 0.79526 0.0
O92 O 0.24621 0.76629 0.84174 0.0
C93 C 0.16869 0.75684 0.6897 0.0
C94 C 0.15262 0.67228 0.79564 0.0
O95 O 1.06243 0.83593 0.6819 0.0
O96 O 1.07891 0.90579 0.72349 0.0
C97 C 0.24764 0.7588 0.8913 0.0
O98 O 0.21287 0.77476 0.91864 0.0
O99 O 1.12724 0.70981 0.7813 0.0
O100 O 0.5106 0.18281 0.8381 0.0
Tb101 Tb 0.49895 0.14751 0.76369 0.0
C102 C 0.56424 0.10943 0.68479 0.0
O103 O 0.45905 0.19169 0.65034 0.0
Tb104 Tb 0.47127 0.11057 0.63803 0.0
C105 C 0.48012 0.12178 0.53915 0.0
O106 O 0.43321 0.184 0.73195 0.0
O107 O 0.40612 1.07731 0.66638 0.0
C108 C 0.38661 1.03628 0.64451 0.0
O109 O 0.41148 1.0086 0.61374 0.0
O110 O 0.54914 0.15233 0.70295 0.0
O111 O 0.5339 1.0758 0.66605 0.0
O112 O 0.53215 1.07345 0.7945 0.0
C113 C 0.43106 0.20703 0.6857 0.0
C114 C 0.54172 0.21653 0.82176 0.0
O115 O 0.50483 0.14639 0.57348 0.0
O116 O 0.45106 1.08851 0.55985 0.0
C117 C 0.55233 1.06472 0.8412 0.0
O118 O 0.54463 1.09642 0.87895 0.0
O119 O 0.54466 0.21427 0.77246 0.0
O120 O 0.1963 0.35389 0.81119 0.0
Tb121 Tb 0.16762 0.43067 0.79947 0.0
C122 C 0.1447 0.50156 0.71436 0.0
O123 O 0.15172 0.524 0.88895 0.0
Tb124 Tb 1.10851 0.52816 0.8193 0.0
C125 C 0.1362 0.62069 0.79854 0.0
O126 O 0.21016 0.47831 0.85663 0.0
O127 O 1.04131 0.51992 0.85537 0.0
C128 C 1.02406 0.55295 0.88788 0.0
O129 O 0.9812 0.54404 0.90323 0.0
O130 O 0.18075 0.48529 0.73947 0.0
O131 O 1.10524 0.50531 0.7387 0.0
O132 O 1.10332 0.40643 0.75023 0.0
C133 C 0.19625 0.51377 0.88885 0.0
C134 C 0.2315 0.36293 0.78074 0.0
O135 O 0.16404 0.5832 0.80596 0.0
O136 O 1.09242 0.60698 0.80326 0.0
C137 C 1.06495 0.37605 0.75691 0.0
O138 O 1.05794 0.35467 0.80191 0.0
O139 O 0.22899 0.40817 0.76024 0.0
O140 O 0.88796 0.12828 0.74465 0.0
Tb141 Tb 0.83392 1.07563 0.7184 0.0
C142 C 0.77411 1.06729 0.62127 0.0
O143 O 0.73411 0.14477 0.74886 0.0
Tb144 Tb 0.7027 1.0812 0.70536 0.0
C145 C 0.6136 1.09952 0.68988 0.0
O146 O 0.79149 1.09878 0.7886 0.0
O147 O 0.6996 1.01266 0.75387 0.0
C148 C 0.73371 0.99014 0.77821 0.0
O149 O 0.77727 1.00148 0.76711 0.0
O150 O 0.79526 1.03918 0.65531 0.0
O151 O 0.73759 1.09263 0.63393 0.0
O152 O 0.89828 1.03504 0.6871 0.0
C153 C 0.7599 0.1366 0.78956 0.0
C154 C 0.87354 0.16742 0.71832 0.0
O155 O 0.64244 0.1278 0.71738 0.0
O156 O 0.6349 1.06122 0.6699 0.0
C157 C 0.90379 1.00731 0.64332 0.0
O158 O 0.8669 0.98975 0.61802 0.0
O159 O 0.83793 0.15406 0.68858 0.0
O160 O 0.50478 0.36472 0.1047 0.0
Tb161 Tb 0.50297 0.42083 1.04448 0.0
C162 C 0.57809 0.50655 1.03687 0.0
O163 O 0.45618 0.52324 0.11213 0.0
Tb164 Tb 0.48916 0.55093 1.04373 0.0
C165 C 0.49916 0.65233 1.04372 0.0
O166 O 0.43217 0.44753 0.07357 0.0
O167 O 0.48293 0.51363 0.96915 0.0
C168 C 0.44931 0.5223 0.9363 0.0
O169 O 0.45138 0.504 0.88959 0.0
O170 O 0.55688 0.47055 1.00951 0.0
O171 O 0.55514 0.5311 0.07067 0.0
O172 O 0.5392 0.35225 1.00789 0.0
C173 C 0.42746 0.48341 0.11096 0.0
C174 C 0.52479 0.39574 0.13786 0.0
O175 O 0.4599 0.62648 1.05027 0.0
O176 O 0.53237 0.6207 1.03658 0.0
C177 C 0.57665 0.35332 0.97646 0.0
O178 O 0.58883 0.39674 0.95375 0.0
O179 O 0.53479 0.44058 0.11786 0.0
O180 O 0.39976 0.74517 0.18976 0.0
Tb181 Tb 0.46486 0.76047 0.14925 0.0
C182 C 0.50829 0.7026 1.06603 0.0
O183 O 0.53774 0.86746 0.13641 0.0
Tb184 Tb 0.53514 0.81528 0.06914 0.0
C185 C 0.61647 0.77541 0.08274 0.0
O186 O 0.51393 0.81034 0.19844 0.0
O187 O 0.51695 0.86609 1.00578 0.0
C188 C 0.5437 0.90452 0.98903 0.0
O189 O 0.5299 0.93113 0.94909 0.0
O190 O 0.5097 0.70552 0.11588 0.0
O191 O 0.50271 0.74473 1.03943 0.0
O192 O 0.42399 0.75474 0.07414 0.0
C193 C 0.53951 0.85189 0.18496 0.0
C194 C 0.41218 0.70067 0.20772 0.0
O195 O 0.58385 0.77515 0.11642 0.0
O196 O 0.60434 0.7997 1.0411 0.0
C197 C 0.38699 0.72234 1.06607 0.0
O198 O 0.36205 0.70737 0.10534 0.0
O199 O 0.45506 0.69243 0.19609 0.0
O200 O 0.87482 0.47413 0.11677 0.0
Tb201 Tb 0.80621 0.50356 0.101 0.0
C202 C 0.76618 0.60918 0.08646 0.0
O203 O 0.70194 0.48957 0.1372 0.0
Tb204 Tb 0.71621 0.51099 1.05751 0.0
C205 C 0.62758 0.51361 1.03785 0.0
O206 O 0.7599 0.4376 0.13039 0.0
O207 O 0.7535 0.4422 1.03461 0.0
C208 C 0.73724 0.40764 1.00132 0.0
O209 O 0.7052 0.42018 0.96766 0.0
O210 O 0.78185 0.57927 0.12304 0.0
O211 O 0.74709 0.5874 1.04588 0.0
O212 O 0.82757 0.54484 1.02629 0.0
C213 C 0.72013 0.44711 0.15323 0.0
C214 C 0.87621 0.48965 0.16435 0.0
O215 O 0.64839 0.5347 0.07699 0.0
O216 O 0.65684 0.49309 1.00689 0.0
C217 C 0.86977 0.55429 1.00497 0.0
O218 O 0.90529 0.5275 1.02047 0.0
O219 O 0.8396 0.51546 0.17464 0.0
O220 O 0.69574 0.75296 1.06615 0.0
Tb221 Tb 0.75197 0.7716 0.12023 0.0
C222 C 0.74778 0.84394 1.02274 0.0
O223 O 0.78438 0.69389 1.05087 0.0
Tb224 Tb 0.81928 0.76638 0.07379 0.0
C225 C 0.87175 0.77877 0.99194 0.0
O226 O 0.76643 0.69046 0.13217 0.0
O227 O 0.85656 0.71889 0.13684 0.0
C228 C 0.88458 0.73081 0.17744 0.0
O229 O 0.89356 0.77967 0.18765 0.0
O230 O 0.77225 0.83701 1.06623 0.0
O231 O 0.77229 0.83604 1.06623 0.0
O232 O 0.75618 0.79659 0.19926 0.0
C233 C 0.77181 0.66555 0.08976 0.0
C234 C 0.66352 0.76649 0.09717 0.0
O235 O 0.82999 0.75831 0.99246 0.0
O236 O 0.88439 0.79233 1.03845 0.0
C237 C 0.76744 0.84437 0.21068 0.0
O238 O 0.78885 0.87326 0.1763 0.0
O239 O 0.6807 0.78198 0.14082 0.0
O240 O 0.68017 0.95022 0.83866 0.0
Tb241 Tb 0.67785 0.97588 0.91821 0.0
C242 C 0.68977 1.08507 0.97771 0.0
O243 O 0.73294 0.93611 1.03529 0.0
Tb244 Tb 0.67443 0.98598 1.04028 0.0
C245 C 0.67012 0.99359 0.13892 0.0
O246 O 0.69987 0.90216 0.9631 0.0
O247 O 0.61375 0.95744 0.99732 0.0
C248 C 0.58743 0.91927 1.0151 0.0
O249 O 0.59883 0.89696 1.05821 0.0
O250 O 0.70063 1.05585 0.93838 0.0
O251 O 0.67418 1.06564 1.02027 0.0
O252 O 0.60744 1.01211 0.8971 0.0
C253 C 0.72795 0.89664 1.00508 0.0
C254 C 0.72168 0.96935 0.82874 0.0
O255 O 0.70125 1.01667 0.11087 0.0
O256 O 0.63994 0.96692 0.11177 0.0
C257 C 0.58985 1.02424 0.8499 0.0
O258 O 0.60966 1.0062 0.80904 0.0
O259 O 0.73901 0.99008 0.8704 0.0
O260 O 0.38135 0.57444 0.9223 0.0
Tb261 Tb 0.32709 0.58294 0.97874 0.0
C262 C 0.28996 0.57661 0.08442 0.0
O263 O 0.21291 0.58634 0.94658 0.0
Tb264 Tb 0.24918 0.64039 0.99952 0.0
C265 C 0.17263 0.67661 1.03597 0.0
O266 O 0.27551 0.5395 0.92723 0.0
O267 O 0.27583 0.70898 0.96021 0.0
C268 C 0.27253 0.71397 0.91047 0.0
O269 O 0.27224 0.67232 0.88197 0.0
O270 O 0.30207 0.54497 1.04837 0.0
O271 O 0.28338 0.62418 0.07153 0.0
O272 O 0.33953 0.6626 1.01226 0.0
C273 C 0.23 0.54676 0.92292 0.0
C274 C 0.40827 0.54835 0.95249 0.0
O275 O 0.18356 0.62868 1.03757 0.0
O276 O 0.20612 0.70435 1.0162 0.0
C277 C 0.37823 0.69266 1.01659 0.0
O278 O 0.41219 0.68747 0.98403 0.0
O279 O 0.38982 0.54209 0.99734 0.0
O280 O 0.62075 0.24968 0.83081 0.0
Tb281 Tb 0.6651 0.23358 0.89617 0.0
C282 C 0.68825 0.14153 0.9718 0.0
O283 O 0.612 0.27277 1.00493 0.0
Tb284 Tb 0.68258 0.2508 1.02757 0.0
C285 C 0.67867 0.26234 0.12855 0.0
O286 O 0.64104 0.30728 0.93205 0.0
O287 O 0.71544 0.31822 0.98978 0.0
C288 C 0.74321 0.35258 1.0131 0.0
O289 O 0.76504 0.34023 1.05562 0.0
O290 O 0.66594 0.15814 0.93129 0.0
O291 O 0.7023 0.17178 1.01007 0.0
O292 O 0.71535 0.20417 0.83604 0.0
C293 C 0.60835 0.30734 0.96848 0.0
C294 C 0.58311 0.22939 0.85112 0.0
O295 O 0.64412 0.24893 0.09839 0.0
O296 O 0.71663 0.26817 0.10224 0.0
C297 C 0.74421 0.16371 0.83829 0.0
O298 O 0.75441 0.14326 0.88285 0.0
O299 O 0.59255 0.20795 0.89486 0.0
O300 O 0.8919 0.72875 0.9192 0.0
Tb301 Tb 0.95567 0.68664 0.92462 0.0
C302 C 0.97631 0.67359 1.03944 0.0
O303 O 1.05335 0.76653 0.92654 0.0
Tb304 Tb 1.04763 0.7019 0.97613 0.0
C305 C 1.12576 0.68939 1.02576 0.0
O306 O 1.0115 0.71907 0.868 0.0
O307 O 1.02518 0.63696 0.92591 0.0
C308 C 1.04991 0.59927 0.90808 0.0
O309 O 1.09521 0.59992 0.91525 0.0
O310 O 0.96948 0.64776 0.99725 0.0
O311 O 1.00153 0.71547 1.03665 0.0
O312 O 0.91783 0.60939 0.94231 0.0
C313 C 1.04366 0.75739 0.87877 0.0
C314 C 0.90459 0.76277 0.95416 0.0
O315 O 1.11572 0.7305 1.00019 0.0
O316 O 1.09288 0.6542 1.02088 0.0
C317 C 0.87949 0.60265 0.97188 0.0
O318 O 0.85452 0.64293 0.98109 0.0
O319 O 0.94746 0.75605 0.96842 0.0
O320 O 0.74373 0.21668 0.29218 0.0
Tb321 Tb 0.68861 0.2719 0.29232 0.0
C322 C 0.57676 0.25792 0.31969 0.0
O323 O 0.62929 0.27587 0.19797 0.0
Tb324 Tb 0.61276 0.34218 0.24205 0.0
C325 C 0.5485 0.37627 0.18145 0.0
O326 O 0.70386 0.29437 0.21357 0.0
O327 O 0.67478 0.39525 0.22096 0.0
C328 C 0.68645 0.40432 0.17164 0.0
O329 O 0.66126 0.38077 0.1359 0.0
O330 O 0.62038 0.24227 0.32102 0.0
O331 O 0.56795 0.30418 0.30116 0.0
O332 O 0.73078 0.30137 0.35715 0.0
C333 C 0.67177 0.27553 0.18219 0.0
C334 C 0.71653 0.18062 0.27315 0.0
O335 O 0.56452 0.33048 0.18009 0.0
O336 O 0.56849 0.40412 0.21744 0.0
C337 C 0.75346 0.27318 0.39151 0.0
O338 O 0.78294 0.29713 0.42295 0.0
O339 O 0.67438 0.19523 0.2667 0.0
O340 O 1.01782 0.7021 0.35083 0.0
Tb341 Tb 1.0053 0.66151 0.27909 0.0
C342 C 1.06606 0.61742 0.20166 0.0
O343 O 0.90605 0.64029 0.19756 0.0
Tb344 Tb 0.96611 0.59785 0.1735 0.0
C345 C 0.97385 0.64621 0.08696 0.0
O346 O 0.9471 0.70453 0.23941 0.0
O347 O 0.95175 0.51679 0.16565 0.0
C348 C 0.91871 0.49685 0.19358 0.0
O349 O 0.91487 0.51384 0.24064 0.0
O350 O 1.0532 0.66213 0.21685 0.0
O351 O 1.0351 0.57978 0.19941 0.0
O352 O 1.03864 0.58847 0.31293 0.0
C353 C 0.91197 0.68975 0.20787 0.0
C354 C 1.05142 0.73174 0.33271 0.0
O355 O 0.99231 0.66305 0.12964 0.0
O356 O 0.95412 0.60065 0.09197 0.0
C357 C 1.06159 0.58298 0.35872 0.0
O358 O 1.05752 0.6185 0.39381 0.0
O359 O 1.05548 0.72449 0.2841 0.0
O360 O 0.70452 0.84751 0.27348 0.0
Tb361 Tb 0.66663 0.91863 0.28667 0.0
C362 C 0.67668 0.98874 0.19259 0.0
O363 O 0.75916 0.98972 0.32184 0.0
Tb364 Tb 0.70542 1.03113 0.28672 0.0
C365 C 0.7254 0.12784 0.27343 0.0
O366 O 0.697 0.95735 0.36189 0.0
O367 O 0.6344 1.01253 0.3135 0.0
C368 C 0.60785 1.04418 0.3386 0.0
O369 O 0.62357 1.09085 0.3499 0.0
O370 O 0.64545 0.96704 0.2223 0.0
O371 O 0.71537 1.00639 0.21202 0.0
O372 O 0.60219 0.87052 0.25558 0.0
C373 C 0.74125 0.97842 0.36542 0.0
C374 C 0.73909 0.8696 0.24876 0.0
O375 O 0.73397 0.1033 0.31589 0.0
O376 O 0.70383 1.0985 0.24032 0.0
C377 C 0.56685 0.88644 0.22439 0.0
O378 O 0.56033 0.93607 0.22036 0.0
O379 O 0.73315 0.91858 0.24735 0.0
O380 O 0.39379 0.61672 0.24284 0.0
Tb381 Tb 0.33198 0.57076 0.22437 0.0
C382 C 0.2665 0.5599 0.13102 0.0
O383 O 0.23837 0.64596 0.25782 0.0
Tb384 Tb 0.20202 0.58326 0.21765 0.0
C385 C 1.11483 0.6067 0.20366 0.0
O386 O 0.29458 0.59777 0.2966 0.0
O387 O 0.19788 0.51799 0.26981 0.0
C388 C 0.23247 0.49332 0.29057 0.0
O389 O 0.27498 0.50048 0.27358 0.0
O390 O 0.28702 0.53365 0.16694 0.0
O391 O 0.23101 0.58676 0.14322 0.0
O392 O 0.38753 0.52317 0.18533 0.0
C393 C 0.26438 0.6369 0.29812 0.0
C394 C 0.38023 0.65771 0.2187 0.0
O395 O 0.14623 0.63663 0.22553 0.0
O396 O 1.13219 0.56358 0.18963 0.0
C397 C 0.38541 0.4889 0.14581 0.0
O398 O 0.34558 0.46617 0.13252 0.0
O399 O 0.34025 0.6488 0.19463 0.0
O400 O 1.01786 0.88499 0.60598 0.0
Tb401 Tb 1.0307 0.9439 0.55063 0.0
C402 C 1.12129 1.01255 0.54812 0.0
O403 O 0.98675 1.02707 0.63916 0.0
Tb404 Tb 1.03652 1.06186 0.58706 0.0
C405 C 1.047 0.15995 0.60804 0.0
O406 O 0.95934 0.97377 0.57506 0.0
O407 O 0.98998 1.06553 0.52107 0.0
C408 C 0.98151 1.03354 0.48299 0.0
O409 O 1.00607 0.99255 0.47662 0.0
O410 O 1.09199 0.9863 0.51835 0.0
O411 O 1.10557 1.03403 0.58889 0.0
O412 O 1.06231 0.87276 0.51438 0.0
C413 C 0.95198 0.99962 0.6195 0.0
C414 C 1.0379 0.91062 0.64333 0.0
O415 O 1.03859 0.1241 0.64186 0.0
O416 O 1.05006 0.14073 0.56251 0.0
C417 C 1.09899 0.8704 0.48226 0.0
O418 O 1.11285 0.91195 0.4573 0.0
O419 O 1.05722 0.95397 0.62779 0.0
O420 O 0.89335 0.25388 0.68647 0.0
Tb421 Tb 0.96413 0.2693 0.65926 0.0
C422 C 1.04205 0.2138 0.61824 0.0
O423 O 1.04269 0.37643 0.66492 0.0
Tb424 Tb 1.04981 0.32726 0.59751 0.0
C425 C 0.13868 0.31983 0.61341 0.0
O426 O 1.00187 0.3204 0.71689 0.0
O427 O 1.02271 0.36777 0.5309 0.0
C428 C 1.04462 0.40828 0.51108 0.0
O429 O 1.03024 0.42695 0.46705 0.0
O430 O 1.0257 0.22551 0.66244 0.0
O431 O 1.03709 0.24651 0.58064 0.0
O432 O 0.9449 0.23682 0.58001 0.0
C433 C 1.03386 0.35838 0.71114 0.0
C434 C 0.90436 0.21138 0.7098 0.0
O435 O 1.10722 0.30901 0.64697 0.0
O436 O 1.12079 0.33494 0.56997 0.0
C437 C 0.90411 0.21283 0.56575 0.0
O438 O 0.86711 0.2186 0.59383 0.0
O439 O 0.94866 0.20442 0.70753 0.0
O440 O 0.29682 0.89821 0.53236 0.0
Tb441 Tb 0.26542 0.97279 0.52778 0.0
C442 C 0.17153 1.02022 0.53842 0.0
O443 O 0.29343 1.09478 0.48229 0.0
Tb444 Tb 0.26492 1.08032 0.55863 0.0
C445 C 0.2664 0.17567 0.59167 0.0
O446 O 0.32382 1.01604 0.48636 0.0
O447 O 0.32139 1.03438 0.58852 0.0
C448 C 0.3361 1.03666 0.63644 0.0
O449 O 0.31024 1.05761 0.67131 0.0
O450 O 0.19443 0.99252 0.50578 0.0
O451 O 0.19469 1.05069 0.5703 0.0
O452 O 0.23499 0.96262 0.60809 0.0
C453 C 0.32377 1.06286 0.46512 0.0
C454 C 0.27712 0.87914 0.49096 0.0
O455 O 0.25167 0.16033 0.54701 0.0
O456 O 0.28022 0.13709 0.61894 0.0
C457 C 0.22667 0.91839 0.6345 0.0
O458 O 0.24746 0.8766 0.62056 0.0
O459 O 0.2506 0.91357 0.47076 0.0
O460 O 0.20346 0.32693 0.67228 0.0
Tb461 Tb 0.27533 0.33032 0.64875 0.0
C462 C 0.28 0.40685 0.55769 0.0
O463 O 0.28858 0.25608 0.55994 0.0
Tb464 Tb 0.34632 0.30937 0.56506 0.0
C465 C 0.38565 0.28558 0.47818 0.0
O466 O 0.28937 0.24881 0.64464 0.0
O467 O 0.39394 0.26404 0.61996 0.0
C468 C 0.39524 0.24693 0.66915 0.0
O469 O 0.36514 0.26293 0.70245 0.0
O470 O 0.28165 0.40478 0.6083 0.0
O471 O 0.30403 0.37303 0.53241 0.0
O472 O 0.29346 0.34523 0.72805 0.0
C473 C 0.27995 0.22865 0.60009 0.0
C474 C 0.18708 0.32109 0.62593 0.0
O475 O 0.34615 0.26709 0.49431 0.0
O476 O 0.40451 0.3172 0.51194 0.0
C477 C 0.26541 0.32659 0.76352 0.0
O478 O 0.25219 0.27768 0.76173 0.0
O479 O 0.21977 0.31999 0.59247 0.0
loop_
_geom_bond_atom_site_label_1
_geom_bond_atom_site_label_2
_geom_bond_distance
_geom_bond_site_symmetry_2
_ccdc_geom_bond_type
O0 Tb1 2.506 . S
O0 C14 1.265 . S
Tb1 O0 2.506 . S
Tb1 O6 2.312 . S
Tb1 O10 2.271 . S
Tb1 O12 2.338 . S
Tb1 O19 2.441 . S
C2 O10 1.252 . S
C2 O11 1.253 . S
O3 Tb4 2.271 . S
O3 C13 1.252 . S
Tb4 O3 2.271 . S
Tb4 O7 2.338 1_455 S
Tb4 O11 2.312 . S
Tb4 O15 2.441 . S
Tb4 O16 2.506 . S
C5 O15 1.244 . S
C5 O16 1.265 . S
O6 Tb1 2.312 . S
O6 C13 1.253 . S
O7 Tb4 2.338 1_655 S
O7 C8 1.258 . S
C8 O7 1.258 . S
C8 O9 1.251 . S
O9 C8 1.251 . S
O10 Tb1 2.271 . S
O10 C2 1.252 . S
O11 C2 1.253 . S
O11 Tb4 2.312 . S
O12 Tb1 2.338 . S
O12 C17 1.258 1_455 S
C13 O3 1.252 . S
C13 O6 1.253 . S
C14 O0 1.265 . S
C14 O19 1.244 . S
O15 Tb4 2.441 . S
O15 C5 1.244 . S
O16 Tb4 2.506 . S
O16 C5 1.265 . S
C17 O12 1.258 1_655 S
C17 O18 1.251 . S
O18 C17 1.251 . S
O19 Tb1 2.441 . S
O19 C14 1.244 . S
O20 Tb21 2.506 . S
O20 C34 1.265 . S
Tb21 O20 2.506 . S
Tb21 O26 2.312 . S
Tb21 O30 2.271 . S
Tb21 O32 2.338 1_565 S
Tb21 O39 2.441 . S
C22 O30 1.252 1_545 S
C22 O31 1.253 . S
O23 Tb24 2.271 1_565 S
O23 C33 1.252 . S
Tb24 O23 2.271 1_545 S
Tb24 O27 2.338 . S
Tb24 O31 2.312 . S
Tb24 O35 2.441 1_545 S
Tb24 O36 2.506 . S
C25 O35 1.244 . S
C25 O36 1.265 1_565 S
O26 Tb21 2.312 . S
O26 C33 1.253 . S
O27 Tb24 2.338 . S
O27 C28 1.258 . S
C28 O27 1.258 . S
C28 O29 1.251 . S
O29 C28 1.251 . S
O30 Tb21 2.271 . S
O30 C22 1.252 1_565 S
O31 C22 1.253 . S
O31 Tb24 2.312 . S
O32 Tb21 2.338 1_545 S
O32 C37 1.258 . S
C33 O23 1.252 . S
C33 O26 1.253 . S
C34 O20 1.265 . S
C34 O39 1.244 . S
O35 Tb24 2.441 1_565 S
O35 C25 1.244 . S
O36 Tb24 2.506 . S
O36 C25 1.265 1_545 S
C37 O32 1.258 . S
C37 O38 1.251 . S
O38 C37 1.251 . S
O39 Tb21 2.441 . S
O39 C34 1.244 . S
O40 Tb41 2.506 . S
O40 C54 1.265 . S
Tb41 O40 2.506 . S
Tb41 O46 2.312 . S
Tb41 O50 2.271 1_655 S
Tb41 O52 2.338 1_655 S
Tb41 O59 2.441 . S
C42 O50 1.252 . S
C42 O51 1.253 . S
O43 Tb44 2.271 . S
O43 C53 1.246 1_455 S
Tb44 O43 2.271 . S
Tb44 O47 2.338 . S
Tb44 O51 2.312 . S
Tb44 O55 2.441 . S
Tb44 O56 2.506 . S
C45 O55 1.244 . S
C45 O56 1.265 . S
O46 Tb41 2.312 . S
O46 C53 1.256 . S
O47 Tb44 2.338 . S
O47 C48 1.258 . S
C48 O47 1.258 . S
C48 O49 1.251 . S
O49 C48 1.251 . S
O50 Tb41 2.271 1_455 S
O50 C42 1.252 . S
O51 C42 1.253 . S
O51 Tb44 2.312 . S
O52 Tb41 2.338 1_455 S
O52 C57 1.258 . S
C53 O43 1.246 1_655 S
C53 O46 1.256 . S
C54 O40 1.265 . S
C54 O59 1.244 . S
O55 Tb44 2.441 . S
O55 C45 1.244 . S
O56 Tb44 2.506 . S
O56 C45 1.265 . S
C57 O52 1.258 . S
C57 O58 1.251 . S
O58 C57 1.251 . S
O59 Tb41 2.441 . S
O59 C54 1.244 . S
O60 Tb61 2.506 . S
O60 C74 1.265 . S
Tb61 O60 2.506 . S
Tb61 O66 2.312 . S
Tb61 O70 2.271 . S
Tb61 O72 2.338 . S
Tb61 O79 2.441 . S
C62 O70 1.252 . S
C62 O71 1.253 . S
O63 Tb64 2.271 . S
O63 C73 1.252 . S
Tb64 O63 2.271 . S
Tb64 O67 2.338 1_545 S
Tb64 O71 2.312 . S
Tb64 O75 2.441 . S
Tb64 O76 2.506 1_545 S
C65 O75 1.244 . S
C65 O76 1.265 1_545 S
O66 Tb61 2.312 . S
O66 C73 1.253 . S
O67 Tb64 2.338 1_565 S
O67 C68 1.258 . S
C68 O67 1.258 . S
C68 O69 1.251 . S
O69 C68 1.251 . S
O70 Tb61 2.271 . S
O70 C62 1.252 . S
O71 C62 1.253 . S
O71 Tb64 2.312 . S
O72 Tb61 2.338 . S
O72 C77 1.258 . S
C73 O63 1.252 . S
C73 O66 1.253 . S
C74 O60 1.265 . S
C74 O79 1.244 . S
O75 Tb64 2.441 . S
O75 C65 1.244 . S
O76 Tb64 2.506 1_565 S
O76 C65 1.265 1_565 S
C77 O72 1.258 . S
C77 O78 1.251 1_545 S
O78 C77 1.251 1_565 S
O79 Tb61 2.441 . S
O79 C74 1.244 . S
O80 Tb81 2.506 . S
O80 C94 1.265 . S
Tb81 O80 2.506 . S
Tb81 O86 2.312 . S
Tb81 O90 2.271 1_455 S
Tb81 O92 2.338 . S
Tb81 O99 2.441 1_455 S
C82 O90 1.252 . S
C82 O91 1.253 . S
O83 Tb84 2.271 . S
O83 C93 1.252 1_655 S
Tb84 O83 2.271 . S
Tb84 O87 2.338 1_655 S
Tb84 O91 2.312 . S
Tb84 O95 2.441 . S
Tb84 O96 2.506 . S
C85 O95 1.244 . S
C85 O96 1.265 . S
O86 Tb81 2.312 . S
O86 C93 1.253 . S
O87 Tb84 2.338 1_455 S
O87 C88 1.258 . S
C88 O87 1.258 . S
C88 O89 1.251 . S
O89 C88 1.251 . S
O90 Tb81 2.271 1_655 S
O90 C82 1.252 . S
O91 C82 1.253 . S
O91 Tb84 2.312 . S
O92 Tb81 2.338 . S
O92 C97 1.258 . S
C93 O83 1.252 1_455 S
C93 O86 1.253 . S
C94 O80 1.265 . S
C94 O99 1.244 1_455 S
O95 Tb84 2.441 . S
O95 C85 1.244 . S
O96 Tb84 2.506 . S
O96 C85 1.265 . S
C97 O92 1.258 . S
C97 O98 1.251 . S
O98 C97 1.251 . S
O99 Tb81 2.441 1_655 S
O99 C94 1.244 1_655 S
O100 Tb101 2.506 . S
O100 C114 1.265 . S
Tb101 O100 2.506 . S
Tb101 O106 2.312 . S
Tb101 O110 2.271 . S
Tb101 O112 2.338 . S
Tb101 O119 2.441 . S
C102 O110 1.252 . S
C102 O111 1.253 . S
O103 Tb104 2.271 . S
O103 C113 1.252 . S
Tb104 O103 2.271 . S
Tb104 O107 2.338 1_545 S
Tb104 O111 2.312 . S
Tb104 O115 2.441 . S
Tb104 O116 2.506 . S
C105 O115 1.244 . S
C105 O116 1.265 . S
O106 Tb101 2.312 . S
O106 C113 1.253 . S
O107 Tb104 2.338 1_565 S
O107 C108 1.258 . S
C108 O107 1.258 . S
C108 O109 1.251 . S
O109 C108 1.251 . S
O110 Tb101 2.271 . S
O110 C102 1.252 . S
O111 C102 1.253 . S
O111 Tb104 2.312 . S
O112 Tb101 2.338 . S
O112 C117 1.258 1_545 S
C113 O103 1.252 . S
C113 O106 1.253 . S
C114 O100 1.265 . S
C114 O119 1.244 . S
O115 Tb104 2.441 . S
O115 C105 1.244 . S
O116 Tb104 2.506 . S
O116 C105 1.265 . S
C117 O112 1.258 1_565 S
C117 O118 1.251 . S
O118 C117 1.251 . S
O119 Tb101 2.441 . S
O119 C114 1.244 . S
O120 Tb121 2.506 . S
O120 C134 1.265 . S
Tb121 O120 2.506 . S
Tb121 O126 2.312 . S
Tb121 O130 2.271 . S
Tb121 O132 2.338 . S
Tb121 O139 2.441 . S
C122 O130 1.252 . S
C122 O131 1.253 . S
O123 Tb124 2.263 1_455 S
O123 C133 1.252 . S
Tb124 O123 2.263 1_655 S
Tb124 O127 2.348 . S
Tb124 O131 2.309 1_655 S
Tb124 O135 2.436 1_655 S
Tb124 O136 2.508 . S
C125 O135 1.244 . S
C125 O136 1.265 1_455 S
O126 Tb121 2.312 . S
O126 C133 1.253 . S
O127 Tb124 2.348 . S
O127 C128 1.258 . S
C128 O127 1.258 . S
C128 O129 1.251 . S
O129 C128 1.251 . S
O130 Tb121 2.271 . S
O130 C122 1.252 . S
O131 C122 1.253 . S
O131 Tb124 2.309 1_455 S
O132 Tb121 2.338 . S
O132 C137 1.258 1_455 S
C133 O123 1.252 . S
C133 O126 1.253 . S
C134 O120 1.265 . S
C134 O139 1.244 . S
O135 Tb124 2.436 1_455 S
O135 C125 1.244 . S
O136 Tb124 2.508 . S
O136 C125 1.265 1_655 S
C137 O132 1.258 1_655 S
C137 O138 1.251 . S
O138 C137 1.251 . S
O139 Tb121 2.441 . S
O139 C134 1.244 . S
O140 Tb141 2.506 . S
O140 C154 1.265 . S
Tb141 O140 2.506 . S
Tb141 O146 2.312 . S
Tb141 O150 2.271 . S
Tb141 O152 2.339 . S
Tb141 O159 2.441 . S
C142 O150 1.252 1_565 S
C142 O151 1.253 . S
O143 Tb144 2.271 1_545 S
O143 C153 1.252 . S
Tb144 O143 2.271 1_565 S
Tb144 O147 2.338 . S
Tb144 O151 2.312 . S
Tb144 O155 2.441 1_565 S
Tb144 O156 2.506 . S
C145 O155 1.244 1_565 S
C145 O156 1.265 . S
O146 Tb141 2.312 . S
O146 C153 1.253 . S
O147 Tb144 2.338 . S
O147 C148 1.258 . S
C148 O147 1.258 . S
C148 O149 1.251 . S
O149 C148 1.251 . S
O150 Tb141 2.271 . S
O150 C142 1.252 1_545 S
O151 C142 1.253 . S
O151 Tb144 2.312 . S
O152 Tb141 2.339 . S
O152 C157 1.256 1_545 S
C153 O143 1.252 . S
C153 O146 1.253 . S
C154 O140 1.265 . S
C154 O159 1.244 . S
O155 Tb144 2.441 1_545 S
O155 C145 1.244 1_545 S
O156 Tb144 2.506 . S
O156 C145 1.265 . S
C157 O152 1.256 1_565 S
C157 O158 1.251 . S
O158 C157 1.251 . S
O159 Tb141 2.441 . S
O159 C154 1.244 . S
O160 Tb161 2.506 . S
O160 C174 1.265 . S
Tb161 O160 2.506 . S
Tb161 O166 2.312 . S
Tb161 O170 2.271 . S
Tb161 O172 2.338 1_554 S
Tb161 O179 2.441 . S
C162 O170 1.252 1_556 S
C162 O171 1.253 . S
O163 Tb164 2.271 1_554 S
O163 C173 1.252 . S
Tb164 O163 2.271 1_556 S
Tb164 O167 2.338 . S
Tb164 O171 2.312 . S
Tb164 O175 2.441 1_556 S
Tb164 O176 2.506 . S
C165 O175 1.244 1_556 S
C165 O176 1.265 . S
O166 Tb161 2.312 . S
O166 C173 1.253 . S
O167 Tb164 2.338 . S
O167 C168 1.258 . S
C168 O167 1.258 . S
C168 O169 1.251 . S
O169 C168 1.251 . S
O170 Tb161 2.271 . S
O170 C162 1.252 1_554 S
O171 C162 1.253 . S
O171 Tb164 2.312 . S
O172 Tb161 2.338 1_556 S
O172 C177 1.258 . S
C173 O163 1.252 . S
C173 O166 1.253 . S
C174 O160 1.265 . S
C174 O179 1.244 . S
O175 Tb164 2.441 1_554 S
O175 C165 1.244 1_554 S
O176 Tb164 2.506 . S
O176 C165 1.265 . S
C177 O172 1.258 . S
C177 O178 1.251 . S
O178 C177 1.251 . S
O179 Tb161 2.441 . S
O179 C174 1.244 . S
O180 Tb181 2.506 . S
O180 C194 1.265 . S
Tb181 O180 2.506 . S
Tb181 O186 2.312 . S
Tb181 O190 2.271 . S
Tb181 O192 2.338 . S
Tb181 O199 2.441 . S
C182 O190 1.252 . S
C182 O191 1.253 . S
O183 Tb184 2.271 . S
O183 C193 1.252 . S
Tb184 O183 2.271 . S
Tb184 O187 2.338 1_554 S
Tb184 O191 2.312 . S
Tb184 O195 2.441 . S
Tb184 O196 2.506 . S
C185 O195 1.244 . S
C185 O196 1.265 . S
O186 Tb181 2.312 . S
O186 C193 1.253 . S
O187 Tb184 2.338 1_556 S
O187 C188 1.258 . S
C188 O187 1.258 . S
C188 O189 1.251 . S
O189 C188 1.251 . S
O190 Tb181 2.271 . S
O190 C182 1.252 . S
O191 C182 1.253 . S
O191 Tb184 2.312 . S
O192 Tb181 2.338 . S
O192 C197 1.258 . S
C193 O183 1.252 . S
C193 O186 1.253 . S
C194 O180 1.265 . S
C194 O199 1.244 . S
O195 Tb184 2.441 . S
O195 C185 1.244 . S
O196 Tb184 2.506 . S
O196 C185 1.265 . S
C197 O192 1.258 . S
C197 O198 1.251 1_554 S
O198 C197 1.251 1_556 S
O199 Tb181 2.441 . S
O199 C194 1.244 . S
O200 Tb201 2.506 . S
O200 C214 1.265 . S
Tb201 O200 2.506 . S
Tb201 O206 2.312 . S
Tb201 O210 2.271 . S
Tb201 O212 2.338 . S
Tb201 O219 2.441 . S
C202 O210 1.252 . S
C202 O211 1.253 1_554 S
O203 Tb204 2.271 1_554 S
O203 C213 1.252 . S
Tb204 O203 2.271 1_556 S
Tb204 O207 2.338 . S
Tb204 O211 2.312 . S
Tb204 O215 2.441 1_556 S
Tb204 O216 2.506 . S
C205 O215 1.244 . S
C205 O216 1.265 1_554 S
O206 Tb201 2.312 . S
O206 C213 1.253 . S
O207 Tb204 2.338 . S
O207 C208 1.258 . S
C208 O207 1.258 . S
C208 O209 1.251 . S
O209 C208 1.251 . S
O210 Tb201 2.271 . S
O210 C202 1.252 . S
O211 C202 1.253 1_556 S
O211 Tb204 2.312 . S
O212 Tb201 2.338 . S
O212 C217 1.258 1_554 S
C213 O203 1.252 . S
C213 O206 1.253 . S
C214 O200 1.265 . S
C214 O219 1.244 . S
O215 Tb204 2.441 1_554 S
O215 C205 1.244 . S
O216 Tb204 2.506 . S
O216 C205 1.265 1_556 S
C217 O212 1.258 1_556 S
C217 O218 1.251 . S
O218 C217 1.251 . S
O219 Tb201 2.441 . S
O219 C214 1.244 . S
O220 Tb221 2.506 . S
O220 C234 1.265 . S
Tb221 O220 2.506 . S
Tb221 O226 2.312 . S
Tb221 O230 2.271 . S
Tb221 O232 2.338 . S
Tb221 O239 2.441 . S
C222 O230 1.252 1_556 S
C222 O231 1.253 . S
O223 Tb224 2.271 1_554 S
O223 C233 1.252 . S
Tb224 O223 2.271 1_556 S
Tb224 O227 2.338 1_556 S
Tb224 O231 2.312 . S
Tb224 O235 2.441 . S
Tb224 O236 2.506 . S
C225 O235 1.244 . S
C225 O236 1.265 . S
O226 Tb221 2.312 . S
O226 C233 1.253 . S
O227 Tb224 2.338 1_554 S
O227 C228 1.258 . S
C228 O227 1.258 . S
C228 O229 1.251 . S
O229 C228 1.251 . S
O230 Tb221 2.271 . S
O230 C222 1.252 1_554 S
O231 C222 1.253 . S
O231 Tb224 2.312 . S
O232 Tb221 2.338 . S
O232 C237 1.258 . S
C233 O223 1.252 . S
C233 O226 1.253 . S
C234 O220 1.265 . S
C234 O239 1.244 . S
O235 Tb224 2.441 . S
O235 C225 1.244 . S
O236 Tb224 2.506 . S
O236 C225 1.265 . S
C237 O232 1.258 . S
C237 O238 1.251 . S
O238 C237 1.251 . S
O239 Tb221 2.441 . S
O239 C234 1.244 . S
O240 Tb241 2.506 . S
O240 C254 1.265 . S
Tb241 O240 2.506 . S
Tb241 O246 2.312 . S
Tb241 O250 2.271 . S
Tb241 O252 2.338 . S
Tb241 O259 2.441 . S
C242 O250 1.252 . S
C242 O251 1.253 . S
O243 Tb244 2.271 1_556 S
O243 C253 1.252 . S
Tb244 O243 2.271 1_554 S
Tb244 O247 2.338 . S
Tb244 O251 2.312 1_554 S
Tb244 O255 2.441 . S
Tb244 O256 2.506 . S
C245 O255 1.244 . S
C245 O256 1.265 . S
O246 Tb241 2.312 . S
O246 C253 1.253 . S
O247 Tb244 2.338 . S
O247 C248 1.258 . S
C248 O247 1.258 . S
C248 O249 1.251 1_554 S
O249 C248 1.251 1_556 S
O250 Tb241 2.271 . S
O250 C242 1.252 . S
O251 C242 1.253 . S
O251 Tb244 2.312 1_556 S
O252 Tb241 2.338 . S
O252 C257 1.258 . S
C253 O243 1.252 . S
C253 O246 1.253 . S
C254 O240 1.265 . S
C254 O259 1.244 . S
O255 Tb244 2.441 . S
O255 C245 1.244 . S
O256 Tb244 2.506 . S
O256 C245 1.265 . S
C257 O252 1.258 . S
C257 O258 1.251 . S
O258 C257 1.251 . S
O259 Tb241 2.441 . S
O259 C254 1.244 . S
O260 Tb261 2.506 . S
O260 C274 1.265 . S
Tb261 O260 2.506 . S
Tb261 O266 2.312 . S
Tb261 O270 2.271 . S
Tb261 O272 2.338 . S
Tb261 O279 2.441 . S
C262 O270 1.252 . S
C262 O271 1.253 . S
O263 Tb264 2.271 . S
O263 C273 1.252 . S
Tb264 O263 2.271 . S
Tb264 O267 2.338 . S
Tb264 O271 2.312 . S
Tb264 O275 2.441 . S
Tb264 O276 2.506 . S
C265 O275 1.245 1_655 S
C265 O276 1.265 1_655 S
O266 Tb261 2.312 . S
O266 C273 1.253 . S
O267 Tb264 2.338 . S
O267 C268 1.258 . S
C268 O267 1.258 . S
C268 O269 1.251 . S
O269 C268 1.251 . S
O270 Tb261 2.271 . S
O270 C262 1.252 . S
O271 C262 1.253 . S
O271 Tb264 2.312 . S
O272 Tb261 2.338 . S
O272 C277 1.258 . S
C273 O263 1.252 . S
C273 O266 1.253 . S
C274 O260 1.265 . S
C274 O279 1.244 . S
O275 Tb264 2.441 . S
O275 C265 1.245 1_455 S
O276 Tb264 2.506 . S
O276 C265 1.265 1_455 S
C277 O272 1.258 . S
C277 O278 1.251 . S
O278 C277 1.251 . S
O279 Tb261 2.441 . S
O279 C274 1.244 . S
O280 Tb281 2.506 . S
O280 C294 1.265 . S
Tb281 O280 2.506 . S
Tb281 O286 2.312 . S
Tb281 O290 2.271 . S
Tb281 O292 2.338 . S
Tb281 O299 2.441 . S
C282 O290 1.252 . S
C282 O291 1.253 . S
O283 Tb284 2.271 . S
O283 C293 1.252 . S
Tb284 O283 2.271 . S
Tb284 O287 2.338 1_556 S
Tb284 O291 2.312 . S
Tb284 O295 2.441 1_556 S
Tb284 O296 2.506 1_556 S
C285 O295 1.244 . S
C285 O296 1.265 . S
O286 Tb281 2.312 . S
O286 C293 1.253 . S
O287 Tb284 2.338 1_554 S
O287 C288 1.258 1_554 S
C288 O287 1.258 1_556 S
C288 O289 1.251 . S
O289 C288 1.251 . S
O290 Tb281 2.271 . S
O290 C282 1.252 . S
O291 C282 1.253 . S
O291 Tb284 2.312 . S
O292 Tb281 2.338 . S
O292 C297 1.258 . S
C293 O283 1.252 . S
C293 O286 1.253 . S
C294 O280 1.265 . S
C294 O299 1.244 . S
O295 Tb284 2.441 1_554 S
O295 C285 1.244 . S
O296 Tb284 2.506 1_554 S
O296 C285 1.265 . S
C297 O292 1.258 . S
C297 O298 1.251 . S
O298 C297 1.251 . S
O299 Tb281 2.441 . S
O299 C294 1.244 . S
O300 Tb301 2.506 . S
O300 C314 1.265 . S
Tb301 O300 2.506 . S
Tb301 O306 2.312 . S
Tb301 O310 2.271 . S
Tb301 O312 2.338 . S
Tb301 O319 2.441 . S
C302 O310 1.252 . S
C302 O311 1.253 . S
O303 Tb304 2.271 . S
O303 C313 1.252 . S
Tb304 O303 2.271 . S
Tb304 O307 2.338 . S
Tb304 O311 2.312 . S
Tb304 O315 2.441 . S
Tb304 O316 2.512 . S
C305 O315 1.244 1_455 S
C305 O316 1.263 1_455 S
O306 Tb301 2.312 . S
O306 C313 1.253 . S
O307 Tb304 2.338 . S
O307 C308 1.258 . S
C308 O307 1.258 . S
C308 O309 1.251 . S
O309 C308 1.251 . S
O310 Tb301 2.271 . S
O310 C302 1.252 . S
O311 C302 1.253 . S
O311 Tb304 2.312 . S
O312 Tb301 2.338 . S
O312 C317 1.258 . S
C313 O303 1.252 . S
C313 O306 1.253 . S
C314 O300 1.265 . S
C314 O319 1.244 . S
O315 Tb304 2.441 . S
O315 C305 1.244 1_655 S
O316 Tb304 2.512 . S
O316 C305 1.263 1_655 S
C317 O312 1.258 . S
C317 O318 1.251 . S
O318 C317 1.251 . S
O319 Tb301 2.441 . S
O319 C314 1.244 . S
O320 Tb321 2.506 . S
O320 C334 1.265 . S
Tb321 O320 2.506 . S
Tb321 O326 2.312 . S
Tb321 O330 2.271 . S
Tb321 O332 2.338 . S
Tb321 O339 2.441 . S
C322 O330 1.252 . S
C322 O331 1.253 . S
O323 Tb324 2.271 . S
O323 C333 1.252 . S
Tb324 O323 2.271 . S
Tb324 O327 2.338 . S
Tb324 O331 2.312 . S
Tb324 O335 2.441 . S
Tb324 O336 2.506 . S
C325 O335 1.244 . S
C325 O336 1.265 . S
O326 Tb321 2.312 . S
O326 C333 1.253 . S
O327 Tb324 2.338 . S
O327 C328 1.258 . S
C328 O327 1.258 . S
C328 O329 1.251 . S
O329 C328 1.251 . S
O330 Tb321 2.271 . S
O330 C322 1.252 . S
O331 C322 1.253 . S
O331 Tb324 2.312 . S
O332 Tb321 2.338 . S
O332 C337 1.258 . S
C333 O323 1.252 . S
C333 O326 1.253 . S
C334 O320 1.265 . S
C334 O339 1.244 . S
O335 Tb324 2.441 . S
O335 C325 1.244 . S
O336 Tb324 2.506 . S
O336 C325 1.265 . S
C337 O332 1.258 . S
C337 O338 1.251 . S
O338 C337 1.251 . S
O339 Tb321 2.441 . S
O339 C334 1.244 . S
O340 Tb341 2.506 . S
O340 C354 1.265 . S
Tb341 O340 2.506 . S
Tb341 O346 2.312 . S
Tb341 O350 2.271 . S
Tb341 O352 2.338 . S
Tb341 O359 2.441 . S
C342 O350 1.252 . S
C342 O351 1.253 . S
O343 Tb344 2.271 . S
O343 C353 1.252 . S
Tb344 O343 2.271 . S
Tb344 O347 2.338 . S
Tb344 O351 2.312 . S
Tb344 O355 2.441 1_554 S
Tb344 O356 2.506 1_554 S
C345 O355 1.244 . S
C345 O356 1.265 . S
O346 Tb341 2.312 . S
O346 C353 1.253 . S
O347 Tb344 2.338 . S
O347 C348 1.258 . S
C348 O347 1.258 . S
C348 O349 1.251 . S
O349 C348 1.251 . S
O350 Tb341 2.271 . S
O350 C342 1.252 . S
O351 C342 1.253 . S
O351 Tb344 2.312 . S
O352 Tb341 2.338 . S
O352 C357 1.258 . S
C353 O343 1.252 . S
C353 O346 1.253 . S
C354 O340 1.265 . S
C354 O359 1.244 . S
O355 Tb344 2.441 1_556 S
O355 C345 1.244 . S
O356 Tb344 2.506 1_556 S
O356 C345 1.265 . S
C357 O352 1.258 . S
C357 O358 1.251 . S
O358 C357 1.251 . S
O359 Tb341 2.441 . S
O359 C354 1.244 . S
O360 Tb361 2.506 . S
O360 C374 1.265 . S
Tb361 O360 2.506 . S
Tb361 O366 2.312 . S
Tb361 O370 2.271 . S
Tb361 O372 2.338 . S
Tb361 O379 2.441 . S
C362 O370 1.252 . S
C362 O371 1.253 . S
O363 Tb364 2.271 . S
O363 C373 1.252 . S
Tb364 O363 2.271 . S
Tb364 O367 2.338 . S
Tb364 O371 2.312 . S
Tb364 O375 2.441 . S
Tb364 O376 2.506 1_565 S
C365 O375 1.244 1_545 S
C365 O376 1.265 . S
O366 Tb361 2.312 . S
O366 C373 1.253 . S
O367 Tb364 2.338 . S
O367 C368 1.258 . S
C368 O367 1.258 . S
C368 O369 1.251 . S
O369 C368 1.251 . S
O370 Tb361 2.271 . S
O370 C362 1.252 . S
O371 C362 1.253 . S
O371 Tb364 2.312 . S
O372 Tb361 2.338 . S
O372 C377 1.258 . S
C373 O363 1.252 . S
C373 O366 1.253 . S
C374 O360 1.265 . S
C374 O379 1.244 . S
O375 Tb364 2.441 . S
O375 C365 1.244 1_565 S
O376 Tb364 2.506 1_545 S
O376 C365 1.265 . S
C377 O372 1.258 . S
C377 O378 1.251 . S
O378 C377 1.251 . S
O379 Tb361 2.441 . S
O379 C374 1.244 . S
O380 Tb381 2.506 . S
O380 C394 1.265 . S
Tb381 O380 2.506 . S
Tb381 O386 2.312 . S
Tb381 O390 2.271 . S
Tb381 O392 2.338 . S
Tb381 O399 2.441 . S
C382 O390 1.252 . S
C382 O391 1.253 . S
O383 Tb384 2.271 . S
O383 C393 1.252 . S
Tb384 O383 2.271 . S
Tb384 O387 2.338 . S
Tb384 O391 2.312 . S
Tb384 O395 2.441 . S
Tb384 O396 2.506 1_455 S
C385 O395 1.244 1_655 S
C385 O396 1.265 . S
O386 Tb381 2.312 . S
O386 C393 1.253 . S
O387 Tb384 2.338 . S
O387 C388 1.258 . S
C388 O387 1.258 . S
C388 O389 1.251 . S
O389 C388 1.251 . S
O390 Tb381 2.271 . S
O390 C382 1.252 . S
O391 C382 1.253 . S
O391 Tb384 2.312 . S
O392 Tb381 2.338 . S
O392 C397 1.258 . S
C393 O383 1.252 . S
C393 O386 1.253 . S
C394 O380 1.265 . S
C394 O399 1.244 . S
O395 Tb384 2.441 . S
O395 C385 1.244 1_455 S
O396 Tb384 2.506 1_655 S
O396 C385 1.265 . S
C397 O392 1.258 . S
C397 O398 1.251 . S
O398 C397 1.251 . S
O399 Tb381 2.441 . S
O399 C394 1.244 . S
O400 Tb401 2.506 . S
O400 C414 1.265 . S
Tb401 O400 2.506 . S
Tb401 O406 2.312 . S
Tb401 O410 2.271 . S
Tb401 O412 2.338 . S
Tb401 O419 2.441 . S
C402 O410 1.252 . S
C402 O411 1.253 . S
O403 Tb404 2.271 . S
O403 C413 1.252 . S
Tb404 O403 2.271 . S
Tb404 O407 2.338 1_565 S
Tb404 O411 2.312 . S
Tb404 O415 2.441 1_565 S
Tb404 O416 2.506 1_565 S
C405 O415 1.244 . S
C405 O416 1.265 . S
O406 Tb401 2.312 . S
O406 C413 1.253 . S
O407 Tb404 2.338 1_545 S
O407 C408 1.258 1_545 S
C408 O407 1.258 1_565 S
C408 O409 1.251 . S
O409 C408 1.251 . S
O410 Tb401 2.271 . S
O410 C402 1.252 . S
O411 C402 1.253 . S
O411 Tb404 2.312 . S
O412 Tb401 2.338 . S
O412 C417 1.258 . S
C413 O403 1.252 . S
C413 O406 1.253 . S
C414 O400 1.265 . S
C414 O419 1.244 . S
O415 Tb404 2.441 1_545 S
O415 C405 1.244 . S
O416 Tb404 2.506 1_545 S
O416 C405 1.265 . S
C417 O412 1.258 . S
C417 O418 1.251 . S
O418 C417 1.251 . S
O419 Tb401 2.441 . S
O419 C414 1.244 . S
O420 Tb421 2.506 . S
O420 C434 1.265 . S
Tb421 O420 2.506 . S
Tb421 O426 2.312 . S
Tb421 O430 2.271 . S
Tb421 O432 2.338 . S
Tb421 O439 2.441 . S
C422 O430 1.252 . S
C422 O431 1.253 . S
O423 Tb424 2.271 . S
O423 C433 1.252 . S
Tb424 O423 2.271 . S
Tb424 O427 2.338 . S
Tb424 O431 2.312 . S
Tb424 O435 2.441 1_655 S
Tb424 O436 2.506 1_655 S
C425 O435 1.244 . S
C425 O436 1.265 . S
O426 Tb421 2.312 . S
O426 C433 1.253 . S
O427 Tb424 2.338 . S
O427 C428 1.258 . S
C428 O427 1.258 . S
C428 O429 1.251 . S
O429 C428 1.251 . S
O430 Tb421 2.271 . S
O430 C422 1.252 . S
O431 C422 1.253 . S
O431 Tb424 2.312 . S
O432 Tb421 2.338 . S
O432 C437 1.258 . S
C433 O423 1.252 . S
C433 O426 1.253 . S
C434 O420 1.265 . S
C434 O439 1.244 . S
O435 Tb424 2.441 1_455 S
O435 C425 1.244 . S
O436 Tb424 2.506 1_455 S
O436 C425 1.265 . S
C437 O432 1.258 . S
C437 O438 1.251 . S
O438 C437 1.251 . S
O439 Tb421 2.441 . S
O439 C434 1.244 . S
O440 Tb441 2.506 . S
O440 C454 1.265 . S
Tb441 O440 2.506 . S
Tb441 O446 2.312 . S
Tb441 O450 2.271 . S
Tb441 O452 2.338 . S
Tb441 O459 2.441 . S
C442 O450 1.252 . S
C442 O451 1.253 . S
O443 Tb444 2.271 1_565 S
O443 C453 1.252 . S
Tb444 O443 2.271 1_545 S
Tb444 O447 2.338 . S
Tb444 O451 2.312 1_545 S
Tb444 O455 2.441 . S
Tb444 O456 2.506 . S
C445 O455 1.244 . S
C445 O456 1.265 . S
O446 Tb441 2.312 . S
O446 C453 1.253 . S
O447 Tb444 2.338 . S
O447 C448 1.258 . S
C448 O447 1.258 . S
C448 O449 1.251 1_545 S
O449 C448 1.251 1_565 S
O450 Tb441 2.271 . S
O450 C442 1.252 . S
O451 C442 1.253 . S
O451 Tb444 2.312 1_565 S
O452 Tb441 2.338 . S
O452 C457 1.258 . S
C453 O443 1.252 . S
C453 O446 1.253 . S
C454 O440 1.265 . S
C454 O459 1.244 . S
O455 Tb444 2.441 . S
O455 C445 1.244 . S
O456 Tb444 2.506 . S
O456 C445 1.265 . S
C457 O452 1.258 . S
C457 O458 1.251 . S
O458 C457 1.251 . S
O459 Tb441 2.441 . S
O459 C454 1.244 . S
O460 Tb461 2.506 . S
O460 C474 1.265 . S
Tb461 O460 2.506 . S
Tb461 O466 2.312 . S
Tb461 O470 2.271 . S
Tb461 O472 2.338 . S
Tb461 O479 2.441 . S
C462 O470 1.252 . S
C462 O471 1.253 . S
O463 Tb464 2.271 . S
O463 C473 1.252 . S
Tb464 O463 2.271 . S
Tb464 O467 2.338 . S
Tb464 O471 2.312 . S
Tb464 O475 2.441 . S
Tb464 O476 2.506 . S
C465 O475 1.244 . S
C465 O476 1.265 . S
O466 Tb461 2.312 . S
O466 C473 1.253 . S
O467 Tb464 2.338 . S
O467 C468 1.258 . S
C468 O467 1.258 . S
C468 O469 1.251 . S
O469 C468 1.251 . S
O470 Tb461 2.271 . S
O470 C462 1.252 . S
O471 C462 1.253 . S
O471 Tb464 2.312 . S
O472 Tb461 2.338 . S
O472 C477 1.258 . S
C473 O463 1.252 . S
C473 O466 1.253 . S
C474 O460 1.265 . S
C474 O479 1.244 . S
O475 Tb464 2.441 . S
O475 C465 1.244 . S
O476 Tb464 2.506 . S
O476 C465 1.265 . S
C477 O472 1.258 . S
C477 O478 1.251 . S
O478 C477 1.251 . S
O479 Tb461 2.441 . S
O479 C474 1.244 . S
C5 C122 1.891 . S
C22 C142 2.890 1_545 S
C93 C45 1.934 . S
C62 C105 0.943 . S
C65 C25 1.335 1_545 S
C42 C2 3.526 . S
C102 C145 2.481 1_545 S
C125 C94 0.462 . S
C165 C182 2.078 1_556 S
C162 C205 1.610 1_556 S
C202 C233 3.613 . S
C234 C185 0.376 . S
C245 C362 1.837 . S
C382 C262 2.841 1_554 S
C285 C333 1.680 . S
C302 C345 1.356 . S
C305 C265 1.557 1_455 S
C282 C242 3.932 1_545 S
C342 C385 2.081 . S
C365 C334 0.276 . S
C405 C422 1.680 . S
C442 C402 4.052 1_455 S
C445 C473 1.521 . S
C474 C425 0.767 . S
C462 C13 4.521 . S
C437 C37 3.436 . S
C53 C417 3.701 . S
C77 C453 4.070 1_545 S
C457 C88 3.523 . S
C113 C468 3.734 . S
C433 C137 3.943 . S
C157 C413 4.205 . S
C322 C73 4.558 . S
C17 C357 3.074 . S
C33 C373 4.522 . S
C57 C393 3.766 . S
C257 C117 3.323 . S
C133 C273 4.195 . S
C153 C297 4.101 . S
C82 C313 3.897 . S
C397 C173 3.838 . S
C197 C277 3.283 1_554 S
C293 C177 3.767 . S
C317 C217 3.274 . S
C222 C253 4.774 . S
C353 C228 3.465 . S
C377 C193 4.052 . S
C328 C213 4.125 . S
C85 C414 1.922 . S
C108 C448 3.321 1_565 S
C134 C477 2.631 . S
C434 C154 1.442 . S
C428 C8 1.180 . S
C34 C408 2.540 . S
C48 C454 2.401 . S
C465 C74 2.141 . S
C254 C148 1.953 . S
C97 C268 1.257 . S
C294 C114 0.820 . S
C308 C128 2.386 . S
C337 C28 1.548 . S
C54 C354 0.787 . S
C368 C68 2.337 . S
C388 C14 2.317 . S
C225 C314 1.445 . S
C214 C348 2.456 . S
C374 C237 2.063 . S
C194 C394 1.554 . S
C174 C325 2.143 . S
C274 C168 1.863 . S
C208 C288 3.270 . S
C248 C188 1.241 1_554 S
