# Generated by pormake.
# Topology ukf, (4)-cn, num edge types: 1
# Building blocks:
#     Node 0, Type 0, BuildingBlock: AZAVOO_clean_sbu_0, # of connection points: 4
#     Node 1, Type 0, BuildingBlock: AZAVOO_clean_sbu_0, # of connection points: 4
#     Node 2, Type 0, BuildingBlock: AZAVOO_clean_sbu_0, # of connection points: 4
#     Node 3, Type 0, BuildingBlock: AZAVOO_clean_sbu_0, # of connection points: 4
#     Node 4, Type 0, BuildingBlock: AZAVOO_clean_sbu_0, # of connection points: 4
#     Node 5, Type 0, BuildingBlock: AZAVOO_clean_sbu_0, # of connection points: 4
#     Node 6, Type 0, BuildingBlock: AZAVOO_clean_sbu_0, # of connection points: 4
#     Node 7, Type 0, BuildingBlock: AZAVOO_clean_sbu_0, # of connection points: 4
#     Node 8, Type 0, BuildingBlock: AZAVOO_clean_sbu_0, # of connection points: 4
#     Node 9, Type 0, BuildingBlock: AZAVOO_clean_sbu_0, # of connection points: 4
#     Node 10, Type 0, BuildingBlock: AZAVOO_clean_sbu_0, # of connection points: 4
#     Node 11, Type 0, BuildingBlock: AZAVOO_clean_sbu_0, # of connection points: 4
#     Edge 12, Type (0, 0), BuildingBlock: ZUJKAS_clean_linker_0, # of connection points: 2
#     Edge 13, Type (0, 0), BuildingBlock: ZUJKAS_clean_linker_0, # of connection points: 2
#     Edge 14, Type (0, 0), BuildingBlock: ZUJKAS_clean_linker_0, # of connection points: 2
#     Edge 15, Type (0, 0), BuildingBlock: ZUJKAS_clean_linker_0, # of connection points: 2
#     Edge 16, Type (0, 0), BuildingBlock: ZUJKAS_clean_linker_0, # of connection points: 2
#     Edge 17, Type (0, 0), BuildingBlock: ZUJKAS_clean_linker_0, # of connection points: 2
#     Edge 18, Type (0, 0), BuildingBlock: ZUJKAS_clean_linker_0, # of connection points: 2
#     Edge 19, Type (0, 0), BuildingBlock: ZUJKAS_clean_linker_0, # of connection points: 2
#     Edge 20, Type (0, 0), BuildingBlock: ZUJKAS_clean_linker_0, # of connection points: 2
#     Edge 21, Type (0, 0), BuildingBlock: ZUJKAS_clean_linker_0, # of connection points: 2
#     Edge 22, Type (0, 0), BuildingBlock: ZUJKAS_clean_linker_0, # of connection points: 2
#     Edge 23, Type (0, 0), BuildingBlock: ZUJKAS_clean_linker_0, # of connection points: 2
#     Edge 24, Type (0, 0), BuildingBlock: ZUJKAS_clean_linker_0, # of connection points: 2
#     Edge 25, Type (0, 0), BuildingBlock: ZUJKAS_clean_linker_0, # of connection points: 2
#     Edge 26, Type (0, 0), BuildingBlock: ZUJKAS_clean_linker_0, # of connection points: 2
#     Edge 27, Type (0, 0), BuildingBlock: ZUJKAS_clean_linker_0, # of connection points: 2
#     Edge 28, Type (0, 0), BuildingBlock: ZUJKAS_clean_linker_0, # of connection points: 2
#     Edge 29, Type (0, 0), BuildingBlock: ZUJKAS_clean_linker_0, # of connection points: 2
#     Edge 30, Type (0, 0), BuildingBlock: ZUJKAS_clean_linker_0, # of connection points: 2
#     Edge 31, Type (0, 0), BuildingBlock: ZUJKAS_clean_linker_0, # of connection points: 2
#     Edge 32, Type (0, 0), BuildingBlock: ZUJKAS_clean_linker_0, # of connection points: 2
#     Edge 33, Type (0, 0), BuildingBlock: ZUJKAS_clean_linker_0, # of connection points: 2
#     Edge 34, Type (0, 0), BuildingBlock: ZUJKAS_clean_linker_0, # of connection points: 2
#     Edge 35, Type (0, 0), BuildingBlock: ZUJKAS_clean_linker_0, # of connection points: 2
# Relax obj value: 0.209
# Max RMSD: 0.201
# Mean RMSD: 0.201
data_MOF--net-ukf--node1-AZAVOO_clean_sbu_0--edge1-ZUJKAS_clean_linker_0
_symmetry_space_group_name_H-M    P1
_symmetry_Int_Tables_number       1
_symmetry_cell_setting            triclinic
loop_
_symmetry_equiv_pos_as_xyz
'x, y, z'
_cell_length_a     41.08323
_cell_length_b     41.060638
_cell_length_c     82.411141
_cell_angle_alpha  90.001933
_cell_angle_beta   89.949914
_cell_angle_gamma 120.00684
loop_
_atom_site_label
_atom_site_type_symbol
_atom_site_fract_x
_atom_site_fract_y
_atom_site_fract_z
_atom_type_partial_charge
Mg0 Mg 0.38522 0.25562 0.04867 0.0
O1 O 0.44453 0.26995 0.04111 0.0
O2 O 0.48527 0.32824 0.0493 0.0
Mg3 Mg 0.45122 0.35059 0.06254 0.0
C4 C 0.47798 0.29771 0.04216 0.0
C5 C 0.3332 0.17733 0.03518 0.0
O6 O 0.31459 0.19496 0.03212 0.0
O7 O 0.39749 0.24743 0.0748 0.0
O8 O 0.4361 0.30655 0.08281 0.0
O9 O 0.38011 0.28033 0.02544 0.0
O10 O 0.40092 0.31192 0.04849 0.0
C11 C 0.41733 0.27123 0.0857 0.0
C12 C 0.39478 0.31201 0.03317 0.0
O13 O 0.36443 0.19476 0.04255 0.0
Mg14 Mg 0.15234 0.41696 0.3772 0.0
O15 O 0.1991 0.47615 0.36982 0.0
O16 O 0.18101 0.51694 0.37743 0.0
Mg17 Mg 0.12424 0.4844 0.3902 0.0
C18 C 0.20466 0.50964 0.37072 0.0
C19 C 0.17745 0.3587 0.37507 0.0
O20 O 0.14437 0.3399 0.38209 0.0
O21 O 0.17086 0.4285 0.40363 0.0
O22 O 0.15132 0.46842 0.41083 0.0
O23 O 0.12345 0.41173 0.35362 0.0
O24 O 0.11302 0.43431 0.37617 0.0
C25 C 0.16679 0.44891 0.41422 0.0
C26 C 0.10692 0.42749 0.36087 0.0
O27 O 0.1905 0.39329 0.37188 0.0
Mg28 Mg 0.73671 0.1239 0.71529 0.0
O29 O 0.7241 0.17026 0.70804 0.0
O30 O 0.66535 0.15308 0.71539 0.0
Mg31 Mg 0.64101 0.09585 0.72805 0.0
C32 C 0.69664 0.17647 0.70882 0.0
C33 C 0.81627 0.14799 0.70405 0.0
O34 O 0.79913 0.11114 0.70299 0.0
O35 O 0.74371 0.14311 0.7417 0.0
O36 O 0.68403 0.12319 0.74864 0.0
O37 O 0.71259 0.09566 0.69162 0.0
O38 O 0.68001 0.08418 0.7144 0.0
C39 C 0.71896 0.13899 0.75217 0.0
C40 C 0.68048 0.07897 0.69902 0.0
O41 O 0.79818 0.1632 0.70956 0.0
Mg42 Mg 0.59811 0.73928 0.05054 0.0
O43 O 0.54016 0.72979 0.04313 0.0
O44 O 0.4965 0.67285 0.05169 0.0
Mg45 Mg 0.52676 0.64706 0.06527 0.0
C46 C 0.50589 0.70371 0.04435 0.0
C47 C 0.65627 0.81539 0.03732 0.0
O48 O 0.6727 0.79511 0.03577 0.0
O49 O 0.58841 0.75021 0.07664 0.0
O50 O 0.54549 0.69272 0.08507 0.0
O51 O 0.59998 0.71225 0.0275 0.0
O52 O 0.57761 0.68188 0.05072 0.0
C53 C 0.5671 0.72786 0.08768 0.0
C54 C 0.583 0.68076 0.03536 0.0
O55 O 0.62396 0.80058 0.04382 0.0
Mg56 Mg 0.84008 0.57499 0.37965 0.0
O57 O 0.78917 0.51763 0.37311 0.0
O58 O 0.80127 0.47298 0.38146 0.0
Mg59 Mg 0.85909 0.50153 0.39343 0.0
C60 C 0.77986 0.48305 0.37459 0.0
C61 C 0.81832 0.62829 0.36341 0.0
O62 O 0.8501 0.63677 0.35617 0.0
O63 O 0.82304 0.56693 0.40634 0.0
O64 O 0.83724 0.52332 0.414 0.0
O65 O 0.86597 0.57534 0.35584 0.0
O66 O 0.87482 0.55175 0.37842 0.0
C67 C 0.82522 0.54593 0.41721 0.0
C68 C 0.87993 0.55702 0.36298 0.0
O69 O 0.80583 0.60327 0.37441 0.0
Mg70 Mg 0.25546 0.87689 0.71371 0.0
O71 O 0.27034 0.83227 0.70635 0.0
O72 O 0.32807 0.84885 0.71502 0.0
Mg73 Mg 0.34998 0.90515 0.7282 0.0
C74 C 0.29774 0.82612 0.70767 0.0
C75 C 0.16777 0.84048 0.71039 0.0
O76 O 0.17389 0.87018 0.71882 0.0
O77 O 0.24618 0.85612 0.73994 0.0
O78 O 0.30504 0.87529 0.74792 0.0
O79 O 0.28133 0.90678 0.69061 0.0
O80 O 0.31199 0.91747 0.71389 0.0
C81 C 0.26976 0.85911 0.75077 0.0
C82 C 0.31277 0.9234 0.6985 0.0
O83 O 0.19518 0.83568 0.70692 0.0
Mg84 Mg 0.73377 0.57807 0.62096 0.0
O85 O 0.72461 0.52021 0.62864 0.0
O86 O 0.66858 0.47625 0.61937 0.0
Mg87 Mg 0.64221 0.50564 0.60573 0.0
C88 C 0.69897 0.48583 0.62709 0.0
C89 C 0.80195 0.60153 0.64291 0.0
O90 O 0.7736 0.58114 0.65266 0.0
O91 O 0.7459 0.56849 0.59487 0.0
O92 O 0.6885 0.5258 0.58635 0.0
O93 O 0.70551 0.58057 0.64363 0.0
O94 O 0.6759 0.55628 0.62054 0.0
C95 C 0.72361 0.54741 0.58377 0.0
C96 C 0.67418 0.56251 0.63577 0.0
O97 O 0.79524 0.60521 0.62817 0.0
Mg98 Mg 0.14355 0.73514 0.9519 0.0
O99 O 0.19375 0.72791 0.95891 0.0
O100 O 0.18296 0.67227 0.94965 0.0
Mg101 Mg 0.12668 0.6447 0.93636 0.0
C102 C 0.20341 0.70296 0.95727 0.0
C103 C 0.19055 0.80456 0.97295 0.0
O104 O 0.18575 0.77707 0.98263 0.0
O105 O 0.16357 0.74746 0.9257 0.0
O106 O 0.15084 0.69094 0.91675 0.0
O107 O 0.11518 0.70711 0.97487 0.0
O108 O 0.10895 0.67712 0.95175 0.0
C109 C 0.16293 0.72591 0.91439 0.0
C110 C 0.10236 0.67564 0.96713 0.0
O111 O 0.17696 0.79673 0.95871 0.0
Mg112 Mg 0.38003 0.12348 0.2855 0.0
O113 O 0.43852 0.1704 0.29296 0.0
O114 O 0.48108 0.15523 0.2848 0.0
Mg115 Mg 0.44928 0.09876 0.2715 0.0
C116 C 0.47247 0.17755 0.2919 0.0
C117 C 0.3263 0.14603 0.30023 0.0
O118 O 0.31027 0.10997 0.30359 0.0
O119 O 0.39154 0.14436 0.25934 0.0
O120 O 0.43231 0.12646 0.25146 0.0
O121 O 0.37671 0.09414 0.30871 0.0
O122 O 0.39849 0.08484 0.28563 0.0
C123 C 0.41233 0.14165 0.24851 0.0
C124 C 0.3929 0.07864 0.30098 0.0
O125 O 0.35649 0.16123 0.29199 0.0
Mg126 Mg 0.25409 0.42135 0.61878 0.0
O127 O 0.26287 0.47887 0.62685 0.0
O128 O 0.31893 0.52286 0.61739 0.0
Mg129 Mg 0.34637 0.49383 0.60431 0.0
C130 C 0.28849 0.51324 0.62511 0.0
C131 C 0.17499 0.3579 0.6263 0.0
O132 O 0.19316 0.33998 0.6229 0.0
O133 O 0.24346 0.43193 0.5926 0.0
O134 O 0.30134 0.47448 0.58451 0.0
O135 O 0.28063 0.41784 0.64172 0.0
O136 O 0.31179 0.44308 0.61898 0.0
C137 C 0.26632 0.45316 0.58168 0.0
C138 C 0.31249 0.43621 0.63421 0.0
O139 O 0.19227 0.39351 0.62516 0.0
Mg140 Mg 0.83838 0.25529 0.95373 0.0
O141 O 0.79147 0.26718 0.96126 0.0
O142 O 0.80721 0.32453 0.95225 0.0
Mg143 Mg 0.86389 0.34905 0.93923 0.0
C144 C 0.78473 0.29422 0.95973 0.0
C145 C 0.81694 0.17375 0.95866 0.0
O146 O 0.85153 0.18923 0.95312 0.0
O147 O 0.81807 0.24579 0.92756 0.0
O148 O 0.83743 0.30439 0.9191 0.0
O149 O 0.86833 0.28094 0.97683 0.0
O150 O 0.87684 0.31216 0.95387 0.0
C151 C 0.82194 0.26908 0.91642 0.0
C152 C 0.88383 0.3127 0.96914 0.0
O153 O 0.80157 0.19385 0.95991 0.0
Mg154 Mg 0.61271 0.87303 0.2884 0.0
O155 O 0.55228 0.82804 0.29479 0.0
O156 O 0.51296 0.84783 0.28712 0.0
Mg157 Mg 0.54843 0.90409 0.27412 0.0
C158 C 0.51924 0.82345 0.2938 0.0
C159 C 0.62281 0.81442 0.308 0.0
O160 O 0.60028 0.81947 0.31767 0.0
O161 O 0.6023 0.85427 0.26198 0.0
O162 O 0.56305 0.87416 0.25416 0.0
O163 O 0.61596 0.90144 0.31189 0.0
O164 O 0.5975 0.9141 0.28866 0.0
C165 C 0.58201 0.85788 0.25119 0.0
C166 C 0.60203 0.91904 0.3041 0.0
O167 O 0.63271 0.83204 0.29459 0.0
H168 H 0.21931 0.82972 0.00317 0.0
H169 H 0.24547 0.89353 0.0138 0.0
H170 H 0.22919 0.93138 0.96729 0.0
H171 H 0.20316 0.86765 0.95647 0.0
H172 H 0.30077 0.97944 0.98244 0.0
H173 H 0.1793 0.9417 0.02337 0.0
H174 H 0.20073 0.91298 0.02537 0.0
H175 H 0.17734 0.91197 0.00681 0.0
C176 C 0.22147 0.85162 0.99515 0.0
C177 C 0.20887 0.84359 0.97901 0.0
C178 C 0.23627 0.88799 0.00128 0.0
C179 C 0.23863 0.91684 0.99138 0.0
C180 C 0.22733 0.9093 0.97511 0.0
H181 H 0.26745 0.13241 0.01922 0.0
H182 H 0.24527 0.0692 0.00854 0.0
C183 C 0.21246 0.87291 0.96897 0.0
C184 C 0.25227 0.9548 0.99807 0.0
H185 H 0.23125 0.0034 0.02572 0.0
C186 C 0.28566 0.98478 0.9919 0.0
C187 C 0.23208 0.96152 0.01025 0.0
C188 C 0.19519 0.93046 0.01678 0.0
C189 C 0.29974 0.02146 0.99778 0.0
C190 C 0.28002 0.028 0.01024 0.0
C191 C 0.24639 -0.00191 0.01626 0.0
C192 C 0.29341 0.06592 0.01695 0.0
C193 C 0.3352 0.053 0.99044 0.0
C194 C 0.32749 0.08455 0.02544 0.0
C195 C 0.34024 0.12063 0.03158 0.0
C196 C 0.319 0.13854 0.02935 0.0
C197 C 0.28451 0.11943 0.0211 0.0
C198 C 0.27178 0.08335 0.01499 0.0
H199 H 0.34209 0.04477 0.97864 0.0
H200 H 0.33253 0.07834 0.98855 0.0
H201 H 0.35903 0.06065 0.99885 0.0
H202 H 0.3442 0.07119 0.02731 0.0
H203 H 0.36686 0.13456 0.03794 0.0
H204 H 0.15485 0.28422 0.3784 0.0
H205 H 0.18324 0.25015 0.36613 0.0
H206 H 0.27149 0.35366 0.34579 0.0
H207 H 0.24354 0.38813 0.35814 0.0
H208 H 0.1938 0.24806 0.33232 0.0
H209 H 0.32849 0.30483 0.36605 0.0
H210 H 0.28935 0.30902 0.37345 0.0
H211 H 0.31896 0.33958 0.35763 0.0
C212 C 0.18062 0.29988 0.37153 0.0
C213 C 0.19688 0.33887 0.3692 0.0
C214 C 0.19675 0.28034 0.36452 0.0
C215 C 0.22953 0.29946 0.35516 0.0
C216 C 0.24649 0.33852 0.35319 0.0
H217 H 0.35518 0.22204 0.29742 0.0
H218 H 0.33115 0.25996 0.30992 0.0
C219 C 0.23038 0.35812 0.3602 0.0
C220 C 0.24432 0.27806 0.34651 0.0
H221 H 0.32036 0.26586 0.34342 0.0
C222 C 0.22142 0.25182 0.33477 0.0
C223 C 0.28047 0.28338 0.34967 0.0
C224 C 0.30572 0.3105 0.36247 0.0
C225 C 0.23379 0.23077 0.32602 0.0
C226 C 0.26972 0.2357 0.32933 0.0
C227 C 0.29283 0.26225 0.34093 0.0
C228 C 0.28338 0.21265 0.32125 0.0
C229 C 0.20849 0.20382 0.31317 0.0
C230 C 0.26444 0.17358 0.32353 0.0
C231 C 0.27799 0.15186 0.3164 0.0
C232 C 0.31088 0.16889 0.30694 0.0
C233 C 0.32968 0.20806 0.30458 0.0
C234 C 0.31609 0.22978 0.31174 0.0
H235 H 0.18693 0.2108 0.30909 0.0
H236 H 0.22499 0.20394 0.30247 0.0
H237 H 0.19364 0.17491 0.31825 0.0
H238 H 0.23952 0.15995 0.33107 0.0
H239 H 0.26296 0.1218 0.31852 0.0
H240 H 0.86215 0.1239 0.6916 0.0
H241 H 0.92338 0.16189 0.67866 0.0
H242 H 0.91791 0.26236 0.68809 0.0
H243 H 0.85683 0.22467 0.70126 0.0
H244 H 0.9373 0.20747 0.6514 0.0
H245 H 0.0232 0.29047 0.70403 0.0
H246 H 0.97796 0.24846 0.70637 0.0
H247 H 0.98081 0.29217 0.7009 0.0
C248 C 0.87414 0.15413 0.69111 0.0
C249 C 0.85463 0.17128 0.69746 0.0
C250 C 0.9091 0.17576 0.68369 0.0
C251 C 0.92525 0.21491 0.68255 0.0
C252 C 0.9062 0.23224 0.68911 0.0
H253 H 0.13184 0.38696 0.63728 0.0
H254 H 0.06967 0.35269 0.64995 0.0
C255 C 0.87124 0.21063 0.69657 0.0
C256 C 0.96109 0.23724 0.67371 0.0
H257 H 0.05205 0.30754 0.67814 0.0
C258 C 0.96243 0.22931 0.65724 0.0
C259 C -0.00632 0.26583 0.68137 0.0
C260 C -0.00589 0.27463 0.69917 0.0
C261 C -0.00444 0.24932 0.64817 0.0
C262 C 0.02826 0.27759 0.65587 0.0
C263 C 0.02682 0.28588 0.67229 0.0
C264 C 0.06467 0.29796 0.64729 0.0
C265 C -0.0048 0.24031 0.6304 0.0
C266 C 0.08227 0.27843 0.64158 0.0
C267 C 0.1177 0.29785 0.63435 0.0
C268 C 0.13625 0.3372 0.63277 0.0
C269 C 0.11825 0.35663 0.63827 0.0
C270 C 0.08281 0.33716 0.64554 0.0
H271 H 0.9662 0.22557 0.62541 0.0
H272 H 0.01248 0.26627 0.62321 0.0
H273 H 0.00723 0.22159 0.62884 0.0
H274 H 0.06898 0.24823 0.64308 0.0
H275 H 0.13084 0.28205 0.63029 0.0
H276 H 0.72434 0.85424 0.02223 0.0
H277 H 0.75111 0.91545 0.0089 0.0
H278 H 0.65466 0.92408 0.02313 0.0
H279 H 0.62737 0.86262 0.03638 0.0
H280 H 0.67375 0.93821 0.98982 0.0
H281 H 0.79747 0.02045 0.02961 0.0
H282 H 0.79301 0.97737 0.02206 0.0
H283 H 0.75801 0.97581 0.03565 0.0
C284 C 0.70897 0.8693 0.02268 0.0
C285 C 0.67374 0.85361 0.03037 0.0
C286 C 0.7244 0.90433 0.01512 0.0
C287 C 0.705 0.92434 0.0152 0.0
C288 C 0.67007 0.90903 0.02302 0.0
H289 H 0.74736 0.135 0.97265 0.0
H290 H 0.71881 0.07312 0.98552 0.0
C291 C 0.6546 0.87399 0.0306 0.0
C292 C 0.72038 0.96044 0.00646 0.0
H293 H 0.79533 0.04963 0.00508 0.0
C294 C 0.70021 0.96269 0.99319 0.0
C295 C 0.75495 0.99213 0.01089 0.0
C296 C 0.77703 0.99159 0.02542 0.0
C297 C 0.71411 0.99576 0.98401 0.0
C298 C 0.74874 0.0274 0.98841 0.0
C299 C 0.76884 0.02517 0.00172 0.0
C300 C 0.76456 0.0634 0.97955 0.0
C301 C 0.69207 -0.00366 0.96948 0.0
C302 C 0.79975 0.07835 0.97199 0.0
C303 C 0.81622 0.11374 0.96469 0.0
C304 C 0.79785 0.13486 0.96494 0.0
C305 C 0.76216 0.11937 0.9722 0.0
C306 C 0.74572 0.08396 0.9795 0.0
H307 H 0.67136 0.96749 0.96537 0.0
H308 H 0.67643 0.01094 0.97278 0.0
H309 H 0.71111 0.0118 0.95921 0.0
H310 H 0.81471 0.06286 0.97197 0.0
H311 H 0.84373 0.12488 0.9592 0.0
H312 H 0.67782 0.80641 0.29306 0.0
H313 H 0.70785 0.77173 0.30302 0.0
H314 H 0.63472 0.73522 0.34476 0.0
H315 H 0.60444 0.76985 0.33495 0.0
H316 H 0.74341 0.78576 0.3355 0.0
H317 H 0.63009 0.63766 0.32557 0.0
H318 H 0.63218 0.67664 0.31448 0.0
H319 H 0.61703 0.66879 0.33524 0.0
C320 C 0.66778 0.79065 0.30426 0.0
C321 C 0.63883 0.79097 0.31325 0.0
C322 C 0.685 0.77093 0.30993 0.0
C323 C 0.67328 0.75085 0.32454 0.0
C324 C 0.6438 0.75027 0.33335 0.0
H325 H 0.75393 0.62065 0.37694 0.0
H326 H 0.71877 0.65133 0.36832 0.0
C327 C 0.62669 0.77019 0.32776 0.0
C328 C 0.69355 0.73252 0.33106 0.0
H329 H 0.68499 0.647 0.33885 0.0
C330 C 0.73073 0.75543 0.33623 0.0
C331 C 0.67661 0.69302 0.33213 0.0
C332 C 0.63684 0.6674 0.32649 0.0
C333 C 0.7516 0.73983 0.34251 0.0
C334 C 0.73504 0.70025 0.34322 0.0
C335 C 0.6976 0.67733 0.33826 0.0
C336 C 0.75652 0.68211 0.34859 0.0
C337 C 0.79097 0.7659 0.34854 0.0
C338 C 0.78911 0.68898 0.34023 0.0
C339 C 0.80934 0.67176 0.34517 0.0
C340 C 0.79708 0.64693 0.35845 0.0
C341 C 0.76415 0.63973 0.3667 0.0
C342 C 0.74401 0.65716 0.36178 0.0
H343 H 0.79511 0.79402 0.35171 0.0
H344 H 0.79749 0.75408 0.35936 0.0
H345 H 0.81136 0.76987 0.33882 0.0
H346 H 0.79873 0.70743 0.32977 0.0
H347 H 0.83438 0.67764 0.33846 0.0
H348 H 0.86744 0.64384 0.62608 0.0
H349 H 0.93078 0.68149 0.63728 0.0
H350 H 0.88681 0.6453 0.68556 0.0
H351 H 0.82376 0.60698 0.67449 0.0
H352 H 0.95503 0.73995 0.65824 0.0
H353 H 0.9753 0.62793 0.68538 0.0
H354 H 0.93804 0.61798 0.67118 0.0
H355 H 0.93304 0.62626 0.69224 0.0
C356 C 0.87136 0.64351 0.63906 0.0
C357 C 0.84061 0.62236 0.64939 0.0
C358 C 0.90752 0.66507 0.64544 0.0
C359 C 0.91355 0.66578 0.66223 0.0
C360 C 0.88295 0.64445 0.67254 0.0
H361 H 0.10225 0.8413 0.71546 0.0
H362 H 0.04037 0.79861 0.70388 0.0
C363 C 0.84687 0.62272 0.66618 0.0
C364 C 0.95141 0.69049 0.66908 0.0
H365 H 0.01849 0.69092 0.69361 0.0
C366 C 0.96905 0.72922 0.66589 0.0
C367 C 0.96977 0.67636 0.67891 0.0
C368 C 0.95324 0.63481 0.68201 0.0
C369 C 0.0043 0.75434 0.67251 0.0
C370 C 0.02191 0.74038 0.6829 0.0
C371 C 0.00463 0.70158 0.68583 0.0
C372 C 0.05885 0.76546 0.69044 0.0
C373 C 0.0226 0.79546 0.6681 0.0
C374 C 0.08934 0.7601 0.68718 0.0
C375 C 0.12453 0.78411 0.6939 0.0
C376 C 0.12991 0.81397 0.70405 0.0
C377 C 0.09909 0.81875 0.70761 0.0
C378 C 0.06379 0.79455 0.70092 0.0
H379 H 0.01042 0.79987 0.65685 0.0
H380 H 0.01804 0.81089 0.67808 0.0
H381 H 0.05336 0.80785 0.66635 0.0
H382 H 0.08603 0.73767 0.6792 0.0
H383 H 0.14764 0.77955 0.69094 0.0
H384 H 0.73375 0.23787 0.97946 0.0
H385 H 0.67947 0.23472 0.99326 0.0
H386 H 0.70461 0.34045 0.97169 0.0
H387 H 0.75873 0.34387 0.95778 0.0
H388 H 0.68078 0.28848 0.0155 0.0
H389 H 0.59192 0.27024 0.96173 0.0
H390 H 0.63106 0.26183 0.96108 0.0
H391 H 0.63918 0.30906 0.96031 0.0
C392 C 0.72757 0.26031 0.97751 0.0
C393 C 0.75063 0.29109 0.96746 0.0
C394 C 0.69659 0.25848 0.98544 0.0
C395 C 0.68784 0.28715 0.98336 0.0
C396 C 0.71054 0.31772 0.97326 0.0
H397 H 0.55338 0.34958 0.04229 0.0
H398 H 0.60388 0.34523 0.02857 0.0
C399 C 0.74158 0.31968 0.96537 0.0
C400 C 0.65586 0.28592 0.99222 0.0
H401 H 0.57276 0.28441 0.98674 0.0
C402 C 0.65703 0.28736 0.00924 0.0
C403 C 0.62479 0.28409 0.98401 0.0
C404 C 0.62133 0.28087 0.96578 0.0
C405 C 0.62833 0.28797 0.01827 0.0
C406 C 0.59793 0.28752 0.01002 0.0
C407 C 0.59629 0.2851 0.99302 0.0
C408 C 0.56754 0.28965 0.01879 0.0
C409 C 0.63062 0.28884 0.03654 0.0
C410 C 0.53032 0.26004 0.01766 0.0
C411 C 0.50136 0.26243 0.02545 0.0
C412 C 0.50901 0.29467 0.03443 0.0
C413 C 0.54644 0.32428 0.03555 0.0
C414 C 0.5754 0.32179 0.02778 0.0
H415 H 0.65033 0.27973 0.04101 0.0
H416 H 0.64091 0.31801 0.04082 0.0
H417 H 0.60252 0.27046 0.04201 0.0
H418 H 0.52367 0.23507 0.01071 0.0
H419 H 0.47291 0.23911 0.02427 0.0
H420 H 0.22132 0.5824 0.36643 0.0
H421 H 0.27626 0.63335 0.35314 0.0
H422 H 0.32109 0.55953 0.34508 0.0
H423 H 0.26566 0.50793 0.35805 0.0
H424 H 0.35034 0.66673 0.36082 0.0
H425 H 0.32564 0.60063 0.29989 0.0
H426 H 0.2905 0.58243 0.31569 0.0
H427 H 0.32863 0.57276 0.31598 0.0
C428 C 0.24281 0.57687 0.36185 0.0
C429 C 0.2389 0.54092 0.36324 0.0
C430 C 0.27423 0.60609 0.35424 0.0
C431 C 0.30247 0.6001 0.34787 0.0
C432 C 0.29919 0.56455 0.34955 0.0
H433 H 0.51982 0.76194 0.30641 0.0
H434 H 0.46778 0.70694 0.31949 0.0
C435 C 0.26758 0.53515 0.35708 0.0
C436 C 0.33543 0.63137 0.33964 0.0
H437 H 0.38236 0.65849 0.30346 0.0
C438 C 0.35733 0.66488 0.34829 0.0
C439 C 0.34442 0.62897 0.32324 0.0
C440 C 0.3209 0.59442 0.31308 0.0
C441 C 0.38794 0.696 0.34099 0.0
C442 C 0.39684 0.69351 0.32466 0.0
C443 C 0.37536 0.66003 0.31602 0.0
C444 C 0.4278 0.72602 0.31627 0.0
C445 C 0.41061 0.73154 0.35066 0.0
C446 C 0.42219 0.75457 0.31003 0.0
C447 C 0.45171 0.78594 0.30248 0.0
C448 C 0.48745 0.78936 0.30113 0.0
C449 C 0.49273 0.76031 0.30727 0.0
C450 C 0.46308 0.72884 0.31472 0.0
H451 H 0.40212 0.7279 0.36364 0.0
H452 H 0.44098 0.74066 0.34989 0.0
H453 H 0.40683 0.75435 0.34545 0.0
H454 H 0.39502 0.7527 0.31113 0.0
H455 H 0.44663 0.80775 0.29794 0.0
H456 H 0.75767 0.23136 0.69254 0.0
H457 H 0.7638 0.28759 0.67948 0.0
H458 H 0.65177 0.25684 0.69498 0.0
H459 H 0.64534 0.20065 0.7082 0.0
H460 H 0.71845 0.28956 0.65463 0.0
H461 H 0.71477 0.3676 0.70889 0.0
H462 H 0.72369 0.32883 0.71014 0.0
H463 H 0.67645 0.32002 0.70784 0.0
C464 C 0.73439 0.23664 0.69332 0.0
C465 C 0.70099 0.21142 0.70147 0.0
C466 C 0.73798 0.26882 0.68583 0.0
C467 C 0.70844 0.27661 0.68644 0.0
C468 C 0.67518 0.25171 0.69463 0.0
H469 H 0.65346 0.40964 0.62451 0.0
H470 H 0.65944 0.36065 0.6386 0.0
C471 C 0.67149 0.21947 0.7021 0.0
C472 C 0.71161 0.3097 0.67779 0.0
H473 H 0.70713 0.38981 0.6832 0.0
C474 C 0.71631 0.31166 0.66088 0.0
C475 C 0.70931 0.33872 0.68601 0.0
C476 C 0.70614 0.33901 0.70424 0.0
C477 C 0.71742 0.34122 0.65189 0.0
C478 C 0.71331 0.36927 0.66003 0.0
C479 C 0.70997 0.36807 0.67699 0.0
C480 C 0.71081 0.39921 0.65108 0.0
C481 C 0.72289 0.34216 0.63376 0.0
C482 C 0.73751 0.4372 0.65359 0.0
C483 C 0.7342 0.46542 0.64554 0.0
C484 C 0.70384 0.45609 0.63499 0.0
C485 C 0.67725 0.4179 0.6325 0.0
C486 C 0.6807 0.38979 0.64049 0.0
H487 H 0.73564 0.32499 0.63003 0.0
H488 H 0.69518 0.33048 0.62769 0.0
H489 H 0.74107 0.37143 0.62939 0.0
H490 H 0.76084 0.445 0.6618 0.0
H491 H 0.75508 0.49452 0.64781 0.0
H492 H 0.23339 0.65662 0.95637 0.0
H493 H 0.2876 0.66326 0.97134 0.0
H494 H 0.30677 0.76848 0.99128 0.0
H495 H 0.2522 0.762 0.97648 0.0
H496 H 0.36348 0.7206 0.97089 0.0
H497 H 0.29814 0.70521 0.03163 0.0
H498 H 0.27132 0.6934 0.01306 0.0
H499 H 0.29995 0.74173 0.01897 0.0
C500 C 0.24916 0.68133 0.96386 0.0
C501 C 0.23818 0.70864 0.9653 0.0
C502 C 0.28019 0.68506 0.9724 0.0
C503 C 0.30081 0.71604 0.9826 0.0
C504 C 0.29079 0.74401 0.98369 0.0
H505 H 0.51457 0.76414 0.02662 0.0
H506 H 0.46605 0.77022 0.01203 0.0
C507 C 0.25971 0.74033 0.97514 0.0
C508 C 0.33233 0.71844 0.99226 0.0
H509 H 0.36009 0.71573 0.03106 0.0
C510 C 0.36292 0.71981 0.98405 0.0
C511 C 0.33122 0.71694 0.00942 0.0
C512 C 0.29831 0.71393 0.01885 0.0
C513 C 0.39235 0.7194 0.99252 0.0
C514 C 0.39133 0.7181 0.00968 0.0
C515 C 0.36089 0.71704 0.01791 0.0
C516 C 0.42054 0.71565 0.01926 0.0
C517 C 0.42362 0.71907 0.98304 0.0
C518 C 0.41082 0.68347 0.02858 0.0
C519 C 0.43839 0.67992 0.037 0.0
C520 C 0.4763 0.70862 0.03632 0.0
C521 C 0.48574 0.74137 0.02735 0.0
C522 C 0.45809 0.74486 0.01893 0.0
H523 H 0.41613 0.71205 0.97005 0.0
H524 H 0.44912 0.74734 0.98364 0.0
H525 H 0.43071 0.69847 0.98826 0.0
H526 H 0.38194 0.66067 0.02905 0.0
H527 H 0.43002 0.65438 0.04382 0.0
H528 H 0.46489 0.23008 0.30945 0.0
H529 H 0.51426 0.28577 0.32311 0.0
H530 H 0.59729 0.25906 0.30589 0.0
H531 H 0.54829 0.20347 0.29207 0.0
H532 H 0.56262 0.28714 0.34738 0.0
H533 H 0.64229 0.37054 0.29371 0.0
H534 H 0.59503 0.33109 0.29229 0.0
H535 H 0.63429 0.32334 0.29383 0.0
C536 C 0.49368 0.23616 0.30842 0.0
C537 C 0.50258 0.21224 0.29961 0.0
C538 C 0.52184 0.26801 0.31626 0.0
C539 C 0.55944 0.27677 0.31534 0.0
C540 C 0.56851 0.25318 0.30649 0.0
H541 H 0.74833 0.40671 0.37699 0.0
H542 H 0.69238 0.35841 0.36322 0.0
C543 C 0.54039 0.22127 0.29867 0.0
C544 C 0.589 0.30951 0.32429 0.0
H545 H 0.67267 0.39089 0.31942 0.0
C546 C 0.58651 0.31002 0.34127 0.0
C547 C 0.61984 0.33955 0.31627 0.0
C548 C 0.62297 0.34142 0.29801 0.0
C549 C 0.61483 0.33912 0.35049 0.0
C550 C 0.6466 0.36816 0.34251 0.0
C551 C 0.64839 0.36841 0.3255 0.0
C552 C 0.6791 0.39758 0.35161 0.0
C553 C 0.61059 0.33847 0.36869 0.0
C554 C 0.69038 0.4357 0.34954 0.0
C555 C 0.72249 0.46353 0.35739 0.0
C556 C 0.74413 0.45369 0.3673 0.0
C557 C 0.73235 0.41537 0.36949 0.0
C558 C 0.70023 0.38764 0.36169 0.0
H559 H 0.58074 0.32089 0.37245 0.0
H560 H 0.62677 0.32633 0.37424 0.0
H561 H 0.62166 0.36732 0.37357 0.0
H562 H 0.67452 0.44392 0.34173 0.0
H563 H 0.73078 0.49274 0.35537 0.0
H564 H 0.25023 0.50838 0.65297 0.0
H565 H 0.24893 0.55981 0.66739 0.0
H566 H 0.31443 0.63653 0.62909 0.0
H567 H 0.31749 0.58567 0.61512 0.0
H568 H 0.34279 0.66657 0.65659 0.0
H569 H 0.1894 0.61046 0.66084 0.0
H570 H 0.20292 0.5793 0.66987 0.0
H571 H 0.20927 0.58866 0.64839 0.0
C572 C 0.26385 0.53613 0.64753 0.0
C573 C 0.28393 0.54308 0.63293 0.0
C574 C 0.26292 0.56549 0.65574 0.0
C575 C 0.28108 0.60204 0.64923 0.0
C576 C 0.30022 0.60864 0.63438 0.0
H577 H 0.25299 0.78676 0.68223 0.0
H578 H 0.24961 0.7325 0.66847 0.0
C579 C 0.30189 0.57955 0.62638 0.0
C580 C 0.28239 0.634 0.65828 0.0
H581 H 0.22815 0.66397 0.67724 0.0
C582 C 0.31765 0.66606 0.661 0.0
C583 C 0.24963 0.63358 0.66392 0.0
C584 C 0.21068 0.60131 0.66046 0.0
C585 C 0.32111 0.69768 0.6691 0.0
C586 C 0.28849 0.69666 0.67534 0.0
C587 C 0.25321 0.66461 0.67264 0.0
C588 C 0.29016 0.7291 0.6841 0.0
C589 C 0.35962 0.7322 0.67036 0.0
C590 C 0.31363 0.74501 0.69766 0.0
C591 C 0.31624 0.77662 0.70533 0.0
C592 C 0.29455 0.79219 0.69989 0.0
C593 C 0.27003 0.77537 0.68672 0.0
C594 C 0.26804 0.74431 0.67885 0.0
H595 H 0.3789 0.7325 0.66082 0.0
H596 H 0.35815 0.75839 0.66926 0.0
H597 H 0.37208 0.73227 0.68231 0.0
H598 H 0.33004 0.73307 0.70229 0.0
H599 H 0.33497 0.78866 0.7156 0.0
H600 H 0.44891 0.31367 0.11289 0.0
H601 H 0.44834 0.29169 0.14043 0.0
H602 H 0.38718 0.17671 0.12391 0.0
H603 H 0.38685 0.19838 0.09629 0.0
H604 H 0.35722 0.18765 0.15157 0.0
H605 H 0.51118 0.24932 0.15849 0.0
H606 H 0.49784 0.28326 0.15289 0.0
H607 H 0.48933 0.24586 0.1391 0.0
C608 C 0.43553 0.28368 0.11504 0.0
C609 C 0.41805 0.2578 0.10232 0.0
C610 C 0.43541 0.27118 0.13081 0.0
C611 C 0.41828 0.2326 0.13417 0.0
C612 C 0.40073 0.20664 0.12155 0.0
H613 H 0.44625 0.13304 0.22162 0.0
H614 H 0.44643 0.15484 0.1941 0.0
C615 C 0.40062 0.2191 0.10576 0.0
C616 C 0.41771 0.21931 0.15095 0.0
H617 H 0.47437 0.22548 0.18246 0.0
C618 C 0.38282 0.19577 0.15832 0.0
C619 C 0.45116 0.22964 0.15965 0.0
C620 C 0.4895 0.2531 0.15209 0.0
C621 C 0.38044 0.18259 0.17424 0.0
C622 C 0.41387 0.19397 0.18313 0.0
C623 C 0.44876 0.21717 0.17569 0.0
C624 C 0.41342 0.18098 0.19996 0.0
C625 C 0.34218 0.15597 0.18123 0.0
C626 C 0.39514 0.18883 0.21248 0.0
C627 C 0.39473 0.17615 0.22828 0.0
C628 C 0.41302 0.15578 0.23188 0.0
C629 C 0.43185 0.14862 0.21933 0.0
C630 C 0.43203 0.16108 0.20356 0.0
H631 H 0.32064 0.14236 0.17158 0.0
H632 H 0.34285 0.13368 0.18861 0.0
H633 H 0.33331 0.1719 0.18921 0.0
H634 H 0.38135 0.20492 0.21005 0.0
H635 H 0.38023 0.18244 0.23767 0.0
H636 H 0.17536 0.49809 0.43835 0.0
H637 H 0.19136 0.49633 0.4667 0.0
H638 H 0.1994 0.39728 0.45719 0.0
H639 H 0.18434 0.39938 0.42861 0.0
H640 H 0.15349 0.44219 0.48904 0.0
H641 H 0.2969 0.46328 0.48076 0.0
H642 H 0.27178 0.47075 0.46459 0.0
H643 H 0.26112 0.42388 0.46977 0.0
C644 C 0.18087 0.47609 0.44222 0.0
C645 C 0.1787 0.44894 0.43118 0.0
C646 C 0.18991 0.47509 0.45846 0.0
C647 C 0.1969 0.4469 0.46404 0.0
C648 C 0.19488 0.41976 0.45308 0.0
H649 H 0.2006 0.39928 0.5677 0.0
H650 H 0.18164 0.3958 0.53928 0.0
C651 C 0.18617 0.42094 0.43675 0.0
C652 C 0.20531 0.44562 0.48145 0.0
H653 H 0.27181 0.44932 0.50735 0.0
C654 C 0.17936 0.44374 0.49306 0.0
C655 C 0.2392 0.44795 0.48666 0.0
C656 C 0.26904 0.45193 0.47482 0.0
C657 C 0.18653 0.4445 0.50975 0.0
C658 C 0.22017 0.44627 0.51495 0.0
C659 C 0.24592 0.44774 0.50333 0.0
C660 C 0.23033 0.44861 0.53235 0.0
C661 C 0.1586 0.44466 0.52161 0.0
C662 C 0.26412 0.47918 0.53784 0.0
C663 C 0.27522 0.48099 0.55396 0.0
C664 C 0.25268 0.45229 0.56497 0.0
C665 C 0.2184 0.42201 0.55956 0.0
C666 C 0.20747 0.42004 0.54333 0.0
H667 H 0.13959 0.45304 0.5157 0.0
H668 H 0.141 0.41594 0.52663 0.0
H669 H 0.17314 0.46415 0.53186 0.0
H670 H 0.28215 0.50158 0.5296 0.0
H671 H 0.30171 0.5048 0.55773 0.0
H672 H 0.83309 0.31082 0.88897 0.0
H673 H 0.81564 0.28832 0.86122 0.0
H674 H 0.76554 0.17367 0.87793 0.0
H675 H 0.78363 0.19592 0.90581 0.0
H676 H 0.81048 0.18731 0.85119 0.0
H677 H 0.71199 0.24063 0.84098 0.0
H678 H 0.75777 0.27646 0.84744 0.0
H679 H 0.72889 0.23822 0.8609 0.0
C680 C 0.81808 0.28077 0.88682 0.0
C681 C 0.8096 0.25517 0.89967 0.0
C682 C 0.80799 0.26797 0.87092 0.0
C683 C 0.78878 0.22933 0.86754 0.0
C684 C 0.78023 0.20364 0.8803 0.0
H685 H 0.6734 0.1265 0.77833 0.0
H686 H 0.69171 0.14796 0.80612 0.0
C687 C 0.7905 0.21641 0.89623 0.0
C688 C 0.7785 0.21582 0.85063 0.0
H689 H 0.72978 0.2189 0.81771 0.0
C690 C 0.7927 0.19404 0.84387 0.0
C691 C 0.75502 0.22438 0.84118 0.0
C692 C 0.73722 0.24589 0.84802 0.0
C693 C 0.78435 0.18088 0.82783 0.0
C694 C 0.76184 0.19046 0.81822 0.0
C695 C 0.74738 0.21195 0.82505 0.0
C696 C 0.75147 0.17716 0.80128 0.0
C697 C 0.799 0.15617 0.82147 0.0
C698 C 0.77905 0.18666 0.78926 0.0
C699 C 0.76869 0.17418 0.77328 0.0
C700 C 0.73052 0.15237 0.76903 0.0
C701 C 0.70306 0.14328 0.78112 0.0
C702 C 0.71345 0.15553 0.79705 0.0
H703 H 0.80723 0.14361 0.83147 0.0
H704 H 0.77763 0.13311 0.81383 0.0
H705 H 0.82426 0.17335 0.81389 0.0
H706 H 0.80856 0.20404 0.79219 0.0
H707 H 0.79053 0.18191 0.76426 0.0
H708 H 0.62022 0.79544 0.10038 0.0
H709 H 0.62447 0.81762 0.12826 0.0
H710 H 0.52097 0.71653 0.14014 0.0
H711 H 0.51708 0.69363 0.11247 0.0
H712 H 0.57956 0.83327 0.14592 0.0
H713 H 0.58905 0.71701 0.17527 0.0
H714 H 0.5933 0.72447 0.15362 0.0
H715 H 0.54764 0.70039 0.16305 0.0
C716 C 0.59832 0.77793 0.10891 0.0
C717 C 0.5685 0.74258 0.10423 0.0
C718 C 0.60083 0.79063 0.12485 0.0
C719 C 0.57352 0.76834 0.13639 0.0
C720 C 0.543 0.73368 0.13159 0.0
H721 H 0.53156 0.84649 0.22721 0.0
H722 H 0.53054 0.82501 0.19953 0.0
C723 C 0.54068 0.72077 0.11572 0.0
C724 C 0.57664 0.7816 0.15337 0.0
H725 H 0.57769 0.75657 0.1928 0.0
C726 C 0.57939 0.81661 0.15616 0.0
C727 C 0.57714 0.76018 0.16673 0.0
C728 C 0.57703 0.72362 0.16454 0.0
C729 C 0.58171 0.83038 0.17196 0.0
C730 C 0.58016 0.80803 0.18535 0.0
C731 C 0.57836 0.77345 0.18254 0.0
C732 C 0.5802 0.81993 0.20235 0.0
C733 C 0.5864 0.86901 0.1741 0.0
C734 C 0.60747 0.82261 0.21338 0.0
C735 C 0.60775 0.83428 0.22936 0.0
C736 C 0.58082 0.84361 0.23456 0.0
C737 C 0.55305 0.84005 0.22356 0.0
C738 C 0.55256 0.82801 0.20767 0.0
H739 H 0.59878 0.88666 0.1631 0.0
H740 H 0.55844 0.86625 0.17616 0.0
H741 H 0.60462 0.88382 0.18465 0.0
H742 H 0.62888 0.81619 0.20956 0.0
H743 H 0.62948 0.83666 0.23752 0.0
H744 H 0.79119 0.60059 0.57077 0.0
H745 H 0.81151 0.60596 0.54243 0.0
H746 H 0.70921 0.50344 0.53091 0.0
H747 H 0.68838 0.49824 0.55895 0.0
H748 H 0.82421 0.55989 0.5229 0.0
H749 H 0.70801 0.57572 0.49784 0.0
H750 H 0.7183 0.57934 0.51926 0.0
H751 H 0.69104 0.53393 0.50987 0.0
C752 C 0.77312 0.5791 0.56221 0.0
C753 C 0.73797 0.54922 0.5671 0.0
C754 C 0.78472 0.58227 0.54602 0.0
C755 C 0.7614 0.55563 0.53448 0.0
C756 C 0.72711 0.52495 0.53949 0.0
H757 H 0.81524 0.49836 0.44229 0.0
H758 H 0.8017 0.50419 0.47059 0.0
C759 C 0.71539 0.5219 0.55559 0.0
C760 C 0.77282 0.5594 0.5172 0.0
H761 H 0.74212 0.55996 0.47877 0.0
C762 C 0.80649 0.56032 0.51325 0.0
C763 C 0.7501 0.56081 0.50463 0.0
C764 C 0.71507 0.56282 0.50811 0.0
C765 C 0.81718 0.56086 0.49702 0.0
C766 C 0.79306 0.55952 0.48444 0.0
C767 C 0.76029 0.56037 0.48841 0.0
C768 C 0.80067 0.55592 0.46713 0.0
C769 C 0.85424 0.56293 0.49354 0.0
C770 C 0.80291 0.58215 0.4556 0.0
C771 C 0.81007 0.57858 0.43928 0.0
C772 C 0.81514 0.54868 0.43422 0.0
C773 C 0.81194 0.52199 0.44577 0.0
C774 C 0.80451 0.52544 0.46201 0.0
H775 H 0.87421 0.57598 0.50378 0.0
H776 H 0.84945 0.53405 0.49186 0.0
H777 H 0.86744 0.57934 0.48234 0.0
H778 H 0.79961 0.60568 0.45927 0.0
H779 H 0.81234 0.59961 0.43071 0.0
H780 H 0.17456 0.79323 0.90247 0.0
H781 H 0.1896 0.8162 0.87454 0.0
H782 H 0.19391 0.71697 0.86096 0.0
H783 H 0.17785 0.69329 0.88868 0.0
H784 H 0.24915 0.83377 0.85584 0.0
H785 H 0.12295 0.7167 0.82727 0.0
H786 H 0.12746 0.72355 0.84896 0.0
H787 H 0.14906 0.70037 0.83875 0.0
C788 C 0.17876 0.7763 0.89355 0.0
C789 C 0.17468 0.74126 0.89779 0.0
C790 C 0.18726 0.78943 0.87758 0.0
C791 C 0.19197 0.76787 0.86557 0.0
C792 C 0.18922 0.73353 0.8699 0.0
H793 H 0.30847 0.84697 0.77462 0.0
H794 H 0.28804 0.82533 0.80227 0.0
C795 C 0.18035 0.72019 0.8858 0.0
C796 C 0.20066 0.78169 0.8486 0.0
H797 H 0.17292 0.75681 0.80931 0.0
C798 C 0.2323 0.81707 0.84568 0.0
C799 C 0.17823 0.76024 0.83535 0.0
C800 C 0.14231 0.7233 0.83773 0.0
C801 C 0.24285 0.83106 0.82985 0.0
C802 C 0.22176 0.80859 0.81655 0.0
C803 C 0.18938 0.77377 0.81949 0.0
C804 C 0.23335 0.82038 0.79952 0.0
C805 C 0.2763 0.86995 0.82758 0.0
C806 C 0.20873 0.82311 0.78852 0.0
C807 C 0.22012 0.83494 0.77254 0.0
C808 C 0.2564 0.84432 0.76732 0.0
C809 C 0.28054 0.84053 0.77828 0.0
C810 C 0.26901 0.82839 0.79415 0.0
H811 H 0.28152 0.88757 0.83858 0.0
H812 H 0.30174 0.86769 0.82538 0.0
H813 H 0.27231 0.8845 0.81706 0.0
H814 H 0.18092 0.81669 0.79237 0.0
H815 H 0.20082 0.83748 0.7644 0.0
H816 H 0.56544 0.61364 0.04859 0.0
H817 H 0.53531 0.55231 0.03536 0.0
H818 H 0.53348 0.60378 0.99002 0.0
H819 H 0.56461 0.66592 0.0032 0.0
H820 H 0.46005 0.53928 0.00394 0.0
H821 H 0.57578 0.50774 0.9986 0.0
H822 H 0.57657 0.53056 0.01733 0.0
H823 H 0.58345 0.55517 0.99845 0.0
C824 C 0.55911 0.61204 0.03576 0.0
C825 C 0.56726 0.64442 0.02691 0.0
C826 C 0.54217 0.57708 0.0282 0.0
C827 C 0.53271 0.57378 0.0117 0.0
C828 C 0.54111 0.60603 0.00271 0.0
H829 H 0.41742 0.32892 0.0015 0.0
H830 H 0.44666 0.39157 0.98877 0.0
C831 C 0.55878 0.64132 0.01025 0.0
C832 C 0.51063 0.53578 0.00477 0.0
H833 H 0.5134 0.45436 0.00374 0.0
C834 C 0.47174 0.52077 0.00317 0.0
C835 C 0.52604 0.51192 0.00355 0.0
C836 C 0.56785 0.5272 0.00441 0.0
C837 C 0.44746 0.48176 0.00262 0.0
C838 C 0.4627 0.45771 0.00375 0.0
C839 C 0.50177 0.47292 0.00303 0.0
C840 C 0.43993 0.41895 0.00988 0.0
C841 C 0.40562 0.4665 0.00239 0.0
C842 C 0.42667 0.41392 0.02589 0.0
C843 C 0.4109 0.37875 0.03322 0.0
C844 C 0.40771 0.34784 0.02462 0.0
C845 C 0.41939 0.35238 0.00832 0.0
C846 C 0.43597 0.38797 1.00105 0.0
H847 H 0.39865 0.4862 0.99613 0.0
H848 H 0.39072 0.43868 0.99628 0.0
H849 H 0.39517 0.46301 0.01505 0.0
H850 H 0.43024 0.43768 0.03302 0.0
H851 H 0.40203 0.37594 0.04578 0.0
H852 H 0.89623 0.56407 0.33039 0.0
H853 H 0.93044 0.53855 0.31546 0.0
H854 H 0.94078 0.4881 0.35959 0.0
H855 H 0.90835 0.51423 0.37455 0.0
H856 H 0.00819 0.55372 0.32666 0.0
H857 H 0.90112 0.40296 0.32301 0.0
H858 H 0.88928 0.43993 0.32346 0.0
H859 H 0.89966 0.42373 0.34199 0.0
C860 C 0.90556 0.54725 0.33686 0.0
C861 C 0.89916 0.54081 0.35366 0.0
C862 C 0.92488 0.53262 0.32829 0.0
C863 C 0.93723 0.51079 0.33639 0.0
C864 C 0.93056 0.50413 0.35307 0.0
H865 H 0.06624 0.45686 0.37357 0.0
H866 H 0.02779 0.47707 0.35927 0.0
C867 C 0.91198 0.51915 0.36163 0.0
C868 C 0.96063 0.49765 0.32837 0.0
H869 H 0.96585 0.41753 0.32857 0.0
C870 C -0.00118 0.52391 0.32616 0.0
C871 C 0.94826 0.45883 0.32753 0.0
C872 C 0.90721 0.42971 0.32896 0.0
C873 C 0.02557 0.51222 0.3258 0.0
C874 C 0.01348 0.47366 0.32769 0.0
C875 C 0.975 0.44717 0.32724 0.0
C876 C 0.03839 0.46219 0.33546 0.0
C877 C 0.06676 0.54136 0.32564 0.0
C878 C 0.05687 0.44695 0.32671 0.0
C879 C 0.07949 0.43565 0.33491 0.0
C880 C 0.08346 0.4393 0.35191 0.0
C881 C 0.06444 0.45427 0.36049 0.0
C882 C 0.0423 0.46572 0.35234 0.0
H883 H 0.07169 0.56812 0.3201 0.0
H884 H 0.07734 0.54723 0.33831 0.0
H885 H 0.08311 0.53091 0.31887 0.0
H886 H 0.05382 0.44385 0.31366 0.0
H887 H 0.09373 0.42405 0.32799 0.0
H888 H 0.61457 0.0231 0.71055 0.0
H889 H 0.55313 0.99535 0.69763 0.0
H890 H 0.60361 0.06214 0.65475 0.0
H891 H 0.66587 0.08983 0.66765 0.0
H892 H 0.545 0.07063 0.66955 0.0
H893 H 0.499 0.92072 0.66008 0.0
H894 H 0.52121 0.93675 0.67946 0.0
H895 H 0.54804 0.95674 0.6612 0.0
C896 C 0.61275 0.0312 0.69821 0.0
C897 C 0.64483 0.05857 0.69009 0.0
C898 C 0.57769 0.0151 0.69079 0.0
C899 C 0.57394 0.02628 0.67514 0.0
C900 C 0.6061 0.05277 0.66673 0.0
H901 H 0.32886 0.91659 0.66683 0.0
H902 H 0.39158 0.94559 0.65429 0.0
C903 C 0.64151 0.06849 0.6741 0.0
C904 C 0.53575 0.01413 0.66907 0.0
H905 H 0.44969 0.93484 0.66799 0.0
C906 C 0.52421 0.04101 0.66853 0.0
C907 C 0.50876 0.97561 0.66746 0.0
C908 C 0.51997 0.94584 0.6669 0.0
C909 C 0.48594 0.02997 0.66863 0.0
C910 C 0.45894 0.99128 0.66936 0.0
C911 C 0.47048 0.96456 0.66766 0.0
C912 C 0.42058 0.97823 0.6755 0.0
C913 C 0.47473 0.05974 0.66931 0.0
C914 C 0.41632 0.98713 0.69151 0.0
C915 C 0.38095 0.97029 0.69872 0.0
C916 C 0.34908 0.94441 0.69003 0.0
C917 C 0.35302 0.93671 0.67374 0.0
C918 C 0.3887 0.95319 0.66657 0.0
H919 H 0.4958 0.08585 0.66306 0.0
H920 H 0.44675 0.0497 0.66367 0.0
H921 H 0.47329 0.0669 0.68217 0.0
H922 H 0.44067 0.00573 0.69872 0.0
H923 H 0.37869 0.97673 0.71128 0.0
H924 H 0.66116 0.5715 0.66769 0.0
H925 H 0.59982 0.54832 0.68098 0.0
H926 H 0.54409 0.49702 0.63605 0.0
H927 H 0.60436 0.52087 0.62266 0.0
H928 H 0.54123 0.56572 0.66741 0.0
H929 H 0.49131 0.41372 0.67284 0.0
H930 H 0.54064 0.44926 0.67293 0.0
H931 H 0.51551 0.43334 0.65406 0.0
C932 C 0.63577 0.55499 0.66071 0.0
C933 C 0.63766 0.54765 0.64413 0.0
C934 C 0.60089 0.54169 0.66834 0.0
C935 C 0.56766 0.52029 0.65955 0.0
C936 C 0.56955 0.51271 0.64312 0.0
H937 H 0.38311 0.47918 0.622 0.0
H938 H 0.4425 0.50201 0.63597 0.0
C939 C 0.60413 0.52643 0.63546 0.0
C940 C 0.53043 0.50873 0.66655 0.0
H941 H 0.44346 0.43069 0.66636 0.0
C942 C 0.51987 0.53621 0.66799 0.0
C943 C 0.50279 0.4703 0.66753 0.0
C944 C 0.51317 0.43993 0.66693 0.0
C945 C 0.48184 0.52605 0.66791 0.0
C946 C 0.45427 0.48772 0.66633 0.0
C947 C 0.46477 0.46014 0.6674 0.0
C948 C 0.41748 0.47677 0.65905 0.0
C949 C 0.47149 0.55645 0.66771 0.0
C950 C 0.38371 0.45463 0.66741 0.0
C951 C 0.34931 0.44191 0.65944 0.0
C952 C 0.34846 0.45057 0.64296 0.0
C953 C 0.38252 0.47257 0.63472 0.0
C954 C 0.4166 0.48572 0.64271 0.0
H955 H 0.49301 0.58214 0.67404 0.0
H956 H 0.46987 0.56413 0.65494 0.0
H957 H 0.44369 0.54662 0.67351 0.0
H958 H 0.384 0.44695 0.67996 0.0
H959 H 0.32349 0.42477 0.66609 0.0
H960 H 0.08564 0.66342 0.99959 0.0
H961 H 0.05285 0.60247 0.01367 0.0
H962 H 0.04362 0.54571 0.96844 0.0
H963 H 0.07485 0.6056 0.95431 0.0
H964 H 0.97551 0.53802 0.00203 0.0
H965 H 0.08844 0.50207 0.00395 0.0
H966 H 0.09764 0.55006 0.00418 0.0
H967 H 0.08796 0.52467 0.98535 0.0
C968 C 0.07676 0.6379 0.99268 0.0
C969 C 0.08323 0.63936 0.97583 0.0
C970 C 0.05825 0.60327 1.00076 0.0
C971 C 0.0467 0.56991 0.99211 0.0
C972 C 0.05319 0.57136 0.97536 0.0
H973 H 0.92368 0.38182 0.95549 0.0
H974 H 0.96156 0.44173 0.96907 0.0
C975 C 0.07107 0.60568 0.96728 0.0
C976 C 0.02486 0.53269 0.99977 0.0
H977 H 0.02471 0.44978 0.99908 0.0
C978 C 0.98638 0.51878 0.00228 0.0
C979 C 0.03926 0.50787 1.00025 0.0
C980 C 0.08072 0.52199 0.99845 0.0
C981 C 0.96123 0.47993 0.00272 0.0
C982 C 0.97524 0.45507 1.00061 0.0
C983 C 0.01411 0.46906 1.00061 0.0
C984 C 0.95132 0.41798 0.99322 0.0
C985 C 0.91958 0.46568 0.00327 0.0
C986 C 0.93324 0.3849 0.00241 0.0
C987 C 0.91108 0.3503 0.99464 0.0
C988 C 0.90706 0.34868 0.97763 0.0
C989 C 0.92565 0.38205 0.96859 0.0
C990 C 0.94745 0.41632 0.97632 0.0
H991 H 0.9134 0.4869 0.00855 0.0
H992 H 0.90817 0.45927 0.99074 0.0
H993 H 0.90493 0.43934 0.01049 0.0
H994 H 0.93619 0.38588 0.01549 0.0
H995 H 0.89712 0.32496 0.0019 0.0
H996 H 0.59433 0.97594 0.29203 0.0
H997 H 0.56111 0.005 0.30428 0.0
H998 H 0.54076 0.93785 0.34739 0.0
H999 H 0.57481 0.90883 0.33517 0.0
H1000 H 0.47534 0.93068 0.33174 0.0
H1001 H 0.58049 0.08008 0.34149 0.0
H1002 H 0.58739 0.06371 0.32231 0.0
H1003 H 0.59279 0.04348 0.3408 0.0
C1004 C 0.58361 0.96803 0.30428 0.0
C1005 C 0.58701 0.94016 0.31266 0.0
C1006 C 0.56494 0.98489 0.31133 0.0
C1007 C 0.54902 0.97399 0.32684 0.0
C1008 C 0.55341 0.94702 0.33551 0.0
H1009 H 0.41372 0.08474 0.33292 0.0
H1010 H 0.44701 0.05582 0.34593 0.0
C1011 C 0.57279 0.93052 0.32853 0.0
C1012 C 0.52315 0.98682 0.33244 0.0
H1013 H 0.51785 0.06698 0.3328 0.0
C1014 C 0.48458 0.96042 0.33266 0.0
C1015 C 0.5352 0.0255 0.3339 0.0
C1016 C 0.57631 0.05478 0.33479 0.0
C1017 C 0.45784 0.97207 0.33208 0.0
C1018 C 0.47019 0.01089 0.33123 0.0
C1019 C 0.50846 0.03716 0.33323 0.0
C1020 C 0.4457 0.02442 0.32463 0.0
C1021 C 0.41675 0.94282 0.33099 0.0
C1022 C 0.43413 0.01627 0.30841 0.0
C1023 C 0.41588 0.03308 0.30093 0.0
C1024 C 0.40858 0.05816 0.30958 0.0
C1025 C 0.41881 0.06526 0.32603 0.0
C1026 C 0.43775 0.04882 0.33347 0.0
H1027 H 0.41091 0.91634 0.33714 0.0
H1028 H 0.3989 0.95314 0.33649 0.0
H1029 H 0.4088 0.93623 0.31804 0.0
H1030 H 0.44071 -0.00189 0.30129 0.0
H1031 H 0.40824 0.0271 0.28825 0.0
loop_
_geom_bond_atom_site_label_1
_geom_bond_atom_site_label_2
_geom_bond_distance
_geom_bond_site_symmetry_2
_ccdc_geom_bond_type
Mg0 O1 2.028 . S
Mg0 O7 1.986 . S
Mg0 O9 2.114 . S
Mg0 O10 2.251 . S
Mg0 O13 2.010 . S
O1 Mg0 2.028 . S
O1 C4 1.250 . S
O2 Mg3 2.028 . S
O2 C4 1.248 . S
Mg3 O2 2.028 . S
Mg3 O8 2.032 . S
Mg3 O10 2.079 . S
C4 O1 1.250 . S
C4 O2 1.248 . S
C5 O6 1.264 . S
C5 O13 1.249 . S
O6 C5 1.264 . S
O7 Mg0 1.986 . S
O7 C11 1.246 . S
O8 Mg3 2.032 . S
O8 C11 1.259 . S
O9 Mg0 2.114 . S
O9 C12 1.252 . S
O10 Mg0 2.251 . S
O10 Mg3 2.079 . S
O10 C12 1.273 . S
C11 O7 1.246 . S
C11 O8 1.259 . S
C12 O9 1.252 . S
C12 O10 1.273 . S
O13 Mg0 2.010 . S
O13 C5 1.249 . S
Mg14 O15 2.028 . S
Mg14 O21 1.986 . S
Mg14 O23 2.114 . S
Mg14 O24 2.251 . S
Mg14 O27 2.010 . S
O15 Mg14 2.028 . S
O15 C18 1.250 . S
O16 Mg17 2.028 . S
O16 C18 1.248 . S
Mg17 O16 2.028 . S
Mg17 O22 2.032 . S
Mg17 O24 2.079 . S
C18 O15 1.250 . S
C18 O16 1.248 . S
C19 O20 1.264 . S
C19 O27 1.249 . S
O20 C19 1.264 . S
O21 Mg14 1.986 . S
O21 C25 1.246 . S
O22 Mg17 2.032 . S
O22 C25 1.259 . S
O23 Mg14 2.114 . S
O23 C26 1.252 . S
O24 Mg14 2.251 . S
O24 Mg17 2.079 . S
O24 C26 1.273 . S
C25 O21 1.246 . S
C25 O22 1.259 . S
C26 O23 1.252 . S
C26 O24 1.273 . S
O27 Mg14 2.010 . S
O27 C19 1.249 . S
Mg28 O29 2.028 . S
Mg28 O35 1.986 . S
Mg28 O37 2.114 . S
Mg28 O38 2.251 . S
Mg28 O41 2.010 . S
O29 Mg28 2.028 . S
O29 C32 1.250 . S
O30 Mg31 2.028 . S
O30 C32 1.248 . S
Mg31 O30 2.028 . S
Mg31 O36 2.032 . S
Mg31 O38 2.079 . S
C32 O29 1.250 . S
C32 O30 1.248 . S
C33 O34 1.264 . S
C33 O41 1.249 . S
O34 C33 1.264 . S
O35 Mg28 1.986 . S
O35 C39 1.246 . S
O36 Mg31 2.032 . S
O36 C39 1.259 . S
O37 Mg28 2.114 . S
O37 C40 1.252 . S
O38 Mg28 2.251 . S
O38 Mg31 2.079 . S
O38 C40 1.273 . S
C39 O35 1.246 . S
C39 O36 1.259 . S
C40 O37 1.252 . S
C40 O38 1.273 . S
O41 Mg28 2.010 . S
O41 C33 1.249 . S
Mg42 O43 2.028 . S
Mg42 O49 1.986 . S
Mg42 O51 2.114 . S
Mg42 O52 2.251 . S
Mg42 O55 2.010 . S
O43 Mg42 2.028 . S
O43 C46 1.250 . S
O44 Mg45 2.028 . S
O44 C46 1.248 . S
Mg45 O44 2.028 . S
Mg45 O50 2.032 . S
Mg45 O52 2.079 . S
C46 O43 1.250 . S
C46 O44 1.248 . S
C47 O48 1.264 . S
C47 O55 1.249 . S
O48 C47 1.264 . S
O49 Mg42 1.986 . S
O49 C53 1.246 . S
O50 Mg45 2.032 . S
O50 C53 1.259 . S
O51 Mg42 2.114 . S
O51 C54 1.252 . S
O52 Mg42 2.251 . S
O52 Mg45 2.079 . S
O52 C54 1.273 . S
C53 O49 1.246 . S
C53 O50 1.259 . S
C54 O51 1.252 . S
C54 O52 1.273 . S
O55 Mg42 2.010 . S
O55 C47 1.249 . S
Mg56 O57 2.028 . S
Mg56 O63 1.986 . S
Mg56 O65 2.114 . S
Mg56 O66 2.251 . S
Mg56 O69 2.010 . S
O57 Mg56 2.028 . S
O57 C60 1.250 . S
O58 Mg59 2.028 . S
O58 C60 1.248 . S
Mg59 O58 2.028 . S
Mg59 O64 2.032 . S
Mg59 O66 2.079 . S
C60 O57 1.250 . S
C60 O58 1.248 . S
C61 O62 1.264 . S
C61 O69 1.249 . S
O62 C61 1.264 . S
O63 Mg56 1.986 . S
O63 C67 1.246 . S
O64 Mg59 2.032 . S
O64 C67 1.259 . S
O65 Mg56 2.114 . S
O65 C68 1.252 . S
O66 Mg56 2.251 . S
O66 Mg59 2.079 . S
O66 C68 1.273 . S
C67 O63 1.246 . S
C67 O64 1.259 . S
C68 O65 1.252 . S
C68 O66 1.273 . S
O69 Mg56 2.010 . S
O69 C61 1.249 . S
Mg70 O71 2.028 . S
Mg70 O77 1.986 . S
Mg70 O79 2.114 . S
Mg70 O80 2.251 . S
Mg70 O83 2.010 . S
O71 Mg70 2.028 . S
O71 C74 1.250 . S
O72 Mg73 2.028 . S
O72 C74 1.248 . S
Mg73 O72 2.028 . S
Mg73 O78 2.032 . S
Mg73 O80 2.079 . S
C74 O71 1.250 . S
C74 O72 1.248 . S
C75 O76 1.264 . S
C75 O83 1.249 . S
O76 C75 1.264 . S
O77 Mg70 1.986 . S
O77 C81 1.246 . S
O78 Mg73 2.032 . S
O78 C81 1.259 . S
O79 Mg70 2.114 . S
O79 C82 1.252 . S
O80 Mg70 2.251 . S
O80 Mg73 2.079 . S
O80 C82 1.273 . S
C81 O77 1.246 . S
C81 O78 1.259 . S
C82 O79 1.252 . S
C82 O80 1.273 . S
O83 Mg70 2.010 . S
O83 C75 1.249 . S
Mg84 O85 2.028 . S
Mg84 O91 1.986 . S
Mg84 O93 2.114 . S
Mg84 O94 2.251 . S
Mg84 O97 2.010 . S
O85 Mg84 2.028 . S
O85 C88 1.250 . S
O86 Mg87 2.028 . S
O86 C88 1.248 . S
Mg87 O86 2.028 . S
Mg87 O92 2.032 . S
Mg87 O94 2.079 . S
C88 O85 1.250 . S
C88 O86 1.248 . S
C89 O90 1.264 . S
C89 O97 1.249 . S
O90 C89 1.264 . S
O91 Mg84 1.986 . S
O91 C95 1.246 . S
O92 Mg87 2.032 . S
O92 C95 1.259 . S
O93 Mg84 2.114 . S
O93 C96 1.252 . S
O94 Mg84 2.251 . S
O94 Mg87 2.079 . S
O94 C96 1.273 . S
C95 O91 1.246 . S
C95 O92 1.259 . S
C96 O93 1.252 . S
C96 O94 1.273 . S
O97 Mg84 2.010 . S
O97 C89 1.249 . S
Mg98 O99 2.028 . S
Mg98 O105 1.986 . S
Mg98 O107 2.114 . S
Mg98 O108 2.251 . S
Mg98 O111 2.010 . S
O99 Mg98 2.028 . S
O99 C102 1.250 . S
O100 Mg101 2.028 . S
O100 C102 1.248 . S
Mg101 O100 2.028 . S
Mg101 O106 2.032 . S
Mg101 O108 2.079 . S
C102 O99 1.250 . S
C102 O100 1.248 . S
C103 O104 1.264 . S
C103 O111 1.249 . S
O104 C103 1.264 . S
O105 Mg98 1.986 . S
O105 C109 1.246 . S
O106 Mg101 2.032 . S
O106 C109 1.259 . S
O107 Mg98 2.114 . S
O107 C110 1.252 . S
O108 Mg98 2.251 . S
O108 Mg101 2.079 . S
O108 C110 1.273 . S
C109 O105 1.246 . S
C109 O106 1.259 . S
C110 O107 1.252 . S
C110 O108 1.273 . S
O111 Mg98 2.010 . S
O111 C103 1.249 . S
Mg112 O113 2.028 . S
Mg112 O119 1.986 . S
Mg112 O121 2.114 . S
Mg112 O122 2.251 . S
Mg112 O125 2.010 . S
O113 Mg112 2.028 . S
O113 C116 1.250 . S
O114 Mg115 2.028 . S
O114 C116 1.248 . S
Mg115 O114 2.028 . S
Mg115 O120 2.032 . S
Mg115 O122 2.079 . S
C116 O113 1.250 . S
C116 O114 1.248 . S
C117 O118 1.264 . S
C117 O125 1.249 . S
O118 C117 1.264 . S
O119 Mg112 1.986 . S
O119 C123 1.246 . S
O120 Mg115 2.032 . S
O120 C123 1.259 . S
O121 Mg112 2.114 . S
O121 C124 1.252 . S
O122 Mg112 2.251 . S
O122 Mg115 2.079 . S
O122 C124 1.273 . S
C123 O119 1.246 . S
C123 O120 1.259 . S
C124 O121 1.252 . S
C124 O122 1.273 . S
O125 Mg112 2.010 . S
O125 C117 1.249 . S
Mg126 O127 2.028 . S
Mg126 O133 1.986 . S
Mg126 O135 2.114 . S
Mg126 O136 2.251 . S
Mg126 O139 2.010 . S
O127 Mg126 2.028 . S
O127 C130 1.250 . S
O128 Mg129 2.028 . S
O128 C130 1.248 . S
Mg129 O128 2.028 . S
Mg129 O134 2.032 . S
Mg129 O136 2.079 . S
C130 O127 1.250 . S
C130 O128 1.248 . S
C131 O132 1.264 . S
C131 O139 1.249 . S
O132 C131 1.264 . S
O133 Mg126 1.986 . S
O133 C137 1.246 . S
O134 Mg129 2.032 . S
O134 C137 1.259 . S
O135 Mg126 2.114 . S
O135 C138 1.252 . S
O136 Mg126 2.251 . S
O136 Mg129 2.079 . S
O136 C138 1.273 . S
C137 O133 1.246 . S
C137 O134 1.259 . S
C138 O135 1.252 . S
C138 O136 1.273 . S
O139 Mg126 2.010 . S
O139 C131 1.249 . S
Mg140 O141 2.028 . S
Mg140 O147 1.986 . S
Mg140 O149 2.114 . S
Mg140 O150 2.251 . S
Mg140 O153 2.010 . S
O141 Mg140 2.028 . S
O141 C144 1.250 . S
O142 Mg143 2.028 . S
O142 C144 1.248 . S
Mg143 O142 2.028 . S
Mg143 O148 2.032 . S
Mg143 O150 2.079 . S
C144 O141 1.250 . S
C144 O142 1.248 . S
C145 O146 1.264 . S
C145 O153 1.249 . S
O146 C145 1.264 . S
O147 Mg140 1.986 . S
O147 C151 1.246 . S
O148 Mg143 2.032 . S
O148 C151 1.259 . S
O149 Mg140 2.114 . S
O149 C152 1.252 . S
O150 Mg140 2.251 . S
O150 Mg143 2.079 . S
O150 C152 1.273 . S
C151 O147 1.246 . S
C151 O148 1.259 . S
C152 O149 1.252 . S
C152 O150 1.273 . S
O153 Mg140 2.010 . S
O153 C145 1.249 . S
Mg154 O155 2.028 . S
Mg154 O161 1.986 . S
Mg154 O163 2.114 . S
Mg154 O164 2.251 . S
Mg154 O167 2.010 . S
O155 Mg154 2.028 . S
O155 C158 1.250 . S
O156 Mg157 2.028 . S
O156 C158 1.248 . S
Mg157 O156 2.028 . S
Mg157 O162 2.032 . S
Mg157 O164 2.079 . S
C158 O155 1.250 . S
C158 O156 1.248 . S
C159 O160 1.264 . S
C159 O167 1.249 . S
O160 C159 1.264 . S
O161 Mg154 1.986 . S
O161 C165 1.246 . S
O162 Mg157 2.032 . S
O162 C165 1.259 . S
O163 Mg154 2.114 . S
O163 C166 1.252 . S
O164 Mg154 2.251 . S
O164 Mg157 2.079 . S
O164 C166 1.273 . S
C165 O161 1.246 . S
C165 O162 1.259 . S
C166 O163 1.252 . S
C166 O164 1.273 . S
O167 Mg154 2.010 . S
O167 C159 1.249 . S
H168 C176 0.962 . S
H169 C178 0.930 1_554 S
H170 C180 0.930 . S
H171 C183 0.929 . S
H172 C186 0.930 . S
H173 C188 0.951 1_554 S
H174 C188 0.960 1_554 S
H175 C188 0.960 . S
C176 H168 0.962 . S
C176 C177 1.377 . S
C176 C178 1.384 . S
C177 C176 1.377 . S
C177 C183 1.390 . S
C178 H169 0.930 1_556 S
C178 C176 1.384 . S
C178 C179 1.372 . S
C179 C178 1.372 . S
C179 C180 1.400 . S
C179 C184 1.490 . S
C180 H170 0.930 . S
C180 C179 1.400 . S
C180 C183 1.386 . S
H181 C197 0.915 1_556 S
H182 C198 0.931 1_556 S
C183 H171 0.929 . S
C183 C177 1.390 . S
C183 C180 1.386 . S
C184 C179 1.490 . S
C184 C186 1.395 . S
C184 C187 1.403 . S
H185 C191 0.930 . S
C186 H172 0.930 . S
C186 C184 1.395 . S
C186 C189 1.403 1_566 S
C187 C184 1.403 . S
C187 C188 1.524 . S
C187 C191 1.400 1_566 S
C188 H173 0.951 1_556 S
C188 H174 0.960 1_556 S
C188 H175 0.960 . S
C188 C187 1.524 . S
C189 C186 1.403 1_544 S
C189 C190 1.392 . S
C189 C193 1.495 . S
C190 C189 1.392 . S
C190 C191 1.385 . S
C190 C192 1.478 . S
C191 H185 0.930 . S
C191 C187 1.400 1_544 S
C191 C190 1.385 . S
C192 C190 1.478 . S
C192 C194 1.381 . S
C192 C198 1.383 . S
C193 C189 1.495 . S
C193 H199 0.959 . S
C193 H200 0.961 1_554 S
C193 H201 0.960 . S
C194 C192 1.381 . S
C194 C195 1.394 . S
C194 H202 0.930 . S
C195 C194 1.394 . S
C195 C196 1.383 . S
C195 H203 0.929 . S
C196 C195 1.383 . S
C196 C197 1.377 . S
C197 H181 0.915 1_554 S
C197 C196 1.377 . S
C197 C198 1.379 . S
C198 H182 0.931 1_554 S
C198 C192 1.383 . S
C198 C197 1.379 . S
H199 C193 0.959 . S
H200 C193 0.961 1_556 S
H201 C193 0.960 . S
H202 C194 0.930 . S
H203 C195 0.929 . S
H204 C212 0.929 . S
H205 C214 0.930 . S
H206 C216 0.930 . S
H207 C219 0.929 . S
H208 C222 0.930 . S
H209 C224 0.960 . S
H210 C224 0.960 . S
H211 C224 0.960 . S
C212 H204 0.929 . S
C212 C213 1.377 . S
C212 C214 1.384 . S
C213 C212 1.377 . S
C213 C219 1.390 . S
C214 H205 0.930 . S
C214 C212 1.384 . S
C214 C215 1.372 . S
C215 C214 1.372 . S
C215 C216 1.400 . S
C215 C220 1.490 . S
C216 H206 0.930 . S
C216 C215 1.400 . S
C216 C219 1.386 . S
H217 C233 0.930 . S
H218 C234 0.931 . S
C219 H207 0.929 . S
C219 C213 1.390 . S
C219 C216 1.386 . S
C220 C215 1.490 . S
C220 C222 1.395 . S
C220 C223 1.403 . S
H221 C227 0.930 . S
C222 H208 0.930 . S
C222 C220 1.395 . S
C222 C225 1.403 . S
C223 C220 1.403 . S
C223 C224 1.524 . S
C223 C227 1.400 . S
C224 H209 0.960 . S
C224 H210 0.960 . S
C224 H211 0.960 . S
C224 C223 1.524 . S
C225 C222 1.403 . S
C225 C226 1.392 . S
C225 C229 1.495 . S
C226 C225 1.392 . S
C226 C227 1.385 . S
C226 C228 1.478 . S
C227 H221 0.930 . S
C227 C223 1.400 . S
C227 C226 1.385 . S
C228 C226 1.478 . S
C228 C230 1.381 . S
C228 C234 1.383 . S
C229 C225 1.495 . S
C229 H235 0.959 . S
C229 H236 0.961 . S
C229 H237 0.960 . S
C230 C228 1.381 . S
C230 C231 1.394 . S
C230 H238 0.930 . S
C231 C230 1.394 . S
C231 C232 1.383 . S
C231 H239 0.929 . S
C232 C231 1.383 . S
C232 C233 1.377 . S
C233 H217 0.930 . S
C233 C232 1.377 . S
C233 C234 1.379 . S
C234 H218 0.931 . S
C234 C228 1.383 . S
C234 C233 1.379 . S
H235 C229 0.959 . S
H236 C229 0.961 . S
H237 C229 0.960 . S
H238 C230 0.930 . S
H239 C231 0.929 . S
H240 C248 0.929 . S
H241 C250 0.930 . S
H242 C252 0.930 . S
H243 C255 0.929 . S
H244 C258 0.930 . S
H245 C260 0.960 1_455 S
H246 C260 0.960 . S
H247 C260 0.960 . S
C248 H240 0.929 . S
C248 C249 1.377 . S
C248 C250 1.384 . S
C249 C248 1.377 . S
C249 C255 1.390 . S
C250 H241 0.930 . S
C250 C248 1.384 . S
C250 C251 1.372 . S
C251 C250 1.372 . S
C251 C252 1.400 . S
C251 C256 1.490 . S
C252 H242 0.930 . S
C252 C251 1.400 . S
C252 C255 1.386 . S
H253 C269 0.930 . S
H254 C270 0.931 . S
C255 H243 0.929 . S
C255 C249 1.390 . S
C255 C252 1.386 . S
C256 C251 1.490 . S
C256 C258 1.395 . S
C256 C259 1.403 . S
H257 C263 0.930 . S
C258 H244 0.930 . S
C258 C256 1.395 . S
C258 C261 1.403 1_655 S
C259 C256 1.403 . S
C259 C260 1.524 . S
C259 C263 1.400 1_655 S
C260 H245 0.960 1_655 S
C260 H246 0.960 . S
C260 H247 0.960 . S
C260 C259 1.524 . S
C261 C258 1.403 1_455 S
C261 C262 1.392 . S
C261 C265 1.495 . S
C262 C261 1.392 . S
C262 C263 1.385 . S
C262 C264 1.478 . S
C263 H257 0.930 . S
C263 C259 1.400 1_455 S
C263 C262 1.385 . S
C264 C262 1.478 . S
C264 C266 1.381 . S
C264 C270 1.383 . S
C265 C261 1.495 . S
C265 H271 0.959 1_455 S
C265 H272 0.961 . S
C265 H273 0.960 . S
C266 C264 1.381 . S
C266 C267 1.394 . S
C266 H274 0.930 . S
C267 C266 1.394 . S
C267 C268 1.383 . S
C267 H275 0.929 . S
C268 C267 1.383 . S
C268 C269 1.377 . S
C269 H253 0.930 . S
C269 C268 1.377 . S
C269 C270 1.379 . S
C270 H254 0.931 . S
C270 C264 1.383 . S
C270 C269 1.379 . S
H271 C265 0.959 1_655 S
H272 C265 0.961 . S
H273 C265 0.960 . S
H274 C266 0.930 . S
H275 C267 0.929 . S
H276 C284 0.929 . S
H277 C286 0.930 1_556 S
H278 C288 0.930 . S
H279 C291 0.929 . S
H280 C294 0.930 . S
H281 C296 0.960 1_545 S
H282 C296 0.960 . S
H283 C296 0.960 . S
C284 H276 0.929 . S
C284 C285 1.377 . S
C284 C286 1.384 . S
C285 C284 1.377 . S
C285 C291 1.390 . S
C286 H277 0.930 1_554 S
C286 C284 1.384 . S
C286 C287 1.372 . S
C287 C286 1.372 . S
C287 C288 1.400 . S
C287 C292 1.490 . S
C288 H278 0.930 . S
C288 C287 1.400 . S
C288 C291 1.386 . S
H289 C305 0.930 . S
H290 C306 0.931 1_554 S
C291 H279 0.929 . S
C291 C285 1.390 . S
C291 C288 1.386 . S
C292 C287 1.490 . S
C292 C294 1.395 1_554 S
C292 C295 1.403 . S
H293 C299 0.930 . S
C294 H280 0.930 . S
C294 C292 1.395 1_556 S
C294 C297 1.403 1_565 S
C295 C292 1.403 . S
C295 C296 1.524 . S
C295 C299 1.400 1_565 S
C296 H281 0.960 1_565 S
C296 H282 0.960 . S
C296 H283 0.960 . S
C296 C295 1.524 . S
C297 C294 1.403 1_545 S
C297 C298 1.392 . S
C297 C301 1.495 . S
C298 C297 1.392 . S
C298 C299 1.385 1_556 S
C298 C300 1.478 . S
C299 H293 0.930 . S
C299 C295 1.400 1_545 S
C299 C298 1.385 1_554 S
C300 C298 1.478 . S
C300 C302 1.381 . S
C300 C306 1.383 . S
C301 C297 1.495 . S
C301 H307 0.959 1_545 S
C301 H308 0.961 . S
C301 H309 0.960 . S
C302 C300 1.381 . S
C302 C303 1.394 . S
C302 H310 0.930 . S
C303 C302 1.394 . S
C303 C304 1.383 . S
C303 H311 0.929 . S
C304 C303 1.383 . S
C304 C305 1.377 . S
C305 H289 0.930 . S
C305 C304 1.377 . S
C305 C306 1.379 . S
C306 H290 0.931 1_556 S
C306 C300 1.383 . S
C306 C305 1.379 . S
H307 C301 0.959 1_565 S
H308 C301 0.961 . S
H309 C301 0.960 . S
H310 C302 0.930 . S
H311 C303 0.929 . S
H312 C320 0.929 . S
H313 C322 0.930 . S
H314 C324 0.930 . S
H315 C327 0.929 . S
H316 C330 0.930 . S
H317 C332 0.960 . S
H318 C332 0.960 . S
H319 C332 0.960 . S
C320 H312 0.929 . S
C320 C321 1.377 . S
C320 C322 1.384 . S
C321 C320 1.377 . S
C321 C327 1.390 . S
C322 H313 0.930 . S
C322 C320 1.384 . S
C322 C323 1.372 . S
C323 C322 1.372 . S
C323 C324 1.400 . S
C323 C328 1.490 . S
C324 H314 0.930 . S
C324 C323 1.400 . S
C324 C327 1.386 . S
H325 C341 0.930 . S
H326 C342 0.931 . S
C327 H315 0.929 . S
C327 C321 1.390 . S
C327 C324 1.386 . S
C328 C323 1.490 . S
C328 C330 1.395 . S
C328 C331 1.403 . S
H329 C335 0.930 . S
C330 H316 0.930 . S
C330 C328 1.395 . S
C330 C333 1.403 . S
C331 C328 1.403 . S
C331 C332 1.524 . S
C331 C335 1.400 . S
C332 H317 0.960 . S
C332 H318 0.960 . S
C332 H319 0.960 . S
C332 C331 1.524 . S
C333 C330 1.403 . S
C333 C334 1.392 . S
C333 C337 1.495 . S
C334 C333 1.392 . S
C334 C335 1.385 . S
C334 C336 1.478 . S
C335 H329 0.930 . S
C335 C331 1.400 . S
C335 C334 1.385 . S
C336 C334 1.478 . S
C336 C338 1.381 . S
C336 C342 1.383 . S
C337 C333 1.495 . S
C337 H343 0.959 . S
C337 H344 0.961 . S
C337 H345 0.960 . S
C338 C336 1.381 . S
C338 C339 1.394 . S
C338 H346 0.930 . S
C339 C338 1.394 . S
C339 C340 1.383 . S
C339 H347 0.929 . S
C340 C339 1.383 . S
C340 C341 1.377 . S
C341 H325 0.930 . S
C341 C340 1.377 . S
C341 C342 1.379 . S
C342 H326 0.931 . S
C342 C336 1.383 . S
C342 C341 1.379 . S
H343 C337 0.959 . S
H344 C337 0.961 . S
H345 C337 0.960 . S
H346 C338 0.930 . S
H347 C339 0.929 . S
H348 C356 0.929 . S
H349 C358 0.930 . S
H350 C360 0.930 . S
H351 C363 0.929 . S
H352 C366 0.930 . S
H353 C368 0.960 . S
H354 C368 0.960 . S
H355 C368 0.960 . S
C356 H348 0.929 . S
C356 C357 1.377 . S
C356 C358 1.384 . S
C357 C356 1.377 . S
C357 C363 1.390 . S
C358 H349 0.930 . S
C358 C356 1.384 . S
C358 C359 1.372 . S
C359 C358 1.372 . S
C359 C360 1.400 . S
C359 C364 1.490 . S
C360 H350 0.930 . S
C360 C359 1.400 . S
C360 C363 1.386 . S
H361 C377 0.930 . S
H362 C378 0.931 . S
C363 H351 0.929 . S
C363 C357 1.390 . S
C363 C360 1.386 . S
C364 C359 1.490 . S
C364 C366 1.395 . S
C364 C367 1.403 . S
H365 C371 0.930 . S
C366 H352 0.930 . S
C366 C364 1.395 . S
C366 C369 1.403 1_655 S
C367 C364 1.403 . S
C367 C368 1.524 . S
C367 C371 1.400 1_655 S
C368 H353 0.960 . S
C368 H354 0.960 . S
C368 H355 0.960 . S
C368 C367 1.524 . S
C369 C366 1.403 1_455 S
C369 C370 1.392 . S
C369 C373 1.495 . S
C370 C369 1.392 . S
C370 C371 1.385 . S
C370 C372 1.478 . S
C371 H365 0.930 . S
C371 C367 1.400 1_455 S
C371 C370 1.385 . S
C372 C370 1.478 . S
C372 C374 1.381 . S
C372 C378 1.383 . S
C373 C369 1.495 . S
C373 H379 0.959 . S
C373 H380 0.961 . S
C373 H381 0.960 . S
C374 C372 1.381 . S
C374 C375 1.394 . S
C374 H382 0.930 . S
C375 C374 1.394 . S
C375 C376 1.383 . S
C375 H383 0.929 . S
C376 C375 1.383 . S
C376 C377 1.377 . S
C377 H361 0.930 . S
C377 C376 1.377 . S
C377 C378 1.379 . S
C378 H362 0.931 . S
C378 C372 1.383 . S
C378 C377 1.379 . S
H379 C373 0.959 . S
H380 C373 0.961 . S
H381 C373 0.960 . S
H382 C374 0.930 . S
H383 C375 0.929 . S
H384 C392 0.929 . S
H385 C394 0.930 . S
H386 C396 0.930 . S
H387 C399 0.929 . S
H388 C402 0.930 . S
H389 C404 0.960 . S
H390 C404 0.960 . S
H391 C404 0.960 . S
C392 H384 0.929 . S
C392 C393 1.377 . S
C392 C394 1.384 . S
C393 C392 1.377 . S
C393 C399 1.390 . S
C394 H385 0.930 . S
C394 C392 1.384 . S
C394 C395 1.372 . S
C395 C394 1.372 . S
C395 C396 1.400 . S
C395 C400 1.490 . S
C396 H386 0.930 . S
C396 C395 1.400 . S
C396 C399 1.386 . S
H397 C413 0.930 . S
H398 C414 0.931 . S
C399 H387 0.929 . S
C399 C393 1.390 . S
C399 C396 1.386 . S
C400 C395 1.490 . S
C400 C402 1.395 1_556 S
C400 C403 1.403 . S
H401 C407 0.930 . S
C402 H388 0.930 . S
C402 C400 1.395 1_554 S
C402 C405 1.403 . S
C403 C400 1.403 . S
C403 C404 1.524 . S
C403 C407 1.400 . S
C404 H389 0.960 . S
C404 H390 0.960 . S
C404 H391 0.960 . S
C404 C403 1.524 . S
C405 C402 1.403 . S
C405 C406 1.392 . S
C405 C409 1.495 . S
C406 C405 1.392 . S
C406 C407 1.385 1_554 S
C406 C408 1.478 . S
C407 H401 0.930 . S
C407 C403 1.400 . S
C407 C406 1.385 1_556 S
C408 C406 1.478 . S
C408 C410 1.381 . S
C408 C414 1.383 . S
C409 C405 1.495 . S
C409 H415 0.959 . S
C409 H416 0.961 . S
C409 H417 0.960 . S
C410 C408 1.381 . S
C410 C411 1.394 . S
C410 H418 0.930 . S
C411 C410 1.394 . S
C411 C412 1.383 . S
C411 H419 0.929 . S
C412 C411 1.383 . S
C412 C413 1.377 . S
C413 H397 0.930 . S
C413 C412 1.377 . S
C413 C414 1.379 . S
C414 H398 0.931 . S
C414 C408 1.383 . S
C414 C413 1.379 . S
H415 C409 0.959 . S
H416 C409 0.961 . S
H417 C409 0.960 . S
H418 C410 0.930 . S
H419 C411 0.929 . S
H420 C428 0.929 . S
H421 C430 0.930 . S
H422 C432 0.930 . S
H423 C435 0.929 . S
H424 C438 0.930 . S
H425 C440 0.960 . S
H426 C440 0.960 . S
H427 C440 0.960 . S
C428 H420 0.929 . S
C428 C429 1.377 . S
C428 C430 1.384 . S
C429 C428 1.377 . S
C429 C435 1.390 . S
C430 H421 0.930 . S
C430 C428 1.384 . S
C430 C431 1.372 . S
C431 C430 1.372 . S
C431 C432 1.400 . S
C431 C436 1.490 . S
C432 H422 0.930 . S
C432 C431 1.400 . S
C432 C435 1.386 . S
H433 C449 0.930 . S
H434 C450 0.931 . S
C435 H423 0.929 . S
C435 C429 1.390 . S
C435 C432 1.386 . S
C436 C431 1.490 . S
C436 C438 1.395 . S
C436 C439 1.403 . S
H437 C443 0.930 . S
C438 H424 0.930 . S
C438 C436 1.395 . S
C438 C441 1.403 . S
C439 C436 1.403 . S
C439 C440 1.524 . S
C439 C443 1.400 . S
C440 H425 0.960 . S
C440 H426 0.960 . S
C440 H427 0.960 . S
C440 C439 1.524 . S
C441 C438 1.403 . S
C441 C442 1.392 . S
C441 C445 1.495 . S
C442 C441 1.392 . S
C442 C443 1.385 . S
C442 C444 1.478 . S
C443 H437 0.930 . S
C443 C439 1.400 . S
C443 C442 1.385 . S
C444 C442 1.478 . S
C444 C446 1.381 . S
C444 C450 1.383 . S
C445 C441 1.495 . S
C445 H451 0.959 . S
C445 H452 0.961 . S
C445 H453 0.960 . S
C446 C444 1.381 . S
C446 C447 1.394 . S
C446 H454 0.930 . S
C447 C446 1.394 . S
C447 C448 1.383 . S
C447 H455 0.929 . S
C448 C447 1.383 . S
C448 C449 1.377 . S
C449 H433 0.930 . S
C449 C448 1.377 . S
C449 C450 1.379 . S
C450 H434 0.931 . S
C450 C444 1.383 . S
C450 C449 1.379 . S
H451 C445 0.959 . S
H452 C445 0.961 . S
H453 C445 0.960 . S
H454 C446 0.930 . S
H455 C447 0.929 . S
H456 C464 0.929 . S
H457 C466 0.930 . S
H458 C468 0.930 . S
H459 C471 0.929 . S
H460 C474 0.930 . S
H461 C476 0.960 . S
H462 C476 0.960 . S
H463 C476 0.960 . S
C464 H456 0.929 . S
C464 C465 1.377 . S
C464 C466 1.384 . S
C465 C464 1.377 . S
C465 C471 1.390 . S
C466 H457 0.930 . S
C466 C464 1.384 . S
C466 C467 1.372 . S
C467 C466 1.372 . S
C467 C468 1.400 . S
C467 C472 1.490 . S
C468 H458 0.930 . S
C468 C467 1.400 . S
C468 C471 1.386 . S
H469 C485 0.930 . S
H470 C486 0.931 . S
C471 H459 0.929 . S
C471 C465 1.390 . S
C471 C468 1.386 . S
C472 C467 1.490 . S
C472 C474 1.395 . S
C472 C475 1.403 . S
H473 C479 0.930 . S
C474 H460 0.930 . S
C474 C472 1.395 . S
C474 C477 1.403 . S
C475 C472 1.403 . S
C475 C476 1.524 . S
C475 C479 1.400 . S
C476 H461 0.960 . S
C476 H462 0.960 . S
C476 H463 0.960 . S
C476 C475 1.524 . S
C477 C474 1.403 . S
C477 C478 1.392 . S
C477 C481 1.495 . S
C478 C477 1.392 . S
C478 C479 1.385 . S
C478 C480 1.478 . S
C479 H473 0.930 . S
C479 C475 1.400 . S
C479 C478 1.385 . S
C480 C478 1.478 . S
C480 C482 1.381 . S
C480 C486 1.383 . S
C481 C477 1.495 . S
C481 H487 0.959 . S
C481 H488 0.961 . S
C481 H489 0.960 . S
C482 C480 1.381 . S
C482 C483 1.394 . S
C482 H490 0.930 . S
C483 C482 1.394 . S
C483 C484 1.383 . S
C483 H491 0.929 . S
C484 C483 1.383 . S
C484 C485 1.377 . S
C485 H469 0.930 . S
C485 C484 1.377 . S
C485 C486 1.379 . S
C486 H470 0.931 . S
C486 C480 1.383 . S
C486 C485 1.379 . S
H487 C481 0.959 . S
H488 C481 0.961 . S
H489 C481 0.960 . S
H490 C482 0.930 . S
H491 C483 0.929 . S
H492 C500 0.929 . S
H493 C502 0.930 . S
H494 C504 0.930 . S
H495 C507 0.929 . S
H496 C510 0.930 . S
H497 C512 0.960 . S
H498 C512 0.960 . S
H499 C512 0.960 . S
C500 H492 0.929 . S
C500 C501 1.377 . S
C500 C502 1.384 . S
C501 C500 1.377 . S
C501 C507 1.390 . S
C502 H493 0.930 . S
C502 C500 1.384 . S
C502 C503 1.372 . S
C503 C502 1.372 . S
C503 C504 1.400 . S
C503 C508 1.490 . S
C504 H494 0.930 . S
C504 C503 1.400 . S
C504 C507 1.386 . S
H505 C521 0.930 . S
H506 C522 0.931 . S
C507 H495 0.929 . S
C507 C501 1.390 . S
C507 C504 1.386 . S
C508 C503 1.490 . S
C508 C510 1.395 . S
C508 C511 1.403 1_556 S
H509 C515 0.930 . S
C510 H496 0.930 . S
C510 C508 1.395 . S
C510 C513 1.403 . S
C511 C508 1.403 1_554 S
C511 C512 1.524 . S
C511 C515 1.400 . S
C512 H497 0.960 . S
C512 H498 0.960 . S
C512 H499 0.960 . S
C512 C511 1.524 . S
C513 C510 1.403 . S
C513 C514 1.392 1_556 S
C513 C517 1.495 . S
C514 C513 1.392 1_554 S
C514 C515 1.385 . S
C514 C516 1.478 . S
C515 H509 0.930 . S
C515 C511 1.400 . S
C515 C514 1.385 . S
C516 C514 1.478 . S
C516 C518 1.381 . S
C516 C522 1.383 . S
C517 C513 1.495 . S
C517 H523 0.959 . S
C517 H524 0.961 . S
C517 H525 0.960 . S
C518 C516 1.381 . S
C518 C519 1.394 . S
C518 H526 0.961 . S
C519 C518 1.394 . S
C519 C520 1.383 . S
C519 H527 0.929 . S
C520 C519 1.383 . S
C520 C521 1.377 . S
C521 H505 0.930 . S
C521 C520 1.377 . S
C521 C522 1.379 . S
C522 H506 0.931 . S
C522 C516 1.383 . S
C522 C521 1.379 . S
H523 C517 0.959 . S
H524 C517 0.961 . S
H525 C517 0.960 . S
H526 C518 0.961 . S
H527 C519 0.929 . S
H528 C536 0.929 . S
H529 C538 0.930 . S
H530 C540 0.930 . S
H531 C543 0.929 . S
H532 C546 0.930 . S
H533 C548 0.960 . S
H534 C548 0.960 . S
H535 C548 0.960 . S
C536 H528 0.929 . S
C536 C537 1.377 . S
C536 C538 1.384 . S
C537 C536 1.377 . S
C537 C543 1.390 . S
C538 H529 0.930 . S
C538 C536 1.384 . S
C538 C539 1.372 . S
C539 C538 1.372 . S
C539 C540 1.400 . S
C539 C544 1.490 . S
C540 H530 0.930 . S
C540 C539 1.400 . S
C540 C543 1.386 . S
H541 C557 0.930 . S
H542 C558 0.931 . S
C543 H531 0.929 . S
C543 C537 1.390 . S
C543 C540 1.386 . S
C544 C539 1.490 . S
C544 C546 1.395 . S
C544 C547 1.403 . S
H545 C551 0.930 . S
C546 H532 0.930 . S
C546 C544 1.395 . S
C546 C549 1.403 . S
C547 C544 1.403 . S
C547 C548 1.524 . S
C547 C551 1.400 . S
C548 H533 0.960 . S
C548 H534 0.960 . S
C548 H535 0.960 . S
C548 C547 1.524 . S
C549 C546 1.403 . S
C549 C550 1.392 . S
C549 C553 1.495 . S
C550 C549 1.392 . S
C550 C551 1.385 . S
C550 C552 1.478 . S
C551 H545 0.930 . S
C551 C547 1.400 . S
C551 C550 1.385 . S
C552 C550 1.478 . S
C552 C554 1.381 . S
C552 C558 1.383 . S
C553 C549 1.495 . S
C553 H559 0.959 . S
C553 H560 0.961 . S
C553 H561 0.960 . S
C554 C552 1.381 . S
C554 C555 1.394 . S
C554 H562 0.930 . S
C555 C554 1.394 . S
C555 C556 1.383 . S
C555 H563 0.929 . S
C556 C555 1.383 . S
C556 C557 1.377 . S
C557 H541 0.930 . S
C557 C556 1.377 . S
C557 C558 1.379 . S
C558 H542 0.931 . S
C558 C552 1.383 . S
C558 C557 1.379 . S
H559 C553 0.959 . S
H560 C553 0.961 . S
H561 C553 0.960 . S
H562 C554 0.930 . S
H563 C555 0.929 . S
H564 C572 0.929 . S
H565 C574 0.930 . S
H566 C576 0.930 . S
H567 C579 0.929 . S
H568 C582 0.930 . S
H569 C584 0.960 . S
H570 C584 0.960 . S
H571 C584 0.960 . S
C572 H564 0.929 . S
C572 C573 1.377 . S
C572 C574 1.384 . S
C573 C572 1.377 . S
C573 C579 1.390 . S
C574 H565 0.930 . S
C574 C572 1.384 . S
C574 C575 1.372 . S
C575 C574 1.372 . S
C575 C576 1.400 . S
C575 C580 1.490 . S
C576 H566 0.930 . S
C576 C575 1.400 . S
C576 C579 1.386 . S
H577 C593 0.930 . S
H578 C594 0.931 . S
C579 H567 0.929 . S
C579 C573 1.390 . S
C579 C576 1.386 . S
C580 C575 1.490 . S
C580 C582 1.395 . S
C580 C583 1.403 . S
H581 C587 0.930 . S
C582 H568 0.930 . S
C582 C580 1.395 . S
C582 C585 1.403 . S
C583 C580 1.403 . S
C583 C584 1.524 . S
C583 C587 1.400 . S
C584 H569 0.960 . S
C584 H570 0.960 . S
C584 H571 0.960 . S
C584 C583 1.524 . S
C585 C582 1.403 . S
C585 C586 1.392 . S
C585 C589 1.495 . S
C586 C585 1.392 . S
C586 C587 1.385 . S
C586 C588 1.478 . S
C587 H581 0.930 . S
C587 C583 1.400 . S
C587 C586 1.385 . S
C588 C586 1.478 . S
C588 C590 1.381 . S
C588 C594 1.383 . S
C589 C585 1.495 . S
C589 H595 0.959 . S
C589 H596 0.961 . S
C589 H597 0.960 . S
C590 C588 1.381 . S
C590 C591 1.394 . S
C590 H598 0.930 . S
C591 C590 1.394 . S
C591 C592 1.383 . S
C591 H599 0.929 . S
C592 C591 1.383 . S
C592 C593 1.377 . S
C593 H577 0.930 . S
C593 C592 1.377 . S
C593 C594 1.379 . S
C594 H578 0.931 . S
C594 C588 1.383 . S
C594 C593 1.379 . S
H595 C589 0.959 . S
H596 C589 0.961 . S
H597 C589 0.960 . S
H598 C590 0.930 . S
H599 C591 0.929 . S
H600 C608 0.929 . S
H601 C610 0.930 . S
H602 C612 0.930 . S
H603 C615 0.929 . S
H604 C618 0.930 . S
H605 C620 0.960 . S
H606 C620 0.960 . S
H607 C620 0.960 . S
C608 H600 0.929 . S
C608 C609 1.377 . S
C608 C610 1.384 . S
C609 C608 1.377 . S
C609 C615 1.390 . S
C610 H601 0.930 . S
C610 C608 1.384 . S
C610 C611 1.372 . S
C611 C610 1.372 . S
C611 C612 1.400 . S
C611 C616 1.490 . S
C612 H602 0.930 . S
C612 C611 1.400 . S
C612 C615 1.386 . S
H613 C629 0.930 . S
H614 C630 0.931 . S
C615 H603 0.929 . S
C615 C609 1.390 . S
C615 C612 1.386 . S
C616 C611 1.490 . S
C616 C618 1.395 . S
C616 C619 1.403 . S
H617 C623 0.930 . S
C618 H604 0.930 . S
C618 C616 1.395 . S
C618 C621 1.403 . S
C619 C616 1.403 . S
C619 C620 1.524 . S
C619 C623 1.400 . S
C620 H605 0.960 . S
C620 H606 0.960 . S
C620 H607 0.960 . S
C620 C619 1.524 . S
C621 C618 1.403 . S
C621 C622 1.392 . S
C621 C625 1.495 . S
C622 C621 1.392 . S
C622 C623 1.385 . S
C622 C624 1.478 . S
C623 H617 0.930 . S
C623 C619 1.400 . S
C623 C622 1.385 . S
C624 C622 1.478 . S
C624 C626 1.381 . S
C624 C630 1.383 . S
C625 C621 1.495 . S
C625 H631 0.959 . S
C625 H632 0.961 . S
C625 H633 0.960 . S
C626 C624 1.381 . S
C626 C627 1.394 . S
C626 H634 0.930 . S
C627 C626 1.394 . S
C627 C628 1.383 . S
C627 H635 0.929 . S
C628 C627 1.383 . S
C628 C629 1.377 . S
C629 H613 0.930 . S
C629 C628 1.377 . S
C629 C630 1.379 . S
C630 H614 0.931 . S
C630 C624 1.383 . S
C630 C629 1.379 . S
H631 C625 0.959 . S
H632 C625 0.961 . S
H633 C625 0.960 . S
H634 C626 0.930 . S
H635 C627 0.929 . S
H636 C644 0.929 . S
H637 C646 0.930 . S
H638 C648 0.930 . S
H639 C651 0.929 . S
H640 C654 0.930 . S
H641 C656 0.960 . S
H642 C656 0.960 . S
H643 C656 0.960 . S
C644 H636 0.929 . S
C644 C645 1.377 . S
C644 C646 1.384 . S
C645 C644 1.377 . S
C645 C651 1.390 . S
C646 H637 0.930 . S
C646 C644 1.384 . S
C646 C647 1.372 . S
C647 C646 1.372 . S
C647 C648 1.400 . S
C647 C652 1.490 . S
C648 H638 0.930 . S
C648 C647 1.400 . S
C648 C651 1.386 . S
H649 C665 0.930 . S
H650 C666 0.931 . S
C651 H639 0.929 . S
C651 C645 1.390 . S
C651 C648 1.386 . S
C652 C647 1.490 . S
C652 C654 1.395 . S
C652 C655 1.403 . S
H653 C659 0.930 . S
C654 H640 0.930 . S
C654 C652 1.395 . S
C654 C657 1.403 . S
C655 C652 1.403 . S
C655 C656 1.524 . S
C655 C659 1.400 . S
C656 H641 0.960 . S
C656 H642 0.960 . S
C656 H643 0.960 . S
C656 C655 1.524 . S
C657 C654 1.403 . S
C657 C658 1.392 . S
C657 C661 1.495 . S
C658 C657 1.392 . S
C658 C659 1.385 . S
C658 C660 1.478 . S
C659 H653 0.930 . S
C659 C655 1.400 . S
C659 C658 1.385 . S
C660 C658 1.478 . S
C660 C662 1.381 . S
C660 C666 1.383 . S
C661 C657 1.495 . S
C661 H667 0.959 . S
C661 H668 0.961 . S
C661 H669 0.960 . S
C662 C660 1.381 . S
C662 C663 1.394 . S
C662 H670 0.930 . S
C663 C662 1.394 . S
C663 C664 1.383 . S
C663 H671 0.929 . S
C664 C663 1.383 . S
C664 C665 1.377 . S
C665 H649 0.930 . S
C665 C664 1.377 . S
C665 C666 1.379 . S
C666 H650 0.931 . S
C666 C660 1.383 . S
C666 C665 1.379 . S
H667 C661 0.959 . S
H668 C661 0.961 . S
H669 C661 0.960 . S
H670 C662 0.930 . S
H671 C663 0.929 . S
H672 C680 0.929 . S
H673 C682 0.930 . S
H674 C684 0.930 . S
H675 C687 0.929 . S
H676 C690 0.930 . S
H677 C692 0.960 . S
H678 C692 0.960 . S
H679 C692 0.960 . S
C680 H672 0.929 . S
C680 C681 1.377 . S
C680 C682 1.384 . S
C681 C680 1.377 . S
C681 C687 1.390 . S
C682 H673 0.930 . S
C682 C680 1.384 . S
C682 C683 1.372 . S
C683 C682 1.372 . S
C683 C684 1.400 . S
C683 C688 1.490 . S
C684 H674 0.930 . S
C684 C683 1.400 . S
C684 C687 1.386 . S
H685 C701 0.930 . S
H686 C702 0.931 . S
C687 H675 0.929 . S
C687 C681 1.390 . S
C687 C684 1.386 . S
C688 C683 1.490 . S
C688 C690 1.395 . S
C688 C691 1.403 . S
H689 C695 0.930 . S
C690 H676 0.930 . S
C690 C688 1.395 . S
C690 C693 1.403 . S
C691 C688 1.403 . S
C691 C692 1.524 . S
C691 C695 1.400 . S
C692 H677 0.960 . S
C692 H678 0.960 . S
C692 H679 0.960 . S
C692 C691 1.524 . S
C693 C690 1.403 . S
C693 C694 1.392 . S
C693 C697 1.495 . S
C694 C693 1.392 . S
C694 C695 1.385 . S
C694 C696 1.478 . S
C695 H689 0.930 . S
C695 C691 1.400 . S
C695 C694 1.385 . S
C696 C694 1.478 . S
C696 C698 1.381 . S
C696 C702 1.383 . S
C697 C693 1.495 . S
C697 H703 0.959 . S
C697 H704 0.961 . S
C697 H705 0.960 . S
C698 C696 1.381 . S
C698 C699 1.394 . S
C698 H706 0.930 . S
C699 C698 1.394 . S
C699 C700 1.383 . S
C699 H707 0.929 . S
C700 C699 1.383 . S
C700 C701 1.377 . S
C701 H685 0.930 . S
C701 C700 1.377 . S
C701 C702 1.379 . S
C702 H686 0.931 . S
C702 C696 1.383 . S
C702 C701 1.379 . S
H703 C697 0.959 . S
H704 C697 0.961 . S
H705 C697 0.960 . S
H706 C698 0.930 . S
H707 C699 0.929 . S
H708 C716 0.929 . S
H709 C718 0.930 . S
H710 C720 0.930 . S
H711 C723 0.929 . S
H712 C726 0.930 . S
H713 C728 0.960 . S
H714 C728 0.960 . S
H715 C728 0.960 . S
C716 H708 0.929 . S
C716 C717 1.377 . S
C716 C718 1.384 . S
C717 C716 1.377 . S
C717 C723 1.390 . S
C718 H709 0.930 . S
C718 C716 1.384 . S
C718 C719 1.372 . S
C719 C718 1.372 . S
C719 C720 1.400 . S
C719 C724 1.490 . S
C720 H710 0.930 . S
C720 C719 1.400 . S
C720 C723 1.386 . S
H721 C737 0.930 . S
H722 C738 0.931 . S
C723 H711 0.929 . S
C723 C717 1.390 . S
C723 C720 1.386 . S
C724 C719 1.490 . S
C724 C726 1.395 . S
C724 C727 1.403 . S
H725 C731 0.930 . S
C726 H712 0.930 . S
C726 C724 1.395 . S
C726 C729 1.403 . S
C727 C724 1.403 . S
C727 C728 1.524 . S
C727 C731 1.400 . S
C728 H713 0.960 . S
C728 H714 0.960 . S
C728 H715 0.960 . S
C728 C727 1.524 . S
C729 C726 1.403 . S
C729 C730 1.392 . S
C729 C733 1.495 . S
C730 C729 1.392 . S
C730 C731 1.385 . S
C730 C732 1.478 . S
C731 H725 0.930 . S
C731 C727 1.400 . S
C731 C730 1.385 . S
C732 C730 1.478 . S
C732 C734 1.381 . S
C732 C738 1.383 . S
C733 C729 1.495 . S
C733 H739 0.959 . S
C733 H740 0.961 . S
C733 H741 0.960 . S
C734 C732 1.381 . S
C734 C735 1.394 . S
C734 H742 0.930 . S
C735 C734 1.394 . S
C735 C736 1.383 . S
C735 H743 0.929 . S
C736 C735 1.383 . S
C736 C737 1.377 . S
C737 H721 0.930 . S
C737 C736 1.377 . S
C737 C738 1.379 . S
C738 H722 0.931 . S
C738 C732 1.383 . S
C738 C737 1.379 . S
H739 C733 0.959 . S
H740 C733 0.961 . S
H741 C733 0.960 . S
H742 C734 0.930 . S
H743 C735 0.929 . S
H744 C752 0.929 . S
H745 C754 0.930 . S
H746 C756 0.930 . S
H747 C759 0.929 . S
H748 C762 0.930 . S
H749 C764 0.960 . S
H750 C764 0.960 . S
H751 C764 0.960 . S
C752 H744 0.929 . S
C752 C753 1.377 . S
C752 C754 1.384 . S
C753 C752 1.377 . S
C753 C759 1.390 . S
C754 H745 0.930 . S
C754 C752 1.384 . S
C754 C755 1.372 . S
C755 C754 1.372 . S
C755 C756 1.400 . S
C755 C760 1.490 . S
C756 H746 0.930 . S
C756 C755 1.400 . S
C756 C759 1.386 . S
H757 C773 0.930 . S
H758 C774 0.931 . S
C759 H747 0.929 . S
C759 C753 1.390 . S
C759 C756 1.386 . S
C760 C755 1.490 . S
C760 C762 1.395 . S
C760 C763 1.403 . S
H761 C767 0.930 . S
C762 H748 0.930 . S
C762 C760 1.395 . S
C762 C765 1.403 . S
C763 C760 1.403 . S
C763 C764 1.524 . S
C763 C767 1.400 . S
C764 H749 0.960 . S
C764 H750 0.960 . S
C764 H751 0.960 . S
C764 C763 1.524 . S
C765 C762 1.403 . S
C765 C766 1.392 . S
C765 C769 1.495 . S
C766 C765 1.392 . S
C766 C767 1.385 . S
C766 C768 1.478 . S
C767 H761 0.930 . S
C767 C763 1.400 . S
C767 C766 1.385 . S
C768 C766 1.478 . S
C768 C770 1.381 . S
C768 C774 1.383 . S
C769 C765 1.495 . S
C769 H775 0.959 . S
C769 H776 0.961 . S
C769 H777 0.960 . S
C770 C768 1.381 . S
C770 C771 1.394 . S
C770 H778 0.930 . S
C771 C770 1.394 . S
C771 C772 1.383 . S
C771 H779 0.929 . S
C772 C771 1.383 . S
C772 C773 1.377 . S
C773 H757 0.930 . S
C773 C772 1.377 . S
C773 C774 1.379 . S
C774 H758 0.931 . S
C774 C768 1.383 . S
C774 C773 1.379 . S
H775 C769 0.959 . S
H776 C769 0.961 . S
H777 C769 0.960 . S
H778 C770 0.930 . S
H779 C771 0.929 . S
H780 C788 0.929 . S
H781 C790 0.930 . S
H782 C792 0.930 . S
H783 C795 0.929 . S
H784 C798 0.930 . S
H785 C800 0.960 . S
H786 C800 0.960 . S
H787 C800 0.960 . S
C788 H780 0.929 . S
C788 C789 1.377 . S
C788 C790 1.384 . S
C789 C788 1.377 . S
C789 C795 1.390 . S
C790 H781 0.930 . S
C790 C788 1.384 . S
C790 C791 1.372 . S
C791 C790 1.372 . S
C791 C792 1.400 . S
C791 C796 1.490 . S
C792 H782 0.930 . S
C792 C791 1.400 . S
C792 C795 1.386 . S
H793 C809 0.930 . S
H794 C810 0.931 . S
C795 H783 0.929 . S
C795 C789 1.390 . S
C795 C792 1.386 . S
C796 C791 1.490 . S
C796 C798 1.395 . S
C796 C799 1.403 . S
H797 C803 0.930 . S
C798 H784 0.930 . S
C798 C796 1.395 . S
C798 C801 1.403 . S
C799 C796 1.403 . S
C799 C800 1.524 . S
C799 C803 1.400 . S
C800 H785 0.960 . S
C800 H786 0.960 . S
C800 H787 0.960 . S
C800 C799 1.524 . S
C801 C798 1.403 . S
C801 C802 1.392 . S
C801 C805 1.495 . S
C802 C801 1.392 . S
C802 C803 1.385 . S
C802 C804 1.478 . S
C803 H797 0.930 . S
C803 C799 1.400 . S
C803 C802 1.385 . S
C804 C802 1.478 . S
C804 C806 1.381 . S
C804 C810 1.383 . S
C805 C801 1.495 . S
C805 H811 0.959 . S
C805 H812 0.961 . S
C805 H813 0.960 . S
C806 C804 1.381 . S
C806 C807 1.394 . S
C806 H814 0.930 . S
C807 C806 1.394 . S
C807 C808 1.383 . S
C807 H815 0.929 . S
C808 C807 1.383 . S
C808 C809 1.377 . S
C809 H793 0.930 . S
C809 C808 1.377 . S
C809 C810 1.379 . S
C810 H794 0.931 . S
C810 C804 1.383 . S
C810 C809 1.379 . S
H811 C805 0.959 . S
H812 C805 0.961 . S
H813 C805 0.960 . S
H814 C806 0.930 . S
H815 C807 0.929 . S
H816 C824 0.929 . S
H817 C826 0.930 . S
H818 C828 0.930 . S
H819 C831 0.929 . S
H820 C834 0.930 . S
H821 C836 0.960 . S
H822 C836 0.960 . S
H823 C836 0.960 . S
C824 H816 0.929 . S
C824 C825 1.377 . S
C824 C826 1.384 . S
C825 C824 1.377 . S
C825 C831 1.390 . S
C826 H817 0.930 . S
C826 C824 1.384 . S
C826 C827 1.372 . S
C827 C826 1.372 . S
C827 C828 1.400 . S
C827 C832 1.490 . S
C828 H818 0.930 . S
C828 C827 1.400 . S
C828 C831 1.386 . S
H829 C845 0.930 . S
H830 C846 0.931 . S
C831 H819 0.929 . S
C831 C825 1.390 . S
C831 C828 1.386 . S
C832 C827 1.490 . S
C832 C834 1.395 . S
C832 C835 1.403 . S
H833 C839 0.930 . S
C834 H820 0.930 . S
C834 C832 1.395 . S
C834 C837 1.403 . S
C835 C832 1.403 . S
C835 C836 1.524 . S
C835 C839 1.400 . S
C836 H821 0.960 . S
C836 H822 0.960 . S
C836 H823 0.960 . S
C836 C835 1.524 . S
C837 C834 1.403 . S
C837 C838 1.392 . S
C837 C841 1.495 . S
C838 C837 1.392 . S
C838 C839 1.385 . S
C838 C840 1.478 . S
C839 H833 0.930 . S
C839 C835 1.400 . S
C839 C838 1.385 . S
C840 C838 1.478 . S
C840 C842 1.381 . S
C840 C846 1.383 . S
C841 C837 1.495 . S
C841 H847 0.959 . S
C841 H848 0.961 . S
C841 H849 0.960 . S
C842 C840 1.381 . S
C842 C843 1.394 . S
C842 H850 0.930 . S
C843 C842 1.394 . S
C843 C844 1.383 . S
C843 H851 0.929 . S
C844 C843 1.383 . S
C844 C845 1.377 . S
C845 H829 0.930 . S
C845 C844 1.377 . S
C845 C846 1.379 . S
C846 H830 0.931 . S
C846 C840 1.383 . S
C846 C845 1.379 . S
H847 C841 0.959 . S
H848 C841 0.961 . S
H849 C841 0.960 . S
H850 C842 0.930 . S
H851 C843 0.929 . S
H852 C860 0.929 . S
H853 C862 0.930 . S
H854 C864 0.930 . S
H855 C867 0.929 . S
H856 C870 0.930 . S
H857 C872 0.960 . S
H858 C872 0.960 . S
H859 C872 0.960 . S
C860 H852 0.929 . S
C860 C861 1.377 . S
C860 C862 1.384 . S
C861 C860 1.377 . S
C861 C867 1.390 . S
C862 H853 0.930 . S
C862 C860 1.384 . S
C862 C863 1.372 . S
C863 C862 1.372 . S
C863 C864 1.400 . S
C863 C868 1.490 . S
C864 H854 0.930 . S
C864 C863 1.400 . S
C864 C867 1.386 . S
H865 C881 0.930 . S
H866 C882 0.931 . S
C867 H855 0.929 . S
C867 C861 1.390 . S
C867 C864 1.386 . S
C868 C863 1.490 . S
C868 C870 1.395 1_655 S
C868 C871 1.403 . S
H869 C875 0.930 . S
C870 H856 0.930 . S
C870 C868 1.395 1_455 S
C870 C873 1.403 . S
C871 C868 1.403 . S
C871 C872 1.524 . S
C871 C875 1.400 . S
C872 H857 0.960 . S
C872 H858 0.960 . S
C872 H859 0.960 . S
C872 C871 1.524 . S
C873 C870 1.403 . S
C873 C874 1.392 . S
C873 C877 1.495 . S
C874 C873 1.392 . S
C874 C875 1.385 1_455 S
C874 C876 1.478 . S
C875 H869 0.930 . S
C875 C871 1.400 . S
C875 C874 1.385 1_655 S
C876 C874 1.478 . S
C876 C878 1.381 . S
C876 C882 1.383 . S
C877 C873 1.495 . S
C877 H883 0.959 . S
C877 H884 0.961 . S
C877 H885 0.960 . S
C878 C876 1.381 . S
C878 C879 1.394 . S
C878 H886 0.930 . S
C879 C878 1.394 . S
C879 C880 1.383 . S
C879 H887 0.929 . S
C880 C879 1.383 . S
C880 C881 1.377 . S
C881 H865 0.930 . S
C881 C880 1.377 . S
C881 C882 1.379 . S
C882 H866 0.931 . S
C882 C876 1.383 . S
C882 C881 1.379 . S
H883 C877 0.959 . S
H884 C877 0.961 . S
H885 C877 0.960 . S
H886 C878 0.930 . S
H887 C879 0.929 . S
H888 C896 0.929 . S
H889 C898 0.930 . S
H890 C900 0.930 . S
H891 C903 0.929 . S
H892 C906 0.930 . S
H893 C908 0.960 . S
H894 C908 0.960 . S
H895 C908 0.960 . S
C896 H888 0.929 . S
C896 C897 1.377 . S
C896 C898 1.384 . S
C897 C896 1.377 . S
C897 C903 1.390 . S
C898 H889 0.930 . S
C898 C896 1.384 . S
C898 C899 1.372 . S
C899 C898 1.372 . S
C899 C900 1.400 . S
C899 C904 1.490 . S
C900 H890 0.930 . S
C900 C899 1.400 . S
C900 C903 1.386 . S
H901 C917 0.930 . S
H902 C918 0.931 . S
C903 H891 0.929 . S
C903 C897 1.390 . S
C903 C900 1.386 . S
C904 C899 1.490 . S
C904 C906 1.395 . S
C904 C907 1.403 1_545 S
H905 C911 0.930 . S
C906 H892 0.930 . S
C906 C904 1.395 . S
C906 C909 1.403 . S
C907 C904 1.403 1_565 S
C907 C908 1.524 . S
C907 C911 1.400 . S
C908 H893 0.960 . S
C908 H894 0.960 . S
C908 H895 0.960 . S
C908 C907 1.524 . S
C909 C906 1.403 . S
C909 C910 1.392 1_545 S
C909 C913 1.495 . S
C910 C909 1.392 1_565 S
C910 C911 1.385 . S
C910 C912 1.478 . S
C911 H905 0.930 . S
C911 C907 1.400 . S
C911 C910 1.385 . S
C912 C910 1.478 . S
C912 C914 1.381 . S
C912 C918 1.383 . S
C913 C909 1.495 . S
C913 H919 0.959 . S
C913 H920 0.961 . S
C913 H921 0.960 . S
C914 C912 1.381 . S
C914 C915 1.394 . S
C914 H922 0.930 . S
C915 C914 1.394 . S
C915 C916 1.383 . S
C915 H923 0.929 . S
C916 C915 1.383 . S
C916 C917 1.377 . S
C917 H901 0.930 . S
C917 C916 1.377 . S
C917 C918 1.379 . S
C918 H902 0.931 . S
C918 C912 1.383 . S
C918 C917 1.379 . S
H919 C913 0.959 . S
H920 C913 0.961 . S
H921 C913 0.960 . S
H922 C914 0.930 . S
H923 C915 0.929 . S
H924 C932 0.929 . S
H925 C934 0.930 . S
H926 C936 0.930 . S
H927 C939 0.929 . S
H928 C942 0.930 . S
H929 C944 0.960 . S
H930 C944 0.960 . S
H931 C944 0.960 . S
C932 H924 0.929 . S
C932 C933 1.377 . S
C932 C934 1.384 . S
C933 C932 1.377 . S
C933 C939 1.390 . S
C934 H925 0.930 . S
C934 C932 1.384 . S
C934 C935 1.372 . S
C935 C934 1.372 . S
C935 C936 1.400 . S
C935 C940 1.490 . S
C936 H926 0.930 . S
C936 C935 1.400 . S
C936 C939 1.386 . S
H937 C953 0.930 . S
H938 C954 0.931 . S
C939 H927 0.929 . S
C939 C933 1.390 . S
C939 C936 1.386 . S
C940 C935 1.490 . S
C940 C942 1.395 . S
C940 C943 1.403 . S
H941 C947 0.930 . S
C942 H928 0.930 . S
C942 C940 1.395 . S
C942 C945 1.403 . S
C943 C940 1.403 . S
C943 C944 1.524 . S
C943 C947 1.400 . S
C944 H929 0.960 . S
C944 H930 0.960 . S
C944 H931 0.960 . S
C944 C943 1.524 . S
C945 C942 1.403 . S
C945 C946 1.392 . S
C945 C949 1.495 . S
C946 C945 1.392 . S
C946 C947 1.385 . S
C946 C948 1.478 . S
C947 H941 0.930 . S
C947 C943 1.400 . S
C947 C946 1.385 . S
C948 C946 1.478 . S
C948 C950 1.381 . S
C948 C954 1.383 . S
C949 C945 1.495 . S
C949 H955 0.959 . S
C949 H956 0.961 . S
C949 H957 0.960 . S
C950 C948 1.381 . S
C950 C951 1.394 . S
C950 H958 0.930 . S
C951 C950 1.394 . S
C951 C952 1.383 . S
C951 H959 0.929 . S
C952 C951 1.383 . S
C952 C953 1.377 . S
C953 H937 0.930 . S
C953 C952 1.377 . S
C953 C954 1.379 . S
C954 H938 0.931 . S
C954 C948 1.383 . S
C954 C953 1.379 . S
H955 C949 0.959 . S
H956 C949 0.961 . S
H957 C949 0.960 . S
H958 C950 0.930 . S
H959 C951 0.929 . S
H960 C968 0.929 . S
H961 C970 0.930 . S
H962 C972 0.930 . S
H963 C975 0.929 . S
H964 C978 0.930 . S
H965 C980 0.960 . S
H966 C980 0.960 . S
H967 C980 0.960 . S
C968 H960 0.929 . S
C968 C969 1.377 . S
C968 C970 1.384 . S
C969 C968 1.377 . S
C969 C975 1.390 . S
C970 H961 0.930 . S
C970 C968 1.384 . S
C970 C971 1.372 . S
C971 C970 1.372 . S
C971 C972 1.400 . S
C971 C976 1.490 . S
C972 H962 0.930 . S
C972 C971 1.400 . S
C972 C975 1.386 . S
H973 C989 0.930 . S
H974 C990 0.931 . S
C975 H963 0.929 . S
C975 C969 1.390 . S
C975 C972 1.386 . S
C976 C971 1.490 . S
C976 C978 1.395 1_455 S
C976 C979 1.403 . S
H977 C983 0.930 . S
C978 H964 0.930 . S
C978 C976 1.395 1_655 S
C978 C981 1.403 . S
C979 C976 1.403 . S
C979 C980 1.524 . S
C979 C983 1.400 . S
C980 H965 0.960 . S
C980 H966 0.960 . S
C980 H967 0.960 . S
C980 C979 1.524 . S
C981 C978 1.403 . S
C981 C982 1.392 . S
C981 C985 1.495 . S
C982 C981 1.392 . S
C982 C983 1.385 1_655 S
C982 C984 1.478 . S
C983 H977 0.930 . S
C983 C979 1.400 . S
C983 C982 1.385 1_455 S
C984 C982 1.478 . S
C984 C986 1.381 . S
C984 C990 1.383 . S
C985 C981 1.495 . S
C985 H991 0.959 . S
C985 H992 0.961 . S
C985 H993 0.960 . S
C986 C984 1.381 . S
C986 C987 1.394 . S
C986 H994 0.930 . S
C987 C986 1.394 . S
C987 C988 1.383 . S
C987 H995 0.929 . S
C988 C987 1.383 . S
C988 C989 1.377 . S
C989 H973 0.930 . S
C989 C988 1.377 . S
C989 C990 1.379 . S
C990 H974 0.931 . S
C990 C984 1.383 . S
C990 C989 1.379 . S
H991 C985 0.959 . S
H992 C985 0.961 . S
H993 C985 0.960 . S
H994 C986 0.930 . S
H995 C987 0.929 . S
H996 C1004 0.929 . S
H997 C1006 0.930 . S
H998 C1008 0.930 . S
H999 C1011 0.929 . S
H1000 C1014 0.930 . S
H1001 C1016 0.960 . S
H1002 C1016 0.960 . S
H1003 C1016 0.960 . S
C1004 H996 0.929 . S
C1004 C1005 1.377 . S
C1004 C1006 1.384 . S
C1005 C1004 1.377 . S
C1005 C1011 1.390 . S
C1006 H997 0.930 . S
C1006 C1004 1.384 . S
C1006 C1007 1.372 . S
C1007 C1006 1.372 . S
C1007 C1008 1.400 . S
C1007 C1012 1.490 . S
C1008 H998 0.930 . S
C1008 C1007 1.400 . S
C1008 C1011 1.386 . S
H1009 C1025 0.930 . S
H1010 C1026 0.931 . S
C1011 H999 0.929 . S
C1011 C1005 1.390 . S
C1011 C1008 1.386 . S
C1012 C1007 1.490 . S
C1012 C1014 1.395 . S
C1012 C1015 1.403 1_565 S
H1013 C1019 0.930 . S
C1014 H1000 0.930 . S
C1014 C1012 1.395 . S
C1014 C1017 1.403 . S
C1015 C1012 1.403 1_545 S
C1015 C1016 1.524 . S
C1015 C1019 1.400 . S
C1016 H1001 0.960 . S
C1016 H1002 0.960 . S
C1016 H1003 0.960 . S
C1016 C1015 1.524 . S
C1017 C1014 1.403 . S
C1017 C1018 1.392 1_565 S
C1017 C1021 1.495 . S
C1018 C1017 1.392 1_545 S
C1018 C1019 1.385 . S
C1018 C1020 1.478 . S
C1019 H1013 0.930 . S
C1019 C1015 1.400 . S
C1019 C1018 1.385 . S
C1020 C1018 1.478 . S
C1020 C1022 1.381 . S
C1020 C1026 1.383 . S
C1021 C1017 1.495 . S
C1021 H1027 0.959 . S
C1021 H1028 0.961 . S
C1021 H1029 0.960 . S
C1022 C1020 1.381 . S
C1022 C1023 1.394 . S
C1022 H1030 0.930 . S
C1023 C1022 1.394 . S
C1023 C1024 1.383 . S
C1023 H1031 0.929 . S
C1024 C1023 1.383 . S
C1024 C1025 1.377 . S
C1025 H1009 0.930 . S
C1025 C1024 1.377 . S
C1025 C1026 1.379 . S
C1026 H1010 0.931 . S
C1026 C1020 1.383 . S
C1026 C1025 1.379 . S
H1027 C1021 0.959 . S
H1028 C1021 0.961 . S
H1029 C1021 0.960 . S
H1030 C1022 0.930 . S
H1031 C1023 0.929 . S
C177 C103 0.993 . S
C196 C5 1.041 . S
C213 C19 0.985 . S
C232 C117 0.931 . S
C249 C33 0.979 . S
C268 C131 0.971 . S
C285 C47 0.981 . S
C304 C145 0.987 . S
C321 C159 0.988 . S
C340 C61 0.937 . S
C357 C89 1.000 . S
C376 C75 0.995 . S
C393 C144 1.230 . S
C412 C4 1.212 . S
C429 C18 1.229 . S
C448 C158 1.222 . S
C465 C32 1.226 . S
C484 C88 1.229 . S
C501 C102 1.224 . S
C520 C46 1.241 . S
C537 C116 1.227 . S
C556 C60 1.227 . S
C573 C130 1.231 . S
C592 C74 1.205 . S
C609 C11 1.602 . S
C628 C123 1.617 . S
C645 C25 1.603 . S
C664 C137 1.614 . S
C681 C151 1.602 . S
C700 C39 1.618 . S
C717 C53 1.605 . S
C736 C165 1.608 . S
C753 C95 1.607 . S
C772 C67 1.594 . S
C789 C109 1.605 . S
C808 C81 1.604 . S
C825 C54 1.038 . S
C844 C12 1.068 . S
C861 C68 1.041 . S
C880 C26 1.016 . S
C897 C40 1.043 . S
C916 C82 1.067 . S
C933 C96 1.043 . S
C952 C138 1.010 . S
C969 C110 1.048 . S
C988 C152 1.014 . S
C1005 C166 1.046 . S
C1024 C124 1.060 . S
