# Generated by pormake.
# Topology lcy-a, (4)-cn, num edge types: 1
# Building blocks:
#     Node 0, Type 0, BuildingBlock: UXUYUI_clean_sbu_0, # of connection points: 4
#     Node 1, Type 0, BuildingBlock: UXUYUI_clean_sbu_0, # of connection points: 4
#     Node 2, Type 0, BuildingBlock: UXUYUI_clean_sbu_0, # of connection points: 4
#     Node 3, Type 0, BuildingBlock: UXUYUI_clean_sbu_0, # of connection points: 4
#     Node 4, Type 0, BuildingBlock: UXUYUI_clean_sbu_0, # of connection points: 4
#     Node 5, Type 0, BuildingBlock: UXUYUI_clean_sbu_0, # of connection points: 4
#     Node 6, Type 0, BuildingBlock: UXUYUI_clean_sbu_0, # of connection points: 4
#     Node 7, Type 0, BuildingBlock: UXUYUI_clean_sbu_0, # of connection points: 4
#     Node 8, Type 0, BuildingBlock: UXUYUI_clean_sbu_0, # of connection points: 4
#     Node 9, Type 0, BuildingBlock: UXUYUI_clean_sbu_0, # of connection points: 4
#     Node 10, Type 0, BuildingBlock: UXUYUI_clean_sbu_0, # of connection points: 4
#     Node 11, Type 0, BuildingBlock: UXUYUI_clean_sbu_0, # of connection points: 4
#     Node 12, Type 0, BuildingBlock: UXUYUI_clean_sbu_0, # of connection points: 4
#     Node 13, Type 0, BuildingBlock: UXUYUI_clean_sbu_0, # of connection points: 4
#     Node 14, Type 0, BuildingBlock: UXUYUI_clean_sbu_0, # of connection points: 4
#     Node 15, Type 0, BuildingBlock: UXUYUI_clean_sbu_0, # of connection points: 4
#     Node 16, Type 0, BuildingBlock: UXUYUI_clean_sbu_0, # of connection points: 4
#     Node 17, Type 0, BuildingBlock: UXUYUI_clean_sbu_0, # of connection points: 4
#     Node 18, Type 0, BuildingBlock: UXUYUI_clean_sbu_0, # of connection points: 4
#     Node 19, Type 0, BuildingBlock: UXUYUI_clean_sbu_0, # of connection points: 4
#     Node 20, Type 0, BuildingBlock: UXUYUI_clean_sbu_0, # of connection points: 4
#     Node 21, Type 0, BuildingBlock: UXUYUI_clean_sbu_0, # of connection points: 4
#     Node 22, Type 0, BuildingBlock: UXUYUI_clean_sbu_0, # of connection points: 4
#     Node 23, Type 0, BuildingBlock: UXUYUI_clean_sbu_0, # of connection points: 4
#     Edge 24, Type (0, 0), BuildingBlock: UVAHIK_clean_linker_0, # of connection points: 2
#     Edge 25, Type (0, 0), BuildingBlock: UVAHIK_clean_linker_0, # of connection points: 2
#     Edge 26, Type (0, 0), BuildingBlock: UVAHIK_clean_linker_0, # of connection points: 2
#     Edge 27, Type (0, 0), BuildingBlock: UVAHIK_clean_linker_0, # of connection points: 2
#     Edge 28, Type (0, 0), BuildingBlock: UVAHIK_clean_linker_0, # of connection points: 2
#     Edge 29, Type (0, 0), BuildingBlock: UVAHIK_clean_linker_0, # of connection points: 2
#     Edge 30, Type (0, 0), BuildingBlock: UVAHIK_clean_linker_0, # of connection points: 2
#     Edge 31, Type (0, 0), BuildingBlock: UVAHIK_clean_linker_0, # of connection points: 2
#     Edge 32, Type (0, 0), BuildingBlock: UVAHIK_clean_linker_0, # of connection points: 2
#     Edge 33, Type (0, 0), BuildingBlock: UVAHIK_clean_linker_0, # of connection points: 2
#     Edge 34, Type (0, 0), BuildingBlock: UVAHIK_clean_linker_0, # of connection points: 2
#     Edge 35, Type (0, 0), BuildingBlock: UVAHIK_clean_linker_0, # of connection points: 2
#     Edge 36, Type (0, 0), BuildingBlock: UVAHIK_clean_linker_0, # of connection points: 2
#     Edge 37, Type (0, 0), BuildingBlock: UVAHIK_clean_linker_0, # of connection points: 2
#     Edge 38, Type (0, 0), BuildingBlock: UVAHIK_clean_linker_0, # of connection points: 2
#     Edge 39, Type (0, 0), BuildingBlock: UVAHIK_clean_linker_0, # of connection points: 2
#     Edge 40, Type (0, 0), BuildingBlock: UVAHIK_clean_linker_0, # of connection points: 2
#     Edge 41, Type (0, 0), BuildingBlock: UVAHIK_clean_linker_0, # of connection points: 2
#     Edge 42, Type (0, 0), BuildingBlock: UVAHIK_clean_linker_0, # of connection points: 2
#     Edge 43, Type (0, 0), BuildingBlock: UVAHIK_clean_linker_0, # of connection points: 2
#     Edge 44, Type (0, 0), BuildingBlock: UVAHIK_clean_linker_0, # of connection points: 2
#     Edge 45, Type (0, 0), BuildingBlock: UVAHIK_clean_linker_0, # of connection points: 2
#     Edge 46, Type (0, 0), BuildingBlock: UVAHIK_clean_linker_0, # of connection points: 2
#     Edge 47, Type (0, 0), BuildingBlock: UVAHIK_clean_linker_0, # of connection points: 2
#     Edge 48, Type (0, 0), BuildingBlock: UVAHIK_clean_linker_0, # of connection points: 2
#     Edge 49, Type (0, 0), BuildingBlock: UVAHIK_clean_linker_0, # of connection points: 2
#     Edge 50, Type (0, 0), BuildingBlock: UVAHIK_clean_linker_0, # of connection points: 2
#     Edge 51, Type (0, 0), BuildingBlock: UVAHIK_clean_linker_0, # of connection points: 2
#     Edge 52, Type (0, 0), BuildingBlock: UVAHIK_clean_linker_0, # of connection points: 2
#     Edge 53, Type (0, 0), BuildingBlock: UVAHIK_clean_linker_0, # of connection points: 2
#     Edge 54, Type (0, 0), BuildingBlock: UVAHIK_clean_linker_0, # of connection points: 2
#     Edge 55, Type (0, 0), BuildingBlock: UVAHIK_clean_linker_0, # of connection points: 2
#     Edge 56, Type (0, 0), BuildingBlock: UVAHIK_clean_linker_0, # of connection points: 2
#     Edge 57, Type (0, 0), BuildingBlock: UVAHIK_clean_linker_0, # of connection points: 2
#     Edge 58, Type (0, 0), BuildingBlock: UVAHIK_clean_linker_0, # of connection points: 2
#     Edge 59, Type (0, 0), BuildingBlock: UVAHIK_clean_linker_0, # of connection points: 2
#     Edge 60, Type (0, 0), BuildingBlock: UVAHIK_clean_linker_0, # of connection points: 2
#     Edge 61, Type (0, 0), BuildingBlock: UVAHIK_clean_linker_0, # of connection points: 2
#     Edge 62, Type (0, 0), BuildingBlock: UVAHIK_clean_linker_0, # of connection points: 2
#     Edge 63, Type (0, 0), BuildingBlock: UVAHIK_clean_linker_0, # of connection points: 2
#     Edge 64, Type (0, 0), BuildingBlock: UVAHIK_clean_linker_0, # of connection points: 2
#     Edge 65, Type (0, 0), BuildingBlock: UVAHIK_clean_linker_0, # of connection points: 2
#     Edge 66, Type (0, 0), BuildingBlock: UVAHIK_clean_linker_0, # of connection points: 2
#     Edge 67, Type (0, 0), BuildingBlock: UVAHIK_clean_linker_0, # of connection points: 2
#     Edge 68, Type (0, 0), BuildingBlock: UVAHIK_clean_linker_0, # of connection points: 2
#     Edge 69, Type (0, 0), BuildingBlock: UVAHIK_clean_linker_0, # of connection points: 2
#     Edge 70, Type (0, 0), BuildingBlock: UVAHIK_clean_linker_0, # of connection points: 2
#     Edge 71, Type (0, 0), BuildingBlock: UVAHIK_clean_linker_0, # of connection points: 2
# Relax obj value: 0.522
# Max RMSD: 0.263
# Mean RMSD: 0.261
data_MOF--net-lcy-a--node1-UXUYUI_clean_sbu_0--edge1-UVAHIK_clean_linker_0
_symmetry_space_group_name_H-M    P1
_symmetry_Int_Tables_number       1
_symmetry_cell_setting            triclinic
loop_
_symmetry_equiv_pos_as_xyz
'x, y, z'
_cell_length_a     97.897372
_cell_length_b     95.950377
_cell_length_c     95.946246
_cell_angle_alpha  89.982609
_cell_angle_beta   89.99285
_cell_angle_gamma 90.009323
loop_
_atom_site_label
_atom_site_type_symbol
_atom_site_fract_x
_atom_site_fract_y
_atom_site_fract_z
_atom_type_partial_charge
Li0 Li 0.19331 0.32079 0.39936 0.0
Li1 Li 0.19928 0.29851 0.38784 0.0
Li2 Li 0.18331 0.31468 0.37789 0.0
Li3 Li 0.17643 0.30266 0.39817 0.0
C4 C 0.20654 0.32681 0.37141 0.0
N5 N 0.21221 0.34505 0.34987 0.0
C6 C 0.21312 0.32206 0.35939 0.0
C7 C 0.20297 0.34087 0.37254 0.0
C8 C 0.21585 0.33143 0.34859 0.0
C9 C 0.20591 0.34993 0.36153 0.0
C10 C 0.2037 0.30326 0.41812 0.0
C11 C 0.20938 0.30453 0.44255 0.0
N12 N 0.22248 0.30782 0.43915 0.0
C13 C 0.21724 0.30657 0.41487 0.0
C14 C 0.19974 0.30216 0.43208 0.0
C15 C 0.22657 0.30886 0.42565 0.0
C16 C 0.19419 0.33723 0.42358 0.0
N17 N 0.20068 0.33458 0.41134 0.0
C18 C 0.22002 0.34794 0.41848 0.0
C19 C 0.21323 0.33994 0.40852 0.0
C20 C 0.21386 0.35033 0.4315 0.0
C21 C 0.20064 0.34513 0.43388 0.0
H22 H 0.18431 0.33259 0.42559 0.0
H23 H 0.21831 0.33732 0.39887 0.0
C24 C 0.21489 0.28154 0.37036 0.0
N25 N 0.21258 0.28461 0.38398 0.0
C26 C 0.22394 0.2709 0.36674 0.0
C27 C 0.22792 0.26666 0.39124 0.0
C28 C 0.21869 0.27729 0.39438 0.0
C29 C 0.23067 0.26333 0.37725 0.0
H30 H 0.20947 0.28718 0.36232 0.0
H31 H 0.21628 0.27953 0.40513 0.0
C32 C 0.16032 0.32496 0.39121 0.0
N33 N 0.13306 0.32928 0.38506 0.0
C34 C 0.1533 0.3156 0.38263 0.0
C35 C 0.15346 0.33651 0.39665 0.0
C36 C 0.13953 0.31797 0.37965 0.0
C37 C 0.13968 0.33852 0.39342 0.0
C38 C 0.17937 0.28023 0.37945 0.0
C39 C 0.17384 0.27376 0.3677 0.0
C40 C 0.18317 0.27215 0.39096 0.0
C41 C 0.17213 0.2593 0.36766 0.0
C42 C 0.18129 0.25773 0.39052 0.0
N43 N 0.17585 0.25166 0.37898 0.0
C44 C 0.18147 0.31293 0.34922 0.0
C45 C 0.17336 0.33451 0.35796 0.0
C46 C 0.18089 0.3179 0.3356 0.0
N47 N 0.17815 0.32138 0.36004 0.0
C48 C 0.1726 0.33993 0.34446 0.0
C49 C 0.17684 0.33173 0.3331 0.0
H50 H 0.18548 0.30262 0.35126 0.0
H51 H 0.17095 0.34106 0.3668 0.0
C52 C 0.16157 0.29691 0.4222 0.0
N53 N 0.16221 0.29387 0.40839 0.0
C54 C 0.15377 0.28864 0.43113 0.0
C55 C 0.14653 0.27506 0.41123 0.0
C56 C 0.15427 0.28375 0.40267 0.0
C57 C 0.14668 0.27717 0.42569 0.0
H58 H 0.16771 0.3053 0.42636 0.0
H59 H 0.15454 0.28185 0.39159 0.0
O60 O 0.20334 0.31772 0.3819 0.0
O61 O 0.1943 0.30157 0.40767 0.0
O62 O 0.17381 0.32296 0.39435 0.0
O63 O 0.18121 0.29438 0.37949 0.0
H64 H 0.21597 0.31122 0.35834 0.0
H65 H 0.19775 0.3447 0.38171 0.0
H66 H 0.22083 0.32787 0.33918 0.0
H67 H 0.20309 0.36081 0.36221 0.0
H68 H 0.20644 0.30377 0.4534 0.0
H69 H 0.22046 0.30759 0.40413 0.0
H70 H 0.18936 0.29953 0.43483 0.0
H71 H 0.23705 0.31154 0.42327 0.0
H72 H 0.23029 0.35152 0.4163 0.0
H73 H 0.19552 0.3468 0.44374 0.0
H74 H 0.22546 0.2685 0.35583 0.0
H75 H 0.23288 0.26118 0.3997 0.0
H76 H 0.15838 0.30662 0.37827 0.0
H77 H 0.15875 0.34386 0.40331 0.0
H78 H 0.13399 0.31081 0.37303 0.0
H79 H 0.13426 0.34742 0.39756 0.0
H80 H 0.1709 0.27985 0.35869 0.0
H81 H 0.18745 0.27693 0.40018 0.0
H82 H 0.16784 0.25416 0.35863 0.0
H83 H 0.18415 0.25137 0.39936 0.0
H84 H 0.18449 0.31127 0.32725 0.0
H85 H 0.16931 0.35061 0.34299 0.0
H86 H 0.15407 0.29059 0.44225 0.0
H87 H 0.14099 0.2664 0.40669 0.0
Li88 Li 0.92821 0.94063 0.65188 0.0
Li89 Li 0.94481 0.9207 0.64936 0.0
Li90 Li 0.94958 0.94269 0.63959 0.0
Li91 Li 0.93276 0.92863 0.62847 0.0
C92 C 0.95687 0.94592 0.66572 0.0
N93 N 0.97772 0.96139 0.67746 0.0
C94 C 0.9702 0.94072 0.66591 0.0
C95 C 0.95413 0.95898 0.67154 0.0
C96 C 0.9806 0.9487 0.67187 0.0
C97 C 0.96482 0.96664 0.67742 0.0
C98 C 0.91627 0.91106 0.65159 0.0
C99 C 0.90314 0.88986 0.6497 0.0
N100 N 0.89903 0.89139 0.66316 0.0
C101 C 0.91176 0.91251 0.66534 0.0
C102 C 0.9118 0.89973 0.64365 0.0
C103 C 0.90311 0.90242 0.67102 0.0
C104 C 0.90376 0.95521 0.65808 0.0
N105 N 0.91528 0.94949 0.66352 0.0
C106 C 0.90993 0.95837 0.6861 0.0
C107 C 0.91833 0.95065 0.67727 0.0
C108 C 0.89814 0.96482 0.68077 0.0
C109 C 0.89495 0.9629 0.66658 0.0
H110 H 0.90159 0.95406 0.64709 0.0
H111 H 0.92753 0.94589 0.68131 0.0
C112 C 0.96616 0.90281 0.65664 0.0
N113 N 0.95297 0.90598 0.65969 0.0
C114 C 0.97399 0.89504 0.66595 0.0
C115 C 0.95424 0.89304 0.68092 0.0
C116 C 0.94683 0.901 0.67138 0.0
C117 C 0.96819 0.89049 0.67855 0.0
H118 H 0.97097 0.90729 0.64754 0.0
H119 H 0.9365 0.90398 0.67382 0.0
C120 C 0.93318 0.96081 0.62608 0.0
N121 N 0.93751 0.98538 0.61174 0.0
C122 C 0.94032 0.96071 0.61347 0.0
C123 C 0.92815 0.97338 0.63136 0.0
C124 C 0.94244 0.97325 0.60639 0.0
C125 C 0.93046 0.9857 0.62395 0.0
C126 C 0.95516 0.91213 0.62374 0.0
C127 C 0.96553 0.91134 0.61375 0.0
C128 C 0.94736 0.90031 0.62671 0.0
C129 C 0.9679 0.89872 0.6069 0.0
C130 C 0.95004 0.88788 0.61966 0.0
N131 N 0.96017 0.88735 0.60997 0.0
C132 C 0.97579 0.95071 0.63038 0.0
C133 C 0.96286 0.96916 0.64013 0.0
C134 C 0.98685 0.95963 0.62814 0.0
N135 N 0.9641 0.9556 0.63623 0.0
C136 C 0.97364 0.97843 0.63811 0.0
C137 C 0.98585 0.9737 0.63206 0.0
H138 H 0.97659 0.93983 0.6276 0.0
H139 H 0.95354 0.97276 0.64495 0.0
C140 C 0.91066 0.92234 0.61066 0.0
N141 N 0.9244 0.92424 0.61127 0.0
C142 C 0.90406 0.92174 0.59777 0.0
C143 C 0.92597 0.92448 0.58645 0.0
C144 C 0.93213 0.92496 0.59954 0.0
C145 C 0.91169 0.92329 0.58544 0.0
H146 H 0.90476 0.92198 0.62019 0.0
H147 H 0.943 0.92676 0.60033 0.0
O148 O 0.94659 0.93835 0.65968 0.0
O149 O 0.9245 0.921 0.64574 0.0
O150 O 0.93109 0.94868 0.63323 0.0
O151 O 0.95266 0.9245 0.63039 0.0
H152 H 0.97254 0.93072 0.66132 0.0
H153 H 0.94394 0.96331 0.67127 0.0
H154 H 0.99098 0.94483 0.67201 0.0
H155 H 0.96286 0.9768 0.68188 0.0
H156 H 0.89966 0.88101 0.64369 0.0
H157 H 0.91504 0.92125 0.67161 0.0
H158 H 0.91492 0.89859 0.63289 0.0
H159 H 0.89964 0.90336 0.68169 0.0
H160 H 0.91298 0.95967 0.69686 0.0
H161 H 0.88586 0.96744 0.66204 0.0
H162 H 0.98475 0.89359 0.66375 0.0
H163 H 0.94929 0.8896 0.69041 0.0
H164 H 0.94437 0.95109 0.60932 0.0
H165 H 0.92261 0.97362 0.64112 0.0
H166 H 0.94803 0.97334 0.59667 0.0
H167 H 0.92669 0.99551 0.62794 0.0
H168 H 0.97163 0.9204 0.61125 0.0
H169 H 0.93941 0.90067 0.63448 0.0
H170 H 0.97587 0.89797 0.59913 0.0
H171 H 0.94408 0.87865 0.62189 0.0
H172 H 0.99614 0.95552 0.6236 0.0
H173 H 0.97236 0.98923 0.64113 0.0
H174 H 0.89305 0.92068 0.59747 0.0
H175 H 0.93226 0.92597 0.57729 0.0
Li176 Li 0.29994 0.70603 0.88943 0.0
Li177 Li 0.29987 0.68292 0.90098 0.0
Li178 Li 0.31991 0.69769 0.90177 0.0
Li179 Li 0.31331 0.68719 0.8807 0.0
C180 C 0.29019 0.70459 0.91715 0.0
N181 N 0.26695 0.71013 0.93254 0.0
C182 C 0.27726 0.7025 0.91131 0.0
C183 C 0.29129 0.7095 0.93082 0.0
C184 C 0.26564 0.70535 0.91926 0.0
C185 C 0.27942 0.71225 0.93842 0.0
C186 C 0.28866 0.67889 0.87245 0.0
C187 C 0.28647 0.65536 0.86386 0.0
N188 N 0.28106 0.66036 0.8518 0.0
C189 C 0.28297 0.68378 0.86001 0.0
C190 C 0.29037 0.66456 0.87442 0.0
C191 C 0.27924 0.67425 0.84968 0.0
C192 C 0.28751 0.72412 0.87051 0.0
N193 N 0.28965 0.72212 0.88435 0.0
C194 C 0.27741 0.74297 0.88979 0.0
C195 C 0.28508 0.73144 0.89396 0.0
C196 C 0.27463 0.74508 0.87558 0.0
C197 C 0.27998 0.73557 0.86586 0.0
H198 H 0.29173 0.71684 0.86307 0.0
H199 H 0.28734 0.72997 0.90487 0.0
C200 C 0.29395 0.66749 0.9248 0.0
N201 N 0.28904 0.67087 0.912 0.0
C202 C 0.28574 0.66031 0.93428 0.0
C203 C 0.26771 0.65991 0.91705 0.0
C204 C 0.27624 0.66718 0.90794 0.0
C205 C 0.27234 0.65661 0.93053 0.0
H206 H 0.30407 0.67086 0.92781 0.0
H207 H 0.27248 0.67031 0.89783 0.0
C208 C 0.3236 0.72024 0.88397 0.0
N209 N 0.33259 0.74749 0.88567 0.0
C210 C 0.33149 0.72594 0.87326 0.0
C211 C 0.32026 0.72842 0.89555 0.0
C212 C 0.33594 0.73974 0.87431 0.0
C213 C 0.32491 0.74216 0.89622 0.0
C214 C 0.33224 0.67247 0.89647 0.0
C215 C 0.3418 0.67997 0.88864 0.0
C216 C 0.33613 0.66 0.90287 0.0
C217 C 0.35509 0.67484 0.88735 0.0
C218 C 0.34952 0.65522 0.90133 0.0
N219 N 0.35865 0.66268 0.89367 0.0
C220 C 0.33084 0.70187 0.9278 0.0
C221 C 0.34525 0.71037 0.90984 0.0
C222 C 0.33886 0.70828 0.93792 0.0
N223 N 0.33386 0.70347 0.91409 0.0
C224 C 0.35357 0.71701 0.91963 0.0
C225 C 0.3501 0.71642 0.93384 0.0
H226 H 0.32173 0.69625 0.93081 0.0
H227 H 0.34747 0.71138 0.89885 0.0
C228 C 0.31634 0.68764 0.85211 0.0
N229 N 0.31847 0.67933 0.86336 0.0
C230 C 0.31581 0.68188 0.83879 0.0
C231 C 0.32097 0.65935 0.84879 0.0
C232 C 0.32131 0.66554 0.86196 0.0
C233 C 0.31752 0.66744 0.83707 0.0
H234 H 0.31384 0.69852 0.85363 0.0
H235 H 0.3227 0.65913 0.87112 0.0
O236 O 0.30174 0.70159 0.9097 0.0
O237 O 0.29286 0.68807 0.88249 0.0
O238 O 0.31921 0.70672 0.88297 0.0
O239 O 0.31914 0.67721 0.89797 0.0
H240 H 0.27618 0.69873 0.90076 0.0
H241 H 0.3012 0.71119 0.9355 0.0
H242 H 0.25558 0.70377 0.91488 0.0
H243 H 0.28012 0.71606 0.94901 0.0
H244 H 0.28785 0.64426 0.8652 0.0
H245 H 0.28155 0.69482 0.85829 0.0
H246 H 0.29492 0.6606 0.88391 0.0
H247 H 0.27493 0.6779 0.83996 0.0
H248 H 0.27348 0.74997 0.89768 0.0
H249 H 0.27841 0.73695 0.85478 0.0
H250 H 0.28967 0.65821 0.94462 0.0
H251 H 0.25753 0.65714 0.91365 0.0
H252 H 0.33415 0.71975 0.86422 0.0
H253 H 0.31421 0.72423 0.90398 0.0
H254 H 0.34207 0.74428 0.8661 0.0
H255 H 0.32242 0.74858 0.90512 0.0
H256 H 0.33903 0.68961 0.88357 0.0
H257 H 0.32885 0.65408 0.90897 0.0
H258 H 0.36258 0.68054 0.88133 0.0
H259 H 0.35266 0.64558 0.90622 0.0
H260 H 0.33573 0.70764 0.94873 0.0
H261 H 0.36226 0.72302 0.91608 0.0
H262 H 0.31293 0.68851 0.83014 0.0
H263 H 0.32252 0.64821 0.84792 0.0
Li264 Li 0.56906 0.05755 0.15402 0.0
Li265 Li 0.55452 0.07783 0.14949 0.0
Li266 Li 0.54926 0.05511 0.13924 0.0
Li267 Li 0.56891 0.06895 0.13126 0.0
C268 C 0.54947 0.05586 0.17252 0.0
N269 N 0.55067 0.04705 0.19992 0.0
C270 C 0.5498 0.06561 0.18334 0.0
C271 C 0.54967 0.04163 0.17565 0.0
C272 C 0.5504 0.06094 0.19712 0.0
C273 C 0.55032 0.03738 0.18956 0.0
C274 C 0.58623 0.08412 0.14687 0.0
C275 C 0.59772 0.10423 0.13741 0.0
N276 N 0.60997 0.09843 0.14077 0.0
C277 C 0.59891 0.0784 0.15034 0.0
C278 C 0.5856 0.09718 0.14046 0.0
C279 C 0.6108 0.08578 0.14712 0.0
C280 C 0.58321 0.0349 0.16577 0.0
N281 N 0.57994 0.04852 0.16766 0.0
C282 C 0.59003 0.04842 0.19033 0.0
C283 C 0.58345 0.05544 0.17949 0.0
C284 C 0.59297 0.03416 0.18891 0.0
C285 C 0.58972 0.02747 0.17633 0.0
H286 H 0.58046 0.02971 0.15619 0.0
H287 H 0.58072 0.0663 0.18067 0.0
C288 C 0.53224 0.09244 0.15923 0.0
N289 N 0.54605 0.09315 0.15824 0.0
C290 C 0.5252 0.10154 0.16793 0.0
C291 C 0.54675 0.11198 0.17449 0.0
C292 C 0.55339 0.10282 0.1654 0.0
C293 C 0.5325 0.11117 0.17601 0.0
H294 H 0.52677 0.08419 0.15398 0.0
H295 H 0.56442 0.10282 0.16473 0.0
C296 C 0.56583 0.03701 0.12783 0.0
N297 N 0.55988 0.01372 0.112 0.0
C298 C 0.56795 0.03718 0.11341 0.0
C299 C 0.56076 0.02496 0.13419 0.0
C300 C 0.56488 0.0253 0.1056 0.0
C301 C 0.55778 0.01331 0.126 0.0
C302 C 0.54041 0.08359 0.1261 0.0
C303 C 0.52646 0.08061 0.12527 0.0
C304 C 0.54506 0.09705 0.12319 0.0
C305 C 0.51734 0.09124 0.12174 0.0
C306 C 0.53562 0.10739 0.1197 0.0
N307 N 0.52208 0.1043 0.11906 0.0
C308 C 0.52675 0.03747 0.1438 0.0
C309 C 0.53216 0.04101 0.11998 0.0
C310 C 0.51611 0.0285 0.14023 0.0
N311 N 0.53463 0.04333 0.13373 0.0
C312 C 0.5216 0.0321 0.11592 0.0
C313 C 0.51349 0.02562 0.12613 0.0
H314 H 0.52871 0.03977 0.15463 0.0
H315 H 0.5385 0.04597 0.11219 0.0
C316 C 0.59292 0.06854 0.11536 0.0
N317 N 0.57966 0.07269 0.11529 0.0
C318 C 0.60032 0.06797 0.10296 0.0
C319 C 0.58035 0.07625 0.09066 0.0
C320 C 0.57341 0.0769 0.10337 0.0
C321 C 0.59385 0.07123 0.09029 0.0
H322 H 0.59749 0.06476 0.12489 0.0
H323 H 0.56273 0.07976 0.10356 0.0
O324 O 0.54925 0.06021 0.15893 0.0
O325 O 0.57448 0.07704 0.1499 0.0
O326 O 0.56858 0.04861 0.13565 0.0
O327 O 0.54948 0.07334 0.12961 0.0
H328 H 0.54972 0.07665 0.18116 0.0
H329 H 0.54958 0.03393 0.16742 0.0
H330 H 0.55071 0.06838 0.20559 0.0
H331 H 0.55062 0.02641 0.19212 0.0
H332 H 0.5974 0.11432 0.1324 0.0
H333 H 0.59956 0.06831 0.15534 0.0
H334 H 0.57586 0.10182 0.13788 0.0
H335 H 0.62069 0.08145 0.14966 0.0
H336 H 0.59232 0.05393 0.1999 0.0
H337 H 0.59204 0.01655 0.17473 0.0
H338 H 0.51425 0.10034 0.16908 0.0
H339 H 0.55271 0.11921 0.18068 0.0
H340 H 0.57185 0.04637 0.10828 0.0
H341 H 0.55889 0.02468 0.14529 0.0
H342 H 0.56644 0.0253 0.09444 0.0
H343 H 0.55373 0.00397 0.13078 0.0
H344 H 0.52269 0.07023 0.12746 0.0
H345 H 0.55584 0.09947 0.12364 0.0
H346 H 0.50651 0.08912 0.12114 0.0
H347 H 0.53907 0.11787 0.11749 0.0
H348 H 0.50995 0.02394 0.14842 0.0
H349 H 0.51998 0.03009 0.10494 0.0
H350 H 0.61075 0.06425 0.10323 0.0
H351 H 0.57485 0.07867 0.08118 0.0
Li352 Li 0.68319 0.18384 0.61636 0.0
Li353 Li 0.67728 0.19441 0.59497 0.0
Li354 Li 0.69697 0.17891 0.59495 0.0
Li355 Li 0.69731 0.20235 0.60631 0.0
C356 C 0.66449 0.17045 0.59562 0.0
N357 N 0.63793 0.16436 0.58793 0.0
C358 C 0.65392 0.17138 0.60537 0.0
C359 C 0.66154 0.1664 0.58195 0.0
C360 C 0.64057 0.16824 0.60129 0.0
C361 C 0.64805 0.16339 0.57826 0.0
C362 C 0.66679 0.21104 0.61475 0.0
C363 C 0.65281 0.23073 0.60834 0.0
N364 N 0.64288 0.22616 0.61714 0.0
C365 C 0.65647 0.20658 0.62379 0.0
C366 C 0.66499 0.22326 0.60701 0.0
C367 C 0.64445 0.21436 0.62483 0.0
C368 C 0.68157 0.18442 0.64507 0.0
N369 N 0.67863 0.17622 0.63395 0.0
C370 C 0.67523 0.15653 0.64874 0.0
C371 C 0.67511 0.16262 0.63552 0.0
C372 C 0.67941 0.16444 0.66036 0.0
C373 C 0.68212 0.17871 0.6584 0.0
H374 H 0.68459 0.19514 0.64341 0.0
H375 H 0.67304 0.1563 0.62643 0.0
C376 C 0.66736 0.20277 0.56934 0.0
N377 N 0.66304 0.20016 0.58254 0.0
C378 C 0.6585 0.20847 0.55956 0.0
C379 C 0.64048 0.20774 0.57675 0.0
C380 C 0.64974 0.20199 0.58623 0.0
C381 C 0.64495 0.2114 0.56332 0.0
H382 H 0.67786 0.20084 0.56648 0.0
H383 H 0.64639 0.19944 0.59664 0.0
C384 C 0.70859 0.17652 0.62433 0.0
N385 N 0.71726 0.16085 0.64681 0.0
C386 C 0.71391 0.18309 0.63614 0.0
C387 C 0.70776 0.16198 0.6239 0.0
C388 C 0.71822 0.17498 0.64741 0.0
C389 C 0.71217 0.15424 0.63539 0.0
C390 C 0.70399 0.2069 0.58068 0.0
C391 C 0.71768 0.20335 0.5786 0.0
C392 C 0.69949 0.22035 0.57745 0.0
C393 C 0.72669 0.21337 0.57339 0.0
C394 C 0.70882 0.23007 0.57227 0.0
N395 N 0.72212 0.22641 0.57037 0.0
C396 C 0.70284 0.16199 0.572 0.0
C397 C 0.72074 0.16346 0.58856 0.0
C398 C 0.71109 0.15428 0.56301 0.0
N399 N 0.70779 0.16645 0.58443 0.0
C400 C 0.72939 0.15583 0.57986 0.0
C401 C 0.72466 0.15132 0.56678 0.0
H402 H 0.69263 0.16484 0.56885 0.0
H403 H 0.72454 0.16749 0.59834 0.0
C404 C 0.70473 0.23077 0.61059 0.0
N405 N 0.70927 0.21738 0.61048 0.0
C406 C 0.71374 0.24168 0.61346 0.0
C407 C 0.73185 0.22478 0.61625 0.0
C408 C 0.72255 0.21423 0.61315 0.0
C409 C 0.72746 0.23871 0.61644 0.0
H410 H 0.69414 0.23298 0.60841 0.0
H411 H 0.7259 0.20349 0.61284 0.0
O412 O 0.67759 0.17371 0.59939 0.0
O413 O 0.67869 0.20365 0.61375 0.0
O414 O 0.70381 0.18429 0.61342 0.0
O415 O 0.6951 0.19739 0.58621 0.0
H416 H 0.65595 0.17467 0.61594 0.0
H417 H 0.66953 0.16575 0.57421 0.0
H418 H 0.6323 0.16898 0.60873 0.0
H419 H 0.64562 0.16031 0.5677 0.0
H420 H 0.65123 0.24012 0.60231 0.0
H421 H 0.65772 0.19721 0.62992 0.0
H422 H 0.67277 0.22676 0.59983 0.0
H423 H 0.63637 0.211 0.63175 0.0
H424 H 0.67275 0.14558 0.64971 0.0
H425 H 0.68566 0.18526 0.66685 0.0
H426 H 0.66247 0.2112 0.54939 0.0
H427 H 0.63005 0.20963 0.58001 0.0
H428 H 0.7145 0.19434 0.63668 0.0
H429 H 0.70353 0.15675 0.61489 0.0
H430 H 0.72226 0.17992 0.65667 0.0
H431 H 0.71148 0.14299 0.63526 0.0
H432 H 0.72135 0.19303 0.58115 0.0
H433 H 0.68894 0.22329 0.5791 0.0
H434 H 0.73734 0.2108 0.57181 0.0
H435 H 0.7055 0.24054 0.5698 0.0
H436 H 0.70696 0.1509 0.5531 0.0
H437 H 0.73984 0.154 0.5831 0.0
H438 H 0.70997 0.25229 0.61359 0.0
H439 H 0.7424 0.2221 0.61835 0.0
Li440 Li 0.04512 0.44243 0.85817 0.0
Li441 Li 0.06407 0.42923 0.86818 0.0
Li442 Li 0.06585 0.4395 0.84392 0.0
Li443 Li 0.05153 0.41904 0.84864 0.0
C444 C 0.06251 0.46237 0.86743 0.0
N445 N 0.05928 0.48895 0.87806 0.0
C446 C 0.06115 0.46441 0.88178 0.0
C447 C 0.0625 0.4739 0.85852 0.0
C448 C 0.05944 0.47791 0.88695 0.0
C449 C 0.06079 0.48724 0.86408 0.0
C450 C 0.0414 0.41446 0.87764 0.0
C451 C 0.04391 0.39155 0.88765 0.0
N452 N 0.03539 0.39527 0.89822 0.0
C453 C 0.03255 0.41801 0.8885 0.0
C454 C 0.04704 0.4011 0.87713 0.0
C455 C 0.02968 0.40818 0.89884 0.0
C456 C 0.02185 0.45922 0.85246 0.0
N457 N 0.03021 0.45439 0.86269 0.0
C458 C 0.01741 0.4667 0.87997 0.0
C459 C 0.02803 0.45772 0.87628 0.0
C460 C 0.00891 0.47223 0.86955 0.0
C461 C 0.01116 0.46828 0.85566 0.0
H462 H 0.02339 0.45602 0.84182 0.0
H463 H 0.03461 0.45345 0.88426 0.0
C464 C 0.08733 0.42362 0.88476 0.0
N465 N 0.0737 0.42629 0.88507 0.0
C466 C 0.09498 0.4241 0.89704 0.0
C467 C 0.07431 0.42946 0.90973 0.0
C468 C 0.06708 0.42882 0.89724 0.0
C469 C 0.08854 0.42753 0.90969 0.0
H470 H 0.09237 0.42184 0.87488 0.0
H471 H 0.05633 0.43134 0.89715 0.0
C472 C 0.04345 0.44235 0.82602 0.0
N473 N 0.03771 0.45446 0.80053 0.0
C474 C 0.03882 0.43418 0.81493 0.0
C475 C 0.04499 0.45672 0.82417 0.0
C476 C 0.03601 0.44048 0.80212 0.0
C477 C 0.04209 0.46264 0.81121 0.0
C478 C 0.07848 0.40911 0.84673 0.0
C479 C 0.08359 0.40806 0.83317 0.0
C480 C 0.08078 0.39828 0.8562 0.0
C481 C 0.09054 0.396 0.82917 0.0
C482 C 0.08781 0.3864 0.8518 0.0
N483 N 0.09248 0.3855 0.83848 0.0
C484 C 0.08655 0.45783 0.83454 0.0
C485 C 0.07571 0.44473 0.81674 0.0
C486 C 0.09403 0.46528 0.82463 0.0
N487 N 0.07736 0.44804 0.83042 0.0
C488 C 0.08276 0.4521 0.80648 0.0
C489 C 0.09187 0.46266 0.81041 0.0
H490 H 0.08777 0.46012 0.8455 0.0
H491 H 0.06862 0.43663 0.81376 0.0
C492 C 0.03154 0.39865 0.84462 0.0
N493 N 0.04375 0.40331 0.83975 0.0
C494 C 0.02326 0.39031 0.83626 0.0
C495 C 0.04061 0.39103 0.81835 0.0
C496 C 0.04861 0.39928 0.82711 0.0
C497 C 0.02747 0.38704 0.82264 0.0
H498 H 0.02767 0.40237 0.85448 0.0
H499 H 0.05801 0.40365 0.8232 0.0
O500 O 0.06408 0.44919 0.86217 0.0
O501 O 0.0444 0.424 0.86749 0.0
O502 O 0.04652 0.4363 0.83858 0.0
O503 O 0.07179 0.42092 0.85087 0.0
H504 H 0.06124 0.45567 0.88887 0.0
H505 H 0.06391 0.47261 0.84743 0.0
H506 H 0.05824 0.47961 0.89803 0.0
H507 H 0.0607 0.49623 0.85728 0.0
H508 H 0.04822 0.38118 0.8874 0.0
H509 H 0.02801 0.42828 0.88899 0.0
H510 H 0.05361 0.39809 0.86861 0.0
H511 H 0.02292 0.41081 0.90736 0.0
H512 H 0.01604 0.46951 0.89082 0.0
H513 H 0.00465 0.47208 0.84735 0.0
H514 H 0.10591 0.42242 0.89654 0.0
H515 H 0.06891 0.43244 0.91912 0.0
H516 H 0.03735 0.4231 0.81618 0.0
H517 H 0.04835 0.46322 0.83267 0.0
H518 H 0.03246 0.43426 0.79344 0.0
H519 H 0.04331 0.47373 0.80964 0.0
H520 H 0.08209 0.41643 0.82578 0.0
H521 H 0.07732 0.3991 0.86687 0.0
H522 H 0.09443 0.395 0.81866 0.0
H523 H 0.0896 0.37792 0.859 0.0
H524 H 0.10099 0.47338 0.828 0.0
H525 H 0.08098 0.4497 0.7956 0.0
H526 H 0.01325 0.38732 0.84002 0.0
H527 H 0.04417 0.38896 0.80786 0.0
Li528 Li 0.8178 0.8004 0.09562 0.0
Li529 Li 0.81121 0.81093 0.1167 0.0
Li530 Li 0.79821 0.79166 0.10826 0.0
Li531 Li 0.79743 0.81469 0.09657 0.0
C532 C 0.82225 0.77812 0.11357 0.0
N533 N 0.83187 0.75109 0.11197 0.0
C534 C 0.83043 0.77271 0.12421 0.0
C535 C 0.81893 0.76975 0.10212 0.0
C536 C 0.8352 0.75903 0.12321 0.0
C537 C 0.82391 0.75612 0.1015 0.0
C538 C 0.82961 0.82595 0.10051 0.0
C539 C 0.84644 0.8435 0.09513 0.0
N540 N 0.85582 0.83639 0.1028 0.0
C541 C 0.83941 0.81882 0.10834 0.0
C542 C 0.83314 0.83839 0.09384 0.0
C543 C 0.8526 0.82427 0.10937 0.0
C544 C 0.82855 0.79608 0.06952 0.0
N545 N 0.83176 0.79483 0.08322 0.0
C546 C 0.85173 0.78169 0.07771 0.0
C547 C 0.84337 0.7883 0.08746 0.0
C548 C 0.84809 0.78191 0.06353 0.0
C549 C 0.83661 0.78967 0.05943 0.0
H550 H 0.81928 0.80142 0.06651 0.0
H551 H 0.84572 0.78755 0.09845 0.0
C552 C 0.81466 0.81104 0.14529 0.0
N553 N 0.81636 0.81919 0.13385 0.0
C554 C 0.81415 0.81703 0.15851 0.0
C555 C 0.81841 0.83953 0.14799 0.0
C556 C 0.81874 0.8331 0.13494 0.0
C557 C 0.81542 0.83156 0.15991 0.0
H558 H 0.8125 0.80005 0.14402 0.0
H559 H 0.81979 0.83937 0.12564 0.0
C560 C 0.78804 0.79272 0.08065 0.0
N561 N 0.7647 0.78658 0.06564 0.0
C562 C 0.77515 0.79435 0.08674 0.0
C563 C 0.78904 0.78795 0.06693 0.0
C564 C 0.76349 0.7912 0.07898 0.0
C565 C 0.77712 0.7849 0.05951 0.0
C566 C 0.7864 0.81864 0.12516 0.0
C567 C 0.78112 0.81373 0.13777 0.0
C568 C 0.78752 0.833 0.12292 0.0
C569 C 0.77719 0.82327 0.14801 0.0
C570 C 0.78345 0.8422 0.13341 0.0
N571 N 0.77843 0.83719 0.14564 0.0
C572 C 0.78645 0.77338 0.12746 0.0
C573 C 0.78376 0.76595 0.10408 0.0
C574 C 0.7791 0.76187 0.13226 0.0
N575 N 0.78835 0.77537 0.11358 0.0
C576 C 0.77623 0.75438 0.10839 0.0
C577 C 0.77364 0.7523 0.12266 0.0
H578 H 0.79068 0.78075 0.13481 0.0
H579 H 0.78586 0.7674 0.09314 0.0
C580 C 0.79111 0.83094 0.07333 0.0
N581 N 0.78614 0.8265 0.08577 0.0
C582 C 0.78266 0.8381 0.06406 0.0
C583 C 0.76425 0.83622 0.08077 0.0
C584 C 0.77305 0.82909 0.0897 0.0
C585 C 0.76896 0.84063 0.06765 0.0
H586 H 0.80151 0.82847 0.07041 0.0
H587 H 0.76931 0.82519 0.09956 0.0
O588 O 0.81755 0.79152 0.11451 0.0
O589 O 0.8166 0.82088 0.09926 0.0
O590 O 0.79962 0.79601 0.08793 0.0
O591 O 0.7908 0.80948 0.11519 0.0
H592 H 0.83307 0.77905 0.13314 0.0
H593 H 0.81266 0.77371 0.09375 0.0
H594 H 0.84155 0.75472 0.13136 0.0
H595 H 0.82145 0.74956 0.09269 0.0
H596 H 0.84931 0.85312 0.09003 0.0
H597 H 0.83691 0.80921 0.11362 0.0
H598 H 0.82566 0.84403 0.08773 0.0
H599 H 0.86029 0.81885 0.1154 0.0
H600 H 0.86061 0.77597 0.08126 0.0
H601 H 0.83335 0.79003 0.04865 0.0
H602 H 0.81164 0.81049 0.16734 0.0
H603 H 0.81961 0.85073 0.14861 0.0
H604 H 0.77415 0.79798 0.09736 0.0
H605 H 0.79891 0.7866 0.06205 0.0
H606 H 0.75346 0.79243 0.08356 0.0
H607 H 0.77775 0.7812 0.04889 0.0
H608 H 0.78017 0.80267 0.13969 0.0
H609 H 0.79176 0.83699 0.1133 0.0
H610 H 0.77319 0.8196 0.15786 0.0
H611 H 0.78438 0.85333 0.13187 0.0
H612 H 0.77772 0.76051 0.14337 0.0
H613 H 0.77221 0.74736 0.10058 0.0
H614 H 0.78666 0.84112 0.05398 0.0
H615 H 0.75381 0.83807 0.08401 0.0
Li616 Li 0.43441 0.56727 0.37082 0.0
Li617 Li 0.45369 0.55427 0.36094 0.0
Li618 Li 0.44549 0.57639 0.34985 0.0
Li619 Li 0.43227 0.55482 0.34774 0.0
C620 C 0.45691 0.58342 0.37829 0.0
N621 N 0.46342 0.60359 0.39773 0.0
C622 C 0.46633 0.58053 0.38884 0.0
C623 C 0.45096 0.59663 0.3775 0.0
C624 C 0.46944 0.59084 0.39861 0.0
C625 C 0.45434 0.60667 0.38745 0.0
C626 C 0.43817 0.53462 0.37337 0.0
C627 C 0.44245 0.50986 0.37289 0.0
N628 N 0.44387 0.5099 0.38699 0.0
C629 C 0.4395 0.53437 0.38787 0.0
C630 C 0.4395 0.52223 0.36583 0.0
C631 C 0.44245 0.52179 0.39456 0.0
C632 C 0.41113 0.57213 0.38714 0.0
N633 N 0.42497 0.57113 0.38766 0.0
C634 C 0.42451 0.57071 0.41254 0.0
C635 C 0.43174 0.57081 0.40002 0.0
C636 C 0.41016 0.57086 0.41234 0.0
C637 C 0.40348 0.5721 0.39942 0.0
H638 H 0.406 0.57218 0.37715 0.0
H639 H 0.44269 0.56955 0.40018 0.0
C640 C 0.47757 0.5391 0.3546 0.0
N641 N 0.4695 0.54352 0.36524 0.0
C642 C 0.48883 0.53062 0.35724 0.0
C643 C 0.4838 0.53205 0.38186 0.0
C644 C 0.47256 0.54045 0.37872 0.0
C645 C 0.49195 0.52684 0.371 0.0
H646 H 0.4753 0.54213 0.34404 0.0
H647 H 0.4662 0.54442 0.38703 0.0
C648 C 0.41831 0.58496 0.34878 0.0
N649 N 0.40337 0.60772 0.33991 0.0
C650 C 0.41252 0.58507 0.33547 0.0
C651 C 0.41625 0.59628 0.35769 0.0
C652 C 0.40508 0.59672 0.33114 0.0
C653 C 0.40873 0.60772 0.35298 0.0
C654 C 0.45283 0.55181 0.32854 0.0
C655 C 0.45486 0.55936 0.31625 0.0
C656 C 0.4526 0.53725 0.32805 0.0
C657 C 0.45639 0.55223 0.30366 0.0
C658 C 0.45415 0.5305 0.31525 0.0
N659 N 0.45598 0.53807 0.30342 0.0
C660 C 0.46454 0.59691 0.34379 0.0
C661 C 0.44676 0.59539 0.3271 0.0
C662 C 0.47232 0.60507 0.3348 0.0
N663 N 0.45223 0.59187 0.33965 0.0
C664 C 0.45428 0.60343 0.31768 0.0
C665 C 0.46753 0.60775 0.32127 0.0
H666 H 0.46888 0.59362 0.35361 0.0
H667 H 0.43725 0.59077 0.32378 0.0
C668 C 0.41321 0.53367 0.34171 0.0
N669 N 0.42059 0.54421 0.33598 0.0
C670 C 0.40562 0.52474 0.33323 0.0
C671 C 0.41297 0.53799 0.31316 0.0
C672 C 0.42026 0.54677 0.32205 0.0
C673 C 0.40568 0.52663 0.31869 0.0
H674 H 0.41343 0.53205 0.35286 0.0
H675 H 0.42599 0.55539 0.31778 0.0
O676 O 0.45371 0.57341 0.36867 0.0
O677 O 0.43541 0.54689 0.36662 0.0
O678 O 0.42551 0.57358 0.35323 0.0
O679 O 0.4511 0.55863 0.34097 0.0
H680 H 0.47113 0.57039 0.38953 0.0
H681 H 0.44393 0.59914 0.36919 0.0
H682 H 0.47665 0.58872 0.40689 0.0
H683 H 0.44978 0.61693 0.38697 0.0
H684 H 0.44356 0.50022 0.36717 0.0
H685 H 0.43844 0.5438 0.3939 0.0
H686 H 0.43818 0.52211 0.35466 0.0
H687 H 0.44362 0.52149 0.40576 0.0
H688 H 0.4301 0.56948 0.42221 0.0
H689 H 0.39244 0.57237 0.39879 0.0
H690 H 0.49505 0.52705 0.34861 0.0
H691 H 0.48587 0.52937 0.39262 0.0
H692 H 0.41385 0.57631 0.32851 0.0
H693 H 0.42027 0.59618 0.36818 0.0
H694 H 0.40065 0.59701 0.32081 0.0
H695 H 0.4071 0.61658 0.35975 0.0
H696 H 0.45528 0.5706 0.31641 0.0
H697 H 0.45127 0.53124 0.33745 0.0
H698 H 0.45791 0.55797 0.29407 0.0
H699 H 0.45392 0.51924 0.31474 0.0
H700 H 0.48243 0.60834 0.33802 0.0
H701 H 0.45028 0.6051 0.30729 0.0
H702 H 0.39988 0.51637 0.33803 0.0
H703 H 0.41344 0.53986 0.30205 0.0
Li704 Li 0.39102 0.1937 0.29065 0.0
Li705 Li 0.40505 0.19315 0.31338 0.0
Li706 Li 0.40187 0.17239 0.29922 0.0
Li707 Li 0.38321 0.18141 0.3117 0.0
C708 C 0.42234 0.18731 0.28663 0.0
N709 N 0.44591 0.18056 0.2723 0.0
C710 C 0.43504 0.18825 0.29323 0.0
C711 C 0.42165 0.18311 0.2727 0.0
C712 C 0.44684 0.18476 0.28581 0.0
C713 C 0.43367 0.17968 0.26566 0.0
C714 C 0.37721 0.20774 0.31741 0.0
C715 C 0.36884 0.21499 0.3399 0.0
N716 N 0.35667 0.21844 0.33399 0.0
C717 C 0.36468 0.21148 0.31152 0.0
C718 C 0.37937 0.20959 0.33168 0.0
C719 C 0.3544 0.21683 0.32009 0.0
C720 C 0.37384 0.20582 0.27008 0.0
N721 N 0.38678 0.20502 0.27513 0.0
C722 C 0.39475 0.22113 0.25801 0.0
C723 C 0.39718 0.2124 0.26935 0.0
C724 C 0.38145 0.22236 0.25262 0.0
C725 C 0.37092 0.21447 0.25874 0.0
H726 H 0.36578 0.19981 0.27493 0.0
H727 H 0.40736 0.21157 0.27362 0.0
C728 C 0.42176 0.19998 0.33666 0.0
N729 N 0.41726 0.20406 0.3239 0.0
C730 C 0.43109 0.20824 0.34396 0.0
C731 C 0.43087 0.22467 0.32483 0.0
C732 C 0.42154 0.21613 0.31794 0.0
C733 C 0.43581 0.22074 0.338 0.0
H734 H 0.41817 0.19029 0.34109 0.0
H735 H 0.41773 0.21906 0.30776 0.0
C736 C 0.37785 0.16712 0.28166 0.0
N737 N 0.3674 0.15114 0.2602 0.0
C738 C 0.36889 0.15615 0.28454 0.0
C739 C 0.38136 0.17007 0.26784 0.0
C740 C 0.36376 0.14815 0.27356 0.0
C741 C 0.37601 0.16184 0.25715 0.0
C742 C 0.39801 0.16135 0.32586 0.0
C743 C 0.39111 0.15104 0.31837 0.0
C744 C 0.40223 0.15865 0.33951 0.0
C745 C 0.38853 0.13818 0.32466 0.0
C746 C 0.39945 0.14566 0.34545 0.0
N747 N 0.39272 0.13578 0.33796 0.0
C748 C 0.42517 0.15611 0.29839 0.0
C749 C 0.40902 0.14946 0.28127 0.0
C750 C 0.43557 0.1492 0.29126 0.0
N751 N 0.41246 0.15695 0.29277 0.0
C752 C 0.41905 0.14224 0.27391 0.0
C753 C 0.43271 0.14292 0.27836 0.0
H754 H 0.42759 0.16213 0.3076 0.0
H755 H 0.39882 0.14992 0.27713 0.0
C756 C 0.35508 0.17843 0.3142 0.0
N757 N 0.36686 0.178 0.32165 0.0
C758 C 0.34255 0.17932 0.32102 0.0
C759 C 0.35447 0.17833 0.34307 0.0
C760 C 0.3668 0.17749 0.3358 0.0
C761 C 0.34216 0.17979 0.33565 0.0
H762 H 0.35549 0.17913 0.30295 0.0
H763 H 0.37636 0.17738 0.34145 0.0
O764 O 0.41065 0.19043 0.29382 0.0
O765 O 0.3872 0.20197 0.30931 0.0
O766 O 0.3828 0.17517 0.29229 0.0
O767 O 0.40053 0.17411 0.32001 0.0
H768 H 0.43576 0.19146 0.30401 0.0
H769 H 0.41192 0.18237 0.26743 0.0
H770 H 0.45672 0.18533 0.29081 0.0
H771 H 0.43327 0.17628 0.25491 0.0
H772 H 0.37031 0.21636 0.35099 0.0
H773 H 0.36285 0.21006 0.30049 0.0
H774 H 0.38901 0.20668 0.33639 0.0
H775 H 0.3446 0.21963 0.31571 0.0
H776 H 0.4032 0.22686 0.25351 0.0
H777 H 0.3605 0.21523 0.25504 0.0
H778 H 0.43473 0.20477 0.35404 0.0
H779 H 0.43408 0.2343 0.31995 0.0
H780 H 0.36591 0.15384 0.29516 0.0
H781 H 0.38819 0.17855 0.26538 0.0
H782 H 0.35686 0.1396 0.27565 0.0
H783 H 0.37869 0.16396 0.24642 0.0
H784 H 0.38782 0.15291 0.30781 0.0
H785 H 0.40754 0.16654 0.34548 0.0
H786 H 0.38321 0.13011 0.31897 0.0
H787 H 0.40264 0.14343 0.35601 0.0
H788 H 0.44593 0.15 0.29514 0.0
H789 H 0.4163 0.13709 0.26426 0.0
H790 H 0.33338 0.18067 0.31485 0.0
H791 H 0.35463 0.17853 0.35435 0.0
Li792 Li 0.05335 0.15243 0.5703 0.0
Li793 Li 0.04835 0.14148 0.54778 0.0
Li794 Li 0.0623 0.13035 0.56546 0.0
Li795 Li 0.07132 0.15178 0.55331 0.0
C796 C 0.03662 0.12429 0.57291 0.0
N797 N 0.02542 0.10103 0.58558 0.0
C798 C 0.02817 0.1153 0.56536 0.0
C799 C 0.03905 0.12163 0.58702 0.0
C800 C 0.02267 0.10356 0.57192 0.0
C801 C 0.03341 0.10977 0.59321 0.0
C802 C 0.04426 0.17174 0.55229 0.0
C803 C 0.03866 0.19622 0.55199 0.0
N804 N 0.02556 0.19309 0.5555 0.0
C805 C 0.03068 0.16876 0.55576 0.0
C806 C 0.04826 0.18558 0.55029 0.0
C807 C 0.0214 0.17969 0.55738 0.0
C808 C 0.05075 0.17769 0.58525 0.0
N809 N 0.0456 0.1646 0.58391 0.0
C810 C 0.02691 0.17017 0.59888 0.0
C811 C 0.03405 0.16063 0.59069 0.0
C812 C 0.03165 0.18395 0.59997 0.0
C813 C 0.04389 0.18759 0.59327 0.0
H814 H 0.05982 0.18063 0.57954 0.0
H815 H 0.03 0.15027 0.58917 0.0
C816 C 0.03431 0.12477 0.52832 0.0
N817 N 0.03626 0.13816 0.5325 0.0
C818 C 0.02595 0.12182 0.51691 0.0
C819 C 0.02199 0.14652 0.51409 0.0
C820 C 0.03052 0.14899 0.52548 0.0
C821 C 0.01957 0.13278 0.50973 0.0
H822 H 0.03933 0.11637 0.53381 0.0
H823 H 0.03267 0.15958 0.52855 0.0
C824 C 0.07608 0.15366 0.58515 0.0
N825 N 0.08263 0.16858 0.60889 0.0
C826 C 0.08504 0.16498 0.58438 0.0
C827 C 0.07072 0.14974 0.59808 0.0
C828 C 0.08816 0.17244 0.59647 0.0
C829 C 0.07407 0.15747 0.60993 0.0
C830 C 0.06783 0.12959 0.53167 0.0
C831 C 0.0698 0.11576 0.5276 0.0
C832 C 0.0666 0.13999 0.52153 0.0
C833 C 0.07049 0.11254 0.51342 0.0
C834 C 0.06734 0.13635 0.50746 0.0
N835 N 0.06925 0.12282 0.50373 0.0
C836 C 0.06061 0.10151 0.56549 0.0
C837 C 0.07229 0.1106 0.58514 0.0
C838 C 0.06011 0.08833 0.57156 0.0
N839 N 0.0662 0.11237 0.57254 0.0
C840 C 0.07208 0.09754 0.59159 0.0
C841 C 0.06547 0.08631 0.585 0.0
H842 H 0.0556 0.10334 0.55561 0.0
H843 H 0.07658 0.11946 0.59053 0.0
C844 C 0.08669 0.17532 0.54676 0.0
N845 N 0.08601 0.16132 0.54473 0.0
C846 C 0.09514 0.1835 0.53841 0.0
C847 C 0.10248 0.16261 0.52644 0.0
C848 C 0.09409 0.1548 0.53524 0.0
C849 C 0.10272 0.17718 0.52774 0.0
H850 H 0.08015 0.18019 0.5544 0.0
H851 H 0.09342 0.14364 0.5339 0.0
O852 O 0.04242 0.13564 0.56654 0.0
O853 O 0.05359 0.16116 0.55118 0.0
O854 O 0.07282 0.14632 0.57337 0.0
O855 O 0.06676 0.13291 0.5455 0.0
H856 H 0.02581 0.11736 0.55458 0.0
H857 H 0.04533 0.12856 0.59311 0.0
H858 H 0.0162 0.09648 0.56615 0.0
H859 H 0.03539 0.1075 0.60406 0.0
H860 H 0.04164 0.20698 0.55054 0.0
H861 H 0.02739 0.15811 0.55734 0.0
H862 H 0.05865 0.18812 0.54746 0.0
H863 H 0.01091 0.17753 0.56019 0.0
H864 H 0.0174 0.16699 0.6037 0.0
H865 H 0.04792 0.19809 0.59391 0.0
H866 H 0.02433 0.11107 0.5139 0.0
H867 H 0.01748 0.15527 0.50865 0.0
H868 H 0.0896 0.16794 0.57458 0.0
H869 H 0.064 0.14088 0.59897 0.0
H870 H 0.09501 0.18127 0.59599 0.0
H871 H 0.06987 0.15462 0.61997 0.0
H872 H 0.07078 0.10759 0.53531 0.0
H873 H 0.06494 0.15074 0.52451 0.0
H874 H 0.07199 0.10188 0.51011 0.0
H875 H 0.06636 0.14428 0.49951 0.0
H876 H 0.05468 0.08011 0.56617 0.0
H877 H 0.07649 0.0964 0.60188 0.0
H878 H 0.09501 0.19472 0.53963 0.0
H879 H 0.10825 0.15743 0.51832 0.0
Li880 Li 0.10095 0.83082 0.80361 0.0
Li881 Li 0.1207 0.82309 0.81534 0.0
Li882 Li 0.11101 0.8078 0.79828 0.0
Li883 Li 0.09951 0.81224 0.82153 0.0
C884 C 0.11946 0.82978 0.78119 0.0
N885 N 0.1199 0.83655 0.7532 0.0
C886 C 0.12992 0.83812 0.77584 0.0
C887 C 0.10926 0.82484 0.77229 0.0
C888 C 0.12996 0.84144 0.76166 0.0
C889 C 0.10965 0.82838 0.75817 0.0
C890 C 0.10738 0.84582 0.82721 0.0
C891 C 0.1054 0.86566 0.84251 0.0
N892 N 0.11303 0.87333 0.83348 0.0
C893 C 0.11521 0.85391 0.81808 0.0
C894 C 0.10243 0.85173 0.83952 0.0
C895 C 0.11794 0.86779 0.82144 0.0
C896 C 0.07666 0.84464 0.79949 0.0
N897 N 0.09004 0.84511 0.79579 0.0
C898 C 0.08519 0.86118 0.77748 0.0
C899 C 0.09455 0.85375 0.78554 0.0
C900 C 0.07115 0.85979 0.7802 0.0
C901 C 0.06696 0.85195 0.79178 0.0
H902 H 0.07341 0.83767 0.80772 0.0
H903 H 0.10529 0.85423 0.78303 0.0
C904 C 0.14888 0.82641 0.81415 0.0
N905 N 0.13797 0.82808 0.82273 0.0
C906 C 0.16208 0.82646 0.81959 0.0
C907 C 0.15259 0.83108 0.8424 0.0
C908 C 0.13954 0.83091 0.83651 0.0
C909 C 0.16402 0.82825 0.83399 0.0
H910 H 0.14726 0.82397 0.80327 0.0
H911 H 0.13064 0.83203 0.8431 0.0
C912 C 0.08033 0.80674 0.79703 0.0
N913 N 0.05685 0.79484 0.78629 0.0
C914 C 0.07481 0.79475 0.80313 0.0
C915 C 0.07385 0.81267 0.78546 0.0
C916 C 0.06296 0.78889 0.79754 0.0
C917 C 0.06201 0.8065 0.78019 0.0
C918 C 0.12846 0.798 0.8235 0.0
C919 C 0.13935 0.79318 0.81541 0.0
C920 C 0.12971 0.79842 0.838 0.0
C921 C 0.15142 0.78904 0.82198 0.0
C922 C 0.14195 0.79419 0.84418 0.0
N923 N 0.15247 0.78965 0.8361 0.0
C924 C 0.12539 0.7946 0.77623 0.0
C925 C 0.10504 0.78325 0.78329 0.0
C926 C 0.12783 0.78434 0.76621 0.0
N927 N 0.1141 0.7939 0.78447 0.0
C928 C 0.10703 0.77282 0.7734 0.0
C929 C 0.1186 0.77322 0.76474 0.0
H930 H 0.13259 0.80304 0.77757 0.0
H931 H 0.09633 0.78273 0.79014 0.0
C932 C 0.07556 0.80958 0.83747 0.0
N933 N 0.08792 0.80374 0.83475 0.0
C934 C 0.06591 0.80232 0.84537 0.0
C935 C 0.08213 0.78347 0.84789 0.0
C936 C 0.09143 0.79106 0.83991 0.0
C937 C 0.06906 0.78896 0.85046 0.0
H938 H 0.07302 0.8196 0.833 0.0
H939 H 0.1012 0.78653 0.83726 0.0
O940 O 0.11928 0.82659 0.79509 0.0
O941 O 0.10454 0.83218 0.82423 0.0
O942 O 0.0918 0.8128 0.80257 0.0
O943 O 0.11671 0.80249 0.81723 0.0
H944 H 0.1379 0.84203 0.78261 0.0
H945 H 0.1012 0.81826 0.7762 0.0
H946 H 0.13798 0.84792 0.75739 0.0
H947 H 0.10181 0.82462 0.75118 0.0
H948 H 0.10164 0.87036 0.85201 0.0
H949 H 0.11916 0.84956 0.80851 0.0
H950 H 0.09637 0.8456 0.8467 0.0
H951 H 0.12398 0.87417 0.81447 0.0
H952 H 0.08882 0.86734 0.76878 0.0
H953 H 0.05623 0.85054 0.79418 0.0
H954 H 0.17053 0.82403 0.81273 0.0
H955 H 0.15364 0.83265 0.85353 0.0
H956 H 0.07973 0.78988 0.81195 0.0
H957 H 0.07786 0.82197 0.78059 0.0
H958 H 0.05863 0.77959 0.80214 0.0
H959 H 0.05691 0.811 0.77126 0.0
H960 H 0.13855 0.79282 0.80417 0.0
H961 H 0.1214 0.80221 0.8444 0.0
H962 H 0.15998 0.78541 0.81585 0.0
H963 H 0.14313 0.7946 0.85538 0.0
H964 H 0.13701 0.78493 0.75994 0.0
H965 H 0.0996 0.7645 0.77258 0.0
H966 H 0.05599 0.80697 0.84719 0.0
H967 H 0.0849 0.77312 0.85138 0.0
Li968 Li 0.43092 0.84662 0.05152 0.0
Li969 Li 0.43773 0.86792 0.06147 0.0
Li970 Li 0.4507 0.85874 0.0425 0.0
Li971 Li 0.45128 0.84772 0.06582 0.0
C972 C 0.42677 0.86405 0.02872 0.0
N973 N 0.41719 0.86193 0.0017 0.0
C974 C 0.41908 0.87484 0.0229 0.0
C975 C 0.42961 0.85217 0.02078 0.0
C976 C 0.41433 0.87358 0.00923 0.0
C977 C 0.42467 0.8513 0.00715 0.0
C978 C 0.41913 0.85231 0.0769 0.0
C979 C 0.40215 0.84735 0.09443 0.0
N980 N 0.39291 0.85508 0.0872 0.0
C981 C 0.40946 0.86022 0.06964 0.0
C982 C 0.41545 0.84582 0.08939 0.0
C983 C 0.39626 0.86149 0.07502 0.0
C984 C 0.41969 0.82061 0.04738 0.0
N985 N 0.41671 0.83437 0.04624 0.0
C986 C 0.39626 0.82929 0.03372 0.0
C987 C 0.40502 0.83886 0.04005 0.0
C988 C 0.3996 0.81503 0.03383 0.0
C989 C 0.41124 0.81069 0.04122 0.0
H990 H 0.42905 0.8174 0.05243 0.0
H991 H 0.40288 0.84989 0.03936 0.0
C992 C 0.43469 0.89657 0.06077 0.0
N993 N 0.43268 0.88538 0.06919 0.0
C994 C 0.43505 0.90996 0.06639 0.0
C995 C 0.43003 0.90012 0.08903 0.0
C996 C 0.42987 0.88689 0.08298 0.0
C997 C 0.43327 0.91181 0.08081 0.0
H998 H 0.43717 0.89498 0.04989 0.0
H999 H 0.42857 0.87778 0.08948 0.0
C1000 C 0.4606 0.8312 0.04428 0.0
N1001 N 0.48393 0.8161 0.03837 0.0
C1002 C 0.47349 0.83729 0.04592 0.0
C1003 C 0.4596 0.81744 0.03963 0.0
C1004 C 0.48516 0.82948 0.04288 0.0
C1005 C 0.47151 0.80998 0.03669 0.0
C1006 C 0.46247 0.87622 0.06925 0.0
C1007 C 0.46819 0.8886 0.06424 0.0
C1008 C 0.46081 0.87435 0.0836 0.0
C1009 C 0.47202 0.89897 0.07369 0.0
C1010 C 0.4648 0.88495 0.09271 0.0
N1011 N 0.47025 0.89695 0.0876 0.0
C1012 C 0.46378 0.87684 0.02379 0.0
C1013 C 0.46426 0.8532 0.01667 0.0
C1014 C 0.47127 0.88079 0.01205 0.0
N1015 N 0.46069 0.86321 0.02602 0.0
C1016 C 0.47184 0.85666 0.00486 0.0
C1017 C 0.47558 0.87059 0.00252 0.0
H1018 H 0.46042 0.88463 0.03116 0.0
H1019 H 0.46123 0.84251 0.01832 0.0
C1020 C 0.45762 0.82443 0.08197 0.0
N1021 N 0.46243 0.83707 0.07794 0.0
C1022 C 0.46597 0.8153 0.08943 0.0
C1023 C 0.48395 0.83257 0.08872 0.0
C1024 C 0.47528 0.84131 0.08118 0.0
C1025 C 0.47942 0.81926 0.09276 0.0
H1026 H 0.44743 0.82126 0.07896 0.0
H1027 H 0.47896 0.85129 0.07755 0.0
O1028 O 0.43144 0.86524 0.04211 0.0
O1029 O 0.43213 0.85081 0.07188 0.0
O1030 O 0.44901 0.83854 0.04741 0.0
O1031 O 0.45813 0.86615 0.06015 0.0
H1032 H 0.4168 0.88411 0.02891 0.0
H1033 H 0.43548 0.84367 0.02507 0.0
H1034 H 0.40835 0.88186 0.0046 0.0
H1035 H 0.42677 0.84216 0.00091 0.0
H1036 H 0.39917 0.84238 0.10409 0.0
H1037 H 0.41207 0.86536 0.05999 0.0
H1038 H 0.42282 0.83966 0.09512 0.0
H1039 H 0.38868 0.86757 0.06952 0.0
H1040 H 0.38728 0.83304 0.0283 0.0
H1041 H 0.41428 0.79984 0.04147 0.0
H1042 H 0.43778 0.91859 0.05967 0.0
H1043 H 0.42845 0.90109 0.10015 0.0
H1044 H 0.47451 0.84792 0.04946 0.0
H1045 H 0.44972 0.81257 0.03827 0.0
H1046 H 0.49518 0.83406 0.04411 0.0
H1047 H 0.47088 0.79933 0.03307 0.0
H1048 H 0.46956 0.89024 0.05319 0.0
H1049 H 0.45621 0.86492 0.08765 0.0
H1050 H 0.47636 0.90864 0.06995 0.0
H1051 H 0.46345 0.88369 0.10383 0.0
H1052 H 0.47395 0.89165 0.01064 0.0
H1053 H 0.47472 0.84852 0.99761 0.0
H1054 H 0.4621 0.80507 0.0921 0.0
H1055 H 0.49417 0.83614 0.09117 0.0
Li1056 Li 0.87942 0.3165 0.68477 0.0
Li1057 Li 0.89789 0.32511 0.69783 0.0
Li1058 Li 0.90108 0.30429 0.68383 0.0
Li1059 Li 0.88629 0.30412 0.70615 0.0
C1060 C 0.89529 0.33578 0.6705 0.0
N1061 N 0.89142 0.36087 0.65695 0.0
C1062 C 0.8889 0.34684 0.67735 0.0
C1063 C 0.89976 0.33748 0.65678 0.0
C1064 C 0.88703 0.35945 0.67033 0.0
C1065 C 0.89769 0.35024 0.6501 0.0
C1066 C 0.87307 0.33158 0.71386 0.0
C1067 C 0.8688 0.33777 0.73784 0.0
N1068 N 0.86124 0.34884 0.73351 0.0
C1069 C 0.86513 0.34293 0.70965 0.0
C1070 C 0.87481 0.32888 0.72808 0.0
C1071 C 0.85929 0.35157 0.71974 0.0
C1072 C 0.85146 0.32039 0.68135 0.0
N1073 N 0.86347 0.32037 0.67427 0.0
C1074 C 0.85173 0.32062 0.65247 0.0
C1075 C 0.86386 0.3209 0.66012 0.0
C1076 C 0.83915 0.31971 0.6595 0.0
C1077 C 0.83911 0.32008 0.67414 0.0
H1078 H 0.8515 0.31965 0.6926 0.0
H1079 H 0.87358 0.32062 0.65477 0.0
C1080 C 0.92033 0.343 0.69737 0.0
N1081 N 0.90852 0.34044 0.70438 0.0
C1082 C 0.93071 0.35076 0.70363 0.0
C1083 C 0.91605 0.35419 0.7236 0.0
C1084 C 0.90599 0.34635 0.71698 0.0
C1085 C 0.92885 0.3559 0.7172 0.0
H1086 H 0.92214 0.33799 0.68744 0.0
H1087 H 0.89671 0.34405 0.72248 0.0
C1088 C 0.87272 0.29037 0.67928 0.0
N1089 N 0.85184 0.2803 0.66275 0.0
C1090 C 0.86007 0.28709 0.68518 0.0
C1091 C 0.87482 0.28838 0.66501 0.0
C1092 C 0.84962 0.28205 0.67663 0.0
C1093 C 0.86412 0.28331 0.65682 0.0
C1094 C 0.91709 0.31069 0.7117 0.0
C1095 C 0.93016 0.31137 0.70588 0.0
C1096 C 0.91521 0.31404 0.72574 0.0
C1097 C 0.94113 0.31559 0.71419 0.0
C1098 C 0.92643 0.31823 0.7337 0.0
N1099 N 0.93905 0.31893 0.7278 0.0
C1100 C 0.92421 0.29969 0.66698 0.0
C1101 C 0.91206 0.27938 0.67369 0.0
C1102 C 0.93419 0.29161 0.66043 0.0
N1103 N 0.91354 0.29345 0.67355 0.0
C1104 C 0.92174 0.27091 0.66722 0.0
C1105 C 0.93312 0.277 0.66065 0.0
H1106 H 0.92514 0.31093 0.66719 0.0
H1107 H 0.90346 0.27475 0.67905 0.0
C1108 C 0.86823 0.29327 0.72667 0.0
N1109 N 0.88122 0.29313 0.72167 0.0
C1110 C 0.86479 0.28521 0.73829 0.0
C1111 C 0.88813 0.27702 0.73926 0.0
C1112 C 0.8911 0.2852 0.72764 0.0
C1113 C 0.87482 0.27696 0.74475 0.0
H1114 H 0.86059 0.29972 0.72168 0.0
H1115 H 0.90131 0.2852 0.72333 0.0
O1116 O 0.89715 0.32329 0.6771 0.0
O1117 O 0.8786 0.32281 0.70412 0.0
O1118 O 0.88289 0.29582 0.68736 0.0
O1119 O 0.90617 0.30691 0.70364 0.0
H1120 H 0.88551 0.34574 0.68799 0.0
H1121 H 0.90472 0.32899 0.65134 0.0
H1122 H 0.8821 0.3681 0.67551 0.0
H1123 H 0.90107 0.3517 0.63946 0.0
H1124 H 0.87016 0.33587 0.74887 0.0
H1125 H 0.8634 0.34501 0.69871 0.0
H1126 H 0.88088 0.32015 0.73155 0.0
H1127 H 0.85316 0.36042 0.71662 0.0
H1128 H 0.85221 0.32045 0.6412 0.0
H1129 H 0.82972 0.31912 0.68002 0.0
H1130 H 0.94038 0.35196 0.69827 0.0
H1131 H 0.91419 0.35778 0.73412 0.0
H1132 H 0.85828 0.28863 0.69621 0.0
H1133 H 0.88455 0.29094 0.66029 0.0
H1134 H 0.83973 0.2796 0.68102 0.0
H1135 H 0.86555 0.28184 0.64574 0.0
H1136 H 0.93179 0.30882 0.69503 0.0
H1137 H 0.90516 0.31358 0.7304 0.0
H1138 H 0.95128 0.31628 0.70979 0.0
H1139 H 0.9251 0.32099 0.74454 0.0
H1140 H 0.94285 0.29675 0.65564 0.0
H1141 H 0.92038 0.25971 0.66744 0.0
H1142 H 0.85443 0.28554 0.74223 0.0
H1143 H 0.89611 0.27061 0.74372 0.0
Li1144 Li 0.95139 0.64175 0.95279 0.0
Li1145 Li 0.95093 0.65389 0.92997 0.0
Li1146 Li 0.93091 0.65349 0.9448 0.0
Li1147 Li 0.93834 0.63299 0.93378 0.0
C1148 C 0.95996 0.67001 0.95196 0.0
N1149 N 0.98248 0.68644 0.95757 0.0
C1150 C 0.97314 0.66475 0.94996 0.0
C1151 C 0.95825 0.68362 0.95683 0.0
C1152 C 0.98439 0.67322 0.95284 0.0
C1153 C 0.96976 0.69176 0.95961 0.0
C1154 C 0.96301 0.62582 0.92518 0.0
C1155 C 0.96549 0.61804 0.90141 0.0
N1156 N 0.97071 0.60576 0.90607 0.0
C1157 C 0.96849 0.61317 0.92974 0.0
C1158 C 0.96155 0.62832 0.9109 0.0
C1159 C 0.97228 0.60314 0.91991 0.0
C1160 C 0.96432 0.62285 0.97049 0.0
N1161 N 0.96188 0.63667 0.96874 0.0
C1162 C 0.97426 0.64202 0.98954 0.0
C1163 C 0.96635 0.64621 0.97819 0.0
C1164 C 0.97735 0.62783 0.99138 0.0
C1165 C 0.97205 0.61817 0.98177 0.0
H1166 H 0.96017 0.61545 0.96313 0.0
H1167 H 0.96384 0.65709 0.97695 0.0
C1168 C 0.95561 0.67806 0.91458 0.0
N1169 N 0.9613 0.66568 0.91824 0.0
C1170 C 0.96346 0.68822 0.90792 0.0
C1171 C 0.98276 0.67249 0.9086 0.0
C1172 C 0.97453 0.66264 0.91523 0.0
C1173 C 0.97731 0.68559 0.90511 0.0
H1174 H 0.94513 0.68026 0.9174 0.0
H1175 H 0.97885 0.65281 0.91853 0.0
C1176 C 0.92799 0.63502 0.96689 0.0
N1177 N 0.91898 0.63567 0.99419 0.0
C1178 C 0.9205 0.62387 0.97232 0.0
C1179 C 0.93092 0.6465 0.97537 0.0
C1180 C 0.91604 0.62439 0.98614 0.0
C1181 C 0.92627 0.64663 0.98913 0.0
C1182 C 0.91875 0.6483 0.91947 0.0
C1183 C 0.90953 0.63989 0.92677 0.0
C1184 C 0.91458 0.65484 0.90717 0.0
C1185 C 0.89629 0.63817 0.92164 0.0
C1186 C 0.90125 0.65286 0.90237 0.0
N1187 N 0.89245 0.64464 0.90964 0.0
C1188 C 0.91876 0.67888 0.94957 0.0
C1189 C 0.90518 0.66002 0.95752 0.0
C1190 C 0.91012 0.68844 0.95603 0.0
N1191 N 0.91642 0.665 0.95086 0.0
C1192 C 0.89626 0.66921 0.96418 0.0
C1193 C 0.89896 0.68361 0.96386 0.0
H1194 H 0.92775 0.68249 0.94411 0.0
H1195 H 0.90351 0.6489 0.95828 0.0
C1196 C 0.93536 0.60435 0.93391 0.0
N1197 N 0.9336 0.61566 0.9256 0.0
C1198 C 0.93536 0.59101 0.92819 0.0
C1199 C 0.9307 0.60117 0.90561 0.0
C1200 C 0.93087 0.61436 0.91178 0.0
C1201 C 0.93349 0.58932 0.91376 0.0
H1202 H 0.93777 0.60578 0.94482 0.0
H1203 H 0.92972 0.62356 0.90538 0.0
O1204 O 0.94876 0.66204 0.94888 0.0
O1205 O 0.95872 0.63557 0.93463 0.0
O1206 O 0.93239 0.63455 0.95336 0.0
O1207 O 0.93179 0.65022 0.92423 0.0
H1208 H 0.97469 0.65424 0.94622 0.0
H1209 H 0.94814 0.68786 0.95846 0.0
H1210 H 0.99463 0.66929 0.95131 0.0
H1211 H 0.96859 0.70232 0.96339 0.0
H1212 H 0.96431 0.61979 0.89034 0.0
H1213 H 0.9697 0.61105 0.94073 0.0
H1214 H 0.95715 0.63798 0.9072 0.0
H1215 H 0.97644 0.59325 0.92329 0.0
H1216 H 0.97812 0.64987 0.99661 0.0
H1217 H 0.97383 0.60709 0.98296 0.0
H1218 H 0.95891 0.69823 0.9056 0.0
H1219 H 0.99335 0.66999 0.9065 0.0
H1220 H 0.91817 0.61491 0.9659 0.0
H1221 H 0.93665 0.65526 0.97141 0.0
H1222 H 0.91022 0.61583 0.99047 0.0
H1223 H 0.92844 0.65545 0.99579 0.0
H1224 H 0.91253 0.63469 0.93628 0.0
H1225 H 0.9216 0.66139 0.9014 0.0
H1226 H 0.88906 0.63169 0.92718 0.0
H1227 H 0.89789 0.65787 0.89287 0.0
H1228 H 0.91267 0.69941 0.9556 0.0
H1229 H 0.88765 0.66509 0.96994 0.0
H1230 H 0.93777 0.58225 0.93486 0.0
H1231 H 0.92907 0.60034 0.89448 0.0
Li1232 Li 0.61169 0.6927 0.2083 0.0
Li1233 Li 0.5987 0.69266 0.18486 0.0
Li1234 Li 0.59961 0.67214 0.19962 0.0
Li1235 Li 0.61953 0.67929 0.18789 0.0
C1236 C 0.5805 0.68782 0.21193 0.0
N1237 N 0.5576 0.68067 0.22717 0.0
C1238 C 0.56764 0.68774 0.2056 0.0
C1239 C 0.58169 0.68446 0.22605 0.0
C1240 C 0.55619 0.68405 0.21348 0.0
C1241 C 0.57 0.68081 0.23356 0.0
C1242 C 0.62811 0.70487 0.18236 0.0
C1243 C 0.63916 0.71019 0.16054 0.0
N1244 N 0.65083 0.71337 0.16755 0.0
C1245 C 0.64016 0.7083 0.18937 0.0
C1246 C 0.62754 0.70591 0.16784 0.0
C1247 C 0.65155 0.71254 0.18168 0.0
C1248 C 0.62886 0.703 0.22983 0.0
N1249 N 0.61629 0.7038 0.22388 0.0
C1250 C 0.60927 0.72101 0.24033 0.0
C1251 C 0.60655 0.71257 0.22884 0.0
C1252 C 0.62215 0.72046 0.24676 0.0
C1253 C 0.63203 0.71128 0.24137 0.0
H1254 H 0.6364 0.69591 0.22563 0.0
H1255 H 0.59669 0.71306 0.22379 0.0
C1256 C 0.57652 0.69838 0.1671 0.0
N1257 N 0.58782 0.70389 0.17319 0.0
C1258 C 0.56775 0.70689 0.15938 0.0
C1259 C 0.58273 0.72641 0.16399 0.0
C1260 C 0.59112 0.71757 0.17173 0.0
C1261 C 0.57077 0.72112 0.15786 0.0
H1262 H 0.57418 0.68745 0.1685 0.0
H1263 H 0.60013 0.72165 0.17682 0.0
C1264 C 0.62338 0.66483 0.21742 0.0
N1265 N 0.634 0.64752 0.23775 0.0
C1266 C 0.63127 0.65328 0.21368 0.0
C1267 C 0.62107 0.66769 0.23152 0.0
C1268 C 0.6365 0.64462 0.22411 0.0
C1269 C 0.62647 0.65878 0.24163 0.0
C1270 C 0.60366 0.66046 0.17294 0.0
C1271 C 0.60896 0.64931 0.18057 0.0
C1272 C 0.59999 0.65852 0.159 0.0
C1273 C 0.61058 0.63637 0.1741 0.0
C1274 C 0.60177 0.64542 0.1529 0.0
N1275 N 0.60699 0.63472 0.16051 0.0
C1276 C 0.5762 0.65553 0.19834 0.0
C1277 C 0.5898 0.65129 0.21832 0.0
C1278 C 0.56537 0.64799 0.2041 0.0
N1279 N 0.58787 0.6575 0.20576 0.0
C1280 C 0.57931 0.64362 0.22443 0.0
C1281 C 0.5667 0.6424 0.21756 0.0
H1282 H 0.57489 0.66074 0.18843 0.0
H1283 H 0.59901 0.65311 0.22413 0.0
C1284 C 0.64752 0.67464 0.18691 0.0
N1285 N 0.63608 0.67427 0.17893 0.0
C1286 C 0.66037 0.6742 0.1807 0.0
C1287 C 0.64941 0.67207 0.15822 0.0
C1288 C 0.63674 0.67261 0.16488 0.0
C1289 C 0.66145 0.67339 0.16612 0.0
H1290 H 0.64665 0.67629 0.19803 0.0
H1291 H 0.62747 0.67263 0.15876 0.0
O1292 O 0.5919 0.69096 0.20429 0.0
O1293 O 0.61702 0.70018 0.18964 0.0
O1294 O 0.61841 0.67359 0.20737 0.0
O1295 O 0.60206 0.67326 0.17898 0.0
H1296 H 0.56654 0.69032 0.19469 0.0
H1297 H 0.59157 0.68446 0.2311 0.0
H1298 H 0.54619 0.68381 0.20869 0.0
H1299 H 0.57079 0.67805 0.24446 0.0
H1300 H 0.63892 0.71091 0.14929 0.0
H1301 H 0.64076 0.7075 0.2006 0.0
H1302 H 0.6183 0.7032 0.16227 0.0
H1303 H 0.66099 0.71511 0.18695 0.0
H1304 H 0.60144 0.72813 0.24394 0.0
H1305 H 0.64206 0.71046 0.24605 0.0
H1306 H 0.55868 0.70241 0.15472 0.0
H1307 H 0.58533 0.73735 0.1632 0.0
H1308 H 0.63342 0.65105 0.20285 0.0
H1309 H 0.61504 0.67659 0.23463 0.0
H1310 H 0.64259 0.63563 0.22136 0.0
H1311 H 0.62467 0.66082 0.25257 0.0
H1312 H 0.61171 0.65059 0.19138 0.0
H1313 H 0.59586 0.66706 0.15296 0.0
H1314 H 0.61468 0.62765 0.1799 0.0
H1315 H 0.59901 0.64378 0.1421 0.0
H1316 H 0.55585 0.64719 0.19842 0.0
H1317 H 0.58075 0.63966 0.2349 0.0
H1318 H 0.66931 0.67552 0.18721 0.0
H1319 H 0.64977 0.67132 0.14697 0.0
Li1320 Li 0.56433 0.36935 0.43637 0.0
Li1321 Li 0.57187 0.34984 0.4491 0.0
Li1322 Li 0.55194 0.34759 0.43425 0.0
Li1323 Li 0.55131 0.36192 0.45694 0.0
C1324 C 0.58368 0.35327 0.42273 0.0
N1325 N 0.60924 0.35725 0.41119 0.0
C1326 C 0.59392 0.35992 0.43038 0.0
C1327 C 0.58643 0.34862 0.40922 0.0
C1328 C 0.60678 0.36184 0.42436 0.0
C1329 C 0.59942 0.35074 0.40356 0.0
C1330 C 0.57757 0.37442 0.46666 0.0
C1331 C 0.58219 0.37663 0.49125 0.0
N1332 N 0.59296 0.38509 0.48831 0.0
C1333 C 0.58862 0.38322 0.46389 0.0
C1334 C 0.57426 0.37116 0.48046 0.0
C1335 C 0.59631 0.38847 0.47497 0.0
C1336 C 0.56824 0.39784 0.43451 0.0
N1337 N 0.56884 0.38598 0.42683 0.0
C1338 C 0.57082 0.39909 0.40578 0.0
C1339 C 0.5705 0.38632 0.41277 0.0
C1340 C 0.5693 0.41154 0.41337 0.0
C1341 C 0.56845 0.4108 0.42797 0.0
H1342 H 0.5666 0.39721 0.44564 0.0
H1343 H 0.57073 0.37669 0.40691 0.0
C1344 C 0.58722 0.32556 0.45031 0.0
N1345 N 0.58644 0.33853 0.45595 0.0
C1346 C 0.59408 0.31494 0.45738 0.0
C1347 C 0.60079 0.33175 0.47483 0.0
C1348 C 0.59368 0.34198 0.46752 0.0
C1349 C 0.60033 0.31787 0.47022 0.0
H1350 H 0.58138 0.32314 0.44105 0.0
H1351 H 0.59324 0.35237 0.47168 0.0
C1352 C 0.53913 0.37655 0.42955 0.0
N1353 N 0.53039 0.39778 0.41227 0.0
C1354 C 0.53545 0.38945 0.43517 0.0
C1355 C 0.53823 0.37438 0.41518 0.0
C1356 C 0.53109 0.40007 0.42624 0.0
C1357 C 0.53381 0.38526 0.40661 0.0
C1358 C 0.55625 0.32972 0.46118 0.0
C1359 C 0.55501 0.31678 0.45463 0.0
C1360 C 0.56031 0.33036 0.47514 0.0
C1361 C 0.55809 0.30467 0.46209 0.0
C1362 C 0.56335 0.31802 0.48223 0.0
N1363 N 0.56219 0.30554 0.47561 0.0
C1364 C 0.54739 0.32667 0.41404 0.0
C1365 C 0.52762 0.33554 0.42525 0.0
C1366 C 0.53949 0.31711 0.40659 0.0
N1367 N 0.54134 0.33554 0.42319 0.0
C1368 C 0.51934 0.32615 0.41805 0.0
C1369 C 0.52528 0.31668 0.40866 0.0
H1370 H 0.55837 0.32685 0.41277 0.0
H1371 H 0.52315 0.34271 0.43266 0.0
C1372 C 0.54012 0.38044 0.4768 0.0
N1373 N 0.54019 0.36707 0.47215 0.0
C1374 C 0.53185 0.3842 0.48806 0.0
C1375 C 0.52402 0.36033 0.4895 0.0
C1376 C 0.53241 0.35705 0.47822 0.0
C1377 C 0.52363 0.37408 0.49453 0.0
H1378 H 0.54649 0.38816 0.47177 0.0
H1379 H 0.53264 0.34652 0.47422 0.0
O1380 O 0.57095 0.35137 0.42831 0.0
O1381 O 0.56985 0.36934 0.45591 0.0
O1382 O 0.54395 0.36621 0.43802 0.0
O1383 O 0.55361 0.3417 0.45393 0.0
H1384 H 0.592 0.36352 0.44084 0.0
H1385 H 0.57859 0.34348 0.40315 0.0
H1386 H 0.6148 0.36697 0.43017 0.0
H1387 H 0.60169 0.34722 0.39311 0.0
H1388 H 0.57979 0.37414 0.50197 0.0
H1389 H 0.59124 0.386 0.45328 0.0
H1390 H 0.56574 0.36442 0.48283 0.0
H1391 H 0.60491 0.39526 0.47298 0.0
H1392 H 0.57162 0.39918 0.39453 0.0
H1393 H 0.56697 0.42005 0.43425 0.0
H1394 H 0.59346 0.3044 0.45342 0.0
H1395 H 0.60586 0.33452 0.48448 0.0
H1396 H 0.53615 0.39129 0.44627 0.0
H1397 H 0.54111 0.36446 0.41068 0.0
H1398 H 0.52833 0.41015 0.43042 0.0
H1399 H 0.53317 0.38378 0.39545 0.0
H1400 H 0.55186 0.31609 0.44384 0.0
H1401 H 0.56128 0.34028 0.48038 0.0
H1402 H 0.55728 0.29459 0.45712 0.0
H1403 H 0.56666 0.31837 0.49298 0.0
H1404 H 0.54449 0.30989 0.39957 0.0
H1405 H 0.50842 0.32631 0.41982 0.0
H1406 H 0.53195 0.39489 0.49169 0.0
H1407 H 0.51768 0.35226 0.49401 0.0
Li1408 Li 0.2931 0.38785 0.19406 0.0
Li1409 Li 0.31303 0.37887 0.18143 0.0
Li1410 Li 0.31503 0.40105 0.19569 0.0
Li1411 Li 0.30292 0.40032 0.17365 0.0
C1412 C 0.31102 0.37456 0.21428 0.0
N1413 N 0.31171 0.35997 0.23917 0.0
C1414 C 0.30987 0.36004 0.21435 0.0
C1415 C 0.3128 0.38162 0.22692 0.0
C1416 C 0.31015 0.35286 0.22701 0.0
C1417 C 0.31304 0.37407 0.23937 0.0
C1418 C 0.29083 0.37107 0.16568 0.0
C1419 C 0.29455 0.35805 0.14452 0.0
N1420 N 0.28447 0.34905 0.1483 0.0
C1421 C 0.28045 0.36175 0.16932 0.0
C1422 C 0.29788 0.36927 0.15315 0.0
C1423 C 0.27741 0.35066 0.1604 0.0
C1424 C 0.2664 0.39216 0.20481 0.0
N1425 N 0.27665 0.38269 0.20348 0.0
C1426 C 0.2637 0.36572 0.21605 0.0
C1427 C 0.27536 0.36954 0.20859 0.0
C1428 C 0.25329 0.37553 0.21823 0.0
C1429 C 0.25464 0.38885 0.21236 0.0
H1430 H 0.26736 0.40236 0.20014 0.0
H1431 H 0.28335 0.36201 0.20687 0.0
C1432 C 0.33592 0.36226 0.17469 0.0
N1433 N 0.32221 0.36199 0.1769 0.0
C1434 C 0.34329 0.34981 0.17388 0.0
C1435 C 0.32218 0.33711 0.17695 0.0
C1436 C 0.31525 0.34976 0.1777 0.0
C1437 C 0.33646 0.33701 0.17546 0.0
H1438 H 0.34122 0.37215 0.17424 0.0
H1439 H 0.30444 0.34979 0.17987 0.0
C1440 C 0.29147 0.41686 0.2018 0.0
N1441 N 0.28152 0.43428 0.22239 0.0
C1442 C 0.28664 0.43015 0.1984 0.0
C1443 C 0.29107 0.4124 0.21565 0.0
C1444 C 0.28171 0.43882 0.20896 0.0
C1445 C 0.28604 0.42135 0.22591 0.0
C1446 C 0.32854 0.40351 0.16605 0.0
C1447 C 0.33239 0.41746 0.16754 0.0
C1448 C 0.33066 0.39674 0.15334 0.0
C1449 C 0.33805 0.42449 0.15618 0.0
C1450 C 0.33636 0.40412 0.14223 0.0
N1451 N 0.33989 0.41774 0.14385 0.0
C1452 C 0.33637 0.4069 0.21507 0.0
C1453 C 0.32388 0.4264 0.20688 0.0
C1454 C 0.34421 0.41548 0.22372 0.0
N1455 N 0.32628 0.41246 0.20709 0.0
C1456 C 0.33135 0.43532 0.21542 0.0
C1457 C 0.34165 0.42991 0.22407 0.0
H1458 H 0.33825 0.39579 0.21481 0.0
H1459 H 0.31611 0.43062 0.2001 0.0
C1460 C 0.29117 0.40786 0.14736 0.0
N1461 N 0.29801 0.4123 0.15885 0.0
C1462 C 0.28489 0.41752 0.13855 0.0
C1463 C 0.29344 0.43605 0.15323 0.0
C1464 C 0.29967 0.42606 0.16161 0.0
C1465 C 0.28543 0.43182 0.14183 0.0
H1466 H 0.28986 0.39684 0.1455 0.0
H1467 H 0.30504 0.42925 0.17092 0.0
O1468 O 0.311 0.38175 0.20192 0.0
O1469 O 0.29401 0.3819 0.17435 0.0
O1470 O 0.29649 0.40829 0.1916 0.0
O1471 O 0.32281 0.39651 0.177 0.0
H1472 H 0.30858 0.35435 0.20475 0.0
H1473 H 0.31407 0.39279 0.22716 0.0
H1474 H 0.30914 0.34164 0.22718 0.0
H1475 H 0.31435 0.37944 0.2492 0.0
H1476 H 0.29997 0.3565 0.13483 0.0
H1477 H 0.27482 0.36304 0.17893 0.0
H1478 H 0.30588 0.37644 0.15015 0.0
H1479 H 0.26944 0.34334 0.16311 0.0
H1480 H 0.26302 0.35532 0.22038 0.0
H1481 H 0.24671 0.39662 0.21359 0.0
H1482 H 0.35428 0.35022 0.17262 0.0
H1483 H 0.3165 0.32755 0.17851 0.0
H1484 H 0.2867 0.43377 0.18773 0.0
H1485 H 0.29434 0.40204 0.21839 0.0
H1486 H 0.278 0.44915 0.20647 0.0
H1487 H 0.28566 0.41799 0.23667 0.0
H1488 H 0.33091 0.42282 0.17734 0.0
H1489 H 0.32798 0.38587 0.1521 0.0
H1490 H 0.34098 0.43532 0.15715 0.0
H1491 H 0.338 0.39903 0.13231 0.0
H1492 H 0.35221 0.41087 0.22999 0.0
H1493 H 0.32887 0.44631 0.21539 0.0
H1494 H 0.27905 0.41378 0.12974 0.0
H1495 H 0.29404 0.44687 0.15637 0.0
Li1496 Li 0.80363 0.10027 0.82351 0.0
Li1497 Li 0.81895 0.09882 0.80298 0.0
Li1498 Li 0.81793 0.11897 0.8177 0.0
Li1499 Li 0.79806 0.1142 0.80296 0.0
C1500 C 0.83615 0.10075 0.8294 0.0
N1501 N 0.86123 0.10265 0.84243 0.0
C1502 C 0.8481 0.09764 0.82206 0.0
C1503 C 0.83693 0.10462 0.84342 0.0
C1504 C 0.86069 0.09871 0.82883 0.0
C1505 C 0.84972 0.10559 0.8498 0.0
C1506 C 0.79501 0.08644 0.79325 0.0
C1507 C 0.79302 0.08402 0.76832 0.0
N1508 N 0.78672 0.07152 0.77014 0.0
C1509 C 0.78852 0.07358 0.79488 0.0
C1510 C 0.79729 0.09173 0.77987 0.0
C1511 C 0.7844 0.06619 0.78307 0.0
C1512 C 0.78092 0.08779 0.83439 0.0
N1513 N 0.79451 0.08919 0.83676 0.0
C1514 C 0.7936 0.07254 0.85524 0.0
C1515 C 0.80097 0.08193 0.84699 0.0
C1516 C 0.77953 0.0708 0.8529 0.0
C1517 C 0.77316 0.07872 0.84246 0.0
H1518 H 0.77619 0.09341 0.8259 0.0
H1519 H 0.81187 0.0831 0.84843 0.0
C1520 C 0.83276 0.08995 0.77858 0.0
N1521 N 0.82844 0.08606 0.79146 0.0
C1522 C 0.83843 0.08012 0.76956 0.0
C1523 C 0.83483 0.06244 0.78714 0.0
C1524 C 0.82941 0.07266 0.79589 0.0
C1525 C 0.83935 0.06608 0.7737 0.0
H1526 H 0.83147 0.1006 0.77516 0.0
H1527 H 0.82556 0.06985 0.80608 0.0
C1528 C 0.79092 0.12189 0.83432 0.0
N1529 N 0.77568 0.12446 0.8584 0.0
C1530 C 0.77669 0.12267 0.83359 0.0
C1531 C 0.79742 0.1226 0.84726 0.0
C1532 C 0.76916 0.12392 0.8459 0.0
C1533 C 0.78953 0.12385 0.85933 0.0
C1534 C 0.8263 0.12837 0.79319 0.0
C1535 C 0.82213 0.14226 0.79198 0.0
C1536 C 0.84008 0.12499 0.79138 0.0
C1537 C 0.8318 0.15251 0.78889 0.0
C1538 C 0.84943 0.13554 0.78825 0.0
N1539 N 0.84513 0.14896 0.78707 0.0
C1540 C 0.84196 0.13535 0.82401 0.0
C1541 C 0.82048 0.14645 0.82637 0.0
C1542 C 0.84866 0.14816 0.82483 0.0
N1543 N 0.82808 0.13478 0.82427 0.0
C1544 C 0.82674 0.15949 0.82706 0.0
C1545 C 0.84099 0.16052 0.82561 0.0
H1546 H 0.84784 0.1261 0.82191 0.0
H1547 H 0.80946 0.1458 0.82623 0.0
C1548 C 0.77125 0.11264 0.79382 0.0
N1549 N 0.78297 0.12006 0.7921 0.0
C1550 C 0.75992 0.11531 0.78544 0.0
C1551 C 0.77273 0.13363 0.77405 0.0
C1552 C 0.78391 0.13043 0.78251 0.0
C1553 C 0.76064 0.12586 0.77535 0.0
H1554 H 0.77085 0.10439 0.8015 0.0
H1555 H 0.79341 0.13596 0.78115 0.0
O1556 O 0.82373 0.09955 0.82302 0.0
O1557 O 0.79921 0.09372 0.80472 0.0
O1558 O 0.79847 0.12042 0.82243 0.0
O1559 O 0.81702 0.11819 0.79642 0.0
H1560 H 0.84767 0.09451 0.81124 0.0
H1561 H 0.82776 0.10682 0.84931 0.0
H1562 H 0.87003 0.09641 0.82326 0.0
H1563 H 0.85049 0.10864 0.86063 0.0
H1564 H 0.79473 0.08797 0.7579 0.0
H1565 H 0.78672 0.06935 0.80519 0.0
H1566 H 0.80234 0.10165 0.77841 0.0
H1567 H 0.77937 0.05621 0.78417 0.0
H1568 H 0.79884 0.06655 0.86317 0.0
H1569 H 0.76241 0.07745 0.84012 0.0
H1570 H 0.84192 0.0835 0.75939 0.0
H1571 H 0.83505 0.05175 0.79072 0.0
H1572 H 0.77152 0.12221 0.82364 0.0
H1573 H 0.80844 0.12217 0.84796 0.0
H1574 H 0.75813 0.12443 0.84551 0.0
H1575 H 0.79442 0.12434 0.86943 0.0
H1576 H 0.8116 0.14515 0.79372 0.0
H1577 H 0.84358 0.11437 0.79262 0.0
H1578 H 0.82873 0.16331 0.78803 0.0
H1579 H 0.86013 0.13307 0.78686 0.0
H1580 H 0.85968 0.14843 0.82387 0.0
H1581 H 0.82035 0.16868 0.82748 0.0
H1582 H 0.75075 0.10913 0.78672 0.0
H1583 H 0.77368 0.14171 0.76622 0.0
Li1584 Li 0.15066 0.55203 0.07831 0.0
Li1585 Li 0.13104 0.56356 0.07002 0.0
Li1586 Li 0.14019 0.54365 0.05669 0.0
Li1587 Li 0.1526 0.56734 0.0581 0.0
C1588 C 0.12713 0.53316 0.08311 0.0
N1589 N 0.11677 0.5114 0.09876 0.0
C1590 C 0.11809 0.53581 0.09407 0.0
C1591 C 0.13074 0.51941 0.07998 0.0
C1592 C 0.11301 0.52468 0.1019 0.0
C1593 C 0.12544 0.50856 0.08805 0.0
C1594 C 0.14542 0.57811 0.09039 0.0
C1595 C 0.14645 0.59731 0.10657 0.0
N1596 N 0.14021 0.58929 0.11638 0.0
C1597 C 0.13904 0.57006 0.10063 0.0
C1598 C 0.14919 0.59184 0.09336 0.0
C1599 C 0.13649 0.5759 0.1137 0.0
C1600 C 0.17444 0.55068 0.09398 0.0
N1601 N 0.1615 0.54556 0.09353 0.0
C1602 C 0.1674 0.52735 0.10932 0.0
C1603 C 0.15766 0.53464 0.10164 0.0
C1604 C 0.18124 0.53122 0.10842 0.0
C1605 C 0.18459 0.54353 0.10126 0.0
H1606 H 0.17716 0.5595 0.08753 0.0
H1607 H 0.14728 0.53095 0.10149 0.0
C1608 C 0.1028 0.56389 0.07265 0.0
N1609 N 0.11403 0.57206 0.0741 0.0
C1610 C 0.08983 0.56984 0.0723 0.0
C1611 C 0.10018 0.59245 0.07587 0.0
C1612 C 0.11298 0.58604 0.07611 0.0
C1613 C 0.08842 0.58438 0.07344 0.0
H1614 H 0.104 0.55284 0.07075 0.0
H1615 H 0.12212 0.59232 0.07698 0.0
C1616 C 0.17132 0.54069 0.06261 0.0
N1617 N 0.19487 0.526 0.06862 0.0
C1618 C 0.1841 0.54691 0.06074 0.0
C1619 C 0.17053 0.52693 0.06733 0.0
C1620 C 0.19589 0.53932 0.06387 0.0
C1621 C 0.18255 0.5197 0.07039 0.0
C1622 C 0.12423 0.56993 0.04409 0.0
C1623 C 0.11245 0.56318 0.03939 0.0
C1624 C 0.12493 0.58447 0.04376 0.0
C1625 C 0.10146 0.57114 0.03459 0.0
C1626 C 0.11373 0.59205 0.03887 0.0
N1627 N 0.10232 0.58529 0.03445 0.0
C1628 C 0.12413 0.52305 0.04309 0.0
C1629 C 0.14773 0.52318 0.03759 0.0
C1630 C 0.12183 0.51227 0.03357 0.0
N1631 N 0.1369 0.52834 0.04475 0.0
C1632 C 0.14594 0.51234 0.0281 0.0
C1633 C 0.13281 0.5069 0.02578 0.0
H1634 H 0.1157 0.52738 0.04896 0.0
H1635 H 0.15776 0.52764 0.03907 0.0
C1636 C 0.17485 0.58563 0.05346 0.0
N1637 N 0.16382 0.57935 0.04758 0.0
C1638 C 0.18375 0.59352 0.04524 0.0
C1639 C 0.16947 0.58866 0.02525 0.0
C1640 C 0.16096 0.58076 0.0338 0.0
C1641 C 0.18113 0.59502 0.03092 0.0
H1642 H 0.17689 0.58421 0.06446 0.0
H1643 H 0.15221 0.57547 0.0294 0.0
O1644 O 0.13213 0.54393 0.07528 0.0
O1645 O 0.14793 0.5727 0.07745 0.0
O1646 O 0.15965 0.5481 0.05995 0.0
O1647 O 0.13489 0.56236 0.04933 0.0
H1648 H 0.115 0.54637 0.09652 0.0
H1649 H 0.13754 0.51712 0.07142 0.0
H1650 H 0.10605 0.52659 0.11044 0.0
H1651 H 0.1282 0.49789 0.08578 0.0
H1652 H 0.14929 0.60793 0.10901 0.0
H1653 H 0.13614 0.55942 0.09853 0.0
H1654 H 0.15413 0.5982 0.08552 0.0
H1655 H 0.13155 0.56978 0.12173 0.0
H1656 H 0.16425 0.51825 0.11516 0.0
H1657 H 0.19507 0.54697 0.10023 0.0
H1658 H 0.08113 0.56322 0.07015 0.0
H1659 H 0.09955 0.60367 0.0769 0.0
H1660 H 0.18491 0.55752 0.05704 0.0
H1661 H 0.16074 0.52196 0.06882 0.0
H1662 H 0.20585 0.54403 0.06257 0.0
H1663 H 0.18207 0.50911 0.07422 0.0
H1664 H 0.11174 0.55193 0.03963 0.0
H1665 H 0.13395 0.58985 0.04747 0.0
H1666 H 0.09223 0.56606 0.03103 0.0
H1667 H 0.11407 0.60332 0.03868 0.0
H1668 H 0.11151 0.50852 0.03202 0.0
H1669 H 0.15475 0.50839 0.02254 0.0
H1670 H 0.19262 0.59832 0.05 0.0
H1671 H 0.1672 0.5894 0.01422 0.0
Li1672 Li 0.69499 0.90036 0.32674 0.0
Li1673 Li 0.67927 0.90496 0.30745 0.0
Li1674 Li 0.6802 0.88208 0.31869 0.0
Li1675 Li 0.69889 0.89023 0.30366 0.0
C1676 C 0.66334 0.89751 0.33442 0.0
N1677 N 0.6398 0.89119 0.34897 0.0
C1678 C 0.65059 0.90102 0.32891 0.0
C1679 C 0.66415 0.89094 0.34739 0.0
C1680 C 0.6388 0.8977 0.33642 0.0
C1681 C 0.65213 0.88778 0.35457 0.0
C1682 C 0.6991 0.92344 0.30446 0.0
C1683 C 0.6972 0.94043 0.28601 0.0
N1684 N 0.69842 0.95083 0.29555 0.0
C1685 C 0.70038 0.93431 0.31407 0.0
C1686 C 0.69757 0.92652 0.2903 0.0
C1687 C 0.70001 0.94808 0.30936 0.0
C1688 C 0.71802 0.90995 0.34038 0.0
N1689 N 0.70422 0.9091 0.3416 0.0
C1690 C 0.70431 0.92547 0.36033 0.0
C1691 C 0.69729 0.91638 0.35148 0.0
C1692 C 0.71853 0.92685 0.359 0.0
C1693 C 0.72544 0.91865 0.34917 0.0
H1694 H 0.72315 0.9046 0.33199 0.0
H1695 H 0.68626 0.91581 0.35188 0.0
C1696 C 0.66229 0.91609 0.28651 0.0
N1697 N 0.66783 0.91863 0.29923 0.0
C1698 C 0.65492 0.92647 0.27966 0.0
C1699 C 0.65878 0.94174 0.29932 0.0
C1700 C 0.66596 0.93101 0.30585 0.0
C1701 C 0.65329 0.93957 0.28597 0.0
H1702 H 0.66382 0.90611 0.28156 0.0
H1703 H 0.67038 0.93265 0.31605 0.0
C1704 C 0.70935 0.877 0.33167 0.0
N1705 N 0.72852 0.8699 0.35155 0.0
C1706 C 0.72312 0.87588 0.32802 0.0
C1707 C 0.70529 0.87437 0.34538 0.0
C1708 C 0.73267 0.87231 0.33824 0.0
C1709 C 0.71515 0.87084 0.3553 0.0
C1710 C 0.68131 0.87902 0.28654 0.0
C1711 C 0.67993 0.86452 0.28677 0.0
C1712 C 0.68499 0.8857 0.27415 0.0
C1713 C 0.68235 0.85693 0.27459 0.0
C1714 C 0.68735 0.87774 0.2622 0.0
N1715 N 0.68599 0.86364 0.26267 0.0
C1716 C 0.65645 0.86555 0.31966 0.0
C1717 C 0.67676 0.85415 0.32678 0.0
C1718 C 0.6494 0.85292 0.31955 0.0
N1719 N 0.66994 0.86588 0.32299 0.0
C1720 C 0.67016 0.84125 0.32656 0.0
C1721 C 0.6564 0.84045 0.3224 0.0
H1722 H 0.65139 0.87493 0.31621 0.0
H1723 H 0.68758 0.85464 0.32897 0.0
C1724 C 0.72007 0.89483 0.28437 0.0
N1725 N 0.71276 0.88476 0.29096 0.0
C1726 C 0.73036 0.89121 0.275 0.0
C1727 C 0.72563 0.86691 0.27962 0.0
C1728 C 0.71539 0.87101 0.2889 0.0
C1729 C 0.73323 0.8771 0.27249 0.0
H1730 H 0.71799 0.90567 0.28645 0.0
H1731 H 0.70952 0.86324 0.29445 0.0
O1732 O 0.675 0.90064 0.32723 0.0
O1733 O 0.69919 0.90987 0.30889 0.0
O1734 O 0.69987 0.88056 0.32184 0.0
O1735 O 0.67923 0.88663 0.29842 0.0
H1736 H 0.64979 0.90614 0.3189 0.0
H1737 H 0.67396 0.88831 0.35186 0.0
H1738 H 0.62884 0.90027 0.33225 0.0
H1739 H 0.65259 0.88264 0.36459 0.0
H1740 H 0.6959 0.94295 0.2751 0.0
H1741 H 0.70155 0.93217 0.32506 0.0
H1742 H 0.69646 0.91826 0.28271 0.0
H1743 H 0.70094 0.95659 0.3167 0.0
H1744 H 0.69866 0.93175 0.36774 0.0
H1745 H 0.73635 0.91969 0.34759 0.0
H1746 H 0.65093 0.9244 0.26933 0.0
H1747 H 0.65759 0.95164 0.3046 0.0
H1748 H 0.72642 0.87787 0.31744 0.0
H1749 H 0.69466 0.87508 0.34833 0.0
H1750 H 0.74338 0.87148 0.33558 0.0
H1751 H 0.71217 0.86883 0.36597 0.0
H1752 H 0.67712 0.85915 0.29624 0.0
H1753 H 0.68619 0.8969 0.2738 0.0
H1754 H 0.68136 0.8457 0.27463 0.0
H1755 H 0.6903 0.88277 0.25257 0.0
H1756 H 0.63875 0.85288 0.3165 0.0
H1757 H 0.67609 0.83195 0.32862 0.0
H1758 H 0.73613 0.89939 0.26992 0.0
H1759 H 0.72746 0.85591 0.27792 0.0
Li1760 Li 0.34535 0.44359 0.576 0.0
Li1761 Li 0.36477 0.43209 0.56715 0.0
Li1762 Li 0.35598 0.45129 0.55391 0.0
Li1763 Li 0.34354 0.42811 0.55539 0.0
C1764 C 0.36498 0.46505 0.57816 0.0
N1765 N 0.36691 0.49169 0.58892 0.0
C1766 C 0.37529 0.46834 0.58768 0.0
C1767 C 0.3557 0.47532 0.57407 0.0
C1768 C 0.37608 0.48186 0.59302 0.0
C1769 C 0.35683 0.48872 0.57963 0.0
C1770 C 0.35066 0.41812 0.58813 0.0
C1771 C 0.34792 0.40054 0.60589 0.0
N1772 N 0.35567 0.40832 0.61473 0.0
C1773 C 0.3586 0.42593 0.59739 0.0
C1774 C 0.34527 0.40532 0.5924 0.0
C1775 C 0.36101 0.4208 0.61079 0.0
C1776 C 0.32091 0.4472 0.58949 0.0
N1777 N 0.33442 0.45009 0.5909 0.0
C1778 C 0.32974 0.46679 0.60866 0.0
C1779 C 0.33903 0.45905 0.6008 0.0
C1780 C 0.31565 0.46521 0.60625 0.0
C1781 C 0.31127 0.45472 0.59706 0.0
H1782 H 0.31759 0.43999 0.58151 0.0
H1783 H 0.34985 0.4609 0.60198 0.0
C1784 C 0.39288 0.43175 0.57162 0.0
N1785 N 0.38163 0.42346 0.57156 0.0
C1786 C 0.40588 0.42585 0.57168 0.0
C1787 C 0.39545 0.40301 0.57263 0.0
C1788 C 0.38262 0.40937 0.57256 0.0
C1789 C 0.40727 0.41127 0.57167 0.0
H1790 H 0.39173 0.44292 0.57062 0.0
H1791 H 0.37347 0.40306 0.57236 0.0
C1792 C 0.32534 0.45412 0.55313 0.0
N1793 N 0.30243 0.4678 0.54325 0.0
C1794 C 0.31902 0.44971 0.54083 0.0
C1795 C 0.31997 0.46552 0.56039 0.0
C1796 C 0.30747 0.45676 0.536 0.0
C1797 C 0.3084 0.47228 0.55523 0.0
C1798 C 0.37251 0.42635 0.54149 0.0
C1799 C 0.38412 0.43414 0.53815 0.0
C1800 C 0.37274 0.41186 0.54005 0.0
C1801 C 0.39588 0.42725 0.5336 0.0
C1802 C 0.3847 0.40536 0.53546 0.0
N1803 N 0.39593 0.41313 0.53239 0.0
C1804 C 0.37171 0.47366 0.54311 0.0
C1805 C 0.35028 0.47028 0.53216 0.0
C1806 C 0.37456 0.48493 0.53435 0.0
N1807 N 0.3597 0.46663 0.54188 0.0
C1808 C 0.35263 0.48154 0.5233 0.0
C1809 C 0.36495 0.489 0.52424 0.0
H1810 H 0.3791 0.47044 0.55085 0.0
H1811 H 0.34095 0.46442 0.53119 0.0
C1812 C 0.31926 0.41318 0.55115 0.0
N1813 N 0.33149 0.41653 0.54536 0.0
C1814 C 0.30921 0.40665 0.54314 0.0
C1815 C 0.32477 0.40678 0.52354 0.0
C1816 C 0.3345 0.4133 0.53192 0.0
C1817 C 0.31181 0.40366 0.52904 0.0
H1818 H 0.31711 0.41616 0.5618 0.0
H1819 H 0.34423 0.41634 0.52754 0.0
O1820 O 0.36404 0.45179 0.57301 0.0
O1821 O 0.34815 0.42285 0.57492 0.0
O1822 O 0.33657 0.44716 0.55812 0.0
O1823 O 0.36105 0.43286 0.54639 0.0
H1824 H 0.38255 0.46049 0.59097 0.0
H1825 H 0.34778 0.47301 0.56662 0.0
H1826 H 0.38399 0.48454 0.60043 0.0
H1827 H 0.3497 0.49676 0.57655 0.0
H1828 H 0.34382 0.39066 0.60934 0.0
H1829 H 0.36289 0.43583 0.59431 0.0
H1830 H 0.33911 0.39915 0.58535 0.0
H1831 H 0.36714 0.42673 0.61805 0.0
H1832 H 0.33354 0.47452 0.61591 0.0
H1833 H 0.30055 0.45318 0.59478 0.0
H1834 H 0.41469 0.43261 0.57073 0.0
H1835 H 0.39609 0.39174 0.57276 0.0
H1836 H 0.32308 0.44106 0.53493 0.0
H1837 H 0.32461 0.46911 0.56996 0.0
H1838 H 0.30252 0.45346 0.52647 0.0
H1839 H 0.30414 0.48108 0.56078 0.0
H1840 H 0.3841 0.44536 0.53925 0.0
H1841 H 0.36386 0.40568 0.54269 0.0
H1842 H 0.40498 0.43313 0.53111 0.0
H1843 H 0.38508 0.39414 0.53444 0.0
H1844 H 0.38429 0.4902 0.53532 0.0
H1845 H 0.34484 0.48436 0.5158 0.0
H1846 H 0.29932 0.40458 0.54774 0.0
H1847 H 0.32724 0.40452 0.51278 0.0
Li1848 Li 0.18007 0.61511 0.68039 0.0
Li1849 Li 0.19924 0.60774 0.69525 0.0
Li1850 Li 0.1956 0.59771 0.67216 0.0
Li1851 Li 0.1801 0.59208 0.69152 0.0
C1852 C 0.20893 0.62164 0.66735 0.0
N1853 N 0.22777 0.62952 0.64742 0.0
C1854 C 0.22274 0.62286 0.67086 0.0
C1855 C 0.20468 0.62458 0.65377 0.0
C1856 C 0.23211 0.62682 0.66061 0.0
C1857 C 0.21437 0.6285 0.64382 0.0
C1858 C 0.18113 0.61751 0.7128 0.0
C1859 C 0.18637 0.61792 0.73736 0.0
N1860 N 0.18486 0.63201 0.73738 0.0
C1861 C 0.17957 0.63199 0.71308 0.0
C1862 C 0.18448 0.6104 0.72504 0.0
C1863 C 0.18151 0.63913 0.72561 0.0
C1864 C 0.15555 0.63007 0.68044 0.0
N1865 N 0.16893 0.63082 0.6768 0.0
C1866 C 0.16792 0.65567 0.676 0.0
C1867 C 0.17506 0.64322 0.67401 0.0
C1868 C 0.15438 0.65526 0.68088 0.0
C1869 C 0.14796 0.64222 0.68226 0.0
H1870 H 0.15107 0.62014 0.68311 0.0
H1871 H 0.18584 0.64352 0.67157 0.0
C1872 C 0.22087 0.60377 0.71411 0.0
N1873 N 0.21295 0.61363 0.70795 0.0
C1874 C 0.23121 0.60763 0.72331 0.0
C1875 C 0.22528 0.63179 0.71945 0.0
C1876 C 0.215 0.62744 0.71032 0.0
C1877 C 0.23351 0.6218 0.72611 0.0
H1878 H 0.21928 0.5929 0.71175 0.0
H1879 H 0.20869 0.63506 0.70509 0.0
C1880 C 0.16382 0.59903 0.66458 0.0
N1881 N 0.14004 0.60435 0.65004 0.0
C1882 C 0.15128 0.59443 0.66979 0.0
C1883 C 0.16431 0.60617 0.65189 0.0
C1884 C 0.13936 0.59727 0.6623 0.0
C1885 C 0.15217 0.60881 0.64472 0.0
C1886 C 0.20132 0.57463 0.69427 0.0
C1887 C 0.20367 0.56398 0.68462 0.0
C1888 C 0.20005 0.57136 0.70842 0.0
C1889 C 0.20465 0.55022 0.6893 0.0
C1890 C 0.20105 0.55747 0.71267 0.0
N1891 N 0.20331 0.54728 0.7031 0.0
C1892 C 0.21905 0.58887 0.65909 0.0
C1893 C 0.1989 0.58277 0.64677 0.0
C1894 C 0.22693 0.58056 0.65036 0.0
N1895 N 0.20532 0.58965 0.65728 0.0
C1896 C 0.2064 0.57414 0.63787 0.0
C1897 C 0.22056 0.57271 0.63987 0.0
H1898 H 0.22375 0.59393 0.66794 0.0
H1899 H 0.1879 0.58331 0.64586 0.0
C1900 C 0.16156 0.58195 0.71141 0.0
N1901 N 0.16904 0.57823 0.70007 0.0
C1902 C 0.15412 0.57195 0.71873 0.0
C1903 C 0.16201 0.5545 0.70243 0.0
C1904 C 0.16903 0.56491 0.69521 0.0
C1905 C 0.15456 0.558 0.71441 0.0
H1906 H 0.16156 0.59266 0.7149 0.0
H1907 H 0.17477 0.56231 0.68595 0.0
O1908 O 0.19962 0.61769 0.6772 0.0
O1909 O 0.17953 0.61035 0.70058 0.0
O1910 O 0.17559 0.59637 0.67175 0.0
O1911 O 0.20021 0.58817 0.6899 0.0
H1912 H 0.22619 0.62065 0.68134 0.0
H1913 H 0.19401 0.62382 0.65094 0.0
H1914 H 0.24284 0.62773 0.66315 0.0
H1915 H 0.21123 0.63075 0.63325 0.0
H1916 H 0.18905 0.61255 0.74689 0.0
H1917 H 0.177 0.63769 0.70373 0.0
H1918 H 0.18572 0.5992 0.72501 0.0
H1919 H 0.18039 0.65034 0.72597 0.0
H1920 H 0.17337 0.66543 0.67497 0.0
H1921 H 0.13748 0.64139 0.68579 0.0
H1922 H 0.23748 0.59961 0.72801 0.0
H1923 H 0.22667 0.64282 0.72138 0.0
H1924 H 0.15074 0.58882 0.67956 0.0
H1925 H 0.17396 0.60964 0.64765 0.0
H1926 H 0.12956 0.59384 0.66625 0.0
H1927 H 0.15237 0.61439 0.63493 0.0
H1928 H 0.20463 0.56625 0.67364 0.0
H1929 H 0.19815 0.57945 0.71602 0.0
H1930 H 0.20642 0.54187 0.68194 0.0
H1931 H 0.19999 0.5548 0.72356 0.0
H1932 H 0.23774 0.57949 0.65249 0.0
H1933 H 0.20114 0.56818 0.62993 0.0
H1934 H 0.14846 0.57499 0.72795 0.0
H1935 H 0.16243 0.54383 0.69876 0.0
Li1936 Li 0.63808 0.95543 0.94309 0.0
Li1937 Li 0.64923 0.93163 0.94163 0.0
Li1938 Li 0.6496 0.94777 0.92148 0.0
Li1939 Li 0.62902 0.9372 0.92881 0.0
C1940 C 0.66852 0.95573 0.94694 0.0
N1941 N 0.69102 0.96628 0.96082 0.0
C1942 C 0.67225 0.95039 0.95996 0.0
C1943 C 0.67625 0.96646 0.94101 0.0
C1944 C 0.68365 0.95586 0.96681 0.0
C1945 C 0.68758 0.97165 0.94818 0.0
C1946 C 0.61959 0.93124 0.95402 0.0
C1947 C 0.60563 0.91089 0.95789 0.0
N1948 N 0.59512 0.91925 0.96189 0.0
C1949 C 0.60869 0.93962 0.95828 0.0
C1950 C 0.61811 0.91675 0.95393 0.0
C1951 C 0.59639 0.93336 0.96219 0.0
C1952 C 0.62284 0.97857 0.95269 0.0
N1953 N 0.6343 0.97089 0.95499 0.0
C1954 C 0.64072 0.9857 0.97389 0.0
C1955 C 0.6431 0.97414 0.96545 0.0
C1956 C 0.62908 0.99394 0.97166 0.0
C1957 C 0.62001 0.99021 0.96095 0.0
H1958 H 0.61592 0.97568 0.94439 0.0
H1959 H 0.65193 0.96773 0.96733 0.0
C1960 C 0.67244 0.91542 0.94675 0.0
N1961 N 0.65987 0.91874 0.95174 0.0
C1962 C 0.68136 0.90742 0.95478 0.0
C1963 C 0.66404 0.90607 0.97272 0.0
C1964 C 0.65547 0.91414 0.96436 0.0
C1965 C 0.67727 0.90282 0.96806 0.0
H1966 H 0.67567 0.91941 0.93673 0.0
H1967 H 0.64552 0.91722 0.96817 0.0
C1968 C 0.6318 0.97052 0.9191 0.0
N1969 N 0.63285 0.99781 0.90995 0.0
C1970 C 0.62189 0.97556 0.9099 0.0
C1971 C 0.6422 0.97938 0.92368 0.0
C1972 C 0.62261 0.98938 0.90538 0.0
C1973 C 0.64257 0.99313 0.91893 0.0
C1974 C 0.64368 0.92311 0.90819 0.0
C1975 C 0.6364 0.93143 0.89882 0.0
C1976 C 0.64912 0.91041 0.90372 0.0
C1977 C 0.63469 0.92689 0.8851 0.0
C1978 C 0.64717 0.90623 0.88991 0.0
N1979 N 0.64006 0.91449 0.88097 0.0
C1980 C 0.67497 0.95074 0.90954 0.0
C1981 C 0.6578 0.96291 0.89708 0.0
C1982 C 0.6852 0.95766 0.90219 0.0
N1983 N 0.66165 0.95402 0.90738 0.0
C1984 C 0.6677 0.97008 0.88944 0.0
C1985 C 0.68161 0.96797 0.89246 0.0
H1986 H 0.67768 0.94357 0.91779 0.0
H1987 H 0.64711 0.9651 0.89535 0.0
C1988 C 0.60086 0.93793 0.92479 0.0
N1989 N 0.61196 0.92956 0.92338 0.0
C1990 C 0.58776 0.93222 0.92451 0.0
C1991 C 0.59777 0.90964 0.91996 0.0
C1992 C 0.61069 0.91576 0.92051 0.0
C1993 C 0.58611 0.91778 0.92263 0.0
H1994 H 0.60223 0.94884 0.92725 0.0
H1995 H 0.61971 0.90932 0.91961 0.0
O1996 O 0.65752 0.9503 0.93995 0.0
O1997 O 0.63158 0.93719 0.94978 0.0
O1998 O 0.63123 0.95696 0.92348 0.0
O1999 O 0.64554 0.92726 0.9217 0.0
H2000 H 0.66629 0.94229 0.96487 0.0
H2001 H 0.67358 0.97078 0.93096 0.0
H2002 H 0.68661 0.95184 0.9769 0.0
H2003 H 0.69364 0.97994 0.94369 0.0
H2004 H 0.60428 0.8997 0.95771 0.0
H2005 H 0.60968 0.95086 0.9584 0.0
H2006 H 0.62643 0.91012 0.95058 0.0
H2007 H 0.58783 0.93972 0.9654 0.0
H2008 H 0.6478 0.98801 0.98225 0.0
H2009 H 0.61091 0.99628 0.9589 0.0
H2010 H 0.69143 0.90505 0.95076 0.0
H2011 H 0.66056 0.90294 0.98296 0.0
H2012 H 0.61377 0.96882 0.90626 0.0
H2013 H 0.64986 0.9757 0.93087 0.0
H2014 H 0.61503 0.99341 0.89824 0.0
H2015 H 0.65058 8e-05 0.92239 0.0
H2016 H 0.63209 0.94127 0.90205 0.0
H2017 H 0.65478 0.90385 0.91086 0.0
H2018 H 0.62908 0.93323 0.87773 0.0
H2019 H 0.65132 0.89643 0.88631 0.0
H2020 H 0.69576 0.95574 0.90493 0.0
H2021 H 0.66451 0.97772 0.8818 0.0
H2022 H 0.57915 0.93892 0.92682 0.0
H2023 H 0.59698 0.89852 0.91822 0.0
Li2024 Li 0.86154 0.03923 0.44101 0.0
Li2025 Li 0.84738 0.06184 0.44116 0.0
Li2026 Li 0.85058 0.04829 0.41998 0.0
Li2027 Li 0.86915 0.06068 0.42926 0.0
C2028 C 0.83021 0.0352 0.43446 0.0
N2029 N 0.80673 0.02097 0.42718 0.0
C2030 C 0.8175 0.04178 0.4353 0.0
C2031 C 0.83096 0.02133 0.43006 0.0
C2032 C 0.80575 0.03441 0.43155 0.0
C2033 C 0.81898 0.01433 0.42638 0.0
C2034 C 0.87528 0.06566 0.45569 0.0
C2035 C 0.88374 0.08805 0.46315 0.0
N2036 N 0.89582 0.08202 0.46672 0.0
C2037 C 0.88772 0.05966 0.45954 0.0
C2038 C 0.87321 0.07995 0.45759 0.0
C2039 C 0.898 0.06812 0.46506 0.0
C2040 C 0.87877 0.01847 0.45293 0.0
N2041 N 0.86581 0.02347 0.45199 0.0
C2042 C 0.85768 0.00611 0.46775 0.0
C2043 C 0.85533 0.01754 0.45912 0.0
C2044 C 0.87098 0.00081 0.46919 0.0
C2045 C 0.8816 0.00706 0.46153 0.0
H2046 H 0.8869 0.02345 0.44713 0.0
H2047 H 0.84515 0.02179 0.45821 0.0
C2048 C 0.83214 0.08552 0.45004 0.0
N2049 N 0.83525 0.07194 0.45254 0.0
C2050 C 0.82305 0.09256 0.45879 0.0
C2051 C 0.82059 0.07147 0.4724 0.0
C2052 C 0.82977 0.06489 0.46347 0.0
C2053 C 0.8171 0.08548 0.47011 0.0
H2054 H 0.83672 0.09084 0.44127 0.0
H2055 H 0.83253 0.05411 0.46519 0.0
C2056 C 0.87472 0.031 0.41426 0.0
N2057 N 0.88528 0.00992 0.39786 0.0
C2058 C 0.88371 0.03414 0.40338 0.0
C2059 C 0.87125 0.01711 0.41691 0.0
C2060 C 0.88889 0.02334 0.39518 0.0
C2061 C 0.87665 0.00661 0.40847 0.0
C2062 C 0.85396 0.07525 0.40967 0.0
C2063 C 0.86125 0.06832 0.39925 0.0
C2064 C 0.84901 0.08868 0.4072 0.0
C2065 C 0.86352 0.07498 0.38651 0.0
C2066 C 0.8515 0.09499 0.39432 0.0
N2067 N 0.85864 0.08807 0.38433 0.0
C2068 C 0.82738 0.04799 0.40355 0.0
C2069 C 0.84341 0.03084 0.39669 0.0
C2070 C 0.81694 0.04105 0.39649 0.0
N2071 N 0.84004 0.04224 0.40435 0.0
C2072 C 0.83335 0.02368 0.38932 0.0
C2073 C 0.81972 0.02822 0.39003 0.0
H2074 H 0.82501 0.05711 0.40971 0.0
H2075 H 0.85357 0.0266 0.39714 0.0
C2076 C 0.89731 0.0638 0.42664 0.0
N2077 N 0.88536 0.07095 0.42601 0.0
C2078 C 0.90968 0.07094 0.42751 0.0
C2079 C 0.89724 0.09267 0.42605 0.0
C2080 C 0.88509 0.08509 0.4253 0.0
C2081 C 0.90972 0.08559 0.4277 0.0
H2082 H 0.89715 0.05255 0.42746 0.0
H2083 H 0.87541 0.09051 0.42503 0.0
O2084 O 0.84186 0.04233 0.43787 0.0
O2085 O 0.86529 0.05767 0.44975 0.0
O2086 O 0.86973 0.04145 0.42251 0.0
O2087 O 0.85169 0.06902 0.4223 0.0
H2088 H 0.81673 0.05253 0.43861 0.0
H2089 H 0.84069 0.01606 0.42939 0.0
H2090 H 0.79586 0.03941 0.43204 0.0
H2091 H 0.81942 0.00364 0.42285 0.0
H2092 H 0.88234 0.09914 0.46456 0.0
H2093 H 0.88948 0.04862 0.45808 0.0
H2094 H 0.86365 0.08475 0.45458 0.0
H2095 H 0.90773 0.06364 0.46797 0.0
H2096 H 0.84915 0.00152 0.47328 0.0
H2097 H 0.89203 0.00342 0.46245 0.0
H2098 H 0.82055 0.10334 0.45663 0.0
H2099 H 0.81641 0.0657 0.48111 0.0
H2100 H 0.88669 0.04481 0.40132 0.0
H2101 H 0.8644 0.01446 0.42532 0.0
H2102 H 0.89582 0.02562 0.38669 0.0
H2103 H 0.87399 0.99583 0.41036 0.0
H2104 H 0.86508 0.05792 0.40093 0.0
H2105 H 0.84336 0.09419 0.41517 0.0
H2106 H 0.86915 0.06973 0.37835 0.0
H2107 H 0.84775 0.1054 0.39227 0.0
H2108 H 0.80662 0.045 0.39734 0.0
H2109 H 0.83604 0.01409 0.38403 0.0
H2110 H 0.91897 0.06502 0.429 0.0
H2111 H 0.89681 0.10394 0.42598 0.0
C2112 C 0.10545 0.18421 0.50297 0.0
C2113 C 0.10923 0.18591 0.51697 0.0
C2114 C 0.10995 0.19361 0.49288 0.0
C2115 C 0.12398 0.22948 0.48954 0.0
H2116 H 0.12868 0.21812 0.45109 0.0
C2117 C 0.13228 0.2701 0.44609 0.0
C2118 C 0.1411 0.26648 0.43517 0.0
C2119 C 0.12807 0.26003 0.45571 0.0
C2120 C 0.1276 0.2215 0.4618 0.0
H2121 H 0.12107 0.1983 0.5314 0.0
H2122 H 0.12965 0.21435 0.51367 0.0
H2123 H 0.12372 0.20072 0.46865 0.0
H2124 H 0.1526 0.24968 0.42573 0.0
H2125 H 0.1458 0.23227 0.44273 0.0
H2126 H 0.12866 0.25014 0.48281 0.0
C2127 C 0.12279 0.20609 0.5105 0.0
C2128 C 0.12452 0.2115 0.47188 0.0
C2129 C 0.11803 0.19683 0.52065 0.0
C2130 C 0.14557 0.25265 0.43393 0.0
C2131 C 0.14162 0.24266 0.44368 0.0
C2132 C 0.12734 0.23945 0.47949 0.0
C2133 C 0.11855 0.2048 0.49652 0.0
C2134 C 0.12255 0.21536 0.48588 0.0
C2135 C 0.13287 0.24621 0.45477 0.0
C2136 C 0.12912 0.23561 0.46546 0.0
H2137 H 0.09846 0.176 0.49994 0.0
H2138 H 0.10622 0.19238 0.48234 0.0
H2139 H 0.12231 0.23295 0.50014 0.0
H2140 H 0.12872 0.28073 0.44722 0.0
H2141 H 0.1211 0.26312 0.46391 0.0
C2142 C 0.98847 0.87657 0.68667 0.0
C2143 C 0.97707 0.88491 0.68982 0.0
C2144 C 0.99801 0.87325 0.69699 0.0
C2145 C 0.01053 0.88654 0.73079 0.0
H2146 H 0.03054 0.85169 0.73152 0.0
C2147 C 0.04861 0.87088 0.77443 0.0
C2148 C 0.0609 0.86474 0.76999 0.0
C2149 C 0.03822 0.87372 0.76485 0.0
C2150 C 0.02509 0.86151 0.73136 0.0
H2151 H 0.9665 0.89576 0.70652 0.0
H2152 H 0.98273 0.88943 0.72453 0.0
H2153 H 0.01199 0.85479 0.71484 0.0
H2154 H 0.07202 0.85699 0.75204 0.0
H2155 H 0.05394 0.86207 0.73534 0.0
H2156 H 0.02359 0.89316 0.74744 0.0
C2157 C 0.98451 0.88576 0.71401 0.0
C2158 C 0.01448 0.86329 0.72181 0.0
C2159 C 0.97505 0.88918 0.70369 0.0
C2160 C 0.06275 0.86191 0.75575 0.0
C2161 C 0.05233 0.86463 0.74621 0.0
C2162 C 0.02107 0.8847 0.74042 0.0
C2163 C 0.9963 0.87811 0.71071 0.0
C2164 C 0.00713 0.87587 0.72133 0.0
C2165 C 0.03988 0.87032 0.75071 0.0
C2166 C 0.02853 0.87222 0.74071 0.0
H2167 H 0.99025 0.87294 0.67614 0.0
H2168 H 0.007 0.86738 0.69404 0.0
H2169 H 0.00528 0.89647 0.73055 0.0
H2170 H 0.04693 0.87318 0.78535 0.0
H2171 H 0.0287 0.8781 0.76858 0.0
C2172 C 0.35965 0.73952 0.94086 0.0
C2173 C 0.35698 0.72552 0.94417 0.0
C2174 C 0.36417 0.74875 0.95109 0.0
C2175 C 0.3796 0.75114 0.98602 0.0
H2176 H 0.36131 0.787 0.98678 0.0
C2177 C 0.3897 0.79124 0.02959 0.0
C2178 C 0.39205 0.80495 0.02501 0.0
C2179 C 0.38433 0.78127 0.02049 0.0
C2180 C 0.36656 0.77707 0.98666 0.0
H2181 H 0.35767 0.71004 0.96062 0.0
H2182 H 0.36551 0.72624 0.97857 0.0
H2183 H 0.35517 0.76997 0.96903 0.0
H2184 H 0.39031 0.81901 0.00737 0.0
H2185 H 0.3809 0.80171 0.9916 0.0
H2186 H 0.39112 0.75834 0.00355 0.0
C2187 C 0.3641 0.73005 0.96804 0.0
C2188 C 0.36309 0.76733 0.97647 0.0
C2189 C 0.35954 0.7208 0.9578 0.0
C2190 C 0.38839 0.80861 0.01133 0.0
C2191 C 0.38303 0.79867 0.00225 0.0
C2192 C 0.38311 0.76092 0.9962 0.0
C2193 C 0.36612 0.74419 0.96486 0.0
C2194 C 0.36968 0.75433 0.97594 0.0
C2195 C 0.38119 0.78482 0.00664 0.0
C2196 C 0.37673 0.77405 0.99654 0.0
H2197 H 0.35764 0.74354 0.93051 0.0
H2198 H 0.36587 0.75955 0.94828 0.0
H2199 H 0.3849 0.74124 0.98581 0.0
H2200 H 0.39227 0.78814 0.04012 0.0
H2201 H 0.38281 0.77073 0.02424 0.0
C2202 C 0.51272 0.12526 0.1845 0.0
C2203 C 0.52531 0.1188 0.1872 0.0
C2204 C 0.50457 0.12995 0.19546 0.0
C2205 C 0.49708 0.12092 0.23138 0.0
H2206 H 0.47462 0.15417 0.23035 0.0
C2207 C 0.45636 0.13363 0.27359 0.0
C2208 C 0.44399 0.13925 0.26868 0.0
C2209 C 0.46747 0.1319 0.26457 0.0
C2210 C 0.48075 0.14478 0.23074 0.0
H2211 H 0.53958 0.11278 0.20339 0.0
H2212 H 0.52529 0.12102 0.22261 0.0
H2213 H 0.49252 0.15096 0.21297 0.0
H2214 H 0.43366 0.14737 0.25035 0.0
H2215 H 0.45269 0.1438 0.23465 0.0
H2216 H 0.485 0.11446 0.24883 0.0
C2217 C 0.52175 0.12242 0.21201 0.0
C2218 C 0.49104 0.143 0.22083 0.0
C2219 C 0.52997 0.11785 0.20102 0.0
C2220 C 0.4429 0.14274 0.25449 0.0
C2221 C 0.45394 0.14097 0.2455 0.0
C2222 C 0.48672 0.12265 0.24125 0.0
C2223 C 0.5088 0.12813 0.20935 0.0
C2224 C 0.49913 0.13093 0.22089 0.0
C2225 C 0.46643 0.13577 0.25047 0.0
C2226 C 0.47825 0.13446 0.24085 0.0
H2227 H 0.50892 0.12611 0.17392 0.0
H2228 H 0.4946 0.13423 0.19309 0.0
H2229 H 0.50305 0.11142 0.23157 0.0
H2230 H 0.45753 0.13078 0.28445 0.0
H2231 H 0.47697 0.12787 0.26872 0.0
C2232 C 0.62855 0.23089 0.55887 0.0
C2233 C 0.63621 0.21963 0.55374 0.0
C2234 C 0.62263 0.24043 0.54971 0.0
C2235 C 0.61468 0.24758 0.51247 0.0
H2236 H 0.62212 0.28575 0.52343 0.0
C2237 C 0.61112 0.29441 0.47438 0.0
C2238 C 0.60464 0.3064 0.47959 0.0
C2239 C 0.61424 0.28329 0.48328 0.0
C2240 C 0.61984 0.27516 0.52027 0.0
H2241 H 0.64255 0.20879 0.53498 0.0
H2242 H 0.63254 0.22566 0.51899 0.0
H2243 H 0.62749 0.26685 0.53936 0.0
H2244 H 0.59599 0.31592 0.49813 0.0
H2245 H 0.60161 0.29673 0.51357 0.0
H2246 H 0.60725 0.25603 0.49322 0.0
C2247 C 0.63106 0.22711 0.53008 0.0
C2248 C 0.62284 0.26432 0.52943 0.0
C2249 C 0.63692 0.21752 0.53925 0.0
C2250 C 0.60136 0.30703 0.49384 0.0
C2251 C 0.6045 0.29599 0.5027 0.0
C2252 C 0.61171 0.25846 0.50326 0.0
C2253 C 0.62432 0.23897 0.53523 0.0
C2254 C 0.6203 0.2504 0.52566 0.0
C2255 C 0.61095 0.284 0.49753 0.0
C2256 C 0.61426 0.27236 0.50709 0.0
H2257 H 0.62784 0.23286 0.56996 0.0
H2258 H 0.61723 0.2493 0.55399 0.0
H2259 H 0.61253 0.23697 0.5093 0.0
H2260 H 0.61379 0.29362 0.46346 0.0
H2261 H 0.61934 0.27422 0.47904 0.0
C2262 C 0.95317 0.354 0.72507 0.0
C2263 C 0.94058 0.36107 0.72552 0.0
C2264 C 0.96337 0.35696 0.73481 0.0
C2265 C 0.96629 0.36899 0.77059 0.0
H2266 H 0.00504 0.37242 0.76295 0.0
C2267 C 0.00423 0.38747 0.812 0.0
C2268 C 0.01745 0.38177 0.81231 0.0
C2269 C 0.99516 0.38401 0.80139 0.0
C2270 C 0.99428 0.37124 0.76526 0.0
H2271 H 0.92928 0.37756 0.73581 0.0
H2272 H 0.94708 0.38265 0.75287 0.0
H2273 H 0.98899 0.36936 0.74364 0.0
H2274 H 0.03138 0.36765 0.80188 0.0
H2275 H 0.01536 0.3614 0.78331 0.0
H2276 H 0.97145 0.37066 0.79214 0.0
C2277 C 0.94893 0.37467 0.74511 0.0
C2278 C 0.9851 0.3696 0.75421 0.0
C2279 C 0.93877 0.37177 0.73534 0.0
C2280 C 0.02127 0.37223 0.8019 0.0
C2281 C 0.01214 0.36872 0.79124 0.0
C2282 C 0.97544 0.37051 0.78161 0.0
C2283 C 0.96114 0.36698 0.74521 0.0
C2284 C 0.97101 0.36866 0.75677 0.0
C2285 C 0.99903 0.37472 0.79079 0.0
C2286 C 0.98952 0.37186 0.77908 0.0
H2287 H 0.95485 0.34556 0.71778 0.0
H2288 H 0.97267 0.35084 0.73469 0.0
H2289 H 0.95551 0.36794 0.77289 0.0
H2290 H 0.00106 0.39514 0.81962 0.0
H2291 H 0.98526 0.38905 0.80121 0.0
C2292 C 0.85732 0.77729 0.03953 0.0
C2293 C 0.85509 0.77279 0.05329 0.0
C2294 C 0.86201 0.76798 0.02941 0.0
C2295 C 0.86221 0.73046 0.02181 0.0
H2296 H 0.88917 0.74011 0.99382 0.0
C2297 C 0.88819 0.68975 0.98668 0.0
C2298 C 0.89124 0.69341 0.97284 0.0
C2299 C 0.88269 0.69956 0.99583 0.0
C2300 C 0.88146 0.73734 0.00144 0.0
H2301 H 0.85649 0.7551 0.06731 0.0
H2302 H 0.86499 0.73899 0.04977 0.0
H2303 H 0.88275 0.75725 0.01144 0.0
H2304 H 0.89021 0.71002 0.95754 0.0
H2305 H 0.88054 0.72718 0.97356 0.0
H2306 H 0.86096 0.71054 0.01189 0.0
C2307 C 0.86291 0.74966 0.04675 0.0
C2308 C 0.87783 0.74714 0.01155 0.0
C2309 C 0.85824 0.75895 0.05685 0.0
C2310 C 0.88813 0.70694 0.9682 0.0
C2311 C 0.88264 0.71677 0.97737 0.0
C2312 C 0.86582 0.72068 0.0117 0.0
C2313 C 0.86453 0.75398 0.03286 0.0
C2314 C 0.86828 0.74374 0.02194 0.0
C2315 C 0.88013 0.71326 0.99135 0.0
C2316 C 0.87558 0.72396 0.00148 0.0
H2317 H 0.85509 0.78793 0.0365 0.0
H2318 H 0.86315 0.77161 0.01879 0.0
H2319 H 0.85459 0.72764 0.0295 0.0
H2320 H 0.89068 0.6795 0.99066 0.0
H2321 H 0.88104 0.69656 0.00658 0.0
C2322 C 0.55606 0.62573 0.23449 0.0
C2323 C 0.55467 0.63702 0.22526 0.0
C2324 C 0.5456 0.62246 0.2438 0.0
C2325 C 0.5094 0.62726 0.2525 0.0
H2326 H 0.52255 0.62494 0.29057 0.0
C2327 C 0.47295 0.62235 0.30011 0.0
C2328 C 0.47709 0.61282 0.31041 0.0
C2329 C 0.48191 0.62613 0.28936 0.0
C2330 C 0.5187 0.62542 0.27999 0.0
H2331 H 0.54086 0.65317 0.218 0.0
H2332 H 0.52248 0.64721 0.23413 0.0
H2333 H 0.53871 0.62859 0.27168 0.0
H2334 H 0.49368 0.59946 0.31723 0.0
H2335 H 0.50912 0.60593 0.29865 0.0
H2336 H 0.48938 0.62378 0.26085 0.0
C2337 C 0.53169 0.64096 0.23413 0.0
C2338 C 0.52797 0.62749 0.26918 0.0
C2339 C 0.5422 0.64431 0.22486 0.0
C2340 C 0.49031 0.60716 0.30973 0.0
C2341 C 0.49917 0.61085 0.29902 0.0
C2342 C 0.50009 0.62503 0.26336 0.0
C2343 C 0.53351 0.63033 0.24402 0.0
C2344 C 0.52344 0.62825 0.25533 0.0
C2345 C 0.49512 0.62037 0.2887 0.0
C2346 C 0.50468 0.62389 0.27721 0.0
H2347 H 0.56545 0.61979 0.23488 0.0
H2348 H 0.54714 0.61404 0.25117 0.0
H2349 H 0.50567 0.62786 0.24189 0.0
H2350 H 0.46281 0.62685 0.30036 0.0
H2351 H 0.47852 0.63357 0.28161 0.0
C2352 C 0.26275 0.43803 0.13144 0.0
C2353 C 0.27614 0.442 0.13494 0.0
C2354 C 0.2531 0.44801 0.12759 0.0
C2355 C 0.24819 0.4852 0.11781 0.0
H2356 H 0.21257 0.47897 0.13444 0.0
C2357 C 0.20473 0.52651 0.11821 0.0
C2358 C 0.19214 0.52152 0.11318 0.0
C2359 C 0.2154 0.51726 0.12115 0.0
C2360 C 0.22246 0.48083 0.12971 0.0
H2361 H 0.29015 0.45951 0.1359 0.0
H2362 H 0.27316 0.47698 0.12976 0.0
H2363 H 0.23059 0.46185 0.13778 0.0
H2364 H 0.18105 0.5028 0.10723 0.0
H2365 H 0.19938 0.48681 0.11289 0.0
H2366 H 0.23994 0.50439 0.10998 0.0
C2367 C 0.27014 0.46613 0.12989 0.0
C2368 C 0.23276 0.47097 0.1315 0.0
C2369 C 0.27986 0.45611 0.13357 0.0
C2370 C 0.1904 0.50706 0.11148 0.0
C2371 C 0.20096 0.49785 0.1146 0.0
C2372 C 0.23788 0.49516 0.11614 0.0
C2373 C 0.25652 0.46223 0.12735 0.0
C2374 C 0.2457 0.47292 0.12541 0.0
C2375 C 0.2136 0.50286 0.11931 0.0
C2376 C 0.22488 0.49296 0.12194 0.0
H2377 H 0.2594 0.42733 0.13244 0.0
H2378 H 0.2428 0.44459 0.1253 0.0
H2379 H 0.258 0.487 0.11292 0.0
H2380 H 0.2064 0.53756 0.11975 0.0
H2381 H 0.22505 0.52135 0.12489 0.0
C2382 C 0.70533 0.97292 0.88362 0.0
C2383 C 0.69217 0.97768 0.88708 0.0
C2384 C 0.71576 0.98239 0.88056 0.0
C2385 C 0.72543 0.01884 0.88738 0.0
H2386 H 0.75104 0.01372 0.85699 0.0
C2387 C 0.75833 0.0631 0.86519 0.0
C2388 C 0.77154 0.06005 0.86037 0.0
C2389 C 0.74987 0.05251 0.87015 0.0
C2390 C 0.74412 0.01516 0.86568 0.0
H2391 H 0.67961 0.99614 0.8897 0.0
H2392 H 0.69765 0.01256 0.884 0.0
H2393 H 0.73351 0.99613 0.8613 0.0
H2394 H 0.78651 0.04365 0.85757 0.0
H2395 H 0.77173 0.02508 0.86642 0.0
H2396 H 0.73587 0.03796 0.89163 0.0
C2397 C 0.69996 0.00152 0.88386 0.0
C2398 C 0.73406 0.00512 0.86811 0.0
C2399 C 0.68956 0.99208 0.88689 0.0
C2400 C 0.7764 0.0463 0.86131 0.0
C2401 C 0.7679 0.03567 0.86621 0.0
C2402 C 0.73548 0.02886 0.88496 0.0
C2403 C 0.71325 0.99681 0.88098 0.0
C2404 C 0.72445 0.00699 0.87882 0.0
C2405 C 0.75443 0.03863 0.87037 0.0
C2406 C 0.74478 0.02726 0.87394 0.0
H2407 H 0.70763 0.96188 0.88359 0.0
H2408 H 0.72591 0.97845 0.87837 0.0
H2409 H 0.71837 0.02041 0.89593 0.0
H2410 H 0.75438 0.07364 0.86466 0.0
H2411 H 0.73953 0.05513 0.87318 0.0
C2412 C 0.73879 0.93513 0.3725 0.0
C2413 C 0.72607 0.93798 0.36637 0.0
C2414 C 0.74715 0.946 0.37704 0.0
C2415 C 0.75479 0.98192 0.36817 0.0
H2416 H 0.77765 0.98047 0.40112 0.0
C2417 C 0.79599 0.02371 0.3808 0.0
C2418 C 0.80837 0.01865 0.38626 0.0
C2419 C 0.7848 0.01479 0.37907 0.0
C2420 C 0.77141 0.98097 0.39182 0.0
H2421 H 0.71183 0.95432 0.36073 0.0
H2422 H 0.72648 0.97338 0.36869 0.0
H2423 H 0.75959 0.96325 0.39802 0.0
H2424 H 0.81864 0.00014 0.39405 0.0
H2425 H 0.79948 0.98463 0.39047 0.0
H2426 H 0.76692 -0.00067 0.3617 0.0
C2427 C 0.72996 0.96274 0.36996 0.0
C2428 C 0.76103 0.97116 0.3901 0.0
C2429 C 0.72153 0.95184 0.36556 0.0
C2430 C 0.80939 0.00441 0.38956 0.0
C2431 C 0.79828 0.99553 0.38778 0.0
C2432 C 0.76524 0.9917 0.36985 0.0
C2433 C 0.743 0.95993 0.3754 0.0
C2434 C 0.75279 0.97137 0.37814 0.0
C2435 C 0.78577 0.00064 0.38278 0.0
C2436 C 0.77387 0.99114 0.38154 0.0
H2437 H 0.7425 0.92452 0.37324 0.0
H2438 H 0.75718 0.94352 0.3811 0.0
H2439 H 0.7487 0.98223 0.35876 0.0
H2440 H 0.79486 0.03461 0.3781 0.0
H2441 H 0.77529 0.01906 0.37519 0.0
C2442 C 0.24183 0.56452 0.62795 0.0
C2443 C 0.22847 0.56179 0.63256 0.0
C2444 C 0.25029 0.55364 0.62366 0.0
C2445 C 0.2553 0.51651 0.63033 0.0
H2446 H 0.28195 0.51936 0.60059 0.0
C2447 C 0.29241 0.47182 0.61528 0.0
C2448 C 0.30574 0.47569 0.61145 0.0
C2449 C 0.28249 0.48197 0.61787 0.0
C2450 C 0.27465 0.51848 0.60903 0.0
H2451 H 0.21325 0.54565 0.63558 0.0
H2452 H 0.22799 0.52664 0.62785 0.0
H2453 H 0.26493 0.53768 0.6035 0.0
H2454 H 0.3192 0.49333 0.60783 0.0
H2455 H 0.30208 0.51094 0.61281 0.0
H2456 H 0.26517 0.49742 0.636 0.0
C2457 C 0.23195 0.53718 0.62772 0.0
C2458 C 0.26487 0.52893 0.61064 0.0
C2459 C 0.22346 0.54808 0.63196 0.0
C2460 C 0.3091 0.48994 0.61093 0.0
C2461 C 0.29921 0.50006 0.61354 0.0
C2462 C 0.2651 0.50605 0.62873 0.0
C2463 C 0.24558 0.5398 0.62394 0.0
C2464 C 0.25519 0.52814 0.6214 0.0
C2465 C 0.28571 0.4962 0.61667 0.0
C2466 C 0.275 0.50702 0.61817 0.0
H2467 H 0.24591 0.57501 0.62825 0.0
H2468 H 0.26076 0.55599 0.62087 0.0
H2469 H 0.2481 0.51571 0.63887 0.0
H2470 H 0.28953 0.46093 0.61587 0.0
H2471 H 0.27217 0.47867 0.62027 0.0
C2472 C 0.29183 0.3878 0.52457 0.0
C2473 C 0.30082 0.39822 0.51988 0.0
C2474 C 0.2813 0.383 0.51596 0.0
C2475 C 0.26086 0.39291 0.4851 0.0
H2476 H 0.2542 0.35321 0.48188 0.0
C2477 C 0.23009 0.36873 0.43995 0.0
C2478 C 0.22169 0.3572 0.44282 0.0
C2479 C 0.23848 0.37432 0.45031 0.0
C2480 C 0.25577 0.36434 0.48283 0.0
H2481 H 0.30565 0.41195 0.50259 0.0
H2482 H 0.2875 0.4034 0.48753 0.0
H2483 H 0.27139 0.36166 0.49821 0.0
H2484 H 0.21533 0.34267 0.45888 0.0
H2485 H 0.22978 0.35261 0.47703 0.0
H2486 H 0.24537 0.39558 0.46959 0.0
C2487 C 0.2885 0.399 0.49788 0.0
C2488 C 0.26563 0.36918 0.49218 0.0
C2489 C 0.29903 0.40376 0.50644 0.0
C2490 C 0.22156 0.35165 0.45638 0.0
C2491 C 0.22998 0.35724 0.46673 0.0
C2492 C 0.25099 0.38807 0.47577 0.0
C2493 C 0.2795 0.38859 0.50253 0.0
C2494 C 0.26842 0.3835 0.49328 0.0
C2495 C 0.23869 0.36849 0.46376 0.0
C2496 C 0.24845 0.37373 0.47439 0.0
H2497 H 0.29299 0.38329 0.53485 0.0
H2498 H 0.27447 0.37502 0.51987 0.0
H2499 H 0.2626 0.40403 0.4859 0.0
H2500 H 0.23033 0.3733 0.42963 0.0
H2501 H 0.24516 0.38292 0.44763 0.0
C2502 C 0.88397 0.9864 0.68438 0.0
C2503 C 0.88976 0.97412 0.68979 0.0
C2504 C 0.8772 0.99579 0.69309 0.0
C2505 C 0.86265 -0.00017 0.72889 0.0
H2506 H 0.86853 0.0391 0.7214 0.0
C2507 C 0.85217 0.04383 0.76884 0.0
C2508 C 0.84456 0.05527 0.76391 0.0
C2509 C 0.85687 0.0336 0.75964 0.0
C2510 C 0.86673 0.02817 0.72354 0.0
H2511 H 0.89226 0.96182 0.70862 0.0
H2512 H 0.88113 0.97848 0.72388 0.0
H2513 H 0.87795 0.02174 0.70559 0.0
H2514 H 0.83574 0.06465 0.74536 0.0
H2515 H 0.84442 0.04708 0.72933 0.0
H2516 H 0.85187 0.00642 0.74719 0.0
C2517 C 0.88159 0.98078 0.71285 0.0
C2518 C 0.87204 0.01819 0.71445 0.0
C2519 C 0.88819 0.97129 0.70409 0.0
C2520 C 0.84183 0.0562 0.74953 0.0
C2521 C 0.84671 0.04609 0.74033 0.0
C2522 C 0.85752 0.00982 0.7381 0.0
C2523 C 0.87619 0.99327 0.7075 0.0
C2524 C 0.87009 0.00387 0.71699 0.0
C2525 C 0.85424 0.03469 0.7453 0.0
C2526 C 0.85953 0.02407 0.73551 0.0
H2527 H 0.88506 0.98905 0.67346 0.0
H2528 H 0.87292 0.00514 0.68852 0.0
H2529 H 0.86072 0.98893 0.73108 0.0
H2530 H 0.85467 0.04285 0.77979 0.0
H2531 H 0.8628 0.02498 0.76371 0.0
C2532 C 0.24919 0.65393 0.94148 0.0
C2533 C 0.26302 0.65001 0.94085 0.0
C2534 C 0.24049 0.6481 0.95142 0.0
C2535 C 0.24036 0.6311 0.98565 0.0
H2536 H 0.20425 0.61862 0.97471 0.0
C2537 C 0.20488 0.60008 0.02259 0.0
C2538 C 0.19077 0.60259 0.02173 0.0
C2539 C 0.21385 0.60628 0.01311 0.0
C2540 C 0.21422 0.62225 0.978 0.0
H2541 H 0.27847 0.63668 0.95011 0.0
H2542 H 0.26327 0.62664 0.96761 0.0
H2543 H 0.21959 0.62836 0.95726 0.0
H2544 H 0.17504 0.61405 0.01072 0.0
H2545 H 0.1907 0.62513 0.99435 0.0
H2546 H 0.23495 0.62516 0.00643 0.0
C2547 C 0.25923 0.63432 0.96044 0.0
C2548 C 0.22302 0.62777 0.96798 0.0
C2549 C 0.26793 0.64008 0.95042 0.0
C2550 C 0.18586 0.61178 0.01149 0.0
C2551 C 0.19483 0.61806 0.00209 0.0
C2552 C 0.23151 0.62566 0.99572 0.0
C2553 C 0.24543 0.63828 0.96104 0.0
C2554 C 0.23618 0.63226 0.97169 0.0
C2555 C 0.20891 0.61521 0.00262 0.0
C2556 C 0.21832 0.62118 0.99201 0.0
H2557 H 0.24512 0.66176 0.9345 0.0
H2558 H 0.22995 0.65149 0.95177 0.0
H2559 H 0.25039 0.63464 0.98884 0.0
H2560 H 0.20893 0.59291 0.03027 0.0
H2561 H 0.22461 0.60371 0.01372 0.0
C2562 C 0.60976 0.03143 0.20855 0.0
C2563 C 0.59886 0.02611 0.20064 0.0
C2564 C 0.61537 0.02359 0.21943 0.0
C2565 C 0.60791 0.99394 0.2429 0.0
H2566 H 0.64729 0.99009 0.24487 0.0
C2567 C 0.63421 0.94837 0.27098 0.0
C2568 C 0.64629 0.95099 0.27842 0.0
C2569 C 0.62809 0.95889 0.26311 0.0
C2570 C 0.63628 0.99124 0.24462 0.0
H2571 H 0.58501 0.00864 0.19821 0.0
H2572 H 0.59488 0.99492 0.21701 0.0
H2573 H 0.63722 0.00619 0.22808 0.0
H2574 H 0.66136 0.96673 0.28361 0.0
H2575 H 0.65058 0.98518 0.2699 0.0
H2576 H 0.60695 0.97876 0.25921 0.0
C2577 C 0.59907 0.00515 0.21488 0.0
C2578 C 0.63052 0.00046 0.235 0.0
C2579 C 0.59353 0.01293 0.20399 0.0
C2580 C 0.65198 0.96444 0.27807 0.0
C2581 C 0.64589 0.97496 0.27013 0.0
C2582 C 0.61367 0.98472 0.2525 0.0
C2583 C 0.61009 0.01035 0.22269 0.0
C2584 C 0.61626 0.00169 0.23385 0.0
C2585 C 0.63395 0.97225 0.26246 0.0
C2586 C 0.6279 0.98307 0.25328 0.0
H2587 H 0.61409 0.04154 0.20616 0.0
H2588 H 0.62381 0.0279 0.22532 0.0
H2589 H 0.59689 0.99486 0.24243 0.0
H2590 H 0.62954 0.93814 0.27115 0.0
H2591 H 0.61898 0.95643 0.2572 0.0
C2592 C 0.74365 0.13447 0.5615 0.0
C2593 C 0.734 0.14426 0.55682 0.0
C2594 C 0.75266 0.12817 0.55212 0.0
C2595 C 0.76775 0.13277 0.51704 0.0
H2596 H 0.77645 0.09353 0.52072 0.0
C2597 C 0.80996 0.10617 0.48436 0.0
C2598 C 0.80735 0.0926 0.47955 0.0
C2599 C 0.80102 0.11261 0.49372 0.0
C2600 C 0.77404 0.10448 0.51947 0.0
H2601 H 0.72638 0.1552 0.5386 0.0
H2602 H 0.74177 0.14391 0.52224 0.0
H2603 H 0.76065 0.10432 0.53709 0.0
H2604 H 0.79309 0.07532 0.48039 0.0
H2605 H 0.77743 0.08659 0.49659 0.0
H2606 H 0.78086 0.13285 0.4992 0.0
C2607 C 0.74251 0.14123 0.53317 0.0
C2608 C 0.76512 0.1107 0.52897 0.0
C2609 C 0.73354 0.14755 0.54254 0.0
C2610 C 0.7955 0.0857 0.4841 0.0
C2611 C 0.78654 0.09214 0.4934 0.0
C2612 C 0.77665 0.12654 0.50752 0.0
C2613 C 0.75222 0.13151 0.53785 0.0
C2614 C 0.76184 0.12492 0.52785 0.0
C2615 C 0.78925 0.10563 0.49842 0.0
C2616 C 0.77987 0.11231 0.5086 0.0
H2617 H 0.74421 0.13162 0.5724 0.0
H2618 H 0.7601 0.12082 0.55608 0.0
H2619 H 0.76558 0.14379 0.51598 0.0
H2620 H 0.81909 0.11168 0.48116 0.0
H2621 H 0.8035 0.12293 0.49751 0.0
C2622 C 0.13382 0.54819 0.72596 0.0
C2623 C 0.14775 0.54713 0.72277 0.0
C2624 C 0.12759 0.53833 0.73458 0.0
C2625 C 0.13308 0.50338 0.75108 0.0
H2626 H 0.10454 0.51635 0.77593 0.0
C2627 C 0.11266 0.47338 0.7996 0.0
C2628 C 0.09845 0.47145 0.7997 0.0
C2629 C 0.11873 0.48201 0.78961 0.0
C2630 C 0.11246 0.51261 0.76899 0.0
H2631 H 0.16617 0.53508 0.72598 0.0
H2632 H 0.15552 0.51819 0.74155 0.0
H2633 H 0.11506 0.53261 0.75967 0.0
H2634 H 0.07939 0.47703 0.78967 0.0
H2635 H 0.08999 0.49246 0.77244 0.0
H2636 H 0.13077 0.48348 0.76104 0.0
C2637 C 0.1492 0.52629 0.73706 0.0
C2638 C 0.11843 0.52187 0.75957 0.0
C2639 C 0.15535 0.53599 0.7282 0.0
C2640 C 0.09039 0.47829 0.78971 0.0
C2641 C 0.09642 0.48713 0.77993 0.0
C2642 C 0.12729 0.4942 0.76073 0.0
C2643 C 0.13524 0.52737 0.74047 0.0
C2644 C 0.1288 0.51739 0.75042 0.0
C2645 C 0.11062 0.48906 0.77981 0.0
C2646 C 0.11689 0.49874 0.76969 0.0
H2647 H 0.12777 0.55667 0.72179 0.0
H2648 H 0.11676 0.53935 0.73663 0.0
H2649 H 0.14083 0.49944 0.74407 0.0
H2650 H 0.11905 0.46818 0.80721 0.0
H2651 H 0.12971 0.48342 0.78972 0.0
C2652 C 0.70059 0.89999 0.97847 0.0
C2653 C 0.68699 0.89543 0.97735 0.0
C2654 C 0.70954 0.89366 0.98787 0.0
C2655 C 0.70965 0.87297 0.02023 0.0
H2656 H 0.74761 0.8664 0.01072 0.0
C2657 C 0.74612 0.84204 0.0559 0.0
C2658 C 0.75948 0.84718 0.05749 0.0
C2659 C 0.73729 0.84785 0.04606 0.0
C2660 C 0.73707 0.86831 0.01358 0.0
H2661 H 0.67223 0.88036 0.98489 0.0
H2662 H 0.68789 0.86923 0.00127 0.0
H2663 H 0.7322 0.87624 0.99333 0.0
H2664 H 0.77396 0.86261 0.05013 0.0
H2665 H 0.75854 0.87277 0.03291 0.0
H2666 H 0.71451 0.86504 0.04047 0.0
C2667 C 0.69156 0.87787 0.99504 0.0
C2668 C 0.72824 0.87393 0.00361 0.0
C2669 C 0.6826 0.88422 0.98565 0.0
C2670 C 0.76379 0.85831 0.04904 0.0
C2671 C 0.75496 0.86411 0.03917 0.0
C2672 C 0.71847 0.86733 0.03018 0.0
C2673 C 0.70509 0.88262 0.99637 0.0
C2674 C 0.71443 0.87634 0.00683 0.0
C2675 C 0.74163 0.85892 0.03755 0.0
C2676 C 0.73228 0.86496 0.02697 0.0
H2677 H 0.70422 0.90876 0.97239 0.0
H2678 H 0.71983 0.8977 0.98877 0.0
H2679 H 0.69913 0.87493 0.02313 0.0
H2680 H 0.74255 0.83329 0.06205 0.0
H2681 H 0.72716 0.84348 0.04492 0.0
C2682 C 0.35262 0.45299 0.22944 0.0
C2683 C 0.34939 0.4393 0.23357 0.0
C2684 C 0.35892 0.46218 0.23869 0.0
C2685 C 0.3801 0.46423 0.2699 0.0
H2686 H 0.36328 0.50048 0.27489 0.0
C2687 C 0.39844 0.50226 0.3125 0.0
C2688 C 0.39862 0.51657 0.30933 0.0
C2689 C 0.39228 0.49273 0.30347 0.0
C2690 C 0.36825 0.4905 0.27349 0.0
H2691 H 0.35062 0.42451 0.25066 0.0
H2692 H 0.36204 0.4405 0.26666 0.0
H2693 H 0.35346 0.48399 0.25839 0.0
H2694 H 0.39212 0.53205 0.29421 0.0
H2695 H 0.38198 0.51542 0.2782 0.0
H2696 H 0.39511 0.47078 0.28467 0.0
C2697 C 0.35957 0.44406 0.25624 0.0
C2698 C 0.36257 0.48104 0.26407 0.0
C2699 C 0.35309 0.4349 0.24704 0.0
C2700 C 0.39237 0.5211 0.29693 0.0
C2701 C 0.38635 0.51155 0.28782 0.0
C2702 C 0.3859 0.47376 0.27919 0.0
C2703 C 0.36234 0.45785 0.25222 0.0
C2704 C 0.36844 0.46782 0.2622 0.0
C2705 C 0.38626 0.49722 0.29095 0.0
C2706 C 0.38004 0.48702 0.28112 0.0
H2707 H 0.35024 0.45666 0.21905 0.0
H2708 H 0.36115 0.4727 0.23527 0.0
H2709 H 0.38487 0.45413 0.26854 0.0
H2710 H 0.40331 0.49832 0.32183 0.0
H2711 H 0.39222 0.48182 0.30636 0.0
C2712 C 0.50618 0.29926 0.40846 0.0
C2713 C 0.5167 0.30624 0.40133 0.0
C2714 C 0.49802 0.2895 0.40159 0.0
C2715 C 0.48644 0.2792 0.3666 0.0
H2716 H 0.47597 0.24485 0.38506 0.0
C2717 C 0.4566 0.23601 0.33809 0.0
C2718 C 0.44582 0.22968 0.34542 0.0
C2719 C 0.46575 0.24484 0.34492 0.0
C2720 C 0.4787 0.25445 0.37982 0.0
H2721 H 0.52689 0.30844 0.38138 0.0
H2722 H 0.51273 0.29125 0.36942 0.0
H2723 H 0.49107 0.26124 0.39691 0.0
H2724 H 0.43625 0.22759 0.36569 0.0
H2725 H 0.45222 0.24305 0.37763 0.0
H2726 H 0.47399 0.27249 0.34956 0.0
C2727 C 0.51073 0.29343 0.3803 0.0
C2728 C 0.48736 0.26384 0.3866 0.0
C2729 C 0.51893 0.30317 0.38719 0.0
C2730 C 0.44454 0.23219 0.35979 0.0
C2731 C 0.45369 0.24104 0.36662 0.0
C2732 C 0.47778 0.26982 0.35982 0.0
C2733 C 0.50017 0.2865 0.38743 0.0
C2734 C 0.49128 0.27634 0.38009 0.0
C2735 C 0.46434 0.24755 0.35924 0.0
C2736 C 0.47377 0.25736 0.36637 0.0
H2737 H 0.50432 0.30125 0.41941 0.0
H2738 H 0.48989 0.28445 0.40735 0.0
H2739 H 0.4891 0.28883 0.36138 0.0
H2740 H 0.45802 0.23408 0.32706 0.0
H2741 H 0.47399 0.24948 0.33898 0.0
C2742 C 0.02107 0.20769 0.6008 0.0
C2743 C 0.02328 0.19466 0.60712 0.0
C2744 C 0.01227 0.21738 0.60689 0.0
C2745 C 0.99519 0.2268 0.63985 0.0
H2746 H 0.9686 0.24442 0.6156 0.0
C2747 C 0.9482 0.25586 0.66128 0.0
C2748 C 0.944 0.26813 0.6545 0.0
C2749 C 0.95847 0.24752 0.65561 0.0
C2750 C 0.97608 0.23976 0.62249 0.0
H2751 H 0.01834 0.18174 0.62496 0.0
H2752 H 0.00289 0.19868 0.63557 0.0
H2753 H 0.98577 0.22893 0.6057 0.0
H2754 H 0.94734 0.28121 0.63637 0.0
H2755 H 0.9655 0.2668 0.62661 0.0
H2756 H 0.98549 0.2376 0.65666 0.0
C2757 C 0.00802 0.20141 0.62595 0.0
C2758 C 0.98592 0.23088 0.61681 0.0
C2759 C 0.01677 0.19167 0.61982 0.0
C2760 C 0.95039 0.27189 0.64192 0.0
C2761 C 0.9607 0.26355 0.63625 0.0
C2762 C 0.98539 0.23574 0.64552 0.0
C2763 C 0.00552 0.21429 0.61944 0.0
C2764 C 0.99551 0.22422 0.62544 0.0
C2765 C 0.96485 0.25126 0.64303 0.0
C2766 C 0.97564 0.24223 0.63693 0.0
H2767 H 0.02581 0.21022 0.59092 0.0
H2768 H 0.01065 0.22728 0.6017 0.0
H2769 H 0.00256 0.22196 0.64673 0.0
H2770 H 0.94365 0.25276 0.67109 0.0
H2771 H 0.96128 0.23804 0.66101 0.0
C2772 C -0.00062 0.69883 0.90488 0.0
C2773 C 0.98622 0.69674 0.8994 0.0
C2774 C 0.00762 0.70963 0.89994 0.0
C2775 C 0.01257 0.73299 0.8699 0.0
H2776 H 0.03419 0.75447 0.8961 0.0
C2777 C 0.04514 0.77976 0.85218 0.0
C2778 C 0.05852 0.78031 0.85746 0.0
C2779 C 0.03556 0.77059 0.85786 0.0
C2780 C 0.02828 0.7485 0.88865 0.0
H2781 H 0.97145 0.70428 0.88434 0.0
H2782 H 0.98581 0.72328 0.87582 0.0
H2783 H 0.01897 0.73626 0.90469 0.0
H2784 H 0.07217 0.77206 0.87324 0.0
H2785 H 0.05551 0.7559 0.88303 0.0
H2786 H 0.02199 0.74511 0.85385 0.0
C2787 C 0.98978 0.71647 0.88386 0.0
C2788 C 0.01958 0.73806 0.89356 0.0
C2789 C 0.98151 0.70567 0.88882 0.0
C2790 C 0.06198 0.7718 0.86886 0.0
C2791 C 0.05239 0.76263 0.87455 0.0
C2792 C 0.02128 0.74342 0.86499 0.0
C2793 C 0.0029 0.71861 0.88942 0.0
C2794 C 0.01172 0.7301 0.88424 0.0
C2795 C 0.03914 0.76176 0.86897 0.0
C2796 C 0.02932 0.75122 0.87429 0.0
H2797 H 0.00324 0.69227 0.91317 0.0
H2798 H 0.01774 0.71088 0.90432 0.0
H2799 H 0.00678 0.72692 0.86243 0.0
H2800 H 0.04219 0.78607 0.84331 0.0
H2801 H 0.02538 0.77028 0.85344 0.0
C2802 C 0.54716 0.72993 0.15304 0.0
C2803 C 0.56126 0.73057 0.15043 0.0
C2804 C 0.53825 0.73935 0.14666 0.0
C2805 C 0.53789 0.77385 0.1293 0.0
H2806 H 0.50178 0.7623 0.11733 0.0
C2807 C 0.50265 0.80861 0.09587 0.0
C2808 C 0.48883 0.80935 0.09981 0.0
C2809 C 0.51145 0.79905 0.10219 0.0
C2810 C 0.51179 0.76569 0.12074 0.0
H2811 H 0.57707 0.74124 0.13876 0.0
H2812 H 0.56151 0.75751 0.12737 0.0
H2813 H 0.51727 0.74523 0.12759 0.0
H2814 H 0.4735 0.80069 0.11368 0.0
H2815 H 0.48885 0.78383 0.12454 0.0
H2816 H 0.53243 0.79428 0.12224 0.0
C2817 C 0.55734 0.74998 0.13462 0.0
C2818 C 0.52067 0.75593 0.12664 0.0
C2819 C 0.56626 0.74063 0.14109 0.0
C2820 C 0.48403 0.80028 0.11025 0.0
C2821 C 0.49281 0.79063 0.11649 0.0
C2822 C 0.52905 0.78358 0.12331 0.0
C2823 C 0.54324 0.74956 0.13744 0.0
C2824 C 0.53383 0.75989 0.131 0.0
C2825 C 0.5066 0.78992 0.1125 0.0
C2826 C 0.51591 0.77961 0.11898 0.0
H2827 H 0.54304 0.72241 0.16034 0.0
H2828 H 0.5275 0.73885 0.14924 0.0
H2829 H 0.54783 0.77734 0.1328 0.0
H2830 H 0.50665 0.81521 0.08767 0.0
H2831 H 0.52198 0.7986 0.09878 0.0
C2832 C 0.17632 0.32994 0.30697 0.0
C2833 C 0.17874 0.3379 0.31903 0.0
C2834 C 0.18062 0.33473 0.29393 0.0
C2835 C 0.19359 0.36535 0.27449 0.0
H2836 H 0.21728 0.33831 0.25668 0.0
C2837 C 0.23728 0.38122 0.23771 0.0
C2838 C 0.24139 0.37206 0.22711 0.0
C2839 C 0.22691 0.37745 0.24697 0.0
C2840 C 0.21047 0.34594 0.26124 0.0
H2841 H 0.18683 0.35753 0.32668 0.0
H2842 H 0.19406 0.36595 0.30393 0.0
H2843 H 0.20319 0.33123 0.27624 0.0
H2844 H 0.2374 0.35212 0.21735 0.0
H2845 H 0.21902 0.34564 0.23328 0.0
H2846 H 0.20106 0.38013 0.25962 0.0
C2847 C 0.18882 0.35603 0.30456 0.0
C2848 C 0.20239 0.34186 0.27251 0.0
C2849 C 0.18462 0.3512 0.31761 0.0
C2850 C 0.23454 0.3593 0.22557 0.0
C2851 C 0.22405 0.35558 0.23472 0.0
C2852 C 0.20158 0.36941 0.2631 0.0
C2853 C 0.1873 0.34763 0.29267 0.0
C2854 C 0.19413 0.35159 0.27946 0.0
C2855 C 0.22031 0.36448 0.24575 0.0
C2856 C 0.21041 0.35984 0.25658 0.0
H2857 H 0.1716 0.31976 0.30768 0.0
H2858 H 0.17915 0.32813 0.2849 0.0
H2859 H 0.18721 0.37303 0.27958 0.0
H2860 H 0.24248 0.39107 0.23923 0.0
H2861 H 0.2245 0.38448 0.25545 0.0
C2862 C 0.86716 0.98889 0.49209 0.0
C2863 C 0.87377 0.98924 0.47909 0.0
C2864 C 0.86998 0.97832 0.50164 0.0
C2865 C 0.89694 0.95403 0.51172 0.0
H2866 H 0.86868 0.93923 0.53591 0.0
C2867 C 0.91072 0.92061 0.55935 0.0
C2868 C 0.90484 0.92553 0.57179 0.0
C2869 C 0.90563 0.9249 0.54642 0.0
C2870 C 0.87668 0.94323 0.52921 0.0
H2871 H 0.88833 0.97854 0.46582 0.0
H2872 H 0.89338 0.9601 0.48265 0.0
H2873 H 0.86235 0.95361 0.51594 0.0
H2874 H 0.88851 0.93824 0.58033 0.0
H2875 H 0.87961 0.94555 0.55792 0.0
H2876 H 0.9113 0.94414 0.52529 0.0
C2877 C 0.88605 0.96809 0.48542 0.0
C2878 C 0.87306 0.95147 0.51779 0.0
C2879 C 0.88319 0.97867 0.47582 0.0
C2880 C 0.89319 0.93407 0.57099 0.0
C2881 C 0.88808 0.9383 0.5581 0.0
C2882 C 0.90056 0.94578 0.52314 0.0
C2883 C 0.87951 0.96785 0.49847 0.0
C2884 C 0.88318 0.95733 0.50919 0.0
C2885 C 0.8945 0.93412 0.54568 0.0
C2886 C 0.89049 0.94065 0.53226 0.0
H2887 H 0.86006 0.99701 0.49508 0.0
H2888 H 0.865 0.97863 0.51172 0.0
H2889 H 0.90498 0.95847 0.50537 0.0
H2890 H 0.91956 0.91383 0.5596 0.0
H2891 H 0.91066 0.92134 0.53702 0.0
C2892 C 0.24637 0.61868 0.74845 0.0
C2893 C 0.24443 0.62604 0.73595 0.0
C2894 C 0.25669 0.62254 0.75771 0.0
C2895 C 0.27818 0.65234 0.76776 0.0
H2896 H 0.29773 0.62414 0.78879 0.0
C2897 C 0.31631 0.66734 0.81086 0.0
C2898 C 0.31367 0.66074 0.82367 0.0
C2899 C 0.31048 0.6623 0.79854 0.0
C2900 C 0.29237 0.63213 0.78297 0.0
H2901 H 0.25193 0.64311 0.72326 0.0
H2902 H 0.27 0.64986 0.73947 0.0
H2903 H 0.28219 0.61711 0.77018 0.0
H2904 H 0.30325 0.64329 0.83343 0.0
H2905 H 0.29336 0.63442 0.81203 0.0
H2906 H 0.28813 0.66734 0.78076 0.0
C2907 C 0.26342 0.6412 0.74217 0.0
C2908 C 0.28344 0.62811 0.77236 0.0
C2909 C 0.25306 0.63736 0.7329 0.0
C2910 C 0.30575 0.64851 0.82375 0.0
C2911 C 0.30001 0.64343 0.81145 0.0
C2912 C 0.28716 0.65635 0.77834 0.0
C2913 C 0.26535 0.63383 0.75469 0.0
C2914 C 0.27598 0.63815 0.76487 0.0
C2915 C 0.30198 0.65049 0.79879 0.0
C2916 C 0.2941 0.64628 0.78628 0.0
H2917 H 0.23976 0.61006 0.7512 0.0
H2918 H 0.25768 0.61683 0.7674 0.0
H2919 H 0.2725 0.66034 0.7623 0.0
H2920 H 0.32251 0.67667 0.8104 0.0
H2921 H 0.31231 0.66784 0.78889 0.0
C2922 C 0.608 0.05518 0.07565 0.0
C2923 C 0.6004 0.06757 0.07678 0.0
C2924 C 0.61285 0.05068 0.06277 0.0
C2925 C 0.62659 0.0457 0.03512 0.0
H2926 H 0.59952 0.0443 0.00566 0.0
C2927 C 0.63688 0.01504 0.98487 0.0
C2928 C 0.62626 0.00603 0.98085 0.0
C2929 C 0.63454 0.02558 0.99461 0.0
C2930 C 0.60721 0.04466 0.01376 0.0
H2931 H 0.59247 0.08524 0.0652 0.0
H2932 H 0.60084 0.07719 0.04255 0.0
H2933 H 0.59468 0.05736 0.02693 0.0
H2934 H 0.60477 0.00133 0.98352 0.0
H2935 H 0.6007 0.01958 0.00066 0.0
H2936 H 0.6388 0.03236 0.02239 0.0
C2937 C 0.60295 0.07099 0.05173 0.0
C2938 C 0.60451 0.05228 0.02587 0.0
C2939 C 0.59815 0.07557 0.06469 0.0
C2940 C 0.61312 0.00818 0.98632 0.0
C2941 C 0.61079 0.01868 0.99611 0.0
C2942 C 0.62929 0.03809 0.02304 0.0
C2943 C 0.61018 0.05837 0.05062 0.0
C2944 C 0.614 0.0525 0.03686 0.0
C2945 C 0.62155 0.02731 0.00061 0.0
C2946 C 0.61946 0.03713 0.01239 0.0
H2947 H 0.60965 0.04852 0.0846 0.0
H2948 H 0.61813 0.04077 0.06225 0.0
H2949 H 0.63418 0.04583 0.04334 0.0
H2950 H 0.64706 0.01379 0.98062 0.0
H2951 H 0.64298 0.03221 0.99767 0.0
C2952 C 0.68187 0.16512 0.68652 0.0
C2953 C 0.68271 0.15764 0.67394 0.0
C2954 C 0.68759 0.15979 0.69875 0.0
C2955 C 0.71422 0.1343 0.7092 0.0
H2956 H 0.70401 0.14606 0.74644 0.0
C2957 C 0.74365 0.11691 0.75814 0.0
C2958 C 0.74914 0.12817 0.76564 0.0
C2959 C 0.73357 0.11916 0.7481 0.0
C2960 C 0.70689 0.14267 0.73608 0.0
H2961 H 0.68926 0.13798 0.66484 0.0
H2962 H 0.69808 0.1283 0.68625 0.0
H2963 H 0.68903 0.15151 0.72678 0.0
H2964 H 0.74809 0.15046 0.76901 0.0
H2965 H 0.73016 0.15437 0.75157 0.0
H2966 H 0.73196 0.12529 0.71861 0.0
C2967 C 0.69367 0.13865 0.68655 0.0
C2968 C 0.69839 0.14585 0.72479 0.0
C2969 C 0.68829 0.14412 0.67424 0.0
C2970 C 0.74403 0.14164 0.76331 0.0
C2971 C 0.73374 0.14385 0.75345 0.0
C2972 C 0.72252 0.13088 0.7205 0.0
C2973 C 0.694 0.14666 0.69882 0.0
C2974 C 0.70208 0.14194 0.71114 0.0
C2975 C 0.72863 0.13266 0.74559 0.0
C2976 C 0.71906 0.13524 0.73398 0.0
H2977 H 0.67731 0.17539 0.68685 0.0
H2978 H 0.68759 0.16634 0.70793 0.0
H2979 H 0.71768 0.13139 0.69889 0.0
H2980 H 0.74751 0.10644 0.75969 0.0
H2981 H 0.72977 0.1104 0.74213 0.0
C2982 C 0.12089 0.48554 0.01648 0.0
C2983 C 0.13053 0.49627 0.01473 0.0
C2984 C 0.11827 0.4761 0.00568 0.0
C2985 C 0.12078 0.47373 0.96749 0.0
H2986 H 0.11284 0.43455 0.97329 0.0
C2987 C 0.10866 0.43896 0.92105 0.0
C2988 C 0.09663 0.43105 0.92232 0.0
C2989 C 0.11483 0.44476 0.93281 0.0
C2990 C 0.11502 0.44548 0.97154 0.0
H2991 H 0.14511 0.50532 0.00026 0.0
H2992 H 0.14089 0.48868 0.98174 0.0
H2993 H 0.11957 0.44911 0.9931 0.0
H2994 H 0.08241 0.42196 0.9371 0.0
H2995 H 0.09301 0.43239 0.9576 0.0
H2996 H 0.11602 0.47028 0.94608 0.0
C2997 C 0.13519 0.48766 0.99136 0.0
C2998 C 0.11883 0.45381 0.98287 0.0
C2999 C 0.13774 0.49711 0.00208 0.0
C3000 C 0.09153 0.42821 0.93574 0.0
C3001 C 0.09769 0.43407 0.94751 0.0
C3002 C 0.11702 0.46543 0.95622 0.0
C3003 C 0.12526 0.4772 0.99292 0.0
C3004 C 0.1217 0.46806 0.98096 0.0
C3005 C 0.10909 0.44286 0.9461 0.0
C3006 C 0.11404 0.45122 0.95809 0.0
H3007 H 0.11528 0.48448 0.02615 0.0
H3008 H 0.11049 0.46823 0.00719 0.0
H3009 H 0.1226 0.48471 0.96568 0.0
H3010 H 0.11285 0.44147 0.91091 0.0
H3011 H 0.12378 0.45126 0.93141 0.0
C3012 C 0.74528 0.88019 0.24967 0.0
C3013 C 0.74403 0.87309 0.26242 0.0
C3014 C 0.7554 0.87646 0.24013 0.0
C3015 C 0.77748 0.84713 0.23005 0.0
H3016 H 0.79539 0.87535 0.20758 0.0
C3017 C 0.81475 0.83219 0.18614 0.0
C3018 C 0.8116 0.8384 0.17325 0.0
C3019 C 0.80907 0.83735 0.19848 0.0
C3020 C 0.79049 0.86736 0.2138 0.0
H3021 H 0.75258 0.85667 0.27526 0.0
H3022 H 0.77031 0.85015 0.25857 0.0
H3023 H 0.78027 0.8824 0.22653 0.0
H3024 H 0.80039 0.85525 0.16335 0.0
H3025 H 0.79075 0.86431 0.1848 0.0
H3026 H 0.78747 0.83211 0.21712 0.0
C3027 C 0.76334 0.85849 0.2559 0.0
C3028 C 0.78179 0.87138 0.22461 0.0
C3029 C 0.75317 0.8622 0.26544 0.0
C3030 C 0.80328 0.85035 0.17309 0.0
C3031 C 0.79769 0.85554 0.18541 0.0
C3032 C 0.78622 0.84311 0.21927 0.0
C3033 C 0.76455 0.86557 0.24311 0.0
C3034 C 0.77493 0.86132 0.23265 0.0
C3035 C 0.80021 0.84887 0.19819 0.0
C3036 C 0.79257 0.85318 0.21082 0.0
H3037 H 0.73826 0.88847 0.24694 0.0
H3038 H 0.75585 0.88193 0.23026 0.0
H3039 H 0.77226 0.83911 0.23594 0.0
H3040 H 0.82126 0.82308 0.18665 0.0
H3041 H 0.81133 0.83211 0.20821 0.0
C3042 C 0.375 0.5126 0.51887 0.0
C3043 C 0.36786 0.50066 0.51445 0.0
C3044 C 0.37795 0.52335 0.50948 0.0
C3045 C 0.36787 0.53792 0.47536 0.0
H3046 H 0.40563 0.54978 0.47266 0.0
C3047 C 0.39153 0.55814 0.42482 0.0
C3048 C 0.40237 0.56773 0.42525 0.0
C3049 C 0.38562 0.55323 0.43711 0.0
C3050 C 0.39497 0.54688 0.47345 0.0
H3051 H 0.35839 0.49067 0.49658 0.0
H3052 H 0.36333 0.50945 0.48038 0.0
H3053 H 0.39856 0.5348 0.49186 0.0
H3054 H 0.41484 0.58046 0.43892 0.0
H3055 H 0.40445 0.57189 0.46046 0.0
H3056 H 0.36432 0.54967 0.45676 0.0
C3057 C 0.36646 0.51059 0.49115 0.0
C3058 C 0.39093 0.53826 0.48445 0.0
C3059 C 0.36363 0.49982 0.50046 0.0
C3060 C 0.40663 0.57292 0.43825 0.0
C3061 C 0.4007 0.568 0.45058 0.0
C3062 C 0.37187 0.54661 0.46442 0.0
C3063 C 0.37372 0.52243 0.49552 0.0
C3064 C 0.37745 0.53332 0.48524 0.0
C3065 C 0.39039 0.5578 0.45015 0.0
C3066 C 0.38557 0.55081 0.46307 0.0
H3067 H 0.37824 0.51369 0.5296 0.0
H3068 H 0.38351 0.5324 0.51314 0.0
H3069 H 0.35734 0.53446 0.47587 0.0
H3070 H 0.38814 0.55372 0.41503 0.0
H3071 H 0.37786 0.54522 0.43636 0.0
C3072 C 0.24929 0.25358 0.36214 0.0
C3073 C 0.24052 0.2521 0.37365 0.0
C3074 C 0.25873 0.24319 0.35886 0.0
C3075 C 0.27867 0.21519 0.37445 0.0
H3076 H 0.28502 0.20469 0.33596 0.0
C3077 C 0.32953 0.19356 0.35369 0.0
C3078 C 0.32929 0.18365 0.34289 0.0
C3079 C 0.31738 0.19909 0.35893 0.0
C3080 C 0.28324 0.20731 0.34679 0.0
H3081 H 0.23464 0.23828 0.39055 0.0
H3082 H 0.2514 0.22028 0.38498 0.0
H3083 H 0.26596 0.22 0.34171 0.0
H3084 H 0.31606 0.17104 0.32987 0.0
H3085 H 0.29481 0.18088 0.33892 0.0
H3086 H 0.29623 0.20281 0.37947 0.0
C3087 C 0.25094 0.22955 0.37855 0.0
C3088 C 0.27242 0.2162 0.35005 0.0
C3089 C 0.24139 0.2399 0.38176 0.0
C3090 C 0.31659 0.17882 0.33803 0.0
C3091 C 0.30444 0.18443 0.34321 0.0
C3092 C 0.28958 0.20638 0.37118 0.0
C3093 C 0.2597 0.23111 0.36707 0.0
C3094 C 0.27021 0.22047 0.36387 0.0
C3095 C 0.30473 0.19491 0.35343 0.0
C3096 C 0.29213 0.20257 0.35727 0.0
H3097 H 0.2491 0.26293 0.35581 0.0
H3098 H 0.26552 0.24478 0.35009 0.0
H3099 H 0.27723 0.21835 0.38519 0.0
H3100 H 0.3391 0.19771 0.35753 0.0
H3101 H 0.31795 0.20727 0.36668 0.0
C3102 C 0.00068 0.9936 0.63969 0.0
C3103 C 0.99736 0.98349 0.62966 0.0
C3104 C 0.0108 0.00351 0.637 0.0
C3105 C 0.03964 0.01235 0.61354 0.0
H3106 H 0.02865 0.05037 0.6213 0.0
C3107 C 0.06224 0.06031 0.58557 0.0
C3108 C 0.06256 0.07315 0.59263 0.0
C3109 C 0.05696 0.04844 0.59206 0.0
C3110 C 0.03208 0.03983 0.61933 0.0
H3111 H 0.00233 0.97559 0.6091 0.0
H3112 H 0.01996 0.99291 0.60439 0.0
H3113 H 0.01434 0.03124 0.62903 0.0
H3114 H 0.05842 0.0833 0.61241 0.0
H3115 H 0.04976 0.06251 0.62385 0.0
H3116 H 0.05727 0.02103 0.60353 0.0
C3117 C 0.01486 0.99308 0.6144 0.0
C3118 C 0.02383 0.02884 0.62375 0.0
C3119 C 0.00473 0.98317 0.61709 0.0
C3120 C 0.05843 0.07359 0.60666 0.0
C3121 C 0.05326 0.0617 0.61318 0.0
C3122 C 0.04796 0.02338 0.60916 0.0
C3123 C 0.01781 0.00352 0.62422 0.0
C3124 C 0.02738 0.01499 0.6207 0.0
C3125 C 0.05197 0.04912 0.60579 0.0
C3126 C 0.04415 0.03726 0.61179 0.0
H3127 H 0.99538 0.99394 0.64959 0.0
H3128 H 0.013 0.01129 0.64487 0.0
H3129 H 0.04273 0.00177 0.61119 0.0
H3130 H 0.06555 0.05956 0.57483 0.0
H3131 H 0.05609 0.03894 0.58602 0.0
C3132 C 0.26641 0.76988 0.87767 0.0
C3133 C 0.26582 0.75685 0.87097 0.0
C3134 C 0.2575 0.78061 0.87385 0.0
C3135 C 0.23436 0.79226 0.84573 0.0
H3136 H 0.21391 0.80998 0.87547 0.0
C3137 C 0.18971 0.82895 0.83344 0.0
C3138 C 0.17755 0.8252 0.8403 0.0
C3139 C 0.20229 0.82381 0.83803 0.0
C3140 C 0.21961 0.80521 0.86706 0.0
H3141 H 0.25541 0.74498 0.85491 0.0
H3142 H 0.24007 0.7637 0.84815 0.0
H3143 H 0.23282 0.79438 0.88118 0.0
H3144 H 0.16921 0.81362 0.85779 0.0
H3145 H 0.19108 0.80485 0.86585 0.0
H3146 H 0.22079 0.80253 0.83162 0.0
C3147 C 0.24753 0.76568 0.85625 0.0
C3148 C 0.2305 0.79636 0.87032 0.0
C3149 C 0.25635 0.75494 0.86013 0.0
C3150 C 0.17837 0.81693 0.85238 0.0
C3151 C 0.19093 0.81186 0.857 0.0
C3152 C 0.22354 0.80115 0.84247 0.0
C3153 C 0.2479 0.77857 0.86317 0.0
C3154 C 0.23772 0.78948 0.85969 0.0
C3155 C 0.20297 0.81487 0.84962 0.0
C3156 C 0.2158 0.80741 0.85311 0.0
H3157 H 0.27374 0.7718 0.8859 0.0
H3158 H 0.25809 0.7905 0.87927 0.0
H3159 H 0.23986 0.78722 0.83733 0.0
H3160 H 0.18945 0.83546 0.82422 0.0
H3161 H 0.21143 0.82646 0.83226 0.0
C3162 C 0.50084 0.00321 0.12967 0.0
C3163 C 0.50255 0.01567 0.12218 0.0
C3164 C 0.49074 0.99368 0.12588 0.0
C3165 C 0.46993 0.98278 0.09591 0.0
H3166 H 0.45092 0.96103 0.12394 0.0
C3167 C 0.43372 0.93805 0.08064 0.0
C3168 C 0.43674 0.92539 0.08737 0.0
C3169 C 0.43905 0.95061 0.08567 0.0
C3170 C 0.45613 0.96705 0.116 0.0
H3171 H 0.4948 0.02805 0.105 0.0
H3172 H 0.4771 0.01137 0.09836 0.0
H3173 H 0.4656 0.9803 0.1311 0.0
H3174 H 0.44734 0.91613 0.10497 0.0
H3175 H 0.45635 0.93796 0.11381 0.0
H3176 H 0.46071 0.96931 0.08084 0.0
C3177 C 0.4837 0.00891 0.10708 0.0
C3178 C 0.46457 0.97804 0.12009 0.0
C3179 C 0.49384 0.01845 0.11086 0.0
C3180 C 0.44456 0.92568 0.09966 0.0
C3181 C 0.44978 0.93822 0.10472 0.0
C3182 C 0.46144 0.97181 0.09182 0.0
C3183 C 0.48208 0.99638 0.11451 0.0
C3184 C 0.47185 0.98581 0.11011 0.0
C3185 C 0.44741 0.95076 0.09757 0.0
C3186 C 0.45472 0.96362 0.10184 0.0
H3187 H 0.50753 0.00066 0.13829 0.0
H3188 H 0.48998 0.984 0.13164 0.0
H3189 H 0.47549 0.98844 0.08796 0.0
H3190 H 0.42759 0.93821 0.07125 0.0
H3191 H 0.43691 0.96015 0.08004 0.0
C3192 C 0.73795 0.26212 0.61175 0.0
C3193 C 0.73715 0.25002 0.61997 0.0
C3194 C 0.74743 0.27255 0.61493 0.0
C3195 C 0.76857 0.28628 0.64351 0.0
H3196 H 0.7933 0.29864 0.61444 0.0
C3197 C 0.82641 0.30665 0.64102 0.0
C3198 C 0.82633 0.31653 0.65184 0.0
C3199 C 0.81417 0.30171 0.63543 0.0
C3200 C 0.78639 0.29538 0.62263 0.0
H3201 H 0.74529 0.23949 0.63815 0.0
H3202 H 0.76178 0.25771 0.64374 0.0
H3203 H 0.77406 0.28347 0.60853 0.0
H3204 H 0.81335 0.32977 0.6645 0.0
H3205 H 0.79193 0.32096 0.65484 0.0
H3206 H 0.78115 0.29766 0.65771 0.0
C3207 C 0.75511 0.25915 0.63485 0.0
C3208 C 0.77534 0.28678 0.61924 0.0
C3209 C 0.74578 0.24866 0.63157 0.0
C3210 C 0.81374 0.32199 0.65634 0.0
C3211 C 0.80149 0.31697 0.6508 0.0
C3212 C 0.77952 0.29495 0.64688 0.0
C3213 C 0.7561 0.27115 0.62652 0.0
C3214 C 0.76657 0.28182 0.62972 0.0
C3215 C 0.80158 0.30647 0.6406 0.0
C3216 C 0.78877 0.29928 0.63654 0.0
H3217 H 0.73144 0.26337 0.60271 0.0
H3218 H 0.74798 0.28172 0.60837 0.0
H3219 H 0.76187 0.28272 0.65177 0.0
H3220 H 0.83588 0.30205 0.63745 0.0
H3221 H 0.81457 0.29349 0.6277 0.0
C3222 C 0.99619 0.49438 0.86495 0.0
C3223 C 0.99799 0.48234 0.87308 0.0
C3224 C 0.98634 0.50426 0.86855 0.0
C3225 C 0.96676 0.51682 0.89882 0.0
H3226 H 0.94804 0.53873 0.87072 0.0
C3227 C 0.93258 0.5631 0.91394 0.0
C3228 C 0.9362 0.57557 0.90717 0.0
C3229 C 0.93722 0.55027 0.90892 0.0
C3230 C 0.95316 0.53266 0.87868 0.0
H3231 H 0.99057 0.47097 0.89107 0.0
H3232 H 0.97322 0.48816 0.89729 0.0
H3233 H 0.96174 0.51866 0.86369 0.0
H3234 H 0.94705 0.58421 0.88941 0.0
H3235 H 0.95486 0.56188 0.88055 0.0
H3236 H 0.95838 0.53097 0.91378 0.0
C3237 C 0.9796 0.4901 0.88828 0.0
C3238 C 0.96105 0.52121 0.87466 0.0
C3239 C 0.98953 0.48025 0.88472 0.0
C3240 C 0.94385 0.57483 0.89478 0.0
C3241 C 0.94838 0.56201 0.8897 0.0
C3242 C 0.95878 0.5282 0.90284 0.0
C3243 C 0.97799 0.50231 0.88032 0.0
C3244 C 0.96824 0.51337 0.88466 0.0
C3245 C 0.94546 0.54964 0.89695 0.0
C3246 C 0.95218 0.53644 0.89278 0.0
H3247 H 0.00268 0.49638 0.85603 0.0
H3248 H 0.9856 0.51365 0.86233 0.0
H3249 H 0.97228 0.51116 0.9068 0.0
H3250 H 0.92652 0.56329 0.92339 0.0
H3251 H 0.93467 0.54087 0.91461 0.0
C3252 C 0.68701 0.67077 0.16524 0.0
C3253 C 0.67485 0.67582 0.15926 0.0
C3254 C 0.6997 0.67524 0.16027 0.0
C3255 C 0.71707 0.69403 0.13147 0.0
H3256 H 0.73919 0.7098 0.16107 0.0
C3257 C 0.76503 0.72762 0.12054 0.0
C3258 C 0.76483 0.74058 0.12741 0.0
C3259 C 0.75595 0.71704 0.12439 0.0
C3260 C 0.73319 0.70534 0.1527 0.0
H3261 H 0.66659 0.68897 0.14289 0.0
H3262 H 0.68864 0.69652 0.13413 0.0
H3263 H 0.71959 0.69523 0.16692 0.0
H3264 H 0.75498 0.75242 0.14388 0.0
H3265 H 0.73945 0.7339 0.15074 0.0
H3266 H 0.73034 0.70471 0.11728 0.0
C3267 C 0.68838 0.68904 0.14259 0.0
C3268 C 0.72205 0.69689 0.15604 0.0
C3269 C 0.67571 0.68467 0.14761 0.0
C3270 C 0.75564 0.74252 0.13851 0.0
C3271 C 0.7467 0.73191 0.14244 0.0
C3272 C 0.72829 0.7024 0.12814 0.0
C3273 C 0.70049 0.68474 0.14916 0.0
C3274 C 0.71363 0.6915 0.14547 0.0
C3275 C 0.74662 0.71913 0.1353 0.0
C3276 C 0.73619 0.70849 0.13874 0.0
H3277 H 0.68671 0.66376 0.17408 0.0
H3278 H 0.70889 0.67162 0.16542 0.0
H3279 H 0.7108 0.68993 0.12312 0.0
H3280 H 0.77213 0.72565 0.11211 0.0
H3281 H 0.75617 0.70724 0.11878 0.0
C3282 C 0.50488 0.50498 0.36588 0.0
C3283 C 0.50334 0.51711 0.37392 0.0
C3284 C 0.51516 0.4954 0.36894 0.0
C3285 C 0.53695 0.48388 0.39805 0.0
H3286 H 0.55353 0.46111 0.36924 0.0
C3287 C 0.57147 0.43763 0.41198 0.0
C3288 C 0.56681 0.42503 0.40618 0.0
C3289 C 0.56692 0.45041 0.40675 0.0
C3290 C 0.54904 0.46745 0.37738 0.0
H3291 H 0.51165 0.52898 0.39115 0.0
H3292 H 0.52983 0.51233 0.39639 0.0
H3293 H 0.53944 0.48107 0.3627 0.0
H3294 H 0.5543 0.41607 0.38978 0.0
H3295 H 0.54667 0.4383 0.3805 0.0
H3296 H 0.54636 0.4701 0.41271 0.0
C3297 C 0.5229 0.51008 0.38789 0.0
C3298 C 0.54091 0.47883 0.37366 0.0
C3299 C 0.51251 0.51962 0.38489 0.0
C3300 C 0.55828 0.42553 0.39439 0.0
C3301 C 0.55386 0.4383 0.38908 0.0
C3302 C 0.54519 0.47259 0.40176 0.0
C3303 C 0.52424 0.49776 0.38005 0.0
C3304 C 0.53443 0.48693 0.38395 0.0
C3305 C 0.55776 0.45083 0.3955 0.0
C3306 C 0.551 0.46405 0.39147 0.0
H3307 H 0.49785 0.50268 0.35747 0.0
H3308 H 0.51567 0.4859 0.36287 0.0
H3309 H 0.53201 0.48974 0.40627 0.0
H3310 H 0.57824 0.43762 0.42091 0.0
H3311 H 0.57022 0.45994 0.41178 0.0
C3312 C 0.36934 0.22873 0.23037 0.0
C3313 C 0.37855 0.23223 0.24106 0.0
C3314 C 0.3663 0.23831 0.21982 0.0
C3315 C 0.37822 0.27136 0.20364 0.0
H3316 H 0.33979 0.27712 0.19581 0.0
C3317 C 0.3558 0.32361 0.18602 0.0
C3318 C 0.34414 0.32381 0.17747 0.0
C3319 C 0.36155 0.31099 0.19022 0.0
C3320 C 0.3506 0.27547 0.19759 0.0
H3321 H 0.39175 0.24856 0.24904 0.0
H3322 H 0.38644 0.26518 0.23073 0.0
H3323 H 0.34678 0.25746 0.21014 0.0
H3324 H 0.33011 0.3109 0.16566 0.0
H3325 H 0.34016 0.28881 0.17308 0.0
H3326 H 0.38195 0.28972 0.19153 0.0
C3327 C 0.38178 0.25496 0.23031 0.0
C3328 C 0.35461 0.26419 0.20584 0.0
C3329 C 0.3848 0.24542 0.24083 0.0
C3330 C 0.33895 0.3111 0.17245 0.0
C3331 C 0.34469 0.29845 0.17669 0.0
C3332 C 0.37421 0.28264 0.19539 0.0
C3333 C 0.37241 0.25157 0.21974 0.0
C3334 C 0.36842 0.26225 0.2093 0.0
C3335 C 0.35577 0.29826 0.186 0.0
C3336 C 0.36031 0.28505 0.19261 0.0
H3337 H 0.3645 0.21858 0.23014 0.0
H3338 H 0.35913 0.23535 0.21175 0.0
H3339 H 0.38898 0.26998 0.2059 0.0
H3340 H 0.35996 0.33317 0.19025 0.0
H3341 H 0.36999 0.31123 0.19753 0.0
C3342 C 0.84248 0.18657 0.82879 0.0
C3343 C 0.84741 0.17426 0.8226 0.0
C3344 C 0.84678 0.19962 0.82396 0.0
C3345 C 0.84848 0.22347 0.80302 0.0
H3346 H 0.88494 0.23061 0.78894 0.0
C3347 C 0.85924 0.2602 0.75702 0.0
C3348 C 0.87143 0.26793 0.75684 0.0
C3349 C 0.8566 0.25078 0.76779 0.0
C3350 C 0.87475 0.22893 0.793 0.0
H3351 H 0.86125 0.16613 0.80687 0.0
H3352 H 0.86881 0.18869 0.79868 0.0
H3353 H 0.88086 0.2104 0.80375 0.0
H3354 H 0.89003 0.27243 0.76827 0.0
H3355 H 0.88542 0.25595 0.78707 0.0
H3356 H 0.84231 0.24184 0.79202 0.0
C3357 C 0.86172 0.18832 0.80734 0.0
C3358 C 0.8724 0.21728 0.80139 0.0
C3359 C 0.85738 0.17532 0.81209 0.0
C3360 C 0.88067 0.26643 0.76797 0.0
C3361 C 0.87802 0.25701 0.77875 0.0
C3362 C 0.85083 0.23512 0.79461 0.0
C3363 C 0.85617 0.20061 0.81291 0.0
C3364 C 0.85916 0.2142 0.80616 0.0
C3365 C 0.86607 0.2489 0.77865 0.0
C3366 C 0.86391 0.23776 0.78918 0.0
H3367 H 0.83495 0.18614 0.83704 0.0
H3368 H 0.84247 0.20892 0.82858 0.0
H3369 H 0.83814 0.22134 0.80644 0.0
H3370 H 0.85199 0.26098 0.74853 0.0
H3371 H 0.84739 0.24455 0.76728 0.0
C3372 C 0.99591 0.61242 0.00077 0.0
C3373 C 0.98642 0.6232 0.00294 0.0
C3374 C 0.00491 0.60847 0.01133 0.0
C3375 C 0.02261 0.62219 0.04165 0.0
H3376 H 0.03152 0.58333 0.04804 0.0
C3377 C 0.07459 0.6029 0.06165 0.0
C3378 C 0.07508 0.59105 0.07026 0.0
C3379 C 0.06212 0.60784 0.05661 0.0
C3380 C 0.02901 0.59423 0.04659 0.0
H3381 H 0.97873 0.63798 0.01817 0.0
H3382 H 0.99476 0.63129 0.0365 0.0
H3383 H 0.01237 0.58935 0.03294 0.0
H3384 H 0.06276 0.57574 0.08117 0.0
H3385 H 0.04096 0.58428 0.07216 0.0
H3386 H 0.03957 0.62706 0.05493 0.0
C3387 C 0.99518 0.62594 0.02657 0.0
C3388 C 0.01813 0.59767 0.03783 0.0
C3389 C 0.98605 0.62981 0.01604 0.0
C3390 C 0.06275 0.58475 0.07437 0.0
C3391 C 0.05027 0.58964 0.06924 0.0
C3392 C 0.03357 0.61875 0.05033 0.0
C3393 C 0.00474 0.61528 0.02428 0.0
C3394 C 0.01504 0.61168 0.035 0.0
C3395 C 0.04988 0.60099 0.05999 0.0
C3396 C 0.03707 0.60473 0.05263 0.0
H3397 H 0.99671 0.60727 0.99076 0.0
H3398 H 0.01234 0.60038 0.00918 0.0
H3399 H 0.02049 0.63308 0.0396 0.0
H3400 H 0.08388 0.60788 0.05807 0.0
H3401 H 0.06217 0.61649 0.04936 0.0
C3402 C 0.65337 0.8147 0.32693 0.0
C3403 C 0.65005 0.82671 0.31921 0.0
C3404 C 0.64891 0.80154 0.32257 0.0
C3405 C 0.64773 0.77602 0.3034 0.0
H3406 H 0.61218 0.77018 0.28655 0.0
C3407 C 0.63802 0.73672 0.2593 0.0
C3408 C 0.62536 0.72986 0.25862 0.0
C3409 C 0.64054 0.74661 0.26967 0.0
C3410 C 0.62208 0.7715 0.29141 0.0
H3411 H 0.63906 0.83417 0.30099 0.0
H3412 H 0.63108 0.81146 0.29369 0.0
H3413 H 0.61648 0.79132 0.2999 0.0
H3414 H 0.60573 0.72736 0.26882 0.0
H3415 H 0.61011 0.74472 0.28687 0.0
H3416 H 0.65345 0.75637 0.29455 0.0
C3417 C 0.63704 0.8122 0.30318 0.0
C3418 C 0.62457 0.78367 0.29896 0.0
C3419 C 0.6416 0.82528 0.30743 0.0
C3420 C 0.61549 0.73267 0.2689 0.0
C3421 C 0.61801 0.74258 0.27925 0.0
C3422 C 0.64526 0.76385 0.29579 0.0
C3423 C 0.6409 0.80015 0.3105 0.0
C3424 C 0.63753 0.78625 0.30469 0.0
C3425 C 0.63045 0.74987 0.27958 0.0
C3426 C 0.63252 0.76165 0.28938 0.0
H3427 H 0.65969 0.81541 0.33616 0.0
H3428 H 0.65193 0.79243 0.32848 0.0
H3429 H 0.65785 0.77774 0.30761 0.0
H3430 H 0.64578 0.73492 0.25146 0.0
H3431 H 0.65017 0.75218 0.26951 0.0
C3432 C 0.42187 0.39412 0.55891 0.0
C3433 C 0.42078 0.40488 0.56879 0.0
C3434 C 0.43465 0.38958 0.55437 0.0
C3435 C 0.4692 0.40309 0.54966 0.0
H3436 H 0.47651 0.36528 0.53751 0.0
C3437 C 0.50659 0.39024 0.50543 0.0
C3438 C 0.51425 0.37787 0.50608 0.0
C3439 C 0.49695 0.3933 0.51571 0.0
C3440 C 0.47477 0.37586 0.54104 0.0
H3441 H 0.43228 0.41867 0.58231 0.0
H3442 H 0.45467 0.41068 0.57437 0.0
H3443 H 0.45637 0.3701 0.55165 0.0
H3444 H 0.51827 0.35936 0.5184 0.0
H3445 H 0.50138 0.36471 0.53635 0.0
H3446 H 0.48748 0.40888 0.53888 0.0
C3447 C 0.4456 0.40592 0.57001 0.0
C3448 C 0.46315 0.37863 0.54903 0.0
C3449 C 0.43279 0.41048 0.57457 0.0
C3450 C 0.51236 0.36886 0.51748 0.0
C3451 C 0.50271 0.37193 0.52777 0.0
C3452 C 0.48082 0.40031 0.54168 0.0
C3453 C 0.44666 0.39569 0.55958 0.0
C3454 C 0.46004 0.39234 0.5531 0.0
C3455 C 0.49474 0.38408 0.52688 0.0
C3456 C 0.48353 0.38673 0.53695 0.0
H3457 H 0.41284 0.38977 0.55405 0.0
H3458 H 0.43507 0.38183 0.54618 0.0
H3459 H 0.46706 0.41379 0.55253 0.0
H3460 H 0.50765 0.39731 0.4967 0.0
H3461 H 0.49083 0.40263 0.51457 0.0
C3462 C 0.15023 0.68126 0.68106 0.0
C3463 C 0.14795 0.66798 0.68686 0.0
C3464 C 0.14606 0.69329 0.68816 0.0
C3465 C 0.14008 0.70458 0.72405 0.0
H3466 H 0.12302 0.73729 0.70794 0.0
C3467 C 0.11877 0.74786 0.75859 0.0
C3468 C 0.12131 0.76175 0.75472 0.0
C3469 C 0.12162 0.73698 0.74944 0.0
C3470 C 0.12792 0.72828 0.71254 0.0
H3471 H 0.13899 0.65704 0.70449 0.0
H3472 H 0.13142 0.67782 0.71646 0.0
H3473 H 0.12829 0.7172 0.69308 0.0
H3474 H 0.12858 0.77509 0.73804 0.0
H3475 H 0.13386 0.75594 0.72209 0.0
H3476 H 0.13985 0.7155 0.74342 0.0
C3477 C 0.1366 0.67897 0.70655 0.0
C3478 C 0.13091 0.71679 0.70404 0.0
C3479 C 0.14077 0.66701 0.69952 0.0
C3480 C 0.12665 0.76449 0.74138 0.0
C3481 C 0.12952 0.75355 0.7322 0.0
C3482 C 0.13714 0.71599 0.73248 0.0
C3483 C 0.13959 0.69223 0.70119 0.0
C3484 C 0.13682 0.70475 0.7098 0.0
C3485 C 0.12718 0.73966 0.7362 0.0
C3486 C 0.13084 0.72789 0.72689 0.0
H3487 H 0.15562 0.68237 0.67126 0.0
H3488 H 0.14847 0.7034 0.68377 0.0
H3489 H 0.14498 0.69559 0.72872 0.0
H3490 H 0.11481 0.74535 0.76883 0.0
H3491 H 0.11951 0.7264 0.75277 0.0
C3492 C 0.49593 0.86626 0.98737 0.0
C3493 C 0.48439 0.87436 0.99053 0.0
C3494 C 0.5048 0.87024 0.97671 0.0
C3495 C 0.51579 0.90145 0.95738 0.0
H3496 H 0.53653 0.8743 0.9362 0.0
C3497 C 0.56036 0.91797 0.92193 0.0
C3498 C 0.57263 0.91113 0.92534 0.0
C3499 C 0.54782 0.91279 0.92662 0.0
C3500 C 0.53074 0.882 0.94197 0.0
H3501 H 0.47275 0.89263 0.9846 0.0
H3502 H 0.48816 0.8995 0.96579 0.0
H3503 H 0.51739 0.86659 0.95059 0.0
H3504 H 0.58117 0.8931 0.93593 0.0
H3505 H 0.55938 0.88394 0.94371 0.0
H3506 H 0.52933 0.9168 0.94896 0.0
C3507 C 0.49051 0.89023 0.97175 0.0
C3508 C 0.51984 0.87759 0.95028 0.0
C3509 C 0.48168 0.8863 0.98252 0.0
C3510 C 0.57197 0.89853 0.93283 0.0
C3511 C 0.55944 0.89328 0.93736 0.0
C3512 C 0.52661 0.90586 0.94897 0.0
C3513 C 0.5023 0.88236 0.96886 0.0
C3514 C 0.5125 0.88722 0.95843 0.0
C3515 C 0.54729 0.90056 0.93466 0.0
C3516 C 0.53444 0.89613 0.94152 0.0
H3517 H 0.49839 0.85711 0.99349 0.0
H3518 H 0.51391 0.86407 0.97499 0.0
H3519 H 0.5105 0.90915 0.96362 0.0
H3520 H 0.56047 0.92757 0.91599 0.0
H3521 H 0.53857 0.91853 0.92429 0.0
C3522 C 0.92191 0.10454 0.44067 0.0
C3523 C 0.92243 0.09326 0.43132 0.0
C3524 C 0.93391 0.11048 0.4458 0.0
C3525 C 0.96858 0.10036 0.45432 0.0
H3526 H 0.97329 0.13969 0.46225 0.0
C3527 C 0.0135 0.11987 0.48783 0.0
C3528 C 0.01016 0.12986 0.49797 0.0
C3529 C 0.00427 0.11662 0.47721 0.0
C3530 C 0.97211 0.12867 0.46017 0.0
H3531 H 0.93603 0.08003 0.41933 0.0
H3532 H 0.95702 0.09028 0.42854 0.0
H3533 H 0.95431 0.13206 0.4476 0.0
H3534 H 0.99462 0.14439 0.50486 0.0
H3535 H 0.97842 0.13856 0.48655 0.0
H3536 H 0.9859 0.09681 0.46739 0.0
C3537 C 0.94728 0.09442 0.43193 0.0
C3538 C 0.96128 0.12432 0.45173 0.0
C3539 C 0.93526 0.08854 0.4267 0.0
C3540 C 0.99754 0.13676 0.4971 0.0
C3541 C 0.98828 0.13345 0.48655 0.0
C3542 C 0.97934 0.10468 0.46284 0.0
C3543 C 0.94671 0.10523 0.44179 0.0
C3544 C 0.95924 0.11009 0.44898 0.0
C3545 C 0.99145 0.12322 0.47656 0.0
C3546 C 0.98105 0.11886 0.46613 0.0
H3547 H 0.91225 0.10829 0.44468 0.0
H3548 H 0.93314 0.11867 0.45354 0.0
H3549 H 0.96717 0.08931 0.45254 0.0
H3550 H 0.02325 0.11454 0.48813 0.0
H3551 H 0.00714 0.10885 0.46956 0.0
loop_
_geom_bond_atom_site_label_1
_geom_bond_atom_site_label_2
_geom_bond_distance
_geom_bond_site_symmetry_2
_ccdc_geom_bond_type
Li0 N17 1.990 . S
Li0 O60 1.956 . S
Li0 O61 1.970 . S
Li0 O62 1.961 . S
Li1 N25 1.990 . S
Li1 O60 1.970 . S
Li1 O61 1.956 . S
Li1 O63 1.961 . S
Li2 N47 1.990 . S
Li2 O60 1.961 . S
Li2 O62 1.956 . S
Li2 O63 1.970 . S
Li3 N53 1.990 . S
Li3 O61 1.961 . S
Li3 O62 1.970 . S
Li3 O63 1.956 . S
C4 C6 1.348 . S
C4 C7 1.356 . S
C4 O60 1.325 . S
N5 C8 1.314 . S
N5 C9 1.279 . S
C6 C4 1.348 . S
C6 C8 1.353 . S
C6 H64 0.929 . S
C7 C4 1.356 . S
C7 C9 1.358 . S
C7 H65 0.930 . S
C8 N5 1.314 . S
C8 C6 1.353 . S
C8 H66 0.930 . S
C9 N5 1.279 . S
C9 C7 1.358 . S
C9 H67 0.930 . S
C10 C13 1.348 . S
C10 C14 1.356 . S
C10 O61 1.325 . S
C11 N12 1.279 . S
C11 C14 1.358 . S
C11 H68 0.930 . S
N12 C11 1.279 . S
N12 C15 1.314 . S
C13 C10 1.348 . S
C13 C15 1.353 . S
C13 H69 0.929 . S
C14 C10 1.356 . S
C14 C11 1.358 . S
C14 H70 0.930 . S
C15 N12 1.314 . S
C15 C13 1.353 . S
C15 H71 0.930 . S
C16 N17 1.314 . S
C16 C21 1.353 . S
C16 H22 0.930 . S
N17 Li0 1.990 . S
N17 C16 1.314 . S
N17 C19 1.279 . S
C18 C19 1.358 . S
C18 C20 1.356 . S
C18 H72 0.930 . S
C19 N17 1.279 . S
C19 C18 1.358 . S
C19 H23 0.930 . S
C20 C18 1.356 . S
C20 C21 1.348 . S
C21 C16 1.353 . S
C21 C20 1.348 . S
C21 H73 0.929 . S
H22 C16 0.930 . S
H23 C19 0.930 . S
C24 N25 1.314 . S
C24 C26 1.353 . S
C24 H30 0.930 . S
N25 Li1 1.990 . S
N25 C24 1.314 . S
N25 C28 1.279 . S
C26 C24 1.353 . S
C26 C29 1.348 . S
C26 H74 0.929 . S
C27 C28 1.358 . S
C27 C29 1.356 . S
C27 H75 0.930 . S
C28 N25 1.279 . S
C28 C27 1.358 . S
C28 H31 0.930 . S
C29 C26 1.348 . S
C29 C27 1.356 . S
H30 C24 0.930 . S
H31 C28 0.930 . S
C32 C34 1.348 . S
C32 C35 1.356 . S
C32 O62 1.325 . S
N33 C36 1.314 . S
N33 C37 1.279 . S
C34 C32 1.348 . S
C34 C36 1.353 . S
C34 H76 0.929 . S
C35 C32 1.356 . S
C35 C37 1.358 . S
C35 H77 0.930 . S
C36 N33 1.314 . S
C36 C34 1.353 . S
C36 H78 0.930 . S
C37 N33 1.279 . S
C37 C35 1.358 . S
C37 H79 0.930 . S
C38 C39 1.348 . S
C38 C40 1.356 . S
C38 O63 1.325 . S
C39 C38 1.348 . S
C39 C41 1.353 . S
C39 H80 0.929 . S
C40 C38 1.356 . S
C40 C42 1.358 . S
C40 H81 0.930 . S
C41 C39 1.353 . S
C41 N43 1.314 . S
C41 H82 0.930 . S
C42 C40 1.358 . S
C42 N43 1.279 . S
C42 H83 0.930 . S
N43 C41 1.314 . S
N43 C42 1.279 . S
C44 C46 1.353 . S
C44 N47 1.314 . S
C44 H50 0.930 . S
C45 N47 1.279 . S
C45 C48 1.358 . S
C45 H51 0.930 . S
C46 C44 1.353 . S
C46 C49 1.348 . S
C46 H84 0.929 . S
N47 Li2 1.990 . S
N47 C44 1.314 . S
N47 C45 1.279 . S
C48 C45 1.358 . S
C48 C49 1.356 . S
C48 H85 0.930 . S
C49 C46 1.348 . S
C49 C48 1.356 . S
H50 C44 0.930 . S
H51 C45 0.930 . S
C52 N53 1.314 . S
C52 C54 1.353 . S
C52 H58 0.930 . S
N53 Li3 1.990 . S
N53 C52 1.314 . S
N53 C56 1.279 . S
C54 C52 1.353 . S
C54 C57 1.348 . S
C54 H86 0.929 . S
C55 C56 1.358 . S
C55 C57 1.356 . S
C55 H87 0.930 . S
C56 N53 1.279 . S
C56 C55 1.358 . S
C56 H59 0.930 . S
C57 C54 1.348 . S
C57 C55 1.356 . S
H58 C52 0.930 . S
H59 C56 0.930 . S
O60 Li0 1.956 . S
O60 Li1 1.970 . S
O60 Li2 1.961 . S
O60 C4 1.325 . S
O61 Li0 1.970 . S
O61 Li1 1.956 . S
O61 Li3 1.961 . S
O61 C10 1.325 . S
O62 Li0 1.961 . S
O62 Li2 1.956 . S
O62 Li3 1.970 . S
O62 C32 1.325 . S
O63 Li1 1.961 . S
O63 Li2 1.970 . S
O63 Li3 1.956 . S
O63 C38 1.325 . S
H64 C6 0.929 . S
H65 C7 0.930 . S
H66 C8 0.930 . S
H67 C9 0.930 . S
H68 C11 0.930 . S
H69 C13 0.929 . S
H70 C14 0.930 . S
H71 C15 0.930 . S
H72 C18 0.930 . S
H73 C21 0.929 . S
H74 C26 0.929 . S
H75 C27 0.930 . S
H76 C34 0.929 . S
H77 C35 0.930 . S
H78 C36 0.930 . S
H79 C37 0.930 . S
H80 C39 0.929 . S
H81 C40 0.930 . S
H82 C41 0.930 . S
H83 C42 0.930 . S
H84 C46 0.929 . S
H85 C48 0.930 . S
H86 C54 0.929 . S
H87 C55 0.930 . S
Li88 N105 1.990 . S
Li88 O148 1.956 . S
Li88 O149 1.970 . S
Li88 O150 1.961 . S
Li89 N113 1.990 . S
Li89 O148 1.970 . S
Li89 O149 1.956 . S
Li89 O151 1.961 . S
Li90 N135 1.990 . S
Li90 O148 1.961 . S
Li90 O150 1.956 . S
Li90 O151 1.970 . S
Li91 N141 1.990 . S
Li91 O149 1.961 . S
Li91 O150 1.970 . S
Li91 O151 1.956 . S
C92 C94 1.348 . S
C92 C95 1.356 . S
C92 O148 1.325 . S
N93 C96 1.314 . S
N93 C97 1.279 . S
C94 C92 1.348 . S
C94 C96 1.353 . S
C94 H152 0.929 . S
C95 C92 1.356 . S
C95 C97 1.358 . S
C95 H153 0.930 . S
C96 N93 1.314 . S
C96 C94 1.353 . S
C96 H154 0.930 . S
C97 N93 1.279 . S
C97 C95 1.358 . S
C97 H155 0.930 . S
C98 C101 1.348 . S
C98 C102 1.356 . S
C98 O149 1.325 . S
C99 N100 1.279 . S
C99 C102 1.358 . S
C99 H156 0.930 . S
N100 C99 1.279 . S
N100 C103 1.314 . S
C101 C98 1.348 . S
C101 C103 1.353 . S
C101 H157 0.929 . S
C102 C98 1.356 . S
C102 C99 1.358 . S
C102 H158 0.930 . S
C103 N100 1.314 . S
C103 C101 1.353 . S
C103 H159 0.930 . S
C104 N105 1.314 . S
C104 C109 1.353 . S
C104 H110 0.930 . S
N105 Li88 1.990 . S
N105 C104 1.314 . S
N105 C107 1.279 . S
C106 C107 1.358 . S
C106 C108 1.356 . S
C106 H160 0.930 . S
C107 N105 1.279 . S
C107 C106 1.358 . S
C107 H111 0.930 . S
C108 C106 1.356 . S
C108 C109 1.348 . S
C109 C104 1.353 . S
C109 C108 1.348 . S
C109 H161 0.929 . S
H110 C104 0.930 . S
H111 C107 0.930 . S
C112 N113 1.314 . S
C112 C114 1.353 . S
C112 H118 0.930 . S
N113 Li89 1.990 . S
N113 C112 1.314 . S
N113 C116 1.279 . S
C114 C112 1.353 . S
C114 C117 1.348 . S
C114 H162 0.929 1_655 S
C115 C116 1.358 . S
C115 C117 1.356 . S
C115 H163 0.930 . S
C116 N113 1.279 . S
C116 C115 1.358 . S
C116 H119 0.930 . S
C117 C114 1.348 . S
C117 C115 1.356 . S
H118 C112 0.930 . S
H119 C116 0.930 . S
C120 C122 1.348 . S
C120 C123 1.356 . S
C120 O150 1.325 . S
N121 C124 1.314 . S
N121 C125 1.279 . S
C122 C120 1.348 . S
C122 C124 1.353 . S
C122 H164 0.929 . S
C123 C120 1.356 . S
C123 C125 1.358 . S
C123 H165 0.930 . S
C124 N121 1.314 . S
C124 C122 1.353 . S
C124 H166 0.930 . S
C125 N121 1.279 . S
C125 C123 1.358 . S
C125 H167 0.930 1_565 S
C126 C127 1.348 . S
C126 C128 1.356 . S
C126 O151 1.325 . S
C127 C126 1.348 . S
C127 C129 1.353 . S
C127 H168 0.929 . S
C128 C126 1.356 . S
C128 C130 1.358 . S
C128 H169 0.930 . S
C129 C127 1.353 . S
C129 N131 1.314 . S
C129 H170 0.930 . S
C130 C128 1.358 . S
C130 N131 1.279 . S
C130 H171 0.930 . S
N131 C129 1.314 . S
N131 C130 1.279 . S
C132 C134 1.353 1_655 S
C132 N135 1.314 . S
C132 H138 0.930 . S
C133 N135 1.279 . S
C133 C136 1.358 . S
C133 H139 0.930 . S
C134 C132 1.353 1_455 S
C134 C137 1.348 . S
C134 H172 0.929 . S
N135 Li90 1.990 . S
N135 C132 1.314 . S
N135 C133 1.279 . S
C136 C133 1.358 . S
C136 C137 1.356 1_655 S
C136 H173 0.930 1_565 S
C137 C134 1.348 . S
C137 C136 1.356 1_455 S
H138 C132 0.930 . S
H139 C133 0.930 . S
C140 N141 1.314 . S
C140 C142 1.353 . S
C140 H146 0.930 . S
N141 Li91 1.990 . S
N141 C140 1.314 . S
N141 C144 1.279 . S
C142 C140 1.353 . S
C142 C145 1.348 . S
C142 H174 0.929 . S
C143 C144 1.358 . S
C143 C145 1.356 . S
C143 H175 0.930 . S
C144 N141 1.279 . S
C144 C143 1.358 . S
C144 H147 0.930 . S
C145 C142 1.348 . S
C145 C143 1.356 . S
H146 C140 0.930 . S
H147 C144 0.930 . S
O148 Li88 1.956 . S
O148 Li89 1.970 . S
O148 Li90 1.961 . S
O148 C92 1.325 . S
O149 Li88 1.970 . S
O149 Li89 1.956 . S
O149 Li91 1.961 . S
O149 C98 1.325 . S
O150 Li88 1.961 . S
O150 Li90 1.956 . S
O150 Li91 1.970 . S
O150 C120 1.325 . S
O151 Li89 1.961 . S
O151 Li90 1.970 . S
O151 Li91 1.956 . S
O151 C126 1.325 . S
H152 C94 0.929 . S
H153 C95 0.930 . S
H154 C96 0.930 . S
H155 C97 0.930 . S
H156 C99 0.930 . S
H157 C101 0.929 . S
H158 C102 0.930 . S
H159 C103 0.930 . S
H160 C106 0.930 . S
H161 C109 0.929 . S
H162 C114 0.929 1_455 S
H163 C115 0.930 . S
H164 C122 0.929 . S
H165 C123 0.930 . S
H166 C124 0.930 . S
H167 C125 0.930 1_545 S
H168 C127 0.929 . S
H169 C128 0.930 . S
H170 C129 0.930 . S
H171 C130 0.930 . S
H172 C134 0.929 . S
H173 C136 0.930 1_545 S
H174 C142 0.929 . S
H175 C143 0.930 . S
Li176 N193 1.990 . S
Li176 O236 1.956 . S
Li176 O237 1.970 . S
Li176 O238 1.961 . S
Li177 N201 1.990 . S
Li177 O236 1.970 . S
Li177 O237 1.956 . S
Li177 O239 1.961 . S
Li178 N223 1.990 . S
Li178 O236 1.961 . S
Li178 O238 1.956 . S
Li178 O239 1.970 . S
Li179 N229 1.990 . S
Li179 O237 1.961 . S
Li179 O238 1.970 . S
Li179 O239 1.956 . S
C180 C182 1.348 . S
C180 C183 1.356 . S
C180 O236 1.325 . S
N181 C184 1.314 . S
N181 C185 1.279 . S
C182 C180 1.348 . S
C182 C184 1.353 . S
C182 H240 0.929 . S
C183 C180 1.356 . S
C183 C185 1.358 . S
C183 H241 0.930 . S
C184 N181 1.314 . S
C184 C182 1.353 . S
C184 H242 0.930 . S
C185 N181 1.279 . S
C185 C183 1.358 . S
C185 H243 0.930 . S
C186 C189 1.348 . S
C186 C190 1.356 . S
C186 O237 1.325 . S
C187 N188 1.279 . S
C187 C190 1.358 . S
C187 H244 0.930 . S
N188 C187 1.279 . S
N188 C191 1.314 . S
C189 C186 1.348 . S
C189 C191 1.353 . S
C189 H245 0.929 . S
C190 C186 1.356 . S
C190 C187 1.358 . S
C190 H246 0.930 . S
C191 N188 1.314 . S
C191 C189 1.353 . S
C191 H247 0.930 . S
C192 N193 1.314 . S
C192 C197 1.353 . S
C192 H198 0.930 . S
N193 Li176 1.990 . S
N193 C192 1.314 . S
N193 C195 1.279 . S
C194 C195 1.358 . S
C194 C196 1.356 . S
C194 H248 0.930 . S
C195 N193 1.279 . S
C195 C194 1.358 . S
C195 H199 0.930 . S
C196 C194 1.356 . S
C196 C197 1.348 . S
C197 C192 1.353 . S
C197 C196 1.348 . S
C197 H249 0.929 . S
H198 C192 0.930 . S
H199 C195 0.930 . S
C200 N201 1.314 . S
C200 C202 1.353 . S
C200 H206 0.930 . S
N201 Li177 1.990 . S
N201 C200 1.314 . S
N201 C204 1.279 . S
C202 C200 1.353 . S
C202 C205 1.348 . S
C202 H250 0.929 . S
C203 C204 1.358 . S
C203 C205 1.356 . S
C203 H251 0.930 . S
C204 N201 1.279 . S
C204 C203 1.358 . S
C204 H207 0.930 . S
C205 C202 1.348 . S
C205 C203 1.356 . S
H206 C200 0.930 . S
H207 C204 0.930 . S
C208 C210 1.348 . S
C208 C211 1.356 . S
C208 O238 1.325 . S
N209 C212 1.314 . S
N209 C213 1.279 . S
C210 C208 1.348 . S
C210 C212 1.353 . S
C210 H252 0.929 . S
C211 C208 1.356 . S
C211 C213 1.358 . S
C211 H253 0.930 . S
C212 N209 1.314 . S
C212 C210 1.353 . S
C212 H254 0.930 . S
C213 N209 1.279 . S
C213 C211 1.358 . S
C213 H255 0.930 . S
C214 C215 1.348 . S
C214 C216 1.356 . S
C214 O239 1.325 . S
C215 C214 1.348 . S
C215 C217 1.353 . S
C215 H256 0.929 . S
C216 C214 1.356 . S
C216 C218 1.358 . S
C216 H257 0.930 . S
C217 C215 1.353 . S
C217 N219 1.314 . S
C217 H258 0.930 . S
C218 C216 1.358 . S
C218 N219 1.279 . S
C218 H259 0.930 . S
N219 C217 1.314 . S
N219 C218 1.279 . S
C220 C222 1.353 . S
C220 N223 1.314 . S
C220 H226 0.930 . S
C221 N223 1.279 . S
C221 C224 1.358 . S
C221 H227 0.930 . S
C222 C220 1.353 . S
C222 C225 1.348 . S
C222 H260 0.929 . S
N223 Li178 1.990 . S
N223 C220 1.314 . S
N223 C221 1.279 . S
C224 C221 1.358 . S
C224 C225 1.356 . S
C224 H261 0.930 . S
C225 C222 1.348 . S
C225 C224 1.356 . S
H226 C220 0.930 . S
H227 C221 0.930 . S
C228 N229 1.314 . S
C228 C230 1.353 . S
C228 H234 0.930 . S
N229 Li179 1.990 . S
N229 C228 1.314 . S
N229 C232 1.279 . S
C230 C228 1.353 . S
C230 C233 1.348 . S
C230 H262 0.929 . S
C231 C232 1.358 . S
C231 C233 1.356 . S
C231 H263 0.930 . S
C232 N229 1.279 . S
C232 C231 1.358 . S
C232 H235 0.930 . S
C233 C230 1.348 . S
C233 C231 1.356 . S
H234 C228 0.930 . S
H235 C232 0.930 . S
O236 Li176 1.956 . S
O236 Li177 1.970 . S
O236 Li178 1.961 . S
O236 C180 1.325 . S
O237 Li176 1.970 . S
O237 Li177 1.956 . S
O237 Li179 1.961 . S
O237 C186 1.325 . S
O238 Li176 1.961 . S
O238 Li178 1.956 . S
O238 Li179 1.970 . S
O238 C208 1.325 . S
O239 Li177 1.961 . S
O239 Li178 1.970 . S
O239 Li179 1.956 . S
O239 C214 1.325 . S
H240 C182 0.929 . S
H241 C183 0.930 . S
H242 C184 0.930 . S
H243 C185 0.930 . S
H244 C187 0.930 . S
H245 C189 0.929 . S
H246 C190 0.930 . S
H247 C191 0.930 . S
H248 C194 0.930 . S
H249 C197 0.929 . S
H250 C202 0.929 . S
H251 C203 0.930 . S
H252 C210 0.929 . S
H253 C211 0.930 . S
H254 C212 0.930 . S
H255 C213 0.930 . S
H256 C215 0.929 . S
H257 C216 0.930 . S
H258 C217 0.930 . S
H259 C218 0.930 . S
H260 C222 0.929 . S
H261 C224 0.930 . S
H262 C230 0.929 . S
H263 C231 0.930 . S
Li264 N281 1.990 . S
Li264 O324 1.956 . S
Li264 O325 1.970 . S
Li264 O326 1.961 . S
Li265 N289 1.990 . S
Li265 O324 1.970 . S
Li265 O325 1.956 . S
Li265 O327 1.961 . S
Li266 N311 1.990 . S
Li266 O324 1.961 . S
Li266 O326 1.956 . S
Li266 O327 1.970 . S
Li267 N317 1.990 . S
Li267 O325 1.961 . S
Li267 O326 1.970 . S
Li267 O327 1.956 . S
C268 C270 1.348 . S
C268 C271 1.356 . S
C268 O324 1.325 . S
N269 C272 1.314 . S
N269 C273 1.279 . S
C270 C268 1.348 . S
C270 C272 1.353 . S
C270 H328 0.929 . S
C271 C268 1.356 . S
C271 C273 1.358 . S
C271 H329 0.930 . S
C272 N269 1.314 . S
C272 C270 1.353 . S
C272 H330 0.930 . S
C273 N269 1.279 . S
C273 C271 1.358 . S
C273 H331 0.930 . S
C274 C277 1.348 . S
C274 C278 1.356 . S
C274 O325 1.325 . S
C275 N276 1.279 . S
C275 C278 1.358 . S
C275 H332 0.930 . S
N276 C275 1.279 . S
N276 C279 1.314 . S
C277 C274 1.348 . S
C277 C279 1.353 . S
C277 H333 0.929 . S
C278 C274 1.356 . S
C278 C275 1.358 . S
C278 H334 0.930 . S
C279 N276 1.314 . S
C279 C277 1.353 . S
C279 H335 0.930 . S
C280 N281 1.314 . S
C280 C285 1.353 . S
C280 H286 0.930 . S
N281 Li264 1.990 . S
N281 C280 1.314 . S
N281 C283 1.279 . S
C282 C283 1.358 . S
C282 C284 1.356 . S
C282 H336 0.930 . S
C283 N281 1.279 . S
C283 C282 1.358 . S
C283 H287 0.930 . S
C284 C282 1.356 . S
C284 C285 1.348 . S
C285 C280 1.353 . S
C285 C284 1.348 . S
C285 H337 0.929 . S
H286 C280 0.930 . S
H287 C283 0.930 . S
C288 N289 1.314 . S
C288 C290 1.353 . S
C288 H294 0.930 . S
N289 Li265 1.990 . S
N289 C288 1.314 . S
N289 C292 1.279 . S
C290 C288 1.353 . S
C290 C293 1.348 . S
C290 H338 0.929 . S
C291 C292 1.358 . S
C291 C293 1.356 . S
C291 H339 0.930 . S
C292 N289 1.279 . S
C292 C291 1.358 . S
C292 H295 0.930 . S
C293 C290 1.348 . S
C293 C291 1.356 . S
H294 C288 0.930 . S
H295 C292 0.930 . S
C296 C298 1.348 . S
C296 C299 1.356 . S
C296 O326 1.325 . S
N297 C300 1.314 . S
N297 C301 1.279 . S
C298 C296 1.348 . S
C298 C300 1.353 . S
C298 H340 0.929 . S
C299 C296 1.356 . S
C299 C301 1.358 . S
C299 H341 0.930 . S
C300 N297 1.314 . S
C300 C298 1.353 . S
C300 H342 0.930 . S
C301 N297 1.279 . S
C301 C299 1.358 . S
C301 H343 0.930 1_545 S
C302 C303 1.348 . S
C302 C304 1.356 . S
C302 O327 1.325 . S
C303 C302 1.348 . S
C303 C305 1.353 . S
C303 H344 0.929 . S
C304 C302 1.356 . S
C304 C306 1.358 . S
C304 H345 0.930 . S
C305 C303 1.353 . S
C305 N307 1.314 . S
C305 H346 0.930 . S
C306 C304 1.358 . S
C306 N307 1.279 . S
C306 H347 0.930 . S
N307 C305 1.314 . S
N307 C306 1.279 . S
C308 C310 1.353 . S
C308 N311 1.314 . S
C308 H314 0.930 . S
C309 N311 1.279 . S
C309 C312 1.358 . S
C309 H315 0.930 . S
C310 C308 1.353 . S
C310 C313 1.348 . S
C310 H348 0.929 . S
N311 Li266 1.990 . S
N311 C308 1.314 . S
N311 C309 1.279 . S
C312 C309 1.358 . S
C312 C313 1.356 . S
C312 H349 0.930 1_545 S
C313 C310 1.348 . S
C313 C312 1.356 . S
H314 C308 0.930 . S
H315 C309 0.930 . S
C316 N317 1.314 . S
C316 C318 1.353 . S
C316 H322 0.930 . S
N317 Li267 1.990 . S
N317 C316 1.314 . S
N317 C320 1.279 . S
C318 C316 1.353 . S
C318 C321 1.348 . S
C318 H350 0.929 . S
C319 C320 1.358 . S
C319 C321 1.356 . S
C319 H351 0.930 . S
C320 N317 1.279 . S
C320 C319 1.358 . S
C320 H323 0.930 . S
C321 C318 1.348 . S
C321 C319 1.356 . S
H322 C316 0.930 . S
H323 C320 0.930 . S
O324 Li264 1.956 . S
O324 Li265 1.970 . S
O324 Li266 1.961 . S
O324 C268 1.325 . S
O325 Li264 1.970 . S
O325 Li265 1.956 . S
O325 Li267 1.961 . S
O325 C274 1.325 . S
O326 Li264 1.961 . S
O326 Li266 1.956 . S
O326 Li267 1.970 . S
O326 C296 1.325 . S
O327 Li265 1.961 . S
O327 Li266 1.970 . S
O327 Li267 1.956 . S
O327 C302 1.325 . S
H328 C270 0.929 . S
H329 C271 0.930 . S
H330 C272 0.930 . S
H331 C273 0.930 . S
H332 C275 0.930 . S
H333 C277 0.929 . S
H334 C278 0.930 . S
H335 C279 0.930 . S
H336 C282 0.930 . S
H337 C285 0.929 . S
H338 C290 0.929 . S
H339 C291 0.930 . S
H340 C298 0.929 . S
H341 C299 0.930 . S
H342 C300 0.930 . S
H343 C301 0.930 1_565 S
H344 C303 0.929 . S
H345 C304 0.930 . S
H346 C305 0.930 . S
H347 C306 0.930 . S
H348 C310 0.929 . S
H349 C312 0.930 1_565 S
H350 C318 0.929 . S
H351 C319 0.930 . S
Li352 N369 1.990 . S
Li352 O412 1.956 . S
Li352 O413 1.970 . S
Li352 O414 1.961 . S
Li353 N377 1.990 . S
Li353 O412 1.970 . S
Li353 O413 1.956 . S
Li353 O415 1.961 . S
Li354 N399 1.990 . S
Li354 O412 1.961 . S
Li354 O414 1.956 . S
Li354 O415 1.970 . S
Li355 N405 1.990 . S
Li355 O413 1.961 . S
Li355 O414 1.970 . S
Li355 O415 1.956 . S
C356 C358 1.348 . S
C356 C359 1.356 . S
C356 O412 1.325 . S
N357 C360 1.314 . S
N357 C361 1.279 . S
C358 C356 1.348 . S
C358 C360 1.353 . S
C358 H416 0.929 . S
C359 C356 1.356 . S
C359 C361 1.358 . S
C359 H417 0.930 . S
C360 N357 1.314 . S
C360 C358 1.353 . S
C360 H418 0.930 . S
C361 N357 1.279 . S
C361 C359 1.358 . S
C361 H419 0.930 . S
C362 C365 1.348 . S
C362 C366 1.356 . S
C362 O413 1.325 . S
C363 N364 1.279 . S
C363 C366 1.358 . S
C363 H420 0.930 . S
N364 C363 1.279 . S
N364 C367 1.314 . S
C365 C362 1.348 . S
C365 C367 1.353 . S
C365 H421 0.929 . S
C366 C362 1.356 . S
C366 C363 1.358 . S
C366 H422 0.930 . S
C367 N364 1.314 . S
C367 C365 1.353 . S
C367 H423 0.930 . S
C368 N369 1.314 . S
C368 C373 1.353 . S
C368 H374 0.930 . S
N369 Li352 1.990 . S
N369 C368 1.314 . S
N369 C371 1.279 . S
C370 C371 1.358 . S
C370 C372 1.356 . S
C370 H424 0.930 . S
C371 N369 1.279 . S
C371 C370 1.358 . S
C371 H375 0.930 . S
C372 C370 1.356 . S
C372 C373 1.348 . S
C373 C368 1.353 . S
C373 C372 1.348 . S
C373 H425 0.929 . S
H374 C368 0.930 . S
H375 C371 0.930 . S
C376 N377 1.314 . S
C376 C378 1.353 . S
C376 H382 0.930 . S
N377 Li353 1.990 . S
N377 C376 1.314 . S
N377 C380 1.279 . S
C378 C376 1.353 . S
C378 C381 1.348 . S
C378 H426 0.929 . S
C379 C380 1.358 . S
C379 C381 1.356 . S
C379 H427 0.930 . S
C380 N377 1.279 . S
C380 C379 1.358 . S
C380 H383 0.930 . S
C381 C378 1.348 . S
C381 C379 1.356 . S
H382 C376 0.930 . S
H383 C380 0.930 . S
C384 C386 1.348 . S
C384 C387 1.356 . S
C384 O414 1.325 . S
N385 C388 1.314 . S
N385 C389 1.279 . S
C386 C384 1.348 . S
C386 C388 1.353 . S
C386 H428 0.929 . S
C387 C384 1.356 . S
C387 C389 1.358 . S
C387 H429 0.930 . S
C388 N385 1.314 . S
C388 C386 1.353 . S
C388 H430 0.930 . S
C389 N385 1.279 . S
C389 C387 1.358 . S
C389 H431 0.930 . S
C390 C391 1.348 . S
C390 C392 1.356 . S
C390 O415 1.325 . S
C391 C390 1.348 . S
C391 C393 1.353 . S
C391 H432 0.929 . S
C392 C390 1.356 . S
C392 C394 1.358 . S
C392 H433 0.930 . S
C393 C391 1.353 . S
C393 N395 1.314 . S
C393 H434 0.930 . S
C394 C392 1.358 . S
C394 N395 1.279 . S
C394 H435 0.930 . S
N395 C393 1.314 . S
N395 C394 1.279 . S
C396 C398 1.353 . S
C396 N399 1.314 . S
C396 H402 0.930 . S
C397 N399 1.279 . S
C397 C400 1.358 . S
C397 H403 0.930 . S
C398 C396 1.353 . S
C398 C401 1.348 . S
C398 H436 0.929 . S
N399 Li354 1.990 . S
N399 C396 1.314 . S
N399 C397 1.279 . S
C400 C397 1.358 . S
C400 C401 1.356 . S
C400 H437 0.930 . S
C401 C398 1.348 . S
C401 C400 1.356 . S
H402 C396 0.930 . S
H403 C397 0.930 . S
C404 N405 1.314 . S
C404 C406 1.353 . S
C404 H410 0.930 . S
N405 Li355 1.990 . S
N405 C404 1.314 . S
N405 C408 1.279 . S
C406 C404 1.353 . S
C406 C409 1.348 . S
C406 H438 0.929 . S
C407 C408 1.358 . S
C407 C409 1.356 . S
C407 H439 0.930 . S
C408 N405 1.279 . S
C408 C407 1.358 . S
C408 H411 0.930 . S
C409 C406 1.348 . S
C409 C407 1.356 . S
H410 C404 0.930 . S
H411 C408 0.930 . S
O412 Li352 1.956 . S
O412 Li353 1.970 . S
O412 Li354 1.961 . S
O412 C356 1.325 . S
O413 Li352 1.970 . S
O413 Li353 1.956 . S
O413 Li355 1.961 . S
O413 C362 1.325 . S
O414 Li352 1.961 . S
O414 Li354 1.956 . S
O414 Li355 1.970 . S
O414 C384 1.325 . S
O415 Li353 1.961 . S
O415 Li354 1.970 . S
O415 Li355 1.956 . S
O415 C390 1.325 . S
H416 C358 0.929 . S
H417 C359 0.930 . S
H418 C360 0.930 . S
H419 C361 0.930 . S
H420 C363 0.930 . S
H421 C365 0.929 . S
H422 C366 0.930 . S
H423 C367 0.930 . S
H424 C370 0.930 . S
H425 C373 0.929 . S
H426 C378 0.929 . S
H427 C379 0.930 . S
H428 C386 0.929 . S
H429 C387 0.930 . S
H430 C388 0.930 . S
H431 C389 0.930 . S
H432 C391 0.929 . S
H433 C392 0.930 . S
H434 C393 0.930 . S
H435 C394 0.930 . S
H436 C398 0.929 . S
H437 C400 0.930 . S
H438 C406 0.929 . S
H439 C407 0.930 . S
Li440 N457 1.990 . S
Li440 O500 1.956 . S
Li440 O501 1.970 . S
Li440 O502 1.961 . S
Li441 N465 1.990 . S
Li441 O500 1.970 . S
Li441 O501 1.956 . S
Li441 O503 1.961 . S
Li442 N487 1.990 . S
Li442 O500 1.961 . S
Li442 O502 1.956 . S
Li442 O503 1.970 . S
Li443 N493 1.990 . S
Li443 O501 1.961 . S
Li443 O502 1.970 . S
Li443 O503 1.956 . S
C444 C446 1.348 . S
C444 C447 1.356 . S
C444 O500 1.325 . S
N445 C448 1.314 . S
N445 C449 1.279 . S
C446 C444 1.348 . S
C446 C448 1.353 . S
C446 H504 0.929 . S
C447 C444 1.356 . S
C447 C449 1.358 . S
C447 H505 0.930 . S
C448 N445 1.314 . S
C448 C446 1.353 . S
C448 H506 0.930 . S
C449 N445 1.279 . S
C449 C447 1.358 . S
C449 H507 0.930 . S
C450 C453 1.348 . S
C450 C454 1.356 . S
C450 O501 1.325 . S
C451 N452 1.279 . S
C451 C454 1.358 . S
C451 H508 0.930 . S
N452 C451 1.279 . S
N452 C455 1.314 . S
C453 C450 1.348 . S
C453 C455 1.353 . S
C453 H509 0.929 . S
C454 C450 1.356 . S
C454 C451 1.358 . S
C454 H510 0.930 . S
C455 N452 1.314 . S
C455 C453 1.353 . S
C455 H511 0.930 . S
C456 N457 1.314 . S
C456 C461 1.353 1_455 S
C456 H462 0.930 . S
N457 Li440 1.990 . S
N457 C456 1.314 . S
N457 C459 1.279 . S
C458 C459 1.358 . S
C458 C460 1.356 1_455 S
C458 H512 0.930 . S
C459 N457 1.279 . S
C459 C458 1.358 . S
C459 H463 0.930 . S
C460 C458 1.356 1_655 S
C460 C461 1.348 . S
C461 C456 1.353 1_655 S
C461 C460 1.348 . S
C461 H513 0.929 . S
H462 C456 0.930 . S
H463 C459 0.930 . S
C464 N465 1.314 . S
C464 C466 1.353 . S
C464 H470 0.930 . S
N465 Li441 1.990 . S
N465 C464 1.314 . S
N465 C468 1.279 . S
C466 C464 1.353 . S
C466 C469 1.348 . S
C466 H514 0.929 . S
C467 C468 1.358 . S
C467 C469 1.356 . S
C467 H515 0.930 . S
C468 N465 1.279 . S
C468 C467 1.358 . S
C468 H471 0.930 . S
C469 C466 1.348 . S
C469 C467 1.356 . S
H470 C464 0.930 . S
H471 C468 0.930 . S
C472 C474 1.348 . S
C472 C475 1.356 . S
C472 O502 1.325 . S
N473 C476 1.314 . S
N473 C477 1.279 . S
C474 C472 1.348 . S
C474 C476 1.353 . S
C474 H516 0.929 . S
C475 C472 1.356 . S
C475 C477 1.358 . S
C475 H517 0.930 . S
C476 N473 1.314 . S
C476 C474 1.353 . S
C476 H518 0.930 . S
C477 N473 1.279 . S
C477 C475 1.358 . S
C477 H519 0.930 . S
C478 C479 1.348 . S
C478 C480 1.356 . S
C478 O503 1.325 . S
C479 C478 1.348 . S
C479 C481 1.353 . S
C479 H520 0.929 . S
C480 C478 1.356 . S
C480 C482 1.358 . S
C480 H521 0.930 . S
C481 C479 1.353 . S
C481 N483 1.314 . S
C481 H522 0.930 . S
C482 C480 1.358 . S
C482 N483 1.279 . S
C482 H523 0.930 . S
N483 C481 1.314 . S
N483 C482 1.279 . S
C484 C486 1.353 . S
C484 N487 1.314 . S
C484 H490 0.930 . S
C485 N487 1.279 . S
C485 C488 1.358 . S
C485 H491 0.930 . S
C486 C484 1.353 . S
C486 C489 1.348 . S
C486 H524 0.929 . S
N487 Li442 1.990 . S
N487 C484 1.314 . S
N487 C485 1.279 . S
C488 C485 1.358 . S
C488 C489 1.356 . S
C488 H525 0.930 . S
C489 C486 1.348 . S
C489 C488 1.356 . S
H490 C484 0.930 . S
H491 C485 0.930 . S
C492 N493 1.314 . S
C492 C494 1.353 . S
C492 H498 0.930 . S
N493 Li443 1.990 . S
N493 C492 1.314 . S
N493 C496 1.279 . S
C494 C492 1.353 . S
C494 C497 1.348 . S
C494 H526 0.929 1_455 S
C495 C496 1.358 . S
C495 C497 1.356 . S
C495 H527 0.930 . S
C496 N493 1.279 . S
C496 C495 1.358 . S
C496 H499 0.930 . S
C497 C494 1.348 . S
C497 C495 1.356 . S
H498 C492 0.930 . S
H499 C496 0.930 . S
O500 Li440 1.956 . S
O500 Li441 1.970 . S
O500 Li442 1.961 . S
O500 C444 1.325 . S
O501 Li440 1.970 . S
O501 Li441 1.956 . S
O501 Li443 1.961 . S
O501 C450 1.325 . S
O502 Li440 1.961 . S
O502 Li442 1.956 . S
O502 Li443 1.970 . S
O502 C472 1.325 . S
O503 Li441 1.961 . S
O503 Li442 1.970 . S
O503 Li443 1.956 . S
O503 C478 1.325 . S
H504 C446 0.929 . S
H505 C447 0.930 . S
H506 C448 0.930 . S
H507 C449 0.930 . S
H508 C451 0.930 . S
H509 C453 0.929 . S
H510 C454 0.930 . S
H511 C455 0.930 . S
H512 C458 0.930 . S
H513 C461 0.929 . S
H514 C466 0.929 . S
H515 C467 0.930 . S
H516 C474 0.929 . S
H517 C475 0.930 . S
H518 C476 0.930 . S
H519 C477 0.930 . S
H520 C479 0.929 . S
H521 C480 0.930 . S
H522 C481 0.930 . S
H523 C482 0.930 . S
H524 C486 0.929 . S
H525 C488 0.930 . S
H526 C494 0.929 1_655 S
H527 C495 0.930 . S
Li528 N545 1.990 . S
Li528 O588 1.956 . S
Li528 O589 1.970 . S
Li528 O590 1.961 . S
Li529 N553 1.990 . S
Li529 O588 1.970 . S
Li529 O589 1.956 . S
Li529 O591 1.961 . S
Li530 N575 1.990 . S
Li530 O588 1.961 . S
Li530 O590 1.956 . S
Li530 O591 1.970 . S
Li531 N581 1.990 . S
Li531 O589 1.961 . S
Li531 O590 1.970 . S
Li531 O591 1.956 . S
C532 C534 1.348 . S
C532 C535 1.356 . S
C532 O588 1.325 . S
N533 C536 1.314 . S
N533 C537 1.279 . S
C534 C532 1.348 . S
C534 C536 1.353 . S
C534 H592 0.929 . S
C535 C532 1.356 . S
C535 C537 1.358 . S
C535 H593 0.930 . S
C536 N533 1.314 . S
C536 C534 1.353 . S
C536 H594 0.930 . S
C537 N533 1.279 . S
C537 C535 1.358 . S
C537 H595 0.930 . S
C538 C541 1.348 . S
C538 C542 1.356 . S
C538 O589 1.325 . S
C539 N540 1.279 . S
C539 C542 1.358 . S
C539 H596 0.930 . S
N540 C539 1.279 . S
N540 C543 1.314 . S
C541 C538 1.348 . S
C541 C543 1.353 . S
C541 H597 0.929 . S
C542 C538 1.356 . S
C542 C539 1.358 . S
C542 H598 0.930 . S
C543 N540 1.314 . S
C543 C541 1.353 . S
C543 H599 0.930 . S
C544 N545 1.314 . S
C544 C549 1.353 . S
C544 H550 0.930 . S
N545 Li528 1.990 . S
N545 C544 1.314 . S
N545 C547 1.279 . S
C546 C547 1.358 . S
C546 C548 1.356 . S
C546 H600 0.930 . S
C547 N545 1.279 . S
C547 C546 1.358 . S
C547 H551 0.930 . S
C548 C546 1.356 . S
C548 C549 1.348 . S
C549 C544 1.353 . S
C549 C548 1.348 . S
C549 H601 0.929 . S
H550 C544 0.930 . S
H551 C547 0.930 . S
C552 N553 1.314 . S
C552 C554 1.353 . S
C552 H558 0.930 . S
N553 Li529 1.990 . S
N553 C552 1.314 . S
N553 C556 1.279 . S
C554 C552 1.353 . S
C554 C557 1.348 . S
C554 H602 0.929 . S
C555 C556 1.358 . S
C555 C557 1.356 . S
C555 H603 0.930 . S
C556 N553 1.279 . S
C556 C555 1.358 . S
C556 H559 0.930 . S
C557 C554 1.348 . S
C557 C555 1.356 . S
H558 C552 0.930 . S
H559 C556 0.930 . S
C560 C562 1.348 . S
C560 C563 1.356 . S
C560 O590 1.325 . S
N561 C564 1.314 . S
N561 C565 1.279 . S
C562 C560 1.348 . S
C562 C564 1.353 . S
C562 H604 0.929 . S
C563 C560 1.356 . S
C563 C565 1.358 . S
C563 H605 0.930 . S
C564 N561 1.314 . S
C564 C562 1.353 . S
C564 H606 0.930 . S
C565 N561 1.279 . S
C565 C563 1.358 . S
C565 H607 0.930 . S
C566 C567 1.348 . S
C566 C568 1.356 . S
C566 O591 1.325 . S
C567 C566 1.348 . S
C567 C569 1.353 . S
C567 H608 0.929 . S
C568 C566 1.356 . S
C568 C570 1.358 . S
C568 H609 0.930 . S
C569 C567 1.353 . S
C569 N571 1.314 . S
C569 H610 0.930 . S
C570 C568 1.358 . S
C570 N571 1.279 . S
C570 H611 0.930 . S
N571 C569 1.314 . S
N571 C570 1.279 . S
C572 C574 1.353 . S
C572 N575 1.314 . S
C572 H578 0.930 . S
C573 N575 1.279 . S
C573 C576 1.358 . S
C573 H579 0.930 . S
C574 C572 1.353 . S
C574 C577 1.348 . S
C574 H612 0.929 . S
N575 Li530 1.990 . S
N575 C572 1.314 . S
N575 C573 1.279 . S
C576 C573 1.358 . S
C576 C577 1.356 . S
C576 H613 0.930 . S
C577 C574 1.348 . S
C577 C576 1.356 . S
H578 C572 0.930 . S
H579 C573 0.930 . S
C580 N581 1.314 . S
C580 C582 1.353 . S
C580 H586 0.930 . S
N581 Li531 1.990 . S
N581 C580 1.314 . S
N581 C584 1.279 . S
C582 C580 1.353 . S
C582 C585 1.348 . S
C582 H614 0.929 . S
C583 C584 1.358 . S
C583 C585 1.356 . S
C583 H615 0.930 . S
C584 N581 1.279 . S
C584 C583 1.358 . S
C584 H587 0.930 . S
C585 C582 1.348 . S
C585 C583 1.356 . S
H586 C580 0.930 . S
H587 C584 0.930 . S
O588 Li528 1.956 . S
O588 Li529 1.970 . S
O588 Li530 1.961 . S
O588 C532 1.325 . S
O589 Li528 1.970 . S
O589 Li529 1.956 . S
O589 Li531 1.961 . S
O589 C538 1.325 . S
O590 Li528 1.961 . S
O590 Li530 1.956 . S
O590 Li531 1.970 . S
O590 C560 1.325 . S
O591 Li529 1.961 . S
O591 Li530 1.970 . S
O591 Li531 1.956 . S
O591 C566 1.325 . S
H592 C534 0.929 . S
H593 C535 0.930 . S
H594 C536 0.930 . S
H595 C537 0.930 . S
H596 C539 0.930 . S
H597 C541 0.929 . S
H598 C542 0.930 . S
H599 C543 0.930 . S
H600 C546 0.930 . S
H601 C549 0.929 . S
H602 C554 0.929 . S
H603 C555 0.930 . S
H604 C562 0.929 . S
H605 C563 0.930 . S
H606 C564 0.930 . S
H607 C565 0.930 . S
H608 C567 0.929 . S
H609 C568 0.930 . S
H610 C569 0.930 . S
H611 C570 0.930 . S
H612 C574 0.929 . S
H613 C576 0.930 . S
H614 C582 0.929 . S
H615 C583 0.930 . S
Li616 N633 1.990 . S
Li616 O676 1.956 . S
Li616 O677 1.970 . S
Li616 O678 1.961 . S
Li617 N641 1.990 . S
Li617 O676 1.970 . S
Li617 O677 1.956 . S
Li617 O679 1.961 . S
Li618 N663 1.990 . S
Li618 O676 1.961 . S
Li618 O678 1.956 . S
Li618 O679 1.970 . S
Li619 N669 1.990 . S
Li619 O677 1.961 . S
Li619 O678 1.970 . S
Li619 O679 1.956 . S
C620 C622 1.348 . S
C620 C623 1.356 . S
C620 O676 1.325 . S
N621 C624 1.314 . S
N621 C625 1.279 . S
C622 C620 1.348 . S
C622 C624 1.353 . S
C622 H680 0.929 . S
C623 C620 1.356 . S
C623 C625 1.358 . S
C623 H681 0.930 . S
C624 N621 1.314 . S
C624 C622 1.353 . S
C624 H682 0.930 . S
C625 N621 1.279 . S
C625 C623 1.358 . S
C625 H683 0.930 . S
C626 C629 1.348 . S
C626 C630 1.356 . S
C626 O677 1.325 . S
C627 N628 1.279 . S
C627 C630 1.358 . S
C627 H684 0.930 . S
N628 C627 1.279 . S
N628 C631 1.314 . S
C629 C626 1.348 . S
C629 C631 1.353 . S
C629 H685 0.929 . S
C630 C626 1.356 . S
C630 C627 1.358 . S
C630 H686 0.930 . S
C631 N628 1.314 . S
C631 C629 1.353 . S
C631 H687 0.930 . S
C632 N633 1.314 . S
C632 C637 1.353 . S
C632 H638 0.930 . S
N633 Li616 1.990 . S
N633 C632 1.314 . S
N633 C635 1.279 . S
C634 C635 1.358 . S
C634 C636 1.356 . S
C634 H688 0.930 . S
C635 N633 1.279 . S
C635 C634 1.358 . S
C635 H639 0.930 . S
C636 C634 1.356 . S
C636 C637 1.348 . S
C637 C632 1.353 . S
C637 C636 1.348 . S
C637 H689 0.929 . S
H638 C632 0.930 . S
H639 C635 0.930 . S
C640 N641 1.314 . S
C640 C642 1.353 . S
C640 H646 0.930 . S
N641 Li617 1.990 . S
N641 C640 1.314 . S
N641 C644 1.279 . S
C642 C640 1.353 . S
C642 C645 1.348 . S
C642 H690 0.929 . S
C643 C644 1.358 . S
C643 C645 1.356 . S
C643 H691 0.930 . S
C644 N641 1.279 . S
C644 C643 1.358 . S
C644 H647 0.930 . S
C645 C642 1.348 . S
C645 C643 1.356 . S
H646 C640 0.930 . S
H647 C644 0.930 . S
C648 C650 1.348 . S
C648 C651 1.356 . S
C648 O678 1.325 . S
N649 C652 1.314 . S
N649 C653 1.279 . S
C650 C648 1.348 . S
C650 C652 1.353 . S
C650 H692 0.929 . S
C651 C648 1.356 . S
C651 C653 1.358 . S
C651 H693 0.930 . S
C652 N649 1.314 . S
C652 C650 1.353 . S
C652 H694 0.930 . S
C653 N649 1.279 . S
C653 C651 1.358 . S
C653 H695 0.930 . S
C654 C655 1.348 . S
C654 C656 1.356 . S
C654 O679 1.325 . S
C655 C654 1.348 . S
C655 C657 1.353 . S
C655 H696 0.929 . S
C656 C654 1.356 . S
C656 C658 1.358 . S
C656 H697 0.930 . S
C657 C655 1.353 . S
C657 N659 1.314 . S
C657 H698 0.930 . S
C658 C656 1.358 . S
C658 N659 1.279 . S
C658 H699 0.930 . S
N659 C657 1.314 . S
N659 C658 1.279 . S
C660 C662 1.353 . S
C660 N663 1.314 . S
C660 H666 0.930 . S
C661 N663 1.279 . S
C661 C664 1.358 . S
C661 H667 0.930 . S
C662 C660 1.353 . S
C662 C665 1.348 . S
C662 H700 0.929 . S
N663 Li618 1.990 . S
N663 C660 1.314 . S
N663 C661 1.279 . S
C664 C661 1.358 . S
C664 C665 1.356 . S
C664 H701 0.930 . S
C665 C662 1.348 . S
C665 C664 1.356 . S
H666 C660 0.930 . S
H667 C661 0.930 . S
C668 N669 1.314 . S
C668 C670 1.353 . S
C668 H674 0.930 . S
N669 Li619 1.990 . S
N669 C668 1.314 . S
N669 C672 1.279 . S
C670 C668 1.353 . S
C670 C673 1.348 . S
C670 H702 0.929 . S
C671 C672 1.358 . S
C671 C673 1.356 . S
C671 H703 0.930 . S
C672 N669 1.279 . S
C672 C671 1.358 . S
C672 H675 0.930 . S
C673 C670 1.348 . S
C673 C671 1.356 . S
H674 C668 0.930 . S
H675 C672 0.930 . S
O676 Li616 1.956 . S
O676 Li617 1.970 . S
O676 Li618 1.961 . S
O676 C620 1.325 . S
O677 Li616 1.970 . S
O677 Li617 1.956 . S
O677 Li619 1.961 . S
O677 C626 1.325 . S
O678 Li616 1.961 . S
O678 Li618 1.956 . S
O678 Li619 1.970 . S
O678 C648 1.325 . S
O679 Li617 1.961 . S
O679 Li618 1.970 . S
O679 Li619 1.956 . S
O679 C654 1.325 . S
H680 C622 0.929 . S
H681 C623 0.930 . S
H682 C624 0.930 . S
H683 C625 0.930 . S
H684 C627 0.930 . S
H685 C629 0.929 . S
H686 C630 0.930 . S
H687 C631 0.930 . S
H688 C634 0.930 . S
H689 C637 0.929 . S
H690 C642 0.929 . S
H691 C643 0.930 . S
H692 C650 0.929 . S
H693 C651 0.930 . S
H694 C652 0.930 . S
H695 C653 0.930 . S
H696 C655 0.929 . S
H697 C656 0.930 . S
H698 C657 0.930 . S
H699 C658 0.930 . S
H700 C662 0.929 . S
H701 C664 0.930 . S
H702 C670 0.929 . S
H703 C671 0.930 . S
Li704 N721 1.990 . S
Li704 O764 1.956 . S
Li704 O765 1.970 . S
Li704 O766 1.961 . S
Li705 N729 1.990 . S
Li705 O764 1.970 . S
Li705 O765 1.956 . S
Li705 O767 1.961 . S
Li706 N751 1.990 . S
Li706 O764 1.961 . S
Li706 O766 1.956 . S
Li706 O767 1.970 . S
Li707 N757 1.990 . S
Li707 O765 1.961 . S
Li707 O766 1.970 . S
Li707 O767 1.956 . S
C708 C710 1.348 . S
C708 C711 1.356 . S
C708 O764 1.325 . S
N709 C712 1.314 . S
N709 C713 1.279 . S
C710 C708 1.348 . S
C710 C712 1.353 . S
C710 H768 0.929 . S
C711 C708 1.356 . S
C711 C713 1.358 . S
C711 H769 0.930 . S
C712 N709 1.314 . S
C712 C710 1.353 . S
C712 H770 0.930 . S
C713 N709 1.279 . S
C713 C711 1.358 . S
C713 H771 0.930 . S
C714 C717 1.348 . S
C714 C718 1.356 . S
C714 O765 1.325 . S
C715 N716 1.279 . S
C715 C718 1.358 . S
C715 H772 0.930 . S
N716 C715 1.279 . S
N716 C719 1.314 . S
C717 C714 1.348 . S
C717 C719 1.353 . S
C717 H773 0.929 . S
C718 C714 1.356 . S
C718 C715 1.358 . S
C718 H774 0.930 . S
C719 N716 1.314 . S
C719 C717 1.353 . S
C719 H775 0.930 . S
C720 N721 1.314 . S
C720 C725 1.353 . S
C720 H726 0.930 . S
N721 Li704 1.990 . S
N721 C720 1.314 . S
N721 C723 1.279 . S
C722 C723 1.358 . S
C722 C724 1.356 . S
C722 H776 0.930 . S
C723 N721 1.279 . S
C723 C722 1.358 . S
C723 H727 0.930 . S
C724 C722 1.356 . S
C724 C725 1.348 . S
C725 C720 1.353 . S
C725 C724 1.348 . S
C725 H777 0.929 . S
H726 C720 0.930 . S
H727 C723 0.930 . S
C728 N729 1.314 . S
C728 C730 1.353 . S
C728 H734 0.930 . S
N729 Li705 1.990 . S
N729 C728 1.314 . S
N729 C732 1.279 . S
C730 C728 1.353 . S
C730 C733 1.348 . S
C730 H778 0.929 . S
C731 C732 1.358 . S
C731 C733 1.356 . S
C731 H779 0.930 . S
C732 N729 1.279 . S
C732 C731 1.358 . S
C732 H735 0.930 . S
C733 C730 1.348 . S
C733 C731 1.356 . S
H734 C728 0.930 . S
H735 C732 0.930 . S
C736 C738 1.348 . S
C736 C739 1.356 . S
C736 O766 1.325 . S
N737 C740 1.314 . S
N737 C741 1.279 . S
C738 C736 1.348 . S
C738 C740 1.353 . S
C738 H780 0.929 . S
C739 C736 1.356 . S
C739 C741 1.358 . S
C739 H781 0.930 . S
C740 N737 1.314 . S
C740 C738 1.353 . S
C740 H782 0.930 . S
C741 N737 1.279 . S
C741 C739 1.358 . S
C741 H783 0.930 . S
C742 C743 1.348 . S
C742 C744 1.356 . S
C742 O767 1.325 . S
C743 C742 1.348 . S
C743 C745 1.353 . S
C743 H784 0.929 . S
C744 C742 1.356 . S
C744 C746 1.358 . S
C744 H785 0.930 . S
C745 C743 1.353 . S
C745 N747 1.314 . S
C745 H786 0.930 . S
C746 C744 1.358 . S
C746 N747 1.279 . S
C746 H787 0.930 . S
N747 C745 1.314 . S
N747 C746 1.279 . S
C748 C750 1.353 . S
C748 N751 1.314 . S
C748 H754 0.930 . S
C749 N751 1.279 . S
C749 C752 1.358 . S
C749 H755 0.930 . S
C750 C748 1.353 . S
C750 C753 1.348 . S
C750 H788 0.929 . S
N751 Li706 1.990 . S
N751 C748 1.314 . S
N751 C749 1.279 . S
C752 C749 1.358 . S
C752 C753 1.356 . S
C752 H789 0.930 . S
C753 C750 1.348 . S
C753 C752 1.356 . S
H754 C748 0.930 . S
H755 C749 0.930 . S
C756 N757 1.314 . S
C756 C758 1.353 . S
C756 H762 0.930 . S
N757 Li707 1.990 . S
N757 C756 1.314 . S
N757 C760 1.279 . S
C758 C756 1.353 . S
C758 C761 1.348 . S
C758 H790 0.929 . S
C759 C760 1.358 . S
C759 C761 1.356 . S
C759 H791 0.930 . S
C760 N757 1.279 . S
C760 C759 1.358 . S
C760 H763 0.930 . S
C761 C758 1.348 . S
C761 C759 1.356 . S
H762 C756 0.930 . S
H763 C760 0.930 . S
O764 Li704 1.956 . S
O764 Li705 1.970 . S
O764 Li706 1.961 . S
O764 C708 1.325 . S
O765 Li704 1.970 . S
O765 Li705 1.956 . S
O765 Li707 1.961 . S
O765 C714 1.325 . S
O766 Li704 1.961 . S
O766 Li706 1.956 . S
O766 Li707 1.970 . S
O766 C736 1.325 . S
O767 Li705 1.961 . S
O767 Li706 1.970 . S
O767 Li707 1.956 . S
O767 C742 1.325 . S
H768 C710 0.929 . S
H769 C711 0.930 . S
H770 C712 0.930 . S
H771 C713 0.930 . S
H772 C715 0.930 . S
H773 C717 0.929 . S
H774 C718 0.930 . S
H775 C719 0.930 . S
H776 C722 0.930 . S
H777 C725 0.929 . S
H778 C730 0.929 . S
H779 C731 0.930 . S
H780 C738 0.929 . S
H781 C739 0.930 . S
H782 C740 0.930 . S
H783 C741 0.930 . S
H784 C743 0.929 . S
H785 C744 0.930 . S
H786 C745 0.930 . S
H787 C746 0.930 . S
H788 C750 0.929 . S
H789 C752 0.930 . S
H790 C758 0.929 . S
H791 C759 0.930 . S
Li792 N809 1.990 . S
Li792 O852 1.956 . S
Li792 O853 1.970 . S
Li792 O854 1.961 . S
Li793 N817 1.990 . S
Li793 O852 1.970 . S
Li793 O853 1.956 . S
Li793 O855 1.961 . S
Li794 N839 1.990 . S
Li794 O852 1.961 . S
Li794 O854 1.956 . S
Li794 O855 1.970 . S
Li795 N845 1.990 . S
Li795 O853 1.961 . S
Li795 O854 1.970 . S
Li795 O855 1.956 . S
C796 C798 1.348 . S
C796 C799 1.356 . S
C796 O852 1.325 . S
N797 C800 1.314 . S
N797 C801 1.352 . S
C798 C796 1.348 . S
C798 C800 1.409 . S
C798 H856 0.929 . S
C799 C796 1.356 . S
C799 C801 1.358 . S
C799 H857 0.930 . S
C800 N797 1.314 . S
C800 C798 1.409 . S
C800 H858 0.867 1_455 S
C801 N797 1.352 . S
C801 C799 1.358 . S
C801 H859 0.930 . S
C802 C805 1.348 . S
C802 C806 1.356 . S
C802 O853 1.325 . S
C803 N804 1.279 . S
C803 C806 1.358 . S
C803 H860 0.930 . S
N804 C803 1.279 . S
N804 C807 1.314 . S
C805 C802 1.348 . S
C805 C807 1.353 . S
C805 H861 0.929 . S
C806 C802 1.356 . S
C806 C803 1.358 . S
C806 H862 0.930 . S
C807 N804 1.314 . S
C807 C805 1.353 . S
C807 H863 0.930 . S
C808 N809 1.314 . S
C808 C813 1.353 . S
C808 H814 0.930 . S
N809 Li792 1.990 . S
N809 C808 1.314 . S
N809 C811 1.279 . S
C810 C811 1.358 . S
C810 C812 1.356 . S
C810 H864 0.930 . S
C811 N809 1.279 . S
C811 C810 1.358 . S
C811 H815 0.930 . S
C812 C810 1.356 . S
C812 C813 1.348 . S
C813 C808 1.353 . S
C813 C812 1.348 . S
C813 H865 0.929 . S
H814 C808 0.930 . S
H815 C811 0.930 . S
C816 N817 1.314 . S
C816 C818 1.353 . S
C816 H822 0.930 . S
N817 Li793 1.990 . S
N817 C816 1.314 . S
N817 C820 1.279 . S
C818 C816 1.353 . S
C818 C821 1.348 . S
C818 H866 0.929 . S
C819 C820 1.358 . S
C819 C821 1.356 . S
C819 H867 0.930 . S
C820 N817 1.279 . S
C820 C819 1.358 . S
C820 H823 0.930 . S
C821 C818 1.348 . S
C821 C819 1.356 . S
H822 C816 0.930 . S
H823 C820 0.930 . S
C824 C826 1.348 . S
C824 C827 1.356 . S
C824 O854 1.325 . S
N825 C828 1.314 . S
N825 C829 1.279 . S
C826 C824 1.348 . S
C826 C828 1.353 . S
C826 H868 0.929 . S
C827 C824 1.356 . S
C827 C829 1.358 . S
C827 H869 0.930 . S
C828 N825 1.314 . S
C828 C826 1.353 . S
C828 H870 0.930 . S
C829 N825 1.279 . S
C829 C827 1.358 . S
C829 H871 0.930 . S
C830 C831 1.348 . S
C830 C832 1.356 . S
C830 O855 1.325 . S
C831 C830 1.348 . S
C831 C833 1.353 . S
C831 H872 0.929 . S
C832 C830 1.356 . S
C832 C834 1.358 . S
C832 H873 0.930 . S
C833 C831 1.353 . S
C833 N835 1.314 . S
C833 H874 0.930 . S
C834 C832 1.358 . S
C834 N835 1.279 . S
C834 H875 0.930 . S
N835 C833 1.314 . S
N835 C834 1.279 . S
C836 C838 1.353 . S
C836 N839 1.314 . S
C836 H842 0.930 . S
C837 N839 1.279 . S
C837 C840 1.358 . S
C837 H843 0.930 . S
C838 C836 1.353 . S
C838 C841 1.348 . S
C838 H876 0.929 . S
N839 Li794 1.990 . S
N839 C836 1.314 . S
N839 C837 1.279 . S
C840 C837 1.358 . S
C840 C841 1.356 . S
C840 H877 0.930 . S
C841 C838 1.348 . S
C841 C840 1.356 . S
H842 C836 0.930 . S
H843 C837 0.930 . S
C844 N845 1.314 . S
C844 C846 1.353 . S
C844 H850 0.930 . S
N845 Li795 1.990 . S
N845 C844 1.314 . S
N845 C848 1.279 . S
C846 C844 1.353 . S
C846 C849 1.348 . S
C846 H878 0.929 . S
C847 C848 1.358 . S
C847 C849 1.356 . S
C847 H879 0.930 . S
C848 N845 1.279 . S
C848 C847 1.358 . S
C848 H851 0.930 . S
C849 C846 1.348 . S
C849 C847 1.356 . S
H850 C844 0.930 . S
H851 C848 0.930 . S
O852 Li792 1.956 . S
O852 Li793 1.970 . S
O852 Li794 1.961 . S
O852 C796 1.325 . S
O853 Li792 1.970 . S
O853 Li793 1.956 . S
O853 Li795 1.961 . S
O853 C802 1.325 . S
O854 Li792 1.961 . S
O854 Li794 1.956 . S
O854 Li795 1.970 . S
O854 C824 1.325 . S
O855 Li793 1.961 . S
O855 Li794 1.970 . S
O855 Li795 1.956 . S
O855 C830 1.325 . S
H856 C798 0.929 . S
H857 C799 0.930 . S
H858 C800 0.867 1_655 S
H859 C801 0.930 . S
H860 C803 0.930 . S
H861 C805 0.929 . S
H862 C806 0.930 . S
H863 C807 0.930 . S
H864 C810 0.930 . S
H865 C813 0.929 . S
H866 C818 0.929 . S
H867 C819 0.930 . S
H868 C826 0.929 . S
H869 C827 0.930 . S
H870 C828 0.930 . S
H871 C829 0.930 . S
H872 C831 0.929 . S
H873 C832 0.930 . S
H874 C833 0.930 . S
H875 C834 0.930 . S
H876 C838 0.929 . S
H877 C840 0.930 . S
H878 C846 0.929 . S
H879 C847 0.930 . S
Li880 N897 1.990 . S
Li880 O940 1.956 . S
Li880 O941 1.970 . S
Li880 O942 1.961 . S
Li881 N905 1.990 . S
Li881 O940 1.970 . S
Li881 O941 1.956 . S
Li881 O943 1.961 . S
Li882 N927 1.990 . S
Li882 O940 1.961 . S
Li882 O942 1.956 . S
Li882 O943 1.970 . S
Li883 N933 1.990 . S
Li883 O941 1.961 . S
Li883 O942 1.970 . S
Li883 O943 1.956 . S
C884 C886 1.348 . S
C884 C887 1.356 . S
C884 O940 1.325 . S
N885 C888 1.314 . S
N885 C889 1.279 . S
C886 C884 1.348 . S
C886 C888 1.353 . S
C886 H944 0.929 . S
C887 C884 1.356 . S
C887 C889 1.358 . S
C887 H945 0.930 . S
C888 N885 1.314 . S
C888 C886 1.353 . S
C888 H946 0.930 . S
C889 N885 1.279 . S
C889 C887 1.358 . S
C889 H947 0.930 . S
C890 C893 1.348 . S
C890 C894 1.356 . S
C890 O941 1.325 . S
C891 N892 1.279 . S
C891 C894 1.358 . S
C891 H948 0.930 . S
N892 C891 1.279 . S
N892 C895 1.314 . S
C893 C890 1.348 . S
C893 C895 1.353 . S
C893 H949 0.929 . S
C894 C890 1.356 . S
C894 C891 1.358 . S
C894 H950 0.930 . S
C895 N892 1.314 . S
C895 C893 1.353 . S
C895 H951 0.930 . S
C896 N897 1.314 . S
C896 C901 1.353 . S
C896 H902 0.930 . S
N897 Li880 1.990 . S
N897 C896 1.314 . S
N897 C899 1.279 . S
C898 C899 1.358 . S
C898 C900 1.356 . S
C898 H952 0.930 . S
C899 N897 1.279 . S
C899 C898 1.358 . S
C899 H903 0.930 . S
C900 C898 1.356 . S
C900 C901 1.348 . S
C901 C896 1.353 . S
C901 C900 1.348 . S
C901 H953 0.929 . S
H902 C896 0.930 . S
H903 C899 0.930 . S
C904 N905 1.314 . S
C904 C906 1.353 . S
C904 H910 0.930 . S
N905 Li881 1.990 . S
N905 C904 1.314 . S
N905 C908 1.279 . S
C906 C904 1.353 . S
C906 C909 1.348 . S
C906 H954 0.929 . S
C907 C908 1.358 . S
C907 C909 1.356 . S
C907 H955 0.930 . S
C908 N905 1.279 . S
C908 C907 1.358 . S
C908 H911 0.930 . S
C909 C906 1.348 . S
C909 C907 1.356 . S
H910 C904 0.930 . S
H911 C908 0.930 . S
C912 C914 1.348 . S
C912 C915 1.356 . S
C912 O942 1.325 . S
N913 C916 1.314 . S
N913 C917 1.279 . S
C914 C912 1.348 . S
C914 C916 1.353 . S
C914 H956 0.929 . S
C915 C912 1.356 . S
C915 C917 1.358 . S
C915 H957 0.930 . S
C916 N913 1.314 . S
C916 C914 1.353 . S
C916 H958 0.930 . S
C917 N913 1.279 . S
C917 C915 1.358 . S
C917 H959 0.930 . S
C918 C919 1.348 . S
C918 C920 1.356 . S
C918 O943 1.325 . S
C919 C918 1.348 . S
C919 C921 1.353 . S
C919 H960 0.929 . S
C920 C918 1.356 . S
C920 C922 1.358 . S
C920 H961 0.930 . S
C921 C919 1.353 . S
C921 N923 1.314 . S
C921 H962 0.930 . S
C922 C920 1.358 . S
C922 N923 1.279 . S
C922 H963 0.930 . S
N923 C921 1.314 . S
N923 C922 1.279 . S
C924 C926 1.353 . S
C924 N927 1.314 . S
C924 H930 0.930 . S
C925 N927 1.279 . S
C925 C928 1.358 . S
C925 H931 0.930 . S
C926 C924 1.353 . S
C926 C929 1.348 . S
C926 H964 0.929 . S
N927 Li882 1.990 . S
N927 C924 1.314 . S
N927 C925 1.279 . S
C928 C925 1.358 . S
C928 C929 1.356 . S
C928 H965 0.930 . S
C929 C926 1.348 . S
C929 C928 1.356 . S
H930 C924 0.930 . S
H931 C925 0.930 . S
C932 N933 1.314 . S
C932 C934 1.353 . S
C932 H938 0.930 . S
N933 Li883 1.990 . S
N933 C932 1.314 . S
N933 C936 1.279 . S
C934 C932 1.353 . S
C934 C937 1.348 . S
C934 H966 0.929 . S
C935 C936 1.358 . S
C935 C937 1.356 . S
C935 H967 0.930 . S
C936 N933 1.279 . S
C936 C935 1.358 . S
C936 H939 0.930 . S
C937 C934 1.348 . S
C937 C935 1.356 . S
H938 C932 0.930 . S
H939 C936 0.930 . S
O940 Li880 1.956 . S
O940 Li881 1.970 . S
O940 Li882 1.961 . S
O940 C884 1.325 . S
O941 Li880 1.970 . S
O941 Li881 1.956 . S
O941 Li883 1.961 . S
O941 C890 1.325 . S
O942 Li880 1.961 . S
O942 Li882 1.956 . S
O942 Li883 1.970 . S
O942 C912 1.325 . S
O943 Li881 1.961 . S
O943 Li882 1.970 . S
O943 Li883 1.956 . S
O943 C918 1.325 . S
H944 C886 0.929 . S
H945 C887 0.930 . S
H946 C888 0.930 . S
H947 C889 0.930 . S
H948 C891 0.930 . S
H949 C893 0.929 . S
H950 C894 0.930 . S
H951 C895 0.930 . S
H952 C898 0.930 . S
H953 C901 0.929 . S
H954 C906 0.929 . S
H955 C907 0.930 . S
H956 C914 0.929 . S
H957 C915 0.930 . S
H958 C916 0.930 . S
H959 C917 0.930 . S
H960 C919 0.929 . S
H961 C920 0.930 . S
H962 C921 0.930 . S
H963 C922 0.930 . S
H964 C926 0.929 . S
H965 C928 0.930 . S
H966 C934 0.929 . S
H967 C935 0.930 . S
Li968 N985 1.990 . S
Li968 O1028 1.956 . S
Li968 O1029 1.970 . S
Li968 O1030 1.961 . S
Li969 N993 1.990 . S
Li969 O1028 1.970 . S
Li969 O1029 1.956 . S
Li969 O1031 1.961 . S
Li970 N1015 1.990 . S
Li970 O1028 1.961 . S
Li970 O1030 1.956 . S
Li970 O1031 1.970 . S
Li971 N1021 1.990 . S
Li971 O1029 1.961 . S
Li971 O1030 1.970 . S
Li971 O1031 1.956 . S
C972 C974 1.348 . S
C972 C975 1.356 . S
C972 O1028 1.325 . S
N973 C976 1.370 . S
N973 C977 1.265 1_554 S
C974 C972 1.348 . S
C974 C976 1.353 . S
C974 H1032 0.929 . S
C975 C972 1.356 . S
C975 C977 1.358 1_554 S
C975 H1033 0.930 . S
C976 N973 1.370 . S
C976 C974 1.353 . S
C976 H1034 0.930 . S
C977 N973 1.265 1_556 S
C977 C975 1.358 1_556 S
C977 H1035 0.930 . S
C978 C981 1.348 . S
C978 C982 1.356 . S
C978 O1029 1.325 . S
C979 N980 1.279 . S
C979 C982 1.358 . S
C979 H1036 0.930 . S
N980 C979 1.279 . S
N980 C983 1.314 . S
C981 C978 1.348 . S
C981 C983 1.353 . S
C981 H1037 0.929 . S
C982 C978 1.356 . S
C982 C979 1.358 . S
C982 H1038 0.930 . S
C983 N980 1.314 . S
C983 C981 1.353 . S
C983 H1039 0.930 . S
C984 N985 1.314 . S
C984 C989 1.353 . S
C984 H990 0.930 . S
N985 Li968 1.990 . S
N985 C984 1.314 . S
N985 C987 1.279 . S
C986 C987 1.358 . S
C986 C988 1.356 . S
C986 H1040 0.930 . S
C987 N985 1.279 . S
C987 C986 1.358 . S
C987 H991 0.930 . S
C988 C986 1.356 . S
C988 C989 1.348 . S
C989 C984 1.353 . S
C989 C988 1.348 . S
C989 H1041 0.929 . S
H990 C984 0.930 . S
H991 C987 0.930 . S
C992 N993 1.314 . S
C992 C994 1.353 . S
C992 H998 0.930 . S
N993 Li969 1.990 . S
N993 C992 1.314 . S
N993 C996 1.279 . S
C994 C992 1.353 . S
C994 C997 1.348 . S
C994 H1042 0.929 . S
C995 C996 1.358 . S
C995 C997 1.356 . S
C995 H1043 0.930 . S
C996 N993 1.279 . S
C996 C995 1.358 . S
C996 H999 0.930 . S
C997 C994 1.348 . S
C997 C995 1.356 . S
H998 C992 0.930 . S
H999 C996 0.930 . S
C1000 C1002 1.348 . S
C1000 C1003 1.356 . S
C1000 O1030 1.325 . S
N1001 C1004 1.314 . S
N1001 C1005 1.305 . S
C1002 C1000 1.348 . S
C1002 C1004 1.353 . S
C1002 H1044 0.929 . S
C1003 C1000 1.356 . S
C1003 C1005 1.401 . S
C1003 H1045 0.930 . S
C1004 N1001 1.314 . S
C1004 C1002 1.353 . S
C1004 H1046 0.930 . S
C1005 N1001 1.305 . S
C1005 C1003 1.401 . S
C1005 H1047 0.858 1_554 S
C1006 C1007 1.348 . S
C1006 C1008 1.356 . S
C1006 O1031 1.325 . S
C1007 C1006 1.348 . S
C1007 C1009 1.353 . S
C1007 H1048 0.929 . S
C1008 C1006 1.356 . S
C1008 C1010 1.358 . S
C1008 H1049 0.930 . S
C1009 C1007 1.353 . S
C1009 N1011 1.314 . S
C1009 H1050 0.930 . S
C1010 C1008 1.358 . S
C1010 N1011 1.279 . S
C1010 H1051 0.930 . S
N1011 C1009 1.314 . S
N1011 C1010 1.279 . S
C1012 C1014 1.352 1_554 S
C1012 N1015 1.314 . S
C1012 H1018 0.930 . S
C1013 N1015 1.279 . S
C1013 C1016 1.358 1_554 S
C1013 H1019 0.930 . S
C1014 C1012 1.352 1_556 S
C1014 C1017 1.348 . S
C1014 H1052 0.930 . S
N1015 Li970 1.990 . S
N1015 C1012 1.314 . S
N1015 C1013 1.279 . S
C1016 C1013 1.358 1_556 S
C1016 C1017 1.356 . S
C1016 H1053 0.930 . S
C1017 C1014 1.348 . S
C1017 C1016 1.356 . S
H1018 C1012 0.930 . S
H1019 C1013 0.930 . S
C1020 N1021 1.314 . S
C1020 C1022 1.353 . S
C1020 H1026 0.930 . S
N1021 Li971 1.990 . S
N1021 C1020 1.314 . S
N1021 C1024 1.279 . S
C1022 C1020 1.353 . S
C1022 C1025 1.348 . S
C1022 H1054 0.929 . S
C1023 C1024 1.358 . S
C1023 C1025 1.356 . S
C1023 H1055 0.930 . S
C1024 N1021 1.279 . S
C1024 C1023 1.358 . S
C1024 H1027 0.930 . S
C1025 C1022 1.348 . S
C1025 C1023 1.356 . S
H1026 C1020 0.930 . S
H1027 C1024 0.930 . S
O1028 Li968 1.956 . S
O1028 Li969 1.970 . S
O1028 Li970 1.961 . S
O1028 C972 1.325 . S
O1029 Li968 1.970 . S
O1029 Li969 1.956 . S
O1029 Li971 1.961 . S
O1029 C978 1.325 . S
O1030 Li968 1.961 . S
O1030 Li970 1.956 . S
O1030 Li971 1.970 . S
O1030 C1000 1.325 . S
O1031 Li969 1.961 . S
O1031 Li970 1.970 . S
O1031 Li971 1.956 . S
O1031 C1006 1.325 . S
H1032 C974 0.929 . S
H1033 C975 0.930 . S
H1034 C976 0.930 . S
H1035 C977 0.930 . S
H1036 C979 0.930 . S
H1037 C981 0.929 . S
H1038 C982 0.930 . S
H1039 C983 0.930 . S
H1040 C986 0.930 . S
H1041 C989 0.929 . S
H1042 C994 0.929 . S
H1043 C995 0.930 . S
H1044 C1002 0.929 . S
H1045 C1003 0.930 . S
H1046 C1004 0.930 . S
H1047 C1005 0.858 1_556 S
H1048 C1007 0.929 . S
H1049 C1008 0.930 . S
H1050 C1009 0.930 . S
H1051 C1010 0.930 . S
H1052 C1014 0.930 . S
H1053 C1016 0.930 . S
H1054 C1022 0.929 . S
H1055 C1023 0.930 . S
Li1056 N1073 1.990 . S
Li1056 O1116 1.956 . S
Li1056 O1117 1.970 . S
Li1056 O1118 1.961 . S
Li1057 N1081 1.990 . S
Li1057 O1116 1.970 . S
Li1057 O1117 1.956 . S
Li1057 O1119 1.961 . S
Li1058 N1103 1.990 . S
Li1058 O1116 1.961 . S
Li1058 O1118 1.956 . S
Li1058 O1119 1.970 . S
Li1059 N1109 1.990 . S
Li1059 O1117 1.961 . S
Li1059 O1118 1.970 . S
Li1059 O1119 1.956 . S
C1060 C1062 1.348 . S
C1060 C1063 1.356 . S
C1060 O1116 1.325 . S
N1061 C1064 1.314 . S
N1061 C1065 1.279 . S
C1062 C1060 1.348 . S
C1062 C1064 1.353 . S
C1062 H1120 0.929 . S
C1063 C1060 1.356 . S
C1063 C1065 1.358 . S
C1063 H1121 0.930 . S
C1064 N1061 1.314 . S
C1064 C1062 1.353 . S
C1064 H1122 0.930 . S
C1065 N1061 1.279 . S
C1065 C1063 1.358 . S
C1065 H1123 0.930 . S
C1066 C1069 1.348 . S
C1066 C1070 1.356 . S
C1066 O1117 1.325 . S
C1067 N1068 1.279 . S
C1067 C1070 1.358 . S
C1067 H1124 0.930 . S
N1068 C1067 1.279 . S
N1068 C1071 1.314 . S
C1069 C1066 1.348 . S
C1069 C1071 1.353 . S
C1069 H1125 0.929 . S
C1070 C1066 1.356 . S
C1070 C1067 1.358 . S
C1070 H1126 0.930 . S
C1071 N1068 1.314 . S
C1071 C1069 1.353 . S
C1071 H1127 0.930 . S
C1072 N1073 1.314 . S
C1072 C1077 1.353 . S
C1072 H1078 0.930 . S
N1073 Li1056 1.990 . S
N1073 C1072 1.314 . S
N1073 C1075 1.279 . S
C1074 C1075 1.358 . S
C1074 C1076 1.356 . S
C1074 H1128 0.930 . S
C1075 N1073 1.279 . S
C1075 C1074 1.358 . S
C1075 H1079 0.930 . S
C1076 C1074 1.356 . S
C1076 C1077 1.348 . S
C1077 C1072 1.353 . S
C1077 C1076 1.348 . S
C1077 H1129 0.929 . S
H1078 C1072 0.930 . S
H1079 C1075 0.930 . S
C1080 N1081 1.314 . S
C1080 C1082 1.353 . S
C1080 H1086 0.930 . S
N1081 Li1057 1.990 . S
N1081 C1080 1.314 . S
N1081 C1084 1.279 . S
C1082 C1080 1.353 . S
C1082 C1085 1.348 . S
C1082 H1130 0.929 . S
C1083 C1084 1.358 . S
C1083 C1085 1.356 . S
C1083 H1131 0.930 . S
C1084 N1081 1.279 . S
C1084 C1083 1.358 . S
C1084 H1087 0.930 . S
C1085 C1082 1.348 . S
C1085 C1083 1.356 . S
H1086 C1080 0.930 . S
H1087 C1084 0.930 . S
C1088 C1090 1.348 . S
C1088 C1091 1.356 . S
C1088 O1118 1.325 . S
N1089 C1092 1.314 . S
N1089 C1093 1.279 . S
C1090 C1088 1.348 . S
C1090 C1092 1.353 . S
C1090 H1132 0.929 . S
C1091 C1088 1.356 . S
C1091 C1093 1.358 . S
C1091 H1133 0.930 . S
C1092 N1089 1.314 . S
C1092 C1090 1.353 . S
C1092 H1134 0.930 . S
C1093 N1089 1.279 . S
C1093 C1091 1.358 . S
C1093 H1135 0.930 . S
C1094 C1095 1.348 . S
C1094 C1096 1.356 . S
C1094 O1119 1.325 . S
C1095 C1094 1.348 . S
C1095 C1097 1.353 . S
C1095 H1136 0.929 . S
C1096 C1094 1.356 . S
C1096 C1098 1.358 . S
C1096 H1137 0.930 . S
C1097 C1095 1.353 . S
C1097 N1099 1.314 . S
C1097 H1138 0.930 . S
C1098 C1096 1.358 . S
C1098 N1099 1.279 . S
C1098 H1139 0.930 . S
N1099 C1097 1.314 . S
N1099 C1098 1.279 . S
C1100 C1102 1.353 . S
C1100 N1103 1.314 . S
C1100 H1106 0.930 . S
C1101 N1103 1.279 . S
C1101 C1104 1.358 . S
C1101 H1107 0.930 . S
C1102 C1100 1.353 . S
C1102 C1105 1.348 . S
C1102 H1140 0.929 . S
N1103 Li1058 1.990 . S
N1103 C1100 1.314 . S
N1103 C1101 1.279 . S
C1104 C1101 1.358 . S
C1104 C1105 1.356 . S
C1104 H1141 0.930 . S
C1105 C1102 1.348 . S
C1105 C1104 1.356 . S
H1106 C1100 0.930 . S
H1107 C1101 0.930 . S
C1108 N1109 1.314 . S
C1108 C1110 1.353 . S
C1108 H1114 0.930 . S
N1109 Li1059 1.990 . S
N1109 C1108 1.314 . S
N1109 C1112 1.279 . S
C1110 C1108 1.353 . S
C1110 C1113 1.348 . S
C1110 H1142 0.929 . S
C1111 C1112 1.358 . S
C1111 C1113 1.356 . S
C1111 H1143 0.930 . S
C1112 N1109 1.279 . S
C1112 C1111 1.358 . S
C1112 H1115 0.930 . S
C1113 C1110 1.348 . S
C1113 C1111 1.356 . S
H1114 C1108 0.930 . S
H1115 C1112 0.930 . S
O1116 Li1056 1.956 . S
O1116 Li1057 1.970 . S
O1116 Li1058 1.961 . S
O1116 C1060 1.325 . S
O1117 Li1056 1.970 . S
O1117 Li1057 1.956 . S
O1117 Li1059 1.961 . S
O1117 C1066 1.325 . S
O1118 Li1056 1.961 . S
O1118 Li1058 1.956 . S
O1118 Li1059 1.970 . S
O1118 C1088 1.325 . S
O1119 Li1057 1.961 . S
O1119 Li1058 1.970 . S
O1119 Li1059 1.956 . S
O1119 C1094 1.325 . S
H1120 C1062 0.929 . S
H1121 C1063 0.930 . S
H1122 C1064 0.930 . S
H1123 C1065 0.930 . S
H1124 C1067 0.930 . S
H1125 C1069 0.929 . S
H1126 C1070 0.930 . S
H1127 C1071 0.930 . S
H1128 C1074 0.930 . S
H1129 C1077 0.929 . S
H1130 C1082 0.929 . S
H1131 C1083 0.930 . S
H1132 C1090 0.929 . S
H1133 C1091 0.930 . S
H1134 C1092 0.930 . S
H1135 C1093 0.930 . S
H1136 C1095 0.929 . S
H1137 C1096 0.930 . S
H1138 C1097 0.930 . S
H1139 C1098 0.930 . S
H1140 C1102 0.929 . S
H1141 C1104 0.930 . S
H1142 C1110 0.929 . S
H1143 C1111 0.930 . S
Li1144 N1161 1.990 . S
Li1144 O1204 1.956 . S
Li1144 O1205 1.970 . S
Li1144 O1206 1.961 . S
Li1145 N1169 1.990 . S
Li1145 O1204 1.970 . S
Li1145 O1205 1.956 . S
Li1145 O1207 1.961 . S
Li1146 N1191 1.990 . S
Li1146 O1204 1.961 . S
Li1146 O1206 1.956 . S
Li1146 O1207 1.970 . S
Li1147 N1197 1.990 . S
Li1147 O1205 1.961 . S
Li1147 O1206 1.970 . S
Li1147 O1207 1.956 . S
C1148 C1150 1.348 . S
C1148 C1151 1.356 . S
C1148 O1204 1.325 . S
N1149 C1152 1.314 . S
N1149 C1153 1.305 . S
C1150 C1148 1.348 . S
C1150 C1152 1.353 . S
C1150 H1208 0.929 . S
C1151 C1148 1.356 . S
C1151 C1153 1.401 . S
C1151 H1209 0.930 . S
C1152 N1149 1.314 . S
C1152 C1150 1.353 . S
C1152 H1210 0.930 . S
C1153 N1149 1.305 . S
C1153 C1151 1.401 . S
C1153 H1211 0.859 1_556 S
C1154 C1157 1.348 . S
C1154 C1158 1.356 . S
C1154 O1205 1.325 . S
C1155 N1156 1.355 . S
C1155 C1158 1.358 . S
C1155 H1212 0.930 . S
N1156 C1155 1.355 . S
N1156 C1159 1.314 . S
C1157 C1154 1.348 . S
C1157 C1159 1.411 . S
C1157 H1213 0.929 . S
C1158 C1154 1.356 . S
C1158 C1155 1.358 . S
C1158 H1214 0.930 . S
C1159 N1156 1.314 . S
C1159 C1157 1.411 . S
C1159 H1215 0.865 1_655 S
C1160 N1161 1.314 . S
C1160 C1165 1.351 1_556 S
C1160 H1166 0.930 . S
N1161 Li1144 1.990 . S
N1161 C1160 1.314 . S
N1161 C1163 1.279 . S
C1162 C1163 1.358 1_554 S
C1162 C1164 1.356 . S
C1162 H1216 0.930 . S
C1163 N1161 1.279 . S
C1163 C1162 1.358 1_556 S
C1163 H1167 0.930 . S
C1164 C1162 1.356 . S
C1164 C1165 1.349 . S
C1165 C1160 1.351 1_554 S
C1165 C1164 1.349 . S
C1165 H1217 0.930 . S
H1166 C1160 0.930 . S
H1167 C1163 0.930 . S
C1168 N1169 1.314 . S
C1168 C1170 1.353 . S
C1168 H1174 0.930 . S
N1169 Li1145 1.990 . S
N1169 C1168 1.314 . S
N1169 C1172 1.279 . S
C1170 C1168 1.353 . S
C1170 C1173 1.348 . S
C1170 H1218 0.929 . S
C1171 C1172 1.358 . S
C1171 C1173 1.356 . S
C1171 H1219 0.930 . S
C1172 N1169 1.279 . S
C1172 C1171 1.358 . S
C1172 H1175 0.930 . S
C1173 C1170 1.348 . S
C1173 C1171 1.356 . S
H1174 C1168 0.930 . S
H1175 C1172 0.930 . S
C1176 C1178 1.348 . S
C1176 C1179 1.356 . S
C1176 O1206 1.325 . S
N1177 C1180 1.369 . S
N1177 C1181 1.265 1_556 S
C1178 C1176 1.348 . S
C1178 C1180 1.353 . S
C1178 H1220 0.929 . S
C1179 C1176 1.356 . S
C1179 C1181 1.358 1_556 S
C1179 H1221 0.930 . S
C1180 N1177 1.369 . S
C1180 C1178 1.353 . S
C1180 H1222 0.930 . S
C1181 N1177 1.265 1_554 S
C1181 C1179 1.358 1_554 S
C1181 H1223 0.930 . S
C1182 C1183 1.348 . S
C1182 C1184 1.356 . S
C1182 O1207 1.325 . S
C1183 C1182 1.348 . S
C1183 C1185 1.353 . S
C1183 H1224 0.929 . S
C1184 C1182 1.356 . S
C1184 C1186 1.358 . S
C1184 H1225 0.930 . S
C1185 C1183 1.353 . S
C1185 N1187 1.314 . S
C1185 H1226 0.930 . S
C1186 C1184 1.358 . S
C1186 N1187 1.279 . S
C1186 H1227 0.930 . S
N1187 C1185 1.314 . S
N1187 C1186 1.279 . S
C1188 C1190 1.353 . S
C1188 N1191 1.314 . S
C1188 H1194 0.930 . S
C1189 N1191 1.279 . S
C1189 C1192 1.358 . S
C1189 H1195 0.930 . S
C1190 C1188 1.353 . S
C1190 C1193 1.348 . S
C1190 H1228 0.929 . S
N1191 Li1146 1.990 . S
N1191 C1188 1.314 . S
N1191 C1189 1.279 . S
C1192 C1189 1.358 . S
C1192 C1193 1.356 . S
C1192 H1229 0.930 . S
C1193 C1190 1.348 . S
C1193 C1192 1.356 . S
H1194 C1188 0.930 . S
H1195 C1189 0.930 . S
C1196 N1197 1.314 . S
C1196 C1198 1.353 . S
C1196 H1202 0.930 . S
N1197 Li1147 1.990 . S
N1197 C1196 1.314 . S
N1197 C1200 1.279 . S
C1198 C1196 1.353 . S
C1198 C1201 1.348 . S
C1198 H1230 0.929 . S
C1199 C1200 1.358 . S
C1199 C1201 1.356 . S
C1199 H1231 0.930 . S
C1200 N1197 1.279 . S
C1200 C1199 1.358 . S
C1200 H1203 0.930 . S
C1201 C1198 1.348 . S
C1201 C1199 1.356 . S
H1202 C1196 0.930 . S
H1203 C1200 0.930 . S
O1204 Li1144 1.956 . S
O1204 Li1145 1.970 . S
O1204 Li1146 1.961 . S
O1204 C1148 1.325 . S
O1205 Li1144 1.970 . S
O1205 Li1145 1.956 . S
O1205 Li1147 1.961 . S
O1205 C1154 1.325 . S
O1206 Li1144 1.961 . S
O1206 Li1146 1.956 . S
O1206 Li1147 1.970 . S
O1206 C1176 1.325 . S
O1207 Li1145 1.961 . S
O1207 Li1146 1.970 . S
O1207 Li1147 1.956 . S
O1207 C1182 1.325 . S
H1208 C1150 0.929 . S
H1209 C1151 0.930 . S
H1210 C1152 0.930 . S
H1211 C1153 0.859 1_554 S
H1212 C1155 0.930 . S
H1213 C1157 0.929 . S
H1214 C1158 0.930 . S
H1215 C1159 0.865 1_455 S
H1216 C1162 0.930 . S
H1217 C1165 0.930 . S
H1218 C1170 0.929 . S
H1219 C1171 0.930 . S
H1220 C1178 0.929 . S
H1221 C1179 0.930 . S
H1222 C1180 0.930 . S
H1223 C1181 0.930 . S
H1224 C1183 0.929 . S
H1225 C1184 0.930 . S
H1226 C1185 0.930 . S
H1227 C1186 0.930 . S
H1228 C1190 0.929 . S
H1229 C1192 0.930 . S
H1230 C1198 0.929 . S
H1231 C1199 0.930 . S
Li1232 N1249 1.990 . S
Li1232 O1292 1.956 . S
Li1232 O1293 1.970 . S
Li1232 O1294 1.961 . S
Li1233 N1257 1.990 . S
Li1233 O1292 1.970 . S
Li1233 O1293 1.956 . S
Li1233 O1295 1.961 . S
Li1234 N1279 1.990 . S
Li1234 O1292 1.961 . S
Li1234 O1294 1.956 . S
Li1234 O1295 1.970 . S
Li1235 N1285 1.990 . S
Li1235 O1293 1.961 . S
Li1235 O1294 1.970 . S
Li1235 O1295 1.956 . S
C1236 C1238 1.348 . S
C1236 C1239 1.356 . S
C1236 O1292 1.325 . S
N1237 C1240 1.314 . S
N1237 C1241 1.279 . S
C1238 C1236 1.348 . S
C1238 C1240 1.353 . S
C1238 H1296 0.929 . S
C1239 C1236 1.356 . S
C1239 C1241 1.358 . S
C1239 H1297 0.930 . S
C1240 N1237 1.314 . S
C1240 C1238 1.353 . S
C1240 H1298 0.930 . S
C1241 N1237 1.279 . S
C1241 C1239 1.358 . S
C1241 H1299 0.930 . S
C1242 C1245 1.348 . S
C1242 C1246 1.356 . S
C1242 O1293 1.325 . S
C1243 N1244 1.279 . S
C1243 C1246 1.358 . S
C1243 H1300 0.930 . S
N1244 C1243 1.279 . S
N1244 C1247 1.314 . S
C1245 C1242 1.348 . S
C1245 C1247 1.353 . S
C1245 H1301 0.929 . S
C1246 C1242 1.356 . S
C1246 C1243 1.358 . S
C1246 H1302 0.930 . S
C1247 N1244 1.314 . S
C1247 C1245 1.353 . S
C1247 H1303 0.930 . S
C1248 N1249 1.314 . S
C1248 C1253 1.353 . S
C1248 H1254 0.930 . S
N1249 Li1232 1.990 . S
N1249 C1248 1.314 . S
N1249 C1251 1.279 . S
C1250 C1251 1.358 . S
C1250 C1252 1.356 . S
C1250 H1304 0.930 . S
C1251 N1249 1.279 . S
C1251 C1250 1.358 . S
C1251 H1255 0.930 . S
C1252 C1250 1.356 . S
C1252 C1253 1.348 . S
C1253 C1248 1.353 . S
C1253 C1252 1.348 . S
C1253 H1305 0.929 . S
H1254 C1248 0.930 . S
H1255 C1251 0.930 . S
C1256 N1257 1.314 . S
C1256 C1258 1.353 . S
C1256 H1262 0.930 . S
N1257 Li1233 1.990 . S
N1257 C1256 1.314 . S
N1257 C1260 1.279 . S
C1258 C1256 1.353 . S
C1258 C1261 1.348 . S
C1258 H1306 0.929 . S
C1259 C1260 1.358 . S
C1259 C1261 1.356 . S
C1259 H1307 0.930 . S
C1260 N1257 1.279 . S
C1260 C1259 1.358 . S
C1260 H1263 0.930 . S
C1261 C1258 1.348 . S
C1261 C1259 1.356 . S
H1262 C1256 0.930 . S
H1263 C1260 0.930 . S
C1264 C1266 1.348 . S
C1264 C1267 1.356 . S
C1264 O1294 1.325 . S
N1265 C1268 1.314 . S
N1265 C1269 1.279 . S
C1266 C1264 1.348 . S
C1266 C1268 1.353 . S
C1266 H1308 0.929 . S
C1267 C1264 1.356 . S
C1267 C1269 1.358 . S
C1267 H1309 0.930 . S
C1268 N1265 1.314 . S
C1268 C1266 1.353 . S
C1268 H1310 0.930 . S
C1269 N1265 1.279 . S
C1269 C1267 1.358 . S
C1269 H1311 0.930 . S
C1270 C1271 1.348 . S
C1270 C1272 1.356 . S
C1270 O1295 1.325 . S
C1271 C1270 1.348 . S
C1271 C1273 1.353 . S
C1271 H1312 0.929 . S
C1272 C1270 1.356 . S
C1272 C1274 1.358 . S
C1272 H1313 0.930 . S
C1273 C1271 1.353 . S
C1273 N1275 1.314 . S
C1273 H1314 0.930 . S
C1274 C1272 1.358 . S
C1274 N1275 1.279 . S
C1274 H1315 0.930 . S
N1275 C1273 1.314 . S
N1275 C1274 1.279 . S
C1276 C1278 1.353 . S
C1276 N1279 1.314 . S
C1276 H1282 0.930 . S
C1277 N1279 1.279 . S
C1277 C1280 1.358 . S
C1277 H1283 0.930 . S
C1278 C1276 1.353 . S
C1278 C1281 1.348 . S
C1278 H1316 0.929 . S
N1279 Li1234 1.990 . S
N1279 C1276 1.314 . S
N1279 C1277 1.279 . S
C1280 C1277 1.358 . S
C1280 C1281 1.356 . S
C1280 H1317 0.930 . S
C1281 C1278 1.348 . S
C1281 C1280 1.356 . S
H1282 C1276 0.930 . S
H1283 C1277 0.930 . S
C1284 N1285 1.314 . S
C1284 C1286 1.353 . S
C1284 H1290 0.930 . S
N1285 Li1235 1.990 . S
N1285 C1284 1.314 . S
N1285 C1288 1.279 . S
C1286 C1284 1.353 . S
C1286 C1289 1.348 . S
C1286 H1318 0.929 . S
C1287 C1288 1.358 . S
C1287 C1289 1.356 . S
C1287 H1319 0.930 . S
C1288 N1285 1.279 . S
C1288 C1287 1.358 . S
C1288 H1291 0.930 . S
C1289 C1286 1.348 . S
C1289 C1287 1.356 . S
H1290 C1284 0.930 . S
H1291 C1288 0.930 . S
O1292 Li1232 1.956 . S
O1292 Li1233 1.970 . S
O1292 Li1234 1.961 . S
O1292 C1236 1.325 . S
O1293 Li1232 1.970 . S
O1293 Li1233 1.956 . S
O1293 Li1235 1.961 . S
O1293 C1242 1.325 . S
O1294 Li1232 1.961 . S
O1294 Li1234 1.956 . S
O1294 Li1235 1.970 . S
O1294 C1264 1.325 . S
O1295 Li1233 1.961 . S
O1295 Li1234 1.970 . S
O1295 Li1235 1.956 . S
O1295 C1270 1.325 . S
H1296 C1238 0.929 . S
H1297 C1239 0.930 . S
H1298 C1240 0.930 . S
H1299 C1241 0.930 . S
H1300 C1243 0.930 . S
H1301 C1245 0.929 . S
H1302 C1246 0.930 . S
H1303 C1247 0.930 . S
H1304 C1250 0.930 . S
H1305 C1253 0.929 . S
H1306 C1258 0.929 . S
H1307 C1259 0.930 . S
H1308 C1266 0.929 . S
H1309 C1267 0.930 . S
H1310 C1268 0.930 . S
H1311 C1269 0.930 . S
H1312 C1271 0.929 . S
H1313 C1272 0.930 . S
H1314 C1273 0.930 . S
H1315 C1274 0.930 . S
H1316 C1278 0.929 . S
H1317 C1280 0.930 . S
H1318 C1286 0.929 . S
H1319 C1287 0.930 . S
Li1320 N1337 1.990 . S
Li1320 O1380 1.956 . S
Li1320 O1381 1.970 . S
Li1320 O1382 1.961 . S
Li1321 N1345 1.990 . S
Li1321 O1380 1.970 . S
Li1321 O1381 1.956 . S
Li1321 O1383 1.961 . S
Li1322 N1367 1.990 . S
Li1322 O1380 1.961 . S
Li1322 O1382 1.956 . S
Li1322 O1383 1.970 . S
Li1323 N1373 1.990 . S
Li1323 O1381 1.961 . S
Li1323 O1382 1.970 . S
Li1323 O1383 1.956 . S
C1324 C1326 1.348 . S
C1324 C1327 1.356 . S
C1324 O1380 1.325 . S
N1325 C1328 1.314 . S
N1325 C1329 1.279 . S
C1326 C1324 1.348 . S
C1326 C1328 1.353 . S
C1326 H1384 0.929 . S
C1327 C1324 1.356 . S
C1327 C1329 1.358 . S
C1327 H1385 0.930 . S
C1328 N1325 1.314 . S
C1328 C1326 1.353 . S
C1328 H1386 0.930 . S
C1329 N1325 1.279 . S
C1329 C1327 1.358 . S
C1329 H1387 0.930 . S
C1330 C1333 1.348 . S
C1330 C1334 1.356 . S
C1330 O1381 1.325 . S
C1331 N1332 1.279 . S
C1331 C1334 1.358 . S
C1331 H1388 0.930 . S
N1332 C1331 1.279 . S
N1332 C1335 1.314 . S
C1333 C1330 1.348 . S
C1333 C1335 1.353 . S
C1333 H1389 0.929 . S
C1334 C1330 1.356 . S
C1334 C1331 1.358 . S
C1334 H1390 0.930 . S
C1335 N1332 1.314 . S
C1335 C1333 1.353 . S
C1335 H1391 0.930 . S
C1336 N1337 1.314 . S
C1336 C1341 1.353 . S
C1336 H1342 0.930 . S
N1337 Li1320 1.990 . S
N1337 C1336 1.314 . S
N1337 C1339 1.279 . S
C1338 C1339 1.358 . S
C1338 C1340 1.356 . S
C1338 H1392 0.930 . S
C1339 N1337 1.279 . S
C1339 C1338 1.358 . S
C1339 H1343 0.930 . S
C1340 C1338 1.356 . S
C1340 C1341 1.348 . S
C1341 C1336 1.353 . S
C1341 C1340 1.348 . S
C1341 H1393 0.929 . S
H1342 C1336 0.930 . S
H1343 C1339 0.930 . S
C1344 N1345 1.314 . S
C1344 C1346 1.353 . S
C1344 H1350 0.930 . S
N1345 Li1321 1.990 . S
N1345 C1344 1.314 . S
N1345 C1348 1.279 . S
C1346 C1344 1.353 . S
C1346 C1349 1.348 . S
C1346 H1394 0.929 . S
C1347 C1348 1.358 . S
C1347 C1349 1.356 . S
C1347 H1395 0.930 . S
C1348 N1345 1.279 . S
C1348 C1347 1.358 . S
C1348 H1351 0.930 . S
C1349 C1346 1.348 . S
C1349 C1347 1.356 . S
H1350 C1344 0.930 . S
H1351 C1348 0.930 . S
C1352 C1354 1.348 . S
C1352 C1355 1.356 . S
C1352 O1382 1.325 . S
N1353 C1356 1.314 . S
N1353 C1357 1.279 . S
C1354 C1352 1.348 . S
C1354 C1356 1.353 . S
C1354 H1396 0.929 . S
C1355 C1352 1.356 . S
C1355 C1357 1.358 . S
C1355 H1397 0.930 . S
C1356 N1353 1.314 . S
C1356 C1354 1.353 . S
C1356 H1398 0.930 . S
C1357 N1353 1.279 . S
C1357 C1355 1.358 . S
C1357 H1399 0.930 . S
C1358 C1359 1.348 . S
C1358 C1360 1.356 . S
C1358 O1383 1.325 . S
C1359 C1358 1.348 . S
C1359 C1361 1.353 . S
C1359 H1400 0.929 . S
C1360 C1358 1.356 . S
C1360 C1362 1.358 . S
C1360 H1401 0.930 . S
C1361 C1359 1.353 . S
C1361 N1363 1.314 . S
C1361 H1402 0.930 . S
C1362 C1360 1.358 . S
C1362 N1363 1.279 . S
C1362 H1403 0.930 . S
N1363 C1361 1.314 . S
N1363 C1362 1.279 . S
C1364 C1366 1.353 . S
C1364 N1367 1.314 . S
C1364 H1370 0.930 . S
C1365 N1367 1.279 . S
C1365 C1368 1.358 . S
C1365 H1371 0.930 . S
C1366 C1364 1.353 . S
C1366 C1369 1.348 . S
C1366 H1404 0.929 . S
N1367 Li1322 1.990 . S
N1367 C1364 1.314 . S
N1367 C1365 1.279 . S
C1368 C1365 1.358 . S
C1368 C1369 1.356 . S
C1368 H1405 0.930 . S
C1369 C1366 1.348 . S
C1369 C1368 1.356 . S
H1370 C1364 0.930 . S
H1371 C1365 0.930 . S
C1372 N1373 1.314 . S
C1372 C1374 1.353 . S
C1372 H1378 0.930 . S
N1373 Li1323 1.990 . S
N1373 C1372 1.314 . S
N1373 C1376 1.279 . S
C1374 C1372 1.353 . S
C1374 C1377 1.348 . S
C1374 H1406 0.929 . S
C1375 C1376 1.358 . S
C1375 C1377 1.356 . S
C1375 H1407 0.930 . S
C1376 N1373 1.279 . S
C1376 C1375 1.358 . S
C1376 H1379 0.930 . S
C1377 C1374 1.348 . S
C1377 C1375 1.356 . S
H1378 C1372 0.930 . S
H1379 C1376 0.930 . S
O1380 Li1320 1.956 . S
O1380 Li1321 1.970 . S
O1380 Li1322 1.961 . S
O1380 C1324 1.325 . S
O1381 Li1320 1.970 . S
O1381 Li1321 1.956 . S
O1381 Li1323 1.961 . S
O1381 C1330 1.325 . S
O1382 Li1320 1.961 . S
O1382 Li1322 1.956 . S
O1382 Li1323 1.970 . S
O1382 C1352 1.325 . S
O1383 Li1321 1.961 . S
O1383 Li1322 1.970 . S
O1383 Li1323 1.956 . S
O1383 C1358 1.325 . S
H1384 C1326 0.929 . S
H1385 C1327 0.930 . S
H1386 C1328 0.930 . S
H1387 C1329 0.930 . S
H1388 C1331 0.930 . S
H1389 C1333 0.929 . S
H1390 C1334 0.930 . S
H1391 C1335 0.930 . S
H1392 C1338 0.930 . S
H1393 C1341 0.929 . S
H1394 C1346 0.929 . S
H1395 C1347 0.930 . S
H1396 C1354 0.929 . S
H1397 C1355 0.930 . S
H1398 C1356 0.930 . S
H1399 C1357 0.930 . S
H1400 C1359 0.929 . S
H1401 C1360 0.930 . S
H1402 C1361 0.930 . S
H1403 C1362 0.930 . S
H1404 C1366 0.929 . S
H1405 C1368 0.930 . S
H1406 C1374 0.929 . S
H1407 C1375 0.930 . S
Li1408 N1425 1.990 . S
Li1408 O1468 1.956 . S
Li1408 O1469 1.970 . S
Li1408 O1470 1.961 . S
Li1409 N1433 1.990 . S
Li1409 O1468 1.970 . S
Li1409 O1469 1.956 . S
Li1409 O1471 1.961 . S
Li1410 N1455 1.990 . S
Li1410 O1468 1.961 . S
Li1410 O1470 1.956 . S
Li1410 O1471 1.970 . S
Li1411 N1461 1.990 . S
Li1411 O1469 1.961 . S
Li1411 O1470 1.970 . S
Li1411 O1471 1.956 . S
C1412 C1414 1.348 . S
C1412 C1415 1.356 . S
C1412 O1468 1.325 . S
N1413 C1416 1.314 . S
N1413 C1417 1.279 . S
C1414 C1412 1.348 . S
C1414 C1416 1.353 . S
C1414 H1472 0.929 . S
C1415 C1412 1.356 . S
C1415 C1417 1.358 . S
C1415 H1473 0.930 . S
C1416 N1413 1.314 . S
C1416 C1414 1.353 . S
C1416 H1474 0.930 . S
C1417 N1413 1.279 . S
C1417 C1415 1.358 . S
C1417 H1475 0.930 . S
C1418 C1421 1.348 . S
C1418 C1422 1.356 . S
C1418 O1469 1.325 . S
C1419 N1420 1.279 . S
C1419 C1422 1.358 . S
C1419 H1476 0.930 . S
N1420 C1419 1.279 . S
N1420 C1423 1.314 . S
C1421 C1418 1.348 . S
C1421 C1423 1.353 . S
C1421 H1477 0.929 . S
C1422 C1418 1.356 . S
C1422 C1419 1.358 . S
C1422 H1478 0.930 . S
C1423 N1420 1.314 . S
C1423 C1421 1.353 . S
C1423 H1479 0.930 . S
C1424 N1425 1.314 . S
C1424 C1429 1.353 . S
C1424 H1430 0.930 . S
N1425 Li1408 1.990 . S
N1425 C1424 1.314 . S
N1425 C1427 1.279 . S
C1426 C1427 1.358 . S
C1426 C1428 1.356 . S
C1426 H1480 0.930 . S
C1427 N1425 1.279 . S
C1427 C1426 1.358 . S
C1427 H1431 0.930 . S
C1428 C1426 1.356 . S
C1428 C1429 1.348 . S
C1429 C1424 1.353 . S
C1429 C1428 1.348 . S
C1429 H1481 0.929 . S
H1430 C1424 0.930 . S
H1431 C1427 0.930 . S
C1432 N1433 1.314 . S
C1432 C1434 1.353 . S
C1432 H1438 0.930 . S
N1433 Li1409 1.990 . S
N1433 C1432 1.314 . S
N1433 C1436 1.279 . S
C1434 C1432 1.353 . S
C1434 C1437 1.348 . S
C1434 H1482 0.929 . S
C1435 C1436 1.358 . S
C1435 C1437 1.356 . S
C1435 H1483 0.930 . S
C1436 N1433 1.279 . S
C1436 C1435 1.358 . S
C1436 H1439 0.930 . S
C1437 C1434 1.348 . S
C1437 C1435 1.356 . S
H1438 C1432 0.930 . S
H1439 C1436 0.930 . S
C1440 C1442 1.348 . S
C1440 C1443 1.356 . S
C1440 O1470 1.325 . S
N1441 C1444 1.314 . S
N1441 C1445 1.279 . S
C1442 C1440 1.348 . S
C1442 C1444 1.353 . S
C1442 H1484 0.929 . S
C1443 C1440 1.356 . S
C1443 C1445 1.358 . S
C1443 H1485 0.930 . S
C1444 N1441 1.314 . S
C1444 C1442 1.353 . S
C1444 H1486 0.930 . S
C1445 N1441 1.279 . S
C1445 C1443 1.358 . S
C1445 H1487 0.930 . S
C1446 C1447 1.348 . S
C1446 C1448 1.356 . S
C1446 O1471 1.325 . S
C1447 C1446 1.348 . S
C1447 C1449 1.353 . S
C1447 H1488 0.929 . S
C1448 C1446 1.356 . S
C1448 C1450 1.358 . S
C1448 H1489 0.930 . S
C1449 C1447 1.353 . S
C1449 N1451 1.314 . S
C1449 H1490 0.930 . S
C1450 C1448 1.358 . S
C1450 N1451 1.279 . S
C1450 H1491 0.930 . S
N1451 C1449 1.314 . S
N1451 C1450 1.279 . S
C1452 C1454 1.353 . S
C1452 N1455 1.314 . S
C1452 H1458 0.930 . S
C1453 N1455 1.279 . S
C1453 C1456 1.358 . S
C1453 H1459 0.930 . S
C1454 C1452 1.353 . S
C1454 C1457 1.348 . S
C1454 H1492 0.929 . S
N1455 Li1410 1.990 . S
N1455 C1452 1.314 . S
N1455 C1453 1.279 . S
C1456 C1453 1.358 . S
C1456 C1457 1.356 . S
C1456 H1493 0.930 . S
C1457 C1454 1.348 . S
C1457 C1456 1.356 . S
H1458 C1452 0.930 . S
H1459 C1453 0.930 . S
C1460 N1461 1.314 . S
C1460 C1462 1.353 . S
C1460 H1466 0.930 . S
N1461 Li1411 1.990 . S
N1461 C1460 1.314 . S
N1461 C1464 1.279 . S
C1462 C1460 1.353 . S
C1462 C1465 1.348 . S
C1462 H1494 0.929 . S
C1463 C1464 1.358 . S
C1463 C1465 1.356 . S
C1463 H1495 0.930 . S
C1464 N1461 1.279 . S
C1464 C1463 1.358 . S
C1464 H1467 0.930 . S
C1465 C1462 1.348 . S
C1465 C1463 1.356 . S
H1466 C1460 0.930 . S
H1467 C1464 0.930 . S
O1468 Li1408 1.956 . S
O1468 Li1409 1.970 . S
O1468 Li1410 1.961 . S
O1468 C1412 1.325 . S
O1469 Li1408 1.970 . S
O1469 Li1409 1.956 . S
O1469 Li1411 1.961 . S
O1469 C1418 1.325 . S
O1470 Li1408 1.961 . S
O1470 Li1410 1.956 . S
O1470 Li1411 1.970 . S
O1470 C1440 1.325 . S
O1471 Li1409 1.961 . S
O1471 Li1410 1.970 . S
O1471 Li1411 1.956 . S
O1471 C1446 1.325 . S
H1472 C1414 0.929 . S
H1473 C1415 0.930 . S
H1474 C1416 0.930 . S
H1475 C1417 0.930 . S
H1476 C1419 0.930 . S
H1477 C1421 0.929 . S
H1478 C1422 0.930 . S
H1479 C1423 0.930 . S
H1480 C1426 0.930 . S
H1481 C1429 0.929 . S
H1482 C1434 0.929 . S
H1483 C1435 0.930 . S
H1484 C1442 0.929 . S
H1485 C1443 0.930 . S
H1486 C1444 0.930 . S
H1487 C1445 0.930 . S
H1488 C1447 0.929 . S
H1489 C1448 0.930 . S
H1490 C1449 0.930 . S
H1491 C1450 0.930 . S
H1492 C1454 0.929 . S
H1493 C1456 0.930 . S
H1494 C1462 0.929 . S
H1495 C1463 0.930 . S
Li1496 N1513 1.990 . S
Li1496 O1556 1.956 . S
Li1496 O1557 1.970 . S
Li1496 O1558 1.961 . S
Li1497 N1521 1.990 . S
Li1497 O1556 1.970 . S
Li1497 O1557 1.956 . S
Li1497 O1559 1.961 . S
Li1498 N1543 1.990 . S
Li1498 O1556 1.961 . S
Li1498 O1558 1.956 . S
Li1498 O1559 1.970 . S
Li1499 N1549 1.990 . S
Li1499 O1557 1.961 . S
Li1499 O1558 1.970 . S
Li1499 O1559 1.956 . S
C1500 C1502 1.348 . S
C1500 C1503 1.356 . S
C1500 O1556 1.325 . S
N1501 C1504 1.314 . S
N1501 C1505 1.279 . S
C1502 C1500 1.348 . S
C1502 C1504 1.353 . S
C1502 H1560 0.929 . S
C1503 C1500 1.356 . S
C1503 C1505 1.358 . S
C1503 H1561 0.930 . S
C1504 N1501 1.314 . S
C1504 C1502 1.353 . S
C1504 H1562 0.930 . S
C1505 N1501 1.279 . S
C1505 C1503 1.358 . S
C1505 H1563 0.930 . S
C1506 C1509 1.348 . S
C1506 C1510 1.356 . S
C1506 O1557 1.325 . S
C1507 N1508 1.279 . S
C1507 C1510 1.358 . S
C1507 H1564 0.930 . S
N1508 C1507 1.279 . S
N1508 C1511 1.314 . S
C1509 C1506 1.348 . S
C1509 C1511 1.353 . S
C1509 H1565 0.929 . S
C1510 C1506 1.356 . S
C1510 C1507 1.358 . S
C1510 H1566 0.930 . S
C1511 N1508 1.314 . S
C1511 C1509 1.353 . S
C1511 H1567 0.930 . S
C1512 N1513 1.314 . S
C1512 C1517 1.353 . S
C1512 H1518 0.930 . S
N1513 Li1496 1.990 . S
N1513 C1512 1.314 . S
N1513 C1515 1.279 . S
C1514 C1515 1.358 . S
C1514 C1516 1.356 . S
C1514 H1568 0.930 . S
C1515 N1513 1.279 . S
C1515 C1514 1.358 . S
C1515 H1519 0.930 . S
C1516 C1514 1.356 . S
C1516 C1517 1.348 . S
C1517 C1512 1.353 . S
C1517 C1516 1.348 . S
C1517 H1569 0.929 . S
H1518 C1512 0.930 . S
H1519 C1515 0.930 . S
C1520 N1521 1.314 . S
C1520 C1522 1.353 . S
C1520 H1526 0.930 . S
N1521 Li1497 1.990 . S
N1521 C1520 1.314 . S
N1521 C1524 1.279 . S
C1522 C1520 1.353 . S
C1522 C1525 1.348 . S
C1522 H1570 0.929 . S
C1523 C1524 1.358 . S
C1523 C1525 1.356 . S
C1523 H1571 0.930 . S
C1524 N1521 1.279 . S
C1524 C1523 1.358 . S
C1524 H1527 0.930 . S
C1525 C1522 1.348 . S
C1525 C1523 1.356 . S
H1526 C1520 0.930 . S
H1527 C1524 0.930 . S
C1528 C1530 1.348 . S
C1528 C1531 1.356 . S
C1528 O1558 1.325 . S
N1529 C1532 1.314 . S
N1529 C1533 1.279 . S
C1530 C1528 1.348 . S
C1530 C1532 1.353 . S
C1530 H1572 0.929 . S
C1531 C1528 1.356 . S
C1531 C1533 1.358 . S
C1531 H1573 0.930 . S
C1532 N1529 1.314 . S
C1532 C1530 1.353 . S
C1532 H1574 0.930 . S
C1533 N1529 1.279 . S
C1533 C1531 1.358 . S
C1533 H1575 0.930 . S
C1534 C1535 1.348 . S
C1534 C1536 1.356 . S
C1534 O1559 1.325 . S
C1535 C1534 1.348 . S
C1535 C1537 1.353 . S
C1535 H1576 0.929 . S
C1536 C1534 1.356 . S
C1536 C1538 1.358 . S
C1536 H1577 0.930 . S
C1537 C1535 1.353 . S
C1537 N1539 1.314 . S
C1537 H1578 0.930 . S
C1538 C1536 1.358 . S
C1538 N1539 1.279 . S
C1538 H1579 0.930 . S
N1539 C1537 1.314 . S
N1539 C1538 1.279 . S
C1540 C1542 1.353 . S
C1540 N1543 1.314 . S
C1540 H1546 0.930 . S
C1541 N1543 1.279 . S
C1541 C1544 1.358 . S
C1541 H1547 0.930 . S
C1542 C1540 1.353 . S
C1542 C1545 1.348 . S
C1542 H1580 0.929 . S
N1543 Li1498 1.990 . S
N1543 C1540 1.314 . S
N1543 C1541 1.279 . S
C1544 C1541 1.358 . S
C1544 C1545 1.356 . S
C1544 H1581 0.930 . S
C1545 C1542 1.348 . S
C1545 C1544 1.356 . S
H1546 C1540 0.930 . S
H1547 C1541 0.930 . S
C1548 N1549 1.314 . S
C1548 C1550 1.353 . S
C1548 H1554 0.930 . S
N1549 Li1499 1.990 . S
N1549 C1548 1.314 . S
N1549 C1552 1.279 . S
C1550 C1548 1.353 . S
C1550 C1553 1.348 . S
C1550 H1582 0.929 . S
C1551 C1552 1.358 . S
C1551 C1553 1.356 . S
C1551 H1583 0.930 . S
C1552 N1549 1.279 . S
C1552 C1551 1.358 . S
C1552 H1555 0.930 . S
C1553 C1550 1.348 . S
C1553 C1551 1.356 . S
H1554 C1548 0.930 . S
H1555 C1552 0.930 . S
O1556 Li1496 1.956 . S
O1556 Li1497 1.970 . S
O1556 Li1498 1.961 . S
O1556 C1500 1.325 . S
O1557 Li1496 1.970 . S
O1557 Li1497 1.956 . S
O1557 Li1499 1.961 . S
O1557 C1506 1.325 . S
O1558 Li1496 1.961 . S
O1558 Li1498 1.956 . S
O1558 Li1499 1.970 . S
O1558 C1528 1.325 . S
O1559 Li1497 1.961 . S
O1559 Li1498 1.970 . S
O1559 Li1499 1.956 . S
O1559 C1534 1.325 . S
H1560 C1502 0.929 . S
H1561 C1503 0.930 . S
H1562 C1504 0.930 . S
H1563 C1505 0.930 . S
H1564 C1507 0.930 . S
H1565 C1509 0.929 . S
H1566 C1510 0.930 . S
H1567 C1511 0.930 . S
H1568 C1514 0.930 . S
H1569 C1517 0.929 . S
H1570 C1522 0.929 . S
H1571 C1523 0.930 . S
H1572 C1530 0.929 . S
H1573 C1531 0.930 . S
H1574 C1532 0.930 . S
H1575 C1533 0.930 . S
H1576 C1535 0.929 . S
H1577 C1536 0.930 . S
H1578 C1537 0.930 . S
H1579 C1538 0.930 . S
H1580 C1542 0.929 . S
H1581 C1544 0.930 . S
H1582 C1550 0.929 . S
H1583 C1551 0.930 . S
Li1584 N1601 1.990 . S
Li1584 O1644 1.956 . S
Li1584 O1645 1.970 . S
Li1584 O1646 1.961 . S
Li1585 N1609 1.990 . S
Li1585 O1644 1.970 . S
Li1585 O1645 1.956 . S
Li1585 O1647 1.961 . S
Li1586 N1631 1.990 . S
Li1586 O1644 1.961 . S
Li1586 O1646 1.956 . S
Li1586 O1647 1.970 . S
Li1587 N1637 1.990 . S
Li1587 O1645 1.961 . S
Li1587 O1646 1.970 . S
Li1587 O1647 1.956 . S
C1588 C1590 1.348 . S
C1588 C1591 1.356 . S
C1588 O1644 1.325 . S
N1589 C1592 1.314 . S
N1589 C1593 1.279 . S
C1590 C1588 1.348 . S
C1590 C1592 1.353 . S
C1590 H1648 0.929 . S
C1591 C1588 1.356 . S
C1591 C1593 1.358 . S
C1591 H1649 0.930 . S
C1592 N1589 1.314 . S
C1592 C1590 1.353 . S
C1592 H1650 0.930 . S
C1593 N1589 1.279 . S
C1593 C1591 1.358 . S
C1593 H1651 0.930 . S
C1594 C1597 1.348 . S
C1594 C1598 1.356 . S
C1594 O1645 1.325 . S
C1595 N1596 1.279 . S
C1595 C1598 1.358 . S
C1595 H1652 0.930 . S
N1596 C1595 1.279 . S
N1596 C1599 1.314 . S
C1597 C1594 1.348 . S
C1597 C1599 1.353 . S
C1597 H1653 0.929 . S
C1598 C1594 1.356 . S
C1598 C1595 1.358 . S
C1598 H1654 0.930 . S
C1599 N1596 1.314 . S
C1599 C1597 1.353 . S
C1599 H1655 0.930 . S
C1600 N1601 1.314 . S
C1600 C1605 1.353 . S
C1600 H1606 0.930 . S
N1601 Li1584 1.990 . S
N1601 C1600 1.314 . S
N1601 C1603 1.279 . S
C1602 C1603 1.358 . S
C1602 C1604 1.356 . S
C1602 H1656 0.930 . S
C1603 N1601 1.279 . S
C1603 C1602 1.358 . S
C1603 H1607 0.930 . S
C1604 C1602 1.356 . S
C1604 C1605 1.348 . S
C1605 C1600 1.353 . S
C1605 C1604 1.348 . S
C1605 H1657 0.929 . S
H1606 C1600 0.930 . S
H1607 C1603 0.930 . S
C1608 N1609 1.314 . S
C1608 C1610 1.353 . S
C1608 H1614 0.930 . S
N1609 Li1585 1.990 . S
N1609 C1608 1.314 . S
N1609 C1612 1.279 . S
C1610 C1608 1.353 . S
C1610 C1613 1.348 . S
C1610 H1658 0.929 . S
C1611 C1612 1.358 . S
C1611 C1613 1.356 . S
C1611 H1659 0.930 . S
C1612 N1609 1.279 . S
C1612 C1611 1.358 . S
C1612 H1615 0.930 . S
C1613 C1610 1.348 . S
C1613 C1611 1.356 . S
H1614 C1608 0.930 . S
H1615 C1612 0.930 . S
C1616 C1618 1.348 . S
C1616 C1619 1.356 . S
C1616 O1646 1.325 . S
N1617 C1620 1.314 . S
N1617 C1621 1.279 . S
C1618 C1616 1.348 . S
C1618 C1620 1.353 . S
C1618 H1660 0.929 . S
C1619 C1616 1.356 . S
C1619 C1621 1.358 . S
C1619 H1661 0.930 . S
C1620 N1617 1.314 . S
C1620 C1618 1.353 . S
C1620 H1662 0.930 . S
C1621 N1617 1.279 . S
C1621 C1619 1.358 . S
C1621 H1663 0.930 . S
C1622 C1623 1.348 . S
C1622 C1624 1.356 . S
C1622 O1647 1.325 . S
C1623 C1622 1.348 . S
C1623 C1625 1.353 . S
C1623 H1664 0.929 . S
C1624 C1622 1.356 . S
C1624 C1626 1.358 . S
C1624 H1665 0.930 . S
C1625 C1623 1.353 . S
C1625 N1627 1.314 . S
C1625 H1666 0.930 1_554 S
C1626 C1624 1.358 . S
C1626 N1627 1.279 . S
C1626 H1667 0.930 . S
N1627 C1625 1.314 . S
N1627 C1626 1.279 . S
C1628 C1630 1.353 . S
C1628 N1631 1.314 . S
C1628 H1634 0.930 . S
C1629 N1631 1.279 . S
C1629 C1632 1.358 . S
C1629 H1635 0.930 . S
C1630 C1628 1.353 . S
C1630 C1633 1.348 . S
C1630 H1668 0.929 . S
N1631 Li1586 1.990 . S
N1631 C1628 1.314 . S
N1631 C1629 1.279 . S
C1632 C1629 1.358 . S
C1632 C1633 1.356 . S
C1632 H1669 0.930 . S
C1633 C1630 1.348 . S
C1633 C1632 1.356 . S
H1634 C1628 0.930 . S
H1635 C1629 0.930 . S
C1636 N1637 1.314 . S
C1636 C1638 1.353 . S
C1636 H1642 0.930 . S
N1637 Li1587 1.990 . S
N1637 C1636 1.314 . S
N1637 C1640 1.279 . S
C1638 C1636 1.353 . S
C1638 C1641 1.348 . S
C1638 H1670 0.929 . S
C1639 C1640 1.358 . S
C1639 C1641 1.356 . S
C1639 H1671 0.930 . S
C1640 N1637 1.279 . S
C1640 C1639 1.358 . S
C1640 H1643 0.930 . S
C1641 C1638 1.348 . S
C1641 C1639 1.356 . S
H1642 C1636 0.930 . S
H1643 C1640 0.930 . S
O1644 Li1584 1.956 . S
O1644 Li1585 1.970 . S
O1644 Li1586 1.961 . S
O1644 C1588 1.325 . S
O1645 Li1584 1.970 . S
O1645 Li1585 1.956 . S
O1645 Li1587 1.961 . S
O1645 C1594 1.325 . S
O1646 Li1584 1.961 . S
O1646 Li1586 1.956 . S
O1646 Li1587 1.970 . S
O1646 C1616 1.325 . S
O1647 Li1585 1.961 . S
O1647 Li1586 1.970 . S
O1647 Li1587 1.956 . S
O1647 C1622 1.325 . S
H1648 C1590 0.929 . S
H1649 C1591 0.930 . S
H1650 C1592 0.930 . S
H1651 C1593 0.930 . S
H1652 C1595 0.930 . S
H1653 C1597 0.929 . S
H1654 C1598 0.930 . S
H1655 C1599 0.930 . S
H1656 C1602 0.930 . S
H1657 C1605 0.929 . S
H1658 C1610 0.929 . S
H1659 C1611 0.930 . S
H1660 C1618 0.929 . S
H1661 C1619 0.930 . S
H1662 C1620 0.930 . S
H1663 C1621 0.930 . S
H1664 C1623 0.929 . S
H1665 C1624 0.930 . S
H1666 C1625 0.930 1_556 S
H1667 C1626 0.930 . S
H1668 C1630 0.929 . S
H1669 C1632 0.930 . S
H1670 C1638 0.929 . S
H1671 C1639 0.930 . S
Li1672 N1689 1.990 . S
Li1672 O1732 1.956 . S
Li1672 O1733 1.970 . S
Li1672 O1734 1.961 . S
Li1673 N1697 1.990 . S
Li1673 O1732 1.970 . S
Li1673 O1733 1.956 . S
Li1673 O1735 1.961 . S
Li1674 N1719 1.990 . S
Li1674 O1732 1.961 . S
Li1674 O1734 1.956 . S
Li1674 O1735 1.970 . S
Li1675 N1725 1.990 . S
Li1675 O1733 1.961 . S
Li1675 O1734 1.970 . S
Li1675 O1735 1.956 . S
C1676 C1678 1.348 . S
C1676 C1679 1.356 . S
C1676 O1732 1.325 . S
N1677 C1680 1.314 . S
N1677 C1681 1.279 . S
C1678 C1676 1.348 . S
C1678 C1680 1.353 . S
C1678 H1736 0.929 . S
C1679 C1676 1.356 . S
C1679 C1681 1.358 . S
C1679 H1737 0.930 . S
C1680 N1677 1.314 . S
C1680 C1678 1.353 . S
C1680 H1738 0.930 . S
C1681 N1677 1.279 . S
C1681 C1679 1.358 . S
C1681 H1739 0.930 . S
C1682 C1685 1.348 . S
C1682 C1686 1.356 . S
C1682 O1733 1.325 . S
C1683 N1684 1.279 . S
C1683 C1686 1.358 . S
C1683 H1740 0.930 . S
N1684 C1683 1.279 . S
N1684 C1687 1.314 . S
C1685 C1682 1.348 . S
C1685 C1687 1.353 . S
C1685 H1741 0.929 . S
C1686 C1682 1.356 . S
C1686 C1683 1.358 . S
C1686 H1742 0.930 . S
C1687 N1684 1.314 . S
C1687 C1685 1.353 . S
C1687 H1743 0.930 . S
C1688 N1689 1.314 . S
C1688 C1693 1.353 . S
C1688 H1694 0.930 . S
N1689 Li1672 1.990 . S
N1689 C1688 1.314 . S
N1689 C1691 1.279 . S
C1690 C1691 1.358 . S
C1690 C1692 1.356 . S
C1690 H1744 0.930 . S
C1691 N1689 1.279 . S
C1691 C1690 1.358 . S
C1691 H1695 0.930 . S
C1692 C1690 1.356 . S
C1692 C1693 1.348 . S
C1693 C1688 1.353 . S
C1693 C1692 1.348 . S
C1693 H1745 0.929 . S
H1694 C1688 0.930 . S
H1695 C1691 0.930 . S
C1696 N1697 1.314 . S
C1696 C1698 1.353 . S
C1696 H1702 0.930 . S
N1697 Li1673 1.990 . S
N1697 C1696 1.314 . S
N1697 C1700 1.279 . S
C1698 C1696 1.353 . S
C1698 C1701 1.348 . S
C1698 H1746 0.929 . S
C1699 C1700 1.358 . S
C1699 C1701 1.356 . S
C1699 H1747 0.930 . S
C1700 N1697 1.279 . S
C1700 C1699 1.358 . S
C1700 H1703 0.930 . S
C1701 C1698 1.348 . S
C1701 C1699 1.356 . S
H1702 C1696 0.930 . S
H1703 C1700 0.930 . S
C1704 C1706 1.348 . S
C1704 C1707 1.356 . S
C1704 O1734 1.325 . S
N1705 C1708 1.314 . S
N1705 C1709 1.279 . S
C1706 C1704 1.348 . S
C1706 C1708 1.353 . S
C1706 H1748 0.929 . S
C1707 C1704 1.356 . S
C1707 C1709 1.358 . S
C1707 H1749 0.930 . S
C1708 N1705 1.314 . S
C1708 C1706 1.353 . S
C1708 H1750 0.930 . S
C1709 N1705 1.279 . S
C1709 C1707 1.358 . S
C1709 H1751 0.930 . S
C1710 C1711 1.348 . S
C1710 C1712 1.356 . S
C1710 O1735 1.325 . S
C1711 C1710 1.348 . S
C1711 C1713 1.353 . S
C1711 H1752 0.929 . S
C1712 C1710 1.356 . S
C1712 C1714 1.358 . S
C1712 H1753 0.930 . S
C1713 C1711 1.353 . S
C1713 N1715 1.314 . S
C1713 H1754 0.930 . S
C1714 C1712 1.358 . S
C1714 N1715 1.279 . S
C1714 H1755 0.930 . S
N1715 C1713 1.314 . S
N1715 C1714 1.279 . S
C1716 C1718 1.353 . S
C1716 N1719 1.314 . S
C1716 H1722 0.930 . S
C1717 N1719 1.279 . S
C1717 C1720 1.358 . S
C1717 H1723 0.930 . S
C1718 C1716 1.353 . S
C1718 C1721 1.348 . S
C1718 H1756 0.929 . S
N1719 Li1674 1.990 . S
N1719 C1716 1.314 . S
N1719 C1717 1.279 . S
C1720 C1717 1.358 . S
C1720 C1721 1.356 . S
C1720 H1757 0.930 . S
C1721 C1718 1.348 . S
C1721 C1720 1.356 . S
H1722 C1716 0.930 . S
H1723 C1717 0.930 . S
C1724 N1725 1.314 . S
C1724 C1726 1.353 . S
C1724 H1730 0.930 . S
N1725 Li1675 1.990 . S
N1725 C1724 1.314 . S
N1725 C1728 1.279 . S
C1726 C1724 1.353 . S
C1726 C1729 1.348 . S
C1726 H1758 0.929 . S
C1727 C1728 1.358 . S
C1727 C1729 1.356 . S
C1727 H1759 0.930 . S
C1728 N1725 1.279 . S
C1728 C1727 1.358 . S
C1728 H1731 0.930 . S
C1729 C1726 1.348 . S
C1729 C1727 1.356 . S
H1730 C1724 0.930 . S
H1731 C1728 0.930 . S
O1732 Li1672 1.956 . S
O1732 Li1673 1.970 . S
O1732 Li1674 1.961 . S
O1732 C1676 1.325 . S
O1733 Li1672 1.970 . S
O1733 Li1673 1.956 . S
O1733 Li1675 1.961 . S
O1733 C1682 1.325 . S
O1734 Li1672 1.961 . S
O1734 Li1674 1.956 . S
O1734 Li1675 1.970 . S
O1734 C1704 1.325 . S
O1735 Li1673 1.961 . S
O1735 Li1674 1.970 . S
O1735 Li1675 1.956 . S
O1735 C1710 1.325 . S
H1736 C1678 0.929 . S
H1737 C1679 0.930 . S
H1738 C1680 0.930 . S
H1739 C1681 0.930 . S
H1740 C1683 0.930 . S
H1741 C1685 0.929 . S
H1742 C1686 0.930 . S
H1743 C1687 0.930 . S
H1744 C1690 0.930 . S
H1745 C1693 0.929 . S
H1746 C1698 0.929 . S
H1747 C1699 0.930 . S
H1748 C1706 0.929 . S
H1749 C1707 0.930 . S
H1750 C1708 0.930 . S
H1751 C1709 0.930 . S
H1752 C1711 0.929 . S
H1753 C1712 0.930 . S
H1754 C1713 0.930 . S
H1755 C1714 0.930 . S
H1756 C1718 0.929 . S
H1757 C1720 0.930 . S
H1758 C1726 0.929 . S
H1759 C1727 0.930 . S
Li1760 N1777 1.990 . S
Li1760 O1820 1.956 . S
Li1760 O1821 1.970 . S
Li1760 O1822 1.961 . S
Li1761 N1785 1.990 . S
Li1761 O1820 1.970 . S
Li1761 O1821 1.956 . S
Li1761 O1823 1.961 . S
Li1762 N1807 1.990 . S
Li1762 O1820 1.961 . S
Li1762 O1822 1.956 . S
Li1762 O1823 1.970 . S
Li1763 N1813 1.990 . S
Li1763 O1821 1.961 . S
Li1763 O1822 1.970 . S
Li1763 O1823 1.956 . S
C1764 C1766 1.348 . S
C1764 C1767 1.356 . S
C1764 O1820 1.325 . S
N1765 C1768 1.314 . S
N1765 C1769 1.279 . S
C1766 C1764 1.348 . S
C1766 C1768 1.353 . S
C1766 H1824 0.929 . S
C1767 C1764 1.356 . S
C1767 C1769 1.358 . S
C1767 H1825 0.930 . S
C1768 N1765 1.314 . S
C1768 C1766 1.353 . S
C1768 H1826 0.930 . S
C1769 N1765 1.279 . S
C1769 C1767 1.358 . S
C1769 H1827 0.930 . S
C1770 C1773 1.348 . S
C1770 C1774 1.356 . S
C1770 O1821 1.325 . S
C1771 N1772 1.279 . S
C1771 C1774 1.358 . S
C1771 H1828 0.930 . S
N1772 C1771 1.279 . S
N1772 C1775 1.314 . S
C1773 C1770 1.348 . S
C1773 C1775 1.353 . S
C1773 H1829 0.929 . S
C1774 C1770 1.356 . S
C1774 C1771 1.358 . S
C1774 H1830 0.930 . S
C1775 N1772 1.314 . S
C1775 C1773 1.353 . S
C1775 H1831 0.930 . S
C1776 N1777 1.314 . S
C1776 C1781 1.353 . S
C1776 H1782 0.930 . S
N1777 Li1760 1.990 . S
N1777 C1776 1.314 . S
N1777 C1779 1.279 . S
C1778 C1779 1.358 . S
C1778 C1780 1.356 . S
C1778 H1832 0.930 . S
C1779 N1777 1.279 . S
C1779 C1778 1.358 . S
C1779 H1783 0.930 . S
C1780 C1778 1.356 . S
C1780 C1781 1.348 . S
C1781 C1776 1.353 . S
C1781 C1780 1.348 . S
C1781 H1833 0.929 . S
H1782 C1776 0.930 . S
H1783 C1779 0.930 . S
C1784 N1785 1.314 . S
C1784 C1786 1.353 . S
C1784 H1790 0.930 . S
N1785 Li1761 1.990 . S
N1785 C1784 1.314 . S
N1785 C1788 1.279 . S
C1786 C1784 1.353 . S
C1786 C1789 1.348 . S
C1786 H1834 0.929 . S
C1787 C1788 1.358 . S
C1787 C1789 1.356 . S
C1787 H1835 0.930 . S
C1788 N1785 1.279 . S
C1788 C1787 1.358 . S
C1788 H1791 0.930 . S
C1789 C1786 1.348 . S
C1789 C1787 1.356 . S
H1790 C1784 0.930 . S
H1791 C1788 0.930 . S
C1792 C1794 1.348 . S
C1792 C1795 1.356 . S
C1792 O1822 1.325 . S
N1793 C1796 1.314 . S
N1793 C1797 1.279 . S
C1794 C1792 1.348 . S
C1794 C1796 1.353 . S
C1794 H1836 0.929 . S
C1795 C1792 1.356 . S
C1795 C1797 1.358 . S
C1795 H1837 0.930 . S
C1796 N1793 1.314 . S
C1796 C1794 1.353 . S
C1796 H1838 0.930 . S
C1797 N1793 1.279 . S
C1797 C1795 1.358 . S
C1797 H1839 0.930 . S
C1798 C1799 1.348 . S
C1798 C1800 1.356 . S
C1798 O1823 1.325 . S
C1799 C1798 1.348 . S
C1799 C1801 1.353 . S
C1799 H1840 0.929 . S
C1800 C1798 1.356 . S
C1800 C1802 1.358 . S
C1800 H1841 0.930 . S
C1801 C1799 1.353 . S
C1801 N1803 1.314 . S
C1801 H1842 0.930 . S
C1802 C1800 1.358 . S
C1802 N1803 1.279 . S
C1802 H1843 0.930 . S
N1803 C1801 1.314 . S
N1803 C1802 1.279 . S
C1804 C1806 1.353 . S
C1804 N1807 1.314 . S
C1804 H1810 0.930 . S
C1805 N1807 1.279 . S
C1805 C1808 1.358 . S
C1805 H1811 0.930 . S
C1806 C1804 1.353 . S
C1806 C1809 1.348 . S
C1806 H1844 0.929 . S
N1807 Li1762 1.990 . S
N1807 C1804 1.314 . S
N1807 C1805 1.279 . S
C1808 C1805 1.358 . S
C1808 C1809 1.356 . S
C1808 H1845 0.930 . S
C1809 C1806 1.348 . S
C1809 C1808 1.356 . S
H1810 C1804 0.930 . S
H1811 C1805 0.930 . S
C1812 N1813 1.314 . S
C1812 C1814 1.353 . S
C1812 H1818 0.930 . S
N1813 Li1763 1.990 . S
N1813 C1812 1.314 . S
N1813 C1816 1.279 . S
C1814 C1812 1.353 . S
C1814 C1817 1.348 . S
C1814 H1846 0.929 . S
C1815 C1816 1.358 . S
C1815 C1817 1.356 . S
C1815 H1847 0.930 . S
C1816 N1813 1.279 . S
C1816 C1815 1.358 . S
C1816 H1819 0.930 . S
C1817 C1814 1.348 . S
C1817 C1815 1.356 . S
H1818 C1812 0.930 . S
H1819 C1816 0.930 . S
O1820 Li1760 1.956 . S
O1820 Li1761 1.970 . S
O1820 Li1762 1.961 . S
O1820 C1764 1.325 . S
O1821 Li1760 1.970 . S
O1821 Li1761 1.956 . S
O1821 Li1763 1.961 . S
O1821 C1770 1.325 . S
O1822 Li1760 1.961 . S
O1822 Li1762 1.956 . S
O1822 Li1763 1.970 . S
O1822 C1792 1.325 . S
O1823 Li1761 1.961 . S
O1823 Li1762 1.970 . S
O1823 Li1763 1.956 . S
O1823 C1798 1.325 . S
H1824 C1766 0.929 . S
H1825 C1767 0.930 . S
H1826 C1768 0.930 . S
H1827 C1769 0.930 . S
H1828 C1771 0.930 . S
H1829 C1773 0.929 . S
H1830 C1774 0.930 . S
H1831 C1775 0.930 . S
H1832 C1778 0.930 . S
H1833 C1781 0.929 . S
H1834 C1786 0.929 . S
H1835 C1787 0.930 . S
H1836 C1794 0.929 . S
H1837 C1795 0.930 . S
H1838 C1796 0.930 . S
H1839 C1797 0.930 . S
H1840 C1799 0.929 . S
H1841 C1800 0.930 . S
H1842 C1801 0.930 . S
H1843 C1802 0.930 . S
H1844 C1806 0.929 . S
H1845 C1808 0.930 . S
H1846 C1814 0.929 . S
H1847 C1815 0.930 . S
Li1848 N1865 1.990 . S
Li1848 O1908 1.956 . S
Li1848 O1909 1.970 . S
Li1848 O1910 1.961 . S
Li1849 N1873 1.990 . S
Li1849 O1908 1.970 . S
Li1849 O1909 1.956 . S
Li1849 O1911 1.961 . S
Li1850 N1895 1.990 . S
Li1850 O1908 1.961 . S
Li1850 O1910 1.956 . S
Li1850 O1911 1.970 . S
Li1851 N1901 1.990 . S
Li1851 O1909 1.961 . S
Li1851 O1910 1.970 . S
Li1851 O1911 1.956 . S
C1852 C1854 1.348 . S
C1852 C1855 1.356 . S
C1852 O1908 1.325 . S
N1853 C1856 1.314 . S
N1853 C1857 1.279 . S
C1854 C1852 1.348 . S
C1854 C1856 1.353 . S
C1854 H1912 0.929 . S
C1855 C1852 1.356 . S
C1855 C1857 1.358 . S
C1855 H1913 0.930 . S
C1856 N1853 1.314 . S
C1856 C1854 1.353 . S
C1856 H1914 0.930 . S
C1857 N1853 1.279 . S
C1857 C1855 1.358 . S
C1857 H1915 0.930 . S
C1858 C1861 1.348 . S
C1858 C1862 1.356 . S
C1858 O1909 1.325 . S
C1859 N1860 1.279 . S
C1859 C1862 1.358 . S
C1859 H1916 0.930 . S
N1860 C1859 1.279 . S
N1860 C1863 1.314 . S
C1861 C1858 1.348 . S
C1861 C1863 1.353 . S
C1861 H1917 0.929 . S
C1862 C1858 1.356 . S
C1862 C1859 1.358 . S
C1862 H1918 0.930 . S
C1863 N1860 1.314 . S
C1863 C1861 1.353 . S
C1863 H1919 0.930 . S
C1864 N1865 1.314 . S
C1864 C1869 1.353 . S
C1864 H1870 0.930 . S
N1865 Li1848 1.990 . S
N1865 C1864 1.314 . S
N1865 C1867 1.279 . S
C1866 C1867 1.358 . S
C1866 C1868 1.356 . S
C1866 H1920 0.930 . S
C1867 N1865 1.279 . S
C1867 C1866 1.358 . S
C1867 H1871 0.930 . S
C1868 C1866 1.356 . S
C1868 C1869 1.348 . S
C1869 C1864 1.353 . S
C1869 C1868 1.348 . S
C1869 H1921 0.929 . S
H1870 C1864 0.930 . S
H1871 C1867 0.930 . S
C1872 N1873 1.314 . S
C1872 C1874 1.353 . S
C1872 H1878 0.930 . S
N1873 Li1849 1.990 . S
N1873 C1872 1.314 . S
N1873 C1876 1.279 . S
C1874 C1872 1.353 . S
C1874 C1877 1.348 . S
C1874 H1922 0.929 . S
C1875 C1876 1.358 . S
C1875 C1877 1.356 . S
C1875 H1923 0.930 . S
C1876 N1873 1.279 . S
C1876 C1875 1.358 . S
C1876 H1879 0.930 . S
C1877 C1874 1.348 . S
C1877 C1875 1.356 . S
H1878 C1872 0.930 . S
H1879 C1876 0.930 . S
C1880 C1882 1.348 . S
C1880 C1883 1.356 . S
C1880 O1910 1.325 . S
N1881 C1884 1.314 . S
N1881 C1885 1.279 . S
C1882 C1880 1.348 . S
C1882 C1884 1.353 . S
C1882 H1924 0.929 . S
C1883 C1880 1.356 . S
C1883 C1885 1.358 . S
C1883 H1925 0.930 . S
C1884 N1881 1.314 . S
C1884 C1882 1.353 . S
C1884 H1926 0.930 . S
C1885 N1881 1.279 . S
C1885 C1883 1.358 . S
C1885 H1927 0.930 . S
C1886 C1887 1.348 . S
C1886 C1888 1.356 . S
C1886 O1911 1.325 . S
C1887 C1886 1.348 . S
C1887 C1889 1.353 . S
C1887 H1928 0.929 . S
C1888 C1886 1.356 . S
C1888 C1890 1.358 . S
C1888 H1929 0.930 . S
C1889 C1887 1.353 . S
C1889 N1891 1.314 . S
C1889 H1930 0.930 . S
C1890 C1888 1.358 . S
C1890 N1891 1.279 . S
C1890 H1931 0.930 . S
N1891 C1889 1.314 . S
N1891 C1890 1.279 . S
C1892 C1894 1.353 . S
C1892 N1895 1.314 . S
C1892 H1898 0.930 . S
C1893 N1895 1.279 . S
C1893 C1896 1.358 . S
C1893 H1899 0.930 . S
C1894 C1892 1.353 . S
C1894 C1897 1.348 . S
C1894 H1932 0.929 . S
N1895 Li1850 1.990 . S
N1895 C1892 1.314 . S
N1895 C1893 1.279 . S
C1896 C1893 1.358 . S
C1896 C1897 1.356 . S
C1896 H1933 0.930 . S
C1897 C1894 1.348 . S
C1897 C1896 1.356 . S
H1898 C1892 0.930 . S
H1899 C1893 0.930 . S
C1900 N1901 1.314 . S
C1900 C1902 1.353 . S
C1900 H1906 0.930 . S
N1901 Li1851 1.990 . S
N1901 C1900 1.314 . S
N1901 C1904 1.279 . S
C1902 C1900 1.353 . S
C1902 C1905 1.348 . S
C1902 H1934 0.929 . S
C1903 C1904 1.358 . S
C1903 C1905 1.356 . S
C1903 H1935 0.930 . S
C1904 N1901 1.279 . S
C1904 C1903 1.358 . S
C1904 H1907 0.930 . S
C1905 C1902 1.348 . S
C1905 C1903 1.356 . S
H1906 C1900 0.930 . S
H1907 C1904 0.930 . S
O1908 Li1848 1.956 . S
O1908 Li1849 1.970 . S
O1908 Li1850 1.961 . S
O1908 C1852 1.325 . S
O1909 Li1848 1.970 . S
O1909 Li1849 1.956 . S
O1909 Li1851 1.961 . S
O1909 C1858 1.325 . S
O1910 Li1848 1.961 . S
O1910 Li1850 1.956 . S
O1910 Li1851 1.970 . S
O1910 C1880 1.325 . S
O1911 Li1849 1.961 . S
O1911 Li1850 1.970 . S
O1911 Li1851 1.956 . S
O1911 C1886 1.325 . S
H1912 C1854 0.929 . S
H1913 C1855 0.930 . S
H1914 C1856 0.930 . S
H1915 C1857 0.930 . S
H1916 C1859 0.930 . S
H1917 C1861 0.929 . S
H1918 C1862 0.930 . S
H1919 C1863 0.930 . S
H1920 C1866 0.930 . S
H1921 C1869 0.929 . S
H1922 C1874 0.929 . S
H1923 C1875 0.930 . S
H1924 C1882 0.929 . S
H1925 C1883 0.930 . S
H1926 C1884 0.930 . S
H1927 C1885 0.930 . S
H1928 C1887 0.929 . S
H1929 C1888 0.930 . S
H1930 C1889 0.930 . S
H1931 C1890 0.930 . S
H1932 C1894 0.929 . S
H1933 C1896 0.930 . S
H1934 C1902 0.929 . S
H1935 C1903 0.930 . S
Li1936 N1953 1.990 . S
Li1936 O1996 1.956 . S
Li1936 O1997 1.970 . S
Li1936 O1998 1.961 . S
Li1937 N1961 1.990 . S
Li1937 O1996 1.970 . S
Li1937 O1997 1.956 . S
Li1937 O1999 1.961 . S
Li1938 N1983 1.990 . S
Li1938 O1996 1.961 . S
Li1938 O1998 1.956 . S
Li1938 O1999 1.970 . S
Li1939 N1989 1.990 . S
Li1939 O1997 1.961 . S
Li1939 O1998 1.970 . S
Li1939 O1999 1.956 . S
C1940 C1942 1.348 . S
C1940 C1943 1.356 . S
C1940 O1996 1.325 . S
N1941 C1944 1.314 . S
N1941 C1945 1.279 . S
C1942 C1940 1.348 . S
C1942 C1944 1.353 . S
C1942 H2000 0.929 . S
C1943 C1940 1.356 . S
C1943 C1945 1.358 . S
C1943 H2001 0.930 . S
C1944 N1941 1.314 . S
C1944 C1942 1.353 . S
C1944 H2002 0.930 . S
C1945 N1941 1.279 . S
C1945 C1943 1.358 . S
C1945 H2003 0.930 1_565 S
C1946 C1949 1.348 . S
C1946 C1950 1.356 . S
C1946 O1997 1.325 . S
C1947 N1948 1.279 . S
C1947 C1950 1.358 . S
C1947 H2004 0.930 . S
N1948 C1947 1.279 . S
N1948 C1951 1.314 . S
C1949 C1946 1.348 . S
C1949 C1951 1.353 . S
C1949 H2005 0.929 . S
C1950 C1946 1.356 . S
C1950 C1947 1.358 . S
C1950 H2006 0.930 . S
C1951 N1948 1.314 . S
C1951 C1949 1.353 . S
C1951 H2007 0.930 1_556 S
C1952 N1953 1.314 . S
C1952 C1957 1.353 . S
C1952 H1958 0.930 . S
N1953 Li1936 1.990 . S
N1953 C1952 1.314 . S
N1953 C1955 1.279 . S
C1954 C1955 1.386 . S
C1954 C1956 1.348 1_565 S
C1954 H2008 0.911 1_565 S
C1955 N1953 1.279 . S
C1955 C1954 1.386 . S
C1955 H1959 0.930 . S
C1956 C1954 1.348 1_545 S
C1956 C1957 1.348 1_545 S
C1957 C1952 1.353 . S
C1957 C1956 1.348 1_565 S
C1957 H2009 0.929 . S
H1958 C1952 0.930 . S
H1959 C1955 0.930 . S
C1960 N1961 1.314 . S
C1960 C1962 1.353 . S
C1960 H1966 0.930 . S
N1961 Li1937 1.990 . S
N1961 C1960 1.314 . S
N1961 C1964 1.279 . S
C1962 C1960 1.353 . S
C1962 C1965 1.348 . S
C1962 H2010 0.929 . S
C1963 C1964 1.358 . S
C1963 C1965 1.356 . S
C1963 H2011 0.930 . S
C1964 N1961 1.279 . S
C1964 C1963 1.358 . S
C1964 H1967 0.930 . S
C1965 C1962 1.348 . S
C1965 C1963 1.356 . S
H1966 C1960 0.930 . S
H1967 C1964 0.930 . S
C1968 C1970 1.348 . S
C1968 C1971 1.356 . S
C1968 O1998 1.325 . S
N1969 C1972 1.314 . S
N1969 C1973 1.280 . S
C1970 C1968 1.348 . S
C1970 C1972 1.353 . S
C1970 H2012 0.929 . S
C1971 C1968 1.356 . S
C1971 C1973 1.360 . S
C1971 H2013 0.930 . S
C1972 N1969 1.314 . S
C1972 C1970 1.353 . S
C1972 H2014 0.930 . S
C1973 N1969 1.280 . S
C1973 C1971 1.360 . S
C1973 H2015 0.928 1_565 S
C1974 C1975 1.348 . S
C1974 C1976 1.356 . S
C1974 O1999 1.325 . S
C1975 C1974 1.348 . S
C1975 C1977 1.353 . S
C1975 H2016 0.929 . S
C1976 C1974 1.356 . S
C1976 C1978 1.358 . S
C1976 H2017 0.930 . S
C1977 C1975 1.353 . S
C1977 N1979 1.314 . S
C1977 H2018 0.930 . S
C1978 C1976 1.358 . S
C1978 N1979 1.279 . S
C1978 H2019 0.930 . S
N1979 C1977 1.314 . S
N1979 C1978 1.279 . S
C1980 C1982 1.353 . S
C1980 N1983 1.314 . S
C1980 H1986 0.930 . S
C1981 N1983 1.279 . S
C1981 C1984 1.358 . S
C1981 H1987 0.930 . S
C1982 C1980 1.353 . S
C1982 C1985 1.348 . S
C1982 H2020 0.929 . S
N1983 Li1938 1.990 . S
N1983 C1980 1.314 . S
N1983 C1981 1.279 . S
C1984 C1981 1.358 . S
C1984 C1985 1.356 . S
C1984 H2021 0.930 . S
C1985 C1982 1.348 . S
C1985 C1984 1.356 . S
H1986 C1980 0.930 . S
H1987 C1981 0.930 . S
C1988 N1989 1.314 . S
C1988 C1990 1.353 . S
C1988 H1994 0.930 . S
N1989 Li1939 1.990 . S
N1989 C1988 1.314 . S
N1989 C1992 1.279 . S
C1990 C1988 1.353 . S
C1990 C1993 1.348 . S
C1990 H2022 0.929 . S
C1991 C1992 1.358 . S
C1991 C1993 1.356 . S
C1991 H2023 0.930 . S
C1992 N1989 1.279 . S
C1992 C1991 1.358 . S
C1992 H1995 0.930 . S
C1993 C1990 1.348 . S
C1993 C1991 1.356 . S
H1994 C1988 0.930 . S
H1995 C1992 0.930 . S
O1996 Li1936 1.956 . S
O1996 Li1937 1.970 . S
O1996 Li1938 1.961 . S
O1996 C1940 1.325 . S
O1997 Li1936 1.970 . S
O1997 Li1937 1.956 . S
O1997 Li1939 1.961 . S
O1997 C1946 1.325 . S
O1998 Li1936 1.961 . S
O1998 Li1938 1.956 . S
O1998 Li1939 1.970 . S
O1998 C1968 1.325 . S
O1999 Li1937 1.961 . S
O1999 Li1938 1.970 . S
O1999 Li1939 1.956 . S
O1999 C1974 1.325 . S
H2000 C1942 0.929 . S
H2001 C1943 0.930 . S
H2002 C1944 0.930 . S
H2003 C1945 0.930 1_545 S
H2004 C1947 0.930 . S
H2005 C1949 0.929 . S
H2006 C1950 0.930 . S
H2007 C1951 0.930 1_554 S
H2008 C1954 0.911 1_545 S
H2009 C1957 0.929 . S
H2010 C1962 0.929 . S
H2011 C1963 0.930 . S
H2012 C1970 0.929 . S
H2013 C1971 0.930 . S
H2014 C1972 0.930 . S
H2015 C1973 0.928 1_545 S
H2016 C1975 0.929 . S
H2017 C1976 0.930 . S
H2018 C1977 0.930 . S
H2019 C1978 0.930 . S
H2020 C1982 0.929 . S
H2021 C1984 0.930 . S
H2022 C1990 0.929 . S
H2023 C1991 0.930 . S
Li2024 N2041 1.990 . S
Li2024 O2084 1.956 . S
Li2024 O2085 1.970 . S
Li2024 O2086 1.961 . S
Li2025 N2049 1.990 . S
Li2025 O2084 1.970 . S
Li2025 O2085 1.956 . S
Li2025 O2087 1.961 . S
Li2026 N2071 1.990 . S
Li2026 O2084 1.961 . S
Li2026 O2086 1.956 . S
Li2026 O2087 1.970 . S
Li2027 N2077 1.990 . S
Li2027 O2085 1.961 . S
Li2027 O2086 1.970 . S
Li2027 O2087 1.956 . S
C2028 C2030 1.348 . S
C2028 C2031 1.356 . S
C2028 O2084 1.325 . S
N2029 C2032 1.314 . S
N2029 C2033 1.279 . S
C2030 C2028 1.348 . S
C2030 C2032 1.353 . S
C2030 H2088 0.929 . S
C2031 C2028 1.356 . S
C2031 C2033 1.358 . S
C2031 H2089 0.930 . S
C2032 N2029 1.314 . S
C2032 C2030 1.353 . S
C2032 H2090 0.930 . S
C2033 N2029 1.279 . S
C2033 C2031 1.358 . S
C2033 H2091 0.930 1_545 S
C2034 C2037 1.348 . S
C2034 C2038 1.356 . S
C2034 O2085 1.325 . S
C2035 N2036 1.279 . S
C2035 C2038 1.358 . S
C2035 H2092 0.930 . S
N2036 C2035 1.279 . S
N2036 C2039 1.314 . S
C2037 C2034 1.348 . S
C2037 C2039 1.353 . S
C2037 H2093 0.929 . S
C2038 C2034 1.356 . S
C2038 C2035 1.358 . S
C2038 H2094 0.930 . S
C2039 N2036 1.314 . S
C2039 C2037 1.353 . S
C2039 H2095 0.930 . S
C2040 N2041 1.314 . S
C2040 C2045 1.353 . S
C2040 H2046 0.930 . S
N2041 Li2024 1.990 . S
N2041 C2040 1.314 . S
N2041 C2043 1.279 . S
C2042 C2043 1.385 . S
C2042 C2044 1.349 1_545 S
C2042 H2096 0.912 1_545 S
C2043 N2041 1.279 . S
C2043 C2042 1.385 . S
C2043 H2047 0.930 . S
C2044 C2042 1.349 1_565 S
C2044 C2045 1.348 1_565 S
C2045 C2040 1.353 . S
C2045 C2044 1.348 1_545 S
C2045 H2097 0.929 . S
H2046 C2040 0.930 . S
H2047 C2043 0.930 . S
C2048 N2049 1.314 . S
C2048 C2050 1.353 . S
C2048 H2054 0.930 . S
N2049 Li2025 1.990 . S
N2049 C2048 1.314 . S
N2049 C2052 1.279 . S
C2050 C2048 1.353 . S
C2050 C2053 1.348 . S
C2050 H2098 0.929 . S
C2051 C2052 1.358 . S
C2051 C2053 1.356 . S
C2051 H2099 0.930 . S
C2052 N2049 1.279 . S
C2052 C2051 1.358 . S
C2052 H2055 0.930 . S
C2053 C2050 1.348 . S
C2053 C2051 1.356 . S
H2054 C2048 0.930 . S
H2055 C2052 0.930 . S
C2056 C2058 1.348 . S
C2056 C2059 1.356 . S
C2056 O2086 1.325 . S
N2057 C2060 1.314 . S
N2057 C2061 1.280 . S
C2058 C2056 1.348 . S
C2058 C2060 1.353 . S
C2058 H2100 0.929 . S
C2059 C2056 1.356 . S
C2059 C2061 1.359 . S
C2059 H2101 0.930 . S
C2060 N2057 1.314 . S
C2060 C2058 1.353 . S
C2060 H2102 0.930 . S
C2061 N2057 1.280 . S
C2061 C2059 1.359 . S
C2061 H2103 0.929 1_545 S
C2062 C2063 1.348 . S
C2062 C2064 1.356 . S
C2062 O2087 1.325 . S
C2063 C2062 1.348 . S
C2063 C2065 1.353 . S
C2063 H2104 0.929 . S
C2064 C2062 1.356 . S
C2064 C2066 1.358 . S
C2064 H2105 0.930 . S
C2065 C2063 1.353 . S
C2065 N2067 1.314 . S
C2065 H2106 0.930 . S
C2066 C2064 1.358 . S
C2066 N2067 1.279 . S
C2066 H2107 0.930 . S
N2067 C2065 1.314 . S
N2067 C2066 1.279 . S
C2068 C2070 1.353 . S
C2068 N2071 1.314 . S
C2068 H2074 0.930 . S
C2069 N2071 1.279 . S
C2069 C2072 1.358 . S
C2069 H2075 0.930 . S
C2070 C2068 1.353 . S
C2070 C2073 1.348 . S
C2070 H2108 0.929 . S
N2071 Li2026 1.990 . S
N2071 C2068 1.314 . S
N2071 C2069 1.279 . S
C2072 C2069 1.358 . S
C2072 C2073 1.356 . S
C2072 H2109 0.930 . S
C2073 C2070 1.348 . S
C2073 C2072 1.356 . S
H2074 C2068 0.930 . S
H2075 C2069 0.930 . S
C2076 N2077 1.314 . S
C2076 C2078 1.353 . S
C2076 H2082 0.930 . S
N2077 Li2027 1.990 . S
N2077 C2076 1.314 . S
N2077 C2080 1.279 . S
C2078 C2076 1.353 . S
C2078 C2081 1.348 . S
C2078 H2110 0.929 . S
C2079 C2080 1.358 . S
C2079 C2081 1.356 . S
C2079 H2111 0.930 . S
C2080 N2077 1.279 . S
C2080 C2079 1.358 . S
C2080 H2083 0.930 . S
C2081 C2078 1.348 . S
C2081 C2079 1.356 . S
H2082 C2076 0.930 . S
H2083 C2080 0.930 . S
O2084 Li2024 1.956 . S
O2084 Li2025 1.970 . S
O2084 Li2026 1.961 . S
O2084 C2028 1.325 . S
O2085 Li2024 1.970 . S
O2085 Li2025 1.956 . S
O2085 Li2027 1.961 . S
O2085 C2034 1.325 . S
O2086 Li2024 1.961 . S
O2086 Li2026 1.956 . S
O2086 Li2027 1.970 . S
O2086 C2056 1.325 . S
O2087 Li2025 1.961 . S
O2087 Li2026 1.970 . S
O2087 Li2027 1.956 . S
O2087 C2062 1.325 . S
H2088 C2030 0.929 . S
H2089 C2031 0.930 . S
H2090 C2032 0.930 . S
H2091 C2033 0.930 1_565 S
H2092 C2035 0.930 . S
H2093 C2037 0.929 . S
H2094 C2038 0.930 . S
H2095 C2039 0.930 . S
H2096 C2042 0.912 1_565 S
H2097 C2045 0.929 . S
H2098 C2050 0.929 . S
H2099 C2051 0.930 . S
H2100 C2058 0.929 . S
H2101 C2059 0.930 . S
H2102 C2060 0.930 . S
H2103 C2061 0.929 1_565 S
H2104 C2063 0.929 . S
H2105 C2064 0.930 . S
H2106 C2065 0.930 . S
H2107 C2066 0.930 . S
H2108 C2070 0.929 . S
H2109 C2072 0.930 . S
H2110 C2078 0.929 . S
H2111 C2079 0.930 . S
C2112 C2113 1.349 . S
C2112 C2114 1.327 . S
C2112 H2137 0.950 . S
C2113 C2112 1.349 . S
C2113 C2129 1.349 . S
C2114 C2112 1.327 . S
C2114 C2133 1.429 . S
C2114 H2138 0.950 . S
C2115 C2132 1.574 . S
C2115 C2134 1.368 . S
C2115 H2139 0.949 . S
H2116 C2120 0.949 . S
C2117 C2118 1.349 . S
C2117 C2119 1.327 . S
C2117 H2140 0.950 . S
C2118 C2117 1.349 . S
C2118 C2130 1.349 . S
C2119 C2117 1.327 . S
C2119 C2135 1.429 . S
C2119 H2141 0.950 . S
C2120 H2116 0.949 . S
C2120 C2128 1.574 . S
C2120 C2136 1.368 . S
H2121 C2129 0.950 . S
H2122 C2127 0.950 . S
H2123 C2128 0.949 . S
H2124 C2130 0.950 . S
H2125 C2131 0.950 . S
H2126 C2132 0.949 . S
C2127 H2122 0.950 . S
C2127 C2129 1.327 . S
C2127 C2133 1.429 . S
C2128 C2120 1.574 . S
C2128 H2123 0.949 . S
C2128 C2134 1.368 . S
C2129 C2113 1.349 . S
C2129 H2121 0.950 . S
C2129 C2127 1.327 . S
C2130 C2118 1.349 . S
C2130 H2124 0.950 . S
C2130 C2131 1.327 . S
C2131 H2125 0.950 . S
C2131 C2130 1.327 . S
C2131 C2135 1.429 . S
C2132 C2115 1.574 . S
C2132 H2126 0.949 . S
C2132 C2136 1.368 . S
C2133 C2114 1.429 . S
C2133 C2127 1.429 . S
C2133 C2134 1.523 . S
C2134 C2115 1.368 . S
C2134 C2128 1.368 . S
C2134 C2133 1.523 . S
C2135 C2119 1.429 . S
C2135 C2131 1.429 . S
C2135 C2136 1.523 . S
C2136 C2120 1.368 . S
C2136 C2132 1.368 . S
C2136 C2135 1.523 . S
H2137 C2112 0.950 . S
H2138 C2114 0.950 . S
H2139 C2115 0.949 . S
H2140 C2117 0.950 . S
H2141 C2119 0.950 . S
C2142 C2143 1.349 1_455 S
C2142 C2144 1.327 . S
C2142 H2167 0.950 . S
C2143 C2142 1.349 1_655 S
C2143 C2159 1.349 . S
C2144 C2142 1.327 . S
C2144 C2163 1.429 . S
C2144 H2168 0.950 . S
C2145 C2162 1.574 . S
C2145 C2164 1.368 . S
C2145 H2169 0.949 . S
H2146 C2150 0.949 . S
C2147 C2148 1.349 . S
C2147 C2149 1.327 . S
C2147 H2170 0.950 . S
C2148 C2147 1.349 . S
C2148 C2160 1.349 . S
C2149 C2147 1.327 . S
C2149 C2165 1.429 . S
C2149 H2171 0.950 . S
C2150 H2146 0.949 . S
C2150 C2158 1.574 . S
C2150 C2166 1.368 . S
H2151 C2159 0.950 . S
H2152 C2157 0.950 . S
H2153 C2158 0.949 . S
H2154 C2160 0.950 . S
H2155 C2161 0.950 . S
H2156 C2162 0.949 . S
C2157 H2152 0.950 . S
C2157 C2159 1.327 1_455 S
C2157 C2163 1.429 . S
C2158 C2150 1.574 . S
C2158 H2153 0.949 . S
C2158 C2164 1.368 . S
C2159 C2143 1.349 . S
C2159 H2151 0.950 . S
C2159 C2157 1.327 1_655 S
C2160 C2148 1.349 . S
C2160 H2154 0.950 . S
C2160 C2161 1.327 . S
C2161 H2155 0.950 . S
C2161 C2160 1.327 . S
C2161 C2165 1.429 . S
C2162 C2145 1.574 . S
C2162 H2156 0.949 . S
C2162 C2166 1.368 . S
C2163 C2144 1.429 . S
C2163 C2157 1.429 . S
C2163 C2164 1.523 . S
C2164 C2145 1.368 . S
C2164 C2158 1.368 . S
C2164 C2163 1.523 . S
C2165 C2149 1.429 . S
C2165 C2161 1.429 . S
C2165 C2166 1.523 . S
C2166 C2150 1.368 . S
C2166 C2162 1.368 . S
C2166 C2165 1.523 . S
H2167 C2142 0.950 . S
H2168 C2144 0.950 . S
H2169 C2145 0.949 . S
H2170 C2147 0.950 . S
H2171 C2149 0.950 . S
C2172 C2173 1.349 . S
C2172 C2174 1.327 . S
C2172 H2197 0.950 . S
C2173 C2172 1.349 . S
C2173 C2189 1.349 . S
C2174 C2172 1.327 . S
C2174 C2193 1.429 . S
C2174 H2198 0.950 . S
C2175 C2192 1.574 . S
C2175 C2194 1.368 . S
C2175 H2199 0.949 . S
H2176 C2180 0.949 . S
C2177 C2178 1.349 . S
C2177 C2179 1.327 1_554 S
C2177 H2200 0.950 . S
C2178 C2177 1.349 . S
C2178 C2190 1.349 1_554 S
C2179 C2177 1.327 1_556 S
C2179 C2195 1.429 . S
C2179 H2201 0.950 . S
C2180 H2176 0.949 . S
C2180 C2188 1.574 . S
C2180 C2196 1.368 . S
H2181 C2189 0.950 . S
H2182 C2187 0.950 . S
H2183 C2188 0.949 . S
H2184 C2190 0.950 . S
H2185 C2191 0.950 . S
H2186 C2192 0.949 . S
C2187 H2182 0.950 . S
C2187 C2189 1.327 . S
C2187 C2193 1.429 . S
C2188 C2180 1.574 . S
C2188 H2183 0.949 . S
C2188 C2194 1.368 . S
C2189 C2173 1.349 . S
C2189 H2181 0.950 . S
C2189 C2187 1.327 . S
C2190 C2178 1.349 1_556 S
C2190 H2184 0.950 . S
C2190 C2191 1.327 . S
C2191 H2185 0.950 . S
C2191 C2190 1.327 . S
C2191 C2195 1.429 . S
C2192 C2175 1.574 . S
C2192 H2186 0.949 . S
C2192 C2196 1.368 . S
C2193 C2174 1.429 . S
C2193 C2187 1.429 . S
C2193 C2194 1.523 . S
C2194 C2175 1.368 . S
C2194 C2188 1.368 . S
C2194 C2193 1.523 . S
C2195 C2179 1.429 . S
C2195 C2191 1.429 . S
C2195 C2196 1.523 . S
C2196 C2180 1.368 . S
C2196 C2192 1.368 . S
C2196 C2195 1.523 . S
H2197 C2172 0.950 . S
H2198 C2174 0.950 . S
H2199 C2175 0.949 . S
H2200 C2177 0.950 . S
H2201 C2179 0.950 . S
C2202 C2203 1.349 . S
C2202 C2204 1.327 . S
C2202 H2227 0.950 . S
C2203 C2202 1.349 . S
C2203 C2219 1.349 . S
C2204 C2202 1.327 . S
C2204 C2223 1.429 . S
C2204 H2228 0.950 . S
C2205 C2222 1.574 . S
C2205 C2224 1.368 . S
C2205 H2229 0.949 . S
H2206 C2210 0.949 . S
C2207 C2208 1.349 . S
C2207 C2209 1.327 . S
C2207 H2230 0.950 . S
C2208 C2207 1.349 . S
C2208 C2220 1.349 . S
C2209 C2207 1.327 . S
C2209 C2225 1.429 . S
C2209 H2231 0.950 . S
C2210 H2206 0.949 . S
C2210 C2218 1.574 . S
C2210 C2226 1.368 . S
H2211 C2219 0.950 . S
H2212 C2217 0.950 . S
H2213 C2218 0.949 . S
H2214 C2220 0.950 . S
H2215 C2221 0.950 . S
H2216 C2222 0.949 . S
C2217 H2212 0.950 . S
C2217 C2219 1.327 . S
C2217 C2223 1.429 . S
C2218 C2210 1.574 . S
C2218 H2213 0.949 . S
C2218 C2224 1.368 . S
C2219 C2203 1.349 . S
C2219 H2211 0.950 . S
C2219 C2217 1.327 . S
C2220 C2208 1.349 . S
C2220 H2214 0.950 . S
C2220 C2221 1.327 . S
C2221 H2215 0.950 . S
C2221 C2220 1.327 . S
C2221 C2225 1.429 . S
C2222 C2205 1.574 . S
C2222 H2216 0.949 . S
C2222 C2226 1.368 . S
C2223 C2204 1.429 . S
C2223 C2217 1.429 . S
C2223 C2224 1.523 . S
C2224 C2205 1.368 . S
C2224 C2218 1.368 . S
C2224 C2223 1.523 . S
C2225 C2209 1.429 . S
C2225 C2221 1.429 . S
C2225 C2226 1.523 . S
C2226 C2210 1.368 . S
C2226 C2222 1.368 . S
C2226 C2225 1.523 . S
H2227 C2202 0.950 . S
H2228 C2204 0.950 . S
H2229 C2205 0.949 . S
H2230 C2207 0.950 . S
H2231 C2209 0.950 . S
C2232 C2233 1.349 . S
C2232 C2234 1.327 . S
C2232 H2257 0.950 . S
C2233 C2232 1.349 . S
C2233 C2249 1.349 . S
C2234 C2232 1.327 . S
C2234 C2253 1.429 . S
C2234 H2258 0.950 . S
C2235 C2252 1.574 . S
C2235 C2254 1.368 . S
C2235 H2259 0.949 . S
H2236 C2240 0.949 . S
C2237 C2238 1.349 . S
C2237 C2239 1.327 . S
C2237 H2260 0.950 . S
C2238 C2237 1.349 . S
C2238 C2250 1.349 . S
C2239 C2237 1.327 . S
C2239 C2255 1.429 . S
C2239 H2261 0.950 . S
C2240 H2236 0.949 . S
C2240 C2248 1.574 . S
C2240 C2256 1.368 . S
H2241 C2249 0.950 . S
H2242 C2247 0.950 . S
H2243 C2248 0.949 . S
H2244 C2250 0.950 . S
H2245 C2251 0.950 . S
H2246 C2252 0.949 . S
C2247 H2242 0.950 . S
C2247 C2249 1.327 . S
C2247 C2253 1.429 . S
C2248 C2240 1.574 . S
C2248 H2243 0.949 . S
C2248 C2254 1.368 . S
C2249 C2233 1.349 . S
C2249 H2241 0.950 . S
C2249 C2247 1.327 . S
C2250 C2238 1.349 . S
C2250 H2244 0.950 . S
C2250 C2251 1.327 . S
C2251 H2245 0.950 . S
C2251 C2250 1.327 . S
C2251 C2255 1.429 . S
C2252 C2235 1.574 . S
C2252 H2246 0.949 . S
C2252 C2256 1.368 . S
C2253 C2234 1.429 . S
C2253 C2247 1.429 . S
C2253 C2254 1.523 . S
C2254 C2235 1.368 . S
C2254 C2248 1.368 . S
C2254 C2253 1.523 . S
C2255 C2239 1.429 . S
C2255 C2251 1.429 . S
C2255 C2256 1.523 . S
C2256 C2240 1.368 . S
C2256 C2252 1.368 . S
C2256 C2255 1.523 . S
H2257 C2232 0.950 . S
H2258 C2234 0.950 . S
H2259 C2235 0.949 . S
H2260 C2237 0.950 . S
H2261 C2239 0.950 . S
C2262 C2263 1.349 . S
C2262 C2264 1.327 . S
C2262 H2287 0.950 . S
C2263 C2262 1.349 . S
C2263 C2279 1.349 . S
C2264 C2262 1.327 . S
C2264 C2283 1.429 . S
C2264 H2288 0.950 . S
C2265 C2282 1.574 . S
C2265 C2284 1.368 . S
C2265 H2289 0.949 . S
H2266 C2270 0.949 . S
C2267 C2268 1.349 1_655 S
C2267 C2269 1.327 . S
C2267 H2290 0.950 . S
C2268 C2267 1.349 1_455 S
C2268 C2280 1.349 . S
C2269 C2267 1.327 . S
C2269 C2285 1.429 . S
C2269 H2291 0.950 . S
C2270 H2266 0.949 . S
C2270 C2278 1.574 . S
C2270 C2286 1.368 . S
H2271 C2279 0.950 . S
H2272 C2277 0.950 . S
H2273 C2278 0.949 . S
H2274 C2280 0.950 . S
H2275 C2281 0.950 . S
H2276 C2282 0.949 . S
C2277 H2272 0.950 . S
C2277 C2279 1.327 . S
C2277 C2283 1.429 . S
C2278 C2270 1.574 . S
C2278 H2273 0.949 . S
C2278 C2284 1.368 . S
C2279 C2263 1.349 . S
C2279 H2271 0.950 . S
C2279 C2277 1.327 . S
C2280 C2268 1.349 . S
C2280 H2274 0.950 . S
C2280 C2281 1.327 1_455 S
C2281 H2275 0.950 . S
C2281 C2280 1.327 1_655 S
C2281 C2285 1.429 . S
C2282 C2265 1.574 . S
C2282 H2276 0.949 . S
C2282 C2286 1.368 . S
C2283 C2264 1.429 . S
C2283 C2277 1.429 . S
C2283 C2284 1.523 . S
C2284 C2265 1.368 . S
C2284 C2278 1.368 . S
C2284 C2283 1.523 . S
C2285 C2269 1.429 . S
C2285 C2281 1.429 . S
C2285 C2286 1.523 . S
C2286 C2270 1.368 . S
C2286 C2282 1.368 . S
C2286 C2285 1.523 . S
H2287 C2262 0.950 . S
H2288 C2264 0.950 . S
H2289 C2265 0.949 . S
H2290 C2267 0.950 . S
H2291 C2269 0.950 . S
C2292 C2293 1.349 . S
C2292 C2294 1.327 . S
C2292 H2317 0.950 . S
C2293 C2292 1.349 . S
C2293 C2309 1.349 . S
C2294 C2292 1.327 . S
C2294 C2313 1.429 . S
C2294 H2318 0.950 . S
C2295 C2312 1.574 . S
C2295 C2314 1.368 . S
C2295 H2319 0.949 . S
H2296 C2300 0.949 . S
C2297 C2298 1.349 1_554 S
C2297 C2299 1.327 . S
C2297 H2320 0.950 . S
C2298 C2297 1.349 1_556 S
C2298 C2310 1.349 . S
C2299 C2297 1.327 . S
C2299 C2315 1.429 . S
C2299 H2321 0.950 . S
C2300 H2296 0.949 . S
C2300 C2308 1.574 . S
C2300 C2316 1.368 . S
H2301 C2309 0.950 . S
H2302 C2307 0.950 . S
H2303 C2308 0.949 . S
H2304 C2310 0.950 . S
H2305 C2311 0.950 . S
H2306 C2312 0.949 . S
C2307 H2302 0.950 . S
C2307 C2309 1.327 . S
C2307 C2313 1.429 . S
C2308 C2300 1.574 . S
C2308 H2303 0.949 . S
C2308 C2314 1.368 . S
C2309 C2293 1.349 . S
C2309 H2301 0.950 . S
C2309 C2307 1.327 . S
C2310 C2298 1.349 . S
C2310 H2304 0.950 . S
C2310 C2311 1.327 1_556 S
C2311 H2305 0.950 . S
C2311 C2310 1.327 1_554 S
C2311 C2315 1.429 . S
C2312 C2295 1.574 . S
C2312 H2306 0.949 . S
C2312 C2316 1.368 . S
C2313 C2294 1.429 . S
C2313 C2307 1.429 . S
C2313 C2314 1.523 . S
C2314 C2295 1.368 . S
C2314 C2308 1.368 . S
C2314 C2313 1.523 . S
C2315 C2299 1.429 . S
C2315 C2311 1.429 . S
C2315 C2316 1.523 . S
C2316 C2300 1.368 . S
C2316 C2312 1.368 . S
C2316 C2315 1.523 . S
H2317 C2292 0.950 . S
H2318 C2294 0.950 . S
H2319 C2295 0.949 . S
H2320 C2297 0.950 . S
H2321 C2299 0.950 . S
C2322 C2323 1.349 . S
C2322 C2324 1.327 . S
C2322 H2347 0.950 . S
C2323 C2322 1.349 . S
C2323 C2339 1.349 . S
C2324 C2322 1.327 . S
C2324 C2343 1.429 . S
C2324 H2348 0.950 . S
C2325 C2342 1.574 . S
C2325 C2344 1.368 . S
C2325 H2349 0.949 . S
H2326 C2330 0.949 . S
C2327 C2328 1.349 . S
C2327 C2329 1.327 . S
C2327 H2350 0.950 . S
C2328 C2327 1.349 . S
C2328 C2340 1.349 . S
C2329 C2327 1.327 . S
C2329 C2345 1.429 . S
C2329 H2351 0.950 . S
C2330 H2326 0.949 . S
C2330 C2338 1.574 . S
C2330 C2346 1.368 . S
H2331 C2339 0.950 . S
H2332 C2337 0.950 . S
H2333 C2338 0.949 . S
H2334 C2340 0.950 . S
H2335 C2341 0.950 . S
H2336 C2342 0.949 . S
C2337 H2332 0.950 . S
C2337 C2339 1.327 . S
C2337 C2343 1.429 . S
C2338 C2330 1.574 . S
C2338 H2333 0.949 . S
C2338 C2344 1.368 . S
C2339 C2323 1.349 . S
C2339 H2331 0.950 . S
C2339 C2337 1.327 . S
C2340 C2328 1.349 . S
C2340 H2334 0.950 . S
C2340 C2341 1.327 . S
C2341 H2335 0.950 . S
C2341 C2340 1.327 . S
C2341 C2345 1.429 . S
C2342 C2325 1.574 . S
C2342 H2336 0.949 . S
C2342 C2346 1.368 . S
C2343 C2324 1.429 . S
C2343 C2337 1.429 . S
C2343 C2344 1.523 . S
C2344 C2325 1.368 . S
C2344 C2338 1.368 . S
C2344 C2343 1.523 . S
C2345 C2329 1.429 . S
C2345 C2341 1.429 . S
C2345 C2346 1.523 . S
C2346 C2330 1.368 . S
C2346 C2342 1.368 . S
C2346 C2345 1.523 . S
H2347 C2322 0.950 . S
H2348 C2324 0.950 . S
H2349 C2325 0.949 . S
H2350 C2327 0.950 . S
H2351 C2329 0.950 . S
C2352 C2353 1.349 . S
C2352 C2354 1.327 . S
C2352 H2377 0.950 . S
C2353 C2352 1.349 . S
C2353 C2369 1.349 . S
C2354 C2352 1.327 . S
C2354 C2373 1.429 . S
C2354 H2378 0.950 . S
C2355 C2372 1.574 . S
C2355 C2374 1.368 . S
C2355 H2379 0.949 . S
H2356 C2360 0.949 . S
C2357 C2358 1.349 . S
C2357 C2359 1.327 . S
C2357 H2380 0.950 . S
C2358 C2357 1.349 . S
C2358 C2370 1.349 . S
C2359 C2357 1.327 . S
C2359 C2375 1.429 . S
C2359 H2381 0.950 . S
C2360 H2356 0.949 . S
C2360 C2368 1.574 . S
C2360 C2376 1.368 . S
H2361 C2369 0.950 . S
H2362 C2367 0.950 . S
H2363 C2368 0.949 . S
H2364 C2370 0.950 . S
H2365 C2371 0.950 . S
H2366 C2372 0.949 . S
C2367 H2362 0.950 . S
C2367 C2369 1.327 . S
C2367 C2373 1.429 . S
C2368 C2360 1.574 . S
C2368 H2363 0.949 . S
C2368 C2374 1.368 . S
C2369 C2353 1.349 . S
C2369 H2361 0.950 . S
C2369 C2367 1.327 . S
C2370 C2358 1.349 . S
C2370 H2364 0.950 . S
C2370 C2371 1.327 . S
C2371 H2365 0.950 . S
C2371 C2370 1.327 . S
C2371 C2375 1.429 . S
C2372 C2355 1.574 . S
C2372 H2366 0.949 . S
C2372 C2376 1.368 . S
C2373 C2354 1.429 . S
C2373 C2367 1.429 . S
C2373 C2374 1.523 . S
C2374 C2355 1.368 . S
C2374 C2368 1.368 . S
C2374 C2373 1.523 . S
C2375 C2359 1.429 . S
C2375 C2371 1.429 . S
C2375 C2376 1.523 . S
C2376 C2360 1.368 . S
C2376 C2372 1.368 . S
C2376 C2375 1.523 . S
H2377 C2352 0.950 . S
H2378 C2354 0.950 . S
H2379 C2355 0.949 . S
H2380 C2357 0.950 . S
H2381 C2359 0.950 . S
C2382 C2383 1.349 . S
C2382 C2384 1.327 1_565 S
C2382 H2407 0.950 . S
C2383 C2382 1.349 . S
C2383 C2399 1.349 1_565 S
C2384 C2382 1.327 1_545 S
C2384 C2403 1.429 . S
C2384 H2408 0.950 1_545 S
C2385 C2402 1.574 . S
C2385 C2404 1.368 . S
C2385 H2409 0.949 . S
H2386 C2390 0.949 . S
C2387 C2388 1.349 . S
C2387 C2389 1.327 . S
C2387 H2410 0.950 . S
C2388 C2387 1.349 . S
C2388 C2400 1.349 . S
C2389 C2387 1.327 . S
C2389 C2405 1.429 . S
C2389 H2411 0.950 . S
C2390 H2386 0.949 . S
C2390 C2398 1.574 . S
C2390 C2406 1.368 . S
H2391 C2399 0.950 . S
H2392 C2397 0.950 . S
H2393 C2398 0.949 . S
H2394 C2400 0.950 . S
H2395 C2401 0.950 . S
H2396 C2402 0.949 . S
C2397 H2392 0.950 . S
C2397 C2399 1.327 . S
C2397 C2403 1.429 . S
C2398 C2390 1.574 . S
C2398 H2393 0.949 . S
C2398 C2404 1.368 . S
C2399 C2383 1.349 1_545 S
C2399 H2391 0.950 . S
C2399 C2397 1.327 . S
C2400 C2388 1.349 . S
C2400 H2394 0.950 . S
C2400 C2401 1.327 . S
C2401 H2395 0.950 . S
C2401 C2400 1.327 . S
C2401 C2405 1.429 . S
C2402 C2385 1.574 . S
C2402 H2396 0.949 . S
C2402 C2406 1.368 . S
C2403 C2384 1.429 . S
C2403 C2397 1.429 . S
C2403 C2404 1.523 . S
C2404 C2385 1.368 . S
C2404 C2398 1.368 . S
C2404 C2403 1.523 . S
C2405 C2389 1.429 . S
C2405 C2401 1.429 . S
C2405 C2406 1.523 . S
C2406 C2390 1.368 . S
C2406 C2402 1.368 . S
C2406 C2405 1.523 . S
H2407 C2382 0.950 . S
H2408 C2384 0.950 1_565 S
H2409 C2385 0.949 . S
H2410 C2387 0.950 . S
H2411 C2389 0.950 . S
C2412 C2413 1.349 . S
C2412 C2414 1.327 . S
C2412 H2437 0.950 . S
C2413 C2412 1.349 . S
C2413 C2429 1.349 . S
C2414 C2412 1.327 . S
C2414 C2433 1.429 . S
C2414 H2438 0.950 . S
C2415 C2432 1.574 . S
C2415 C2434 1.368 . S
C2415 H2439 0.949 . S
H2416 C2420 0.949 . S
C2417 C2418 1.349 . S
C2417 C2419 1.327 1_545 S
C2417 H2440 0.950 . S
C2418 C2417 1.349 . S
C2418 C2430 1.349 1_545 S
C2419 C2417 1.327 1_565 S
C2419 C2435 1.429 . S
C2419 H2441 0.951 1_565 S
C2420 H2416 0.949 . S
C2420 C2428 1.574 . S
C2420 C2436 1.368 . S
H2421 C2429 0.950 . S
H2422 C2427 0.950 . S
H2423 C2428 0.949 . S
H2424 C2430 0.950 . S
H2425 C2431 0.950 . S
H2426 C2432 0.949 . S
C2427 H2422 0.950 . S
C2427 C2429 1.327 . S
C2427 C2433 1.429 . S
C2428 C2420 1.574 . S
C2428 H2423 0.949 . S
C2428 C2434 1.368 . S
C2429 C2413 1.349 . S
C2429 H2421 0.950 . S
C2429 C2427 1.327 . S
C2430 C2418 1.349 1_565 S
C2430 H2424 0.950 . S
C2430 C2431 1.327 . S
C2431 H2425 0.950 . S
C2431 C2430 1.327 . S
C2431 C2435 1.429 . S
C2432 C2415 1.574 . S
C2432 H2426 0.949 . S
C2432 C2436 1.368 . S
C2433 C2414 1.429 . S
C2433 C2427 1.429 . S
C2433 C2434 1.523 . S
C2434 C2415 1.368 . S
C2434 C2428 1.368 . S
C2434 C2433 1.523 . S
C2435 C2419 1.429 . S
C2435 C2431 1.429 . S
C2435 C2436 1.523 . S
C2436 C2420 1.368 . S
C2436 C2432 1.368 . S
C2436 C2435 1.523 . S
H2437 C2412 0.950 . S
H2438 C2414 0.950 . S
H2439 C2415 0.949 . S
H2440 C2417 0.950 . S
H2441 C2419 0.951 1_545 S
C2442 C2443 1.349 . S
C2442 C2444 1.327 . S
C2442 H2467 0.950 . S
C2443 C2442 1.349 . S
C2443 C2459 1.349 . S
C2444 C2442 1.327 . S
C2444 C2463 1.429 . S
C2444 H2468 0.950 . S
C2445 C2462 1.574 . S
C2445 C2464 1.368 . S
C2445 H2469 0.949 . S
H2446 C2450 0.949 . S
C2447 C2448 1.349 . S
C2447 C2449 1.327 . S
C2447 H2470 0.950 . S
C2448 C2447 1.349 . S
C2448 C2460 1.349 . S
C2449 C2447 1.327 . S
C2449 C2465 1.429 . S
C2449 H2471 0.950 . S
C2450 H2446 0.949 . S
C2450 C2458 1.574 . S
C2450 C2466 1.368 . S
H2451 C2459 0.950 . S
H2452 C2457 0.950 . S
H2453 C2458 0.949 . S
H2454 C2460 0.950 . S
H2455 C2461 0.950 . S
H2456 C2462 0.949 . S
C2457 H2452 0.950 . S
C2457 C2459 1.327 . S
C2457 C2463 1.429 . S
C2458 C2450 1.574 . S
C2458 H2453 0.949 . S
C2458 C2464 1.368 . S
C2459 C2443 1.349 . S
C2459 H2451 0.950 . S
C2459 C2457 1.327 . S
C2460 C2448 1.349 . S
C2460 H2454 0.950 . S
C2460 C2461 1.327 . S
C2461 H2455 0.950 . S
C2461 C2460 1.327 . S
C2461 C2465 1.429 . S
C2462 C2445 1.574 . S
C2462 H2456 0.949 . S
C2462 C2466 1.368 . S
C2463 C2444 1.429 . S
C2463 C2457 1.429 . S
C2463 C2464 1.523 . S
C2464 C2445 1.368 . S
C2464 C2458 1.368 . S
C2464 C2463 1.523 . S
C2465 C2449 1.429 . S
C2465 C2461 1.429 . S
C2465 C2466 1.523 . S
C2466 C2450 1.368 . S
C2466 C2462 1.368 . S
C2466 C2465 1.523 . S
H2467 C2442 0.950 . S
H2468 C2444 0.950 . S
H2469 C2445 0.949 . S
H2470 C2447 0.950 . S
H2471 C2449 0.950 . S
C2472 C2473 1.349 . S
C2472 C2474 1.327 . S
C2472 H2497 0.950 . S
C2473 C2472 1.349 . S
C2473 C2489 1.349 . S
C2474 C2472 1.327 . S
C2474 C2493 1.429 . S
C2474 H2498 0.950 . S
C2475 C2492 1.574 . S
C2475 C2494 1.368 . S
C2475 H2499 0.949 . S
H2476 C2480 0.949 . S
C2477 C2478 1.349 . S
C2477 C2479 1.327 . S
C2477 H2500 0.950 . S
C2478 C2477 1.349 . S
C2478 C2490 1.349 . S
C2479 C2477 1.327 . S
C2479 C2495 1.429 . S
C2479 H2501 0.950 . S
C2480 H2476 0.949 . S
C2480 C2488 1.574 . S
C2480 C2496 1.368 . S
H2481 C2489 0.950 . S
H2482 C2487 0.950 . S
H2483 C2488 0.949 . S
H2484 C2490 0.950 . S
H2485 C2491 0.950 . S
H2486 C2492 0.949 . S
C2487 H2482 0.950 . S
C2487 C2489 1.327 . S
C2487 C2493 1.429 . S
C2488 C2480 1.574 . S
C2488 H2483 0.949 . S
C2488 C2494 1.368 . S
C2489 C2473 1.349 . S
C2489 H2481 0.950 . S
C2489 C2487 1.327 . S
C2490 C2478 1.349 . S
C2490 H2484 0.950 . S
C2490 C2491 1.327 . S
C2491 H2485 0.950 . S
C2491 C2490 1.327 . S
C2491 C2495 1.429 . S
C2492 C2475 1.574 . S
C2492 H2486 0.949 . S
C2492 C2496 1.368 . S
C2493 C2474 1.429 . S
C2493 C2487 1.429 . S
C2493 C2494 1.523 . S
C2494 C2475 1.368 . S
C2494 C2488 1.368 . S
C2494 C2493 1.523 . S
C2495 C2479 1.429 . S
C2495 C2491 1.429 . S
C2495 C2496 1.523 . S
C2496 C2480 1.368 . S
C2496 C2492 1.368 . S
C2496 C2495 1.523 . S
H2497 C2472 0.950 . S
H2498 C2474 0.950 . S
H2499 C2475 0.949 . S
H2500 C2477 0.950 . S
H2501 C2479 0.950 . S
C2502 C2503 1.349 . S
C2502 C2504 1.327 1_565 S
C2502 H2527 0.968 . S
C2503 C2502 1.349 . S
C2503 C2519 1.349 . S
C2504 C2502 1.327 1_545 S
C2504 C2523 1.429 1_545 S
C2504 H2528 0.950 . S
C2505 C2522 1.574 . S
C2505 C2524 1.368 . S
C2505 H2529 0.949 1_545 S
H2506 C2510 0.949 . S
C2507 C2508 1.349 . S
C2507 C2509 1.327 . S
C2507 H2530 0.950 . S
C2508 C2507 1.349 . S
C2508 C2520 1.349 . S
C2509 C2507 1.327 . S
C2509 C2525 1.429 . S
C2509 H2531 0.950 . S
C2510 H2506 0.949 . S
C2510 C2518 1.574 . S
C2510 C2526 1.368 . S
H2511 C2519 0.950 . S
H2512 C2517 0.950 . S
H2513 C2518 0.949 . S
H2514 C2520 0.950 . S
H2515 C2521 0.950 . S
H2516 C2522 0.949 . S
C2517 H2512 0.950 . S
C2517 C2519 1.327 . S
C2517 C2523 1.429 . S
C2518 C2510 1.574 . S
C2518 H2513 0.949 . S
C2518 C2524 1.368 . S
C2519 C2503 1.349 . S
C2519 H2511 0.950 . S
C2519 C2517 1.327 . S
C2520 C2508 1.349 . S
C2520 H2514 0.950 . S
C2520 C2521 1.327 . S
C2521 H2515 0.950 . S
C2521 C2520 1.327 . S
C2521 C2525 1.429 . S
C2522 C2505 1.574 . S
C2522 H2516 0.949 . S
C2522 C2526 1.368 . S
C2523 C2504 1.429 1_565 S
C2523 C2517 1.429 . S
C2523 C2524 1.523 1_565 S
C2524 C2505 1.368 . S
C2524 C2518 1.368 . S
C2524 C2523 1.523 1_545 S
C2525 C2509 1.429 . S
C2525 C2521 1.429 . S
C2525 C2526 1.523 . S
C2526 C2510 1.368 . S
C2526 C2522 1.368 . S
C2526 C2525 1.523 . S
H2527 C2502 0.968 . S
H2528 C2504 0.950 . S
H2529 C2505 0.949 1_565 S
H2530 C2507 0.950 . S
H2531 C2509 0.950 . S
C2532 C2533 1.349 . S
C2532 C2534 1.327 . S
C2532 H2557 0.950 . S
C2533 C2532 1.349 . S
C2533 C2549 1.349 . S
C2534 C2532 1.327 . S
C2534 C2553 1.429 . S
C2534 H2558 0.950 . S
C2535 C2552 1.574 . S
C2535 C2554 1.368 . S
C2535 H2559 0.949 . S
H2536 C2540 0.949 . S
C2537 C2538 1.349 . S
C2537 C2539 1.327 . S
C2537 H2560 0.950 . S
C2538 C2537 1.349 . S
C2538 C2550 1.349 . S
C2539 C2537 1.327 . S
C2539 C2555 1.429 . S
C2539 H2561 0.950 . S
C2540 H2536 0.949 . S
C2540 C2548 1.574 . S
C2540 C2556 1.368 . S
H2541 C2549 0.950 . S
H2542 C2547 0.950 . S
H2543 C2548 0.949 . S
H2544 C2550 0.950 . S
H2545 C2551 0.955 1_556 S
H2546 C2552 0.949 1_554 S
C2547 H2542 0.950 . S
C2547 C2549 1.327 . S
C2547 C2553 1.429 . S
C2548 C2540 1.574 . S
C2548 H2543 0.949 . S
C2548 C2554 1.368 . S
C2549 C2533 1.349 . S
C2549 H2541 0.950 . S
C2549 C2547 1.327 . S
C2550 C2538 1.349 . S
C2550 H2544 0.950 . S
C2550 C2551 1.323 . S
C2551 H2545 0.955 1_554 S
C2551 C2550 1.323 . S
C2551 C2555 1.427 . S
C2552 C2535 1.574 . S
C2552 H2546 0.949 1_556 S
C2552 C2556 1.368 . S
C2553 C2534 1.429 . S
C2553 C2547 1.429 . S
C2553 C2554 1.523 . S
C2554 C2535 1.368 . S
C2554 C2548 1.368 . S
C2554 C2553 1.523 . S
C2555 C2539 1.429 . S
C2555 C2551 1.427 . S
C2555 C2556 1.523 1_554 S
C2556 C2540 1.368 . S
C2556 C2552 1.368 . S
C2556 C2555 1.523 1_556 S
H2557 C2532 0.950 . S
H2558 C2534 0.950 . S
H2559 C2535 0.949 . S
H2560 C2537 0.950 . S
H2561 C2539 0.950 . S
C2562 C2563 1.349 . S
C2562 C2564 1.327 . S
C2562 H2587 0.950 . S
C2563 C2562 1.349 . S
C2563 C2579 1.349 . S
C2564 C2562 1.327 . S
C2564 C2583 1.429 . S
C2564 H2588 0.950 . S
C2565 C2582 1.574 . S
C2565 C2584 1.368 . S
C2565 H2589 0.949 . S
H2566 C2570 0.949 . S
C2567 C2568 1.349 . S
C2567 C2569 1.327 . S
C2567 H2590 0.950 . S
C2568 C2567 1.349 . S
C2568 C2580 1.349 . S
C2569 C2567 1.327 . S
C2569 C2585 1.429 . S
C2569 H2591 0.950 . S
C2570 H2566 0.949 . S
C2570 C2578 1.574 . S
C2570 C2586 1.368 . S
H2571 C2579 0.950 . S
H2572 C2577 0.950 1_565 S
H2573 C2578 0.974 . S
H2574 C2580 0.950 . S
H2575 C2581 0.950 . S
H2576 C2582 0.949 . S
C2577 H2572 0.950 1_545 S
C2577 C2579 1.327 . S
C2577 C2583 1.429 . S
C2578 C2570 1.574 . S
C2578 H2573 0.974 . S
C2578 C2584 1.368 . S
C2579 C2563 1.349 . S
C2579 H2571 0.950 . S
C2579 C2577 1.327 . S
C2580 C2568 1.349 . S
C2580 H2574 0.950 . S
C2580 C2581 1.327 . S
C2581 H2575 0.950 . S
C2581 C2580 1.327 . S
C2581 C2585 1.429 . S
C2582 C2565 1.574 . S
C2582 H2576 0.949 . S
C2582 C2586 1.368 . S
C2583 C2564 1.429 . S
C2583 C2577 1.429 . S
C2583 C2584 1.523 1_545 S
C2584 C2565 1.368 . S
C2584 C2578 1.368 . S
C2584 C2583 1.523 1_565 S
C2585 C2569 1.429 . S
C2585 C2581 1.429 . S
C2585 C2586 1.523 . S
C2586 C2570 1.368 . S
C2586 C2582 1.368 . S
C2586 C2585 1.523 . S
H2587 C2562 0.950 . S
H2588 C2564 0.950 . S
H2589 C2565 0.949 . S
H2590 C2567 0.950 . S
H2591 C2569 0.950 . S
C2592 C2593 1.349 . S
C2592 C2594 1.327 . S
C2592 H2617 0.950 . S
C2593 C2592 1.349 . S
C2593 C2609 1.349 . S
C2594 C2592 1.327 . S
C2594 C2613 1.429 . S
C2594 H2618 0.950 . S
C2595 C2612 1.574 . S
C2595 C2614 1.368 . S
C2595 H2619 0.949 . S
H2596 C2600 0.949 . S
C2597 C2598 1.349 . S
C2597 C2599 1.327 . S
C2597 H2620 0.950 . S
C2598 C2597 1.349 . S
C2598 C2610 1.349 . S
C2599 C2597 1.327 . S
C2599 C2615 1.429 . S
C2599 H2621 0.950 . S
C2600 H2596 0.949 . S
C2600 C2608 1.574 . S
C2600 C2616 1.368 . S
H2601 C2609 0.950 . S
H2602 C2607 0.950 . S
H2603 C2608 0.949 . S
H2604 C2610 0.950 . S
H2605 C2611 0.950 . S
H2606 C2612 0.949 . S
C2607 H2602 0.950 . S
C2607 C2609 1.327 . S
C2607 C2613 1.429 . S
C2608 C2600 1.574 . S
C2608 H2603 0.949 . S
C2608 C2614 1.368 . S
C2609 C2593 1.349 . S
C2609 H2601 0.950 . S
C2609 C2607 1.327 . S
C2610 C2598 1.349 . S
C2610 H2604 0.950 . S
C2610 C2611 1.327 . S
C2611 H2605 0.950 . S
C2611 C2610 1.327 . S
C2611 C2615 1.429 . S
C2612 C2595 1.574 . S
C2612 H2606 0.949 . S
C2612 C2616 1.368 . S
C2613 C2594 1.429 . S
C2613 C2607 1.429 . S
C2613 C2614 1.523 . S
C2614 C2595 1.368 . S
C2614 C2608 1.368 . S
C2614 C2613 1.523 . S
C2615 C2599 1.429 . S
C2615 C2611 1.429 . S
C2615 C2616 1.523 . S
C2616 C2600 1.368 . S
C2616 C2612 1.368 . S
C2616 C2615 1.523 . S
H2617 C2592 0.950 . S
H2618 C2594 0.950 . S
H2619 C2595 0.949 . S
H2620 C2597 0.950 . S
H2621 C2599 0.950 . S
C2622 C2623 1.349 . S
C2622 C2624 1.327 . S
C2622 H2647 0.950 . S
C2623 C2622 1.349 . S
C2623 C2639 1.349 . S
C2624 C2622 1.327 . S
C2624 C2643 1.429 . S
C2624 H2648 0.950 . S
C2625 C2642 1.574 . S
C2625 C2644 1.368 . S
C2625 H2649 0.949 . S
H2626 C2630 0.949 . S
C2627 C2628 1.349 . S
C2627 C2629 1.327 . S
C2627 H2650 0.950 . S
C2628 C2627 1.349 . S
C2628 C2640 1.349 . S
C2629 C2627 1.327 . S
C2629 C2645 1.429 . S
C2629 H2651 0.950 . S
C2630 H2626 0.949 . S
C2630 C2638 1.574 . S
C2630 C2646 1.368 . S
H2631 C2639 0.950 . S
H2632 C2637 0.950 . S
H2633 C2638 0.949 . S
H2634 C2640 0.950 . S
H2635 C2641 0.950 . S
H2636 C2642 0.949 . S
C2637 H2632 0.950 . S
C2637 C2639 1.327 . S
C2637 C2643 1.429 . S
C2638 C2630 1.574 . S
C2638 H2633 0.949 . S
C2638 C2644 1.368 . S
C2639 C2623 1.349 . S
C2639 H2631 0.950 . S
C2639 C2637 1.327 . S
C2640 C2628 1.349 . S
C2640 H2634 0.950 . S
C2640 C2641 1.327 . S
C2641 H2635 0.950 . S
C2641 C2640 1.327 . S
C2641 C2645 1.429 . S
C2642 C2625 1.574 . S
C2642 H2636 0.949 . S
C2642 C2646 1.368 . S
C2643 C2624 1.429 . S
C2643 C2637 1.429 . S
C2643 C2644 1.523 . S
C2644 C2625 1.368 . S
C2644 C2638 1.368 . S
C2644 C2643 1.523 . S
C2645 C2629 1.429 . S
C2645 C2641 1.429 . S
C2645 C2646 1.523 . S
C2646 C2630 1.368 . S
C2646 C2642 1.368 . S
C2646 C2645 1.523 . S
H2647 C2622 0.950 . S
H2648 C2624 0.950 . S
H2649 C2625 0.949 . S
H2650 C2627 0.950 . S
H2651 C2629 0.950 . S
C2652 C2653 1.349 . S
C2652 C2654 1.327 . S
C2652 H2677 0.950 . S
C2653 C2652 1.349 . S
C2653 C2669 1.349 . S
C2654 C2652 1.327 . S
C2654 C2673 1.429 . S
C2654 H2678 0.950 . S
C2655 C2672 1.574 . S
C2655 C2674 1.368 . S
C2655 H2679 0.949 . S
H2656 C2660 0.949 . S
C2657 C2658 1.349 . S
C2657 C2659 1.327 . S
C2657 H2680 0.950 . S
C2658 C2657 1.349 . S
C2658 C2670 1.349 . S
C2659 C2657 1.327 . S
C2659 C2675 1.429 . S
C2659 H2681 0.950 . S
C2660 H2656 0.949 . S
C2660 C2668 1.574 . S
C2660 C2676 1.368 . S
H2661 C2669 0.950 . S
H2662 C2667 0.950 1_554 S
H2663 C2668 0.949 1_556 S
H2664 C2670 0.950 . S
H2665 C2671 0.950 . S
H2666 C2672 0.949 . S
C2667 H2662 0.950 1_556 S
C2667 C2669 1.327 . S
C2667 C2673 1.429 . S
C2668 C2660 1.574 . S
C2668 H2663 0.949 1_554 S
C2668 C2674 1.368 . S
C2669 C2653 1.349 . S
C2669 H2661 0.950 . S
C2669 C2667 1.327 . S
C2670 C2658 1.349 . S
C2670 H2664 0.950 . S
C2670 C2671 1.327 . S
C2671 H2665 0.950 . S
C2671 C2670 1.327 . S
C2671 C2675 1.429 . S
C2672 C2655 1.574 . S
C2672 H2666 0.949 . S
C2672 C2676 1.368 . S
C2673 C2654 1.429 . S
C2673 C2667 1.429 . S
C2673 C2674 1.523 1_556 S
C2674 C2655 1.368 . S
C2674 C2668 1.368 . S
C2674 C2673 1.523 1_554 S
C2675 C2659 1.429 . S
C2675 C2671 1.429 . S
C2675 C2676 1.523 . S
C2676 C2660 1.368 . S
C2676 C2672 1.368 . S
C2676 C2675 1.523 . S
H2677 C2652 0.950 . S
H2678 C2654 0.950 . S
H2679 C2655 0.949 . S
H2680 C2657 0.950 . S
H2681 C2659 0.950 . S
C2682 C2683 1.349 . S
C2682 C2684 1.327 . S
C2682 H2707 0.950 . S
C2683 C2682 1.349 . S
C2683 C2699 1.349 . S
C2684 C2682 1.327 . S
C2684 C2703 1.429 . S
C2684 H2708 0.950 . S
C2685 C2702 1.574 . S
C2685 C2704 1.368 . S
C2685 H2709 0.949 . S
H2686 C2690 0.949 . S
C2687 C2688 1.349 . S
C2687 C2689 1.327 . S
C2687 H2710 0.950 . S
C2688 C2687 1.349 . S
C2688 C2700 1.349 . S
C2689 C2687 1.327 . S
C2689 C2705 1.429 . S
C2689 H2711 0.950 . S
C2690 H2686 0.949 . S
C2690 C2698 1.574 . S
C2690 C2706 1.368 . S
H2691 C2699 0.950 . S
H2692 C2697 0.950 . S
H2693 C2698 0.949 . S
H2694 C2700 0.950 . S
H2695 C2701 0.950 . S
H2696 C2702 0.949 . S
C2697 H2692 0.950 . S
C2697 C2699 1.327 . S
C2697 C2703 1.429 . S
C2698 C2690 1.574 . S
C2698 H2693 0.949 . S
C2698 C2704 1.368 . S
C2699 C2683 1.349 . S
C2699 H2691 0.950 . S
C2699 C2697 1.327 . S
C2700 C2688 1.349 . S
C2700 H2694 0.950 . S
C2700 C2701 1.327 . S
C2701 H2695 0.950 . S
C2701 C2700 1.327 . S
C2701 C2705 1.429 . S
C2702 C2685 1.574 . S
C2702 H2696 0.949 . S
C2702 C2706 1.368 . S
C2703 C2684 1.429 . S
C2703 C2697 1.429 . S
C2703 C2704 1.523 . S
C2704 C2685 1.368 . S
C2704 C2698 1.368 . S
C2704 C2703 1.523 . S
C2705 C2689 1.429 . S
C2705 C2701 1.429 . S
C2705 C2706 1.523 . S
C2706 C2690 1.368 . S
C2706 C2702 1.368 . S
C2706 C2705 1.523 . S
H2707 C2682 0.950 . S
H2708 C2684 0.950 . S
H2709 C2685 0.949 . S
H2710 C2687 0.950 . S
H2711 C2689 0.950 . S
C2712 C2713 1.349 . S
C2712 C2714 1.327 . S
C2712 H2737 0.950 . S
C2713 C2712 1.349 . S
C2713 C2729 1.349 . S
C2714 C2712 1.327 . S
C2714 C2733 1.429 . S
C2714 H2738 0.950 . S
C2715 C2732 1.574 . S
C2715 C2734 1.368 . S
C2715 H2739 0.949 . S
H2716 C2720 0.949 . S
C2717 C2718 1.349 . S
C2717 C2719 1.327 . S
C2717 H2740 0.950 . S
C2718 C2717 1.349 . S
C2718 C2730 1.349 . S
C2719 C2717 1.327 . S
C2719 C2735 1.429 . S
C2719 H2741 0.950 . S
C2720 H2716 0.949 . S
C2720 C2728 1.574 . S
C2720 C2736 1.368 . S
H2721 C2729 0.950 . S
H2722 C2727 0.950 . S
H2723 C2728 0.949 . S
H2724 C2730 0.950 . S
H2725 C2731 0.950 . S
H2726 C2732 0.949 . S
C2727 H2722 0.950 . S
C2727 C2729 1.327 . S
C2727 C2733 1.429 . S
C2728 C2720 1.574 . S
C2728 H2723 0.949 . S
C2728 C2734 1.368 . S
C2729 C2713 1.349 . S
C2729 H2721 0.950 . S
C2729 C2727 1.327 . S
C2730 C2718 1.349 . S
C2730 H2724 0.950 . S
C2730 C2731 1.327 . S
C2731 H2725 0.950 . S
C2731 C2730 1.327 . S
C2731 C2735 1.429 . S
C2732 C2715 1.574 . S
C2732 H2726 0.949 . S
C2732 C2736 1.368 . S
C2733 C2714 1.429 . S
C2733 C2727 1.429 . S
C2733 C2734 1.523 . S
C2734 C2715 1.368 . S
C2734 C2728 1.368 . S
C2734 C2733 1.523 . S
C2735 C2719 1.429 . S
C2735 C2731 1.429 . S
C2735 C2736 1.523 . S
C2736 C2720 1.368 . S
C2736 C2732 1.368 . S
C2736 C2735 1.523 . S
H2737 C2712 0.950 . S
H2738 C2714 0.950 . S
H2739 C2715 0.949 . S
H2740 C2717 0.950 . S
H2741 C2719 0.950 . S
C2742 C2743 1.349 . S
C2742 C2744 1.327 . S
C2742 H2767 0.950 . S
C2743 C2742 1.349 . S
C2743 C2759 1.349 . S
C2744 C2742 1.327 . S
C2744 C2763 1.424 1_455 S
C2744 H2768 0.950 1_455 S
C2745 C2762 1.574 . S
C2745 C2764 1.368 . S
C2745 H2769 0.949 . S
H2746 C2750 0.949 . S
C2747 C2748 1.349 . S
C2747 C2749 1.327 . S
C2747 H2770 0.950 . S
C2748 C2747 1.349 . S
C2748 C2760 1.349 . S
C2749 C2747 1.327 . S
C2749 C2765 1.429 . S
C2749 H2771 0.950 . S
C2750 H2746 0.949 . S
C2750 C2758 1.574 . S
C2750 C2766 1.368 . S
H2751 C2759 0.950 . S
H2752 C2757 0.950 . S
H2753 C2758 0.949 . S
H2754 C2760 0.950 . S
H2755 C2761 0.950 . S
H2756 C2762 0.949 . S
C2757 H2752 0.950 . S
C2757 C2759 1.327 . S
C2757 C2763 1.418 1_455 S
C2758 C2750 1.574 . S
C2758 H2753 0.949 . S
C2758 C2764 1.368 . S
C2759 C2743 1.349 . S
C2759 H2751 0.950 . S
C2759 C2757 1.327 . S
C2760 C2748 1.349 . S
C2760 H2754 0.950 . S
C2760 C2761 1.327 . S
C2761 H2755 0.950 . S
C2761 C2760 1.327 . S
C2761 C2765 1.429 . S
C2762 C2745 1.574 . S
C2762 H2756 0.949 . S
C2762 C2766 1.368 . S
C2763 C2744 1.424 1_655 S
C2763 C2757 1.418 1_655 S
C2763 C2764 1.537 . S
C2764 C2745 1.368 . S
C2764 C2758 1.368 . S
C2764 C2763 1.537 . S
C2765 C2749 1.429 . S
C2765 C2761 1.429 . S
C2765 C2766 1.523 . S
C2766 C2750 1.368 . S
C2766 C2762 1.368 . S
C2766 C2765 1.523 . S
H2767 C2742 0.950 . S
H2768 C2744 0.950 1_655 S
H2769 C2745 0.949 . S
H2770 C2747 0.950 . S
H2771 C2749 0.950 . S
C2772 C2773 1.349 . S
C2772 C2774 1.327 1_655 S
C2772 H2797 0.950 . S
C2773 C2772 1.349 . S
C2773 C2789 1.349 . S
C2774 C2772 1.327 1_455 S
C2774 C2793 1.433 . S
C2774 H2798 0.950 . S
C2775 C2792 1.574 . S
C2775 C2794 1.368 . S
C2775 H2799 0.949 1_455 S
H2776 C2780 0.949 . S
C2777 C2778 1.349 . S
C2777 C2779 1.327 . S
C2777 H2800 0.950 . S
C2778 C2777 1.349 . S
C2778 C2790 1.349 . S
C2779 C2777 1.327 . S
C2779 C2795 1.429 . S
C2779 H2801 0.950 . S
C2780 H2776 0.949 . S
C2780 C2788 1.574 . S
C2780 C2796 1.368 . S
H2781 C2789 0.950 . S
H2782 C2787 0.950 . S
H2783 C2788 0.949 . S
H2784 C2790 0.950 . S
H2785 C2791 0.950 . S
H2786 C2792 0.949 . S
C2787 H2782 0.950 . S
C2787 C2789 1.327 . S
C2787 C2793 1.411 1_655 S
C2788 C2780 1.574 . S
C2788 H2783 0.949 . S
C2788 C2794 1.368 . S
C2789 C2773 1.349 . S
C2789 H2781 0.950 . S
C2789 C2787 1.327 . S
C2790 C2778 1.349 . S
C2790 H2784 0.950 . S
C2790 C2791 1.327 . S
C2791 H2785 0.950 . S
C2791 C2790 1.327 . S
C2791 C2795 1.429 . S
C2792 C2775 1.574 . S
C2792 H2786 0.949 . S
C2792 C2796 1.368 . S
C2793 C2774 1.433 . S
C2793 C2787 1.411 1_455 S
C2793 C2794 1.535 . S
C2794 C2775 1.368 . S
C2794 C2788 1.368 . S
C2794 C2793 1.535 . S
C2795 C2779 1.429 . S
C2795 C2791 1.429 . S
C2795 C2796 1.523 . S
C2796 C2780 1.368 . S
C2796 C2792 1.368 . S
C2796 C2795 1.523 . S
H2797 C2772 0.950 . S
H2798 C2774 0.950 . S
H2799 C2775 0.949 1_655 S
H2800 C2777 0.950 . S
H2801 C2779 0.950 . S
C2802 C2803 1.349 . S
C2802 C2804 1.327 . S
C2802 H2827 0.950 . S
C2803 C2802 1.349 . S
C2803 C2819 1.349 . S
C2804 C2802 1.327 . S
C2804 C2823 1.429 . S
C2804 H2828 0.950 . S
C2805 C2822 1.574 . S
C2805 C2824 1.368 . S
C2805 H2829 0.949 . S
H2806 C2810 0.949 . S
C2807 C2808 1.349 . S
C2807 C2809 1.327 . S
C2807 H2830 0.950 . S
C2808 C2807 1.349 . S
C2808 C2820 1.349 . S
C2809 C2807 1.327 . S
C2809 C2825 1.429 . S
C2809 H2831 0.950 . S
C2810 H2806 0.949 . S
C2810 C2818 1.574 . S
C2810 C2826 1.368 . S
H2811 C2819 0.950 . S
H2812 C2817 0.950 . S
H2813 C2818 0.949 . S
H2814 C2820 0.950 . S
H2815 C2821 0.950 . S
H2816 C2822 0.949 . S
C2817 H2812 0.950 . S
C2817 C2819 1.327 . S
C2817 C2823 1.429 . S
C2818 C2810 1.574 . S
C2818 H2813 0.949 . S
C2818 C2824 1.368 . S
C2819 C2803 1.349 . S
C2819 H2811 0.950 . S
C2819 C2817 1.327 . S
C2820 C2808 1.349 . S
C2820 H2814 0.950 . S
C2820 C2821 1.327 . S
C2821 H2815 0.950 . S
C2821 C2820 1.327 . S
C2821 C2825 1.429 . S
C2822 C2805 1.574 . S
C2822 H2816 0.949 . S
C2822 C2826 1.368 . S
C2823 C2804 1.429 . S
C2823 C2817 1.429 . S
C2823 C2824 1.523 . S
C2824 C2805 1.368 . S
C2824 C2818 1.368 . S
C2824 C2823 1.523 . S
C2825 C2809 1.429 . S
C2825 C2821 1.429 . S
C2825 C2826 1.523 . S
C2826 C2810 1.368 . S
C2826 C2822 1.368 . S
C2826 C2825 1.523 . S
H2827 C2802 0.950 . S
H2828 C2804 0.950 . S
H2829 C2805 0.949 . S
H2830 C2807 0.950 . S
H2831 C2809 0.950 . S
C2832 C2833 1.349 . S
C2832 C2834 1.327 . S
C2832 H2857 0.950 . S
C2833 C2832 1.349 . S
C2833 C2849 1.349 . S
C2834 C2832 1.327 . S
C2834 C2853 1.429 . S
C2834 H2858 0.950 . S
C2835 C2852 1.574 . S
C2835 C2854 1.368 . S
C2835 H2859 0.949 . S
H2836 C2840 0.949 . S
C2837 C2838 1.349 . S
C2837 C2839 1.327 . S
C2837 H2860 0.950 . S
C2838 C2837 1.349 . S
C2838 C2850 1.349 . S
C2839 C2837 1.327 . S
C2839 C2855 1.429 . S
C2839 H2861 0.950 . S
C2840 H2836 0.949 . S
C2840 C2848 1.574 . S
C2840 C2856 1.368 . S
H2841 C2849 0.950 . S
H2842 C2847 0.950 . S
H2843 C2848 0.949 . S
H2844 C2850 0.950 . S
H2845 C2851 0.950 . S
H2846 C2852 0.949 . S
C2847 H2842 0.950 . S
C2847 C2849 1.327 . S
C2847 C2853 1.429 . S
C2848 C2840 1.574 . S
C2848 H2843 0.949 . S
C2848 C2854 1.368 . S
C2849 C2833 1.349 . S
C2849 H2841 0.950 . S
C2849 C2847 1.327 . S
C2850 C2838 1.349 . S
C2850 H2844 0.950 . S
C2850 C2851 1.327 . S
C2851 H2845 0.950 . S
C2851 C2850 1.327 . S
C2851 C2855 1.429 . S
C2852 C2835 1.574 . S
C2852 H2846 0.949 . S
C2852 C2856 1.368 . S
C2853 C2834 1.429 . S
C2853 C2847 1.429 . S
C2853 C2854 1.523 . S
C2854 C2835 1.368 . S
C2854 C2848 1.368 . S
C2854 C2853 1.523 . S
C2855 C2839 1.429 . S
C2855 C2851 1.429 . S
C2855 C2856 1.523 . S
C2856 C2840 1.368 . S
C2856 C2852 1.368 . S
C2856 C2855 1.523 . S
H2857 C2832 0.950 . S
H2858 C2834 0.950 . S
H2859 C2835 0.949 . S
H2860 C2837 0.950 . S
H2861 C2839 0.950 . S
C2862 C2863 1.349 . S
C2862 C2864 1.327 . S
C2862 H2887 0.950 . S
C2863 C2862 1.349 . S
C2863 C2879 1.349 . S
C2864 C2862 1.327 . S
C2864 C2883 1.429 . S
C2864 H2888 0.950 . S
C2865 C2882 1.574 . S
C2865 C2884 1.368 . S
C2865 H2889 0.949 . S
H2866 C2870 0.949 . S
C2867 C2868 1.349 . S
C2867 C2869 1.327 . S
C2867 H2890 0.950 . S
C2868 C2867 1.349 . S
C2868 C2880 1.349 . S
C2869 C2867 1.327 . S
C2869 C2885 1.429 . S
C2869 H2891 0.950 . S
C2870 H2866 0.949 . S
C2870 C2878 1.574 . S
C2870 C2886 1.368 . S
H2871 C2879 0.950 . S
H2872 C2877 0.950 . S
H2873 C2878 0.949 . S
H2874 C2880 0.950 . S
H2875 C2881 0.950 . S
H2876 C2882 0.949 . S
C2877 H2872 0.950 . S
C2877 C2879 1.327 . S
C2877 C2883 1.429 . S
C2878 C2870 1.574 . S
C2878 H2873 0.949 . S
C2878 C2884 1.368 . S
C2879 C2863 1.349 . S
C2879 H2871 0.950 . S
C2879 C2877 1.327 . S
C2880 C2868 1.349 . S
C2880 H2874 0.950 . S
C2880 C2881 1.327 . S
C2881 H2875 0.950 . S
C2881 C2880 1.327 . S
C2881 C2885 1.429 . S
C2882 C2865 1.574 . S
C2882 H2876 0.949 . S
C2882 C2886 1.368 . S
C2883 C2864 1.429 . S
C2883 C2877 1.429 . S
C2883 C2884 1.523 . S
C2884 C2865 1.368 . S
C2884 C2878 1.368 . S
C2884 C2883 1.523 . S
C2885 C2869 1.429 . S
C2885 C2881 1.429 . S
C2885 C2886 1.523 . S
C2886 C2870 1.368 . S
C2886 C2882 1.368 . S
C2886 C2885 1.523 . S
H2887 C2862 0.950 . S
H2888 C2864 0.950 . S
H2889 C2865 0.949 . S
H2890 C2867 0.950 . S
H2891 C2869 0.950 . S
C2892 C2893 1.349 . S
C2892 C2894 1.327 . S
C2892 H2917 0.950 . S
C2893 C2892 1.349 . S
C2893 C2909 1.349 . S
C2894 C2892 1.327 . S
C2894 C2913 1.429 . S
C2894 H2918 0.950 . S
C2895 C2912 1.574 . S
C2895 C2914 1.368 . S
C2895 H2919 0.949 . S
H2896 C2900 0.949 . S
C2897 C2898 1.349 . S
C2897 C2899 1.327 . S
C2897 H2920 0.950 . S
C2898 C2897 1.349 . S
C2898 C2910 1.349 . S
C2899 C2897 1.327 . S
C2899 C2915 1.429 . S
C2899 H2921 0.950 . S
C2900 H2896 0.949 . S
C2900 C2908 1.574 . S
C2900 C2916 1.368 . S
H2901 C2909 0.950 . S
H2902 C2907 0.950 . S
H2903 C2908 0.949 . S
H2904 C2910 0.950 . S
H2905 C2911 0.950 . S
H2906 C2912 0.949 . S
C2907 H2902 0.950 . S
C2907 C2909 1.327 . S
C2907 C2913 1.429 . S
C2908 C2900 1.574 . S
C2908 H2903 0.949 . S
C2908 C2914 1.368 . S
C2909 C2893 1.349 . S
C2909 H2901 0.950 . S
C2909 C2907 1.327 . S
C2910 C2898 1.349 . S
C2910 H2904 0.950 . S
C2910 C2911 1.327 . S
C2911 H2905 0.950 . S
C2911 C2910 1.327 . S
C2911 C2915 1.429 . S
C2912 C2895 1.574 . S
C2912 H2906 0.949 . S
C2912 C2916 1.368 . S
C2913 C2894 1.429 . S
C2913 C2907 1.429 . S
C2913 C2914 1.523 . S
C2914 C2895 1.368 . S
C2914 C2908 1.368 . S
C2914 C2913 1.523 . S
C2915 C2899 1.429 . S
C2915 C2911 1.429 . S
C2915 C2916 1.523 . S
C2916 C2900 1.368 . S
C2916 C2912 1.368 . S
C2916 C2915 1.523 . S
H2917 C2892 0.950 . S
H2918 C2894 0.950 . S
H2919 C2895 0.949 . S
H2920 C2897 0.950 . S
H2921 C2899 0.950 . S
C2922 C2923 1.349 . S
C2922 C2924 1.327 . S
C2922 H2947 0.950 . S
C2923 C2922 1.349 . S
C2923 C2939 1.349 . S
C2924 C2922 1.327 . S
C2924 C2943 1.429 . S
C2924 H2948 0.950 . S
C2925 C2942 1.574 . S
C2925 C2944 1.368 . S
C2925 H2949 0.949 . S
H2926 C2930 0.949 . S
C2927 C2928 1.349 . S
C2927 C2929 1.327 1_556 S
C2927 H2950 0.950 . S
C2928 C2927 1.349 . S
C2928 C2940 1.349 1_556 S
C2929 C2927 1.327 1_554 S
C2929 C2945 1.429 . S
C2929 H2951 0.950 . S
C2930 H2926 0.949 . S
C2930 C2938 1.574 . S
C2930 C2946 1.368 . S
H2931 C2939 0.950 . S
H2932 C2937 0.950 . S
H2933 C2938 0.949 . S
H2934 C2940 0.950 1_565 S
H2935 C2941 0.950 . S
H2936 C2942 0.949 . S
C2937 H2932 0.950 . S
C2937 C2939 1.327 . S
C2937 C2943 1.429 . S
C2938 C2930 1.574 . S
C2938 H2933 0.949 . S
C2938 C2944 1.368 . S
C2939 C2923 1.349 . S
C2939 H2931 0.950 . S
C2939 C2937 1.327 . S
C2940 C2928 1.349 1_554 S
C2940 H2934 0.950 1_545 S
C2940 C2941 1.327 . S
C2941 H2935 0.950 . S
C2941 C2940 1.327 . S
C2941 C2945 1.429 . S
C2942 C2925 1.574 . S
C2942 H2936 0.949 . S
C2942 C2946 1.368 . S
C2943 C2924 1.429 . S
C2943 C2937 1.429 . S
C2943 C2944 1.523 . S
C2944 C2925 1.368 . S
C2944 C2938 1.368 . S
C2944 C2943 1.523 . S
C2945 C2929 1.429 . S
C2945 C2941 1.429 . S
C2945 C2946 1.523 . S
C2946 C2930 1.368 . S
C2946 C2942 1.368 . S
C2946 C2945 1.523 . S
H2947 C2922 0.950 . S
H2948 C2924 0.950 . S
H2949 C2925 0.949 . S
H2950 C2927 0.950 . S
H2951 C2929 0.950 . S
C2952 C2953 1.349 . S
C2952 C2954 1.327 . S
C2952 H2977 0.950 . S
C2953 C2952 1.349 . S
C2953 C2969 1.349 . S
C2954 C2952 1.327 . S
C2954 C2973 1.429 . S
C2954 H2978 0.950 . S
C2955 C2972 1.574 . S
C2955 C2974 1.368 . S
C2955 H2979 0.949 . S
H2956 C2960 0.949 . S
C2957 C2958 1.349 . S
C2957 C2959 1.327 . S
C2957 H2980 0.950 . S
C2958 C2957 1.349 . S
C2958 C2970 1.349 . S
C2959 C2957 1.327 . S
C2959 C2975 1.429 . S
C2959 H2981 0.950 . S
C2960 H2956 0.949 . S
C2960 C2968 1.574 . S
C2960 C2976 1.368 . S
H2961 C2969 0.950 . S
H2962 C2967 0.950 . S
H2963 C2968 0.949 . S
H2964 C2970 0.950 . S
H2965 C2971 0.950 . S
H2966 C2972 0.949 . S
C2967 H2962 0.950 . S
C2967 C2969 1.327 . S
C2967 C2973 1.429 . S
C2968 C2960 1.574 . S
C2968 H2963 0.949 . S
C2968 C2974 1.368 . S
C2969 C2953 1.349 . S
C2969 H2961 0.950 . S
C2969 C2967 1.327 . S
C2970 C2958 1.349 . S
C2970 H2964 0.950 . S
C2970 C2971 1.327 . S
C2971 H2965 0.950 . S
C2971 C2970 1.327 . S
C2971 C2975 1.429 . S
C2972 C2955 1.574 . S
C2972 H2966 0.949 . S
C2972 C2976 1.368 . S
C2973 C2954 1.429 . S
C2973 C2967 1.429 . S
C2973 C2974 1.523 . S
C2974 C2955 1.368 . S
C2974 C2968 1.368 . S
C2974 C2973 1.523 . S
C2975 C2959 1.429 . S
C2975 C2971 1.429 . S
C2975 C2976 1.523 . S
C2976 C2960 1.368 . S
C2976 C2972 1.368 . S
C2976 C2975 1.523 . S
H2977 C2952 0.950 . S
H2978 C2954 0.950 . S
H2979 C2955 0.949 . S
H2980 C2957 0.950 . S
H2981 C2959 0.950 . S
C2982 C2983 1.349 . S
C2982 C2984 1.327 1_554 S
C2982 H3007 0.950 . S
C2983 C2982 1.349 . S
C2983 C2999 1.349 1_554 S
C2984 C2982 1.327 1_556 S
C2984 C3003 1.429 . S
C2984 H3008 0.950 . S
C2985 C3002 1.574 . S
C2985 C3004 1.368 . S
C2985 H3009 0.949 . S
H2986 C2990 0.949 . S
C2987 C2988 1.349 . S
C2987 C2989 1.327 . S
C2987 H3010 0.950 . S
C2988 C2987 1.349 . S
C2988 C3000 1.349 . S
C2989 C2987 1.327 . S
C2989 C3005 1.429 . S
C2989 H3011 0.950 . S
C2990 H2986 0.949 . S
C2990 C2998 1.574 . S
C2990 C3006 1.368 . S
H2991 C2999 0.950 . S
H2992 C2997 0.950 . S
H2993 C2998 0.949 . S
H2994 C3000 0.950 . S
H2995 C3001 0.950 . S
H2996 C3002 0.949 . S
C2997 H2992 0.950 . S
C2997 C2999 1.327 . S
C2997 C3003 1.429 . S
C2998 C2990 1.574 . S
C2998 H2993 0.949 . S
C2998 C3004 1.368 . S
C2999 C2983 1.349 1_556 S
C2999 H2991 0.950 . S
C2999 C2997 1.327 . S
C3000 C2988 1.349 . S
C3000 H2994 0.950 . S
C3000 C3001 1.327 . S
C3001 H2995 0.950 . S
C3001 C3000 1.327 . S
C3001 C3005 1.429 . S
C3002 C2985 1.574 . S
C3002 H2996 0.949 . S
C3002 C3006 1.368 . S
C3003 C2984 1.429 . S
C3003 C2997 1.429 . S
C3003 C3004 1.523 . S
C3004 C2985 1.368 . S
C3004 C2998 1.368 . S
C3004 C3003 1.523 . S
C3005 C2989 1.429 . S
C3005 C3001 1.429 . S
C3005 C3006 1.523 . S
C3006 C2990 1.368 . S
C3006 C3002 1.368 . S
C3006 C3005 1.523 . S
H3007 C2982 0.950 . S
H3008 C2984 0.950 . S
H3009 C2985 0.949 . S
H3010 C2987 0.950 . S
H3011 C2989 0.950 . S
C3012 C3013 1.349 . S
C3012 C3014 1.327 . S
C3012 H3037 0.950 . S
C3013 C3012 1.349 . S
C3013 C3029 1.349 . S
C3014 C3012 1.327 . S
C3014 C3033 1.429 . S
C3014 H3038 0.950 . S
C3015 C3032 1.574 . S
C3015 C3034 1.368 . S
C3015 H3039 0.949 . S
H3016 C3020 0.949 . S
C3017 C3018 1.349 . S
C3017 C3019 1.327 . S
C3017 H3040 0.950 . S
C3018 C3017 1.349 . S
C3018 C3030 1.349 . S
C3019 C3017 1.327 . S
C3019 C3035 1.429 . S
C3019 H3041 0.950 . S
C3020 H3016 0.949 . S
C3020 C3028 1.574 . S
C3020 C3036 1.368 . S
H3021 C3029 0.950 . S
H3022 C3027 0.950 . S
H3023 C3028 0.949 . S
H3024 C3030 0.950 . S
H3025 C3031 0.950 . S
H3026 C3032 0.949 . S
C3027 H3022 0.950 . S
C3027 C3029 1.327 . S
C3027 C3033 1.429 . S
C3028 C3020 1.574 . S
C3028 H3023 0.949 . S
C3028 C3034 1.368 . S
C3029 C3013 1.349 . S
C3029 H3021 0.950 . S
C3029 C3027 1.327 . S
C3030 C3018 1.349 . S
C3030 H3024 0.950 . S
C3030 C3031 1.327 . S
C3031 H3025 0.950 . S
C3031 C3030 1.327 . S
C3031 C3035 1.429 . S
C3032 C3015 1.574 . S
C3032 H3026 0.949 . S
C3032 C3036 1.368 . S
C3033 C3014 1.429 . S
C3033 C3027 1.429 . S
C3033 C3034 1.523 . S
C3034 C3015 1.368 . S
C3034 C3028 1.368 . S
C3034 C3033 1.523 . S
C3035 C3019 1.429 . S
C3035 C3031 1.429 . S
C3035 C3036 1.523 . S
C3036 C3020 1.368 . S
C3036 C3032 1.368 . S
C3036 C3035 1.523 . S
H3037 C3012 0.950 . S
H3038 C3014 0.950 . S
H3039 C3015 0.949 . S
H3040 C3017 0.950 . S
H3041 C3019 0.950 . S
C3042 C3043 1.349 . S
C3042 C3044 1.327 . S
C3042 H3067 0.950 . S
C3043 C3042 1.349 . S
C3043 C3059 1.349 . S
C3044 C3042 1.327 . S
C3044 C3063 1.429 . S
C3044 H3068 0.950 . S
C3045 C3062 1.574 . S
C3045 C3064 1.368 . S
C3045 H3069 0.949 . S
H3046 C3050 0.949 . S
C3047 C3048 1.349 . S
C3047 C3049 1.327 . S
C3047 H3070 0.950 . S
C3048 C3047 1.349 . S
C3048 C3060 1.349 . S
C3049 C3047 1.327 . S
C3049 C3065 1.429 . S
C3049 H3071 0.950 . S
C3050 H3046 0.949 . S
C3050 C3058 1.574 . S
C3050 C3066 1.368 . S
H3051 C3059 0.950 . S
H3052 C3057 0.950 . S
H3053 C3058 0.949 . S
H3054 C3060 0.950 . S
H3055 C3061 0.950 . S
H3056 C3062 0.949 . S
C3057 H3052 0.950 . S
C3057 C3059 1.327 . S
C3057 C3063 1.429 . S
C3058 C3050 1.574 . S
C3058 H3053 0.949 . S
C3058 C3064 1.368 . S
C3059 C3043 1.349 . S
C3059 H3051 0.950 . S
C3059 C3057 1.327 . S
C3060 C3048 1.349 . S
C3060 H3054 0.950 . S
C3060 C3061 1.327 . S
C3061 H3055 0.950 . S
C3061 C3060 1.327 . S
C3061 C3065 1.429 . S
C3062 C3045 1.574 . S
C3062 H3056 0.949 . S
C3062 C3066 1.368 . S
C3063 C3044 1.429 . S
C3063 C3057 1.429 . S
C3063 C3064 1.523 . S
C3064 C3045 1.368 . S
C3064 C3058 1.368 . S
C3064 C3063 1.523 . S
C3065 C3049 1.429 . S
C3065 C3061 1.429 . S
C3065 C3066 1.523 . S
C3066 C3050 1.368 . S
C3066 C3062 1.368 . S
C3066 C3065 1.523 . S
H3067 C3042 0.950 . S
H3068 C3044 0.950 . S
H3069 C3045 0.949 . S
H3070 C3047 0.950 . S
H3071 C3049 0.950 . S
C3072 C3073 1.349 . S
C3072 C3074 1.327 . S
C3072 H3097 0.950 . S
C3073 C3072 1.349 . S
C3073 C3089 1.349 . S
C3074 C3072 1.327 . S
C3074 C3093 1.429 . S
C3074 H3098 0.950 . S
C3075 C3092 1.574 . S
C3075 C3094 1.368 . S
C3075 H3099 0.949 . S
H3076 C3080 0.949 . S
C3077 C3078 1.349 . S
C3077 C3079 1.327 . S
C3077 H3100 0.950 . S
C3078 C3077 1.349 . S
C3078 C3090 1.349 . S
C3079 C3077 1.327 . S
C3079 C3095 1.429 . S
C3079 H3101 0.950 . S
C3080 H3076 0.949 . S
C3080 C3088 1.574 . S
C3080 C3096 1.368 . S
H3081 C3089 0.950 . S
H3082 C3087 0.950 . S
H3083 C3088 0.949 . S
H3084 C3090 0.950 . S
H3085 C3091 0.950 . S
H3086 C3092 0.949 . S
C3087 H3082 0.950 . S
C3087 C3089 1.327 . S
C3087 C3093 1.429 . S
C3088 C3080 1.574 . S
C3088 H3083 0.949 . S
C3088 C3094 1.368 . S
C3089 C3073 1.349 . S
C3089 H3081 0.950 . S
C3089 C3087 1.327 . S
C3090 C3078 1.349 . S
C3090 H3084 0.950 . S
C3090 C3091 1.327 . S
C3091 H3085 0.950 . S
C3091 C3090 1.327 . S
C3091 C3095 1.429 . S
C3092 C3075 1.574 . S
C3092 H3086 0.949 . S
C3092 C3096 1.368 . S
C3093 C3074 1.429 . S
C3093 C3087 1.429 . S
C3093 C3094 1.523 . S
C3094 C3075 1.368 . S
C3094 C3088 1.368 . S
C3094 C3093 1.523 . S
C3095 C3079 1.429 . S
C3095 C3091 1.429 . S
C3095 C3096 1.523 . S
C3096 C3080 1.368 . S
C3096 C3092 1.368 . S
C3096 C3095 1.523 . S
H3097 C3072 0.950 . S
H3098 C3074 0.950 . S
H3099 C3075 0.949 . S
H3100 C3077 0.950 . S
H3101 C3079 0.950 . S
C3102 C3103 1.349 1_545 S
C3102 C3104 1.327 . S
C3102 H3127 0.950 1_455 S
C3103 C3102 1.349 1_565 S
C3103 C3119 1.349 . S
C3104 C3102 1.327 . S
C3104 C3123 1.429 . S
C3104 H3128 0.950 . S
C3105 C3122 1.574 . S
C3105 C3124 1.368 . S
C3105 H3129 0.949 . S
H3106 C3110 0.949 . S
C3107 C3108 1.349 . S
C3107 C3109 1.327 . S
C3107 H3130 0.950 . S
C3108 C3107 1.349 . S
C3108 C3120 1.349 . S
C3109 C3107 1.327 . S
C3109 C3125 1.429 . S
C3109 H3131 0.950 . S
C3110 H3106 0.949 . S
C3110 C3118 1.574 . S
C3110 C3126 1.368 . S
H3111 C3119 0.950 . S
H3112 C3117 0.950 . S
H3113 C3118 0.949 . S
H3114 C3120 0.950 . S
H3115 C3121 0.950 . S
H3116 C3122 0.949 . S
C3117 H3112 0.950 . S
C3117 C3119 1.327 1_545 S
C3117 C3123 1.429 . S
C3118 C3110 1.574 . S
C3118 H3113 0.949 . S
C3118 C3124 1.368 . S
C3119 C3103 1.349 . S
C3119 H3111 0.950 . S
C3119 C3117 1.327 1_565 S
C3120 C3108 1.349 . S
C3120 H3114 0.950 . S
C3120 C3121 1.327 . S
C3121 H3115 0.950 . S
C3121 C3120 1.327 . S
C3121 C3125 1.429 . S
C3122 C3105 1.574 . S
C3122 H3116 0.949 . S
C3122 C3126 1.368 . S
C3123 C3104 1.429 . S
C3123 C3117 1.429 . S
C3123 C3124 1.523 . S
C3124 C3105 1.368 . S
C3124 C3118 1.368 . S
C3124 C3123 1.523 . S
C3125 C3109 1.429 . S
C3125 C3121 1.429 . S
C3125 C3126 1.523 . S
C3126 C3110 1.368 . S
C3126 C3122 1.368 . S
C3126 C3125 1.523 . S
H3127 C3102 0.950 1_655 S
H3128 C3104 0.950 . S
H3129 C3105 0.949 . S
H3130 C3107 0.950 . S
H3131 C3109 0.950 . S
C3132 C3133 1.349 . S
C3132 C3134 1.327 . S
C3132 H3157 0.950 . S
C3133 C3132 1.349 . S
C3133 C3149 1.349 . S
C3134 C3132 1.327 . S
C3134 C3153 1.429 . S
C3134 H3158 0.950 . S
C3135 C3152 1.574 . S
C3135 C3154 1.368 . S
C3135 H3159 0.949 . S
H3136 C3140 0.949 . S
C3137 C3138 1.349 . S
C3137 C3139 1.327 . S
C3137 H3160 0.950 . S
C3138 C3137 1.349 . S
C3138 C3150 1.349 . S
C3139 C3137 1.327 . S
C3139 C3155 1.429 . S
C3139 H3161 0.950 . S
C3140 H3136 0.949 . S
C3140 C3148 1.574 . S
C3140 C3156 1.368 . S
H3141 C3149 0.950 . S
H3142 C3147 0.950 . S
H3143 C3148 0.949 . S
H3144 C3150 0.950 . S
H3145 C3151 0.950 . S
H3146 C3152 0.949 . S
C3147 H3142 0.950 . S
C3147 C3149 1.327 . S
C3147 C3153 1.429 . S
C3148 C3140 1.574 . S
C3148 H3143 0.949 . S
C3148 C3154 1.368 . S
C3149 C3133 1.349 . S
C3149 H3141 0.950 . S
C3149 C3147 1.327 . S
C3150 C3138 1.349 . S
C3150 H3144 0.950 . S
C3150 C3151 1.327 . S
C3151 H3145 0.950 . S
C3151 C3150 1.327 . S
C3151 C3155 1.429 . S
C3152 C3135 1.574 . S
C3152 H3146 0.949 . S
C3152 C3156 1.368 . S
C3153 C3134 1.429 . S
C3153 C3147 1.429 . S
C3153 C3154 1.523 . S
C3154 C3135 1.368 . S
C3154 C3148 1.368 . S
C3154 C3153 1.523 . S
C3155 C3139 1.429 . S
C3155 C3151 1.429 . S
C3155 C3156 1.523 . S
C3156 C3140 1.368 . S
C3156 C3152 1.368 . S
C3156 C3155 1.523 . S
H3157 C3132 0.950 . S
H3158 C3134 0.950 . S
H3159 C3135 0.949 . S
H3160 C3137 0.950 . S
H3161 C3139 0.950 . S
C3162 C3163 1.349 1_565 S
C3162 C3164 1.327 . S
C3162 H3187 0.950 . S
C3163 C3162 1.349 1_545 S
C3163 C3179 1.350 1_545 S
C3164 C3162 1.327 . S
C3164 C3183 1.429 . S
C3164 H3188 0.950 . S
C3165 C3182 1.574 . S
C3165 C3184 1.368 . S
C3165 H3189 0.949 . S
H3166 C3170 0.949 . S
C3167 C3168 1.349 . S
C3167 C3169 1.327 . S
C3167 H3190 0.950 . S
C3168 C3167 1.349 . S
C3168 C3180 1.349 . S
C3169 C3167 1.327 . S
C3169 C3185 1.429 . S
C3169 H3191 0.950 . S
C3170 H3166 0.949 . S
C3170 C3178 1.574 . S
C3170 C3186 1.368 . S
H3171 C3179 0.955 1_545 S
H3172 C3177 0.950 . S
H3173 C3178 0.949 . S
H3174 C3180 0.950 . S
H3175 C3181 0.950 . S
H3176 C3182 0.949 . S
C3177 H3172 0.950 . S
C3177 C3179 1.321 . S
C3177 C3183 1.429 . S
C3178 C3170 1.574 . S
C3178 H3173 0.949 . S
C3178 C3184 1.368 . S
C3179 C3163 1.350 1_565 S
C3179 H3171 0.955 1_565 S
C3179 C3177 1.321 . S
C3180 C3168 1.349 . S
C3180 H3174 0.950 . S
C3180 C3181 1.327 . S
C3181 H3175 0.950 . S
C3181 C3180 1.327 . S
C3181 C3185 1.429 . S
C3182 C3165 1.574 . S
C3182 H3176 0.949 . S
C3182 C3186 1.368 . S
C3183 C3164 1.429 . S
C3183 C3177 1.429 . S
C3183 C3184 1.523 . S
C3184 C3165 1.368 . S
C3184 C3178 1.368 . S
C3184 C3183 1.523 . S
C3185 C3169 1.429 . S
C3185 C3181 1.429 . S
C3185 C3186 1.523 . S
C3186 C3170 1.368 . S
C3186 C3182 1.368 . S
C3186 C3185 1.523 . S
H3187 C3162 0.950 . S
H3188 C3164 0.950 . S
H3189 C3165 0.949 . S
H3190 C3167 0.950 . S
H3191 C3169 0.950 . S
C3192 C3193 1.349 . S
C3192 C3194 1.327 . S
C3192 H3217 0.950 . S
C3193 C3192 1.349 . S
C3193 C3209 1.349 . S
C3194 C3192 1.327 . S
C3194 C3213 1.429 . S
C3194 H3218 0.950 . S
C3195 C3212 1.574 . S
C3195 C3214 1.368 . S
C3195 H3219 0.949 . S
H3196 C3200 0.949 . S
C3197 C3198 1.349 . S
C3197 C3199 1.327 . S
C3197 H3220 0.950 . S
C3198 C3197 1.349 . S
C3198 C3210 1.349 . S
C3199 C3197 1.327 . S
C3199 C3215 1.429 . S
C3199 H3221 0.950 . S
C3200 H3196 0.949 . S
C3200 C3208 1.574 . S
C3200 C3216 1.368 . S
H3201 C3209 0.950 . S
H3202 C3207 0.950 . S
H3203 C3208 0.949 . S
H3204 C3210 0.950 . S
H3205 C3211 0.950 . S
H3206 C3212 0.949 . S
C3207 H3202 0.950 . S
C3207 C3209 1.327 . S
C3207 C3213 1.429 . S
C3208 C3200 1.574 . S
C3208 H3203 0.949 . S
C3208 C3214 1.368 . S
C3209 C3193 1.349 . S
C3209 H3201 0.950 . S
C3209 C3207 1.327 . S
C3210 C3198 1.349 . S
C3210 H3204 0.950 . S
C3210 C3211 1.327 . S
C3211 H3205 0.950 . S
C3211 C3210 1.327 . S
C3211 C3215 1.429 . S
C3212 C3195 1.574 . S
C3212 H3206 0.949 . S
C3212 C3216 1.368 . S
C3213 C3194 1.429 . S
C3213 C3207 1.429 . S
C3213 C3214 1.523 . S
C3214 C3195 1.368 . S
C3214 C3208 1.368 . S
C3214 C3213 1.523 . S
C3215 C3199 1.429 . S
C3215 C3211 1.429 . S
C3215 C3216 1.523 . S
C3216 C3200 1.368 . S
C3216 C3212 1.368 . S
C3216 C3215 1.523 . S
H3217 C3192 0.950 . S
H3218 C3194 0.950 . S
H3219 C3195 0.949 . S
H3220 C3197 0.950 . S
H3221 C3199 0.950 . S
C3222 C3223 1.349 . S
C3222 C3224 1.327 . S
C3222 H3247 0.950 . S
C3223 C3222 1.349 . S
C3223 C3239 1.349 . S
C3224 C3222 1.327 . S
C3224 C3243 1.429 . S
C3224 H3248 0.950 . S
C3225 C3242 1.574 . S
C3225 C3244 1.368 . S
C3225 H3249 0.949 . S
H3226 C3230 0.949 . S
C3227 C3228 1.349 . S
C3227 C3229 1.327 . S
C3227 H3250 0.950 . S
C3228 C3227 1.349 . S
C3228 C3240 1.349 . S
C3229 C3227 1.327 . S
C3229 C3245 1.429 . S
C3229 H3251 0.950 . S
C3230 H3226 0.949 . S
C3230 C3238 1.574 . S
C3230 C3246 1.368 . S
H3231 C3239 0.950 1_455 S
H3232 C3237 0.950 . S
H3233 C3238 0.949 . S
H3234 C3240 0.950 . S
H3235 C3241 0.950 . S
H3236 C3242 0.949 . S
C3237 H3232 0.950 . S
C3237 C3239 1.327 . S
C3237 C3243 1.429 . S
C3238 C3230 1.574 . S
C3238 H3233 0.949 . S
C3238 C3244 1.368 . S
C3239 C3223 1.349 . S
C3239 H3231 0.950 1_655 S
C3239 C3237 1.327 . S
C3240 C3228 1.349 . S
C3240 H3234 0.950 . S
C3240 C3241 1.327 . S
C3241 H3235 0.950 . S
C3241 C3240 1.327 . S
C3241 C3245 1.429 . S
C3242 C3225 1.574 . S
C3242 H3236 0.949 . S
C3242 C3246 1.368 . S
C3243 C3224 1.429 . S
C3243 C3237 1.429 . S
C3243 C3244 1.523 . S
C3244 C3225 1.368 . S
C3244 C3238 1.368 . S
C3244 C3243 1.523 . S
C3245 C3229 1.429 . S
C3245 C3241 1.429 . S
C3245 C3246 1.523 . S
C3246 C3230 1.368 . S
C3246 C3242 1.368 . S
C3246 C3245 1.523 . S
H3247 C3222 0.950 . S
H3248 C3224 0.950 . S
H3249 C3225 0.949 . S
H3250 C3227 0.950 . S
H3251 C3229 0.950 . S
C3252 C3253 1.349 . S
C3252 C3254 1.327 . S
C3252 H3277 0.950 . S
C3253 C3252 1.349 . S
C3253 C3269 1.349 . S
C3254 C3252 1.327 . S
C3254 C3273 1.429 . S
C3254 H3278 0.950 . S
C3255 C3272 1.574 . S
C3255 C3274 1.368 . S
C3255 H3279 0.949 . S
H3256 C3260 0.949 . S
C3257 C3258 1.349 . S
C3257 C3259 1.327 . S
C3257 H3280 0.950 . S
C3258 C3257 1.349 . S
C3258 C3270 1.349 . S
C3259 C3257 1.327 . S
C3259 C3275 1.429 . S
C3259 H3281 0.950 . S
C3260 H3256 0.949 . S
C3260 C3268 1.574 . S
C3260 C3276 1.368 . S
H3261 C3269 0.950 . S
H3262 C3267 0.950 . S
H3263 C3268 0.949 . S
H3264 C3270 0.950 . S
H3265 C3271 0.950 . S
H3266 C3272 0.949 . S
C3267 H3262 0.950 . S
C3267 C3269 1.327 . S
C3267 C3273 1.429 . S
C3268 C3260 1.574 . S
C3268 H3263 0.949 . S
C3268 C3274 1.368 . S
C3269 C3253 1.349 . S
C3269 H3261 0.950 . S
C3269 C3267 1.327 . S
C3270 C3258 1.349 . S
C3270 H3264 0.950 . S
C3270 C3271 1.327 . S
C3271 H3265 0.950 . S
C3271 C3270 1.327 . S
C3271 C3275 1.429 . S
C3272 C3255 1.574 . S
C3272 H3266 0.949 . S
C3272 C3276 1.368 . S
C3273 C3254 1.429 . S
C3273 C3267 1.429 . S
C3273 C3274 1.523 . S
C3274 C3255 1.368 . S
C3274 C3268 1.368 . S
C3274 C3273 1.523 . S
C3275 C3259 1.429 . S
C3275 C3271 1.429 . S
C3275 C3276 1.523 . S
C3276 C3260 1.368 . S
C3276 C3272 1.368 . S
C3276 C3275 1.523 . S
H3277 C3252 0.950 . S
H3278 C3254 0.950 . S
H3279 C3255 0.949 . S
H3280 C3257 0.950 . S
H3281 C3259 0.950 . S
C3282 C3283 1.349 . S
C3282 C3284 1.327 . S
C3282 H3307 0.950 . S
C3283 C3282 1.349 . S
C3283 C3299 1.349 . S
C3284 C3282 1.327 . S
C3284 C3303 1.429 . S
C3284 H3308 0.950 . S
C3285 C3302 1.574 . S
C3285 C3304 1.368 . S
C3285 H3309 0.949 . S
H3286 C3290 0.949 . S
C3287 C3288 1.349 . S
C3287 C3289 1.327 . S
C3287 H3310 0.950 . S
C3288 C3287 1.349 . S
C3288 C3300 1.349 . S
C3289 C3287 1.327 . S
C3289 C3305 1.429 . S
C3289 H3311 0.950 . S
C3290 H3286 0.949 . S
C3290 C3298 1.574 . S
C3290 C3306 1.368 . S
H3291 C3299 0.950 . S
H3292 C3297 0.950 . S
H3293 C3298 0.949 . S
H3294 C3300 0.950 . S
H3295 C3301 0.950 . S
H3296 C3302 0.949 . S
C3297 H3292 0.950 . S
C3297 C3299 1.327 . S
C3297 C3303 1.429 . S
C3298 C3290 1.574 . S
C3298 H3293 0.949 . S
C3298 C3304 1.368 . S
C3299 C3283 1.349 . S
C3299 H3291 0.950 . S
C3299 C3297 1.327 . S
C3300 C3288 1.349 . S
C3300 H3294 0.950 . S
C3300 C3301 1.327 . S
C3301 H3295 0.950 . S
C3301 C3300 1.327 . S
C3301 C3305 1.429 . S
C3302 C3285 1.574 . S
C3302 H3296 0.949 . S
C3302 C3306 1.368 . S
C3303 C3284 1.429 . S
C3303 C3297 1.429 . S
C3303 C3304 1.523 . S
C3304 C3285 1.368 . S
C3304 C3298 1.368 . S
C3304 C3303 1.523 . S
C3305 C3289 1.429 . S
C3305 C3301 1.429 . S
C3305 C3306 1.523 . S
C3306 C3290 1.368 . S
C3306 C3302 1.368 . S
C3306 C3305 1.523 . S
H3307 C3282 0.950 . S
H3308 C3284 0.950 . S
H3309 C3285 0.949 . S
H3310 C3287 0.950 . S
H3311 C3289 0.950 . S
C3312 C3313 1.349 . S
C3312 C3314 1.327 . S
C3312 H3337 0.950 . S
C3313 C3312 1.349 . S
C3313 C3329 1.349 . S
C3314 C3312 1.327 . S
C3314 C3333 1.429 . S
C3314 H3338 0.950 . S
C3315 C3332 1.574 . S
C3315 C3334 1.368 . S
C3315 H3339 0.949 . S
H3316 C3320 0.949 . S
C3317 C3318 1.349 . S
C3317 C3319 1.327 . S
C3317 H3340 0.950 . S
C3318 C3317 1.349 . S
C3318 C3330 1.349 . S
C3319 C3317 1.327 . S
C3319 C3335 1.429 . S
C3319 H3341 0.950 . S
C3320 H3316 0.949 . S
C3320 C3328 1.574 . S
C3320 C3336 1.368 . S
H3321 C3329 0.950 . S
H3322 C3327 0.950 . S
H3323 C3328 0.949 . S
H3324 C3330 0.950 . S
H3325 C3331 0.950 . S
H3326 C3332 0.949 . S
C3327 H3322 0.950 . S
C3327 C3329 1.327 . S
C3327 C3333 1.429 . S
C3328 C3320 1.574 . S
C3328 H3323 0.949 . S
C3328 C3334 1.368 . S
C3329 C3313 1.349 . S
C3329 H3321 0.950 . S
C3329 C3327 1.327 . S
C3330 C3318 1.349 . S
C3330 H3324 0.950 . S
C3330 C3331 1.327 . S
C3331 H3325 0.950 . S
C3331 C3330 1.327 . S
C3331 C3335 1.429 . S
C3332 C3315 1.574 . S
C3332 H3326 0.949 . S
C3332 C3336 1.368 . S
C3333 C3314 1.429 . S
C3333 C3327 1.429 . S
C3333 C3334 1.523 . S
C3334 C3315 1.368 . S
C3334 C3328 1.368 . S
C3334 C3333 1.523 . S
C3335 C3319 1.429 . S
C3335 C3331 1.429 . S
C3335 C3336 1.523 . S
C3336 C3320 1.368 . S
C3336 C3332 1.368 . S
C3336 C3335 1.523 . S
H3337 C3312 0.950 . S
H3338 C3314 0.950 . S
H3339 C3315 0.949 . S
H3340 C3317 0.950 . S
H3341 C3319 0.950 . S
C3342 C3343 1.349 . S
C3342 C3344 1.327 . S
C3342 H3367 0.950 . S
C3343 C3342 1.349 . S
C3343 C3359 1.349 . S
C3344 C3342 1.327 . S
C3344 C3363 1.429 . S
C3344 H3368 0.950 . S
C3345 C3362 1.574 . S
C3345 C3364 1.368 . S
C3345 H3369 0.949 . S
H3346 C3350 0.949 . S
C3347 C3348 1.349 . S
C3347 C3349 1.327 . S
C3347 H3370 0.950 . S
C3348 C3347 1.349 . S
C3348 C3360 1.349 . S
C3349 C3347 1.327 . S
C3349 C3365 1.429 . S
C3349 H3371 0.950 . S
C3350 H3346 0.949 . S
C3350 C3358 1.574 . S
C3350 C3366 1.368 . S
H3351 C3359 0.950 . S
H3352 C3357 0.950 . S
H3353 C3358 0.949 . S
H3354 C3360 0.950 . S
H3355 C3361 0.950 . S
H3356 C3362 0.949 . S
C3357 H3352 0.950 . S
C3357 C3359 1.327 . S
C3357 C3363 1.429 . S
C3358 C3350 1.574 . S
C3358 H3353 0.949 . S
C3358 C3364 1.368 . S
C3359 C3343 1.349 . S
C3359 H3351 0.950 . S
C3359 C3357 1.327 . S
C3360 C3348 1.349 . S
C3360 H3354 0.950 . S
C3360 C3361 1.327 . S
C3361 H3355 0.950 . S
C3361 C3360 1.327 . S
C3361 C3365 1.429 . S
C3362 C3345 1.574 . S
C3362 H3356 0.949 . S
C3362 C3366 1.368 . S
C3363 C3344 1.429 . S
C3363 C3357 1.429 . S
C3363 C3364 1.523 . S
C3364 C3345 1.368 . S
C3364 C3358 1.368 . S
C3364 C3363 1.523 . S
C3365 C3349 1.429 . S
C3365 C3361 1.429 . S
C3365 C3366 1.523 . S
C3366 C3350 1.368 . S
C3366 C3362 1.368 . S
C3366 C3365 1.523 . S
H3367 C3342 0.950 . S
H3368 C3344 0.950 . S
H3369 C3345 0.949 . S
H3370 C3347 0.950 . S
H3371 C3349 0.950 . S
C3372 C3373 1.360 . S
C3372 C3374 1.327 . S
C3372 H3397 0.914 1_554 S
C3373 C3372 1.360 . S
C3373 C3389 1.358 . S
C3374 C3372 1.327 . S
C3374 C3393 1.429 . S
C3374 H3398 0.950 . S
C3375 C3392 1.574 . S
C3375 C3394 1.368 . S
C3375 H3399 0.949 . S
H3376 C3380 0.949 . S
C3377 C3378 1.349 . S
C3377 C3379 1.327 . S
C3377 H3400 0.950 . S
C3378 C3377 1.349 . S
C3378 C3390 1.349 . S
C3379 C3377 1.327 . S
C3379 C3395 1.429 . S
C3379 H3401 0.950 . S
C3380 H3376 0.949 . S
C3380 C3388 1.574 . S
C3380 C3396 1.368 . S
H3381 C3389 0.982 . S
H3382 C3387 0.950 . S
H3383 C3388 0.949 . S
H3384 C3390 0.950 . S
H3385 C3391 0.950 . S
H3386 C3392 0.949 . S
C3387 H3382 0.950 . S
C3387 C3389 1.327 . S
C3387 C3393 1.429 . S
C3388 C3380 1.574 . S
C3388 H3383 0.949 . S
C3388 C3394 1.368 . S
C3389 C3373 1.358 . S
C3389 H3381 0.982 . S
C3389 C3387 1.327 . S
C3390 C3378 1.349 . S
C3390 H3384 0.950 . S
C3390 C3391 1.327 . S
C3391 H3385 0.950 . S
C3391 C3390 1.327 . S
C3391 C3395 1.429 . S
C3392 C3375 1.574 . S
C3392 H3386 0.949 . S
C3392 C3396 1.368 . S
C3393 C3374 1.429 . S
C3393 C3387 1.429 . S
C3393 C3394 1.523 . S
C3394 C3375 1.368 . S
C3394 C3388 1.368 . S
C3394 C3393 1.523 . S
C3395 C3379 1.429 . S
C3395 C3391 1.429 . S
C3395 C3396 1.523 . S
C3396 C3380 1.368 . S
C3396 C3392 1.368 . S
C3396 C3395 1.523 . S
H3397 C3372 0.914 1_556 S
H3398 C3374 0.950 . S
H3399 C3375 0.949 . S
H3400 C3377 0.950 . S
H3401 C3379 0.950 . S
C3402 C3403 1.349 . S
C3402 C3404 1.327 . S
C3402 H3427 0.950 . S
C3403 C3402 1.349 . S
C3403 C3419 1.349 . S
C3404 C3402 1.327 . S
C3404 C3423 1.429 . S
C3404 H3428 0.950 . S
C3405 C3422 1.574 . S
C3405 C3424 1.368 . S
C3405 H3429 0.949 . S
H3406 C3410 0.949 . S
C3407 C3408 1.349 . S
C3407 C3409 1.327 . S
C3407 H3430 0.950 . S
C3408 C3407 1.349 . S
C3408 C3420 1.349 . S
C3409 C3407 1.327 . S
C3409 C3425 1.429 . S
C3409 H3431 0.950 . S
C3410 H3406 0.949 . S
C3410 C3418 1.574 . S
C3410 C3426 1.368 . S
H3411 C3419 0.950 . S
H3412 C3417 0.950 . S
H3413 C3418 0.949 . S
H3414 C3420 0.950 . S
H3415 C3421 0.950 . S
H3416 C3422 0.949 . S
C3417 H3412 0.950 . S
C3417 C3419 1.327 . S
C3417 C3423 1.429 . S
C3418 C3410 1.574 . S
C3418 H3413 0.949 . S
C3418 C3424 1.368 . S
C3419 C3403 1.349 . S
C3419 H3411 0.950 . S
C3419 C3417 1.327 . S
C3420 C3408 1.349 . S
C3420 H3414 0.950 . S
C3420 C3421 1.327 . S
C3421 H3415 0.950 . S
C3421 C3420 1.327 . S
C3421 C3425 1.429 . S
C3422 C3405 1.574 . S
C3422 H3416 0.949 . S
C3422 C3426 1.368 . S
C3423 C3404 1.429 . S
C3423 C3417 1.429 . S
C3423 C3424 1.523 . S
C3424 C3405 1.368 . S
C3424 C3418 1.368 . S
C3424 C3423 1.523 . S
C3425 C3409 1.429 . S
C3425 C3421 1.429 . S
C3425 C3426 1.523 . S
C3426 C3410 1.368 . S
C3426 C3422 1.368 . S
C3426 C3425 1.523 . S
H3427 C3402 0.950 . S
H3428 C3404 0.950 . S
H3429 C3405 0.949 . S
H3430 C3407 0.950 . S
H3431 C3409 0.950 . S
C3432 C3433 1.349 . S
C3432 C3434 1.327 . S
C3432 H3457 0.950 . S
C3433 C3432 1.349 . S
C3433 C3449 1.349 . S
C3434 C3432 1.327 . S
C3434 C3453 1.429 . S
C3434 H3458 0.950 . S
C3435 C3452 1.574 . S
C3435 C3454 1.368 . S
C3435 H3459 0.949 . S
H3436 C3440 0.949 . S
C3437 C3438 1.349 . S
C3437 C3439 1.327 . S
C3437 H3460 0.950 . S
C3438 C3437 1.349 . S
C3438 C3450 1.349 . S
C3439 C3437 1.327 . S
C3439 C3455 1.429 . S
C3439 H3461 0.950 . S
C3440 H3436 0.949 . S
C3440 C3448 1.574 . S
C3440 C3456 1.368 . S
H3441 C3449 0.950 . S
H3442 C3447 0.950 . S
H3443 C3448 0.949 . S
H3444 C3450 0.950 . S
H3445 C3451 0.950 . S
H3446 C3452 0.949 . S
C3447 H3442 0.950 . S
C3447 C3449 1.327 . S
C3447 C3453 1.429 . S
C3448 C3440 1.574 . S
C3448 H3443 0.949 . S
C3448 C3454 1.368 . S
C3449 C3433 1.349 . S
C3449 H3441 0.950 . S
C3449 C3447 1.327 . S
C3450 C3438 1.349 . S
C3450 H3444 0.950 . S
C3450 C3451 1.327 . S
C3451 H3445 0.950 . S
C3451 C3450 1.327 . S
C3451 C3455 1.429 . S
C3452 C3435 1.574 . S
C3452 H3446 0.949 . S
C3452 C3456 1.368 . S
C3453 C3434 1.429 . S
C3453 C3447 1.429 . S
C3453 C3454 1.523 . S
C3454 C3435 1.368 . S
C3454 C3448 1.368 . S
C3454 C3453 1.523 . S
C3455 C3439 1.429 . S
C3455 C3451 1.429 . S
C3455 C3456 1.523 . S
C3456 C3440 1.368 . S
C3456 C3452 1.368 . S
C3456 C3455 1.523 . S
H3457 C3432 0.950 . S
H3458 C3434 0.950 . S
H3459 C3435 0.949 . S
H3460 C3437 0.950 . S
H3461 C3439 0.950 . S
C3462 C3463 1.349 . S
C3462 C3464 1.327 . S
C3462 H3487 0.950 . S
C3463 C3462 1.349 . S
C3463 C3479 1.349 . S
C3464 C3462 1.327 . S
C3464 C3483 1.429 . S
C3464 H3488 0.950 . S
C3465 C3482 1.574 . S
C3465 C3484 1.368 . S
C3465 H3489 0.949 . S
H3466 C3470 0.949 . S
C3467 C3468 1.349 . S
C3467 C3469 1.327 . S
C3467 H3490 0.950 . S
C3468 C3467 1.349 . S
C3468 C3480 1.349 . S
C3469 C3467 1.327 . S
C3469 C3485 1.429 . S
C3469 H3491 0.950 . S
C3470 H3466 0.949 . S
C3470 C3478 1.574 . S
C3470 C3486 1.368 . S
H3471 C3479 0.950 . S
H3472 C3477 0.950 . S
H3473 C3478 0.949 . S
H3474 C3480 0.950 . S
H3475 C3481 0.950 . S
H3476 C3482 0.949 . S
C3477 H3472 0.950 . S
C3477 C3479 1.327 . S
C3477 C3483 1.429 . S
C3478 C3470 1.574 . S
C3478 H3473 0.949 . S
C3478 C3484 1.368 . S
C3479 C3463 1.349 . S
C3479 H3471 0.950 . S
C3479 C3477 1.327 . S
C3480 C3468 1.349 . S
C3480 H3474 0.950 . S
C3480 C3481 1.327 . S
C3481 H3475 0.950 . S
C3481 C3480 1.327 . S
C3481 C3485 1.429 . S
C3482 C3465 1.574 . S
C3482 H3476 0.949 . S
C3482 C3486 1.368 . S
C3483 C3464 1.429 . S
C3483 C3477 1.429 . S
C3483 C3484 1.523 . S
C3484 C3465 1.368 . S
C3484 C3478 1.368 . S
C3484 C3483 1.523 . S
C3485 C3469 1.429 . S
C3485 C3481 1.429 . S
C3485 C3486 1.523 . S
C3486 C3470 1.368 . S
C3486 C3482 1.368 . S
C3486 C3485 1.523 . S
H3487 C3462 0.950 . S
H3488 C3464 0.950 . S
H3489 C3465 0.949 . S
H3490 C3467 0.950 . S
H3491 C3469 0.950 . S
C3492 C3493 1.349 . S
C3492 C3494 1.327 . S
C3492 H3517 0.950 . S
C3493 C3492 1.349 . S
C3493 C3509 1.349 . S
C3494 C3492 1.327 . S
C3494 C3513 1.429 . S
C3494 H3518 0.950 . S
C3495 C3512 1.574 . S
C3495 C3514 1.368 . S
C3495 H3519 0.949 . S
H3496 C3500 0.949 . S
C3497 C3498 1.349 . S
C3497 C3499 1.327 . S
C3497 H3520 0.950 . S
C3498 C3497 1.349 . S
C3498 C3510 1.349 . S
C3499 C3497 1.327 . S
C3499 C3515 1.429 . S
C3499 H3521 0.950 . S
C3500 H3496 0.949 . S
C3500 C3508 1.574 . S
C3500 C3516 1.368 . S
H3501 C3509 0.950 . S
H3502 C3507 0.950 . S
H3503 C3508 0.949 . S
H3504 C3510 0.950 . S
H3505 C3511 0.950 . S
H3506 C3512 0.949 . S
C3507 H3502 0.950 . S
C3507 C3509 1.327 . S
C3507 C3513 1.429 . S
C3508 C3500 1.574 . S
C3508 H3503 0.949 . S
C3508 C3514 1.368 . S
C3509 C3493 1.349 . S
C3509 H3501 0.950 . S
C3509 C3507 1.327 . S
C3510 C3498 1.349 . S
C3510 H3504 0.950 . S
C3510 C3511 1.327 . S
C3511 H3505 0.950 . S
C3511 C3510 1.327 . S
C3511 C3515 1.429 . S
C3512 C3495 1.574 . S
C3512 H3506 0.949 . S
C3512 C3516 1.368 . S
C3513 C3494 1.429 . S
C3513 C3507 1.429 . S
C3513 C3514 1.523 . S
C3514 C3495 1.368 . S
C3514 C3508 1.368 . S
C3514 C3513 1.523 . S
C3515 C3499 1.429 . S
C3515 C3511 1.429 . S
C3515 C3516 1.523 . S
C3516 C3500 1.368 . S
C3516 C3512 1.368 . S
C3516 C3515 1.523 . S
H3517 C3492 0.950 . S
H3518 C3494 0.950 . S
H3519 C3495 0.949 . S
H3520 C3497 0.950 . S
H3521 C3499 0.950 . S
C3522 C3523 1.349 . S
C3522 C3524 1.327 . S
C3522 H3547 0.950 . S
C3523 C3522 1.349 . S
C3523 C3539 1.349 . S
C3524 C3522 1.327 . S
C3524 C3543 1.429 . S
C3524 H3548 0.950 . S
C3525 C3542 1.574 . S
C3525 C3544 1.368 . S
C3525 H3549 0.949 . S
H3526 C3530 0.949 . S
C3527 C3528 1.351 . S
C3527 C3529 1.327 . S
C3527 H3550 0.950 1_655 S
C3528 C3527 1.351 . S
C3528 C3540 1.369 . S
C3529 C3527 1.327 . S
C3529 C3545 1.429 . S
C3529 H3551 0.950 . S
C3530 H3526 0.949 . S
C3530 C3538 1.574 . S
C3530 C3546 1.368 . S
H3531 C3539 0.950 . S
H3532 C3537 0.950 . S
H3533 C3538 0.949 . S
H3534 C3540 0.950 . S
H3535 C3541 0.950 . S
H3536 C3542 0.949 . S
C3537 H3532 0.950 . S
C3537 C3539 1.327 . S
C3537 C3543 1.429 . S
C3538 C3530 1.574 . S
C3538 H3533 0.949 . S
C3538 C3544 1.368 . S
C3539 C3523 1.349 . S
C3539 H3531 0.950 . S
C3539 C3537 1.327 . S
C3540 C3528 1.369 . S
C3540 H3534 0.950 . S
C3540 C3541 1.327 . S
C3541 H3535 0.950 . S
C3541 C3540 1.327 . S
C3541 C3545 1.429 . S
C3542 C3525 1.574 . S
C3542 H3536 0.949 . S
C3542 C3546 1.368 . S
C3543 C3524 1.429 . S
C3543 C3537 1.429 . S
C3543 C3544 1.523 . S
C3544 C3525 1.368 . S
C3544 C3538 1.368 . S
C3544 C3543 1.523 . S
C3545 C3529 1.429 . S
C3545 C3541 1.429 . S
C3545 C3546 1.523 . S
C3546 C3530 1.368 . S
C3546 C3542 1.368 . S
C3546 C3545 1.523 . S
H3547 C3522 0.950 . S
H3548 C3524 0.950 . S
H3549 C3525 0.949 . S
H3550 C3527 0.950 1_455 S
H3551 C3529 0.950 . S
C2113 C849 0.946 . S
C2118 C57 0.946 . S
C2143 C117 1.080 . S
C2148 C900 1.071 . S
C2173 C225 0.948 . S
C2178 C988 0.948 . S
C2203 C293 1.081 . S
C2208 C753 1.072 . S
C2233 C381 0.948 . S
C2238 C1349 0.948 . S
C2263 C1085 1.073 . S
C2268 C497 1.082 . S
C2293 C548 0.947 . S
C2298 C1193 0.947 . S
C2323 C1281 1.072 . S
C2328 C665 1.080 . S
C2353 C1465 1.080 . S
C2358 C1604 1.071 . S
C2383 C1985 1.073 . S
C2388 C1516 1.081 . S
C2413 C1692 1.080 . S
C2418 C2073 1.072 . S
C2443 C1897 1.081 . S
C2448 C1780 1.072 . S
C2473 C1817 1.635 . S
C2478 C20 1.634 . S
C2503 C108 1.645 . S
C2508 C1525 1.645 . S
C2533 C205 1.634 . S
C2538 C1641 1.635 . S
C2563 C284 1.645 . S
C2568 C1701 1.645 . S
C2593 C401 1.635 . S
C2598 C2053 1.635 . S
C2623 C1905 1.645 . S
C2628 C489 1.645 . S
C2653 C1965 1.635 . S
C2658 C585 1.635 . S
C2683 C1457 1.645 . S
C2688 C673 1.645 . S
C2713 C1369 1.635 . S
C2718 C733 1.635 . S
C2743 C812 1.634 . S
C2748 C1105 1.635 . S
C2773 C1173 1.635 . S
C2778 C937 1.635 . S
C2803 C1261 1.635 . S
C2808 C1025 1.635 . S
C2833 C49 0.633 . S
C2838 C1428 0.546 . S
C2863 C2044 0.647 . S
C2868 C145 0.687 . S
C2893 C1877 0.547 . S
C2898 C233 0.634 . S
C2923 C321 0.687 . S
C2928 C1956 0.647 . S
C2953 C372 0.634 . S
C2958 C1553 0.547 . S
C2983 C1633 0.648 . S
C2988 C469 0.688 . S
C3013 C1729 0.547 . S
C3018 C557 0.634 . S
C3043 C1809 0.648 . S
C3048 C636 0.688 . S
C3073 C29 0.607 . S
C3078 C761 0.668 . S
C3103 C137 0.546 . S
C3108 C841 0.633 . S
C3133 C196 0.607 . S
C3138 C909 0.668 . S
C3163 C313 0.547 . S
C3168 C997 0.633 . S
C3193 C409 0.608 . S
C3198 C1076 0.669 . S
C3223 C460 0.547 . S
C3228 C1201 0.633 . S
C3253 C1289 0.668 . S
C3258 C577 0.607 . S
C3283 C645 0.547 . S
C3288 C1340 0.634 . S
C3313 C724 0.647 . S
C3318 C1437 0.687 . S
C3343 C1545 0.688 . S
C3348 C1113 0.648 . S
C3373 C1164 0.588 1_455 S
C3378 C1613 0.668 . S
C3403 C1721 0.688 . S
C3408 C1252 0.648 . S
C3433 C1789 0.669 . S
C3438 C1377 0.608 . S
C3463 C1868 0.688 . S
C3468 C929 0.648 . S
C3493 C1017 0.607 . S
C3498 C1993 0.668 . S
C3523 C2081 0.668 . S
C3528 C821 0.587 1_655 S
