# Generated by pormake.
# Topology loh, (5)-cn, num edge types: 1
# Building blocks:
#     Node 0, Type 0, BuildingBlock: XOMCOT_clean_sbu_0, # of connection points: 5
#     Node 1, Type 0, BuildingBlock: XOMCOT_clean_sbu_0, # of connection points: 5
#     Node 2, Type 0, BuildingBlock: XOMCOT_clean_sbu_0, # of connection points: 5
#     Node 3, Type 0, BuildingBlock: XOMCOT_clean_sbu_0, # of connection points: 5
#     Node 4, Type 0, BuildingBlock: XOMCOT_clean_sbu_0, # of connection points: 5
#     Node 5, Type 0, BuildingBlock: XOMCOT_clean_sbu_0, # of connection points: 5
#     Node 6, Type 0, BuildingBlock: XOMCOT_clean_sbu_0, # of connection points: 5
#     Node 7, Type 0, BuildingBlock: XOMCOT_clean_sbu_0, # of connection points: 5
#     Edge 8, Type (0, 0), BuildingBlock: XIVTED_clean_linker_0, # of connection points: 2
#     Edge 9, Type (0, 0), BuildingBlock: XIVTED_clean_linker_0, # of connection points: 2
#     Edge 10, Type (0, 0), BuildingBlock: XIVTED_clean_linker_0, # of connection points: 2
#     Edge 11, Type (0, 0), BuildingBlock: XIVTED_clean_linker_0, # of connection points: 2
#     Edge 12, Type (0, 0), BuildingBlock: XIVTED_clean_linker_0, # of connection points: 2
#     Edge 13, Type (0, 0), BuildingBlock: XIVTED_clean_linker_0, # of connection points: 2
#     Edge 14, Type (0, 0), BuildingBlock: XIVTED_clean_linker_0, # of connection points: 2
#     Edge 15, Type (0, 0), BuildingBlock: XIVTED_clean_linker_0, # of connection points: 2
#     Edge 16, Type (0, 0), BuildingBlock: XIVTED_clean_linker_0, # of connection points: 2
#     Edge 17, Type (0, 0), BuildingBlock: XIVTED_clean_linker_0, # of connection points: 2
#     Edge 18, Type (0, 0), BuildingBlock: XIVTED_clean_linker_0, # of connection points: 2
#     Edge 19, Type (0, 0), BuildingBlock: XIVTED_clean_linker_0, # of connection points: 2
#     Edge 20, Type (0, 0), BuildingBlock: XIVTED_clean_linker_0, # of connection points: 2
#     Edge 21, Type (0, 0), BuildingBlock: XIVTED_clean_linker_0, # of connection points: 2
#     Edge 22, Type (0, 0), BuildingBlock: XIVTED_clean_linker_0, # of connection points: 2
#     Edge 23, Type (0, 0), BuildingBlock: XIVTED_clean_linker_0, # of connection points: 2
#     Edge 24, Type (0, 0), BuildingBlock: XIVTED_clean_linker_0, # of connection points: 2
#     Edge 25, Type (0, 0), BuildingBlock: XIVTED_clean_linker_0, # of connection points: 2
#     Edge 26, Type (0, 0), BuildingBlock: XIVTED_clean_linker_0, # of connection points: 2
#     Edge 27, Type (0, 0), BuildingBlock: XIVTED_clean_linker_0, # of connection points: 2
# Relax obj value: 0.189
# Max RMSD: 0.132
# Mean RMSD: 0.132
data_MOF--net-loh--node1-XOMCOT_clean_sbu_0--edge1-XIVTED_clean_linker_0
_symmetry_space_group_name_H-M    P1
_symmetry_Int_Tables_number       1
_symmetry_cell_setting            triclinic
loop_
_symmetry_equiv_pos_as_xyz
'x, y, z'
_cell_length_a     26.604414
_cell_length_b     24.016258
_cell_length_c     42.813107
_cell_angle_alpha  90.086453
_cell_angle_beta   89.60391
_cell_angle_gamma 89.634361
loop_
_atom_site_label
_atom_site_type_symbol
_atom_site_fract_x
_atom_site_fract_y
_atom_site_fract_z
_atom_type_partial_charge
Co0 Co 1.04028 0.24358 0.14449 0.0
C1 C 1.04836 0.13724 0.18143 0.0
C2 C 1.02871 0.12278 0.13367 0.0
C3 C 1.03291 0.07222 0.14831 0.0
N4 N 1.03898 0.16396 0.15413 0.0
N5 N 1.04517 0.08122 0.17827 0.0
H6 H 0.05757 0.1579 0.20309 0.0
H7 H 1.01676 0.12851 0.10994 0.0
C8 C 0.09752 0.2089 0.08437 0.0
O9 O 0.05893 0.18357 0.07201 0.0
N10 N 1.04206 0.32233 0.13489 0.0
C11 C 1.00581 0.36029 0.14122 0.0
C12 C 1.01726 0.40894 0.12585 0.0
C13 C 0.07539 0.34865 0.11635 0.0
N14 N 0.0606 0.40107 0.10991 0.0
C15 C 0.94091 0.21282 0.12631 0.0
C16 C 0.94198 0.26412 0.06854 0.0
C17 C 0.89675 0.24097 0.0793 0.0
C18 C 0.89687 0.21458 0.1086 0.0
C19 C 0.98488 0.26209 0.08714 0.0
N20 N 0.98441 0.23588 0.11546 0.0
H21 H 0.93974 0.19451 0.14936 0.0
H22 H 1.01831 0.28269 0.07884 0.0
H23 H 0.97157 0.35195 0.15408 0.0
H24 H 0.10789 0.32897 0.10573 0.0
O25 O 1.00159 0.26109 0.18175 0.0
O26 O 0.08477 0.25843 0.17889 0.0
O27 O 0.09471 0.23022 0.11173 0.0
C28 C 1.04454 0.27138 0.19493 0.0
H29 H 1.02576 0.03185 0.13801 0.0
H30 H 0.99315 0.44527 0.12406 0.0
H31 H 0.94437 0.28444 0.04604 0.0
H32 H 0.86283 0.19724 0.11844 0.0
Co33 Co 0.55377 0.7851 0.6459 0.0
C34 C 0.55812 0.89362 0.68151 0.0
C35 C 0.52939 0.90263 0.63508 0.0
C36 C 0.52905 0.95389 0.64908 0.0
N37 N 0.54732 0.86435 0.65525 0.0
N38 N 0.5468 0.94854 0.6783 0.0
H39 H 0.57288 0.87526 0.70263 0.0
H40 H 0.51715 0.89456 0.61154 0.0
C41 C 0.5081 0.77389 0.58137 0.0
O42 O 0.54702 0.74385 0.57228 0.0
N43 N 0.55841 0.70603 0.63646 0.0
C44 C 0.59832 0.67121 0.63688 0.0
C45 C 0.58461 0.62149 0.62348 0.0
C46 C 0.52033 0.67538 0.62521 0.0
N47 N 0.53577 0.62475 0.61527 0.0
C48 C 0.65997 0.78426 0.63377 0.0
C49 C 0.65735 0.82308 0.57323 0.0
C50 C 0.70191 0.79802 0.58395 0.0
C51 C 0.70351 0.78196 0.61542 0.0
C52 C 0.61478 0.82547 0.59276 0.0
N53 N 0.61501 0.80051 0.62145 0.0
H54 H 0.66217 0.76952 0.65749 0.0
H55 H 0.58123 0.84494 0.5839 0.0
H56 H 0.6355 0.68123 0.64481 0.0
H57 H 0.4828 0.69175 0.62182 0.0
O58 O 0.58434 0.77019 0.68592 0.0
O59 O 0.50278 0.76637 0.6767 0.0
O60 O 0.50666 0.79488 0.60893 0.0
C61 C 0.53969 0.75693 0.69584 0.0
H62 H 0.51694 0.99245 0.63836 0.0
H63 H 0.61013 0.58786 0.61737 0.0
H64 H 0.65432 0.83834 0.54954 0.0
H65 H 0.73773 0.76591 0.62568 0.0
Co66 Co 0.08176 0.78395 0.87915 0.0
C67 C 0.06814 0.89873 0.8519 0.0
C68 C 0.14525 0.87396 0.85704 0.0
C69 C 0.14398 0.92574 0.84358 0.0
N70 N 0.09787 0.85724 0.86291 0.0
N71 N 0.09557 0.94143 0.84029 0.0
H72 H 1.02762 0.89766 0.85174 0.0
H73 H 0.17861 0.84946 0.8617 0.0
C74 C 0.14993 0.83421 0.92793 0.0
O75 O 0.12675 0.88239 0.92512 0.0
N76 N 0.06659 0.71056 0.89464 0.0
C77 C 1.02388 0.68179 0.89012 0.0
C78 C 1.02536 0.63445 0.90822 0.0
C79 C 0.09344 0.68042 0.91514 0.0
N80 N 0.06894 0.63421 0.92406 0.0
C81 C 0.98283 0.82505 0.89469 0.0
C82 C 0.99075 0.80717 0.95824 0.0
C83 C 0.94309 0.81792 0.94587 0.0
C84 C 0.93969 0.82841 0.91368 0.0
C85 C 1.03266 0.80369 0.9385 0.0
N86 N 1.02874 0.81224 0.90699 0.0
H87 H 0.97832 0.82827 0.86973 0.0
H88 H 0.067 0.78847 0.94861 0.0
H89 H 0.9927 0.69568 0.87599 0.0
H90 H 0.12925 0.69273 0.92437 0.0
O91 O 1.0426 0.76801 0.84213 0.0
O92 O 0.12391 0.75054 0.84728 0.0
O93 O 0.13565 0.79211 0.91205 0.0
C94 C 0.08365 0.74638 0.83043 0.0
H95 H 0.17629 0.94907 0.83562 0.0
H96 H 0.99531 0.6047 0.91122 0.0
H97 H 0.99527 0.79693 0.98269 0.0
H98 H 0.90365 0.83665 0.90297 0.0
Co99 Co 0.55682 0.28239 0.38421 0.0
C100 C 0.56291 0.17541 0.34734 0.0
C101 C 0.51143 0.17132 0.38606 0.0
C102 C 0.5111 0.12113 0.37089 0.0
N103 N 0.54365 0.20588 0.37142 0.0
N104 N 0.54309 0.12343 0.3464 0.0
H105 H 0.59 0.19107 0.33062 0.0
H106 H 0.48922 0.18108 0.40654 0.0
C107 C 0.50965 0.29227 0.44888 0.0
O108 O 0.55079 0.31625 0.45892 0.0
N109 N 0.56777 0.359 0.39694 0.0
C110 C 0.61032 0.38872 0.39978 0.0
C111 C 0.59874 0.43839 0.41436 0.0
C112 C 0.53087 0.39272 0.40771 0.0
N113 N 0.54879 0.44015 0.42008 0.0
C114 C 0.66177 0.26843 0.39672 0.0
C115 C 0.6532 0.21786 0.4543 0.0
C116 C 0.70062 0.23703 0.44459 0.0
C117 C 0.70471 0.26025 0.4147 0.0
C118 C 0.61108 0.22628 0.43518 0.0
N119 N 0.61507 0.25612 0.4081 0.0
H120 H 0.6662 0.2879 0.37421 0.0
H121 H 0.57525 0.21026 0.44278 0.0
H122 H 0.6476 0.37517 0.39331 0.0
H123 H 0.49186 0.38041 0.40891 0.0
O124 O 0.59044 0.2983 0.34498 0.0
O125 O 0.50931 0.31127 0.35395 0.0
O126 O 0.50755 0.27413 0.42072 0.0
C127 C 0.54771 0.31807 0.33534 0.0
H128 H 0.48908 0.08532 0.37765 0.0
H129 H 0.62578 0.46823 0.4228 0.0
H130 H 0.64858 0.19718 0.47658 0.0
H131 H 0.74047 0.27476 0.40575 0.0
Co132 Co 0.58288 0.78404 0.14107 0.0
C133 C 0.58166 0.6792 0.18012 0.0
C134 C 0.56179 0.66405 0.13248 0.0
C135 C 0.56089 0.61433 0.14809 0.0
N136 N 0.57546 0.70519 0.15219 0.0
N137 N 0.57323 0.62367 0.17799 0.0
H138 H 0.59221 0.70001 0.20149 0.0
H139 H 0.55048 0.66937 0.1086 0.0
C140 C 0.6437 0.73984 0.08467 0.0
O141 O 0.605 0.71368 0.07303 0.0
N142 N 0.59059 0.8619 0.13002 0.0
C143 C 0.55548 0.90226 0.13327 0.0
C144 C 0.5693 0.94706 0.11516 0.0
C145 C 0.62587 0.88346 0.11086 0.0
N146 N 0.61302 0.93451 0.10059 0.0
C147 C 0.48431 0.7595 0.1188 0.0
C148 C 0.49503 0.80751 0.0605 0.0
C149 C 0.44756 0.78835 0.06971 0.0
C150 C 0.44267 0.76325 0.09912 0.0
C151 C 0.53578 0.8023 0.08071 0.0
N152 N 0.5304 0.77825 0.10948 0.0
H153 H 0.47929 0.74286 0.14206 0.0
H154 H 0.57141 0.81904 0.07336 0.0
H155 H 0.5198 0.89733 0.14516 0.0
H156 H 0.65753 0.86039 0.10159 0.0
O157 O 0.54012 0.80606 0.17556 0.0
O158 O 0.62305 0.79878 0.17787 0.0
O159 O 0.64024 0.76482 0.11106 0.0
C160 C 0.58105 0.81427 0.1913 0.0
H161 H 0.5502 0.57443 0.13847 0.0
H162 H 0.54588 0.98289 0.11003 0.0
H163 H 0.50057 0.82705 0.03796 0.0
H164 H 0.4065 0.74876 0.10741 0.0
Co165 Co 1.0536 0.28273 0.64293 0.0
C166 C 0.06156 0.3965 0.67048 0.0
C167 C 0.98845 0.37913 0.65203 0.0
C168 C 0.98752 0.43143 0.66496 0.0
N169 N 1.03477 0.35732 0.65532 0.0
N170 N 1.03344 0.44265 0.6766 0.0
H171 H 0.1004 0.39092 0.67718 0.0
H172 H 0.95692 0.35777 0.64178 0.0
C173 C 1.01013 0.27017 0.5779 0.0
O174 O 1.05252 0.24723 0.56833 0.0
N175 N 0.07018 0.2069 0.63091 0.0
C176 C 0.11426 0.17885 0.63159 0.0
C177 C 0.10751 0.1273 0.61814 0.0
C178 C 1.03688 0.17062 0.61915 0.0
N179 N 0.05894 0.12281 0.60979 0.0
C180 C 0.15844 0.30193 0.63192 0.0
C181 C 0.15091 0.34792 0.57313 0.0
C182 C 0.19848 0.33067 0.58364 0.0
C183 C 0.20195 0.31004 0.61414 0.0
C184 C 0.10818 0.33973 0.59208 0.0
N185 N 0.11188 0.31179 0.61979 0.0
H186 H 0.16246 0.28437 0.65492 0.0
H187 H 0.07218 0.35412 0.58381 0.0
H188 H 0.14937 0.1944 0.64028 0.0
H189 H 0.99758 0.18044 0.61564 0.0
O190 O 0.08522 0.27009 0.68285 0.0
O191 O 1.00566 0.25199 0.67257 0.0
O192 O 1.00621 0.28906 0.60584 0.0
C193 C 1.04274 0.24932 0.69221 0.0
H194 H 0.95471 0.45811 0.66674 0.0
H195 H 0.13688 0.09733 0.61272 0.0
H196 H 0.14662 0.36676 0.55034 0.0
H197 H 0.23774 0.29725 0.62377 0.0
Co198 Co 0.54146 0.28488 0.88326 0.0
C199 C 0.53612 0.39447 0.84889 0.0
C200 C 0.56415 0.40229 0.89554 0.0
C201 C 0.56497 0.45374 0.88182 0.0
N202 N 0.54622 0.36464 0.87508 0.0
N203 N 0.5477 0.4491 0.85245 0.0
H204 H 0.52217 0.37661 0.82745 0.0
H205 H 0.5767 0.39354 0.91894 0.0
C206 C 0.58591 0.26903 0.94725 0.0
O207 O 0.54756 0.23707 0.9543 0.0
N208 N 0.53928 0.20522 0.89134 0.0
C209 C 0.5008 0.16898 0.89237 0.0
C210 C 0.51858 0.11866 0.90326 0.0
C211 C 0.58009 0.1752 0.89944 0.0
N212 N 0.56839 0.12309 0.90844 0.0
C213 C 0.4356 0.28062 0.89612 0.0
C214 C 0.43702 0.32501 0.95554 0.0
C215 C 0.3926 0.29983 0.94513 0.0
C216 C 0.39194 0.27957 0.91438 0.0
C217 C 0.48006 0.3248 0.93642 0.0
N218 N 0.48015 0.29841 0.90807 0.0
H219 H 0.43391 0.26382 0.87278 0.0
H220 H 0.51349 0.34427 0.94515 0.0
H221 H 0.46212 0.17798 0.88706 0.0
H222 H 0.61724 0.19294 0.90116 0.0
O223 O 0.51087 0.27154 0.84318 0.0
O224 O 0.59266 0.26831 0.85202 0.0
O225 O 0.58784 0.29339 0.92063 0.0
C226 C 0.55569 0.25926 0.83291 0.0
H227 H 0.5776 0.49183 0.89271 0.0
H228 H 0.49559 0.08334 0.90958 0.0
H229 H 0.4389 0.34397 0.97845 0.0
H230 H 0.35873 0.26047 0.90475 0.0
Co231 Co 0.05497 0.74366 0.38396 0.0
C232 C 1.04373 0.63779 0.34682 0.0
C233 C 0.0696 0.62255 0.39333 0.0
C234 C 0.06438 0.57226 0.37857 0.0
N235 N 0.05603 0.66409 0.37379 0.0
N236 N 1.04824 0.58178 0.34942 0.0
H237 H 1.0317 0.65873 0.32579 0.0
H238 H 0.08463 0.62778 0.41641 0.0
C239 C 0.99588 0.70551 0.44241 0.0
O240 O 1.03323 0.67566 0.45333 0.0
N241 N 1.05374 0.82237 0.39412 0.0
C242 C 0.09004 0.85969 0.38769 0.0
C243 C 0.08071 0.90736 0.40475 0.0
C244 C 1.02245 0.84828 0.41438 0.0
N245 N 1.03866 0.89949 0.42185 0.0
C246 C 0.15444 0.71226 0.40237 0.0
C247 C 0.15146 0.76123 0.46084 0.0
C248 C 0.19735 0.73899 0.45003 0.0
C249 C 0.19805 0.7133 0.42049 0.0
C250 C 0.10864 0.75856 0.4422 0.0
N251 N 0.11029 0.73433 0.4133 0.0
H252 H 0.15631 0.69477 0.3791 0.0
H253 H 0.07456 0.77799 0.4507 0.0
H254 H 0.1234 0.85117 0.37388 0.0
H255 H 0.99126 0.82861 0.42606 0.0
O256 O 0.09418 0.76078 0.3469 0.0
O257 O 1.01098 0.76006 0.34945 0.0
O258 O 1.00003 0.73102 0.41633 0.0
C259 C 1.05143 0.7721 0.33358 0.0
H260 H 0.07354 0.53173 0.3881 0.0
H261 H 0.10584 0.94239 0.4071 0.0
H262 H 0.14879 0.78277 0.48302 0.0
H263 H 0.23214 0.69483 0.41107 0.0
H264 H 0.29158 0.3012 0.93041 0.0
H265 H 0.19076 0.24333 0.10331 0.0
H266 H 0.39171 0.27985 1.00858 0.0
H267 H 0.10661 0.20243 0.02066 0.0
H268 H 0.2625 0.26854 0.07008 0.0
H269 H 0.22082 0.27801 0.96441 0.0
C270 C 0.29894 0.29164 0.95466 0.0
C271 C 0.34824 0.29199 0.96636 0.0
C272 C 0.22839 0.25375 0.05928 0.0
C273 C 0.26658 0.26632 1.00569 0.0
C274 C 0.18744 0.23927 0.07821 0.0
C275 C 0.14261 0.2203 0.0648 0.0
C276 C 0.22427 0.25023 0.02665 0.0
C277 C 0.14048 0.21626 0.03209 0.0
C278 C 0.25831 0.27853 0.97409 0.0
C279 C 0.35462 0.28077 0.99838 0.0
N280 N 0.18053 0.23147 0.01417 0.0
N281 N 0.31437 0.26836 0.01686 0.0
H282 H 0.41138 0.80073 0.59837 0.0
H283 H 0.29491 0.753 0.42905 0.0
H284 H 0.5015 0.75087 0.51881 0.0
H285 H 0.20776 0.73931 0.51423 0.0
H286 H 0.37057 0.76461 0.46024 0.0
H287 H 0.33592 0.79342 0.56623 0.0
C288 C 0.41543 0.78911 0.57403 0.0
C289 C 0.46293 0.77649 0.56127 0.0
C290 C 0.33482 0.75901 0.47204 0.0
C291 C 0.37658 0.76774 0.52441 0.0
C292 C 0.29145 0.75185 0.45424 0.0
C293 C 0.24433 0.74487 0.46883 0.0
C294 C 0.33128 0.76009 0.50475 0.0
C295 C 0.24275 0.74542 0.50171 0.0
C296 C 0.37227 0.78444 0.55578 0.0
C297 C 0.4657 0.76104 0.52963 0.0
N298 N 0.28542 0.75311 0.51848 0.0
N299 N 0.42317 0.75713 0.51229 0.0
H300 H 0.42021 0.88181 0.0371 0.0
H301 H 0.18944 0.73767 0.95171 0.0
H302 H 0.37352 0.71342 0.05592 0.0
H303 H 0.20765 0.91595 0.95454 0.0
H304 H 0.26051 0.72717 0.98671 0.0
H305 H 0.3468 0.89421 1.0035 0.0
C306 C 0.39464 0.84735 0.03403 0.0
C307 C 0.40313 0.79639 0.04925 0.0
C308 C 0.24892 0.76864 0.97979 0.0
C309 C 0.31899 0.8104 1.01089 0.0
C310 C 0.20829 0.77471 0.95964 0.0
C311 C 0.19237 0.8278 0.95002 0.0
C312 C 0.27459 0.81595 0.99019 0.0
C313 C 0.21845 0.87422 0.96139 0.0
C314 C 0.35257 0.85462 0.01505 0.0
C315 C 0.36832 0.75347 0.04479 0.0
N316 N 0.25851 0.86721 0.98069 0.0
N317 N 0.32801 0.76133 0.02589 0.0
H318 H 0.41274 0.26471 0.43301 0.0
H319 H 0.29558 0.35911 0.59836 0.0
H320 H 0.50099 0.32439 0.5102 0.0
H321 H 0.20547 0.30131 0.5216 0.0
H322 H 0.37084 0.34798 0.56589 0.0
H323 H 0.33657 0.27688 0.46486 0.0
C324 C 0.41626 0.27974 0.45675 0.0
C325 C 0.46358 0.2934 0.46888 0.0
C326 C 0.33464 0.33792 0.55604 0.0
C327 C 0.37615 0.3082 0.50543 0.0
C328 C 0.29152 0.34428 0.57461 0.0
C329 C 0.2439 0.33089 0.56284 0.0
C330 C 0.33051 0.31773 0.52534 0.0
C331 C 0.2412 0.31264 0.53166 0.0
C332 C 0.37263 0.28707 0.47487 0.0
C333 C 0.46551 0.31311 0.49979 0.0
N334 N 0.28383 0.30626 0.51411 0.0
N335 N 0.42257 0.32007 0.51687 0.0
H336 H 0.65857 0.70767 0.02377 0.0
H337 H 0.92875 0.85163 1.00687 0.0
H338 H 0.73213 0.79259 0.09955 0.0
H339 H 0.85324 0.76869 0.93119 0.0
H340 H 0.85691 0.83175 0.04098 0.0
H341 H 0.72982 0.7293 0.98979 0.0
C342 C 0.68986 0.73046 0.03342 0.0
C343 C 0.6891 0.74828 0.06471 0.0
C344 C 0.85591 0.81818 0.01686 0.0
C345 C 0.77105 0.77384 0.02554 0.0
C346 C 0.89699 0.8295 0.99733 0.0
C347 C 0.89728 0.81186 0.96599 0.0
C348 C 0.81466 0.78868 1.00513 0.0
C349 C 0.85464 0.78385 0.95499 0.0
C350 C 0.73051 0.74311 0.01387 0.0
C351 C 0.73084 0.778 0.07564 0.0
N352 N 0.81534 0.77291 0.97452 0.0
N353 N 0.76996 0.78992 0.05611 0.0
H354 H 1.00471 0.23479 0.51709 0.0
H355 H 0.70424 0.26152 0.50726 0.0
H356 H 0.91222 0.29807 0.59254 0.0
H357 H 0.79898 0.21145 0.42986 0.0
H358 H 0.77914 0.26988 0.53989 0.0
H359 H 0.92941 0.22317 0.48551 0.0
C360 C 0.96864 0.24677 0.52696 0.0
C361 C 0.96502 0.26766 0.55757 0.0
C362 C 0.78352 0.25683 0.51581 0.0
C363 C 0.87812 0.2538 0.52144 0.0
C364 C 0.74067 0.25147 0.49723 0.0
C365 C 0.74516 0.23592 0.46566 0.0
C366 C 0.83137 0.24635 0.50284 0.0
C367 C 0.79359 0.22428 0.4539 0.0
C368 C 0.92553 0.23986 0.50891 0.0
C369 C 0.91701 0.28207 0.56905 0.0
N370 N 0.83464 0.22986 0.47242 0.0
N371 N 0.87552 0.27472 0.55105 0.0
H372 H 0.81824 0.16674 0.07473 0.0
H373 H 0.67168 0.33183 0.94189 0.0
H374 H 0.86676 0.32738 0.04113 0.0
H375 H 0.60034 0.20982 1.0011 0.0
H376 H 0.74658 0.32671 0.97482 0.0
H377 H 0.7412 0.17707 0.04452 0.0
C378 C 0.8128 0.20434 0.06123 0.0
C379 C 0.84958 0.24614 0.06062 0.0
C380 C 0.71433 0.30142 0.98069 0.0
C381 C 0.7614 0.25764 0.02536 0.0
C382 C 0.67152 0.30436 0.96193 0.0
C383 C 0.62959 0.2711 0.96863 0.0
C384 C 0.71554 0.26437 1.00606 0.0
C385 C 0.63166 0.23632 0.99499 0.0
C386 C 0.76875 0.21007 0.04386 0.0
C387 C 0.84033 0.29337 0.04199 0.0
N388 N 0.67405 0.23338 1.01248 0.0
N389 N 0.79741 0.29766 0.02504 0.0
H390 H 0.73591 0.85803 0.53266 0.0
H391 H 0.97331 0.66023 0.49965 0.0
H392 H 0.76706 0.7088 0.58556 0.0
H393 H 0.915 0.77443 0.43083 0.0
H394 H 0.90184 0.68284 0.53366 0.0
H395 H 0.80545 0.83379 0.49731 0.0
C396 C 0.75709 0.82021 0.53694 0.0
C397 C 0.74537 0.78579 0.56251 0.0
C398 C 0.90464 0.70284 0.51107 0.0
C399 C 0.82573 0.75823 0.52215 0.0
C400 C 0.94547 0.68989 0.49158 0.0
C401 C 0.95061 0.71567 0.46231 0.0
C402 C 0.86877 0.74237 0.50149 0.0
C403 C 0.91307 0.7538 0.45325 0.0
C404 C 0.79696 0.80651 0.51673 0.0
C405 C 0.77505 0.73764 0.56681 0.0
N406 N 0.87404 0.7663 0.47283 0.0
N407 N 0.81375 0.72551 0.547 0.0
H408 H 0.12375 0.33554 0.21244 0.0
H409 H 0.9894 0.49146 0.35386 0.0
H410 H 0.97056 0.29739 0.23776 0.0
H411 H 0.0946 0.57409 0.29318 0.0
H412 H 0.98817 0.41177 0.31764 0.0
H413 H 0.12205 0.41318 0.24951 0.0
C414 C 0.09016 0.3425 0.22638 0.0
C415 C 1.04727 0.3096 0.2221 0.0
C416 C 1.01106 0.44759 0.31208 0.0
C417 C 1.04506 0.39896 0.26431 0.0
C418 C 1.01155 0.49296 0.33256 0.0
C419 C 1.04155 0.53941 0.32609 0.0
C420 C 1.04212 0.44799 0.28546 0.0
C421 C 0.07037 0.53933 0.29857 0.0
C422 C 0.08903 0.38739 0.24718 0.0
C423 C 1.00453 0.32145 0.24045 0.0
N424 N 0.07049 0.49394 0.27943 0.0
N425 N 1.00451 0.36511 0.26083 0.0
H426 H 0.46066 0.68849 0.71042 0.0
H427 H 0.61132 0.53594 0.84769 0.0
H428 H 0.60675 0.73852 0.7428 0.0
H429 H 0.47917 0.46529 0.806 0.0
H430 H 0.60493 0.61521 0.81263 0.0
H431 H 0.46048 0.61328 0.74919 0.0
C432 C 0.49212 0.68464 0.72622 0.0
C433 C 0.53375 0.72011 0.72342 0.0
C434 C 0.57719 0.58254 0.81103 0.0
C435 C 0.53417 0.63336 0.76739 0.0
C436 C 0.58074 0.53719 0.83117 0.0
C437 C 0.5455 0.49394 0.82998 0.0
C438 C 0.53794 0.58533 0.78935 0.0
C439 C 0.50727 0.49752 0.80759 0.0
C440 C 0.49225 0.64119 0.74806 0.0
C441 C 0.57381 0.71237 0.74414 0.0
N442 N 0.50433 0.54259 0.78823 0.0
N443 N 0.5731 0.66982 0.76507 0.0
H444 H 0.98764 0.54427 0.675 0.0
H445 H 0.15738 0.6757 0.80928 0.0
H446 H 0.1104 0.45519 0.71804 0.0
H447 H 1.0076 0.73361 0.78811 0.0
H448 H 0.15027 0.60546 0.76809 0.0
H449 H 1.00423 0.6237 0.70869 0.0
C450 C 1.01811 0.54115 0.6915 0.0
C451 C 1.04692 0.49204 0.69401 0.0
C452 C 0.11923 0.63399 0.77222 0.0
C453 C 0.06677 0.58409 0.73238 0.0
C454 C 0.12334 0.67441 0.79558 0.0
C455 C 0.0829 0.71053 0.80225 0.0
C456 C 0.07456 0.62998 0.75515 0.0
C457 C 1.03964 0.70658 0.78383 0.0
C458 C 1.02768 0.58685 0.71065 0.0
C459 C 0.08703 0.4918 0.71522 0.0
N460 N 1.03654 0.66688 0.76122 0.0
N461 N 0.09555 0.53695 0.73373 0.0
H462 H 0.4794 0.40164 0.32492 0.0
H463 H 0.61866 0.52357 0.17441 0.0
H464 H 0.61472 0.32772 0.28687 0.0
H465 H 0.52783 0.62661 0.23503 0.0
H466 H 0.61052 0.44642 0.21152 0.0
H467 H 0.48728 0.47818 0.28732 0.0
C468 C 0.51007 0.40073 0.30815 0.0
C469 C 0.54625 0.35787 0.30887 0.0
C470 C 0.59272 0.48599 0.21692 0.0
C471 C 0.55586 0.44585 0.26613 0.0
C472 C 0.59754 0.52998 0.19584 0.0
C473 C 0.57432 0.58152 0.20191 0.0
C474 C 0.56338 0.49301 0.24403 0.0
C475 C 0.54691 0.58773 0.22982 0.0
C476 C 0.51493 0.44489 0.28703 0.0
C477 C 0.58581 0.35964 0.28702 0.0
N478 N 0.54168 0.54376 0.24973 0.0
N479 N 0.5895 0.40279 0.26654 0.0
H480 H 0.501 0.83677 0.22932 0.0
H481 H 0.62857 0.09962 0.31281 0.0
H482 H 0.65725 0.87741 0.21577 0.0
H483 H 0.47645 0.04505 0.32878 0.0
H484 H 0.64174 1.01928 0.27763 0.0
H485 H 0.49383 0.91116 0.26789 0.0
C486 C 0.53414 0.86067 0.23495 0.0
C487 C 0.57982 0.85059 0.21937 0.0
C488 C 0.60559 0.02495 0.289 0.0
C489 C 0.57161 0.93758 0.26308 0.0
C490 C 0.59797 0.07104 0.30884 0.0
C491 C 0.55149 0.07894 0.32406 0.0
C492 C 0.56632 0.98685 0.28423 0.0
C493 C 0.51322 0.0403 0.31815 0.0
C494 C 0.52997 0.90359 0.25685 0.0
C495 C 0.62142 0.88334 0.22748 0.0
N496 N 0.52149 0.99629 0.29885 0.0
N497 N 0.61621 0.92582 0.2485 0.0
H498 H 1.01064 0.95641 0.80584 0.0
H499 H 0.1086 0.24801 0.74074 0.0
H500 H 0.14163 0.04146 0.83981 0.0
H501 H 0.97261 0.17083 0.70832 0.0
H502 H 0.11421 0.17848 0.78206 0.0
H503 H 0.98918 0.03909 0.7748 0.0
C504 C 1.0344 0.99274 0.80718 0.0
C505 C 0.07844 0.99169 0.82509 0.0
C506 C 0.08265 0.17706 0.76625 0.0
C507 C 1.05442 0.08619 0.7895 0.0
C508 C 0.07934 0.21702 0.7427 0.0
C509 C 1.04024 0.2151 0.72094 0.0
C510 C 1.04703 0.13414 0.76789 0.0
C511 C 1.00336 0.17394 0.72464 0.0
C512 C 1.0223 0.03985 0.78935 0.0
C513 C 0.10798 0.03992 0.82581 0.0
N514 N 1.00807 0.13454 0.74734 0.0
N515 N 0.09572 0.08481 0.80811 0.0
H516 H 0.61616 0.96125 0.72454 0.0
H517 H 0.49076 0.24697 0.78443 0.0
H518 H 0.486 0.03872 0.68326 0.0
H519 H 0.63245 0.18614 0.81934 0.0
H520 H 0.49092 0.17198 0.74591 0.0
H521 H 0.62379 0.04202 0.75979 0.0
C522 C 0.5891 0.99498 0.72302 0.0
C523 C 0.55062 0.99334 0.70075 0.0
C524 C 0.52244 0.17533 0.76165 0.0
C525 C 0.55927 0.08587 0.74062 0.0
C526 C 0.52254 0.21856 0.78349 0.0
C527 C 0.56176 0.22311 0.80502 0.0
C528 C 0.56148 0.13553 0.76155 0.0
C529 C 0.60172 0.18462 0.80293 0.0
C530 C 0.59371 0.04128 0.74289 0.0
C531 C 0.51677 0.03846 0.69963 0.0
N532 N 0.60025 0.14199 0.78188 0.0
N533 N 0.52187 0.08255 0.71919 0.0
H534 H 1.003 0.07947 0.23602 0.0
H535 H 0.1244 0.79239 0.28934 0.0
H536 H 0.09736 0.985 0.17305 0.0
H537 H 0.97459 0.84164 0.31751 0.0
H538 H 0.12489 0.86882 0.25112 0.0
H539 H 1.00341 1.00018 0.27254 0.0
C540 C 1.02451 0.0424 0.23024 0.0
C541 C 1.05028 0.03856 0.20166 0.0
C542 C 0.09176 0.86229 0.26545 0.0
C543 C 1.05099 0.94819 0.24296 0.0
C544 C 0.0913 0.81853 0.28706 0.0
C545 C 1.04917 0.81014 0.30637 0.0
C546 C 1.05045 0.89891 0.26389 0.0
C547 C 1.0076 0.84595 0.3028 0.0
C548 C 1.0243 0.99707 0.2508 0.0
C549 C 0.07703 0.98932 0.19491 0.0
N550 N 1.00958 0.88923 0.28236 0.0
N551 N 0.07698 0.94614 0.21546 0.0
H552 H 0.10938 0.66631 0.97883 0.0
H553 H 0.09277 0.36358 0.05361 0.0
H554 H 0.05553 0.5232 0.92854 0.0
H555 H 0.06508 0.5133 0.10693 0.0
H556 H 0.1075 0.42024 1.00708 0.0
H557 H 0.1207 0.60803 0.02525 0.0
C558 C 0.101 0.62232 0.97743 0.0
C559 C 0.08131 0.59923 0.95002 0.0
C560 C 0.0991 0.44063 0.02912 0.0
C561 C 0.09433 0.53291 1.00262 0.0
C562 C 0.09115 0.40849 0.0557 0.0
C563 C 0.07755 0.43408 0.08406 0.0
C564 C 0.09403 0.49862 0.03107 0.0
C565 C 0.07513 0.4923 0.08537 0.0
C566 C 0.10717 0.58935 1.00388 0.0
C567 C 0.07037 0.54232 0.94941 0.0
N568 N 0.08306 0.5228 0.05912 0.0
N569 N 0.07696 0.51093 0.97543 0.0
H570 H 0.46845 0.66162 0.57209 0.0
H571 H 0.4723 0.40833 0.45859 0.0
H572 H 0.55213 0.51602 0.60055 0.0
H573 H 0.57055 0.54583 0.43783 0.0
H574 H 0.4507 0.45163 0.50851 0.0
H575 H 0.45434 0.6187 0.52135 0.0
C576 C 0.48269 0.62008 0.56819 0.0
C577 C 0.51336 0.59329 0.59032 0.0
C578 C 0.47583 0.47278 0.4925 0.0
C579 C 0.49529 0.5435 0.5328 0.0
C580 C 0.48838 0.44824 0.464 0.0
C581 C 0.52479 0.47255 0.44437 0.0
C582 C 0.49838 0.5229 0.50076 0.0
C583 C 0.54334 0.52506 0.45257 0.0
C584 C 0.47443 0.59575 0.53917 0.0
C585 C 0.52952 0.53873 0.5839 0.0
N586 N 0.53041 0.54829 0.48045 0.0
N587 N 0.52098 0.51582 0.55541 0.0
H588 H 0.64472 0.1557 0.94635 0.0
H589 H 0.63578 0.87915 0.04719 0.0
H590 H 0.55811 1.01221 0.9195 0.0
H591 H 0.62448 0.04363 0.08728 0.0
H592 H 0.64385 0.92063 0.99527 0.0
H593 H 0.6742 0.10546 0.99205 0.0
C594 C 0.63276 0.11321 0.94947 0.0
C595 C 0.59712 0.08893 0.92958 0.0
C596 C 0.64105 0.94749 0.01557 0.0
C597 C 0.6321 0.03097 0.98152 0.0
C598 C 0.6367 0.92405 0.04519 0.0
C599 C 0.62908 0.9583 0.07148 0.0
C600 C 0.63878 1.00542 1.01239 0.0
C601 C 0.62997 1.01611 0.06749 0.0
C602 C 0.64972 0.08468 0.97567 0.0
C603 C 0.58426 0.0331 0.93473 0.0
N604 N 0.63434 0.03802 0.03836 0.0
N605 N 0.60119 1.00614 0.96052 0.0
H606 H 1.02207 0.85485 0.47873 0.0
H607 H 0.99335 0.14721 0.56366 0.0
H608 H 1.02847 1.01065 0.42905 0.0
H609 H 0.08174 1.01338 0.60251 0.0
H610 H 0.97529 0.08929 0.51835 0.0
H611 H 1.01359 0.90612 0.52801 0.0
C612 C 1.02032 0.89989 0.47818 0.0
C613 C 1.02595 0.92894 0.44995 0.0
C614 C 0.99775 0.07234 0.53714 0.0
C615 C 1.01601 0.98715 0.50586 0.0
C616 C 1.00787 0.10513 0.56311 0.0
C617 C 1.0397 0.08523 0.5867 0.0
C618 C 1.01871 1.01891 0.53511 0.0
C619 C 0.0576 0.03035 0.5846 0.0
C620 C 1.01582 0.92889 0.50623 0.0
C621 C 1.02433 0.98715 0.45045 0.0
N622 N 1.04709 0.999 0.55905 0.0
N623 N 1.01955 1.01457 0.47809 0.0
loop_
_geom_bond_atom_site_label_1
_geom_bond_atom_site_label_2
_geom_bond_distance
_geom_bond_site_symmetry_2
_ccdc_geom_bond_type
Co0 N4 2.148 . S
Co0 N10 2.128 . S
Co0 N20 2.194 1_455 S
Co0 O25 2.351 1_455 S
Co0 O26 2.155 . S
Co0 O27 2.096 . S
C1 N4 1.301 . S
C1 N5 1.328 . S
C1 H6 0.930 1_455 S
C2 C3 1.333 . S
C2 N4 1.317 . S
C2 H7 0.930 . S
C3 C2 1.333 . S
C3 N5 1.350 . S
C3 H29 0.931 . S
N4 Co0 2.148 . S
N4 C1 1.301 . S
N4 C2 1.317 . S
N5 C1 1.328 . S
N5 C3 1.350 . S
H6 C1 0.930 1_655 S
H7 C2 0.930 . S
C8 O9 1.224 . S
C8 O27 1.247 . S
O9 C8 1.224 . S
N10 Co0 2.128 . S
N10 C11 1.355 1_455 S
N10 C13 1.311 . S
C11 N10 1.355 1_655 S
C11 C12 1.363 . S
C11 H23 0.929 . S
C12 C11 1.363 . S
C12 N14 1.375 1_655 S
C12 H30 0.931 . S
C13 N10 1.311 . S
C13 N14 1.347 . S
C13 H24 0.929 . S
N14 C12 1.375 1_455 S
N14 C13 1.347 . S
C15 C18 1.365 . S
C15 N20 1.328 . S
C15 H21 0.929 . S
C16 C17 1.362 . S
C16 C19 1.378 . S
C16 H31 0.929 . S
C17 C16 1.362 . S
C17 C18 1.366 . S
C18 C15 1.365 . S
C18 C17 1.366 . S
C18 H32 0.930 . S
C19 C16 1.378 . S
C19 N20 1.315 . S
C19 H22 0.930 . S
N20 Co0 2.194 1_655 S
N20 C15 1.328 . S
N20 C19 1.315 . S
H21 C15 0.929 . S
H22 C19 0.930 . S
H23 C11 0.929 . S
H24 C13 0.929 . S
O25 Co0 2.351 1_655 S
O25 C28 1.244 1_655 S
O26 Co0 2.155 . S
O26 C28 1.240 . S
O27 Co0 2.096 . S
O27 C8 1.247 . S
C28 O25 1.244 1_455 S
C28 O26 1.240 . S
H29 C3 0.931 . S
H30 C12 0.931 . S
H31 C16 0.929 . S
H32 C18 0.930 . S
Co33 N37 2.148 . S
Co33 N43 2.128 . S
Co33 N53 2.194 . S
Co33 O58 2.351 . S
Co33 O59 2.155 . S
Co33 O60 2.096 . S
C34 N37 1.301 . S
C34 N38 1.328 . S
C34 H39 0.930 . S
C35 C36 1.333 . S
C35 N37 1.317 . S
C35 H40 0.930 . S
C36 C35 1.333 . S
C36 N38 1.350 . S
C36 H62 0.931 . S
N37 Co33 2.148 . S
N37 C34 1.301 . S
N37 C35 1.317 . S
N38 C34 1.328 . S
N38 C36 1.350 . S
H39 C34 0.930 . S
H40 C35 0.930 . S
C41 O42 1.224 . S
C41 O60 1.247 . S
O42 C41 1.224 . S
N43 Co33 2.128 . S
N43 C44 1.355 . S
N43 C46 1.311 . S
C44 N43 1.355 . S
C44 C45 1.363 . S
C44 H56 0.929 . S
C45 C44 1.363 . S
C45 N47 1.375 . S
C45 H63 0.931 . S
C46 N43 1.311 . S
C46 N47 1.347 . S
C46 H57 0.929 . S
N47 C45 1.375 . S
N47 C46 1.347 . S
C48 C51 1.365 . S
C48 N53 1.328 . S
C48 H54 0.929 . S
C49 C50 1.362 . S
C49 C52 1.378 . S
C49 H64 0.929 . S
C50 C49 1.362 . S
C50 C51 1.366 . S
C51 C48 1.365 . S
C51 C50 1.366 . S
C51 H65 0.930 . S
C52 C49 1.378 . S
C52 N53 1.315 . S
C52 H55 0.930 . S
N53 Co33 2.194 . S
N53 C48 1.328 . S
N53 C52 1.315 . S
H54 C48 0.929 . S
H55 C52 0.930 . S
H56 C44 0.929 . S
H57 C46 0.929 . S
O58 Co33 2.351 . S
O58 C61 1.244 . S
O59 Co33 2.155 . S
O59 C61 1.240 . S
O60 Co33 2.096 . S
O60 C41 1.247 . S
C61 O58 1.244 . S
C61 O59 1.240 . S
H62 C36 0.931 . S
H63 C45 0.931 . S
H64 C49 0.929 . S
H65 C51 0.930 . S
Co66 N70 2.148 . S
Co66 N76 2.128 . S
Co66 N86 2.194 1_455 S
Co66 O91 2.351 1_455 S
Co66 O92 2.155 . S
Co66 O93 2.096 . S
C67 N70 1.301 . S
C67 N71 1.328 . S
C67 H72 0.930 1_455 S
C68 C69 1.333 . S
C68 N70 1.317 . S
C68 H73 0.930 . S
C69 C68 1.333 . S
C69 N71 1.350 . S
C69 H95 0.931 . S
N70 Co66 2.148 . S
N70 C67 1.301 . S
N70 C68 1.317 . S
N71 C67 1.328 . S
N71 C69 1.350 . S
H72 C67 0.930 1_655 S
H73 C68 0.930 . S
C74 O75 1.224 . S
C74 O93 1.247 . S
O75 C74 1.224 . S
N76 Co66 2.128 . S
N76 C77 1.355 1_455 S
N76 C79 1.311 . S
C77 N76 1.355 1_655 S
C77 C78 1.363 . S
C77 H89 0.929 . S
C78 C77 1.363 . S
C78 N80 1.375 1_655 S
C78 H96 0.931 . S
C79 N76 1.311 . S
C79 N80 1.347 . S
C79 H90 0.929 . S
N80 C78 1.375 1_455 S
N80 C79 1.347 . S
C81 C84 1.365 . S
C81 N86 1.328 . S
C81 H87 0.929 . S
C82 C83 1.362 . S
C82 C85 1.378 . S
C82 H97 0.929 . S
C83 C82 1.362 . S
C83 C84 1.366 . S
C84 C81 1.365 . S
C84 C83 1.366 . S
C84 H98 0.930 . S
C85 C82 1.378 . S
C85 N86 1.315 . S
C85 H88 0.930 . S
N86 Co66 2.194 1_655 S
N86 C81 1.328 . S
N86 C85 1.315 . S
H87 C81 0.929 . S
H88 C85 0.930 . S
H89 C77 0.929 . S
H90 C79 0.929 . S
O91 Co66 2.351 1_655 S
O91 C94 1.244 1_655 S
O92 Co66 2.155 . S
O92 C94 1.240 . S
O93 Co66 2.096 . S
O93 C74 1.247 . S
C94 O91 1.244 1_455 S
C94 O92 1.240 . S
H95 C69 0.931 . S
H96 C78 0.931 . S
H97 C82 0.929 . S
H98 C84 0.930 . S
Co99 N103 2.148 . S
Co99 N109 2.128 . S
Co99 N119 2.194 . S
Co99 O124 2.351 . S
Co99 O125 2.155 . S
Co99 O126 2.096 . S
C100 N103 1.301 . S
C100 N104 1.328 . S
C100 H105 0.930 . S
C101 C102 1.333 . S
C101 N103 1.317 . S
C101 H106 0.930 . S
C102 C101 1.333 . S
C102 N104 1.350 . S
C102 H128 0.931 . S
N103 Co99 2.148 . S
N103 C100 1.301 . S
N103 C101 1.317 . S
N104 C100 1.328 . S
N104 C102 1.350 . S
H105 C100 0.930 . S
H106 C101 0.930 . S
C107 O108 1.224 . S
C107 O126 1.247 . S
O108 C107 1.224 . S
N109 Co99 2.128 . S
N109 C110 1.355 . S
N109 C112 1.311 . S
C110 N109 1.355 . S
C110 C111 1.363 . S
C110 H122 0.929 . S
C111 C110 1.363 . S
C111 N113 1.375 . S
C111 H129 0.931 . S
C112 N109 1.311 . S
C112 N113 1.347 . S
C112 H123 0.929 . S
N113 C111 1.375 . S
N113 C112 1.347 . S
C114 C117 1.365 . S
C114 N119 1.328 . S
C114 H120 0.929 . S
C115 C116 1.362 . S
C115 C118 1.378 . S
C115 H130 0.929 . S
C116 C115 1.362 . S
C116 C117 1.366 . S
C117 C114 1.365 . S
C117 C116 1.366 . S
C117 H131 0.930 . S
C118 C115 1.378 . S
C118 N119 1.315 . S
C118 H121 0.930 . S
N119 Co99 2.194 . S
N119 C114 1.328 . S
N119 C118 1.315 . S
H120 C114 0.929 . S
H121 C118 0.930 . S
H122 C110 0.929 . S
H123 C112 0.929 . S
O124 Co99 2.351 . S
O124 C127 1.244 . S
O125 Co99 2.155 . S
O125 C127 1.240 . S
O126 Co99 2.096 . S
O126 C107 1.247 . S
C127 O124 1.244 . S
C127 O125 1.240 . S
H128 C102 0.931 . S
H129 C111 0.931 . S
H130 C115 0.929 . S
H131 C117 0.930 . S
Co132 N136 2.148 . S
Co132 N142 2.128 . S
Co132 N152 2.194 . S
Co132 O157 2.351 . S
Co132 O158 2.155 . S
Co132 O159 2.096 . S
C133 N136 1.301 . S
C133 N137 1.328 . S
C133 H138 0.930 . S
C134 C135 1.333 . S
C134 N136 1.317 . S
C134 H139 0.930 . S
C135 C134 1.333 . S
C135 N137 1.350 . S
C135 H161 0.931 . S
N136 Co132 2.148 . S
N136 C133 1.301 . S
N136 C134 1.317 . S
N137 C133 1.328 . S
N137 C135 1.350 . S
H138 C133 0.930 . S
H139 C134 0.930 . S
C140 O141 1.224 . S
C140 O159 1.247 . S
O141 C140 1.224 . S
N142 Co132 2.128 . S
N142 C143 1.355 . S
N142 C145 1.311 . S
C143 N142 1.355 . S
C143 C144 1.363 . S
C143 H155 0.929 . S
C144 C143 1.363 . S
C144 N146 1.375 . S
C144 H162 0.931 . S
C145 N142 1.311 . S
C145 N146 1.347 . S
C145 H156 0.929 . S
N146 C144 1.375 . S
N146 C145 1.347 . S
C147 C150 1.365 . S
C147 N152 1.328 . S
C147 H153 0.929 . S
C148 C149 1.362 . S
C148 C151 1.378 . S
C148 H163 0.929 . S
C149 C148 1.362 . S
C149 C150 1.366 . S
C150 C147 1.365 . S
C150 C149 1.366 . S
C150 H164 0.930 . S
C151 C148 1.378 . S
C151 N152 1.315 . S
C151 H154 0.930 . S
N152 Co132 2.194 . S
N152 C147 1.328 . S
N152 C151 1.315 . S
H153 C147 0.929 . S
H154 C151 0.930 . S
H155 C143 0.929 . S
H156 C145 0.929 . S
O157 Co132 2.351 . S
O157 C160 1.244 . S
O158 Co132 2.155 . S
O158 C160 1.240 . S
O159 Co132 2.096 . S
O159 C140 1.247 . S
C160 O157 1.244 . S
C160 O158 1.240 . S
H161 C135 0.931 . S
H162 C144 0.931 . S
H163 C148 0.929 . S
H164 C150 0.930 . S
Co165 N169 2.148 . S
Co165 N175 2.128 . S
Co165 N185 2.194 1_655 S
Co165 O190 2.351 1_655 S
Co165 O191 2.155 . S
Co165 O192 2.096 . S
C166 N169 1.301 1_455 S
C166 N170 1.328 1_455 S
C166 H171 0.930 . S
C167 C168 1.333 . S
C167 N169 1.317 . S
C167 H172 0.930 . S
C168 C167 1.333 . S
C168 N170 1.350 . S
C168 H194 0.931 . S
N169 Co165 2.148 . S
N169 C166 1.301 1_655 S
N169 C167 1.317 . S
N170 C166 1.328 1_655 S
N170 C168 1.350 . S
H171 C166 0.930 . S
H172 C167 0.930 . S
C173 O174 1.224 . S
C173 O192 1.247 . S
O174 C173 1.224 . S
N175 Co165 2.128 . S
N175 C176 1.355 1_655 S
N175 C178 1.311 . S
C176 N175 1.355 1_455 S
C176 C177 1.363 . S
C176 H188 0.929 . S
C177 C176 1.363 . S
C177 N179 1.375 1_455 S
C177 H195 0.931 . S
C178 N175 1.311 . S
C178 N179 1.347 . S
C178 H189 0.929 . S
N179 C177 1.375 1_655 S
N179 C178 1.347 . S
C180 C183 1.365 . S
C180 N185 1.328 . S
C180 H186 0.929 . S
C181 C182 1.362 . S
C181 C184 1.378 . S
C181 H196 0.929 . S
C182 C181 1.362 . S
C182 C183 1.366 . S
C183 C180 1.365 . S
C183 C182 1.366 . S
C183 H197 0.930 . S
C184 C181 1.378 . S
C184 N185 1.315 . S
C184 H187 0.930 . S
N185 Co165 2.194 1_455 S
N185 C180 1.328 . S
N185 C184 1.315 . S
H186 C180 0.929 . S
H187 C184 0.930 . S
H188 C176 0.929 . S
H189 C178 0.929 . S
O190 Co165 2.351 1_455 S
O190 C193 1.244 1_455 S
O191 Co165 2.155 . S
O191 C193 1.240 . S
O192 Co165 2.096 . S
O192 C173 1.247 . S
C193 O190 1.244 1_655 S
C193 O191 1.240 . S
H194 C168 0.931 . S
H195 C177 0.931 . S
H196 C181 0.929 . S
H197 C183 0.930 . S
Co198 N202 2.148 . S
Co198 N208 2.128 . S
Co198 N218 2.194 . S
Co198 O223 2.351 . S
Co198 O224 2.155 . S
Co198 O225 2.096 . S
C199 N202 1.301 . S
C199 N203 1.328 . S
C199 H204 0.930 . S
C200 C201 1.333 . S
C200 N202 1.317 . S
C200 H205 0.930 . S
C201 C200 1.333 . S
C201 N203 1.350 . S
C201 H227 0.931 . S
N202 Co198 2.148 . S
N202 C199 1.301 . S
N202 C200 1.317 . S
N203 C199 1.328 . S
N203 C201 1.350 . S
H204 C199 0.930 . S
H205 C200 0.930 . S
C206 O207 1.224 . S
C206 O225 1.247 . S
O207 C206 1.224 . S
N208 Co198 2.128 . S
N208 C209 1.355 . S
N208 C211 1.311 . S
C209 N208 1.355 . S
C209 C210 1.363 . S
C209 H221 0.929 . S
C210 C209 1.363 . S
C210 N212 1.375 . S
C210 H228 0.931 . S
C211 N208 1.311 . S
C211 N212 1.347 . S
C211 H222 0.929 . S
N212 C210 1.375 . S
N212 C211 1.347 . S
C213 C216 1.365 . S
C213 N218 1.328 . S
C213 H219 0.929 . S
C214 C215 1.362 . S
C214 C217 1.378 . S
C214 H229 0.929 . S
C215 C214 1.362 . S
C215 C216 1.366 . S
C216 C213 1.365 . S
C216 C215 1.366 . S
C216 H230 0.930 . S
C217 C214 1.378 . S
C217 N218 1.315 . S
C217 H220 0.930 . S
N218 Co198 2.194 . S
N218 C213 1.328 . S
N218 C217 1.315 . S
H219 C213 0.929 . S
H220 C217 0.930 . S
H221 C209 0.929 . S
H222 C211 0.929 . S
O223 Co198 2.351 . S
O223 C226 1.244 . S
O224 Co198 2.155 . S
O224 C226 1.240 . S
O225 Co198 2.096 . S
O225 C206 1.247 . S
C226 O223 1.244 . S
C226 O224 1.240 . S
H227 C201 0.931 . S
H228 C210 0.931 . S
H229 C214 0.929 . S
H230 C216 0.930 . S
Co231 N235 2.148 . S
Co231 N241 2.128 . S
Co231 N251 2.194 1_655 S
Co231 O256 2.351 1_655 S
Co231 O257 2.155 . S
Co231 O258 2.096 . S
C232 N235 1.301 1_455 S
C232 N236 1.328 1_455 S
C232 H237 0.930 . S
C233 C234 1.333 . S
C233 N235 1.317 . S
C233 H238 0.930 . S
C234 C233 1.333 . S
C234 N236 1.350 . S
C234 H260 0.931 . S
N235 Co231 2.148 . S
N235 C232 1.301 1_655 S
N235 C233 1.317 . S
N236 C232 1.328 1_655 S
N236 C234 1.350 . S
H237 C232 0.930 . S
H238 C233 0.930 . S
C239 O240 1.224 . S
C239 O258 1.247 . S
O240 C239 1.224 . S
N241 Co231 2.128 . S
N241 C242 1.355 1_655 S
N241 C244 1.311 . S
C242 N241 1.355 1_455 S
C242 C243 1.363 . S
C242 H254 0.929 . S
C243 C242 1.363 . S
C243 N245 1.375 1_455 S
C243 H261 0.931 . S
C244 N241 1.311 . S
C244 N245 1.347 . S
C244 H255 0.929 . S
N245 C243 1.375 1_655 S
N245 C244 1.347 . S
C246 C249 1.365 . S
C246 N251 1.328 . S
C246 H252 0.929 . S
C247 C248 1.362 . S
C247 C250 1.378 . S
C247 H262 0.929 . S
C248 C247 1.362 . S
C248 C249 1.366 . S
C249 C246 1.365 . S
C249 C248 1.366 . S
C249 H263 0.930 . S
C250 C247 1.378 . S
C250 N251 1.315 . S
C250 H253 0.930 . S
N251 Co231 2.194 1_455 S
N251 C246 1.328 . S
N251 C250 1.315 . S
H252 C246 0.929 . S
H253 C250 0.930 . S
H254 C242 0.929 . S
H255 C244 0.929 . S
O256 Co231 2.351 1_455 S
O256 C259 1.244 1_455 S
O257 Co231 2.155 . S
O257 C259 1.240 . S
O258 Co231 2.096 . S
O258 C239 1.247 . S
C259 O256 1.244 1_655 S
C259 O257 1.240 . S
H260 C234 0.931 . S
H261 C243 0.931 . S
H262 C247 0.929 . S
H263 C249 0.930 . S
H264 C270 0.930 . S
H265 C274 0.930 . S
H266 C279 0.929 . S
H267 C277 0.929 . S
H268 C272 0.929 . S
H269 C278 0.929 . S
C270 H264 0.930 . S
C270 C271 1.367 . S
C270 C278 1.378 . S
C271 C270 1.367 . S
C271 C279 1.433 . S
C272 H268 0.929 . S
C272 C274 1.378 . S
C272 C276 1.350 . S
C273 C276 1.463 1_556 S
C273 C278 1.350 . S
C273 N281 1.427 1_556 S
C274 H265 0.930 . S
C274 C272 1.378 . S
C274 C275 1.367 . S
C275 C274 1.367 . S
C275 C277 1.433 . S
C276 C272 1.350 . S
C276 C273 1.463 1_554 S
C276 N280 1.431 . S
C277 H267 0.929 . S
C277 C275 1.433 . S
C277 N280 1.389 . S
C278 H269 0.929 . S
C278 C270 1.378 . S
C278 C273 1.350 . S
C279 H266 0.929 . S
C279 C271 1.433 . S
C279 N281 1.384 1_556 S
N280 C276 1.431 . S
N280 C277 1.389 . S
N281 C273 1.427 1_554 S
N281 C279 1.384 1_554 S
H282 C288 0.930 . S
H283 C292 0.930 . S
H284 C297 0.929 . S
H285 C295 0.929 . S
H286 C290 0.929 . S
H287 C296 0.929 . S
C288 H282 0.930 . S
C288 C289 1.367 . S
C288 C296 1.378 . S
C289 C288 1.367 . S
C289 C297 1.433 . S
C290 H286 0.929 . S
C290 C292 1.378 . S
C290 C294 1.350 . S
C291 C294 1.463 . S
C291 C296 1.350 . S
C291 N299 1.427 . S
C292 H283 0.930 . S
C292 C290 1.378 . S
C292 C293 1.367 . S
C293 C292 1.367 . S
C293 C295 1.433 . S
C294 C290 1.350 . S
C294 C291 1.463 . S
C294 N298 1.427 . S
C295 H285 0.929 . S
C295 C293 1.433 . S
C295 N298 1.384 . S
C296 H287 0.929 . S
C296 C288 1.378 . S
C296 C291 1.350 . S
C297 H284 0.929 . S
C297 C289 1.433 . S
C297 N299 1.384 . S
N298 C294 1.427 . S
N298 C295 1.384 . S
N299 C291 1.427 . S
N299 C297 1.384 . S
H300 C306 0.930 . S
H301 C310 0.930 . S
H302 C315 0.929 . S
H303 C313 0.929 . S
H304 C308 0.936 . S
H305 C314 0.929 1_556 S
C306 H300 0.930 . S
C306 C307 1.367 . S
C306 C314 1.378 . S
C307 C306 1.367 . S
C307 C315 1.433 . S
C308 H304 0.936 . S
C308 C310 1.378 . S
C308 C312 1.350 . S
C309 C312 1.463 1_554 S
C309 C314 1.350 . S
C309 N317 1.427 . S
C310 H301 0.930 . S
C310 C308 1.378 . S
C310 C311 1.367 . S
C311 C310 1.367 . S
C311 C313 1.433 . S
C312 C308 1.350 . S
C312 C309 1.463 1_556 S
C312 N316 1.427 . S
C313 H303 0.929 . S
C313 C311 1.433 . S
C313 N316 1.384 . S
C314 H305 0.929 1_554 S
C314 C306 1.378 . S
C314 C309 1.350 . S
C315 H302 0.929 . S
C315 C307 1.433 . S
C315 N317 1.384 . S
N316 C312 1.427 . S
N316 C313 1.384 . S
N317 C309 1.427 . S
N317 C315 1.384 . S
H318 C324 0.930 . S
H319 C328 0.930 . S
H320 C333 0.929 . S
H321 C331 0.929 . S
H322 C326 0.929 . S
H323 C332 0.929 . S
C324 H318 0.930 . S
C324 C325 1.367 . S
C324 C332 1.378 . S
C325 C324 1.367 . S
C325 C333 1.433 . S
C326 H322 0.929 . S
C326 C328 1.378 . S
C326 C330 1.350 . S
C327 C330 1.463 . S
C327 C332 1.350 . S
C327 N335 1.427 . S
C328 H319 0.930 . S
C328 C326 1.378 . S
C328 C329 1.367 . S
C329 C328 1.367 . S
C329 C331 1.433 . S
C330 C326 1.350 . S
C330 C327 1.463 . S
C330 N334 1.427 . S
C331 H321 0.929 . S
C331 C329 1.433 . S
C331 N334 1.384 . S
C332 H323 0.929 . S
C332 C324 1.378 . S
C332 C327 1.350 . S
C333 H320 0.929 . S
C333 C325 1.433 . S
C333 N335 1.384 . S
N334 C330 1.427 . S
N334 C331 1.384 . S
N335 C327 1.427 . S
N335 C333 1.384 . S
H336 C342 0.930 . S
H337 C346 0.930 . S
H338 C351 0.929 . S
H339 C349 0.929 . S
H340 C344 0.929 . S
H341 C350 0.929 . S
C342 H336 0.930 . S
C342 C343 1.367 . S
C342 C350 1.378 . S
C343 C342 1.367 . S
C343 C351 1.433 . S
C344 H340 0.929 . S
C344 C346 1.378 . S
C344 C348 1.350 . S
C345 C348 1.463 1_554 S
C345 C350 1.350 . S
C345 N353 1.427 . S
C346 H337 0.930 . S
C346 C344 1.378 . S
C346 C347 1.367 . S
C347 C346 1.367 . S
C347 C349 1.433 . S
C348 C344 1.350 . S
C348 C345 1.463 1_556 S
C348 N352 1.427 . S
C349 H339 0.929 . S
C349 C347 1.433 . S
C349 N352 1.384 . S
C350 H341 0.929 . S
C350 C342 1.378 . S
C350 C345 1.350 . S
C351 H338 0.929 . S
C351 C343 1.433 . S
C351 N353 1.384 . S
N352 C348 1.427 . S
N352 C349 1.384 . S
N353 C345 1.427 . S
N353 C351 1.384 . S
H354 C360 0.930 . S
H355 C364 0.930 . S
H356 C369 0.929 . S
H357 C367 0.929 . S
H358 C362 0.929 . S
H359 C368 0.929 . S
C360 H354 0.930 . S
C360 C361 1.367 . S
C360 C368 1.378 . S
C361 C360 1.367 . S
C361 C369 1.433 . S
C362 H358 0.929 . S
C362 C364 1.378 . S
C362 C366 1.350 . S
C363 C366 1.463 . S
C363 C368 1.350 . S
C363 N371 1.427 . S
C364 H355 0.930 . S
C364 C362 1.378 . S
C364 C365 1.367 . S
C365 C364 1.367 . S
C365 C367 1.433 . S
C366 C362 1.350 . S
C366 C363 1.463 . S
C366 N370 1.427 . S
C367 H357 0.929 . S
C367 C365 1.433 . S
C367 N370 1.384 . S
C368 H359 0.929 . S
C368 C360 1.378 . S
C368 C363 1.350 . S
C369 H356 0.929 . S
C369 C361 1.433 . S
C369 N371 1.384 . S
N370 C366 1.427 . S
N370 C367 1.384 . S
N371 C363 1.427 . S
N371 C369 1.384 . S
H372 C378 0.930 . S
H373 C382 0.930 . S
H374 C387 0.929 . S
H375 C385 0.929 . S
H376 C380 0.929 . S
H377 C386 0.929 . S
C378 H372 0.930 . S
C378 C379 1.367 . S
C378 C386 1.378 . S
C379 C378 1.367 . S
C379 C387 1.433 . S
C380 H376 0.929 . S
C380 C382 1.378 . S
C380 C384 1.350 . S
C381 C384 1.463 1_554 S
C381 C386 1.350 . S
C381 N389 1.427 . S
C382 H373 0.930 . S
C382 C380 1.378 . S
C382 C383 1.367 . S
C383 C382 1.367 . S
C383 C385 1.433 . S
C384 C380 1.350 . S
C384 C381 1.463 1_556 S
C384 N388 1.427 . S
C385 H375 0.929 . S
C385 C383 1.433 . S
C385 N388 1.384 . S
C386 H377 0.929 . S
C386 C378 1.378 . S
C386 C381 1.350 . S
C387 H374 0.929 . S
C387 C379 1.433 . S
C387 N389 1.384 . S
N388 C384 1.427 . S
N388 C385 1.384 . S
N389 C381 1.427 . S
N389 C387 1.384 . S
H390 C396 0.930 . S
H391 C400 0.930 . S
H392 C405 0.929 . S
H393 C403 0.929 . S
H394 C398 0.929 . S
H395 C404 0.929 . S
C396 H390 0.930 . S
C396 C397 1.367 . S
C396 C404 1.378 . S
C397 C396 1.367 . S
C397 C405 1.433 . S
C398 H394 0.929 . S
C398 C400 1.378 . S
C398 C402 1.350 . S
C399 C402 1.463 . S
C399 C404 1.350 . S
C399 N407 1.427 . S
C400 H391 0.930 . S
C400 C398 1.378 . S
C400 C401 1.367 . S
C401 C400 1.367 . S
C401 C403 1.433 . S
C402 C398 1.350 . S
C402 C399 1.463 . S
C402 N406 1.427 . S
C403 H393 0.929 . S
C403 C401 1.433 . S
C403 N406 1.384 . S
C404 H395 0.929 . S
C404 C396 1.378 . S
C404 C399 1.350 . S
C405 H392 0.929 . S
C405 C397 1.433 . S
C405 N407 1.384 . S
N406 C402 1.427 . S
N406 C403 1.384 . S
N407 C399 1.427 . S
N407 C405 1.384 . S
H408 C414 0.930 . S
H409 C418 0.930 . S
H410 C423 0.929 . S
H411 C421 0.929 . S
H412 C416 0.929 . S
H413 C422 0.929 . S
C414 H408 0.930 . S
C414 C415 1.367 . S
C414 C422 1.378 . S
C415 C414 1.367 . S
C415 C423 1.433 1_455 S
C416 H412 0.929 . S
C416 C418 1.378 . S
C416 C420 1.350 1_655 S
C417 C420 1.463 . S
C417 C422 1.350 . S
C417 N425 1.427 1_455 S
C418 H409 0.930 . S
C418 C416 1.378 . S
C418 C419 1.387 . S
C419 C418 1.387 . S
C419 C421 1.412 1_655 S
C420 C416 1.350 1_455 S
C420 C417 1.463 . S
C420 N424 1.427 . S
C421 H411 0.929 . S
C421 C419 1.412 1_455 S
C421 N424 1.384 . S
C422 H413 0.929 . S
C422 C414 1.378 . S
C422 C417 1.350 . S
C423 H410 0.929 . S
C423 C415 1.433 1_655 S
C423 N425 1.384 . S
N424 C420 1.427 . S
N424 C421 1.384 . S
N425 C417 1.427 1_655 S
N425 C423 1.384 . S
H426 C432 0.930 . S
H427 C436 0.930 . S
H428 C441 0.929 . S
H429 C439 0.929 . S
H430 C434 0.929 . S
H431 C440 0.929 . S
C432 H426 0.930 . S
C432 C433 1.367 . S
C432 C440 1.378 . S
C433 C432 1.367 . S
C433 C441 1.433 . S
C434 H430 0.929 . S
C434 C436 1.378 . S
C434 C438 1.350 . S
C435 C438 1.463 . S
C435 C440 1.350 . S
C435 N443 1.427 . S
C436 H427 0.930 . S
C436 C434 1.378 . S
C436 C437 1.367 . S
C437 C436 1.367 . S
C437 C439 1.433 . S
C438 C434 1.350 . S
C438 C435 1.463 . S
C438 N442 1.427 . S
C439 H429 0.929 . S
C439 C437 1.433 . S
C439 N442 1.384 . S
C440 H431 0.929 . S
C440 C432 1.378 . S
C440 C435 1.350 . S
C441 H428 0.929 . S
C441 C433 1.433 . S
C441 N443 1.384 . S
N442 C438 1.427 . S
N442 C439 1.384 . S
N443 C435 1.427 . S
N443 C441 1.384 . S
H444 C450 0.930 . S
H445 C454 0.930 . S
H446 C459 0.929 . S
H447 C457 0.929 . S
H448 C452 0.929 . S
H449 C458 0.929 . S
C450 H444 0.930 . S
C450 C451 1.369 . S
C450 C458 1.378 . S
C451 C450 1.369 . S
C451 C459 1.431 1_655 S
C452 H448 0.929 . S
C452 C454 1.378 . S
C452 C456 1.350 . S
C453 C456 1.463 . S
C453 C458 1.350 1_455 S
C453 N461 1.427 . S
C454 H445 0.930 . S
C454 C452 1.378 . S
C454 C455 1.367 . S
C455 C454 1.367 . S
C455 C457 1.433 1_455 S
C456 C452 1.350 . S
C456 C453 1.463 . S
C456 N460 1.427 1_455 S
C457 H447 0.929 . S
C457 C455 1.433 1_655 S
C457 N460 1.384 . S
C458 H449 0.929 . S
C458 C450 1.378 . S
C458 C453 1.350 1_655 S
C459 H446 0.929 . S
C459 C451 1.431 1_455 S
C459 N461 1.384 . S
N460 C456 1.427 1_655 S
N460 C457 1.384 . S
N461 C453 1.427 . S
N461 C459 1.384 . S
H462 C468 0.930 . S
H463 C472 0.930 . S
H464 C477 0.929 . S
H465 C475 0.929 . S
H466 C470 0.929 . S
H467 C476 0.929 . S
C468 H462 0.930 . S
C468 C469 1.367 . S
C468 C476 1.378 . S
C469 C468 1.367 . S
C469 C477 1.433 . S
C470 H466 0.929 . S
C470 C472 1.378 . S
C470 C474 1.350 . S
C471 C474 1.463 . S
C471 C476 1.350 . S
C471 N479 1.427 . S
C472 H463 0.930 . S
C472 C470 1.378 . S
C472 C473 1.367 . S
C473 C472 1.367 . S
C473 C475 1.433 . S
C474 C470 1.350 . S
C474 C471 1.463 . S
C474 N478 1.427 . S
C475 H465 0.929 . S
C475 C473 1.433 . S
C475 N478 1.384 . S
C476 H467 0.929 . S
C476 C468 1.378 . S
C476 C471 1.350 . S
C477 H464 0.929 . S
C477 C469 1.433 . S
C477 N479 1.384 . S
N478 C474 1.427 . S
N478 C475 1.384 . S
N479 C471 1.427 . S
N479 C477 1.384 . S
H480 C486 0.930 . S
H481 C490 0.930 . S
H482 C495 0.929 . S
H483 C493 0.929 . S
H484 C488 0.929 1_565 S
H485 C494 0.929 1_545 S
C486 H480 0.930 . S
C486 C487 1.367 . S
C486 C494 1.378 . S
C487 C486 1.367 . S
C487 C495 1.433 . S
C488 H484 0.929 1_545 S
C488 C490 1.378 . S
C488 C492 1.350 . S
C489 C492 1.463 1_565 S
C489 C494 1.350 . S
C489 N497 1.427 . S
C490 H481 0.930 . S
C490 C488 1.378 . S
C490 C491 1.367 . S
C491 C490 1.367 . S
C491 C493 1.433 . S
C492 C488 1.350 . S
C492 C489 1.463 1_545 S
C492 N496 1.427 . S
C493 H483 0.929 . S
C493 C491 1.433 . S
C493 N496 1.384 . S
C494 H485 0.929 1_565 S
C494 C486 1.378 . S
C494 C489 1.350 . S
C495 H482 0.929 . S
C495 C487 1.433 . S
C495 N497 1.384 . S
N496 C492 1.427 . S
N496 C493 1.384 . S
N497 C489 1.427 . S
N497 C495 1.384 . S
H498 C504 0.930 . S
H499 C508 0.930 . S
H500 C513 0.929 . S
H501 C511 0.929 . S
H502 C506 0.929 . S
H503 C512 0.929 . S
C504 H498 0.930 . S
C504 C505 1.367 1_655 S
C504 C512 1.378 . S
C505 C504 1.367 1_455 S
C505 C513 1.433 . S
C506 H502 0.929 . S
C506 C508 1.378 . S
C506 C510 1.350 . S
C507 C510 1.463 1_565 S
C507 C512 1.350 1_455 S
C507 N515 1.427 . S
C508 H499 0.930 . S
C508 C506 1.378 . S
C508 C509 1.367 . S
C509 C508 1.367 . S
C509 C511 1.433 1_455 S
C510 C506 1.350 . S
C510 C507 1.463 1_545 S
C510 N514 1.427 1_455 S
C511 H501 0.929 . S
C511 C509 1.433 1_655 S
C511 N514 1.384 . S
C512 H503 0.929 . S
C512 C504 1.378 . S
C512 C507 1.350 1_655 S
C513 H500 0.929 . S
C513 C505 1.433 . S
C513 N515 1.384 . S
N514 C510 1.427 1_655 S
N514 C511 1.384 . S
N515 C507 1.427 . S
N515 C513 1.384 . S
H516 C522 0.930 . S
H517 C526 0.930 . S
H518 C531 0.929 . S
H519 C529 0.929 . S
H520 C524 0.929 . S
H521 C530 0.929 . S
C522 H516 0.930 . S
C522 C523 1.367 . S
C522 C530 1.378 . S
C523 C522 1.367 . S
C523 C531 1.433 . S
C524 H520 0.929 . S
C524 C526 1.378 . S
C524 C528 1.350 . S
C525 C528 1.463 1_565 S
C525 C530 1.350 . S
C525 N533 1.427 . S
C526 H517 0.930 . S
C526 C524 1.378 . S
C526 C527 1.367 . S
C527 C526 1.367 . S
C527 C529 1.433 . S
C528 C524 1.350 . S
C528 C525 1.463 1_545 S
C528 N532 1.427 . S
C529 H519 0.929 . S
C529 C527 1.433 . S
C529 N532 1.384 . S
C530 H521 0.929 . S
C530 C522 1.378 . S
C530 C525 1.350 . S
C531 H518 0.929 . S
C531 C523 1.433 . S
C531 N533 1.384 . S
N532 C528 1.427 . S
N532 C529 1.384 . S
N533 C525 1.427 . S
N533 C531 1.384 . S
H534 C540 0.930 . S
H535 C544 0.930 . S
H536 C549 0.929 . S
H537 C547 0.929 . S
H538 C542 0.929 . S
H539 C548 0.929 . S
C540 H534 0.930 . S
C540 C541 1.367 1_655 S
C540 C548 1.378 . S
C541 C540 1.367 1_455 S
C541 C549 1.433 . S
C542 H538 0.929 . S
C542 C544 1.378 . S
C542 C546 1.350 . S
C543 C546 1.463 1_545 S
C543 C548 1.350 1_455 S
C543 N551 1.427 . S
C544 H535 0.930 . S
C544 C542 1.378 . S
C544 C545 1.367 . S
C545 C544 1.367 . S
C545 C547 1.433 1_455 S
C546 C542 1.350 . S
C546 C543 1.463 1_565 S
C546 N550 1.427 1_455 S
C547 H537 0.929 . S
C547 C545 1.433 1_655 S
C547 N550 1.384 . S
C548 H539 0.929 . S
C548 C540 1.378 . S
C548 C543 1.350 1_655 S
C549 H536 0.929 . S
C549 C541 1.433 . S
C549 N551 1.384 . S
N550 C546 1.427 1_655 S
N550 C547 1.384 . S
N551 C543 1.427 . S
N551 C549 1.384 . S
H552 C558 0.930 . S
H553 C562 0.930 . S
H554 C567 0.937 . S
H555 C565 0.929 . S
H556 C560 0.961 . S
H557 C566 0.961 . S
C558 H552 0.930 . S
C558 C559 1.367 . S
C558 C566 1.357 1_556 S
C559 C558 1.367 . S
C559 C567 1.433 . S
C560 H556 0.961 . S
C560 C562 1.357 1_556 S
C560 C564 1.339 1_556 S
C561 C564 1.463 1_556 S
C561 C566 1.339 1_556 S
C561 N569 1.427 . S
C562 H553 0.930 . S
C562 C560 1.357 1_554 S
C562 C563 1.367 . S
C563 C562 1.367 . S
C563 C565 1.433 . S
C564 C560 1.339 1_554 S
C564 C561 1.463 1_554 S
C564 N568 1.427 . S
C565 H555 0.929 . S
C565 C563 1.433 . S
C565 N568 1.384 . S
C566 H557 0.961 . S
C566 C558 1.357 1_554 S
C566 C561 1.339 1_554 S
C567 H554 0.937 . S
C567 C559 1.433 . S
C567 N569 1.384 . S
N568 C564 1.427 . S
N568 C565 1.384 . S
N569 C561 1.427 . S
N569 C567 1.384 . S
H570 C576 0.930 . S
H571 C580 0.930 . S
H572 C585 0.929 . S
H573 C583 0.929 . S
H574 C578 0.929 . S
H575 C584 0.929 . S
C576 H570 0.930 . S
C576 C577 1.367 . S
C576 C584 1.378 . S
C577 C576 1.367 . S
C577 C585 1.433 . S
C578 H574 0.929 . S
C578 C580 1.378 . S
C578 C582 1.350 . S
C579 C582 1.463 . S
C579 C584 1.350 . S
C579 N587 1.427 . S
C580 H571 0.930 . S
C580 C578 1.378 . S
C580 C581 1.367 . S
C581 C580 1.367 . S
C581 C583 1.433 . S
C582 C578 1.350 . S
C582 C579 1.463 . S
C582 N586 1.427 . S
C583 H573 0.929 . S
C583 C581 1.433 . S
C583 N586 1.384 . S
C584 H575 0.929 . S
C584 C576 1.378 . S
C584 C579 1.350 . S
C585 H572 0.929 . S
C585 C577 1.433 . S
C585 N587 1.384 . S
N586 C582 1.427 . S
N586 C583 1.384 . S
N587 C579 1.427 . S
N587 C585 1.384 . S
H588 C594 0.930 . S
H589 C598 0.930 . S
H590 C603 0.929 . S
H591 C601 0.929 . S
H592 C596 0.957 . S
H593 C602 0.957 . S
C594 H588 0.930 . S
C594 C595 1.367 . S
C594 C602 1.360 1_556 S
C595 C594 1.367 . S
C595 C603 1.433 . S
C596 H592 0.957 . S
C596 C598 1.360 1_556 S
C596 C600 1.340 1_556 S
C597 C600 1.463 1_546 S
C597 C602 1.340 1_556 S
C597 N605 1.427 . S
C598 H589 0.930 . S
C598 C596 1.360 1_554 S
C598 C599 1.367 . S
C599 C598 1.367 . S
C599 C601 1.433 . S
C600 C596 1.340 1_554 S
C600 C597 1.463 1_564 S
C600 N604 1.427 . S
C601 H591 0.929 . S
C601 C599 1.433 . S
C601 N604 1.384 . S
C602 H593 0.957 . S
C602 C594 1.360 1_554 S
C602 C597 1.340 1_554 S
C603 H590 0.929 . S
C603 C595 1.433 . S
C603 N605 1.384 . S
N604 C600 1.427 . S
N604 C601 1.384 . S
N605 C597 1.427 . S
N605 C603 1.384 . S
H606 C612 0.930 1_455 S
H607 C616 0.930 . S
H608 C621 0.929 . S
H609 C619 0.929 1_455 S
H610 C614 0.929 . S
H611 C620 0.929 1_455 S
C612 H606 0.930 1_655 S
C612 C613 1.367 . S
C612 C620 1.378 . S
C613 C612 1.367 . S
C613 C621 1.433 . S
C614 H610 0.929 . S
C614 C616 1.378 . S
C614 C618 1.350 . S
C615 C618 1.463 1_565 S
C615 C620 1.350 . S
C615 N623 1.427 . S
C616 H607 0.930 . S
C616 C614 1.378 . S
C616 C617 1.367 . S
C617 C616 1.367 . S
C617 C619 1.433 . S
C618 C614 1.350 . S
C618 C615 1.463 1_545 S
C618 N622 1.427 . S
C619 H609 0.929 1_655 S
C619 C617 1.433 . S
C619 N622 1.384 . S
C620 H611 0.929 1_655 S
C620 C612 1.378 . S
C620 C615 1.350 . S
C621 H608 0.929 . S
C621 C613 1.433 . S
C621 N623 1.384 . S
N622 C618 1.427 . S
N622 C619 1.384 . S
N623 C615 1.427 . S
N623 C621 1.384 . S
C271 C215 1.813 . S
C275 C8 1.815 . S
C289 C41 1.810 . S
C293 C248 1.808 . S
C307 C149 1.807 . S
C311 C74 1.808 . S
C325 C107 1.817 . S
C329 C182 1.815 . S
C343 C140 1.817 . S
C347 C83 1.815 . S
C361 C173 1.815 . S
C365 C116 1.814 . S
C379 C17 1.816 . S
C383 C206 1.817 . S
C397 C50 1.811 . S
C401 C239 1.812 . S
C415 C28 1.948 . S
C419 N236 1.933 . S
C433 C61 1.946 . S
C437 N203 1.928 . S
C451 N170 1.929 . S
C455 C94 1.943 . S
C469 C127 1.948 . S
C473 N137 1.929 . S
C487 C160 1.944 . S
C491 N104 1.932 . S
C505 N71 1.936 . S
C509 C193 1.949 1_455 S
C523 N38 1.934 . S
C527 C226 1.946 . S
C541 N5 1.936 . S
C545 C259 1.948 1_455 S
C559 N80 0.615 . S
C563 N14 0.603 . S
C577 N47 0.604 . S
C581 N113 0.615 . S
C595 N212 0.615 . S
C599 N146 0.603 . S
C613 N245 0.602 . S
C617 N179 0.615 . S
