# Generated by pormake.
# Topology vbe, (5)-cn, num edge types: 1
# Building blocks:
#     Node 0, Type 0, BuildingBlock: BEQFEK_clean_sbu_0, # of connection points: 5
#     Node 1, Type 0, BuildingBlock: BEQFEK_clean_sbu_0, # of connection points: 5
#     Node 2, Type 0, BuildingBlock: BEQFEK_clean_sbu_0, # of connection points: 5
#     Node 3, Type 0, BuildingBlock: BEQFEK_clean_sbu_0, # of connection points: 5
#     Node 4, Type 0, BuildingBlock: BEQFEK_clean_sbu_0, # of connection points: 5
#     Node 5, Type 0, BuildingBlock: BEQFEK_clean_sbu_0, # of connection points: 5
#     Node 6, Type 0, BuildingBlock: BEQFEK_clean_sbu_0, # of connection points: 5
#     Node 7, Type 0, BuildingBlock: BEQFEK_clean_sbu_0, # of connection points: 5
#     Node 8, Type 0, BuildingBlock: BEQFEK_clean_sbu_0, # of connection points: 5
#     Node 9, Type 0, BuildingBlock: BEQFEK_clean_sbu_0, # of connection points: 5
#     Node 10, Type 0, BuildingBlock: BEQFEK_clean_sbu_0, # of connection points: 5
#     Node 11, Type 0, BuildingBlock: BEQFEK_clean_sbu_0, # of connection points: 5
#     Node 12, Type 0, BuildingBlock: BEQFEK_clean_sbu_0, # of connection points: 5
#     Node 13, Type 0, BuildingBlock: BEQFEK_clean_sbu_0, # of connection points: 5
#     Node 14, Type 0, BuildingBlock: BEQFEK_clean_sbu_0, # of connection points: 5
#     Node 15, Type 0, BuildingBlock: BEQFEK_clean_sbu_0, # of connection points: 5
#     Edge 16, Type (0, 0), BuildingBlock: MIFKUJ_clean_linker_0, # of connection points: 2
#     Edge 17, Type (0, 0), BuildingBlock: MIFKUJ_clean_linker_0, # of connection points: 2
#     Edge 18, Type (0, 0), BuildingBlock: MIFKUJ_clean_linker_0, # of connection points: 2
#     Edge 19, Type (0, 0), BuildingBlock: MIFKUJ_clean_linker_0, # of connection points: 2
#     Edge 20, Type (0, 0), BuildingBlock: MIFKUJ_clean_linker_0, # of connection points: 2
#     Edge 21, Type (0, 0), BuildingBlock: MIFKUJ_clean_linker_0, # of connection points: 2
#     Edge 22, Type (0, 0), BuildingBlock: MIFKUJ_clean_linker_0, # of connection points: 2
#     Edge 23, Type (0, 0), BuildingBlock: MIFKUJ_clean_linker_0, # of connection points: 2
#     Edge 24, Type (0, 0), BuildingBlock: MIFKUJ_clean_linker_0, # of connection points: 2
#     Edge 25, Type (0, 0), BuildingBlock: MIFKUJ_clean_linker_0, # of connection points: 2
#     Edge 26, Type (0, 0), BuildingBlock: MIFKUJ_clean_linker_0, # of connection points: 2
#     Edge 27, Type (0, 0), BuildingBlock: MIFKUJ_clean_linker_0, # of connection points: 2
#     Edge 28, Type (0, 0), BuildingBlock: MIFKUJ_clean_linker_0, # of connection points: 2
#     Edge 29, Type (0, 0), BuildingBlock: MIFKUJ_clean_linker_0, # of connection points: 2
#     Edge 30, Type (0, 0), BuildingBlock: MIFKUJ_clean_linker_0, # of connection points: 2
#     Edge 31, Type (0, 0), BuildingBlock: MIFKUJ_clean_linker_0, # of connection points: 2
#     Edge 32, Type (0, 0), BuildingBlock: MIFKUJ_clean_linker_0, # of connection points: 2
#     Edge 33, Type (0, 0), BuildingBlock: MIFKUJ_clean_linker_0, # of connection points: 2
#     Edge 34, Type (0, 0), BuildingBlock: MIFKUJ_clean_linker_0, # of connection points: 2
#     Edge 35, Type (0, 0), BuildingBlock: MIFKUJ_clean_linker_0, # of connection points: 2
#     Edge 36, Type (0, 0), BuildingBlock: MIFKUJ_clean_linker_0, # of connection points: 2
#     Edge 37, Type (0, 0), BuildingBlock: MIFKUJ_clean_linker_0, # of connection points: 2
#     Edge 38, Type (0, 0), BuildingBlock: MIFKUJ_clean_linker_0, # of connection points: 2
#     Edge 39, Type (0, 0), BuildingBlock: MIFKUJ_clean_linker_0, # of connection points: 2
#     Edge 40, Type (0, 0), BuildingBlock: MIFKUJ_clean_linker_0, # of connection points: 2
#     Edge 41, Type (0, 0), BuildingBlock: MIFKUJ_clean_linker_0, # of connection points: 2
#     Edge 42, Type (0, 0), BuildingBlock: MIFKUJ_clean_linker_0, # of connection points: 2
#     Edge 43, Type (0, 0), BuildingBlock: MIFKUJ_clean_linker_0, # of connection points: 2
#     Edge 44, Type (0, 0), BuildingBlock: MIFKUJ_clean_linker_0, # of connection points: 2
#     Edge 45, Type (0, 0), BuildingBlock: MIFKUJ_clean_linker_0, # of connection points: 2
#     Edge 46, Type (0, 0), BuildingBlock: MIFKUJ_clean_linker_0, # of connection points: 2
#     Edge 47, Type (0, 0), BuildingBlock: MIFKUJ_clean_linker_0, # of connection points: 2
#     Edge 48, Type (0, 0), BuildingBlock: MIFKUJ_clean_linker_0, # of connection points: 2
#     Edge 49, Type (0, 0), BuildingBlock: MIFKUJ_clean_linker_0, # of connection points: 2
#     Edge 50, Type (0, 0), BuildingBlock: MIFKUJ_clean_linker_0, # of connection points: 2
#     Edge 51, Type (0, 0), BuildingBlock: MIFKUJ_clean_linker_0, # of connection points: 2
#     Edge 52, Type (0, 0), BuildingBlock: MIFKUJ_clean_linker_0, # of connection points: 2
#     Edge 53, Type (0, 0), BuildingBlock: MIFKUJ_clean_linker_0, # of connection points: 2
#     Edge 54, Type (0, 0), BuildingBlock: MIFKUJ_clean_linker_0, # of connection points: 2
#     Edge 55, Type (0, 0), BuildingBlock: MIFKUJ_clean_linker_0, # of connection points: 2
# Relax obj value: 0.312
# Max RMSD: 0.186
# Mean RMSD: 0.186
data_MOF--net-vbe--node1-BEQFEK_clean_sbu_0--edge1-MIFKUJ_clean_linker_0
_symmetry_space_group_name_H-M    P1
_symmetry_Int_Tables_number       1
_symmetry_cell_setting            triclinic
loop_
_symmetry_equiv_pos_as_xyz
'x, y, z'
_cell_length_a     57.441187
_cell_length_b     51.045576
_cell_length_c     70.007535
_cell_angle_alpha  89.957448
_cell_angle_beta   90.026494
_cell_angle_gamma 89.982275
loop_
_atom_site_label
_atom_site_type_symbol
_atom_site_fract_x
_atom_site_fract_y
_atom_site_fract_z
_atom_type_partial_charge
Co0 Co 0.10396 0.13919 0.354 0.0
Co1 Co 0.08117 0.09201 0.37608 0.0
C2 C 0.07394 0.14788 0.38806 0.0
O3 O 0.08695 0.15711 0.37488 0.0
O4 O 0.07034 0.12337 0.38981 0.0
C5 C 0.1251 0.18788 0.33892 0.0
O6 O 0.11795 0.20028 0.35428 0.0
C7 C 0.06818 0.05814 0.40812 0.0
C8 C 0.05886 0.02138 0.39323 0.0
C9 C 0.05991 0.03291 0.4111 0.0
N10 N 0.07203 0.06121 0.38934 0.0
N11 N 0.06662 0.03915 0.38054 0.0
C12 C 0.06985 0.08008 0.42223 0.0
H13 H 0.05413 0.09257 0.42087 0.0
H14 H 0.08528 0.09237 0.41895 0.0
H15 H 0.07089 0.073 0.43714 0.0
C16 C 0.14659 0.11013 0.36396 0.0
N17 N 0.12334 0.11305 0.3641 0.0
N18 N 0.11384 0.09323 0.37326 0.0
C19 C 0.13079 0.0771 0.37936 0.0
C20 C 0.15205 0.08742 0.3738 0.0
C21 C 0.16308 0.12884 0.35463 0.0
H22 H 0.15912 0.14908 0.3594 0.0
H23 H 0.18146 0.12406 0.35806 0.0
H24 H 0.16054 0.1281 0.33892 0.0
O25 O 0.08125 0.124 0.3361 0.0
O26 O 0.06489 0.09077 0.35141 0.0
H27 H 0.11425 0.0396 0.38039 0.0
H28 H 0.14272 0.03997 0.39109 0.0
C29 C 0.1265 0.05139 0.38908 0.0
H30 H 0.11839 0.05497 0.40321 0.0
H31 H 0.06766 0.03645 0.36578 0.0
O32 O 0.12167 0.16339 0.33741 0.0
C33 C 0.06683 0.10517 0.33672 0.0
Co34 Co 0.38419 0.85789 0.35004 0.0
Co35 Co 0.40794 0.90073 0.37548 0.0
C36 C 0.41655 0.84341 0.38159 0.0
O37 O 0.40281 0.83666 0.36814 0.0
O38 O 0.42013 0.8674 0.38564 0.0
C39 C 0.36423 0.81101 0.33287 0.0
O40 O 0.37503 0.79782 0.34634 0.0
C41 C 0.42244 0.92816 0.41006 0.0
C42 C 0.43065 0.96764 0.39894 0.0
C43 C 0.43059 0.95265 0.41545 0.0
N44 N 0.41806 0.92866 0.39124 0.0
N45 N 0.42298 0.95228 0.38466 0.0
C46 C 0.41761 0.90498 0.42253 0.0
H47 H 0.40289 0.89346 0.41662 0.0
H48 H 0.41347 0.91122 0.43733 0.0
H49 H 0.43322 0.89217 0.42286 0.0
C50 C 0.34207 0.88474 0.36384 0.0
N51 N 0.36527 0.88149 0.3635 0.0
N52 N 0.37514 0.89968 0.37403 0.0
C53 C 0.35853 0.91526 0.38138 0.0
C54 C 0.33701 0.9062 0.37521 0.0
C55 C 0.32526 0.86795 0.35304 0.0
H56 H 0.32721 0.8718 0.33752 0.0
H57 H 0.32937 0.847 0.3556 0.0
H58 H 0.30701 0.87189 0.35738 0.0
O59 O 0.40516 0.87681 0.3324 0.0
O60 O 0.42192 0.90713 0.35035 0.0
H61 H 0.37565 0.95231 0.38376 0.0
H62 H 0.34759 0.95154 0.39506 0.0
C63 C 0.36351 0.93999 0.39216 0.0
H64 H 0.37204 0.93504 0.40591 0.0
H65 H 0.42124 0.95786 0.37038 0.0
O66 O 0.36528 0.83585 0.33282 0.0
C67 C 0.41917 0.89589 0.33434 0.0
Co68 Co 0.59725 0.87666 0.15728 0.0
Co69 Co 0.57096 0.91555 0.12988 0.0
C70 C 0.56298 0.85802 0.12792 0.0
O71 O 0.57773 0.85327 0.1411 0.0
O72 O 0.55862 0.88127 0.12245 0.0
C73 C 0.62131 0.83117 0.17284 0.0
O74 O 0.61424 0.81884 0.15743 0.0
C75 C 0.55149 0.93838 0.09498 0.0
C76 C 0.54889 0.98028 0.10266 0.0
C77 C 0.54442 0.9626 0.08812 0.0
N78 N 0.55957 0.94157 0.11283 0.0
N79 N 0.55794 0.96663 0.11735 0.0
C80 C 0.55232 0.91296 0.08435 0.0
H81 H 0.53638 0.90154 0.08761 0.0
H82 H 0.56765 0.90134 0.08899 0.0
H83 H 0.55327 0.91627 0.0687 0.0
C84 C 0.63795 0.90371 0.14077 0.0
N85 N 0.61492 0.89935 0.14189 0.0
N86 N 0.604 0.91486 0.12983 0.0
C87 C 0.61983 0.92896 0.12011 0.0
C88 C 0.64188 0.92257 0.12682 0.0
C89 C 0.65531 0.89203 0.15429 0.0
H90 H 0.64761 0.89043 0.16876 0.0
H91 H 0.65988 0.87203 0.14936 0.0
H92 H 0.67138 0.90399 0.15522 0.0
O93 O 0.57741 0.89726 0.17442 0.0
O94 O 0.55819 0.92442 0.15529 0.0
H95 H 0.60645 0.96577 0.1105 0.0
H96 H 0.62953 0.95273 0.09573 0.0
C97 C 0.61396 0.94763 0.10432 0.0
H98 H 0.60083 0.93868 0.09476 0.0
H99 H 0.56305 0.97443 0.13051 0.0
O100 O 0.6168 0.85539 0.17474 0.0
C101 C 0.56269 0.91549 0.17184 0.0
Co102 Co 0.8888 0.13167 0.14703 0.0
Co103 Co 0.92089 0.08892 0.12831 0.0
C104 C 0.92053 0.14456 0.11459 0.0
O105 O 0.90513 0.15177 0.12661 0.0
O106 O 0.92802 0.12112 0.11419 0.0
C107 C 0.86803 0.17833 0.16214 0.0
O108 O 0.88428 0.19017 0.15215 0.0
C109 C 0.94068 0.05674 0.09787 0.0
C110 C 0.95862 0.02559 0.1142 0.0
C111 C 0.9545 0.03467 0.09587 0.0
N112 N 0.93661 0.06042 0.11656 0.0
N113 N 0.94722 0.04165 0.12624 0.0
C114 C 0.93331 0.07551 0.08257 0.0
H115 H 0.94848 0.08763 0.07832 0.0
H116 H 0.91917 0.08845 0.08776 0.0
H117 H 0.92713 0.06497 0.06972 0.0
C118 C 0.85282 0.09299 0.13649 0.0
N119 N 0.87506 0.10113 0.13692 0.0
N120 N 0.88839 0.08331 0.12887 0.0
C121 C 0.87502 0.06338 0.12274 0.0
C122 C 0.85204 0.06883 0.12741 0.0
C123 C 0.83322 0.10732 0.14593 0.0
H124 H 0.83852 0.11319 0.16055 0.0
H125 H 0.82939 0.12544 0.13774 0.0
H126 H 0.81726 0.09519 0.14692 0.0
O127 O 0.9107 0.12177 0.16745 0.0
O128 O 0.93362 0.09178 0.15434 0.0
H129 H 0.89658 0.02928 0.12078 0.0
H130 H 0.86993 0.02707 0.10701 0.0
C131 C 0.88404 0.04032 0.11179 0.0
H132 H 0.89336 0.0474 0.09895 0.0
H133 H 0.94719 0.0402 0.14111 0.0
O134 O 0.86571 0.15367 0.16063 0.0
C135 C 0.92758 0.10576 0.1685 0.0
Co136 Co 0.88829 0.87304 0.64793 0.0
Co137 Co 0.91983 0.91323 0.62594 0.0
C138 C 0.92615 0.8552 0.62205 0.0
O139 O 0.909 0.84974 0.63288 0.0
O140 O 0.93222 0.87875 0.61882 0.0
C141 C 0.86311 0.82751 0.66229 0.0
O142 O 0.87238 0.81456 0.64798 0.0
C143 C 0.94251 0.93633 0.59274 0.0
C144 C 0.95195 0.97581 0.6032 0.0
C145 C 0.95329 0.95948 0.58746 0.0
N146 N 0.93487 0.93894 0.61075 0.0
N147 N 0.94053 0.96255 0.61695 0.0
C148 C 0.94099 0.91132 0.58162 0.0
H149 H 0.95474 0.89777 0.58676 0.0
H150 H 0.92389 0.90183 0.58417 0.0
H151 H 0.9436 0.91443 0.56612 0.0
C152 C 0.85138 0.90268 0.62787 0.0
N153 N 0.87386 0.89758 0.63171 0.0
N154 N 0.88711 0.91397 0.62208 0.0
C155 C 0.87349 0.92964 0.6114 0.0
C156 C 0.8504 0.9231 0.61475 0.0
C157 C 0.83148 0.88986 0.63806 0.0
H158 H 0.83607 0.88665 0.65326 0.0
H159 H 0.82807 0.87048 0.63147 0.0
H160 H 0.81542 0.90188 0.63734 0.0
O161 O 0.90599 0.89178 0.66756 0.0
O162 O 0.92803 0.92099 0.65272 0.0
H163 H 0.89155 0.96556 0.60605 0.0
H164 H 0.86844 0.95878 0.58913 0.0
C165 C 0.88251 0.94998 0.59787 0.0
H166 H 0.89523 0.94085 0.58804 0.0
H167 H 0.93683 0.9695 0.63062 0.0
O168 O 0.86624 0.85209 0.66348 0.0
C169 C 0.9207 0.91032 0.66796 0.0
Co170 Co 0.60633 0.127 0.64937 0.0
Co171 Co 0.57633 0.09016 0.62314 0.0
C172 C 0.57393 0.14778 0.61892 0.0
O173 O 0.5885 0.15115 0.63246 0.0
O174 O 0.56761 0.12497 0.61376 0.0
C175 C 0.63381 0.17132 0.66211 0.0
O176 O 0.62755 0.18217 0.64587 0.0
C177 C 0.55328 0.06496 0.59048 0.0
C178 C 0.54677 0.02531 0.60202 0.0
C179 C 0.54332 0.04092 0.58608 0.0
N180 N 0.56199 0.06361 0.60825 0.0
N181 N 0.55804 0.03988 0.61507 0.0
C182 C 0.55595 0.08829 0.57771 0.0
H183 H 0.57189 0.09938 0.58155 0.0
H184 H 0.55693 0.08225 0.56251 0.0
H185 H 0.5407 0.10136 0.5796 0.0
C186 C 0.64394 0.0933 0.63378 0.0
N187 N 0.62159 0.10105 0.63476 0.0
N188 N 0.60898 0.08644 0.62323 0.0
C189 C 0.62294 0.06946 0.61411 0.0
C190 C 0.6455 0.07295 0.62065 0.0
C191 C 0.66282 0.10381 0.64636 0.0
H192 H 0.65577 0.1081 0.66076 0.0
H193 H 0.66942 0.1224 0.64018 0.0
H194 H 0.67747 0.08976 0.64769 0.0
O195 O 0.58498 0.11027 0.66765 0.0
O196 O 0.56348 0.08507 0.64891 0.0
H197 H 0.60581 0.03417 0.60559 0.0
H198 H 0.62965 0.04358 0.5902 0.0
C199 C 0.61488 0.05099 0.59887 0.0
H200 H 0.60251 0.06113 0.58925 0.0
H201 H 0.56296 0.03369 0.6287 0.0
O202 O 0.62788 0.1478 0.66554 0.0
C203 C 0.56855 0.09392 0.66534 0.0
Co204 Co 0.38616 0.1216 0.84251 0.0
Co205 Co 0.4133 0.08266 0.86929 0.0
C206 C 0.41805 0.14008 0.87385 0.0
O207 O 0.40378 0.14437 0.86028 0.0
O208 O 0.42366 0.11695 0.87881 0.0
C209 C 0.35861 0.16649 0.83108 0.0
O210 O 0.3624 0.17498 0.84852 0.0
C211 C 0.43286 0.0576 0.90334 0.0
C212 C 0.43737 0.0167 0.89365 0.0
C213 C 0.44077 0.03318 0.9091 0.0
N214 N 0.42531 0.0557 0.88524 0.0
N215 N 0.42809 0.03123 0.87951 0.0
C216 C 0.43093 0.08195 0.91513 0.0
H217 H 0.44619 0.09467 0.91225 0.0
H218 H 0.41495 0.0929 0.91116 0.0
H219 H 0.43042 0.07726 0.93061 0.0
C220 C 0.34667 0.08939 0.85517 0.0
N221 N 0.36917 0.09641 0.85607 0.0
N222 N 0.38027 0.08082 0.86797 0.0
C223 C 0.36493 0.06386 0.87558 0.0
C224 C 0.34319 0.06849 0.86756 0.0
C225 C 0.32986 0.1004 0.8409 0.0
H226 H 0.33898 0.10459 0.82729 0.0
H227 H 0.32272 0.1191 0.84647 0.0
H228 H 0.3153 0.08673 0.838 0.0
O229 O 0.40748 0.10374 0.82492 0.0
O230 O 0.42746 0.07697 0.84386 0.0
H231 H 0.37978 0.02696 0.88334 0.0
H232 H 0.35519 0.03653 0.89782 0.0
C233 C 0.37097 0.04374 0.89034 0.0
H234 H 0.38301 0.0523 0.90101 0.0
H235 H 0.42363 0.02446 0.86592 0.0
O236 O 0.36626 0.1441 0.82622 0.0
C237 C 0.42313 0.0865 0.82745 0.0
Co238 Co 0.08889 0.85647 0.8541 0.0
Co239 Co 0.06728 0.90305 0.87733 0.0
C240 C 0.06306 0.84695 0.89019 0.0
O241 O 0.0753 0.83791 0.87648 0.0
O242 O 0.05862 0.8713 0.89158 0.0
C243 C 0.11884 0.8133 0.83748 0.0
O244 O 0.12599 0.80527 0.85432 0.0
C245 C 0.05742 0.93549 0.91071 0.0
C246 C 0.04234 0.97099 0.89748 0.0
C247 C 0.04742 0.95949 0.9149 0.0
N248 N 0.05841 0.93299 0.89165 0.0
N249 N 0.04963 0.9544 0.8838 0.0
C250 C 0.06369 0.91407 0.9244 0.0
H251 H 0.07683 0.90084 0.91794 0.0
H252 H 0.07061 0.92208 0.93795 0.0
H253 H 0.04783 0.90256 0.92776 0.0
C254 C 0.13087 0.88988 0.8579 0.0
N255 N 0.10846 0.88427 0.86174 0.0
N256 N 0.09946 0.90333 0.87201 0.0
C257 C 0.11594 0.92139 0.87545 0.0
C258 C 0.13631 0.91361 0.86647 0.0
C259 C 0.14586 0.87413 0.84472 0.0
H260 H 0.13586 0.869 0.8317 0.0
H261 H 0.15097 0.85566 0.85196 0.0
H262 H 0.16177 0.88494 0.84043 0.0
O263 O 0.06368 0.87047 0.83807 0.0
O264 O 0.04916 0.9046 0.85348 0.0
H265 H 0.10044 0.95895 0.8801 0.0
H266 H 0.12889 0.95527 0.89093 0.0
C267 C 0.1123 0.94519 0.88758 0.0
H268 H 0.10405 0.93936 0.90123 0.0
H269 H 0.04786 0.95725 0.86912 0.0
O270 O 0.10489 0.83253 0.8362 0.0
C271 C 0.04958 0.8896 0.83902 0.0
Co272 Co 0.6058 0.62103 0.34509 0.0
Co273 Co 0.57659 0.58163 0.36985 0.0
C274 C 0.56904 0.63868 0.37296 0.0
O275 O 0.58507 0.64355 0.36089 0.0
O276 O 0.56351 0.61538 0.37748 0.0
C277 C 0.63137 0.66761 0.33411 0.0
O278 O 0.6248 0.6769 0.35076 0.0
C279 C 0.55386 0.55612 0.40237 0.0
C280 C 0.55451 0.51451 0.39357 0.0
C281 C 0.54774 0.53111 0.40817 0.0
N282 N 0.56376 0.55442 0.38505 0.0
N283 N 0.56391 0.52955 0.37978 0.0
C284 C 0.55234 0.58093 0.4137 0.0
H285 H 0.53662 0.59197 0.40919 0.0
H286 H 0.56782 0.59334 0.4109 0.0
H287 H 0.55115 0.57685 0.42925 0.0
C288 C 0.64459 0.59185 0.36324 0.0
N289 N 0.62186 0.59735 0.36095 0.0
N290 N 0.6095 0.58219 0.37228 0.0
C291 C 0.62403 0.56744 0.38283 0.0
C292 C 0.64674 0.57266 0.37725 0.0
C293 C 0.6634 0.6027 0.35072 0.0
H294 H 0.65624 0.60811 0.33656 0.0
H295 H 0.67069 0.62056 0.35749 0.0
H296 H 0.67765 0.58829 0.34872 0.0
O297 O 0.58774 0.60143 0.326 0.0
O298 O 0.56677 0.5739 0.34345 0.0
H299 H 0.60943 0.53105 0.3921 0.0
H300 H 0.63091 0.54445 0.40821 0.0
C301 C 0.61631 0.54937 0.39845 0.0
H302 H 0.60231 0.55876 0.40688 0.0
H303 H 0.57083 0.52281 0.36691 0.0
O304 O 0.62644 0.64407 0.32981 0.0
C305 C 0.57281 0.58318 0.32736 0.0
Co306 Co 0.89161 0.36302 0.34656 0.0
Co307 Co 0.92143 0.40277 0.37039 0.0
C308 C 0.92277 0.3447 0.37746 0.0
O309 O 0.90712 0.33959 0.36512 0.0
O310 O 0.93007 0.36793 0.38017 0.0
C311 C 0.86407 0.31912 0.33242 0.0
O312 O 0.86989 0.30705 0.3483 0.0
C313 C 0.9414 0.42632 0.4046 0.0
C314 C 0.95124 0.46579 0.39442 0.0
C315 C 0.95155 0.44966 0.41034 0.0
N316 N 0.93551 0.42852 0.38611 0.0
N317 N 0.9415 0.4521 0.38006 0.0
C318 C 0.93546 0.40309 0.41673 0.0
H319 H 0.94991 0.38869 0.41601 0.0
H320 H 0.91941 0.39353 0.41133 0.0
H321 H 0.93284 0.40891 0.43185 0.0
C322 C 0.85377 0.39746 0.36044 0.0
N323 N 0.8763 0.39047 0.35949 0.0
N324 N 0.88874 0.40658 0.37004 0.0
C325 C 0.87448 0.42407 0.37836 0.0
C326 C 0.85187 0.41898 0.37246 0.0
C327 C 0.83491 0.38472 0.34896 0.0
H328 H 0.84121 0.38102 0.33424 0.0
H329 H 0.83051 0.36555 0.35551 0.0
H330 H 0.81903 0.39705 0.34825 0.0
O331 O 0.91488 0.37726 0.32865 0.0
O332 O 0.93443 0.40757 0.34466 0.0
H333 H 0.89257 0.4596 0.38478 0.0
H334 H 0.86742 0.45381 0.39977 0.0
C335 C 0.8823 0.44442 0.39236 0.0
H336 H 0.89358 0.43521 0.40329 0.0
H337 H 0.93884 0.45886 0.36617 0.0
O338 O 0.87037 0.34272 0.32988 0.0
C339 C 0.93033 0.39507 0.32935 0.0
Co340 Co 0.10094 0.35959 0.14151 0.0
Co341 Co 0.07264 0.40173 0.11845 0.0
C342 C 0.06978 0.34385 0.11005 0.0
O343 O 0.08549 0.33752 0.12205 0.0
O344 O 0.06304 0.36746 0.10809 0.0
C345 C 0.11825 0.31462 0.16167 0.0
O346 O 0.10201 0.30212 0.15211 0.0
C347 C 0.05307 0.42786 0.08483 0.0
C348 C 0.0464 0.46779 0.0958 0.0
C349 C 0.04468 0.45233 0.07962 0.0
N350 N 0.05979 0.42897 0.1032 0.0
N351 N 0.0557 0.45284 0.10969 0.0
C352 C 0.05292 0.40309 0.07336 0.0
H353 H 0.04103 0.38884 0.08027 0.0
H354 H 0.07064 0.39442 0.07331 0.0
H355 H 0.0468 0.40607 0.05853 0.0
C356 C 0.13953 0.39476 0.13063 0.0
N357 N 0.11707 0.38746 0.12984 0.0
N358 N 0.10542 0.40426 0.11926 0.0
C359 C 0.12023 0.42239 0.11246 0.0
C360 C 0.14229 0.41717 0.1196 0.0
C361 C 0.15709 0.3821 0.1435 0.0
H362 H 0.14924 0.37869 0.15775 0.0
H363 H 0.16205 0.36278 0.13748 0.0
H364 H 0.1729 0.39429 0.1453 0.0
O365 O 0.07738 0.37332 0.15925 0.0
O366 O 0.05965 0.4061 0.14431 0.0
H367 H 0.10394 0.45937 0.10727 0.0
H368 H 0.12885 0.453 0.09221 0.0
C369 C 0.11341 0.44407 0.09916 0.0
H370 H 0.10174 0.43634 0.08789 0.0
H371 H 0.05924 0.45889 0.12364 0.0
O372 O 0.12177 0.33872 0.1582 0.0
C373 C 0.06282 0.39207 0.15908 0.0
Co374 Co 0.39557 0.62194 0.14948 0.0
Co375 Co 0.41991 0.58101 0.12263 0.0
C376 C 0.42532 0.63789 0.11605 0.0
O377 O 0.41212 0.64317 0.13015 0.0
O378 O 0.43041 0.61445 0.11152 0.0
C379 C 0.37279 0.66934 0.16297 0.0
O380 O 0.37996 0.68013 0.14698 0.0
C381 C 0.43563 0.55191 0.08893 0.0
C382 C 0.44047 0.51216 0.10095 0.0
C383 C 0.44224 0.52658 0.08428 0.0
N384 N 0.42985 0.55232 0.1075 0.0
N385 N 0.43277 0.52854 0.11461 0.0
C386 C 0.43652 0.5759 0.07661 0.0
H387 H 0.44954 0.5897 0.08259 0.0
H388 H 0.41934 0.58585 0.07691 0.0
H389 H 0.44148 0.57146 0.06168 0.0
C390 C 0.35424 0.59139 0.13845 0.0
N391 N 0.37709 0.59678 0.13731 0.0
N392 N 0.38707 0.58042 0.12533 0.0
C393 C 0.37071 0.56448 0.118 0.0
C394 C 0.34943 0.5707 0.12622 0.0
C395 C 0.33803 0.6044 0.15224 0.0
H396 H 0.34698 0.60742 0.1661 0.0
H397 H 0.33305 0.6239 0.14654 0.0
H398 H 0.32209 0.59262 0.15467 0.0
O399 O 0.41791 0.60451 0.1666 0.0
O400 O 0.4354 0.57604 0.14747 0.0
H401 H 0.38396 0.52716 0.1094 0.0
H402 H 0.35889 0.53791 0.09589 0.0
C403 C 0.37525 0.54438 0.10288 0.0
H404 H 0.3869 0.5527 0.09184 0.0
H405 H 0.42965 0.52356 0.12883 0.0
O406 O 0.37693 0.64525 0.16608 0.0
C407 C 0.43281 0.5865 0.16379 0.0
Co408 Co 0.3886 0.37607 0.65669 0.0
Co409 Co 0.41406 0.41077 0.62612 0.0
C410 C 0.42031 0.35375 0.62606 0.0
O411 O 0.40756 0.35158 0.6409 0.0
O412 O 0.42424 0.37584 0.61829 0.0
C413 C 0.3634 0.33166 0.67195 0.0
O414 O 0.36942 0.31995 0.65599 0.0
C415 C 0.43582 0.43459 0.59225 0.0
C416 C 0.43335 0.4767 0.59944 0.0
C417 C 0.44143 0.45945 0.58572 0.0
N418 N 0.42504 0.43705 0.60917 0.0
N419 N 0.4237 0.46224 0.61341 0.0
C420 C 0.43934 0.40903 0.5822 0.0
H421 H 0.45452 0.39879 0.58857 0.0
H422 H 0.42378 0.39645 0.58415 0.0
H423 H 0.44247 0.4119 0.5667 0.0
C424 C 0.34774 0.40329 0.6405 0.0
N425 N 0.37065 0.39796 0.6409 0.0
N426 N 0.3812 0.41148 0.62746 0.0
C427 C 0.36521 0.42499 0.61747 0.0
C428 C 0.34349 0.42053 0.62552 0.0
C429 C 0.33097 0.39426 0.65549 0.0
H430 H 0.33994 0.39243 0.66945 0.0
H431 H 0.3241 0.37471 0.65145 0.0
H432 H 0.31618 0.40806 0.65707 0.0
O433 O 0.40906 0.39734 0.6728 0.0
O434 O 0.42878 0.41955 0.65089 0.0
H435 H 0.37707 0.46057 0.60464 0.0
H436 H 0.35475 0.44392 0.59121 0.0
C437 C 0.37053 0.4411 0.60014 0.0
H438 H 0.38416 0.43136 0.59147 0.0
H439 H 0.4162 0.46953 0.62589 0.0
O440 O 0.3691 0.35544 0.67455 0.0
C441 C 0.42483 0.41358 0.66821 0.0
Co442 Co 0.10064 0.64338 0.64097 0.0
Co443 Co 0.07203 0.59926 0.62031 0.0
C444 C 0.07468 0.65418 0.60503 0.0
O445 O 0.08866 0.66171 0.61808 0.0
O446 O 0.06681 0.63085 0.60462 0.0
C447 C 0.11306 0.68822 0.66137 0.0
O448 O 0.09266 0.69547 0.65469 0.0
C449 C 0.05305 0.56613 0.58994 0.0
C450 C 0.04306 0.53046 0.60589 0.0
C451 C 0.04301 0.54161 0.58786 0.0
N452 N 0.0586 0.56944 0.6084 0.0
N453 N 0.05258 0.54808 0.61788 0.0
C454 C 0.05889 0.58539 0.57455 0.0
H455 H 0.04458 0.59989 0.57334 0.0
H456 H 0.07515 0.596 0.5782 0.0
H457 H 0.06107 0.57545 0.56057 0.0
C458 C 0.13764 0.60358 0.63699 0.0
N459 N 0.11572 0.61197 0.6342 0.0
N460 N 0.10403 0.59401 0.62473 0.0
C461 C 0.11828 0.57386 0.62074 0.0
C462 C 0.13997 0.57913 0.62854 0.0
C463 C 0.15533 0.61814 0.64856 0.0
H464 H 0.14717 0.62535 0.66192 0.0
H465 H 0.16142 0.63541 0.64033 0.0
H466 H 0.17044 0.60562 0.6523 0.0
O467 O 0.07433 0.63629 0.65818 0.0
O468 O 0.0553 0.60339 0.64464 0.0
H469 H 0.10083 0.5372 0.61722 0.0
H470 H 0.12713 0.54024 0.60325 0.0
C471 C 0.11162 0.55085 0.60864 0.0
H472 H 0.10125 0.55758 0.59624 0.0
H473 H 0.05497 0.54555 0.63254 0.0
O474 O 0.12139 0.66635 0.65609 0.0
C475 C 0.05786 0.6197 0.65818 0.0
Co476 Co 0.88705 0.64383 0.85243 0.0
Co477 Co 0.9176 0.59898 0.87034 0.0
C478 C 0.91733 0.65425 0.88558 0.0
O479 O 0.90136 0.66228 0.87436 0.0
O480 O 0.92533 0.63103 0.88466 0.0
C481 C 0.86951 0.69083 0.83557 0.0
O482 O 0.88685 0.70165 0.84494 0.0
C483 C 0.93946 0.56714 0.90023 0.0
C484 C 0.9451 0.52946 0.88536 0.0
C485 C 0.94772 0.54184 0.90282 0.0
N486 N 0.93183 0.56942 0.88217 0.0
N487 N 0.93541 0.54692 0.87331 0.0
C488 C 0.94026 0.58952 0.91406 0.0
H489 H 0.95065 0.60563 0.90775 0.0
H490 H 0.92235 0.59695 0.91652 0.0
H491 H 0.94844 0.58414 0.92783 0.0
C492 C 0.84998 0.60512 0.86054 0.0
N493 N 0.87236 0.61281 0.86083 0.0
N494 N 0.88499 0.59473 0.86934 0.0
C495 C 0.87096 0.5753 0.8753 0.0
C496 C 0.84836 0.58107 0.86974 0.0
C497 C 0.83101 0.61991 0.85057 0.0
H498 H 0.83744 0.62715 0.8366 0.0
H499 H 0.82609 0.63714 0.85933 0.0
H500 H 0.81544 0.60753 0.84812 0.0
O501 O 0.91119 0.63573 0.83336 0.0
O502 O 0.93055 0.60128 0.84439 0.0
H503 H 0.88791 0.5382 0.87813 0.0
H504 H 0.86399 0.54288 0.89451 0.0
C505 C 0.87883 0.55265 0.8873 0.0
H506 H 0.89109 0.5596 0.8984 0.0
H507 H 0.93103 0.54341 0.85906 0.0
O508 O 0.86524 0.66666 0.8381 0.0
C509 C 0.92666 0.61814 0.83142 0.0
Co510 Co 0.60543 0.37222 0.84042 0.0
Co511 Co 0.57755 0.41088 0.86666 0.0
C512 C 0.56755 0.35378 0.86673 0.0
O513 O 0.58358 0.34897 0.85463 0.0
O514 O 0.56329 0.37696 0.87236 0.0
C515 C 0.63002 0.32622 0.8266 0.0
O516 O 0.62091 0.31416 0.8414 0.0
C517 C 0.55621 0.43396 0.90059 0.0
C518 C 0.55108 0.47507 0.89143 0.0
C519 C 0.54746 0.45795 0.90647 0.0
N520 N 0.56484 0.43688 0.88291 0.0
N521 N 0.56179 0.46147 0.87752 0.0
C522 C 0.55457 0.40807 0.91059 0.0
H523 H 0.54086 0.39617 0.90357 0.0
H524 H 0.57129 0.39737 0.90912 0.0
H525 H 0.54999 0.4101 0.92587 0.0
C526 C 0.64487 0.39907 0.85934 0.0
N527 N 0.62202 0.39392 0.85748 0.0
N528 N 0.6102 0.40903 0.86921 0.0
C529 C 0.62516 0.42363 0.8794 0.0
C530 C 0.64763 0.41816 0.87333 0.0
C531 C 0.66302 0.38861 0.84601 0.0
H532 H 0.65604 0.38807 0.83125 0.0
H533 H 0.6674 0.36825 0.85026 0.0
H534 H 0.67909 0.40063 0.84617 0.0
O535 O 0.58793 0.39399 0.82202 0.0
O536 O 0.56877 0.42155 0.84069 0.0
H537 H 0.60989 0.46033 0.88718 0.0
H538 H 0.63303 0.44971 0.90293 0.0
C539 C 0.61797 0.44312 0.89425 0.0
H540 H 0.60491 0.43414 0.90388 0.0
H541 H 0.56669 0.46884 0.86421 0.0
O542 O 0.62642 0.3506 0.82441 0.0
C543 C 0.57406 0.41318 0.82418 0.0
H544 H 0.97368 0.096 0.17343 0.0
H545 H 0.99478 0.09253 0.20361 0.0
H546 H 0.93062 0.10464 0.23459 0.0
H547 H 0.90983 0.10994 0.20434 0.0
H548 H 0.96119 0.13009 0.25146 0.0
H549 H 0.95894 0.04222 0.23045 0.0
H550 H 0.96289 0.00488 0.20837 0.0
H551 H 0.03651 0.01843 0.20451 0.0
H552 H 0.03297 0.0561 0.22636 0.0
H553 H 0.02222 0.08705 0.33723 0.0
H554 H -0.00452 0.08356 0.30995 0.0
H555 H 0.04994 0.10993 0.27217 0.0
H556 H 0.07649 0.11425 0.29936 0.0
H557 H 0.02035 0.06065 0.26179 0.0
H558 H 0.01762 0.15306 0.2824 0.0
H559 H 0.01023 0.18744 0.30639 0.0
H560 H 0.94043 0.15921 0.31389 0.0
H561 H 0.94754 0.12438 0.29017 0.0
C562 C 0.96414 0.09785 0.18671 0.0
C563 C 0.94019 0.10313 0.18665 0.0
C564 C 0.97613 0.09565 0.20396 0.0
C565 C 0.96422 0.09766 0.22144 0.0
C566 C 0.94022 0.10294 0.22133 0.0
C567 C 0.92835 0.10592 0.20407 0.0
C568 C 0.977 0.0952 0.23977 0.0
C569 C 0.97377 0.11456 0.25379 0.0
C570 C 0.99337 0.07488 0.24303 0.0
C571 C -0.00435 0.05212 0.22995 0.0
C572 C 0.97596 0.03735 0.2248 0.0
C573 C 0.97812 0.01611 0.21233 0.0
C574 C -7e-05 0.00932 0.20501 0.0
C575 C 0.01962 0.02372 0.21019 0.0
C576 C 0.01756 0.045 0.22263 0.0
C577 C 0.0285 0.09181 0.32306 0.0
C578 C 0.05136 0.10089 0.32031 0.0
C579 C 0.01325 0.0899 0.30759 0.0
C580 C 0.02088 0.09653 0.2892 0.0
C581 C 0.04388 0.10473 0.28633 0.0
C582 C 0.05895 0.10724 0.30182 0.0
C583 C 0.00479 0.09579 0.27288 0.0
C584 C 0.00743 0.07581 0.25937 0.0
C585 C 0.98736 0.11498 0.2704 0.0
C586 C 0.98322 0.1359 0.2847 0.0
C587 C 0.00079 0.15399 0.28933 0.0
C588 C -0.00338 0.17363 0.30282 0.0
C589 C 0.97487 0.17553 0.31164 0.0
C590 C 0.95726 0.15775 0.30703 0.0
C591 C 0.96135 0.13805 0.29357 0.0
H592 H 0.97166 0.19076 0.32207 0.0
H593 H 0.00156 0.99287 0.19536 0.0
H594 H 0.57825 0.92659 0.20753 0.0
H595 H 0.55443 0.93277 0.23615 0.0
H596 H 0.49217 0.92702 0.20177 0.0
H597 H 0.51605 0.92293 0.17304 0.0
H598 H 0.48306 0.95713 0.22928 0.0
H599 H 0.51939 0.87253 0.22521 0.0
H600 H 0.55189 0.84112 0.22262 0.0
H601 H 0.58052 0.86971 0.27529 0.0
H602 H 0.54838 0.9016 0.27803 0.0
H603 H 0.41096 0.88667 0.29649 0.0
H604 H 0.43591 0.89854 0.26947 0.0
H605 H 0.48457 0.93511 0.30802 0.0
H606 H 0.45955 0.92391 0.33511 0.0
H607 H 0.50158 0.89303 0.28042 0.0
H608 H 0.45935 0.97497 0.28438 0.0
H609 H 0.42355 0.00158 0.28576 0.0
H610 H 0.40205 0.97112 0.23139 0.0
H611 H 0.43757 0.94402 0.22982 0.0
C612 C 0.55948 0.92743 0.20612 0.0
C613 C 0.54886 0.92413 0.18825 0.0
C614 C 0.54589 0.93071 0.22244 0.0
C615 C 0.52149 0.92941 0.22121 0.0
C616 C 0.51094 0.92792 0.20313 0.0
C617 C 0.52456 0.92558 0.18672 0.0
C618 C 0.50705 0.92723 0.2387 0.0
C619 C 0.48712 0.94303 0.2404 0.0
C620 C 0.5123 0.90886 0.25331 0.0
C621 C 0.53164 0.88967 0.2517 0.0
C622 C 0.53272 0.87225 0.23616 0.0
C623 C 0.55106 0.85435 0.23467 0.0
C624 C 0.5683 0.85348 0.24875 0.0
C625 C 0.5672 0.87046 0.26437 0.0
C626 C 0.54892 0.88846 0.2659 0.0
C627 C 0.42684 0.8975 0.29919 0.0
C628 C 0.43333 0.90436 0.3179 0.0
C629 C 0.44098 0.90432 0.28377 0.0
C630 C 0.46191 0.91776 0.28688 0.0
C631 C 0.46836 0.92485 0.30545 0.0
C632 C 0.45404 0.91848 0.32085 0.0
C633 C 0.4778 0.9228 0.27081 0.0
C634 C 0.49787 0.90738 0.26938 0.0
C635 C 0.47228 0.94084 0.25622 0.0
C636 C 0.45102 0.9573 0.25707 0.0
C637 C 0.44689 0.97377 0.2728 0.0
C638 C 0.42667 0.98898 0.27359 0.0
C639 C 0.41051 0.98799 0.25869 0.0
C640 C 0.41457 0.97185 0.24293 0.0
C641 C 0.43476 0.95658 0.24207 0.0
H642 H 0.39486 -0.00022 0.25933 0.0
H643 H 0.58249 0.83959 0.24758 0.0
H644 H 0.96331 0.93191 0.6752 0.0
H645 H 0.98218 0.93537 0.70646 0.0
H646 H 0.91874 0.91009 0.73382 0.0
H647 H 0.90005 0.9058 0.70267 0.0
H648 H 0.97687 0.95818 0.74157 0.0
H649 H 0.93178 0.86227 0.76438 0.0
H650 H 0.91239 0.82437 0.74928 0.0
H651 H 0.95462 0.83406 0.69917 0.0
H652 H 0.97441 0.87176 0.71406 0.0
H653 H 0.01524 0.92676 0.83611 0.0
H654 H 0.99022 0.93546 0.8085 0.0
H655 H 0.02407 0.87319 0.77743 0.0
H656 H 0.04868 0.86402 0.8049 0.0
H657 H 0.97892 0.87063 0.7725 0.0
H658 H 0.03781 0.93747 0.76959 0.0
H659 H 0.06105 0.97443 0.78186 0.0
H660 H -0.00105 0.02049 0.78811 0.0
H661 H 0.9753 0.98365 0.7761 0.0
C662 C 0.95325 0.92773 0.68792 0.0
C663 C 0.93044 0.91801 0.68656 0.0
C664 C 0.964 0.92982 0.70576 0.0
C665 C 0.95195 0.92244 0.72235 0.0
C666 C 0.92841 0.91541 0.72111 0.0
C667 C 0.91781 0.9129 0.70333 0.0
C668 C 0.96481 0.91828 0.74036 0.0
C669 C 0.97719 0.93915 0.74848 0.0
C670 C 0.96561 0.89324 0.74903 0.0
C671 C 0.95438 0.86998 0.74026 0.0
C672 C 0.937 0.8562 0.75019 0.0
C673 C 0.92592 0.83478 0.74166 0.0
C674 C 0.93222 0.82689 0.72326 0.0
C675 C 0.94971 0.84026 0.7134 0.0
C676 C 0.96085 0.86164 0.72187 0.0
C677 C 0.01727 0.91487 0.82342 0.0
C678 C 0.03396 0.89472 0.82269 0.0
C679 C 0.00303 0.91993 0.80765 0.0
C680 C 0.00545 0.90509 0.7909 0.0
C681 C 0.02189 0.88482 0.79025 0.0
C682 C 0.03599 0.87965 0.80598 0.0
C683 C 0.99104 0.91056 0.77386 0.0
C684 C 0.97833 0.88984 0.76586 0.0
C685 C 0.99059 0.93552 0.76502 0.0
C686 C 0.00477 0.95771 0.77216 0.0
C687 C 0.0291 0.95541 0.77373 0.0
C688 C 0.04234 0.97634 0.78061 0.0
C689 C 0.03148 -0.00023 0.78582 0.0
C690 C 0.00734 0.00232 0.7841 0.0
C691 C 0.99401 0.98143 0.77725 0.0
H692 H 0.04176 0.01595 0.79114 0.0
H693 H 0.92359 0.8104 0.71663 0.0
H694 H 0.52685 0.06827 0.66496 0.0
H695 H 0.50181 0.05856 0.69227 0.0
H696 H 0.55311 0.09127 0.73039 0.0
H697 H 0.57828 0.10131 0.70317 0.0
H698 H 0.53021 0.04253 0.74327 0.0
H699 H 0.51308 0.12963 0.71743 0.0
H700 H 0.5024 0.15942 0.69107 0.0
H701 H 0.43917 0.11634 0.682 0.0
H702 H 0.44966 0.08604 0.70812 0.0
H703 H 0.46993 0.07983 0.82656 0.0
H704 H 0.49411 0.07312 0.79833 0.0
H705 H 0.43225 0.06729 0.76341 0.0
H706 H 0.40821 0.07616 0.7915 0.0
H707 H 0.45898 0.0973 0.74683 0.0
H708 H 0.47177 0.01311 0.77393 0.0
H709 H 0.48135 0.98059 0.79878 0.0
H710 H 0.55008 0.01288 0.80391 0.0
H711 H 0.54082 0.04583 0.77928 0.0
C712 C 0.53297 0.0731 0.67917 0.0
C713 C 0.55443 0.08583 0.68192 0.0
C714 C 0.51866 0.06748 0.69472 0.0
C715 C 0.52567 0.07432 0.71322 0.0
C716 C 0.54753 0.08581 0.71615 0.0
C717 C 0.56177 0.09169 0.70059 0.0
C718 C 0.50935 0.07184 0.72933 0.0
C719 C 0.51463 0.05449 0.74422 0.0
C720 C 0.48874 0.08687 0.73004 0.0
C721 C 0.48227 0.10542 0.71459 0.0
C722 C 0.49698 0.1264 0.70972 0.0
C723 C 0.49095 0.14339 0.69484 0.0
C724 C 0.47015 0.13974 0.68484 0.0
C725 C 0.45529 0.11913 0.68974 0.0
C726 C 0.46127 0.10205 0.70458 0.0
C727 C 0.46158 0.07668 0.81288 0.0
C728 C 0.43733 0.07854 0.81106 0.0
C729 C 0.47537 0.07262 0.79675 0.0
C730 C 0.46506 0.0693 0.77868 0.0
C731 C 0.44067 0.06989 0.77713 0.0
C732 C 0.42694 0.07486 0.79315 0.0
C733 C 0.47968 0.06793 0.76123 0.0
C734 C 0.4742 0.08478 0.74598 0.0
C735 C 0.49983 0.05195 0.76005 0.0
C736 C 0.50553 0.03207 0.77483 0.0
C737 C 0.48888 0.01339 0.78044 0.0
C738 C 0.49426 0.99486 0.79448 0.0
C739 C 0.51629 0.9947 0.80294 0.0
C740 C 0.53301 0.01303 0.79735 0.0
C741 C 0.52772 0.03161 0.78332 0.0
H742 H 0.52042 0.98034 0.81381 0.0
H743 H 0.46549 0.15292 0.67334 0.0
H744 H 0.52793 0.5674 0.3237 0.0
H745 H 0.5071 0.55838 0.29411 0.0
H746 H 0.57099 0.56771 0.26226 0.0
H747 H 0.59149 0.57862 0.29183 0.0
H748 H 0.54103 0.59424 0.24596 0.0
H749 H 0.53977 0.50623 0.26712 0.0
H750 H 0.53448 0.46906 0.28919 0.0
H751 H 0.46165 0.48687 0.29387 0.0
H752 H 0.46654 0.52438 0.27204 0.0
H753 H 0.47582 0.56414 0.16146 0.0
H754 H 0.50229 0.55407 0.18794 0.0
H755 H 0.45024 0.57946 0.22824 0.0
H756 H 0.42387 0.59023 0.20189 0.0
H757 H 0.47807 0.52891 0.2368 0.0
H758 H 0.4843 0.6223 0.21953 0.0
H759 H 0.49097 0.65757 0.19605 0.0
H760 H 0.5578 0.62487 0.18235 0.0
H761 H 0.55132 0.58916 0.20556 0.0
C762 C 0.53757 0.56705 0.3104 0.0
C763 C 0.56122 0.57385 0.30994 0.0
C764 C 0.52571 0.56164 0.29348 0.0
C765 C 0.53749 0.56199 0.27588 0.0
C766 C 0.56148 0.56739 0.27561 0.0
C767 C 0.57318 0.57359 0.29248 0.0
C768 C 0.52426 0.55992 0.25773 0.0
C769 C 0.52773 0.57943 0.24384 0.0
C770 C 0.50666 0.54084 0.25486 0.0
C771 C 0.50357 0.51824 0.268 0.0
C772 C 0.52265 0.50234 0.27295 0.0
C773 C 0.51972 0.48118 0.28541 0.0
C774 C 0.49775 0.47563 0.29295 0.0
C775 C 0.47866 0.49119 0.28802 0.0
C776 C 0.4815 0.51238 0.27557 0.0
C777 C 0.46991 0.56724 0.17597 0.0
C778 C 0.4479 0.57817 0.17967 0.0
C779 C 0.485 0.56142 0.19102 0.0
C780 C 0.47806 0.56599 0.20991 0.0
C781 C 0.45572 0.57568 0.21369 0.0
C782 C 0.44081 0.58201 0.19866 0.0
C783 C 0.49483 0.56331 0.22566 0.0
C784 C 0.49189 0.54309 0.23896 0.0
C785 C 0.51325 0.58132 0.22785 0.0
C786 C 0.5172 0.60291 0.21407 0.0
C787 C 0.50031 0.62251 0.21137 0.0
C788 C 0.50407 0.6426 0.19814 0.0
C789 C 0.52476 0.64341 0.18767 0.0
C790 C 0.54176 0.62418 0.19044 0.0
C791 C 0.53805 0.60402 0.20363 0.0
H792 H 0.52765 0.65899 0.17744 0.0
H793 H 0.49552 0.45924 0.30259 0.0
H794 H 0.93615 0.36349 0.29849 0.0
H795 H 0.96081 0.37126 0.27068 0.0
H796 H 0.98041 0.44672 0.29312 0.0
H797 H 0.95607 0.43891 0.32142 0.0
H798 H 0.96356 0.43721 0.24858 0.0
H799 H 0.01983 0.41655 0.29834 0.0
H800 H 0.03398 0.39058 0.32571 0.0
H801 H 0.03336 0.32103 0.29125 0.0
H802 H 0.01884 0.34653 0.26377 0.0
H803 H 0.04794 0.43937 0.17266 0.0
H804 H 0.02754 0.44758 0.20285 0.0
H805 H 0.02615 0.36434 0.21407 0.0
H806 H 0.04767 0.35637 0.1847 0.0
H807 H 0.03745 0.38716 0.24456 0.0
H808 H 0.97729 0.40282 0.19706 0.0
H809 H 0.95986 0.42478 0.1691 0.0
H810 H 0.96439 0.49896 0.19775 0.0
H811 H 0.98209 0.47744 0.22581 0.0
C812 C 0.94555 0.38183 0.2975 0.0
C813 C 0.94427 0.40056 0.31215 0.0
C814 C 0.9596 0.3862 0.28163 0.0
C815 C 0.97232 0.40948 0.28002 0.0
C816 C 0.97063 0.42864 0.29425 0.0
C817 C 0.95684 0.42409 0.31037 0.0
C818 C 0.98802 0.41287 0.26364 0.0
C819 C 0.98003 0.42686 0.24773 0.0
C820 C 0.00909 0.39875 0.26261 0.0
C821 C 0.01803 0.38342 0.27906 0.0
C822 C 0.02249 0.39568 0.29666 0.0
C823 C 0.03064 0.38105 0.31218 0.0
C824 C 0.03452 0.35416 0.31023 0.0
C825 C 0.03034 0.34185 0.29275 0.0
C826 C 0.02217 0.35639 0.27719 0.0
C827 C 0.04315 0.42292 0.18163 0.0
C828 C 0.04934 0.39727 0.17648 0.0
C829 C 0.03145 0.42759 0.1988 0.0
C830 C 0.02514 0.40656 0.2107 0.0
C831 C 0.03101 0.38092 0.20526 0.0
C832 C 0.04321 0.37635 0.18844 0.0
C833 C 0.0127 0.41079 0.22898 0.0
C834 C 0.02131 0.39815 0.24535 0.0
C835 C 0.99194 0.4257 0.23025 0.0
C836 C 0.98127 0.43858 0.21342 0.0
C837 C 0.97472 0.42384 0.19733 0.0
C838 C 0.96476 0.4362 0.18148 0.0
C839 C 0.96109 0.46326 0.18162 0.0
C840 C 0.96729 0.47801 0.19764 0.0
C841 C 0.97727 0.46575 0.21352 0.0
H842 H 0.95339 0.47279 0.16933 0.0
H843 H 0.0408 0.34289 0.32228 0.0
H844 H 0.53795 0.44796 0.82386 0.0
H845 H 0.51394 0.46016 0.7965 0.0
H846 H 0.5592 0.41648 0.75913 0.0
H847 H 0.5833 0.40385 0.78643 0.0
H848 H 0.53774 0.46755 0.74386 0.0
H849 H 0.51983 0.3836 0.77561 0.0
H850 H 0.51128 0.35884 0.80504 0.0
H851 H 0.45126 0.40704 0.81516 0.0
H852 H 0.45988 0.43258 0.78605 0.0
H853 H 0.47151 0.4206 0.66658 0.0
H854 H 0.4974 0.43155 0.693 0.0
H855 H 0.43783 0.44269 0.72982 0.0
H856 H 0.41207 0.42959 0.70368 0.0
H857 H 0.46524 0.41489 0.74734 0.0
H858 H 0.47723 0.49473 0.71425 0.0
H859 H 0.48536 0.52406 0.68707 0.0
H860 H 0.55337 0.4902 0.68094 0.0
H861 H 0.54555 0.46039 0.70791 0.0
C862 C 0.54318 0.44144 0.80978 0.0
C863 C 0.56227 0.42449 0.80735 0.0
C864 C 0.5295 0.44859 0.79417 0.0
C865 C 0.53483 0.43908 0.77593 0.0
C866 C 0.55498 0.42408 0.77316 0.0
C867 C 0.56857 0.41669 0.78879 0.0
C868 C 0.51737 0.44069 0.76058 0.0
C869 C 0.52185 0.45608 0.74444 0.0
C870 C 0.4964 0.42636 0.76185 0.0
C871 C 0.49066 0.41019 0.77881 0.0
C872 C 0.50491 0.38903 0.78419 0.0
C873 C 0.50006 0.37487 0.80082 0.0
C874 C 0.48078 0.38143 0.81201 0.0
C875 C 0.46622 0.40204 0.80651 0.0
C876 C 0.4711 0.41638 0.78997 0.0
C877 C 0.464 0.42585 0.68025 0.0
C878 C 0.43992 0.42419 0.68323 0.0
C879 C 0.47879 0.43236 0.69533 0.0
C880 C 0.46964 0.43834 0.71344 0.0
C881 C 0.44536 0.43807 0.71604 0.0
C882 C 0.43065 0.43066 0.70114 0.0
C883 C 0.48538 0.44174 0.73008 0.0
C884 C 0.48073 0.427 0.7466 0.0
C885 C 0.50587 0.45723 0.72926 0.0
C886 C 0.51073 0.47519 0.71305 0.0
C887 C 0.49387 0.49341 0.70703 0.0
C888 C 0.49843 0.51014 0.69166 0.0
C889 C 0.51985 0.50896 0.68226 0.0
C890 C 0.53678 0.49108 0.68823 0.0
C891 C 0.53231 0.47429 0.70358 0.0
H892 H 0.52334 0.52193 0.67037 0.0
H893 H 0.47709 0.37053 0.82492 0.0
H894 H 0.93872 0.65923 0.80896 0.0
H895 H 0.95984 0.65798 0.77877 0.0
H896 H 0.96462 0.5737 0.78282 0.0
H897 H 0.94471 0.57512 0.81373 0.0
H898 H 0.00288 0.59056 0.76986 0.0
H899 H 0.92422 0.60577 0.75159 0.0
H900 H 0.88568 0.62702 0.75266 0.0
H901 H 0.9166 0.70054 0.73698 0.0
H902 H 0.95531 0.67967 0.73569 0.0
H903 H 0.03182 0.57848 0.67073 0.0
H904 H 0.00713 0.57703 0.69927 0.0
H905 H 0.02228 0.65833 0.71043 0.0
H906 H 0.04738 0.65984 0.68221 0.0
H907 H 0.97231 0.64018 0.71422 0.0
H908 H 0.05237 0.6197 0.73227 0.0
H909 H 0.08827 0.59369 0.72883 0.0
H910 H 0.05105 0.52385 0.74406 0.0
H911 H 0.01465 0.54924 0.74675 0.0
C912 C 0.94436 0.64046 0.80341 0.0
C913 C 0.94002 0.61725 0.81354 0.0
C914 C 0.95625 0.63973 0.78609 0.0
C915 C 0.96325 0.61568 0.77823 0.0
C916 C 0.95928 0.59248 0.78854 0.0
C917 C 0.94792 0.59328 0.80617 0.0
C918 C 0.97492 0.61489 0.75937 0.0
C919 C -0.00405 0.60107 0.75764 0.0
C920 C 0.96596 0.62862 0.74337 0.0
C921 C 0.94267 0.64119 0.74365 0.0
C922 C 0.92279 0.62647 0.74837 0.0
C923 C 0.90091 0.63843 0.74898 0.0
C924 C 0.89868 0.66508 0.74485 0.0
C925 C 0.91832 0.67985 0.74006 0.0
C926 C 0.94023 0.66795 0.73931 0.0
C927 C 0.02969 0.59609 0.67917 0.0
C928 C 0.04166 0.6192 0.67443 0.0
C929 C 0.01562 0.59522 0.6954 0.0
C930 C 0.01306 0.61755 0.70684 0.0
C931 C 0.02412 0.64095 0.70167 0.0
C932 C 0.03854 0.64171 0.68568 0.0
C933 C 0.00015 0.61612 0.72495 0.0
C934 C 0.97898 0.62954 0.72647 0.0
C935 C 0.00864 0.6014 0.74058 0.0
C936 C 0.0307 0.58633 0.73947 0.0
C937 C 0.05176 0.59876 0.73468 0.0
C938 C 0.07222 0.58414 0.7329 0.0
C939 C 0.07197 0.55716 0.73629 0.0
C940 C 0.05122 0.54474 0.74143 0.0
C941 C 0.03065 0.55923 0.74302 0.0
H942 H 0.08784 0.5459 0.73494 0.0
H943 H 0.88171 0.67423 0.74535 0.0
H944 H 0.1377 0.23978 0.33645 0.0
H945 H 0.14668 0.26445 0.30731 0.0
H946 H 0.1389 0.19385 0.274 0.0
H947 H 0.1312 0.16909 0.3029 0.0
H948 H 0.17101 0.22068 0.2587 0.0
H949 H 0.09359 0.24089 0.28143 0.0
H950 H 0.06457 0.25678 0.30466 0.0
H951 H 0.0971 0.3325 0.30496 0.0
H952 H 0.12656 0.31691 0.28192 0.0
H953 H 0.11782 0.26292 0.17188 0.0
H954 H 0.12925 0.24427 0.20269 0.0
H955 H 0.1531 0.32014 0.22133 0.0
H956 H 0.14205 0.33892 0.19049 0.0
H957 H 0.11943 0.29645 0.24534 0.0
H958 H 0.19229 0.27497 0.21606 0.0
H959 H 0.21773 0.25657 0.19109 0.0
H960 H 0.1891 0.18006 0.20096 0.0
H961 H 0.16324 0.19806 0.22581 0.0
C962 C 0.13834 0.22949 0.32294 0.0
C963 C 0.13347 0.20254 0.32199 0.0
C964 C 0.14334 0.24363 0.30627 0.0
C965 C 0.14295 0.23116 0.28834 0.0
C966 C 0.1393 0.20401 0.28758 0.0
C967 C 0.13477 0.18984 0.30419 0.0
C968 C 0.14461 0.24626 0.27019 0.0
C969 C 0.15969 0.23723 0.2558 0.0
C970 C 0.13017 0.2682 0.2664 0.0
C971 C 0.11248 0.27762 0.28021 0.0
C972 C 0.09467 0.26086 0.28658 0.0
C973 C 0.07814 0.26982 0.29969 0.0
C974 C 0.0791 0.29557 0.30637 0.0
C975 C 0.09648 0.31251 0.29985 0.0
C976 C 0.1131 0.30362 0.28677 0.0
C977 C 0.12599 0.27552 0.18236 0.0
C978 C 0.12887 0.30242 0.17878 0.0
C979 C 0.13257 0.26482 0.19994 0.0
C980 C 0.14199 0.28086 0.21427 0.0
C981 C 0.14589 0.30746 0.21043 0.0
C982 C 0.13961 0.31811 0.19277 0.0
C983 C 0.14531 0.27038 0.23382 0.0
C984 C 0.13112 0.28028 0.24842 0.0
C985 C 0.16007 0.24884 0.2376 0.0
C986 C 0.17572 0.23792 0.22274 0.0
C987 C 0.19129 0.25426 0.21282 0.0
C988 C 0.20581 0.24389 0.1987 0.0
C989 C 0.20501 0.21717 0.19442 0.0
C990 C 0.18971 0.20076 0.20429 0.0
C991 C 0.17514 0.21102 0.21842 0.0
H992 H 0.21627 0.20919 0.18348 0.0
H993 H 0.06633 0.30242 0.31657 0.0
H994 H 0.36013 0.65349 0.19867 0.0
H995 H 0.34901 0.68081 0.22554 0.0
H996 H 0.35133 0.74935 0.18944 0.0
H997 H 0.36332 0.72203 0.16244 0.0
H998 H 0.3744 0.75859 0.22007 0.0
H999 H 0.29895 0.72574 0.20897 0.0
H1000 H 0.26825 0.69327 0.20235 0.0
H1001 H 0.28263 0.65488 0.25565 0.0
H1002 H 0.31367 0.68688 0.26249 0.0
H1003 H 0.3448 0.83315 0.3011 0.0
H1004 H 0.33623 0.81156 0.27082 0.0
H1005 H 0.35332 0.73674 0.29575 0.0
H1006 H 0.36215 0.75816 0.32617 0.0
H1007 H 0.31439 0.73646 0.26846 0.0
H1008 H 0.39486 0.76716 0.27509 0.0
H1009 H 0.42375 0.80183 0.28145 0.0
H1010 H 0.39649 0.84723 0.23487 0.0
H1011 H 0.3672 0.81295 0.22843 0.0
C1012 C 0.35793 0.67432 0.1963 0.0
C1013 C 0.36278 0.6856 0.17841 0.0
C1014 C 0.35135 0.68995 0.2117 0.0
C1015 C 0.34904 0.71716 0.20952 0.0
C1016 C 0.35295 0.72839 0.19147 0.0
C1017 C 0.35974 0.71274 0.17604 0.0
C1018 C 0.34497 0.73388 0.22657 0.0
C1019 C 0.36086 0.75412 0.23037 0.0
C1020 C 0.32745 0.72801 0.24019 0.0
C1021 C 0.30877 0.70866 0.23619 0.0
C1022 C 0.2957 0.71026 0.21923 0.0
C1023 C 0.2782 0.69196 0.21544 0.0
C1024 C 0.27351 0.67201 0.22855 0.0
C1025 C 0.28628 0.67035 0.2455 0.0
C1026 C 0.30381 0.6886 0.24936 0.0
C1027 C 0.34628 0.81203 0.30032 0.0
C1028 C 0.35459 0.7974 0.31597 0.0
C1029 C 0.34131 0.79975 0.28299 0.0
C1030 C 0.34443 0.77266 0.28104 0.0
C1031 C 0.35083 0.75771 0.29703 0.0
C1032 C 0.35596 0.76999 0.31437 0.0
C1033 C 0.34409 0.76044 0.2619 0.0
C1034 C 0.32749 0.74113 0.25784 0.0
C1035 C 0.36068 0.7674 0.24786 0.0
C1036 C 0.37869 0.78765 0.25142 0.0
C1037 C 0.39495 0.78461 0.26628 0.0
C1038 C 0.41139 0.80418 0.2699 0.0
C1039 C 0.4119 0.82676 0.25861 0.0
C1040 C 0.39604 0.82975 0.24362 0.0
C1041 C 0.37952 0.81025 0.23998 0.0
H1042 H 0.42462 0.84192 0.26146 0.0
H1043 H 0.25996 0.65785 0.22559 0.0
H1044 H 0.64122 0.72002 0.33713 0.0
H1045 H 0.6485 0.75069 0.31093 0.0
H1046 H 0.64739 0.68663 0.27078 0.0
H1047 H 0.64082 0.65586 0.29684 0.0
H1048 H 0.67813 0.72209 0.25964 0.0
H1049 H 0.59826 0.72298 0.28137 0.0
H1050 H 0.56659 0.72849 0.3048 0.0
H1051 H 0.58741 0.80823 0.31422 0.0
H1052 H 0.61945 0.80305 0.29105 0.0
H1053 H 0.6304 0.77855 0.17514 0.0
H1054 H 0.64106 0.75366 0.20368 0.0
H1055 H 0.64482 0.82532 0.23614 0.0
H1056 H 0.63407 0.85035 0.20775 0.0
H1057 H 0.61697 0.7901 0.25289 0.0
H1058 H 0.69382 0.79013 0.2271 0.0
H1059 H 0.72402 0.78394 0.20251 0.0
H1060 H 0.70748 0.70203 0.19934 0.0
H1061 H 0.67693 0.70779 0.22373 0.0
C1062 C 0.64304 0.71239 0.32278 0.0
C1063 C 0.64005 0.68553 0.31905 0.0
C1064 C 0.6471 0.72997 0.3078 0.0
C1065 C 0.64792 0.72104 0.28883 0.0
C1066 C 0.64669 0.69403 0.28527 0.0
C1067 C 0.64284 0.67644 0.30022 0.0
C1068 C 0.64791 0.73972 0.27254 0.0
C1069 C 0.66473 0.73692 0.25812 0.0
C1070 C 0.63067 0.75942 0.2707 0.0
C1071 C 0.61146 0.7625 0.28469 0.0
C1072 C 0.59622 0.74161 0.28857 0.0
C1073 C 0.57818 0.74468 0.30179 0.0
C1074 C 0.57505 0.76866 0.31106 0.0
C1075 C 0.58991 0.78964 0.30709 0.0
C1076 C 0.60802 0.78664 0.29392 0.0
C1077 C 0.63394 0.78908 0.18825 0.0
C1078 C 0.63119 0.81642 0.18918 0.0
C1079 C 0.64013 0.77482 0.20455 0.0
C1080 C 0.6438 0.78764 0.22204 0.0
C1081 C 0.64207 0.81503 0.22279 0.0
C1082 C 0.63595 0.8293 0.20652 0.0
C1083 C 0.64703 0.77232 0.23987 0.0
C1084 C 0.63069 0.77565 0.25455 0.0
C1085 C 0.66456 0.75301 0.24181 0.0
C1086 C 0.68295 0.74944 0.22716 0.0
C1087 C 0.69648 0.77083 0.22106 0.0
C1088 C 0.7137 0.76739 0.20717 0.0
C1089 C 0.71764 0.74262 0.19934 0.0
C1090 C 0.7044 0.72122 0.20541 0.0
C1091 C 0.68716 0.72455 0.21929 0.0
H1092 H 0.73097 0.74 0.18859 0.0
H1093 H 0.56106 0.77101 0.32127 0.0
H1094 H 0.84975 0.26782 0.33171 0.0
H1095 H 0.83995 0.24181 0.30348 0.0
H1096 H 0.84757 0.31045 0.26801 0.0
H1097 H 0.8565 0.33664 0.29609 0.0
H1098 H 0.81457 0.28155 0.25397 0.0
H1099 H 0.89279 0.26623 0.27589 0.0
H1100 H 0.92358 0.25339 0.29862 0.0
H1101 H 0.89429 0.17621 0.3027 0.0
H1102 H 0.86307 0.18875 0.28022 0.0
H1103 H 0.86631 0.23117 0.16846 0.0
H1104 H 0.85455 0.25317 0.19796 0.0
H1105 H 0.83304 0.17912 0.22176 0.0
H1106 H 0.84438 0.15699 0.19225 0.0
H1107 H 0.86744 0.20621 0.24303 0.0
H1108 H 0.79283 0.22236 0.21509 0.0
H1109 H 0.76557 0.2373 0.19015 0.0
H1110 H 0.7923 0.31557 0.19491 0.0
H1111 H 0.81997 0.30103 0.21969 0.0
C1112 C 0.84885 0.27748 0.31795 0.0
C1113 C 0.85427 0.30422 0.31613 0.0
C1114 C 0.84336 0.26255 0.3018 0.0
C1115 C 0.84358 0.27403 0.28354 0.0
C1116 C 0.84739 0.30109 0.2819 0.0
C1117 C 0.8526 0.31605 0.29802 0.0
C1118 C 0.84192 0.25776 0.26598 0.0
C1119 C 0.82615 0.2651 0.25157 0.0
C1120 C 0.85683 0.23604 0.26289 0.0
C1121 C 0.87539 0.22855 0.27661 0.0
C1122 C 0.89277 0.24661 0.28179 0.0
C1123 C 0.91032 0.23937 0.2946 0.0
C1124 C 0.91082 0.21404 0.30216 0.0
C1125 C 0.89381 0.19586 0.29689 0.0
C1126 C 0.87618 0.20302 0.28413 0.0
C1127 C 0.85849 0.21966 0.17976 0.0
C1128 C 0.8565 0.19231 0.17807 0.0
C1129 C 0.85172 0.23227 0.19659 0.0
C1130 C 0.843 0.21772 0.21203 0.0
C1131 C 0.83971 0.19066 0.20998 0.0
C1132 C 0.84616 0.17808 0.19307 0.0
C1133 C 0.84033 0.23023 0.23099 0.0
C1134 C 0.85545 0.22226 0.24562 0.0
C1135 C 0.82526 0.2517 0.23405 0.0
C1136 C 0.8086 0.26054 0.21917 0.0
C1137 C 0.79304 0.24271 0.21071 0.0
C1138 C 0.77748 0.25112 0.19662 0.0
C1139 C 0.77723 0.27736 0.19092 0.0
C1140 C 0.79251 0.29525 0.19933 0.0
C1141 C 0.80812 0.28694 0.21342 0.0
H1142 H 0.76517 0.28383 0.18001 0.0
H1143 H 0.92443 0.20849 0.31207 0.0
H1144 H 0.87013 0.74347 0.82825 0.0
H1145 H 0.85866 0.76529 0.79852 0.0
H1146 H 0.83432 0.69165 0.77597 0.0
H1147 H 0.84524 0.66978 0.80573 0.0
H1148 H 0.8692 0.71772 0.75385 0.0
H1149 H 0.79548 0.73536 0.78284 0.0
H1150 H 0.76909 0.75123 0.80807 0.0
H1151 H 0.79653 0.829 0.80183 0.0
H1152 H 0.82335 0.81352 0.77675 0.0
H1153 H 0.84932 0.77615 0.66438 0.0
H1154 H 0.84026 0.75123 0.69333 0.0
H1155 H 0.84855 0.82129 0.72714 0.0
H1156 H 0.8564 0.84641 0.69831 0.0
H1157 H 0.81653 0.79319 0.74275 0.0
H1158 H 0.89486 0.77502 0.72064 0.0
H1159 H 0.92454 0.76101 0.69726 0.0
H1160 H 0.89103 0.68612 0.69217 0.0
H1161 H 0.86111 0.69985 0.71543 0.0
C1162 C 0.86177 0.73206 0.81716 0.0
C1163 C 0.8587 0.70489 0.81932 0.0
C1164 C 0.85518 0.74455 0.80021 0.0
C1165 C 0.84566 0.73004 0.78508 0.0
C1166 C 0.84157 0.70317 0.78752 0.0
C1167 C 0.84777 0.69074 0.80457 0.0
C1168 C 0.84268 0.74228 0.76604 0.0
C1169 C 0.8572 0.73372 0.75123 0.0
C1170 C 0.82768 0.76382 0.76294 0.0
C1171 C 0.81156 0.77322 0.77801 0.0
C1172 C 0.79604 0.7558 0.78696 0.0
C1173 C 0.78097 0.76474 0.80122 0.0
C1174 C 0.78116 0.79109 0.80658 0.0
C1175 C 0.7964 0.80858 0.79767 0.0
C1176 C 0.81153 0.79974 0.78342 0.0
C1177 C 0.84869 0.78632 0.67794 0.0
C1178 C 0.85381 0.81319 0.67904 0.0
C1179 C 0.84368 0.77203 0.69452 0.0
C1180 C 0.84432 0.78422 0.71253 0.0
C1181 C 0.848 0.81136 0.71347 0.0
C1182 C 0.85254 0.82573 0.69691 0.0
C1183 C 0.84315 0.76862 0.73048 0.0
C1184 C 0.82805 0.77667 0.74516 0.0
C1185 C 0.85791 0.7468 0.73364 0.0
C1186 C 0.87571 0.73854 0.71958 0.0
C1187 C 0.8938 0.75564 0.71442 0.0
C1188 C 0.91066 0.74775 0.70122 0.0
C1189 C 0.90963 0.72272 0.69318 0.0
C1190 C 0.89175 0.70554 0.69834 0.0
C1191 C 0.87487 0.71336 0.71154 0.0
H1192 H 0.92271 0.71661 0.683 0.0
H1193 H 0.76948 0.79797 0.81761 0.0
H1194 H 0.64898 0.34517 0.79357 0.0
H1195 H 0.65948 0.32015 0.76514 0.0
H1196 H 0.64542 0.24809 0.79515 0.0
H1197 H 0.63493 0.27295 0.82376 0.0
H1198 H 0.68366 0.24468 0.76915 0.0
H1199 H 0.60317 0.27373 0.77067 0.0
H1200 H 0.57258 0.30737 0.77384 0.0
H1201 H 0.60042 0.34867 0.72553 0.0
H1202 H 0.63141 0.31544 0.72226 0.0
H1203 H 0.64378 0.15625 0.69869 0.0
H1204 H 0.65282 0.18448 0.72569 0.0
H1205 H 0.65512 0.25149 0.68814 0.0
H1206 H 0.64544 0.22337 0.66101 0.0
H1207 H 0.62742 0.26103 0.71663 0.0
H1208 H 0.7046 0.22841 0.71189 0.0
H1209 H 0.73572 0.19541 0.70893 0.0
H1210 H 0.71548 0.16142 0.76252 0.0
H1211 H 0.68401 0.19399 0.7657 0.0
C1212 C 0.64858 0.32398 0.7943 0.0
C1213 C 0.6407 0.31106 0.81084 0.0
C1214 C 0.65462 0.30972 0.77802 0.0
C1215 C 0.65286 0.28232 0.77798 0.0
C1216 C 0.64684 0.26925 0.79491 0.0
C1217 C 0.64076 0.28351 0.81122 0.0
C1218 C 0.65437 0.26761 0.75978 0.0
C1219 C 0.67136 0.24809 0.75765 0.0
C1220 C 0.63865 0.2726 0.74465 0.0
C1221 C 0.61974 0.29227 0.74635 0.0
C1222 C 0.60285 0.29008 0.7608 0.0
C1223 C 0.58543 0.30906 0.76261 0.0
C1224 C 0.5846 0.33019 0.74993 0.0
C1225 C 0.60112 0.33232 0.73536 0.0
C1226 C 0.6186 0.31341 0.73352 0.0
C1227 C 0.64668 0.1769 0.69606 0.0
C1228 C 0.64364 0.18758 0.67769 0.0
C1229 C 0.65201 0.19305 0.71155 0.0
C1230 C 0.65475 0.22016 0.70899 0.0
C1231 C 0.65304 0.23065 0.69048 0.0
C1232 C 0.64756 0.21451 0.67497 0.0
C1233 C 0.65669 0.23773 0.72586 0.0
C1234 C 0.64013 0.25779 0.72786 0.0
C1235 C 0.67289 0.23323 0.74078 0.0
C1236 C 0.69181 0.21356 0.73896 0.0
C1237 C 0.70666 0.21378 0.72298 0.0
C1238 C 0.72439 0.19517 0.72127 0.0
C1239 C 0.72755 0.1763 0.73551 0.0
C1240 C 0.71301 0.17604 0.7515 0.0
C1241 C 0.69524 0.19461 0.75328 0.0
H1242 H 0.74129 0.16191 0.73416 0.0
H1243 H 0.57112 0.34489 0.75138 0.0
H1244 H 0.34743 0.3503 0.70612 0.0
H1245 H 0.33676 0.32475 0.7343 0.0
H1246 H 0.34635 0.25325 0.70245 0.0
H1247 H 0.3567 0.27866 0.67409 0.0
H1248 H 0.30991 0.24939 0.72765 0.0
H1249 H 0.39036 0.2782 0.7286 0.0
H1250 H 0.42174 0.31116 0.72772 0.0
H1251 H 0.39325 0.34861 0.77739 0.0
H1252 H 0.36149 0.31607 0.77839 0.0
H1253 H 0.35018 0.15534 0.79357 0.0
H1254 H 0.34103 0.18619 0.76813 0.0
H1255 H 0.33621 0.24876 0.80935 0.0
H1256 H 0.3459 0.21798 0.83497 0.0
H1257 H 0.36477 0.26161 0.78167 0.0
H1258 H 0.28787 0.22779 0.78382 0.0
H1259 H 0.25717 0.19408 0.78482 0.0
H1260 H 0.27879 0.16544 0.72998 0.0
H1261 H 0.30985 0.19873 0.72875 0.0
C1262 C 0.34688 0.32915 0.70499 0.0
C1263 C 0.35329 0.31648 0.68794 0.0
C1264 C 0.34078 0.31458 0.72113 0.0
C1265 C 0.3412 0.28711 0.72056 0.0
C1266 C 0.34599 0.27445 0.70321 0.0
C1267 C 0.35199 0.28901 0.68702 0.0
C1268 C 0.33898 0.27155 0.73837 0.0
C1269 C 0.3219 0.25195 0.73947 0.0
C1270 C 0.35427 0.27541 0.75398 0.0
C1271 C 0.3734 0.29491 0.75342 0.0
C1272 C 0.39069 0.29359 0.73923 0.0
C1273 C 0.40856 0.31218 0.73873 0.0
C1274 C 0.40945 0.33202 0.75245 0.0
C1275 C 0.39251 0.33327 0.76674 0.0
C1276 C 0.37457 0.31477 0.76728 0.0
C1277 C 0.34674 0.17555 0.79733 0.0
C1278 C 0.34903 0.18424 0.8163 0.0
C1279 C 0.34132 0.19318 0.78274 0.0
C1280 C 0.3378 0.21981 0.78681 0.0
C1281 C 0.33885 0.22829 0.80587 0.0
C1282 C 0.34434 0.21066 0.82051 0.0
C1283 C 0.33587 0.23904 0.77095 0.0
C1284 C 0.35233 0.25932 0.77012 0.0
C1285 C 0.32002 0.23573 0.75564 0.0
C1286 C 0.3013 0.2157 0.75625 0.0
C1287 C 0.28619 0.21419 0.77203 0.0
C1288 C 0.2687 0.19517 0.77263 0.0
C1289 C 0.26605 0.1776 0.75749 0.0
C1290 C 0.28086 0.17906 0.74169 0.0
C1291 C 0.29839 0.19804 0.74103 0.0
H1292 H 0.2525 0.16289 0.75798 0.0
H1293 H 0.4233 0.34638 0.75204 0.0
H1294 H 0.14989 0.67344 0.68396 0.0
H1295 H 0.16286 0.69446 0.71357 0.0
H1296 H 0.11311 0.75662 0.70472 0.0
H1297 H 0.10025 0.73598 0.67516 0.0
H1298 H 0.15412 0.77503 0.71952 0.0
H1299 H 0.10009 0.70173 0.73156 0.0
H1300 H 0.08896 0.65501 0.73092 0.0
H1301 H 0.15085 0.63508 0.76215 0.0
H1302 H 0.16246 0.68162 0.76277 0.0
H1303 H 0.10523 0.82494 0.8013 0.0
H1304 H 0.11612 0.80338 0.77185 0.0
H1305 H 0.16104 0.75081 0.80307 0.0
H1306 H 0.14965 0.77219 0.83312 0.0
H1307 H 0.13562 0.72449 0.77815 0.0
H1308 H 0.18449 0.79811 0.77337 0.0
H1309 H 0.196 0.84456 0.77528 0.0
H1310 H 0.14697 0.86389 0.73116 0.0
H1311 H 0.13487 0.81765 0.72917 0.0
C1312 C 0.14207 0.69188 0.68811 0.0
C1313 C 0.12383 0.7029 0.67732 0.0
C1314 C 0.14945 0.7038 0.70508 0.0
C1315 C 0.1387 0.72689 0.71149 0.0
C1316 C 0.12162 0.73878 0.70007 0.0
C1317 C 0.11421 0.72689 0.68318 0.0
C1318 C 0.14345 0.73769 0.73077 0.0
C1319 C 0.15017 0.76402 0.73237 0.0
C1320 C 0.13927 0.72297 0.74758 0.0
C1321 C 0.13227 0.69505 0.74702 0.0
C1322 C 0.1114 0.68733 0.73815 0.0
C1323 C 0.10499 0.66091 0.73781 0.0
C1324 C 0.11923 0.6421 0.74646 0.0
C1325 C 0.13988 0.64966 0.75544 0.0
C1326 C 0.14638 0.67604 0.75578 0.0
C1327 C 0.11758 0.80893 0.80203 0.0
C1328 C 0.12657 0.80031 0.81964 0.0
C1329 C 0.12397 0.79674 0.78506 0.0
C1330 C 0.13982 0.77583 0.78513 0.0
C1331 C 0.14895 0.7671 0.80266 0.0
C1332 C 0.14243 0.7793 0.8198 0.0
C1333 C 0.14517 0.76227 0.76688 0.0
C1334 C 0.14034 0.73541 0.76543 0.0
C1335 C 0.15136 0.77646 0.75023 0.0
C1336 C 0.15874 0.80434 0.75116 0.0
C1337 C 0.17607 0.81227 0.76413 0.0
C1338 C 0.1827 0.83858 0.76523 0.0
C1339 C 0.17222 0.85716 0.75336 0.0
C1340 C 0.1551 0.84947 0.74033 0.0
C1341 C 0.14838 0.82319 0.73919 0.0
H1342 H 0.17737 0.87752 0.75424 0.0
H1343 H 0.11425 0.62168 0.74629 0.0
H1344 H 0.01811 0.00944 0.41573 0.0
H1345 H 0.00081 0.99373 0.44558 0.0
H1346 H 0.06339 0.01484 0.47601 0.0
H1347 H 0.081 0.0299 0.446 0.0
H1348 H 0.04446 0.96764 0.48836 0.0
H1349 H 0.01923 0.05603 0.47617 0.0
H1350 H 0.00212 0.09139 0.45667 0.0
H1351 H 0.93765 0.04908 0.45337 0.0
H1352 H 0.95451 0.01323 0.47259 0.0
H1353 H -0.00297 0.97785 0.58198 0.0
H1354 H 0.01588 0.98804 0.55139 0.0
H1355 H 0.95306 0.96642 0.52147 0.0
H1356 H 0.93415 0.95648 0.55204 0.0
H1357 H 0.97206 0.0129 0.50866 0.0
H1358 H -0.00349 0.92541 0.52216 0.0
H1359 H 0.01337 0.89018 0.54183 0.0
H1360 H 0.07915 0.93008 0.54253 0.0
H1361 H 0.06247 0.96604 0.52334 0.0
C1362 C 0.02822 0.01042 0.42877 0.0
C1363 C 0.05054 0.02157 0.42881 0.0
C1364 C 0.01834 0.00154 0.44577 0.0
C1365 C 0.03068 0.00365 0.463 0.0
C1366 C 0.05354 0.01332 0.46286 0.0
C1367 C 0.06343 0.02222 0.44583 0.0
C1368 C 0.01918 0.99727 0.48129 0.0
C1369 C 0.02878 0.9777 0.49295 0.0
C1370 C -0.00151 0.01012 0.48699 0.0
C1371 C 0.9882 0.03184 0.47567 0.0
C1372 C 0.00145 0.05418 0.47117 0.0
C1373 C 0.9918 0.07432 0.46019 0.0
C1374 C 0.96883 0.07245 0.45375 0.0
C1375 C 0.95545 0.05048 0.45835 0.0
C1376 C 0.96504 0.03025 0.4693 0.0
C1377 C 0.98734 0.9753 0.56882 0.0
C1378 C 0.96442 0.96587 0.56917 0.0
C1379 C -0.00191 0.98099 0.55144 0.0
C1380 C 0.98592 0.97759 0.53422 0.0
C1381 C 0.96276 0.96893 0.53462 0.0
C1382 C 0.95208 0.96306 0.552 0.0
C1383 C -0.00268 0.98327 0.51578 0.0
C1384 C 0.9877 0.00277 0.50409 0.0
C1385 C 0.01797 0.97032 0.51009 0.0
C1386 C 0.02815 0.94858 0.52146 0.0
C1387 C 0.01451 0.92682 0.52665 0.0
C1388 C 0.02405 0.90668 0.53769 0.0
C1389 C 0.04733 0.90785 0.54341 0.0
C1390 C 0.06111 0.9292 0.5381 0.0
C1391 C 0.05161 0.9495 0.52716 0.0
H1392 H 0.05468 0.8922 0.55193 0.0
H1393 H 0.96138 0.08806 0.44524 0.0
H1394 H 0.42548 0.00073 0.4314 0.0
H1395 H 0.44243 0.01659 0.46134 0.0
H1396 H 0.47311 0.94058 0.47115 0.0
H1397 H 0.45634 0.92472 0.44129 0.0
H1398 H 0.45492 0.96064 0.50366 0.0
H1399 H 0.50519 0.98985 0.45293 0.0
H1400 H 0.51467 0.01219 0.42268 0.0
H1401 H 0.49094 0.08527 0.44597 0.0
H1402 H 0.48101 0.06327 0.47629 0.0
H1403 H 0.54381 0.99293 0.56952 0.0
H1404 H 0.52237 0.97864 0.54119 0.0
H1405 H 0.49281 0.05594 0.53533 0.0
H1406 H 0.51391 0.07023 0.56377 0.0
H1407 H 0.50866 0.03669 0.50133 0.0
H1408 H 0.46033 0.00743 0.55286 0.0
H1409 H 0.45155 0.98474 0.58312 0.0
H1410 H 0.47227 0.91142 0.55836 0.0
H1411 H 0.4815 0.93374 0.52802 0.0
C1412 C 0.43566 0.98737 0.44007 0.0
C1413 C 0.43926 0.96138 0.43421 0.0
C1414 C 0.44536 0.99645 0.45711 0.0
C1415 C 0.45914 0.97978 0.46836 0.0
C1416 C 0.46237 0.95367 0.46272 0.0
C1417 C 0.45261 0.94457 0.44573 0.0
C1418 C 0.47094 0.98974 0.48567 0.0
C1419 C 0.46684 0.97711 0.50314 0.0
C1420 C 0.4861 0.01158 0.48499 0.0
C1421 C 0.49212 0.02485 0.4668 0.0
C1422 C 0.50182 0.01064 0.45155 0.0
C1423 C 0.5073 0.02325 0.4344 0.0
C1424 C 0.50334 0.05012 0.43238 0.0
C1425 C 0.49395 0.06445 0.44754 0.0
C1426 C 0.48841 0.05192 0.46471 0.0
C1427 C 0.53277 0.00688 0.56215 0.0
C1428 C 0.53093 0.03284 0.56859 0.0
C1429 C 0.5205 -0.00132 0.54603 0.0
C1430 C 0.50595 0.01623 0.53625 0.0
C1431 C 0.5041 0.04218 0.54263 0.0
C1432 C 0.51636 0.05038 0.55876 0.0
C1433 C 0.49275 0.00749 0.51929 0.0
C1434 C 0.49661 0.02034 0.50188 0.0
C1435 C 0.47744 0.98581 0.52001 0.0
C1436 C 0.4718 0.9723 0.53822 0.0
C1437 C 0.46319 0.9865 0.55391 0.0
C1438 C 0.4581 0.9737 0.57107 0.0
C1439 C 0.4614 0.94667 0.57267 0.0
C1440 C 0.46975 0.93237 0.5571 0.0
C1441 C 0.47488 0.94508 0.53991 0.0
H1442 H 0.45745 0.9368 0.58597 0.0
H1443 H 0.5076 0.05985 0.4191 0.0
H1444 H 0.43258 0.98903 0.92965 0.0
H1445 H 0.45026 0.97639 0.96022 0.0
H1446 H 0.49091 0.04745 0.96003 0.0
H1447 H 0.47336 0.06008 0.92949 0.0
H1448 H 0.51666 0.00224 0.96906 0.0
H1449 H 0.44588 0.04533 0.98767 0.0
H1450 H 0.40356 0.05336 0.98745 0.0
H1451 H 0.39133 0.97509 0.00757 0.0
H1452 H 0.4336 0.96645 0.00762 0.0
H1453 H 0.55331 0.00504 0.06593 0.0
H1454 H 0.53568 0.01605 0.03506 0.0
H1455 H 0.49385 0.94596 0.0378 0.0
H1456 H 0.5112 0.93507 0.06875 0.0
H1457 H 0.46859 0.98963 0.02724 0.0
H1458 H 0.5391 0.9465 0.00925 0.0
H1459 H 0.58134 0.93801 0.00935 0.0
H1460 H 0.59409 0.01551 0.9879 0.0
H1461 H 0.5519 0.02463 0.98796 0.0
C1462 C 0.44525 0.00192 0.9362 0.0
C1463 C 0.4513 0.02574 0.9275 0.0
C1464 C 0.45526 0.99475 0.95361 0.0
C1465 C 0.47168 0.01115 0.9624 0.0
C1466 C 0.47815 0.03465 0.95349 0.0
C1467 C 0.46796 0.04195 0.93619 0.0
C1468 C 0.48211 0.0038 0.98093 0.0
C1469 C 0.50623 -0.00022 0.98185 0.0
C1470 C 0.46832 0.0 0.99742 0.0
C1471 C 0.4429 0.00515 0.99744 0.0
C1472 C 0.43416 0.02975 0.99187 0.0
C1473 C 0.41018 0.03442 0.99181 0.0
C1474 C 0.39476 0.01472 0.99744 0.0
C1475 C 0.40329 0.99031 0.00319 0.0
C1476 C 0.42726 0.98552 0.00324 0.0
C1477 C 0.5404 0.99199 0.05988 0.0
C1478 C 0.53396 0.96894 0.06946 0.0
C1479 C 0.53043 -0.00178 0.04227 0.0
C1480 C 0.51371 0.98162 0.03408 0.0
C1481 C 0.50687 0.95888 0.04384 0.0
C1482 C 0.51697 0.95255 0.06138 0.0
C1483 C 0.50319 0.98816 0.01542 0.0
C1484 C 0.47904 0.99202 0.01445 0.0
C1485 C 0.51695 0.99174 -0.00113 0.0
C1486 C 0.54234 0.98634 -0.0012 0.0
C1487 C 0.55091 0.96183 0.00472 0.0
C1488 C 0.57485 0.95688 0.00472 0.0
C1489 C 0.59039 0.97623 -0.00132 0.0
C1490 C 0.58202 0.00055 0.9926 0.0
C1491 C 0.5581 0.00562 0.9926 0.0
H1492 H 0.60892 0.97236 -0.00132 0.0
H1493 H 0.3762 0.01838 0.99739 0.0
H1494 H 6e-05 0.0242 0.08936 0.0
H1495 H 0.01785 0.00988 0.05927 0.0
H1496 H 0.94994 0.00743 0.0329 0.0
H1497 H 0.93213 0.02086 0.06312 0.0
H1498 H 0.97617 0.96594 0.02263 0.0
H1499 H 0.98509 0.0595 0.02637 0.0
H1500 H -0.00272 0.10107 0.04125 0.0
H1501 H 0.06853 0.07557 0.04056 0.0
H1502 H 0.0567 0.03364 0.02595 0.0
H1503 H 0.00377 0.97361 0.92487 0.0
H1504 H 0.98985 0.98585 0.95673 0.0
H1505 H 0.05976 0.97911 0.97879 0.0
H1506 H 0.07377 0.96707 0.94682 0.0
H1507 H 0.03491 0.0237 0.99208 0.0
H1508 H 0.0255 0.9307 0.98638 0.0
H1509 H 0.01263 0.89001 0.97065 0.0
H1510 H 0.94147 0.91528 0.97438 0.0
H1511 H 0.95395 0.95638 0.98982 0.0
C1512 C 0.989 0.02036 0.07714 0.0
C1513 C 0.96488 0.02432 0.07825 0.0
C1514 C -0.00086 0.01234 0.06 0.0
C1515 C 0.98523 0.00814 0.04379 0.0
C1516 C 0.96098 0.01087 0.0452 0.0
C1517 C 0.95087 0.01887 0.06233 0.0
C1518 C -0.00409 0.00165 0.02519 0.0
C1519 C 0.98887 0.97866 0.01588 0.0
C1520 C 0.01281 0.01805 0.01661 0.0
C1521 C 0.01998 0.04331 0.02527 0.0
C1522 C 0.00334 0.06267 0.02954 0.0
C1523 C 0.01018 0.08631 0.0379 0.0
C1524 C 0.03366 0.09093 0.04189 0.0
C1525 C 0.05034 0.07194 0.03749 0.0
C1526 C 0.04358 0.04824 0.02916 0.0
C1527 C 0.01614 0.97502 0.93652 0.0
C1528 C 0.03969 0.96895 0.93365 0.0
C1529 C 0.0082 0.98187 0.95465 0.0
C1530 C 0.02376 0.98294 0.97008 0.0
C1531 C 0.04751 0.97815 0.96704 0.0
C1532 C 0.05543 0.97108 0.9489 0.0
C1533 C 0.01496 0.98818 0.9895 0.0
C1534 C 0.02236 0.0109 -0.00106 0.0
C1535 C -0.00171 0.97161 0.99816 0.0
C1536 C 0.99069 0.94674 0.98911 0.0
C1537 C 0.00712 0.92769 0.98372 0.0
C1538 C -0.00011 0.90453 0.97487 0.0
C1539 C 0.97625 0.90008 0.97149 0.0
C1540 C 0.95978 0.91876 0.97699 0.0
C1541 C 0.96692 0.94199 0.98581 0.0
H1542 H 0.97068 0.88214 0.96463 0.0
H1543 H 0.03893 0.10925 0.04836 0.0
H1544 H 0.51013 0.55258 0.42576 0.0
H1545 H 0.49326 0.53982 0.45647 0.0
H1546 H 0.54513 0.47907 0.4623 0.0
H1547 H 0.56146 0.49126 0.4312 0.0
H1548 H 0.50489 0.4613 0.47323 0.0
H1549 H 0.54878 0.5391 0.48642 0.0
H1550 H 0.56072 0.58502 0.48151 0.0
H1551 H 0.49137 0.61094 0.49441 0.0
H1552 H 0.4789 0.56514 0.49906 0.0
H1553 H 0.48095 0.43779 0.57108 0.0
H1554 H 0.50108 0.45026 0.54163 0.0
H1555 H 0.44976 0.51053 0.53153 0.0
H1556 H 0.43 0.49853 0.56127 0.0
H1557 H 0.49196 0.52813 0.52357 0.0
H1558 H 0.44799 0.44975 0.50854 0.0
H1559 H 0.43645 0.40372 0.51361 0.0
H1560 H 0.50706 0.37897 0.50466 0.0
H1561 H 0.51907 0.42491 0.49978 0.0
C1562 C 0.51792 0.53659 0.43368 0.0
C1563 C 0.53726 0.52313 0.4264 0.0
C1564 C 0.50835 0.52935 0.45121 0.0
C1565 C 0.51829 0.5089 0.4619 0.0
C1566 C 0.53728 0.49501 0.45435 0.0
C1567 C 0.54659 0.50197 0.43665 0.0
C1568 C 0.50882 0.50195 0.4809 0.0
C1569 C 0.50239 0.47585 0.48433 0.0
C1570 C 0.50525 0.52102 0.4953 0.0
C1571 C 0.51287 0.54865 0.49295 0.0
C1572 C 0.53605 0.55458 0.48812 0.0
C1573 C 0.54291 0.58059 0.48537 0.0
C1574 C 0.5268 0.60088 0.4876 0.0
C1575 C 0.50382 0.5952 0.49266 0.0
C1576 C 0.49685 0.56922 0.49537 0.0
C1577 C 0.47391 0.45353 0.56244 0.0
C1578 C 0.45367 0.46684 0.56808 0.0
C1579 C 0.48542 0.46069 0.54569 0.0
C1580 C 0.47664 0.48097 0.5342 0.0
C1581 C 0.45678 0.49475 0.54015 0.0
C1582 C 0.44546 0.48784 0.55705 0.0
C1583 C 0.48781 0.48758 0.51577 0.0
C1584 C 0.49459 0.5136 0.51247 0.0
C1585 C 0.4918 0.46843 0.50153 0.0
C1586 C 0.48445 0.44077 0.50394 0.0
C1587 C 0.46107 0.43449 0.50772 0.0
C1588 C 0.45445 0.40842 0.51056 0.0
C1589 C 0.47102 0.38844 0.5095 0.0
C1590 C 0.49424 0.39447 0.5055 0.0
C1591 C 0.50096 0.42051 0.50266 0.0
H1592 H 0.46587 0.36828 0.51174 0.0
H1593 H 0.53214 0.621 0.48543 0.0
H1594 H 0.0162 0.56517 0.56076 0.0
H1595 H 0.00019 0.54545 0.53182 0.0
H1596 H 0.0308 0.47116 0.54721 0.0
H1597 H 0.04719 0.49102 0.57621 0.0
H1598 H 0.03845 0.48503 0.50917 0.0
H1599 H 0.97482 0.47764 0.55239 0.0
H1600 H 0.94646 0.49263 0.57643 0.0
H1601 H 0.91853 0.54808 0.53636 0.0
H1602 H 0.94698 0.5337 0.51215 0.0
H1603 H 0.97653 0.41902 0.43506 0.0
H1604 H 0.99133 0.43126 0.46658 0.0
H1605 H 0.96309 0.509 0.45945 0.0
H1606 H 0.94773 0.49664 0.42809 0.0
H1607 H 0.95384 0.48854 0.49493 0.0
H1608 H 0.01982 0.49834 0.45284 0.0
H1609 H 0.0484 0.48354 0.4289 0.0
H1610 H 0.07188 0.42323 0.46712 0.0
H1611 H 0.04319 0.43747 0.49121 0.0
C1612 C 0.01979 0.54475 0.55784 0.0
C1613 C 0.03329 0.52969 0.57045 0.0
C1614 C 0.01041 0.53343 0.54145 0.0
C1615 C 0.01425 0.50685 0.53748 0.0
C1616 C 0.02768 0.49172 0.55008 0.0
C1617 C 0.03694 0.50302 0.56659 0.0
C1618 C 0.0045 0.49519 0.51992 0.0
C1619 C 0.01991 0.4853 0.50617 0.0
C1620 C 0.98036 0.49601 0.51599 0.0
C1621 C 0.96318 0.50473 0.5305 0.0
C1622 C 0.96277 0.49319 0.54875 0.0
C1623 C 0.94665 0.50154 0.5624 0.0
C1624 C 0.93074 0.52133 0.55794 0.0
C1625 C 0.93088 0.53276 0.5398 0.0
C1626 C 0.94699 0.5245 0.5261 0.0
C1627 C 0.9731 0.43856 0.44037 0.0
C1628 C 0.96061 0.45677 0.42934 0.0
C1629 C 0.9818 0.4456 0.45826 0.0
C1630 C 0.97831 0.47102 0.46529 0.0
C1631 C 0.96585 0.48924 0.45428 0.0
C1632 C 0.95723 0.48223 0.43638 0.0
C1633 C 0.98783 0.47886 0.48404 0.0
C1634 C 0.97235 0.488 0.49801 0.0
C1635 C 0.0119 0.47732 0.48818 0.0
C1636 C 0.02918 0.46877 0.47373 0.0
C1637 C 0.03094 0.48178 0.45607 0.0
C1638 C 0.04718 0.47352 0.44249 0.0
C1639 C 0.0619 0.45241 0.44646 0.0
C1640 C 0.06044 0.43955 0.46405 0.0
C1641 C 0.0442 0.44771 0.47768 0.0
H1642 H 0.07447 0.44605 0.43593 0.0
H1643 H 0.91826 0.52777 0.56853 0.0
H1644 H 0.063 0.4436 0.04422 0.0
H1645 H 0.04632 0.45632 0.01342 0.0
H1646 H 0.98979 0.49517 0.04253 0.0
H1647 H 0.00586 0.48129 0.07335 0.0
H1648 H 0.97384 0.46656 0.01354 0.0
H1649 H 0.0354 0.52945 0.02261 0.0
H1650 H 0.07575 0.54369 0.02869 0.0
H1651 H 0.09874 0.50312 0.9784 0.0
H1652 H 0.05855 0.48836 0.97215 0.0
H1653 H 0.92999 0.54521 0.93882 0.0
H1654 H 0.94692 0.52775 0.96818 0.0
H1655 H 0.00195 0.49161 0.93549 0.0
H1656 H 0.98564 0.51035 0.90611 0.0
H1657 H 0.01929 0.51637 0.96545 0.0
H1658 H 0.95711 0.45534 0.95548 0.0
H1659 H 0.91661 0.4417 0.94935 0.0
H1660 H 0.89459 0.47897 0.00126 0.0
H1661 H 0.93492 0.49314 0.00758 0.0
C1662 C 0.04676 0.4544 0.04399 0.0
C1663 C 0.03528 0.46081 0.06105 0.0
C1664 C 0.03745 0.462 0.02643 0.0
C1665 C 0.01684 0.47675 0.0257 0.0
C1666 C 0.00564 0.48366 0.04279 0.0
C1667 C 0.01486 0.47588 0.06034 0.0
C1668 C 0.00676 0.48475 0.00713 0.0
C1669 C 0.98367 0.47771 0.00309 0.0
C1670 C 0.01986 0.49862 0.99332 0.0
C1671 C 0.04401 0.50759 0.99702 0.0
C1672 C 0.04909 0.52341 0.01292 0.0
C1673 C 0.07193 0.5316 0.01639 0.0
C1674 C 0.08981 0.52426 0.00397 0.0
C1675 C 0.08487 0.50877 0.98802 0.0
C1676 C 0.06207 0.5005 0.98451 0.0
C1677 C 0.9459 0.53388 0.93796 0.0
C1678 C 0.957 0.52981 0.92036 0.0
C1679 C 0.95533 0.52353 0.95469 0.0
C1680 C 0.97564 0.50826 0.95402 0.0
C1681 C 0.98631 0.50342 0.93632 0.0
C1682 C 0.97697 0.51401 0.91959 0.0
C1683 C 0.98627 0.49839 0.9719 0.0
C1684 C 0.00948 0.50506 0.97582 0.0
C1685 C 0.97327 0.4842 0.98561 0.0
C1686 C 0.94903 0.47547 0.98193 0.0
C1687 C 0.94361 0.46077 0.96553 0.0
C1688 C 0.92069 0.45292 0.96203 0.0
C1689 C 0.90303 0.45951 0.97488 0.0
C1690 C 0.90828 0.47389 0.9913 0.0
C1691 C 0.93118 0.48181 0.99487 0.0
H1692 H 0.88529 0.45343 0.97214 0.0
H1693 H 0.10748 0.53062 0.00667 0.0
H1694 H 0.56276 0.44857 0.94259 0.0
H1695 H 0.54256 0.45865 0.9725 0.0
H1696 H 0.48586 0.49288 0.94059 0.0
H1697 H 0.50616 0.48288 0.91064 0.0
H1698 H 0.49785 0.52283 0.97045 0.0
H1699 H 0.48059 0.43215 0.95998 0.0
H1700 H 0.48996 0.38591 0.95334 0.0
H1701 H 0.53007 0.38169 0.00502 0.0
H1702 H 0.52126 0.42806 0.01182 0.0
H1703 H 0.42186 0.53226 0.04943 0.0
H1704 H 0.43752 0.51824 0.01851 0.0
H1705 H 0.4968 0.48391 0.04704 0.0
H1706 H 0.48103 0.49775 0.07796 0.0
H1707 H 0.48136 0.45324 0.01813 0.0
H1708 H 0.50036 0.54436 0.0276 0.0
H1709 H 0.49105 0.59059 0.03439 0.0
H1710 H 0.44772 0.59386 0.98445 0.0
H1711 H 0.45645 0.54748 0.97755 0.0
C1712 C 0.54584 0.4579 0.94203 0.0
C1713 C 0.53562 0.46435 0.92445 0.0
C1714 C 0.53437 0.46371 0.95905 0.0
C1715 C 0.5125 0.47601 0.9587 0.0
C1716 C 0.50263 0.4832 0.94113 0.0
C1717 C 0.51417 0.47749 0.9241 0.0
C1718 C 0.50007 0.48157 0.97672 0.0
C1719 C 0.4939 0.50757 0.98074 0.0
C1720 C 0.49535 0.46167 0.99025 0.0
C1721 C 0.50041 0.43366 0.98633 0.0
C1722 C 0.49154 0.42142 0.96987 0.0
C1723 C 0.49673 0.39518 0.96608 0.0
C1724 C 0.51064 0.38089 0.97873 0.0
C1725 C 0.51932 0.3928 0.99523 0.0
C1726 C 0.51421 0.41905 -0.00093 0.0
C1727 C 0.43826 0.52179 0.049 0.0
C1728 C 0.45067 0.51668 0.06586 0.0
C1729 C 0.44711 0.51371 0.03143 0.0
C1730 C 0.46853 0.50052 0.03051 0.0
C1731 C 0.4803 0.49419 0.04746 0.0
C1732 C 0.47136 0.50214 0.06505 0.0
C1733 C 0.47928 0.49449 0.01187 0.0
C1734 C 0.48516 0.46845 0.00775 0.0
C1735 C 0.48376 0.51434 0.99824 0.0
C1736 C 0.47888 0.54238 0.00216 0.0
C1737 C 0.48873 0.55489 0.01813 0.0
C1738 C 0.48356 0.58112 0.022 0.0
C1739 C 0.46876 0.59513 0.00989 0.0
C1740 C 0.45915 0.58296 0.99384 0.0
C1741 C 0.46421 0.55671 0.98994 0.0
H1742 H 0.46477 0.61543 0.01291 0.0
H1743 H 0.51465 0.36057 0.97577 0.0
H1744 H 0.17978 0.07137 0.34498 0.0
H1745 H 0.21267 0.04099 0.34763 0.0
H1746 H 0.20738 0.04349 0.40909 0.0
H1747 H 0.17443 0.07396 0.40643 0.0
H1748 H 0.25458 0.04004 0.394 0.0
H1749 H 0.17965 -0.00181 0.39009 0.0
H1750 H 0.14075 0.99087 0.3762 0.0
H1751 H 0.17193 0.96802 0.32303 0.0
H1752 H 0.21105 0.97562 0.33652 0.0
H1753 H 0.31481 0.92097 0.40771 0.0
H1754 H 0.28174 0.9513 0.40999 0.0
H1755 H 0.27665 0.95297 0.34848 0.0
H1756 H 0.30973 0.92296 0.3462 0.0
H1757 H 0.23348 0.9535 0.36654 0.0
H1758 H 0.30784 0.99799 0.36947 0.0
H1759 H 0.34701 0.00573 0.38274 0.0
H1760 H 0.3171 0.02371 0.43739 0.0
H1761 H 0.27774 0.01571 0.42448 0.0
C1762 C 0.18622 0.06608 0.35902 0.0
C1763 C 0.17474 0.07459 0.37552 0.0
C1764 C 0.20483 0.04873 0.36052 0.0
C1765 C 0.21206 0.03985 0.37854 0.0
C1766 C 0.20192 0.0502 0.3951 0.0
C1767 C 0.1832 0.06745 0.39358 0.0
C1768 C 0.228 0.01743 0.37994 0.0
C1769 C 0.24992 0.02101 0.38828 0.0
C1770 C 0.22176 0.99275 0.37232 0.0
C1771 C 0.19827 0.9877 0.36427 0.0
C1772 C 0.17821 0.99179 0.37539 0.0
C1773 C 0.15612 0.98757 0.3676 0.0
C1774 C 0.15387 0.97906 0.34873 0.0
C1775 C 0.1737 0.97465 0.33764 0.0
C1776 C 0.19584 0.97889 0.34536 0.0
C1777 C 0.30621 0.92746 0.39476 0.0
C1778 C 0.31471 0.92001 0.3768 0.0
C1779 C 0.28746 0.9447 0.39606 0.0
C1780 C 0.27711 0.95454 0.37938 0.0
C1781 C 0.28449 0.94551 0.36148 0.0
C1782 C 0.30328 0.92839 0.36019 0.0
C1783 C 0.26022 0.97616 0.38037 0.0
C1784 C 0.23808 0.97243 0.37248 0.0
C1785 C 0.26628 0.00069 0.38838 0.0
C1786 C 0.28988 0.00598 0.39607 0.0
C1787 C 0.30963 0.00344 0.38434 0.0
C1788 C 0.33186 0.00791 0.39179 0.0
C1789 C 0.33455 0.01513 0.41091 0.0
C1790 C 0.315 0.01805 0.42259 0.0
C1791 C 0.29272 0.01358 0.41521 0.0
H1792 H 0.35178 0.01853 0.41666 0.0
H1793 H 0.13675 0.97581 0.34271 0.0
H1794 H 0.84721 0.01728 0.13628 0.0
H1795 H 0.81246 0.98997 0.13195 0.0
H1796 H 0.7757 0.05612 0.10826 0.0
H1797 H 0.81078 0.08318 0.11164 0.0
H1798 H 0.75762 0.02404 0.14467 0.0
H1799 H 0.78345 0.01994 0.07813 0.0
H1800 H 0.8128 0.01043 0.05339 0.0
H1801 H 0.81708 0.93071 0.07268 0.0
H1802 H 0.78801 0.93988 0.09775 0.0
H1803 H 0.64894 0.97497 0.1242 0.0
H1804 H 0.68579 0.99776 0.12007 0.0
H1805 H 0.72182 0.9236 0.11761 0.0
H1806 H 0.68445 0.90058 0.12021 0.0
H1807 H 0.74228 0.95742 0.09457 0.0
H1808 H 0.71812 0.95751 0.15935 0.0
H1809 H 0.69143 0.96358 0.18655 0.0
H1810 H 0.68758 0.046 0.17464 0.0
H1811 H 0.71397 0.04036 0.14714 0.0
C1812 C 0.83186 0.02575 0.12973 0.0
C1813 C 0.83153 0.05219 0.1242 0.0
C1814 C 0.81213 0.01023 0.12733 0.0
C1815 C 0.7918 0.02114 0.11968 0.0
C1816 C 0.79142 0.04748 0.11407 0.0
C1817 C 0.81129 0.06287 0.11612 0.0
C1818 C 0.77032 0.00566 0.11908 0.0
C1819 C 0.75401 0.00974 0.13359 0.0
C1820 C 0.76647 0.98623 0.10512 0.0
C1821 C 0.78377 0.98069 0.08995 0.0
C1822 C 0.79083 0.00046 0.07723 0.0
C1823 C 0.80737 0.99512 0.06312 0.0
C1824 C 0.81686 0.97 0.06151 0.0
C1825 C 0.80976 0.95016 0.07397 0.0
C1826 C 0.79323 0.95542 0.08812 0.0
C1827 C 0.66459 0.96351 0.12216 0.0
C1828 C 0.66394 0.93605 0.12258 0.0
C1829 C 0.68568 0.97654 0.12006 0.0
C1830 C 0.70657 0.96235 0.11905 0.0
C1831 C 0.70589 0.93489 0.11852 0.0
C1832 C 0.68464 0.9218 0.12019 0.0
C1833 C 0.72903 0.97635 0.11988 0.0
C1834 C 0.74571 0.97181 0.10562 0.0
C1835 C 0.7336 0.99491 0.13444 0.0
C1836 C 0.71787 -0.00153 0.15108 0.0
C1837 C 0.71146 0.97691 0.16245 0.0
C1838 C 0.6964 0.98027 0.17793 0.0
C1839 C 0.68778 0.00515 0.1823 0.0
C1840 C 0.69426 0.02673 0.17122 0.0
C1841 C 0.70928 0.02347 0.15569 0.0
H1842 H 0.67612 0.00771 0.19429 0.0
H1843 H 0.82966 0.9659 0.05057 0.0
H1844 H 0.68955 0.0888 0.61187 0.0
H1845 H 0.72325 0.06084 0.60525 0.0
H1846 H 0.68017 0.99211 0.61197 0.0
H1847 H 0.64705 0.01992 0.61991 0.0
H1848 H 0.71787 0.98496 0.62999 0.0
H1849 H 0.70002 0.01373 0.5672 0.0
H1850 H 0.69104 0.0451 0.54145 0.0
H1851 H 0.75798 0.08118 0.54866 0.0
H1852 H 0.76725 0.05026 0.57467 0.0
H1853 H 0.81032 0.90258 0.60033 0.0
H1854 H 0.7737 0.92614 0.59451 0.0
H1855 H 0.80739 -0.0009 0.60867 0.0
H1856 H 0.8435 0.97562 0.61543 0.0
H1857 H 0.77236 -0.00044 0.57599 0.0
H1858 H 0.78492 0.97387 0.64312 0.0
H1859 H 0.79366 0.94031 0.66746 0.0
H1860 H 0.73437 0.89552 0.64934 0.0
H1861 H 0.72554 0.92865 0.62465 0.0
C1862 C 0.68743 0.06772 0.61202 0.0
C1863 C 0.6658 0.05643 0.61625 0.0
C1864 C 0.70653 0.05178 0.60797 0.0
C1865 C 0.70409 0.02439 0.60773 0.0
C1866 C 0.68241 0.01318 0.61193 0.0
C1867 C 0.66348 0.02907 0.61631 0.0
C1868 C 0.72446 0.00733 0.60435 0.0
C1869 C 0.72943 0.98785 0.61791 0.0
C1870 C 0.7397 0.01115 0.58868 0.0
C1871 C 0.73425 0.02978 0.573 0.0
C1872 C 0.71276 0.02847 0.5634 0.0
C1873 C 0.70763 0.04616 0.54874 0.0
C1874 C 0.72391 0.06515 0.54344 0.0
C1875 C 0.74538 0.06646 0.55278 0.0
C1876 C 0.7506 0.04884 0.56748 0.0
C1877 C 0.80989 0.92369 0.60191 0.0
C1878 C 0.82956 0.93736 0.60836 0.0
C1879 C 0.78915 0.93707 0.5984 0.0
C1880 C 0.78808 0.96426 0.60109 0.0
C1881 C 0.80811 0.97814 0.60627 0.0
C1882 C 0.82867 0.96473 0.61013 0.0
C1883 C 0.76552 0.97772 0.60166 0.0
C1884 C 0.76032 0.9965 0.58772 0.0
C1885 C 0.74981 0.97305 0.61677 0.0
C1886 C 0.75473 0.95355 0.63194 0.0
C1887 C 0.77385 0.95677 0.64426 0.0
C1888 C 0.77881 0.93785 0.65812 0.0
C1889 C 0.76462 0.91576 0.65992 0.0
C1890 C 0.74538 0.91261 0.64791 0.0
C1891 C 0.74038 0.93145 0.63398 0.0
H1892 H 0.76851 0.90111 0.67064 0.0
H1893 H 0.7199 0.07883 0.53209 0.0
H1894 H 0.29838 0.08476 0.87188 0.0
H1895 H 0.26333 0.05759 0.87148 0.0
H1896 H 0.30598 0.9881 0.86741 0.0
H1897 H 0.34081 0.01536 0.86616 0.0
H1898 H 0.27255 0.98388 0.84383 0.0
H1899 H 0.2769 0.00757 0.90988 0.0
H1900 H 0.28005 0.03727 0.93752 0.0
H1901 H 0.21618 0.07494 0.92129 0.0
H1902 H 0.2128 0.04569 0.8934 0.0
H1903 H 0.18026 0.89595 0.87318 0.0
H1904 H 0.21635 0.92178 0.87256 0.0
H1905 H 0.17713 0.99055 0.85679 0.0
H1906 H 0.14126 0.96463 0.85654 0.0
H1907 H 0.20857 0.99393 0.89084 0.0
H1908 H 0.20563 0.96867 0.82426 0.0
H1909 H 0.20282 0.93666 0.798 0.0
H1910 H 0.26526 0.89892 0.81757 0.0
H1911 H 0.26822 0.93047 0.84415 0.0
C1912 C 0.30017 0.06368 0.87088 0.0
C1913 C 0.3222 0.05209 0.86918 0.0
C1914 C 0.28021 0.04816 0.87086 0.0
C1915 C 0.28206 0.02076 0.86972 0.0
C1916 C 0.30414 0.00918 0.86837 0.0
C1917 C 0.32404 0.02473 0.86794 0.0
C1918 C 0.26097 0.00419 0.86916 0.0
C1919 C 0.25876 0.98584 0.85431 0.0
C1920 C 0.24277 0.00701 0.88264 0.0
C1921 C 0.24471 0.02458 0.89945 0.0
C1922 C 0.26361 0.0223 0.91213 0.0
C1923 C 0.26542 0.03904 0.92786 0.0
C1924 C 0.24835 0.05802 0.93114 0.0
C1925 C 0.2294 0.06025 0.91872 0.0
C1926 C 0.22752 0.04358 0.90296 0.0
C1927 C 0.1795 0.91647 0.86928 0.0
C1928 C 0.15814 0.92849 0.86509 0.0
C1929 C 0.19998 0.93114 0.86901 0.0
C1930 C 0.19916 0.95796 0.86474 0.0
C1931 C 0.17791 0.96987 0.86023 0.0
C1932 C 0.15754 0.95513 0.86017 0.0
C1933 C 0.22039 0.97389 0.86562 0.0
C1934 C 0.22254 0.99204 0.8805 0.0
C1935 C 0.23866 0.97059 0.8524 0.0
C1936 C 0.23699 0.95174 0.83633 0.0
C1937 C 0.21863 0.95338 0.82308 0.0
C1938 C 0.21703 0.93536 0.80811 0.0
C1939 C 0.23381 0.91571 0.80615 0.0
C1940 C 0.25225 0.91411 0.81912 0.0
C1941 C 0.2539 0.93207 0.83414 0.0
H1942 H 0.23254 0.90177 0.79455 0.0
H1943 H 0.24979 0.07096 0.94332 0.0
H1944 H 0.84698 0.47173 0.37033 0.0
H1945 H 0.81193 0.49748 0.37684 0.0
H1946 H 0.7743 0.42657 0.38987 0.0
H1947 H 0.80971 0.40075 0.38418 0.0
H1948 H 0.755 0.46168 0.36043 0.0
H1949 H 0.78418 0.46212 0.42498 0.0
H1950 H 0.81406 0.46919 0.44972 0.0
H1951 H 0.81782 0.55064 0.43468 0.0
H1952 H 0.78821 0.54397 0.40962 0.0
H1953 H 0.64987 0.5198 0.38049 0.0
H1954 H 0.68461 0.49368 0.38569 0.0
H1955 H 0.72617 0.56407 0.38772 0.0
H1956 H 0.69078 0.59063 0.38437 0.0
H1957 H 0.74377 0.52843 0.41115 0.0
H1958 H 0.71905 0.5299 0.34602 0.0
H1959 H 0.69136 0.52545 0.3193 0.0
H1960 H 0.68237 0.44389 0.33243 0.0
H1961 H 0.70975 0.44795 0.35944 0.0
C1962 C 0.83136 0.46174 0.375 0.0
C1963 C 0.83091 0.43436 0.37684 0.0
C1964 C 0.81143 0.47641 0.37868 0.0
C1965 C 0.79077 0.46382 0.38398 0.0
C1966 C 0.79025 0.43649 0.3859 0.0
C1967 C 0.81031 0.42183 0.38252 0.0
C1968 C 0.76925 0.47912 0.38584 0.0
C1969 C 0.75226 0.47592 0.37172 0.0
C1970 C 0.76643 0.49839 0.40013 0.0
C1971 C 0.78412 0.50248 0.41529 0.0
C1972 C 0.79152 0.48149 0.42682 0.0
C1973 C 0.80838 0.48544 0.44093 0.0
C1974 C 0.81787 0.51034 0.44374 0.0
C1975 C 0.81047 0.53136 0.43248 0.0
C1976 C 0.79363 0.52751 0.41833 0.0
C1977 C 0.66622 0.52983 0.38279 0.0
C1978 C 0.66766 0.55726 0.38204 0.0
C1979 C 0.68613 0.51484 0.38548 0.0
C1980 C 0.70799 0.52693 0.38657 0.0
C1981 C 0.70944 0.55438 0.38676 0.0
C1982 C 0.68932 0.56948 0.38462 0.0
C1983 C 0.72929 0.51079 0.38582 0.0
C1984 C 0.74634 0.51399 0.39999 0.0
C1985 C 0.73254 0.49189 0.37126 0.0
C1986 C 0.71629 0.48929 0.35486 0.0
C1987 C 0.71106 0.51105 0.34328 0.0
C1988 C 0.69543 0.5086 0.32808 0.0
C1989 C 0.68507 0.48442 0.3242 0.0
C1990 C 0.69039 0.46262 0.33547 0.0
C1991 C 0.70597 0.46498 0.35072 0.0
H1992 H 0.67297 0.48256 0.31242 0.0
H1993 H 0.83093 0.51336 0.45468 0.0
H1994 H 0.34306 0.51815 0.12766 0.0
H1995 H 0.30651 0.49413 0.12394 0.0
H1996 H 0.26942 0.56708 0.1174 0.0
H1997 H 0.30625 0.59128 0.12027 0.0
H1998 H 0.25168 0.5279 0.14597 0.0
H1999 H 0.27474 0.53695 0.07992 0.0
H2000 H 0.30268 0.53365 0.05331 0.0
H2001 H 0.30832 0.45069 0.06237 0.0
H2002 H 0.28069 0.45356 0.08925 0.0
H2003 H 0.14433 0.46979 0.12473 0.0
H2004 H 0.17866 0.49779 0.12322 0.0
H2005 H 0.2215 0.43015 0.11146 0.0
H2006 H 0.18673 0.40234 0.11147 0.0
H2007 H 0.23591 0.46904 0.09105 0.0
H2008 H 0.21685 0.45772 0.15699 0.0
H2009 H 0.19193 0.45814 0.18565 0.0
H2010 H 0.18207 0.54112 0.17961 0.0
H2011 H 0.20669 0.54114 0.15073 0.0
C2012 C 0.32716 0.52902 0.12509 0.0
C2013 C 0.32735 0.55647 0.12405 0.0
C2014 C 0.30638 0.51533 0.12309 0.0
C2015 C 0.2855 0.52895 0.12029 0.0
C2016 C 0.28551 0.55638 0.11952 0.0
C2017 C 0.30641 0.5701 0.12122 0.0
C2018 C 0.26362 0.5143 0.11861 0.0
C2019 C 0.24789 0.5154 0.13383 0.0
C2020 C 0.25944 0.49734 0.10306 0.0
C2021 C 0.27578 0.49552 0.0867 0.0
C2022 C 0.28208 0.51804 0.07634 0.0
C2023 C 0.29784 0.51624 0.06119 0.0
C2024 C 0.30731 0.49199 0.05618 0.0
C2025 C 0.30098 0.46947 0.06627 0.0
C2026 C 0.28525 0.47117 0.08145 0.0
C2027 C 0.16101 0.46101 0.12141 0.0
C2028 C 0.16301 0.43398 0.1182 0.0
C2029 C 0.18064 0.47695 0.12082 0.0
C2030 C 0.20268 0.46596 0.11764 0.0
C2031 C 0.20465 0.439 0.11403 0.0
C2032 C 0.18489 0.42312 0.11421 0.0
C2033 C 0.22372 0.48253 0.11848 0.0
C2034 C 0.23943 0.48173 0.10314 0.0
C2035 C 0.22818 0.49931 0.13418 0.0
C2036 C 0.21341 0.49938 0.15158 0.0
C2037 C 0.20922 0.47603 0.16169 0.0
C2038 C 0.19517 0.47619 0.17799 0.0
C2039 C 0.18537 0.49963 0.18442 0.0
C2040 C 0.18965 0.52297 0.17459 0.0
C2041 C 0.20366 0.52291 0.15826 0.0
H2042 H 0.1745 0.49971 0.19704 0.0
H2043 H 0.31952 0.49064 0.04445 0.0
H2044 H 0.33889 0.4728 0.61985 0.0
H2045 H 0.30295 0.49775 0.6174 0.0
H2046 H 0.26309 0.42634 0.62187 0.0
H2047 H 0.29937 0.40092 0.62293 0.0
H2048 H 0.24192 0.4609 0.59849 0.0
H2049 H 0.27395 0.46155 0.66112 0.0
H2050 H 0.30462 0.46664 0.68547 0.0
H2051 H 0.31162 0.54798 0.67091 0.0
H2052 H 0.28125 0.54328 0.64621 0.0
H2053 H 0.14209 0.52737 0.63717 0.0
H2054 H 0.17605 0.49848 0.63472 0.0
H2055 H 0.21826 0.56408 0.61713 0.0
H2056 H 0.18411 0.59286 0.6188 0.0
H2057 H 0.23653 0.53025 0.64804 0.0
H2058 H 0.203 0.52682 0.58436 0.0
H2059 H 0.17063 0.51954 0.56184 0.0
H2060 H 0.16406 0.44015 0.58143 0.0
H2061 H 0.19615 0.44712 0.60432 0.0
C2062 C 0.32253 0.46229 0.6196 0.0
C2063 C 0.32182 0.43497 0.62166 0.0
C2064 C 0.302 0.4766 0.61845 0.0
C2065 C 0.28045 0.4639 0.61996 0.0
C2066 C 0.27962 0.43646 0.62085 0.0
C2067 C 0.30025 0.42204 0.62162 0.0
C2068 C 0.25908 0.47956 0.62225 0.0
C2069 C 0.2406 0.47584 0.60945 0.0
C2070 C 0.25742 0.49896 0.63664 0.0
C2071 C 0.27544 0.50201 0.6517 0.0
C2072 C 0.28212 0.48049 0.66303 0.0
C2073 C 0.29945 0.48331 0.6769 0.0
C2074 C 0.31009 0.50761 0.67971 0.0
C2075 C 0.30337 0.52917 0.6687 0.0
C2076 C 0.28609 0.52644 0.65477 0.0
C2077 C 0.1586 0.53551 0.63265 0.0
C2078 C 0.16063 0.56219 0.62808 0.0
C2079 C 0.17789 0.51908 0.63132 0.0
C2080 C 0.19943 0.52927 0.62564 0.0
C2081 C 0.20165 0.55603 0.62153 0.0
C2082 C 0.18228 0.57239 0.62258 0.0
C2083 C 0.21974 0.51199 0.62402 0.0
C2084 C 0.23792 0.51529 0.63708 0.0
C2085 C 0.22084 0.49188 0.61018 0.0
C2086 C 0.20181 0.48758 0.5962 0.0
C2087 C 0.19452 0.50788 0.58399 0.0
C2088 C 0.17625 0.5038 0.57114 0.0
C2089 C 0.16525 0.47942 0.57024 0.0
C2090 C 0.17257 0.45904 0.58216 0.0
C2091 C 0.19081 0.46304 0.59507 0.0
H2092 H 0.1511 0.4763 0.56029 0.0
H2093 H 0.32351 0.50975 0.69046 0.0
H2094 H 0.65029 0.47101 0.87192 0.0
H2095 H 0.68483 0.49818 0.87518 0.0
H2096 H 0.72681 0.42905 0.884 0.0
H2097 H 0.69166 0.40167 0.88194 0.0
H2098 H 0.74191 0.46916 0.90596 0.0
H2099 H 0.72328 0.45576 0.84048 0.0
H2100 H 0.69822 0.45436 0.81191 0.0
H2101 H 0.68646 0.53722 0.81623 0.0
H2102 H 0.71115 0.53905 0.84505 0.0
H2103 H 0.84486 0.52899 0.86271 0.0
H2104 H 0.81075 0.50095 0.86732 0.0
H2105 H 0.77083 0.56785 0.88576 0.0
H2106 H 0.80537 0.59583 0.88229 0.0
H2107 H 0.75596 0.52812 0.85069 0.0
H2108 H 0.77546 0.53866 0.91827 0.0
H2109 H 0.80299 0.53726 0.94529 0.0
H2110 H 0.81643 0.4559 0.93429 0.0
H2111 H 0.78924 0.45696 0.90697 0.0
C2112 C 0.66675 0.46163 0.87514 0.0
C2113 C 0.66841 0.43431 0.87678 0.0
C2114 C 0.68649 0.47715 0.87677 0.0
C2115 C 0.70837 0.46555 0.87945 0.0
C2116 C 0.71003 0.43831 0.88185 0.0
C2117 C 0.69009 0.42273 0.88055 0.0
C2118 C 0.72947 0.48191 0.8784 0.0
C2119 C 0.74508 0.48189 0.89382 0.0
C2120 C 0.73358 0.49844 0.8625 0.0
C2121 C 0.71891 0.4975 0.84503 0.0
C2122 C 0.71522 0.47366 0.83542 0.0
C2123 C 0.7011 0.47278 0.81917 0.0
C2124 C 0.69072 0.49568 0.81228 0.0
C2125 C 0.6945 0.5195 0.8216 0.0
C2126 C 0.70857 0.52047 0.83789 0.0
C2127 C 0.82893 0.5376 0.8681 0.0
C2128 C 0.82765 0.56447 0.87224 0.0
C2129 C 0.80954 0.52163 0.87065 0.0
C2130 C 0.78857 0.53245 0.87703 0.0
C2131 C 0.78707 0.55931 0.88096 0.0
C2132 C 0.80664 0.57521 0.87881 0.0
C2133 C 0.76787 0.51581 0.8784 0.0
C2134 C 0.75256 0.51555 0.86288 0.0
C2135 C 0.76436 0.49869 0.89397 0.0
C2136 C 0.78057 0.49799 0.91044 0.0
C2137 C 0.7845 0.52056 0.92147 0.0
C2138 C 0.79998 0.51981 0.93687 0.0
C2139 C 0.81151 0.49653 0.94146 0.0
C2140 C 0.80752 0.47393 0.93069 0.0
C2141 C 0.79206 0.4746 0.91526 0.0
H2142 H 0.82349 0.49598 0.9534 0.0
H2143 H 0.67979 0.49496 0.79969 0.0
H2144 H 0.03638 0.13605 0.41029 0.0
H2145 H 0.00717 0.16688 0.4217 0.0
H2146 H 0.05028 0.23149 0.40382 0.0
H2147 H 0.07959 0.20082 0.39204 0.0
H2148 H 0.01749 0.23942 0.4387 0.0
H2149 H 0.02156 0.2118 0.37032 0.0
H2150 H 0.02381 0.17631 0.34645 0.0
H2151 H 0.96184 0.1416 0.36957 0.0
H2152 H 0.95949 0.1767 0.39379 0.0
H2153 H 0.96526 0.34516 0.39438 0.0
H2154 H 0.98609 0.30831 0.40799 0.0
H2155 H 0.92609 0.25879 0.39907 0.0
H2156 H 0.90553 0.29559 0.38425 0.0
H2157 H 0.96056 0.23604 0.38538 0.0
H2158 H 0.94911 0.27424 0.44582 0.0
H2159 H 0.94703 0.30901 0.47017 0.0
H2160 H 0.02044 0.32274 0.46448 0.0
H2161 H 0.02294 0.28834 0.43989 0.0
C2162 C 0.04014 0.1568 0.40942 0.0
C2163 C 0.06002 0.16605 0.39979 0.0
C2164 C 0.02344 0.17436 0.41608 0.0
C2165 C 0.02658 0.2013 0.4134 0.0
C2166 C 0.04769 0.21068 0.40604 0.0
C2167 C 0.0643 0.19313 0.39914 0.0
C2168 C 0.00631 0.21887 0.41355 0.0
C2169 C 0.00483 0.23879 0.42721 0.0
C2170 C 0.98951 0.21723 0.39886 0.0
C2171 C 0.99051 0.19663 0.38397 0.0
C2172 C 0.00851 0.19649 0.37037 0.0
C2173 C 0.00982 0.17646 0.3568 0.0
C2174 C 0.99306 0.15662 0.35657 0.0
C2175 C 0.97486 0.1569 0.36982 0.0
C2176 C 0.97354 0.17685 0.38347 0.0
C2177 C 0.95631 0.32655 0.39562 0.0
C2178 C 0.93387 0.32314 0.38807 0.0
C2179 C 0.96817 0.30549 0.40366 0.0
C2180 C 0.95758 0.28076 0.4049 0.0
C2181 C 0.93462 0.27768 0.39832 0.0
C2182 C 0.92291 0.29867 0.38981 0.0
C2183 C 0.97179 0.25764 0.41028 0.0
C2184 C 0.97236 0.2365 0.39747 0.0
C2185 C 0.98747 0.25811 0.42595 0.0
C2186 C 0.98619 0.27867 0.44095 0.0
C2187 C 0.9648 0.28474 0.44968 0.0
C2188 C 0.96355 0.3044 0.46354 0.0
C2189 C 0.98359 0.31808 0.46886 0.0
C2190 C 0.00494 0.31209 0.46037 0.0
C2191 C 0.00629 0.29246 0.44649 0.0
H2192 H 0.98257 0.33331 0.47958 0.0
H2193 H 0.99411 0.14111 0.34606 0.0
H2194 H 0.45518 0.85073 0.40368 0.0
H2195 H 0.48317 0.81725 0.41334 0.0
H2196 H 0.43796 0.75706 0.39126 0.0
H2197 H 0.40994 0.79038 0.38123 0.0
H2198 H 0.46715 0.74372 0.42648 0.0
H2199 H 0.47066 0.77947 0.36062 0.0
H2200 H 0.47331 0.81685 0.33836 0.0
H2201 H 0.53645 0.84209 0.36558 0.0
H2202 H 0.5339 0.80505 0.38821 0.0
H2203 H 0.52402 0.63822 0.38446 0.0
H2204 H 0.50109 0.67503 0.39592 0.0
H2205 H 0.56196 0.72466 0.39341 0.0
H2206 H 0.58459 0.68806 0.38056 0.0
H2207 H 0.52987 0.7486 0.37786 0.0
H2208 H 0.53306 0.70555 0.43741 0.0
H2209 H 0.53129 0.66882 0.46026 0.0
H2210 H 0.45865 0.65837 0.44801 0.0
H2211 H 0.46002 0.69474 0.42486 0.0
C2212 C 0.45082 0.83033 0.40137 0.0
C2213 C 0.4306 0.82318 0.39128 0.0
C2214 C 0.46679 0.81126 0.40702 0.0
C2215 C 0.4626 0.78484 0.40288 0.0
C2216 C 0.44136 0.77742 0.39463 0.0
C2217 C 0.42551 0.79649 0.38874 0.0
C2218 C 0.48186 0.76584 0.40331 0.0
C2219 C 0.48101 0.74463 0.41599 0.0
C2220 C 0.50025 0.76777 0.39 0.0
C2221 C 0.50193 0.78975 0.37623 0.0
C2222 C 0.48499 0.79313 0.36195 0.0
C2223 C 0.48648 0.81422 0.34926 0.0
C2224 C 0.50499 0.83189 0.3506 0.0
C2225 C 0.52209 0.82843 0.36459 0.0
C2226 C 0.52062 0.80741 0.37735 0.0
C2227 C 0.53255 0.65693 0.38657 0.0
C2228 C 0.55597 0.66044 0.38151 0.0
C2229 C 0.5195 0.67793 0.39338 0.0
C2230 C 0.52985 0.70261 0.39595 0.0
C2231 C 0.55357 0.70583 0.3916 0.0
C2232 C 0.56647 0.68498 0.38422 0.0
C2233 C 0.51518 0.72558 0.4008 0.0
C2234 C 0.5167 0.74771 0.38895 0.0
C2235 C 0.49775 0.72458 0.41515 0.0
C2236 C 0.49668 0.70289 0.42932 0.0
C2237 C 0.51672 0.69536 0.43951 0.0
C2238 C 0.51579 0.67459 0.45252 0.0
C2239 C 0.49488 0.66126 0.45557 0.0
C2240 C 0.47483 0.66873 0.44565 0.0
C2241 C 0.47567 0.68947 0.4326 0.0
H2242 H 0.4942 0.64517 0.46562 0.0
H2243 H 0.50613 0.8482 0.34076 0.0
H2244 H 0.57364 0.80576 0.12805 0.0
H2245 H 0.5491 0.76973 0.11659 0.0
H2246 H 0.49723 0.82523 0.09801 0.0
H2247 H 0.52173 0.86135 0.10894 0.0
H2248 H 0.48502 0.78272 0.12734 0.0
H2249 H 0.51739 0.79836 0.06488 0.0
H2250 H 0.54946 0.80433 0.0419 0.0
H2251 H 0.57482 0.72712 0.0546 0.0
H2252 H 0.5431 0.72084 0.0779 0.0
H2253 H 0.40702 0.68533 0.10692 0.0
H2254 H 0.42898 0.7247 0.09845 0.0
H2255 H 0.49231 0.67918 0.09673 0.0
H2256 H 0.47012 0.63953 0.10391 0.0
H2257 H 0.49687 0.71992 0.0741 0.0
H2258 H 0.47199 0.70568 0.13897 0.0
H2259 H 0.44309 0.69713 0.16428 0.0
H2260 H 0.40793 0.76896 0.15052 0.0
H2261 H 0.43646 0.77773 0.12491 0.0
C2262 C 0.55719 0.81029 0.12124 0.0
C2263 C 0.54953 0.83633 0.1195 0.0
C2264 C 0.54331 0.78975 0.11461 0.0
C2265 C 0.52153 0.79502 0.10641 0.0
C2266 C 0.51412 0.82095 0.10416 0.0
C2267 C 0.52814 0.84149 0.11044 0.0
C2268 C 0.50534 0.77339 0.10244 0.0
C2269 C 0.48722 0.76929 0.11546 0.0
C2270 C 0.50894 0.75556 0.08733 0.0
C2271 C 0.52799 0.75924 0.07328 0.0
C2272 C 0.52994 0.78275 0.06292 0.0
C2273 C 0.54803 0.78617 0.0498 0.0
C2274 C 0.5642 0.76614 0.04682 0.0
C2275 C 0.56229 0.74263 0.05693 0.0
C2276 C 0.54424 0.73912 0.07008 0.0
C2277 C 0.42549 0.68366 0.10401 0.0
C2278 C 0.43705 0.65968 0.10638 0.0
C2279 C 0.43802 0.70609 0.09922 0.0
C2280 C 0.46237 0.70498 0.09766 0.0
C2281 C 0.47355 0.68052 0.09804 0.0
C2282 C 0.46089 0.65791 0.10221 0.0
C2283 C 0.47639 0.72922 0.09899 0.0
C2284 C 0.49428 0.73367 0.08571 0.0
C2285 C 0.47306 0.74711 0.11423 0.0
C2286 C 0.4562 0.74222 0.1299 0.0
C2287 C 0.45804 0.71959 0.1413 0.0
C2288 C 0.44173 0.7147 0.15568 0.0
C2289 C 0.42366 0.73246 0.15897 0.0
C2290 C 0.42192 0.7552 0.14792 0.0
C2291 C 0.43815 0.76015 0.13348 0.0
H2292 H 0.41106 0.72865 0.17012 0.0
H2293 H 0.57819 0.76882 0.03665 0.0
H2294 H 0.95403 0.13572 0.08772 0.0
H2295 H 0.9796 0.16829 0.07343 0.0
H2296 H 0.93885 0.23012 0.09868 0.0
H2297 H 0.91313 0.19765 0.1133 0.0
H2298 H 0.96477 0.24034 0.05931 0.0
H2299 H 0.97448 0.212 0.12746 0.0
H2300 H 0.97701 0.17579 0.15077 0.0
H2301 H 0.0331 0.14157 0.1188 0.0
H2302 H 0.0306 0.17744 0.09516 0.0
H2303 H 0.02558 0.34581 0.09655 0.0
H2304 H 0.00243 0.30963 0.0847 0.0
H2305 H 0.06269 0.25905 0.08709 0.0
H2306 H 0.08567 0.29514 0.10028 0.0
H2307 H 0.03129 0.23685 0.10455 0.0
H2308 H 0.03119 0.27452 0.04339 0.0
H2309 H 0.02881 0.30863 0.01854 0.0
H2310 H 0.95734 0.323 0.03309 0.0
H2311 H 0.95935 0.28927 0.05824 0.0
C2312 C 0.94998 0.15624 0.08979 0.0
C2313 C 0.93194 0.16411 0.10214 0.0
C2314 C 0.9645 0.17481 0.0814 0.0
C2315 C 0.96113 0.20146 0.08515 0.0
C2316 C 0.94156 0.20955 0.09557 0.0
C2317 C 0.92704 0.19096 0.10408 0.0
C2318 C 0.98068 0.21978 0.08271 0.0
C2319 C 0.97944 0.23978 0.06906 0.0
C2320 C 0.00014 0.21813 0.09496 0.0
C2321 C 0.00225 0.19721 0.10953 0.0
C2322 C 0.98729 0.1967 0.12541 0.0
C2323 C 0.98871 0.17625 0.13865 0.0
C2324 C 0.00518 0.15637 0.13625 0.0
C2325 C 0.02033 0.15697 0.12063 0.0
C2326 C 0.01894 0.17735 0.10732 0.0
C2327 C 0.03408 0.32715 0.09412 0.0
C2328 C 0.05735 0.32316 0.09954 0.0
C2329 C 0.02083 0.30645 0.0871 0.0
C2330 C 0.03078 0.28152 0.08475 0.0
C2331 C 0.05457 0.27805 0.08882 0.0
C2332 C 0.06769 0.29863 0.09637 0.0
C2333 C 0.01546 0.25855 0.08138 0.0
C2334 C 0.01729 0.23742 0.09415 0.0
C2335 C -0.0031 0.25905 0.06798 0.0
C2336 C -0.00454 0.27935 0.05278 0.0
C2337 C 0.01499 0.28504 0.04138 0.0
C2338 C 0.0137 0.30432 0.02723 0.0
C2339 C 0.99294 0.31799 0.02425 0.0
C2340 C 0.97341 0.31238 0.0354 0.0
C2341 C 0.9746 0.29313 0.04959 0.0
H2342 H 0.99199 0.33291 0.01328 0.0
H2343 H 0.00622 0.14052 0.1465 0.0
H2344 H 0.97016 0.85794 0.60794 0.0
H2345 H 0.99331 0.82265 0.59444 0.0
H2346 H 0.93556 0.76937 0.60145 0.0
H2347 H 0.91255 0.80456 0.61586 0.0
H2348 H 0.97187 0.748 0.61461 0.0
H2349 H 0.9561 0.79119 0.55605 0.0
H2350 H 0.95272 0.82795 0.53337 0.0
H2351 H 0.02641 0.84122 0.53695 0.0
H2352 H 0.03018 0.80491 0.55995 0.0
H2353 H 0.03778 0.64765 0.58087 0.0
H2354 H 0.01144 0.68234 0.57085 0.0
H2355 H 0.06013 0.74041 0.59079 0.0
H2356 H 0.08663 0.70585 0.60113 0.0
H2357 H 0.02399 0.75544 0.55827 0.0
H2358 H 0.03367 0.72218 0.62507 0.0
H2359 H 0.03787 0.68444 0.64689 0.0
H2360 H 0.97409 0.65181 0.62548 0.0
H2361 H 0.96979 0.68918 0.60329 0.0
C2362 C 0.96228 0.83878 0.60644 0.0
C2363 C 0.93959 0.83395 0.61304 0.0
C2364 C 0.97547 0.81865 0.5985 0.0
C2365 C 0.96605 0.79343 0.59654 0.0
C2366 C 0.94316 0.78871 0.60273 0.0
C2367 C 0.93007 0.80877 0.61102 0.0
C2368 C 0.98102 0.77152 0.59006 0.0
C2369 C 0.98271 0.74947 0.60196 0.0
C2370 C -0.00444 0.77343 0.57372 0.0
C2371 C 0.99339 0.79534 0.55984 0.0
C2372 C 0.97157 0.80206 0.55213 0.0
C2373 C 0.96958 0.82283 0.5392 0.0
C2374 C 0.98933 0.83694 0.53374 0.0
C2375 C 0.01111 0.83029 0.54119 0.0
C2376 C 0.01319 0.80959 0.55417 0.0
C2377 C 0.04348 0.66776 0.58234 0.0
C2378 C 0.06388 0.67403 0.59249 0.0
C2379 C 0.02841 0.68758 0.57643 0.0
C2380 C 0.03374 0.71377 0.58045 0.0
C2381 C 0.05578 0.72022 0.58763 0.0
C2382 C 0.07081 0.7004 0.5937 0.0
C2383 C 0.01464 0.73267 0.58291 0.0
C2384 C 0.01245 0.75399 0.57048 0.0
C2385 C -0.00058 0.73018 0.59866 0.0
C2386 C 0.00151 0.70829 0.61247 0.0
C2387 C 0.0206 0.70689 0.62499 0.0
C2388 C 0.02301 0.68558 0.63741 0.0
C2389 C 0.00627 0.66572 0.63755 0.0
C2390 C 0.98705 0.66719 0.62533 0.0
C2391 C 0.98462 0.68842 0.61284 0.0
H2392 H 0.00815 0.64922 0.64715 0.0
H2393 H 0.98775 0.85301 0.52373 0.0
H2394 H 0.43018 0.30871 0.64509 0.0
H2395 H 0.45498 0.27301 0.63434 0.0
H2396 H 0.46129 0.30961 0.57894 0.0
H2397 H 0.43736 0.34624 0.59003 0.0
H2398 H 0.45556 0.23706 0.60891 0.0
H2399 H 0.51512 0.29812 0.56157 0.0
H2400 H 0.52553 0.3444 0.55585 0.0
H2401 H 0.51235 0.36223 0.61481 0.0
H2402 H 0.50208 0.31601 0.62088 0.0
H2403 H 0.54414 0.14847 0.58845 0.0
H2404 H 0.51836 0.18425 0.57914 0.0
H2405 H 0.55098 0.2345 0.6208 0.0
H2406 H 0.57703 0.19898 0.63008 0.0
H2407 H 0.53557 0.26225 0.58937 0.0
H2408 H 0.50696 0.19766 0.63476 0.0
H2409 H 0.49765 0.15265 0.64506 0.0
H2410 H 0.4508 0.14417 0.59764 0.0
H2411 H 0.46015 0.18906 0.5869 0.0
C2412 C 0.4366 0.30901 0.63054 0.0
C2413 C 0.43221 0.33043 0.61851 0.0
C2414 C 0.4507 0.28853 0.62436 0.0
C2415 C 0.46036 0.28887 0.60594 0.0
C2416 C 0.45449 0.30926 0.59336 0.0
C2417 C 0.4408 0.33012 0.5997 0.0
C2418 C 0.47807 0.26899 0.60084 0.0
C2419 C 0.47292 0.24255 0.60429 0.0
C2420 C 0.5008 0.27612 0.59491 0.0
C2421 C 0.50762 0.30373 0.59161 0.0
C2422 C 0.51456 0.31192 0.57331 0.0
C2423 C 0.5204 0.33813 0.57001 0.0
C2424 C 0.51952 0.35626 0.58494 0.0
C2425 C 0.51296 0.34818 0.60324 0.0
C2426 C 0.50713 0.322 0.60662 0.0
C2427 C 0.54626 0.16731 0.59531 0.0
C2428 C 0.56219 0.17069 0.61038 0.0
C2429 C 0.53157 0.18776 0.58989 0.0
C2430 C 0.53252 0.21177 0.59954 0.0
C2431 C 0.54998 0.21604 0.61321 0.0
C2432 C 0.56475 0.19564 0.61859 0.0
C2433 C 0.51313 0.23063 0.59803 0.0
C2434 C 0.51797 0.25674 0.5933 0.0
C2435 C 0.49027 0.22339 0.60341 0.0
C2436 C 0.48446 0.19653 0.6099 0.0
C2437 C 0.49479 0.18611 0.62647 0.0
C2438 C 0.4895 0.16065 0.63239 0.0
C2439 C 0.47367 0.14554 0.62199 0.0
C2440 C 0.46309 0.15589 0.60566 0.0
C2441 C 0.46838 0.18133 0.59964 0.0
H2442 H 0.46957 0.12583 0.62661 0.0
H2443 H 0.52398 0.37655 0.58234 0.0
H2444 H 0.46154 0.14048 0.88919 0.0
H2445 H 0.48495 0.17898 0.89637 0.0
H2446 H 0.42539 0.22863 0.88587 0.0
H2447 H 0.40228 0.19013 0.87755 0.0
H2448 H 0.45807 0.24322 0.86464 0.0
H2449 H 0.45481 0.22432 0.93098 0.0
H2450 H 0.4571 0.19761 0.96028 0.0
H2451 H 0.52958 0.18294 0.94981 0.0
H2452 H 0.52768 0.20925 0.92029 0.0
H2453 H 0.52424 0.35804 0.88209 0.0
H2454 H 0.49772 0.32255 0.89064 0.0
H2455 H 0.55023 0.26572 0.87589 0.0
H2456 H 0.57688 0.30118 0.86682 0.0
H2457 H 0.51952 0.25813 0.91323 0.0
H2458 H 0.51895 0.27085 0.84397 0.0
H2459 H 0.5151 0.29622 0.81414 0.0
H2460 H 0.44743 0.32272 0.83159 0.0
H2461 H 0.45107 0.29784 0.86171 0.0
C2462 C 0.45328 0.15956 0.88891 0.0
C2463 C 0.43026 0.16245 0.8825 0.0
C2464 C 0.46665 0.1816 0.8932 0.0
C2465 C 0.45697 0.20679 0.89167 0.0
C2466 C 0.43329 0.20942 0.887 0.0
C2467 C 0.4201 0.18745 0.88224 0.0
C2468 C 0.47232 0.23013 0.89157 0.0
C2469 C 0.47104 0.24675 0.87561 0.0
C2470 C 0.48977 0.23445 0.90553 0.0
C2471 C 0.49105 0.21865 0.92333 0.0
C2472 C 0.47121 0.21525 0.93484 0.0
C2473 C 0.47244 0.2002 0.9515 0.0
C2474 C 0.49346 0.18855 0.95688 0.0
C2475 C 0.51331 0.19198 0.94562 0.0
C2476 C 0.51217 0.20699 0.92894 0.0
C2477 C 0.53033 0.33802 0.88093 0.0
C2478 C 0.55258 0.33233 0.87364 0.0
C2479 C 0.51517 0.31783 0.88587 0.0
C2480 C 0.52215 0.2917 0.88391 0.0
C2481 C 0.54472 0.28588 0.87759 0.0
C2482 C 0.55979 0.30609 0.87228 0.0
C2483 C 0.50499 0.27061 0.8864 0.0
C2484 C 0.50609 0.25459 0.90265 0.0
C2485 C 0.48715 0.26685 0.87285 0.0
C2486 C 0.48543 0.28281 0.85519 0.0
C2487 C 0.50343 0.28245 0.8416 0.0
C2488 C 0.50124 0.29663 0.8246 0.0
C2489 C 0.48102 0.31102 0.82097 0.0
C2490 C 0.46307 0.31153 0.83442 0.0
C2491 C 0.4652 0.29743 0.85146 0.0
H2492 H 0.4792 0.32166 0.80768 0.0
H2493 H 0.49438 0.17691 0.96979 0.0
H2494 H 0.89828 0.69731 0.90289 0.0
H2495 H 0.91942 0.73172 0.92008 0.0
H2496 H 0.98333 0.68811 0.91327 0.0
H2497 H 0.96213 0.65318 0.89749 0.0
H2498 H 0.98767 0.71585 0.94324 0.0
H2499 H 0.96094 0.73346 0.87804 0.0
H2500 H 0.93069 0.73889 0.85329 0.0
H2501 H 0.89872 0.79997 0.8863 0.0
H2502 H 0.92867 0.79465 0.91135 0.0
H2503 H 0.06853 0.79374 0.89313 0.0
H2504 H 0.04188 0.7634 0.90892 0.0
H2505 H 0.00352 0.82846 0.93237 0.0
H2506 H 0.03016 0.85896 0.91694 0.0
H2507 H 0.97976 0.79728 0.90512 0.0
H2508 H 0.02101 0.78681 0.96317 0.0
H2509 H 0.05517 0.77963 0.98384 0.0
H2510 H 0.06491 0.70321 0.95954 0.0
H2511 H 0.03103 0.71004 0.9385 0.0
C2512 C 0.91673 0.69487 0.90558 0.0
C2513 C 0.9287 0.67293 0.89856 0.0
C2514 C 0.92878 0.71447 0.91539 0.0
C2515 C 0.9531 0.71291 0.91744 0.0
C2516 C 0.96461 0.6899 0.91186 0.0
C2517 C 0.95248 0.66998 0.90266 0.0
C2518 C 0.96723 0.73634 0.92214 0.0
C2519 C 0.98588 0.73377 0.93504 0.0
C2520 C 0.96463 0.75999 0.91175 0.0
C2521 C 0.9468 0.76343 0.89664 0.0
C2522 C 0.94739 0.74797 0.88003 0.0
C2523 C 0.93031 0.75102 0.86597 0.0
C2524 C 0.91274 0.7697 0.86826 0.0
C2525 C 0.91229 0.78545 0.88458 0.0
C2526 C 0.9293 0.78243 0.89872 0.0
C2527 C 0.05493 0.80161 0.90218 0.0
C2528 C 0.05113 0.82874 0.90338 0.0
C2529 C 0.03984 0.78424 0.91135 0.0
C2530 C 0.02074 0.79378 0.92173 0.0
C2531 C 0.01825 0.82079 0.92448 0.0
C2532 C 0.03346 0.83816 0.91552 0.0
C2533 C 0.00088 0.77618 0.92538 0.0
C2534 C 0.98108 0.77988 0.91399 0.0
C2535 C 0.00303 0.75329 0.93656 0.0
C2536 C 0.02345 0.74899 0.9492 0.0
C2537 C 0.03051 0.76853 0.96212 0.0
C2538 C 0.04983 0.76451 0.97393 0.0
C2539 C 0.0622 0.74098 0.973 0.0
C2540 C 0.05528 0.72141 0.96027 0.0
C2541 C 0.03599 0.72533 0.94842 0.0
H2542 H 0.07715 0.73791 0.98215 0.0
H2543 H 0.89952 0.77201 0.85736 0.0
loop_
_geom_bond_atom_site_label_1
_geom_bond_atom_site_label_2
_geom_bond_distance
_geom_bond_site_symmetry_2
_ccdc_geom_bond_type
Co0 O3 1.970 . S
Co0 N17 1.989 . S
Co0 O25 1.967 . S
Co0 O32 1.920 . S
Co1 O4 1.966 . S
Co1 N10 2.022 . S
Co1 N18 1.993 . S
Co1 O26 1.941 . S
C2 O3 1.258 . S
C2 O4 1.263 . S
O3 Co0 1.970 . S
O3 C2 1.258 . S
O4 Co1 1.966 . S
O4 C2 1.263 . S
C5 O6 1.235 . S
C5 O32 1.289 . S
O6 C5 1.235 . S
C7 C9 1.400 . S
C7 N10 1.351 . S
C7 C12 1.501 . S
C8 C9 1.387 . S
C8 N11 1.341 . S
C9 C7 1.400 . S
C9 C8 1.387 . S
N10 Co1 2.022 . S
N10 C7 1.351 . S
N10 N11 1.365 . S
N11 C8 1.341 . S
N11 N10 1.365 . S
N11 H31 0.862 . S
C12 C7 1.501 . S
C12 H13 0.961 . S
C12 H14 0.961 . S
C12 H15 0.960 . S
H13 C12 0.961 . S
H14 C12 0.961 . S
H15 C12 0.960 . S
C16 N17 1.342 . S
C16 C20 1.401 . S
C16 C21 1.499 . S
N17 Co0 1.989 . S
N17 C16 1.342 . S
N17 N18 1.388 . S
N18 Co1 1.993 . S
N18 N17 1.388 . S
N18 C19 1.346 . S
C19 N18 1.346 . S
C19 C20 1.396 . S
C19 C29 1.510 . S
C20 C16 1.401 . S
C20 C19 1.396 . S
C21 C16 1.499 . S
C21 H22 0.959 . S
C21 H23 0.960 . S
C21 H24 0.961 . S
H22 C21 0.959 . S
H23 C21 0.960 . S
H24 C21 0.961 . S
O25 Co0 1.967 . S
O25 C33 1.258 . S
O26 Co1 1.941 . S
O26 C33 1.266 . S
H27 C29 0.959 . S
H28 C29 0.961 . S
C29 C19 1.510 . S
C29 H27 0.959 . S
C29 H28 0.961 . S
C29 H30 0.960 . S
H30 C29 0.960 . S
H31 N11 0.862 . S
O32 Co0 1.920 . S
O32 C5 1.289 . S
C33 O25 1.258 . S
C33 O26 1.266 . S
Co34 O37 1.970 . S
Co34 N51 1.989 . S
Co34 O59 1.967 . S
Co34 O66 1.920 . S
Co35 O38 1.966 . S
Co35 N44 2.022 . S
Co35 N52 1.993 . S
Co35 O60 1.941 . S
C36 O37 1.258 . S
C36 O38 1.263 . S
O37 Co34 1.970 . S
O37 C36 1.258 . S
O38 Co35 1.966 . S
O38 C36 1.263 . S
C39 O40 1.235 . S
C39 O66 1.289 . S
O40 C39 1.235 . S
C41 C43 1.400 . S
C41 N44 1.351 . S
C41 C46 1.501 . S
C42 C43 1.387 . S
C42 N45 1.341 . S
C43 C41 1.400 . S
C43 C42 1.387 . S
N44 Co35 2.022 . S
N44 C41 1.351 . S
N44 N45 1.365 . S
N45 C42 1.341 . S
N45 N44 1.365 . S
N45 H65 0.862 . S
C46 C41 1.501 . S
C46 H47 0.961 . S
C46 H48 0.961 . S
C46 H49 0.960 . S
H47 C46 0.961 . S
H48 C46 0.961 . S
H49 C46 0.960 . S
C50 N51 1.342 . S
C50 C54 1.401 . S
C50 C55 1.499 . S
N51 Co34 1.989 . S
N51 C50 1.342 . S
N51 N52 1.388 . S
N52 Co35 1.993 . S
N52 N51 1.388 . S
N52 C53 1.346 . S
C53 N52 1.346 . S
C53 C54 1.396 . S
C53 C63 1.510 . S
C54 C50 1.401 . S
C54 C53 1.396 . S
C55 C50 1.499 . S
C55 H56 0.959 . S
C55 H57 0.960 . S
C55 H58 0.961 . S
H56 C55 0.959 . S
H57 C55 0.960 . S
H58 C55 0.961 . S
O59 Co34 1.967 . S
O59 C67 1.258 . S
O60 Co35 1.941 . S
O60 C67 1.266 . S
H61 C63 0.959 . S
H62 C63 0.961 . S
C63 C53 1.510 . S
C63 H61 0.959 . S
C63 H62 0.961 . S
C63 H64 0.960 . S
H64 C63 0.960 . S
H65 N45 0.862 . S
O66 Co34 1.920 . S
O66 C39 1.289 . S
C67 O59 1.258 . S
C67 O60 1.266 . S
Co68 O71 1.970 . S
Co68 N85 1.989 . S
Co68 O93 1.967 . S
Co68 O100 1.920 . S
Co69 O72 1.966 . S
Co69 N78 2.022 . S
Co69 N86 1.993 . S
Co69 O94 1.941 . S
C70 O71 1.258 . S
C70 O72 1.263 . S
O71 Co68 1.970 . S
O71 C70 1.258 . S
O72 Co69 1.966 . S
O72 C70 1.263 . S
C73 O74 1.235 . S
C73 O100 1.289 . S
O74 C73 1.235 . S
C75 C77 1.400 . S
C75 N78 1.351 . S
C75 C80 1.501 . S
C76 C77 1.387 . S
C76 N79 1.341 . S
C77 C75 1.400 . S
C77 C76 1.387 . S
N78 Co69 2.022 . S
N78 C75 1.351 . S
N78 N79 1.365 . S
N79 C76 1.341 . S
N79 N78 1.365 . S
N79 H99 0.862 . S
C80 C75 1.501 . S
C80 H81 0.961 . S
C80 H82 0.961 . S
C80 H83 0.960 . S
H81 C80 0.961 . S
H82 C80 0.961 . S
H83 C80 0.960 . S
C84 N85 1.342 . S
C84 C88 1.401 . S
C84 C89 1.499 . S
N85 Co68 1.989 . S
N85 C84 1.342 . S
N85 N86 1.388 . S
N86 Co69 1.993 . S
N86 N85 1.388 . S
N86 C87 1.346 . S
C87 N86 1.346 . S
C87 C88 1.396 . S
C87 C97 1.510 . S
C88 C84 1.401 . S
C88 C87 1.396 . S
C89 C84 1.499 . S
C89 H90 0.959 . S
C89 H91 0.960 . S
C89 H92 0.961 . S
H90 C89 0.959 . S
H91 C89 0.960 . S
H92 C89 0.961 . S
O93 Co68 1.967 . S
O93 C101 1.258 . S
O94 Co69 1.941 . S
O94 C101 1.266 . S
H95 C97 0.959 . S
H96 C97 0.961 . S
C97 C87 1.510 . S
C97 H95 0.959 . S
C97 H96 0.961 . S
C97 H98 0.960 . S
H98 C97 0.960 . S
H99 N79 0.862 . S
O100 Co68 1.920 . S
O100 C73 1.289 . S
C101 O93 1.258 . S
C101 O94 1.266 . S
Co102 O105 1.970 . S
Co102 N119 1.989 . S
Co102 O127 1.967 . S
Co102 O134 1.920 . S
Co103 O106 1.966 . S
Co103 N112 2.022 . S
Co103 N120 1.993 . S
Co103 O128 1.941 . S
C104 O105 1.258 . S
C104 O106 1.263 . S
O105 Co102 1.970 . S
O105 C104 1.258 . S
O106 Co103 1.966 . S
O106 C104 1.263 . S
C107 O108 1.235 . S
C107 O134 1.289 . S
O108 C107 1.235 . S
C109 C111 1.400 . S
C109 N112 1.351 . S
C109 C114 1.501 . S
C110 C111 1.387 . S
C110 N113 1.341 . S
C111 C109 1.400 . S
C111 C110 1.387 . S
N112 Co103 2.022 . S
N112 C109 1.351 . S
N112 N113 1.365 . S
N113 C110 1.341 . S
N113 N112 1.365 . S
N113 H133 0.862 . S
C114 C109 1.501 . S
C114 H115 0.961 . S
C114 H116 0.961 . S
C114 H117 0.960 . S
H115 C114 0.961 . S
H116 C114 0.961 . S
H117 C114 0.960 . S
C118 N119 1.342 . S
C118 C122 1.401 . S
C118 C123 1.499 . S
N119 Co102 1.989 . S
N119 C118 1.342 . S
N119 N120 1.388 . S
N120 Co103 1.993 . S
N120 N119 1.388 . S
N120 C121 1.346 . S
C121 N120 1.346 . S
C121 C122 1.396 . S
C121 C131 1.510 . S
C122 C118 1.401 . S
C122 C121 1.396 . S
C123 C118 1.499 . S
C123 H124 0.959 . S
C123 H125 0.960 . S
C123 H126 0.961 . S
H124 C123 0.959 . S
H125 C123 0.960 . S
H126 C123 0.961 . S
O127 Co102 1.967 . S
O127 C135 1.258 . S
O128 Co103 1.941 . S
O128 C135 1.266 . S
H129 C131 0.959 . S
H130 C131 0.961 . S
C131 C121 1.510 . S
C131 H129 0.959 . S
C131 H130 0.961 . S
C131 H132 0.960 . S
H132 C131 0.960 . S
H133 N113 0.862 . S
O134 Co102 1.920 . S
O134 C107 1.289 . S
C135 O127 1.258 . S
C135 O128 1.266 . S
Co136 O139 1.970 . S
Co136 N153 1.989 . S
Co136 O161 1.967 . S
Co136 O168 1.920 . S
Co137 O140 1.966 . S
Co137 N146 2.022 . S
Co137 N154 1.993 . S
Co137 O162 1.941 . S
C138 O139 1.258 . S
C138 O140 1.263 . S
O139 Co136 1.970 . S
O139 C138 1.258 . S
O140 Co137 1.966 . S
O140 C138 1.263 . S
C141 O142 1.235 . S
C141 O168 1.289 . S
O142 C141 1.235 . S
C143 C145 1.400 . S
C143 N146 1.351 . S
C143 C148 1.501 . S
C144 C145 1.387 . S
C144 N147 1.341 . S
C145 C143 1.400 . S
C145 C144 1.387 . S
N146 Co137 2.022 . S
N146 C143 1.351 . S
N146 N147 1.365 . S
N147 C144 1.341 . S
N147 N146 1.365 . S
N147 H167 0.862 . S
C148 C143 1.501 . S
C148 H149 0.961 . S
C148 H150 0.961 . S
C148 H151 0.960 . S
H149 C148 0.961 . S
H150 C148 0.961 . S
H151 C148 0.960 . S
C152 N153 1.342 . S
C152 C156 1.401 . S
C152 C157 1.499 . S
N153 Co136 1.989 . S
N153 C152 1.342 . S
N153 N154 1.388 . S
N154 Co137 1.993 . S
N154 N153 1.388 . S
N154 C155 1.346 . S
C155 N154 1.346 . S
C155 C156 1.396 . S
C155 C165 1.510 . S
C156 C152 1.401 . S
C156 C155 1.396 . S
C157 C152 1.499 . S
C157 H158 0.959 . S
C157 H159 0.960 . S
C157 H160 0.961 . S
H158 C157 0.959 . S
H159 C157 0.960 . S
H160 C157 0.961 . S
O161 Co136 1.967 . S
O161 C169 1.258 . S
O162 Co137 1.941 . S
O162 C169 1.266 . S
H163 C165 0.959 . S
H164 C165 0.961 . S
C165 C155 1.510 . S
C165 H163 0.959 . S
C165 H164 0.961 . S
C165 H166 0.960 . S
H166 C165 0.960 . S
H167 N147 0.862 . S
O168 Co136 1.920 . S
O168 C141 1.289 . S
C169 O161 1.258 . S
C169 O162 1.266 . S
Co170 O173 1.970 . S
Co170 N187 1.989 . S
Co170 O195 1.967 . S
Co170 O202 1.920 . S
Co171 O174 1.966 . S
Co171 N180 2.022 . S
Co171 N188 1.993 . S
Co171 O196 1.941 . S
C172 O173 1.258 . S
C172 O174 1.263 . S
O173 Co170 1.970 . S
O173 C172 1.258 . S
O174 Co171 1.966 . S
O174 C172 1.263 . S
C175 O176 1.235 . S
C175 O202 1.289 . S
O176 C175 1.235 . S
C177 C179 1.400 . S
C177 N180 1.351 . S
C177 C182 1.501 . S
C178 C179 1.387 . S
C178 N181 1.341 . S
C179 C177 1.400 . S
C179 C178 1.387 . S
N180 Co171 2.022 . S
N180 C177 1.351 . S
N180 N181 1.365 . S
N181 C178 1.341 . S
N181 N180 1.365 . S
N181 H201 0.862 . S
C182 C177 1.501 . S
C182 H183 0.961 . S
C182 H184 0.961 . S
C182 H185 0.960 . S
H183 C182 0.961 . S
H184 C182 0.961 . S
H185 C182 0.960 . S
C186 N187 1.342 . S
C186 C190 1.401 . S
C186 C191 1.499 . S
N187 Co170 1.989 . S
N187 C186 1.342 . S
N187 N188 1.388 . S
N188 Co171 1.993 . S
N188 N187 1.388 . S
N188 C189 1.346 . S
C189 N188 1.346 . S
C189 C190 1.396 . S
C189 C199 1.510 . S
C190 C186 1.401 . S
C190 C189 1.396 . S
C191 C186 1.499 . S
C191 H192 0.959 . S
C191 H193 0.960 . S
C191 H194 0.961 . S
H192 C191 0.959 . S
H193 C191 0.960 . S
H194 C191 0.961 . S
O195 Co170 1.967 . S
O195 C203 1.258 . S
O196 Co171 1.941 . S
O196 C203 1.266 . S
H197 C199 0.959 . S
H198 C199 0.961 . S
C199 C189 1.510 . S
C199 H197 0.959 . S
C199 H198 0.961 . S
C199 H200 0.960 . S
H200 C199 0.960 . S
H201 N181 0.862 . S
O202 Co170 1.920 . S
O202 C175 1.289 . S
C203 O195 1.258 . S
C203 O196 1.266 . S
Co204 O207 1.970 . S
Co204 N221 1.989 . S
Co204 O229 1.967 . S
Co204 O236 1.920 . S
Co205 O208 1.966 . S
Co205 N214 2.022 . S
Co205 N222 1.993 . S
Co205 O230 1.941 . S
C206 O207 1.258 . S
C206 O208 1.263 . S
O207 Co204 1.970 . S
O207 C206 1.258 . S
O208 Co205 1.966 . S
O208 C206 1.263 . S
C209 O210 1.235 . S
C209 O236 1.289 . S
O210 C209 1.235 . S
C211 C213 1.400 . S
C211 N214 1.351 . S
C211 C216 1.501 . S
C212 C213 1.387 . S
C212 N215 1.341 . S
C213 C211 1.400 . S
C213 C212 1.387 . S
N214 Co205 2.022 . S
N214 C211 1.351 . S
N214 N215 1.365 . S
N215 C212 1.341 . S
N215 N214 1.365 . S
N215 H235 0.862 . S
C216 C211 1.501 . S
C216 H217 0.961 . S
C216 H218 0.961 . S
C216 H219 0.960 . S
H217 C216 0.961 . S
H218 C216 0.961 . S
H219 C216 0.960 . S
C220 N221 1.342 . S
C220 C224 1.401 . S
C220 C225 1.499 . S
N221 Co204 1.989 . S
N221 C220 1.342 . S
N221 N222 1.388 . S
N222 Co205 1.993 . S
N222 N221 1.388 . S
N222 C223 1.346 . S
C223 N222 1.346 . S
C223 C224 1.396 . S
C223 C233 1.510 . S
C224 C220 1.401 . S
C224 C223 1.396 . S
C225 C220 1.499 . S
C225 H226 0.959 . S
C225 H227 0.960 . S
C225 H228 0.961 . S
H226 C225 0.959 . S
H227 C225 0.960 . S
H228 C225 0.961 . S
O229 Co204 1.967 . S
O229 C237 1.258 . S
O230 Co205 1.941 . S
O230 C237 1.266 . S
H231 C233 0.959 . S
H232 C233 0.961 . S
C233 C223 1.510 . S
C233 H231 0.959 . S
C233 H232 0.961 . S
C233 H234 0.960 . S
H234 C233 0.960 . S
H235 N215 0.862 . S
O236 Co204 1.920 . S
O236 C209 1.289 . S
C237 O229 1.258 . S
C237 O230 1.266 . S
Co238 O241 1.970 . S
Co238 N255 1.989 . S
Co238 O263 1.967 . S
Co238 O270 1.920 . S
Co239 O242 1.966 . S
Co239 N248 2.022 . S
Co239 N256 1.993 . S
Co239 O264 1.941 . S
C240 O241 1.258 . S
C240 O242 1.263 . S
O241 Co238 1.970 . S
O241 C240 1.258 . S
O242 Co239 1.966 . S
O242 C240 1.263 . S
C243 O244 1.235 . S
C243 O270 1.289 . S
O244 C243 1.235 . S
C245 C247 1.400 . S
C245 N248 1.351 . S
C245 C250 1.501 . S
C246 C247 1.387 . S
C246 N249 1.341 . S
C247 C245 1.400 . S
C247 C246 1.387 . S
N248 Co239 2.022 . S
N248 C245 1.351 . S
N248 N249 1.365 . S
N249 C246 1.341 . S
N249 N248 1.365 . S
N249 H269 0.862 . S
C250 C245 1.501 . S
C250 H251 0.961 . S
C250 H252 0.961 . S
C250 H253 0.960 . S
H251 C250 0.961 . S
H252 C250 0.961 . S
H253 C250 0.960 . S
C254 N255 1.342 . S
C254 C258 1.401 . S
C254 C259 1.499 . S
N255 Co238 1.989 . S
N255 C254 1.342 . S
N255 N256 1.388 . S
N256 Co239 1.993 . S
N256 N255 1.388 . S
N256 C257 1.346 . S
C257 N256 1.346 . S
C257 C258 1.396 . S
C257 C267 1.510 . S
C258 C254 1.401 . S
C258 C257 1.396 . S
C259 C254 1.499 . S
C259 H260 0.959 . S
C259 H261 0.960 . S
C259 H262 0.961 . S
H260 C259 0.959 . S
H261 C259 0.960 . S
H262 C259 0.961 . S
O263 Co238 1.967 . S
O263 C271 1.258 . S
O264 Co239 1.941 . S
O264 C271 1.266 . S
H265 C267 0.959 . S
H266 C267 0.961 . S
C267 C257 1.510 . S
C267 H265 0.959 . S
C267 H266 0.961 . S
C267 H268 0.960 . S
H268 C267 0.960 . S
H269 N249 0.862 . S
O270 Co238 1.920 . S
O270 C243 1.289 . S
C271 O263 1.258 . S
C271 O264 1.266 . S
Co272 O275 1.970 . S
Co272 N289 1.989 . S
Co272 O297 1.967 . S
Co272 O304 1.920 . S
Co273 O276 1.966 . S
Co273 N282 2.022 . S
Co273 N290 1.993 . S
Co273 O298 1.941 . S
C274 O275 1.258 . S
C274 O276 1.263 . S
O275 Co272 1.970 . S
O275 C274 1.258 . S
O276 Co273 1.966 . S
O276 C274 1.263 . S
C277 O278 1.235 . S
C277 O304 1.289 . S
O278 C277 1.235 . S
C279 C281 1.400 . S
C279 N282 1.351 . S
C279 C284 1.501 . S
C280 C281 1.387 . S
C280 N283 1.341 . S
C281 C279 1.400 . S
C281 C280 1.387 . S
N282 Co273 2.022 . S
N282 C279 1.351 . S
N282 N283 1.365 . S
N283 C280 1.341 . S
N283 N282 1.365 . S
N283 H303 0.862 . S
C284 C279 1.501 . S
C284 H285 0.961 . S
C284 H286 0.961 . S
C284 H287 0.960 . S
H285 C284 0.961 . S
H286 C284 0.961 . S
H287 C284 0.960 . S
C288 N289 1.342 . S
C288 C292 1.401 . S
C288 C293 1.499 . S
N289 Co272 1.989 . S
N289 C288 1.342 . S
N289 N290 1.388 . S
N290 Co273 1.993 . S
N290 N289 1.388 . S
N290 C291 1.346 . S
C291 N290 1.346 . S
C291 C292 1.396 . S
C291 C301 1.510 . S
C292 C288 1.401 . S
C292 C291 1.396 . S
C293 C288 1.499 . S
C293 H294 0.959 . S
C293 H295 0.960 . S
C293 H296 0.961 . S
H294 C293 0.959 . S
H295 C293 0.960 . S
H296 C293 0.961 . S
O297 Co272 1.967 . S
O297 C305 1.258 . S
O298 Co273 1.941 . S
O298 C305 1.266 . S
H299 C301 0.959 . S
H300 C301 0.961 . S
C301 C291 1.510 . S
C301 H299 0.959 . S
C301 H300 0.961 . S
C301 H302 0.960 . S
H302 C301 0.960 . S
H303 N283 0.862 . S
O304 Co272 1.920 . S
O304 C277 1.289 . S
C305 O297 1.258 . S
C305 O298 1.266 . S
Co306 O309 1.970 . S
Co306 N323 1.989 . S
Co306 O331 1.967 . S
Co306 O338 1.920 . S
Co307 O310 1.966 . S
Co307 N316 2.022 . S
Co307 N324 1.993 . S
Co307 O332 1.941 . S
C308 O309 1.258 . S
C308 O310 1.263 . S
O309 Co306 1.970 . S
O309 C308 1.258 . S
O310 Co307 1.966 . S
O310 C308 1.263 . S
C311 O312 1.235 . S
C311 O338 1.289 . S
O312 C311 1.235 . S
C313 C315 1.400 . S
C313 N316 1.351 . S
C313 C318 1.501 . S
C314 C315 1.387 . S
C314 N317 1.341 . S
C315 C313 1.400 . S
C315 C314 1.387 . S
N316 Co307 2.022 . S
N316 C313 1.351 . S
N316 N317 1.365 . S
N317 C314 1.341 . S
N317 N316 1.365 . S
N317 H337 0.862 . S
C318 C313 1.501 . S
C318 H319 0.961 . S
C318 H320 0.961 . S
C318 H321 0.960 . S
H319 C318 0.961 . S
H320 C318 0.961 . S
H321 C318 0.960 . S
C322 N323 1.342 . S
C322 C326 1.401 . S
C322 C327 1.499 . S
N323 Co306 1.989 . S
N323 C322 1.342 . S
N323 N324 1.388 . S
N324 Co307 1.993 . S
N324 N323 1.388 . S
N324 C325 1.346 . S
C325 N324 1.346 . S
C325 C326 1.396 . S
C325 C335 1.510 . S
C326 C322 1.401 . S
C326 C325 1.396 . S
C327 C322 1.499 . S
C327 H328 0.959 . S
C327 H329 0.960 . S
C327 H330 0.961 . S
H328 C327 0.959 . S
H329 C327 0.960 . S
H330 C327 0.961 . S
O331 Co306 1.967 . S
O331 C339 1.258 . S
O332 Co307 1.941 . S
O332 C339 1.266 . S
H333 C335 0.959 . S
H334 C335 0.961 . S
C335 C325 1.510 . S
C335 H333 0.959 . S
C335 H334 0.961 . S
C335 H336 0.960 . S
H336 C335 0.960 . S
H337 N317 0.862 . S
O338 Co306 1.920 . S
O338 C311 1.289 . S
C339 O331 1.258 . S
C339 O332 1.266 . S
Co340 O343 1.970 . S
Co340 N357 1.989 . S
Co340 O365 1.967 . S
Co340 O372 1.920 . S
Co341 O344 1.966 . S
Co341 N350 2.022 . S
Co341 N358 1.993 . S
Co341 O366 1.941 . S
C342 O343 1.258 . S
C342 O344 1.263 . S
O343 Co340 1.970 . S
O343 C342 1.258 . S
O344 Co341 1.966 . S
O344 C342 1.263 . S
C345 O346 1.235 . S
C345 O372 1.289 . S
O346 C345 1.235 . S
C347 C349 1.400 . S
C347 N350 1.351 . S
C347 C352 1.501 . S
C348 C349 1.387 . S
C348 N351 1.341 . S
C349 C347 1.400 . S
C349 C348 1.387 . S
N350 Co341 2.022 . S
N350 C347 1.351 . S
N350 N351 1.365 . S
N351 C348 1.341 . S
N351 N350 1.365 . S
N351 H371 0.862 . S
C352 C347 1.501 . S
C352 H353 0.961 . S
C352 H354 0.961 . S
C352 H355 0.960 . S
H353 C352 0.961 . S
H354 C352 0.961 . S
H355 C352 0.960 . S
C356 N357 1.342 . S
C356 C360 1.401 . S
C356 C361 1.499 . S
N357 Co340 1.989 . S
N357 C356 1.342 . S
N357 N358 1.388 . S
N358 Co341 1.993 . S
N358 N357 1.388 . S
N358 C359 1.346 . S
C359 N358 1.346 . S
C359 C360 1.396 . S
C359 C369 1.510 . S
C360 C356 1.401 . S
C360 C359 1.396 . S
C361 C356 1.499 . S
C361 H362 0.959 . S
C361 H363 0.960 . S
C361 H364 0.961 . S
H362 C361 0.959 . S
H363 C361 0.960 . S
H364 C361 0.961 . S
O365 Co340 1.967 . S
O365 C373 1.258 . S
O366 Co341 1.941 . S
O366 C373 1.266 . S
H367 C369 0.959 . S
H368 C369 0.961 . S
C369 C359 1.510 . S
C369 H367 0.959 . S
C369 H368 0.961 . S
C369 H370 0.960 . S
H370 C369 0.960 . S
H371 N351 0.862 . S
O372 Co340 1.920 . S
O372 C345 1.289 . S
C373 O365 1.258 . S
C373 O366 1.266 . S
Co374 O377 1.970 . S
Co374 N391 1.989 . S
Co374 O399 1.967 . S
Co374 O406 1.920 . S
Co375 O378 1.966 . S
Co375 N384 2.022 . S
Co375 N392 1.993 . S
Co375 O400 1.941 . S
C376 O377 1.258 . S
C376 O378 1.263 . S
O377 Co374 1.970 . S
O377 C376 1.258 . S
O378 Co375 1.966 . S
O378 C376 1.263 . S
C379 O380 1.235 . S
C379 O406 1.289 . S
O380 C379 1.235 . S
C381 C383 1.400 . S
C381 N384 1.351 . S
C381 C386 1.501 . S
C382 C383 1.387 . S
C382 N385 1.341 . S
C383 C381 1.400 . S
C383 C382 1.387 . S
N384 Co375 2.022 . S
N384 C381 1.351 . S
N384 N385 1.365 . S
N385 C382 1.341 . S
N385 N384 1.365 . S
N385 H405 0.862 . S
C386 C381 1.501 . S
C386 H387 0.961 . S
C386 H388 0.961 . S
C386 H389 0.960 . S
H387 C386 0.961 . S
H388 C386 0.961 . S
H389 C386 0.960 . S
C390 N391 1.342 . S
C390 C394 1.401 . S
C390 C395 1.499 . S
N391 Co374 1.989 . S
N391 C390 1.342 . S
N391 N392 1.388 . S
N392 Co375 1.993 . S
N392 N391 1.388 . S
N392 C393 1.346 . S
C393 N392 1.346 . S
C393 C394 1.396 . S
C393 C403 1.510 . S
C394 C390 1.401 . S
C394 C393 1.396 . S
C395 C390 1.499 . S
C395 H396 0.959 . S
C395 H397 0.960 . S
C395 H398 0.961 . S
H396 C395 0.959 . S
H397 C395 0.960 . S
H398 C395 0.961 . S
O399 Co374 1.967 . S
O399 C407 1.258 . S
O400 Co375 1.941 . S
O400 C407 1.266 . S
H401 C403 0.959 . S
H402 C403 0.961 . S
C403 C393 1.510 . S
C403 H401 0.959 . S
C403 H402 0.961 . S
C403 H404 0.960 . S
H404 C403 0.960 . S
H405 N385 0.862 . S
O406 Co374 1.920 . S
O406 C379 1.289 . S
C407 O399 1.258 . S
C407 O400 1.266 . S
Co408 O411 1.970 . S
Co408 N425 1.989 . S
Co408 O433 1.967 . S
Co408 O440 1.920 . S
Co409 O412 1.966 . S
Co409 N418 2.022 . S
Co409 N426 1.993 . S
Co409 O434 1.941 . S
C410 O411 1.258 . S
C410 O412 1.263 . S
O411 Co408 1.970 . S
O411 C410 1.258 . S
O412 Co409 1.966 . S
O412 C410 1.263 . S
C413 O414 1.235 . S
C413 O440 1.289 . S
O414 C413 1.235 . S
C415 C417 1.400 . S
C415 N418 1.351 . S
C415 C420 1.501 . S
C416 C417 1.387 . S
C416 N419 1.341 . S
C417 C415 1.400 . S
C417 C416 1.387 . S
N418 Co409 2.022 . S
N418 C415 1.351 . S
N418 N419 1.365 . S
N419 C416 1.341 . S
N419 N418 1.365 . S
N419 H439 0.862 . S
C420 C415 1.501 . S
C420 H421 0.961 . S
C420 H422 0.961 . S
C420 H423 0.960 . S
H421 C420 0.961 . S
H422 C420 0.961 . S
H423 C420 0.960 . S
C424 N425 1.342 . S
C424 C428 1.401 . S
C424 C429 1.499 . S
N425 Co408 1.989 . S
N425 C424 1.342 . S
N425 N426 1.388 . S
N426 Co409 1.993 . S
N426 N425 1.388 . S
N426 C427 1.346 . S
C427 N426 1.346 . S
C427 C428 1.396 . S
C427 C437 1.510 . S
C428 C424 1.401 . S
C428 C427 1.396 . S
C429 C424 1.499 . S
C429 H430 0.959 . S
C429 H431 0.960 . S
C429 H432 0.961 . S
H430 C429 0.959 . S
H431 C429 0.960 . S
H432 C429 0.961 . S
O433 Co408 1.967 . S
O433 C441 1.258 . S
O434 Co409 1.941 . S
O434 C441 1.266 . S
H435 C437 0.959 . S
H436 C437 0.961 . S
C437 C427 1.510 . S
C437 H435 0.959 . S
C437 H436 0.961 . S
C437 H438 0.960 . S
H438 C437 0.960 . S
H439 N419 0.862 . S
O440 Co408 1.920 . S
O440 C413 1.289 . S
C441 O433 1.258 . S
C441 O434 1.266 . S
Co442 O445 1.970 . S
Co442 N459 1.989 . S
Co442 O467 1.967 . S
Co442 O474 1.920 . S
Co443 O446 1.966 . S
Co443 N452 2.022 . S
Co443 N460 1.993 . S
Co443 O468 1.941 . S
C444 O445 1.258 . S
C444 O446 1.263 . S
O445 Co442 1.970 . S
O445 C444 1.258 . S
O446 Co443 1.966 . S
O446 C444 1.263 . S
C447 O448 1.235 . S
C447 O474 1.289 . S
O448 C447 1.235 . S
C449 C451 1.400 . S
C449 N452 1.351 . S
C449 C454 1.501 . S
C450 C451 1.387 . S
C450 N453 1.341 . S
C451 C449 1.400 . S
C451 C450 1.387 . S
N452 Co443 2.022 . S
N452 C449 1.351 . S
N452 N453 1.365 . S
N453 C450 1.341 . S
N453 N452 1.365 . S
N453 H473 0.862 . S
C454 C449 1.501 . S
C454 H455 0.961 . S
C454 H456 0.961 . S
C454 H457 0.960 . S
H455 C454 0.961 . S
H456 C454 0.961 . S
H457 C454 0.960 . S
C458 N459 1.342 . S
C458 C462 1.401 . S
C458 C463 1.499 . S
N459 Co442 1.989 . S
N459 C458 1.342 . S
N459 N460 1.388 . S
N460 Co443 1.993 . S
N460 N459 1.388 . S
N460 C461 1.346 . S
C461 N460 1.346 . S
C461 C462 1.396 . S
C461 C471 1.510 . S
C462 C458 1.401 . S
C462 C461 1.396 . S
C463 C458 1.499 . S
C463 H464 0.959 . S
C463 H465 0.960 . S
C463 H466 0.961 . S
H464 C463 0.959 . S
H465 C463 0.960 . S
H466 C463 0.961 . S
O467 Co442 1.967 . S
O467 C475 1.258 . S
O468 Co443 1.941 . S
O468 C475 1.266 . S
H469 C471 0.959 . S
H470 C471 0.961 . S
C471 C461 1.510 . S
C471 H469 0.959 . S
C471 H470 0.961 . S
C471 H472 0.960 . S
H472 C471 0.960 . S
H473 N453 0.862 . S
O474 Co442 1.920 . S
O474 C447 1.289 . S
C475 O467 1.258 . S
C475 O468 1.266 . S
Co476 O479 1.970 . S
Co476 N493 1.989 . S
Co476 O501 1.967 . S
Co476 O508 1.920 . S
Co477 O480 1.966 . S
Co477 N486 2.022 . S
Co477 N494 1.993 . S
Co477 O502 1.941 . S
C478 O479 1.258 . S
C478 O480 1.263 . S
O479 Co476 1.970 . S
O479 C478 1.258 . S
O480 Co477 1.966 . S
O480 C478 1.263 . S
C481 O482 1.235 . S
C481 O508 1.289 . S
O482 C481 1.235 . S
C483 C485 1.400 . S
C483 N486 1.351 . S
C483 C488 1.501 . S
C484 C485 1.387 . S
C484 N487 1.341 . S
C485 C483 1.400 . S
C485 C484 1.387 . S
N486 Co477 2.022 . S
N486 C483 1.351 . S
N486 N487 1.365 . S
N487 C484 1.341 . S
N487 N486 1.365 . S
N487 H507 0.862 . S
C488 C483 1.501 . S
C488 H489 0.961 . S
C488 H490 0.961 . S
C488 H491 0.960 . S
H489 C488 0.961 . S
H490 C488 0.961 . S
H491 C488 0.960 . S
C492 N493 1.342 . S
C492 C496 1.401 . S
C492 C497 1.499 . S
N493 Co476 1.989 . S
N493 C492 1.342 . S
N493 N494 1.388 . S
N494 Co477 1.993 . S
N494 N493 1.388 . S
N494 C495 1.346 . S
C495 N494 1.346 . S
C495 C496 1.396 . S
C495 C505 1.510 . S
C496 C492 1.401 . S
C496 C495 1.396 . S
C497 C492 1.499 . S
C497 H498 0.959 . S
C497 H499 0.960 . S
C497 H500 0.961 . S
H498 C497 0.959 . S
H499 C497 0.960 . S
H500 C497 0.961 . S
O501 Co476 1.967 . S
O501 C509 1.258 . S
O502 Co477 1.941 . S
O502 C509 1.266 . S
H503 C505 0.959 . S
H504 C505 0.961 . S
C505 C495 1.510 . S
C505 H503 0.959 . S
C505 H504 0.961 . S
C505 H506 0.960 . S
H506 C505 0.960 . S
H507 N487 0.862 . S
O508 Co476 1.920 . S
O508 C481 1.289 . S
C509 O501 1.258 . S
C509 O502 1.266 . S
Co510 O513 1.970 . S
Co510 N527 1.989 . S
Co510 O535 1.967 . S
Co510 O542 1.920 . S
Co511 O514 1.966 . S
Co511 N520 2.022 . S
Co511 N528 1.993 . S
Co511 O536 1.941 . S
C512 O513 1.258 . S
C512 O514 1.263 . S
O513 Co510 1.970 . S
O513 C512 1.258 . S
O514 Co511 1.966 . S
O514 C512 1.263 . S
C515 O516 1.235 . S
C515 O542 1.289 . S
O516 C515 1.235 . S
C517 C519 1.400 . S
C517 N520 1.351 . S
C517 C522 1.501 . S
C518 C519 1.387 . S
C518 N521 1.341 . S
C519 C517 1.400 . S
C519 C518 1.387 . S
N520 Co511 2.022 . S
N520 C517 1.351 . S
N520 N521 1.365 . S
N521 C518 1.341 . S
N521 N520 1.365 . S
N521 H541 0.862 . S
C522 C517 1.501 . S
C522 H523 0.961 . S
C522 H524 0.961 . S
C522 H525 0.960 . S
H523 C522 0.961 . S
H524 C522 0.961 . S
H525 C522 0.960 . S
C526 N527 1.342 . S
C526 C530 1.401 . S
C526 C531 1.499 . S
N527 Co510 1.989 . S
N527 C526 1.342 . S
N527 N528 1.388 . S
N528 Co511 1.993 . S
N528 N527 1.388 . S
N528 C529 1.346 . S
C529 N528 1.346 . S
C529 C530 1.396 . S
C529 C539 1.510 . S
C530 C526 1.401 . S
C530 C529 1.396 . S
C531 C526 1.499 . S
C531 H532 0.959 . S
C531 H533 0.960 . S
C531 H534 0.961 . S
H532 C531 0.959 . S
H533 C531 0.960 . S
H534 C531 0.961 . S
O535 Co510 1.967 . S
O535 C543 1.258 . S
O536 Co511 1.941 . S
O536 C543 1.266 . S
H537 C539 0.959 . S
H538 C539 0.961 . S
C539 C529 1.510 . S
C539 H537 0.959 . S
C539 H538 0.961 . S
C539 H540 0.960 . S
H540 C539 0.960 . S
H541 N521 0.862 . S
O542 Co510 1.920 . S
O542 C515 1.289 . S
C543 O535 1.258 . S
C543 O536 1.266 . S
H544 C562 0.951 . S
H545 C564 0.951 . S
H546 C566 0.950 . S
H547 C567 0.950 . S
H548 C569 0.950 . S
H549 C572 0.932 1_655 S
H550 C573 0.950 1_655 S
H551 C575 0.950 . S
H552 C576 0.950 . S
H553 C577 0.951 . S
H554 C579 0.951 . S
H555 C581 0.950 . S
H556 C582 0.950 . S
H557 C584 0.950 . S
H558 C587 0.932 1_455 S
H559 C588 0.950 1_455 S
H560 C590 0.950 . S
H561 C591 0.950 . S
C562 H544 0.951 . S
C562 C563 1.366 . S
C562 C564 1.388 . S
C563 C562 1.366 . S
C563 C567 1.385 . S
C564 H545 0.951 . S
C564 C562 1.388 . S
C564 C565 1.366 . S
C565 C564 1.366 . S
C565 C566 1.414 . S
C565 C568 1.499 . S
C566 H546 0.950 . S
C566 C565 1.414 . S
C566 C567 1.374 . S
C567 H547 0.950 . S
C567 C563 1.385 . S
C567 C566 1.374 . S
C568 C565 1.499 . S
C568 C569 1.373 . S
C568 C570 1.389 1_655 S
C569 H548 0.950 . S
C569 C568 1.373 . S
C569 C585 1.377 . S
C570 C568 1.389 1_455 S
C570 C571 1.524 . S
C570 C584 1.377 . S
C571 C570 1.524 . S
C571 C572 1.409 . S
C571 C576 1.363 . S
C572 H549 0.932 1_455 S
C572 C571 1.409 . S
C572 C573 1.339 . S
C573 H550 0.950 1_455 S
C573 C572 1.339 . S
C573 C574 1.287 . S
C574 C573 1.287 . S
C574 C575 1.524 . S
C574 H593 0.913 . S
C575 H551 0.950 . S
C575 C574 1.524 . S
C575 C576 1.415 . S
C576 H552 0.950 . S
C576 C571 1.363 . S
C576 C575 1.415 . S
C577 H553 0.951 . S
C577 C578 1.366 . S
C577 C579 1.388 . S
C578 C577 1.366 . S
C578 C582 1.385 . S
C579 H554 0.951 . S
C579 C577 1.388 . S
C579 C580 1.366 . S
C580 C579 1.366 . S
C580 C581 1.414 . S
C580 C583 1.499 . S
C581 H555 0.950 . S
C581 C580 1.414 . S
C581 C582 1.374 . S
C582 H556 0.950 . S
C582 C578 1.385 . S
C582 C581 1.374 . S
C583 C580 1.499 . S
C583 C584 1.373 . S
C583 C585 1.389 1_455 S
C584 H557 0.950 . S
C584 C570 1.377 . S
C584 C583 1.373 . S
C585 C569 1.377 . S
C585 C583 1.389 1_655 S
C585 C586 1.524 . S
C586 C585 1.524 . S
C586 C587 1.409 . S
C586 C591 1.363 . S
C587 H558 0.932 1_655 S
C587 C586 1.409 . S
C587 C588 1.339 . S
C588 H559 0.950 1_655 S
C588 C587 1.339 . S
C588 C589 1.287 . S
C589 C588 1.287 . S
C589 C590 1.524 . S
C589 H592 0.999 . S
C590 H560 0.950 . S
C590 C589 1.524 . S
C590 C591 1.415 . S
C591 H561 0.950 . S
C591 C586 1.363 . S
C591 C590 1.415 . S
H592 C589 0.999 . S
H593 C574 0.913 . S
H594 C612 0.951 . S
H595 C614 0.951 . S
H596 C616 0.950 . S
H597 C617 0.950 . S
H598 C619 0.950 . S
H599 C622 0.950 . S
H600 C623 0.950 . S
H601 C625 0.950 . S
H602 C626 0.950 . S
H603 C627 0.951 . S
H604 C629 0.951 . S
H605 C631 0.950 . S
H606 C632 0.950 . S
H607 C634 0.950 . S
H608 C637 0.950 . S
H609 C638 0.950 . S
H610 C640 0.950 . S
H611 C641 0.950 . S
C612 H594 0.951 . S
C612 C613 1.366 . S
C612 C614 1.388 . S
C613 C612 1.366 . S
C613 C617 1.385 . S
C614 H595 0.951 . S
C614 C612 1.388 . S
C614 C615 1.366 . S
C615 C614 1.366 . S
C615 C616 1.414 . S
C615 C618 1.499 . S
C616 H596 0.950 . S
C616 C615 1.414 . S
C616 C617 1.374 . S
C617 H597 0.950 . S
C617 C613 1.385 . S
C617 C616 1.374 . S
C618 C615 1.499 . S
C618 C619 1.373 . S
C618 C620 1.389 . S
C619 H598 0.950 . S
C619 C618 1.373 . S
C619 C635 1.377 . S
C620 C618 1.389 . S
C620 C621 1.524 . S
C620 C634 1.377 . S
C621 C620 1.524 . S
C621 C622 1.397 . S
C621 C626 1.363 . S
C622 H599 0.950 . S
C622 C621 1.397 . S
C622 C623 1.334 . S
C623 H600 0.950 . S
C623 C622 1.334 . S
C623 C624 1.287 . S
C624 C623 1.287 . S
C624 C625 1.524 . S
C624 H643 0.913 . S
C625 H601 0.950 . S
C625 C624 1.524 . S
C625 C626 1.415 . S
C626 H602 0.950 . S
C626 C621 1.363 . S
C626 C625 1.415 . S
C627 H603 0.951 . S
C627 C628 1.366 . S
C627 C629 1.388 . S
C628 C627 1.366 . S
C628 C632 1.385 . S
C629 H604 0.951 . S
C629 C627 1.388 . S
C629 C630 1.366 . S
C630 C629 1.366 . S
C630 C631 1.414 . S
C630 C633 1.499 . S
C631 H605 0.950 . S
C631 C630 1.414 . S
C631 C632 1.374 . S
C632 H606 0.950 . S
C632 C628 1.385 . S
C632 C631 1.374 . S
C633 C630 1.499 . S
C633 C634 1.373 . S
C633 C635 1.389 . S
C634 H607 0.950 . S
C634 C620 1.377 . S
C634 C633 1.373 . S
C635 C619 1.377 . S
C635 C633 1.389 . S
C635 C636 1.524 . S
C636 C635 1.524 . S
C636 C637 1.397 . S
C636 C641 1.363 . S
C637 H608 0.950 . S
C637 C636 1.397 . S
C637 C638 1.334 . S
C638 H609 0.950 . S
C638 C637 1.334 . S
C638 C639 1.287 . S
C639 C638 1.287 . S
C639 C640 1.524 . S
C639 H642 0.999 . S
C640 H610 0.950 . S
C640 C639 1.524 . S
C640 C641 1.415 . S
C641 H611 0.950 . S
C641 C636 1.363 . S
C641 C640 1.415 . S
H642 C639 0.999 . S
H643 C624 0.913 . S
H644 C662 0.951 . S
H645 C664 0.951 . S
H646 C666 0.950 . S
H647 C667 0.950 . S
H648 C669 0.950 . S
H649 C672 0.950 . S
H650 C673 0.950 . S
H651 C675 0.950 . S
H652 C676 0.950 1_455 S
H653 C677 0.951 . S
H654 C679 0.951 . S
H655 C681 0.950 . S
H656 C682 0.950 . S
H657 C684 0.950 . S
H658 C687 0.950 . S
H659 C688 0.950 . S
H660 C690 0.987 . S
H661 C691 0.950 1_655 S
C662 H644 0.951 . S
C662 C663 1.366 . S
C662 C664 1.388 . S
C663 C662 1.366 . S
C663 C667 1.385 . S
C664 H645 0.951 . S
C664 C662 1.388 . S
C664 C665 1.366 . S
C665 C664 1.366 . S
C665 C666 1.414 . S
C665 C668 1.499 . S
C666 H646 0.950 . S
C666 C665 1.414 . S
C666 C667 1.374 . S
C667 H647 0.950 . S
C667 C663 1.385 . S
C667 C666 1.374 . S
C668 C665 1.499 . S
C668 C669 1.373 . S
C668 C670 1.389 . S
C669 H648 0.950 . S
C669 C668 1.373 . S
C669 C685 1.377 1_655 S
C670 C668 1.389 . S
C670 C671 1.524 . S
C670 C684 1.377 1_655 S
C671 C670 1.524 . S
C671 C672 1.397 . S
C671 C676 1.363 . S
C672 H649 0.950 . S
C672 C671 1.397 . S
C672 C673 1.334 . S
C673 H650 0.950 . S
C673 C672 1.334 . S
C673 C674 1.287 . S
C674 C673 1.287 . S
C674 C675 1.524 . S
C674 H693 0.913 . S
C675 H651 0.950 . S
C675 C674 1.524 . S
C675 C676 1.415 . S
C676 H652 0.950 1_655 S
C676 C671 1.363 . S
C676 C675 1.415 . S
C677 H653 0.951 . S
C677 C678 1.366 . S
C677 C679 1.388 . S
C678 C677 1.366 . S
C678 C682 1.385 . S
C679 H654 0.951 . S
C679 C677 1.388 . S
C679 C680 1.366 . S
C680 C679 1.366 . S
C680 C681 1.414 . S
C680 C683 1.499 . S
C681 H655 0.950 . S
C681 C680 1.414 . S
C681 C682 1.374 . S
C682 H656 0.950 . S
C682 C678 1.385 . S
C682 C681 1.374 . S
C683 C680 1.499 . S
C683 C684 1.373 . S
C683 C685 1.389 . S
C684 H657 0.950 . S
C684 C670 1.377 1_455 S
C684 C683 1.373 . S
C685 C669 1.377 1_455 S
C685 C683 1.389 . S
C685 C686 1.524 . S
C686 C685 1.524 . S
C686 C687 1.397 . S
C686 C691 1.363 . S
C687 H658 0.950 . S
C687 C686 1.397 . S
C687 C688 1.334 . S
C688 H659 0.950 . S
C688 C687 1.334 . S
C688 C689 1.287 . S
C689 C688 1.287 . S
C689 C690 1.520 1_565 S
C689 H692 0.999 1_565 S
C690 H660 0.987 . S
C690 C689 1.520 1_545 S
C690 C691 1.378 1_545 S
C691 H661 0.950 1_455 S
C691 C686 1.363 . S
C691 C690 1.378 1_565 S
H692 C689 0.999 1_545 S
H693 C674 0.913 . S
H694 C712 0.951 . S
H695 C714 0.951 . S
H696 C716 0.950 . S
H697 C717 0.950 . S
H698 C719 0.950 . S
H699 C722 0.950 . S
H700 C723 0.950 . S
H701 C725 0.950 . S
H702 C726 0.950 . S
H703 C727 0.951 . S
H704 C729 0.951 . S
H705 C731 0.950 . S
H706 C732 0.950 . S
H707 C734 0.950 . S
H708 C737 0.950 . S
H709 C738 0.950 . S
H710 C740 0.950 . S
H711 C741 0.950 . S
C712 H694 0.951 . S
C712 C713 1.366 . S
C712 C714 1.388 . S
C713 C712 1.366 . S
C713 C717 1.385 . S
C714 H695 0.951 . S
C714 C712 1.388 . S
C714 C715 1.366 . S
C715 C714 1.366 . S
C715 C716 1.414 . S
C715 C718 1.499 . S
C716 H696 0.950 . S
C716 C715 1.414 . S
C716 C717 1.374 . S
C717 H697 0.950 . S
C717 C713 1.385 . S
C717 C716 1.374 . S
C718 C715 1.499 . S
C718 C719 1.373 . S
C718 C720 1.389 . S
C719 H698 0.950 . S
C719 C718 1.373 . S
C719 C735 1.377 . S
C720 C718 1.389 . S
C720 C721 1.524 . S
C720 C734 1.377 . S
C721 C720 1.524 . S
C721 C722 1.397 . S
C721 C726 1.363 . S
C722 H699 0.950 . S
C722 C721 1.397 . S
C722 C723 1.334 . S
C723 H700 0.950 . S
C723 C722 1.334 . S
C723 C724 1.287 . S
C724 C723 1.287 . S
C724 C725 1.524 . S
C724 H743 0.913 . S
C725 H701 0.950 . S
C725 C724 1.524 . S
C725 C726 1.415 . S
C726 H702 0.950 . S
C726 C721 1.363 . S
C726 C725 1.415 . S
C727 H703 0.951 . S
C727 C728 1.366 . S
C727 C729 1.388 . S
C728 C727 1.366 . S
C728 C732 1.385 . S
C729 H704 0.951 . S
C729 C727 1.388 . S
C729 C730 1.366 . S
C730 C729 1.366 . S
C730 C731 1.414 . S
C730 C733 1.499 . S
C731 H705 0.950 . S
C731 C730 1.414 . S
C731 C732 1.374 . S
C732 H706 0.950 . S
C732 C728 1.385 . S
C732 C731 1.374 . S
C733 C730 1.499 . S
C733 C734 1.373 . S
C733 C735 1.389 . S
C734 H707 0.950 . S
C734 C720 1.377 . S
C734 C733 1.373 . S
C735 C719 1.377 . S
C735 C733 1.389 . S
C735 C736 1.524 . S
C736 C735 1.524 . S
C736 C737 1.397 . S
C736 C741 1.363 . S
C737 H708 0.950 . S
C737 C736 1.397 . S
C737 C738 1.334 . S
C738 H709 0.950 . S
C738 C737 1.334 . S
C738 C739 1.287 . S
C739 C738 1.287 . S
C739 C740 1.524 . S
C739 H742 0.999 . S
C740 H710 0.950 . S
C740 C739 1.524 . S
C740 C741 1.415 . S
C741 H711 0.950 . S
C741 C736 1.363 . S
C741 C740 1.415 . S
H742 C739 0.999 . S
H743 C724 0.913 . S
H744 C762 0.951 . S
H745 C764 0.951 . S
H746 C766 0.950 . S
H747 C767 0.950 . S
H748 C769 0.950 . S
H749 C772 0.950 . S
H750 C773 0.950 . S
H751 C775 0.950 . S
H752 C776 0.950 . S
H753 C777 0.951 . S
H754 C779 0.951 . S
H755 C781 0.950 . S
H756 C782 0.950 . S
H757 C784 0.950 . S
H758 C787 0.950 . S
H759 C788 0.950 . S
H760 C790 0.950 . S
H761 C791 0.950 . S
C762 H744 0.951 . S
C762 C763 1.366 . S
C762 C764 1.388 . S
C763 C762 1.366 . S
C763 C767 1.385 . S
C764 H745 0.951 . S
C764 C762 1.388 . S
C764 C765 1.366 . S
C765 C764 1.366 . S
C765 C766 1.414 . S
C765 C768 1.499 . S
C766 H746 0.950 . S
C766 C765 1.414 . S
C766 C767 1.374 . S
C767 H747 0.950 . S
C767 C763 1.385 . S
C767 C766 1.374 . S
C768 C765 1.499 . S
C768 C769 1.373 . S
C768 C770 1.389 . S
C769 H748 0.950 . S
C769 C768 1.373 . S
C769 C785 1.377 . S
C770 C768 1.389 . S
C770 C771 1.524 . S
C770 C784 1.377 . S
C771 C770 1.524 . S
C771 C772 1.397 . S
C771 C776 1.363 . S
C772 H749 0.950 . S
C772 C771 1.397 . S
C772 C773 1.334 . S
C773 H750 0.950 . S
C773 C772 1.334 . S
C773 C774 1.287 . S
C774 C773 1.287 . S
C774 C775 1.524 . S
C774 H793 0.913 . S
C775 H751 0.950 . S
C775 C774 1.524 . S
C775 C776 1.415 . S
C776 H752 0.950 . S
C776 C771 1.363 . S
C776 C775 1.415 . S
C777 H753 0.951 . S
C777 C778 1.366 . S
C777 C779 1.388 . S
C778 C777 1.366 . S
C778 C782 1.385 . S
C779 H754 0.951 . S
C779 C777 1.388 . S
C779 C780 1.366 . S
C780 C779 1.366 . S
C780 C781 1.414 . S
C780 C783 1.499 . S
C781 H755 0.950 . S
C781 C780 1.414 . S
C781 C782 1.374 . S
C782 H756 0.950 . S
C782 C778 1.385 . S
C782 C781 1.374 . S
C783 C780 1.499 . S
C783 C784 1.373 . S
C783 C785 1.389 . S
C784 H757 0.950 . S
C784 C770 1.377 . S
C784 C783 1.373 . S
C785 C769 1.377 . S
C785 C783 1.389 . S
C785 C786 1.524 . S
C786 C785 1.524 . S
C786 C787 1.397 . S
C786 C791 1.363 . S
C787 H758 0.950 . S
C787 C786 1.397 . S
C787 C788 1.334 . S
C788 H759 0.950 . S
C788 C787 1.334 . S
C788 C789 1.287 . S
C789 C788 1.287 . S
C789 C790 1.524 . S
C789 H792 0.999 . S
C790 H760 0.950 . S
C790 C789 1.524 . S
C790 C791 1.415 . S
C791 H761 0.950 . S
C791 C786 1.363 . S
C791 C790 1.415 . S
H792 C789 0.999 . S
H793 C774 0.913 . S
H794 C812 0.951 . S
H795 C814 0.951 . S
H796 C816 0.950 . S
H797 C817 0.950 . S
H798 C819 0.950 . S
H799 C822 0.950 . S
H800 C823 0.950 . S
H801 C825 0.945 1_655 S
H802 C826 0.950 . S
H803 C827 0.951 . S
H804 C829 0.951 . S
H805 C831 0.950 . S
H806 C832 0.950 . S
H807 C834 0.950 . S
H808 C837 0.950 . S
H809 C838 0.950 . S
H810 C840 0.945 1_455 S
H811 C841 0.950 . S
C812 H794 0.951 . S
C812 C813 1.366 . S
C812 C814 1.388 . S
C813 C812 1.366 . S
C813 C817 1.385 . S
C814 H795 0.951 . S
C814 C812 1.388 . S
C814 C815 1.366 . S
C815 C814 1.366 . S
C815 C816 1.414 . S
C815 C818 1.499 . S
C816 H796 0.950 . S
C816 C815 1.414 . S
C816 C817 1.374 . S
C817 H797 0.950 . S
C817 C813 1.385 . S
C817 C816 1.374 . S
C818 C815 1.499 . S
C818 C819 1.373 . S
C818 C820 1.396 . S
C819 H798 0.950 . S
C819 C818 1.373 . S
C819 C835 1.370 1_655 S
C820 C818 1.396 . S
C820 C821 1.523 1_655 S
C820 C834 1.370 1_655 S
C821 C820 1.523 1_455 S
C821 C822 1.397 . S
C821 C826 1.363 1_455 S
C822 H799 0.950 . S
C822 C821 1.397 . S
C822 C823 1.334 . S
C823 H800 0.950 . S
C823 C822 1.334 . S
C823 C824 1.287 . S
C824 C823 1.287 . S
C824 C825 1.532 . S
C824 H843 0.913 . S
C825 H801 0.945 1_455 S
C825 C824 1.532 . S
C825 C826 1.412 1_455 S
C826 H802 0.950 . S
C826 C821 1.363 1_655 S
C826 C825 1.412 1_655 S
C827 H803 0.951 . S
C827 C828 1.366 . S
C827 C829 1.388 . S
C828 C827 1.366 . S
C828 C832 1.385 . S
C829 H804 0.951 . S
C829 C827 1.388 . S
C829 C830 1.366 . S
C830 C829 1.366 . S
C830 C831 1.414 . S
C830 C833 1.499 . S
C831 H805 0.950 . S
C831 C830 1.414 . S
C831 C832 1.374 . S
C832 H806 0.950 . S
C832 C828 1.385 . S
C832 C831 1.374 . S
C833 C830 1.499 . S
C833 C834 1.373 . S
C833 C835 1.396 . S
C834 H807 0.950 . S
C834 C820 1.370 1_455 S
C834 C833 1.373 . S
C835 C819 1.370 1_455 S
C835 C833 1.396 . S
C835 C836 1.523 1_455 S
C836 C835 1.523 1_655 S
C836 C837 1.397 . S
C836 C841 1.363 1_655 S
C837 H808 0.950 . S
C837 C836 1.397 . S
C837 C838 1.334 . S
C838 H809 0.950 . S
C838 C837 1.334 . S
C838 C839 1.287 . S
C839 C838 1.287 . S
C839 C840 1.532 . S
C839 H842 0.999 . S
C840 H810 0.945 1_655 S
C840 C839 1.532 . S
C840 C841 1.412 1_655 S
C841 H811 0.950 . S
C841 C836 1.363 1_455 S
C841 C840 1.412 1_455 S
H842 C839 0.999 . S
H843 C824 0.913 . S
H844 C862 0.951 . S
H845 C864 0.951 . S
H846 C866 0.950 . S
H847 C867 0.950 . S
H848 C869 0.950 . S
H849 C872 0.950 . S
H850 C873 0.950 . S
H851 C875 0.950 . S
H852 C876 0.950 . S
H853 C877 0.951 . S
H854 C879 0.951 . S
H855 C881 0.950 . S
H856 C882 0.950 . S
H857 C884 0.950 . S
H858 C887 0.950 . S
H859 C888 0.950 . S
H860 C890 0.950 . S
H861 C891 0.950 . S
C862 H844 0.951 . S
C862 C863 1.366 . S
C862 C864 1.388 . S
C863 C862 1.366 . S
C863 C867 1.385 . S
C864 H845 0.951 . S
C864 C862 1.388 . S
C864 C865 1.366 . S
C865 C864 1.366 . S
C865 C866 1.414 . S
C865 C868 1.499 . S
C866 H846 0.950 . S
C866 C865 1.414 . S
C866 C867 1.374 . S
C867 H847 0.950 . S
C867 C863 1.385 . S
C867 C866 1.374 . S
C868 C865 1.499 . S
C868 C869 1.373 . S
C868 C870 1.389 . S
C869 H848 0.950 . S
C869 C868 1.373 . S
C869 C885 1.377 . S
C870 C868 1.389 . S
C870 C871 1.524 . S
C870 C884 1.377 . S
C871 C870 1.524 . S
C871 C872 1.397 . S
C871 C876 1.363 . S
C872 H849 0.950 . S
C872 C871 1.397 . S
C872 C873 1.334 . S
C873 H850 0.950 . S
C873 C872 1.334 . S
C873 C874 1.287 . S
C874 C873 1.287 . S
C874 C875 1.524 . S
C874 H893 0.913 . S
C875 H851 0.950 . S
C875 C874 1.524 . S
C875 C876 1.415 . S
C876 H852 0.950 . S
C876 C871 1.363 . S
C876 C875 1.415 . S
C877 H853 0.951 . S
C877 C878 1.366 . S
C877 C879 1.388 . S
C878 C877 1.366 . S
C878 C882 1.385 . S
C879 H854 0.951 . S
C879 C877 1.388 . S
C879 C880 1.366 . S
C880 C879 1.366 . S
C880 C881 1.414 . S
C880 C883 1.499 . S
C881 H855 0.950 . S
C881 C880 1.414 . S
C881 C882 1.374 . S
C882 H856 0.950 . S
C882 C878 1.385 . S
C882 C881 1.374 . S
C883 C880 1.499 . S
C883 C884 1.373 . S
C883 C885 1.389 . S
C884 H857 0.950 . S
C884 C870 1.377 . S
C884 C883 1.373 . S
C885 C869 1.377 . S
C885 C883 1.389 . S
C885 C886 1.524 . S
C886 C885 1.524 . S
C886 C887 1.397 . S
C886 C891 1.363 . S
C887 H858 0.950 . S
C887 C886 1.397 . S
C887 C888 1.334 . S
C888 H859 0.950 . S
C888 C887 1.334 . S
C888 C889 1.287 . S
C889 C888 1.287 . S
C889 C890 1.524 . S
C889 H892 0.999 . S
C890 H860 0.950 . S
C890 C889 1.524 . S
C890 C891 1.415 . S
C891 H861 0.950 . S
C891 C886 1.363 . S
C891 C890 1.415 . S
H892 C889 0.999 . S
H893 C874 0.913 . S
H894 C912 0.951 . S
H895 C914 0.951 . S
H896 C916 0.950 . S
H897 C917 0.950 . S
H898 C919 0.950 . S
H899 C922 0.950 . S
H900 C923 0.950 . S
H901 C925 0.950 . S
H902 C926 0.950 . S
H903 C927 0.951 . S
H904 C929 0.951 . S
H905 C931 0.950 . S
H906 C932 0.950 . S
H907 C934 0.950 . S
H908 C937 0.950 . S
H909 C938 0.950 . S
H910 C940 0.950 . S
H911 C941 0.950 . S
C912 H894 0.951 . S
C912 C913 1.366 . S
C912 C914 1.388 . S
C913 C912 1.366 . S
C913 C917 1.385 . S
C914 H895 0.951 . S
C914 C912 1.388 . S
C914 C915 1.366 . S
C915 C914 1.366 . S
C915 C916 1.414 . S
C915 C918 1.499 . S
C916 H896 0.950 . S
C916 C915 1.414 . S
C916 C917 1.374 . S
C917 H897 0.950 . S
C917 C913 1.385 . S
C917 C916 1.374 . S
C918 C915 1.499 . S
C918 C919 1.373 1_655 S
C918 C920 1.389 . S
C919 H898 0.950 . S
C919 C918 1.373 1_455 S
C919 C935 1.377 . S
C920 C918 1.389 . S
C920 C921 1.524 . S
C920 C934 1.377 . S
C921 C920 1.524 . S
C921 C922 1.397 . S
C921 C926 1.363 . S
C922 H899 0.950 . S
C922 C921 1.397 . S
C922 C923 1.334 . S
C923 H900 0.950 . S
C923 C922 1.334 . S
C923 C924 1.287 . S
C924 C923 1.287 . S
C924 C925 1.524 . S
C924 H943 0.913 . S
C925 H901 0.950 . S
C925 C924 1.524 . S
C925 C926 1.415 . S
C926 H902 0.950 . S
C926 C921 1.363 . S
C926 C925 1.415 . S
C927 H903 0.951 . S
C927 C928 1.366 . S
C927 C929 1.388 . S
C928 C927 1.366 . S
C928 C932 1.385 . S
C929 H904 0.951 . S
C929 C927 1.388 . S
C929 C930 1.366 . S
C930 C929 1.366 . S
C930 C931 1.414 . S
C930 C933 1.499 . S
C931 H905 0.950 . S
C931 C930 1.414 . S
C931 C932 1.374 . S
C932 H906 0.950 . S
C932 C928 1.385 . S
C932 C931 1.374 . S
C933 C930 1.499 . S
C933 C934 1.373 1_455 S
C933 C935 1.389 . S
C934 H907 0.950 . S
C934 C920 1.377 . S
C934 C933 1.373 1_655 S
C935 C919 1.377 . S
C935 C933 1.389 . S
C935 C936 1.524 . S
C936 C935 1.524 . S
C936 C937 1.397 . S
C936 C941 1.363 . S
C937 H908 0.950 . S
C937 C936 1.397 . S
C937 C938 1.334 . S
C938 H909 0.950 . S
C938 C937 1.334 . S
C938 C939 1.287 . S
C939 C938 1.287 . S
C939 C940 1.524 . S
C939 H942 0.999 . S
C940 H910 0.950 . S
C940 C939 1.524 . S
C940 C941 1.415 . S
C941 H911 0.950 . S
C941 C936 1.363 . S
C941 C940 1.415 . S
H942 C939 0.999 . S
H943 C924 0.913 . S
H944 C962 0.951 . S
H945 C964 0.951 . S
H946 C966 0.950 . S
H947 C967 0.950 . S
H948 C969 0.950 . S
H949 C972 0.950 . S
H950 C973 0.950 . S
H951 C975 0.950 . S
H952 C976 0.950 . S
H953 C977 0.951 . S
H954 C979 0.951 . S
H955 C981 0.950 . S
H956 C982 0.950 . S
H957 C984 0.950 . S
H958 C987 0.950 . S
H959 C988 0.950 . S
H960 C990 0.950 . S
H961 C991 0.950 . S
C962 H944 0.951 . S
C962 C963 1.366 . S
C962 C964 1.388 . S
C963 C962 1.366 . S
C963 C967 1.385 . S
C964 H945 0.951 . S
C964 C962 1.388 . S
C964 C965 1.366 . S
C965 C964 1.366 . S
C965 C966 1.414 . S
C965 C968 1.499 . S
C966 H946 0.950 . S
C966 C965 1.414 . S
C966 C967 1.374 . S
C967 H947 0.950 . S
C967 C963 1.385 . S
C967 C966 1.374 . S
C968 C965 1.499 . S
C968 C969 1.373 . S
C968 C970 1.389 . S
C969 H948 0.950 . S
C969 C968 1.373 . S
C969 C985 1.377 . S
C970 C968 1.389 . S
C970 C971 1.524 . S
C970 C984 1.377 . S
C971 C970 1.524 . S
C971 C972 1.397 . S
C971 C976 1.363 . S
C972 H949 0.950 . S
C972 C971 1.397 . S
C972 C973 1.334 . S
C973 H950 0.950 . S
C973 C972 1.334 . S
C973 C974 1.287 . S
C974 C973 1.287 . S
C974 C975 1.524 . S
C974 H993 0.913 . S
C975 H951 0.950 . S
C975 C974 1.524 . S
C975 C976 1.415 . S
C976 H952 0.950 . S
C976 C971 1.363 . S
C976 C975 1.415 . S
C977 H953 0.951 . S
C977 C978 1.366 . S
C977 C979 1.388 . S
C978 C977 1.366 . S
C978 C982 1.385 . S
C979 H954 0.951 . S
C979 C977 1.388 . S
C979 C980 1.366 . S
C980 C979 1.366 . S
C980 C981 1.414 . S
C980 C983 1.499 . S
C981 H955 0.950 . S
C981 C980 1.414 . S
C981 C982 1.374 . S
C982 H956 0.950 . S
C982 C978 1.385 . S
C982 C981 1.374 . S
C983 C980 1.499 . S
C983 C984 1.373 . S
C983 C985 1.389 . S
C984 H957 0.950 . S
C984 C970 1.377 . S
C984 C983 1.373 . S
C985 C969 1.377 . S
C985 C983 1.389 . S
C985 C986 1.524 . S
C986 C985 1.524 . S
C986 C987 1.397 . S
C986 C991 1.363 . S
C987 H958 0.950 . S
C987 C986 1.397 . S
C987 C988 1.334 . S
C988 H959 0.950 . S
C988 C987 1.334 . S
C988 C989 1.287 . S
C989 C988 1.287 . S
C989 C990 1.524 . S
C989 H992 0.999 . S
C990 H960 0.950 . S
C990 C989 1.524 . S
C990 C991 1.415 . S
C991 H961 0.950 . S
C991 C986 1.363 . S
C991 C990 1.415 . S
H992 C989 0.999 . S
H993 C974 0.913 . S
H994 C1012 0.951 . S
H995 C1014 0.951 . S
H996 C1016 0.950 . S
H997 C1017 0.950 . S
H998 C1019 0.950 . S
H999 C1022 0.950 . S
H1000 C1023 0.950 . S
H1001 C1025 0.950 . S
H1002 C1026 0.950 . S
H1003 C1027 0.951 . S
H1004 C1029 0.951 . S
H1005 C1031 0.950 . S
H1006 C1032 0.950 . S
H1007 C1034 0.950 . S
H1008 C1037 0.950 . S
H1009 C1038 0.950 . S
H1010 C1040 0.950 . S
H1011 C1041 0.950 . S
C1012 H994 0.951 . S
C1012 C1013 1.366 . S
C1012 C1014 1.388 . S
C1013 C1012 1.366 . S
C1013 C1017 1.385 . S
C1014 H995 0.951 . S
C1014 C1012 1.388 . S
C1014 C1015 1.366 . S
C1015 C1014 1.366 . S
C1015 C1016 1.414 . S
C1015 C1018 1.499 . S
C1016 H996 0.950 . S
C1016 C1015 1.414 . S
C1016 C1017 1.374 . S
C1017 H997 0.950 . S
C1017 C1013 1.385 . S
C1017 C1016 1.374 . S
C1018 C1015 1.499 . S
C1018 C1019 1.373 . S
C1018 C1020 1.389 . S
C1019 H998 0.950 . S
C1019 C1018 1.373 . S
C1019 C1035 1.377 . S
C1020 C1018 1.389 . S
C1020 C1021 1.524 . S
C1020 C1034 1.377 . S
C1021 C1020 1.524 . S
C1021 C1022 1.397 . S
C1021 C1026 1.363 . S
C1022 H999 0.950 . S
C1022 C1021 1.397 . S
C1022 C1023 1.334 . S
C1023 H1000 0.950 . S
C1023 C1022 1.334 . S
C1023 C1024 1.287 . S
C1024 C1023 1.287 . S
C1024 C1025 1.524 . S
C1024 H1043 0.913 . S
C1025 H1001 0.950 . S
C1025 C1024 1.524 . S
C1025 C1026 1.415 . S
C1026 H1002 0.950 . S
C1026 C1021 1.363 . S
C1026 C1025 1.415 . S
C1027 H1003 0.951 . S
C1027 C1028 1.366 . S
C1027 C1029 1.388 . S
C1028 C1027 1.366 . S
C1028 C1032 1.385 . S
C1029 H1004 0.951 . S
C1029 C1027 1.388 . S
C1029 C1030 1.366 . S
C1030 C1029 1.366 . S
C1030 C1031 1.414 . S
C1030 C1033 1.499 . S
C1031 H1005 0.950 . S
C1031 C1030 1.414 . S
C1031 C1032 1.374 . S
C1032 H1006 0.950 . S
C1032 C1028 1.385 . S
C1032 C1031 1.374 . S
C1033 C1030 1.499 . S
C1033 C1034 1.373 . S
C1033 C1035 1.389 . S
C1034 H1007 0.950 . S
C1034 C1020 1.377 . S
C1034 C1033 1.373 . S
C1035 C1019 1.377 . S
C1035 C1033 1.389 . S
C1035 C1036 1.524 . S
C1036 C1035 1.524 . S
C1036 C1037 1.397 . S
C1036 C1041 1.363 . S
C1037 H1008 0.950 . S
C1037 C1036 1.397 . S
C1037 C1038 1.334 . S
C1038 H1009 0.950 . S
C1038 C1037 1.334 . S
C1038 C1039 1.287 . S
C1039 C1038 1.287 . S
C1039 C1040 1.524 . S
C1039 H1042 0.999 . S
C1040 H1010 0.950 . S
C1040 C1039 1.524 . S
C1040 C1041 1.415 . S
C1041 H1011 0.950 . S
C1041 C1036 1.363 . S
C1041 C1040 1.415 . S
H1042 C1039 0.999 . S
H1043 C1024 0.913 . S
H1044 C1062 0.951 . S
H1045 C1064 0.951 . S
H1046 C1066 0.950 . S
H1047 C1067 0.950 . S
H1048 C1069 0.950 . S
H1049 C1072 0.950 . S
H1050 C1073 0.950 . S
H1051 C1075 0.950 . S
H1052 C1076 0.950 . S
H1053 C1077 0.951 . S
H1054 C1079 0.951 . S
H1055 C1081 0.950 . S
H1056 C1082 0.950 . S
H1057 C1084 0.950 . S
H1058 C1087 0.950 . S
H1059 C1088 0.950 . S
H1060 C1090 0.950 . S
H1061 C1091 0.950 . S
C1062 H1044 0.951 . S
C1062 C1063 1.366 . S
C1062 C1064 1.388 . S
C1063 C1062 1.366 . S
C1063 C1067 1.385 . S
C1064 H1045 0.951 . S
C1064 C1062 1.388 . S
C1064 C1065 1.366 . S
C1065 C1064 1.366 . S
C1065 C1066 1.414 . S
C1065 C1068 1.499 . S
C1066 H1046 0.950 . S
C1066 C1065 1.414 . S
C1066 C1067 1.374 . S
C1067 H1047 0.950 . S
C1067 C1063 1.385 . S
C1067 C1066 1.374 . S
C1068 C1065 1.499 . S
C1068 C1069 1.373 . S
C1068 C1070 1.389 . S
C1069 H1048 0.950 . S
C1069 C1068 1.373 . S
C1069 C1085 1.377 . S
C1070 C1068 1.389 . S
C1070 C1071 1.524 . S
C1070 C1084 1.377 . S
C1071 C1070 1.524 . S
C1071 C1072 1.397 . S
C1071 C1076 1.363 . S
C1072 H1049 0.950 . S
C1072 C1071 1.397 . S
C1072 C1073 1.334 . S
C1073 H1050 0.950 . S
C1073 C1072 1.334 . S
C1073 C1074 1.287 . S
C1074 C1073 1.287 . S
C1074 C1075 1.524 . S
C1074 H1093 0.913 . S
C1075 H1051 0.950 . S
C1075 C1074 1.524 . S
C1075 C1076 1.415 . S
C1076 H1052 0.950 . S
C1076 C1071 1.363 . S
C1076 C1075 1.415 . S
C1077 H1053 0.951 . S
C1077 C1078 1.366 . S
C1077 C1079 1.388 . S
C1078 C1077 1.366 . S
C1078 C1082 1.385 . S
C1079 H1054 0.951 . S
C1079 C1077 1.388 . S
C1079 C1080 1.366 . S
C1080 C1079 1.366 . S
C1080 C1081 1.414 . S
C1080 C1083 1.499 . S
C1081 H1055 0.950 . S
C1081 C1080 1.414 . S
C1081 C1082 1.374 . S
C1082 H1056 0.950 . S
C1082 C1078 1.385 . S
C1082 C1081 1.374 . S
C1083 C1080 1.499 . S
C1083 C1084 1.373 . S
C1083 C1085 1.389 . S
C1084 H1057 0.950 . S
C1084 C1070 1.377 . S
C1084 C1083 1.373 . S
C1085 C1069 1.377 . S
C1085 C1083 1.389 . S
C1085 C1086 1.524 . S
C1086 C1085 1.524 . S
C1086 C1087 1.397 . S
C1086 C1091 1.363 . S
C1087 H1058 0.950 . S
C1087 C1086 1.397 . S
C1087 C1088 1.334 . S
C1088 H1059 0.950 . S
C1088 C1087 1.334 . S
C1088 C1089 1.287 . S
C1089 C1088 1.287 . S
C1089 C1090 1.524 . S
C1089 H1092 0.999 . S
C1090 H1060 0.950 . S
C1090 C1089 1.524 . S
C1090 C1091 1.415 . S
C1091 H1061 0.950 . S
C1091 C1086 1.363 . S
C1091 C1090 1.415 . S
H1092 C1089 0.999 . S
H1093 C1074 0.913 . S
H1094 C1112 0.951 . S
H1095 C1114 0.951 . S
H1096 C1116 0.950 . S
H1097 C1117 0.950 . S
H1098 C1119 0.950 . S
H1099 C1122 0.950 . S
H1100 C1123 0.950 . S
H1101 C1125 0.950 . S
H1102 C1126 0.950 . S
H1103 C1127 0.951 . S
H1104 C1129 0.951 . S
H1105 C1131 0.950 . S
H1106 C1132 0.950 . S
H1107 C1134 0.950 . S
H1108 C1137 0.950 . S
H1109 C1138 0.950 . S
H1110 C1140 0.950 . S
H1111 C1141 0.950 . S
C1112 H1094 0.951 . S
C1112 C1113 1.366 . S
C1112 C1114 1.388 . S
C1113 C1112 1.366 . S
C1113 C1117 1.385 . S
C1114 H1095 0.951 . S
C1114 C1112 1.388 . S
C1114 C1115 1.366 . S
C1115 C1114 1.366 . S
C1115 C1116 1.414 . S
C1115 C1118 1.499 . S
C1116 H1096 0.950 . S
C1116 C1115 1.414 . S
C1116 C1117 1.374 . S
C1117 H1097 0.950 . S
C1117 C1113 1.385 . S
C1117 C1116 1.374 . S
C1118 C1115 1.499 . S
C1118 C1119 1.373 . S
C1118 C1120 1.389 . S
C1119 H1098 0.950 . S
C1119 C1118 1.373 . S
C1119 C1135 1.377 . S
C1120 C1118 1.389 . S
C1120 C1121 1.524 . S
C1120 C1134 1.377 . S
C1121 C1120 1.524 . S
C1121 C1122 1.397 . S
C1121 C1126 1.363 . S
C1122 H1099 0.950 . S
C1122 C1121 1.397 . S
C1122 C1123 1.334 . S
C1123 H1100 0.950 . S
C1123 C1122 1.334 . S
C1123 C1124 1.287 . S
C1124 C1123 1.287 . S
C1124 C1125 1.524 . S
C1124 H1143 0.913 . S
C1125 H1101 0.950 . S
C1125 C1124 1.524 . S
C1125 C1126 1.415 . S
C1126 H1102 0.950 . S
C1126 C1121 1.363 . S
C1126 C1125 1.415 . S
C1127 H1103 0.951 . S
C1127 C1128 1.366 . S
C1127 C1129 1.388 . S
C1128 C1127 1.366 . S
C1128 C1132 1.385 . S
C1129 H1104 0.951 . S
C1129 C1127 1.388 . S
C1129 C1130 1.366 . S
C1130 C1129 1.366 . S
C1130 C1131 1.414 . S
C1130 C1133 1.499 . S
C1131 H1105 0.950 . S
C1131 C1130 1.414 . S
C1131 C1132 1.374 . S
C1132 H1106 0.950 . S
C1132 C1128 1.385 . S
C1132 C1131 1.374 . S
C1133 C1130 1.499 . S
C1133 C1134 1.373 . S
C1133 C1135 1.389 . S
C1134 H1107 0.950 . S
C1134 C1120 1.377 . S
C1134 C1133 1.373 . S
C1135 C1119 1.377 . S
C1135 C1133 1.389 . S
C1135 C1136 1.524 . S
C1136 C1135 1.524 . S
C1136 C1137 1.397 . S
C1136 C1141 1.363 . S
C1137 H1108 0.950 . S
C1137 C1136 1.397 . S
C1137 C1138 1.334 . S
C1138 H1109 0.950 . S
C1138 C1137 1.334 . S
C1138 C1139 1.287 . S
C1139 C1138 1.287 . S
C1139 C1140 1.524 . S
C1139 H1142 0.999 . S
C1140 H1110 0.950 . S
C1140 C1139 1.524 . S
C1140 C1141 1.415 . S
C1141 H1111 0.950 . S
C1141 C1136 1.363 . S
C1141 C1140 1.415 . S
H1142 C1139 0.999 . S
H1143 C1124 0.913 . S
H1144 C1162 0.951 . S
H1145 C1164 0.951 . S
H1146 C1166 0.950 . S
H1147 C1167 0.950 . S
H1148 C1169 0.950 . S
H1149 C1172 0.950 . S
H1150 C1173 0.950 . S
H1151 C1175 0.950 . S
H1152 C1176 0.950 . S
H1153 C1177 0.951 . S
H1154 C1179 0.951 . S
H1155 C1181 0.950 . S
H1156 C1182 0.950 . S
H1157 C1184 0.950 . S
H1158 C1187 0.950 . S
H1159 C1188 0.950 . S
H1160 C1190 0.950 . S
H1161 C1191 0.950 . S
C1162 H1144 0.951 . S
C1162 C1163 1.366 . S
C1162 C1164 1.388 . S
C1163 C1162 1.366 . S
C1163 C1167 1.385 . S
C1164 H1145 0.951 . S
C1164 C1162 1.388 . S
C1164 C1165 1.366 . S
C1165 C1164 1.366 . S
C1165 C1166 1.414 . S
C1165 C1168 1.499 . S
C1166 H1146 0.950 . S
C1166 C1165 1.414 . S
C1166 C1167 1.374 . S
C1167 H1147 0.950 . S
C1167 C1163 1.385 . S
C1167 C1166 1.374 . S
C1168 C1165 1.499 . S
C1168 C1169 1.373 . S
C1168 C1170 1.389 . S
C1169 H1148 0.950 . S
C1169 C1168 1.373 . S
C1169 C1185 1.377 . S
C1170 C1168 1.389 . S
C1170 C1171 1.524 . S
C1170 C1184 1.377 . S
C1171 C1170 1.524 . S
C1171 C1172 1.397 . S
C1171 C1176 1.363 . S
C1172 H1149 0.950 . S
C1172 C1171 1.397 . S
C1172 C1173 1.334 . S
C1173 H1150 0.950 . S
C1173 C1172 1.334 . S
C1173 C1174 1.287 . S
C1174 C1173 1.287 . S
C1174 C1175 1.524 . S
C1174 H1193 0.913 . S
C1175 H1151 0.950 . S
C1175 C1174 1.524 . S
C1175 C1176 1.415 . S
C1176 H1152 0.950 . S
C1176 C1171 1.363 . S
C1176 C1175 1.415 . S
C1177 H1153 0.951 . S
C1177 C1178 1.366 . S
C1177 C1179 1.388 . S
C1178 C1177 1.366 . S
C1178 C1182 1.385 . S
C1179 H1154 0.951 . S
C1179 C1177 1.388 . S
C1179 C1180 1.366 . S
C1180 C1179 1.366 . S
C1180 C1181 1.414 . S
C1180 C1183 1.499 . S
C1181 H1155 0.950 . S
C1181 C1180 1.414 . S
C1181 C1182 1.374 . S
C1182 H1156 0.950 . S
C1182 C1178 1.385 . S
C1182 C1181 1.374 . S
C1183 C1180 1.499 . S
C1183 C1184 1.373 . S
C1183 C1185 1.389 . S
C1184 H1157 0.950 . S
C1184 C1170 1.377 . S
C1184 C1183 1.373 . S
C1185 C1169 1.377 . S
C1185 C1183 1.389 . S
C1185 C1186 1.524 . S
C1186 C1185 1.524 . S
C1186 C1187 1.397 . S
C1186 C1191 1.363 . S
C1187 H1158 0.950 . S
C1187 C1186 1.397 . S
C1187 C1188 1.334 . S
C1188 H1159 0.950 . S
C1188 C1187 1.334 . S
C1188 C1189 1.287 . S
C1189 C1188 1.287 . S
C1189 C1190 1.524 . S
C1189 H1192 0.999 . S
C1190 H1160 0.950 . S
C1190 C1189 1.524 . S
C1190 C1191 1.415 . S
C1191 H1161 0.950 . S
C1191 C1186 1.363 . S
C1191 C1190 1.415 . S
H1192 C1189 0.999 . S
H1193 C1174 0.913 . S
H1194 C1212 0.951 . S
H1195 C1214 0.951 . S
H1196 C1216 0.950 . S
H1197 C1217 0.950 . S
H1198 C1219 0.950 . S
H1199 C1222 0.950 . S
H1200 C1223 0.950 . S
H1201 C1225 0.950 . S
H1202 C1226 0.950 . S
H1203 C1227 0.951 . S
H1204 C1229 0.951 . S
H1205 C1231 0.950 . S
H1206 C1232 0.950 . S
H1207 C1234 0.950 . S
H1208 C1237 0.950 . S
H1209 C1238 0.950 . S
H1210 C1240 0.950 . S
H1211 C1241 0.950 . S
C1212 H1194 0.951 . S
C1212 C1213 1.366 . S
C1212 C1214 1.388 . S
C1213 C1212 1.366 . S
C1213 C1217 1.385 . S
C1214 H1195 0.951 . S
C1214 C1212 1.388 . S
C1214 C1215 1.366 . S
C1215 C1214 1.366 . S
C1215 C1216 1.414 . S
C1215 C1218 1.499 . S
C1216 H1196 0.950 . S
C1216 C1215 1.414 . S
C1216 C1217 1.374 . S
C1217 H1197 0.950 . S
C1217 C1213 1.385 . S
C1217 C1216 1.374 . S
C1218 C1215 1.499 . S
C1218 C1219 1.373 . S
C1218 C1220 1.389 . S
C1219 H1198 0.950 . S
C1219 C1218 1.373 . S
C1219 C1235 1.377 . S
C1220 C1218 1.389 . S
C1220 C1221 1.524 . S
C1220 C1234 1.377 . S
C1221 C1220 1.524 . S
C1221 C1222 1.397 . S
C1221 C1226 1.363 . S
C1222 H1199 0.950 . S
C1222 C1221 1.397 . S
C1222 C1223 1.334 . S
C1223 H1200 0.950 . S
C1223 C1222 1.334 . S
C1223 C1224 1.287 . S
C1224 C1223 1.287 . S
C1224 C1225 1.524 . S
C1224 H1243 0.913 . S
C1225 H1201 0.950 . S
C1225 C1224 1.524 . S
C1225 C1226 1.415 . S
C1226 H1202 0.950 . S
C1226 C1221 1.363 . S
C1226 C1225 1.415 . S
C1227 H1203 0.951 . S
C1227 C1228 1.366 . S
C1227 C1229 1.388 . S
C1228 C1227 1.366 . S
C1228 C1232 1.385 . S
C1229 H1204 0.951 . S
C1229 C1227 1.388 . S
C1229 C1230 1.366 . S
C1230 C1229 1.366 . S
C1230 C1231 1.414 . S
C1230 C1233 1.499 . S
C1231 H1205 0.950 . S
C1231 C1230 1.414 . S
C1231 C1232 1.374 . S
C1232 H1206 0.950 . S
C1232 C1228 1.385 . S
C1232 C1231 1.374 . S
C1233 C1230 1.499 . S
C1233 C1234 1.373 . S
C1233 C1235 1.389 . S
C1234 H1207 0.950 . S
C1234 C1220 1.377 . S
C1234 C1233 1.373 . S
C1235 C1219 1.377 . S
C1235 C1233 1.389 . S
C1235 C1236 1.524 . S
C1236 C1235 1.524 . S
C1236 C1237 1.397 . S
C1236 C1241 1.363 . S
C1237 H1208 0.950 . S
C1237 C1236 1.397 . S
C1237 C1238 1.334 . S
C1238 H1209 0.950 . S
C1238 C1237 1.334 . S
C1238 C1239 1.287 . S
C1239 C1238 1.287 . S
C1239 C1240 1.524 . S
C1239 H1242 0.999 . S
C1240 H1210 0.950 . S
C1240 C1239 1.524 . S
C1240 C1241 1.415 . S
C1241 H1211 0.950 . S
C1241 C1236 1.363 . S
C1241 C1240 1.415 . S
H1242 C1239 0.999 . S
H1243 C1224 0.913 . S
H1244 C1262 0.951 . S
H1245 C1264 0.951 . S
H1246 C1266 0.950 . S
H1247 C1267 0.950 . S
H1248 C1269 0.950 . S
H1249 C1272 0.950 . S
H1250 C1273 0.950 . S
H1251 C1275 0.950 . S
H1252 C1276 0.950 . S
H1253 C1277 0.951 . S
H1254 C1279 0.951 . S
H1255 C1281 0.950 . S
H1256 C1282 0.950 . S
H1257 C1284 0.950 . S
H1258 C1287 0.950 . S
H1259 C1288 0.950 . S
H1260 C1290 0.950 . S
H1261 C1291 0.950 . S
C1262 H1244 0.951 . S
C1262 C1263 1.366 . S
C1262 C1264 1.388 . S
C1263 C1262 1.366 . S
C1263 C1267 1.385 . S
C1264 H1245 0.951 . S
C1264 C1262 1.388 . S
C1264 C1265 1.366 . S
C1265 C1264 1.366 . S
C1265 C1266 1.414 . S
C1265 C1268 1.499 . S
C1266 H1246 0.950 . S
C1266 C1265 1.414 . S
C1266 C1267 1.374 . S
C1267 H1247 0.950 . S
C1267 C1263 1.385 . S
C1267 C1266 1.374 . S
C1268 C1265 1.499 . S
C1268 C1269 1.373 . S
C1268 C1270 1.389 . S
C1269 H1248 0.950 . S
C1269 C1268 1.373 . S
C1269 C1285 1.377 . S
C1270 C1268 1.389 . S
C1270 C1271 1.524 . S
C1270 C1284 1.377 . S
C1271 C1270 1.524 . S
C1271 C1272 1.397 . S
C1271 C1276 1.363 . S
C1272 H1249 0.950 . S
C1272 C1271 1.397 . S
C1272 C1273 1.334 . S
C1273 H1250 0.950 . S
C1273 C1272 1.334 . S
C1273 C1274 1.287 . S
C1274 C1273 1.287 . S
C1274 C1275 1.524 . S
C1274 H1293 0.913 . S
C1275 H1251 0.950 . S
C1275 C1274 1.524 . S
C1275 C1276 1.415 . S
C1276 H1252 0.950 . S
C1276 C1271 1.363 . S
C1276 C1275 1.415 . S
C1277 H1253 0.951 . S
C1277 C1278 1.366 . S
C1277 C1279 1.388 . S
C1278 C1277 1.366 . S
C1278 C1282 1.385 . S
C1279 H1254 0.951 . S
C1279 C1277 1.388 . S
C1279 C1280 1.366 . S
C1280 C1279 1.366 . S
C1280 C1281 1.414 . S
C1280 C1283 1.499 . S
C1281 H1255 0.950 . S
C1281 C1280 1.414 . S
C1281 C1282 1.374 . S
C1282 H1256 0.950 . S
C1282 C1278 1.385 . S
C1282 C1281 1.374 . S
C1283 C1280 1.499 . S
C1283 C1284 1.373 . S
C1283 C1285 1.389 . S
C1284 H1257 0.950 . S
C1284 C1270 1.377 . S
C1284 C1283 1.373 . S
C1285 C1269 1.377 . S
C1285 C1283 1.389 . S
C1285 C1286 1.524 . S
C1286 C1285 1.524 . S
C1286 C1287 1.397 . S
C1286 C1291 1.363 . S
C1287 H1258 0.950 . S
C1287 C1286 1.397 . S
C1287 C1288 1.334 . S
C1288 H1259 0.950 . S
C1288 C1287 1.334 . S
C1288 C1289 1.287 . S
C1289 C1288 1.287 . S
C1289 C1290 1.524 . S
C1289 H1292 0.999 . S
C1290 H1260 0.950 . S
C1290 C1289 1.524 . S
C1290 C1291 1.415 . S
C1291 H1261 0.950 . S
C1291 C1286 1.363 . S
C1291 C1290 1.415 . S
H1292 C1289 0.999 . S
H1293 C1274 0.913 . S
H1294 C1312 0.951 . S
H1295 C1314 0.951 . S
H1296 C1316 0.950 . S
H1297 C1317 0.950 . S
H1298 C1319 0.950 . S
H1299 C1322 0.950 . S
H1300 C1323 0.950 . S
H1301 C1325 0.950 . S
H1302 C1326 0.950 . S
H1303 C1327 0.951 . S
H1304 C1329 0.951 . S
H1305 C1331 0.950 . S
H1306 C1332 0.950 . S
H1307 C1334 0.950 . S
H1308 C1337 0.950 . S
H1309 C1338 0.950 . S
H1310 C1340 0.950 . S
H1311 C1341 0.950 . S
C1312 H1294 0.951 . S
C1312 C1313 1.366 . S
C1312 C1314 1.388 . S
C1313 C1312 1.366 . S
C1313 C1317 1.385 . S
C1314 H1295 0.951 . S
C1314 C1312 1.388 . S
C1314 C1315 1.366 . S
C1315 C1314 1.366 . S
C1315 C1316 1.414 . S
C1315 C1318 1.499 . S
C1316 H1296 0.950 . S
C1316 C1315 1.414 . S
C1316 C1317 1.374 . S
C1317 H1297 0.950 . S
C1317 C1313 1.385 . S
C1317 C1316 1.374 . S
C1318 C1315 1.499 . S
C1318 C1319 1.373 . S
C1318 C1320 1.389 . S
C1319 H1298 0.950 . S
C1319 C1318 1.373 . S
C1319 C1335 1.377 . S
C1320 C1318 1.389 . S
C1320 C1321 1.524 . S
C1320 C1334 1.377 . S
C1321 C1320 1.524 . S
C1321 C1322 1.397 . S
C1321 C1326 1.363 . S
C1322 H1299 0.950 . S
C1322 C1321 1.397 . S
C1322 C1323 1.334 . S
C1323 H1300 0.950 . S
C1323 C1322 1.334 . S
C1323 C1324 1.287 . S
C1324 C1323 1.287 . S
C1324 C1325 1.524 . S
C1324 H1343 0.913 . S
C1325 H1301 0.950 . S
C1325 C1324 1.524 . S
C1325 C1326 1.415 . S
C1326 H1302 0.950 . S
C1326 C1321 1.363 . S
C1326 C1325 1.415 . S
C1327 H1303 0.951 . S
C1327 C1328 1.366 . S
C1327 C1329 1.388 . S
C1328 C1327 1.366 . S
C1328 C1332 1.385 . S
C1329 H1304 0.951 . S
C1329 C1327 1.388 . S
C1329 C1330 1.366 . S
C1330 C1329 1.366 . S
C1330 C1331 1.414 . S
C1330 C1333 1.499 . S
C1331 H1305 0.950 . S
C1331 C1330 1.414 . S
C1331 C1332 1.374 . S
C1332 H1306 0.950 . S
C1332 C1328 1.385 . S
C1332 C1331 1.374 . S
C1333 C1330 1.499 . S
C1333 C1334 1.373 . S
C1333 C1335 1.389 . S
C1334 H1307 0.950 . S
C1334 C1320 1.377 . S
C1334 C1333 1.373 . S
C1335 C1319 1.377 . S
C1335 C1333 1.389 . S
C1335 C1336 1.524 . S
C1336 C1335 1.524 . S
C1336 C1337 1.397 . S
C1336 C1341 1.363 . S
C1337 H1308 0.950 . S
C1337 C1336 1.397 . S
C1337 C1338 1.334 . S
C1338 H1309 0.950 . S
C1338 C1337 1.334 . S
C1338 C1339 1.287 . S
C1339 C1338 1.287 . S
C1339 C1340 1.524 . S
C1339 H1342 0.999 . S
C1340 H1310 0.950 . S
C1340 C1339 1.524 . S
C1340 C1341 1.415 . S
C1341 H1311 0.950 . S
C1341 C1336 1.363 . S
C1341 C1340 1.415 . S
H1342 C1339 0.999 . S
H1343 C1324 0.913 . S
H1344 C1362 0.951 . S
H1345 C1364 0.951 . S
H1346 C1366 0.950 . S
H1347 C1367 0.950 . S
H1348 C1369 0.950 . S
H1349 C1372 0.950 . S
H1350 C1373 0.950 . S
H1351 C1375 0.950 . S
H1352 C1376 0.950 1_565 S
H1353 C1377 0.951 . S
H1354 C1379 0.951 . S
H1355 C1381 0.950 . S
H1356 C1382 0.950 . S
H1357 C1384 0.950 . S
H1358 C1387 0.950 . S
H1359 C1388 0.950 . S
H1360 C1390 0.950 . S
H1361 C1391 0.950 1_545 S
C1362 H1344 0.951 . S
C1362 C1363 1.366 . S
C1362 C1364 1.388 . S
C1363 C1362 1.366 . S
C1363 C1367 1.385 . S
C1364 H1345 0.951 . S
C1364 C1362 1.388 . S
C1364 C1365 1.366 . S
C1365 C1364 1.366 . S
C1365 C1366 1.414 . S
C1365 C1368 1.499 . S
C1366 H1346 0.950 . S
C1366 C1365 1.414 . S
C1366 C1367 1.374 . S
C1367 H1347 0.950 . S
C1367 C1363 1.385 . S
C1367 C1366 1.374 . S
C1368 C1365 1.499 . S
C1368 C1369 1.373 . S
C1368 C1370 1.389 1_455 S
C1369 H1348 0.950 . S
C1369 C1368 1.373 . S
C1369 C1385 1.377 1_545 S
C1370 C1368 1.389 1_655 S
C1370 C1371 1.524 . S
C1370 C1384 1.377 1_545 S
C1371 C1370 1.524 . S
C1371 C1372 1.397 . S
C1371 C1376 1.363 . S
C1372 H1349 0.950 . S
C1372 C1371 1.397 . S
C1372 C1373 1.334 . S
C1373 H1350 0.950 . S
C1373 C1372 1.334 . S
C1373 C1374 1.287 . S
C1374 C1373 1.287 . S
C1374 C1375 1.524 . S
C1374 H1393 0.913 . S
C1375 H1351 0.950 . S
C1375 C1374 1.524 . S
C1375 C1376 1.415 . S
C1376 H1352 0.950 1_545 S
C1376 C1371 1.363 . S
C1376 C1375 1.415 . S
C1377 H1353 0.951 . S
C1377 C1378 1.366 . S
C1377 C1379 1.388 . S
C1378 C1377 1.366 . S
C1378 C1382 1.385 . S
C1379 H1354 0.951 . S
C1379 C1377 1.388 . S
C1379 C1380 1.366 . S
C1380 C1379 1.366 . S
C1380 C1381 1.414 . S
C1380 C1383 1.499 . S
C1381 H1355 0.950 . S
C1381 C1380 1.414 . S
C1381 C1382 1.374 . S
C1382 H1356 0.950 . S
C1382 C1378 1.385 . S
C1382 C1381 1.374 . S
C1383 C1380 1.499 . S
C1383 C1384 1.373 . S
C1383 C1385 1.389 1_655 S
C1384 H1357 0.950 . S
C1384 C1370 1.377 1_565 S
C1384 C1383 1.373 . S
C1385 C1369 1.377 1_565 S
C1385 C1383 1.389 1_455 S
C1385 C1386 1.524 . S
C1386 C1385 1.524 . S
C1386 C1387 1.397 . S
C1386 C1391 1.363 . S
C1387 H1358 0.950 . S
C1387 C1386 1.397 . S
C1387 C1388 1.334 . S
C1388 H1359 0.950 . S
C1388 C1387 1.334 . S
C1388 C1389 1.287 . S
C1389 C1388 1.287 . S
C1389 C1390 1.524 . S
C1389 H1392 0.999 . S
C1390 H1360 0.950 . S
C1390 C1389 1.524 . S
C1390 C1391 1.415 . S
C1391 H1361 0.950 1_565 S
C1391 C1386 1.363 . S
C1391 C1390 1.415 . S
H1392 C1389 0.999 . S
H1393 C1374 0.913 . S
H1394 C1412 0.951 . S
H1395 C1414 0.951 1_545 S
H1396 C1416 0.950 . S
H1397 C1417 0.950 . S
H1398 C1419 0.950 . S
H1399 C1422 0.950 1_565 S
H1400 C1423 0.950 . S
H1401 C1425 0.950 . S
H1402 C1426 0.950 . S
H1403 C1427 0.951 . S
H1404 C1429 0.951 1_565 S
H1405 C1431 0.950 . S
H1406 C1432 0.950 . S
H1407 C1434 0.950 . S
H1408 C1437 0.950 1_545 S
H1409 C1438 0.950 . S
H1410 C1440 0.950 . S
H1411 C1441 0.950 . S
C1412 H1394 0.951 . S
C1412 C1413 1.366 . S
C1412 C1414 1.388 . S
C1413 C1412 1.366 . S
C1413 C1417 1.385 . S
C1414 H1395 0.951 1_565 S
C1414 C1412 1.388 . S
C1414 C1415 1.366 . S
C1415 C1414 1.366 . S
C1415 C1416 1.414 . S
C1415 C1418 1.499 . S
C1416 H1396 0.950 . S
C1416 C1415 1.414 . S
C1416 C1417 1.374 . S
C1417 H1397 0.950 . S
C1417 C1413 1.385 . S
C1417 C1416 1.374 . S
C1418 C1415 1.499 . S
C1418 C1419 1.373 . S
C1418 C1420 1.389 1_565 S
C1419 H1398 0.950 . S
C1419 C1418 1.373 . S
C1419 C1435 1.377 . S
C1420 C1418 1.389 1_545 S
C1420 C1421 1.524 . S
C1420 C1434 1.377 . S
C1421 C1420 1.524 . S
C1421 C1422 1.397 . S
C1421 C1426 1.363 . S
C1422 H1399 0.950 1_545 S
C1422 C1421 1.397 . S
C1422 C1423 1.334 . S
C1423 H1400 0.950 . S
C1423 C1422 1.334 . S
C1423 C1424 1.287 . S
C1424 C1423 1.287 . S
C1424 C1425 1.524 . S
C1424 H1443 0.913 . S
C1425 H1401 0.950 . S
C1425 C1424 1.524 . S
C1425 C1426 1.415 . S
C1426 H1402 0.950 . S
C1426 C1421 1.363 . S
C1426 C1425 1.415 . S
C1427 H1403 0.951 . S
C1427 C1428 1.366 . S
C1427 C1429 1.388 . S
C1428 C1427 1.366 . S
C1428 C1432 1.385 . S
C1429 H1404 0.951 1_545 S
C1429 C1427 1.388 . S
C1429 C1430 1.366 . S
C1430 C1429 1.366 . S
C1430 C1431 1.414 . S
C1430 C1433 1.499 . S
C1431 H1405 0.950 . S
C1431 C1430 1.414 . S
C1431 C1432 1.374 . S
C1432 H1406 0.950 . S
C1432 C1428 1.385 . S
C1432 C1431 1.374 . S
C1433 C1430 1.499 . S
C1433 C1434 1.373 . S
C1433 C1435 1.389 1_545 S
C1434 H1407 0.950 . S
C1434 C1420 1.377 . S
C1434 C1433 1.373 . S
C1435 C1419 1.377 . S
C1435 C1433 1.389 1_565 S
C1435 C1436 1.524 . S
C1436 C1435 1.524 . S
C1436 C1437 1.397 . S
C1436 C1441 1.363 . S
C1437 H1408 0.950 1_565 S
C1437 C1436 1.397 . S
C1437 C1438 1.334 . S
C1438 H1409 0.950 . S
C1438 C1437 1.334 . S
C1438 C1439 1.287 . S
C1439 C1438 1.287 . S
C1439 C1440 1.524 . S
C1439 H1442 0.999 . S
C1440 H1410 0.950 . S
C1440 C1439 1.524 . S
C1440 C1441 1.415 . S
C1441 H1411 0.950 . S
C1441 C1436 1.363 . S
C1441 C1440 1.415 . S
H1442 C1439 0.999 . S
H1443 C1424 0.913 . S
H1444 C1462 0.951 . S
H1445 C1464 0.951 . S
H1446 C1466 0.950 . S
H1447 C1467 0.950 . S
H1448 C1469 0.950 . S
H1449 C1472 0.950 1_556 S
H1450 C1473 0.950 . S
H1451 C1475 0.950 . S
H1452 C1476 0.950 . S
H1453 C1477 0.951 . S
H1454 C1479 0.951 . S
H1455 C1481 0.950 . S
H1456 C1482 0.950 . S
H1457 C1484 0.950 . S
H1458 C1487 0.950 1_554 S
H1459 C1488 0.950 . S
H1460 C1490 0.950 . S
H1461 C1491 0.950 . S
C1462 H1444 0.951 . S
C1462 C1463 1.366 . S
C1462 C1464 1.388 . S
C1463 C1462 1.366 . S
C1463 C1467 1.385 . S
C1464 H1445 0.951 . S
C1464 C1462 1.388 . S
C1464 C1465 1.366 . S
C1465 C1464 1.366 . S
C1465 C1466 1.414 . S
C1465 C1468 1.499 . S
C1466 H1446 0.950 . S
C1466 C1465 1.414 . S
C1466 C1467 1.374 . S
C1467 H1447 0.950 . S
C1467 C1463 1.385 . S
C1467 C1466 1.374 . S
C1468 C1465 1.499 . S
C1468 C1469 1.373 1_545 S
C1468 C1470 1.389 1_556 S
C1469 H1448 0.950 . S
C1469 C1468 1.373 1_565 S
C1469 C1485 1.377 . S
C1470 C1468 1.389 1_554 S
C1470 C1471 1.524 . S
C1470 C1484 1.377 . S
C1471 C1470 1.524 . S
C1471 C1472 1.397 . S
C1471 C1476 1.363 . S
C1472 H1449 0.950 1_554 S
C1472 C1471 1.397 . S
C1472 C1473 1.334 . S
C1473 H1450 0.950 . S
C1473 C1472 1.334 . S
C1473 C1474 1.287 . S
C1474 C1473 1.287 . S
C1474 C1475 1.524 . S
C1474 H1493 0.913 . S
C1475 H1451 0.950 . S
C1475 C1474 1.524 . S
C1475 C1476 1.415 . S
C1476 H1452 0.950 . S
C1476 C1471 1.363 . S
C1476 C1475 1.415 . S
C1477 H1453 0.951 . S
C1477 C1478 1.366 . S
C1477 C1479 1.388 . S
C1478 C1477 1.366 . S
C1478 C1482 1.385 . S
C1479 H1454 0.951 . S
C1479 C1477 1.388 . S
C1479 C1480 1.366 . S
C1480 C1479 1.366 . S
C1480 C1481 1.414 . S
C1480 C1483 1.499 . S
C1481 H1455 0.950 . S
C1481 C1480 1.414 . S
C1481 C1482 1.374 . S
C1482 H1456 0.950 . S
C1482 C1478 1.385 . S
C1482 C1481 1.374 . S
C1483 C1480 1.499 . S
C1483 C1484 1.373 1_565 S
C1483 C1485 1.389 1_554 S
C1484 H1457 0.950 . S
C1484 C1470 1.377 . S
C1484 C1483 1.373 1_545 S
C1485 C1469 1.377 . S
C1485 C1483 1.389 1_556 S
C1485 C1486 1.524 . S
C1486 C1485 1.524 . S
C1486 C1487 1.397 . S
C1486 C1491 1.363 . S
C1487 H1458 0.950 1_556 S
C1487 C1486 1.397 . S
C1487 C1488 1.334 . S
C1488 H1459 0.950 . S
C1488 C1487 1.334 . S
C1488 C1489 1.287 . S
C1489 C1488 1.287 . S
C1489 C1490 1.524 . S
C1489 H1492 0.999 . S
C1490 H1460 0.950 . S
C1490 C1489 1.524 . S
C1490 C1491 1.415 . S
C1491 H1461 0.950 . S
C1491 C1486 1.363 . S
C1491 C1490 1.415 . S
H1492 C1489 0.999 . S
H1493 C1474 0.913 . S
H1494 C1512 0.951 . S
H1495 C1514 0.976 . S
H1496 C1516 0.950 . S
H1497 C1517 0.950 . S
H1498 C1519 0.950 . S
H1499 C1522 0.950 1_655 S
H1500 C1523 0.950 . S
H1501 C1525 0.950 . S
H1502 C1526 0.950 . S
H1503 C1527 0.951 . S
H1504 C1529 0.976 . S
H1505 C1531 0.950 . S
H1506 C1532 0.950 . S
H1507 C1534 0.950 . S
H1508 C1537 0.950 1_455 S
H1509 C1538 0.950 . S
H1510 C1540 0.950 . S
H1511 C1541 0.950 . S
C1512 H1494 0.951 . S
C1512 C1513 1.366 . S
C1512 C1514 1.388 . S
C1513 C1512 1.366 . S
C1513 C1517 1.385 . S
C1514 H1495 0.976 . S
C1514 C1512 1.388 . S
C1514 C1515 1.366 . S
C1515 C1514 1.366 . S
C1515 C1516 1.414 . S
C1515 C1518 1.499 . S
C1516 H1496 0.950 . S
C1516 C1515 1.414 . S
C1516 C1517 1.374 . S
C1517 H1497 0.950 . S
C1517 C1513 1.385 . S
C1517 C1516 1.374 . S
C1518 C1515 1.499 . S
C1518 C1519 1.373 1_545 S
C1518 C1520 1.389 1_655 S
C1519 H1498 0.950 . S
C1519 C1518 1.373 1_565 S
C1519 C1535 1.377 1_554 S
C1520 C1518 1.389 1_455 S
C1520 C1521 1.524 . S
C1520 C1534 1.377 1_554 S
C1521 C1520 1.524 . S
C1521 C1522 1.397 . S
C1521 C1526 1.363 . S
C1522 H1499 0.950 1_455 S
C1522 C1521 1.397 . S
C1522 C1523 1.334 . S
C1523 H1500 0.950 . S
C1523 C1522 1.334 . S
C1523 C1524 1.287 . S
C1524 C1523 1.287 . S
C1524 C1525 1.524 . S
C1524 H1543 0.913 . S
C1525 H1501 0.950 . S
C1525 C1524 1.524 . S
C1525 C1526 1.415 . S
C1526 H1502 0.950 . S
C1526 C1521 1.363 . S
C1526 C1525 1.415 . S
C1527 H1503 0.951 . S
C1527 C1528 1.366 . S
C1527 C1529 1.388 . S
C1528 C1527 1.366 . S
C1528 C1532 1.385 . S
C1529 H1504 0.976 . S
C1529 C1527 1.388 . S
C1529 C1530 1.366 . S
C1530 C1529 1.366 . S
C1530 C1531 1.414 . S
C1530 C1533 1.499 . S
C1531 H1505 0.950 . S
C1531 C1530 1.414 . S
C1531 C1532 1.374 . S
C1532 H1506 0.950 . S
C1532 C1528 1.385 . S
C1532 C1531 1.374 . S
C1533 C1530 1.499 . S
C1533 C1534 1.373 1_565 S
C1533 C1535 1.389 1_455 S
C1534 H1507 0.950 . S
C1534 C1520 1.377 1_556 S
C1534 C1533 1.373 1_545 S
C1535 C1519 1.377 1_556 S
C1535 C1533 1.389 1_655 S
C1535 C1536 1.524 . S
C1536 C1535 1.524 . S
C1536 C1537 1.397 . S
C1536 C1541 1.363 . S
C1537 H1508 0.950 1_655 S
C1537 C1536 1.397 . S
C1537 C1538 1.334 . S
C1538 H1509 0.950 . S
C1538 C1537 1.334 . S
C1538 C1539 1.287 . S
C1539 C1538 1.287 . S
C1539 C1540 1.524 . S
C1539 H1542 0.999 . S
C1540 H1510 0.950 . S
C1540 C1539 1.524 . S
C1540 C1541 1.415 . S
C1541 H1511 0.950 . S
C1541 C1536 1.363 . S
C1541 C1540 1.415 . S
H1542 C1539 0.999 . S
H1543 C1524 0.913 . S
H1544 C1562 0.951 . S
H1545 C1564 0.951 . S
H1546 C1566 0.950 . S
H1547 C1567 0.950 . S
H1548 C1569 0.950 . S
H1549 C1572 0.950 . S
H1550 C1573 0.950 . S
H1551 C1575 0.950 . S
H1552 C1576 0.950 . S
H1553 C1577 0.951 . S
H1554 C1579 0.951 . S
H1555 C1581 0.950 . S
H1556 C1582 0.950 . S
H1557 C1584 0.950 . S
H1558 C1587 0.950 . S
H1559 C1588 0.950 . S
H1560 C1590 0.950 . S
H1561 C1591 0.950 . S
C1562 H1544 0.951 . S
C1562 C1563 1.366 . S
C1562 C1564 1.388 . S
C1563 C1562 1.366 . S
C1563 C1567 1.385 . S
C1564 H1545 0.951 . S
C1564 C1562 1.388 . S
C1564 C1565 1.366 . S
C1565 C1564 1.366 . S
C1565 C1566 1.414 . S
C1565 C1568 1.499 . S
C1566 H1546 0.950 . S
C1566 C1565 1.414 . S
C1566 C1567 1.374 . S
C1567 H1547 0.950 . S
C1567 C1563 1.385 . S
C1567 C1566 1.374 . S
C1568 C1565 1.499 . S
C1568 C1569 1.373 . S
C1568 C1570 1.389 . S
C1569 H1548 0.950 . S
C1569 C1568 1.373 . S
C1569 C1585 1.377 . S
C1570 C1568 1.389 . S
C1570 C1571 1.524 . S
C1570 C1584 1.377 . S
C1571 C1570 1.524 . S
C1571 C1572 1.397 . S
C1571 C1576 1.363 . S
C1572 H1549 0.950 . S
C1572 C1571 1.397 . S
C1572 C1573 1.334 . S
C1573 H1550 0.950 . S
C1573 C1572 1.334 . S
C1573 C1574 1.287 . S
C1574 C1573 1.287 . S
C1574 C1575 1.524 . S
C1574 H1593 0.913 . S
C1575 H1551 0.950 . S
C1575 C1574 1.524 . S
C1575 C1576 1.415 . S
C1576 H1552 0.950 . S
C1576 C1571 1.363 . S
C1576 C1575 1.415 . S
C1577 H1553 0.951 . S
C1577 C1578 1.366 . S
C1577 C1579 1.388 . S
C1578 C1577 1.366 . S
C1578 C1582 1.385 . S
C1579 H1554 0.951 . S
C1579 C1577 1.388 . S
C1579 C1580 1.366 . S
C1580 C1579 1.366 . S
C1580 C1581 1.414 . S
C1580 C1583 1.499 . S
C1581 H1555 0.950 . S
C1581 C1580 1.414 . S
C1581 C1582 1.374 . S
C1582 H1556 0.950 . S
C1582 C1578 1.385 . S
C1582 C1581 1.374 . S
C1583 C1580 1.499 . S
C1583 C1584 1.373 . S
C1583 C1585 1.389 . S
C1584 H1557 0.950 . S
C1584 C1570 1.377 . S
C1584 C1583 1.373 . S
C1585 C1569 1.377 . S
C1585 C1583 1.389 . S
C1585 C1586 1.524 . S
C1586 C1585 1.524 . S
C1586 C1587 1.397 . S
C1586 C1591 1.363 . S
C1587 H1558 0.950 . S
C1587 C1586 1.397 . S
C1587 C1588 1.334 . S
C1588 H1559 0.950 . S
C1588 C1587 1.334 . S
C1588 C1589 1.287 . S
C1589 C1588 1.287 . S
C1589 C1590 1.524 . S
C1589 H1592 0.999 . S
C1590 H1560 0.950 . S
C1590 C1589 1.524 . S
C1590 C1591 1.415 . S
C1591 H1561 0.950 . S
C1591 C1586 1.363 . S
C1591 C1590 1.415 . S
H1592 C1589 0.999 . S
H1593 C1574 0.913 . S
H1594 C1612 0.951 . S
H1595 C1614 0.951 . S
H1596 C1616 0.950 . S
H1597 C1617 0.950 . S
H1598 C1619 0.950 . S
H1599 C1622 0.950 1_455 S
H1600 C1623 0.950 . S
H1601 C1625 0.950 . S
H1602 C1626 0.950 . S
H1603 C1627 0.951 . S
H1604 C1629 0.951 . S
H1605 C1631 0.950 . S
H1606 C1632 0.950 . S
H1607 C1634 0.950 . S
H1608 C1637 0.950 1_655 S
H1609 C1638 0.950 . S
H1610 C1640 0.950 . S
H1611 C1641 0.950 . S
C1612 H1594 0.951 . S
C1612 C1613 1.366 . S
C1612 C1614 1.388 . S
C1613 C1612 1.366 . S
C1613 C1617 1.385 . S
C1614 H1595 0.951 . S
C1614 C1612 1.388 . S
C1614 C1615 1.366 . S
C1615 C1614 1.366 . S
C1615 C1616 1.414 . S
C1615 C1618 1.499 . S
C1616 H1596 0.950 . S
C1616 C1615 1.414 . S
C1616 C1617 1.374 . S
C1617 H1597 0.950 . S
C1617 C1613 1.385 . S
C1617 C1616 1.374 . S
C1618 C1615 1.499 . S
C1618 C1619 1.373 . S
C1618 C1620 1.389 1_455 S
C1619 H1598 0.950 . S
C1619 C1618 1.373 . S
C1619 C1635 1.377 . S
C1620 C1618 1.389 1_655 S
C1620 C1621 1.524 . S
C1620 C1634 1.377 . S
C1621 C1620 1.524 . S
C1621 C1622 1.397 . S
C1621 C1626 1.363 . S
C1622 H1599 0.950 1_655 S
C1622 C1621 1.397 . S
C1622 C1623 1.334 . S
C1623 H1600 0.950 . S
C1623 C1622 1.334 . S
C1623 C1624 1.287 . S
C1624 C1623 1.287 . S
C1624 C1625 1.524 . S
C1624 H1643 0.913 . S
C1625 H1601 0.950 . S
C1625 C1624 1.524 . S
C1625 C1626 1.415 . S
C1626 H1602 0.950 . S
C1626 C1621 1.363 . S
C1626 C1625 1.415 . S
C1627 H1603 0.951 . S
C1627 C1628 1.366 . S
C1627 C1629 1.388 . S
C1628 C1627 1.366 . S
C1628 C1632 1.385 . S
C1629 H1604 0.951 . S
C1629 C1627 1.388 . S
C1629 C1630 1.366 . S
C1630 C1629 1.366 . S
C1630 C1631 1.414 . S
C1630 C1633 1.499 . S
C1631 H1605 0.950 . S
C1631 C1630 1.414 . S
C1631 C1632 1.374 . S
C1632 H1606 0.950 . S
C1632 C1628 1.385 . S
C1632 C1631 1.374 . S
C1633 C1630 1.499 . S
C1633 C1634 1.373 . S
C1633 C1635 1.389 1_655 S
C1634 H1607 0.950 . S
C1634 C1620 1.377 . S
C1634 C1633 1.373 . S
C1635 C1619 1.377 . S
C1635 C1633 1.389 1_455 S
C1635 C1636 1.524 . S
C1636 C1635 1.524 . S
C1636 C1637 1.397 . S
C1636 C1641 1.363 . S
C1637 H1608 0.950 1_455 S
C1637 C1636 1.397 . S
C1637 C1638 1.334 . S
C1638 H1609 0.950 . S
C1638 C1637 1.334 . S
C1638 C1639 1.287 . S
C1639 C1638 1.287 . S
C1639 C1640 1.524 . S
C1639 H1642 0.999 . S
C1640 H1610 0.950 . S
C1640 C1639 1.524 . S
C1640 C1641 1.415 . S
C1641 H1611 0.950 . S
C1641 C1636 1.363 . S
C1641 C1640 1.415 . S
H1642 C1639 0.999 . S
H1643 C1624 0.913 . S
H1644 C1662 0.951 . S
H1645 C1664 0.951 . S
H1646 C1666 0.950 . S
H1647 C1667 0.950 . S
H1648 C1669 0.950 . S
H1649 C1672 0.913 1_554 S
H1650 C1673 0.950 1_554 S
H1651 C1675 0.950 . S
H1652 C1676 0.950 . S
H1653 C1677 0.951 . S
H1654 C1679 0.951 . S
H1655 C1681 0.950 . S
H1656 C1682 0.950 . S
H1657 C1684 0.950 . S
H1658 C1687 0.913 1_556 S
H1659 C1688 0.950 1_556 S
H1660 C1690 0.950 . S
H1661 C1691 0.950 . S
C1662 H1644 0.951 . S
C1662 C1663 1.366 . S
C1662 C1664 1.388 . S
C1663 C1662 1.366 . S
C1663 C1667 1.385 . S
C1664 H1645 0.951 . S
C1664 C1662 1.388 . S
C1664 C1665 1.366 . S
C1665 C1664 1.366 . S
C1665 C1666 1.414 . S
C1665 C1668 1.499 . S
C1666 H1646 0.950 . S
C1666 C1665 1.414 . S
C1666 C1667 1.374 . S
C1667 H1647 0.950 . S
C1667 C1663 1.385 . S
C1667 C1666 1.374 . S
C1668 C1665 1.499 . S
C1668 C1669 1.373 1_455 S
C1668 C1670 1.389 1_554 S
C1669 H1648 0.950 . S
C1669 C1668 1.373 1_655 S
C1669 C1685 1.377 . S
C1670 C1668 1.389 1_556 S
C1670 C1671 1.524 . S
C1670 C1684 1.377 . S
C1671 C1670 1.524 . S
C1671 C1672 1.422 . S
C1671 C1676 1.363 . S
C1672 H1649 0.913 1_556 S
C1672 C1671 1.422 . S
C1672 C1673 1.348 . S
C1673 H1650 0.950 1_556 S
C1673 C1672 1.348 . S
C1673 C1674 1.287 . S
C1674 C1673 1.287 . S
C1674 C1675 1.524 . S
C1674 H1693 0.913 . S
C1675 H1651 0.950 . S
C1675 C1674 1.524 . S
C1675 C1676 1.415 . S
C1676 H1652 0.950 . S
C1676 C1671 1.363 . S
C1676 C1675 1.415 . S
C1677 H1653 0.951 . S
C1677 C1678 1.366 . S
C1677 C1679 1.388 . S
C1678 C1677 1.366 . S
C1678 C1682 1.385 . S
C1679 H1654 0.951 . S
C1679 C1677 1.388 . S
C1679 C1680 1.366 . S
C1680 C1679 1.366 . S
C1680 C1681 1.414 . S
C1680 C1683 1.499 . S
C1681 H1655 0.950 . S
C1681 C1680 1.414 . S
C1681 C1682 1.374 . S
C1682 H1656 0.950 . S
C1682 C1678 1.385 . S
C1682 C1681 1.374 . S
C1683 C1680 1.499 . S
C1683 C1684 1.373 1_655 S
C1683 C1685 1.389 1_556 S
C1684 H1657 0.950 . S
C1684 C1670 1.377 . S
C1684 C1683 1.373 1_455 S
C1685 C1669 1.377 . S
C1685 C1683 1.389 1_554 S
C1685 C1686 1.524 . S
C1686 C1685 1.524 . S
C1686 C1687 1.422 . S
C1686 C1691 1.363 . S
C1687 H1658 0.913 1_554 S
C1687 C1686 1.422 . S
C1687 C1688 1.348 . S
C1688 H1659 0.950 1_554 S
C1688 C1687 1.348 . S
C1688 C1689 1.287 . S
C1689 C1688 1.287 . S
C1689 C1690 1.524 . S
C1689 H1692 0.999 . S
C1690 H1660 0.950 . S
C1690 C1689 1.524 . S
C1690 C1691 1.415 . S
C1691 H1661 0.950 . S
C1691 C1686 1.363 . S
C1691 C1690 1.415 . S
H1692 C1689 0.999 . S
H1693 C1674 0.913 . S
H1694 C1712 0.951 . S
H1695 C1714 0.951 . S
H1696 C1716 0.950 . S
H1697 C1717 0.950 . S
H1698 C1719 0.950 . S
H1699 C1722 0.950 . S
H1700 C1723 0.950 . S
H1701 C1725 0.950 . S
H1702 C1726 0.950 . S
H1703 C1727 0.951 . S
H1704 C1729 0.951 . S
H1705 C1731 0.950 . S
H1706 C1732 0.950 . S
H1707 C1734 0.950 . S
H1708 C1737 0.950 . S
H1709 C1738 0.950 . S
H1710 C1740 0.950 . S
H1711 C1741 0.950 . S
C1712 H1694 0.951 . S
C1712 C1713 1.366 . S
C1712 C1714 1.388 . S
C1713 C1712 1.366 . S
C1713 C1717 1.385 . S
C1714 H1695 0.951 . S
C1714 C1712 1.388 . S
C1714 C1715 1.366 . S
C1715 C1714 1.366 . S
C1715 C1716 1.414 . S
C1715 C1718 1.499 . S
C1716 H1696 0.950 . S
C1716 C1715 1.414 . S
C1716 C1717 1.374 . S
C1717 H1697 0.950 . S
C1717 C1713 1.385 . S
C1717 C1716 1.374 . S
C1718 C1715 1.499 . S
C1718 C1719 1.373 . S
C1718 C1720 1.389 1_556 S
C1719 H1698 0.950 . S
C1719 C1718 1.373 . S
C1719 C1735 1.377 . S
C1720 C1718 1.389 1_554 S
C1720 C1721 1.524 . S
C1720 C1734 1.377 . S
C1721 C1720 1.524 . S
C1721 C1722 1.397 1_554 S
C1721 C1726 1.363 . S
C1722 H1699 0.950 . S
C1722 C1721 1.397 1_556 S
C1722 C1723 1.334 . S
C1723 H1700 0.950 . S
C1723 C1722 1.334 . S
C1723 C1724 1.287 1_556 S
C1724 C1723 1.287 1_554 S
C1724 C1725 1.524 . S
C1724 H1743 0.913 . S
C1725 H1701 0.950 . S
C1725 C1724 1.524 . S
C1725 C1726 1.415 . S
C1726 H1702 0.950 . S
C1726 C1721 1.363 . S
C1726 C1725 1.415 . S
C1727 H1703 0.951 . S
C1727 C1728 1.366 . S
C1727 C1729 1.388 . S
C1728 C1727 1.366 . S
C1728 C1732 1.385 . S
C1729 H1704 0.951 . S
C1729 C1727 1.388 . S
C1729 C1730 1.366 . S
C1730 C1729 1.366 . S
C1730 C1731 1.414 . S
C1730 C1733 1.499 . S
C1731 H1705 0.950 . S
C1731 C1730 1.414 . S
C1731 C1732 1.374 . S
C1732 H1706 0.950 . S
C1732 C1728 1.385 . S
C1732 C1731 1.374 . S
C1733 C1730 1.499 . S
C1733 C1734 1.373 . S
C1733 C1735 1.389 1_554 S
C1734 H1707 0.950 . S
C1734 C1720 1.377 . S
C1734 C1733 1.373 . S
C1735 C1719 1.377 . S
C1735 C1733 1.389 1_556 S
C1735 C1736 1.524 . S
C1736 C1735 1.524 . S
C1736 C1737 1.397 1_556 S
C1736 C1741 1.363 . S
C1737 H1708 0.950 . S
C1737 C1736 1.397 1_554 S
C1737 C1738 1.334 . S
C1738 H1709 0.950 . S
C1738 C1737 1.334 . S
C1738 C1739 1.287 1_554 S
C1739 C1738 1.287 1_556 S
C1739 C1740 1.524 . S
C1739 H1742 0.999 . S
C1740 H1710 0.950 . S
C1740 C1739 1.524 . S
C1740 C1741 1.415 . S
C1741 H1711 0.950 . S
C1741 C1736 1.363 . S
C1741 C1740 1.415 . S
H1742 C1739 0.999 . S
H1743 C1724 0.913 . S
H1744 C1762 0.951 . S
H1745 C1764 0.951 . S
H1746 C1766 0.950 . S
H1747 C1767 0.950 . S
H1748 C1769 0.950 . S
H1749 C1772 0.950 . S
H1750 C1773 0.950 . S
H1751 C1775 0.950 . S
H1752 C1776 0.950 . S
H1753 C1777 0.951 . S
H1754 C1779 0.951 . S
H1755 C1781 0.950 . S
H1756 C1782 0.950 . S
H1757 C1784 0.950 . S
H1758 C1787 0.950 . S
H1759 C1788 0.950 . S
H1760 C1790 0.950 . S
H1761 C1791 0.950 . S
C1762 H1744 0.951 . S
C1762 C1763 1.366 . S
C1762 C1764 1.388 . S
C1763 C1762 1.366 . S
C1763 C1767 1.385 . S
C1764 H1745 0.951 . S
C1764 C1762 1.388 . S
C1764 C1765 1.366 . S
C1765 C1764 1.366 . S
C1765 C1766 1.414 . S
C1765 C1768 1.499 . S
C1766 H1746 0.950 . S
C1766 C1765 1.414 . S
C1766 C1767 1.374 . S
C1767 H1747 0.950 . S
C1767 C1763 1.385 . S
C1767 C1766 1.374 . S
C1768 C1765 1.499 . S
C1768 C1769 1.373 . S
C1768 C1770 1.389 1_545 S
C1769 H1748 0.950 . S
C1769 C1768 1.373 . S
C1769 C1785 1.377 . S
C1770 C1768 1.389 1_565 S
C1770 C1771 1.524 . S
C1770 C1784 1.377 . S
C1771 C1770 1.524 . S
C1771 C1772 1.397 . S
C1771 C1776 1.363 . S
C1772 H1749 0.950 . S
C1772 C1771 1.397 . S
C1772 C1773 1.334 . S
C1773 H1750 0.950 . S
C1773 C1772 1.334 . S
C1773 C1774 1.287 . S
C1774 C1773 1.287 . S
C1774 C1775 1.524 . S
C1774 H1793 0.913 . S
C1775 H1751 0.950 . S
C1775 C1774 1.524 . S
C1775 C1776 1.415 . S
C1776 H1752 0.950 . S
C1776 C1771 1.363 . S
C1776 C1775 1.415 . S
C1777 H1753 0.951 . S
C1777 C1778 1.366 . S
C1777 C1779 1.388 . S
C1778 C1777 1.366 . S
C1778 C1782 1.385 . S
C1779 H1754 0.951 . S
C1779 C1777 1.388 . S
C1779 C1780 1.366 . S
C1780 C1779 1.366 . S
C1780 C1781 1.414 . S
C1780 C1783 1.499 . S
C1781 H1755 0.950 . S
C1781 C1780 1.414 . S
C1781 C1782 1.374 . S
C1782 H1756 0.950 . S
C1782 C1778 1.385 . S
C1782 C1781 1.374 . S
C1783 C1780 1.499 . S
C1783 C1784 1.373 . S
C1783 C1785 1.389 1_565 S
C1784 H1757 0.950 . S
C1784 C1770 1.377 . S
C1784 C1783 1.373 . S
C1785 C1769 1.377 . S
C1785 C1783 1.389 1_545 S
C1785 C1786 1.524 . S
C1786 C1785 1.524 . S
C1786 C1787 1.397 . S
C1786 C1791 1.363 . S
C1787 H1758 0.950 . S
C1787 C1786 1.397 . S
C1787 C1788 1.334 . S
C1788 H1759 0.950 . S
C1788 C1787 1.334 . S
C1788 C1789 1.287 . S
C1789 C1788 1.287 . S
C1789 C1790 1.524 . S
C1789 H1792 0.999 . S
C1790 H1760 0.950 . S
C1790 C1789 1.524 . S
C1790 C1791 1.415 . S
C1791 H1761 0.950 . S
C1791 C1786 1.363 . S
C1791 C1790 1.415 . S
H1792 C1789 0.999 . S
H1793 C1774 0.913 . S
H1794 C1812 0.951 . S
H1795 C1814 0.951 . S
H1796 C1816 0.950 . S
H1797 C1817 0.950 . S
H1798 C1819 0.950 . S
H1799 C1822 0.950 . S
H1800 C1823 0.950 1_545 S
H1801 C1825 0.950 . S
H1802 C1826 0.950 . S
H1803 C1827 0.951 . S
H1804 C1829 0.951 . S
H1805 C1831 0.950 . S
H1806 C1832 0.950 . S
H1807 C1834 0.950 . S
H1808 C1837 0.950 . S
H1809 C1838 0.950 1_565 S
H1810 C1840 0.950 . S
H1811 C1841 0.950 . S
C1812 H1794 0.951 . S
C1812 C1813 1.366 . S
C1812 C1814 1.388 . S
C1813 C1812 1.366 . S
C1813 C1817 1.385 . S
C1814 H1795 0.951 . S
C1814 C1812 1.388 . S
C1814 C1815 1.366 . S
C1815 C1814 1.366 . S
C1815 C1816 1.414 . S
C1815 C1818 1.499 . S
C1816 H1796 0.950 . S
C1816 C1815 1.414 . S
C1816 C1817 1.374 . S
C1817 H1797 0.950 . S
C1817 C1813 1.385 . S
C1817 C1816 1.374 . S
C1818 C1815 1.499 . S
C1818 C1819 1.373 . S
C1818 C1820 1.389 1_545 S
C1819 H1798 0.950 . S
C1819 C1818 1.373 . S
C1819 C1835 1.377 . S
C1820 C1818 1.389 1_565 S
C1820 C1821 1.524 . S
C1820 C1834 1.377 . S
C1821 C1820 1.524 . S
C1821 C1822 1.396 1_565 S
C1821 C1826 1.363 . S
C1822 H1799 0.950 . S
C1822 C1821 1.396 1_545 S
C1822 C1823 1.334 1_545 S
C1823 H1800 0.950 1_565 S
C1823 C1822 1.334 1_565 S
C1823 C1824 1.287 . S
C1824 C1823 1.287 . S
C1824 C1825 1.524 . S
C1824 H1843 0.913 . S
C1825 H1801 0.950 . S
C1825 C1824 1.524 . S
C1825 C1826 1.415 . S
C1826 H1802 0.950 . S
C1826 C1821 1.363 . S
C1826 C1825 1.415 . S
C1827 H1803 0.951 . S
C1827 C1828 1.366 . S
C1827 C1829 1.388 . S
C1828 C1827 1.366 . S
C1828 C1832 1.385 . S
C1829 H1804 0.951 . S
C1829 C1827 1.388 . S
C1829 C1830 1.366 . S
C1830 C1829 1.366 . S
C1830 C1831 1.414 . S
C1830 C1833 1.499 . S
C1831 H1805 0.950 . S
C1831 C1830 1.414 . S
C1831 C1832 1.374 . S
C1832 H1806 0.950 . S
C1832 C1828 1.385 . S
C1832 C1831 1.374 . S
C1833 C1830 1.499 . S
C1833 C1834 1.373 . S
C1833 C1835 1.389 1_565 S
C1834 H1807 0.950 . S
C1834 C1820 1.377 . S
C1834 C1833 1.373 . S
C1835 C1819 1.377 . S
C1835 C1833 1.389 1_545 S
C1835 C1836 1.524 . S
C1836 C1835 1.524 . S
C1836 C1837 1.396 1_545 S
C1836 C1841 1.363 . S
C1837 H1808 0.950 . S
C1837 C1836 1.396 1_565 S
C1837 C1838 1.334 1_565 S
C1838 H1809 0.950 1_545 S
C1838 C1837 1.334 1_545 S
C1838 C1839 1.287 . S
C1839 C1838 1.287 . S
C1839 C1840 1.524 . S
C1839 H1842 0.999 . S
C1840 H1810 0.950 . S
C1840 C1839 1.524 . S
C1840 C1841 1.415 . S
C1841 H1811 0.950 . S
C1841 C1836 1.363 . S
C1841 C1840 1.415 . S
H1842 C1839 0.999 . S
H1843 C1824 0.913 . S
H1844 C1862 0.951 . S
H1845 C1864 0.951 . S
H1846 C1866 0.950 . S
H1847 C1867 0.950 . S
H1848 C1869 0.953 . S
H1849 C1872 0.950 . S
H1850 C1873 0.950 . S
H1851 C1875 0.950 . S
H1852 C1876 0.950 . S
H1853 C1877 0.951 . S
H1854 C1879 0.951 . S
H1855 C1881 0.950 . S
H1856 C1882 0.950 . S
H1857 C1884 0.953 . S
H1858 C1887 0.950 . S
H1859 C1888 0.950 . S
H1860 C1890 0.950 . S
H1861 C1891 0.950 . S
C1862 H1844 0.951 . S
C1862 C1863 1.366 . S
C1862 C1864 1.388 . S
C1863 C1862 1.366 . S
C1863 C1867 1.385 . S
C1864 H1845 0.951 . S
C1864 C1862 1.388 . S
C1864 C1865 1.366 . S
C1865 C1864 1.366 . S
C1865 C1866 1.414 . S
C1865 C1868 1.499 . S
C1866 H1846 0.950 . S
C1866 C1865 1.414 . S
C1866 C1867 1.374 . S
C1867 H1847 0.950 . S
C1867 C1863 1.385 . S
C1867 C1866 1.374 . S
C1868 C1865 1.499 . S
C1868 C1869 1.350 1_545 S
C1868 C1870 1.389 . S
C1869 H1848 0.953 . S
C1869 C1868 1.350 1_565 S
C1869 C1885 1.398 . S
C1870 C1868 1.389 . S
C1870 C1871 1.524 . S
C1870 C1884 1.398 . S
C1871 C1870 1.524 . S
C1871 C1872 1.397 . S
C1871 C1876 1.363 . S
C1872 H1849 0.950 . S
C1872 C1871 1.397 . S
C1872 C1873 1.334 . S
C1873 H1850 0.950 . S
C1873 C1872 1.334 . S
C1873 C1874 1.287 . S
C1874 C1873 1.287 . S
C1874 C1875 1.524 . S
C1874 H1893 0.913 . S
C1875 H1851 0.950 . S
C1875 C1874 1.524 . S
C1875 C1876 1.415 . S
C1876 H1852 0.950 . S
C1876 C1871 1.363 . S
C1876 C1875 1.415 . S
C1877 H1853 0.951 . S
C1877 C1878 1.366 . S
C1877 C1879 1.388 . S
C1878 C1877 1.366 . S
C1878 C1882 1.385 . S
C1879 H1854 0.951 . S
C1879 C1877 1.388 . S
C1879 C1880 1.366 . S
C1880 C1879 1.366 . S
C1880 C1881 1.414 . S
C1880 C1883 1.499 . S
C1881 H1855 0.950 . S
C1881 C1880 1.414 . S
C1881 C1882 1.374 . S
C1882 H1856 0.950 . S
C1882 C1878 1.385 . S
C1882 C1881 1.374 . S
C1883 C1880 1.499 . S
C1883 C1884 1.350 1_565 S
C1883 C1885 1.389 . S
C1884 H1857 0.953 . S
C1884 C1870 1.398 . S
C1884 C1883 1.350 1_545 S
C1885 C1869 1.398 . S
C1885 C1883 1.389 . S
C1885 C1886 1.524 . S
C1886 C1885 1.524 . S
C1886 C1887 1.397 . S
C1886 C1891 1.363 . S
C1887 H1858 0.950 . S
C1887 C1886 1.397 . S
C1887 C1888 1.334 . S
C1888 H1859 0.950 . S
C1888 C1887 1.334 . S
C1888 C1889 1.287 . S
C1889 C1888 1.287 . S
C1889 C1890 1.524 . S
C1889 H1892 0.999 . S
C1890 H1860 0.950 . S
C1890 C1889 1.524 . S
C1890 C1891 1.415 . S
C1891 H1861 0.950 . S
C1891 C1886 1.363 . S
C1891 C1890 1.415 . S
H1892 C1889 0.999 . S
H1893 C1874 0.913 . S
H1894 C1912 0.951 . S
H1895 C1914 0.951 . S
H1896 C1916 0.950 . S
H1897 C1917 0.950 . S
H1898 C1919 0.950 . S
H1899 C1922 0.950 . S
H1900 C1923 0.950 . S
H1901 C1925 0.950 . S
H1902 C1926 0.950 . S
H1903 C1927 0.951 . S
H1904 C1929 0.951 . S
H1905 C1931 0.950 . S
H1906 C1932 0.950 . S
H1907 C1934 0.950 . S
H1908 C1937 0.950 . S
H1909 C1938 0.950 . S
H1910 C1940 0.950 . S
H1911 C1941 0.950 . S
C1912 H1894 0.951 . S
C1912 C1913 1.366 . S
C1912 C1914 1.388 . S
C1913 C1912 1.366 . S
C1913 C1917 1.385 . S
C1914 H1895 0.951 . S
C1914 C1912 1.388 . S
C1914 C1915 1.366 . S
C1915 C1914 1.366 . S
C1915 C1916 1.414 . S
C1915 C1918 1.499 . S
C1916 H1896 0.950 . S
C1916 C1915 1.414 . S
C1916 C1917 1.374 . S
C1917 H1897 0.950 . S
C1917 C1913 1.385 . S
C1917 C1916 1.374 . S
C1918 C1915 1.499 . S
C1918 C1919 1.373 1_545 S
C1918 C1920 1.389 . S
C1919 H1898 0.950 . S
C1919 C1918 1.373 1_565 S
C1919 C1935 1.377 . S
C1920 C1918 1.389 . S
C1920 C1921 1.524 . S
C1920 C1934 1.377 . S
C1921 C1920 1.524 . S
C1921 C1922 1.397 . S
C1921 C1926 1.363 . S
C1922 H1899 0.950 . S
C1922 C1921 1.397 . S
C1922 C1923 1.334 . S
C1923 H1900 0.950 . S
C1923 C1922 1.334 . S
C1923 C1924 1.287 . S
C1924 C1923 1.287 . S
C1924 C1925 1.524 . S
C1924 H1943 0.913 . S
C1925 H1901 0.950 . S
C1925 C1924 1.524 . S
C1925 C1926 1.415 . S
C1926 H1902 0.950 . S
C1926 C1921 1.363 . S
C1926 C1925 1.415 . S
C1927 H1903 0.951 . S
C1927 C1928 1.366 . S
C1927 C1929 1.388 . S
C1928 C1927 1.366 . S
C1928 C1932 1.385 . S
C1929 H1904 0.951 . S
C1929 C1927 1.388 . S
C1929 C1930 1.366 . S
C1930 C1929 1.366 . S
C1930 C1931 1.414 . S
C1930 C1933 1.499 . S
C1931 H1905 0.950 . S
C1931 C1930 1.414 . S
C1931 C1932 1.374 . S
C1932 H1906 0.950 . S
C1932 C1928 1.385 . S
C1932 C1931 1.374 . S
C1933 C1930 1.499 . S
C1933 C1934 1.373 1_565 S
C1933 C1935 1.389 . S
C1934 H1907 0.950 . S
C1934 C1920 1.377 . S
C1934 C1933 1.373 1_545 S
C1935 C1919 1.377 . S
C1935 C1933 1.389 . S
C1935 C1936 1.524 . S
C1936 C1935 1.524 . S
C1936 C1937 1.397 . S
C1936 C1941 1.363 . S
C1937 H1908 0.950 . S
C1937 C1936 1.397 . S
C1937 C1938 1.334 . S
C1938 H1909 0.950 . S
C1938 C1937 1.334 . S
C1938 C1939 1.287 . S
C1939 C1938 1.287 . S
C1939 C1940 1.524 . S
C1939 H1942 0.999 . S
C1940 H1910 0.950 . S
C1940 C1939 1.524 . S
C1940 C1941 1.415 . S
C1941 H1911 0.950 . S
C1941 C1936 1.363 . S
C1941 C1940 1.415 . S
H1942 C1939 0.999 . S
H1943 C1924 0.913 . S
H1944 C1962 0.951 . S
H1945 C1964 0.951 . S
H1946 C1966 0.950 . S
H1947 C1967 0.950 . S
H1948 C1969 0.950 . S
H1949 C1972 0.950 . S
H1950 C1973 0.950 . S
H1951 C1975 0.950 . S
H1952 C1976 0.950 . S
H1953 C1977 0.951 . S
H1954 C1979 0.951 . S
H1955 C1981 0.950 . S
H1956 C1982 0.950 . S
H1957 C1984 0.950 . S
H1958 C1987 0.950 . S
H1959 C1988 0.950 . S
H1960 C1990 0.950 . S
H1961 C1991 0.950 . S
C1962 H1944 0.951 . S
C1962 C1963 1.366 . S
C1962 C1964 1.388 . S
C1963 C1962 1.366 . S
C1963 C1967 1.385 . S
C1964 H1945 0.951 . S
C1964 C1962 1.388 . S
C1964 C1965 1.366 . S
C1965 C1964 1.366 . S
C1965 C1966 1.414 . S
C1965 C1968 1.499 . S
C1966 H1946 0.950 . S
C1966 C1965 1.414 . S
C1966 C1967 1.374 . S
C1967 H1947 0.950 . S
C1967 C1963 1.385 . S
C1967 C1966 1.374 . S
C1968 C1965 1.499 . S
C1968 C1969 1.373 . S
C1968 C1970 1.389 . S
C1969 H1948 0.950 . S
C1969 C1968 1.373 . S
C1969 C1985 1.377 . S
C1970 C1968 1.389 . S
C1970 C1971 1.524 . S
C1970 C1984 1.377 . S
C1971 C1970 1.524 . S
C1971 C1972 1.397 . S
C1971 C1976 1.363 . S
C1972 H1949 0.950 . S
C1972 C1971 1.397 . S
C1972 C1973 1.334 . S
C1973 H1950 0.950 . S
C1973 C1972 1.334 . S
C1973 C1974 1.287 . S
C1974 C1973 1.287 . S
C1974 C1975 1.524 . S
C1974 H1993 0.913 . S
C1975 H1951 0.950 . S
C1975 C1974 1.524 . S
C1975 C1976 1.415 . S
C1976 H1952 0.950 . S
C1976 C1971 1.363 . S
C1976 C1975 1.415 . S
C1977 H1953 0.951 . S
C1977 C1978 1.366 . S
C1977 C1979 1.388 . S
C1978 C1977 1.366 . S
C1978 C1982 1.385 . S
C1979 H1954 0.951 . S
C1979 C1977 1.388 . S
C1979 C1980 1.366 . S
C1980 C1979 1.366 . S
C1980 C1981 1.414 . S
C1980 C1983 1.499 . S
C1981 H1955 0.950 . S
C1981 C1980 1.414 . S
C1981 C1982 1.374 . S
C1982 H1956 0.950 . S
C1982 C1978 1.385 . S
C1982 C1981 1.374 . S
C1983 C1980 1.499 . S
C1983 C1984 1.373 . S
C1983 C1985 1.389 . S
C1984 H1957 0.950 . S
C1984 C1970 1.377 . S
C1984 C1983 1.373 . S
C1985 C1969 1.377 . S
C1985 C1983 1.389 . S
C1985 C1986 1.524 . S
C1986 C1985 1.524 . S
C1986 C1987 1.397 . S
C1986 C1991 1.363 . S
C1987 H1958 0.950 . S
C1987 C1986 1.397 . S
C1987 C1988 1.334 . S
C1988 H1959 0.950 . S
C1988 C1987 1.334 . S
C1988 C1989 1.287 . S
C1989 C1988 1.287 . S
C1989 C1990 1.524 . S
C1989 H1992 0.999 . S
C1990 H1960 0.950 . S
C1990 C1989 1.524 . S
C1990 C1991 1.415 . S
C1991 H1961 0.950 . S
C1991 C1986 1.363 . S
C1991 C1990 1.415 . S
H1992 C1989 0.999 . S
H1993 C1974 0.913 . S
H1994 C2012 0.951 . S
H1995 C2014 0.951 . S
H1996 C2016 0.950 . S
H1997 C2017 0.950 . S
H1998 C2019 0.950 . S
H1999 C2022 0.950 . S
H2000 C2023 0.950 . S
H2001 C2025 0.950 . S
H2002 C2026 0.950 . S
H2003 C2027 0.951 . S
H2004 C2029 0.951 . S
H2005 C2031 0.950 . S
H2006 C2032 0.950 . S
H2007 C2034 0.950 . S
H2008 C2037 0.950 . S
H2009 C2038 0.950 . S
H2010 C2040 0.950 . S
H2011 C2041 0.950 . S
C2012 H1994 0.951 . S
C2012 C2013 1.366 . S
C2012 C2014 1.388 . S
C2013 C2012 1.366 . S
C2013 C2017 1.385 . S
C2014 H1995 0.951 . S
C2014 C2012 1.388 . S
C2014 C2015 1.366 . S
C2015 C2014 1.366 . S
C2015 C2016 1.414 . S
C2015 C2018 1.499 . S
C2016 H1996 0.950 . S
C2016 C2015 1.414 . S
C2016 C2017 1.374 . S
C2017 H1997 0.950 . S
C2017 C2013 1.385 . S
C2017 C2016 1.374 . S
C2018 C2015 1.499 . S
C2018 C2019 1.373 . S
C2018 C2020 1.389 . S
C2019 H1998 0.950 . S
C2019 C2018 1.373 . S
C2019 C2035 1.377 . S
C2020 C2018 1.389 . S
C2020 C2021 1.524 . S
C2020 C2034 1.377 . S
C2021 C2020 1.524 . S
C2021 C2022 1.397 . S
C2021 C2026 1.363 . S
C2022 H1999 0.950 . S
C2022 C2021 1.397 . S
C2022 C2023 1.334 . S
C2023 H2000 0.950 . S
C2023 C2022 1.334 . S
C2023 C2024 1.287 . S
C2024 C2023 1.287 . S
C2024 C2025 1.524 . S
C2024 H2043 0.913 . S
C2025 H2001 0.950 . S
C2025 C2024 1.524 . S
C2025 C2026 1.415 . S
C2026 H2002 0.950 . S
C2026 C2021 1.363 . S
C2026 C2025 1.415 . S
C2027 H2003 0.951 . S
C2027 C2028 1.366 . S
C2027 C2029 1.388 . S
C2028 C2027 1.366 . S
C2028 C2032 1.385 . S
C2029 H2004 0.951 . S
C2029 C2027 1.388 . S
C2029 C2030 1.366 . S
C2030 C2029 1.366 . S
C2030 C2031 1.414 . S
C2030 C2033 1.499 . S
C2031 H2005 0.950 . S
C2031 C2030 1.414 . S
C2031 C2032 1.374 . S
C2032 H2006 0.950 . S
C2032 C2028 1.385 . S
C2032 C2031 1.374 . S
C2033 C2030 1.499 . S
C2033 C2034 1.373 . S
C2033 C2035 1.389 . S
C2034 H2007 0.950 . S
C2034 C2020 1.377 . S
C2034 C2033 1.373 . S
C2035 C2019 1.377 . S
C2035 C2033 1.389 . S
C2035 C2036 1.524 . S
C2036 C2035 1.524 . S
C2036 C2037 1.397 . S
C2036 C2041 1.363 . S
C2037 H2008 0.950 . S
C2037 C2036 1.397 . S
C2037 C2038 1.334 . S
C2038 H2009 0.950 . S
C2038 C2037 1.334 . S
C2038 C2039 1.287 . S
C2039 C2038 1.287 . S
C2039 C2040 1.524 . S
C2039 H2042 0.999 . S
C2040 H2010 0.950 . S
C2040 C2039 1.524 . S
C2040 C2041 1.415 . S
C2041 H2011 0.950 . S
C2041 C2036 1.363 . S
C2041 C2040 1.415 . S
H2042 C2039 0.999 . S
H2043 C2024 0.913 . S
H2044 C2062 0.951 . S
H2045 C2064 0.951 . S
H2046 C2066 0.950 . S
H2047 C2067 0.950 . S
H2048 C2069 0.950 . S
H2049 C2072 0.950 . S
H2050 C2073 0.950 . S
H2051 C2075 0.950 . S
H2052 C2076 0.950 . S
H2053 C2077 0.951 . S
H2054 C2079 0.951 . S
H2055 C2081 0.950 . S
H2056 C2082 0.950 . S
H2057 C2084 0.950 . S
H2058 C2087 0.950 . S
H2059 C2088 0.950 . S
H2060 C2090 0.950 . S
H2061 C2091 0.950 . S
C2062 H2044 0.951 . S
C2062 C2063 1.366 . S
C2062 C2064 1.388 . S
C2063 C2062 1.366 . S
C2063 C2067 1.385 . S
C2064 H2045 0.951 . S
C2064 C2062 1.388 . S
C2064 C2065 1.366 . S
C2065 C2064 1.366 . S
C2065 C2066 1.414 . S
C2065 C2068 1.499 . S
C2066 H2046 0.950 . S
C2066 C2065 1.414 . S
C2066 C2067 1.374 . S
C2067 H2047 0.950 . S
C2067 C2063 1.385 . S
C2067 C2066 1.374 . S
C2068 C2065 1.499 . S
C2068 C2069 1.373 . S
C2068 C2070 1.389 . S
C2069 H2048 0.950 . S
C2069 C2068 1.373 . S
C2069 C2085 1.377 . S
C2070 C2068 1.389 . S
C2070 C2071 1.524 . S
C2070 C2084 1.377 . S
C2071 C2070 1.524 . S
C2071 C2072 1.397 . S
C2071 C2076 1.363 . S
C2072 H2049 0.950 . S
C2072 C2071 1.397 . S
C2072 C2073 1.334 . S
C2073 H2050 0.950 . S
C2073 C2072 1.334 . S
C2073 C2074 1.287 . S
C2074 C2073 1.287 . S
C2074 C2075 1.524 . S
C2074 H2093 0.913 . S
C2075 H2051 0.950 . S
C2075 C2074 1.524 . S
C2075 C2076 1.415 . S
C2076 H2052 0.950 . S
C2076 C2071 1.363 . S
C2076 C2075 1.415 . S
C2077 H2053 0.951 . S
C2077 C2078 1.366 . S
C2077 C2079 1.388 . S
C2078 C2077 1.366 . S
C2078 C2082 1.385 . S
C2079 H2054 0.951 . S
C2079 C2077 1.388 . S
C2079 C2080 1.366 . S
C2080 C2079 1.366 . S
C2080 C2081 1.414 . S
C2080 C2083 1.499 . S
C2081 H2055 0.950 . S
C2081 C2080 1.414 . S
C2081 C2082 1.374 . S
C2082 H2056 0.950 . S
C2082 C2078 1.385 . S
C2082 C2081 1.374 . S
C2083 C2080 1.499 . S
C2083 C2084 1.373 . S
C2083 C2085 1.389 . S
C2084 H2057 0.950 . S
C2084 C2070 1.377 . S
C2084 C2083 1.373 . S
C2085 C2069 1.377 . S
C2085 C2083 1.389 . S
C2085 C2086 1.524 . S
C2086 C2085 1.524 . S
C2086 C2087 1.397 . S
C2086 C2091 1.363 . S
C2087 H2058 0.950 . S
C2087 C2086 1.397 . S
C2087 C2088 1.334 . S
C2088 H2059 0.950 . S
C2088 C2087 1.334 . S
C2088 C2089 1.287 . S
C2089 C2088 1.287 . S
C2089 C2090 1.524 . S
C2089 H2092 0.999 . S
C2090 H2060 0.950 . S
C2090 C2089 1.524 . S
C2090 C2091 1.415 . S
C2091 H2061 0.950 . S
C2091 C2086 1.363 . S
C2091 C2090 1.415 . S
H2092 C2089 0.999 . S
H2093 C2074 0.913 . S
H2094 C2112 0.951 . S
H2095 C2114 0.951 . S
H2096 C2116 0.950 . S
H2097 C2117 0.950 . S
H2098 C2119 0.950 . S
H2099 C2122 0.950 . S
H2100 C2123 0.950 . S
H2101 C2125 0.950 . S
H2102 C2126 0.950 . S
H2103 C2127 0.951 . S
H2104 C2129 0.951 . S
H2105 C2131 0.950 . S
H2106 C2132 0.950 . S
H2107 C2134 0.950 . S
H2108 C2137 0.950 . S
H2109 C2138 0.950 . S
H2110 C2140 0.950 . S
H2111 C2141 0.950 . S
C2112 H2094 0.951 . S
C2112 C2113 1.366 . S
C2112 C2114 1.388 . S
C2113 C2112 1.366 . S
C2113 C2117 1.385 . S
C2114 H2095 0.951 . S
C2114 C2112 1.388 . S
C2114 C2115 1.366 . S
C2115 C2114 1.366 . S
C2115 C2116 1.414 . S
C2115 C2118 1.499 . S
C2116 H2096 0.950 . S
C2116 C2115 1.414 . S
C2116 C2117 1.374 . S
C2117 H2097 0.950 . S
C2117 C2113 1.385 . S
C2117 C2116 1.374 . S
C2118 C2115 1.499 . S
C2118 C2119 1.373 . S
C2118 C2120 1.389 . S
C2119 H2098 0.950 . S
C2119 C2118 1.373 . S
C2119 C2135 1.377 . S
C2120 C2118 1.389 . S
C2120 C2121 1.524 . S
C2120 C2134 1.377 . S
C2121 C2120 1.524 . S
C2121 C2122 1.397 . S
C2121 C2126 1.363 . S
C2122 H2099 0.950 . S
C2122 C2121 1.397 . S
C2122 C2123 1.334 . S
C2123 H2100 0.950 . S
C2123 C2122 1.334 . S
C2123 C2124 1.287 . S
C2124 C2123 1.287 . S
C2124 C2125 1.524 . S
C2124 H2143 0.913 . S
C2125 H2101 0.950 . S
C2125 C2124 1.524 . S
C2125 C2126 1.415 . S
C2126 H2102 0.950 . S
C2126 C2121 1.363 . S
C2126 C2125 1.415 . S
C2127 H2103 0.951 . S
C2127 C2128 1.366 . S
C2127 C2129 1.388 . S
C2128 C2127 1.366 . S
C2128 C2132 1.385 . S
C2129 H2104 0.951 . S
C2129 C2127 1.388 . S
C2129 C2130 1.366 . S
C2130 C2129 1.366 . S
C2130 C2131 1.414 . S
C2130 C2133 1.499 . S
C2131 H2105 0.950 . S
C2131 C2130 1.414 . S
C2131 C2132 1.374 . S
C2132 H2106 0.950 . S
C2132 C2128 1.385 . S
C2132 C2131 1.374 . S
C2133 C2130 1.499 . S
C2133 C2134 1.373 . S
C2133 C2135 1.389 . S
C2134 H2107 0.950 . S
C2134 C2120 1.377 . S
C2134 C2133 1.373 . S
C2135 C2119 1.377 . S
C2135 C2133 1.389 . S
C2135 C2136 1.524 . S
C2136 C2135 1.524 . S
C2136 C2137 1.397 . S
C2136 C2141 1.363 . S
C2137 H2108 0.950 . S
C2137 C2136 1.397 . S
C2137 C2138 1.334 . S
C2138 H2109 0.950 . S
C2138 C2137 1.334 . S
C2138 C2139 1.287 . S
C2139 C2138 1.287 . S
C2139 C2140 1.524 . S
C2139 H2142 0.999 . S
C2140 H2110 0.950 . S
C2140 C2139 1.524 . S
C2140 C2141 1.415 . S
C2141 H2111 0.950 . S
C2141 C2136 1.363 . S
C2141 C2140 1.415 . S
H2142 C2139 0.999 . S
H2143 C2124 0.913 . S
H2144 C2162 0.951 . S
H2145 C2164 0.951 . S
H2146 C2166 0.950 . S
H2147 C2167 0.950 . S
H2148 C2169 0.950 . S
H2149 C2172 0.910 1_455 S
H2150 C2173 0.950 1_455 S
H2151 C2175 0.950 . S
H2152 C2176 0.950 . S
H2153 C2177 0.951 . S
H2154 C2179 0.951 . S
H2155 C2181 0.950 . S
H2156 C2182 0.950 . S
H2157 C2184 0.950 . S
H2158 C2187 0.910 1_655 S
H2159 C2188 0.950 1_655 S
H2160 C2190 0.950 . S
H2161 C2191 0.950 . S
C2162 H2144 0.951 . S
C2162 C2163 1.366 . S
C2162 C2164 1.388 . S
C2163 C2162 1.366 . S
C2163 C2167 1.385 . S
C2164 H2145 0.951 . S
C2164 C2162 1.388 . S
C2164 C2165 1.366 . S
C2165 C2164 1.366 . S
C2165 C2166 1.414 . S
C2165 C2168 1.499 . S
C2166 H2146 0.950 . S
C2166 C2165 1.414 . S
C2166 C2167 1.374 . S
C2167 H2147 0.950 . S
C2167 C2163 1.385 . S
C2167 C2166 1.374 . S
C2168 C2165 1.499 . S
C2168 C2169 1.373 . S
C2168 C2170 1.389 1_455 S
C2169 H2148 0.950 . S
C2169 C2168 1.373 . S
C2169 C2185 1.377 . S
C2170 C2168 1.389 1_655 S
C2170 C2171 1.524 . S
C2170 C2184 1.377 . S
C2171 C2170 1.524 . S
C2171 C2172 1.424 . S
C2171 C2176 1.363 . S
C2172 H2149 0.910 1_655 S
C2172 C2171 1.424 . S
C2172 C2173 1.347 . S
C2173 H2150 0.950 1_655 S
C2173 C2172 1.347 . S
C2173 C2174 1.287 . S
C2174 C2173 1.287 . S
C2174 C2175 1.524 . S
C2174 H2193 0.913 . S
C2175 H2151 0.950 . S
C2175 C2174 1.524 . S
C2175 C2176 1.415 . S
C2176 H2152 0.950 . S
C2176 C2171 1.363 . S
C2176 C2175 1.415 . S
C2177 H2153 0.951 . S
C2177 C2178 1.366 . S
C2177 C2179 1.388 . S
C2178 C2177 1.366 . S
C2178 C2182 1.385 . S
C2179 H2154 0.951 . S
C2179 C2177 1.388 . S
C2179 C2180 1.366 . S
C2180 C2179 1.366 . S
C2180 C2181 1.414 . S
C2180 C2183 1.499 . S
C2181 H2155 0.950 . S
C2181 C2180 1.414 . S
C2181 C2182 1.374 . S
C2182 H2156 0.950 . S
C2182 C2178 1.385 . S
C2182 C2181 1.374 . S
C2183 C2180 1.499 . S
C2183 C2184 1.373 . S
C2183 C2185 1.389 1_655 S
C2184 H2157 0.950 . S
C2184 C2170 1.377 . S
C2184 C2183 1.373 . S
C2185 C2169 1.377 . S
C2185 C2183 1.389 1_455 S
C2185 C2186 1.524 . S
C2186 C2185 1.524 . S
C2186 C2187 1.424 . S
C2186 C2191 1.363 . S
C2187 H2158 0.910 1_455 S
C2187 C2186 1.424 . S
C2187 C2188 1.347 . S
C2188 H2159 0.950 1_455 S
C2188 C2187 1.347 . S
C2188 C2189 1.287 . S
C2189 C2188 1.287 . S
C2189 C2190 1.524 . S
C2189 H2192 0.999 . S
C2190 H2160 0.950 . S
C2190 C2189 1.524 . S
C2190 C2191 1.415 . S
C2191 H2161 0.950 . S
C2191 C2186 1.363 . S
C2191 C2190 1.415 . S
H2192 C2189 0.999 . S
H2193 C2174 0.913 . S
H2194 C2212 0.951 . S
H2195 C2214 0.951 . S
H2196 C2216 0.950 . S
H2197 C2217 0.950 . S
H2198 C2219 0.950 . S
H2199 C2222 0.950 . S
H2200 C2223 0.950 . S
H2201 C2225 0.950 . S
H2202 C2226 0.950 . S
H2203 C2227 0.951 . S
H2204 C2229 0.951 . S
H2205 C2231 0.950 . S
H2206 C2232 0.950 . S
H2207 C2234 0.950 . S
H2208 C2237 0.950 . S
H2209 C2238 0.950 . S
H2210 C2240 0.950 . S
H2211 C2241 0.950 . S
C2212 H2194 0.951 . S
C2212 C2213 1.366 . S
C2212 C2214 1.388 . S
C2213 C2212 1.366 . S
C2213 C2217 1.385 . S
C2214 H2195 0.951 . S
C2214 C2212 1.388 . S
C2214 C2215 1.366 . S
C2215 C2214 1.366 . S
C2215 C2216 1.414 . S
C2215 C2218 1.499 . S
C2216 H2196 0.950 . S
C2216 C2215 1.414 . S
C2216 C2217 1.374 . S
C2217 H2197 0.950 . S
C2217 C2213 1.385 . S
C2217 C2216 1.374 . S
C2218 C2215 1.499 . S
C2218 C2219 1.373 . S
C2218 C2220 1.389 . S
C2219 H2198 0.950 . S
C2219 C2218 1.373 . S
C2219 C2235 1.377 . S
C2220 C2218 1.389 . S
C2220 C2221 1.524 . S
C2220 C2234 1.377 . S
C2221 C2220 1.524 . S
C2221 C2222 1.397 . S
C2221 C2226 1.363 . S
C2222 H2199 0.950 . S
C2222 C2221 1.397 . S
C2222 C2223 1.334 . S
C2223 H2200 0.950 . S
C2223 C2222 1.334 . S
C2223 C2224 1.287 . S
C2224 C2223 1.287 . S
C2224 C2225 1.524 . S
C2224 H2243 0.913 . S
C2225 H2201 0.950 . S
C2225 C2224 1.524 . S
C2225 C2226 1.415 . S
C2226 H2202 0.950 . S
C2226 C2221 1.363 . S
C2226 C2225 1.415 . S
C2227 H2203 0.951 . S
C2227 C2228 1.366 . S
C2227 C2229 1.388 . S
C2228 C2227 1.366 . S
C2228 C2232 1.385 . S
C2229 H2204 0.951 . S
C2229 C2227 1.388 . S
C2229 C2230 1.366 . S
C2230 C2229 1.366 . S
C2230 C2231 1.414 . S
C2230 C2233 1.499 . S
C2231 H2205 0.950 . S
C2231 C2230 1.414 . S
C2231 C2232 1.374 . S
C2232 H2206 0.950 . S
C2232 C2228 1.385 . S
C2232 C2231 1.374 . S
C2233 C2230 1.499 . S
C2233 C2234 1.373 . S
C2233 C2235 1.389 . S
C2234 H2207 0.950 . S
C2234 C2220 1.377 . S
C2234 C2233 1.373 . S
C2235 C2219 1.377 . S
C2235 C2233 1.389 . S
C2235 C2236 1.524 . S
C2236 C2235 1.524 . S
C2236 C2237 1.397 . S
C2236 C2241 1.363 . S
C2237 H2208 0.950 . S
C2237 C2236 1.397 . S
C2237 C2238 1.334 . S
C2238 H2209 0.950 . S
C2238 C2237 1.334 . S
C2238 C2239 1.287 . S
C2239 C2238 1.287 . S
C2239 C2240 1.524 . S
C2239 H2242 0.999 . S
C2240 H2210 0.950 . S
C2240 C2239 1.524 . S
C2240 C2241 1.415 . S
C2241 H2211 0.950 . S
C2241 C2236 1.363 . S
C2241 C2240 1.415 . S
H2242 C2239 0.999 . S
H2243 C2224 0.913 . S
H2244 C2262 0.951 . S
H2245 C2264 0.951 . S
H2246 C2266 0.950 . S
H2247 C2267 0.950 . S
H2248 C2269 0.950 . S
H2249 C2272 0.950 . S
H2250 C2273 0.950 . S
H2251 C2275 0.950 . S
H2252 C2276 0.950 . S
H2253 C2277 0.951 . S
H2254 C2279 0.951 . S
H2255 C2281 0.950 . S
H2256 C2282 0.950 . S
H2257 C2284 0.950 . S
H2258 C2287 0.950 . S
H2259 C2288 0.950 . S
H2260 C2290 0.950 . S
H2261 C2291 0.950 . S
C2262 H2244 0.951 . S
C2262 C2263 1.366 . S
C2262 C2264 1.388 . S
C2263 C2262 1.366 . S
C2263 C2267 1.385 . S
C2264 H2245 0.951 . S
C2264 C2262 1.388 . S
C2264 C2265 1.366 . S
C2265 C2264 1.366 . S
C2265 C2266 1.414 . S
C2265 C2268 1.499 . S
C2266 H2246 0.950 . S
C2266 C2265 1.414 . S
C2266 C2267 1.374 . S
C2267 H2247 0.950 . S
C2267 C2263 1.385 . S
C2267 C2266 1.374 . S
C2268 C2265 1.499 . S
C2268 C2269 1.373 . S
C2268 C2270 1.389 . S
C2269 H2248 0.950 . S
C2269 C2268 1.373 . S
C2269 C2285 1.377 . S
C2270 C2268 1.389 . S
C2270 C2271 1.524 . S
C2270 C2284 1.377 . S
C2271 C2270 1.524 . S
C2271 C2272 1.397 . S
C2271 C2276 1.363 . S
C2272 H2249 0.950 . S
C2272 C2271 1.397 . S
C2272 C2273 1.334 . S
C2273 H2250 0.950 . S
C2273 C2272 1.334 . S
C2273 C2274 1.287 . S
C2274 C2273 1.287 . S
C2274 C2275 1.524 . S
C2274 H2293 0.913 . S
C2275 H2251 0.950 . S
C2275 C2274 1.524 . S
C2275 C2276 1.415 . S
C2276 H2252 0.950 . S
C2276 C2271 1.363 . S
C2276 C2275 1.415 . S
C2277 H2253 0.951 . S
C2277 C2278 1.366 . S
C2277 C2279 1.388 . S
C2278 C2277 1.366 . S
C2278 C2282 1.385 . S
C2279 H2254 0.951 . S
C2279 C2277 1.388 . S
C2279 C2280 1.366 . S
C2280 C2279 1.366 . S
C2280 C2281 1.414 . S
C2280 C2283 1.499 . S
C2281 H2255 0.950 . S
C2281 C2280 1.414 . S
C2281 C2282 1.374 . S
C2282 H2256 0.950 . S
C2282 C2278 1.385 . S
C2282 C2281 1.374 . S
C2283 C2280 1.499 . S
C2283 C2284 1.373 . S
C2283 C2285 1.389 . S
C2284 H2257 0.950 . S
C2284 C2270 1.377 . S
C2284 C2283 1.373 . S
C2285 C2269 1.377 . S
C2285 C2283 1.389 . S
C2285 C2286 1.524 . S
C2286 C2285 1.524 . S
C2286 C2287 1.397 . S
C2286 C2291 1.363 . S
C2287 H2258 0.950 . S
C2287 C2286 1.397 . S
C2287 C2288 1.334 . S
C2288 H2259 0.950 . S
C2288 C2287 1.334 . S
C2288 C2289 1.287 . S
C2289 C2288 1.287 . S
C2289 C2290 1.524 . S
C2289 H2292 0.999 . S
C2290 H2260 0.950 . S
C2290 C2289 1.524 . S
C2290 C2291 1.415 . S
C2291 H2261 0.950 . S
C2291 C2286 1.363 . S
C2291 C2290 1.415 . S
H2292 C2289 0.999 . S
H2293 C2274 0.913 . S
H2294 C2312 0.951 . S
H2295 C2314 0.951 . S
H2296 C2316 0.950 . S
H2297 C2317 0.950 . S
H2298 C2319 0.950 . S
H2299 C2322 0.950 . S
H2300 C2323 0.950 . S
H2301 C2325 0.950 . S
H2302 C2326 0.950 . S
H2303 C2327 0.951 . S
H2304 C2329 0.951 . S
H2305 C2331 0.950 . S
H2306 C2332 0.950 . S
H2307 C2334 0.950 . S
H2308 C2337 0.950 . S
H2309 C2338 0.950 . S
H2310 C2340 0.950 . S
H2311 C2341 0.950 . S
C2312 H2294 0.951 . S
C2312 C2313 1.366 . S
C2312 C2314 1.388 . S
C2313 C2312 1.366 . S
C2313 C2317 1.385 . S
C2314 H2295 0.951 . S
C2314 C2312 1.388 . S
C2314 C2315 1.366 . S
C2315 C2314 1.366 . S
C2315 C2316 1.414 . S
C2315 C2318 1.499 . S
C2316 H2296 0.950 . S
C2316 C2315 1.414 . S
C2316 C2317 1.374 . S
C2317 H2297 0.950 . S
C2317 C2313 1.385 . S
C2317 C2316 1.374 . S
C2318 C2315 1.499 . S
C2318 C2319 1.373 . S
C2318 C2320 1.386 . S
C2319 H2298 0.950 . S
C2319 C2318 1.373 . S
C2319 C2335 1.380 1_655 S
C2320 C2318 1.386 . S
C2320 C2321 1.524 1_655 S
C2320 C2334 1.380 1_655 S
C2321 C2320 1.524 1_455 S
C2321 C2322 1.391 1_455 S
C2321 C2326 1.368 . S
C2322 H2299 0.950 . S
C2322 C2321 1.391 1_655 S
C2322 C2323 1.334 . S
C2323 H2300 0.950 . S
C2323 C2322 1.334 . S
C2323 C2324 1.287 . S
C2324 C2323 1.287 . S
C2324 C2325 1.524 1_655 S
C2324 H2343 0.913 . S
C2325 H2301 0.950 . S
C2325 C2324 1.524 1_455 S
C2325 C2326 1.415 . S
C2326 H2302 0.950 . S
C2326 C2321 1.368 . S
C2326 C2325 1.415 . S
C2327 H2303 0.951 . S
C2327 C2328 1.366 . S
C2327 C2329 1.388 . S
C2328 C2327 1.366 . S
C2328 C2332 1.385 . S
C2329 H2304 0.951 . S
C2329 C2327 1.388 . S
C2329 C2330 1.366 . S
C2330 C2329 1.366 . S
C2330 C2331 1.414 . S
C2330 C2333 1.499 . S
C2331 H2305 0.950 . S
C2331 C2330 1.414 . S
C2331 C2332 1.374 . S
C2332 H2306 0.950 . S
C2332 C2328 1.385 . S
C2332 C2331 1.374 . S
C2333 C2330 1.499 . S
C2333 C2334 1.373 . S
C2333 C2335 1.386 . S
C2334 H2307 0.950 . S
C2334 C2320 1.380 1_455 S
C2334 C2333 1.373 . S
C2335 C2319 1.380 1_455 S
C2335 C2333 1.386 . S
C2335 C2336 1.524 1_455 S
C2336 C2335 1.524 1_655 S
C2336 C2337 1.391 1_655 S
C2336 C2341 1.368 . S
C2337 H2308 0.950 . S
C2337 C2336 1.391 1_455 S
C2337 C2338 1.334 . S
C2338 H2309 0.950 . S
C2338 C2337 1.334 . S
C2338 C2339 1.287 . S
C2339 C2338 1.287 . S
C2339 C2340 1.524 1_455 S
C2339 H2342 0.999 . S
C2340 H2310 0.950 . S
C2340 C2339 1.524 1_655 S
C2340 C2341 1.415 . S
C2341 H2311 0.950 . S
C2341 C2336 1.368 . S
C2341 C2340 1.415 . S
H2342 C2339 0.999 . S
H2343 C2324 0.913 . S
H2344 C2362 0.951 . S
H2345 C2364 0.951 . S
H2346 C2366 0.950 . S
H2347 C2367 0.950 . S
H2348 C2369 0.950 . S
H2349 C2372 0.950 . S
H2350 C2373 0.950 . S
H2351 C2375 0.950 . S
H2352 C2376 0.950 . S
H2353 C2377 0.951 . S
H2354 C2379 0.951 . S
H2355 C2381 0.950 . S
H2356 C2382 0.950 . S
H2357 C2384 0.950 . S
H2358 C2387 0.950 . S
H2359 C2388 0.950 . S
H2360 C2390 0.950 . S
H2361 C2391 0.950 . S
C2362 H2344 0.951 . S
C2362 C2363 1.366 . S
C2362 C2364 1.388 . S
C2363 C2362 1.366 . S
C2363 C2367 1.385 . S
C2364 H2345 0.951 . S
C2364 C2362 1.388 . S
C2364 C2365 1.366 . S
C2365 C2364 1.366 . S
C2365 C2366 1.414 . S
C2365 C2368 1.499 . S
C2366 H2346 0.950 . S
C2366 C2365 1.414 . S
C2366 C2367 1.374 . S
C2367 H2347 0.950 . S
C2367 C2363 1.385 . S
C2367 C2366 1.374 . S
C2368 C2365 1.499 . S
C2368 C2369 1.373 . S
C2368 C2370 1.392 . S
C2369 H2348 0.950 . S
C2369 C2368 1.373 . S
C2369 C2385 1.374 1_655 S
C2370 C2368 1.392 . S
C2370 C2371 1.524 . S
C2370 C2384 1.374 1_655 S
C2371 C2370 1.524 . S
C2371 C2372 1.399 . S
C2371 C2376 1.360 1_655 S
C2372 H2349 0.950 . S
C2372 C2371 1.399 . S
C2372 C2373 1.334 . S
C2373 H2350 0.950 . S
C2373 C2372 1.334 . S
C2373 C2374 1.287 . S
C2374 C2373 1.287 . S
C2374 C2375 1.524 1_655 S
C2374 H2393 0.913 . S
C2375 H2351 0.950 . S
C2375 C2374 1.524 1_455 S
C2375 C2376 1.415 . S
C2376 H2352 0.950 . S
C2376 C2371 1.360 1_455 S
C2376 C2375 1.415 . S
C2377 H2353 0.951 . S
C2377 C2378 1.366 . S
C2377 C2379 1.388 . S
C2378 C2377 1.366 . S
C2378 C2382 1.385 . S
C2379 H2354 0.951 . S
C2379 C2377 1.388 . S
C2379 C2380 1.366 . S
C2380 C2379 1.366 . S
C2380 C2381 1.414 . S
C2380 C2383 1.499 . S
C2381 H2355 0.950 . S
C2381 C2380 1.414 . S
C2381 C2382 1.374 . S
C2382 H2356 0.950 . S
C2382 C2378 1.385 . S
C2382 C2381 1.374 . S
C2383 C2380 1.499 . S
C2383 C2384 1.373 . S
C2383 C2385 1.392 . S
C2384 H2357 0.950 . S
C2384 C2370 1.374 1_455 S
C2384 C2383 1.373 . S
C2385 C2369 1.374 1_455 S
C2385 C2383 1.392 . S
C2385 C2386 1.524 . S
C2386 C2385 1.524 . S
C2386 C2387 1.399 . S
C2386 C2391 1.360 1_455 S
C2387 H2358 0.950 . S
C2387 C2386 1.399 . S
C2387 C2388 1.334 . S
C2388 H2359 0.950 . S
C2388 C2387 1.334 . S
C2388 C2389 1.287 . S
C2389 C2388 1.287 . S
C2389 C2390 1.524 1_455 S
C2389 H2392 0.999 . S
C2390 H2360 0.950 . S
C2390 C2389 1.524 1_655 S
C2390 C2391 1.415 . S
C2391 H2361 0.950 . S
C2391 C2386 1.360 1_655 S
C2391 C2390 1.415 . S
H2392 C2389 0.999 . S
H2393 C2374 0.913 . S
H2394 C2412 0.951 . S
H2395 C2414 0.951 . S
H2396 C2416 0.950 . S
H2397 C2417 0.950 . S
H2398 C2419 0.950 . S
H2399 C2422 0.950 . S
H2400 C2423 0.950 . S
H2401 C2425 0.950 . S
H2402 C2426 0.950 . S
H2403 C2427 0.951 . S
H2404 C2429 0.951 . S
H2405 C2431 0.950 . S
H2406 C2432 0.950 . S
H2407 C2434 0.950 . S
H2408 C2437 0.950 . S
H2409 C2438 0.950 . S
H2410 C2440 0.950 . S
H2411 C2441 0.950 . S
C2412 H2394 0.951 . S
C2412 C2413 1.366 . S
C2412 C2414 1.388 . S
C2413 C2412 1.366 . S
C2413 C2417 1.385 . S
C2414 H2395 0.951 . S
C2414 C2412 1.388 . S
C2414 C2415 1.366 . S
C2415 C2414 1.366 . S
C2415 C2416 1.414 . S
C2415 C2418 1.499 . S
C2416 H2396 0.950 . S
C2416 C2415 1.414 . S
C2416 C2417 1.374 . S
C2417 H2397 0.950 . S
C2417 C2413 1.385 . S
C2417 C2416 1.374 . S
C2418 C2415 1.499 . S
C2418 C2419 1.373 . S
C2418 C2420 1.389 . S
C2419 H2398 0.950 . S
C2419 C2418 1.373 . S
C2419 C2435 1.377 . S
C2420 C2418 1.389 . S
C2420 C2421 1.524 . S
C2420 C2434 1.377 . S
C2421 C2420 1.524 . S
C2421 C2422 1.397 . S
C2421 C2426 1.363 . S
C2422 H2399 0.950 . S
C2422 C2421 1.397 . S
C2422 C2423 1.334 . S
C2423 H2400 0.950 . S
C2423 C2422 1.334 . S
C2423 C2424 1.287 . S
C2424 C2423 1.287 . S
C2424 C2425 1.524 . S
C2424 H2443 0.913 . S
C2425 H2401 0.950 . S
C2425 C2424 1.524 . S
C2425 C2426 1.415 . S
C2426 H2402 0.950 . S
C2426 C2421 1.363 . S
C2426 C2425 1.415 . S
C2427 H2403 0.951 . S
C2427 C2428 1.366 . S
C2427 C2429 1.388 . S
C2428 C2427 1.366 . S
C2428 C2432 1.385 . S
C2429 H2404 0.951 . S
C2429 C2427 1.388 . S
C2429 C2430 1.366 . S
C2430 C2429 1.366 . S
C2430 C2431 1.414 . S
C2430 C2433 1.499 . S
C2431 H2405 0.950 . S
C2431 C2430 1.414 . S
C2431 C2432 1.374 . S
C2432 H2406 0.950 . S
C2432 C2428 1.385 . S
C2432 C2431 1.374 . S
C2433 C2430 1.499 . S
C2433 C2434 1.373 . S
C2433 C2435 1.389 . S
C2434 H2407 0.950 . S
C2434 C2420 1.377 . S
C2434 C2433 1.373 . S
C2435 C2419 1.377 . S
C2435 C2433 1.389 . S
C2435 C2436 1.524 . S
C2436 C2435 1.524 . S
C2436 C2437 1.397 . S
C2436 C2441 1.363 . S
C2437 H2408 0.950 . S
C2437 C2436 1.397 . S
C2437 C2438 1.334 . S
C2438 H2409 0.950 . S
C2438 C2437 1.334 . S
C2438 C2439 1.287 . S
C2439 C2438 1.287 . S
C2439 C2440 1.524 . S
C2439 H2442 0.999 . S
C2440 H2410 0.950 . S
C2440 C2439 1.524 . S
C2440 C2441 1.415 . S
C2441 H2411 0.950 . S
C2441 C2436 1.363 . S
C2441 C2440 1.415 . S
H2442 C2439 0.999 . S
H2443 C2424 0.913 . S
H2444 C2462 0.951 . S
H2445 C2464 0.951 . S
H2446 C2466 0.950 . S
H2447 C2467 0.950 . S
H2448 C2469 0.950 . S
H2449 C2472 0.950 . S
H2450 C2473 0.950 . S
H2451 C2475 0.950 . S
H2452 C2476 0.950 . S
H2453 C2477 0.951 . S
H2454 C2479 0.951 . S
H2455 C2481 0.950 . S
H2456 C2482 0.950 . S
H2457 C2484 0.950 . S
H2458 C2487 0.950 . S
H2459 C2488 0.950 . S
H2460 C2490 0.950 . S
H2461 C2491 0.950 . S
C2462 H2444 0.951 . S
C2462 C2463 1.366 . S
C2462 C2464 1.388 . S
C2463 C2462 1.366 . S
C2463 C2467 1.385 . S
C2464 H2445 0.951 . S
C2464 C2462 1.388 . S
C2464 C2465 1.366 . S
C2465 C2464 1.366 . S
C2465 C2466 1.414 . S
C2465 C2468 1.499 . S
C2466 H2446 0.950 . S
C2466 C2465 1.414 . S
C2466 C2467 1.374 . S
C2467 H2447 0.950 . S
C2467 C2463 1.385 . S
C2467 C2466 1.374 . S
C2468 C2465 1.499 . S
C2468 C2469 1.373 . S
C2468 C2470 1.389 . S
C2469 H2448 0.950 . S
C2469 C2468 1.373 . S
C2469 C2485 1.377 . S
C2470 C2468 1.389 . S
C2470 C2471 1.524 . S
C2470 C2484 1.377 . S
C2471 C2470 1.524 . S
C2471 C2472 1.397 . S
C2471 C2476 1.363 . S
C2472 H2449 0.950 . S
C2472 C2471 1.397 . S
C2472 C2473 1.334 . S
C2473 H2450 0.950 . S
C2473 C2472 1.334 . S
C2473 C2474 1.287 . S
C2474 C2473 1.287 . S
C2474 C2475 1.524 . S
C2474 H2493 0.913 . S
C2475 H2451 0.950 . S
C2475 C2474 1.524 . S
C2475 C2476 1.415 . S
C2476 H2452 0.950 . S
C2476 C2471 1.363 . S
C2476 C2475 1.415 . S
C2477 H2453 0.951 . S
C2477 C2478 1.366 . S
C2477 C2479 1.388 . S
C2478 C2477 1.366 . S
C2478 C2482 1.385 . S
C2479 H2454 0.951 . S
C2479 C2477 1.388 . S
C2479 C2480 1.366 . S
C2480 C2479 1.366 . S
C2480 C2481 1.414 . S
C2480 C2483 1.499 . S
C2481 H2455 0.950 . S
C2481 C2480 1.414 . S
C2481 C2482 1.374 . S
C2482 H2456 0.950 . S
C2482 C2478 1.385 . S
C2482 C2481 1.374 . S
C2483 C2480 1.499 . S
C2483 C2484 1.373 . S
C2483 C2485 1.389 . S
C2484 H2457 0.950 . S
C2484 C2470 1.377 . S
C2484 C2483 1.373 . S
C2485 C2469 1.377 . S
C2485 C2483 1.389 . S
C2485 C2486 1.524 . S
C2486 C2485 1.524 . S
C2486 C2487 1.397 . S
C2486 C2491 1.363 . S
C2487 H2458 0.950 . S
C2487 C2486 1.397 . S
C2487 C2488 1.334 . S
C2488 H2459 0.950 . S
C2488 C2487 1.334 . S
C2488 C2489 1.287 . S
C2489 C2488 1.287 . S
C2489 C2490 1.524 . S
C2489 H2492 0.999 . S
C2490 H2460 0.950 . S
C2490 C2489 1.524 . S
C2490 C2491 1.415 . S
C2491 H2461 0.950 . S
C2491 C2486 1.363 . S
C2491 C2490 1.415 . S
H2492 C2489 0.999 . S
H2493 C2474 0.913 . S
H2494 C2512 0.951 . S
H2495 C2514 0.951 . S
H2496 C2516 0.950 . S
H2497 C2517 0.950 . S
H2498 C2519 0.950 . S
H2499 C2522 0.950 . S
H2500 C2523 0.950 . S
H2501 C2525 0.950 . S
H2502 C2526 0.950 . S
H2503 C2527 0.951 . S
H2504 C2529 0.951 . S
H2505 C2531 0.950 . S
H2506 C2532 0.950 . S
H2507 C2534 0.950 . S
H2508 C2537 0.950 . S
H2509 C2538 0.950 . S
H2510 C2540 0.950 . S
H2511 C2541 0.950 . S
C2512 H2494 0.951 . S
C2512 C2513 1.366 . S
C2512 C2514 1.388 . S
C2513 C2512 1.366 . S
C2513 C2517 1.385 . S
C2514 H2495 0.951 . S
C2514 C2512 1.388 . S
C2514 C2515 1.366 . S
C2515 C2514 1.366 . S
C2515 C2516 1.414 . S
C2515 C2518 1.499 . S
C2516 H2496 0.950 . S
C2516 C2515 1.414 . S
C2516 C2517 1.374 . S
C2517 H2497 0.950 . S
C2517 C2513 1.385 . S
C2517 C2516 1.374 . S
C2518 C2515 1.499 . S
C2518 C2519 1.373 1_655 S
C2518 C2520 1.389 . S
C2519 H2498 0.950 . S
C2519 C2518 1.373 1_455 S
C2519 C2535 1.377 . S
C2520 C2518 1.389 . S
C2520 C2521 1.524 . S
C2520 C2534 1.377 . S
C2521 C2520 1.524 . S
C2521 C2522 1.397 . S
C2521 C2526 1.363 . S
C2522 H2499 0.950 . S
C2522 C2521 1.397 . S
C2522 C2523 1.334 . S
C2523 H2500 0.950 . S
C2523 C2522 1.334 . S
C2523 C2524 1.287 . S
C2524 C2523 1.287 . S
C2524 C2525 1.524 . S
C2524 H2543 0.913 . S
C2525 H2501 0.950 . S
C2525 C2524 1.524 . S
C2525 C2526 1.415 . S
C2526 H2502 0.950 . S
C2526 C2521 1.363 . S
C2526 C2525 1.415 . S
C2527 H2503 0.951 . S
C2527 C2528 1.366 . S
C2527 C2529 1.388 . S
C2528 C2527 1.366 . S
C2528 C2532 1.385 . S
C2529 H2504 0.951 . S
C2529 C2527 1.388 . S
C2529 C2530 1.366 . S
C2530 C2529 1.366 . S
C2530 C2531 1.414 . S
C2530 C2533 1.499 . S
C2531 H2505 0.950 . S
C2531 C2530 1.414 . S
C2531 C2532 1.374 . S
C2532 H2506 0.950 . S
C2532 C2528 1.385 . S
C2532 C2531 1.374 . S
C2533 C2530 1.499 . S
C2533 C2534 1.373 1_455 S
C2533 C2535 1.389 . S
C2534 H2507 0.950 . S
C2534 C2520 1.377 . S
C2534 C2533 1.373 1_655 S
C2535 C2519 1.377 . S
C2535 C2533 1.389 . S
C2535 C2536 1.524 . S
C2536 C2535 1.524 . S
C2536 C2537 1.397 . S
C2536 C2541 1.363 . S
C2537 H2508 0.950 . S
C2537 C2536 1.397 . S
C2537 C2538 1.334 . S
C2538 H2509 0.950 . S
C2538 C2537 1.334 . S
C2538 C2539 1.287 . S
C2539 C2538 1.287 . S
C2539 C2540 1.524 . S
C2539 H2542 0.999 . S
C2540 H2510 0.950 . S
C2540 C2539 1.524 . S
C2540 C2541 1.415 . S
C2541 H2511 0.950 . S
C2541 C2536 1.363 . S
C2541 C2540 1.415 . S
H2542 C2539 0.999 . S
H2543 C2524 0.913 . S
C563 C135 0.876 . S
C578 C33 0.877 . S
C613 C101 0.877 . S
C628 C67 0.877 . S
C663 C169 0.877 . S
C678 C271 0.876 . S
C713 C203 0.877 . S
C728 C237 0.876 . S
C763 C305 0.876 . S
C778 C407 0.877 . S
C813 C339 0.877 . S
C828 C373 0.876 . S
C863 C543 0.877 . S
C878 C441 0.876 . S
C913 C509 0.877 . S
C928 C475 0.877 . S
C963 C5 0.664 . S
C978 C345 0.663 . S
C1013 C379 0.662 . S
C1028 C39 0.664 . S
C1063 C277 0.664 . S
C1078 C73 0.662 . S
C1113 C311 0.664 . S
C1128 C107 0.663 . S
C1163 C481 0.662 . S
C1178 C141 0.664 . S
C1213 C515 0.664 . S
C1228 C175 0.662 . S
C1263 C413 0.664 . S
C1278 C209 0.662 . S
C1313 C447 0.663 . S
C1328 C243 0.663 . S
C1363 C9 1.738 . S
C1378 C145 1.738 . S
C1413 C43 1.738 . S
C1428 C179 1.738 . S
C1463 C213 1.737 . S
C1478 C77 1.737 . S
C1513 C111 1.738 . S
C1528 C247 1.738 . S
C1563 C281 1.738 . S
C1578 C417 1.738 . S
C1613 C451 1.738 . S
C1628 C315 1.738 . S
C1663 C349 1.737 . S
C1678 C485 1.737 . S
C1713 C519 1.737 . S
C1728 C383 1.737 . S
C1763 C20 1.337 . S
C1778 C54 1.337 . S
C1813 C122 1.337 . S
C1828 C88 1.337 . S
C1863 C190 1.337 . S
C1878 C156 1.337 . S
C1913 C224 1.337 . S
C1928 C258 1.337 . S
C1963 C326 1.337 . S
C1978 C292 1.337 . S
C2013 C394 1.337 . S
C2028 C360 1.337 . S
C2063 C428 1.337 . S
C2078 C462 1.337 . S
C2113 C530 1.337 . S
C2128 C496 1.337 . S
C2163 C2 0.706 . S
C2178 C308 0.704 . S
C2213 C36 0.706 . S
C2228 C274 0.704 . S
C2263 C70 0.704 . S
C2278 C376 0.706 . S
C2313 C104 0.706 . S
C2328 C342 0.704 . S
C2363 C138 0.704 . S
C2378 C444 0.706 . S
C2413 C410 0.704 . S
C2428 C172 0.705 . S
C2463 C206 0.704 . S
C2478 C512 0.706 . S
C2513 C478 0.705 . S
C2528 C240 0.704 . S
