# Generated by pormake.
# Topology uoy, (4)-cn, num edge types: 1
# Building blocks:
#     Node 0, Type 0, BuildingBlock: QUQFOY_clean_sbu_1, # of connection points: 4
#     Node 1, Type 0, BuildingBlock: QUQFOY_clean_sbu_1, # of connection points: 4
#     Node 2, Type 0, BuildingBlock: QUQFOY_clean_sbu_1, # of connection points: 4
#     Node 3, Type 0, BuildingBlock: QUQFOY_clean_sbu_1, # of connection points: 4
#     Node 4, Type 0, BuildingBlock: QUQFOY_clean_sbu_1, # of connection points: 4
#     Node 5, Type 0, BuildingBlock: QUQFOY_clean_sbu_1, # of connection points: 4
#     Node 6, Type 0, BuildingBlock: QUQFOY_clean_sbu_1, # of connection points: 4
#     Node 7, Type 0, BuildingBlock: QUQFOY_clean_sbu_1, # of connection points: 4
#     Node 8, Type 0, BuildingBlock: QUQFOY_clean_sbu_1, # of connection points: 4
#     Node 9, Type 0, BuildingBlock: QUQFOY_clean_sbu_1, # of connection points: 4
#     Node 10, Type 0, BuildingBlock: QUQFOY_clean_sbu_1, # of connection points: 4
#     Node 11, Type 0, BuildingBlock: QUQFOY_clean_sbu_1, # of connection points: 4
#     Node 12, Type 0, BuildingBlock: QUQFOY_clean_sbu_1, # of connection points: 4
#     Node 13, Type 0, BuildingBlock: QUQFOY_clean_sbu_1, # of connection points: 4
#     Node 14, Type 0, BuildingBlock: QUQFOY_clean_sbu_1, # of connection points: 4
#     Node 15, Type 0, BuildingBlock: QUQFOY_clean_sbu_1, # of connection points: 4
#     Edge 16, Type (0, 0), BuildingBlock: XUDNAN_clean_linker_2, # of connection points: 2
#     Edge 17, Type (0, 0), BuildingBlock: XUDNAN_clean_linker_2, # of connection points: 2
#     Edge 18, Type (0, 0), BuildingBlock: XUDNAN_clean_linker_2, # of connection points: 2
#     Edge 19, Type (0, 0), BuildingBlock: XUDNAN_clean_linker_2, # of connection points: 2
#     Edge 20, Type (0, 0), BuildingBlock: XUDNAN_clean_linker_2, # of connection points: 2
#     Edge 21, Type (0, 0), BuildingBlock: XUDNAN_clean_linker_2, # of connection points: 2
#     Edge 22, Type (0, 0), BuildingBlock: XUDNAN_clean_linker_2, # of connection points: 2
#     Edge 23, Type (0, 0), BuildingBlock: XUDNAN_clean_linker_2, # of connection points: 2
#     Edge 24, Type (0, 0), BuildingBlock: XUDNAN_clean_linker_2, # of connection points: 2
#     Edge 25, Type (0, 0), BuildingBlock: XUDNAN_clean_linker_2, # of connection points: 2
#     Edge 26, Type (0, 0), BuildingBlock: XUDNAN_clean_linker_2, # of connection points: 2
#     Edge 27, Type (0, 0), BuildingBlock: XUDNAN_clean_linker_2, # of connection points: 2
#     Edge 28, Type (0, 0), BuildingBlock: XUDNAN_clean_linker_2, # of connection points: 2
#     Edge 29, Type (0, 0), BuildingBlock: XUDNAN_clean_linker_2, # of connection points: 2
#     Edge 30, Type (0, 0), BuildingBlock: XUDNAN_clean_linker_2, # of connection points: 2
#     Edge 31, Type (0, 0), BuildingBlock: XUDNAN_clean_linker_2, # of connection points: 2
#     Edge 32, Type (0, 0), BuildingBlock: XUDNAN_clean_linker_2, # of connection points: 2
#     Edge 33, Type (0, 0), BuildingBlock: XUDNAN_clean_linker_2, # of connection points: 2
#     Edge 34, Type (0, 0), BuildingBlock: XUDNAN_clean_linker_2, # of connection points: 2
#     Edge 35, Type (0, 0), BuildingBlock: XUDNAN_clean_linker_2, # of connection points: 2
#     Edge 36, Type (0, 0), BuildingBlock: XUDNAN_clean_linker_2, # of connection points: 2
#     Edge 37, Type (0, 0), BuildingBlock: XUDNAN_clean_linker_2, # of connection points: 2
#     Edge 38, Type (0, 0), BuildingBlock: XUDNAN_clean_linker_2, # of connection points: 2
#     Edge 39, Type (0, 0), BuildingBlock: XUDNAN_clean_linker_2, # of connection points: 2
#     Edge 40, Type (0, 0), BuildingBlock: XUDNAN_clean_linker_2, # of connection points: 2
#     Edge 41, Type (0, 0), BuildingBlock: XUDNAN_clean_linker_2, # of connection points: 2
#     Edge 42, Type (0, 0), BuildingBlock: XUDNAN_clean_linker_2, # of connection points: 2
#     Edge 43, Type (0, 0), BuildingBlock: XUDNAN_clean_linker_2, # of connection points: 2
#     Edge 44, Type (0, 0), BuildingBlock: XUDNAN_clean_linker_2, # of connection points: 2
#     Edge 45, Type (0, 0), BuildingBlock: XUDNAN_clean_linker_2, # of connection points: 2
#     Edge 46, Type (0, 0), BuildingBlock: XUDNAN_clean_linker_2, # of connection points: 2
#     Edge 47, Type (0, 0), BuildingBlock: XUDNAN_clean_linker_2, # of connection points: 2
# Relax obj value: 0.057
# Max RMSD: 0.096
# Mean RMSD: 0.096
data_MOF--net-uoy--node1-QUQFOY_clean_sbu_1--edge1-XUDNAN_clean_linker_2
_symmetry_space_group_name_H-M    P1
_symmetry_Int_Tables_number       1
_symmetry_cell_setting            triclinic
loop_
_symmetry_equiv_pos_as_xyz
'x, y, z'
_cell_length_a     27.886535
_cell_length_b     27.930151
_cell_length_c     112.48734
_cell_angle_alpha  90.023338
_cell_angle_beta   90.042294
_cell_angle_gamma 89.99308
loop_
_atom_site_label
_atom_site_type_symbol
_atom_site_fract_x
_atom_site_fract_y
_atom_site_fract_z
_atom_type_partial_charge
O0 O 0.24011 0.14542 0.22376 0.0
Cd1 Cd 0.2339 0.0967 0.2099 0.0
Cd2 Cd 0.28435 0.16526 0.19868 0.0
O3 O 0.27635 0.20394 0.21416 0.0
O4 O 0.17762 0.05551 0.21414 0.0
O5 O 0.17969 0.10128 0.1981 0.0
C6 C 0.15649 0.07161 0.20475 0.0
C7 C 0.26382 0.19769 0.18028 0.0
C8 C 0.25807 0.1873 0.22365 0.0
C9 C 0.3328 0.06966 0.20202 0.0
O10 O 0.33664 0.11309 0.19881 0.0
O11 O 0.29335 0.05408 0.20622 0.0
O12 O 0.30331 0.20919 0.18553 0.0
O13 O 0.23508 0.16861 0.18564 0.0
O14 O 0.89518 0.73221 0.47137 0.0
Cd15 Cd 0.93224 0.72943 0.45536 0.0
Cd16 Cd 0.85827 0.78578 0.44858 0.0
O17 O 0.83071 0.77083 0.46512 0.0
O18 O 0.9762 0.67291 0.45632 0.0
O19 O 0.91401 0.67627 0.44411 0.0
C20 C 0.94963 0.65229 0.44844 0.0
C21 C 0.81181 0.78667 0.43132 0.0
C22 C 0.85379 0.74974 0.47334 0.0
C23 C 0.95632 0.83031 0.4486 0.0
O24 O 0.9113 0.83646 0.44818 0.0
O25 O 0.97345 0.78875 0.45052 0.0
O26 O 0.80678 0.81851 0.43952 0.0
O27 O 0.84107 0.75169 0.43329 0.0
O28 O 0.27284 0.39035 0.72305 0.0
Cd29 Cd 0.28463 0.43496 0.70853 0.0
Cd30 Cd 0.23833 0.36463 0.69694 0.0
O31 O 0.24439 0.32894 0.71288 0.0
O32 O 0.34195 0.4769 0.71159 0.0
O33 O 0.34096 0.41883 0.69819 0.0
C34 C 0.36429 0.45234 0.70359 0.0
C35 C 0.25992 0.32832 0.67904 0.0
C36 C 0.25726 0.34748 0.72271 0.0
C37 C 0.18842 0.4598 0.69844 0.0
O38 O 0.18514 0.41554 0.69599 0.0
O39 O 0.22715 0.47666 0.70274 0.0
O40 O 0.22045 0.31745 0.68436 0.0
O41 O 0.28808 0.35886 0.68408 0.0
O42 O 0.65118 0.79761 0.97204 0.0
Cd43 Cd 0.60566 0.79573 0.95745 0.0
Cd44 Cd 0.67787 0.73926 0.94977 0.0
O45 O 0.71103 0.7524 0.96579 0.0
O46 O 0.56025 0.84957 0.96089 0.0
O47 O 0.60734 0.84843 0.94511 0.0
C48 C 0.57586 0.87058 0.95146 0.0
C49 C 0.70996 0.76084 0.93154 0.0
C50 C 0.69171 0.77793 0.97382 0.0
C51 C 0.58177 0.69252 0.952 0.0
O52 O 0.62613 0.68703 0.94987 0.0
O53 O 0.56536 0.73368 0.95474 0.0
O54 O 0.7238 0.72233 0.9369 0.0
O55 O 0.67912 0.78814 0.93678 0.0
O56 O 0.26374 0.38098 0.05458 0.0
Cd57 Cd 0.26649 0.4279 0.0688 0.0
Cd58 Cd 0.29301 0.34757 0.08014 0.0
O59 O 0.27909 0.31384 0.06417 0.0
O60 O 0.21825 0.47904 0.06533 0.0
O61 O 0.21238 0.42899 0.08055 0.0
C62 C 0.19427 0.46347 0.07435 0.0
C63 C 0.26756 0.31481 0.09818 0.0
C64 C 0.26921 0.33577 0.05456 0.0
C65 C 0.36595 0.42855 0.07792 0.0
O66 O 0.35607 0.38584 0.08095 0.0
O67 O 0.3338 0.45492 0.07325 0.0
O68 O 0.3034 0.29712 0.09244 0.0
O69 O 0.24464 0.35016 0.09346 0.0
O70 O 0.64618 0.73398 0.30681 0.0
Cd71 Cd 0.59934 0.73379 0.32112 0.0
Cd72 Cd 0.66932 0.79318 0.32937 0.0
O73 O 0.70551 0.77795 0.31389 0.0
O74 O 0.55756 0.67745 0.31753 0.0
O75 O 0.60391 0.68128 0.33346 0.0
C76 C 0.57425 0.65722 0.32696 0.0
C77 C 0.70507 0.79301 0.34806 0.0
C78 C 0.68724 0.75317 0.30557 0.0
C79 C 0.57095 0.83569 0.32585 0.0
O80 O 0.61518 0.84248 0.32788 0.0
O81 O 0.55546 0.79373 0.32358 0.0
O82 O 0.71397 0.82611 0.3404 0.0
O83 O 0.67816 0.75764 0.34485 0.0
O84 O 0.27282 0.13479 0.55434 0.0
Cd85 Cd 0.28576 0.09085 0.56892 0.0
Cd86 Cd 0.23888 0.16096 0.58032 0.0
O87 O 0.24352 0.19627 0.56433 0.0
O88 O 0.34277 0.04887 0.56558 0.0
O89 O 0.34322 0.10713 0.57892 0.0
C90 C 0.36599 0.07357 0.57339 0.0
C91 C 0.26052 0.19768 0.59816 0.0
C92 C 0.25637 0.17736 0.55455 0.0
C93 C 0.18975 0.06549 0.57904 0.0
O94 O 0.18611 0.1098 0.58137 0.0
O95 O 0.22871 0.04875 0.57484 0.0
O96 O 0.22085 0.20812 0.59286 0.0
O97 O 0.28894 0.16741 0.59311 0.0
O98 O 0.89322 0.75962 0.80695 0.0
Cd99 Cd 0.93235 0.75376 0.82255 0.0
Cd100 Cd 0.84617 0.727 0.83099 0.0
O101 O 0.82144 0.74198 0.81413 0.0
O102 O 0.99166 0.79392 0.82097 0.0
O103 O 0.93177 0.81201 0.83309 0.0
C104 C 0.97282 0.82302 0.82855 0.0
C105 C 0.81218 0.75668 0.84836 0.0
C106 C 0.84831 0.75381 0.80549 0.0
C107 C 0.92394 0.65257 0.83134 0.0
O108 O 0.87998 0.66244 0.83286 0.0
O109 O 0.95287 0.68489 0.82783 0.0
O110 O 0.79195 0.7226 0.84245 0.0
O111 O 0.8504 0.77602 0.84402 0.0
O112 O 0.7705 0.63487 0.72303 0.0
Cd113 Cd 0.77091 0.59628 0.70733 0.0
Cd114 Cd 0.78949 0.68058 0.69756 0.0
O115 O 0.77164 0.70547 0.71426 0.0
O116 O 0.73126 0.53693 0.70925 0.0
O117 O 0.7095 0.59832 0.69799 0.0
C118 C 0.69983 0.55677 0.70241 0.0
C119 C 0.75717 0.71421 0.68035 0.0
C120 C 0.76911 0.68034 0.72367 0.0
C121 C 0.86929 0.60897 0.69716 0.0
O122 O 0.85749 0.65266 0.69594 0.0
O123 O 0.83831 0.57844 0.7006 0.0
O124 O 0.78663 0.73785 0.68694 0.0
O125 O 0.7448 0.67175 0.68366 0.0
O126 O 0.38353 0.26258 0.97158 0.0
Cd127 Cd 0.42627 0.27324 0.95676 0.0
Cd128 Cd 0.3421 0.3053 0.94858 0.0
O129 O 0.3124 0.28085 0.96421 0.0
O130 O 0.48014 0.22736 0.95927 0.0
O131 O 0.42866 0.22129 0.94433 0.0
C132 C 0.4644 0.20374 0.95021 0.0
C133 C 0.30804 0.29618 0.92982 0.0
C134 C 0.33835 0.26633 0.97277 0.0
C135 C 0.42303 0.37705 0.95165 0.0
O136 O 0.37882 0.36864 0.94998 0.0
O137 O 0.45177 0.34263 0.95377 0.0
O138 O 0.28961 0.32443 0.93764 0.0
O139 O 0.3438 0.26963 0.93295 0.0
O140 O 0.75694 0.88015 0.22408 0.0
Cd141 Cd 0.75155 0.92343 0.20924 0.0
Cd142 Cd 0.72819 0.84046 0.19886 0.0
O143 O 0.74964 0.81101 0.21484 0.0
O144 O 0.79657 0.97807 0.21219 0.0
O145 O 0.80636 0.92523 0.19769 0.0
C146 C 0.82216 0.96183 0.20351 0.0
C147 C 0.75545 0.80904 0.1809 0.0
C148 C 0.75684 0.83466 0.22433 0.0
C149 C 0.65051 0.91564 0.20089 0.0
O150 O 0.66142 0.8723 0.19868 0.0
O151 O 0.68257 0.9449 0.20445 0.0
O152 O 0.72551 0.78573 0.18742 0.0
O153 O 0.77077 0.84995 0.18463 0.0
O154 O 0.12415 0.25612 0.47089 0.0
Cd155 Cd 0.09267 0.24949 0.45433 0.0
Cd156 Cd 0.18191 0.22505 0.44793 0.0
O157 O 0.19908 0.24563 0.46505 0.0
O158 O 0.03153 0.28762 0.45443 0.0
O159 O 0.09598 0.30878 0.44423 0.0
C160 C 0.05289 0.31827 0.44768 0.0
C161 C 0.2167 0.25646 0.43086 0.0
C162 C 0.16879 0.25456 0.4732 0.0
C163 C 0.10912 0.14738 0.44642 0.0
O164 O 0.15347 0.15774 0.44631 0.0
O165 O 0.078 0.17981 0.4485 0.0
O166 O 0.24082 0.22888 0.43786 0.0
O167 O 0.17347 0.26786 0.43381 0.0
O168 O 0.77287 0.88215 0.55454 0.0
Cd169 Cd 0.77254 0.92535 0.56951 0.0
Cd170 Cd 0.79182 0.84268 0.58045 0.0
O171 O 0.77489 0.81321 0.56413 0.0
O172 O 0.73329 0.9845 0.5664 0.0
O173 O 0.71049 0.92661 0.57859 0.0
C174 C 0.70139 0.96692 0.57347 0.0
C175 C 0.75716 0.81952 0.59844 0.0
C176 C 0.77226 0.83656 0.55444 0.0
C177 C 0.87092 0.91521 0.57999 0.0
O178 O 0.85935 0.87176 0.58171 0.0
O179 O 0.83982 0.9449 0.57615 0.0
O180 O 0.78736 0.7921 0.59303 0.0
O181 O 0.74494 0.85901 0.59331 0.0
O182 O 0.13101 0.23697 0.80555 0.0
Cd183 Cd 0.0964 0.23348 0.82188 0.0
Cd184 Cd 0.17161 0.2877 0.82803 0.0
O185 O 0.19828 0.27132 0.81148 0.0
O186 O 0.05144 0.1777 0.82108 0.0
O187 O 0.1155 0.17929 0.8327 0.0
C188 C 0.0789 0.15614 0.82861 0.0
C189 C 0.21658 0.2873 0.8455 0.0
C190 C 0.17304 0.25237 0.80332 0.0
C191 C 0.07513 0.33464 0.82859 0.0
O192 O 0.12023 0.34013 0.82827 0.0
O193 O 0.05701 0.29311 0.82732 0.0
O194 O 0.22366 0.31863 0.83727 0.0
O195 O 0.18643 0.2532 0.8434 0.0
O196 O 0.78104 0.65189 0.05513 0.0
Cd197 Cd 0.78443 0.60515 0.06941 0.0
Cd198 Cd 0.73525 0.67737 0.07972 0.0
O199 O 0.7505 0.7145 0.06435 0.0
O200 O 0.83755 0.55962 0.06524 0.0
O201 O 0.83996 0.60766 0.08086 0.0
C202 C 0.8606 0.57571 0.07435 0.0
C203 C 0.7601 0.7028 0.09845 0.0
C204 C 0.76733 0.69532 0.05499 0.0
C205 C 0.68256 0.58495 0.07679 0.0
O206 O 0.67903 0.62944 0.07902 0.0
O207 O 0.72259 0.56702 0.07361 0.0
O208 O 0.72426 0.72297 0.09317 0.0
O209 O 0.78266 0.66923 0.09289 0.0
O210 O 0.3802 0.26779 0.30644 0.0
Cd211 Cd 0.42257 0.25578 0.32126 0.0
Cd212 Cd 0.33514 0.22623 0.3295 0.0
O213 O 0.30847 0.24902 0.31335 0.0
O214 O 0.48005 0.29793 0.31839 0.0
O215 O 0.42999 0.30843 0.33338 0.0
C216 C 0.46659 0.32307 0.32742 0.0
C217 C 0.31397 0.25698 0.34801 0.0
C218 C 0.33519 0.2636 0.30494 0.0
C219 C 0.4124 0.15117 0.32742 0.0
O220 O 0.36846 0.16071 0.32931 0.0
O221 O 0.44182 0.18453 0.32475 0.0
O222 O 0.28581 0.22765 0.3425 0.0
O223 O 0.3527 0.27034 0.3427 0.0
H224 H 0.32957 0.28058 0.11469 0.0
H225 H 0.17899 0.31082 0.10877 0.0
H226 H 0.16042 0.28221 0.12915 0.0
H227 H 0.31663 0.17528 0.1328 0.0
H228 H 0.36545 0.19115 0.14255 0.0
H229 H 0.36572 0.21098 0.12732 0.0
H230 H 0.37456 0.29893 0.13437 0.0
H231 H 0.37418 0.2794 0.14962 0.0
H232 H 0.33138 0.3234 0.14463 0.0
H233 H 0.15903 0.2469 0.15015 0.0
H234 H 0.17573 0.21647 0.17047 0.0
H235 H 0.3281 0.2182 0.16289 0.0
C236 C 0.29259 0.28061 0.11764 0.0
C237 C 0.25551 0.29704 0.11015 0.0
C238 C 0.20777 0.29794 0.1144 0.0
C239 C 0.19696 0.28171 0.12592 0.0
C240 C 0.23452 0.2658 0.13312 0.0
C241 C 0.28146 0.26588 0.12918 0.0
C242 C 0.31576 0.25002 0.13882 0.0
C243 C 0.34245 0.20413 0.13515 0.0
C244 C 0.35104 0.29035 0.14205 0.0
C245 C 0.28087 0.24054 0.14882 0.0
C246 C 0.23407 0.24908 0.14535 0.0
C247 C 0.19558 0.24067 0.15299 0.0
C248 C 0.20534 0.22335 0.16448 0.0
C249 C 0.25317 0.21575 0.16825 0.0
C250 C 0.29123 0.22459 0.1603 0.0
H251 H 0.79587 0.72019 0.41344 0.0
H252 H 0.7778 0.87027 0.42255 0.0
H253 H 0.74911 0.88692 0.40232 0.0
H254 H 0.83604 0.73627 0.38386 0.0
H255 H 0.80288 0.68693 0.37759 0.0
H256 H 0.82092 0.68535 0.39296 0.0
H257 H 0.73271 0.67247 0.39939 0.0
H258 H 0.71445 0.67344 0.38402 0.0
H259 H 0.68734 0.71405 0.39451 0.0
H260 H 0.7313 0.88985 0.38092 0.0
H261 H 0.71158 0.87673 0.35983 0.0
H262 H 0.73225 0.7238 0.36438 0.0
C263 C 0.78519 0.75635 0.41119 0.0
C264 C 0.78915 0.79395 0.41958 0.0
C265 C 0.77481 0.84082 0.41633 0.0
C266 C 0.75871 0.85076 0.40482 0.0
C267 C 0.75615 0.8133 0.39671 0.0
C268 C 0.76777 0.76681 0.39976 0.0
C269 C 0.76054 0.73332 0.38925 0.0
C270 C 0.80792 0.70905 0.38571 0.0
C271 C 0.72142 0.69612 0.39196 0.0
C272 C 0.74412 0.7686 0.37981 0.0
C273 C 0.74261 0.81458 0.38434 0.0
C274 C 0.73151 0.85396 0.37729 0.0
C275 C 0.72075 0.84617 0.36531 0.0
C276 C 0.72022 0.79931 0.36053 0.0
C277 C 0.73198 0.75993 0.36787 0.0
H278 H 0.19664 0.22751 0.61483 0.0
H279 H 0.34903 0.21212 0.60821 0.0
H280 H 0.36637 0.24475 0.62827 0.0
H281 H 0.20096 0.33613 0.63191 0.0
H282 H 0.15472 0.31727 0.64207 0.0
H283 H 0.15506 0.2951 0.62704 0.0
H284 H 0.15527 0.20792 0.63494 0.0
H285 H 0.15513 0.22981 0.65 0.0
H286 H 0.20148 0.18928 0.64516 0.0
H287 H 0.36619 0.28219 0.64897 0.0
H288 H 0.34851 0.31466 0.66903 0.0
H289 H 0.19628 0.29793 0.66234 0.0
C290 C 0.23369 0.23148 0.61755 0.0
C291 C 0.27158 0.218 0.60995 0.0
C292 C 0.31955 0.22257 0.61391 0.0
C293 C 0.32969 0.24109 0.62527 0.0
C294 C 0.29136 0.25391 0.63258 0.0
C295 C 0.24433 0.24874 0.6289 0.0
C296 C 0.2095 0.26281 0.63859 0.0
C297 C 0.17823 0.30536 0.63467 0.0
C298 C 0.17853 0.21989 0.6424 0.0
C299 C 0.24419 0.27714 0.64829 0.0
C300 C 0.29127 0.27238 0.64464 0.0
C301 C 0.32946 0.28553 0.65196 0.0
C302 C 0.31914 0.30396 0.66331 0.0
C303 C 0.27112 0.3081 0.66725 0.0
C304 C 0.23337 0.29429 0.65964 0.0
H305 H 0.77796 0.69558 0.86493 0.0
H306 H 0.81061 0.84529 0.85893 0.0
H307 H 0.78586 0.86402 0.87963 0.0
H308 H 0.6765 0.70993 0.88459 0.0
H309 H 0.69398 0.66056 0.89395 0.0
H310 H 0.70993 0.66052 0.87844 0.0
H311 H 0.79941 0.64981 0.88413 0.0
H312 H 0.7838 0.65017 0.89966 0.0
H313 H 0.82727 0.69222 0.89405 0.0
H314 H 0.75481 0.8655 0.90106 0.0
H315 H 0.72859 0.8487 0.92173 0.0
H316 H 0.72663 0.69679 0.91391 0.0
C317 C 0.77902 0.73245 0.86792 0.0
C318 C 0.79504 0.76927 0.86033 0.0
C319 C 0.79774 0.81681 0.86462 0.0
C320 C 0.78378 0.82767 0.87633 0.0
C321 C 0.76847 0.79032 0.88365 0.0
C322 C 0.76675 0.74356 0.87963 0.0
C323 C 0.75274 0.70929 0.88943 0.0
C324 C 0.70548 0.68358 0.88642 0.0
C325 C 0.79323 0.67326 0.89196 0.0
C326 C 0.74642 0.74397 0.89961 0.0
C327 C 0.75479 0.79067 0.8961 0.0
C328 C 0.74878 0.82902 0.90392 0.0
C329 C 0.73392 0.81922 0.91562 0.0
C330 C 0.72655 0.77148 0.9194 0.0
C331 C 0.7331 0.73355 0.91129 0.0
H332 H 0.76552 0.7343 0.6104 0.0
H333 H 0.71368 0.88 0.61419 0.0
H334 H 0.69845 0.86554 0.63549 0.0
H335 H 0.68008 0.67966 0.6324 0.0
H336 H 0.72493 0.6382 0.63762 0.0
H337 H 0.72557 0.65801 0.62237 0.0
H338 H 0.8134 0.68648 0.62492 0.0
H339 H 0.81296 0.66712 0.64015 0.0
H340 H 0.82783 0.72827 0.63661 0.0
H341 H 0.70359 0.84036 0.65681 0.0
H342 H 0.72058 0.80301 0.67634 0.0
H343 H 0.76192 0.67158 0.65867 0.0
C344 C 0.74974 0.76274 0.61564 0.0
C345 C 0.74077 0.80827 0.61063 0.0
C346 C 0.72053 0.84472 0.61781 0.0
C347 C 0.71179 0.83687 0.62993 0.0
C348 C 0.72246 0.79204 0.63468 0.0
C349 C 0.74003 0.75523 0.62771 0.0
C350 C 0.75119 0.71135 0.63514 0.0
C351 C 0.71848 0.66932 0.63167 0.0
C352 C 0.8045 0.69753 0.63414 0.0
C353 C 0.73919 0.72994 0.64744 0.0
C354 C 0.72264 0.77659 0.64698 0.0
C355 C 0.71495 0.80336 0.65728 0.0
C356 C 0.72477 0.78202 0.66831 0.0
C357 C 0.74117 0.73421 0.66893 0.0
C358 C 0.74762 0.70763 0.65839 0.0
H359 H 0.28959 0.22557 0.91304 0.0
H360 H 0.29663 0.3793 0.91831 0.0
H361 H 0.27998 0.39221 0.89706 0.0
H362 H 0.34006 0.22117 0.88339 0.0
H363 H 0.29899 0.17647 0.87792 0.0
H364 H 0.31437 0.17809 0.89348 0.0
H365 H 0.22446 0.18437 0.89903 0.0
H366 H 0.20881 0.18226 0.8835 0.0
H367 H 0.18849 0.23136 0.8926 0.0
H368 H 0.26734 0.38933 0.87547 0.0
H369 H 0.24359 0.37207 0.85488 0.0
H370 H 0.23416 0.22057 0.86327 0.0
C371 C 0.2875 0.26179 0.90965 0.0
C372 C 0.29454 0.30155 0.91724 0.0
C373 C 0.29105 0.3485 0.91262 0.0
C374 C 0.28204 0.35618 0.90055 0.0
C375 C 0.27554 0.3165 0.89326 0.0
C376 C 0.27682 0.27024 0.89761 0.0
C377 C 0.2647 0.23449 0.88786 0.0
C378 C 0.30706 0.20055 0.88553 0.0
C379 C 0.21889 0.20648 0.89093 0.0
C380 C 0.25664 0.26807 0.87741 0.0
C381 C 0.26437 0.31505 0.88075 0.0
C382 C 0.26074 0.35276 0.87274 0.0
C383 C 0.24755 0.34249 0.86103 0.0
C384 C 0.23699 0.29501 0.85747 0.0
C385 C 0.24197 0.2572 0.86576 0.0
H386 H 0.73235 0.78228 0.11101 0.0
H387 H 0.81569 0.65157 0.1139 0.0
H388 H 0.8295 0.66805 0.1352 0.0
H389 H 0.80637 0.85339 0.13203 0.0
H390 H 0.75485 0.88441 0.13788 0.0
H391 H 0.75507 0.86434 0.12265 0.0
H392 H 0.67626 0.81754 0.12636 0.0
H393 H 0.67589 0.83724 0.14159 0.0
H394 H 0.67387 0.77417 0.13822 0.0
H395 H 0.82425 0.69274 0.15667 0.0
H396 H 0.80675 0.72835 0.17641 0.0
H397 H 0.73281 0.84605 0.15933 0.0
C398 C 0.75423 0.75758 0.11608 0.0
C399 C 0.7729 0.71561 0.11081 0.0
C400 C 0.80123 0.68408 0.11774 0.0
C401 C 0.80923 0.6931 0.12985 0.0
C402 C 0.78944 0.73428 0.13484 0.0
C403 C 0.76324 0.76647 0.12813 0.0
C404 C 0.74455 0.80721 0.13572 0.0
C405 C 0.76654 0.85518 0.13184 0.0
C406 C 0.68938 0.80911 0.13545 0.0
C407 C 0.76299 0.79211 0.14781 0.0
C408 C 0.78872 0.74985 0.14712 0.0
C409 C 0.80532 0.72647 0.15729 0.0
C410 C 0.79521 0.74676 0.16843 0.0
C411 C 0.7696 0.79026 0.16924 0.0
C412 C 0.75378 0.81346 0.15883 0.0
H413 H 0.17246 0.25193 0.40939 0.0
H414 H 0.30677 0.28966 0.42633 0.0
H415 H 0.34291 0.3051 0.40658 0.0
H416 H 0.2253 0.18435 0.3871 0.0
H417 H 0.18284 0.19971 0.37563 0.0
H418 H 0.16481 0.20097 0.39097 0.0
H419 H 0.13813 0.28937 0.3887 0.0
H420 H 0.156 0.28836 0.37331 0.0
H421 H 0.18013 0.33311 0.38319 0.0
H422 H 0.36584 0.31058 0.38508 0.0
H423 H 0.3773 0.29704 0.36361 0.0
H424 H 0.23007 0.24803 0.36065 0.0
C425 C 0.20898 0.26501 0.4089 0.0
C426 C 0.23668 0.27092 0.4193 0.0
C427 C 0.28496 0.28581 0.41841 0.0
C428 C 0.30561 0.29478 0.40726 0.0
C429 C 0.27765 0.28775 0.39711 0.0
C430 C 0.2305 0.27268 0.39783 0.0
C431 C 0.21037 0.26128 0.38563 0.0
C432 C 0.19495 0.20845 0.38479 0.0
C433 C 0.16869 0.29506 0.38253 0.0
C434 C 0.25383 0.27131 0.37796 0.0
C435 C 0.29183 0.28775 0.38472 0.0
C436 C 0.33626 0.29803 0.37968 0.0
C437 C 0.34237 0.29028 0.36746 0.0
C438 C 0.30458 0.27143 0.36045 0.0
C439 C 0.25954 0.26263 0.36577 0.0
H440 H 0.22536 0.16135 0.24575 0.0
H441 H 0.30123 0.27446 0.22715 0.0
H442 H 0.31842 0.31384 0.2463 0.0
H443 H 0.17608 0.23845 0.27034 0.0
H444 H 0.18445 0.19152 0.28114 0.0
H445 H 0.17104 0.17663 0.26589 0.0
H446 H 0.24725 0.12369 0.26496 0.0
H447 H 0.26093 0.13845 0.28014 0.0
H448 H 0.3046 0.14956 0.26866 0.0
H449 H 0.34012 0.33253 0.26733 0.0
H450 H 0.36139 0.33087 0.28867 0.0
H451 H 0.26821 0.20852 0.2938 0.0
C452 C 0.24436 0.19515 0.24566 0.0
C453 C 0.26183 0.2148 0.23491 0.0
C454 C 0.28722 0.25874 0.23523 0.0
C455 C 0.2971 0.28148 0.24608 0.0
C456 C 0.28073 0.2603 0.25654 0.0
C457 C 0.2543 0.21844 0.25641 0.0
C458 C 0.24477 0.20064 0.26892 0.0
C459 C 0.19087 0.20191 0.27174 0.0
C460 C 0.26565 0.15012 0.27077 0.0
C461 C 0.27183 0.23779 0.27609 0.0
C462 C 0.29196 0.27218 0.26878 0.0
C463 C 0.32339 0.30673 0.27318 0.0
C464 C 0.33532 0.30551 0.2853 0.0
C465 C 0.31549 0.27032 0.29288 0.0
C466 C 0.28239 0.2369 0.28826 0.0
H467 H 0.80349 0.82053 0.48438 0.0
H468 H 0.86295 0.67893 0.48994 0.0
H469 H 0.83713 0.6816 0.51099 0.0
H470 H 0.84649 0.86746 0.51083 0.0
H471 H 0.79604 0.90621 0.51362 0.0
H472 H 0.81089 0.88965 0.49863 0.0
H473 H 0.72485 0.85685 0.49553 0.0
H474 H 0.70971 0.87337 0.51056 0.0
H475 H 0.7015 0.8125 0.50563 0.0
H476 H 0.81077 0.70233 0.53168 0.0
H477 H 0.79408 0.74211 0.5508 0.0
H478 H 0.75713 0.8728 0.53203 0.0
C479 C 0.80967 0.78953 0.48995 0.0
C480 C 0.83427 0.74908 0.48553 0.0
C481 C 0.84362 0.70996 0.49317 0.0
C482 C 0.82889 0.71111 0.5051 0.0
C483 C 0.80544 0.75193 0.50926 0.0
C484 C 0.79627 0.79062 0.50194 0.0
C485 C 0.77638 0.83255 0.50893 0.0
C486 C 0.80943 0.87654 0.50794 0.0
C487 C 0.72505 0.8445 0.50492 0.0
C488 C 0.77687 0.81185 0.52137 0.0
C489 C 0.79262 0.76492 0.52133 0.0
C490 C 0.79802 0.73893 0.53181 0.0
C491 C 0.78833 0.76186 0.54264 0.0
C492 C 0.77428 0.81063 0.54294 0.0
C493 C 0.76753 0.83544 0.53211 0.0
H494 H 0.27973 0.37521 0.74555 0.0
H495 H 0.21762 0.25836 0.72523 0.0
H496 H 0.19697 0.2169 0.74386 0.0
H497 H 0.32786 0.29995 0.77018 0.0
H498 H 0.31383 0.34461 0.78122 0.0
H499 H 0.32885 0.36255 0.76629 0.0
H500 H 0.24892 0.40949 0.76481 0.0
H501 H 0.2336 0.39161 0.77968 0.0
H502 H 0.19317 0.37879 0.76759 0.0
H503 H 0.1727 0.19371 0.76448 0.0
H504 H 0.15095 0.18847 0.78576 0.0
H505 H 0.23228 0.31772 0.79282 0.0
C506 C 0.26276 0.34041 0.745 0.0
C507 C 0.25036 0.32012 0.73389 0.0
C508 C 0.22768 0.27469 0.7336 0.0
C509 C 0.21581 0.25075 0.74415 0.0
C510 C 0.22743 0.2723 0.75494 0.0
C511 C 0.25098 0.3158 0.75546 0.0
C512 C 0.25674 0.33253 0.7682 0.0
C513 C 0.31 0.33504 0.77168 0.0
C514 C 0.2316 0.38095 0.77018 0.0
C515 C 0.23134 0.29244 0.77473 0.0
C516 C 0.21483 0.25795 0.76692 0.0
C517 C 0.1864 0.21985 0.77072 0.0
C518 C 0.17411 0.21722 0.7828 0.0
C519 C 0.19063 0.25218 0.79094 0.0
C520 C 0.22031 0.28972 0.78685 0.0
H521 H 0.7906 0.66175 0.03281 0.0
H522 H 0.73994 0.78851 0.05129 0.0
H523 H 0.72669 0.82853 0.03202 0.0
H524 H 0.84806 0.72572 1.00707 0.0
H525 H 0.82898 0.68003 0.99678 0.0
H526 H 0.84252 0.66453 1.01198 0.0
H527 H 0.75814 0.62675 0.01419 0.0
H528 H 0.7443 0.64224 0.99908 0.0
H529 H 0.70586 0.66241 1.01094 0.0
H530 H 0.70603 0.84937 1.01107 0.0
H531 H 0.6816 0.85018 0.98996 0.0
H532 H 0.7477 0.71113 0.98492 0.0
C533 C 0.77813 0.69847 0.03283 0.0
C534 C 0.7665 0.72201 0.04359 0.0
C535 C 0.74934 0.76974 0.04319 0.0
C536 C 0.74181 0.79286 0.03228 0.0
C537 C 0.75212 0.76802 0.02184 0.0
C538 C 0.77043 0.72205 0.02202 0.0
C539 C 0.77395 0.70147 1.00958 0.0
C540 C 0.82651 0.69242 1.00615 0.0
C541 C 0.74375 0.65553 1.00838 0.0
C542 C 0.75278 0.74223 1.00241 0.0
C543 C 0.74096 0.78053 1.00964 0.0
C544 C 0.71623 0.82017 1.00527 0.0
C545 C 0.70238 0.82026 0.99328 0.0
C546 C 0.71345 0.78107 0.98578 0.0
C547 C 0.74006 0.7422 0.99036 0.0
H548 H 0.23951 0.36896 0.03285 0.0
H549 H 0.30046 0.24431 0.05023 0.0
H550 H 0.31309 0.20643 0.03067 0.0
H551 H 0.18153 0.30218 1.00741 0.0
H552 H 0.19546 0.34976 0.99716 0.0
H553 H 0.18349 0.3633 1.01255 0.0
H554 H 0.26521 0.40701 0.01409 0.0
H555 H 0.27751 0.39349 0.99878 0.0
H556 H 0.31933 0.37543 1.01016 0.0
H557 H 0.33434 0.1899 1.00947 0.0
H558 H 0.35687 0.1936 0.98821 0.0
H559 H 0.2772 0.32577 0.98439 0.0
C560 C 0.25418 0.33308 0.03257 0.0
C561 C 0.26896 0.30962 0.04309 0.0
C562 C 0.28852 0.2629 0.04232 0.0
C563 C 0.29582 0.24106 0.03123 0.0
C564 C 0.28247 0.26594 0.021 0.0
C565 C 0.26121 0.31058 0.02159 0.0
C566 C 0.25406 0.3316 1.00929 0.0
C567 C 0.20044 0.33701 1.00644 0.0
C568 C 0.28062 0.37969 1.00801 0.0
C569 C 0.27684 0.29293 1.00173 0.0
C570 C 0.29272 0.25515 1.00865 0.0
C571 C 0.32063 0.21838 1.0039 0.0
C572 C 0.33331 0.22075 0.99184 0.0
C573 C 0.31751 0.25919 0.98466 0.0
C574 C 0.28795 0.29499 0.98961 0.0
H575 H 0.73602 0.82448 0.29437 0.0
H576 H 0.68755 0.67814 0.29006 0.0
H577 H 0.71427 0.67921 0.26911 0.0
H578 H 0.6899 0.86387 0.26818 0.0
H579 H 0.73681 0.90597 0.2647 0.0
H580 H 0.72516 0.89035 0.27991 0.0
H581 H 0.8137 0.86436 0.28259 0.0
H582 H 0.82577 0.88023 0.26735 0.0
H583 H 0.83928 0.82078 0.27261 0.0
H584 H 0.7353 0.69963 0.24815 0.0
H585 H 0.74391 0.73889 0.22864 0.0
H586 H 0.77441 0.87375 0.2463 0.0
C587 C 0.73302 0.79206 0.28913 0.0
C588 C 0.7108 0.75084 0.29385 0.0
C589 C 0.70521 0.70977 0.28662 0.0
C590 C 0.72042 0.71004 0.27474 0.0
C591 C 0.74074 0.75183 0.2702 0.0
C592 C 0.74701 0.79217 0.27718 0.0
C593 C 0.76271 0.83464 0.26976 0.0
C594 C 0.72647 0.87611 0.27069 0.0
C595 C 0.81339 0.85095 0.27329 0.0
C596 C 0.76244 0.81243 0.25747 0.0
C597 C 0.7509 0.76435 0.25795 0.0
C598 C 0.74511 0.73707 0.24767 0.0
C599 C 0.75005 0.75974 0.23662 0.0
C600 C 0.75988 0.80944 0.23591 0.0
C601 C 0.76733 0.83564 0.24652 0.0
H602 H 0.23691 0.20079 0.48424 0.0
H603 H 0.13439 0.31481 0.49028 0.0
H604 H 0.15484 0.31467 0.5117 0.0
H605 H 0.20472 0.13573 0.50914 0.0
H606 H 0.264 0.11386 0.51253 0.0
H607 H 0.24852 0.1291 0.49748 0.0
H608 H 0.32035 0.18781 0.49651 0.0
H609 H 0.3362 0.1726 0.51158 0.0
H610 H 0.32599 0.23423 0.50756 0.0
H611 H 0.18114 0.29743 0.53255 0.0
H612 H 0.20526 0.26007 0.55146 0.0
H613 H 0.28632 0.15282 0.53204 0.0
C614 C 0.22004 0.22678 0.49004 0.0
C615 C 0.18491 0.2586 0.48564 0.0
C616 C 0.16189 0.29068 0.49351 0.0
C617 C 0.17342 0.29094 0.50566 0.0
C618 C 0.20752 0.25838 0.50978 0.0
C619 C 0.23025 0.22662 0.50222 0.0
C620 C 0.26059 0.19108 0.50909 0.0
C621 C 0.2434 0.13941 0.50693 0.0
C622 C 0.31396 0.19679 0.506 0.0
C623 C 0.2505 0.20707 0.52171 0.0
C624 C 0.22073 0.24663 0.52189 0.0
C625 C 0.20479 0.2667 0.53252 0.0
C626 C 0.21876 0.24518 0.54323 0.0
C627 C 0.24771 0.20343 0.54326 0.0
C628 C 0.2644 0.18481 0.53233 0.0
H629 H 0.75286 0.64038 0.74565 0.0
H630 H 0.79024 0.77408 0.7283 0.0
H631 H 0.80577 0.81086 0.74783 0.0
H632 H 0.69557 0.69687 0.77249 0.0
H633 H 0.71839 0.65076 0.78217 0.0
H634 H 0.70388 0.63689 0.76693 0.0
H635 H 0.78991 0.60428 0.76377 0.0
H636 H 0.8048 0.61834 0.77893 0.0
H637 H 0.84052 0.64234 0.76699 0.0
H638 H 0.83198 0.8281 0.76866 0.0
H639 H 0.85796 0.82712 0.78974 0.0
H640 H 0.79713 0.68549 0.79394 0.0
C641 C 0.76304 0.67778 0.74597 0.0
C642 C 0.77034 0.70428 0.73543 0.0
C643 C 0.78409 0.75304 0.73624 0.0
C644 C 0.79307 0.77431 0.74731 0.0
C645 C 0.78713 0.74672 0.75751 0.0
C646 C 0.7714 0.69983 0.75697 0.0
C647 C 0.77056 0.67723 0.76922 0.0
C648 C 0.71903 0.66471 0.77292 0.0
C649 C 0.80341 0.63295 0.76975 0.0
C650 C 0.79033 0.71802 0.77663 0.0
C651 C 0.79966 0.75783 0.7697 0.0
C652 C 0.8234 0.79781 0.77426 0.0
C653 C 0.83815 0.79695 0.78619 0.0
C654 C 0.82827 0.75682 0.79343 0.0
C655 C 0.80344 0.71726 0.78864 0.0
H656 H 0.08494 0.05034 0.22041 0.0
H657 H 0.11572 0.06148 0.18274 0.0
H658 H 0.03258 0.03599 0.17811 0.0
H659 H 1.00794 0.94852 0.21934 0.0
H660 H 0.96722 0.97085 0.23048 0.0
H661 H 0.02919 0.9889 0.23069 0.0
H662 H 1.00332 0.078 0.2301 0.0
H663 H 0.94123 0.06021 0.22986 0.0
H664 H 0.9645 0.09856 0.21834 0.0
H665 H 0.94733 1.00286 0.1778 0.0
H666 H 0.86497 0.97334 0.1818 0.0
H667 H 0.88803 0.99312 0.21958 0.0
C668 C 0.07416 0.04726 0.21119 0.0
C669 C 0.10675 0.05726 0.20191 0.0
C670 C 0.09121 0.05379 0.18996 0.0
C671 C 0.04415 0.03929 0.18726 0.0
C672 C 0.01284 0.02956 0.19663 0.0
C673 C 0.02705 0.03419 0.20835 0.0
C674 C 0.98617 0.02332 0.21679 0.0
C675 C 0.99837 0.98034 0.22479 0.0
C676 C 0.97303 0.06767 0.22421 0.0
C677 C 0.94688 1.01104 0.20801 0.0
C678 C 0.96305 0.01422 0.19642 0.0
C679 C 0.93405 1.00117 0.18683 0.0
C680 C 0.88743 0.98444 0.18916 0.0
C681 C 0.87 0.98204 0.20096 0.0
C682 C 0.90006 0.99592 0.21046 0.0
H683 H 0.09448 0.40625 0.44856 0.0
H684 H 0.95967 0.33485 0.44137 0.0
H685 H 0.92035 0.41364 0.43845 0.0
H686 H 0.04347 0.4957 0.46637 0.0
H687 H 0.08412 0.54238 0.46182 0.0
H688 H 0.10308 0.48085 0.46139 0.0
H689 H 0.12425 0.48958 0.43907 0.0
H690 H 0.10533 0.55128 0.43944 0.0
H691 H 0.07926 0.51059 0.4288 0.0
H692 H 0.89534 0.50077 0.43712 0.0
H693 H 0.88409 0.58794 0.43994 0.0
H694 H 0.03357 0.60168 0.45004 0.0
C695 C 0.05699 0.40732 0.44604 0.0
C696 C 0.0302 0.36468 0.44488 0.0
C697 C 0.9808 0.36725 0.4421 0.0
C698 C 0.95831 0.41178 0.4404 0.0
C699 C 0.98558 0.45335 0.44176 0.0
C700 C 0.03373 0.45145 0.44467 0.0
C701 C 0.0536 0.50104 0.44707 0.0
C702 C 0.07214 0.50522 0.45993 0.0
C703 C 0.09294 0.51387 0.43805 0.0
C704 C 1.00906 0.53115 0.44517 0.0
C705 C 0.97046 0.50315 0.44183 0.0
C706 C 0.92536 0.52301 0.43971 0.0
C707 C 0.91934 0.57258 0.44129 0.0
C708 C 0.95792 0.60153 0.44521 0.0
C709 C 1.00343 0.58045 0.44702 0.0
H710 H 0.41525 0.53591 0.70613 0.0
H711 H 0.42972 0.38705 0.69575 0.0
H712 H 0.51715 0.39825 0.69335 0.0
H713 H 0.50572 0.58133 0.68502 0.0
H714 H 0.52673 0.62666 0.69518 0.0
H715 H 0.46516 0.60718 0.69572 0.0
H716 H 0.47495 0.58653 0.71805 0.0
H717 H 0.5365 0.60579 0.71757 0.0
H718 H 0.52204 0.54626 0.7226 0.0
H719 H 0.60409 0.42341 0.69452 0.0
H720 H 0.683 0.46336 0.69674 0.0
H721 H 0.61139 0.59777 0.7041 0.0
C722 C 0.43682 0.50586 0.70323 0.0
C723 C 0.41583 0.46054 0.70117 0.0
C724 C 0.44509 0.42211 0.69732 0.0
C725 C 0.49478 0.4281 0.69597 0.0
C726 C 0.51451 0.47307 0.69822 0.0
C727 C 0.48632 0.51156 0.70152 0.0
C728 C 0.51644 0.5562 0.7033 0.0
C729 C 0.50269 0.59514 0.69427 0.0
C730 C 0.51222 0.57476 0.71614 0.0
C731 C 0.5661 0.5365 0.70083 0.0
C732 C 0.56427 0.48833 0.69802 0.0
C733 C 0.60589 0.46135 0.69641 0.0
C734 C 0.65047 0.4842 0.69772 0.0
C735 C 0.653 0.53367 0.70031 0.0
C736 C 0.61027 0.56017 0.70176 0.0
H737 H 0.49505 0.13745 0.96608 0.0
H738 H 0.47471 0.16093 0.92834 0.0
H739 H 0.50366 0.0784 0.92426 0.0
H740 H 0.60007 0.0618 0.9647 0.0
H741 H 0.57986 0.02333 0.97654 0.0
H742 H 0.56169 0.08519 0.97621 0.0
H743 H 0.47251 0.05918 0.97695 0.0
H744 H 0.49039 0.99725 0.97723 0.0
H745 H 0.44985 0.0183 0.96589 0.0
H746 H 0.53746 0.99281 0.92458 0.0
H747 H 0.56434 0.9102 0.92931 0.0
H748 H 0.55286 0.94173 0.96693 0.0
C749 C 0.4975 0.12548 0.95694 0.0
C750 C 0.48371 0.15571 0.94748 0.0
C751 C 0.48573 0.13835 0.93567 0.0
C752 C 0.50213 0.09163 0.9333 0.0
C753 C 0.5152 0.06253 0.94286 0.0
C754 C 0.51232 0.07872 0.95446 0.0
C755 C 0.52482 0.03963 0.96324 0.0
C756 C 0.56926 0.05331 0.9706 0.0
C757 C 0.48182 0.02791 0.9713 0.0
C758 C 0.53559 0.99884 0.95481 0.0
C759 C 0.53069 0.0128 0.94308 0.0
C760 C 0.54083 0.98145 0.93374 0.0
C761 C 0.55611 0.9347 0.93649 0.0
C762 C 0.55989 0.91956 0.94846 0.0
C763 C 0.54937 0.95213 0.95769 0.0
H764 H 0.12636 0.49183 0.05845 0.0
H765 H 0.15288 0.47569 0.0962 0.0
H766 H 0.0706 0.50473 0.10048 0.0
H767 H 0.05063 0.5968 0.05961 0.0
H768 H 1.01085 0.57568 0.04811 0.0
H769 H 0.07276 0.5573 0.04818 0.0
H770 H 0.04632 0.46834 0.0481 0.0
H771 H 0.98435 0.48644 0.04808 0.0
H772 H 1.00638 0.44695 0.05952 0.0
H773 H 0.98565 0.53832 0.10047 0.0
H774 H 0.90273 0.56542 0.09617 0.0
H775 H 0.92975 0.55043 0.05841 0.0
C776 C 0.11501 0.49512 0.06762 0.0
C777 C 0.14605 0.48247 0.07702 0.0
C778 C 0.12962 0.48571 0.0889 0.0
C779 C 0.08306 0.50219 0.0914 0.0
C780 C 0.05314 0.51414 0.0819 0.0
C781 C 0.06829 0.51009 0.07024 0.0
C782 C 0.02828 0.52193 0.06162 0.0
C783 C 0.04143 0.56552 0.05393 0.0
C784 C 0.01559 0.47831 0.05387 0.0
C785 C 0.98826 0.53367 0.07022 0.0
C786 C 1.00345 0.52976 0.08189 0.0
C787 C 0.97325 0.54094 0.09137 0.0
C788 C 0.92632 0.55633 0.08886 0.0
C789 C 0.90982 0.55926 0.07698 0.0
C790 C 0.94123 0.5476 0.06758 0.0
H791 H 0.55353 0.58601 0.31126 0.0
H792 H 0.56689 0.61523 0.34896 0.0
H793 H 0.5438 0.53128 0.35341 0.0
H794 H 0.45349 0.50757 0.31248 0.0
H795 H 0.4756 0.46801 0.30107 0.0
H796 H 0.49272 0.53013 0.30105 0.0
H797 H 0.58235 0.50556 0.30113 0.0
H798 H 0.56548 0.4433 0.30121 0.0
H799 H 0.60445 0.46642 0.31264 0.0
H800 H 0.51194 0.44538 0.35351 0.0
H801 H 0.48167 0.36358 0.34928 0.0
H802 H 0.49853 0.3891 0.31152 0.0
C803 C 0.55149 0.57475 0.32046 0.0
C804 C 0.56134 0.60713 0.3298 0.0
C805 C 0.55925 0.59092 0.3417 0.0
C806 C 0.54617 0.54338 0.34429 0.0
C807 C 0.53653 0.51232 0.33486 0.0
C808 C 0.53985 0.52726 0.32317 0.0
C809 C 0.52891 0.48683 0.31462 0.0
C810 C 0.48507 0.49887 0.30685 0.0
C811 C 0.57293 0.47483 0.30695 0.0
C812 C 0.51791 0.44688 0.32328 0.0
C813 C 0.52197 0.46231 0.33493 0.0
C814 C 0.50968 0.43268 0.34444 0.0
C815 C 0.49257 0.38634 0.34197 0.0
C816 C 0.48899 0.36979 0.33011 0.0
C817 C 0.50242 0.40035 0.32069 0.0
H818 H 0.61243 0.92682 0.57229 0.0
H819 H 0.68572 0.06166 0.57795 0.0
H820 H 0.6073 0.10266 0.58013 0.0
H821 H 0.52161 0.97633 0.55377 0.0
H822 H 0.4749 0.93694 0.55895 0.0
H823 H 0.53645 0.91753 0.55926 0.0
H824 H 0.52931 0.89996 0.58181 0.0
H825 H 0.46769 0.91939 0.58157 0.0
H826 H 0.50958 0.94669 0.59173 0.0
H827 H 0.52045 0.12847 0.58181 0.0
H828 H 0.43268 0.13961 0.58015 0.0
H829 H 0.41639 0.98959 0.57106 0.0
C830 C 0.61179 0.96484 0.57419 0.0
C831 C 0.65486 0.99112 0.5752 0.0
C832 C 0.65295 0.04101 0.57729 0.0
C833 C 0.60865 0.06445 0.57857 0.0
C834 C 0.56667 0.03759 0.57746 0.0
C835 C 0.56789 0.98901 0.57511 0.0
C836 C 0.51781 0.9693 0.57317 0.0
C837 C 0.51239 0.94883 0.56054 0.0
C838 C 0.50538 0.93161 0.58263 0.0
C839 C 0.48818 0.01434 0.57477 0.0
C840 C 0.51696 0.05313 0.57751 0.0
C841 C 0.49764 0.0984 0.57961 0.0
C842 C 0.44776 0.10435 0.57869 0.0
C843 C 0.41785 0.06554 0.57542 0.0
C844 C 0.43845 0.01995 0.5735 0.0
H845 H 0.99415 0.10659 0.82759 0.0
H846 H 0.14498 0.09045 0.8361 0.0
H847 H 0.13331 1.00318 0.8385 0.0
H848 H 0.95106 0.01376 0.84875 0.0
H849 H 0.90415 0.9945 0.8388 0.0
H850 H 0.92388 0.05595 0.83866 0.0
H851 H 0.94114 0.04942 0.81609 0.0
H852 H 0.9218 0.98798 0.81617 0.0
H853 H 0.98069 1.00309 0.81075 0.0
H854 H 0.10741 0.91661 0.83688 0.0
H855 H 0.067 0.83842 0.83389 0.0
H856 H 0.93165 0.91139 0.82855 0.0
C857 C 0.02451 0.08478 0.83019 0.0
C858 C 0.07051 0.10523 0.83165 0.0
C859 C 0.10938 0.07557 0.83503 0.0
C860 C 0.10311 0.02595 0.83637 0.0
C861 C 0.05749 1.00673 0.83459 0.0
C862 C 0.01862 0.03539 0.83184 0.0
C863 C 0.97356 1.00577 0.83017 0.0
C864 C 0.93594 0.01824 0.83966 0.0
C865 C 0.95312 1.01194 0.81755 0.0
C866 C 0.99342 0.95581 0.83202 0.0
C867 C 0.04201 0.95707 0.83448 0.0
C868 C 0.06915 0.91521 0.8353 0.0
C869 C 0.04604 0.87105 0.83356 0.0
C870 C 0.9962 0.8691 0.8313 0.0
C871 C 0.96955 0.91199 0.83067 0.0
H872 H 0.61284 1.00732 0.20116 0.0
H873 H 0.57234 0.85749 0.19871 0.0
H874 H 0.48712 0.88043 0.19837 0.0
H875 H 0.51768 0.04452 0.22011 0.0
H876 H 0.50872 0.10141 0.21288 0.0
H877 H 0.56694 0.07354 0.21264 0.0
H878 H 0.56764 0.0775 0.18963 0.0
H879 H 0.50947 0.10556 0.1898 0.0
H880 H 0.51874 0.05147 0.18136 0.0
H881 H 0.40582 0.919 0.19969 0.0
H882 H 0.33447 0.9715 0.20096 0.0
H883 H 0.42729 0.0962 0.20141 0.0
C884 C 0.58607 0.97937 0.20047 0.0
C885 C 0.59949 0.93057 0.19998 0.0
C886 C 0.56319 0.89515 0.19905 0.0
C887 C 0.51454 0.90777 0.19889 0.0
C888 C 0.50252 0.95606 0.19951 0.0
C889 C 0.53718 0.99138 0.20013 0.0
C890 C 0.51444 0.04065 0.20064 0.0
C891 C 0.52774 0.06654 0.21226 0.0
C892 C 0.5284 0.07055 0.18971 0.0
C893 C 0.4617 0.02737 0.20038 0.0
C894 C 0.45558 0.97837 0.19981 0.0
C895 C 0.41013 0.95749 0.20001 0.0
C896 C 0.36983 0.98752 0.20077 0.0
C897 C 0.37525 0.03789 0.20117 0.0
C898 C 0.42191 0.05785 0.20093 0.0
H899 H 0.93022 0.92467 0.44878 0.0
H900 H 0.05422 0.83173 0.44528 0.0
H901 H 0.10625 0.90306 0.44311 0.0
H902 H 0.9678 0.01603 0.42791 0.0
H903 H 0.94418 0.06438 0.43677 0.0
H904 H 0.91668 1.00607 0.4374 0.0
H905 H 0.92823 1.00437 0.46025 0.0
H906 H 0.95561 0.06268 0.4597 0.0
H907 H 0.98728 0.0133 0.4664 0.0
H908 H 0.14461 0.98487 0.44176 0.0
H909 H 0.16734 0.07007 0.44243 0.0
H910 H 0.01789 0.10926 0.44729 0.0
C911 C 0.96827 0.91911 0.44744 0.0
C912 C 0.98812 0.87247 0.44712 0.0
C913 C 0.03819 0.86703 0.44553 0.0
C914 C 0.06796 0.90734 0.44425 0.0
C915 C 0.0471 0.95276 0.44463 0.0
C916 C 0.99841 0.9588 0.44625 0.0
C917 C 0.98507 1.01134 0.44691 0.0
C918 C 0.95145 0.02526 0.43663 0.0
C919 C 0.96275 0.02363 0.45904 0.0
C920 C 0.03397 0.03413 0.44549 0.0
C921 C 0.0692 0.99973 0.44408 0.0
C922 C 0.11729 0.01206 0.44283 0.0
C923 C 0.1298 0.06068 0.44321 0.0
C924 C 0.09443 0.09659 0.44492 0.0
C925 C 0.0458 0.08288 0.44592 0.0
H926 H 0.09451 0.43198 0.69772 0.0
H927 H 0.18572 0.55762 0.69592 0.0
H928 H 0.11368 0.60889 0.69391 0.0
H929 H 1.00174 0.47197 0.67716 0.0
H930 H 0.95379 0.44643 0.68583 0.0
H931 H 1.01251 0.41951 0.68611 0.0
H932 H 0.01457 0.42724 0.70906 0.0
H933 H 0.95591 0.4541 0.70885 0.0
H934 H 1.00523 0.48505 0.71581 0.0
H935 H 0.03153 0.64627 0.69252 0.0
H936 H 0.94604 0.66811 0.69347 0.0
H937 H 0.90826 0.51803 0.69725 0.0
C938 C 0.09942 0.47024 0.69672 0.0
C939 C 0.14579 0.49083 0.69683 0.0
C940 C 0.15058 0.54111 0.6958 0.0
C941 C 0.10989 0.57043 0.69461 0.0
C942 C 0.0647 0.54893 0.6946 0.0
C943 C 0.05925 0.5 0.69573 0.0
C944 C 1.00674 0.48609 0.69631 0.0
C945 C 0.99289 0.45411 0.68572 0.0
C946 C 0.99494 0.46169 0.70822 0.0
C947 C 0.98335 0.53491 0.69541 0.0
C948 C 0.01742 0.57058 0.69426 0.0
C949 C 1.00459 0.61862 0.6934 0.0
C950 C 0.95579 0.63062 0.69393 0.0
C951 C 0.92021 0.59483 0.69545 0.0
C952 C 0.93442 0.54627 0.69606 0.0
H953 H 0.51606 0.41292 0.95189 0.0
H954 H 0.36647 0.45639 0.95085 0.0
H955 H 0.3908 0.54079 0.95064 0.0
H956 H 0.55725 0.50815 0.97092 0.0
H957 H 0.61339 0.51615 0.96324 0.0
H958 H 0.58463 0.45841 0.96329 0.0
H959 H 0.58582 0.45727 0.94026 0.0
H960 H 0.61457 0.51503 0.94015 0.0
H961 H 0.55925 0.50623 0.93215 0.0
H962 H 0.43022 0.6208 0.95113 0.0
H963 H 0.48344 0.69151 0.95157 0.0
H964 H 0.60759 0.59759 0.95162 0.0
C965 C 0.48849 0.4402 0.95161 0.0
C966 C 0.43932 0.42771 0.9514 0.0
C967 C 0.4044 0.4647 0.95099 0.0
C968 C 0.41778 0.51296 0.95088 0.0
C969 C 0.46633 0.52406 0.95111 0.0
C970 C 0.50125 0.4889 0.9514 0.0
C971 C 0.55092 0.51104 0.9515 0.0
C972 C 0.57814 0.49764 0.96292 0.0
C973 C 0.5793 0.49653 0.94035 0.0
C974 C 0.53824 0.56391 0.9513 0.0
C975 C 0.48922 0.57057 0.95112 0.0
C976 C 0.46874 0.61613 0.9512 0.0
C977 C 0.49923 0.65609 0.95147 0.0
C978 C 0.54965 0.65023 0.95157 0.0
C979 C 0.5692 0.60338 0.95144 0.0
H980 H 0.58792 0.61135 0.07496 0.0
H981 H 0.68032 0.48857 0.08088 0.0
H982 H 0.60896 0.4367 0.08273 0.0
H983 H 0.49161 0.57664 0.09483 0.0
H984 H 0.44478 0.59758 0.08507 0.0
H985 H 0.50288 0.62579 0.08483 0.0
H986 H 0.50948 0.60949 0.06221 0.0
H987 H 0.45137 0.58137 0.06239 0.0
H988 H 0.50257 0.54919 0.05675 0.0
H989 H 0.52849 0.39851 0.08413 0.0
H990 H 0.44401 0.37406 0.08326 0.0
H991 H 0.40241 0.52049 0.07525 0.0
C992 C 0.59308 0.5736 0.07674 0.0
C993 C 0.63969 0.55398 0.07788 0.0
C994 C 0.64501 0.50431 0.07999 0.0
C995 C 0.60469 0.47464 0.0811 0.0
C996 C 0.55932 0.49508 0.07993 0.0
C997 C 0.5532 0.54327 0.07767 0.0
C998 C 0.50046 0.55554 0.07618 0.0
C999 C 0.48397 0.59099 0.0858 0.0
C1000 C 0.4904 0.57504 0.06363 0.0
C1001 C 0.4779 0.50663 0.07795 0.0
C1002 C 0.51261 0.47253 0.08025 0.0
C1003 C 0.50099 0.42484 0.08229 0.0
C1004 C 0.4527 0.41139 0.08181 0.0
C1005 C 0.41629 0.44529 0.07916 0.0
C1006 C 0.42926 0.49369 0.07727 0.0
H1007 H 0.50463 0.11448 0.32648 0.0
H1008 H 0.35512 0.07215 0.32909 0.0
H1009 H 0.37899 0.98737 0.32888 0.0
H1010 H 0.54189 0.02044 0.30687 0.0
H1011 H 0.59931 1.01193 0.31393 0.0
H1012 H 0.57073 0.06973 0.31437 0.0
H1013 H 0.57582 0.06979 0.33737 0.0
H1014 H 0.60459 0.01207 0.337 0.0
H1015 H 0.55073 0.02041 0.3456 0.0
H1016 H 0.41865 0.90646 0.32764 0.0
H1017 H 0.47226 0.83586 0.3267 0.0
H1018 H 0.59564 0.93056 0.32559 0.0
C1019 C 0.47693 0.08741 0.32705 0.0
C1020 C 0.42797 0.10025 0.32779 0.0
C1021 C 0.39291 0.0635 0.32855 0.0
C1022 C 0.40605 0.01507 0.3284 0.0
C1023 C 0.45448 1.00363 0.32759 0.0
C1024 C 0.48944 0.03869 0.32703 0.0
C1025 C 0.53899 0.01658 0.32634 0.0
C1026 C 0.5642 0.0305 0.31468 0.0
C1027 C 0.56931 0.03054 0.33723 0.0
C1028 C 0.52629 0.96378 0.32651 0.0
C1029 C 0.47735 0.95701 0.32717 0.0
C1030 C 0.45711 0.91129 0.3272 0.0
C1031 C 0.48778 0.8714 0.32663 0.0
C1032 C 0.53814 0.87753 0.32614 0.0
C1033 C 0.55734 0.9245 0.32606 0.0
H1034 H 0.90959 1.00636 0.57942 0.0
H1035 H 0.94783 0.85677 0.58403 0.0
H1036 H 0.03318 0.87893 0.58506 0.0
H1037 H 1.00701 0.03822 0.56101 0.0
H1038 H 0.01586 0.09656 0.5675 0.0
H1039 H 0.95732 0.06943 0.56772 0.0
H1040 H 0.95414 0.07856 0.59063 0.0
H1041 H 1.01264 0.10593 0.59047 0.0
H1042 H 1.00181 0.05396 0.59958 0.0
H1043 H 0.11525 0.91639 0.58378 0.0
H1044 H 0.18726 0.96777 0.58188 0.0
H1045 H 0.09572 0.09298 0.57926 0.0
C1046 C 0.93584 0.97832 0.58079 0.0
C1047 C 0.92177 0.92979 0.58163 0.0
C1048 C 0.95746 0.89424 0.5834 0.0
C1049 C 1.00618 0.90642 0.58398 0.0
C1050 C 0.01888 0.95441 0.58293 0.0
C1051 C 0.98473 0.98991 0.58154 0.0
C1052 C 1.00809 0.03872 0.58051 0.0
C1053 C 0.99637 0.06209 0.56847 0.0
C1054 C 0.99329 0.0712 0.59092 0.0
C1055 C 0.06059 0.02496 0.58132 0.0
C1056 C 0.06612 0.97614 0.58266 0.0
C1057 C 0.11138 0.95478 0.58292 0.0
C1058 C 0.15206 0.98416 0.5818 0.0
C1059 C 0.14717 0.03436 0.58058 0.0
C1060 C 0.10072 0.0548 0.58042 0.0
H1061 H 0.0144 0.61422 0.82795 0.0
H1062 H 0.86899 0.57634 0.83811 0.0
H1063 H 0.89209 0.49146 0.83903 0.0
H1064 H 0.03524 0.51463 0.80927 0.0
H1065 H 0.09696 0.50655 0.81359 0.0
H1066 H 0.07002 0.56504 0.81437 0.0
H1067 H 0.09279 0.57122 0.83666 0.0
H1068 H 0.12012 0.51284 0.83593 0.0
H1069 H 0.07409 0.52477 0.84677 0.0
H1070 H 0.9291 0.40964 0.83738 0.0
H1071 H 0.97957 0.33757 0.83461 0.0
H1072 H 0.10108 0.42859 0.82619 0.0
C1073 C 0.98759 0.58819 0.83053 0.0
C1074 C 0.93985 0.60221 0.83294 0.0
C1075 C 0.90584 0.56676 0.83622 0.0
C1076 C 0.91854 0.51828 0.83676 0.0
C1077 C 0.96554 0.50558 0.83411 0.0
C1078 C 0.99972 0.53949 0.83119 0.0
C1079 C 0.04753 0.51607 0.82854 0.0
C1080 C 0.06334 0.52618 0.81568 0.0
C1081 C 0.08589 0.53218 0.83751 0.0
C1082 C 0.0346 0.4638 0.83024 0.0
C1083 C 0.98712 0.45845 0.83343 0.0
C1084 C 0.96652 0.41337 0.83502 0.0
C1085 C 0.99537 0.37264 0.83339 0.0
C1086 C 0.04431 0.37735 0.83027 0.0
C1087 C 0.06393 0.42368 0.82871 0.0
loop_
_geom_bond_atom_site_label_1
_geom_bond_atom_site_label_2
_geom_bond_distance
_geom_bond_site_symmetry_2
_ccdc_geom_bond_type
O0 Cd1 2.223 . S
O0 C8 1.315 . S
Cd1 O0 2.223 . S
Cd1 O4 2.297 . S
Cd1 O5 2.439 . S
Cd1 O11 2.240 . S
Cd2 O3 2.240 . S
Cd2 O10 2.223 . S
Cd2 O12 2.297 . S
Cd2 O13 2.439 . S
O3 Cd2 2.240 . S
O3 C8 1.279 . S
O4 Cd1 2.297 . S
O4 C6 1.247 . S
O5 Cd1 2.439 . S
O5 C6 1.208 . S
C6 O4 1.247 . S
C6 O5 1.208 . S
C7 O12 1.247 . S
C7 O13 1.208 . S
C8 O0 1.315 . S
C8 O3 1.279 . S
C9 O10 1.315 . S
C9 O11 1.279 . S
O10 Cd2 2.223 . S
O10 C9 1.315 . S
O11 Cd1 2.240 . S
O11 C9 1.279 . S
O12 Cd2 2.297 . S
O12 C7 1.247 . S
O13 Cd2 2.439 . S
O13 C7 1.208 . S
O14 Cd15 2.223 . S
O14 C22 1.315 . S
Cd15 O14 2.223 . S
Cd15 O18 2.297 . S
Cd15 O19 2.439 . S
Cd15 O25 2.240 . S
Cd16 O17 2.240 . S
Cd16 O24 2.223 . S
Cd16 O26 2.297 . S
Cd16 O27 2.439 . S
O17 Cd16 2.240 . S
O17 C22 1.279 . S
O18 Cd15 2.297 . S
O18 C20 1.247 . S
O19 Cd15 2.439 . S
O19 C20 1.208 . S
C20 O18 1.247 . S
C20 O19 1.208 . S
C21 O26 1.247 . S
C21 O27 1.208 . S
C22 O14 1.315 . S
C22 O17 1.279 . S
C23 O24 1.315 . S
C23 O25 1.279 . S
O24 Cd16 2.223 . S
O24 C23 1.315 . S
O25 Cd15 2.240 . S
O25 C23 1.279 . S
O26 Cd16 2.297 . S
O26 C21 1.247 . S
O27 Cd16 2.439 . S
O27 C21 1.208 . S
O28 Cd29 2.223 . S
O28 C36 1.315 . S
Cd29 O28 2.223 . S
Cd29 O32 2.297 . S
Cd29 O33 2.439 . S
Cd29 O39 2.240 . S
Cd30 O31 2.240 . S
Cd30 O38 2.223 . S
Cd30 O40 2.297 . S
Cd30 O41 2.439 . S
O31 Cd30 2.240 . S
O31 C36 1.279 . S
O32 Cd29 2.297 . S
O32 C34 1.247 . S
O33 Cd29 2.439 . S
O33 C34 1.208 . S
C34 O32 1.247 . S
C34 O33 1.208 . S
C35 O40 1.247 . S
C35 O41 1.208 . S
C36 O28 1.315 . S
C36 O31 1.279 . S
C37 O38 1.315 . S
C37 O39 1.279 . S
O38 Cd30 2.223 . S
O38 C37 1.315 . S
O39 Cd29 2.240 . S
O39 C37 1.279 . S
O40 Cd30 2.297 . S
O40 C35 1.247 . S
O41 Cd30 2.439 . S
O41 C35 1.208 . S
O42 Cd43 2.223 . S
O42 C50 1.315 . S
Cd43 O42 2.223 . S
Cd43 O46 2.297 . S
Cd43 O47 2.439 . S
Cd43 O53 2.240 . S
Cd44 O45 2.240 . S
Cd44 O52 2.223 . S
Cd44 O54 2.297 . S
Cd44 O55 2.439 . S
O45 Cd44 2.240 . S
O45 C50 1.279 . S
O46 Cd43 2.297 . S
O46 C48 1.247 . S
O47 Cd43 2.439 . S
O47 C48 1.208 . S
C48 O46 1.247 . S
C48 O47 1.208 . S
C49 O54 1.247 . S
C49 O55 1.208 . S
C50 O42 1.315 . S
C50 O45 1.279 . S
C51 O52 1.315 . S
C51 O53 1.279 . S
O52 Cd44 2.223 . S
O52 C51 1.315 . S
O53 Cd43 2.240 . S
O53 C51 1.279 . S
O54 Cd44 2.297 . S
O54 C49 1.247 . S
O55 Cd44 2.439 . S
O55 C49 1.208 . S
O56 Cd57 2.223 . S
O56 C64 1.315 . S
Cd57 O56 2.223 . S
Cd57 O60 2.297 . S
Cd57 O61 2.439 . S
Cd57 O67 2.240 . S
Cd58 O59 2.240 . S
Cd58 O66 2.223 . S
Cd58 O68 2.297 . S
Cd58 O69 2.439 . S
O59 Cd58 2.240 . S
O59 C64 1.279 . S
O60 Cd57 2.297 . S
O60 C62 1.247 . S
O61 Cd57 2.439 . S
O61 C62 1.208 . S
C62 O60 1.247 . S
C62 O61 1.208 . S
C63 O68 1.247 . S
C63 O69 1.208 . S
C64 O56 1.315 . S
C64 O59 1.279 . S
C65 O66 1.315 . S
C65 O67 1.279 . S
O66 Cd58 2.223 . S
O66 C65 1.315 . S
O67 Cd57 2.240 . S
O67 C65 1.279 . S
O68 Cd58 2.297 . S
O68 C63 1.247 . S
O69 Cd58 2.439 . S
O69 C63 1.208 . S
O70 Cd71 2.223 . S
O70 C78 1.315 . S
Cd71 O70 2.223 . S
Cd71 O74 2.297 . S
Cd71 O75 2.439 . S
Cd71 O81 2.240 . S
Cd72 O73 2.240 . S
Cd72 O80 2.223 . S
Cd72 O82 2.297 . S
Cd72 O83 2.439 . S
O73 Cd72 2.240 . S
O73 C78 1.279 . S
O74 Cd71 2.297 . S
O74 C76 1.247 . S
O75 Cd71 2.439 . S
O75 C76 1.208 . S
C76 O74 1.247 . S
C76 O75 1.208 . S
C77 O82 1.247 . S
C77 O83 1.208 . S
C78 O70 1.315 . S
C78 O73 1.279 . S
C79 O80 1.315 . S
C79 O81 1.279 . S
O80 Cd72 2.223 . S
O80 C79 1.315 . S
O81 Cd71 2.240 . S
O81 C79 1.279 . S
O82 Cd72 2.297 . S
O82 C77 1.247 . S
O83 Cd72 2.439 . S
O83 C77 1.208 . S
O84 Cd85 2.223 . S
O84 C92 1.315 . S
Cd85 O84 2.223 . S
Cd85 O88 2.297 . S
Cd85 O89 2.439 . S
Cd85 O95 2.240 . S
Cd86 O87 2.240 . S
Cd86 O94 2.223 . S
Cd86 O96 2.297 . S
Cd86 O97 2.439 . S
O87 Cd86 2.240 . S
O87 C92 1.279 . S
O88 Cd85 2.297 . S
O88 C90 1.247 . S
O89 Cd85 2.439 . S
O89 C90 1.208 . S
C90 O88 1.247 . S
C90 O89 1.208 . S
C91 O96 1.247 . S
C91 O97 1.208 . S
C92 O84 1.315 . S
C92 O87 1.279 . S
C93 O94 1.315 . S
C93 O95 1.279 . S
O94 Cd86 2.223 . S
O94 C93 1.315 . S
O95 Cd85 2.240 . S
O95 C93 1.279 . S
O96 Cd86 2.297 . S
O96 C91 1.247 . S
O97 Cd86 2.439 . S
O97 C91 1.208 . S
O98 Cd99 2.223 . S
O98 C106 1.315 . S
Cd99 O98 2.223 . S
Cd99 O102 2.297 . S
Cd99 O103 2.439 . S
Cd99 O109 2.240 . S
Cd100 O101 2.240 . S
Cd100 O108 2.223 . S
Cd100 O110 2.297 . S
Cd100 O111 2.439 . S
O101 Cd100 2.240 . S
O101 C106 1.279 . S
O102 Cd99 2.297 . S
O102 C104 1.247 . S
O103 Cd99 2.439 . S
O103 C104 1.208 . S
C104 O102 1.247 . S
C104 O103 1.208 . S
C105 O110 1.247 . S
C105 O111 1.208 . S
C106 O98 1.315 . S
C106 O101 1.279 . S
C107 O108 1.315 . S
C107 O109 1.279 . S
O108 Cd100 2.223 . S
O108 C107 1.315 . S
O109 Cd99 2.240 . S
O109 C107 1.279 . S
O110 Cd100 2.297 . S
O110 C105 1.247 . S
O111 Cd100 2.439 . S
O111 C105 1.208 . S
O112 Cd113 2.223 . S
O112 C120 1.315 . S
Cd113 O112 2.223 . S
Cd113 O116 2.297 . S
Cd113 O117 2.439 . S
Cd113 O123 2.240 . S
Cd114 O115 2.240 . S
Cd114 O122 2.223 . S
Cd114 O124 2.297 . S
Cd114 O125 2.439 . S
O115 Cd114 2.240 . S
O115 C120 1.279 . S
O116 Cd113 2.297 . S
O116 C118 1.247 . S
O117 Cd113 2.439 . S
O117 C118 1.208 . S
C118 O116 1.247 . S
C118 O117 1.208 . S
C119 O124 1.247 . S
C119 O125 1.208 . S
C120 O112 1.315 . S
C120 O115 1.279 . S
C121 O122 1.315 . S
C121 O123 1.279 . S
O122 Cd114 2.223 . S
O122 C121 1.315 . S
O123 Cd113 2.240 . S
O123 C121 1.279 . S
O124 Cd114 2.297 . S
O124 C119 1.247 . S
O125 Cd114 2.439 . S
O125 C119 1.208 . S
O126 Cd127 2.223 . S
O126 C134 1.315 . S
Cd127 O126 2.223 . S
Cd127 O130 2.297 . S
Cd127 O131 2.439 . S
Cd127 O137 2.240 . S
Cd128 O129 2.240 . S
Cd128 O136 2.223 . S
Cd128 O138 2.297 . S
Cd128 O139 2.439 . S
O129 Cd128 2.240 . S
O129 C134 1.279 . S
O130 Cd127 2.297 . S
O130 C132 1.247 . S
O131 Cd127 2.439 . S
O131 C132 1.208 . S
C132 O130 1.247 . S
C132 O131 1.208 . S
C133 O138 1.247 . S
C133 O139 1.208 . S
C134 O126 1.315 . S
C134 O129 1.279 . S
C135 O136 1.315 . S
C135 O137 1.279 . S
O136 Cd128 2.223 . S
O136 C135 1.315 . S
O137 Cd127 2.240 . S
O137 C135 1.279 . S
O138 Cd128 2.297 . S
O138 C133 1.247 . S
O139 Cd128 2.439 . S
O139 C133 1.208 . S
O140 Cd141 2.223 . S
O140 C148 1.315 . S
Cd141 O140 2.223 . S
Cd141 O144 2.297 . S
Cd141 O145 2.439 . S
Cd141 O151 2.240 . S
Cd142 O143 2.240 . S
Cd142 O150 2.223 . S
Cd142 O152 2.297 . S
Cd142 O153 2.439 . S
O143 Cd142 2.240 . S
O143 C148 1.279 . S
O144 Cd141 2.297 . S
O144 C146 1.247 . S
O145 Cd141 2.439 . S
O145 C146 1.208 . S
C146 O144 1.247 . S
C146 O145 1.208 . S
C147 O152 1.247 . S
C147 O153 1.208 . S
C148 O140 1.315 . S
C148 O143 1.279 . S
C149 O150 1.315 . S
C149 O151 1.279 . S
O150 Cd142 2.223 . S
O150 C149 1.315 . S
O151 Cd141 2.240 . S
O151 C149 1.279 . S
O152 Cd142 2.297 . S
O152 C147 1.247 . S
O153 Cd142 2.439 . S
O153 C147 1.208 . S
O154 Cd155 2.223 . S
O154 C162 1.315 . S
Cd155 O154 2.223 . S
Cd155 O158 2.297 . S
Cd155 O159 2.439 . S
Cd155 O165 2.240 . S
Cd156 O157 2.240 . S
Cd156 O164 2.223 . S
Cd156 O166 2.297 . S
Cd156 O167 2.439 . S
O157 Cd156 2.240 . S
O157 C162 1.279 . S
O158 Cd155 2.297 . S
O158 C160 1.247 . S
O159 Cd155 2.439 . S
O159 C160 1.208 . S
C160 O158 1.247 . S
C160 O159 1.208 . S
C161 O166 1.247 . S
C161 O167 1.208 . S
C162 O154 1.315 . S
C162 O157 1.279 . S
C163 O164 1.315 . S
C163 O165 1.279 . S
O164 Cd156 2.223 . S
O164 C163 1.315 . S
O165 Cd155 2.240 . S
O165 C163 1.279 . S
O166 Cd156 2.297 . S
O166 C161 1.247 . S
O167 Cd156 2.439 . S
O167 C161 1.208 . S
O168 Cd169 2.223 . S
O168 C176 1.315 . S
Cd169 O168 2.223 . S
Cd169 O172 2.297 . S
Cd169 O173 2.439 . S
Cd169 O179 2.240 . S
Cd170 O171 2.240 . S
Cd170 O178 2.223 . S
Cd170 O180 2.297 . S
Cd170 O181 2.439 . S
O171 Cd170 2.240 . S
O171 C176 1.279 . S
O172 Cd169 2.297 . S
O172 C174 1.247 . S
O173 Cd169 2.439 . S
O173 C174 1.208 . S
C174 O172 1.247 . S
C174 O173 1.208 . S
C175 O180 1.247 . S
C175 O181 1.208 . S
C176 O168 1.315 . S
C176 O171 1.279 . S
C177 O178 1.315 . S
C177 O179 1.279 . S
O178 Cd170 2.223 . S
O178 C177 1.315 . S
O179 Cd169 2.240 . S
O179 C177 1.279 . S
O180 Cd170 2.297 . S
O180 C175 1.247 . S
O181 Cd170 2.439 . S
O181 C175 1.208 . S
O182 Cd183 2.223 . S
O182 C190 1.315 . S
Cd183 O182 2.223 . S
Cd183 O186 2.297 . S
Cd183 O187 2.439 . S
Cd183 O193 2.240 . S
Cd184 O185 2.240 . S
Cd184 O192 2.223 . S
Cd184 O194 2.297 . S
Cd184 O195 2.439 . S
O185 Cd184 2.240 . S
O185 C190 1.279 . S
O186 Cd183 2.297 . S
O186 C188 1.247 . S
O187 Cd183 2.439 . S
O187 C188 1.208 . S
C188 O186 1.247 . S
C188 O187 1.208 . S
C189 O194 1.247 . S
C189 O195 1.208 . S
C190 O182 1.315 . S
C190 O185 1.279 . S
C191 O192 1.315 . S
C191 O193 1.279 . S
O192 Cd184 2.223 . S
O192 C191 1.315 . S
O193 Cd183 2.240 . S
O193 C191 1.279 . S
O194 Cd184 2.297 . S
O194 C189 1.247 . S
O195 Cd184 2.439 . S
O195 C189 1.208 . S
O196 Cd197 2.223 . S
O196 C204 1.315 . S
Cd197 O196 2.223 . S
Cd197 O200 2.297 . S
Cd197 O201 2.439 . S
Cd197 O207 2.240 . S
Cd198 O199 2.240 . S
Cd198 O206 2.223 . S
Cd198 O208 2.297 . S
Cd198 O209 2.439 . S
O199 Cd198 2.240 . S
O199 C204 1.279 . S
O200 Cd197 2.297 . S
O200 C202 1.247 . S
O201 Cd197 2.439 . S
O201 C202 1.208 . S
C202 O200 1.247 . S
C202 O201 1.208 . S
C203 O208 1.247 . S
C203 O209 1.208 . S
C204 O196 1.315 . S
C204 O199 1.279 . S
C205 O206 1.315 . S
C205 O207 1.279 . S
O206 Cd198 2.223 . S
O206 C205 1.315 . S
O207 Cd197 2.240 . S
O207 C205 1.279 . S
O208 Cd198 2.297 . S
O208 C203 1.247 . S
O209 Cd198 2.439 . S
O209 C203 1.208 . S
O210 Cd211 2.223 . S
O210 C218 1.315 . S
Cd211 O210 2.223 . S
Cd211 O214 2.297 . S
Cd211 O215 2.439 . S
Cd211 O221 2.240 . S
Cd212 O213 2.240 . S
Cd212 O220 2.223 . S
Cd212 O222 2.297 . S
Cd212 O223 2.439 . S
O213 Cd212 2.240 . S
O213 C218 1.279 . S
O214 Cd211 2.297 . S
O214 C216 1.247 . S
O215 Cd211 2.439 . S
O215 C216 1.208 . S
C216 O214 1.247 . S
C216 O215 1.208 . S
C217 O222 1.247 . S
C217 O223 1.208 . S
C218 O210 1.315 . S
C218 O213 1.279 . S
C219 O220 1.315 . S
C219 O221 1.279 . S
O220 Cd212 2.223 . S
O220 C219 1.315 . S
O221 Cd211 2.240 . S
O221 C219 1.279 . S
O222 Cd212 2.297 . S
O222 C217 1.247 . S
O223 Cd212 2.439 . S
O223 C217 1.208 . S
H224 C236 0.930 . S
H225 C238 0.930 . S
H226 C239 0.930 . S
H227 C243 0.959 . S
H228 C243 0.959 . S
H229 C243 0.961 . S
H230 C244 0.960 . S
H231 C244 0.961 . S
H232 C244 0.959 . S
H233 C247 0.929 . S
H234 C248 0.931 . S
H235 C250 0.930 . S
C236 H224 0.930 . S
C236 C237 1.399 . S
C236 C241 1.399 . S
C237 C236 1.399 . S
C237 C238 1.376 . S
C238 H225 0.930 . S
C238 C237 1.376 . S
C238 C239 1.388 . S
C239 H226 0.930 . S
C239 C238 1.388 . S
C239 C240 1.390 . S
C240 C239 1.390 . S
C240 C241 1.394 . S
C240 C246 1.465 . S
C241 C236 1.399 . S
C241 C240 1.394 . S
C241 C242 1.516 . S
C242 C241 1.516 . S
C242 C243 1.502 . S
C242 C244 1.561 . S
C242 C245 1.526 . S
C243 H227 0.959 . S
C243 H228 0.959 . S
C243 H229 0.961 . S
C243 C242 1.502 . S
C244 H230 0.960 . S
C244 H231 0.961 . S
C244 H232 0.959 . S
C244 C242 1.561 . S
C245 C242 1.526 . S
C245 C246 1.396 . S
C245 C250 1.390 . S
C246 C240 1.465 . S
C246 C245 1.396 . S
C246 C247 1.399 . S
C247 H233 0.929 . S
C247 C246 1.399 . S
C247 C248 1.385 . S
C248 H234 0.931 . S
C248 C247 1.385 . S
C248 C249 1.389 . S
C249 C248 1.389 . S
C249 C250 1.387 . S
C250 H235 0.930 . S
C250 C245 1.390 . S
C250 C249 1.387 . S
H251 C263 0.930 . S
H252 C265 0.930 . S
H253 C266 0.930 . S
H254 C270 0.959 . S
H255 C270 0.959 . S
H256 C270 0.961 . S
H257 C271 0.960 . S
H258 C271 0.961 . S
H259 C271 0.959 . S
H260 C274 0.929 . S
H261 C275 0.931 . S
H262 C277 0.930 . S
C263 H251 0.930 . S
C263 C264 1.399 . S
C263 C268 1.399 . S
C264 C263 1.399 . S
C264 C265 1.376 . S
C265 H252 0.930 . S
C265 C264 1.376 . S
C265 C266 1.388 . S
C266 H253 0.930 . S
C266 C265 1.388 . S
C266 C267 1.390 . S
C267 C266 1.390 . S
C267 C268 1.394 . S
C267 C273 1.465 . S
C268 C263 1.399 . S
C268 C267 1.394 . S
C268 C269 1.516 . S
C269 C268 1.516 . S
C269 C270 1.502 . S
C269 C271 1.561 . S
C269 C272 1.526 . S
C270 H254 0.959 . S
C270 H255 0.959 . S
C270 H256 0.961 . S
C270 C269 1.502 . S
C271 H257 0.960 . S
C271 H258 0.961 . S
C271 H259 0.959 . S
C271 C269 1.561 . S
C272 C269 1.526 . S
C272 C273 1.396 . S
C272 C277 1.390 . S
C273 C267 1.465 . S
C273 C272 1.396 . S
C273 C274 1.399 . S
C274 H260 0.929 . S
C274 C273 1.399 . S
C274 C275 1.385 . S
C275 H261 0.931 . S
C275 C274 1.385 . S
C275 C276 1.389 . S
C276 C275 1.389 . S
C276 C277 1.387 . S
C277 H262 0.930 . S
C277 C272 1.390 . S
C277 C276 1.387 . S
H278 C290 0.930 . S
H279 C292 0.930 . S
H280 C293 0.930 . S
H281 C297 0.959 . S
H282 C297 0.959 . S
H283 C297 0.961 . S
H284 C298 0.960 . S
H285 C298 0.961 . S
H286 C298 0.959 . S
H287 C301 0.929 . S
H288 C302 0.931 . S
H289 C304 0.930 . S
C290 H278 0.930 . S
C290 C291 1.399 . S
C290 C295 1.399 . S
C291 C290 1.399 . S
C291 C292 1.376 . S
C292 H279 0.930 . S
C292 C291 1.376 . S
C292 C293 1.388 . S
C293 H280 0.930 . S
C293 C292 1.388 . S
C293 C294 1.390 . S
C294 C293 1.390 . S
C294 C295 1.394 . S
C294 C300 1.465 . S
C295 C290 1.399 . S
C295 C294 1.394 . S
C295 C296 1.516 . S
C296 C295 1.516 . S
C296 C297 1.502 . S
C296 C298 1.561 . S
C296 C299 1.526 . S
C297 H281 0.959 . S
C297 H282 0.959 . S
C297 H283 0.961 . S
C297 C296 1.502 . S
C298 H284 0.960 . S
C298 H285 0.961 . S
C298 H286 0.959 . S
C298 C296 1.561 . S
C299 C296 1.526 . S
C299 C300 1.396 . S
C299 C304 1.390 . S
C300 C294 1.465 . S
C300 C299 1.396 . S
C300 C301 1.399 . S
C301 H287 0.929 . S
C301 C300 1.399 . S
C301 C302 1.385 . S
C302 H288 0.931 . S
C302 C301 1.385 . S
C302 C303 1.389 . S
C303 C302 1.389 . S
C303 C304 1.387 . S
C304 H289 0.930 . S
C304 C299 1.390 . S
C304 C303 1.387 . S
H305 C317 0.930 . S
H306 C319 0.930 . S
H307 C320 0.930 . S
H308 C324 0.959 . S
H309 C324 0.959 . S
H310 C324 0.961 . S
H311 C325 0.960 . S
H312 C325 0.961 . S
H313 C325 0.959 . S
H314 C328 0.929 . S
H315 C329 0.931 . S
H316 C331 0.930 . S
C317 H305 0.930 . S
C317 C318 1.399 . S
C317 C322 1.399 . S
C318 C317 1.399 . S
C318 C319 1.376 . S
C319 H306 0.930 . S
C319 C318 1.376 . S
C319 C320 1.388 . S
C320 H307 0.930 . S
C320 C319 1.388 . S
C320 C321 1.390 . S
C321 C320 1.390 . S
C321 C322 1.394 . S
C321 C327 1.465 . S
C322 C317 1.399 . S
C322 C321 1.394 . S
C322 C323 1.516 . S
C323 C322 1.516 . S
C323 C324 1.502 . S
C323 C325 1.561 . S
C323 C326 1.526 . S
C324 H308 0.959 . S
C324 H309 0.959 . S
C324 H310 0.961 . S
C324 C323 1.502 . S
C325 H311 0.960 . S
C325 H312 0.961 . S
C325 H313 0.959 . S
C325 C323 1.561 . S
C326 C323 1.526 . S
C326 C327 1.396 . S
C326 C331 1.390 . S
C327 C321 1.465 . S
C327 C326 1.396 . S
C327 C328 1.399 . S
C328 H314 0.929 . S
C328 C327 1.399 . S
C328 C329 1.385 . S
C329 H315 0.931 . S
C329 C328 1.385 . S
C329 C330 1.389 . S
C330 C329 1.389 . S
C330 C331 1.387 . S
C331 H316 0.930 . S
C331 C326 1.390 . S
C331 C330 1.387 . S
H332 C344 0.930 . S
H333 C346 0.930 . S
H334 C347 0.930 . S
H335 C351 0.959 . S
H336 C351 0.959 . S
H337 C351 0.961 . S
H338 C352 0.960 . S
H339 C352 0.961 . S
H340 C352 0.959 . S
H341 C355 0.929 . S
H342 C356 0.931 . S
H343 C358 0.930 . S
C344 H332 0.930 . S
C344 C345 1.399 . S
C344 C349 1.399 . S
C345 C344 1.399 . S
C345 C346 1.376 . S
C346 H333 0.930 . S
C346 C345 1.376 . S
C346 C347 1.388 . S
C347 H334 0.930 . S
C347 C346 1.388 . S
C347 C348 1.390 . S
C348 C347 1.390 . S
C348 C349 1.394 . S
C348 C354 1.465 . S
C349 C344 1.399 . S
C349 C348 1.394 . S
C349 C350 1.516 . S
C350 C349 1.516 . S
C350 C351 1.502 . S
C350 C352 1.561 . S
C350 C353 1.526 . S
C351 H335 0.959 . S
C351 H336 0.959 . S
C351 H337 0.961 . S
C351 C350 1.502 . S
C352 H338 0.960 . S
C352 H339 0.961 . S
C352 H340 0.959 . S
C352 C350 1.561 . S
C353 C350 1.526 . S
C353 C354 1.396 . S
C353 C358 1.390 . S
C354 C348 1.465 . S
C354 C353 1.396 . S
C354 C355 1.399 . S
C355 H341 0.929 . S
C355 C354 1.399 . S
C355 C356 1.385 . S
C356 H342 0.931 . S
C356 C355 1.385 . S
C356 C357 1.389 . S
C357 C356 1.389 . S
C357 C358 1.387 . S
C358 H343 0.930 . S
C358 C353 1.390 . S
C358 C357 1.387 . S
H359 C371 0.930 . S
H360 C373 0.930 . S
H361 C374 0.930 . S
H362 C378 0.959 . S
H363 C378 0.959 . S
H364 C378 0.961 . S
H365 C379 0.960 . S
H366 C379 0.961 . S
H367 C379 0.959 . S
H368 C382 0.929 . S
H369 C383 0.931 . S
H370 C385 0.930 . S
C371 H359 0.930 . S
C371 C372 1.399 . S
C371 C376 1.399 . S
C372 C371 1.399 . S
C372 C373 1.376 . S
C373 H360 0.930 . S
C373 C372 1.376 . S
C373 C374 1.388 . S
C374 H361 0.930 . S
C374 C373 1.388 . S
C374 C375 1.390 . S
C375 C374 1.390 . S
C375 C376 1.394 . S
C375 C381 1.465 . S
C376 C371 1.399 . S
C376 C375 1.394 . S
C376 C377 1.516 . S
C377 C376 1.516 . S
C377 C378 1.502 . S
C377 C379 1.561 . S
C377 C380 1.526 . S
C378 H362 0.959 . S
C378 H363 0.959 . S
C378 H364 0.961 . S
C378 C377 1.502 . S
C379 H365 0.960 . S
C379 H366 0.961 . S
C379 H367 0.959 . S
C379 C377 1.561 . S
C380 C377 1.526 . S
C380 C381 1.396 . S
C380 C385 1.390 . S
C381 C375 1.465 . S
C381 C380 1.396 . S
C381 C382 1.399 . S
C382 H368 0.929 . S
C382 C381 1.399 . S
C382 C383 1.385 . S
C383 H369 0.931 . S
C383 C382 1.385 . S
C383 C384 1.389 . S
C384 C383 1.389 . S
C384 C385 1.387 . S
C385 H370 0.930 . S
C385 C380 1.390 . S
C385 C384 1.387 . S
H386 C398 0.930 . S
H387 C400 0.930 . S
H388 C401 0.930 . S
H389 C405 0.959 . S
H390 C405 0.959 . S
H391 C405 0.961 . S
H392 C406 0.960 . S
H393 C406 0.961 . S
H394 C406 0.959 . S
H395 C409 0.929 . S
H396 C410 0.931 . S
H397 C412 0.930 . S
C398 H386 0.930 . S
C398 C399 1.399 . S
C398 C403 1.399 . S
C399 C398 1.399 . S
C399 C400 1.376 . S
C400 H387 0.930 . S
C400 C399 1.376 . S
C400 C401 1.388 . S
C401 H388 0.930 . S
C401 C400 1.388 . S
C401 C402 1.390 . S
C402 C401 1.390 . S
C402 C403 1.394 . S
C402 C408 1.465 . S
C403 C398 1.399 . S
C403 C402 1.394 . S
C403 C404 1.516 . S
C404 C403 1.516 . S
C404 C405 1.502 . S
C404 C406 1.561 . S
C404 C407 1.526 . S
C405 H389 0.959 . S
C405 H390 0.959 . S
C405 H391 0.961 . S
C405 C404 1.502 . S
C406 H392 0.960 . S
C406 H393 0.961 . S
C406 H394 0.959 . S
C406 C404 1.561 . S
C407 C404 1.526 . S
C407 C408 1.396 . S
C407 C412 1.390 . S
C408 C402 1.465 . S
C408 C407 1.396 . S
C408 C409 1.399 . S
C409 H395 0.929 . S
C409 C408 1.399 . S
C409 C410 1.385 . S
C410 H396 0.931 . S
C410 C409 1.385 . S
C410 C411 1.389 . S
C411 C410 1.389 . S
C411 C412 1.387 . S
C412 H397 0.930 . S
C412 C407 1.390 . S
C412 C411 1.387 . S
H413 C425 0.930 . S
H414 C427 0.930 . S
H415 C428 0.930 . S
H416 C432 0.959 . S
H417 C432 0.959 . S
H418 C432 0.961 . S
H419 C433 0.960 . S
H420 C433 0.961 . S
H421 C433 0.959 . S
H422 C436 0.929 . S
H423 C437 0.931 . S
H424 C439 0.930 . S
C425 H413 0.930 . S
C425 C426 1.399 . S
C425 C430 1.399 . S
C426 C425 1.399 . S
C426 C427 1.376 . S
C427 H414 0.930 . S
C427 C426 1.376 . S
C427 C428 1.388 . S
C428 H415 0.930 . S
C428 C427 1.388 . S
C428 C429 1.390 . S
C429 C428 1.390 . S
C429 C430 1.394 . S
C429 C435 1.465 . S
C430 C425 1.399 . S
C430 C429 1.394 . S
C430 C431 1.516 . S
C431 C430 1.516 . S
C431 C432 1.502 . S
C431 C433 1.561 . S
C431 C434 1.526 . S
C432 H416 0.959 . S
C432 H417 0.959 . S
C432 H418 0.961 . S
C432 C431 1.502 . S
C433 H419 0.960 . S
C433 H420 0.961 . S
C433 H421 0.959 . S
C433 C431 1.561 . S
C434 C431 1.526 . S
C434 C435 1.396 . S
C434 C439 1.390 . S
C435 C429 1.465 . S
C435 C434 1.396 . S
C435 C436 1.399 . S
C436 H422 0.929 . S
C436 C435 1.399 . S
C436 C437 1.385 . S
C437 H423 0.931 . S
C437 C436 1.385 . S
C437 C438 1.389 . S
C438 C437 1.389 . S
C438 C439 1.387 . S
C439 H424 0.930 . S
C439 C434 1.390 . S
C439 C438 1.387 . S
H440 C452 0.930 . S
H441 C454 0.930 . S
H442 C455 0.930 . S
H443 C459 0.959 . S
H444 C459 0.959 . S
H445 C459 0.961 . S
H446 C460 0.960 . S
H447 C460 0.961 . S
H448 C460 0.959 . S
H449 C463 0.929 . S
H450 C464 0.931 . S
H451 C466 0.930 . S
C452 H440 0.930 . S
C452 C453 1.399 . S
C452 C457 1.399 . S
C453 C452 1.399 . S
C453 C454 1.376 . S
C454 H441 0.930 . S
C454 C453 1.376 . S
C454 C455 1.388 . S
C455 H442 0.930 . S
C455 C454 1.388 . S
C455 C456 1.390 . S
C456 C455 1.390 . S
C456 C457 1.394 . S
C456 C462 1.465 . S
C457 C452 1.399 . S
C457 C456 1.394 . S
C457 C458 1.516 . S
C458 C457 1.516 . S
C458 C459 1.502 . S
C458 C460 1.561 . S
C458 C461 1.526 . S
C459 H443 0.959 . S
C459 H444 0.959 . S
C459 H445 0.961 . S
C459 C458 1.502 . S
C460 H446 0.960 . S
C460 H447 0.961 . S
C460 H448 0.959 . S
C460 C458 1.561 . S
C461 C458 1.526 . S
C461 C462 1.396 . S
C461 C466 1.390 . S
C462 C456 1.465 . S
C462 C461 1.396 . S
C462 C463 1.399 . S
C463 H449 0.929 . S
C463 C462 1.399 . S
C463 C464 1.385 . S
C464 H450 0.931 . S
C464 C463 1.385 . S
C464 C465 1.389 . S
C465 C464 1.389 . S
C465 C466 1.387 . S
C466 H451 0.930 . S
C466 C461 1.390 . S
C466 C465 1.387 . S
H467 C479 0.930 . S
H468 C481 0.930 . S
H469 C482 0.930 . S
H470 C486 0.959 . S
H471 C486 0.959 . S
H472 C486 0.961 . S
H473 C487 0.960 . S
H474 C487 0.961 . S
H475 C487 0.959 . S
H476 C490 0.929 . S
H477 C491 0.931 . S
H478 C493 0.930 . S
C479 H467 0.930 . S
C479 C480 1.399 . S
C479 C484 1.399 . S
C480 C479 1.399 . S
C480 C481 1.376 . S
C481 H468 0.930 . S
C481 C480 1.376 . S
C481 C482 1.388 . S
C482 H469 0.930 . S
C482 C481 1.388 . S
C482 C483 1.390 . S
C483 C482 1.390 . S
C483 C484 1.394 . S
C483 C489 1.465 . S
C484 C479 1.399 . S
C484 C483 1.394 . S
C484 C485 1.516 . S
C485 C484 1.516 . S
C485 C486 1.502 . S
C485 C487 1.561 . S
C485 C488 1.526 . S
C486 H470 0.959 . S
C486 H471 0.959 . S
C486 H472 0.961 . S
C486 C485 1.502 . S
C487 H473 0.960 . S
C487 H474 0.961 . S
C487 H475 0.959 . S
C487 C485 1.561 . S
C488 C485 1.526 . S
C488 C489 1.396 . S
C488 C493 1.390 . S
C489 C483 1.465 . S
C489 C488 1.396 . S
C489 C490 1.399 . S
C490 H476 0.929 . S
C490 C489 1.399 . S
C490 C491 1.385 . S
C491 H477 0.931 . S
C491 C490 1.385 . S
C491 C492 1.389 . S
C492 C491 1.389 . S
C492 C493 1.387 . S
C493 H478 0.930 . S
C493 C488 1.390 . S
C493 C492 1.387 . S
H494 C506 0.930 . S
H495 C508 0.930 . S
H496 C509 0.930 . S
H497 C513 0.959 . S
H498 C513 0.959 . S
H499 C513 0.961 . S
H500 C514 0.960 . S
H501 C514 0.961 . S
H502 C514 0.959 . S
H503 C517 0.929 . S
H504 C518 0.931 . S
H505 C520 0.930 . S
C506 H494 0.930 . S
C506 C507 1.399 . S
C506 C511 1.399 . S
C507 C506 1.399 . S
C507 C508 1.376 . S
C508 H495 0.930 . S
C508 C507 1.376 . S
C508 C509 1.388 . S
C509 H496 0.930 . S
C509 C508 1.388 . S
C509 C510 1.390 . S
C510 C509 1.390 . S
C510 C511 1.394 . S
C510 C516 1.465 . S
C511 C506 1.399 . S
C511 C510 1.394 . S
C511 C512 1.516 . S
C512 C511 1.516 . S
C512 C513 1.502 . S
C512 C514 1.561 . S
C512 C515 1.526 . S
C513 H497 0.959 . S
C513 H498 0.959 . S
C513 H499 0.961 . S
C513 C512 1.502 . S
C514 H500 0.960 . S
C514 H501 0.961 . S
C514 H502 0.959 . S
C514 C512 1.561 . S
C515 C512 1.526 . S
C515 C516 1.396 . S
C515 C520 1.390 . S
C516 C510 1.465 . S
C516 C515 1.396 . S
C516 C517 1.399 . S
C517 H503 0.929 . S
C517 C516 1.399 . S
C517 C518 1.385 . S
C518 H504 0.931 . S
C518 C517 1.385 . S
C518 C519 1.389 . S
C519 C518 1.389 . S
C519 C520 1.387 . S
C520 H505 0.930 . S
C520 C515 1.390 . S
C520 C519 1.387 . S
H521 C533 0.930 . S
H522 C535 0.930 . S
H523 C536 0.930 . S
H524 C540 0.959 . S
H525 C540 0.959 . S
H526 C540 0.961 . S
H527 C541 0.960 1_554 S
H528 C541 0.961 . S
H529 C541 0.959 . S
H530 C544 0.929 . S
H531 C545 0.931 . S
H532 C547 0.930 . S
C533 H521 0.930 . S
C533 C534 1.399 . S
C533 C538 1.399 . S
C534 C533 1.399 . S
C534 C535 1.376 . S
C535 H522 0.930 . S
C535 C534 1.376 . S
C535 C536 1.388 . S
C536 H523 0.930 . S
C536 C535 1.388 . S
C536 C537 1.390 . S
C537 C536 1.390 . S
C537 C538 1.394 . S
C537 C543 1.465 1_554 S
C538 C533 1.399 . S
C538 C537 1.394 . S
C538 C539 1.516 1_554 S
C539 C538 1.516 1_556 S
C539 C540 1.502 . S
C539 C541 1.561 . S
C539 C542 1.526 . S
C540 H524 0.959 . S
C540 H525 0.959 . S
C540 H526 0.961 . S
C540 C539 1.502 . S
C541 H527 0.960 1_556 S
C541 H528 0.961 . S
C541 H529 0.959 . S
C541 C539 1.561 . S
C542 C539 1.526 . S
C542 C543 1.396 . S
C542 C547 1.390 . S
C543 C537 1.465 1_556 S
C543 C542 1.396 . S
C543 C544 1.399 . S
C544 H530 0.929 . S
C544 C543 1.399 . S
C544 C545 1.385 . S
C545 H531 0.931 . S
C545 C544 1.385 . S
C545 C546 1.389 . S
C546 C545 1.389 . S
C546 C547 1.387 . S
C547 H532 0.930 . S
C547 C542 1.390 . S
C547 C546 1.387 . S
H548 C560 0.930 . S
H549 C562 0.930 . S
H550 C563 0.930 . S
H551 C567 0.959 . S
H552 C567 0.959 . S
H553 C567 0.961 . S
H554 C568 0.960 1_554 S
H555 C568 0.961 . S
H556 C568 0.959 . S
H557 C571 0.929 . S
H558 C572 0.931 . S
H559 C574 0.930 . S
C560 H548 0.930 . S
C560 C561 1.399 . S
C560 C565 1.399 . S
C561 C560 1.399 . S
C561 C562 1.376 . S
C562 H549 0.930 . S
C562 C561 1.376 . S
C562 C563 1.388 . S
C563 H550 0.930 . S
C563 C562 1.388 . S
C563 C564 1.390 . S
C564 C563 1.390 . S
C564 C565 1.394 . S
C564 C570 1.465 1_554 S
C565 C560 1.399 . S
C565 C564 1.394 . S
C565 C566 1.516 1_554 S
C566 C565 1.516 1_556 S
C566 C567 1.502 . S
C566 C568 1.561 . S
C566 C569 1.526 . S
C567 H551 0.959 . S
C567 H552 0.959 . S
C567 H553 0.961 . S
C567 C566 1.502 . S
C568 H554 0.960 1_556 S
C568 H555 0.961 . S
C568 H556 0.959 . S
C568 C566 1.561 . S
C569 C566 1.526 . S
C569 C570 1.396 . S
C569 C574 1.390 . S
C570 C564 1.465 1_556 S
C570 C569 1.396 . S
C570 C571 1.399 . S
C571 H557 0.929 . S
C571 C570 1.399 . S
C571 C572 1.385 . S
C572 H558 0.931 . S
C572 C571 1.385 . S
C572 C573 1.389 . S
C573 C572 1.389 . S
C573 C574 1.387 . S
C574 H559 0.930 . S
C574 C569 1.390 . S
C574 C573 1.387 . S
H575 C587 0.930 . S
H576 C589 0.930 . S
H577 C590 0.930 . S
H578 C594 0.959 . S
H579 C594 0.959 . S
H580 C594 0.961 . S
H581 C595 0.960 . S
H582 C595 0.961 . S
H583 C595 0.959 . S
H584 C598 0.929 . S
H585 C599 0.931 . S
H586 C601 0.930 . S
C587 H575 0.930 . S
C587 C588 1.399 . S
C587 C592 1.399 . S
C588 C587 1.399 . S
C588 C589 1.376 . S
C589 H576 0.930 . S
C589 C588 1.376 . S
C589 C590 1.388 . S
C590 H577 0.930 . S
C590 C589 1.388 . S
C590 C591 1.390 . S
C591 C590 1.390 . S
C591 C592 1.394 . S
C591 C597 1.465 . S
C592 C587 1.399 . S
C592 C591 1.394 . S
C592 C593 1.516 . S
C593 C592 1.516 . S
C593 C594 1.502 . S
C593 C595 1.561 . S
C593 C596 1.526 . S
C594 H578 0.959 . S
C594 H579 0.959 . S
C594 H580 0.961 . S
C594 C593 1.502 . S
C595 H581 0.960 . S
C595 H582 0.961 . S
C595 H583 0.959 . S
C595 C593 1.561 . S
C596 C593 1.526 . S
C596 C597 1.396 . S
C596 C601 1.390 . S
C597 C591 1.465 . S
C597 C596 1.396 . S
C597 C598 1.399 . S
C598 H584 0.929 . S
C598 C597 1.399 . S
C598 C599 1.385 . S
C599 H585 0.931 . S
C599 C598 1.385 . S
C599 C600 1.389 . S
C600 C599 1.389 . S
C600 C601 1.387 . S
C601 H586 0.930 . S
C601 C596 1.390 . S
C601 C600 1.387 . S
H602 C614 0.930 . S
H603 C616 0.930 . S
H604 C617 0.930 . S
H605 C621 0.959 . S
H606 C621 0.959 . S
H607 C621 0.961 . S
H608 C622 0.960 . S
H609 C622 0.961 . S
H610 C622 0.959 . S
H611 C625 0.929 . S
H612 C626 0.931 . S
H613 C628 0.930 . S
C614 H602 0.930 . S
C614 C615 1.399 . S
C614 C619 1.399 . S
C615 C614 1.399 . S
C615 C616 1.376 . S
C616 H603 0.930 . S
C616 C615 1.376 . S
C616 C617 1.388 . S
C617 H604 0.930 . S
C617 C616 1.388 . S
C617 C618 1.390 . S
C618 C617 1.390 . S
C618 C619 1.394 . S
C618 C624 1.465 . S
C619 C614 1.399 . S
C619 C618 1.394 . S
C619 C620 1.516 . S
C620 C619 1.516 . S
C620 C621 1.502 . S
C620 C622 1.561 . S
C620 C623 1.526 . S
C621 H605 0.959 . S
C621 H606 0.959 . S
C621 H607 0.961 . S
C621 C620 1.502 . S
C622 H608 0.960 . S
C622 H609 0.961 . S
C622 H610 0.959 . S
C622 C620 1.561 . S
C623 C620 1.526 . S
C623 C624 1.396 . S
C623 C628 1.390 . S
C624 C618 1.465 . S
C624 C623 1.396 . S
C624 C625 1.399 . S
C625 H611 0.929 . S
C625 C624 1.399 . S
C625 C626 1.385 . S
C626 H612 0.931 . S
C626 C625 1.385 . S
C626 C627 1.389 . S
C627 C626 1.389 . S
C627 C628 1.387 . S
C628 H613 0.930 . S
C628 C623 1.390 . S
C628 C627 1.387 . S
H629 C641 0.930 . S
H630 C643 0.930 . S
H631 C644 0.930 . S
H632 C648 0.959 . S
H633 C648 0.959 . S
H634 C648 0.961 . S
H635 C649 0.960 . S
H636 C649 0.961 . S
H637 C649 0.959 . S
H638 C652 0.929 . S
H639 C653 0.931 . S
H640 C655 0.930 . S
C641 H629 0.930 . S
C641 C642 1.399 . S
C641 C646 1.399 . S
C642 C641 1.399 . S
C642 C643 1.376 . S
C643 H630 0.930 . S
C643 C642 1.376 . S
C643 C644 1.388 . S
C644 H631 0.930 . S
C644 C643 1.388 . S
C644 C645 1.390 . S
C645 C644 1.390 . S
C645 C646 1.394 . S
C645 C651 1.465 . S
C646 C641 1.399 . S
C646 C645 1.394 . S
C646 C647 1.516 . S
C647 C646 1.516 . S
C647 C648 1.502 . S
C647 C649 1.561 . S
C647 C650 1.526 . S
C648 H632 0.959 . S
C648 H633 0.959 . S
C648 H634 0.961 . S
C648 C647 1.502 . S
C649 H635 0.960 . S
C649 H636 0.961 . S
C649 H637 0.959 . S
C649 C647 1.561 . S
C650 C647 1.526 . S
C650 C651 1.396 . S
C650 C655 1.390 . S
C651 C645 1.465 . S
C651 C650 1.396 . S
C651 C652 1.399 . S
C652 H638 0.929 . S
C652 C651 1.399 . S
C652 C653 1.385 . S
C653 H639 0.931 . S
C653 C652 1.385 . S
C653 C654 1.389 . S
C654 C653 1.389 . S
C654 C655 1.387 . S
C655 H640 0.930 . S
C655 C650 1.390 . S
C655 C654 1.387 . S
H656 C668 0.930 . S
H657 C670 0.930 . S
H658 C671 0.930 . S
H659 C675 0.959 . S
H660 C675 0.959 . S
H661 C675 0.961 . S
H662 C676 0.959 1_445 S
H663 C676 0.969 . S
H664 C676 0.945 1_545 S
H665 C679 0.929 . S
H666 C680 0.931 . S
H667 C682 0.930 . S
C668 H656 0.930 . S
C668 C669 1.399 . S
C668 C673 1.399 . S
C669 C668 1.399 . S
C669 C670 1.376 . S
C670 H657 0.930 . S
C670 C669 1.376 . S
C670 C671 1.388 . S
C671 H658 0.930 . S
C671 C670 1.388 . S
C671 C672 1.390 . S
C672 C671 1.390 . S
C672 C673 1.394 . S
C672 C678 1.465 1_455 S
C673 C668 1.399 . S
C673 C672 1.394 . S
C673 C674 1.516 1_545 S
C674 C673 1.516 1_565 S
C674 C675 1.502 . S
C674 C676 1.568 1_455 S
C674 C677 1.526 1_455 S
C675 H659 0.959 . S
C675 H660 0.959 . S
C675 H661 0.961 . S
C675 C674 1.502 . S
C676 H662 0.959 1_665 S
C676 H663 0.969 . S
C676 H664 0.945 1_565 S
C676 C674 1.568 1_655 S
C677 C674 1.526 1_655 S
C677 C678 1.396 1_565 S
C677 C682 1.390 . S
C678 C672 1.465 1_655 S
C678 C677 1.396 1_545 S
C678 C679 1.399 . S
C679 H665 0.929 . S
C679 C678 1.399 . S
C679 C680 1.385 1_545 S
C680 H666 0.931 . S
C680 C679 1.385 1_565 S
C680 C681 1.389 . S
C681 C680 1.389 . S
C681 C682 1.387 . S
C682 H667 0.930 . S
C682 C677 1.390 . S
C682 C681 1.387 . S
H683 C695 0.930 . S
H684 C697 0.930 . S
H685 C698 0.930 1_655 S
H686 C702 0.959 . S
H687 C702 0.959 . S
H688 C702 0.961 . S
H689 C703 0.960 . S
H690 C703 0.961 . S
H691 C703 0.959 . S
H692 C706 0.929 . S
H693 C707 0.931 . S
H694 C709 0.930 . S
C695 H683 0.930 . S
C695 C696 1.399 . S
C695 C700 1.399 . S
C696 C695 1.399 . S
C696 C697 1.376 . S
C697 H684 0.930 . S
C697 C696 1.376 . S
C697 C698 1.388 . S
C698 H685 0.930 1_455 S
C698 C697 1.388 . S
C698 C699 1.390 1_455 S
C699 C698 1.390 1_655 S
C699 C700 1.395 1_655 S
C699 C705 1.464 . S
C700 C695 1.399 . S
C700 C699 1.395 1_455 S
C700 C701 1.516 . S
C701 C700 1.516 . S
C701 C702 1.502 . S
C701 C703 1.561 1_455 S
C701 C704 1.526 1_455 S
C702 H686 0.959 . S
C702 H687 0.959 . S
C702 H688 0.961 . S
C702 C701 1.502 . S
C703 H689 0.960 . S
C703 H690 0.961 . S
C703 H691 0.959 . S
C703 C701 1.561 1_655 S
C704 C701 1.526 1_655 S
C704 C705 1.396 . S
C704 C709 1.390 . S
C705 C699 1.464 . S
C705 C704 1.396 . S
C705 C706 1.399 . S
C706 H692 0.929 . S
C706 C705 1.399 . S
C706 C707 1.385 . S
C707 H693 0.931 . S
C707 C706 1.385 . S
C707 C708 1.389 . S
C708 C707 1.389 . S
C708 C709 1.387 . S
C709 H694 0.930 . S
C709 C704 1.390 . S
C709 C708 1.387 . S
H710 C722 0.930 . S
H711 C724 0.930 . S
H712 C725 0.930 . S
H713 C729 0.959 . S
H714 C729 0.959 . S
H715 C729 0.961 . S
H716 C730 0.960 . S
H717 C730 0.961 . S
H718 C730 0.959 . S
H719 C733 0.929 . S
H720 C734 0.931 . S
H721 C736 0.930 . S
C722 H710 0.930 . S
C722 C723 1.399 . S
C722 C727 1.399 . S
C723 C722 1.399 . S
C723 C724 1.376 . S
C724 H711 0.930 . S
C724 C723 1.376 . S
C724 C725 1.388 . S
C725 H712 0.930 . S
C725 C724 1.388 . S
C725 C726 1.390 . S
C726 C725 1.390 . S
C726 C727 1.394 . S
C726 C732 1.465 . S
C727 C722 1.399 . S
C727 C726 1.394 . S
C727 C728 1.516 . S
C728 C727 1.516 . S
C728 C729 1.502 . S
C728 C730 1.561 . S
C728 C731 1.526 . S
C729 H713 0.959 . S
C729 H714 0.959 . S
C729 H715 0.961 . S
C729 C728 1.502 . S
C730 H716 0.960 . S
C730 H717 0.961 . S
C730 H718 0.959 . S
C730 C728 1.561 . S
C731 C728 1.526 . S
C731 C732 1.396 . S
C731 C736 1.390 . S
C732 C726 1.465 . S
C732 C731 1.396 . S
C732 C733 1.399 . S
C733 H719 0.929 . S
C733 C732 1.399 . S
C733 C734 1.385 . S
C734 H720 0.931 . S
C734 C733 1.385 . S
C734 C735 1.389 . S
C735 C734 1.389 . S
C735 C736 1.387 . S
C736 H721 0.930 . S
C736 C731 1.390 . S
C736 C735 1.387 . S
H737 C749 0.930 . S
H738 C751 0.930 . S
H739 C752 0.930 . S
H740 C756 0.959 . S
H741 C756 0.959 1_565 S
H742 C756 0.961 . S
H743 C757 0.960 . S
H744 C757 0.961 . S
H745 C757 0.959 . S
H746 C760 0.929 . S
H747 C761 0.931 . S
H748 C763 0.930 . S
C749 H737 0.930 . S
C749 C750 1.399 . S
C749 C754 1.399 . S
C750 C749 1.399 . S
C750 C751 1.376 . S
C751 H738 0.930 . S
C751 C750 1.376 . S
C751 C752 1.388 . S
C752 H739 0.930 . S
C752 C751 1.388 . S
C752 C753 1.390 . S
C753 C752 1.390 . S
C753 C754 1.394 . S
C753 C759 1.465 1_545 S
C754 C749 1.399 . S
C754 C753 1.394 . S
C754 C755 1.516 1_545 S
C755 C754 1.516 1_565 S
C755 C756 1.502 1_565 S
C755 C757 1.561 . S
C755 C758 1.526 . S
C756 H740 0.959 . S
C756 H741 0.959 1_545 S
C756 H742 0.961 . S
C756 C755 1.502 1_545 S
C757 H743 0.960 . S
C757 H744 0.961 . S
C757 H745 0.959 . S
C757 C755 1.561 . S
C758 C755 1.526 . S
C758 C759 1.396 . S
C758 C763 1.390 . S
C759 C753 1.465 1_565 S
C759 C758 1.396 . S
C759 C760 1.399 . S
C760 H746 0.929 . S
C760 C759 1.399 . S
C760 C761 1.385 . S
C761 H747 0.931 . S
C761 C760 1.385 . S
C761 C762 1.389 . S
C762 C761 1.389 . S
C762 C763 1.387 . S
C763 H748 0.930 . S
C763 C758 1.390 . S
C763 C762 1.387 . S
H764 C776 0.930 . S
H765 C778 0.930 . S
H766 C779 0.930 . S
H767 C783 0.959 . S
H768 C783 0.942 1_655 S
H769 C783 0.961 . S
H770 C784 0.960 1_455 S
H771 C784 0.961 . S
H772 C784 0.959 . S
H773 C787 0.929 . S
H774 C788 0.931 . S
H775 C790 0.930 . S
C776 H764 0.930 . S
C776 C777 1.399 . S
C776 C781 1.399 . S
C777 C776 1.399 . S
C777 C778 1.376 . S
C778 H765 0.930 . S
C778 C777 1.376 . S
C778 C779 1.388 . S
C779 H766 0.930 . S
C779 C778 1.388 . S
C779 C780 1.390 . S
C780 C779 1.390 . S
C780 C781 1.394 . S
C780 C786 1.465 1_455 S
C781 C776 1.399 . S
C781 C780 1.394 . S
C781 C782 1.516 . S
C782 C781 1.516 . S
C782 C783 1.502 . S
C782 C784 1.561 1_455 S
C782 C785 1.526 1_455 S
C783 H767 0.959 . S
C783 H768 0.942 1_455 S
C783 H769 0.961 . S
C783 C782 1.502 . S
C784 H770 0.960 1_655 S
C784 H771 0.961 . S
C784 H772 0.959 . S
C784 C782 1.561 1_655 S
C785 C782 1.526 1_655 S
C785 C786 1.396 . S
C785 C790 1.390 . S
C786 C780 1.465 1_655 S
C786 C785 1.396 . S
C786 C787 1.399 . S
C787 H773 0.929 . S
C787 C786 1.399 . S
C787 C788 1.385 . S
C788 H774 0.931 . S
C788 C787 1.385 . S
C788 C789 1.389 . S
C789 C788 1.389 . S
C789 C790 1.387 . S
C790 H775 0.930 . S
C790 C785 1.390 . S
C790 C789 1.387 . S
H791 C803 0.930 . S
H792 C805 0.930 . S
H793 C806 0.930 . S
H794 C810 0.959 . S
H795 C810 0.959 . S
H796 C810 0.961 . S
H797 C811 0.960 . S
H798 C811 0.961 . S
H799 C811 0.959 . S
H800 C814 0.929 . S
H801 C815 0.931 . S
H802 C817 0.930 . S
C803 H791 0.930 . S
C803 C804 1.399 . S
C803 C808 1.399 . S
C804 C803 1.399 . S
C804 C805 1.376 . S
C805 H792 0.930 . S
C805 C804 1.376 . S
C805 C806 1.388 . S
C806 H793 0.930 . S
C806 C805 1.388 . S
C806 C807 1.390 . S
C807 C806 1.390 . S
C807 C808 1.394 . S
C807 C813 1.465 . S
C808 C803 1.399 . S
C808 C807 1.394 . S
C808 C809 1.516 . S
C809 C808 1.516 . S
C809 C810 1.502 . S
C809 C811 1.561 . S
C809 C812 1.526 . S
C810 H794 0.959 . S
C810 H795 0.959 . S
C810 H796 0.961 . S
C810 C809 1.502 . S
C811 H797 0.960 . S
C811 H798 0.961 . S
C811 H799 0.959 . S
C811 C809 1.561 . S
C812 C809 1.526 . S
C812 C813 1.396 . S
C812 C817 1.390 . S
C813 C807 1.465 . S
C813 C812 1.396 . S
C813 C814 1.399 . S
C814 H800 0.929 . S
C814 C813 1.399 . S
C814 C815 1.385 . S
C815 H801 0.931 . S
C815 C814 1.385 . S
C815 C816 1.389 . S
C816 C815 1.389 . S
C816 C817 1.387 . S
C817 H802 0.930 . S
C817 C812 1.390 . S
C817 C816 1.387 . S
H818 C830 0.930 . S
H819 C832 0.930 . S
H820 C833 0.921 1_545 S
H821 C837 0.959 . S
H822 C837 0.959 . S
H823 C837 0.961 . S
H824 C838 0.960 . S
H825 C838 0.961 . S
H826 C838 0.959 . S
H827 C841 0.929 . S
H828 C842 0.931 . S
H829 C844 0.930 . S
C830 H818 0.930 . S
C830 C831 1.399 . S
C830 C835 1.399 . S
C831 C830 1.399 . S
C831 C832 1.376 . S
C832 H819 0.930 . S
C832 C831 1.376 . S
C832 C833 1.398 . S
C833 H820 0.921 1_565 S
C833 C832 1.398 . S
C833 C834 1.389 1_565 S
C834 C833 1.389 1_545 S
C834 C835 1.383 1_545 S
C834 C840 1.475 . S
C835 C830 1.399 . S
C835 C834 1.383 1_565 S
C835 C836 1.516 . S
C836 C835 1.516 . S
C836 C837 1.502 . S
C836 C838 1.561 1_565 S
C836 C839 1.526 1_565 S
C837 H821 0.959 . S
C837 H822 0.959 . S
C837 H823 0.961 . S
C837 C836 1.502 . S
C838 H824 0.960 . S
C838 H825 0.961 . S
C838 H826 0.959 . S
C838 C836 1.561 1_545 S
C839 C836 1.526 1_545 S
C839 C840 1.396 . S
C839 C844 1.390 . S
C840 C834 1.475 . S
C840 C839 1.396 . S
C840 C841 1.399 . S
C841 H827 0.929 . S
C841 C840 1.399 . S
C841 C842 1.385 . S
C842 H828 0.931 . S
C842 C841 1.385 . S
C842 C843 1.389 . S
C843 C842 1.389 . S
C843 C844 1.387 . S
C844 H829 0.930 . S
C844 C839 1.390 . S
C844 C843 1.387 . S
H845 C857 0.930 . S
H846 C859 0.930 . S
H847 C860 0.930 1_655 S
H848 C864 0.959 . S
H849 C864 0.959 . S
H850 C864 0.961 1_545 S
H851 C865 0.960 . S
H852 C865 0.961 1_565 S
H853 C865 0.959 . S
H854 C868 0.929 . S
H855 C869 0.931 . S
H856 C871 0.930 . S
C857 H845 0.930 . S
C857 C858 1.399 . S
C857 C862 1.399 . S
C858 C857 1.399 . S
C858 C859 1.376 . S
C859 H846 0.930 . S
C859 C858 1.376 . S
C859 C860 1.388 . S
C860 H847 0.930 1_455 S
C860 C859 1.388 . S
C860 C861 1.390 . S
C861 C860 1.390 . S
C861 C862 1.394 . S
C861 C867 1.465 1_445 S
C862 C857 1.399 . S
C862 C861 1.394 . S
C862 C863 1.516 1_545 S
C863 C862 1.516 1_565 S
C863 C864 1.502 . S
C863 C865 1.561 1_465 S
C863 C866 1.526 1_455 S
C864 H848 0.959 . S
C864 H849 0.959 . S
C864 H850 0.961 1_565 S
C864 C863 1.502 . S
C865 H851 0.960 . S
C865 H852 0.961 1_545 S
C865 H853 0.959 . S
C865 C863 1.561 1_645 S
C866 C863 1.526 1_655 S
C866 C867 1.396 . S
C866 C871 1.390 . S
C867 C861 1.465 1_665 S
C867 C866 1.396 . S
C867 C868 1.399 . S
C868 H854 0.929 . S
C868 C867 1.399 . S
C868 C869 1.385 . S
C869 H855 0.931 . S
C869 C868 1.385 . S
C869 C870 1.389 . S
C870 C869 1.389 . S
C870 C871 1.387 . S
C871 H856 0.930 . S
C871 C866 1.390 . S
C871 C870 1.387 . S
H872 C884 0.930 . S
H873 C886 0.930 . S
H874 C887 0.930 . S
H875 C891 0.959 . S
H876 C891 0.959 . S
H877 C891 0.961 . S
H878 C892 0.960 . S
H879 C892 0.961 . S
H880 C892 0.959 . S
H881 C895 0.929 . S
H882 C896 0.931 . S
H883 C898 0.930 . S
C884 H872 0.930 . S
C884 C885 1.399 . S
C884 C889 1.399 . S
C885 C884 1.399 . S
C885 C886 1.376 . S
C886 H873 0.930 . S
C886 C885 1.376 . S
C886 C887 1.388 . S
C887 H874 0.930 . S
C887 C886 1.388 . S
C887 C888 1.390 . S
C888 C887 1.390 . S
C888 C889 1.394 . S
C888 C894 1.465 1_565 S
C889 C884 1.399 . S
C889 C888 1.394 . S
C889 C890 1.516 1_565 S
C890 C889 1.516 1_545 S
C890 C891 1.502 . S
C890 C892 1.561 1_545 S
C890 C893 1.526 . S
C891 H875 0.959 . S
C891 H876 0.959 . S
C891 H877 0.961 . S
C891 C890 1.502 . S
C892 H878 0.960 . S
C892 H879 0.961 . S
C892 H880 0.959 . S
C892 C890 1.561 1_565 S
C893 C890 1.526 . S
C893 C894 1.396 . S
C893 C898 1.390 . S
C894 C888 1.465 1_545 S
C894 C893 1.396 . S
C894 C895 1.399 . S
C895 H881 0.929 . S
C895 C894 1.399 . S
C895 C896 1.385 . S
C896 H882 0.931 . S
C896 C895 1.385 . S
C896 C897 1.389 . S
C897 C896 1.389 . S
C897 C898 1.387 . S
C898 H883 0.930 . S
C898 C893 1.390 . S
C898 C897 1.387 . S
H899 C911 0.930 . S
H900 C913 0.930 . S
H901 C914 0.930 1_455 S
H902 C918 0.959 . S
H903 C918 0.959 . S
H904 C918 0.961 . S
H905 C919 0.964 . S
H906 C919 0.961 1_545 S
H907 C919 0.959 . S
H908 C922 0.929 . S
H909 C923 0.931 . S
H910 C925 0.930 . S
C911 H899 0.930 . S
C911 C912 1.399 . S
C911 C916 1.399 . S
C912 C911 1.399 . S
C912 C913 1.376 . S
C913 H900 0.930 . S
C913 C912 1.376 . S
C913 C914 1.388 . S
C914 H901 0.930 1_655 S
C914 C913 1.388 . S
C914 C915 1.390 . S
C915 C914 1.390 . S
C915 C916 1.394 . S
C915 C921 1.465 1_665 S
C916 C911 1.399 . S
C916 C915 1.394 . S
C916 C917 1.516 1_565 S
C917 C916 1.516 1_545 S
C917 C918 1.502 . S
C917 C919 1.561 1_645 S
C917 C920 1.526 1_655 S
C918 H902 0.959 . S
C918 H903 0.959 . S
C918 H904 0.961 . S
C918 C917 1.502 . S
C919 H905 0.964 . S
C919 H906 0.961 1_565 S
C919 H907 0.959 . S
C919 C917 1.561 1_465 S
C920 C917 1.526 1_455 S
C920 C921 1.396 . S
C920 C925 1.390 . S
C921 C915 1.465 1_445 S
C921 C920 1.396 . S
C921 C922 1.399 . S
C922 H908 0.929 . S
C922 C921 1.399 . S
C922 C923 1.385 . S
C923 H909 0.931 . S
C923 C922 1.385 . S
C923 C924 1.389 . S
C924 C923 1.389 . S
C924 C925 1.387 . S
C925 H910 0.930 . S
C925 C920 1.390 . S
C925 C924 1.387 . S
H926 C938 0.930 . S
H927 C940 0.930 . S
H928 C941 0.930 . S
H929 C945 0.950 1_455 S
H930 C945 0.978 . S
H931 C945 0.947 1_455 S
H932 C946 0.960 . S
H933 C946 0.961 . S
H934 C946 0.959 . S
H935 C949 0.929 . S
H936 C950 0.931 . S
H937 C952 0.930 . S
C938 H926 0.930 . S
C938 C939 1.399 . S
C938 C943 1.399 . S
C939 C938 1.399 . S
C939 C940 1.376 . S
C940 H927 0.930 . S
C940 C939 1.376 . S
C940 C941 1.388 . S
C941 H928 0.930 . S
C941 C940 1.388 . S
C941 C942 1.390 . S
C942 C941 1.390 . S
C942 C943 1.394 . S
C942 C948 1.465 1_455 S
C943 C938 1.399 . S
C943 C942 1.394 . S
C943 C944 1.516 1_455 S
C944 C943 1.516 1_655 S
C944 C945 1.507 . S
C944 C946 1.561 . S
C944 C947 1.526 . S
C945 H929 0.950 1_655 S
C945 H930 0.978 . S
C945 H931 0.947 1_655 S
C945 C944 1.507 . S
C946 H932 0.960 . S
C946 H933 0.961 . S
C946 H934 0.959 . S
C946 C944 1.561 . S
C947 C944 1.526 . S
C947 C948 1.396 . S
C947 C952 1.390 . S
C948 C942 1.465 1_655 S
C948 C947 1.396 . S
C948 C949 1.399 . S
C949 H935 0.929 . S
C949 C948 1.399 . S
C949 C950 1.385 . S
C950 H936 0.931 . S
C950 C949 1.385 . S
C950 C951 1.389 . S
C951 C950 1.389 . S
C951 C952 1.387 . S
C952 H937 0.930 . S
C952 C947 1.390 . S
C952 C951 1.387 . S
H953 C965 0.930 . S
H954 C967 0.930 . S
H955 C968 0.930 . S
H956 C972 0.959 . S
H957 C972 0.959 . S
H958 C972 0.961 . S
H959 C973 0.960 . S
H960 C973 0.961 . S
H961 C973 0.959 . S
H962 C976 0.929 . S
H963 C977 0.931 . S
H964 C979 0.930 . S
C965 H953 0.930 . S
C965 C966 1.399 . S
C965 C970 1.399 . S
C966 C965 1.399 . S
C966 C967 1.376 . S
C967 H954 0.930 . S
C967 C966 1.376 . S
C967 C968 1.388 . S
C968 H955 0.930 . S
C968 C967 1.388 . S
C968 C969 1.390 . S
C969 C968 1.390 . S
C969 C970 1.394 . S
C969 C975 1.465 . S
C970 C965 1.399 . S
C970 C969 1.394 . S
C970 C971 1.516 . S
C971 C970 1.516 . S
C971 C972 1.502 . S
C971 C973 1.561 . S
C971 C974 1.526 . S
C972 H956 0.959 . S
C972 H957 0.959 . S
C972 H958 0.961 . S
C972 C971 1.502 . S
C973 H959 0.960 . S
C973 H960 0.961 . S
C973 H961 0.959 . S
C973 C971 1.561 . S
C974 C971 1.526 . S
C974 C975 1.396 . S
C974 C979 1.390 . S
C975 C969 1.465 . S
C975 C974 1.396 . S
C975 C976 1.399 . S
C976 H962 0.929 . S
C976 C975 1.399 . S
C976 C977 1.385 . S
C977 H963 0.931 . S
C977 C976 1.385 . S
C977 C978 1.389 . S
C978 C977 1.389 . S
C978 C979 1.387 . S
C979 H964 0.930 . S
C979 C974 1.390 . S
C979 C978 1.387 . S
H980 C992 0.930 . S
H981 C994 0.930 . S
H982 C995 0.930 . S
H983 C999 0.959 . S
H984 C999 0.959 . S
H985 C999 0.961 . S
H986 C1000 0.960 . S
H987 C1000 0.961 . S
H988 C1000 0.959 . S
H989 C1003 0.929 . S
H990 C1004 0.931 . S
H991 C1006 0.930 . S
C992 H980 0.930 . S
C992 C993 1.399 . S
C992 C997 1.399 . S
C993 C992 1.399 . S
C993 C994 1.376 . S
C994 H981 0.930 . S
C994 C993 1.376 . S
C994 C995 1.388 . S
C995 H982 0.930 . S
C995 C994 1.388 . S
C995 C996 1.390 . S
C996 C995 1.390 . S
C996 C997 1.394 . S
C996 C1002 1.465 . S
C997 C992 1.399 . S
C997 C996 1.394 . S
C997 C998 1.516 . S
C998 C997 1.516 . S
C998 C999 1.502 . S
C998 C1000 1.561 . S
C998 C1001 1.526 . S
C999 H983 0.959 . S
C999 H984 0.959 . S
C999 H985 0.961 . S
C999 C998 1.502 . S
C1000 H986 0.960 . S
C1000 H987 0.961 . S
C1000 H988 0.959 . S
C1000 C998 1.561 . S
C1001 C998 1.526 . S
C1001 C1002 1.396 . S
C1001 C1006 1.390 . S
C1002 C996 1.465 . S
C1002 C1001 1.396 . S
C1002 C1003 1.399 . S
C1003 H989 0.929 . S
C1003 C1002 1.399 . S
C1003 C1004 1.385 . S
C1004 H990 0.931 . S
C1004 C1003 1.385 . S
C1004 C1005 1.389 . S
C1005 C1004 1.389 . S
C1005 C1006 1.387 . S
C1006 H991 0.930 . S
C1006 C1001 1.390 . S
C1006 C1005 1.387 . S
H1007 C1019 0.930 . S
H1008 C1021 0.930 . S
H1009 C1022 0.930 . S
H1010 C1026 0.959 . S
H1011 C1026 0.959 . S
H1012 C1026 0.961 . S
H1013 C1027 0.960 . S
H1014 C1027 0.961 1_565 S
H1015 C1027 0.959 1_565 S
H1016 C1030 0.929 . S
H1017 C1031 0.931 . S
H1018 C1033 0.930 . S
C1019 H1007 0.930 . S
C1019 C1020 1.399 . S
C1019 C1024 1.399 . S
C1020 C1019 1.399 . S
C1020 C1021 1.376 . S
C1021 H1008 0.930 . S
C1021 C1020 1.376 . S
C1021 C1022 1.388 . S
C1022 H1009 0.930 . S
C1022 C1021 1.388 . S
C1022 C1023 1.390 . S
C1023 C1022 1.390 . S
C1023 C1024 1.394 . S
C1023 C1029 1.465 1_545 S
C1024 C1019 1.399 . S
C1024 C1023 1.394 . S
C1024 C1025 1.516 . S
C1025 C1024 1.516 . S
C1025 C1026 1.502 . S
C1025 C1027 1.561 . S
C1025 C1028 1.526 1_545 S
C1026 H1010 0.959 . S
C1026 H1011 0.959 . S
C1026 H1012 0.961 . S
C1026 C1025 1.502 . S
C1027 H1013 0.960 . S
C1027 H1014 0.961 1_545 S
C1027 H1015 0.959 1_545 S
C1027 C1025 1.561 . S
C1028 C1025 1.526 1_565 S
C1028 C1029 1.396 . S
C1028 C1033 1.390 . S
C1029 C1023 1.465 1_565 S
C1029 C1028 1.396 . S
C1029 C1030 1.399 . S
C1030 H1016 0.929 . S
C1030 C1029 1.399 . S
C1030 C1031 1.385 . S
C1031 H1017 0.931 . S
C1031 C1030 1.385 . S
C1031 C1032 1.389 . S
C1032 C1031 1.389 . S
C1032 C1033 1.387 . S
C1033 H1018 0.930 . S
C1033 C1028 1.390 . S
C1033 C1032 1.387 . S
H1034 C1046 0.930 . S
H1035 C1048 0.930 . S
H1036 C1049 0.930 . S
H1037 C1053 0.959 . S
H1038 C1053 0.959 . S
H1039 C1053 0.961 . S
H1040 C1054 0.960 1_655 S
H1041 C1054 0.961 . S
H1042 C1054 0.959 . S
H1043 C1057 0.930 . S
H1044 C1058 0.931 . S
H1045 C1060 0.930 . S
C1046 H1034 0.930 . S
C1046 C1047 1.399 . S
C1046 C1051 1.399 . S
C1047 C1046 1.399 . S
C1047 C1048 1.376 . S
C1048 H1035 0.930 . S
C1048 C1047 1.376 . S
C1048 C1049 1.388 . S
C1049 H1036 0.930 . S
C1049 C1048 1.388 . S
C1049 C1050 1.390 . S
C1050 C1049 1.390 . S
C1050 C1051 1.394 . S
C1050 C1056 1.465 1_665 S
C1051 C1046 1.399 . S
C1051 C1050 1.394 . S
C1051 C1052 1.516 1_565 S
C1052 C1051 1.516 1_545 S
C1052 C1053 1.502 . S
C1052 C1054 1.561 1_645 S
C1052 C1055 1.526 1_655 S
C1053 H1037 0.959 . S
C1053 H1038 0.959 . S
C1053 H1039 0.961 . S
C1053 C1052 1.502 . S
C1054 H1040 0.960 1_455 S
C1054 H1041 0.961 . S
C1054 H1042 0.959 . S
C1054 C1052 1.561 1_465 S
C1055 C1052 1.526 1_455 S
C1055 C1056 1.396 . S
C1055 C1060 1.390 . S
C1056 C1050 1.465 1_445 S
C1056 C1055 1.396 . S
C1056 C1057 1.399 . S
C1057 H1043 0.930 . S
C1057 C1056 1.399 . S
C1057 C1058 1.385 . S
C1058 H1044 0.931 . S
C1058 C1057 1.385 . S
C1058 C1059 1.389 . S
C1059 C1058 1.389 . S
C1059 C1060 1.387 . S
C1060 H1045 0.930 . S
C1060 C1055 1.390 . S
C1060 C1059 1.387 . S
H1061 C1073 0.930 1_455 S
H1062 C1075 0.930 . S
H1063 C1076 0.930 . S
H1064 C1080 0.959 . S
H1065 C1080 0.959 . S
H1066 C1080 0.961 . S
H1067 C1081 0.960 . S
H1068 C1081 0.961 . S
H1069 C1081 0.959 . S
H1070 C1084 0.929 . S
H1071 C1085 0.931 . S
H1072 C1087 0.930 . S
C1073 H1061 0.930 1_655 S
C1073 C1074 1.399 . S
C1073 C1078 1.399 . S
C1074 C1073 1.399 . S
C1074 C1075 1.376 . S
C1075 H1062 0.930 . S
C1075 C1074 1.376 . S
C1075 C1076 1.388 . S
C1076 H1063 0.930 . S
C1076 C1075 1.388 . S
C1076 C1077 1.390 . S
C1077 C1076 1.390 . S
C1077 C1078 1.394 . S
C1077 C1083 1.465 . S
C1078 C1073 1.399 . S
C1078 C1077 1.394 . S
C1078 C1079 1.516 1_655 S
C1079 C1078 1.516 1_455 S
C1079 C1080 1.502 . S
C1079 C1081 1.561 . S
C1079 C1082 1.526 . S
C1080 H1064 0.959 . S
C1080 H1065 0.959 . S
C1080 H1066 0.961 . S
C1080 C1079 1.502 . S
C1081 H1067 0.960 . S
C1081 H1068 0.961 . S
C1081 H1069 0.959 . S
C1081 C1079 1.561 . S
C1082 C1079 1.526 . S
C1082 C1083 1.396 1_455 S
C1082 C1087 1.390 . S
C1083 C1077 1.465 . S
C1083 C1082 1.396 1_655 S
C1083 C1084 1.399 . S
C1084 H1070 0.929 . S
C1084 C1083 1.399 . S
C1084 C1085 1.385 1_655 S
C1085 H1071 0.931 . S
C1085 C1084 1.385 1_455 S
C1085 C1086 1.389 . S
C1086 C1085 1.389 . S
C1086 C1087 1.387 . S
C1087 H1072 0.930 . S
C1087 C1082 1.390 . S
C1087 C1086 1.387 . S
C237 C63 1.493 . S
C249 C7 1.474 . S
C264 C21 1.453 . S
C276 C77 1.475 . S
C291 C91 1.492 . S
C303 C35 1.462 . S
C318 C105 1.484 . S
C330 C49 1.488 . S
C345 C175 1.473 . S
C357 C119 1.454 . S
C372 C133 1.457 . S
C384 C189 1.465 . S
C399 C203 1.474 . S
C411 C147 1.453 . S
C426 C161 1.453 . S
C438 C217 1.474 . S
C453 C8 1.465 . S
C465 C218 1.432 . S
C480 C22 1.459 . S
C492 C176 1.461 . S
C507 C36 1.464 . S
C519 C190 1.430 . S
C534 C204 1.464 . S
C546 C50 1.430 . S
C561 C64 1.466 . S
C573 C134 1.432 . S
C588 C78 1.422 . S
C600 C148 1.450 . S
C615 C162 1.460 . S
C627 C92 1.461 . S
C642 C120 1.467 . S
C654 C106 1.434 . S
C669 C6 1.653 . S
C681 C146 1.611 . S
C696 C160 1.606 . S
C708 C20 1.638 . S
C723 C34 1.608 . S
C735 C118 1.636 . S
C750 C132 1.636 . S
C762 C48 1.632 . S
C777 C62 1.647 . S
C789 C202 1.620 . S
C804 C76 1.651 . S
C816 C216 1.615 . S
C831 C174 1.605 . S
C843 C90 1.639 . S
C858 C188 1.609 . S
C870 C104 1.635 . S
C885 C149 1.451 . S
C897 C9 1.464 . S
C912 C23 1.458 . S
C924 C163 1.441 . S
C939 C37 1.459 . S
C951 C121 1.458 . S
C966 C135 1.441 . S
C978 C51 1.469 . S
C993 C205 1.460 . S
C1005 C65 1.440 . S
C1020 C219 1.445 . S
C1032 C79 1.468 . S
C1047 C177 1.450 . S
C1059 C93 1.465 . S
C1074 C107 1.438 . S
C1086 C191 1.465 . S
