# Generated by pormake.
# Topology lcy-e, (6)-cn, num edge types: 1
# Building blocks:
#     Node 0, Type 0, BuildingBlock: KUMBUR_clean_sbu_1, # of connection points: 6
#     Node 1, Type 0, BuildingBlock: KUMBUR_clean_sbu_1, # of connection points: 6
#     Node 2, Type 0, BuildingBlock: KUMBUR_clean_sbu_1, # of connection points: 6
#     Node 3, Type 0, BuildingBlock: KUMBUR_clean_sbu_1, # of connection points: 6
#     Node 4, Type 0, BuildingBlock: KUMBUR_clean_sbu_1, # of connection points: 6
#     Node 5, Type 0, BuildingBlock: KUMBUR_clean_sbu_1, # of connection points: 6
#     Node 6, Type 0, BuildingBlock: KUMBUR_clean_sbu_1, # of connection points: 6
#     Node 7, Type 0, BuildingBlock: KUMBUR_clean_sbu_1, # of connection points: 6
#     Node 8, Type 0, BuildingBlock: KUMBUR_clean_sbu_1, # of connection points: 6
#     Node 9, Type 0, BuildingBlock: KUMBUR_clean_sbu_1, # of connection points: 6
#     Node 10, Type 0, BuildingBlock: KUMBUR_clean_sbu_1, # of connection points: 6
#     Node 11, Type 0, BuildingBlock: KUMBUR_clean_sbu_1, # of connection points: 6
#     Edge 12, Type (0, 0), BuildingBlock: XUDNAN_clean_linker_2, # of connection points: 2
#     Edge 13, Type (0, 0), BuildingBlock: XUDNAN_clean_linker_2, # of connection points: 2
#     Edge 14, Type (0, 0), BuildingBlock: XUDNAN_clean_linker_2, # of connection points: 2
#     Edge 15, Type (0, 0), BuildingBlock: XUDNAN_clean_linker_2, # of connection points: 2
#     Edge 16, Type (0, 0), BuildingBlock: XUDNAN_clean_linker_2, # of connection points: 2
#     Edge 17, Type (0, 0), BuildingBlock: XUDNAN_clean_linker_2, # of connection points: 2
#     Edge 18, Type (0, 0), BuildingBlock: XUDNAN_clean_linker_2, # of connection points: 2
#     Edge 19, Type (0, 0), BuildingBlock: XUDNAN_clean_linker_2, # of connection points: 2
#     Edge 20, Type (0, 0), BuildingBlock: XUDNAN_clean_linker_2, # of connection points: 2
#     Edge 21, Type (0, 0), BuildingBlock: XUDNAN_clean_linker_2, # of connection points: 2
#     Edge 22, Type (0, 0), BuildingBlock: XUDNAN_clean_linker_2, # of connection points: 2
#     Edge 23, Type (0, 0), BuildingBlock: XUDNAN_clean_linker_2, # of connection points: 2
#     Edge 24, Type (0, 0), BuildingBlock: XUDNAN_clean_linker_2, # of connection points: 2
#     Edge 25, Type (0, 0), BuildingBlock: XUDNAN_clean_linker_2, # of connection points: 2
#     Edge 26, Type (0, 0), BuildingBlock: XUDNAN_clean_linker_2, # of connection points: 2
#     Edge 27, Type (0, 0), BuildingBlock: XUDNAN_clean_linker_2, # of connection points: 2
#     Edge 28, Type (0, 0), BuildingBlock: XUDNAN_clean_linker_2, # of connection points: 2
#     Edge 29, Type (0, 0), BuildingBlock: XUDNAN_clean_linker_2, # of connection points: 2
#     Edge 30, Type (0, 0), BuildingBlock: XUDNAN_clean_linker_2, # of connection points: 2
#     Edge 31, Type (0, 0), BuildingBlock: XUDNAN_clean_linker_2, # of connection points: 2
#     Edge 32, Type (0, 0), BuildingBlock: XUDNAN_clean_linker_2, # of connection points: 2
#     Edge 33, Type (0, 0), BuildingBlock: XUDNAN_clean_linker_2, # of connection points: 2
#     Edge 34, Type (0, 0), BuildingBlock: XUDNAN_clean_linker_2, # of connection points: 2
#     Edge 35, Type (0, 0), BuildingBlock: XUDNAN_clean_linker_2, # of connection points: 2
#     Edge 36, Type (0, 0), BuildingBlock: XUDNAN_clean_linker_2, # of connection points: 2
#     Edge 37, Type (0, 0), BuildingBlock: XUDNAN_clean_linker_2, # of connection points: 2
#     Edge 38, Type (0, 0), BuildingBlock: XUDNAN_clean_linker_2, # of connection points: 2
#     Edge 39, Type (0, 0), BuildingBlock: XUDNAN_clean_linker_2, # of connection points: 2
#     Edge 40, Type (0, 0), BuildingBlock: XUDNAN_clean_linker_2, # of connection points: 2
#     Edge 41, Type (0, 0), BuildingBlock: XUDNAN_clean_linker_2, # of connection points: 2
#     Edge 42, Type (0, 0), BuildingBlock: XUDNAN_clean_linker_2, # of connection points: 2
#     Edge 43, Type (0, 0), BuildingBlock: XUDNAN_clean_linker_2, # of connection points: 2
#     Edge 44, Type (0, 0), BuildingBlock: XUDNAN_clean_linker_2, # of connection points: 2
#     Edge 45, Type (0, 0), BuildingBlock: XUDNAN_clean_linker_2, # of connection points: 2
#     Edge 46, Type (0, 0), BuildingBlock: XUDNAN_clean_linker_2, # of connection points: 2
#     Edge 47, Type (0, 0), BuildingBlock: XUDNAN_clean_linker_2, # of connection points: 2
# Relax obj value: 0.093
# Max RMSD: 0.241
# Mean RMSD: 0.240
data_MOF--net-lcy-e--node1-KUMBUR_clean_sbu_1--edge1-XUDNAN_clean_linker_2
_symmetry_space_group_name_H-M    P1
_symmetry_Int_Tables_number       1
_symmetry_cell_setting            triclinic
loop_
_symmetry_equiv_pos_as_xyz
'x, y, z'
_cell_length_a     43.817155
_cell_length_b     43.783666
_cell_length_c     43.932231
_cell_angle_alpha  89.971631
_cell_angle_beta   89.858242
_cell_angle_gamma 89.759188
loop_
_atom_site_label
_atom_site_type_symbol
_atom_site_fract_x
_atom_site_fract_y
_atom_site_fract_z
_atom_type_partial_charge
Tb0 Tb 0.14707 0.21296 0.52897 0.0
C1 C 0.05987 0.30157 0.4614 0.0
N2 N 0.0783 0.27921 0.45009 0.0
C3 C 0.03773 0.26241 0.4175 0.0
C4 C 0.02891 0.30364 0.45294 0.0
C5 C 0.06827 0.2613 0.42665 0.0
C6 C 0.01772 0.28306 0.43137 0.0
C7 C 0.05505 0.34901 0.48967 0.0
C8 C 0.07282 0.32437 0.47895 0.0
C9 C 0.02366 0.34983 0.48331 0.0
C10 C 0.01064 0.32727 0.46484 0.0
Tb11 Tb 0.12776 0.28068 0.46675 0.0
N12 N 0.10334 0.32327 0.48399 0.0
C13 C 0.0696 0.37261 0.50545 0.0
C14 C 0.11802 0.34725 0.49731 0.0
C15 C 0.10131 0.37196 0.50886 0.0
H16 H 0.08374 0.24608 0.41482 0.0
H17 H 0.11291 0.39055 0.52014 0.0
H18 H 0.20621 0.24829 0.56474 0.0
H19 H 0.13869 0.10652 0.46844 0.0
H20 H 0.14258 0.347 0.49923 0.0
H21 H 0.05673 0.39192 0.51414 0.0
H22 H 0.12034 0.15697 0.48599 0.0
H23 H 0.02971 0.24747 0.39963 0.0
H24 H 1.00952 0.36844 0.49155 0.0
H25 H 0.9867 0.32898 0.45895 0.0
H26 H 0.25852 0.23505 0.57767 0.0
H27 H 0.99412 0.28399 0.42412 0.0
H28 H 0.19047 0.08875 0.48255 0.0
N29 N 0.19797 0.20757 0.53892 0.0
C30 C 0.20906 0.17935 0.53164 0.0
C31 C 0.24499 0.21934 0.56436 0.0
C32 C 0.23864 0.17017 0.54049 0.0
C33 C 0.21522 0.22714 0.55601 0.0
C34 C 0.25678 0.19078 0.55657 0.0
N35 N 0.16219 0.16858 0.50722 0.0
C36 C 0.14335 0.14992 0.49102 0.0
C37 C 0.20153 0.1301 0.50714 0.0
C38 C 0.19056 0.15919 0.51555 0.0
C39 C 0.18274 0.11117 0.48968 0.0
C40 C 0.15355 0.12118 0.48152 0.0
H41 H 0.27968 0.18464 0.56358 0.0
H42 H 0.27171 0.13323 0.54009 0.0
H43 H 0.23956 0.09849 0.51028 0.0
O44 O 0.12684 0.17449 0.55053 0.0
O45 O 0.16752 0.20905 0.48302 0.0
O46 O 0.17275 0.25922 0.46976 0.0
O47 O 0.15164 0.20843 0.57649 0.0
O48 O 0.10298 0.20991 0.50591 0.0
O49 O 0.11283 0.2326 0.45941 0.0
O50 O 0.14231 0.32035 0.44316 0.0
O51 O 0.1104 0.28753 0.51459 0.0
O52 O 0.10427 0.23858 0.53145 0.0
O53 O 0.1385 0.27772 0.42006 0.0
O54 O 0.16829 0.28848 0.49514 0.0
O55 O 0.16185 0.26051 0.53979 0.0
C56 C 0.17934 0.23037 0.46549 0.0
C57 C 0.1312 0.16538 0.60545 0.0
C58 C 0.1126 0.12017 0.63314 0.0
C59 C 0.12505 0.13252 0.65998 0.0
C60 C 0.1426 0.17708 0.63286 0.0
C61 C 0.13962 0.1607 0.65981 0.0
C62 C 0.1161 0.13675 0.60562 0.0
C63 C 0.09578 0.21536 0.47735 0.0
C64 C 0.13689 0.18272 0.57698 0.0
C65 C 0.24912 0.14067 0.53329 0.0
C66 C 0.2308 0.12086 0.51632 0.0
C67 C 0.10118 0.26792 0.53568 0.0
C68 C 0.13508 0.32233 0.38943 0.0
C69 C 0.14682 0.35177 0.3432 0.0
C70 C 0.11664 0.3474 0.33345 0.0
C71 C 0.10494 0.31916 0.37936 0.0
C72 C 0.15596 0.33923 0.37146 0.0
C73 C 0.09587 0.33148 0.35152 0.0
C74 C 0.17162 0.28492 0.52477 0.0
C75 C 0.14553 0.30642 0.41735 0.0
H76 H 0.12398 0.12018 0.68132 0.0
H77 H 0.15435 0.19879 0.63347 0.0
H78 H 0.14897 0.16977 0.68071 0.0
H79 H 0.10715 0.12754 0.58459 0.0
H80 H 0.10896 0.3568 0.31196 0.0
H81 H 0.08844 0.30688 0.39277 0.0
H82 H 0.17931 0.34195 0.37904 0.0
H83 H 0.07262 0.32856 0.34384 0.0
Tb84 Tb 0.05629 0.89544 0.77587 0.0
C85 C 0.9656 0.80843 0.71629 0.0
N86 N 0.98579 0.82676 0.70161 0.0
C87 C 0.99955 0.78548 0.66838 0.0
C88 C 0.96302 0.77726 0.70883 0.0
C89 C 1.00062 0.81641 0.67625 0.0
C90 C 0.98127 0.7656 0.6853 0.0
C91 C 0.92164 0.80445 0.74972 0.0
C92 C 0.94505 0.82179 0.73628 0.0
C93 C 0.92038 0.77288 0.74415 0.0
C94 C 0.94106 0.7593 0.72374 0.0
Tb95 Tb 0.98704 0.8762 0.71811 0.0
N96 N 0.94695 0.85237 0.74104 0.0
C97 C 0.89958 0.81962 0.76732 0.0
C98 C 0.92391 0.86769 0.75559 0.0
C99 C 0.90036 0.85148 0.76971 0.0
H100 H 0.01307 0.83212 0.66198 0.0
H101 H 0.88272 0.86356 0.78218 0.0
H102 H 0.03084 0.95067 0.82149 0.0
H103 H 0.14334 0.89233 0.68774 0.0
H104 H 0.92424 0.89225 0.75677 0.0
H105 H 0.88119 0.80713 0.77807 0.0
H106 H 0.10309 0.87043 0.71939 0.0
H107 H 0.0123 0.77714 0.64894 0.0
H108 H 0.9028 0.75901 0.75457 0.0
H109 H 0.93898 0.73519 0.71863 0.0
H110 H 0.04544 1.00358 0.83324 0.0
H111 H 0.98002 0.74177 0.67883 0.0
H112 H 0.16005 0.94546 0.69624 0.0
N113 N 0.06399 0.94542 0.78625 0.0
C114 C 0.08807 0.95799 0.77127 0.0
C115 C 0.05746 0.99107 0.81563 0.0
C116 C 0.09774 0.98785 0.77801 0.0
C117 C 0.0489 0.96121 0.80851 0.0
C118 C 0.08203 1.00442 0.80041 0.0
N119 N 0.09367 0.91164 0.74343 0.0
C120 C 0.10842 0.89406 0.72232 0.0
C121 C 0.12733 0.95375 0.73232 0.0
C122 C 0.10301 0.94083 0.7489 0.0
C123 C 0.14144 0.93626 0.70963 0.0
C124 C 0.13198 0.9063 0.70468 0.0
H125 H 0.08875 0.02749 0.80617 0.0
H126 H 0.1306 0.02309 0.76731 0.0
H127 H 0.15595 0.99362 0.72684 0.0
O128 O 0.10047 0.8852 0.79172 0.0
O129 O 0.03974 0.92865 0.74195 0.0
O130 O 0.02803 0.89913 0.70075 0.0
O131 O 0.06448 0.89636 0.82314 0.0
O132 O 0.05987 0.85182 0.75103 0.0
O133 O 0.03342 0.86075 0.70647 0.0
O134 O 0.96564 0.91398 0.6966 0.0
O135 O 0.98341 0.86013 0.76599 0.0
O136 O 0.03212 0.85278 0.78515 0.0
O137 O 0.95769 0.86865 0.68119 0.0
O138 O 0.98262 0.91663 0.74742 0.0
O139 O 0.01027 0.90877 0.79215 0.0
C140 C 0.03758 0.92508 0.71233 0.0
C141 C 0.10474 0.86396 0.84083 0.0
C142 C 0.14786 0.84062 0.8683 0.0
C143 C 0.12735 0.81933 0.88087 0.0
C144 C 0.0851 0.84211 0.8534 0.0
C145 C 0.09639 0.82005 0.87336 0.0
C146 C 0.13613 0.86306 0.84822 0.0
C147 C 0.05184 0.84385 0.72321 0.0
C148 C 0.09294 0.88796 0.82019 0.0
C149 C 0.12269 1.00024 0.76226 0.0
C150 C 0.13711 0.98345 0.73917 0.0
C151 C 1.00259 0.84776 0.78562 0.0
C152 C 0.95659 0.90644 0.6438 0.0
C153 C 0.93424 0.92219 0.59513 0.0
C154 C 0.96258 0.9168 0.581 0.0
C155 C 0.98468 0.90156 0.62916 0.0
C156 C 0.93143 0.91711 0.62677 0.0
C157 C 0.98761 0.9068 0.59796 0.0
C158 C 0.98638 0.91984 0.77706 0.0
C159 C 0.95273 0.89728 0.6759 0.0
H160 H 0.13506 0.80231 0.89702 0.0
H161 H 0.06099 0.84219 0.84797 0.0
H162 H 0.081 0.8035 0.88327 0.0
H163 H 0.15134 0.87971 0.83812 0.0
H164 H 0.96548 0.92073 0.55682 0.0
H165 H 1.00415 0.89302 0.64176 0.0
H166 H 0.90958 0.92056 0.6379 0.0
H167 H 1.00931 0.90279 0.58681 0.0
Tb168 Tb 0.3988 0.73893 0.96335 0.0
C169 C 0.30526 0.8071 0.04811 0.0
N170 N 0.32285 0.81936 0.0257 0.0
C171 C 0.28123 0.85135 0.01004 0.0
C172 C 0.27437 0.81562 0.05143 0.0
C173 C 0.31179 0.84231 1.00781 0.0
C174 C 0.26231 0.83764 0.03166 0.0
C175 C 0.30096 0.77358 0.09201 0.0
C176 C 0.31853 0.78671 0.06854 0.0
C177 C 0.26997 0.78141 0.09486 0.0
C178 C 0.25675 0.80244 0.0747 0.0
Tb179 Tb 0.37205 0.80272 0.02483 0.0
N180 N 0.34856 0.77935 0.06496 0.0
C181 C 0.31507 0.75294 0.11191 0.0
C182 C 0.36256 0.75997 0.08484 0.0
C183 C 0.34605 0.74623 0.10837 0.0
H184 H 0.32668 0.85423 0.99234 0.0
H185 H 0.35724 0.73047 0.12376 0.0
H186 H 0.45906 0.70612 0.99973 0.0
H187 H 0.38717 0.78963 0.85259 0.0
H188 H 0.38621 0.75482 0.08254 0.0
H189 H 0.30232 0.74223 0.13016 0.0
H190 H 0.37023 0.77589 0.90426 0.0
H191 H 0.27244 0.86921 0.99541 0.0
H192 H 0.25609 0.77152 0.11274 0.0
H193 H 0.23293 0.8086 0.07749 0.0
H194 H 0.51182 0.69388 0.98741 0.0
H195 H 0.23869 0.84485 0.0335 0.0
H196 H 0.4393 0.776 0.8355 0.0
N197 N 0.4501 0.72974 0.95788 0.0
C198 C 0.46121 0.73625 0.92963 0.0
C199 C 0.49794 0.70612 0.97107 0.0
C200 C 0.49089 0.72721 0.92085 0.0
C201 C 0.46787 0.71409 0.9783 0.0
C202 C 0.5095 0.71265 0.94223 0.0
N203 N 0.41356 0.75859 0.91785 0.0
C204 C 0.39357 0.77163 0.8978 0.0
C205 C 0.45215 0.75615 0.8788 0.0
C206 C 0.44216 0.7506 0.90881 0.0
C207 C 0.43234 0.77102 0.85865 0.0
C208 C 0.40294 0.77886 0.86824 0.0
H209 H 0.53251 0.70556 0.93642 0.0
H210 H 0.52322 0.72473 0.8835 0.0
H211 H 0.48918 0.74982 0.84661 0.0
O212 O 0.36614 0.71458 0.93596 0.0
O213 O 0.41555 0.78591 0.95589 0.0
O214 O 0.41776 0.8041 1.00464 0.0
O215 O 0.4103 0.69543 0.94775 0.0
O216 O 0.35406 0.76242 0.95857 0.0
O217 O 0.36219 0.81115 0.97692 0.0
O218 O 0.38612 0.82374 0.06531 0.0
O219 O 0.34435 0.7602 0.01901 0.0
O220 O 0.37903 0.72281 1.00549 0.0
O221 O 0.3752 0.8508 0.02562 0.0
O222 O 0.41585 0.78014 0.03127 0.0
O223 O 0.41487 0.73141 0.01178 0.0
C224 C 0.42634 0.8052 0.97605 0.0
C225 C 0.37973 0.66321 0.91531 0.0
C226 C 0.35824 0.6336 0.87284 0.0
C227 C 0.37678 0.60882 0.8813 0.0
C228 C 0.3976 0.63761 0.92308 0.0
C229 C 0.39615 0.6108 0.90621 0.0
C230 C 0.35967 0.6611 0.88997 0.0
C231 C 0.34777 0.79203 0.95895 0.0
C232 C 0.38541 0.69214 0.93223 0.0
C233 C 0.50066 0.73193 0.89074 0.0
C234 C 0.48124 0.74614 0.86969 0.0
C235 C 0.35278 0.73123 0.01689 0.0
C236 C 0.37409 0.87576 0.07378 0.0
C237 C 0.3858 0.92155 0.10334 0.0
C238 C 0.35612 0.92078 0.11553 0.0
C239 C 0.34456 0.87553 0.08604 0.0
C240 C 0.39458 0.89901 0.08219 0.0
C241 C 0.33563 0.89808 0.10673 0.0
C242 C 0.42315 0.75124 0.03322 0.0
C243 C 0.38483 0.85112 0.05369 0.0
H244 H 0.37603 0.5876 0.86863 0.0
H245 H 0.41324 0.63839 0.94212 0.0
H246 H 0.41024 0.59143 0.91244 0.0
H247 H 0.34577 0.68054 0.88346 0.0
H248 H 0.34869 0.93798 0.13168 0.0
H249 H 0.32861 0.8578 0.07997 0.0
H250 H 0.41755 0.89909 0.07292 0.0
H251 H 0.31281 0.89781 0.11619 0.0
Tb252 Tb 0.46707 0.12132 0.27688 0.0
C253 C 0.55036 0.21313 0.20355 0.0
N254 N 0.52644 0.19591 0.19427 0.0
C255 C 0.50574 0.23901 0.16743 0.0
C256 C 0.55247 0.24431 0.19595 0.0
C257 C 0.5053 0.20793 0.17481 0.0
C258 C 0.52918 0.25743 0.17848 0.0
C259 C 0.60058 0.21482 0.22649 0.0
C260 C 0.57398 0.19875 0.21868 0.0
C261 C 0.60237 0.2462 0.22007 0.0
C262 C 0.57827 0.26096 0.20497 0.0
Tb263 Tb 0.5271 0.14583 0.2093 0.0
N264 N 0.57106 0.16852 0.22499 0.0
C265 C 0.62454 0.19874 0.24028 0.0
C266 C 0.59486 0.15237 0.23701 0.0
C267 C 0.62179 0.1673 0.2452 0.0
H268 H 0.48816 0.19349 0.16474 0.0
H269 H 0.64054 0.15456 0.25495 0.0
H270 H 0.4976 0.06587 0.31904 0.0
H271 H 0.37029 0.12458 0.20075 0.0
H272 H 0.59302 0.12801 0.24007 0.0
H273 H 0.64543 0.21021 0.24664 0.0
H274 H 0.41764 0.14415 0.22298 0.0
H275 H 0.48831 0.24859 0.1528 0.0
H276 H 0.62246 0.25912 0.22624 0.0
H277 H 0.58022 0.28502 0.19956 0.0
H278 H 0.48187 0.01463 0.33633 0.0
H279 H 0.52977 0.28138 0.17233 0.0
H280 H 0.3495 0.07506 0.21806 0.0
N281 N 0.45817 0.07263 0.29157 0.0
C282 C 0.43126 0.06111 0.28161 0.0
C283 C 0.46747 0.02746 0.32091 0.0
C284 C 0.42093 0.03244 0.29172 0.0
C285 C 0.47651 0.05631 0.31074 0.0
C286 C 0.43945 0.01558 0.31159 0.0
N287 N 0.42546 0.10518 0.25067 0.0
C288 C 0.40977 0.12209 0.22982 0.0
C289 C 0.38658 0.06638 0.24942 0.0
C290 C 0.41433 0.07791 0.26058 0.0
C291 C 0.37081 0.08326 0.2274 0.0
C292 C 0.38254 0.11117 0.21748 0.0
H293 H 0.43237 0.99336 0.31978 0.0
H294 H 0.38406 0.99972 0.28949 0.0
H295 H 0.35396 0.02944 0.25256 0.0
O296 O 0.42913 0.14548 0.29606 0.0
O297 O 0.47479 0.08861 0.23973 0.0
O298 O 0.48445 0.12129 0.20053 0.0
O299 O 0.45926 0.11688 0.32362 0.0
O300 O 0.46291 0.16715 0.25632 0.0
O301 O 0.47885 0.15786 0.20786 0.0
O302 O 0.55827 0.11613 0.18688 0.0
O303 O 0.53511 0.16818 0.25457 0.0
O304 O 0.5041 0.1485 0.29333 0.0
O305 O 0.53182 0.14864 0.16189 0.0
O306 O 0.53507 0.10341 0.23457 0.0
O307 O 0.5151 0.10622 0.2838 0.0
C308 C 0.47841 0.09367 0.21049 0.0
C309 C 0.41872 0.14247 0.35132 0.0
C310 C 0.37335 0.16056 0.37895 0.0
C311 C 0.38936 0.15658 0.40642 0.0
C312 C 0.4338 0.13864 0.37924 0.0
C313 C 0.41926 0.14577 0.40649 0.0
C314 C 0.3884 0.15389 0.35116 0.0
C315 C 0.46588 0.17583 0.22791 0.0
C316 C 0.43556 0.13486 0.32303 0.0
C317 C 0.3926 0.02154 0.28167 0.0
C318 C 0.37545 0.03849 0.26061 0.0
C319 C 0.52601 0.16622 0.28343 0.0
C320 C 0.58017 0.13722 0.14178 0.0
C321 C 0.61454 0.1278 0.09869 0.0
C322 C 0.62673 0.15718 0.10251 0.0
C323 C 0.59281 0.16644 0.14491 0.0
C324 C 0.59136 0.11774 0.11871 0.0
C325 C 0.61601 0.17624 0.12558 0.0
C326 C 0.53691 0.09861 0.26407 0.0
C327 C 0.55339 0.12836 0.16032 0.0
H328 H 0.37876 0.16209 0.42805 0.0
H329 H 0.45713 0.13036 0.38005 0.0
H330 H 0.43124 0.14292 0.42783 0.0
H331 H 0.37647 0.15692 0.32978 0.0
H332 H 0.64481 0.16534 0.08778 0.0
H333 H 0.58421 0.18209 0.16171 0.0
H334 H 0.58143 0.0953 0.11575 0.0
H335 H 0.62546 0.19888 0.12824 0.0
Tb336 Tb 0.6493 0.30938 0.4855 0.0
C337 C 0.5601 0.21681 0.54468 0.0
N338 N 0.57648 0.23961 0.55772 0.0
C339 C 0.53271 0.25399 0.58747 0.0
C340 C 0.52862 0.21355 0.5505 0.0
C341 C 0.56382 0.25636 0.58081 0.0
C342 C 0.51476 0.23325 0.57148 0.0
C343 C 0.5598 0.16991 0.51524 0.0
C344 C 0.57552 0.19479 0.528 0.0
C345 C 0.52803 0.16791 0.51896 0.0
C346 C 0.51248 0.1896 0.53672 0.0
Tb347 Tb 0.62711 0.24073 0.54472 0.0
N348 N 0.60626 0.19731 0.52514 0.0
C349 C 0.57663 0.14749 0.49974 0.0
C350 C 0.62299 0.1746 0.5117 0.0
C351 C 0.60842 0.14965 0.49831 0.0
H352 H 0.57776 0.27117 0.5946 0.0
H353 H 0.62172 0.13207 0.48705 0.0
H354 H 0.70803 0.27338 0.44824 0.0
H355 H 0.64326 0.41388 0.54942 0.0
H356 H 0.64748 0.17598 0.5112 0.0
H357 H 0.56538 0.12806 0.4895 0.0
H358 H 0.62316 0.36496 0.52982 0.0
H359 H 0.52277 0.26757 0.60546 0.0
H360 H 0.51544 0.14914 0.50908 0.0
H361 H 0.4882 0.18701 0.54055 0.0
H362 H 0.76253 0.28118 0.44261 0.0
H363 H 0.49072 0.2313 0.5769 0.0
H364 H 0.69712 0.42766 0.54004 0.0
N365 N 0.70123 0.31053 0.47953 0.0
C366 C 0.7141 0.33643 0.49099 0.0
C367 C 0.74931 0.29656 0.45678 0.0
C368 C 0.74522 0.34301 0.48594 0.0
C369 C 0.71813 0.29163 0.4611 0.0
C370 C 0.76299 0.3222 0.46946 0.0
N371 N 0.66598 0.3505 0.51179 0.0
C372 C 0.64703 0.37036 0.52685 0.0
C373 C 0.70788 0.38537 0.51667 0.0
C374 C 0.69578 0.35741 0.50664 0.0
C375 C 0.68864 0.40588 0.53207 0.0
C376 C 0.65823 0.39816 0.53754 0.0
H377 H 0.78698 0.3264 0.46526 0.0
H378 H 0.78117 0.37621 0.49231 0.0
H379 H 0.74834 0.41355 0.51836 0.0
O380 O 0.6328 0.3511 0.46837 0.0
O381 O 0.6635 0.31097 0.53379 0.0
O382 O 0.67251 0.26095 0.54403 0.0
O383 O 0.65527 0.31978 0.43863 0.0
O384 O 0.60382 0.31081 0.50529 0.0
O385 O 0.60895 0.288 0.55251 0.0
O386 O 0.64153 0.20132 0.56854 0.0
O387 O 0.61159 0.2344 0.49692 0.0
O388 O 0.60712 0.2834 0.47806 0.0
O389 O 0.63484 0.24363 0.59196 0.0
O390 O 0.66919 0.23616 0.51736 0.0
O391 O 0.663 0.2624 0.47185 0.0
C392 C 0.67886 0.28975 0.54825 0.0
C393 C 0.621 0.35691 0.4166 0.0
C394 C 0.59808 0.39963 0.38831 0.0
C395 C 0.58206 0.37833 0.37052 0.0
C396 C 0.60429 0.33646 0.3988 0.0
C397 C 0.58507 0.34708 0.37589 0.0
C398 C 0.61768 0.38857 0.41136 0.0
C399 C 0.59397 0.30579 0.53318 0.0
C400 C 0.6419 0.34629 0.44086 0.0
C401 C 0.75739 0.37073 0.49626 0.0
C402 C 0.73866 0.39207 0.51101 0.0
C403 C 0.60337 0.25372 0.47533 0.0
C404 C 0.63079 0.1984 0.62133 0.0
C405 C 0.64021 0.16992 0.66864 0.0
C406 C 0.6084 0.16919 0.67355 0.0
C407 C 0.59933 0.19629 0.62643 0.0
C408 C 0.65123 0.18501 0.64235 0.0
C409 C 0.58827 0.18202 0.65253 0.0
C410 C 0.67248 0.23825 0.48755 0.0
C411 C 0.64269 0.21506 0.59464 0.0
H412 H 0.56747 0.38571 0.35205 0.0
H413 H 0.60601 0.31235 0.40241 0.0
H414 H 0.57253 0.33098 0.36208 0.0
H415 H 0.63016 0.40451 0.42546 0.0
H416 H 0.59889 0.15888 0.69384 0.0
H417 H 0.58329 0.20579 0.6104 0.0
H418 H 0.67555 0.18612 0.638 0.0
H419 H 0.56392 0.18097 0.65657 0.0
Tb420 Tb 0.02635 0.36905 0.8051 0.0
C421 C 0.96118 0.46373 0.71813 0.0
N422 N 0.95076 0.44528 0.74075 0.0
C423 C 0.92077 0.48671 0.76085 0.0
C424 C 0.95308 0.49491 0.71703 0.0
C425 C 0.92938 0.45593 0.76091 0.0
C426 C 0.93314 0.50644 0.73918 0.0
C427 C 0.98959 0.46922 0.67091 0.0
C428 C 0.97877 0.451 0.69504 0.0
C429 C 0.98265 0.50055 0.67044 0.0
C430 C 0.96436 0.51334 0.69339 0.0
Tb431 Tb 0.96786 0.39583 0.73838 0.0
N432 N 0.98499 0.4206 0.69611 0.0
C433 C 1.00684 0.45534 0.64783 0.0
C434 C 1.00101 0.40677 0.6732 0.0
C435 C 0.0124 0.42394 0.6489 0.0
H436 H 0.9188 0.44075 0.7772 0.0
H437 H 0.02549 0.41295 0.63105 0.0
H438 H 0.06971 0.31095 0.77926 0.0
H439 H 0.95048 0.37729 0.90138 0.0
H440 H 1.00547 0.38268 0.67386 0.0
H441 H 0.01567 0.46859 0.62895 0.0
H442 H 0.98052 0.39726 0.85787 0.0
H443 H 0.90447 0.49513 0.77741 0.0
H444 H 0.99087 0.51498 0.65216 0.0
H445 H 0.9586 0.5374 0.69233 0.0
H446 H 0.0717 0.2553 0.78579 0.0
H447 H 0.92635 0.53026 0.73912 0.0
H448 H 0.9501 0.32179 0.91208 0.0
N449 N 0.03212 0.31731 0.80951 0.0
C450 C 0.01493 0.30425 0.83178 0.0
C451 C 0.05521 0.2687 0.79847 0.0
C452 C 0.01654 0.2726 0.83752 0.0
C453 C 0.05337 0.30027 0.79415 0.0
C454 C 0.03635 0.25471 0.81992 0.0
N455 N 0.99513 0.35324 0.84337 0.0
C456 C 0.97989 0.37297 0.86221 0.0
C457 C 0.97999 0.31052 0.87436 0.0
C458 C 0.99655 0.32288 0.84982 0.0
C459 C 0.96301 0.33038 0.89286 0.0
C460 C 0.9631 0.36175 0.88686 0.0
H461 H 0.03817 0.23029 0.82357 0.0
H462 H 1.00011 0.23572 0.86599 0.0
H463 H 0.96897 0.26897 0.8988 0.0
O464 O 0.04239 0.39669 0.84095 0.0
O465 O 0.97735 0.35901 0.80295 0.0
O466 O 0.96793 0.34845 0.75381 0.0
O467 O 0.06696 0.35641 0.82739 0.0
O468 O 0.01313 0.41718 0.8033 0.0
O469 O 0.96452 0.41148 0.78586 0.0
O470 O 0.94059 0.38817 0.69932 0.0
O471 O 0.01415 0.41651 0.73542 0.0
O472 O 0.04973 0.39233 0.76786 0.0
O473 O 0.92247 0.38238 0.74458 0.0
O474 O 0.99803 0.35843 0.72453 0.0
O475 O 0.0384 0.35027 0.75917 0.0
C476 C 0.96638 0.34067 0.78236 0.0
C477 C 0.09473 0.39437 0.85432 0.0
C478 C 0.12681 0.41715 0.89368 0.0
C479 C 0.15129 0.41749 0.87299 0.0
C480 C 0.11929 0.39551 0.83381 0.0
C481 C 0.14741 0.40707 0.84318 0.0
C482 C 0.09843 0.40574 0.88412 0.0
C483 C 0.98561 0.42802 0.79907 0.0
C484 C 0.06587 0.37931 0.84618 0.0
C485 C 0.99918 0.25999 0.86127 0.0
C486 C 0.98133 0.27895 0.87991 0.0
C487 C 0.04219 0.41147 0.74578 0.0
C488 C 0.88634 0.39068 0.70543 0.0
C489 C 0.83852 0.37911 0.67877 0.0
C490 C 0.82508 0.40458 0.69334 0.0
C491 C 0.87235 0.41623 0.71868 0.0
C492 C 0.86951 0.3724 0.68507 0.0
C493 C 0.84201 0.42315 0.71259 0.0
C494 C 0.02449 0.34604 0.73243 0.0
C495 C 0.91688 0.38058 0.71549 0.0
H496 H 0.17336 0.42612 0.87985 0.0
H497 H 0.11689 0.387 0.8108 0.0
H498 H 0.16639 0.40764 0.82738 0.0
H499 H 0.07957 0.40484 0.90013 0.0
H500 H 0.80116 0.41005 0.69061 0.0
H501 H 0.88436 0.43024 0.73465 0.0
H502 H 0.88053 0.35281 0.67469 0.0
H503 H 0.83128 0.44258 0.72354 0.0
Tb504 Tb 0.8794 0.71441 0.98863 0.0
C505 C 0.96711 0.80245 0.04625 0.0
N506 N 0.9482 0.78349 0.06181 0.0
C507 C 0.98996 0.76786 0.09354 0.0
C508 C 0.99874 0.80289 0.05206 0.0
C509 C 0.95869 0.76907 0.0873 0.0
C510 C 0.01026 0.78403 0.0751 0.0
C511 C 0.97226 0.84729 0.01424 0.0
C512 C 0.95413 0.82451 0.02779 0.0
C513 C 1.0041 0.84605 0.01762 0.0
C514 C 0.01735 0.82384 0.03651 0.0
Tb515 Tb 0.89779 0.78568 0.04819 0.0
N516 N 0.92324 0.82492 0.02504 0.0
C517 C 0.95768 0.87135 0.99898 0.0
C518 C 0.90886 0.84974 0.01267 0.0
C519 C 0.92581 0.87292 0.99878 0.0
H520 H 0.94278 0.75909 0.10316 0.0
H521 H 0.91433 0.892 0.98805 0.0
H522 H 0.82255 0.74143 0.94587 0.0
H523 H 0.88841 0.61428 0.0608 0.0
H524 H 0.88444 0.85116 0.01307 0.0
H525 H 0.97077 0.88936 0.98828 0.0
H526 H 0.90654 0.66155 0.0378 0.0
H527 H 0.99824 0.75525 0.11306 0.0
H528 H 0.01852 0.86301 1.00693 0.0
H529 H 0.04177 0.82418 0.04028 0.0
H530 H 0.77095 0.72569 0.93161 0.0
H531 H 0.0344 0.78368 0.08036 0.0
H532 H 0.83766 0.59406 0.04731 0.0
N533 N 0.83013 0.70412 0.97595 0.0
C534 C 0.8193 0.67705 0.98641 0.0
C535 C 0.78413 0.71196 0.94736 0.0
C536 C 0.79021 0.66646 0.97781 0.0
C537 C 0.81329 0.72127 0.95612 0.0
C538 C 0.77249 0.68445 0.95829 0.0
N539 N 0.86519 0.67115 0.01414 0.0
C540 C 0.88366 0.65461 0.03305 0.0
C541 C 0.8268 0.63182 0.01738 0.0
C542 C 0.83747 0.65993 1.00591 0.0
C543 C 0.84517 0.61558 0.03776 0.0
C544 C 0.87371 0.62705 0.04561 0.0
H545 H 0.75003 0.67712 0.95117 0.0
H546 H 0.75763 0.62963 0.9822 0.0
H547 H 0.7896 0.59934 0.01692 0.0
O548 O 0.90151 0.67647 0.96894 0.0
O549 O 0.84509 0.72382 0.02442 0.0
O550 O 0.87135 0.74592 0.06482 0.0
O551 O 0.87981 0.70991 0.9406 0.0
O552 O 0.92036 0.71076 0.01775 0.0
O553 O 0.91046 0.73859 0.06185 0.0
O554 O 0.86278 0.81174 0.06956 0.0
O555 O 0.91203 0.79044 0.99963 0.0
O556 O 0.92149 0.74079 0.99109 0.0
O557 O 0.90794 0.81259 0.08651 0.0
O558 O 0.85629 0.78768 0.02028 0.0
O559 O 0.86384 0.76097 0.97474 0.0
C560 C 0.84662 0.7331 0.05304 0.0
C561 C 0.88364 0.65837 0.92168 0.0
C562 C 0.89469 0.61146 0.89269 0.0
C563 C 0.86334 0.60858 0.88679 0.0
C564 C 0.85259 0.65501 0.91489 0.0
C565 C 0.84257 0.63026 0.89765 0.0
C566 C 0.90478 0.63662 0.91015 0.0
C567 C 0.92541 0.71699 0.04677 0.0
C568 C 0.89434 0.68381 0.94127 0.0
C569 C 0.77985 0.6382 0.98867 0.0
C570 C 0.79809 0.62093 1.0084 0.0
C571 C 0.92383 0.76908 0.98218 0.0
C572 C 0.86942 0.81774 0.1231 0.0
C573 C 0.85376 0.83908 0.17244 0.0
C574 C 0.85141 0.8093 0.18399 0.0
C575 C 0.86864 0.78842 0.13598 0.0
C576 C 0.8625 0.8433 0.14169 0.0
C577 C 0.85888 0.7842 0.1659 0.0
C578 C 0.85249 0.78441 0.99065 0.0
C579 C 0.88024 0.82149 0.09131 0.0
H580 H 0.85494 0.58975 0.87324 0.0
H581 H 0.83598 0.67144 0.92281 0.0
H582 H 0.81853 0.62791 0.8926 0.0
H583 H 0.92888 0.63903 0.91509 0.0
H584 H 0.84496 0.80555 0.20753 0.0
H585 H 0.87553 0.76867 0.12277 0.0
H586 H 0.86484 0.8662 0.13263 0.0
H587 H 0.85783 0.7614 0.17536 0.0
Tb588 Tb 0.49157 0.65105 0.30462 0.0
C589 C 0.56039 0.55387 0.22504 0.0
N590 N 0.57153 0.57591 0.24359 0.0
C591 C 0.60637 0.5396 0.2654 0.0
C592 C 0.57014 0.52327 0.22751 0.0
C593 C 0.59604 0.56968 0.26175 0.0
C594 C 0.59271 0.51611 0.24886 0.0
C595 C 0.53076 0.54114 0.18036 0.0
C596 C 0.54148 0.56268 0.20154 0.0
C597 C 0.53852 0.51019 0.18401 0.0
C598 C 0.55828 0.50127 0.20751 0.0
Tb599 Tb 0.55051 0.62352 0.23749 0.0
N600 N 0.53493 0.59281 0.19862 0.0
C601 C 0.51341 0.55156 0.15571 0.0
C602 C 0.51998 0.60335 0.17352 0.0
C603 C 0.50851 0.58289 0.15195 0.0
H604 H 0.60749 0.58785 0.27372 0.0
H605 H 0.496 0.59121 0.13242 0.0
H606 H 0.44643 0.7059 0.27418 0.0
H607 H 0.56083 0.64828 0.40519 0.0
H608 H 0.51739 0.62754 0.16992 0.0
H609 H 0.50462 0.53576 0.13893 0.0
H610 H 0.53717 0.62672 0.35903 0.0
H611 H 0.62501 0.53461 0.28076 0.0
H612 H 0.53026 0.49318 0.16817 0.0
H613 H 0.56513 0.47753 0.20932 0.0
H614 H 0.43773 0.76051 0.28222 0.0
H615 H 0.60088 0.49288 0.25153 0.0
H616 H 0.55306 0.70283 0.41781 0.0
N617 N 0.48136 0.70217 0.30799 0.0
C618 C 0.49497 0.71624 0.332 0.0
C619 C 0.45425 0.74846 0.29609 0.0
C620 C 0.48873 0.74711 0.33883 0.0
C621 C 0.46004 0.71748 0.291 0.0
C622 C 0.46884 0.76343 0.31993 0.0
N623 N 0.51922 0.66934 0.34407 0.0
C624 C 0.53495 0.65081 0.36362 0.0
C625 C 0.52573 0.71207 0.37781 0.0
C626 C 0.51369 0.6991 0.35112 0.0
C627 C 0.54336 0.69365 0.3971 0.0
C628 C 0.54792 0.66287 0.39 0.0
H629 H 0.46362 0.78723 0.32433 0.0
H630 H 0.49659 0.78396 0.37072 0.0
H631 H 0.52818 0.75306 0.40525 0.0
O632 O 0.47431 0.6207 0.3382 0.0
O633 O 0.5391 0.66698 0.30365 0.0
O634 O 0.5455 0.67092 0.25273 0.0
O635 O 0.45115 0.66264 0.32775 0.0
O636 O 0.51223 0.60552 0.30618 0.0
O637 O 0.55926 0.61531 0.28594 0.0
O638 O 0.57306 0.63558 0.19675 0.0
O639 O 0.50678 0.59694 0.24201 0.0
O640 O 0.46978 0.62588 0.26843 0.0
O641 O 0.59659 0.63738 0.2393 0.0
O642 O 0.51552 0.65408 0.22011 0.0
O643 O 0.47904 0.66742 0.2577 0.0
C644 C 0.55121 0.68082 0.28022 0.0
C645 C 0.42223 0.62553 0.35477 0.0
C646 C 0.38976 0.60583 0.39585 0.0
C647 C 0.36445 0.60818 0.37649 0.0
C648 C 0.39662 0.62718 0.33572 0.0
C649 C 0.36793 0.61856 0.3466 0.0
C650 C 0.41876 0.61437 0.38481 0.0
C651 C 0.54132 0.59908 0.30355 0.0
C652 C 0.45174 0.63873 0.34523 0.0
C653 C 0.50131 0.76033 0.36503 0.0
C654 C 0.51926 0.74271 0.38474 0.0
C655 C 0.47831 0.60245 0.25159 0.0
C656 C 0.62696 0.63092 0.19487 0.0
C657 C 0.67471 0.64191 0.16734 0.0
C658 C 0.68018 0.61022 0.16564 0.0
C659 C 0.63293 0.5996 0.19222 0.0
C660 C 0.64796 0.65212 0.18247 0.0
C661 C 0.65949 0.58938 0.17791 0.0
C662 C 0.4901 0.66751 0.22925 0.0
C663 C 0.59874 0.64171 0.21006 0.0
H664 H 0.34202 0.60149 0.38441 0.0
H665 H 0.39869 0.63576 0.31268 0.0
H666 H 0.34824 0.62012 0.33185 0.0
H667 H 0.4384 0.61293 0.39971 0.0
H668 H 0.7007 0.6014 0.15497 0.0
H669 H 0.61706 0.583 0.20113 0.0
H670 H 0.64317 0.67637 0.18411 0.0
H671 H 0.66406 0.56513 0.17622 0.0
Tb672 Tb 0.28269 0.46498 0.11636 0.0
C673 C 0.20955 0.5518 0.20649 0.0
N674 N 0.19999 0.52788 0.18935 0.0
C675 C 0.16778 0.51089 0.23009 0.0
C676 C 0.19968 0.55529 0.23685 0.0
C677 C 0.17844 0.50823 0.20019 0.0
C678 C 0.17881 0.53423 0.24868 0.0
C679 C 0.23894 0.59854 0.21041 0.0
C680 C 0.22848 0.57353 0.19323 0.0
C681 C 0.23007 0.60145 0.24102 0.0
C682 C 0.21036 0.57999 0.25415 0.0
Tb683 Tb 0.21849 0.52689 0.14108 0.0
N684 N 0.23643 0.57019 0.16345 0.0
C685 C 0.2578 0.62003 0.19623 0.0
C686 C 0.25398 0.59165 0.14924 0.0
C687 C 0.26517 0.61665 0.16548 0.0
H688 H 0.16961 0.49022 0.18597 0.0
H689 H 0.27934 0.63341 0.15422 0.0
H690 H 0.32723 0.49724 0.06243 0.0
H691 H 0.22026 0.35976 0.12021 0.0
H692 H 0.25944 0.58994 0.12544 0.0
H693 H 0.26642 0.63951 0.20869 0.0
H694 H 0.23843 0.40935 0.13992 0.0
H695 H 0.15113 0.4949 0.2388 0.0
H696 H 0.23795 0.62049 0.25461 0.0
H697 H 0.20321 0.58291 0.27759 0.0
H698 H 0.34272 0.48523 0.01025 0.0
H699 H 0.17056 0.53619 0.27186 0.0
H700 H 0.23482 0.34336 0.06823 0.0
N701 N 0.29733 0.45891 0.06672 0.0
C702 C 0.28806 0.43226 0.05384 0.0
C703 C 0.32705 0.47031 0.02213 0.0
C704 C 0.29826 0.42349 0.02465 0.0
C705 C 0.3174 0.47748 0.05163 0.0
C706 C 0.3174 0.44325 1.00854 0.0
N707 N 0.25986 0.42214 0.09856 0.0
C708 C 0.2436 0.40286 0.11686 0.0
C709 C 0.26065 0.38436 0.05875 0.0
C710 C 0.26941 0.41293 0.07059 0.0
C711 C 0.24216 0.36541 0.07659 0.0
C712 C 0.23375 0.37464 0.10587 0.0
H713 H 0.32554 0.43743 0.98595 0.0
H714 H 0.29754 0.38779 0.99049 0.0
H715 H 0.26451 0.35361 0.0203 0.0
O716 O 0.29956 0.43355 0.14869 0.0
O717 O 0.23575 0.46095 0.0984 0.0
O718 O 0.22216 0.51086 0.0944 0.0
O719 O 0.32668 0.44614 0.10978 0.0
O720 O 0.26325 0.46281 0.16234 0.0
O721 O 0.21416 0.47867 0.15416 0.0
O722 O 0.18816 0.5645 0.13399 0.0
O723 O 0.26119 0.52388 0.16915 0.0
O724 O 0.30008 0.50632 0.13723 0.0
O725 O 0.17405 0.51798 0.1269 0.0
O726 O 0.24672 0.54208 0.10314 0.0
O727 O 0.29156 0.51244 0.09867 0.0
C728 C 0.2192 0.48256 0.0858 0.0
C729 C 0.3521 0.41925 0.14993 0.0
C730 C 0.38421 0.37788 0.17032 0.0
C731 C 0.40577 0.40002 0.17897 0.0
C732 C 0.37379 0.44076 0.15894 0.0
C733 C 0.40048 0.4311 0.17343 0.0
C734 C 0.35724 0.38796 0.15583 0.0
C735 C 0.23453 0.46408 0.1706 0.0
C736 C 0.32436 0.42824 0.13329 0.0
C737 C 0.28976 0.39496 0.01281 0.0
C738 C 0.27096 0.37548 0.02979 0.0
C739 C 0.29049 0.52115 0.16148 0.0
C740 C 0.13395 0.55378 0.13475 0.0
C741 C 0.08675 0.58366 0.12819 0.0
C742 C 0.07113 0.56172 0.14551 0.0
C743 C 0.11741 0.53251 0.15213 0.0
C744 C 0.11836 0.57955 0.1226 0.0
C745 C 0.08634 0.5365 0.1574 0.0
C746 C 0.27452 0.53706 0.09248 0.0
C747 C 0.16592 0.54665 0.12574 0.0
H748 H 0.4271 0.39337 0.18948 0.0
H749 H 0.3702 0.46486 0.15453 0.0
H750 H 0.41737 0.44775 0.18011 0.0
H751 H 0.34012 0.37153 0.14903 0.0
H752 H 0.04694 0.56429 0.15008 0.0
H753 H 0.12814 0.5121 0.16087 0.0
H754 H 0.1306 0.59609 0.10891 0.0
H755 H 0.07391 0.51976 0.1706 0.0
Tb756 Tb 0.71363 0.98638 0.86774 0.0
C757 C 0.80042 0.04979 0.95725 0.0
N758 N 0.77834 0.06222 0.93938 0.0
C759 C 0.76026 0.09182 0.98182 0.0
C760 C 0.80167 0.056 0.98871 0.0
C761 C 0.76032 0.08517 0.95068 0.0
C762 C 0.78043 0.07648 1.0011 0.0
C763 C 0.84808 0.02154 0.96067 0.0
C764 C 0.8237 0.03337 0.94342 0.0
C765 C 0.8482 0.02571 0.99236 0.0
C766 C 0.82509 0.04303 1.00635 0.0
Tb767 Tb 0.78037 0.04832 0.88913 0.0
N768 N 0.82296 0.03005 0.91271 0.0
C769 C 0.87198 1.00667 0.94539 0.0
C770 C 0.84712 0.01744 0.89748 0.0
C771 C 0.87174 1.00507 0.9136 0.0
H772 H 0.7458 0.09841 0.93579 0.0
H773 H 0.89053 0.99444 0.90151 0.0
H774 H 0.75075 0.95252 0.80859 0.0
H775 H 0.60679 0.04706 0.87582 0.0
H776 H 0.84715 0.01674 0.87291 0.0
H777 H 0.89113 0.9972 0.95782 0.0
H778 H 0.65694 0.02937 0.89453 0.0
H779 H 0.74503 0.10912 0.99081 0.0
H780 H 0.86659 0.01656 1.00611 0.0
H781 H 0.82618 0.04719 0.03063 0.0
H782 H 0.73886 0.94062 0.75581 0.0
H783 H 0.78062 0.08195 0.02515 0.0
H784 H 0.59016 0.03373 0.82371 0.0
N785 N 0.70942 0.97759 0.81676 0.0
C786 C 0.68144 0.98508 0.80542 0.0
C787 C 0.72267 0.9535 0.7694 0.0
C788 C 0.67316 0.97711 0.77547 0.0
C789 C 0.72966 0.96115 0.79945 0.0
C790 C 0.69435 0.96152 0.75733 0.0
N791 N 0.66935 1.0083 0.85263 0.0
C792 C 0.65032 0.0244 0.87143 0.0
C793 C 0.63185 0.00929 0.81277 0.0
C794 C 0.66069 1.00059 0.82399 0.0
C795 C 0.61241 0.02638 0.83162 0.0
C796 C 0.62177 0.03409 0.86101 0.0
H797 H 0.68887 0.95508 0.73418 0.0
H798 H 0.63712 0.97841 0.7418 0.0
H799 H 0.60129 1.00719 0.77416 0.0
O800 O 0.67545 0.96486 0.88799 0.0
O801 O 0.70989 0.03267 0.84784 0.0
O802 O 0.76001 0.04655 0.84372 0.0
O803 O 0.70905 0.9387 0.86238 0.0
O804 O 0.71023 0.00964 0.91125 0.0
O805 O 0.73205 0.05673 0.90249 0.0
O806 O 0.81963 0.07162 0.87363 0.0
O807 O 0.78647 1.00038 0.9067 0.0
O808 O 0.73734 0.9837 0.91142 0.0
O809 O 0.7782 0.09595 0.88249 0.0
O810 O 0.78679 0.02059 0.84787 0.0
O811 O 0.76142 0.97485 0.85504 0.0
C812 C 0.73124 0.05049 0.83658 0.0
C813 C 0.66649 0.91005 0.88415 0.0
C814 C 0.62067 0.8837 0.90217 0.0
C815 C 0.63392 0.85578 0.89332 0.0
C816 C 0.67912 0.88179 0.87565 0.0
C817 C 0.66294 0.85488 0.88031 0.0
C818 C 0.63725 0.91091 0.89786 0.0
C819 C 0.71427 0.03845 0.91848 0.0
C820 C 0.68387 0.93826 0.8781 0.0
C821 C 0.6439 0.98457 0.76468 0.0
C822 C 0.62345 1.0009 0.78314 0.0
C823 C 0.76652 0.9796 0.91587 0.0
C824 C 0.82413 0.12414 0.88581 0.0
C825 C 0.85447 0.17023 0.87642 0.0
C826 C 0.855 0.17556 0.90799 0.0
C827 C 0.82547 0.12978 0.91716 0.0
C828 C 0.83896 0.14423 0.86548 0.0
C829 C 0.84075 0.15541 0.92812 0.0
C830 C 0.78535 0.99065 0.84566 0.0
C831 C 0.80648 0.09817 0.87379 0.0
H832 H 0.62184 0.83449 0.89669 0.0
H833 H 0.70157 0.88045 0.86533 0.0
H834 H 0.67289 0.8332 0.87371 0.0
H835 H 0.62715 0.93257 0.90446 0.0
H836 H 0.86698 0.19505 0.9172 0.0
H837 H 0.81459 0.11454 0.93316 0.0
H838 H 0.83797 0.13992 0.8412 0.0
H839 H 0.84158 0.15968 0.95236 0.0
Tb840 Tb 0.73981 0.96368 0.39602 0.0
C841 C 0.79736 0.06296 0.31135 0.0
N842 N 0.80973 0.03839 0.32567 0.0
C843 C 0.83598 0.02421 0.27979 0.0
C844 C 0.80252 0.0682 0.28012 0.0
C845 C 0.83027 0.02019 0.31084 0.0
C846 C 0.8216 0.04802 0.26419 0.0
C847 C 0.76698 0.10927 0.31454 0.0
C848 C 0.78003 0.08333 0.32838 0.0
C849 C 0.77122 0.11412 0.28318 0.0
C850 C 0.78901 0.09367 0.26603 0.0
Tb851 Tb 0.79722 0.03324 0.37588 0.0
N852 N 0.77628 0.07776 0.35862 0.0
C853 C 0.75045 0.12974 0.33274 0.0
C854 C 0.76184 0.09856 0.37676 0.0
C855 C 0.74827 0.12459 0.36406 0.0
H856 H 0.8434 1.00348 0.32315 0.0
H857 H 0.73643 0.14082 0.37848 0.0
H858 H 0.69701 0.99638 0.45187 0.0
H859 H 0.80957 0.86276 0.39401 0.0
H860 H 0.76137 0.09558 0.40106 0.0
H861 H 0.73997 0.14993 0.32298 0.0
H862 H 0.78466 0.9085 0.37195 0.0
H863 H 0.85192 0.00933 0.26808 0.0
H864 H 0.76126 0.13386 0.27207 0.0
H865 H 0.79254 0.09799 0.24199 0.0
H866 H 0.69145 0.99054 0.50686 0.0
H867 H 0.8262 0.05124 0.24016 0.0
H868 H 0.80462 0.85209 0.44911 0.0
N869 N 0.73156 0.96189 0.4475 0.0
C870 C 0.74594 0.93826 0.46181 0.0
C871 C 0.70722 0.97599 0.49454 0.0
C872 C 0.74183 0.93299 0.49321 0.0
C873 C 0.71121 0.97977 0.4632 0.0
C874 C 0.72283 0.95271 0.50969 0.0
N875 N 0.76793 0.9244 0.41457 0.0
C876 C 0.7833 0.90442 0.39616 0.0
C877 C 0.77734 0.89248 0.45813 0.0
C878 C 0.76388 0.91838 0.44466 0.0
C879 C 0.79413 0.87242 0.43965 0.0
C880 C 0.79708 0.87841 0.40853 0.0
H881 H 0.71918 0.94949 0.53388 0.0
H882 H 0.75296 0.9032 0.53105 0.0
H883 H 0.78335 0.86737 0.50019 0.0
O884 O 0.72305 0.93037 0.36536 0.0
O885 O 0.78756 0.96518 0.41185 0.0
O886 O 0.79364 0.01538 0.42212 0.0
O887 O 0.70048 0.93897 0.40781 0.0
O888 O 0.76278 0.96266 0.3516 0.0
O889 O 0.80856 0.98604 0.36231 0.0
O890 O 0.82319 0.07199 0.38834 0.0
O891 O 0.75705 0.027 0.34484 0.0
O892 O 0.71823 1.00047 0.37029 0.0
O893 O 0.84442 0.028 0.38337 0.0
O894 O 0.76642 0.04059 0.41494 0.0
O895 O 0.72308 0.01042 0.40814 0.0
C896 C 0.79801 0.9868 0.42948 0.0
C897 C 0.67111 0.91455 0.36955 0.0
C898 C 0.63781 0.87679 0.34533 0.0
C899 C 0.61348 0.89765 0.3476 0.0
C900 C 0.64643 0.935 0.37124 0.0
C901 C 0.61778 0.92646 0.36048 0.0
C902 C 0.6667 0.88528 0.35659 0.0
C903 C 0.79175 0.9676 0.34555 0.0
C904 C 0.70083 0.92242 0.38327 0.0
C905 C 0.75594 0.90764 0.50696 0.0
C906 C 0.77327 0.88723 0.48939 0.0
C907 C 0.72824 0.01813 0.34808 0.0
C908 C 0.87707 0.07137 0.37932 0.0
C909 C 0.92402 0.10033 0.38984 0.0
C910 C 0.93353 0.09471 0.35977 0.0
C911 C 0.88729 0.06658 0.34947 0.0
C912 C 0.8954 0.08873 0.39947 0.0
C913 C 0.91525 0.07817 0.33981 0.0
C914 C 0.73694 0.03541 0.41834 0.0
C915 C 0.84859 0.05666 0.3903 0.0
H916 H 0.59108 0.89166 0.33915 0.0
H917 H 0.64922 0.95742 0.38125 0.0
H918 H 0.59878 0.94226 0.36207 0.0
H919 H 0.68564 0.86933 0.3551 0.0
H920 H 0.95506 0.10354 0.35147 0.0
H921 H 0.87394 0.05353 0.33364 0.0
H922 H 0.88783 0.09247 0.42268 0.0
H923 H 0.92291 0.07416 0.31671 0.0
Tb924 Tb 0.30814 0.49442 0.65034 0.0
C925 C 0.20462 0.54394 0.56075 0.0
N926 N 0.23145 0.55527 0.57099 0.0
C927 C 0.24246 0.57488 0.52121 0.0
C928 C 0.1966 0.54577 0.52977 0.0
C929 C 0.24925 0.57241 0.55217 0.0
C930 C 0.21635 0.56086 0.50976 0.0
C931 C 0.15573 0.52129 0.57253 0.0
C932 C 0.18433 0.53242 0.58189 0.0
C933 C 0.14824 0.52139 0.54144 0.0
C934 C 0.16858 0.53381 0.5201 0.0
Tb935 Tb 0.23994 0.5516 0.62202 0.0
N936 N 0.19211 0.53359 0.61179 0.0
C937 C 0.13523 0.51123 0.5948 0.0
C938 C 0.17129 0.52601 0.63364 0.0
C939 C 0.14292 0.51395 0.6255 0.0
H940 H 0.26781 0.58544 0.56122 0.0
H941 H 0.12678 0.50724 0.64285 0.0
H942 H 0.27454 0.45241 0.70559 0.0
H943 H 0.40432 0.57014 0.65085 0.0
H944 H 0.17612 0.53005 0.65728 0.0
H945 H 0.11308 0.50231 0.58858 0.0
H946 H 0.36196 0.5413 0.62717 0.0
H947 H 0.25685 0.58829 0.50637 0.0
H948 H 0.12642 0.51283 0.53377 0.0
H949 H 0.16207 0.53479 0.49634 0.0
H950 H 0.27812 0.44848 0.76105 0.0
H951 H 0.2109 0.56314 0.48583 0.0
H952 H 0.41186 0.5679 0.70664 0.0
N953 N 0.30765 0.48802 0.70192 0.0
C954 C 0.32978 0.50385 0.71675 0.0
C955 C 0.29246 0.46448 0.74892 0.0
C956 C 0.33364 0.50096 0.74848 0.0
C957 C 0.28999 0.46743 0.71735 0.0
C958 C 0.31416 0.48153 0.76461 0.0
N959 N 0.34482 0.52513 0.66949 0.0
C960 C 0.36485 0.54094 0.65161 0.0
C961 C 0.37344 0.53788 0.71432 0.0
C962 C 0.34933 0.52242 0.69997 0.0
C963 C 0.3931 0.5556 0.69642 0.0
C964 C 0.38887 0.55701 0.66491 0.0
H965 H 0.31634 0.47879 0.78902 0.0
H966 H 0.36072 0.51471 0.78729 0.0
H967 H 0.39622 0.54593 0.75725 0.0
O968 O 0.34526 0.47793 0.62396 0.0
O969 O 0.30423 0.54377 0.66077 0.0
O970 O 0.25439 0.55404 0.66945 0.0
O971 O 0.33117 0.45454 0.66436 0.0
O972 O 0.30913 0.50992 0.60359 0.0
O973 O 0.28766 0.55794 0.60567 0.0
O974 O 0.2046 0.58398 0.62974 0.0
O975 O 0.24322 0.50767 0.59671 0.0
O976 O 0.27305 0.47135 0.62321 0.0
O977 O 0.24996 0.59818 0.61773 0.0
O978 O 0.23127 0.52417 0.66359 0.0
O979 O 0.26126 0.47983 0.66198 0.0
C980 C 0.28279 0.55515 0.67837 0.0
C981 C 0.3587 0.4252 0.62771 0.0
C982 C 0.39723 0.39111 0.60501 0.0
C983 C 0.37546 0.36768 0.60456 0.0
C984 C 0.3374 0.40139 0.6266 0.0
C985 C 0.34588 0.37278 0.61532 0.0
C986 C 0.38876 0.41998 0.61676 0.0
C987 C 0.30522 0.5373 0.59222 0.0
C988 C 0.35049 0.45488 0.64184 0.0
C989 C 0.35732 0.51679 0.76296 0.0
C990 C 0.37744 0.53476 0.74586 0.0
C991 C 0.2529 0.47935 0.6021 0.0
C992 C 0.21991 0.63374 0.64607 0.0
C993 C 0.19103 0.67801 0.66532 0.0
C994 C 0.21716 0.68744 0.68114 0.0
C995 C 0.24551 0.64375 0.66248 0.0
C996 C 0.19259 0.65116 0.64747 0.0
C997 C 0.24412 0.67049 0.67966 0.0
C998 C 0.23559 0.49463 0.6687 0.0
C999 C 0.2225 0.60715 0.62518 0.0
H1000 H 0.3813 0.34544 0.59536 0.0
H1001 H 0.31428 0.40479 0.63477 0.0
H1002 H 0.32938 0.35446 0.61476 0.0
H1003 H 0.40531 0.4383 0.61711 0.0
H1004 H 0.21687 0.7084 0.69426 0.0
H1005 H 0.26689 0.63127 0.66156 0.0
H1006 H 0.17281 0.64404 0.63456 0.0
H1007 H 0.26417 0.6783 0.69165 0.0
H1008 H 0.22838 0.31262 0.52845 0.0
H1009 H 0.13442 0.32167 0.55784 0.0
H1010 H 0.14483 0.37238 0.57828 0.0
H1011 H 0.26022 0.3528 0.59653 0.0
H1012 H 0.29023 0.37044 0.57465 0.0
H1013 H 0.2755 0.33379 0.56339 0.0
H1014 H 0.26421 0.35598 0.50981 0.0
H1015 H 0.27817 0.39281 0.52146 0.0
H1016 H 0.24013 0.3893 0.50637 0.0
H1017 H 0.16321 0.42492 0.58926 0.0
H1018 H 0.1918 0.47124 0.60262 0.0
H1019 H 0.27584 0.42844 0.57248 0.0
C1020 C 0.21031 0.32502 0.53996 0.0
C1021 C 0.18057 0.31261 0.54211 0.0
C1022 C 0.15751 0.32973 0.557 0.0
C1023 C 0.1631 0.3591 0.56815 0.0
C1024 C 0.19225 0.37106 0.56494 0.0
C1025 C 0.21585 0.35425 0.55228 0.0
C1026 C 0.24537 0.37244 0.55307 0.0
C1027 C 0.26924 0.3564 0.57312 0.0
C1028 C 0.25769 0.37794 0.52075 0.0
C1029 C 0.23439 0.40214 0.5675 0.0
C1030 C 0.20344 0.40098 0.57336 0.0
C1031 C 0.18753 0.42599 0.58504 0.0
C1032 C 0.20386 0.45254 0.59201 0.0
C1033 C 0.23586 0.45378 0.58807 0.0
C1034 C 0.2513 0.42823 0.57546 0.0
H1035 H 0.81941 0.99305 0.79283 0.0
H1036 H 0.81841 0.95453 0.88339 0.0
H1037 H 0.8694 0.93383 0.87628 0.0
H1038 H 0.86376 0.92827 0.7588 0.0
H1039 H 0.88447 0.95305 0.73343 0.0
H1040 H 0.84619 0.96291 0.74501 0.0
H1041 H 0.86581 0.01525 0.76442 0.0
H1042 H 0.90423 1.00522 0.75354 0.0
H1043 H 0.89598 0.01619 0.79225 0.0
H1044 H 0.92311 0.92314 0.8623 0.0
H1045 H 0.9727 0.91264 0.83757 0.0
H1046 H 0.93985 0.95547 0.75474 0.0
C1047 C 0.82971 0.97953 0.81073 0.0
C1048 C 0.81408 0.97432 0.8384 0.0
C1049 C 0.82856 0.95703 0.86145 0.0
C1050 C 0.85822 0.94589 0.85787 0.0
C1051 C 0.87328 0.95198 0.83079 0.0
C1052 C 0.85936 0.96759 0.8072 0.0
C1053 C 0.88078 0.97014 0.78017 0.0
C1054 C 0.86805 0.95255 0.75273 0.0
C1055 C 0.88706 1.0037 0.77213 0.0
C1056 C 0.90906 0.9546 0.79287 0.0
C1057 C 0.90424 0.94456 0.82221 0.0
C1058 C 0.92708 0.93019 0.83903 0.0
C1059 C 0.95522 0.92443 0.82486 0.0
C1060 C 0.95996 0.93242 0.79404 0.0
C1061 C 0.93688 0.94877 0.7783 0.0
H1062 H 0.36793 0.68946 0.05988 0.0
H1063 H 0.29564 0.71564 0.998 0.0
H1064 H 0.26955 0.66637 1.00809 0.0
H1065 H 0.37102 0.60917 0.04172 0.0
H1066 H 0.37944 0.5999 0.08081 0.0
H1067 H 0.38928 0.63681 0.06542 0.0
H1068 H 0.35849 0.65876 0.11257 0.0
H1069 H 0.34455 0.62171 0.1238 0.0
H1070 H 0.3181 0.65173 0.11457 0.0
H1071 H 0.25449 0.61205 0.02136 0.0
H1072 H 0.24559 0.56132 0.04421 0.0
H1073 H 0.32684 0.57122 0.09924 0.0
C1074 C 0.34612 0.6851 0.04917 0.0
C1075 C 0.33339 0.70638 0.02855 0.0
C1076 C 0.30523 0.69988 0.01445 0.0
C1077 C 0.29057 0.6718 0.01973 0.0
C1078 C 0.3043 0.65077 0.03942 0.0
C1079 C 0.33102 0.65745 0.05453 0.0
C1080 C 0.34077 0.63124 0.07496 0.0
C1081 C 0.372 0.61848 0.06524 0.0
C1082 C 0.34053 0.64143 0.10846 0.0
C1083 C 0.31583 0.60833 0.06858 0.0
C1084 C 0.29521 0.61995 0.04771 0.0
C1085 C 0.27044 0.60289 0.03779 0.0
C1086 C 0.26586 0.57389 0.05054 0.0
C1087 C 0.28591 0.56204 0.07295 0.0
C1088 C 0.31168 0.57923 0.08151 0.0
H1089 H 0.5804 0.11562 0.30536 0.0
H1090 H 0.55463 0.04237 0.24457 0.0
H1091 H 0.60292 0.0151 0.25632 0.0
H1092 H 0.66204 0.11765 0.28995 0.0
H1093 H 0.67081 0.12403 0.32947 0.0
H1094 H 0.63476 0.13679 0.31428 0.0
H1095 H 0.61165 0.10795 0.35884 0.0
H1096 H 0.64376 0.08502 0.37065 0.0
H1097 H 0.61026 0.0668 0.35781 0.0
H1098 H 0.65375 0.99503 0.27673 0.0
H1099 H 0.70201 0.98402 0.30402 0.0
H1100 H 0.69856 0.07374 0.34517 0.0
C1101 C 0.58492 0.09373 0.29472 0.0
C1102 C 0.56366 0.08075 0.27447 0.0
C1103 C 0.57051 0.05237 0.26054 0.0
C1104 C 0.59801 0.03693 0.26682 0.0
C1105 C 0.61892 0.05062 0.28638 0.0
C1106 C 0.6128 0.07856 0.29981 0.0
C1107 C 0.63808 0.08732 0.32148 0.0
C1108 C 0.65222 0.11832 0.31329 0.0
C1109 C 0.62519 0.08695 0.35407 0.0
C1110 C 0.66064 0.06131 0.31642 0.0
C1111 C 0.64862 0.03977 0.29691 0.0
C1112 C 0.66372 0.01218 0.29135 0.0
C1113 C 0.69137 1.00626 0.30657 0.0
C1114 C 0.7044 0.02821 0.32624 0.0
C1115 C 0.68924 0.05653 0.33027 0.0
H1116 H 0.71111 0.19271 0.50846 0.0
H1117 H 0.65847 0.22053 0.42975 0.0
H1118 H 0.66486 0.16945 0.40749 0.0
H1119 H 0.76682 0.14676 0.46458 0.0
H1120 H 0.77049 0.11826 0.494 0.0
H1121 H 0.76144 0.15717 0.50395 0.0
H1122 H 0.71335 0.13826 0.53273 0.0
H1123 H 0.72177 0.09935 0.52212 0.0
H1124 H 0.68534 0.11604 0.51265 0.0
H1125 H 0.67062 0.11454 0.39808 0.0
H1126 H 0.6869 0.05994 0.39251 0.0
H1127 H 0.74646 0.07043 0.46998 0.0
C1128 C 0.70155 0.18824 0.4862 0.0
C1129 C 0.68328 0.21048 0.47123 0.0
C1130 C 0.67156 0.2038 0.44206 0.0
C1131 C 0.67507 0.17471 0.42927 0.0
C1132 C 0.69151 0.15279 0.44541 0.0
C1133 C 0.70573 0.15946 0.47257 0.0
C1134 C 0.72337 0.1318 0.48424 0.0
C1135 C 0.75757 0.13892 0.48683 0.0
C1136 C 0.71018 0.12072 0.51476 0.0
C1137 C 0.71706 0.1088 0.45913 0.0
C1138 C 0.69756 0.12121 0.43784 0.0
C1139 C 0.68605 0.10403 0.41404 0.0
C1140 C 0.69564 0.07355 0.41093 0.0
C1141 C 0.71871 0.06157 0.42982 0.0
C1142 C 0.7289 0.07912 0.45495 0.0
H1143 H 0.07576 0.46406 0.75404 0.0
H1144 H 0.06802 0.38353 0.69754 0.0
H1145 H 0.11826 0.39418 0.67457 0.0
H1146 H 0.1105 0.51052 0.69373 0.0
H1147 H 0.13563 0.53124 0.71863 0.0
H1148 H 0.09936 0.51768 0.73247 0.0
H1149 H 0.12488 0.48813 0.77598 0.0
H1150 H 0.16163 0.50186 0.76375 0.0
H1151 H 0.15519 0.46141 0.76771 0.0
H1152 H 0.17201 0.41005 0.66264 0.0
H1153 H 0.22049 0.43672 0.65256 0.0
H1154 H 0.19138 0.51135 0.71076 0.0
C1155 C 0.08441 0.44922 0.73626 0.0
C1156 C 0.06819 0.42278 0.72762 0.0
C1157 C 0.08024 0.40366 0.70459 0.0
C1158 C 0.10881 0.40952 0.69148 0.0
C1159 C 0.12479 0.43517 0.70111 0.0
C1160 C 0.11264 0.45534 0.72217 0.0
C1161 C 0.13415 0.48198 0.72732 0.0
C1162 C 0.11905 0.51215 0.71744 0.0
C1163 C 0.14457 0.48341 0.76068 0.0
C1164 C 0.16045 0.47325 0.70637 0.0
C1165 C 0.15477 0.44581 0.692 0.0
C1166 C 0.17636 0.43197 0.67311 0.0
C1167 C 0.20393 0.44723 0.66763 0.0
C1168 C 0.20927 0.47655 0.68 0.0
C1169 C 0.18761 0.48923 0.70044 0.0
H1170 H 0.79385 0.95771 0.96891 0.0
H1171 H 0.76005 0.92842 0.88102 0.0
H1172 H 0.77963 0.8773 0.88952 0.0
H1173 H 0.85996 0.90916 0.97499 0.0
H1174 H 0.85333 0.899 0.01424 0.0
H1175 H 0.83964 0.93499 0.99979 0.0
H1176 H 0.78495 0.92099 0.01777 0.0
H1177 H 0.79873 0.88479 0.03179 0.0
H1178 H 0.76791 0.88597 1.0047 0.0
H1179 H 0.81012 0.831 0.90413 0.0
H1180 H 0.83575 0.78818 0.93007 0.0
H1181 H 0.83447 0.84008 0.01439 0.0
C1182 C 0.79073 0.9405 0.95151 0.0
C1183 C 0.77663 0.94795 0.92351 0.0
C1184 C 0.77151 0.92424 0.90211 0.0
C1185 C 0.78278 0.89475 0.90666 0.0
C1186 C 0.79739 0.88833 0.93383 0.0
C1187 C 0.80002 0.90997 0.9566 0.0
C1188 C 0.81299 0.89539 0.98519 0.0
C1189 C 0.84329 0.91052 0.99407 0.0
C1190 C 0.78975 0.89687 0.01142 0.0
C1191 C 0.8179 0.86266 0.97434 0.0
C1192 C 0.80977 0.85951 0.94429 0.0
C1193 C 0.81552 0.83267 0.9281 0.0
C1194 C 0.82981 0.80822 0.94317 0.0
C1195 C 0.83669 0.81005 0.97458 0.0
C1196 C 0.82983 0.83763 0.99035 0.0
H1197 H 0.458 0.58578 0.19429 0.0
H1198 H 0.43848 0.57666 0.29048 0.0
H1199 H 0.3879 0.55515 0.27861 0.0
H1200 H 0.38158 0.60876 0.17282 0.0
H1201 H 0.38629 0.58961 0.13669 0.0
H1202 H 0.41905 0.60299 0.15734 0.0
H1203 H 0.43937 0.54641 0.15075 0.0
H1204 H 0.40366 0.53431 0.13462 0.0
H1205 H 0.41804 0.51601 0.16845 0.0
H1206 H 0.33625 0.54065 0.25598 0.0
H1207 H 0.2916 0.52674 0.22411 0.0
H1208 H 0.3456 0.54319 0.14297 0.0
C1209 C 0.4437 0.57783 0.21272 0.0
C1210 C 0.45261 0.58208 0.2433 0.0
C1211 C 0.43241 0.57294 0.26687 0.0
C1212 C 0.40347 0.56095 0.26036 0.0
C1213 C 0.39481 0.55806 0.23003 0.0
C1214 C 0.41457 0.56566 0.20658 0.0
C1215 C 0.39902 0.5618 0.17603 0.0
C1216 C 0.39623 0.59265 0.15969 0.0
C1217 C 0.41604 0.53821 0.15631 0.0
C1218 C 0.36786 0.55043 0.18587 0.0
C1219 C 0.36552 0.54905 0.21715 0.0
C1220 C 0.33803 0.5412 0.23142 0.0
C1221 C 0.31265 0.53368 0.2132 0.0
C1222 C 0.31507 0.5337 0.18109 0.0
C1223 C 0.34301 0.54266 0.16747 0.0
H1224 H 0.52019 0.15697 0.34509 0.0
H1225 H 0.56877 0.21258 0.27924 0.0
H1226 H 0.59589 0.23806 0.32134 0.0
H1227 H 0.50775 0.2164 0.3988 0.0
H1228 H 0.51194 0.19198 0.43159 0.0
H1229 H 0.4983 0.17646 0.39622 0.0
H1230 H 0.54173 0.13606 0.39694 0.0
H1231 H 0.55541 0.15151 0.43236 0.0
H1232 H 0.5808 0.14839 0.40015 0.0
H1233 H 0.61695 0.25763 0.3706 0.0
H1234 H 0.62899 0.27223 0.42315 0.0
H1235 H 0.56366 0.20713 0.45773 0.0
C1236 C 0.53662 0.1744 0.33916 0.0
C1237 C 0.54281 0.18223 0.30827 0.0
C1238 C 0.56434 0.20539 0.30224 0.0
C1239 C 0.57962 0.22017 0.32617 0.0
C1240 C 0.57284 0.21176 0.35612 0.0
C1241 C 0.55169 0.18955 0.36271 0.0
C1242 C 0.54744 0.18574 0.3969 0.0
C1243 C 0.5144 0.19309 0.40643 0.0
C1244 C 0.55692 0.1535 0.40718 0.0
C1245 C 0.56941 0.20959 0.40869 0.0
C1246 C 0.58391 0.22406 0.38465 0.0
C1247 C 0.60525 0.24683 0.38944 0.0
C1248 C 0.61144 0.25552 0.4194 0.0
C1249 C 0.59629 0.24206 0.44443 0.0
C1250 C 0.5754 0.21816 0.43905 0.0
H1251 H 0.04815 0.29456 0.55859 0.0
H1252 H 0.13765 0.26225 0.58615 0.0
H1253 H 0.12794 0.27773 0.63805 0.0
H1254 H 0.04164 0.35835 0.61077 0.0
H1255 H 1.00223 0.35134 0.62019 0.0
H1256 H 0.017 0.34007 0.58356 0.0
H1257 H 0.99911 0.28453 0.59345 0.0
H1258 H 0.98447 0.29568 0.63019 0.0
H1259 H 0.01176 0.2649 0.62726 0.0
H1260 H 0.1106 0.30055 0.68727 0.0
H1261 H 0.08365 0.32347 0.73101 0.0
H1262 H 1.00141 0.33032 0.67625 0.0
C1263 C 0.06576 0.29114 0.57552 0.0
C1264 C 0.09428 0.2782 0.56738 0.0
C1265 C 0.11608 0.27285 0.59069 0.0
C1266 C 0.11076 0.2816 0.62079 0.0
C1267 C 0.08278 0.29447 0.62805 0.0
C1268 C 0.06026 0.29854 0.60637 0.0
C1269 C 0.03129 0.31053 0.62125 0.0
C1270 C 0.02253 0.34194 0.60816 0.0
C1271 C 1.00511 0.28753 0.61783 0.0
C1272 C 0.04152 0.313 0.65426 0.0
C1273 C 0.07149 0.30416 0.65754 0.0
C1274 C 0.08678 0.30686 0.68527 0.0
C1275 C 0.07111 0.31949 0.71026 0.0
C1276 C 0.04016 0.32851 0.70767 0.0
C1277 C 0.02511 0.32406 0.67934 0.0
H1278 H 0.99704 0.8676 0.84474 0.0
H1279 H 0.97975 0.79007 0.78626 0.0
H1280 H 0.9585 0.76167 0.83025 0.0
H1281 H 0.01546 0.82682 0.91317 0.0
H1282 H 0.99558 0.85251 0.93848 0.0
H1283 H 0.01091 0.86646 0.90302 0.0
H1284 H 0.9579 0.88691 0.88852 0.0
H1285 H 0.94163 0.87261 0.92333 0.0
H1286 H 0.92571 0.86139 0.88723 0.0
H1287 H 0.94661 0.73968 0.88224 0.0
H1288 H 0.9331 0.72901 0.93543 0.0
H1289 H 0.94453 0.82423 0.95813 0.0
C1290 C 0.98817 0.8449 0.84117 0.0
C1291 C 0.98978 0.83101 0.81206 0.0
C1292 C 0.97867 0.80103 0.80833 0.0
C1293 C 0.96667 0.78477 0.83322 0.0
C1294 C 0.96525 0.79911 0.8616 0.0
C1295 C 0.97491 0.82881 0.86559 0.0
C1296 C 0.9693 0.83926 0.89826 0.0
C1297 C 0.99961 0.8467 0.91417 0.0
C1298 C 0.94728 0.86665 0.89937 0.0
C1299 C 0.95484 0.81082 0.91189 0.0
C1300 C 0.95388 0.78766 0.89056 0.0
C1301 C 0.94568 0.75809 0.89865 0.0
C1302 C 0.93741 0.75227 0.92897 0.0
C1303 C 0.93521 0.77604 0.95073 0.0
C1304 C 0.94453 0.80575 0.94194 0.0
H1305 H 0.46996 0.64487 0.17497 0.0
H1306 H 0.47621 0.72827 0.22752 0.0
H1307 H 0.46266 0.75818 0.18161 0.0
H1308 H 0.50914 0.68258 0.10865 0.0
H1309 H 0.48978 0.65895 0.08129 0.0
H1310 H 0.4985 0.64425 0.11856 0.0
H1311 H 0.44307 0.6307 0.12413 0.0
H1312 H 0.43257 0.64756 0.08883 0.0
H1313 H 0.41348 0.65978 0.12342 0.0
H1314 H 0.45661 0.77901 0.12912 0.0
H1315 H 0.44426 0.79025 0.07632 0.0
H1316 H 0.43923 0.69311 0.05622 0.0
C1317 C 0.46857 0.66943 0.17672 0.0
C1318 C 0.47405 0.68432 0.20484 0.0
C1319 C 0.47118 0.71639 0.20653 0.0
C1320 C 0.46422 0.73355 0.18038 0.0
C1321 C 0.46087 0.71826 0.15267 0.0
C1322 C 0.46278 0.68692 0.1506 0.0
C1323 C 0.46016 0.67656 0.1176 0.0
C1324 C 0.49122 0.66489 0.10585 0.0
C1325 C 0.43557 0.6523 0.11338 0.0
C1326 C 0.45216 0.70645 0.10207 0.0
C1327 C 0.45509 0.73031 0.12249 0.0
C1328 C 0.45319 0.76047 0.11322 0.0
C1329 C 0.44626 0.76647 0.08282 0.0
C1330 C 0.43927 0.74252 0.06197 0.0
C1331 C 0.44351 0.71194 0.07156 0.0
H1332 H 0.16154 0.34117 0.2836 0.0
H1333 H 0.17787 0.40405 0.35777 0.0
H1334 H 0.20475 0.43894 0.32218 0.0
H1335 H 0.23623 0.35698 0.24364 0.0
H1336 H 0.21911 0.35214 0.20672 0.0
H1337 H 0.20503 0.33074 0.23888 0.0
H1338 H 0.15061 0.35187 0.22894 0.0
H1339 H 0.16454 0.3735 0.19704 0.0
H1340 H 0.14454 0.39263 0.22753 0.0
H1341 H 0.22716 0.46857 0.27674 0.0
H1342 H 0.24254 0.48959 0.22654 0.0
H1343 H 0.20775 0.40862 0.18224 0.0
C1344 C 0.17145 0.36196 0.29245 0.0
C1345 C 0.16784 0.36985 0.32348 0.0
C1346 C 0.18085 0.39735 0.33421 0.0
C1347 C 0.196 0.41735 0.3141 0.0
C1348 C 0.19838 0.40928 0.28339 0.0
C1349 C 0.18684 0.38195 0.27276 0.0
C1350 C 0.19139 0.37896 0.23865 0.0
C1351 C 0.21428 0.35317 0.23155 0.0
C1352 C 0.16094 0.37397 0.22209 0.0
C1353 C 0.20504 0.40983 0.23124 0.0
C1354 C 0.20997 0.42661 0.25743 0.0
C1355 C 0.22335 0.4555 0.25621 0.0
C1356 C 0.23189 0.46733 0.22762 0.0
C1357 C 0.22584 0.45098 0.20052 0.0
C1358 C 0.21238 0.42181 0.20249 0.0
H1359 H 0.91293 0.89901 0.54116 0.0
H1360 H 0.89737 0.97152 0.60659 0.0
H1361 H 0.85843 0.99423 0.5725 0.0
H1362 H 0.90708 0.94274 0.47456 0.0
H1363 H 0.88699 0.91429 0.45284 0.0
H1364 H 0.91193 0.90275 0.48326 0.0
H1365 H 0.86787 0.8733 0.50916 0.0
H1366 H 0.84322 0.88424 0.47836 0.0
H1367 H 0.83251 0.89281 0.51719 0.0
H1368 H 0.82582 0.01208 0.52871 0.0
H1369 H 0.79842 0.02164 0.48062 0.0
H1370 H 0.83294 0.93613 0.44421 0.0
C1371 C 0.90102 0.91948 0.54845 0.0
C1372 C 0.90818 0.93358 0.57652 0.0
C1373 C 0.89202 0.96021 0.58535 0.0
C1374 C 0.87 0.97332 0.56605 0.0
C1375 C 0.86399 0.95921 0.53822 0.0
C1376 C 0.87872 0.93263 0.52964 0.0
C1377 C 0.86828 0.92215 0.49845 0.0
C1378 C 0.89518 0.9204 0.47596 0.0
C1379 C 0.85194 0.8913 0.50093 0.0
C1380 C 0.84623 0.94768 0.49016 0.0
C1381 C 0.84409 0.96878 0.51352 0.0
C1382 C 0.82689 0.99544 0.51053 0.0
C1383 C 0.81154 1.00076 0.48303 0.0
C1384 C 0.81328 0.97952 0.45877 0.0
C1385 C 0.83067 0.95247 0.46258 0.0
H1386 H 0.32478 0.59814 0.69772 0.0
H1387 H 0.2549 0.53621 0.72998 0.0
H1388 H 0.26317 0.55403 0.78267 0.0
H1389 H 0.37739 0.5958 0.76239 0.0
H1390 H 0.38442 0.63596 0.75927 0.0
H1391 H 0.37327 0.61474 0.72607 0.0
H1392 H 0.3294 0.65565 0.72063 0.0
H1393 H 0.33993 0.67339 0.75612 0.0
H1394 H 0.30171 0.65937 0.75081 0.0
H1395 H 0.27958 0.57729 0.83187 0.0
H1396 H 0.30607 0.60145 0.87508 0.0
H1397 H 0.36465 0.65014 0.81228 0.0
C1398 C 0.31146 0.58829 0.71602 0.0
C1399 C 0.28934 0.56559 0.70989 0.0
C1400 C 0.27187 0.55362 0.73422 0.0
C1401 C 0.27641 0.56364 0.76421 0.0
C1402 C 0.29797 0.58635 0.76956 0.0
C1403 C 0.31526 0.5986 0.74622 0.0
C1404 C 0.33607 0.62359 0.75836 0.0
C1405 C 0.36976 0.61707 0.75101 0.0
C1406 C 0.3262 0.65485 0.74573 0.0
C1407 C 0.32966 0.62156 0.79242 0.0
C1408 C 0.30683 0.60059 0.79811 0.0
C1409 C 0.29723 0.59399 0.82766 0.0
C1410 C 0.31219 0.60808 0.8521 0.0
C1411 C 0.3368 0.62832 0.84711 0.0
C1412 C 0.34519 0.63564 0.81677 0.0
H1413 H 0.62368 0.14289 0.03873 0.0
H1414 H 0.63384 0.06849 0.10319 0.0
H1415 H 0.66063 0.03797 0.06385 0.0
H1416 H 0.61132 0.09399 0.9715 0.0
H1417 H 0.63177 0.11939 0.9465 0.0
H1418 H 0.61183 0.13442 0.97919 0.0
H1419 H 0.66182 0.15967 0.99727 0.0
H1420 H 0.68243 0.14404 0.96531 0.0
H1421 H 0.69521 0.13638 1.00355 0.0
H1422 H 0.68932 0.01728 0.01908 0.0
H1423 H 0.71388 1.00514 0.97006 0.0
H1424 H 0.68468 0.09257 0.93361 0.0
C1425 C 0.63127 0.12002 0.04442 0.0
C1426 C 0.62681 0.10801 0.07404 0.0
C1427 C 0.63681 0.07797 0.0806 0.0
C1428 C 0.65222 0.0606 0.05848 0.0
C1429 C 0.65704 0.07349 0.02981 0.0
C1430 C 0.64639 0.10228 0.02252 0.0
C1431 C 0.65459 0.11073 0.98998 0.0
C1432 C 0.62566 0.11488 0.97065 0.0
C1433 C 0.67472 0.13941 0.98898 0.0
C1434 C 0.67228 0.08253 0.98032 0.0
C1435 C 0.67331 0.06135 1.00371 0.0
C1436 C 0.6884 0.03355 1.00055 0.0
C1437 C 0.70227 0.02689 0.9726 0.0
C1438 C 0.70113 0.04793 0.94808 0.0
C1439 C 0.68609 0.07623 0.95207 0.0
H1440 H 0.63044 0.11703 0.7008 0.0
H1441 H 0.69771 0.18838 0.68783 0.0
H1442 H 0.72972 0.16488 0.72803 0.0
H1443 H 0.63366 0.1137 0.78085 0.0
H1444 H 0.62909 0.07286 0.78243 0.0
H1445 H 0.61332 0.09409 0.75111 0.0
H1446 H 0.64273 0.05942 0.7139 0.0
H1447 H 0.66099 0.03886 0.74434 0.0
H1448 H 0.68382 0.05716 0.71584 0.0
H1449 H 0.75341 0.13338 0.77234 0.0
H1450 H 0.76558 0.09822 0.81485 0.0
H1451 H 0.68004 0.05144 0.80011 0.0
C1452 C 0.65171 0.12812 0.70647 0.0
C1453 C 0.66116 0.15493 0.69119 0.0
C1454 C 0.68985 0.16776 0.69889 0.0
C1455 C 0.70814 0.15467 0.72192 0.0
C1456 C 0.69746 0.12877 0.73713 0.0
C1457 C 0.66986 0.11576 0.72955 0.0
C1458 C 0.66303 0.08828 0.74918 0.0
C1459 C 0.633 0.09251 0.76694 0.0
C1460 C 0.66257 0.05923 0.72961 0.0
C1461 C 0.69035 0.08848 0.77013 0.0
C1462 C 0.71043 0.11149 0.76249 0.0
C1463 C 0.73767 0.11539 0.77843 0.0
C1464 C 0.74437 0.09529 0.80262 0.0
C1465 C 0.72371 0.07187 0.81114 0.0
C1466 C 0.69634 0.06881 0.79456 0.0
H1467 H 0.21821 0.43162 0.04871 0.0
H1468 H 0.17315 0.5186 0.06311 0.0
H1469 H 0.14013 0.5087 0.01876 0.0
H1470 H 0.22078 0.44009 0.96657 0.0
H1471 H 0.21833 0.39924 0.96175 0.0
H1472 H 0.23478 0.41509 0.99569 0.0
H1473 H 0.19565 0.38137 0.0262 0.0
H1474 H 0.17782 0.36892 0.99148 0.0
H1475 H 0.15543 0.38784 0.02039 0.0
H1476 H 0.11321 0.48964 0.97069 0.0
H1477 H 0.0994 0.46622 0.92114 0.0
H1478 H 0.16575 0.39431 0.9364 0.0
C1479 C 0.20143 0.44851 0.0429 0.0
C1480 C 0.19838 0.47572 0.05986 0.0
C1481 C 0.17592 0.49734 0.05083 0.0
C1482 C 0.15696 0.49191 0.02562 0.0
C1483 C 0.16096 0.46491 1.00921 0.0
C1484 C 0.18305 0.44385 0.01728 0.0
C1485 C 0.18519 0.41827 0.99417 0.0
C1486 C 0.21662 0.41812 0.97857 0.0
C1487 C 0.1781 0.38726 1.00895 0.0
C1488 C 0.16058 0.42784 0.97203 0.0
C1489 C 0.14657 0.45468 0.98116 0.0
C1490 C 0.124 0.46858 0.96346 0.0
C1491 C 0.11624 0.45513 0.93543 0.0
C1492 C 0.13148 0.4285 0.92514 0.0
C1493 C 0.15357 0.41454 0.94393 0.0
H1494 H 0.76523 0.94379 0.29368 0.0
H1495 H 0.85155 0.95009 0.34137 0.0
H1496 H 0.8772 0.92316 0.29907 0.0
H1497 H 0.77692 0.86798 0.26496 0.0
H1498 H 0.75868 0.87521 0.22892 0.0
H1499 H 0.74746 0.89671 0.26205 0.0
H1500 H 0.75865 0.94698 0.23313 0.0
H1501 H 0.77041 0.92562 0.20001 0.0
H1502 H 0.79594 0.95298 0.21683 0.0
H1503 H 0.89378 0.89554 0.25197 0.0
H1504 H 0.89895 0.86253 0.20659 0.0
H1505 H 0.80193 0.87091 0.18982 0.0
C1506 C 0.78953 0.93945 0.2952 0.0
C1507 C 0.80652 0.9497 0.32064 0.0
C1508 C 0.83818 0.94314 0.32188 0.0
C1509 C 0.85297 0.92789 0.2979 0.0
C1510 C 0.8358 0.91885 0.27283 0.0
C1511 C 0.80469 0.92392 0.27146 0.0
C1512 C 0.79144 0.91027 0.24253 0.0
C1513 C 0.7672 0.8861 0.25008 0.0
C1514 C 0.77833 0.93546 0.22191 0.0
C1515 C 0.81981 0.89593 0.22837 0.0
C1516 C 0.84525 0.90191 0.24593 0.0
C1517 C 0.87407 0.89086 0.23797 0.0
C1518 C 0.87687 0.87236 0.21201 0.0
C1519 C 0.85103 0.86476 0.1944 0.0
C1520 C 0.82217 0.87707 0.20246 0.0
H1521 H 0.31868 0.59367 0.56428 0.0
H1522 H 0.33131 0.49562 0.55443 0.0
H1523 H 0.3592 0.5038 0.50685 0.0
H1524 H 0.30284 0.60648 0.48327 0.0
H1525 H 0.32111 0.6432 0.48352 0.0
H1526 H 0.30399 0.62865 0.51789 0.0
H1527 H 0.35666 0.63673 0.54444 0.0
H1528 H 0.37353 0.6492 0.50911 0.0
H1529 H 0.38993 0.61746 0.52956 0.0
H1530 H 0.38467 0.52136 0.45958 0.0
H1531 H 0.40061 0.5473 0.41213 0.0
H1532 H 0.36736 0.63346 0.44788 0.0
C1533 C 0.32682 0.57389 0.5519 0.0
C1534 C 0.32222 0.54393 0.56334 0.0
C1535 C 0.33438 0.51887 0.54662 0.0
C1536 C 0.35036 0.52322 0.51936 0.0
C1537 C 0.35394 0.55279 0.50848 0.0
C1538 C 0.3421 0.57773 0.52383 0.0
C1539 C 0.34745 0.60684 0.50563 0.0
C1540 C 0.31702 0.62219 0.49711 0.0
C1541 C 0.36813 0.62886 0.52324 0.0
C1542 C 0.36362 0.59414 0.47758 0.0
C1543 C 0.36773 0.56295 0.4802 0.0
C1544 C 0.38165 0.54579 0.45725 0.0
C1545 C 0.39078 0.56068 0.43046 0.0
C1546 C 0.38553 0.59229 0.42657 0.0
C1547 C 0.37209 0.60932 0.45058 0.0
H1548 H 0.21768 0.18038 0.46746 0.0
H1549 H 0.20096 0.26354 0.41685 0.0
H1550 H 0.24564 0.25202 0.3841 0.0
H1551 H 0.3003 0.19029 0.46719 0.0
H1552 H 0.30526 0.14939 0.46844 0.0
H1553 H 0.2716 0.16689 0.48426 0.0
H1554 H 0.24036 0.12921 0.44894 0.0
H1555 H 0.2751 0.11536 0.43177 0.0
H1556 H 0.24562 0.13191 0.40834 0.0
H1557 H 0.29558 0.23183 0.35873 0.0
H1558 H 0.34588 0.20788 0.34723 0.0
H1559 H 0.32851 0.13905 0.41589 0.0
C1560 C 0.22289 0.196 0.44937 0.0
C1561 C 0.20528 0.22262 0.44472 0.0
C1562 C 0.21381 0.24276 0.42085 0.0
C1563 C 0.23919 0.23638 0.40205 0.0
C1564 C 0.2562 0.20991 0.40758 0.0
C1565 C 0.24846 0.19035 0.43103 0.0
C1566 C 0.27188 0.16518 0.43466 0.0
C1567 C 0.28827 0.16805 0.46545 0.0
C1568 C 0.25737 0.13354 0.43068 0.0
C1569 C 0.29342 0.17267 0.40889 0.0
C1570 C 0.28439 0.19871 0.39353 0.0
C1571 C 0.30258 0.21125 0.37051 0.0
C1572 C 0.33104 0.19742 0.36395 0.0
C1573 C 0.3411 0.17154 0.38059 0.0
C1574 C 0.32142 0.15867 0.40259 0.0
H1575 H 0.07527 0.09926 0.67858 0.0
H1576 H 0.11477 0.07176 0.5922 0.0
H1577 H 0.09544 0.01919 0.60045 0.0
H1578 H 0.09923 0.03712 0.71741 0.0
H1579 H 0.06635 0.03354 0.74221 0.0
H1580 H 0.07667 0.07014 0.727 0.0
H1581 H 0.02375 0.07717 0.70299 0.0
H1582 H 0.01213 0.04119 0.71912 0.0
H1583 H 1.00843 0.04778 0.67878 0.0
H1584 H 0.07467 0.96765 0.62133 0.0
H1585 H 0.05727 0.92379 0.65267 0.0
H1586 H 0.03723 0.98567 0.72714 0.0
C1587 C 0.07966 0.08238 0.6611 0.0
C1588 C 0.09687 0.08981 0.63483 0.0
C1589 C 0.10149 0.0669 0.61243 0.0
C1590 C 0.09068 0.03687 0.61702 0.0
C1591 C 0.07519 0.03009 0.64407 0.0
C1592 C 0.06955 0.05246 0.66554 0.0
C1593 C 0.05531 0.0393 0.69406 0.0
C1594 C 0.07562 0.04533 0.72185 0.0
C1595 C 0.02297 0.05212 0.69901 0.0
C1596 C 0.05451 1.00574 0.68586 0.0
C1597 C 0.06526 1.0008 0.65664 0.0
C1598 C 0.06623 0.97141 0.64419 0.0
C1599 C 0.05623 0.94661 0.66211 0.0
C1600 C 0.04601 0.95122 0.69237 0.0
C1601 C 0.04507 0.98129 0.70414 0.0
H1602 H 0.18379 0.78973 0.87921 0.0
H1603 H 0.1873 0.88882 0.87789 0.0
H1604 H 0.2405 0.88667 0.89629 0.0
H1605 H 0.22264 0.77947 0.94803 0.0
H1606 H 0.24289 0.74553 0.93626 0.0
H1607 H 0.20664 0.7548 0.91939 0.0
H1608 H 0.23132 0.75307 0.86566 0.0
H1609 H 0.2677 0.74378 0.88247 0.0
H1610 H 0.26416 0.77643 0.85772 0.0
H1611 H 0.29323 0.87349 0.91651 0.0
H1612 H 0.33895 0.85109 0.94051 0.0
H1613 H 0.29894 0.7609 0.93396 0.0
C1614 C 0.19562 0.81108 0.88271 0.0
C1615 C 0.181 0.83949 0.87699 0.0
C1616 C 0.19785 0.86673 0.88151 0.0
C1617 C 0.22814 0.86574 0.89214 0.0
C1618 C 0.24147 0.83734 0.89812 0.0
C1619 C 0.22571 0.81052 0.89356 0.0
C1620 C 0.24459 0.78302 0.90326 0.0
C1621 C 0.22821 0.76464 0.92823 0.0
C1622 C 0.2524 0.76288 0.87564 0.0
C1623 C 0.27292 0.79859 0.91537 0.0
C1624 C 0.27102 0.82987 0.91134 0.0
C1625 C 0.29469 0.84907 0.92007 0.0
C1626 C 0.32051 0.83611 0.93394 0.0
C1627 C 0.32214 0.80436 0.94024 0.0
C1628 C 0.29829 0.7853 0.92993 0.0
H1629 H 0.45557 0.03677 0.22363 0.0
H1630 H 0.48331 0.09425 0.14804 0.0
H1631 H 0.46801 0.05367 0.11202 0.0
H1632 H 0.47843 0.96311 0.18903 0.0
H1633 H 0.44615 0.94352 0.20528 0.0
H1634 H 0.46265 0.97559 0.22488 0.0
H1635 H 0.41056 1.00079 0.22624 0.0
H1636 H 0.39269 0.97062 0.20543 0.0
H1637 H 0.39009 0.00942 0.19168 0.0
H1638 H 0.44643 1.00725 0.08403 0.0
H1639 H 0.41709 0.96193 0.0672 0.0
H1640 H 0.40206 0.93658 0.16132 0.0
C1641 C 0.45874 0.04086 0.19954 0.0
C1642 C 0.47054 0.0689 0.18872 0.0
C1643 C 0.47421 0.07308 0.15693 0.0
C1644 C 0.46574 0.05006 0.13629 0.0
C1645 C 0.45375 0.02287 0.14774 0.0
C1646 C 0.45029 0.01825 0.17868 0.0
C1647 C 0.43501 0.98796 0.18521 0.0
C1648 C 0.45687 0.96626 0.20209 0.0
C1649 C 0.40521 0.9925 0.20311 0.0
C1650 C 0.42897 0.9769 0.15321 0.0
C1651 C 0.44071 0.99684 0.13181 0.0
C1652 C 0.43726 0.99151 0.10066 0.0
C1653 C 0.42065 0.96571 0.09129 0.0
C1654 C 0.40717 0.94598 0.113 0.0
C1655 C 0.41202 0.95141 0.14428 0.0
H1656 H 0.78984 0.3971 0.64345 0.0
H1657 H 0.84363 0.31673 0.66633 0.0
H1658 H 0.81009 0.28553 0.63374 0.0
H1659 H 0.71756 0.35828 0.64927 0.0
H1660 H 0.70067 0.38115 0.61959 0.0
H1661 H 0.73036 0.39688 0.64304 0.0
H1662 H 0.76467 0.40862 0.59525 0.0
H1663 H 0.73256 0.39611 0.57387 0.0
H1664 H 0.76965 0.37895 0.56721 0.0
H1665 H 0.76845 0.26294 0.5997 0.0
H1666 H 0.72372 0.251 0.56801 0.0
H1667 H 0.6953 0.34601 0.57178 0.0
C1668 C 0.79459 0.37288 0.64236 0.0
C1669 C 0.81961 0.3597 0.65795 0.0
C1670 C 0.82509 0.32787 0.65444 0.0
C1671 C 0.80588 0.30978 0.63616 0.0
C1672 C 0.78099 0.3237 0.62191 0.0
C1673 C 0.77523 0.35446 0.62524 0.0
C1674 C 0.74651 0.36407 0.60886 0.0
C1675 C 0.72235 0.37578 0.63156 0.0
C1676 C 0.75386 0.3883 0.58477 0.0
C1677 C 0.73704 0.33399 0.59482 0.0
C1678 C 0.75716 0.31089 0.60278 0.0
C1679 C 0.75268 0.2809 0.5933 0.0
C1680 C 0.72706 0.27436 0.57533 0.0
C1681 C 0.70603 0.29763 0.56694 0.0
C1682 C 0.71121 0.32783 0.57702 0.0
H1683 H 0.94369 0.4423 0.8434 0.0
H1684 H 0.01011 0.48244 0.78241 0.0
H1685 H 0.99644 0.53409 0.80152 0.0
H1686 H 0.88647 0.4988 0.83888 0.0
H1687 H 0.87663 0.49785 0.87875 0.0
H1688 H 0.8924 0.46441 0.86073 0.0
H1689 H 0.93559 0.46265 0.9009 0.0
H1690 H 0.92004 0.49623 0.91906 0.0
H1691 H 0.95921 0.49577 0.90646 0.0
H1692 H 0.974 0.58191 0.82703 0.0
H1693 H 0.94375 0.62105 0.85491 0.0
H1694 H 0.893 0.54931 0.89996 0.0
C1695 C 0.95545 0.46202 0.83431 0.0
C1696 C 0.978 0.45857 0.81153 0.0
C1697 C 0.99301 0.48475 0.80012 0.0
C1698 C 0.98533 0.51411 0.81082 0.0
C1699 C 0.96309 0.51685 0.8335 0.0
C1700 C 0.94856 0.49142 0.84527 0.0
C1701 C 0.92572 0.50047 0.86968 0.0
C1702 C 0.89339 0.48975 0.8615 0.0
C1703 C 0.93573 0.48803 0.90087 0.0
C1704 C 0.92832 0.53501 0.86867 0.0
C1705 C 0.95046 0.54407 0.84814 0.0
C1706 C 0.95677 0.57497 0.84329 0.0
C1707 C 0.93964 0.59708 0.85936 0.0
C1708 C 0.91615 0.58824 0.87969 0.0
C1709 C 0.91087 0.55674 0.88461 0.0
H1710 H 0.80491 0.68607 0.04851 0.0
H1711 H 0.82572 0.76544 0.1025 0.0
H1712 H 0.78361 0.75255 0.13791 0.0
H1713 H 0.72259 0.69258 0.0555 0.0
H1714 H 0.71772 0.65171 0.05571 0.0
H1715 H 0.7496 0.6685 0.03599 0.0
H1716 H 0.78699 0.63421 0.06884 0.0
H1717 H 0.75409 0.61798 0.08708 0.0
H1718 H 0.78368 0.63541 0.10953 0.0
H1719 H 0.73825 0.72864 0.16832 0.0
H1720 H 0.69661 0.69685 0.18981 0.0
H1721 H 0.70443 0.63559 0.11265 0.0
C1722 C 0.80099 0.70068 0.06775 0.0
C1723 C 0.82011 0.72596 0.07355 0.0
C1724 C 0.81301 0.74484 0.09878 0.0
C1725 C 0.78855 0.73799 0.1186 0.0
C1726 C 0.77068 0.71237 0.11253 0.0
C1727 C 0.77658 0.69419 0.08748 0.0
C1728 C 0.75415 0.66803 0.08558 0.0
C1729 C 0.73487 0.67032 0.05647 0.0
C1730 C 0.77069 0.63707 0.08788 0.0
C1731 C 0.7349 0.6739 0.1136 0.0
C1732 C 0.74453 0.69961 0.12897 0.0
C1733 C 0.73054 0.70859 0.15622 0.0
C1734 C 0.70673 0.69046 0.16822 0.0
C1735 C 0.69722 0.66347 0.15314 0.0
C1736 C 0.71125 0.65578 0.12509 0.0
H1737 H 0.546 0.43066 0.37151 0.0
H1738 H 0.64222 0.44444 0.39018 0.0
H1739 H 0.637 0.49856 0.37497 0.0
H1740 H 0.54393 0.47366 0.30428 0.0
H1741 H 0.50616 0.48884 0.3107 0.0
H1742 H 0.51673 0.4525 0.32672 0.0
H1743 H 0.50206 0.47216 0.38059 0.0
H1744 H 0.49148 0.50862 0.36461 0.0
H1745 H 0.5192 0.50666 0.3948 0.0
H1746 H 0.62175 0.55066 0.35432 0.0
H1747 H 0.59838 0.59524 0.32852 0.0
H1748 H 0.51329 0.54587 0.32016 0.0
C1749 C 0.56605 0.44497 0.37253 0.0
C1750 C 0.59458 0.43304 0.38203 0.0
C1751 C 0.62001 0.45294 0.38344 0.0
C1752 C 0.6173 0.48375 0.37468 0.0
C1753 C 0.589 0.49441 0.36464 0.0
C1754 C 0.56382 0.47557 0.36361 0.0
C1755 C 0.53643 0.49194 0.35021 0.0
C1756 C 0.52517 0.47577 0.32126 0.0
C1757 C 0.51077 0.49502 0.37397 0.0
C1758 C 0.5503 0.52269 0.34293 0.0
C1759 C 0.5805 0.52389 0.35192 0.0
C1760 C 0.59814 0.5499 0.3472 0.0
C1761 C 0.58475 0.57502 0.33239 0.0
C1762 C 0.55427 0.57372 0.32183 0.0
C1763 C 0.53668 0.54746 0.32789 0.0
H1764 H 0.41384 0.35069 0.21898 0.0
H1765 H 0.36927 0.32902 0.13351 0.0
H1766 H 0.38207 0.27461 0.14091 0.0
H1767 H 0.47642 0.29958 0.20895 0.0
H1768 H 0.47894 0.28937 0.24861 0.0
H1769 H 0.46421 0.32627 0.2378 0.0
H1770 H 0.4144 0.31564 0.26805 0.0
H1771 H 0.42903 0.27871 0.27898 0.0
H1772 H 0.39278 0.28169 0.25987 0.0
H1773 H 0.40326 0.22283 0.1557 0.0
H1774 H 0.43014 0.17805 0.17722 0.0
H1775 H 0.46115 0.23311 0.25292 0.0
C1776 C 0.40673 0.33463 0.20171 0.0
C1777 C 0.39044 0.34452 0.17561 0.0
C1778 C 0.3813 0.32231 0.15395 0.0
C1779 C 0.38866 0.29125 0.15785 0.0
C1780 C 0.40516 0.28252 0.18357 0.0
C1781 C 0.41398 0.30356 0.20518 0.0
C1782 C 0.4325 0.28845 0.23022 0.0
C1783 C 0.46493 0.30171 0.23146 0.0
C1784 C 0.4162 0.2913 0.26111 0.0
C1785 C 0.43295 0.25562 0.21927 0.0
C1786 C 0.41703 0.25269 0.19228 0.0
C1787 C 0.41546 0.22486 0.17698 0.0
C1788 C 0.43076 0.19954 0.1894 0.0
C1789 C 0.44744 0.20209 0.21688 0.0
C1790 C 0.4481 0.23042 0.2322 0.0
H1791 H 0.92122 0.33227 0.82486 0.0
H1792 H 0.9779 0.2841 0.75961 0.0
H1793 H 0.95405 0.23513 0.77485 0.0
H1794 H 0.91711 0.2764 0.88477 0.0
H1795 H 0.87745 0.28369 0.89199 0.0
H1796 H 0.9009 0.31345 0.87632 0.0
H1797 H 0.86158 0.31797 0.83211 0.0
H1798 H 0.8398 0.28674 0.84758 0.0
H1799 H 0.85374 0.28492 0.809 0.0
H1800 H 0.92482 0.19108 0.79861 0.0
H1801 H 0.89307 0.15574 0.82915 0.0
H1802 H 0.85338 0.23304 0.87682 0.0
C1803 C 0.92851 0.31133 0.81386 0.0
C1804 C 0.95145 0.31173 0.79119 0.0
C1805 C 0.96023 0.28412 0.77692 0.0
C1806 C 0.94687 0.25626 0.7855 0.0
C1807 C 0.92416 0.25654 0.80783 0.0
C1808 C 0.9148 0.28343 0.82161 0.0
C1809 C 0.88885 0.27761 0.84382 0.0
C1810 C 0.89662 0.28847 0.87611 0.0
C1811 C 0.85924 0.29271 0.83244 0.0
C1812 C 0.88673 0.24308 0.84214 0.0
C1813 C 0.90678 0.23139 0.82076 0.0
C1814 C 0.90897 0.20004 0.81533 0.0
C1815 C 0.89073 0.18012 0.83268 0.0
C1816 C 0.87084 0.19155 0.8555 0.0
C1817 C 0.86856 0.22354 0.85976 0.0
H1818 H 0.06866 0.60215 0.07004 0.0
H1819 H 0.06303 0.62575 0.16573 0.0
H1820 H 0.02158 0.66218 0.15471 0.0
H1821 H 0.05133 0.68256 0.04157 0.0
H1822 H 0.02953 0.66871 0.00974 0.0
H1823 H 0.06101 0.64646 0.02423 0.0
H1824 H 0.02484 0.60039 0.03109 0.0
H1825 H 0.99314 0.62273 0.01731 0.0
H1826 H 0.99094 0.60462 0.05409 0.0
H1827 H 0.97381 0.68562 0.13612 0.0
H1828 H 0.93115 0.70916 0.10832 0.0
H1829 H 0.97135 0.67995 0.02275 0.0
C1830 C 0.05955 0.61603 0.08835 0.0
C1831 C 0.0692 0.61129 0.11884 0.0
C1832 C 0.05616 0.62924 0.14231 0.0
C1833 C 0.03241 0.64978 0.13629 0.0
C1834 C 0.02223 0.65278 0.10648 0.0
C1835 C 0.03603 0.63747 0.08257 0.0
C1836 C 0.01999 0.64528 0.05273 0.0
C1837 C 0.04177 0.66174 0.03077 0.0
C1838 C 1.00644 0.61654 0.03794 0.0
C1839 C 0.99483 0.66666 0.06397 0.0
C1840 C 0.99624 0.66985 0.09517 0.0
C1841 C 0.97341 0.68485 0.11151 0.0
C1842 C 0.94935 0.69842 0.09546 0.0
C1843 C 0.94904 0.69868 0.06325 0.0
C1844 C 0.97164 0.68155 0.04734 0.0
H1845 H 0.63477 0.81824 0.36927 0.0
H1846 H 0.62657 0.86973 0.28548 0.0
H1847 H 0.60723 0.82392 0.25924 0.0
H1848 H 0.65539 0.74227 0.33062 0.0
H1849 H 0.63396 0.72073 0.35827 0.0
H1850 H 0.65233 0.7558 0.36927 0.0
H1851 H 0.60081 0.77736 0.38873 0.0
H1852 H 0.58329 0.742 0.3783 0.0
H1853 H 0.56844 0.77775 0.36353 0.0
H1854 H 0.58391 0.77512 0.24326 0.0
H1855 H 0.5588 0.7253 0.2377 0.0
H1856 H 0.57974 0.70394 0.33192 0.0
C1857 C 0.62996 0.81938 0.34514 0.0
C1858 C 0.63253 0.8474 0.32919 0.0
C1859 C 0.62511 0.8484 0.2979 0.0
C1860 C 0.61408 0.8225 0.28285 0.0
C1861 C 0.61068 0.79551 0.29931 0.0
C1862 C 0.6189 0.79347 0.32961 0.0
C1863 C 0.61083 0.76212 0.34227 0.0
C1864 C 0.63987 0.74418 0.35059 0.0
C1865 C 0.58948 0.765 0.36982 0.0
C1866 C 0.59495 0.74776 0.31495 0.0
C1867 C 0.59603 0.76726 0.29024 0.0
C1868 C 0.58314 0.75952 0.26235 0.0
C1869 C 0.56888 0.73108 0.25942 0.0
C1870 C 0.56707 0.71062 0.28432 0.0
C1871 C 0.58042 0.71916 0.31251 0.0
H1872 H 0.56936 0.32555 0.58961 0.0
H1873 H 0.54922 0.31814 0.49307 0.0
H1874 H 0.50009 0.34347 0.50118 0.0
H1875 H 0.49048 0.31019 0.61567 0.0
H1876 H 0.49315 0.33667 0.64682 0.0
H1877 H 0.52708 0.31793 0.6329 0.0
H1878 H 0.55118 0.37171 0.62549 0.0
H1879 H 0.5163 0.38982 0.63795 0.0
H1880 H 0.53231 0.39912 0.60128 0.0
H1881 H 0.45312 0.36883 0.51812 0.0
H1882 H 0.40745 0.38836 0.54477 0.0
H1883 H 0.45374 0.3785 0.63131 0.0
C1884 C 0.55439 0.32887 0.57033 0.0
C1885 C 0.56352 0.31964 0.54062 0.0
C1886 C 0.54326 0.32507 0.516 0.0
C1887 C 0.51509 0.33951 0.52032 0.0
C1888 C 0.50687 0.34846 0.54954 0.0
C1889 C 0.5255 0.34303 0.57432 0.0
C1890 C 0.50999 0.35447 0.60336 0.0
C1891 C 0.50491 0.32822 0.62602 0.0
C1892 C 0.52856 0.38032 0.61788 0.0
C1893 C 0.47969 0.36639 0.59088 0.0
C1894 C 0.47888 0.3631 0.55963 0.0
C1895 C 0.45345 0.37162 0.54258 0.0
C1896 C 0.42766 0.38286 0.55786 0.0
C1897 C 0.42719 0.38538 0.58993 0.0
C1898 C 0.45376 0.37746 0.60668 0.0
H1899 H 0.16004 0.69645 0.71619 0.0
H1900 H 0.16086 0.70561 0.61803 0.0
H1901 H 0.12277 0.74753 0.62179 0.0
H1902 H 0.07632 0.71491 0.72618 0.0
H1903 H 0.08348 0.7345 0.7615 0.0
H1904 H 0.10734 0.70278 0.75028 0.0
H1905 H 0.15496 0.73731 0.75571 0.0
H1906 H 0.13121 0.76925 0.76618 0.0
H1907 H 0.15698 0.77239 0.73429 0.0
H1908 H 0.09248 0.7946 0.6374 0.0
H1909 H 0.06544 0.83724 0.66249 0.0
H1910 H 0.08025 0.79472 0.75039 0.0
C1911 C 0.15142 0.70667 0.69545 0.0
C1912 C 0.16328 0.69776 0.66679 0.0
C1913 C 0.15179 0.71184 0.64014 0.0
C1914 C 0.13033 0.7358 0.64212 0.0
C1915 C 0.12014 0.74497 0.67088 0.0
C1916 C 0.12965 0.73021 0.69702 0.0
C1917 C 0.11612 0.7451 0.72523 0.0
C1918 C 0.09453 0.723 0.74177 0.0
C1919 C 0.14132 0.75669 0.7466 0.0
C1920 C 0.09858 0.77138 0.71105 0.0
C1921 C 0.1012 0.77093 0.67967 0.0
C1922 C 0.08929 0.79444 0.66183 0.0
C1923 C 0.07372 0.81851 0.67631 0.0
C1924 C 0.06933 0.81866 0.7083 0.0
C1925 C 0.08242 0.79489 0.72583 0.0
H1926 H 0.45777 0.80968 0.9215 0.0
H1927 H 0.45577 0.84548 0.01355 0.0
H1928 H 0.5021 0.87536 1.00279 0.0
H1929 H 0.5382 0.7994 0.91951 0.0
H1930 H 0.54082 0.8083 0.87941 0.0
H1931 H 0.5061 0.79334 0.89501 0.0
H1932 H 0.47661 0.83902 0.87224 0.0
H1933 H 0.51166 0.8553 0.85825 0.0
H1934 H 0.48731 0.87716 0.8833 0.0
H1935 H 0.5522 0.89804 0.98293 0.0
H1936 H 0.60145 0.90819 0.95673 0.0
H1937 H 0.5702 0.85711 0.8785 0.0
C1938 C 0.46682 0.82389 0.93937 0.0
C1939 C 0.45297 0.8249 0.96839 0.0
C1940 C 0.46579 0.84413 0.99103 0.0
C1941 C 0.49215 0.86137 0.98514 0.0
C1942 C 0.50553 0.85939 0.95641 0.0
C1943 C 0.49327 0.84105 0.93397 0.0
C1944 C 0.51331 0.84081 0.90591 0.0
C1945 C 0.52547 0.80854 0.89958 0.0
C1946 C 0.4962 0.85386 0.87828 0.0
C1947 C 0.53877 0.86159 0.91593 0.0
C1948 C 0.53397 0.87236 0.9451 0.0
C1949 C 0.55592 0.89 0.95993 0.0
C1950 C 0.58378 0.89577 0.94488 0.0
C1951 C 0.5895 0.88349 0.9156 0.0
C1952 C 0.56629 0.867 0.90078 0.0
H1953 H 0.98559 0.09308 0.399 0.0
H1954 H 0.90878 0.14983 0.42561 0.0
H1955 H 0.94416 0.18495 0.45218 0.0
H1956 H 0.03016 0.10602 0.47055 0.0
H1957 H 0.06599 0.10496 0.45037 0.0
H1958 H 0.03418 0.08272 0.43697 0.0
H1959 H 0.03865 0.10875 0.38415 0.0
H1960 H 0.07014 0.13129 0.39747 0.0
H1961 H 0.03697 0.14985 0.38161 0.0
H1962 H 0.98923 0.21518 0.47418 0.0
H1963 H 0.039 0.23734 0.4891 0.0
H1964 H 0.08622 0.16308 0.44382 0.0
C1965 C 0.97614 0.11266 0.41083 0.0
C1966 C 0.94433 0.11869 0.41017 0.0
C1967 C 0.93294 0.14449 0.42608 0.0
C1968 C 0.95294 0.16466 0.44108 0.0
C1969 C 0.98429 0.15855 0.44034 0.0
C1970 C 0.99573 0.13288 0.42595 0.0
C1971 C 0.03034 0.13178 0.42768 0.0
C1972 C 0.04079 0.10476 0.44756 0.0
C1973 C 0.04486 0.13035 0.39582 0.0
C1974 C 0.03686 0.1619 0.44333 0.0
C1975 C 0.00999 0.17654 0.45143 0.0
C1976 C 0.01029 0.20394 0.46764 0.0
C1977 C 0.03864 0.21649 0.47583 0.0
C1978 C 0.06638 0.20254 0.4666 0.0
C1979 C 0.06539 0.17477 0.45031 0.0
loop_
_geom_bond_atom_site_label_1
_geom_bond_atom_site_label_2
_geom_bond_distance
_geom_bond_site_symmetry_2
_ccdc_geom_bond_type
Tb0 N29 2.617 . S
Tb0 N35 2.572 . S
Tb0 O44 2.465 . S
Tb0 O45 2.387 . S
Tb0 O47 2.428 . S
Tb0 O48 2.308 . S
Tb0 O52 2.349 . S
Tb0 O55 2.393 . S
Tb0 C64 2.802 . S
C1 N2 1.379 . S
C1 C4 1.416 . S
C1 C8 1.424 . S
N2 C1 1.379 . S
N2 C5 1.334 . S
N2 Tb11 2.617 . S
C3 C5 1.390 . S
C3 C6 1.339 1_455 S
C3 H23 0.930 1_455 S
C4 C1 1.416 . S
C4 C6 1.416 1_455 S
C4 C10 1.448 1_455 S
C5 N2 1.334 . S
C5 C3 1.390 . S
C5 H16 0.930 . S
C6 C3 1.339 1_655 S
C6 C4 1.416 1_655 S
C6 H27 0.930 . S
C7 C8 1.413 . S
C7 C9 1.427 . S
C7 C13 1.416 . S
C8 C1 1.424 . S
C8 C7 1.413 . S
C8 N12 1.361 . S
C9 C7 1.427 . S
C9 C10 1.328 1_455 S
C9 H24 0.919 1_455 S
C10 C4 1.448 1_655 S
C10 C9 1.328 1_655 S
C10 H25 0.930 . S
Tb11 N2 2.617 . S
Tb11 N12 2.572 . S
Tb11 O46 2.349 . S
Tb11 O49 2.393 . S
Tb11 O50 2.465 . S
Tb11 O51 2.387 . S
Tb11 O53 2.428 . S
Tb11 O54 2.308 . S
Tb11 C75 2.802 . S
N12 C8 1.361 . S
N12 Tb11 2.572 . S
N12 C14 1.340 . S
C13 C7 1.416 . S
C13 C15 1.332 . S
C13 H21 0.931 . S
C14 N12 1.340 . S
C14 C15 1.407 . S
C14 H20 0.930 . S
C15 C13 1.332 . S
C15 C14 1.407 . S
C15 H17 0.929 . S
H16 C5 0.930 . S
H17 C15 0.929 . S
H18 C33 0.930 . S
H19 C40 0.929 . S
H20 C14 0.930 . S
H21 C13 0.931 . S
H22 C36 0.930 . S
H23 C3 0.930 1_655 S
H24 C9 0.919 1_655 S
H25 C10 0.930 . S
H26 C31 0.930 . S
H27 C6 0.930 . S
H28 C39 0.931 . S
N29 Tb0 2.617 . S
N29 C30 1.379 . S
N29 C33 1.334 . S
C30 N29 1.379 . S
C30 C32 1.416 . S
C30 C38 1.424 . S
C31 H26 0.930 . S
C31 C33 1.390 . S
C31 C34 1.339 . S
C32 C30 1.416 . S
C32 C34 1.416 . S
C32 C65 1.448 . S
C33 H18 0.930 . S
C33 N29 1.334 . S
C33 C31 1.390 . S
C34 C31 1.339 . S
C34 C32 1.416 . S
C34 H41 0.930 . S
N35 Tb0 2.572 . S
N35 C36 1.340 . S
N35 C38 1.361 . S
C36 H22 0.930 . S
C36 N35 1.340 . S
C36 C40 1.407 . S
C37 C38 1.413 . S
C37 C39 1.416 . S
C37 C66 1.427 . S
C38 C30 1.424 . S
C38 N35 1.361 . S
C38 C37 1.413 . S
C39 H28 0.931 . S
C39 C37 1.416 . S
C39 C40 1.332 . S
C40 H19 0.929 . S
C40 C36 1.407 . S
C40 C39 1.332 . S
H41 C34 0.930 . S
H42 C65 0.930 . S
H43 C66 0.929 . S
O44 Tb0 2.465 . S
O44 C64 1.264 . S
O45 Tb0 2.387 . S
O45 C56 1.264 . S
O46 Tb11 2.349 . S
O46 C56 1.243 . S
O47 Tb0 2.428 . S
O47 C64 1.256 . S
O48 Tb0 2.308 . S
O48 C63 1.266 . S
O49 Tb11 2.393 . S
O49 C63 1.248 . S
O50 Tb11 2.465 . S
O50 C75 1.264 . S
O51 Tb11 2.387 . S
O51 C67 1.264 . S
O52 Tb0 2.349 . S
O52 C67 1.243 . S
O53 Tb11 2.428 . S
O53 C75 1.256 . S
O54 Tb11 2.308 . S
O54 C74 1.266 . S
O55 Tb0 2.393 . S
O55 C74 1.248 . S
C56 O45 1.264 . S
C56 O46 1.243 . S
C57 C60 1.399 . S
C57 C62 1.383 . S
C57 C64 1.496 . S
C58 C59 1.399 . S
C58 C62 1.389 . S
C59 C58 1.399 . S
C59 C61 1.380 . S
C59 H76 0.929 . S
C60 C57 1.399 . S
C60 C61 1.392 . S
C60 H77 0.929 . S
C61 C59 1.380 . S
C61 C60 1.392 . S
C61 H78 0.929 . S
C62 C57 1.383 . S
C62 C58 1.389 . S
C62 H79 0.931 . S
C63 O48 1.266 . S
C63 O49 1.248 . S
C64 Tb0 2.802 . S
C64 O44 1.264 . S
C64 O47 1.256 . S
C64 C57 1.496 . S
C65 C32 1.448 . S
C65 H42 0.930 . S
C65 C66 1.328 . S
C66 C37 1.427 . S
C66 H43 0.929 . S
C66 C65 1.328 . S
C67 O51 1.264 . S
C67 O52 1.243 . S
C68 C71 1.399 . S
C68 C72 1.383 . S
C68 C75 1.496 . S
C69 C70 1.399 . S
C69 C72 1.389 . S
C70 C69 1.399 . S
C70 C73 1.380 . S
C70 H80 0.929 . S
C71 C68 1.399 . S
C71 C73 1.392 . S
C71 H81 0.929 . S
C72 C68 1.383 . S
C72 C69 1.389 . S
C72 H82 0.931 . S
C73 C70 1.380 . S
C73 C71 1.392 . S
C73 H83 0.929 . S
C74 O54 1.266 . S
C74 O55 1.248 . S
C75 Tb11 2.802 . S
C75 O50 1.264 . S
C75 O53 1.256 . S
C75 C68 1.496 . S
H76 C59 0.929 . S
H77 C60 0.929 . S
H78 C61 0.929 . S
H79 C62 0.931 . S
H80 C70 0.929 . S
H81 C71 0.929 . S
H82 C72 0.931 . S
H83 C73 0.929 . S
Tb84 N113 2.617 . S
Tb84 N119 2.572 . S
Tb84 O128 2.465 . S
Tb84 O129 2.387 . S
Tb84 O131 2.428 . S
Tb84 O132 2.308 . S
Tb84 O136 2.349 . S
Tb84 O139 2.393 1_455 S
Tb84 C148 2.802 . S
C85 N86 1.379 . S
C85 C88 1.416 . S
C85 C92 1.424 . S
N86 C85 1.379 . S
N86 C89 1.334 . S
N86 Tb95 2.617 . S
C87 C89 1.390 . S
C87 C90 1.339 . S
C87 H107 0.930 1_655 S
C88 C85 1.416 . S
C88 C90 1.416 . S
C88 C94 1.448 . S
C89 N86 1.334 . S
C89 C87 1.390 . S
C89 H100 0.930 1_655 S
C90 C87 1.339 . S
C90 C88 1.416 . S
C90 H111 0.930 . S
C91 C92 1.413 . S
C91 C93 1.427 . S
C91 C97 1.416 . S
C92 C85 1.424 . S
C92 C91 1.413 . S
C92 N96 1.361 . S
C93 C91 1.427 . S
C93 C94 1.328 . S
C93 H108 0.929 . S
C94 C88 1.448 . S
C94 C93 1.328 . S
C94 H109 0.930 . S
Tb95 N86 2.617 . S
Tb95 N96 2.572 . S
Tb95 O130 2.349 1_655 S
Tb95 O133 2.393 1_655 S
Tb95 O134 2.465 . S
Tb95 O135 2.387 . S
Tb95 O137 2.428 . S
Tb95 O138 2.308 . S
Tb95 C159 2.802 . S
N96 C92 1.361 . S
N96 Tb95 2.572 . S
N96 C98 1.340 . S
C97 C91 1.416 . S
C97 C99 1.332 . S
C97 H105 0.931 . S
C98 N96 1.340 . S
C98 C99 1.407 . S
C98 H104 0.930 . S
C99 C97 1.332 . S
C99 C98 1.407 . S
C99 H101 0.929 . S
H100 C89 0.930 1_455 S
H101 C99 0.929 . S
H102 C117 0.930 . S
H103 C124 0.929 . S
H104 C98 0.930 . S
H105 C97 0.931 . S
H106 C120 0.930 . S
H107 C87 0.930 1_455 S
H108 C93 0.929 . S
H109 C94 0.930 . S
H110 C115 0.930 1_545 S
H111 C90 0.930 . S
H112 C123 0.931 . S
N113 Tb84 2.617 . S
N113 C114 1.379 . S
N113 C117 1.334 . S
C114 N113 1.379 . S
C114 C116 1.416 . S
C114 C122 1.424 . S
C115 H110 0.930 1_565 S
C115 C117 1.390 . S
C115 C118 1.339 1_565 S
C116 C114 1.416 . S
C116 C118 1.416 1_565 S
C116 C149 1.448 1_565 S
C117 H102 0.930 . S
C117 N113 1.334 . S
C117 C115 1.390 . S
C118 C115 1.339 1_545 S
C118 C116 1.416 1_545 S
C118 H125 0.930 . S
N119 Tb84 2.572 . S
N119 C120 1.340 . S
N119 C122 1.361 . S
C120 H106 0.930 . S
C120 N119 1.340 . S
C120 C124 1.407 . S
C121 C122 1.413 . S
C121 C123 1.416 . S
C121 C150 1.427 . S
C122 C114 1.424 . S
C122 N119 1.361 . S
C122 C121 1.413 . S
C123 H112 0.931 . S
C123 C121 1.416 . S
C123 C124 1.332 . S
C124 H103 0.929 . S
C124 C120 1.407 . S
C124 C123 1.332 . S
H125 C118 0.930 . S
H126 C149 0.930 . S
H127 C150 0.919 1_545 S
O128 Tb84 2.465 . S
O128 C148 1.264 . S
O129 Tb84 2.387 . S
O129 C140 1.264 . S
O130 Tb95 2.349 1_455 S
O130 C140 1.243 . S
O131 Tb84 2.428 . S
O131 C148 1.256 . S
O132 Tb84 2.308 . S
O132 C147 1.266 . S
O133 Tb95 2.393 1_455 S
O133 C147 1.248 . S
O134 Tb95 2.465 . S
O134 C159 1.264 . S
O135 Tb95 2.387 . S
O135 C151 1.264 . S
O136 Tb84 2.349 . S
O136 C151 1.243 1_455 S
O137 Tb95 2.428 . S
O137 C159 1.256 . S
O138 Tb95 2.308 . S
O138 C158 1.266 . S
O139 Tb84 2.393 1_655 S
O139 C158 1.248 . S
C140 O129 1.264 . S
C140 O130 1.243 . S
C141 C144 1.399 . S
C141 C146 1.383 . S
C141 C148 1.496 . S
C142 C143 1.399 . S
C142 C146 1.389 . S
C143 C142 1.399 . S
C143 C145 1.380 . S
C143 H160 0.929 . S
C144 C141 1.399 . S
C144 C145 1.392 . S
C144 H161 0.929 . S
C145 C143 1.380 . S
C145 C144 1.392 . S
C145 H162 0.929 . S
C146 C141 1.383 . S
C146 C142 1.389 . S
C146 H163 0.931 . S
C147 O132 1.266 . S
C147 O133 1.248 . S
C148 Tb84 2.802 . S
C148 O128 1.264 . S
C148 O131 1.256 . S
C148 C141 1.496 . S
C149 C116 1.448 1_545 S
C149 H126 0.930 . S
C149 C150 1.328 1_545 S
C150 C121 1.427 . S
C150 H127 0.919 1_565 S
C150 C149 1.328 1_565 S
C151 O135 1.264 . S
C151 O136 1.243 1_655 S
C152 C155 1.399 . S
C152 C156 1.383 . S
C152 C159 1.496 . S
C153 C154 1.399 . S
C153 C156 1.389 . S
C154 C153 1.399 . S
C154 C157 1.380 . S
C154 H164 0.929 . S
C155 C152 1.399 . S
C155 C157 1.392 . S
C155 H165 0.929 . S
C156 C152 1.383 . S
C156 C153 1.389 . S
C156 H166 0.931 . S
C157 C154 1.380 . S
C157 C155 1.392 . S
C157 H167 0.929 . S
C158 O138 1.266 . S
C158 O139 1.248 . S
C159 Tb95 2.802 . S
C159 O134 1.264 . S
C159 O137 1.256 . S
C159 C152 1.496 . S
H160 C143 0.929 . S
H161 C144 0.929 . S
H162 C145 0.929 . S
H163 C146 0.931 . S
H164 C154 0.929 . S
H165 C155 0.929 . S
H166 C156 0.931 . S
H167 C157 0.929 . S
Tb168 N197 2.617 . S
Tb168 N203 2.572 . S
Tb168 O212 2.465 . S
Tb168 O213 2.387 . S
Tb168 O215 2.428 . S
Tb168 O216 2.308 . S
Tb168 O220 2.349 . S
Tb168 O223 2.393 1_556 S
Tb168 C232 2.802 . S
C169 N170 1.379 . S
C169 C172 1.416 . S
C169 C176 1.424 . S
N170 C169 1.379 . S
N170 C173 1.334 . S
N170 Tb179 2.617 . S
C171 C173 1.390 . S
C171 C174 1.339 . S
C171 H191 0.930 1_554 S
C172 C169 1.416 . S
C172 C174 1.416 . S
C172 C178 1.448 . S
C173 N170 1.334 . S
C173 C171 1.390 . S
C173 H184 0.930 1_554 S
C174 C171 1.339 . S
C174 C172 1.416 . S
C174 H195 0.930 . S
C175 C176 1.413 . S
C175 C177 1.427 . S
C175 C181 1.416 . S
C176 C169 1.424 . S
C176 C175 1.413 . S
C176 N180 1.361 . S
C177 C175 1.427 . S
C177 C178 1.328 . S
C177 H192 0.929 . S
C178 C172 1.448 . S
C178 C177 1.328 . S
C178 H193 0.930 . S
Tb179 N170 2.617 . S
Tb179 N180 2.572 . S
Tb179 O214 2.349 1_554 S
Tb179 O217 2.393 1_554 S
Tb179 O218 2.465 . S
Tb179 O219 2.387 . S
Tb179 O221 2.428 . S
Tb179 O222 2.308 . S
Tb179 C243 2.802 . S
N180 C176 1.361 . S
N180 Tb179 2.572 . S
N180 C182 1.340 . S
C181 C175 1.416 . S
C181 C183 1.332 . S
C181 H189 0.931 . S
C182 N180 1.340 . S
C182 C183 1.407 . S
C182 H188 0.930 . S
C183 C181 1.332 . S
C183 C182 1.407 . S
C183 H185 0.929 . S
H184 C173 0.930 1_556 S
H185 C183 0.929 . S
H186 C201 0.930 . S
H187 C208 0.929 . S
H188 C182 0.930 . S
H189 C181 0.931 . S
H190 C204 0.930 . S
H191 C171 0.930 1_556 S
H192 C177 0.929 . S
H193 C178 0.930 . S
H194 C199 0.930 . S
H195 C174 0.930 . S
H196 C207 0.931 . S
N197 Tb168 2.617 . S
N197 C198 1.379 . S
N197 C201 1.334 . S
C198 N197 1.379 . S
C198 C200 1.416 . S
C198 C206 1.424 . S
C199 H194 0.930 . S
C199 C201 1.390 . S
C199 C202 1.339 . S
C200 C198 1.416 . S
C200 C202 1.416 . S
C200 C233 1.448 . S
C201 H186 0.930 . S
C201 N197 1.334 . S
C201 C199 1.390 . S
C202 C199 1.339 . S
C202 C200 1.416 . S
C202 H209 0.930 . S
N203 Tb168 2.572 . S
N203 C204 1.340 . S
N203 C206 1.361 . S
C204 H190 0.930 . S
C204 N203 1.340 . S
C204 C208 1.407 . S
C205 C206 1.413 . S
C205 C207 1.416 . S
C205 C234 1.427 . S
C206 C198 1.424 . S
C206 N203 1.361 . S
C206 C205 1.413 . S
C207 H196 0.931 . S
C207 C205 1.416 . S
C207 C208 1.332 . S
C208 H187 0.929 . S
C208 C204 1.407 . S
C208 C207 1.332 . S
H209 C202 0.930 . S
H210 C233 0.930 . S
H211 C234 0.929 . S
O212 Tb168 2.465 . S
O212 C232 1.264 . S
O213 Tb168 2.387 . S
O213 C224 1.264 . S
O214 Tb179 2.349 1_556 S
O214 C224 1.243 . S
O215 Tb168 2.428 . S
O215 C232 1.256 . S
O216 Tb168 2.308 . S
O216 C231 1.266 . S
O217 Tb179 2.393 1_556 S
O217 C231 1.248 . S
O218 Tb179 2.465 . S
O218 C243 1.264 . S
O219 Tb179 2.387 . S
O219 C235 1.264 . S
O220 Tb168 2.349 . S
O220 C235 1.243 1_556 S
O221 Tb179 2.428 . S
O221 C243 1.256 . S
O222 Tb179 2.308 . S
O222 C242 1.266 . S
O223 Tb168 2.393 1_554 S
O223 C242 1.248 . S
C224 O213 1.264 . S
C224 O214 1.243 . S
C225 C228 1.399 . S
C225 C230 1.383 . S
C225 C232 1.496 . S
C226 C227 1.399 . S
C226 C230 1.389 . S
C227 C226 1.399 . S
C227 C229 1.380 . S
C227 H244 0.929 . S
C228 C225 1.399 . S
C228 C229 1.392 . S
C228 H245 0.929 . S
C229 C227 1.380 . S
C229 C228 1.392 . S
C229 H246 0.929 . S
C230 C225 1.383 . S
C230 C226 1.389 . S
C230 H247 0.931 . S
C231 O216 1.266 . S
C231 O217 1.248 . S
C232 Tb168 2.802 . S
C232 O212 1.264 . S
C232 O215 1.256 . S
C232 C225 1.496 . S
C233 C200 1.448 . S
C233 H210 0.930 . S
C233 C234 1.328 . S
C234 C205 1.427 . S
C234 H211 0.929 . S
C234 C233 1.328 . S
C235 O219 1.264 . S
C235 O220 1.243 1_554 S
C236 C239 1.399 . S
C236 C240 1.383 . S
C236 C243 1.496 . S
C237 C238 1.399 . S
C237 C240 1.389 . S
C238 C237 1.399 . S
C238 C241 1.380 . S
C238 H248 0.929 . S
C239 C236 1.399 . S
C239 C241 1.392 . S
C239 H249 0.929 . S
C240 C236 1.383 . S
C240 C237 1.389 . S
C240 H250 0.931 . S
C241 C238 1.380 . S
C241 C239 1.392 . S
C241 H251 0.929 . S
C242 O222 1.266 . S
C242 O223 1.248 . S
C243 Tb179 2.802 . S
C243 O218 1.264 . S
C243 O221 1.256 . S
C243 C236 1.496 . S
H244 C227 0.929 . S
H245 C228 0.929 . S
H246 C229 0.929 . S
H247 C230 0.931 . S
H248 C238 0.929 . S
H249 C239 0.929 . S
H250 C240 0.931 . S
H251 C241 0.929 . S
Tb252 N281 2.617 . S
Tb252 N287 2.572 . S
Tb252 O296 2.465 . S
Tb252 O297 2.387 . S
Tb252 O299 2.428 . S
Tb252 O300 2.308 . S
Tb252 O304 2.349 . S
Tb252 O307 2.393 . S
Tb252 C316 2.802 . S
C253 N254 1.379 . S
C253 C256 1.416 . S
C253 C260 1.424 . S
N254 C253 1.379 . S
N254 C257 1.334 . S
N254 Tb263 2.617 . S
C255 C257 1.390 . S
C255 C258 1.339 . S
C255 H275 0.930 . S
C256 C253 1.416 . S
C256 C258 1.416 . S
C256 C262 1.448 . S
C257 N254 1.334 . S
C257 C255 1.390 . S
C257 H268 0.930 . S
C258 C255 1.339 . S
C258 C256 1.416 . S
C258 H279 0.930 . S
C259 C260 1.413 . S
C259 C261 1.427 . S
C259 C265 1.416 . S
C260 C253 1.424 . S
C260 C259 1.413 . S
C260 N264 1.361 . S
C261 C259 1.427 . S
C261 C262 1.328 . S
C261 H276 0.929 . S
C262 C256 1.448 . S
C262 C261 1.328 . S
C262 H277 0.930 . S
Tb263 N254 2.617 . S
Tb263 N264 2.572 . S
Tb263 O298 2.349 . S
Tb263 O301 2.393 . S
Tb263 O302 2.465 . S
Tb263 O303 2.387 . S
Tb263 O305 2.428 . S
Tb263 O306 2.308 . S
Tb263 C327 2.802 . S
N264 C260 1.361 . S
N264 Tb263 2.572 . S
N264 C266 1.340 . S
C265 C259 1.416 . S
C265 C267 1.332 . S
C265 H273 0.931 . S
C266 N264 1.340 . S
C266 C267 1.407 . S
C266 H272 0.930 . S
C267 C265 1.332 . S
C267 C266 1.407 . S
C267 H269 0.929 . S
H268 C257 0.930 . S
H269 C267 0.929 . S
H270 C285 0.930 . S
H271 C292 0.929 . S
H272 C266 0.930 . S
H273 C265 0.931 . S
H274 C288 0.930 . S
H275 C255 0.930 . S
H276 C261 0.929 . S
H277 C262 0.930 . S
H278 C283 0.930 1_565 S
H279 C258 0.930 . S
H280 C291 0.931 . S
N281 Tb252 2.617 . S
N281 C282 1.379 . S
N281 C285 1.334 . S
C282 N281 1.379 . S
C282 C284 1.416 . S
C282 C290 1.424 . S
C283 H278 0.930 1_545 S
C283 C285 1.390 . S
C283 C286 1.339 1_545 S
C284 C282 1.416 . S
C284 C286 1.416 1_545 S
C284 C317 1.448 1_545 S
C285 H270 0.930 . S
C285 N281 1.334 . S
C285 C283 1.390 . S
C286 C283 1.339 1_565 S
C286 C284 1.416 1_565 S
C286 H293 0.930 . S
N287 Tb252 2.572 . S
N287 C288 1.340 . S
N287 C290 1.361 . S
C288 H274 0.930 . S
C288 N287 1.340 . S
C288 C292 1.407 . S
C289 C290 1.413 . S
C289 C291 1.416 . S
C289 C318 1.427 . S
C290 C282 1.424 . S
C290 N287 1.361 . S
C290 C289 1.413 . S
C291 H280 0.931 . S
C291 C289 1.416 . S
C291 C292 1.332 . S
C292 H271 0.929 . S
C292 C288 1.407 . S
C292 C291 1.332 . S
H293 C286 0.930 . S
H294 C317 0.930 . S
H295 C318 0.935 . S
O296 Tb252 2.465 . S
O296 C316 1.264 . S
O297 Tb252 2.387 . S
O297 C308 1.264 . S
O298 Tb263 2.349 . S
O298 C308 1.243 . S
O299 Tb252 2.428 . S
O299 C316 1.256 . S
O300 Tb252 2.308 . S
O300 C315 1.266 . S
O301 Tb263 2.393 . S
O301 C315 1.248 . S
O302 Tb263 2.465 . S
O302 C327 1.264 . S
O303 Tb263 2.387 . S
O303 C319 1.264 . S
O304 Tb252 2.349 . S
O304 C319 1.243 . S
O305 Tb263 2.428 . S
O305 C327 1.256 . S
O306 Tb263 2.308 . S
O306 C326 1.266 . S
O307 Tb252 2.393 . S
O307 C326 1.248 . S
C308 O297 1.264 . S
C308 O298 1.243 . S
C309 C312 1.399 . S
C309 C314 1.383 . S
C309 C316 1.496 . S
C310 C311 1.399 . S
C310 C314 1.389 . S
C311 C310 1.399 . S
C311 C313 1.380 . S
C311 H328 0.929 . S
C312 C309 1.399 . S
C312 C313 1.392 . S
C312 H329 0.929 . S
C313 C311 1.380 . S
C313 C312 1.392 . S
C313 H330 0.929 . S
C314 C309 1.383 . S
C314 C310 1.389 . S
C314 H331 0.931 . S
C315 O300 1.266 . S
C315 O301 1.248 . S
C316 Tb252 2.802 . S
C316 O296 1.264 . S
C316 O299 1.256 . S
C316 C309 1.496 . S
C317 C284 1.448 1_565 S
C317 H294 0.930 . S
C317 C318 1.328 1_565 S
C318 C289 1.427 . S
C318 H295 0.935 . S
C318 C317 1.328 1_545 S
C319 O303 1.264 . S
C319 O304 1.243 . S
C320 C323 1.399 . S
C320 C324 1.383 . S
C320 C327 1.496 . S
C321 C322 1.399 . S
C321 C324 1.389 . S
C322 C321 1.399 . S
C322 C325 1.380 . S
C322 H332 0.929 . S
C323 C320 1.399 . S
C323 C325 1.392 . S
C323 H333 0.929 . S
C324 C320 1.383 . S
C324 C321 1.389 . S
C324 H334 0.931 . S
C325 C322 1.380 . S
C325 C323 1.392 . S
C325 H335 0.929 . S
C326 O306 1.266 . S
C326 O307 1.248 . S
C327 Tb263 2.802 . S
C327 O302 1.264 . S
C327 O305 1.256 . S
C327 C320 1.496 . S
H328 C311 0.929 . S
H329 C312 0.929 . S
H330 C313 0.929 . S
H331 C314 0.931 . S
H332 C322 0.929 . S
H333 C323 0.929 . S
H334 C324 0.931 . S
H335 C325 0.929 . S
Tb336 N365 2.617 . S
Tb336 N371 2.572 . S
Tb336 O380 2.465 . S
Tb336 O381 2.387 . S
Tb336 O383 2.428 . S
Tb336 O384 2.308 . S
Tb336 O388 2.349 . S
Tb336 O391 2.393 . S
Tb336 C400 2.802 . S
C337 N338 1.379 . S
C337 C340 1.416 . S
C337 C344 1.424 . S
N338 C337 1.379 . S
N338 C341 1.334 . S
N338 Tb347 2.617 . S
C339 C341 1.390 . S
C339 C342 1.339 . S
C339 H359 0.930 . S
C340 C337 1.416 . S
C340 C342 1.416 . S
C340 C346 1.448 . S
C341 N338 1.334 . S
C341 C339 1.390 . S
C341 H352 0.930 . S
C342 C339 1.339 . S
C342 C340 1.416 . S
C342 H363 0.930 . S
C343 C344 1.413 . S
C343 C345 1.427 . S
C343 C349 1.416 . S
C344 C337 1.424 . S
C344 C343 1.413 . S
C344 N348 1.361 . S
C345 C343 1.427 . S
C345 C346 1.328 . S
C345 H360 0.929 . S
C346 C340 1.448 . S
C346 C345 1.328 . S
C346 H361 0.930 . S
Tb347 N338 2.617 . S
Tb347 N348 2.572 . S
Tb347 O382 2.349 . S
Tb347 O385 2.393 . S
Tb347 O386 2.465 . S
Tb347 O387 2.387 . S
Tb347 O389 2.428 . S
Tb347 O390 2.308 . S
Tb347 C411 2.802 . S
N348 C344 1.361 . S
N348 Tb347 2.572 . S
N348 C350 1.340 . S
C349 C343 1.416 . S
C349 C351 1.332 . S
C349 H357 0.931 . S
C350 N348 1.340 . S
C350 C351 1.407 . S
C350 H356 0.930 . S
C351 C349 1.332 . S
C351 C350 1.407 . S
C351 H353 0.929 . S
H352 C341 0.930 . S
H353 C351 0.929 . S
H354 C369 0.930 . S
H355 C376 0.929 . S
H356 C350 0.930 . S
H357 C349 0.931 . S
H358 C372 0.930 . S
H359 C339 0.930 . S
H360 C345 0.929 . S
H361 C346 0.930 . S
H362 C367 0.930 . S
H363 C342 0.930 . S
H364 C375 0.931 . S
N365 Tb336 2.617 . S
N365 C366 1.379 . S
N365 C369 1.334 . S
C366 N365 1.379 . S
C366 C368 1.416 . S
C366 C374 1.424 . S
C367 H362 0.930 . S
C367 C369 1.390 . S
C367 C370 1.339 . S
C368 C366 1.416 . S
C368 C370 1.416 . S
C368 C401 1.448 . S
C369 H354 0.930 . S
C369 N365 1.334 . S
C369 C367 1.390 . S
C370 C367 1.339 . S
C370 C368 1.416 . S
C370 H377 0.930 . S
N371 Tb336 2.572 . S
N371 C372 1.340 . S
N371 C374 1.361 . S
C372 H358 0.930 . S
C372 N371 1.340 . S
C372 C376 1.407 . S
C373 C374 1.413 . S
C373 C375 1.416 . S
C373 C402 1.427 . S
C374 C366 1.424 . S
C374 N371 1.361 . S
C374 C373 1.413 . S
C375 H364 0.931 . S
C375 C373 1.416 . S
C375 C376 1.332 . S
C376 H355 0.929 . S
C376 C372 1.407 . S
C376 C375 1.332 . S
H377 C370 0.930 . S
H378 C401 0.930 . S
H379 C402 0.929 . S
O380 Tb336 2.465 . S
O380 C400 1.264 . S
O381 Tb336 2.387 . S
O381 C392 1.264 . S
O382 Tb347 2.349 . S
O382 C392 1.243 . S
O383 Tb336 2.428 . S
O383 C400 1.256 . S
O384 Tb336 2.308 . S
O384 C399 1.266 . S
O385 Tb347 2.393 . S
O385 C399 1.248 . S
O386 Tb347 2.465 . S
O386 C411 1.264 . S
O387 Tb347 2.387 . S
O387 C403 1.264 . S
O388 Tb336 2.349 . S
O388 C403 1.243 . S
O389 Tb347 2.428 . S
O389 C411 1.256 . S
O390 Tb347 2.308 . S
O390 C410 1.266 . S
O391 Tb336 2.393 . S
O391 C410 1.248 . S
C392 O381 1.264 . S
C392 O382 1.243 . S
C393 C396 1.399 . S
C393 C398 1.383 . S
C393 C400 1.496 . S
C394 C395 1.399 . S
C394 C398 1.389 . S
C395 C394 1.399 . S
C395 C397 1.380 . S
C395 H412 0.929 . S
C396 C393 1.399 . S
C396 C397 1.392 . S
C396 H413 0.929 . S
C397 C395 1.380 . S
C397 C396 1.392 . S
C397 H414 0.929 . S
C398 C393 1.383 . S
C398 C394 1.389 . S
C398 H415 0.931 . S
C399 O384 1.266 . S
C399 O385 1.248 . S
C400 Tb336 2.802 . S
C400 O380 1.264 . S
C400 O383 1.256 . S
C400 C393 1.496 . S
C401 C368 1.448 . S
C401 H378 0.930 . S
C401 C402 1.328 . S
C402 C373 1.427 . S
C402 H379 0.929 . S
C402 C401 1.328 . S
C403 O387 1.264 . S
C403 O388 1.243 . S
C404 C407 1.399 . S
C404 C408 1.383 . S
C404 C411 1.496 . S
C405 C406 1.399 . S
C405 C408 1.389 . S
C406 C405 1.399 . S
C406 C409 1.380 . S
C406 H416 0.929 . S
C407 C404 1.399 . S
C407 C409 1.392 . S
C407 H417 0.929 . S
C408 C404 1.383 . S
C408 C405 1.389 . S
C408 H418 0.931 . S
C409 C406 1.380 . S
C409 C407 1.392 . S
C409 H419 0.929 . S
C410 O390 1.266 . S
C410 O391 1.248 . S
C411 Tb347 2.802 . S
C411 O386 1.264 . S
C411 O389 1.256 . S
C411 C404 1.496 . S
H412 C395 0.929 . S
H413 C396 0.929 . S
H414 C397 0.929 . S
H415 C398 0.931 . S
H416 C406 0.929 . S
H417 C407 0.929 . S
H418 C408 0.931 . S
H419 C409 0.929 . S
Tb420 N449 2.617 . S
Tb420 N455 2.572 . S
Tb420 O464 2.465 . S
Tb420 O465 2.387 1_455 S
Tb420 O467 2.428 . S
Tb420 O468 2.308 1_455 S
Tb420 O472 2.349 . S
Tb420 O475 2.393 . S
Tb420 C484 2.802 . S
C421 N422 1.379 . S
C421 C424 1.416 . S
C421 C428 1.424 . S
N422 C421 1.379 . S
N422 C425 1.334 . S
N422 Tb431 2.617 . S
C423 C425 1.390 . S
C423 C426 1.339 . S
C423 H443 0.930 . S
C424 C421 1.416 . S
C424 C426 1.416 . S
C424 C430 1.448 . S
C425 N422 1.334 . S
C425 C423 1.390 . S
C425 H436 0.930 . S
C426 C423 1.339 . S
C426 C424 1.416 . S
C426 H447 0.930 . S
C427 C428 1.413 . S
C427 C429 1.427 . S
C427 C433 1.416 . S
C428 C421 1.424 . S
C428 C427 1.413 . S
C428 N432 1.361 . S
C429 C427 1.427 . S
C429 C430 1.328 . S
C429 H444 0.929 . S
C430 C424 1.448 . S
C430 C429 1.328 . S
C430 H445 0.930 . S
Tb431 N422 2.617 . S
Tb431 N432 2.572 . S
Tb431 O466 2.349 . S
Tb431 O469 2.393 . S
Tb431 O470 2.465 . S
Tb431 O471 2.385 . S
Tb431 O473 2.428 . S
Tb431 O474 2.308 . S
Tb431 C495 2.802 . S
N432 C428 1.361 . S
N432 Tb431 2.572 . S
N432 C434 1.340 . S
C433 C427 1.416 . S
C433 C435 1.332 . S
C433 H441 0.931 1_655 S
C434 N432 1.340 . S
C434 C435 1.407 . S
C434 H440 0.930 . S
C435 C433 1.332 . S
C435 C434 1.407 . S
C435 H437 0.929 1_655 S
H436 C425 0.930 . S
H437 C435 0.929 1_455 S
H438 C453 0.930 . S
H439 C460 0.929 . S
H440 C434 0.930 . S
H441 C433 0.931 1_455 S
H442 C456 0.930 . S
H443 C423 0.930 . S
H444 C429 0.929 . S
H445 C430 0.930 . S
H446 C451 0.930 . S
H447 C426 0.930 . S
H448 C459 0.931 . S
N449 Tb420 2.617 . S
N449 C450 1.379 . S
N449 C453 1.334 . S
C450 N449 1.379 . S
C450 C452 1.416 . S
C450 C458 1.424 . S
C451 H446 0.930 . S
C451 C453 1.390 . S
C451 C454 1.339 . S
C452 C450 1.416 . S
C452 C454 1.416 . S
C452 C485 1.448 . S
C453 H438 0.930 . S
C453 N449 1.334 . S
C453 C451 1.390 . S
C454 C451 1.339 . S
C454 C452 1.416 . S
C454 H461 0.930 . S
N455 Tb420 2.572 . S
N455 C456 1.340 1_455 S
N455 C458 1.361 . S
C456 H442 0.930 . S
C456 N455 1.340 1_655 S
C456 C460 1.407 . S
C457 C458 1.413 1_655 S
C457 C459 1.416 . S
C457 C486 1.427 . S
C458 C450 1.424 . S
C458 N455 1.361 . S
C458 C457 1.413 1_455 S
C459 H448 0.931 . S
C459 C457 1.416 . S
C459 C460 1.332 . S
C460 H439 0.929 . S
C460 C456 1.407 . S
C460 C459 1.332 . S
H461 C454 0.930 . S
H462 C485 0.930 . S
H463 C486 0.929 . S
O464 Tb420 2.465 . S
O464 C484 1.264 . S
O465 Tb420 2.387 1_655 S
O465 C476 1.264 . S
O466 Tb431 2.349 . S
O466 C476 1.243 . S
O467 Tb420 2.428 . S
O467 C484 1.256 . S
O468 Tb420 2.308 1_655 S
O468 C483 1.266 . S
O469 Tb431 2.393 . S
O469 C483 1.248 . S
O470 Tb431 2.465 . S
O470 C495 1.264 . S
O471 Tb431 2.385 . S
O471 C487 1.265 1_655 S
O472 Tb420 2.349 . S
O472 C487 1.243 . S
O473 Tb431 2.428 . S
O473 C495 1.256 . S
O474 Tb431 2.308 . S
O474 C494 1.266 1_655 S
O475 Tb420 2.393 . S
O475 C494 1.248 . S
C476 O465 1.264 . S
C476 O466 1.243 . S
C477 C480 1.399 . S
C477 C482 1.383 . S
C477 C484 1.496 . S
C478 C479 1.399 . S
C478 C482 1.389 . S
C479 C478 1.399 . S
C479 C481 1.380 . S
C479 H496 0.929 . S
C480 C477 1.399 . S
C480 C481 1.392 . S
C480 H497 0.929 . S
C481 C479 1.380 . S
C481 C480 1.392 . S
C481 H498 0.929 . S
C482 C477 1.383 . S
C482 C478 1.389 . S
C482 H499 0.931 . S
C483 O468 1.266 . S
C483 O469 1.248 . S
C484 Tb420 2.802 . S
C484 O464 1.264 . S
C484 O467 1.256 . S
C484 C477 1.496 . S
C485 C452 1.448 . S
C485 H462 0.930 . S
C485 C486 1.328 1_455 S
C486 C457 1.427 . S
C486 H463 0.929 . S
C486 C485 1.328 1_655 S
C487 O471 1.265 1_455 S
C487 O472 1.243 . S
C488 C491 1.399 . S
C488 C492 1.383 . S
C488 C495 1.496 . S
C489 C490 1.399 . S
C489 C492 1.389 . S
C490 C489 1.399 . S
C490 C493 1.380 . S
C490 H500 0.929 . S
C491 C488 1.399 . S
C491 C493 1.392 . S
C491 H501 0.929 . S
C492 C488 1.383 . S
C492 C489 1.389 . S
C492 H502 0.931 . S
C493 C490 1.380 . S
C493 C491 1.392 . S
C493 H503 0.929 . S
C494 O474 1.266 1_455 S
C494 O475 1.248 . S
C495 Tb431 2.802 . S
C495 O470 1.264 . S
C495 O473 1.256 . S
C495 C488 1.496 . S
H496 C479 0.929 . S
H497 C480 0.929 . S
H498 C481 0.929 . S
H499 C482 0.931 . S
H500 C490 0.929 . S
H501 C491 0.929 . S
H502 C492 0.931 . S
H503 C493 0.929 . S
Tb504 N533 2.617 . S
Tb504 N539 2.572 . S
Tb504 O548 2.465 . S
Tb504 O549 2.387 1_556 S
Tb504 O551 2.428 . S
Tb504 O552 2.308 1_556 S
Tb504 O556 2.349 . S
Tb504 O559 2.393 . S
Tb504 C568 2.802 . S
C505 N506 1.379 . S
C505 C508 1.416 . S
C505 C512 1.424 . S
N506 C505 1.379 . S
N506 C509 1.334 . S
N506 Tb515 2.617 . S
C507 C509 1.390 . S
C507 C510 1.339 1_655 S
C507 H527 0.930 1_655 S
C508 C505 1.416 . S
C508 C510 1.416 1_655 S
C508 C514 1.448 1_655 S
C509 N506 1.334 . S
C509 C507 1.390 . S
C509 H520 0.930 . S
C510 C507 1.339 1_455 S
C510 C508 1.416 1_455 S
C510 H531 0.930 . S
C511 C512 1.413 . S
C511 C513 1.427 . S
C511 C517 1.416 . S
C512 C505 1.424 . S
C512 C511 1.413 . S
C512 N516 1.361 . S
C513 C511 1.427 . S
C513 C514 1.328 1_655 S
C513 H528 0.931 1_655 S
C514 C508 1.448 1_455 S
C514 C513 1.328 1_455 S
C514 H529 0.930 . S
Tb515 N506 2.617 . S
Tb515 N516 2.572 . S
Tb515 O550 2.349 . S
Tb515 O553 2.393 . S
Tb515 O554 2.465 . S
Tb515 O555 2.387 1_554 S
Tb515 O557 2.428 . S
Tb515 O558 2.308 . S
Tb515 C579 2.802 . S
N516 C512 1.361 . S
N516 Tb515 2.572 . S
N516 C518 1.340 . S
C517 C511 1.416 . S
C517 C519 1.333 . S
C517 H525 0.931 1_554 S
C518 N516 1.340 . S
C518 C519 1.411 . S
C518 H524 0.930 . S
C519 C517 1.333 . S
C519 C518 1.411 . S
C519 H521 0.925 1_554 S
H520 C509 0.930 . S
H521 C519 0.925 1_556 S
H522 C537 0.930 . S
H523 C544 0.929 . S
H524 C518 0.930 . S
H525 C517 0.931 1_556 S
H526 C540 0.930 . S
H527 C507 0.930 1_455 S
H528 C513 0.931 1_455 S
H529 C514 0.930 . S
H530 C535 0.930 . S
H531 C510 0.930 . S
H532 C543 0.931 . S
N533 Tb504 2.617 . S
N533 C534 1.379 . S
N533 C537 1.334 . S
C534 N533 1.379 . S
C534 C536 1.416 . S
C534 C542 1.424 . S
C535 H530 0.930 . S
C535 C537 1.390 . S
C535 C538 1.339 . S
C536 C534 1.416 . S
C536 C538 1.416 . S
C536 C569 1.448 . S
C537 H522 0.930 . S
C537 N533 1.334 . S
C537 C535 1.390 . S
C538 C535 1.339 . S
C538 C536 1.416 . S
C538 H545 0.930 . S
N539 Tb504 2.572 . S
N539 C540 1.340 1_556 S
N539 C542 1.361 . S
C540 H526 0.930 . S
C540 N539 1.340 1_554 S
C540 C544 1.407 . S
C541 C542 1.413 1_554 S
C541 C543 1.416 . S
C541 C570 1.427 . S
C542 C534 1.424 . S
C542 N539 1.361 . S
C542 C541 1.413 1_556 S
C543 H532 0.931 . S
C543 C541 1.416 . S
C543 C544 1.332 . S
C544 H523 0.929 . S
C544 C540 1.407 . S
C544 C543 1.332 . S
H545 C538 0.930 . S
H546 C569 0.930 . S
H547 C570 0.929 . S
O548 Tb504 2.465 . S
O548 C568 1.264 . S
O549 Tb504 2.387 1_554 S
O549 C560 1.264 . S
O550 Tb515 2.349 . S
O550 C560 1.243 . S
O551 Tb504 2.428 . S
O551 C568 1.256 . S
O552 Tb504 2.308 1_554 S
O552 C567 1.266 . S
O553 Tb515 2.393 . S
O553 C567 1.248 . S
O554 Tb515 2.465 . S
O554 C579 1.264 . S
O555 Tb515 2.387 1_556 S
O555 C571 1.264 . S
O556 Tb504 2.349 . S
O556 C571 1.243 . S
O557 Tb515 2.428 . S
O557 C579 1.256 . S
O558 Tb515 2.308 . S
O558 C578 1.266 1_554 S
O559 Tb504 2.393 . S
O559 C578 1.248 . S
C560 O549 1.264 . S
C560 O550 1.243 . S
C561 C564 1.399 . S
C561 C566 1.383 . S
C561 C568 1.496 . S
C562 C563 1.399 . S
C562 C566 1.389 . S
C563 C562 1.399 . S
C563 C565 1.380 . S
C563 H580 0.929 . S
C564 C561 1.399 . S
C564 C565 1.392 . S
C564 H581 0.929 . S
C565 C563 1.380 . S
C565 C564 1.392 . S
C565 H582 0.929 . S
C566 C561 1.383 . S
C566 C562 1.389 . S
C566 H583 0.931 . S
C567 O552 1.266 . S
C567 O553 1.248 . S
C568 Tb504 2.802 . S
C568 O548 1.264 . S
C568 O551 1.256 . S
C568 C561 1.496 . S
C569 C536 1.448 . S
C569 H546 0.930 . S
C569 C570 1.328 1_556 S
C570 C541 1.427 . S
C570 H547 0.929 . S
C570 C569 1.328 1_554 S
C571 O555 1.264 . S
C571 O556 1.243 . S
C572 C575 1.399 . S
C572 C576 1.383 . S
C572 C579 1.496 . S
C573 C574 1.399 . S
C573 C576 1.389 . S
C574 C573 1.399 . S
C574 C577 1.380 . S
C574 H584 0.929 . S
C575 C572 1.399 . S
C575 C577 1.392 . S
C575 H585 0.929 . S
C576 C572 1.383 . S
C576 C573 1.389 . S
C576 H586 0.931 . S
C577 C574 1.380 . S
C577 C575 1.392 . S
C577 H587 0.929 . S
C578 O558 1.266 1_556 S
C578 O559 1.248 . S
C579 Tb515 2.802 . S
C579 O554 1.264 . S
C579 O557 1.256 . S
C579 C572 1.496 . S
H580 C563 0.929 . S
H581 C564 0.929 . S
H582 C565 0.929 . S
H583 C566 0.931 . S
H584 C574 0.929 . S
H585 C575 0.929 . S
H586 C576 0.931 . S
H587 C577 0.929 . S
Tb588 N617 2.617 . S
Tb588 N623 2.572 . S
Tb588 O632 2.465 . S
Tb588 O633 2.387 . S
Tb588 O635 2.428 . S
Tb588 O636 2.308 . S
Tb588 O640 2.349 . S
Tb588 O643 2.393 . S
Tb588 C652 2.802 . S
C589 N590 1.379 . S
C589 C592 1.416 . S
C589 C596 1.424 . S
N590 C589 1.379 . S
N590 C593 1.334 . S
N590 Tb599 2.617 . S
C591 C593 1.390 . S
C591 C594 1.339 . S
C591 H611 0.930 . S
C592 C589 1.416 . S
C592 C594 1.416 . S
C592 C598 1.448 . S
C593 N590 1.334 . S
C593 C591 1.390 . S
C593 H604 0.930 . S
C594 C591 1.339 . S
C594 C592 1.416 . S
C594 H615 0.930 . S
C595 C596 1.413 . S
C595 C597 1.427 . S
C595 C601 1.416 . S
C596 C589 1.424 . S
C596 C595 1.413 . S
C596 N600 1.361 . S
C597 C595 1.427 . S
C597 C598 1.328 . S
C597 H612 0.929 . S
C598 C592 1.448 . S
C598 C597 1.328 . S
C598 H613 0.930 . S
Tb599 N590 2.617 . S
Tb599 N600 2.572 . S
Tb599 O634 2.349 . S
Tb599 O637 2.393 . S
Tb599 O638 2.465 . S
Tb599 O639 2.387 . S
Tb599 O641 2.428 . S
Tb599 O642 2.308 . S
Tb599 C663 2.802 . S
N600 C596 1.361 . S
N600 Tb599 2.572 . S
N600 C602 1.340 . S
C601 C595 1.416 . S
C601 C603 1.332 . S
C601 H609 0.931 . S
C602 N600 1.340 . S
C602 C603 1.407 . S
C602 H608 0.930 . S
C603 C601 1.332 . S
C603 C602 1.407 . S
C603 H605 0.929 . S
H604 C593 0.930 . S
H605 C603 0.929 . S
H606 C621 0.930 . S
H607 C628 0.929 . S
H608 C602 0.930 . S
H609 C601 0.931 . S
H610 C624 0.930 . S
H611 C591 0.930 . S
H612 C597 0.929 . S
H613 C598 0.930 . S
H614 C619 0.930 . S
H615 C594 0.930 . S
H616 C627 0.931 . S
N617 Tb588 2.617 . S
N617 C618 1.379 . S
N617 C621 1.334 . S
C618 N617 1.379 . S
C618 C620 1.416 . S
C618 C626 1.424 . S
C619 H614 0.930 . S
C619 C621 1.390 . S
C619 C622 1.339 . S
C620 C618 1.416 . S
C620 C622 1.416 . S
C620 C653 1.448 . S
C621 H606 0.930 . S
C621 N617 1.334 . S
C621 C619 1.390 . S
C622 C619 1.339 . S
C622 C620 1.416 . S
C622 H629 0.930 . S
N623 Tb588 2.572 . S
N623 C624 1.340 . S
N623 C626 1.361 . S
C624 H610 0.930 . S
C624 N623 1.340 . S
C624 C628 1.407 . S
C625 C626 1.413 . S
C625 C627 1.416 . S
C625 C654 1.427 . S
C626 C618 1.424 . S
C626 N623 1.361 . S
C626 C625 1.413 . S
C627 H616 0.931 . S
C627 C625 1.416 . S
C627 C628 1.332 . S
C628 H607 0.929 . S
C628 C624 1.407 . S
C628 C627 1.332 . S
H629 C622 0.930 . S
H630 C653 0.930 . S
H631 C654 0.929 . S
O632 Tb588 2.465 . S
O632 C652 1.264 . S
O633 Tb588 2.387 . S
O633 C644 1.264 . S
O634 Tb599 2.349 . S
O634 C644 1.243 . S
O635 Tb588 2.428 . S
O635 C652 1.256 . S
O636 Tb588 2.308 . S
O636 C651 1.266 . S
O637 Tb599 2.393 . S
O637 C651 1.248 . S
O638 Tb599 2.465 . S
O638 C663 1.264 . S
O639 Tb599 2.387 . S
O639 C655 1.264 . S
O640 Tb588 2.349 . S
O640 C655 1.243 . S
O641 Tb599 2.428 . S
O641 C663 1.256 . S
O642 Tb599 2.308 . S
O642 C662 1.266 . S
O643 Tb588 2.393 . S
O643 C662 1.248 . S
C644 O633 1.264 . S
C644 O634 1.243 . S
C645 C648 1.399 . S
C645 C650 1.383 . S
C645 C652 1.496 . S
C646 C647 1.399 . S
C646 C650 1.389 . S
C647 C646 1.399 . S
C647 C649 1.380 . S
C647 H664 0.929 . S
C648 C645 1.399 . S
C648 C649 1.392 . S
C648 H665 0.929 . S
C649 C647 1.380 . S
C649 C648 1.392 . S
C649 H666 0.929 . S
C650 C645 1.383 . S
C650 C646 1.389 . S
C650 H667 0.931 . S
C651 O636 1.266 . S
C651 O637 1.248 . S
C652 Tb588 2.802 . S
C652 O632 1.264 . S
C652 O635 1.256 . S
C652 C645 1.496 . S
C653 C620 1.448 . S
C653 H630 0.930 . S
C653 C654 1.328 . S
C654 C625 1.427 . S
C654 H631 0.929 . S
C654 C653 1.328 . S
C655 O639 1.264 . S
C655 O640 1.243 . S
C656 C659 1.399 . S
C656 C660 1.383 . S
C656 C663 1.496 . S
C657 C658 1.399 . S
C657 C660 1.389 . S
C658 C657 1.399 . S
C658 C661 1.380 . S
C658 H668 0.929 . S
C659 C656 1.399 . S
C659 C661 1.392 . S
C659 H669 0.929 . S
C660 C656 1.383 . S
C660 C657 1.389 . S
C660 H670 0.931 . S
C661 C658 1.380 . S
C661 C659 1.392 . S
C661 H671 0.929 . S
C662 O642 1.266 . S
C662 O643 1.248 . S
C663 Tb599 2.802 . S
C663 O638 1.264 . S
C663 O641 1.256 . S
C663 C656 1.496 . S
H664 C647 0.929 . S
H665 C648 0.929 . S
H666 C649 0.929 . S
H667 C650 0.931 . S
H668 C658 0.929 . S
H669 C659 0.929 . S
H670 C660 0.931 . S
H671 C661 0.929 . S
Tb672 N701 2.617 . S
Tb672 N707 2.572 . S
Tb672 O716 2.465 . S
Tb672 O717 2.387 . S
Tb672 O719 2.428 . S
Tb672 O720 2.308 . S
Tb672 O724 2.349 . S
Tb672 O727 2.393 . S
Tb672 C736 2.802 . S
C673 N674 1.379 . S
C673 C676 1.416 . S
C673 C680 1.424 . S
N674 C673 1.379 . S
N674 C677 1.334 . S
N674 Tb683 2.617 . S
C675 C677 1.390 . S
C675 C678 1.339 . S
C675 H695 0.930 . S
C676 C673 1.416 . S
C676 C678 1.416 . S
C676 C682 1.448 . S
C677 N674 1.334 . S
C677 C675 1.390 . S
C677 H688 0.930 . S
C678 C675 1.339 . S
C678 C676 1.416 . S
C678 H699 0.930 . S
C679 C680 1.413 . S
C679 C681 1.427 . S
C679 C685 1.416 . S
C680 C673 1.424 . S
C680 C679 1.413 . S
C680 N684 1.361 . S
C681 C679 1.427 . S
C681 C682 1.328 . S
C681 H696 0.929 . S
C682 C676 1.448 . S
C682 C681 1.328 . S
C682 H697 0.930 . S
Tb683 N674 2.617 . S
Tb683 N684 2.572 . S
Tb683 O718 2.349 . S
Tb683 O721 2.393 . S
Tb683 O722 2.465 . S
Tb683 O723 2.387 . S
Tb683 O725 2.428 . S
Tb683 O726 2.308 . S
Tb683 C747 2.802 . S
N684 C680 1.361 . S
N684 Tb683 2.572 . S
N684 C686 1.340 . S
C685 C679 1.416 . S
C685 C687 1.332 . S
C685 H693 0.931 . S
C686 N684 1.340 . S
C686 C687 1.407 . S
C686 H692 0.930 . S
C687 C685 1.332 . S
C687 C686 1.407 . S
C687 H689 0.929 . S
H688 C677 0.930 . S
H689 C687 0.929 . S
H690 C705 0.930 . S
H691 C712 0.929 . S
H692 C686 0.930 . S
H693 C685 0.931 . S
H694 C708 0.930 . S
H695 C675 0.930 . S
H696 C681 0.929 . S
H697 C682 0.930 . S
H698 C703 0.934 . S
H699 C678 0.930 . S
H700 C711 0.931 . S
N701 Tb672 2.617 . S
N701 C702 1.379 . S
N701 C705 1.334 . S
C702 N701 1.379 . S
C702 C704 1.416 . S
C702 C710 1.424 . S
C703 H698 0.934 . S
C703 C705 1.383 1_556 S
C703 C706 1.342 . S
C704 C702 1.416 . S
C704 C706 1.416 1_554 S
C704 C737 1.448 1_554 S
C705 H690 0.930 . S
C705 N701 1.334 . S
C705 C703 1.383 1_554 S
C706 C703 1.342 . S
C706 C704 1.416 1_556 S
C706 H713 0.930 . S
N707 Tb672 2.572 . S
N707 C708 1.340 . S
N707 C710 1.361 . S
C708 H694 0.930 . S
C708 N707 1.340 . S
C708 C712 1.407 . S
C709 C710 1.413 . S
C709 C711 1.416 . S
C709 C738 1.427 . S
C710 C702 1.424 . S
C710 N707 1.361 . S
C710 C709 1.413 . S
C711 H700 0.931 . S
C711 C709 1.416 . S
C711 C712 1.332 . S
C712 H691 0.929 . S
C712 C708 1.407 . S
C712 C711 1.332 . S
H713 C706 0.930 . S
H714 C737 0.930 . S
H715 C738 0.929 1_556 S
O716 Tb672 2.465 . S
O716 C736 1.264 . S
O717 Tb672 2.387 . S
O717 C728 1.264 . S
O718 Tb683 2.349 . S
O718 C728 1.243 . S
O719 Tb672 2.428 . S
O719 C736 1.256 . S
O720 Tb672 2.308 . S
O720 C735 1.266 . S
O721 Tb683 2.393 . S
O721 C735 1.248 . S
O722 Tb683 2.465 . S
O722 C747 1.264 . S
O723 Tb683 2.387 . S
O723 C739 1.264 . S
O724 Tb672 2.349 . S
O724 C739 1.243 . S
O725 Tb683 2.428 . S
O725 C747 1.256 . S
O726 Tb683 2.308 . S
O726 C746 1.266 . S
O727 Tb672 2.393 . S
O727 C746 1.248 . S
C728 O717 1.264 . S
C728 O718 1.243 . S
C729 C732 1.399 . S
C729 C734 1.383 . S
C729 C736 1.496 . S
C730 C731 1.399 . S
C730 C734 1.389 . S
C731 C730 1.399 . S
C731 C733 1.380 . S
C731 H748 0.929 . S
C732 C729 1.399 . S
C732 C733 1.392 . S
C732 H749 0.929 . S
C733 C731 1.380 . S
C733 C732 1.392 . S
C733 H750 0.929 . S
C734 C729 1.383 . S
C734 C730 1.389 . S
C734 H751 0.931 . S
C735 O720 1.266 . S
C735 O721 1.248 . S
C736 Tb672 2.802 . S
C736 O716 1.264 . S
C736 O719 1.256 . S
C736 C729 1.496 . S
C737 C704 1.448 1_556 S
C737 H714 0.930 . S
C737 C738 1.328 1_556 S
C738 C709 1.427 . S
C738 H715 0.929 1_554 S
C738 C737 1.328 1_554 S
C739 O723 1.264 . S
C739 O724 1.243 . S
C740 C743 1.399 . S
C740 C744 1.383 . S
C740 C747 1.496 . S
C741 C742 1.399 . S
C741 C744 1.389 . S
C742 C741 1.399 . S
C742 C745 1.380 . S
C742 H752 0.929 . S
C743 C740 1.399 . S
C743 C745 1.392 . S
C743 H753 0.929 . S
C744 C740 1.383 . S
C744 C741 1.389 . S
C744 H754 0.931 . S
C745 C742 1.380 . S
C745 C743 1.392 . S
C745 H755 0.929 . S
C746 O726 1.266 . S
C746 O727 1.248 . S
C747 Tb683 2.802 . S
C747 O722 1.264 . S
C747 O725 1.256 . S
C747 C740 1.496 . S
H748 C731 0.929 . S
H749 C732 0.929 . S
H750 C733 0.929 . S
H751 C734 0.931 . S
H752 C742 0.929 . S
H753 C743 0.929 . S
H754 C744 0.931 . S
H755 C745 0.929 . S
Tb756 N785 2.617 . S
Tb756 N791 2.572 . S
Tb756 O800 2.465 . S
Tb756 O801 2.387 1_565 S
Tb756 O803 2.428 . S
Tb756 O804 2.308 1_565 S
Tb756 O808 2.349 . S
Tb756 O811 2.393 . S
Tb756 C820 2.802 . S
C757 N758 1.379 . S
C757 C760 1.416 . S
C757 C764 1.424 . S
N758 C757 1.379 . S
N758 C761 1.334 . S
N758 Tb767 2.617 . S
C759 C761 1.390 . S
C759 C762 1.339 1_556 S
C759 H779 0.930 1_556 S
C760 C757 1.416 . S
C760 C762 1.416 1_556 S
C760 C766 1.448 1_556 S
C761 N758 1.334 . S
C761 C759 1.390 . S
C761 H772 0.930 . S
C762 C759 1.339 1_554 S
C762 C760 1.416 1_554 S
C762 H783 0.930 . S
C763 C764 1.413 . S
C763 C765 1.427 . S
C763 C769 1.416 . S
C764 C757 1.424 . S
C764 C763 1.413 . S
C764 N768 1.361 . S
C765 C763 1.427 . S
C765 C766 1.328 1_556 S
C765 H780 0.929 . S
C766 C760 1.448 1_554 S
C766 C765 1.328 1_554 S
C766 H781 0.930 . S
Tb767 N758 2.617 . S
Tb767 N768 2.572 . S
Tb767 O802 2.349 . S
Tb767 O805 2.393 . S
Tb767 O806 2.465 . S
Tb767 O807 2.387 1_545 S
Tb767 O809 2.428 . S
Tb767 O810 2.308 . S
Tb767 C831 2.802 . S
N768 C764 1.361 . S
N768 Tb767 2.572 . S
N768 C770 1.340 . S
C769 C763 1.416 . S
C769 C771 1.332 1_545 S
C769 H777 0.931 1_545 S
C770 N768 1.340 . S
C770 C771 1.407 1_545 S
C770 H776 0.930 . S
C771 C769 1.332 1_565 S
C771 C770 1.407 1_565 S
C771 H773 0.930 . S
H772 C761 0.930 . S
H773 C771 0.930 . S
H774 C789 0.930 . S
H775 C796 0.929 . S
H776 C770 0.930 . S
H777 C769 0.931 1_565 S
H778 C792 0.930 . S
H779 C759 0.930 1_554 S
H780 C765 0.929 . S
H781 C766 0.930 . S
H782 C787 0.930 . S
H783 C762 0.930 . S
H784 C795 0.931 . S
N785 Tb756 2.617 . S
N785 C786 1.379 . S
N785 C789 1.334 . S
C786 N785 1.379 . S
C786 C788 1.416 . S
C786 C794 1.424 . S
C787 H782 0.930 . S
C787 C789 1.390 . S
C787 C790 1.339 . S
C788 C786 1.416 . S
C788 C790 1.416 . S
C788 C821 1.448 . S
C789 H774 0.930 . S
C789 N785 1.334 . S
C789 C787 1.390 . S
C790 C787 1.339 . S
C790 C788 1.416 . S
C790 H797 0.930 . S
N791 Tb756 2.572 . S
N791 C792 1.340 1_565 S
N791 C794 1.361 . S
C792 H778 0.930 . S
C792 N791 1.340 1_545 S
C792 C796 1.407 . S
C793 C794 1.413 1_545 S
C793 C795 1.416 . S
C793 C822 1.427 . S
C794 C786 1.424 . S
C794 N791 1.361 . S
C794 C793 1.413 1_565 S
C795 H784 0.931 . S
C795 C793 1.416 . S
C795 C796 1.332 . S
C796 H775 0.929 . S
C796 C792 1.407 . S
C796 C795 1.332 . S
H797 C790 0.930 . S
H798 C821 0.930 . S
H799 C822 0.929 . S
O800 Tb756 2.465 . S
O800 C820 1.264 . S
O801 Tb756 2.387 1_545 S
O801 C812 1.264 . S
O802 Tb767 2.349 . S
O802 C812 1.243 . S
O803 Tb756 2.428 . S
O803 C820 1.256 . S
O804 Tb756 2.308 1_545 S
O804 C819 1.266 . S
O805 Tb767 2.393 . S
O805 C819 1.248 . S
O806 Tb767 2.465 . S
O806 C831 1.264 . S
O807 Tb767 2.387 1_565 S
O807 C823 1.264 . S
O808 Tb756 2.349 . S
O808 C823 1.243 . S
O809 Tb767 2.428 . S
O809 C831 1.256 . S
O810 Tb767 2.308 . S
O810 C830 1.266 1_545 S
O811 Tb756 2.393 . S
O811 C830 1.248 . S
C812 O801 1.264 . S
C812 O802 1.243 . S
C813 C816 1.399 . S
C813 C818 1.383 . S
C813 C820 1.496 . S
C814 C815 1.399 . S
C814 C818 1.389 . S
C815 C814 1.399 . S
C815 C817 1.380 . S
C815 H832 0.929 . S
C816 C813 1.399 . S
C816 C817 1.392 . S
C816 H833 0.929 . S
C817 C815 1.380 . S
C817 C816 1.392 . S
C817 H834 0.929 . S
C818 C813 1.383 . S
C818 C814 1.389 . S
C818 H835 0.931 . S
C819 O804 1.266 . S
C819 O805 1.248 . S
C820 Tb756 2.802 . S
C820 O800 1.264 . S
C820 O803 1.256 . S
C820 C813 1.496 . S
C821 C788 1.448 . S
C821 H798 0.930 . S
C821 C822 1.328 1_565 S
C822 C793 1.427 . S
C822 H799 0.929 . S
C822 C821 1.328 1_545 S
C823 O807 1.264 . S
C823 O808 1.243 . S
C824 C827 1.399 . S
C824 C828 1.383 . S
C824 C831 1.496 . S
C825 C826 1.399 . S
C825 C828 1.389 . S
C826 C825 1.399 . S
C826 C829 1.380 . S
C826 H836 0.929 . S
C827 C824 1.399 . S
C827 C829 1.392 . S
C827 H837 0.929 . S
C828 C824 1.383 . S
C828 C825 1.389 . S
C828 H838 0.931 . S
C829 C826 1.380 . S
C829 C827 1.392 . S
C829 H839 0.929 . S
C830 O810 1.266 1_565 S
C830 O811 1.248 . S
C831 Tb767 2.802 . S
C831 O806 1.264 . S
C831 O809 1.256 . S
C831 C824 1.496 . S
H832 C815 0.929 . S
H833 C816 0.929 . S
H834 C817 0.929 . S
H835 C818 0.931 . S
H836 C826 0.929 . S
H837 C827 0.929 . S
H838 C828 0.931 . S
H839 C829 0.929 . S
Tb840 N869 2.617 . S
Tb840 N875 2.572 . S
Tb840 O884 2.465 . S
Tb840 O885 2.387 . S
Tb840 O887 2.428 . S
Tb840 O888 2.308 . S
Tb840 O892 2.349 . S
Tb840 O895 2.393 1_565 S
Tb840 C904 2.802 . S
C841 N842 1.379 . S
C841 C844 1.416 . S
C841 C848 1.424 . S
N842 C841 1.379 . S
N842 C845 1.334 . S
N842 Tb851 2.617 . S
C843 C845 1.390 . S
C843 C846 1.339 . S
C843 H863 0.930 1_545 S
C844 C841 1.416 . S
C844 C846 1.416 . S
C844 C850 1.448 . S
C845 N842 1.334 . S
C845 C843 1.390 . S
C845 H856 0.930 1_545 S
C846 C843 1.339 . S
C846 C844 1.416 . S
C846 H867 0.930 . S
C847 C848 1.413 . S
C847 C849 1.427 . S
C847 C853 1.416 . S
C848 C841 1.424 . S
C848 C847 1.413 . S
C848 N852 1.361 . S
C849 C847 1.427 . S
C849 C850 1.328 . S
C849 H864 0.929 . S
C850 C844 1.448 . S
C850 C849 1.328 . S
C850 H865 0.930 . S
Tb851 N842 2.617 . S
Tb851 N852 2.572 . S
Tb851 O886 2.349 1_545 S
Tb851 O889 2.393 1_545 S
Tb851 O890 2.465 . S
Tb851 O891 2.387 . S
Tb851 O893 2.428 . S
Tb851 O894 2.308 . S
Tb851 C915 2.802 . S
N852 C848 1.361 . S
N852 Tb851 2.572 . S
N852 C854 1.340 . S
C853 C847 1.416 . S
C853 C855 1.332 . S
C853 H861 0.931 . S
C854 N852 1.340 . S
C854 C855 1.407 . S
C854 H860 0.930 . S
C855 C853 1.332 . S
C855 C854 1.407 . S
C855 H857 0.929 . S
H856 C845 0.930 1_565 S
H857 C855 0.929 . S
H858 C873 0.930 . S
H859 C880 0.929 . S
H860 C854 0.930 . S
H861 C853 0.931 . S
H862 C876 0.930 . S
H863 C843 0.930 1_565 S
H864 C849 0.929 . S
H865 C850 0.930 . S
H866 C871 0.930 . S
H867 C846 0.930 . S
H868 C879 0.931 . S
N869 Tb840 2.617 . S
N869 C870 1.379 . S
N869 C873 1.334 . S
C870 N869 1.379 . S
C870 C872 1.416 . S
C870 C878 1.424 . S
C871 H866 0.930 . S
C871 C873 1.390 . S
C871 C874 1.339 . S
C872 C870 1.416 . S
C872 C874 1.416 . S
C872 C905 1.448 . S
C873 H858 0.930 . S
C873 N869 1.334 . S
C873 C871 1.390 . S
C874 C871 1.339 . S
C874 C872 1.416 . S
C874 H881 0.930 . S
N875 Tb840 2.572 . S
N875 C876 1.340 . S
N875 C878 1.361 . S
C876 H862 0.930 . S
C876 N875 1.340 . S
C876 C880 1.407 . S
C877 C878 1.413 . S
C877 C879 1.416 . S
C877 C906 1.427 . S
C878 C870 1.424 . S
C878 N875 1.361 . S
C878 C877 1.413 . S
C879 H868 0.931 . S
C879 C877 1.416 . S
C879 C880 1.332 . S
C880 H859 0.929 . S
C880 C876 1.407 . S
C880 C879 1.332 . S
H881 C874 0.930 . S
H882 C905 0.930 . S
H883 C906 0.929 . S
O884 Tb840 2.465 . S
O884 C904 1.264 . S
O885 Tb840 2.387 . S
O885 C896 1.264 . S
O886 Tb851 2.349 1_565 S
O886 C896 1.243 . S
O887 Tb840 2.428 . S
O887 C904 1.256 . S
O888 Tb840 2.308 . S
O888 C903 1.266 . S
O889 Tb851 2.393 1_565 S
O889 C903 1.248 . S
O890 Tb851 2.465 . S
O890 C915 1.264 . S
O891 Tb851 2.387 . S
O891 C907 1.264 . S
O892 Tb840 2.349 . S
O892 C907 1.243 1_565 S
O893 Tb851 2.428 . S
O893 C915 1.256 . S
O894 Tb851 2.308 . S
O894 C914 1.266 . S
O895 Tb840 2.393 1_545 S
O895 C914 1.248 . S
C896 O885 1.264 . S
C896 O886 1.243 . S
C897 C900 1.399 . S
C897 C902 1.383 . S
C897 C904 1.496 . S
C898 C899 1.399 . S
C898 C902 1.389 . S
C899 C898 1.399 . S
C899 C901 1.380 . S
C899 H916 0.929 . S
C900 C897 1.399 . S
C900 C901 1.392 . S
C900 H917 0.929 . S
C901 C899 1.380 . S
C901 C900 1.392 . S
C901 H918 0.929 . S
C902 C897 1.383 . S
C902 C898 1.389 . S
C902 H919 0.931 . S
C903 O888 1.266 . S
C903 O889 1.248 . S
C904 Tb840 2.802 . S
C904 O884 1.264 . S
C904 O887 1.256 . S
C904 C897 1.496 . S
C905 C872 1.448 . S
C905 H882 0.930 . S
C905 C906 1.328 . S
C906 C877 1.427 . S
C906 H883 0.929 . S
C906 C905 1.328 . S
C907 O891 1.264 . S
C907 O892 1.243 1_545 S
C908 C911 1.399 . S
C908 C912 1.383 . S
C908 C915 1.496 . S
C909 C910 1.399 . S
C909 C912 1.389 . S
C910 C909 1.399 . S
C910 C913 1.380 . S
C910 H920 0.929 . S
C911 C908 1.399 . S
C911 C913 1.392 . S
C911 H921 0.929 . S
C912 C908 1.383 . S
C912 C909 1.389 . S
C912 H922 0.931 . S
C913 C910 1.380 . S
C913 C911 1.392 . S
C913 H923 0.929 . S
C914 O894 1.266 . S
C914 O895 1.248 . S
C915 Tb851 2.802 . S
C915 O890 1.264 . S
C915 O893 1.256 . S
C915 C908 1.496 . S
H916 C899 0.929 . S
H917 C900 0.929 . S
H918 C901 0.929 . S
H919 C902 0.931 . S
H920 C910 0.929 . S
H921 C911 0.929 . S
H922 C912 0.931 . S
H923 C913 0.929 . S
Tb924 N953 2.617 . S
Tb924 N959 2.572 . S
Tb924 O968 2.465 . S
Tb924 O969 2.387 . S
Tb924 O971 2.428 . S
Tb924 O972 2.308 . S
Tb924 O976 2.349 . S
Tb924 O979 2.393 . S
Tb924 C988 2.802 . S
C925 N926 1.379 . S
C925 C928 1.416 . S
C925 C932 1.424 . S
N926 C925 1.379 . S
N926 C929 1.334 . S
N926 Tb935 2.617 . S
C927 C929 1.390 . S
C927 C930 1.339 . S
C927 H947 0.930 . S
C928 C925 1.416 . S
C928 C930 1.416 . S
C928 C934 1.448 . S
C929 N926 1.334 . S
C929 C927 1.390 . S
C929 H940 0.930 . S
C930 C927 1.339 . S
C930 C928 1.416 . S
C930 H951 0.930 . S
C931 C932 1.413 . S
C931 C933 1.427 . S
C931 C937 1.416 . S
C932 C925 1.424 . S
C932 C931 1.413 . S
C932 N936 1.361 . S
C933 C931 1.427 . S
C933 C934 1.328 . S
C933 H948 0.929 . S
C934 C928 1.448 . S
C934 C933 1.328 . S
C934 H949 0.930 . S
Tb935 N926 2.617 . S
Tb935 N936 2.572 . S
Tb935 O970 2.349 . S
Tb935 O973 2.393 . S
Tb935 O974 2.465 . S
Tb935 O975 2.387 . S
Tb935 O977 2.428 . S
Tb935 O978 2.308 . S
Tb935 C999 2.802 . S
N936 C932 1.361 . S
N936 Tb935 2.572 . S
N936 C938 1.340 . S
C937 C931 1.416 . S
C937 C939 1.332 . S
C937 H945 0.931 . S
C938 N936 1.340 . S
C938 C939 1.407 . S
C938 H944 0.930 . S
C939 C937 1.332 . S
C939 C938 1.407 . S
C939 H941 0.929 . S
H940 C929 0.930 . S
H941 C939 0.929 . S
H942 C957 0.930 . S
H943 C964 0.929 . S
H944 C938 0.930 . S
H945 C937 0.931 . S
H946 C960 0.930 . S
H947 C927 0.930 . S
H948 C933 0.929 . S
H949 C934 0.930 . S
H950 C955 0.930 . S
H951 C930 0.930 . S
H952 C963 0.931 . S
N953 Tb924 2.617 . S
N953 C954 1.379 . S
N953 C957 1.334 . S
C954 N953 1.379 . S
C954 C956 1.416 . S
C954 C962 1.424 . S
C955 H950 0.930 . S
C955 C957 1.390 . S
C955 C958 1.339 . S
C956 C954 1.416 . S
C956 C958 1.416 . S
C956 C989 1.448 . S
C957 H942 0.930 . S
C957 N953 1.334 . S
C957 C955 1.390 . S
C958 C955 1.339 . S
C958 C956 1.416 . S
C958 H965 0.930 . S
N959 Tb924 2.572 . S
N959 C960 1.340 . S
N959 C962 1.361 . S
C960 H946 0.930 . S
C960 N959 1.340 . S
C960 C964 1.407 . S
C961 C962 1.413 . S
C961 C963 1.416 . S
C961 C990 1.427 . S
C962 C954 1.424 . S
C962 N959 1.361 . S
C962 C961 1.413 . S
C963 H952 0.931 . S
C963 C961 1.416 . S
C963 C964 1.332 . S
C964 H943 0.929 . S
C964 C960 1.407 . S
C964 C963 1.332 . S
H965 C958 0.930 . S
H966 C989 0.930 . S
H967 C990 0.929 . S
O968 Tb924 2.465 . S
O968 C988 1.264 . S
O969 Tb924 2.387 . S
O969 C980 1.264 . S
O970 Tb935 2.349 . S
O970 C980 1.243 . S
O971 Tb924 2.428 . S
O971 C988 1.256 . S
O972 Tb924 2.308 . S
O972 C987 1.266 . S
O973 Tb935 2.393 . S
O973 C987 1.248 . S
O974 Tb935 2.465 . S
O974 C999 1.264 . S
O975 Tb935 2.387 . S
O975 C991 1.264 . S
O976 Tb924 2.349 . S
O976 C991 1.243 . S
O977 Tb935 2.428 . S
O977 C999 1.256 . S
O978 Tb935 2.308 . S
O978 C998 1.266 . S
O979 Tb924 2.393 . S
O979 C998 1.248 . S
C980 O969 1.264 . S
C980 O970 1.243 . S
C981 C984 1.399 . S
C981 C986 1.383 . S
C981 C988 1.496 . S
C982 C983 1.399 . S
C982 C986 1.389 . S
C983 C982 1.399 . S
C983 C985 1.380 . S
C983 H1000 0.929 . S
C984 C981 1.399 . S
C984 C985 1.392 . S
C984 H1001 0.929 . S
C985 C983 1.380 . S
C985 C984 1.392 . S
C985 H1002 0.929 . S
C986 C981 1.383 . S
C986 C982 1.389 . S
C986 H1003 0.931 . S
C987 O972 1.266 . S
C987 O973 1.248 . S
C988 Tb924 2.802 . S
C988 O968 1.264 . S
C988 O971 1.256 . S
C988 C981 1.496 . S
C989 C956 1.448 . S
C989 H966 0.930 . S
C989 C990 1.328 . S
C990 C961 1.427 . S
C990 H967 0.929 . S
C990 C989 1.328 . S
C991 O975 1.264 . S
C991 O976 1.243 . S
C992 C995 1.399 . S
C992 C996 1.383 . S
C992 C999 1.496 . S
C993 C994 1.399 . S
C993 C996 1.389 . S
C994 C993 1.399 . S
C994 C997 1.380 . S
C994 H1004 0.929 . S
C995 C992 1.399 . S
C995 C997 1.392 . S
C995 H1005 0.929 . S
C996 C992 1.383 . S
C996 C993 1.389 . S
C996 H1006 0.931 . S
C997 C994 1.380 . S
C997 C995 1.392 . S
C997 H1007 0.929 . S
C998 O978 1.266 . S
C998 O979 1.248 . S
C999 Tb935 2.802 . S
C999 O974 1.264 . S
C999 O977 1.256 . S
C999 C992 1.496 . S
H1000 C983 0.929 . S
H1001 C984 0.929 . S
H1002 C985 0.929 . S
H1003 C986 0.931 . S
H1004 C994 0.929 . S
H1005 C995 0.929 . S
H1006 C996 0.931 . S
H1007 C997 0.929 . S
H1008 C1020 0.930 . S
H1009 C1022 0.930 . S
H1010 C1023 0.930 . S
H1011 C1027 0.959 . S
H1012 C1027 0.959 . S
H1013 C1027 0.961 . S
H1014 C1028 0.960 . S
H1015 C1028 0.961 . S
H1016 C1028 0.959 . S
H1017 C1031 0.929 . S
H1018 C1032 0.931 . S
H1019 C1034 0.930 . S
C1020 H1008 0.930 . S
C1020 C1021 1.399 . S
C1020 C1025 1.399 . S
C1021 C1020 1.399 . S
C1021 C1022 1.376 . S
C1022 H1009 0.930 . S
C1022 C1021 1.376 . S
C1022 C1023 1.388 . S
C1023 H1010 0.930 . S
C1023 C1022 1.388 . S
C1023 C1024 1.390 . S
C1024 C1023 1.390 . S
C1024 C1025 1.394 . S
C1024 C1030 1.465 . S
C1025 C1020 1.399 . S
C1025 C1024 1.394 . S
C1025 C1026 1.516 . S
C1026 C1025 1.516 . S
C1026 C1027 1.502 . S
C1026 C1028 1.561 . S
C1026 C1029 1.526 . S
C1027 H1011 0.959 . S
C1027 H1012 0.959 . S
C1027 H1013 0.961 . S
C1027 C1026 1.502 . S
C1028 H1014 0.960 . S
C1028 H1015 0.961 . S
C1028 H1016 0.959 . S
C1028 C1026 1.561 . S
C1029 C1026 1.526 . S
C1029 C1030 1.396 . S
C1029 C1034 1.390 . S
C1030 C1024 1.465 . S
C1030 C1029 1.396 . S
C1030 C1031 1.399 . S
C1031 H1017 0.929 . S
C1031 C1030 1.399 . S
C1031 C1032 1.385 . S
C1032 H1018 0.931 . S
C1032 C1031 1.385 . S
C1032 C1033 1.389 . S
C1033 C1032 1.389 . S
C1033 C1034 1.387 . S
C1034 H1019 0.930 . S
C1034 C1029 1.390 . S
C1034 C1033 1.387 . S
H1035 C1047 0.930 . S
H1036 C1049 0.930 . S
H1037 C1050 0.930 . S
H1038 C1054 0.959 . S
H1039 C1054 0.959 . S
H1040 C1054 0.961 . S
H1041 C1055 0.962 1_545 S
H1042 C1055 0.961 . S
H1043 C1055 0.959 1_545 S
H1044 C1058 0.929 . S
H1045 C1059 0.931 . S
H1046 C1061 0.930 . S
C1047 H1035 0.930 . S
C1047 C1048 1.399 . S
C1047 C1052 1.399 . S
C1048 C1047 1.399 . S
C1048 C1049 1.376 . S
C1049 H1036 0.930 . S
C1049 C1048 1.376 . S
C1049 C1050 1.388 . S
C1050 H1037 0.930 . S
C1050 C1049 1.388 . S
C1050 C1051 1.390 . S
C1051 C1050 1.390 . S
C1051 C1052 1.394 . S
C1051 C1057 1.465 . S
C1052 C1047 1.399 . S
C1052 C1051 1.394 . S
C1052 C1053 1.516 . S
C1053 C1052 1.516 . S
C1053 C1054 1.502 . S
C1053 C1055 1.561 . S
C1053 C1056 1.526 . S
C1054 H1038 0.959 . S
C1054 H1039 0.959 . S
C1054 H1040 0.961 . S
C1054 C1053 1.502 . S
C1055 H1041 0.962 1_565 S
C1055 H1042 0.961 . S
C1055 H1043 0.959 1_565 S
C1055 C1053 1.561 . S
C1056 C1053 1.526 . S
C1056 C1057 1.396 . S
C1056 C1061 1.390 . S
C1057 C1051 1.465 . S
C1057 C1056 1.396 . S
C1057 C1058 1.399 . S
C1058 H1044 0.929 . S
C1058 C1057 1.399 . S
C1058 C1059 1.385 . S
C1059 H1045 0.931 . S
C1059 C1058 1.385 . S
C1059 C1060 1.389 . S
C1060 C1059 1.389 . S
C1060 C1061 1.387 . S
C1061 H1046 0.930 . S
C1061 C1056 1.390 . S
C1061 C1060 1.387 . S
H1062 C1074 0.930 . S
H1063 C1076 0.915 1_556 S
H1064 C1077 0.930 1_556 S
H1065 C1081 0.959 . S
H1066 C1081 0.959 . S
H1067 C1081 0.961 . S
H1068 C1082 0.960 . S
H1069 C1082 0.961 . S
H1070 C1082 0.959 . S
H1071 C1085 0.929 . S
H1072 C1086 0.931 . S
H1073 C1088 0.930 . S
C1074 H1062 0.930 . S
C1074 C1075 1.399 . S
C1074 C1079 1.399 . S
C1075 C1074 1.399 . S
C1075 C1076 1.387 . S
C1076 H1063 0.915 1_554 S
C1076 C1075 1.387 . S
C1076 C1077 1.393 . S
C1077 H1064 0.930 1_554 S
C1077 C1076 1.393 . S
C1077 C1078 1.390 . S
C1078 C1077 1.390 . S
C1078 C1079 1.394 . S
C1078 C1084 1.465 . S
C1079 C1074 1.399 . S
C1079 C1078 1.394 . S
C1079 C1080 1.516 . S
C1080 C1079 1.516 . S
C1080 C1081 1.502 . S
C1080 C1082 1.561 . S
C1080 C1083 1.526 . S
C1081 H1065 0.959 . S
C1081 H1066 0.959 . S
C1081 H1067 0.961 . S
C1081 C1080 1.502 . S
C1082 H1068 0.960 . S
C1082 H1069 0.961 . S
C1082 H1070 0.959 . S
C1082 C1080 1.561 . S
C1083 C1080 1.526 . S
C1083 C1084 1.396 . S
C1083 C1088 1.390 . S
C1084 C1078 1.465 . S
C1084 C1083 1.396 . S
C1084 C1085 1.399 . S
C1085 H1071 0.929 . S
C1085 C1084 1.399 . S
C1085 C1086 1.385 . S
C1086 H1072 0.931 . S
C1086 C1085 1.385 . S
C1086 C1087 1.389 . S
C1087 C1086 1.389 . S
C1087 C1088 1.387 . S
C1088 H1073 0.930 . S
C1088 C1083 1.390 . S
C1088 C1087 1.387 . S
H1089 C1101 0.930 . S
H1090 C1103 0.930 . S
H1091 C1104 0.903 1_565 S
H1092 C1108 0.959 . S
H1093 C1108 0.959 . S
H1094 C1108 0.961 . S
H1095 C1109 0.960 . S
H1096 C1109 0.961 . S
H1097 C1109 0.959 . S
H1098 C1112 0.929 . S
H1099 C1113 0.931 . S
H1100 C1115 0.930 . S
C1101 H1089 0.930 . S
C1101 C1102 1.399 . S
C1101 C1106 1.399 . S
C1102 C1101 1.399 . S
C1102 C1103 1.376 . S
C1103 H1090 0.930 . S
C1103 C1102 1.376 . S
C1103 C1104 1.388 . S
C1104 H1091 0.903 1_545 S
C1104 C1103 1.388 . S
C1104 C1105 1.390 . S
C1105 C1104 1.390 . S
C1105 C1106 1.394 . S
C1105 C1111 1.465 . S
C1106 C1101 1.399 . S
C1106 C1105 1.394 . S
C1106 C1107 1.516 . S
C1107 C1106 1.516 . S
C1107 C1108 1.502 . S
C1107 C1109 1.561 . S
C1107 C1110 1.526 . S
C1108 H1092 0.959 . S
C1108 H1093 0.959 . S
C1108 H1094 0.961 . S
C1108 C1107 1.502 . S
C1109 H1095 0.960 . S
C1109 H1096 0.961 . S
C1109 H1097 0.959 . S
C1109 C1107 1.561 . S
C1110 C1107 1.526 . S
C1110 C1111 1.396 . S
C1110 C1115 1.390 . S
C1111 C1105 1.465 . S
C1111 C1110 1.396 . S
C1111 C1112 1.399 1_545 S
C1112 H1098 0.929 . S
C1112 C1111 1.399 1_565 S
C1112 C1113 1.385 . S
C1113 H1099 0.931 . S
C1113 C1112 1.385 . S
C1113 C1114 1.389 1_565 S
C1114 C1113 1.389 1_545 S
C1114 C1115 1.387 . S
C1115 H1100 0.930 . S
C1115 C1110 1.390 . S
C1115 C1114 1.387 . S
H1116 C1128 0.930 . S
H1117 C1130 0.930 . S
H1118 C1131 0.930 . S
H1119 C1135 0.959 . S
H1120 C1135 0.959 . S
H1121 C1135 0.961 . S
H1122 C1136 0.960 . S
H1123 C1136 0.961 . S
H1124 C1136 0.959 . S
H1125 C1139 0.929 . S
H1126 C1140 0.931 . S
H1127 C1142 0.930 . S
C1128 H1116 0.930 . S
C1128 C1129 1.399 . S
C1128 C1133 1.399 . S
C1129 C1128 1.399 . S
C1129 C1130 1.376 . S
C1130 H1117 0.930 . S
C1130 C1129 1.376 . S
C1130 C1131 1.388 . S
C1131 H1118 0.930 . S
C1131 C1130 1.388 . S
C1131 C1132 1.390 . S
C1132 C1131 1.390 . S
C1132 C1133 1.394 . S
C1132 C1138 1.465 . S
C1133 C1128 1.399 . S
C1133 C1132 1.394 . S
C1133 C1134 1.516 . S
C1134 C1133 1.516 . S
C1134 C1135 1.502 . S
C1134 C1136 1.561 . S
C1134 C1137 1.526 . S
C1135 H1119 0.959 . S
C1135 H1120 0.959 . S
C1135 H1121 0.961 . S
C1135 C1134 1.502 . S
C1136 H1122 0.960 . S
C1136 H1123 0.961 . S
C1136 H1124 0.959 . S
C1136 C1134 1.561 . S
C1137 C1134 1.526 . S
C1137 C1138 1.396 . S
C1137 C1142 1.390 . S
C1138 C1132 1.465 . S
C1138 C1137 1.396 . S
C1138 C1139 1.399 . S
C1139 H1125 0.929 . S
C1139 C1138 1.399 . S
C1139 C1140 1.385 . S
C1140 H1126 0.931 . S
C1140 C1139 1.385 . S
C1140 C1141 1.389 . S
C1141 C1140 1.389 . S
C1141 C1142 1.387 . S
C1142 H1127 0.930 . S
C1142 C1137 1.390 . S
C1142 C1141 1.387 . S
H1143 C1155 0.930 . S
H1144 C1157 0.930 . S
H1145 C1158 0.930 . S
H1146 C1162 0.959 . S
H1147 C1162 0.959 . S
H1148 C1162 0.961 . S
H1149 C1163 0.960 . S
H1150 C1163 0.961 . S
H1151 C1163 0.959 . S
H1152 C1166 0.929 . S
H1153 C1167 0.931 . S
H1154 C1169 0.930 . S
C1155 H1143 0.930 . S
C1155 C1156 1.399 . S
C1155 C1160 1.399 . S
C1156 C1155 1.399 . S
C1156 C1157 1.376 . S
C1157 H1144 0.930 . S
C1157 C1156 1.376 . S
C1157 C1158 1.388 . S
C1158 H1145 0.930 . S
C1158 C1157 1.388 . S
C1158 C1159 1.390 . S
C1159 C1158 1.390 . S
C1159 C1160 1.394 . S
C1159 C1165 1.465 . S
C1160 C1155 1.399 . S
C1160 C1159 1.394 . S
C1160 C1161 1.516 . S
C1161 C1160 1.516 . S
C1161 C1162 1.502 . S
C1161 C1163 1.561 . S
C1161 C1164 1.526 . S
C1162 H1146 0.959 . S
C1162 H1147 0.959 . S
C1162 H1148 0.961 . S
C1162 C1161 1.502 . S
C1163 H1149 0.960 . S
C1163 H1150 0.961 . S
C1163 H1151 0.959 . S
C1163 C1161 1.561 . S
C1164 C1161 1.526 . S
C1164 C1165 1.396 . S
C1164 C1169 1.390 . S
C1165 C1159 1.465 . S
C1165 C1164 1.396 . S
C1165 C1166 1.399 . S
C1166 H1152 0.929 . S
C1166 C1165 1.399 . S
C1166 C1167 1.385 . S
C1167 H1153 0.931 . S
C1167 C1166 1.385 . S
C1167 C1168 1.389 . S
C1168 C1167 1.389 . S
C1168 C1169 1.387 . S
C1169 H1154 0.930 . S
C1169 C1164 1.390 . S
C1169 C1168 1.387 . S
H1170 C1182 0.930 . S
H1171 C1184 0.930 . S
H1172 C1185 0.930 . S
H1173 C1189 0.959 . S
H1174 C1189 0.959 1_554 S
H1175 C1189 0.962 . S
H1176 C1190 0.960 . S
H1177 C1190 0.961 . S
H1178 C1190 0.959 . S
H1179 C1193 0.929 . S
H1180 C1194 0.931 . S
H1181 C1196 0.930 1_554 S
C1182 H1170 0.930 . S
C1182 C1183 1.399 . S
C1182 C1187 1.399 . S
C1183 C1182 1.399 . S
C1183 C1184 1.376 . S
C1184 H1171 0.930 . S
C1184 C1183 1.376 . S
C1184 C1185 1.388 . S
C1185 H1172 0.930 . S
C1185 C1184 1.388 . S
C1185 C1186 1.390 . S
C1186 C1185 1.390 . S
C1186 C1187 1.394 . S
C1186 C1192 1.465 . S
C1187 C1182 1.399 . S
C1187 C1186 1.394 . S
C1187 C1188 1.516 . S
C1188 C1187 1.516 . S
C1188 C1189 1.502 . S
C1188 C1190 1.561 1_556 S
C1188 C1191 1.526 . S
C1189 H1173 0.959 . S
C1189 H1174 0.959 1_556 S
C1189 H1175 0.962 . S
C1189 C1188 1.502 . S
C1190 H1176 0.960 . S
C1190 H1177 0.961 . S
C1190 H1178 0.959 . S
C1190 C1188 1.561 1_554 S
C1191 C1188 1.526 . S
C1191 C1192 1.396 . S
C1191 C1196 1.390 . S
C1192 C1186 1.465 . S
C1192 C1191 1.396 . S
C1192 C1193 1.399 . S
C1193 H1179 0.929 . S
C1193 C1192 1.399 . S
C1193 C1194 1.385 . S
C1194 H1180 0.931 . S
C1194 C1193 1.385 . S
C1194 C1195 1.389 . S
C1195 C1194 1.389 . S
C1195 C1196 1.387 . S
C1196 H1181 0.930 1_556 S
C1196 C1191 1.390 . S
C1196 C1195 1.387 . S
H1197 C1209 0.930 . S
H1198 C1211 0.930 . S
H1199 C1212 0.930 . S
H1200 C1216 0.959 . S
H1201 C1216 0.959 . S
H1202 C1216 0.961 . S
H1203 C1217 0.960 . S
H1204 C1217 0.961 . S
H1205 C1217 0.959 . S
H1206 C1220 0.929 . S
H1207 C1221 0.931 . S
H1208 C1223 0.930 . S
C1209 H1197 0.930 . S
C1209 C1210 1.399 . S
C1209 C1214 1.399 . S
C1210 C1209 1.399 . S
C1210 C1211 1.376 . S
C1211 H1198 0.930 . S
C1211 C1210 1.376 . S
C1211 C1212 1.388 . S
C1212 H1199 0.930 . S
C1212 C1211 1.388 . S
C1212 C1213 1.390 . S
C1213 C1212 1.390 . S
C1213 C1214 1.394 . S
C1213 C1219 1.465 . S
C1214 C1209 1.399 . S
C1214 C1213 1.394 . S
C1214 C1215 1.516 . S
C1215 C1214 1.516 . S
C1215 C1216 1.502 . S
C1215 C1217 1.561 . S
C1215 C1218 1.526 . S
C1216 H1200 0.959 . S
C1216 H1201 0.959 . S
C1216 H1202 0.961 . S
C1216 C1215 1.502 . S
C1217 H1203 0.960 . S
C1217 H1204 0.961 . S
C1217 H1205 0.959 . S
C1217 C1215 1.561 . S
C1218 C1215 1.526 . S
C1218 C1219 1.396 . S
C1218 C1223 1.390 . S
C1219 C1213 1.465 . S
C1219 C1218 1.396 . S
C1219 C1220 1.399 . S
C1220 H1206 0.929 . S
C1220 C1219 1.399 . S
C1220 C1221 1.385 . S
C1221 H1207 0.931 . S
C1221 C1220 1.385 . S
C1221 C1222 1.389 . S
C1222 C1221 1.389 . S
C1222 C1223 1.387 . S
C1223 H1208 0.930 . S
C1223 C1218 1.390 . S
C1223 C1222 1.387 . S
H1224 C1236 0.930 . S
H1225 C1238 0.930 . S
H1226 C1239 0.930 . S
H1227 C1243 0.959 . S
H1228 C1243 0.959 . S
H1229 C1243 0.961 . S
H1230 C1244 0.960 . S
H1231 C1244 0.961 . S
H1232 C1244 0.959 . S
H1233 C1247 0.929 . S
H1234 C1248 0.931 . S
H1235 C1250 0.930 . S
C1236 H1224 0.930 . S
C1236 C1237 1.399 . S
C1236 C1241 1.399 . S
C1237 C1236 1.399 . S
C1237 C1238 1.376 . S
C1238 H1225 0.930 . S
C1238 C1237 1.376 . S
C1238 C1239 1.388 . S
C1239 H1226 0.930 . S
C1239 C1238 1.388 . S
C1239 C1240 1.390 . S
C1240 C1239 1.390 . S
C1240 C1241 1.394 . S
C1240 C1246 1.465 . S
C1241 C1236 1.399 . S
C1241 C1240 1.394 . S
C1241 C1242 1.516 . S
C1242 C1241 1.516 . S
C1242 C1243 1.502 . S
C1242 C1244 1.561 . S
C1242 C1245 1.526 . S
C1243 H1227 0.959 . S
C1243 H1228 0.959 . S
C1243 H1229 0.961 . S
C1243 C1242 1.502 . S
C1244 H1230 0.960 . S
C1244 H1231 0.961 . S
C1244 H1232 0.959 . S
C1244 C1242 1.561 . S
C1245 C1242 1.526 . S
C1245 C1246 1.396 . S
C1245 C1250 1.390 . S
C1246 C1240 1.465 . S
C1246 C1245 1.396 . S
C1246 C1247 1.399 . S
C1247 H1233 0.929 . S
C1247 C1246 1.399 . S
C1247 C1248 1.385 . S
C1248 H1234 0.931 . S
C1248 C1247 1.385 . S
C1248 C1249 1.389 . S
C1249 C1248 1.389 . S
C1249 C1250 1.387 . S
C1250 H1235 0.930 . S
C1250 C1245 1.390 . S
C1250 C1249 1.387 . S
H1251 C1263 0.930 . S
H1252 C1265 0.930 . S
H1253 C1266 0.930 . S
H1254 C1270 0.963 . S
H1255 C1270 0.959 . S
H1256 C1270 0.961 . S
H1257 C1271 0.960 . S
H1258 C1271 0.961 . S
H1259 C1271 0.959 1_455 S
H1260 C1274 0.929 . S
H1261 C1275 0.931 . S
H1262 C1277 0.930 1_655 S
C1263 H1251 0.930 . S
C1263 C1264 1.399 . S
C1263 C1268 1.399 . S
C1264 C1263 1.399 . S
C1264 C1265 1.376 . S
C1265 H1252 0.930 . S
C1265 C1264 1.376 . S
C1265 C1266 1.388 . S
C1266 H1253 0.930 . S
C1266 C1265 1.388 . S
C1266 C1267 1.390 . S
C1267 C1266 1.390 . S
C1267 C1268 1.394 . S
C1267 C1273 1.465 . S
C1268 C1263 1.399 . S
C1268 C1267 1.394 . S
C1268 C1269 1.516 . S
C1269 C1268 1.516 . S
C1269 C1270 1.502 1_455 S
C1269 C1271 1.561 1_455 S
C1269 C1272 1.526 . S
C1270 H1254 0.963 . S
C1270 H1255 0.959 . S
C1270 H1256 0.961 . S
C1270 C1269 1.502 1_655 S
C1271 H1257 0.960 . S
C1271 H1258 0.961 . S
C1271 H1259 0.959 1_655 S
C1271 C1269 1.561 1_655 S
C1272 C1269 1.526 . S
C1272 C1273 1.396 . S
C1272 C1277 1.390 . S
C1273 C1267 1.465 . S
C1273 C1272 1.396 . S
C1273 C1274 1.399 . S
C1274 H1260 0.929 . S
C1274 C1273 1.399 . S
C1274 C1275 1.385 . S
C1275 H1261 0.931 . S
C1275 C1274 1.385 . S
C1275 C1276 1.389 . S
C1276 C1275 1.389 . S
C1276 C1277 1.387 . S
C1277 H1262 0.930 1_455 S
C1277 C1272 1.390 . S
C1277 C1276 1.387 . S
H1278 C1290 0.930 1_455 S
H1279 C1292 0.930 . S
H1280 C1293 0.930 . S
H1281 C1297 0.959 . S
H1282 C1297 0.959 . S
H1283 C1297 0.961 . S
H1284 C1298 0.960 . S
H1285 C1298 0.961 . S
H1286 C1298 0.959 . S
H1287 C1301 0.929 . S
H1288 C1302 0.931 . S
H1289 C1304 0.930 . S
C1290 H1278 0.930 1_655 S
C1290 C1291 1.399 . S
C1290 C1295 1.399 . S
C1291 C1290 1.399 . S
C1291 C1292 1.376 . S
C1292 H1279 0.930 . S
C1292 C1291 1.376 . S
C1292 C1293 1.388 . S
C1293 H1280 0.930 . S
C1293 C1292 1.388 . S
C1293 C1294 1.390 . S
C1294 C1293 1.390 . S
C1294 C1295 1.394 . S
C1294 C1300 1.465 . S
C1295 C1290 1.399 . S
C1295 C1294 1.394 . S
C1295 C1296 1.516 . S
C1296 C1295 1.516 . S
C1296 C1297 1.502 1_655 S
C1296 C1298 1.561 . S
C1296 C1299 1.526 . S
C1297 H1281 0.959 . S
C1297 H1282 0.959 . S
C1297 H1283 0.961 . S
C1297 C1296 1.502 1_455 S
C1298 H1284 0.960 . S
C1298 H1285 0.961 . S
C1298 H1286 0.959 . S
C1298 C1296 1.561 . S
C1299 C1296 1.526 . S
C1299 C1300 1.396 . S
C1299 C1304 1.390 . S
C1300 C1294 1.465 . S
C1300 C1299 1.396 . S
C1300 C1301 1.399 . S
C1301 H1287 0.929 . S
C1301 C1300 1.399 . S
C1301 C1302 1.385 . S
C1302 H1288 0.931 . S
C1302 C1301 1.385 . S
C1302 C1303 1.389 . S
C1303 C1302 1.389 . S
C1303 C1304 1.387 . S
C1304 H1289 0.930 . S
C1304 C1299 1.390 . S
C1304 C1303 1.387 . S
H1305 C1317 0.930 . S
H1306 C1319 0.930 . S
H1307 C1320 0.930 . S
H1308 C1324 0.959 . S
H1309 C1324 0.959 . S
H1310 C1324 0.961 . S
H1311 C1325 0.960 . S
H1312 C1325 0.961 . S
H1313 C1325 0.959 . S
H1314 C1328 0.929 . S
H1315 C1329 0.931 . S
H1316 C1331 0.930 . S
C1317 H1305 0.930 . S
C1317 C1318 1.399 . S
C1317 C1322 1.399 . S
C1318 C1317 1.399 . S
C1318 C1319 1.376 . S
C1319 H1306 0.930 . S
C1319 C1318 1.376 . S
C1319 C1320 1.388 . S
C1320 H1307 0.930 . S
C1320 C1319 1.388 . S
C1320 C1321 1.390 . S
C1321 C1320 1.390 . S
C1321 C1322 1.394 . S
C1321 C1327 1.465 . S
C1322 C1317 1.399 . S
C1322 C1321 1.394 . S
C1322 C1323 1.516 . S
C1323 C1322 1.516 . S
C1323 C1324 1.502 . S
C1323 C1325 1.561 . S
C1323 C1326 1.526 . S
C1324 H1308 0.959 . S
C1324 H1309 0.959 . S
C1324 H1310 0.961 . S
C1324 C1323 1.502 . S
C1325 H1311 0.960 . S
C1325 H1312 0.961 . S
C1325 H1313 0.959 . S
C1325 C1323 1.561 . S
C1326 C1323 1.526 . S
C1326 C1327 1.396 . S
C1326 C1331 1.390 . S
C1327 C1321 1.465 . S
C1327 C1326 1.396 . S
C1327 C1328 1.399 . S
C1328 H1314 0.929 . S
C1328 C1327 1.399 . S
C1328 C1329 1.385 . S
C1329 H1315 0.931 . S
C1329 C1328 1.385 . S
C1329 C1330 1.389 . S
C1330 C1329 1.389 . S
C1330 C1331 1.387 . S
C1331 H1316 0.930 . S
C1331 C1326 1.390 . S
C1331 C1330 1.387 . S
H1332 C1344 0.930 . S
H1333 C1346 0.930 . S
H1334 C1347 0.930 . S
H1335 C1351 0.959 . S
H1336 C1351 0.959 . S
H1337 C1351 0.961 . S
H1338 C1352 0.960 . S
H1339 C1352 0.961 . S
H1340 C1352 0.959 . S
H1341 C1355 0.929 . S
H1342 C1356 0.931 . S
H1343 C1358 0.930 . S
C1344 H1332 0.930 . S
C1344 C1345 1.399 . S
C1344 C1349 1.399 . S
C1345 C1344 1.399 . S
C1345 C1346 1.376 . S
C1346 H1333 0.930 . S
C1346 C1345 1.376 . S
C1346 C1347 1.388 . S
C1347 H1334 0.930 . S
C1347 C1346 1.388 . S
C1347 C1348 1.390 . S
C1348 C1347 1.390 . S
C1348 C1349 1.394 . S
C1348 C1354 1.465 . S
C1349 C1344 1.399 . S
C1349 C1348 1.394 . S
C1349 C1350 1.516 . S
C1350 C1349 1.516 . S
C1350 C1351 1.502 . S
C1350 C1352 1.561 . S
C1350 C1353 1.526 . S
C1351 H1335 0.959 . S
C1351 H1336 0.959 . S
C1351 H1337 0.961 . S
C1351 C1350 1.502 . S
C1352 H1338 0.960 . S
C1352 H1339 0.961 . S
C1352 H1340 0.959 . S
C1352 C1350 1.561 . S
C1353 C1350 1.526 . S
C1353 C1354 1.396 . S
C1353 C1358 1.390 . S
C1354 C1348 1.465 . S
C1354 C1353 1.396 . S
C1354 C1355 1.399 . S
C1355 H1341 0.929 . S
C1355 C1354 1.399 . S
C1355 C1356 1.385 . S
C1356 H1342 0.931 . S
C1356 C1355 1.385 . S
C1356 C1357 1.389 . S
C1357 C1356 1.389 . S
C1357 C1358 1.387 . S
C1358 H1343 0.930 . S
C1358 C1353 1.390 . S
C1358 C1357 1.387 . S
H1359 C1371 0.930 . S
H1360 C1373 0.930 . S
H1361 C1374 0.930 . S
H1362 C1378 0.959 . S
H1363 C1378 0.959 . S
H1364 C1378 0.961 . S
H1365 C1379 0.960 . S
H1366 C1379 0.961 . S
H1367 C1379 0.959 . S
H1368 C1382 0.929 1_545 S
H1369 C1383 0.931 1_545 S
H1370 C1385 0.930 . S
C1371 H1359 0.930 . S
C1371 C1372 1.399 . S
C1371 C1376 1.399 . S
C1372 C1371 1.399 . S
C1372 C1373 1.376 . S
C1373 H1360 0.930 . S
C1373 C1372 1.376 . S
C1373 C1374 1.388 . S
C1374 H1361 0.930 . S
C1374 C1373 1.388 . S
C1374 C1375 1.390 . S
C1375 C1374 1.390 . S
C1375 C1376 1.394 . S
C1375 C1381 1.465 . S
C1376 C1371 1.399 . S
C1376 C1375 1.394 . S
C1376 C1377 1.516 . S
C1377 C1376 1.516 . S
C1377 C1378 1.502 . S
C1377 C1379 1.561 . S
C1377 C1380 1.526 . S
C1378 H1362 0.959 . S
C1378 H1363 0.959 . S
C1378 H1364 0.961 . S
C1378 C1377 1.502 . S
C1379 H1365 0.960 . S
C1379 H1366 0.961 . S
C1379 H1367 0.959 . S
C1379 C1377 1.561 . S
C1380 C1377 1.526 . S
C1380 C1381 1.396 . S
C1380 C1385 1.390 . S
C1381 C1375 1.465 . S
C1381 C1380 1.396 . S
C1381 C1382 1.399 . S
C1382 H1368 0.929 1_565 S
C1382 C1381 1.399 . S
C1382 C1383 1.385 . S
C1383 H1369 0.931 1_565 S
C1383 C1382 1.385 . S
C1383 C1384 1.389 . S
C1384 C1383 1.389 . S
C1384 C1385 1.387 . S
C1385 H1370 0.930 . S
C1385 C1380 1.390 . S
C1385 C1384 1.387 . S
H1386 C1398 0.930 . S
H1387 C1400 0.930 . S
H1388 C1401 0.930 . S
H1389 C1405 0.959 . S
H1390 C1405 0.959 . S
H1391 C1405 0.961 . S
H1392 C1406 0.960 . S
H1393 C1406 0.961 . S
H1394 C1406 0.959 . S
H1395 C1409 0.929 . S
H1396 C1410 0.931 . S
H1397 C1412 0.930 . S
C1398 H1386 0.930 . S
C1398 C1399 1.399 . S
C1398 C1403 1.399 . S
C1399 C1398 1.399 . S
C1399 C1400 1.376 . S
C1400 H1387 0.930 . S
C1400 C1399 1.376 . S
C1400 C1401 1.388 . S
C1401 H1388 0.930 . S
C1401 C1400 1.388 . S
C1401 C1402 1.390 . S
C1402 C1401 1.390 . S
C1402 C1403 1.394 . S
C1402 C1408 1.465 . S
C1403 C1398 1.399 . S
C1403 C1402 1.394 . S
C1403 C1404 1.516 . S
C1404 C1403 1.516 . S
C1404 C1405 1.502 . S
C1404 C1406 1.561 . S
C1404 C1407 1.526 . S
C1405 H1389 0.959 . S
C1405 H1390 0.959 . S
C1405 H1391 0.961 . S
C1405 C1404 1.502 . S
C1406 H1392 0.960 . S
C1406 H1393 0.961 . S
C1406 H1394 0.959 . S
C1406 C1404 1.561 . S
C1407 C1404 1.526 . S
C1407 C1408 1.396 . S
C1407 C1412 1.390 . S
C1408 C1402 1.465 . S
C1408 C1407 1.396 . S
C1408 C1409 1.399 . S
C1409 H1395 0.929 . S
C1409 C1408 1.399 . S
C1409 C1410 1.385 . S
C1410 H1396 0.931 . S
C1410 C1409 1.385 . S
C1410 C1411 1.389 . S
C1411 C1410 1.389 . S
C1411 C1412 1.387 . S
C1412 H1397 0.930 . S
C1412 C1407 1.390 . S
C1412 C1411 1.387 . S
H1413 C1425 0.930 . S
H1414 C1427 0.930 . S
H1415 C1428 0.930 . S
H1416 C1432 0.959 . S
H1417 C1432 0.959 . S
H1418 C1432 0.961 . S
H1419 C1433 0.960 1_554 S
H1420 C1433 0.961 . S
H1421 C1433 0.959 1_554 S
H1422 C1436 0.929 1_554 S
H1423 C1437 0.914 1_565 S
H1424 C1439 0.930 . S
C1425 H1413 0.930 . S
C1425 C1426 1.399 . S
C1425 C1430 1.399 . S
C1426 C1425 1.399 . S
C1426 C1427 1.376 . S
C1427 H1414 0.930 . S
C1427 C1426 1.376 . S
C1427 C1428 1.388 . S
C1428 H1415 0.930 . S
C1428 C1427 1.388 . S
C1428 C1429 1.390 . S
C1429 C1428 1.390 . S
C1429 C1430 1.394 . S
C1429 C1435 1.465 . S
C1430 C1425 1.399 . S
C1430 C1429 1.394 . S
C1430 C1431 1.516 1_554 S
C1431 C1430 1.516 1_556 S
C1431 C1432 1.502 . S
C1431 C1433 1.561 . S
C1431 C1434 1.526 . S
C1432 H1416 0.959 . S
C1432 H1417 0.959 . S
C1432 H1418 0.961 . S
C1432 C1431 1.502 . S
C1433 H1419 0.960 1_556 S
C1433 H1420 0.961 . S
C1433 H1421 0.959 1_556 S
C1433 C1431 1.561 . S
C1434 C1431 1.526 . S
C1434 C1435 1.396 1_556 S
C1434 C1439 1.390 . S
C1435 C1429 1.465 . S
C1435 C1434 1.396 1_554 S
C1435 C1436 1.399 1_554 S
C1436 H1422 0.929 1_556 S
C1436 C1435 1.399 1_556 S
C1436 C1437 1.385 . S
C1437 H1423 0.914 1_545 S
C1437 C1436 1.385 . S
C1437 C1438 1.389 . S
C1438 C1437 1.389 . S
C1438 C1439 1.387 . S
C1439 H1424 0.930 . S
C1439 C1434 1.390 . S
C1439 C1438 1.387 . S
H1440 C1452 0.930 . S
H1441 C1454 0.930 . S
H1442 C1455 0.930 . S
H1443 C1459 0.959 . S
H1444 C1459 0.959 . S
H1445 C1459 0.961 . S
H1446 C1460 0.960 . S
H1447 C1460 0.961 . S
H1448 C1460 0.959 . S
H1449 C1463 0.929 . S
H1450 C1464 0.931 . S
H1451 C1466 0.930 . S
C1452 H1440 0.930 . S
C1452 C1453 1.399 . S
C1452 C1457 1.399 . S
C1453 C1452 1.399 . S
C1453 C1454 1.376 . S
C1454 H1441 0.930 . S
C1454 C1453 1.376 . S
C1454 C1455 1.388 . S
C1455 H1442 0.930 . S
C1455 C1454 1.388 . S
C1455 C1456 1.390 . S
C1456 C1455 1.390 . S
C1456 C1457 1.394 . S
C1456 C1462 1.465 . S
C1457 C1452 1.399 . S
C1457 C1456 1.394 . S
C1457 C1458 1.516 . S
C1458 C1457 1.516 . S
C1458 C1459 1.502 . S
C1458 C1460 1.561 . S
C1458 C1461 1.526 . S
C1459 H1443 0.959 . S
C1459 H1444 0.959 . S
C1459 H1445 0.961 . S
C1459 C1458 1.502 . S
C1460 H1446 0.960 . S
C1460 H1447 0.961 . S
C1460 H1448 0.959 . S
C1460 C1458 1.561 . S
C1461 C1458 1.526 . S
C1461 C1462 1.396 . S
C1461 C1466 1.390 . S
C1462 C1456 1.465 . S
C1462 C1461 1.396 . S
C1462 C1463 1.399 . S
C1463 H1449 0.929 . S
C1463 C1462 1.399 . S
C1463 C1464 1.385 . S
C1464 H1450 0.931 . S
C1464 C1463 1.385 . S
C1464 C1465 1.389 . S
C1465 C1464 1.389 . S
C1465 C1466 1.387 . S
C1466 H1451 0.930 . S
C1466 C1461 1.390 . S
C1466 C1465 1.387 . S
H1467 C1479 0.930 . S
H1468 C1481 0.930 . S
H1469 C1482 0.930 . S
H1470 C1486 0.959 . S
H1471 C1486 0.959 . S
H1472 C1486 0.961 . S
H1473 C1487 0.960 1_554 S
H1474 C1487 0.961 . S
H1475 C1487 0.959 . S
H1476 C1490 0.929 . S
H1477 C1491 0.931 . S
H1478 C1493 0.930 . S
C1479 H1467 0.930 . S
C1479 C1480 1.399 . S
C1479 C1484 1.399 . S
C1480 C1479 1.399 . S
C1480 C1481 1.376 . S
C1481 H1468 0.930 . S
C1481 C1480 1.376 . S
C1481 C1482 1.388 . S
C1482 H1469 0.930 . S
C1482 C1481 1.388 . S
C1482 C1483 1.390 1_554 S
C1483 C1482 1.390 1_556 S
C1483 C1484 1.394 1_556 S
C1483 C1489 1.465 . S
C1484 C1479 1.399 . S
C1484 C1483 1.394 1_554 S
C1484 C1485 1.516 1_554 S
C1485 C1484 1.516 1_556 S
C1485 C1486 1.502 . S
C1485 C1487 1.561 . S
C1485 C1488 1.526 . S
C1486 H1470 0.959 . S
C1486 H1471 0.959 . S
C1486 H1472 0.961 . S
C1486 C1485 1.502 . S
C1487 H1473 0.960 1_556 S
C1487 H1474 0.961 . S
C1487 H1475 0.959 . S
C1487 C1485 1.561 . S
C1488 C1485 1.526 . S
C1488 C1489 1.396 . S
C1488 C1493 1.390 . S
C1489 C1483 1.465 . S
C1489 C1488 1.396 . S
C1489 C1490 1.399 . S
C1490 H1476 0.929 . S
C1490 C1489 1.399 . S
C1490 C1491 1.385 . S
C1491 H1477 0.931 . S
C1491 C1490 1.385 . S
C1491 C1492 1.389 . S
C1492 C1491 1.389 . S
C1492 C1493 1.387 . S
C1493 H1478 0.930 . S
C1493 C1488 1.390 . S
C1493 C1492 1.387 . S
H1494 C1506 0.930 . S
H1495 C1508 0.930 . S
H1496 C1509 0.930 . S
H1497 C1513 0.959 . S
H1498 C1513 0.959 . S
H1499 C1513 0.961 . S
H1500 C1514 0.960 . S
H1501 C1514 0.961 . S
H1502 C1514 0.959 . S
H1503 C1517 0.929 . S
H1504 C1518 0.931 . S
H1505 C1520 0.930 . S
C1506 H1494 0.930 . S
C1506 C1507 1.399 . S
C1506 C1511 1.399 . S
C1507 C1506 1.399 . S
C1507 C1508 1.376 . S
C1508 H1495 0.930 . S
C1508 C1507 1.376 . S
C1508 C1509 1.388 . S
C1509 H1496 0.930 . S
C1509 C1508 1.388 . S
C1509 C1510 1.390 . S
C1510 C1509 1.390 . S
C1510 C1511 1.394 . S
C1510 C1516 1.465 . S
C1511 C1506 1.399 . S
C1511 C1510 1.394 . S
C1511 C1512 1.516 . S
C1512 C1511 1.516 . S
C1512 C1513 1.502 . S
C1512 C1514 1.561 . S
C1512 C1515 1.526 . S
C1513 H1497 0.959 . S
C1513 H1498 0.959 . S
C1513 H1499 0.961 . S
C1513 C1512 1.502 . S
C1514 H1500 0.960 . S
C1514 H1501 0.961 . S
C1514 H1502 0.959 . S
C1514 C1512 1.561 . S
C1515 C1512 1.526 . S
C1515 C1516 1.396 . S
C1515 C1520 1.390 . S
C1516 C1510 1.465 . S
C1516 C1515 1.396 . S
C1516 C1517 1.399 . S
C1517 H1503 0.929 . S
C1517 C1516 1.399 . S
C1517 C1518 1.385 . S
C1518 H1504 0.931 . S
C1518 C1517 1.385 . S
C1518 C1519 1.389 . S
C1519 C1518 1.389 . S
C1519 C1520 1.387 . S
C1520 H1505 0.930 . S
C1520 C1515 1.390 . S
C1520 C1519 1.387 . S
H1521 C1533 0.930 . S
H1522 C1535 0.930 . S
H1523 C1536 0.930 . S
H1524 C1540 0.959 . S
H1525 C1540 0.959 . S
H1526 C1540 0.961 . S
H1527 C1541 0.960 . S
H1528 C1541 0.961 . S
H1529 C1541 0.959 . S
H1530 C1544 0.929 . S
H1531 C1545 0.931 . S
H1532 C1547 0.930 . S
C1533 H1521 0.930 . S
C1533 C1534 1.399 . S
C1533 C1538 1.399 . S
C1534 C1533 1.399 . S
C1534 C1535 1.376 . S
C1535 H1522 0.930 . S
C1535 C1534 1.376 . S
C1535 C1536 1.388 . S
C1536 H1523 0.930 . S
C1536 C1535 1.388 . S
C1536 C1537 1.390 . S
C1537 C1536 1.390 . S
C1537 C1538 1.394 . S
C1537 C1543 1.465 . S
C1538 C1533 1.399 . S
C1538 C1537 1.394 . S
C1538 C1539 1.516 . S
C1539 C1538 1.516 . S
C1539 C1540 1.502 . S
C1539 C1541 1.561 . S
C1539 C1542 1.526 . S
C1540 H1524 0.959 . S
C1540 H1525 0.959 . S
C1540 H1526 0.961 . S
C1540 C1539 1.502 . S
C1541 H1527 0.960 . S
C1541 H1528 0.961 . S
C1541 H1529 0.959 . S
C1541 C1539 1.561 . S
C1542 C1539 1.526 . S
C1542 C1543 1.396 . S
C1542 C1547 1.390 . S
C1543 C1537 1.465 . S
C1543 C1542 1.396 . S
C1543 C1544 1.399 . S
C1544 H1530 0.929 . S
C1544 C1543 1.399 . S
C1544 C1545 1.385 . S
C1545 H1531 0.931 . S
C1545 C1544 1.385 . S
C1545 C1546 1.389 . S
C1546 C1545 1.389 . S
C1546 C1547 1.387 . S
C1547 H1532 0.930 . S
C1547 C1542 1.390 . S
C1547 C1546 1.387 . S
H1548 C1560 0.930 . S
H1549 C1562 0.930 . S
H1550 C1563 0.930 . S
H1551 C1567 0.959 . S
H1552 C1567 0.959 . S
H1553 C1567 0.961 . S
H1554 C1568 0.960 . S
H1555 C1568 0.961 . S
H1556 C1568 0.959 . S
H1557 C1571 0.929 . S
H1558 C1572 0.931 . S
H1559 C1574 0.930 . S
C1560 H1548 0.930 . S
C1560 C1561 1.399 . S
C1560 C1565 1.399 . S
C1561 C1560 1.399 . S
C1561 C1562 1.376 . S
C1562 H1549 0.930 . S
C1562 C1561 1.376 . S
C1562 C1563 1.388 . S
C1563 H1550 0.930 . S
C1563 C1562 1.388 . S
C1563 C1564 1.390 . S
C1564 C1563 1.390 . S
C1564 C1565 1.394 . S
C1564 C1570 1.465 . S
C1565 C1560 1.399 . S
C1565 C1564 1.394 . S
C1565 C1566 1.516 . S
C1566 C1565 1.516 . S
C1566 C1567 1.502 . S
C1566 C1568 1.561 . S
C1566 C1569 1.526 . S
C1567 H1551 0.959 . S
C1567 H1552 0.959 . S
C1567 H1553 0.961 . S
C1567 C1566 1.502 . S
C1568 H1554 0.960 . S
C1568 H1555 0.961 . S
C1568 H1556 0.959 . S
C1568 C1566 1.561 . S
C1569 C1566 1.526 . S
C1569 C1570 1.396 . S
C1569 C1574 1.390 . S
C1570 C1564 1.465 . S
C1570 C1569 1.396 . S
C1570 C1571 1.399 . S
C1571 H1557 0.929 . S
C1571 C1570 1.399 . S
C1571 C1572 1.385 . S
C1572 H1558 0.931 . S
C1572 C1571 1.385 . S
C1572 C1573 1.389 . S
C1573 C1572 1.389 . S
C1573 C1574 1.387 . S
C1574 H1559 0.930 . S
C1574 C1569 1.390 . S
C1574 C1573 1.387 . S
H1575 C1587 0.930 . S
H1576 C1589 0.930 . S
H1577 C1590 0.930 . S
H1578 C1594 0.959 . S
H1579 C1594 0.959 . S
H1580 C1594 0.961 . S
H1581 C1595 0.960 . S
H1582 C1595 0.961 . S
H1583 C1595 0.959 . S
H1584 C1598 0.929 . S
H1585 C1599 0.931 . S
H1586 C1601 0.930 . S
C1587 H1575 0.930 . S
C1587 C1588 1.399 . S
C1587 C1592 1.399 . S
C1588 C1587 1.399 . S
C1588 C1589 1.376 . S
C1589 H1576 0.930 . S
C1589 C1588 1.376 . S
C1589 C1590 1.388 . S
C1590 H1577 0.930 . S
C1590 C1589 1.388 . S
C1590 C1591 1.390 . S
C1591 C1590 1.390 . S
C1591 C1592 1.394 . S
C1591 C1597 1.465 1_545 S
C1592 C1587 1.399 . S
C1592 C1591 1.394 . S
C1592 C1593 1.516 . S
C1593 C1592 1.516 . S
C1593 C1594 1.502 . S
C1593 C1595 1.561 . S
C1593 C1596 1.526 1_545 S
C1594 H1578 0.959 . S
C1594 H1579 0.959 . S
C1594 H1580 0.961 . S
C1594 C1593 1.502 . S
C1595 H1581 0.960 . S
C1595 H1582 0.961 . S
C1595 H1583 0.959 . S
C1595 C1593 1.561 . S
C1596 C1593 1.526 1_565 S
C1596 C1597 1.396 . S
C1596 C1601 1.390 . S
C1597 C1591 1.465 1_565 S
C1597 C1596 1.396 . S
C1597 C1598 1.399 . S
C1598 H1584 0.929 . S
C1598 C1597 1.399 . S
C1598 C1599 1.385 . S
C1599 H1585 0.931 . S
C1599 C1598 1.385 . S
C1599 C1600 1.389 . S
C1600 C1599 1.389 . S
C1600 C1601 1.387 . S
C1601 H1586 0.930 . S
C1601 C1596 1.390 . S
C1601 C1600 1.387 . S
H1602 C1614 0.930 . S
H1603 C1616 0.930 . S
H1604 C1617 0.930 . S
H1605 C1621 0.959 . S
H1606 C1621 0.959 . S
H1607 C1621 0.961 . S
H1608 C1622 0.960 . S
H1609 C1622 0.961 . S
H1610 C1622 0.959 . S
H1611 C1625 0.929 . S
H1612 C1626 0.931 . S
H1613 C1628 0.930 . S
C1614 H1602 0.930 . S
C1614 C1615 1.399 . S
C1614 C1619 1.399 . S
C1615 C1614 1.399 . S
C1615 C1616 1.376 . S
C1616 H1603 0.930 . S
C1616 C1615 1.376 . S
C1616 C1617 1.388 . S
C1617 H1604 0.930 . S
C1617 C1616 1.388 . S
C1617 C1618 1.390 . S
C1618 C1617 1.390 . S
C1618 C1619 1.394 . S
C1618 C1624 1.465 . S
C1619 C1614 1.399 . S
C1619 C1618 1.394 . S
C1619 C1620 1.516 . S
C1620 C1619 1.516 . S
C1620 C1621 1.502 . S
C1620 C1622 1.561 . S
C1620 C1623 1.526 . S
C1621 H1605 0.959 . S
C1621 H1606 0.959 . S
C1621 H1607 0.961 . S
C1621 C1620 1.502 . S
C1622 H1608 0.960 . S
C1622 H1609 0.961 . S
C1622 H1610 0.959 . S
C1622 C1620 1.561 . S
C1623 C1620 1.526 . S
C1623 C1624 1.396 . S
C1623 C1628 1.390 . S
C1624 C1618 1.465 . S
C1624 C1623 1.396 . S
C1624 C1625 1.399 . S
C1625 H1611 0.929 . S
C1625 C1624 1.399 . S
C1625 C1626 1.385 . S
C1626 H1612 0.931 . S
C1626 C1625 1.385 . S
C1626 C1627 1.389 . S
C1627 C1626 1.389 . S
C1627 C1628 1.387 . S
C1628 H1613 0.930 . S
C1628 C1623 1.390 . S
C1628 C1627 1.387 . S
H1629 C1641 0.930 . S
H1630 C1643 0.930 . S
H1631 C1644 0.930 . S
H1632 C1648 0.959 . S
H1633 C1648 0.959 . S
H1634 C1648 0.961 . S
H1635 C1649 0.960 . S
H1636 C1649 0.961 . S
H1637 C1649 0.959 . S
H1638 C1652 0.929 . S
H1639 C1653 0.931 . S
H1640 C1655 0.930 . S
C1641 H1629 0.930 . S
C1641 C1642 1.399 . S
C1641 C1646 1.399 . S
C1642 C1641 1.399 . S
C1642 C1643 1.376 . S
C1643 H1630 0.930 . S
C1643 C1642 1.376 . S
C1643 C1644 1.388 . S
C1644 H1631 0.930 . S
C1644 C1643 1.388 . S
C1644 C1645 1.390 . S
C1645 C1644 1.390 . S
C1645 C1646 1.394 . S
C1645 C1651 1.465 1_545 S
C1646 C1641 1.399 . S
C1646 C1645 1.394 . S
C1646 C1647 1.516 1_545 S
C1647 C1646 1.516 1_565 S
C1647 C1648 1.502 . S
C1647 C1649 1.561 . S
C1647 C1650 1.526 . S
C1648 H1632 0.959 . S
C1648 H1633 0.959 . S
C1648 H1634 0.961 . S
C1648 C1647 1.502 . S
C1649 H1635 0.960 . S
C1649 H1636 0.961 . S
C1649 H1637 0.959 . S
C1649 C1647 1.561 . S
C1650 C1647 1.526 . S
C1650 C1651 1.396 . S
C1650 C1655 1.390 . S
C1651 C1645 1.465 1_565 S
C1651 C1650 1.396 . S
C1651 C1652 1.399 . S
C1652 H1638 0.929 . S
C1652 C1651 1.399 . S
C1652 C1653 1.385 . S
C1653 H1639 0.931 . S
C1653 C1652 1.385 . S
C1653 C1654 1.389 . S
C1654 C1653 1.389 . S
C1654 C1655 1.387 . S
C1655 H1640 0.930 . S
C1655 C1650 1.390 . S
C1655 C1654 1.387 . S
H1656 C1668 0.930 . S
H1657 C1670 0.930 . S
H1658 C1671 0.930 . S
H1659 C1675 0.959 . S
H1660 C1675 0.959 . S
H1661 C1675 0.961 . S
H1662 C1676 0.960 . S
H1663 C1676 0.961 . S
H1664 C1676 0.959 . S
H1665 C1679 0.929 . S
H1666 C1680 0.931 . S
H1667 C1682 0.930 . S
C1668 H1656 0.930 . S
C1668 C1669 1.399 . S
C1668 C1673 1.399 . S
C1669 C1668 1.399 . S
C1669 C1670 1.376 . S
C1670 H1657 0.930 . S
C1670 C1669 1.376 . S
C1670 C1671 1.388 . S
C1671 H1658 0.930 . S
C1671 C1670 1.388 . S
C1671 C1672 1.390 . S
C1672 C1671 1.390 . S
C1672 C1673 1.394 . S
C1672 C1678 1.465 . S
C1673 C1668 1.399 . S
C1673 C1672 1.394 . S
C1673 C1674 1.516 . S
C1674 C1673 1.516 . S
C1674 C1675 1.502 . S
C1674 C1676 1.561 . S
C1674 C1677 1.526 . S
C1675 H1659 0.959 . S
C1675 H1660 0.959 . S
C1675 H1661 0.961 . S
C1675 C1674 1.502 . S
C1676 H1662 0.960 . S
C1676 H1663 0.961 . S
C1676 H1664 0.959 . S
C1676 C1674 1.561 . S
C1677 C1674 1.526 . S
C1677 C1678 1.396 . S
C1677 C1682 1.390 . S
C1678 C1672 1.465 . S
C1678 C1677 1.396 . S
C1678 C1679 1.399 . S
C1679 H1665 0.929 . S
C1679 C1678 1.399 . S
C1679 C1680 1.385 . S
C1680 H1666 0.931 . S
C1680 C1679 1.385 . S
C1680 C1681 1.389 . S
C1681 C1680 1.389 . S
C1681 C1682 1.387 . S
C1682 H1667 0.930 . S
C1682 C1677 1.390 . S
C1682 C1681 1.387 . S
H1683 C1695 0.930 . S
H1684 C1697 0.930 . S
H1685 C1698 0.930 . S
H1686 C1702 0.959 . S
H1687 C1702 0.959 . S
H1688 C1702 0.961 . S
H1689 C1703 0.960 . S
H1690 C1703 0.961 . S
H1691 C1703 0.959 . S
H1692 C1706 0.929 . S
H1693 C1707 0.931 . S
H1694 C1709 0.930 . S
C1695 H1683 0.930 . S
C1695 C1696 1.399 . S
C1695 C1700 1.399 . S
C1696 C1695 1.399 . S
C1696 C1697 1.376 . S
C1697 H1684 0.930 . S
C1697 C1696 1.376 . S
C1697 C1698 1.388 . S
C1698 H1685 0.930 . S
C1698 C1697 1.388 . S
C1698 C1699 1.390 . S
C1699 C1698 1.390 . S
C1699 C1700 1.394 . S
C1699 C1705 1.465 . S
C1700 C1695 1.399 . S
C1700 C1699 1.394 . S
C1700 C1701 1.516 . S
C1701 C1700 1.516 . S
C1701 C1702 1.502 . S
C1701 C1703 1.561 . S
C1701 C1704 1.526 . S
C1702 H1686 0.959 . S
C1702 H1687 0.959 . S
C1702 H1688 0.961 . S
C1702 C1701 1.502 . S
C1703 H1689 0.960 . S
C1703 H1690 0.961 . S
C1703 H1691 0.959 . S
C1703 C1701 1.561 . S
C1704 C1701 1.526 . S
C1704 C1705 1.396 . S
C1704 C1709 1.390 . S
C1705 C1699 1.465 . S
C1705 C1704 1.396 . S
C1705 C1706 1.399 . S
C1706 H1692 0.929 . S
C1706 C1705 1.399 . S
C1706 C1707 1.385 . S
C1707 H1693 0.931 . S
C1707 C1706 1.385 . S
C1707 C1708 1.389 . S
C1708 C1707 1.389 . S
C1708 C1709 1.387 . S
C1709 H1694 0.930 . S
C1709 C1704 1.390 . S
C1709 C1708 1.387 . S
H1710 C1722 0.930 . S
H1711 C1724 0.930 . S
H1712 C1725 0.930 . S
H1713 C1729 0.959 . S
H1714 C1729 0.959 . S
H1715 C1729 0.961 . S
H1716 C1730 0.960 . S
H1717 C1730 0.961 . S
H1718 C1730 0.959 . S
H1719 C1733 0.929 . S
H1720 C1734 0.931 . S
H1721 C1736 0.930 . S
C1722 H1710 0.930 . S
C1722 C1723 1.399 . S
C1722 C1727 1.399 . S
C1723 C1722 1.399 . S
C1723 C1724 1.376 . S
C1724 H1711 0.930 . S
C1724 C1723 1.376 . S
C1724 C1725 1.388 . S
C1725 H1712 0.930 . S
C1725 C1724 1.388 . S
C1725 C1726 1.390 . S
C1726 C1725 1.390 . S
C1726 C1727 1.394 . S
C1726 C1732 1.465 . S
C1727 C1722 1.399 . S
C1727 C1726 1.394 . S
C1727 C1728 1.516 . S
C1728 C1727 1.516 . S
C1728 C1729 1.502 . S
C1728 C1730 1.561 . S
C1728 C1731 1.526 . S
C1729 H1713 0.959 . S
C1729 H1714 0.959 . S
C1729 H1715 0.961 . S
C1729 C1728 1.502 . S
C1730 H1716 0.960 . S
C1730 H1717 0.961 . S
C1730 H1718 0.959 . S
C1730 C1728 1.561 . S
C1731 C1728 1.526 . S
C1731 C1732 1.396 . S
C1731 C1736 1.390 . S
C1732 C1726 1.465 . S
C1732 C1731 1.396 . S
C1732 C1733 1.399 . S
C1733 H1719 0.929 . S
C1733 C1732 1.399 . S
C1733 C1734 1.385 . S
C1734 H1720 0.931 . S
C1734 C1733 1.385 . S
C1734 C1735 1.389 . S
C1735 C1734 1.389 . S
C1735 C1736 1.387 . S
C1736 H1721 0.930 . S
C1736 C1731 1.390 . S
C1736 C1735 1.387 . S
H1737 C1749 0.930 . S
H1738 C1751 0.930 . S
H1739 C1752 0.930 . S
H1740 C1756 0.959 . S
H1741 C1756 0.959 . S
H1742 C1756 0.961 . S
H1743 C1757 0.960 . S
H1744 C1757 0.961 . S
H1745 C1757 0.959 . S
H1746 C1760 0.929 . S
H1747 C1761 0.931 . S
H1748 C1763 0.930 . S
C1749 H1737 0.930 . S
C1749 C1750 1.399 . S
C1749 C1754 1.399 . S
C1750 C1749 1.399 . S
C1750 C1751 1.376 . S
C1751 H1738 0.930 . S
C1751 C1750 1.376 . S
C1751 C1752 1.388 . S
C1752 H1739 0.930 . S
C1752 C1751 1.388 . S
C1752 C1753 1.390 . S
C1753 C1752 1.390 . S
C1753 C1754 1.394 . S
C1753 C1759 1.465 . S
C1754 C1749 1.399 . S
C1754 C1753 1.394 . S
C1754 C1755 1.516 . S
C1755 C1754 1.516 . S
C1755 C1756 1.502 . S
C1755 C1757 1.561 . S
C1755 C1758 1.526 . S
C1756 H1740 0.959 . S
C1756 H1741 0.959 . S
C1756 H1742 0.961 . S
C1756 C1755 1.502 . S
C1757 H1743 0.960 . S
C1757 H1744 0.961 . S
C1757 H1745 0.959 . S
C1757 C1755 1.561 . S
C1758 C1755 1.526 . S
C1758 C1759 1.396 . S
C1758 C1763 1.390 . S
C1759 C1753 1.465 . S
C1759 C1758 1.396 . S
C1759 C1760 1.399 . S
C1760 H1746 0.929 . S
C1760 C1759 1.399 . S
C1760 C1761 1.385 . S
C1761 H1747 0.931 . S
C1761 C1760 1.385 . S
C1761 C1762 1.389 . S
C1762 C1761 1.389 . S
C1762 C1763 1.387 . S
C1763 H1748 0.930 . S
C1763 C1758 1.390 . S
C1763 C1762 1.387 . S
H1764 C1776 0.930 . S
H1765 C1778 0.930 . S
H1766 C1779 0.930 . S
H1767 C1783 0.959 . S
H1768 C1783 0.959 . S
H1769 C1783 0.961 . S
H1770 C1784 0.960 . S
H1771 C1784 0.961 . S
H1772 C1784 0.959 . S
H1773 C1787 0.929 . S
H1774 C1788 0.931 . S
H1775 C1790 0.930 . S
C1776 H1764 0.930 . S
C1776 C1777 1.399 . S
C1776 C1781 1.399 . S
C1777 C1776 1.399 . S
C1777 C1778 1.376 . S
C1778 H1765 0.930 . S
C1778 C1777 1.376 . S
C1778 C1779 1.388 . S
C1779 H1766 0.930 . S
C1779 C1778 1.388 . S
C1779 C1780 1.390 . S
C1780 C1779 1.390 . S
C1780 C1781 1.394 . S
C1780 C1786 1.465 . S
C1781 C1776 1.399 . S
C1781 C1780 1.394 . S
C1781 C1782 1.516 . S
C1782 C1781 1.516 . S
C1782 C1783 1.502 . S
C1782 C1784 1.561 . S
C1782 C1785 1.526 . S
C1783 H1767 0.959 . S
C1783 H1768 0.959 . S
C1783 H1769 0.961 . S
C1783 C1782 1.502 . S
C1784 H1770 0.960 . S
C1784 H1771 0.961 . S
C1784 H1772 0.959 . S
C1784 C1782 1.561 . S
C1785 C1782 1.526 . S
C1785 C1786 1.396 . S
C1785 C1790 1.390 . S
C1786 C1780 1.465 . S
C1786 C1785 1.396 . S
C1786 C1787 1.399 . S
C1787 H1773 0.929 . S
C1787 C1786 1.399 . S
C1787 C1788 1.385 . S
C1788 H1774 0.931 . S
C1788 C1787 1.385 . S
C1788 C1789 1.389 . S
C1789 C1788 1.389 . S
C1789 C1790 1.387 . S
C1790 H1775 0.930 . S
C1790 C1785 1.390 . S
C1790 C1789 1.387 . S
H1791 C1803 0.930 . S
H1792 C1805 0.930 . S
H1793 C1806 0.930 . S
H1794 C1810 0.959 . S
H1795 C1810 0.959 . S
H1796 C1810 0.961 . S
H1797 C1811 0.960 . S
H1798 C1811 0.961 . S
H1799 C1811 0.959 . S
H1800 C1814 0.929 . S
H1801 C1815 0.931 . S
H1802 C1817 0.930 . S
C1803 H1791 0.930 . S
C1803 C1804 1.399 . S
C1803 C1808 1.399 . S
C1804 C1803 1.399 . S
C1804 C1805 1.376 . S
C1805 H1792 0.930 . S
C1805 C1804 1.376 . S
C1805 C1806 1.388 . S
C1806 H1793 0.930 . S
C1806 C1805 1.388 . S
C1806 C1807 1.390 . S
C1807 C1806 1.390 . S
C1807 C1808 1.394 . S
C1807 C1813 1.465 . S
C1808 C1803 1.399 . S
C1808 C1807 1.394 . S
C1808 C1809 1.516 . S
C1809 C1808 1.516 . S
C1809 C1810 1.502 . S
C1809 C1811 1.561 . S
C1809 C1812 1.526 . S
C1810 H1794 0.959 . S
C1810 H1795 0.959 . S
C1810 H1796 0.961 . S
C1810 C1809 1.502 . S
C1811 H1797 0.960 . S
C1811 H1798 0.961 . S
C1811 H1799 0.959 . S
C1811 C1809 1.561 . S
C1812 C1809 1.526 . S
C1812 C1813 1.396 . S
C1812 C1817 1.390 . S
C1813 C1807 1.465 . S
C1813 C1812 1.396 . S
C1813 C1814 1.399 . S
C1814 H1800 0.929 . S
C1814 C1813 1.399 . S
C1814 C1815 1.385 . S
C1815 H1801 0.931 . S
C1815 C1814 1.385 . S
C1815 C1816 1.389 . S
C1816 C1815 1.389 . S
C1816 C1817 1.387 . S
C1817 H1802 0.930 . S
C1817 C1812 1.390 . S
C1817 C1816 1.387 . S
H1818 C1830 0.930 . S
H1819 C1832 0.930 . S
H1820 C1833 0.930 . S
H1821 C1837 0.959 . S
H1822 C1837 0.959 . S
H1823 C1837 0.961 . S
H1824 C1838 0.960 . S
H1825 C1838 0.951 1_656 S
H1826 C1838 0.959 1_655 S
H1827 C1841 0.929 . S
H1828 C1842 0.931 . S
H1829 C1844 0.930 . S
C1830 H1818 0.930 . S
C1830 C1831 1.399 . S
C1830 C1835 1.399 . S
C1831 C1830 1.399 . S
C1831 C1832 1.376 . S
C1832 H1819 0.930 . S
C1832 C1831 1.376 . S
C1832 C1833 1.388 . S
C1833 H1820 0.930 . S
C1833 C1832 1.388 . S
C1833 C1834 1.390 . S
C1834 C1833 1.390 . S
C1834 C1835 1.394 . S
C1834 C1840 1.465 1_455 S
C1835 C1830 1.399 . S
C1835 C1834 1.394 . S
C1835 C1836 1.516 . S
C1836 C1835 1.516 . S
C1836 C1837 1.502 1_554 S
C1836 C1838 1.561 . S
C1836 C1839 1.526 1_455 S
C1837 H1821 0.959 . S
C1837 H1822 0.959 . S
C1837 H1823 0.961 . S
C1837 C1836 1.502 1_556 S
C1838 H1824 0.960 . S
C1838 H1825 0.951 1_454 S
C1838 H1826 0.959 1_455 S
C1838 C1836 1.561 . S
C1839 C1836 1.526 1_655 S
C1839 C1840 1.396 . S
C1839 C1844 1.390 . S
C1840 C1834 1.465 1_655 S
C1840 C1839 1.396 . S
C1840 C1841 1.399 . S
C1841 H1827 0.929 . S
C1841 C1840 1.399 . S
C1841 C1842 1.385 . S
C1842 H1828 0.931 . S
C1842 C1841 1.385 . S
C1842 C1843 1.389 . S
C1843 C1842 1.389 . S
C1843 C1844 1.387 . S
C1844 H1829 0.930 . S
C1844 C1839 1.390 . S
C1844 C1843 1.387 . S
H1845 C1857 0.930 . S
H1846 C1859 0.930 . S
H1847 C1860 0.930 . S
H1848 C1864 0.959 . S
H1849 C1864 0.959 . S
H1850 C1864 0.961 . S
H1851 C1865 0.960 . S
H1852 C1865 0.961 . S
H1853 C1865 0.959 . S
H1854 C1868 0.929 . S
H1855 C1869 0.931 . S
H1856 C1871 0.930 . S
C1857 H1845 0.930 . S
C1857 C1858 1.399 . S
C1857 C1862 1.399 . S
C1858 C1857 1.399 . S
C1858 C1859 1.376 . S
C1859 H1846 0.930 . S
C1859 C1858 1.376 . S
C1859 C1860 1.388 . S
C1860 H1847 0.930 . S
C1860 C1859 1.388 . S
C1860 C1861 1.390 . S
C1861 C1860 1.390 . S
C1861 C1862 1.394 . S
C1861 C1867 1.465 . S
C1862 C1857 1.399 . S
C1862 C1861 1.394 . S
C1862 C1863 1.516 . S
C1863 C1862 1.516 . S
C1863 C1864 1.502 . S
C1863 C1865 1.561 . S
C1863 C1866 1.526 . S
C1864 H1848 0.959 . S
C1864 H1849 0.959 . S
C1864 H1850 0.961 . S
C1864 C1863 1.502 . S
C1865 H1851 0.960 . S
C1865 H1852 0.961 . S
C1865 H1853 0.959 . S
C1865 C1863 1.561 . S
C1866 C1863 1.526 . S
C1866 C1867 1.396 . S
C1866 C1871 1.390 . S
C1867 C1861 1.465 . S
C1867 C1866 1.396 . S
C1867 C1868 1.399 . S
C1868 H1854 0.929 . S
C1868 C1867 1.399 . S
C1868 C1869 1.385 . S
C1869 H1855 0.931 . S
C1869 C1868 1.385 . S
C1869 C1870 1.389 . S
C1870 C1869 1.389 . S
C1870 C1871 1.387 . S
C1871 H1856 0.930 . S
C1871 C1866 1.390 . S
C1871 C1870 1.387 . S
H1872 C1884 0.930 . S
H1873 C1886 0.930 . S
H1874 C1887 0.930 . S
H1875 C1891 0.959 . S
H1876 C1891 0.959 . S
H1877 C1891 0.961 . S
H1878 C1892 0.960 . S
H1879 C1892 0.961 . S
H1880 C1892 0.959 . S
H1881 C1895 0.929 . S
H1882 C1896 0.931 . S
H1883 C1898 0.930 . S
C1884 H1872 0.930 . S
C1884 C1885 1.399 . S
C1884 C1889 1.399 . S
C1885 C1884 1.399 . S
C1885 C1886 1.376 . S
C1886 H1873 0.930 . S
C1886 C1885 1.376 . S
C1886 C1887 1.388 . S
C1887 H1874 0.930 . S
C1887 C1886 1.388 . S
C1887 C1888 1.390 . S
C1888 C1887 1.390 . S
C1888 C1889 1.394 . S
C1888 C1894 1.465 . S
C1889 C1884 1.399 . S
C1889 C1888 1.394 . S
C1889 C1890 1.516 . S
C1890 C1889 1.516 . S
C1890 C1891 1.502 . S
C1890 C1892 1.561 . S
C1890 C1893 1.526 . S
C1891 H1875 0.959 . S
C1891 H1876 0.959 . S
C1891 H1877 0.961 . S
C1891 C1890 1.502 . S
C1892 H1878 0.960 . S
C1892 H1879 0.961 . S
C1892 H1880 0.959 . S
C1892 C1890 1.561 . S
C1893 C1890 1.526 . S
C1893 C1894 1.396 . S
C1893 C1898 1.390 . S
C1894 C1888 1.465 . S
C1894 C1893 1.396 . S
C1894 C1895 1.399 . S
C1895 H1881 0.929 . S
C1895 C1894 1.399 . S
C1895 C1896 1.385 . S
C1896 H1882 0.931 . S
C1896 C1895 1.385 . S
C1896 C1897 1.389 . S
C1897 C1896 1.389 . S
C1897 C1898 1.387 . S
C1898 H1883 0.930 . S
C1898 C1893 1.390 . S
C1898 C1897 1.387 . S
H1899 C1911 0.930 . S
H1900 C1913 0.930 . S
H1901 C1914 0.930 . S
H1902 C1918 0.959 . S
H1903 C1918 0.959 . S
H1904 C1918 0.961 . S
H1905 C1919 0.960 . S
H1906 C1919 0.961 . S
H1907 C1919 0.959 . S
H1908 C1922 0.929 . S
H1909 C1923 0.931 . S
H1910 C1925 0.930 . S
C1911 H1899 0.930 . S
C1911 C1912 1.399 . S
C1911 C1916 1.399 . S
C1912 C1911 1.399 . S
C1912 C1913 1.376 . S
C1913 H1900 0.930 . S
C1913 C1912 1.376 . S
C1913 C1914 1.388 . S
C1914 H1901 0.930 . S
C1914 C1913 1.388 . S
C1914 C1915 1.390 . S
C1915 C1914 1.390 . S
C1915 C1916 1.394 . S
C1915 C1921 1.465 . S
C1916 C1911 1.399 . S
C1916 C1915 1.394 . S
C1916 C1917 1.516 . S
C1917 C1916 1.516 . S
C1917 C1918 1.502 . S
C1917 C1919 1.561 . S
C1917 C1920 1.526 . S
C1918 H1902 0.959 . S
C1918 H1903 0.959 . S
C1918 H1904 0.961 . S
C1918 C1917 1.502 . S
C1919 H1905 0.960 . S
C1919 H1906 0.961 . S
C1919 H1907 0.959 . S
C1919 C1917 1.561 . S
C1920 C1917 1.526 . S
C1920 C1921 1.396 . S
C1920 C1925 1.390 . S
C1921 C1915 1.465 . S
C1921 C1920 1.396 . S
C1921 C1922 1.399 . S
C1922 H1908 0.929 . S
C1922 C1921 1.399 . S
C1922 C1923 1.385 . S
C1923 H1909 0.931 . S
C1923 C1922 1.385 . S
C1923 C1924 1.389 . S
C1924 C1923 1.389 . S
C1924 C1925 1.387 . S
C1925 H1910 0.930 . S
C1925 C1920 1.390 . S
C1925 C1924 1.387 . S
H1926 C1938 0.930 . S
H1927 C1940 0.959 . S
H1928 C1941 0.930 . S
H1929 C1945 0.959 . S
H1930 C1945 0.959 . S
H1931 C1945 0.961 . S
H1932 C1946 0.960 . S
H1933 C1946 0.961 . S
H1934 C1946 0.959 . S
H1935 C1949 0.929 . S
H1936 C1950 0.931 . S
H1937 C1952 0.930 . S
C1938 H1926 0.930 . S
C1938 C1939 1.399 . S
C1938 C1943 1.399 . S
C1939 C1938 1.399 . S
C1939 C1940 1.376 . S
C1940 H1927 0.959 . S
C1940 C1939 1.376 . S
C1940 C1941 1.388 . S
C1941 H1928 0.930 . S
C1941 C1940 1.388 . S
C1941 C1942 1.390 . S
C1942 C1941 1.390 . S
C1942 C1943 1.394 . S
C1942 C1948 1.465 . S
C1943 C1938 1.399 . S
C1943 C1942 1.394 . S
C1943 C1944 1.516 . S
C1944 C1943 1.516 . S
C1944 C1945 1.502 . S
C1944 C1946 1.561 . S
C1944 C1947 1.526 . S
C1945 H1929 0.959 . S
C1945 H1930 0.959 . S
C1945 H1931 0.961 . S
C1945 C1944 1.502 . S
C1946 H1932 0.960 . S
C1946 H1933 0.961 . S
C1946 H1934 0.959 . S
C1946 C1944 1.561 . S
C1947 C1944 1.526 . S
C1947 C1948 1.396 . S
C1947 C1952 1.390 . S
C1948 C1942 1.465 . S
C1948 C1947 1.396 . S
C1948 C1949 1.399 . S
C1949 H1935 0.929 . S
C1949 C1948 1.399 . S
C1949 C1950 1.385 . S
C1950 H1936 0.931 . S
C1950 C1949 1.385 . S
C1950 C1951 1.389 . S
C1951 C1950 1.389 . S
C1951 C1952 1.387 . S
C1952 H1937 0.930 . S
C1952 C1947 1.390 . S
C1952 C1951 1.387 . S
H1953 C1965 0.930 . S
H1954 C1967 0.930 . S
H1955 C1968 0.930 . S
H1956 C1972 0.959 1_655 S
H1957 C1972 0.959 . S
H1958 C1972 0.961 1_655 S
H1959 C1973 0.960 1_655 S
H1960 C1973 0.961 . S
H1961 C1973 0.959 . S
H1962 C1976 0.929 1_655 S
H1963 C1977 0.931 . S
H1964 C1979 0.930 . S
C1965 H1953 0.930 . S
C1965 C1966 1.399 . S
C1965 C1970 1.399 . S
C1966 C1965 1.399 . S
C1966 C1967 1.376 . S
C1967 H1954 0.930 . S
C1967 C1966 1.376 . S
C1967 C1968 1.388 . S
C1968 H1955 0.930 . S
C1968 C1967 1.388 . S
C1968 C1969 1.390 . S
C1969 C1968 1.390 . S
C1969 C1970 1.394 . S
C1969 C1975 1.465 . S
C1970 C1965 1.399 . S
C1970 C1969 1.394 . S
C1970 C1971 1.537 . S
C1971 C1970 1.537 . S
C1971 C1972 1.501 1_655 S
C1971 C1973 1.553 1_655 S
C1971 C1974 1.515 1_655 S
C1972 H1956 0.959 1_455 S
C1972 H1957 0.959 . S
C1972 H1958 0.961 1_455 S
C1972 C1971 1.501 1_455 S
C1973 H1959 0.960 1_455 S
C1973 H1960 0.961 . S
C1973 H1961 0.959 . S
C1973 C1971 1.553 1_455 S
C1974 C1971 1.515 1_455 S
C1974 C1975 1.396 1_455 S
C1974 C1979 1.390 . S
C1975 C1969 1.465 . S
C1975 C1974 1.396 1_655 S
C1975 C1976 1.399 1_655 S
C1976 H1962 0.929 1_455 S
C1976 C1975 1.399 1_455 S
C1976 C1977 1.385 . S
C1977 H1963 0.931 . S
C1977 C1976 1.385 . S
C1977 C1978 1.389 . S
C1978 C1977 1.389 . S
C1978 C1979 1.387 . S
C1979 H1964 0.930 . S
C1979 C1974 1.390 . S
C1979 C1978 1.387 . S
C1021 C74 1.611 . S
C1033 C991 1.676 . S
C1048 C830 1.658 . S
C1060 C158 1.657 . S
C1075 C235 1.686 . S
C1087 C746 1.661 . S
C1102 C326 1.671 . S
C1114 C907 1.685 . S
C1129 C410 1.636 . S
C1141 C914 1.638 . S
C1156 C487 1.658 . S
C1168 C998 1.620 . S
C1183 C823 1.670 . S
C1195 C578 1.642 . S
C1210 C655 1.662 . S
C1222 C739 1.664 . S
C1237 C319 1.672 . S
C1249 C403 1.643 . S
C1264 C67 1.679 . S
C1276 C494 1.642 . S
C1291 C151 1.679 . S
C1303 C571 1.651 . S
C1318 C662 1.665 . S
C1330 C242 1.667 . S
C1345 C69 1.412 . S
C1357 C735 1.612 . S
C1372 C153 1.497 . S
C1384 C896 1.621 . S
C1399 C980 1.607 . S
C1411 C226 1.617 . S
C1426 C321 1.456 . S
C1438 C819 1.602 . S
C1453 C405 1.449 . S
C1465 C812 1.614 . S
C1480 C728 1.651 . S
C1492 C478 1.649 . S
C1507 C903 1.609 . S
C1519 C573 1.324 . S
C1534 C987 1.708 . S
C1546 C646 1.684 . S
C1561 C56 1.659 . S
C1573 C310 1.643 . S
C1588 C58 1.627 . S
C1600 C140 1.641 . S
C1615 C142 1.580 . S
C1627 C231 1.627 . S
C1642 C308 1.661 . S
C1654 C237 1.359 . S
C1669 C489 1.467 . S
C1681 C392 1.592 . S
C1696 C483 1.625 . S
C1708 C562 1.596 . S
C1723 C560 1.644 . S
C1735 C657 1.378 . S
C1750 C394 1.577 . S
C1762 C651 1.633 . S
C1777 C730 1.550 . S
C1789 C315 1.607 . S
C1804 C476 1.574 . S
C1816 C825 1.457 . S
C1831 C741 1.321 . S
C1843 C567 1.594 . S
C1858 C898 1.635 . S
C1870 C644 1.619 . S
C1885 C399 1.668 . S
C1897 C982 1.648 . S
C1912 C993 1.327 . S
C1924 C147 1.637 . S
C1939 C224 1.659 . S
C1951 C814 1.661 . S
C1966 C909 1.423 . S
C1978 C63 1.606 . S
