# Generated by pormake.
# Topology bcu-k, (6)-cn, num edge types: 1
# Building blocks:
#     Node 0, Type 0, BuildingBlock: IZENUY_clean_sbu_0, # of connection points: 6
#     Node 1, Type 0, BuildingBlock: IZENUY_clean_sbu_0, # of connection points: 6
#     Node 2, Type 0, BuildingBlock: IZENUY_clean_sbu_0, # of connection points: 6
#     Node 3, Type 0, BuildingBlock: IZENUY_clean_sbu_0, # of connection points: 6
#     Node 4, Type 0, BuildingBlock: IZENUY_clean_sbu_0, # of connection points: 6
#     Node 5, Type 0, BuildingBlock: IZENUY_clean_sbu_0, # of connection points: 6
#     Node 6, Type 0, BuildingBlock: IZENUY_clean_sbu_0, # of connection points: 6
#     Node 7, Type 0, BuildingBlock: IZENUY_clean_sbu_0, # of connection points: 6
#     Node 8, Type 0, BuildingBlock: IZENUY_clean_sbu_0, # of connection points: 6
#     Node 9, Type 0, BuildingBlock: IZENUY_clean_sbu_0, # of connection points: 6
#     Node 10, Type 0, BuildingBlock: IZENUY_clean_sbu_0, # of connection points: 6
#     Node 11, Type 0, BuildingBlock: IZENUY_clean_sbu_0, # of connection points: 6
#     Node 12, Type 0, BuildingBlock: IZENUY_clean_sbu_0, # of connection points: 6
#     Node 13, Type 0, BuildingBlock: IZENUY_clean_sbu_0, # of connection points: 6
#     Node 14, Type 0, BuildingBlock: IZENUY_clean_sbu_0, # of connection points: 6
#     Node 15, Type 0, BuildingBlock: IZENUY_clean_sbu_0, # of connection points: 6
#     Node 16, Type 0, BuildingBlock: IZENUY_clean_sbu_0, # of connection points: 6
#     Node 17, Type 0, BuildingBlock: IZENUY_clean_sbu_0, # of connection points: 6
#     Node 18, Type 0, BuildingBlock: IZENUY_clean_sbu_0, # of connection points: 6
#     Node 19, Type 0, BuildingBlock: IZENUY_clean_sbu_0, # of connection points: 6
#     Node 20, Type 0, BuildingBlock: IZENUY_clean_sbu_0, # of connection points: 6
#     Node 21, Type 0, BuildingBlock: IZENUY_clean_sbu_0, # of connection points: 6
#     Node 22, Type 0, BuildingBlock: IZENUY_clean_sbu_0, # of connection points: 6
#     Node 23, Type 0, BuildingBlock: IZENUY_clean_sbu_0, # of connection points: 6
#     Node 24, Type 0, BuildingBlock: IZENUY_clean_sbu_0, # of connection points: 6
#     Node 25, Type 0, BuildingBlock: IZENUY_clean_sbu_0, # of connection points: 6
#     Node 26, Type 0, BuildingBlock: IZENUY_clean_sbu_0, # of connection points: 6
#     Node 27, Type 0, BuildingBlock: IZENUY_clean_sbu_0, # of connection points: 6
#     Node 28, Type 0, BuildingBlock: IZENUY_clean_sbu_0, # of connection points: 6
#     Node 29, Type 0, BuildingBlock: IZENUY_clean_sbu_0, # of connection points: 6
#     Node 30, Type 0, BuildingBlock: IZENUY_clean_sbu_0, # of connection points: 6
#     Node 31, Type 0, BuildingBlock: IZENUY_clean_sbu_0, # of connection points: 6
#     Node 32, Type 0, BuildingBlock: IZENUY_clean_sbu_0, # of connection points: 6
#     Node 33, Type 0, BuildingBlock: IZENUY_clean_sbu_0, # of connection points: 6
#     Node 34, Type 0, BuildingBlock: IZENUY_clean_sbu_0, # of connection points: 6
#     Node 35, Type 0, BuildingBlock: IZENUY_clean_sbu_0, # of connection points: 6
#     Node 36, Type 0, BuildingBlock: IZENUY_clean_sbu_0, # of connection points: 6
#     Node 37, Type 0, BuildingBlock: IZENUY_clean_sbu_0, # of connection points: 6
#     Node 38, Type 0, BuildingBlock: IZENUY_clean_sbu_0, # of connection points: 6
#     Node 39, Type 0, BuildingBlock: IZENUY_clean_sbu_0, # of connection points: 6
#     Node 40, Type 0, BuildingBlock: IZENUY_clean_sbu_0, # of connection points: 6
#     Node 41, Type 0, BuildingBlock: IZENUY_clean_sbu_0, # of connection points: 6
#     Node 42, Type 0, BuildingBlock: IZENUY_clean_sbu_0, # of connection points: 6
#     Node 43, Type 0, BuildingBlock: IZENUY_clean_sbu_0, # of connection points: 6
#     Node 44, Type 0, BuildingBlock: IZENUY_clean_sbu_0, # of connection points: 6
#     Node 45, Type 0, BuildingBlock: IZENUY_clean_sbu_0, # of connection points: 6
#     Node 46, Type 0, BuildingBlock: IZENUY_clean_sbu_0, # of connection points: 6
#     Node 47, Type 0, BuildingBlock: IZENUY_clean_sbu_0, # of connection points: 6
#     Edge 48, Type (0, 0), BuildingBlock: AJUNOK_clean_linker_0, # of connection points: 2
#     Edge 49, Type (0, 0), BuildingBlock: AJUNOK_clean_linker_0, # of connection points: 2
#     Edge 50, Type (0, 0), BuildingBlock: AJUNOK_clean_linker_0, # of connection points: 2
#     Edge 51, Type (0, 0), BuildingBlock: AJUNOK_clean_linker_0, # of connection points: 2
#     Edge 52, Type (0, 0), BuildingBlock: AJUNOK_clean_linker_0, # of connection points: 2
#     Edge 53, Type (0, 0), BuildingBlock: AJUNOK_clean_linker_0, # of connection points: 2
#     Edge 54, Type (0, 0), BuildingBlock: AJUNOK_clean_linker_0, # of connection points: 2
#     Edge 55, Type (0, 0), BuildingBlock: AJUNOK_clean_linker_0, # of connection points: 2
#     Edge 56, Type (0, 0), BuildingBlock: AJUNOK_clean_linker_0, # of connection points: 2
#     Edge 57, Type (0, 0), BuildingBlock: AJUNOK_clean_linker_0, # of connection points: 2
#     Edge 58, Type (0, 0), BuildingBlock: AJUNOK_clean_linker_0, # of connection points: 2
#     Edge 59, Type (0, 0), BuildingBlock: AJUNOK_clean_linker_0, # of connection points: 2
#     Edge 60, Type (0, 0), BuildingBlock: AJUNOK_clean_linker_0, # of connection points: 2
#     Edge 61, Type (0, 0), BuildingBlock: AJUNOK_clean_linker_0, # of connection points: 2
#     Edge 62, Type (0, 0), BuildingBlock: AJUNOK_clean_linker_0, # of connection points: 2
#     Edge 63, Type (0, 0), BuildingBlock: AJUNOK_clean_linker_0, # of connection points: 2
#     Edge 64, Type (0, 0), BuildingBlock: AJUNOK_clean_linker_0, # of connection points: 2
#     Edge 65, Type (0, 0), BuildingBlock: AJUNOK_clean_linker_0, # of connection points: 2
#     Edge 66, Type (0, 0), BuildingBlock: AJUNOK_clean_linker_0, # of connection points: 2
#     Edge 67, Type (0, 0), BuildingBlock: AJUNOK_clean_linker_0, # of connection points: 2
#     Edge 68, Type (0, 0), BuildingBlock: AJUNOK_clean_linker_0, # of connection points: 2
#     Edge 69, Type (0, 0), BuildingBlock: AJUNOK_clean_linker_0, # of connection points: 2
#     Edge 70, Type (0, 0), BuildingBlock: AJUNOK_clean_linker_0, # of connection points: 2
#     Edge 71, Type (0, 0), BuildingBlock: AJUNOK_clean_linker_0, # of connection points: 2
#     Edge 72, Type (0, 0), BuildingBlock: AJUNOK_clean_linker_0, # of connection points: 2
#     Edge 73, Type (0, 0), BuildingBlock: AJUNOK_clean_linker_0, # of connection points: 2
#     Edge 74, Type (0, 0), BuildingBlock: AJUNOK_clean_linker_0, # of connection points: 2
#     Edge 75, Type (0, 0), BuildingBlock: AJUNOK_clean_linker_0, # of connection points: 2
#     Edge 76, Type (0, 0), BuildingBlock: AJUNOK_clean_linker_0, # of connection points: 2
#     Edge 77, Type (0, 0), BuildingBlock: AJUNOK_clean_linker_0, # of connection points: 2
#     Edge 78, Type (0, 0), BuildingBlock: AJUNOK_clean_linker_0, # of connection points: 2
#     Edge 79, Type (0, 0), BuildingBlock: AJUNOK_clean_linker_0, # of connection points: 2
#     Edge 80, Type (0, 0), BuildingBlock: AJUNOK_clean_linker_0, # of connection points: 2
#     Edge 81, Type (0, 0), BuildingBlock: AJUNOK_clean_linker_0, # of connection points: 2
#     Edge 82, Type (0, 0), BuildingBlock: AJUNOK_clean_linker_0, # of connection points: 2
#     Edge 83, Type (0, 0), BuildingBlock: AJUNOK_clean_linker_0, # of connection points: 2
#     Edge 84, Type (0, 0), BuildingBlock: AJUNOK_clean_linker_0, # of connection points: 2
#     Edge 85, Type (0, 0), BuildingBlock: AJUNOK_clean_linker_0, # of connection points: 2
#     Edge 86, Type (0, 0), BuildingBlock: AJUNOK_clean_linker_0, # of connection points: 2
#     Edge 87, Type (0, 0), BuildingBlock: AJUNOK_clean_linker_0, # of connection points: 2
#     Edge 88, Type (0, 0), BuildingBlock: AJUNOK_clean_linker_0, # of connection points: 2
#     Edge 89, Type (0, 0), BuildingBlock: AJUNOK_clean_linker_0, # of connection points: 2
#     Edge 90, Type (0, 0), BuildingBlock: AJUNOK_clean_linker_0, # of connection points: 2
#     Edge 91, Type (0, 0), BuildingBlock: AJUNOK_clean_linker_0, # of connection points: 2
#     Edge 92, Type (0, 0), BuildingBlock: AJUNOK_clean_linker_0, # of connection points: 2
#     Edge 93, Type (0, 0), BuildingBlock: AJUNOK_clean_linker_0, # of connection points: 2
#     Edge 94, Type (0, 0), BuildingBlock: AJUNOK_clean_linker_0, # of connection points: 2
#     Edge 95, Type (0, 0), BuildingBlock: AJUNOK_clean_linker_0, # of connection points: 2
#     Edge 96, Type (0, 0), BuildingBlock: AJUNOK_clean_linker_0, # of connection points: 2
#     Edge 97, Type (0, 0), BuildingBlock: AJUNOK_clean_linker_0, # of connection points: 2
#     Edge 98, Type (0, 0), BuildingBlock: AJUNOK_clean_linker_0, # of connection points: 2
#     Edge 99, Type (0, 0), BuildingBlock: AJUNOK_clean_linker_0, # of connection points: 2
#     Edge 100, Type (0, 0), BuildingBlock: AJUNOK_clean_linker_0, # of connection points: 2
#     Edge 101, Type (0, 0), BuildingBlock: AJUNOK_clean_linker_0, # of connection points: 2
#     Edge 102, Type (0, 0), BuildingBlock: AJUNOK_clean_linker_0, # of connection points: 2
#     Edge 103, Type (0, 0), BuildingBlock: AJUNOK_clean_linker_0, # of connection points: 2
#     Edge 104, Type (0, 0), BuildingBlock: AJUNOK_clean_linker_0, # of connection points: 2
#     Edge 105, Type (0, 0), BuildingBlock: AJUNOK_clean_linker_0, # of connection points: 2
#     Edge 106, Type (0, 0), BuildingBlock: AJUNOK_clean_linker_0, # of connection points: 2
#     Edge 107, Type (0, 0), BuildingBlock: AJUNOK_clean_linker_0, # of connection points: 2
#     Edge 108, Type (0, 0), BuildingBlock: AJUNOK_clean_linker_0, # of connection points: 2
#     Edge 109, Type (0, 0), BuildingBlock: AJUNOK_clean_linker_0, # of connection points: 2
#     Edge 110, Type (0, 0), BuildingBlock: AJUNOK_clean_linker_0, # of connection points: 2
#     Edge 111, Type (0, 0), BuildingBlock: AJUNOK_clean_linker_0, # of connection points: 2
#     Edge 112, Type (0, 0), BuildingBlock: AJUNOK_clean_linker_0, # of connection points: 2
#     Edge 113, Type (0, 0), BuildingBlock: AJUNOK_clean_linker_0, # of connection points: 2
#     Edge 114, Type (0, 0), BuildingBlock: AJUNOK_clean_linker_0, # of connection points: 2
#     Edge 115, Type (0, 0), BuildingBlock: AJUNOK_clean_linker_0, # of connection points: 2
#     Edge 116, Type (0, 0), BuildingBlock: AJUNOK_clean_linker_0, # of connection points: 2
#     Edge 117, Type (0, 0), BuildingBlock: AJUNOK_clean_linker_0, # of connection points: 2
#     Edge 118, Type (0, 0), BuildingBlock: AJUNOK_clean_linker_0, # of connection points: 2
#     Edge 119, Type (0, 0), BuildingBlock: AJUNOK_clean_linker_0, # of connection points: 2
#     Edge 120, Type (0, 0), BuildingBlock: AJUNOK_clean_linker_0, # of connection points: 2
#     Edge 121, Type (0, 0), BuildingBlock: AJUNOK_clean_linker_0, # of connection points: 2
#     Edge 122, Type (0, 0), BuildingBlock: AJUNOK_clean_linker_0, # of connection points: 2
#     Edge 123, Type (0, 0), BuildingBlock: AJUNOK_clean_linker_0, # of connection points: 2
#     Edge 124, Type (0, 0), BuildingBlock: AJUNOK_clean_linker_0, # of connection points: 2
#     Edge 125, Type (0, 0), BuildingBlock: AJUNOK_clean_linker_0, # of connection points: 2
#     Edge 126, Type (0, 0), BuildingBlock: AJUNOK_clean_linker_0, # of connection points: 2
#     Edge 127, Type (0, 0), BuildingBlock: AJUNOK_clean_linker_0, # of connection points: 2
#     Edge 128, Type (0, 0), BuildingBlock: AJUNOK_clean_linker_0, # of connection points: 2
#     Edge 129, Type (0, 0), BuildingBlock: AJUNOK_clean_linker_0, # of connection points: 2
#     Edge 130, Type (0, 0), BuildingBlock: AJUNOK_clean_linker_0, # of connection points: 2
#     Edge 131, Type (0, 0), BuildingBlock: AJUNOK_clean_linker_0, # of connection points: 2
#     Edge 132, Type (0, 0), BuildingBlock: AJUNOK_clean_linker_0, # of connection points: 2
#     Edge 133, Type (0, 0), BuildingBlock: AJUNOK_clean_linker_0, # of connection points: 2
#     Edge 134, Type (0, 0), BuildingBlock: AJUNOK_clean_linker_0, # of connection points: 2
#     Edge 135, Type (0, 0), BuildingBlock: AJUNOK_clean_linker_0, # of connection points: 2
#     Edge 136, Type (0, 0), BuildingBlock: AJUNOK_clean_linker_0, # of connection points: 2
#     Edge 137, Type (0, 0), BuildingBlock: AJUNOK_clean_linker_0, # of connection points: 2
#     Edge 138, Type (0, 0), BuildingBlock: AJUNOK_clean_linker_0, # of connection points: 2
#     Edge 139, Type (0, 0), BuildingBlock: AJUNOK_clean_linker_0, # of connection points: 2
#     Edge 140, Type (0, 0), BuildingBlock: AJUNOK_clean_linker_0, # of connection points: 2
#     Edge 141, Type (0, 0), BuildingBlock: AJUNOK_clean_linker_0, # of connection points: 2
#     Edge 142, Type (0, 0), BuildingBlock: AJUNOK_clean_linker_0, # of connection points: 2
#     Edge 143, Type (0, 0), BuildingBlock: AJUNOK_clean_linker_0, # of connection points: 2
#     Edge 144, Type (0, 0), BuildingBlock: AJUNOK_clean_linker_0, # of connection points: 2
#     Edge 145, Type (0, 0), BuildingBlock: AJUNOK_clean_linker_0, # of connection points: 2
#     Edge 146, Type (0, 0), BuildingBlock: AJUNOK_clean_linker_0, # of connection points: 2
#     Edge 147, Type (0, 0), BuildingBlock: AJUNOK_clean_linker_0, # of connection points: 2
#     Edge 148, Type (0, 0), BuildingBlock: AJUNOK_clean_linker_0, # of connection points: 2
#     Edge 149, Type (0, 0), BuildingBlock: AJUNOK_clean_linker_0, # of connection points: 2
#     Edge 150, Type (0, 0), BuildingBlock: AJUNOK_clean_linker_0, # of connection points: 2
#     Edge 151, Type (0, 0), BuildingBlock: AJUNOK_clean_linker_0, # of connection points: 2
#     Edge 152, Type (0, 0), BuildingBlock: AJUNOK_clean_linker_0, # of connection points: 2
#     Edge 153, Type (0, 0), BuildingBlock: AJUNOK_clean_linker_0, # of connection points: 2
#     Edge 154, Type (0, 0), BuildingBlock: AJUNOK_clean_linker_0, # of connection points: 2
#     Edge 155, Type (0, 0), BuildingBlock: AJUNOK_clean_linker_0, # of connection points: 2
#     Edge 156, Type (0, 0), BuildingBlock: AJUNOK_clean_linker_0, # of connection points: 2
#     Edge 157, Type (0, 0), BuildingBlock: AJUNOK_clean_linker_0, # of connection points: 2
#     Edge 158, Type (0, 0), BuildingBlock: AJUNOK_clean_linker_0, # of connection points: 2
#     Edge 159, Type (0, 0), BuildingBlock: AJUNOK_clean_linker_0, # of connection points: 2
#     Edge 160, Type (0, 0), BuildingBlock: AJUNOK_clean_linker_0, # of connection points: 2
#     Edge 161, Type (0, 0), BuildingBlock: AJUNOK_clean_linker_0, # of connection points: 2
#     Edge 162, Type (0, 0), BuildingBlock: AJUNOK_clean_linker_0, # of connection points: 2
#     Edge 163, Type (0, 0), BuildingBlock: AJUNOK_clean_linker_0, # of connection points: 2
#     Edge 164, Type (0, 0), BuildingBlock: AJUNOK_clean_linker_0, # of connection points: 2
#     Edge 165, Type (0, 0), BuildingBlock: AJUNOK_clean_linker_0, # of connection points: 2
#     Edge 166, Type (0, 0), BuildingBlock: AJUNOK_clean_linker_0, # of connection points: 2
#     Edge 167, Type (0, 0), BuildingBlock: AJUNOK_clean_linker_0, # of connection points: 2
#     Edge 168, Type (0, 0), BuildingBlock: AJUNOK_clean_linker_0, # of connection points: 2
#     Edge 169, Type (0, 0), BuildingBlock: AJUNOK_clean_linker_0, # of connection points: 2
#     Edge 170, Type (0, 0), BuildingBlock: AJUNOK_clean_linker_0, # of connection points: 2
#     Edge 171, Type (0, 0), BuildingBlock: AJUNOK_clean_linker_0, # of connection points: 2
#     Edge 172, Type (0, 0), BuildingBlock: AJUNOK_clean_linker_0, # of connection points: 2
#     Edge 173, Type (0, 0), BuildingBlock: AJUNOK_clean_linker_0, # of connection points: 2
#     Edge 174, Type (0, 0), BuildingBlock: AJUNOK_clean_linker_0, # of connection points: 2
#     Edge 175, Type (0, 0), BuildingBlock: AJUNOK_clean_linker_0, # of connection points: 2
#     Edge 176, Type (0, 0), BuildingBlock: AJUNOK_clean_linker_0, # of connection points: 2
#     Edge 177, Type (0, 0), BuildingBlock: AJUNOK_clean_linker_0, # of connection points: 2
#     Edge 178, Type (0, 0), BuildingBlock: AJUNOK_clean_linker_0, # of connection points: 2
#     Edge 179, Type (0, 0), BuildingBlock: AJUNOK_clean_linker_0, # of connection points: 2
#     Edge 180, Type (0, 0), BuildingBlock: AJUNOK_clean_linker_0, # of connection points: 2
#     Edge 181, Type (0, 0), BuildingBlock: AJUNOK_clean_linker_0, # of connection points: 2
#     Edge 182, Type (0, 0), BuildingBlock: AJUNOK_clean_linker_0, # of connection points: 2
#     Edge 183, Type (0, 0), BuildingBlock: AJUNOK_clean_linker_0, # of connection points: 2
#     Edge 184, Type (0, 0), BuildingBlock: AJUNOK_clean_linker_0, # of connection points: 2
#     Edge 185, Type (0, 0), BuildingBlock: AJUNOK_clean_linker_0, # of connection points: 2
#     Edge 186, Type (0, 0), BuildingBlock: AJUNOK_clean_linker_0, # of connection points: 2
#     Edge 187, Type (0, 0), BuildingBlock: AJUNOK_clean_linker_0, # of connection points: 2
#     Edge 188, Type (0, 0), BuildingBlock: AJUNOK_clean_linker_0, # of connection points: 2
#     Edge 189, Type (0, 0), BuildingBlock: AJUNOK_clean_linker_0, # of connection points: 2
#     Edge 190, Type (0, 0), BuildingBlock: AJUNOK_clean_linker_0, # of connection points: 2
#     Edge 191, Type (0, 0), BuildingBlock: AJUNOK_clean_linker_0, # of connection points: 2
# Relax obj value: 0.432
# Max RMSD: 0.167
# Mean RMSD: 0.166
data_MOF--net-bcu-k--node1-IZENUY_clean_sbu_0--edge1-AJUNOK_clean_linker_0
_symmetry_space_group_name_H-M    P1
_symmetry_Int_Tables_number       1
_symmetry_cell_setting            triclinic
loop_
_symmetry_equiv_pos_as_xyz
'x, y, z'
_cell_length_a     43.795853
_cell_length_b     43.798621
_cell_length_c     43.816789
_cell_angle_alpha  89.854475
_cell_angle_beta   89.98794
_cell_angle_gamma 89.981699
loop_
_atom_site_label
_atom_site_type_symbol
_atom_site_fract_x
_atom_site_fract_y
_atom_site_fract_z
_atom_type_partial_charge
Fe0 Fe 0.12871 0.12572 0.30013 0.0
Fe1 Fe 0.17121 0.17343 0.3273 0.0
O2 O 0.14436 0.14394 0.33248 0.0
Fe3 Fe 0.13402 0.13302 0.37024 0.0
O4 O 0.12773 0.09222 0.36119 0.0
O5 O 0.14177 0.08885 0.31315 0.0
O6 O 0.16427 0.12793 0.27752 0.0
C7 C 0.19175 0.13253 0.28567 0.0
C8 C 0.07847 0.13288 0.34066 0.0
O9 O 0.19764 0.14764 0.3094 0.0
C10 C 0.13612 0.19798 0.37159 0.0
O11 O 0.11412 0.16132 0.28405 0.0
O12 O 0.15669 0.18643 0.29052 0.0
O13 O 0.09396 0.1419 0.3633 0.0
O14 O 0.09097 0.12069 0.31757 0.0
C15 C 0.19555 0.14157 0.37682 0.0
O16 O 0.14553 0.20021 0.34459 0.0
O17 O 0.13798 0.17259 0.38584 0.0
C18 C 0.1305 0.18434 0.27883 0.0
O19 O 0.19154 0.16664 0.3632 0.0
O20 O 0.17377 0.12283 0.37919 0.0
C21 C 0.13531 0.07632 0.33822 0.0
Fe22 Fe 0.85065 0.17251 0.31848 0.0
Fe23 Fe 0.88782 0.13416 0.36356 0.0
O24 O 0.87874 0.14454 0.32541 0.0
Fe25 Fe 0.89784 0.12783 0.29401 0.0
O26 O 0.89647 0.16236 0.26988 0.0
O27 O 0.87834 0.19734 0.30067 0.0
O28 O 0.85689 0.1936 0.35394 0.0
C29 C 0.88115 0.1962 0.36916 0.0
C30 C 0.83973 0.12978 0.27208 0.0
O31 O 0.89845 0.17352 0.37295 0.0
C32 C 0.88958 0.07824 0.33507 0.0
O33 O 0.82192 0.14888 0.33567 0.0
O34 O 0.84762 0.13878 0.37772 0.0
O35 O 0.86237 0.11302 0.27801 0.0
O36 O 0.83858 0.15686 0.28183 0.0
C37 C 0.94563 0.13655 0.33356 0.0
O38 O 0.87861 0.09415 0.35651 0.0
O39 O 0.90288 0.09072 0.31261 0.0
C40 C 0.82266 0.13896 0.3626 0.0
O41 O 0.929 0.12772 0.35572 0.0
O42 O 0.93415 0.1414 0.30765 0.0
C43 C 0.89362 0.19018 0.27737 0.0
Fe44 Fe 0.89828 0.89461 0.29576 0.0
Fe45 Fe 0.84926 0.85164 0.31986 0.0
O46 O 0.8785 0.87838 0.32717 0.0
Fe47 Fe 0.88764 0.88839 0.36547 0.0
O48 O 0.89565 0.92878 0.35627 0.0
O49 O 0.88663 0.93262 0.3068 0.0
O50 O 0.86522 0.89394 0.27005 0.0
C51 C 0.83681 0.89305 0.27545 0.0
C52 C 0.94511 0.88572 0.33934 0.0
O53 O 0.82681 0.88006 0.29928 0.0
C54 C 0.88092 0.82394 0.36619 0.0
O55 O 0.91139 0.85716 0.28245 0.0
O56 O 0.86566 0.83724 0.28464 0.0
O57 O 0.92764 0.87743 0.36073 0.0
O58 O 0.93464 0.8984 0.31563 0.0
C59 C 0.82521 0.88371 0.36975 0.0
O60 O 0.87058 0.82237 0.33941 0.0
O61 O 0.88131 0.84915 0.38061 0.0
C62 C 0.89322 0.83553 0.27674 0.0
O63 O 0.82705 0.8599 0.3539 0.0
O64 O 0.84828 0.90048 0.37363 0.0
C65 C 0.88977 0.94479 0.33274 0.0
Fe66 Fe 0.13632 0.88574 0.36553 0.0
Fe67 Fe 0.12285 0.8954 0.29726 0.0
O68 O 0.14561 0.87957 0.32658 0.0
Fe69 Fe 0.17768 0.85728 0.31717 0.0
O70 O 0.17492 0.83227 0.35076 0.0
O71 O 0.13099 0.84451 0.37164 0.0
O72 O 0.0945 0.88849 0.35917 0.0
C73 C 0.07807 0.87899 0.33726 0.0
C74 C 0.20117 0.88946 0.36437 0.0
O75 O 0.08961 0.87536 0.31118 0.0
C76 C 0.1794 0.90431 0.27283 0.0
O77 O 0.14118 0.92708 0.36087 0.0
O78 O 0.11351 0.92976 0.31907 0.0
O79 O 0.20263 0.88377 0.3363 0.0
O80 O 0.1766 0.8843 0.37901 0.0
C81 C 0.13742 0.83645 0.27479 0.0
O82 O 0.15463 0.91659 0.28075 0.0
O83 O 0.1865 0.87789 0.28201 0.0
C84 C 0.12824 0.94279 0.34024 0.0
O85 O 0.1285 0.86365 0.27057 0.0
O86 O 0.15437 0.8298 0.2971 0.0
C87 C 0.15151 0.82492 0.36597 0.0
Fe88 Fe 0.12454 0.89117 0.71818 0.0
Fe89 Fe 0.1737 0.84955 0.69174 0.0
O90 O 0.14393 0.87612 0.68618 0.0
Fe91 Fe 0.13384 0.8869 0.64847 0.0
O92 O 0.14188 0.92701 0.65624 0.0
O93 O 0.11825 0.9289 0.70065 0.0
O94 O 0.15965 0.90669 0.73443 0.0
C95 C 0.18308 0.89075 0.73961 0.0
C96 C 0.07641 0.88261 0.67891 0.0
O97 O 0.1855 0.8643 0.72865 0.0
C98 C 0.14341 0.82539 0.64135 0.0
O99 O 0.12758 0.85571 0.74105 0.0
O100 O 0.14788 0.82262 0.7093 0.0
O101 O 0.09273 0.89207 0.65686 0.0
O102 O 0.08828 0.87685 0.70452 0.0
C103 C 0.19862 0.88649 0.64863 0.0
O104 O 0.1681 0.82943 0.65551 0.0
O105 O 0.12456 0.84708 0.63899 0.0
C106 C 0.13296 0.82825 0.73329 0.0
O107 O 0.20062 0.87561 0.67512 0.0
O108 O 0.17378 0.88418 0.63362 0.0
C109 C 0.13099 0.94224 0.67823 0.0
Fe110 Fe 0.12633 0.12538 0.72426 0.0
Fe111 Fe 0.17678 0.16716 0.70099 0.0
O112 O 0.14675 0.14151 0.69347 0.0
Fe113 Fe 0.13733 0.13292 0.65507 0.0
O114 O 0.09573 0.12814 0.66215 0.0
O115 O 0.09088 0.14077 0.71032 0.0
O116 O 0.12892 0.16001 0.74827 0.0
C117 C 0.13454 0.18768 0.74129 0.0
C118 C 0.13289 0.07616 0.68213 0.0
O119 O 0.15084 0.19395 0.71838 0.0
C120 C 0.20256 0.13311 0.65658 0.0
O121 O 0.16057 0.1087 0.74118 0.0
O122 O 0.18688 0.15098 0.7381 0.0
O123 O 0.14446 0.09234 0.66111 0.0
O124 O 0.12018 0.0885 0.70509 0.0
C125 C 0.14833 0.19427 0.65102 0.0
O126 O 0.20372 0.1412 0.6841 0.0
O127 O 0.17779 0.13592 0.6414 0.0
C128 C 0.18297 0.12472 0.74929 0.0
O129 O 0.17265 0.18889 0.66545 0.0
O130 O 0.12904 0.17326 0.64707 0.0
C131 C 0.07925 0.13681 0.68441 0.0
Fe132 Fe 0.8973 0.12301 0.72202 0.0
Fe133 Fe 0.85177 0.17039 0.69965 0.0
O134 O 0.87982 0.14267 0.69142 0.0
Fe135 Fe 0.88946 0.13496 0.6528 0.0
O136 O 0.89602 0.09341 0.65895 0.0
O137 O 0.88484 0.08673 0.70755 0.0
O138 O 0.86254 0.1227 0.74598 0.0
C139 C 0.8345 0.12639 0.73931 0.0
C140 C 0.94614 0.13342 0.68041 0.0
O141 O 0.82699 0.14183 0.71613 0.0
C142 C 0.88541 0.20008 0.65699 0.0
O143 O 0.91131 0.15818 0.73925 0.0
O144 O 0.86685 0.18063 0.73717 0.0
O145 O 0.92967 0.14379 0.65908 0.0
O146 O 0.9346 0.11988 0.70325 0.0
C147 C 0.82754 0.14256 0.64771 0.0
O148 O 0.87569 0.19967 0.68401 0.0
O149 O 0.88472 0.17588 0.64065 0.0
C150 C 0.89356 0.17904 0.74781 0.0
O151 O 0.83064 0.16619 0.66374 0.0
O152 O 0.84984 0.12481 0.64385 0.0
C153 C 0.88927 0.07601 0.68129 0.0
Fe154 Fe 0.89547 0.89232 0.71948 0.0
Fe155 Fe 0.88468 0.88634 0.65012 0.0
O156 O 0.87576 0.87602 0.68835 0.0
Fe157 Fe 0.84719 0.84849 0.69554 0.0
O158 O 0.83569 0.86418 0.73229 0.0
O159 O 0.86037 0.90759 0.73592 0.0
O160 O 0.90096 0.92946 0.70083 0.0
C161 C 0.88807 0.94231 0.67827 0.0
C162 C 0.88945 0.82995 0.73678 0.0
O163 O 0.87643 0.92661 0.65705 0.0
C164 C 0.87678 0.82437 0.64463 0.0
O165 O 0.93154 0.87811 0.70549 0.0
O166 O 0.92605 0.89201 0.65748 0.0
O167 O 0.87443 0.82292 0.71323 0.0
O168 O 0.89357 0.85781 0.74354 0.0
C169 C 0.81958 0.88348 0.65224 0.0
O170 O 0.89452 0.84671 0.64094 0.0
O171 O 0.8526 0.82754 0.65985 0.0
C172 C 0.94284 0.88311 0.67948 0.0
O173 O 0.84417 0.88274 0.63653 0.0
O174 O 0.81885 0.87281 0.67887 0.0
C175 C 0.83767 0.89106 0.74238 0.0
Fe176 Fe 0.3725 0.13449 0.1377 0.0
Fe177 Fe 0.30282 0.12547 0.13232 0.0
O178 O 0.33461 0.14467 0.14791 0.0
Fe179 Fe 0.32848 0.17412 0.17461 0.0
O180 O 0.34548 0.20127 0.14921 0.0
O181 O 0.38721 0.17456 0.14053 0.0
O182 O 0.36539 0.14238 0.09732 0.0
C183 C 0.34336 0.13167 0.082 0.0
C184 C 0.37877 0.14395 0.19931 0.0
O185 O 0.32085 0.11907 0.09515 0.0
C186 C 0.28683 0.13295 0.19471 0.0
O187 O 0.3641 0.09324 0.13267 0.0
O188 O 0.31614 0.08937 0.147 0.0
O189 O 0.36438 0.16853 0.1953 0.0
O190 O 0.38152 0.12524 0.17762 0.0
C191 C 0.28133 0.18381 0.13241 0.0
O192 O 0.27936 0.12847 0.16708 0.0
O193 O 0.31058 0.14795 0.20108 0.0
C194 C 0.34164 0.07714 0.14162 0.0
O195 O 0.28699 0.1606 0.11643 0.0
O196 O 0.29174 0.18603 0.15914 0.0
C197 C 0.37219 0.19951 0.13888 0.0
Fe198 Fe 0.89541 0.30182 0.12628 0.0
Fe199 Fe 0.85192 0.32769 0.17388 0.0
O200 O 0.87907 0.33369 0.14468 0.0
Fe201 Fe 0.88902 0.37155 0.13413 0.0
O202 O 0.89511 0.36277 0.0931 0.0
O203 O 0.88161 0.31451 0.08967 0.0
O204 O 0.86057 0.27826 0.12888 0.0
C205 C 0.83275 0.28554 0.13282 0.0
C206 C 0.94535 0.34307 0.13262 0.0
O207 O 0.82589 0.30933 0.1476 0.0
C208 C 0.88713 0.3719 0.19901 0.0
O209 O 0.91063 0.28656 0.1619 0.0
O210 O 0.86729 0.29115 0.1863 0.0
O211 O 0.92943 0.36498 0.14279 0.0
O212 O 0.9327 0.32007 0.12042 0.0
C213 C 0.82708 0.37706 0.14279 0.0
O214 O 0.87693 0.34515 0.20107 0.0
O215 O 0.88536 0.38668 0.17391 0.0
C216 C 0.89425 0.28126 0.18492 0.0
O217 O 0.83125 0.36342 0.16773 0.0
O218 O 0.84897 0.37987 0.12418 0.0
C219 C 0.88783 0.33967 0.07717 0.0
Fe220 Fe 0.65603 0.88743 0.13372 0.0
Fe221 Fe 0.72536 0.89244 0.12233 0.0
O222 O 0.69411 0.87663 0.14236 0.0
Fe223 Fe 0.7011 0.8491 0.17092 0.0
O224 O 0.66504 0.82863 0.16596 0.0
O225 O 0.64597 0.84795 0.12409 0.0
O226 O 0.66323 0.89295 0.09226 0.0
C227 C 0.68489 0.88314 0.07555 0.0
C228 C 0.65812 0.88384 0.19894 0.0
O229 O 0.71094 0.87826 0.08666 0.0
C230 C 0.7489 0.89084 0.17957 0.0
O231 O 0.66385 0.92764 0.14191 0.0
O232 O 0.70724 0.92978 0.11663 0.0
O233 O 0.685 0.8737 0.19944 0.0
O234 O 0.64258 0.88373 0.17424 0.0
C235 C 0.74119 0.82982 0.12787 0.0
O236 O 0.74211 0.90762 0.15719 0.0
O237 O 0.73843 0.86411 0.18174 0.0
C238 C 0.68497 0.94303 0.12949 0.0
O239 O 0.74895 0.85751 0.12408 0.0
O240 O 0.71782 0.82338 0.14342 0.0
C241 C 0.64965 0.82559 0.14187 0.0
Fe242 Fe 0.13733 0.6567 0.13189 0.0
Fe243 Fe 0.1245 0.72509 0.11967 0.0
O244 O 0.14761 0.69587 0.13507 0.0
Fe245 Fe 0.18118 0.70532 0.15473 0.0
O246 O 0.20379 0.68537 0.12655 0.0
O247 O 0.17776 0.64287 0.13154 0.0
O248 O 0.13982 0.65912 0.09046 0.0
C249 C 0.12695 0.67927 0.07405 0.0
C250 C 0.15657 0.66023 0.19126 0.0
O251 O 0.11455 0.70269 0.0858 0.0
C252 C 0.14105 0.74717 0.17809 0.0
O253 O 0.09528 0.66312 0.13051 0.0
O254 O 0.09192 0.71173 0.14087 0.0
O255 O 0.17998 0.67195 0.17947 0.0
O256 O 0.13435 0.65316 0.17405 0.0
C257 C 0.18027 0.7504 0.10866 0.0
O258 O 0.1309 0.75181 0.15136 0.0
O259 O 0.15961 0.72575 0.1834 0.0
C260 C 0.07932 0.68622 0.13769 0.0
O261 O 0.15537 0.74183 0.0972 0.0
O262 O 0.18877 0.74046 0.13421 0.0
C263 C 0.20226 0.65675 0.12383 0.0
Fe264 Fe 0.36224 0.88505 0.88641 0.0
Fe265 Fe 0.29251 0.89437 0.89435 0.0
O266 O 0.32384 0.87588 0.87674 0.0
Fe267 Fe 0.31659 0.84817 0.84841 0.0
O268 O 0.33381 0.81922 0.87163 0.0
O269 O 0.37605 0.84476 0.88174 0.0
O270 O 0.3563 0.87579 0.92663 0.0
C271 C 0.33462 0.88532 0.94311 0.0
C272 C 0.36734 0.87839 0.82424 0.0
O273 O 0.31129 0.89799 0.93157 0.0
C274 C 0.27518 0.89129 0.8318 0.0
O275 O 0.35461 0.92619 0.8931 0.0
O276 O 0.30589 0.93128 0.88189 0.0
O277 O 0.352 0.85426 0.82707 0.0
O278 O 0.37084 0.89584 0.84679 0.0
C279 C 0.27008 0.8364 0.89101 0.0
O280 O 0.26828 0.89407 0.85983 0.0
O281 O 0.29858 0.8763 0.82407 0.0
C282 C 0.33193 0.94285 0.88584 0.0
O283 O 0.27649 0.85845 0.90826 0.0
O284 O 0.27992 0.8358 0.86397 0.0
C285 C 0.36057 0.82001 0.882 0.0
Fe286 Fe 0.13484 0.36895 0.88766 0.0
Fe287 Fe 0.12653 0.29932 0.8948 0.0
O288 O 0.14551 0.33096 0.87854 0.0
Fe289 Fe 0.17545 0.32453 0.85243 0.0
O290 O 0.20196 0.34223 0.87801 0.0
O291 O 0.17471 0.38387 0.88494 0.0
O292 O 0.14215 0.3628 0.92835 0.0
C293 C 0.13162 0.34097 0.94417 0.0
C294 C 0.14555 0.37422 0.82613 0.0
O295 O 0.11938 0.31806 0.93147 0.0
C296 C 0.1347 0.28227 0.8328 0.0
O297 O 0.09367 0.36024 0.89215 0.0
O298 O 0.09054 0.31183 0.8794 0.0
O299 O 0.17005 0.35993 0.83084 0.0
O300 O 0.12631 0.3772 0.84738 0.0
C301 C 0.18509 0.27855 0.89578 0.0
O302 O 0.13022 0.27526 0.86058 0.0
O303 O 0.14981 0.3059 0.82596 0.0
C304 C 0.07813 0.3375 0.88307 0.0
O305 O 0.16164 0.28427 0.91143 0.0
O306 O 0.18734 0.28821 0.86878 0.0
C307 C 0.19973 0.36916 0.8876 0.0
Fe308 Fe 0.72348 0.12541 0.89455 0.0
Fe309 Fe 0.70045 0.17299 0.84946 0.0
O310 O 0.69264 0.14455 0.87694 0.0
Fe311 Fe 0.65411 0.13548 0.88601 0.0
O312 O 0.65978 0.14465 0.92623 0.0
O313 O 0.70411 0.12107 0.93136 0.0
O314 O 0.73937 0.16061 0.90947 0.0
C315 C 0.74596 0.18318 0.893 0.0
C316 C 0.68436 0.07758 0.88679 0.0
O317 O 0.73683 0.18472 0.86579 0.0
C318 C 0.6506 0.14304 0.82402 0.0
O319 O 0.74815 0.12652 0.8605 0.0
O320 O 0.71871 0.1456 0.82463 0.0
O321 O 0.6615 0.0943 0.89316 0.0
O322 O 0.71003 0.08912 0.88111 0.0
C323 C 0.6558 0.20046 0.88227 0.0
O324 O 0.66537 0.16738 0.82774 0.0
O325 O 0.64625 0.1251 0.84618 0.0
C326 C 0.74178 0.13018 0.83246 0.0
O327 O 0.68302 0.20126 0.87321 0.0
O328 O 0.64037 0.17574 0.88098 0.0
C329 C 0.68126 0.13462 0.94276 0.0
Fe330 Fe 0.88344 0.65251 0.88853 0.0
Fe331 Fe 0.89424 0.72188 0.89457 0.0
O332 O 0.87446 0.69071 0.87836 0.0
Fe333 Fe 0.84576 0.6978 0.85106 0.0
O334 O 0.81757 0.68116 0.87554 0.0
O335 O 0.84301 0.63873 0.88459 0.0
O336 O 0.87491 0.65957 0.92871 0.0
C337 C 0.88662 0.68063 0.94461 0.0
C338 C 0.8756 0.64724 0.82659 0.0
O339 O 0.89988 0.70311 0.93185 0.0
C340 C 0.88816 0.73861 0.83205 0.0
O341 O 0.92484 0.65996 0.89427 0.0
O342 O 0.9301 0.70791 0.88007 0.0
O343 O 0.8512 0.66213 0.83 0.0
O344 O 0.89335 0.64331 0.84889 0.0
C345 C 0.83651 0.74481 0.89367 0.0
O346 O 0.89221 0.74589 0.85983 0.0
O347 O 0.87289 0.71518 0.8254 0.0
C348 C 0.94132 0.68179 0.88442 0.0
O349 O 0.85929 0.73836 0.91006 0.0
O350 O 0.8344 0.73464 0.86682 0.0
C351 C 0.81827 0.65421 0.88537 0.0
Fe352 Fe 0.17481 0.3186 0.17179 0.0
Fe353 Fe 0.12797 0.2957 0.12582 0.0
O354 O 0.14614 0.32655 0.14458 0.0
Fe355 Fe 0.13644 0.36507 0.1362 0.0
O356 O 0.17585 0.37395 0.12489 0.0
O357 O 0.19665 0.35363 0.16543 0.0
O358 O 0.19836 0.30055 0.14319 0.0
C359 C 0.19021 0.27709 0.12867 0.0
C360 C 0.14257 0.3628 0.2012 0.0
O361 O 0.16204 0.2707 0.12606 0.0
C362 C 0.07942 0.33827 0.13494 0.0
O363 O 0.15867 0.28218 0.18401 0.0
O364 O 0.11394 0.27974 0.16179 0.0
O365 O 0.142 0.37841 0.17652 0.0
O366 O 0.15253 0.33587 0.20143 0.0
C367 C 0.13586 0.33557 0.07788 0.0
O368 O 0.09106 0.3152 0.12193 0.0
O369 O 0.09629 0.3589 0.14605 0.0
C370 C 0.13136 0.27302 0.18374 0.0
O371 O 0.14052 0.30934 0.08895 0.0
O372 O 0.12908 0.35799 0.09506 0.0
C373 C 0.19895 0.36932 0.14142 0.0
Fe374 Fe 0.13127 0.65048 0.88607 0.0
Fe375 Fe 0.12237 0.72032 0.89064 0.0
O376 O 0.14185 0.68826 0.8758 0.0
Fe377 Fe 0.17211 0.69365 0.84993 0.0
O378 O 0.16609 0.65771 0.82938 0.0
O379 O 0.12208 0.64143 0.84638 0.0
O380 O 0.09024 0.65917 0.89126 0.0
C381 C 0.07426 0.68116 0.8812 0.0
C382 C 0.19603 0.64957 0.8862 0.0
O383 O 0.08628 0.70675 0.87571 0.0
C384 C 0.18093 0.74203 0.8912 0.0
O385 O 0.13923 0.65781 0.92591 0.0
O386 O 0.11567 0.70237 0.92816 0.0
O387 O 0.1984 0.67643 0.87633 0.0
O388 O 0.17097 0.63507 0.88329 0.0
C389 C 0.1319 0.73547 0.82796 0.0
O390 O 0.15725 0.73673 0.90674 0.0
O391 O 0.18416 0.7304 0.8651 0.0
C392 C 0.12808 0.67953 0.94121 0.0
O393 O 0.12593 0.74334 0.85527 0.0
O394 O 0.14702 0.71155 0.82273 0.0
C395 C 0.14118 0.64394 0.82502 0.0
Fe396 Fe 0.29493 0.12414 0.90159 0.0
Fe397 Fe 0.31672 0.16898 0.85298 0.0
O398 O 0.32525 0.14184 0.88161 0.0
Fe399 Fe 0.36404 0.13322 0.88987 0.0
O400 O 0.35853 0.0927 0.88144 0.0
O401 O 0.31436 0.08728 0.90523 0.0
O402 O 0.27776 0.10931 0.86663 0.0
C403 C 0.26943 0.12627 0.84498 0.0
C404 C 0.33568 0.13341 0.94857 0.0
O405 O 0.27967 0.15304 0.84271 0.0
C406 C 0.36764 0.19517 0.88086 0.0
O407 O 0.27042 0.15843 0.90134 0.0
O408 O 0.29925 0.19411 0.8807 0.0
O409 O 0.35793 0.1268 0.9312 0.0
O410 O 0.30926 0.13729 0.93787 0.0
C411 C 0.36097 0.13595 0.82494 0.0
O412 O 0.35205 0.19095 0.8571 0.0
O413 O 0.37192 0.1734 0.89935 0.0
C414 C 0.27669 0.18645 0.89705 0.0
O415 O 0.33352 0.14462 0.8244 0.0
O416 O 0.37663 0.13786 0.84942 0.0
C417 C 0.33723 0.07598 0.89159 0.0
Fe418 Fe 0.89864 0.2948 0.89663 0.0
Fe419 Fe 0.8514 0.31608 0.85041 0.0
O420 O 0.87965 0.32498 0.87764 0.0
Fe421 Fe 0.88803 0.36393 0.88555 0.0
O422 O 0.92812 0.35909 0.87545 0.0
O423 O 0.93525 0.31476 0.89865 0.0
O424 O 0.91219 0.27787 0.86106 0.0
C425 C 0.89417 0.26903 0.84056 0.0
C426 C 0.89129 0.33507 0.94411 0.0
O427 O 0.86735 0.2793 0.8394 0.0
C428 C 0.82582 0.3666 0.8795 0.0
O429 O 0.86479 0.26977 0.89797 0.0
O430 O 0.82789 0.29833 0.87933 0.0
O431 O 0.89624 0.3578 0.92669 0.0
O432 O 0.8868 0.30885 0.93332 0.0
C433 C 0.88211 0.36086 0.82056 0.0
O434 O 0.8291 0.35091 0.85571 0.0
O435 O 0.84832 0.37153 0.89678 0.0
C436 C 0.83654 0.2757 0.89505 0.0
O437 O 0.8741 0.33322 0.82059 0.0
O438 O 0.88142 0.37637 0.84523 0.0
C439 C 0.94554 0.33812 0.88502 0.0
Fe440 Fe 0.70225 0.8505 0.8492 0.0
Fe441 Fe 0.65573 0.88732 0.88615 0.0
O442 O 0.69438 0.87816 0.87734 0.0
Fe443 Fe 0.72524 0.89642 0.89596 0.0
O444 O 0.75056 0.89625 0.86218 0.0
O445 O 0.72143 0.8784 0.82553 0.0
O446 O 0.66771 0.85757 0.82675 0.0
C447 C 0.65267 0.88197 0.82394 0.0
C448 C 0.74745 0.83839 0.89309 0.0
O449 O 0.64809 0.89889 0.84669 0.0
C450 C 0.68181 0.88661 0.94325 0.0
O451 O 0.68393 0.82153 0.87182 0.0
O452 O 0.6417 0.84751 0.88004 0.0
O453 O 0.74083 0.86053 0.91009 0.0
O454 O 0.73818 0.83758 0.86587 0.0
C455 C 0.68625 0.94484 0.88843 0.0
O456 O 0.66074 0.87706 0.92609 0.0
O457 O 0.70536 0.89968 0.93266 0.0
C458 C 0.65672 0.82255 0.88094 0.0
O459 O 0.66328 0.9281 0.89414 0.0
O460 O 0.71218 0.9334 0.8835 0.0
C461 C 0.74473 0.89309 0.83396 0.0
Fe462 Fe 0.88842 0.6513 0.13547 0.0
Fe463 Fe 0.89482 0.72122 0.12807 0.0
O464 O 0.87743 0.68906 0.14523 0.0
Fe465 Fe 0.84899 0.6949 0.17318 0.0
O466 O 0.85613 0.65959 0.19422 0.0
O467 O 0.89898 0.64292 0.17537 0.0
O468 O 0.9295 0.66082 0.12934 0.0
C469 C 0.94494 0.68443 0.13638 0.0
C470 C 0.82317 0.65014 0.13888 0.0
O471 O 0.93182 0.70949 0.14146 0.0
C472 C 0.83571 0.74029 0.13037 0.0
O473 O 0.87937 0.65743 0.09509 0.0
O474 O 0.9006 0.70281 0.09094 0.0
O475 O 0.82108 0.67671 0.14948 0.0
O476 O 0.8486 0.63571 0.13943 0.0
C477 C 0.89011 0.73794 0.19048 0.0
O478 O 0.85843 0.73536 0.11341 0.0
O479 O 0.8356 0.73105 0.15761 0.0
C480 C 0.88896 0.67932 0.07876 0.0
O481 O 0.89258 0.74532 0.16252 0.0
O482 O 0.87602 0.71389 0.19795 0.0
C483 C 0.88095 0.64565 0.19768 0.0
Fe484 Fe 0.3013 0.85556 0.16988 0.0
Fe485 Fe 0.35539 0.88399 0.13553 0.0
O486 O 0.31533 0.8813 0.14221 0.0
Fe487 Fe 0.28875 0.90376 0.12124 0.0
O488 O 0.27349 0.9215 0.1557 0.0
O489 O 0.26737 0.87779 0.17933 0.0
O490 O 0.32107 0.87585 0.2 0.0
C491 C 0.34946 0.88106 0.2006 0.0
C492 C 0.26149 0.846 0.1227 0.0
O493 O 0.36569 0.87815 0.17655 0.0
C494 C 0.32867 0.88615 0.07589 0.0
O495 O 0.33229 0.82786 0.16652 0.0
O496 O 0.35864 0.84294 0.12684 0.0
O497 O 0.25855 0.87465 0.1208 0.0
O498 O 0.28091 0.83442 0.14063 0.0
C499 C 0.33732 0.94454 0.13241 0.0
O500 O 0.35138 0.89037 0.09361 0.0
O501 O 0.30172 0.8877 0.0858 0.0
C502 C 0.34958 0.82182 0.14437 0.0
O503 O 0.35537 0.925 0.14366 0.0
O504 O 0.31406 0.93652 0.11741 0.0
C505 C 0.26232 0.90604 0.17727 0.0
Fe506 Fe 0.65612 0.13239 0.13273 0.0
Fe507 Fe 0.72587 0.12776 0.12352 0.0
O508 O 0.69389 0.14306 0.14271 0.0
Fe509 Fe 0.69966 0.16982 0.17206 0.0
O510 O 0.68292 0.1441 0.19932 0.0
O511 O 0.64129 0.13572 0.17264 0.0
O512 O 0.66378 0.09219 0.14099 0.0
C513 C 0.68539 0.07693 0.12937 0.0
C514 C 0.64917 0.19386 0.14167 0.0
O515 O 0.70812 0.09025 0.11723 0.0
C516 C 0.74096 0.19065 0.13092 0.0
O517 O 0.66456 0.12719 0.09162 0.0
O518 O 0.71227 0.1422 0.08741 0.0
O519 O 0.66361 0.19014 0.16627 0.0
O520 O 0.64639 0.17204 0.12316 0.0
C521 C 0.74729 0.12824 0.18191 0.0
O522 O 0.74888 0.16307 0.12638 0.0
O523 O 0.71708 0.19655 0.14587 0.0
C524 C 0.68662 0.13699 0.07548 0.0
O525 O 0.74204 0.11211 0.1587 0.0
O526 O 0.73662 0.15489 0.18383 0.0
C527 C 0.65599 0.13433 0.19776 0.0
Fe528 Fe 0.6684 0.6719 0.81877 0.0
Fe529 Fe 0.63106 0.63407 0.86408 0.0
O530 O 0.64055 0.64374 0.82584 0.0
Fe531 Fe 0.62305 0.62538 0.79445 0.0
O532 O 0.65736 0.62678 0.77001 0.0
O533 O 0.69299 0.64429 0.80054 0.0
O534 O 0.68997 0.6656 0.85395 0.0
C535 C 0.69309 0.64128 0.869 0.0
C536 C 0.62535 0.68373 0.77295 0.0
O537 O 0.67071 0.62359 0.87275 0.0
C538 C 0.57433 0.63303 0.83674 0.0
O539 O 0.64477 0.70035 0.83632 0.0
O540 O 0.63576 0.67404 0.87831 0.0
O541 O 0.60834 0.66132 0.77907 0.0
O542 O 0.65254 0.68433 0.78236 0.0
C543 C 0.63289 0.57688 0.83333 0.0
O544 O 0.59085 0.64318 0.85809 0.0
O545 O 0.58612 0.6205 0.81351 0.0
C546 C 0.63502 0.69907 0.8633 0.0
O547 O 0.6247 0.59305 0.85597 0.0
O548 O 0.63645 0.58868 0.80732 0.0
C549 C 0.68536 0.62944 0.77709 0.0
Fe550 Fe 0.34325 0.66901 0.82583 0.0
Fe551 Fe 0.38378 0.63254 0.8691 0.0
O552 O 0.37305 0.64254 0.83132 0.0
Fe553 Fe 0.3917 0.62695 0.79911 0.0
O554 O 0.3887 0.66247 0.77613 0.0
O555 O 0.36902 0.69576 0.80814 0.0
O556 O 0.34893 0.68937 0.86182 0.0
C557 C 0.37374 0.69386 0.87562 0.0
C558 C 0.33304 0.62774 0.77819 0.0
O559 O 0.39287 0.67249 0.87803 0.0
C560 C 0.38656 0.57658 0.84054 0.0
O561 O 0.31659 0.64296 0.84283 0.0
O562 O 0.34384 0.63511 0.88428 0.0
O563 O 0.35622 0.61151 0.78343 0.0
O564 O 0.33123 0.6543 0.78896 0.0
C565 C 0.44071 0.63584 0.8373 0.0
O566 O 0.37612 0.59228 0.86237 0.0
O567 O 0.39791 0.58934 0.81704 0.0
C568 C 0.31875 0.63276 0.86959 0.0
O569 O 0.42486 0.62767 0.86021 0.0
O570 O 0.42831 0.64089 0.81183 0.0
C571 C 0.38389 0.69002 0.78417 0.0
Fe572 Fe 0.39908 0.39471 0.80085 0.0
Fe573 Fe 0.34989 0.35041 0.82222 0.0
O574 O 0.37877 0.37704 0.83097 0.0
Fe575 Fe 0.38717 0.3856 0.86964 0.0
O576 O 0.37892 0.42622 0.86376 0.0
O577 O 0.40503 0.43069 0.82114 0.0
O578 O 0.36437 0.41141 0.78489 0.0
C579 C 0.34124 0.39569 0.77804 0.0
C580 C 0.44528 0.38273 0.84121 0.0
O581 O 0.33918 0.3682 0.78629 0.0
C582 C 0.37812 0.32343 0.87282 0.0
O583 O 0.39704 0.36167 0.77515 0.0
O584 O 0.37711 0.32535 0.80342 0.0
O585 O 0.42845 0.39153 0.86307 0.0
O586 O 0.43461 0.37915 0.81474 0.0
C587 C 0.32255 0.3836 0.86715 0.0
O588 O 0.35457 0.32745 0.85681 0.0
O589 O 0.39631 0.34532 0.87769 0.0
C590 C 0.393 0.33355 0.7807 0.0
O591 O 0.3216 0.37438 0.83997 0.0
O592 O 0.34701 0.38146 0.88268 0.0
C593 C 0.3909 0.44276 0.84325 0.0
Fe594 Fe 0.63559 0.38779 0.8653 0.0
Fe595 Fe 0.6222 0.39586 0.79653 0.0
O596 O 0.64304 0.37857 0.82649 0.0
Fe597 Fe 0.67106 0.3511 0.81767 0.0
O598 O 0.66634 0.32906 0.85289 0.0
O599 O 0.6253 0.34822 0.87396 0.0
O600 O 0.59432 0.39481 0.8596 0.0
C601 C 0.57691 0.38532 0.83852 0.0
C602 C 0.70048 0.38318 0.86176 0.0
O603 O 0.5868 0.38145 0.81184 0.0
C604 C 0.67835 0.39438 0.77011 0.0
O605 O 0.64472 0.42784 0.85886 0.0
O606 O 0.61827 0.43261 0.81616 0.0
O607 O 0.7004 0.3747 0.83431 0.0
O608 O 0.67607 0.38237 0.87761 0.0
C609 C 0.62668 0.33395 0.77784 0.0
O610 O 0.6566 0.4112 0.77861 0.0
O611 O 0.68127 0.36771 0.78072 0.0
C612 C 0.63309 0.44423 0.83811 0.0
O613 O 0.62269 0.36197 0.77172 0.0
O614 O 0.64287 0.32621 0.80038 0.0
C615 C 0.64262 0.32583 0.86889 0.0
Fe616 Fe 0.62998 0.39613 0.22082 0.0
Fe617 Fe 0.67302 0.34673 0.19742 0.0
O618 O 0.64611 0.37585 0.18994 0.0
Fe619 Fe 0.63633 0.3846 0.15153 0.0
O620 O 0.63046 0.4261 0.15822 0.0
O621 O 0.64397 0.43202 0.20615 0.0
O622 O 0.66494 0.39467 0.24436 0.0
C623 C 0.69265 0.38989 0.23715 0.0
C624 C 0.58026 0.38727 0.17996 0.0
O625 O 0.69917 0.37361 0.21436 0.0
C626 C 0.63821 0.31954 0.15426 0.0
O627 O 0.61461 0.36161 0.23822 0.0
O628 O 0.6573 0.3359 0.23458 0.0
O629 O 0.59606 0.37655 0.1583 0.0
O630 O 0.59259 0.40082 0.20236 0.0
C631 C 0.69811 0.37548 0.14637 0.0
O632 O 0.64795 0.31886 0.18122 0.0
O633 O 0.63996 0.344 0.13837 0.0
C634 C 0.6306 0.33874 0.24505 0.0
O635 O 0.69414 0.35129 0.16151 0.0
O636 O 0.67627 0.39394 0.14278 0.0
C637 C 0.63875 0.44317 0.18015 0.0
Fe638 Fe 0.63104 0.62566 0.22024 0.0
Fe639 Fe 0.67649 0.67079 0.19336 0.0
O640 O 0.64722 0.64364 0.18791 0.0
Fe641 Fe 0.63535 0.63462 0.15021 0.0
O642 O 0.59556 0.64461 0.15823 0.0
O643 O 0.59261 0.62293 0.2037 0.0
O644 O 0.6191 0.66214 0.23678 0.0
C645 C 0.63798 0.68292 0.24305 0.0
C646 C 0.63625 0.57688 0.18059 0.0
O647 O 0.66408 0.68287 0.23102 0.0
C648 C 0.69748 0.64013 0.14227 0.0
O649 O 0.66715 0.62522 0.24233 0.0
O650 O 0.70124 0.64208 0.20959 0.0
O651 O 0.6282 0.59366 0.15828 0.0
O652 O 0.64173 0.58829 0.20643 0.0
C653 C 0.64088 0.6996 0.1517 0.0
O654 O 0.69514 0.6648 0.15662 0.0
O655 O 0.67449 0.62298 0.13977 0.0
C656 C 0.69486 0.62806 0.23398 0.0
O657 O 0.65261 0.70019 0.1779 0.0
O658 O 0.64012 0.67489 0.13618 0.0
C659 C 0.58 0.63576 0.18096 0.0
Fe660 Fe 0.40036 0.62248 0.22679 0.0
Fe661 Fe 0.34448 0.65852 0.20566 0.0
O662 O 0.37779 0.63791 0.19693 0.0
Fe663 Fe 0.388 0.6332 0.1579 0.0
O664 O 0.38474 0.59193 0.16157 0.0
O665 O 0.40935 0.58747 0.20544 0.0
O666 O 0.36867 0.60136 0.24387 0.0
C667 C 0.34356 0.61315 0.25134 0.0
C668 C 0.44614 0.63946 0.18727 0.0
O669 O 0.33575 0.63877 0.24105 0.0
C670 C 0.36928 0.6927 0.15736 0.0
O671 O 0.39463 0.65539 0.25252 0.0
O672 O 0.36621 0.68699 0.22544 0.0
O673 O 0.42991 0.63164 0.16456 0.0
O674 O 0.43416 0.64194 0.21322 0.0
C675 C 0.32288 0.62695 0.15766 0.0
O676 O 0.34656 0.6831 0.17225 0.0
O677 O 0.3916 0.67495 0.15235 0.0
C678 C 0.38467 0.68213 0.24695 0.0
O679 O 0.32125 0.63066 0.18612 0.0
O680 O 0.34772 0.63318 0.14377 0.0
C681 C 0.39688 0.57553 0.1821 0.0
Fe682 Fe 0.35105 0.34755 0.19554 0.0
Fe683 Fe 0.39783 0.3914 0.22211 0.0
O684 O 0.37956 0.37546 0.18993 0.0
Fe685 Fe 0.38976 0.38647 0.1523 0.0
O686 O 0.3497 0.38276 0.13722 0.0
O687 O 0.32302 0.37199 0.17852 0.0
O688 O 0.33832 0.36219 0.2323 0.0
C689 C 0.33909 0.38909 0.24246 0.0
C690 C 0.38243 0.32475 0.14528 0.0
O691 O 0.36187 0.406 0.23737 0.0
C692 C 0.44689 0.38327 0.18388 0.0
O693 O 0.37813 0.32192 0.21328 0.0
O694 O 0.39548 0.35627 0.24524 0.0
O695 O 0.40021 0.34717 0.14261 0.0
O696 O 0.35768 0.32753 0.15961 0.0
C697 C 0.39203 0.44196 0.18142 0.0
O698 O 0.43454 0.37794 0.20932 0.0
O699 O 0.43088 0.39218 0.16127 0.0
C700 C 0.3926 0.32857 0.23726 0.0
O701 O 0.40378 0.42893 0.20445 0.0
O702 O 0.38098 0.42646 0.15974 0.0
C703 C 0.32445 0.38267 0.15193 0.0
Fe704 Fe 0.82349 0.67304 0.67323 0.0
Fe705 Fe 0.86754 0.63477 0.63492 0.0
O706 O 0.82965 0.64534 0.64468 0.0
Fe707 Fe 0.79773 0.62921 0.62605 0.0
O708 O 0.77451 0.66428 0.62787 0.0
O709 O 0.80615 0.69868 0.64594 0.0
O710 O 0.85959 0.69329 0.66758 0.0
C711 C 0.87448 0.69648 0.64323 0.0
C712 C 0.77649 0.63134 0.68429 0.0
O713 O 0.87699 0.67442 0.62498 0.0
C714 C 0.83805 0.57909 0.63372 0.0
O715 O 0.83996 0.64846 0.70133 0.0
O716 O 0.88186 0.6382 0.67533 0.0
O717 O 0.78205 0.61459 0.66167 0.0
O718 O 0.78652 0.65828 0.68526 0.0
C719 C 0.83641 0.63732 0.57729 0.0
O720 O 0.86037 0.59457 0.64344 0.0
O721 O 0.81539 0.59171 0.62092 0.0
C722 C 0.86658 0.63785 0.70028 0.0
O723 O 0.85918 0.62919 0.59355 0.0
O724 O 0.81091 0.64251 0.58947 0.0
C725 C 0.78233 0.692 0.6312 0.0
Fe726 Fe 0.39283 0.80021 0.62928 0.0
Fe727 Fe 0.34453 0.82787 0.67088 0.0
O728 O 0.37471 0.83282 0.64462 0.0
Fe729 Fe 0.38638 0.87031 0.63464 0.0
O730 O 0.37965 0.86367 0.59396 0.0
O731 O 0.40043 0.81783 0.59199 0.0
O732 O 0.35708 0.78566 0.61324 0.0
C733 C 0.33351 0.7812 0.62919 0.0
C734 C 0.44261 0.83725 0.63909 0.0
O735 O 0.33202 0.79135 0.65597 0.0
C736 C 0.3752 0.87737 0.69598 0.0
O737 O 0.38865 0.77719 0.66442 0.0
O738 O 0.36974 0.80941 0.69794 0.0
O739 O 0.42736 0.86053 0.63074 0.0
O740 O 0.42951 0.81207 0.64391 0.0
C741 C 0.32135 0.87202 0.63403 0.0
O742 O 0.35037 0.86379 0.69126 0.0
O743 O 0.39476 0.87911 0.67488 0.0
C744 C 0.38403 0.78506 0.69198 0.0
O745 O 0.31845 0.84546 0.64462 0.0
O746 O 0.34672 0.88621 0.63636 0.0
C747 C 0.39058 0.84167 0.57874 0.0
Fe748 Fe 0.15938 0.38628 0.63588 0.0
Fe749 Fe 0.22827 0.3985 0.62704 0.0
O750 O 0.19811 0.37874 0.64532 0.0
Fe751 Fe 0.20712 0.35134 0.67354 0.0
O752 O 0.19015 0.3216 0.65117 0.0
O753 O 0.14701 0.34563 0.64108 0.0
O754 O 0.16568 0.37699 0.59548 0.0
C755 C 0.18674 0.38794 0.57894 0.0
C756 C 0.15528 0.37937 0.69827 0.0
O757 O 0.20834 0.40292 0.59074 0.0
C758 C 0.24793 0.39547 0.68852 0.0
O759 O 0.16562 0.42781 0.62906 0.0
O760 O 0.21415 0.43461 0.64065 0.0
O761 O 0.17226 0.35633 0.69584 0.0
O762 O 0.15046 0.39652 0.67557 0.0
C763 C 0.25159 0.34097 0.62905 0.0
O764 O 0.25377 0.39805 0.66032 0.0
O765 O 0.22509 0.38013 0.69725 0.0
C766 C 0.18775 0.44529 0.63626 0.0
O767 O 0.24444 0.36317 0.61213 0.0
O768 O 0.24345 0.34029 0.65664 0.0
C769 C 0.16311 0.3213 0.64154 0.0
Fe770 Fe 0.63821 0.15339 0.6333 0.0
Fe771 Fe 0.62729 0.2227 0.62384 0.0
O772 O 0.64735 0.19214 0.64119 0.0
Fe773 Fe 0.67737 0.20094 0.66656 0.0
O774 O 0.69935 0.16628 0.66059 0.0
O775 O 0.67764 0.1449 0.62129 0.0
O776 O 0.63005 0.16038 0.59233 0.0
C777 C 0.63618 0.18337 0.57559 0.0
C778 C 0.64629 0.15669 0.69778 0.0
O779 O 0.63835 0.20985 0.58653 0.0
C780 C 0.63455 0.24632 0.68044 0.0
O781 O 0.59801 0.15839 0.64403 0.0
O782 O 0.59095 0.20269 0.62146 0.0
O783 O 0.65675 0.18354 0.69755 0.0
O784 O 0.64482 0.14075 0.67347 0.0
C785 C 0.68874 0.24237 0.6216 0.0
O786 O 0.61509 0.23802 0.66086 0.0
O787 O 0.66169 0.23711 0.67858 0.0
C788 C 0.58039 0.17896 0.63399 0.0
O789 O 0.66041 0.24828 0.62203 0.0
O790 O 0.699 0.21942 0.63605 0.0
C791 C 0.70095 0.14946 0.63756 0.0
Fe792 Fe 0.8732 0.38669 0.38562 0.0
Fe793 Fe 0.80359 0.39638 0.39062 0.0
O794 O 0.83534 0.37792 0.37412 0.0
Fe795 Fe 0.82909 0.3507 0.34518 0.0
O796 O 0.84515 0.32132 0.36877 0.0
O797 O 0.88712 0.3465 0.38069 0.0
O798 O 0.86543 0.37669 0.42535 0.0
C799 C 0.84415 0.38823 0.44102 0.0
C800 C 0.88035 0.38145 0.32369 0.0
O801 O 0.82127 0.4006 0.42832 0.0
C802 C 0.78812 0.39347 0.32757 0.0
O803 O 0.86528 0.42776 0.39267 0.0
O804 O 0.81736 0.43319 0.37834 0.0
O805 O 0.86538 0.35701 0.32561 0.0
O806 O 0.88342 0.39828 0.34672 0.0
C807 C 0.7802 0.33931 0.38538 0.0
O808 O 0.78052 0.39594 0.35543 0.0
O809 O 0.81213 0.3792 0.32041 0.0
C810 C 0.84318 0.44455 0.384 0.0
O811 O 0.78728 0.36023 0.40385 0.0
O812 O 0.79173 0.33868 0.35901 0.0
C813 C 0.87158 0.32181 0.38 0.0
Fe814 Fe 0.63689 0.86622 0.38684 0.0
Fe815 Fe 0.62701 0.79666 0.39495 0.0
O816 O 0.64606 0.82779 0.37745 0.0
Fe817 Fe 0.67436 0.82031 0.3498 0.0
O818 O 0.70279 0.83812 0.37339 0.0
O819 O 0.67696 0.88028 0.38258 0.0
O820 O 0.64551 0.86009 0.42717 0.0
C821 C 0.63454 0.83896 0.44356 0.0
C822 C 0.64447 0.87082 0.32473 0.0
O823 O 0.62176 0.81596 0.4316 0.0
C824 C 0.6321 0.77819 0.33312 0.0
O825 O 0.59586 0.85855 0.39296 0.0
O826 O 0.59052 0.81002 0.3809 0.0
O827 O 0.66845 0.85531 0.32787 0.0
O828 O 0.62685 0.87499 0.34709 0.0
C829 C 0.68532 0.7745 0.39341 0.0
O830 O 0.62884 0.77188 0.36117 0.0
O831 O 0.64694 0.80157 0.32503 0.0
C832 C 0.57923 0.83626 0.38479 0.0
O833 O 0.66272 0.78081 0.4102 0.0
O834 O 0.68639 0.78405 0.36626 0.0
C835 C 0.70178 0.86506 0.38333 0.0
Fe836 Fe 0.23403 0.62012 0.40405 0.0
Fe837 Fe 0.22116 0.6657 0.35351 0.0
O838 O 0.20751 0.64004 0.381 0.0
Fe839 Fe 0.16757 0.63429 0.385 0.0
O840 O 0.16967 0.62728 0.4268 0.0
O841 O 0.21785 0.63691 0.43781 0.0
O842 O 0.26253 0.65127 0.40477 0.0
C843 C 0.25865 0.6797 0.40064 0.0
C844 C 0.18885 0.57571 0.39115 0.0
O845 O 0.23854 0.68921 0.3824 0.0
C846 C 0.17617 0.63988 0.3205 0.0
O847 O 0.2519 0.602 0.37108 0.0
O848 O 0.25683 0.64517 0.34613 0.0
O849 O 0.17163 0.59365 0.37636 0.0
O850 O 0.21017 0.58587 0.40781 0.0
C851 C 0.16964 0.69637 0.37694 0.0
O852 O 0.2045 0.64276 0.32393 0.0
O853 O 0.15866 0.64094 0.34369 0.0
C854 C 0.26289 0.61714 0.34919 0.0
O855 O 0.18818 0.6916 0.3554 0.0
O856 O 0.16123 0.6747 0.3941 0.0
C857 C 0.19028 0.63493 0.4458 0.0
Fe858 Fe 0.38661 0.15173 0.38945 0.0
Fe859 Fe 0.39833 0.22117 0.39417 0.0
O860 O 0.37806 0.18993 0.37867 0.0
Fe861 Fe 0.3492 0.19682 0.35143 0.0
O862 O 0.32102 0.18094 0.37646 0.0
O863 O 0.346 0.13834 0.38593 0.0
O864 O 0.37839 0.15951 0.42953 0.0
C865 C 0.39011 0.181 0.44487 0.0
C866 C 0.3785 0.14557 0.32772 0.0
O867 O 0.40334 0.20323 0.43173 0.0
C868 C 0.39213 0.23665 0.33135 0.0
O869 O 0.42797 0.15869 0.39524 0.0
O870 O 0.43431 0.20639 0.3805 0.0
O871 O 0.3542 0.1606 0.33114 0.0
O872 O 0.39642 0.14208 0.34995 0.0
C873 C 0.3409 0.24516 0.39291 0.0
O874 O 0.39676 0.24429 0.35892 0.0
O875 O 0.37624 0.21347 0.32523 0.0
C876 C 0.44508 0.18036 0.38632 0.0
O877 O 0.36368 0.23863 0.40922 0.0
O878 O 0.33821 0.23417 0.36643 0.0
C879 C 0.32151 0.1542 0.38687 0.0
Fe880 Fe 0.63186 0.86941 0.63432 0.0
Fe881 Fe 0.66917 0.82522 0.6734 0.0
O882 O 0.64198 0.8314 0.64441 0.0
Fe883 Fe 0.62574 0.7996 0.62565 0.0
O884 O 0.63941 0.81283 0.58915 0.0
O885 O 0.62563 0.86094 0.59329 0.0
O886 O 0.6715 0.87834 0.62399 0.0
C887 C 0.69366 0.87517 0.6421 0.0
C888 C 0.57601 0.84033 0.63377 0.0
O889 O 0.69017 0.86082 0.66684 0.0
C890 C 0.62698 0.77788 0.68396 0.0
O891 O 0.63616 0.88435 0.67418 0.0
O892 O 0.64452 0.84258 0.70094 0.0
O893 O 0.58841 0.81786 0.6204 0.0
O894 O 0.59176 0.86254 0.6434 0.0
C895 C 0.68833 0.78373 0.63177 0.0
O896 O 0.65366 0.78857 0.68597 0.0
O897 O 0.61068 0.78368 0.66102 0.0
C898 C 0.63518 0.86965 0.69938 0.0
O899 O 0.69486 0.80723 0.64692 0.0
O900 O 0.66065 0.77604 0.62777 0.0
C901 C 0.63412 0.83842 0.57709 0.0
Fe902 Fe 0.63493 0.1577 0.3855 0.0
Fe903 Fe 0.6263 0.22681 0.39647 0.0
O904 O 0.64398 0.19631 0.37678 0.0
Fe905 Fe 0.67131 0.2046 0.34838 0.0
O906 O 0.64792 0.18671 0.31976 0.0
O907 O 0.63951 0.14427 0.34543 0.0
O908 O 0.59448 0.16362 0.37693 0.0
C909 C 0.57799 0.18382 0.38935 0.0
C910 C 0.69714 0.15394 0.37776 0.0
O911 O 0.59004 0.20671 0.40221 0.0
C912 C 0.68771 0.24654 0.39091 0.0
O913 O 0.62871 0.1647 0.42664 0.0
O914 O 0.64121 0.21309 0.43248 0.0
O915 O 0.69393 0.16996 0.35405 0.0
O916 O 0.6748 0.14919 0.39533 0.0
C917 C 0.62669 0.24961 0.33846 0.0
O918 O 0.6596 0.25237 0.39438 0.0
O919 O 0.696 0.22348 0.3758 0.0
C920 C 0.63743 0.18664 0.44339 0.0
O921 O 0.61031 0.24276 0.36123 0.0
O922 O 0.65399 0.24058 0.33677 0.0
C923 C 0.63869 0.15951 0.32063 0.0
Fe924 Fe 0.82589 0.67428 0.35051 0.0
Fe925 Fe 0.87018 0.63577 0.38808 0.0
O926 O 0.83211 0.64498 0.37746 0.0
Fe927 Fe 0.80043 0.62518 0.39279 0.0
O928 O 0.77784 0.62684 0.357 0.0
O929 O 0.8094 0.6477 0.3239 0.0
O930 O 0.86239 0.66956 0.3305 0.0
C931 C 0.87693 0.64507 0.32645 0.0
C932 C 0.77739 0.68318 0.3913 0.0
O933 O 0.87969 0.62637 0.34826 0.0
C934 C 0.84049 0.63329 0.44357 0.0
O935 O 0.84166 0.70179 0.37636 0.0
O936 O 0.88395 0.67608 0.38474 0.0
O937 O 0.78305 0.66014 0.4076 0.0
O938 O 0.78837 0.68522 0.36479 0.0
C939 C 0.84103 0.57777 0.38494 0.0
O940 O 0.86267 0.64374 0.42822 0.0
O941 O 0.81793 0.62038 0.4307 0.0
C942 C 0.86837 0.70063 0.38678 0.0
O943 O 0.86285 0.59461 0.39379 0.0
O944 O 0.81506 0.58896 0.37939 0.0
C945 C 0.78596 0.63191 0.32952 0.0
Fe946 Fe 0.4006 0.79899 0.39666 0.0
Fe947 Fe 0.347 0.82057 0.35778 0.0
O948 O 0.37863 0.82904 0.38099 0.0
Fe949 Fe 0.38811 0.86776 0.38807 0.0
O950 O 0.42976 0.86092 0.39145 0.0
O951 O 0.43464 0.81292 0.37811 0.0
O952 O 0.39566 0.77331 0.36362 0.0
C953 C 0.3875 0.77878 0.33633 0.0
C954 C 0.39579 0.8421 0.445 0.0
O955 O 0.3708 0.80145 0.33026 0.0
C956 C 0.32324 0.86677 0.39099 0.0
O957 O 0.36806 0.78238 0.41641 0.0
O958 O 0.33763 0.7848 0.37676 0.0
O959 O 0.38265 0.86249 0.42915 0.0
O960 O 0.40901 0.81968 0.43222 0.0
C961 C 0.37415 0.86957 0.32705 0.0
O962 O 0.32177 0.83889 0.38447 0.0
O963 O 0.34783 0.88155 0.38622 0.0
C964 C 0.34367 0.77505 0.40316 0.0
O965 O 0.35032 0.85489 0.33397 0.0
O966 O 0.39433 0.87473 0.34706 0.0
C967 C 0.44617 0.83892 0.38211 0.0
Fe968 Fe 0.20457 0.34808 0.35223 0.0
Fe969 Fe 0.15889 0.3854 0.3893 0.0
O970 O 0.19728 0.37691 0.37926 0.0
Fe971 Fe 0.2283 0.39701 0.39557 0.0
O972 O 0.25213 0.39582 0.36077 0.0
O973 O 0.22195 0.37523 0.32643 0.0
O974 O 0.16889 0.35312 0.33115 0.0
C975 C 0.1537 0.37726 0.32738 0.0
C976 C 0.25184 0.33916 0.39442 0.0
O977 O 0.14964 0.39531 0.34947 0.0
C978 C 0.18756 0.38742 0.44535 0.0
O979 O 0.18795 0.31979 0.3771 0.0
O980 O 0.14545 0.34524 0.38516 0.0
O981 O 0.24556 0.36202 0.41073 0.0
O982 O 0.2415 0.33707 0.3677 0.0
C983 C 0.18725 0.44368 0.38676 0.0
O984 O 0.16596 0.37661 0.42949 0.0
O985 O 0.20962 0.40151 0.43284 0.0
C986 C 0.16091 0.32064 0.38682 0.0
O987 O 0.1658 0.42644 0.39572 0.0
O988 O 0.21364 0.4333 0.3818 0.0
C989 C 0.24506 0.39113 0.33304 0.0
Fe990 Fe 0.35169 0.2021 0.6715 0.0
Fe991 Fe 0.38953 0.15485 0.63637 0.0
O992 O 0.3806 0.19353 0.64478 0.0
Fe993 Fe 0.40008 0.22407 0.62675 0.0
O994 O 0.41397 0.23882 0.66323 0.0
O995 O 0.36861 0.23777 0.6842 0.0
O996 O 0.37302 0.18386 0.7014 0.0
C997 C 0.38258 0.15677 0.70111 0.0
C998 C 0.33866 0.24463 0.62834 0.0
O999 O 0.3832 0.14142 0.67639 0.0
C1000 C 0.3911 0.1852 0.57841 0.0
O1001 O 0.32898 0.16789 0.66472 0.0
O1002 O 0.3501 0.14664 0.62485 0.0
O1003 O 0.36705 0.2501 0.62682 0.0
O1004 O 0.32919 0.22133 0.64252 0.0
C1005 C 0.44716 0.18018 0.63581 0.0
O1006 O 0.39723 0.1623 0.59534 0.0
O1007 O 0.38759 0.21149 0.58963 0.0
C1008 C 0.32696 0.15165 0.64118 0.0
O1009 O 0.42975 0.15988 0.6467 0.0
O1010 O 0.43627 0.20362 0.62287 0.0
C1011 C 0.39626 0.24557 0.68494 0.0
Fe1012 Fe 0.86105 0.38855 0.6327 0.0
Fe1013 Fe 0.79284 0.39855 0.61729 0.0
O1014 O 0.82188 0.3793 0.638 0.0
Fe1015 Fe 0.81134 0.35066 0.66435 0.0
O1016 O 0.84328 0.35658 0.69035 0.0
O1017 O 0.86607 0.39777 0.67329 0.0
O1018 O 0.85385 0.42982 0.6264 0.0
C1019 C 0.83066 0.44624 0.63255 0.0
C1020 C 0.86013 0.32356 0.63626 0.0
O1021 O 0.80424 0.43476 0.6333 0.0
C1022 C 0.77165 0.34008 0.61553 0.0
O1023 O 0.85902 0.38017 0.59179 0.0
O1024 O 0.81615 0.40489 0.58327 0.0
O1025 O 0.83216 0.3221 0.64299 0.0
O1026 O 0.87459 0.34869 0.63823 0.0
C1027 C 0.76787 0.39375 0.67635 0.0
O1028 O 0.77943 0.36304 0.59987 0.0
O1029 O 0.77746 0.33877 0.64364 0.0
C1030 C 0.8401 0.39211 0.57353 0.0
O1031 O 0.76411 0.39616 0.64782 0.0
O1032 O 0.78966 0.37801 0.68688 0.0
C1033 C 0.85938 0.37992 0.69497 0.0
Fe1034 Fe 0.19775 0.67305 0.67257 0.0
Fe1035 Fe 0.15331 0.6348 0.63475 0.0
O1036 O 0.19135 0.64524 0.6443 0.0
Fe1037 Fe 0.22305 0.62878 0.62553 0.0
O1038 O 0.23889 0.61397 0.66123 0.0
O1039 O 0.23445 0.65769 0.68494 0.0
O1040 O 0.18051 0.64893 0.70085 0.0
C1041 C 0.15389 0.63831 0.69948 0.0
C1042 C 0.23937 0.69135 0.63032 0.0
O1043 O 0.13877 0.63912 0.67462 0.0
C1044 C 0.18366 0.63727 0.57752 0.0
O1045 O 0.16204 0.69379 0.66618 0.0
O1046 O 0.14416 0.6744 0.62402 0.0
O1047 O 0.24687 0.66352 0.62711 0.0
O1048 O 0.21573 0.6983 0.64525 0.0
C1049 C 0.18208 0.57888 0.63344 0.0
O1050 O 0.16151 0.62829 0.59392 0.0
O1051 O 0.20954 0.6424 0.58904 0.0
C1052 C 0.14737 0.69688 0.64167 0.0
O1053 O 0.16031 0.59469 0.64399 0.0
O1054 O 0.20472 0.5915 0.62048 0.0
C1055 C 0.24436 0.63065 0.684 0.0
C1056 C 0.13823 0.02576 0.36628 0.0
C1057 C 0.1332 0.04237 0.33914 0.0
C1058 C 0.13678 0.99355 0.36674 0.0
C1059 C 0.12956 0.97685 0.34022 0.0
H1060 H 0.1438 0.03769 0.38718 0.0
H1061 H 0.14114 0.98169 0.38802 0.0
S1062 S 0.11355 1.00969 0.26344 0.0
N1063 N 0.12018 0.03957 0.28525 0.0
N1064 N 0.11729 0.97979 0.28604 0.0
C1065 C 0.12416 0.99339 0.31307 0.0
C1066 C 0.126 0.02589 0.31255 0.0
C1067 C 0.02666 0.12693 0.36503 0.0
C1068 C 0.04488 0.13649 0.34036 0.0
C1069 C 0.99453 0.12764 0.36313 0.0
C1070 C 0.97957 0.13832 0.33663 0.0
H1071 H 0.03728 0.1178 0.38543 0.0
H1072 H 0.98139 0.11907 0.38225 0.0
S1073 S 0.01774 0.17019 0.26757 0.0
N1074 N 0.04605 0.15947 0.28998 0.0
N1075 N 0.98624 0.16178 0.28644 0.0
C1076 C 0.99789 0.14955 0.31253 0.0
C1077 C 0.03036 0.14835 0.31438 0.0
C1078 C 0.89218 0.02805 0.30849 0.0
C1079 C 0.88838 0.04428 0.33593 0.0
C1080 C 0.89231 0.99613 0.30786 0.0
C1081 C 0.88895 0.97874 0.33471 0.0
H1082 H 0.89507 0.04009 0.28705 0.0
H1083 H 0.89549 0.98506 0.28601 0.0
S1084 S 0.87735 1.00986 0.41264 0.0
N1085 N 0.88037 0.04046 0.39073 0.0
N1086 N 0.88087 0.98023 0.38964 0.0
C1087 C 0.88481 0.99456 0.36239 0.0
C1088 C 0.88437 0.02731 0.36298 0.0
C1089 C 0.99473 0.87597 0.31375 0.0
C1090 C 0.97866 0.88104 0.34105 0.0
C1091 C 0.02656 0.87398 0.31325 0.0
C1092 C 0.0441 0.87744 0.33999 0.0
H1093 H 0.98257 0.87388 0.29231 0.0
H1094 H 0.03745 0.87065 0.29131 0.0
S1095 S 0.01293 0.8889 0.418 0.0
N1096 N 0.98234 0.88753 0.39596 0.0
N1097 N 0.04257 0.88438 0.3951 0.0
C1098 C 0.02828 0.88139 0.36776 0.0
C1099 C 0.99552 0.883 0.36829 0.0
C1100 C 0.1125 0.9929 0.69754 0.0
C1101 C 0.13147 0.97638 0.67753 0.0
C1102 C 0.11299 0.02491 0.69851 0.0
C1103 C 0.13249 0.04211 0.67953 0.0
H1104 H 0.09701 0.98104 0.71277 0.0
H1105 H 0.09785 0.03623 0.71443 0.0
S1106 S 0.18782 1.01015 0.62379 0.0
N1107 N 0.171 0.97982 0.63865 0.0
N1108 N 0.17193 0.03997 0.64046 0.0
C1109 C 0.15162 0.02596 0.65931 0.0
C1110 C 0.15111 0.9932 0.65831 0.0
C1111 C 0.02962 0.1286 0.65563 0.0
C1112 C 0.04525 0.13921 0.68172 0.0
C1113 C 0.99739 0.1279 0.65454 0.0
C1114 C 0.97975 0.13737 0.67965 0.0
H1115 H 0.0423 0.11995 0.63627 0.0
H1116 H 0.98627 0.11875 0.63447 0.0
S1117 S 1.00874 0.17079 0.75166 0.0
N1118 N 0.03975 0.16263 0.73194 0.0
N1119 N 0.97988 0.16007 0.73002 0.0
C1120 C 0.99494 0.14919 0.70518 0.0
C1121 C 0.02747 0.15047 0.70617 0.0
C1122 C 0.89465 0.02444 0.70483 0.0
C1123 C 0.88931 0.04207 0.67843 0.0
C1124 C 0.89412 0.99256 0.70419 0.0
C1125 C 0.88799 0.9764 0.67716 0.0
H1126 H 0.89947 0.03533 0.72648 0.0
H1127 H 0.89837 0.98051 0.7254 0.0
S1128 S 0.87216 0.01141 0.60148 0.0
N1129 N 0.87763 0.04095 0.62423 0.0
N1130 N 0.87635 0.98064 0.62298 0.0
C1131 C 0.88249 0.9936 0.65043 0.0
C1132 C 0.88334 0.02642 0.65104 0.0
C1133 C 0.99365 0.86598 0.69919 0.0
C1134 C 0.97674 0.88107 0.67632 0.0
C1135 C 0.02562 0.86591 0.69912 0.0
C1136 C 0.04244 0.88089 0.67615 0.0
H1137 H 0.98212 0.85445 0.71782 0.0
H1138 H 0.03721 0.85434 0.71768 0.0
S1139 S 1.00946 0.9223 0.60978 0.0
N1140 N 0.97938 0.91023 0.62908 0.0
N1141 N 0.0396 0.91007 0.62887 0.0
C1142 C 0.02594 0.89507 0.65237 0.0
C1143 C 0.99314 0.89516 0.65246 0.0
C1144 C 0.31499 0.13006 0.03271 0.0
C1145 C 0.34312 0.13298 0.04798 0.0
C1146 C 0.3131 0.13056 1.00086 0.0
C1147 C 0.33928 0.13369 0.98246 0.0
H1148 H 0.29395 0.12747 0.04547 0.0
H1149 H 0.29072 0.12804 0.99065 0.0
S1150 S 0.41865 0.14288 0.01078 0.0
N1151 N 0.39792 0.13984 0.04215 0.0
N1152 N 0.39442 0.14039 0.98198 0.0
C1153 C 0.36768 0.13684 0.99728 0.0
C1154 C 0.36957 0.13667 0.03002 0.0
C1155 C 0.88381 0.36457 0.99335 0.0
C1156 C 0.893 0.33786 0.97795 0.0
C1157 C 0.88283 0.36565 0.02559 0.0
C1158 C 0.89092 0.34002 0.04335 0.0
H1159 H 0.8764 0.38435 0.98045 0.0
H1160 H 0.87479 0.38625 0.0366 0.0
S1161 S 0.92145 0.2665 0.01421 0.0
N1162 N 0.91379 0.28659 0.98327 0.0
N1163 N 0.91183 0.28857 0.04309 0.0
C1164 C 0.90165 0.31387 0.02813 0.0
C1165 C 0.90272 0.3128 0.99567 0.0
C1166 C 0.65707 0.8968 0.99398 0.0
C1167 C 0.67981 0.8823 0.97659 0.0
C1168 C 0.65791 0.89602 0.02614 0.0
C1169 C 0.68146 0.88057 0.04181 0.0
H1170 H 0.63936 0.90991 0.9827 0.0
H1171 H 0.64076 0.9086 0.03872 0.0
S1172 S 0.74362 0.83515 1.0059 0.0
N1173 N 0.72455 0.84978 0.97686 0.0
N1174 N 0.72596 0.8474 0.03682 0.0
C1175 C 0.70315 0.8644 0.0243 0.0
C1176 C 0.7024 0.86555 0.99181 0.0
C1177 C 0.10587 0.69454 0.99149 0.0
C1178 C 0.12734 0.67734 0.975 0.0
C1179 C 0.10523 0.69395 0.02341 0.0
C1180 C 0.12611 0.67622 0.04032 0.0
H1181 H 0.08942 0.70879 0.97968 0.0
H1182 H 0.08844 0.70799 0.03491 0.0
S1183 S 0.18739 0.62736 1.00813 0.0
N1184 N 0.17015 0.64199 0.97794 0.0
N1185 N 0.16905 0.64104 0.03805 0.0
C1186 C 0.14742 0.65845 0.02415 0.0
C1187 C 0.14803 0.659 0.9915 0.0
C1188 C 0.36018 0.89242 0.9944 0.0
C1189 C 0.33554 0.88165 0.97678 0.0
C1190 C 0.3587 0.89267 0.02665 0.0
C1191 C 0.33258 0.882 0.04224 0.0
H1192 H 0.38006 0.90199 0.98321 0.0
H1193 H 0.37752 0.90246 0.03931 0.0
S1194 S 0.26429 0.84663 1.00615 0.0
N1195 N 0.28603 0.85695 0.97715 0.0
N1196 N 0.28322 0.85679 0.03705 0.0
C1197 C 0.30878 0.86931 0.0246 0.0
C1198 C 0.31025 0.86934 0.99208 0.0
C1199 C 0.12955 0.3136 0.99422 0.0
C1200 C 0.13302 0.34135 0.97826 0.0
C1201 C 0.13072 0.31225 0.02611 0.0
C1202 C 0.1351 0.33862 0.04391 0.0
H1203 H 0.12612 0.29242 0.98198 0.0
H1204 H 0.12782 0.29014 0.03687 0.0
S1205 S 0.14589 0.41717 0.01375 0.0
N1206 N 0.14155 0.39603 0.98287 0.0
N1207 N 0.14331 0.39352 0.04308 0.0
C1208 C 0.13862 0.36665 0.02842 0.0
C1209 C 0.13779 0.36799 0.99563 0.0
C1210 C 0.65621 0.12778 0.99408 0.0
C1211 C 0.68063 0.13861 0.97626 0.0
C1212 C 0.65781 0.12805 0.02623 0.0
C1213 C 0.68375 0.13945 0.04158 0.0
H1214 H 0.63638 0.11788 0.98314 0.0
H1215 H 0.63895 0.11846 0.03905 0.0
S1216 S 0.75185 0.17442 1.00455 0.0
N1217 N 0.73009 0.16342 0.97589 0.0
N1218 N 0.73302 0.16483 0.03575 0.0
C1219 C 0.7075 0.15193 0.02368 0.0
C1220 C 0.70596 0.15124 0.99118 0.0
C1221 C 0.9064 0.69792 0.99551 0.0
C1222 C 0.88702 0.67849 0.97877 0.0
C1223 C 0.90705 0.69748 0.02751 0.0
C1224 C 0.88838 0.67759 0.04462 0.0
H1225 H 0.92134 0.71382 0.98383 0.0
H1226 H 0.92244 0.7131 0.03891 0.0
S1227 S 0.83264 0.62258 0.01233 0.0
N1228 N 0.84813 0.63893 0.98204 0.0
N1229 N 0.8494 0.63815 0.04225 0.0
C1230 C 0.86894 0.65783 0.02832 0.0
C1231 C 0.86824 0.65829 0.9955 0.0
C1232 C 0.99608 0.32352 0.11489 0.0
C1233 C 0.97953 0.34415 0.13316 0.0
C1234 C 0.02803 0.32223 0.11561 0.0
C1235 C 0.04535 0.34149 0.13463 0.0
H1236 H 0.98429 0.30793 0.09979 0.0
H1237 H 0.03919 0.30575 0.10097 0.0
S1238 S 0.01349 0.39955 0.18748 0.0
N1239 N 0.98308 0.3844 0.17115 0.0
N1240 N 0.0433 0.38201 0.17247 0.0
C1241 C 0.02925 0.36255 0.15289 0.0
C1242 C 0.99642 0.36388 0.15216 0.0
C1243 C 0.02416 0.65823 0.89827 0.0
C1244 C 0.04043 0.67837 0.87905 0.0
C1245 C 0.99196 0.65823 0.89903 0.0
C1246 C 0.97493 0.67835 0.88057 0.0
H1247 H 0.03635 0.6433 0.9138 0.0
H1248 H 0.98043 0.64339 0.91513 0.0
S1249 S 1.00641 0.73166 0.82245 0.0
N1250 N 0.03682 0.71619 0.8385 0.0
N1251 N 0.97677 0.7161 0.83977 0.0
C1252 C 0.99095 0.69711 0.85988 0.0
C1253 C 0.02354 0.69716 0.85917 0.0
C1254 C 0.36278 0.02431 0.89575 0.0
C1255 C 0.33767 0.0424 0.88704 0.0
C1256 C 0.36127 0.9921 0.89461 0.0
C1257 C 0.33473 0.97692 0.88437 0.0
H1258 H 0.3832 0.03504 0.90463 0.0
H1259 H 0.38072 0.97906 0.90259 0.0
S1260 S 0.26449 0.01469 0.8548 0.0
N1261 N 0.28675 0.04311 0.86539 0.0
N1262 N 0.28402 0.98333 0.86219 0.0
C1263 C 0.31022 0.99514 0.87394 0.0
C1264 C 0.31166 0.02764 0.87558 0.0
C1265 C 0.99574 0.36544 0.89087 0.0
C1266 C 0.97892 0.34012 0.88061 0.0
C1267 C 0.02793 0.36507 0.89066 0.0
C1268 C 0.04427 0.33948 0.87988 0.0
H1269 H 0.984 0.38498 0.90042 0.0
H1270 H 0.04 0.3845 0.89998 0.0
S1271 S 1.01006 0.26945 0.8462 0.0
N1272 N 0.98052 0.29024 0.85683 0.0
N1273 N 0.04047 0.28969 0.85527 0.0
C1274 C 0.02735 0.31493 0.8677 0.0
C1275 C 0.99483 0.3152 0.86841 0.0
C1276 C 0.65799 0.99464 0.88077 0.0
C1277 C 0.68411 0.97858 0.8906 0.0
C1278 C 0.65744 0.02688 0.88044 0.0
C1279 C 0.68301 0.04387 0.88994 0.0
H1280 H 0.63833 0.98227 0.87232 0.0
H1281 H 0.63742 0.03849 0.8717 0.0
S1282 S 0.75471 0.01259 0.92283 0.0
N1283 N 0.73452 0.98222 0.91357 0.0
N1284 N 0.7335 0.04215 0.91305 0.0
C1285 C 0.70843 0.02793 0.90148 0.0
C1286 C 0.709 0.99546 0.90177 0.0
C1287 C 0.02865 0.65755 0.1394 0.0
C1288 C 0.04507 0.68525 0.13789 0.0
C1289 C 0.99632 0.65709 0.13873 0.0
C1290 C 0.97918 0.6843 0.13642 0.0
H1291 H 0.04082 0.6361 0.14124 0.0
H1292 H 0.98471 0.63531 0.1403 0.0
S1293 S 1.01111 0.76276 0.12876 0.0
N1294 N 0.04124 0.7405 0.1321 0.0
N1295 N 0.98156 0.73959 0.13058 0.0
C1296 C 0.99548 0.71201 0.13421 0.0
C1297 C 0.02805 0.7125 0.13503 0.0
C1298 C 0.31499 0.99479 0.14493 0.0
C1299 C 0.34118 0.97769 0.1379 0.0
C1300 C 0.31596 0.02655 0.14724 0.0
C1301 C 0.34314 0.04304 0.1421 0.0
H1302 H 0.29322 0.9835 0.14825 0.0
H1303 H 0.29474 0.03822 0.15222 0.0
S1304 S 0.41879 1.00871 0.12487 0.0
N1305 N 0.39561 0.97905 0.12757 0.0
N1306 N 0.39758 0.03926 0.13126 0.0
C1307 C 0.36992 0.02611 0.1361 0.0
C1308 C 0.36893 0.99336 0.13419 0.0
C1309 C 0.66607 0.02614 0.14928 0.0
C1310 C 0.68371 0.04286 0.1281 0.0
C1311 C 0.66593 0.99391 0.1493 0.0
C1312 C 0.68338 0.97712 0.12812 0.0
H1313 H 0.65288 0.03801 0.16647 0.0
H1314 H 0.65265 0.98209 0.16652 0.0
S1315 S 0.73038 1.00997 0.06541 0.0
N1316 N 0.71696 0.03996 0.08373 0.0
N1317 N 0.71665 0.98 0.08368 0.0
C1318 C 0.70014 0.99367 0.10612 0.0
C1319 C 0.70032 0.0263 0.10613 0.0
C1320 C 0.62482 0.49512 0.86322 0.0
C1321 C 0.63634 0.47776 0.83885 0.0
C1322 C 0.6245 0.52728 0.86185 0.0
C1323 C 0.63591 0.54306 0.83613 0.0
H1324 H 0.6149 0.48378 0.88286 0.0
H1325 H 0.6144 0.53976 0.88061 0.0
S1326 S 0.67265 0.50739 0.7684 0.0
N1327 N 0.66181 0.47828 0.78977 0.0
N1328 N 0.66223 0.53823 0.78727 0.0
C1329 C 0.6491 0.52563 0.81247 0.0
C1330 C 0.64901 0.49312 0.81379 0.0
C1331 C 0.49151 0.63436 0.81131 0.0
C1332 C 0.47476 0.6362 0.83871 0.0
C1333 C 0.52344 0.63354 0.8112 0.0
C1334 C 0.54038 0.63488 0.83844 0.0
H1335 H 0.4799 0.63301 0.78953 0.0
H1336 H 0.53493 0.63189 0.78937 0.0
S1337 S 0.50797 0.64105 0.9165 0.0
N1338 N 0.47772 0.64003 0.894 0.0
N1339 N 0.538 0.63893 0.89375 0.0
C1340 C 0.52411 0.63737 0.86608 0.0
C1341 C 0.49132 0.63783 0.86623 0.0
C1342 C 0.40623 0.52591 0.82288 0.0
C1343 C 0.38755 0.54255 0.84299 0.0
C1344 C 0.40745 0.49398 0.8238 0.0
C1345 C 0.38999 0.47686 0.8448 0.0
H1346 H 0.42015 0.53761 0.80611 0.0
H1347 H 0.42223 0.48266 0.80753 0.0
S1348 S 0.33693 0.50914 0.90243 0.0
N1349 N 0.35097 0.53938 0.88474 0.0
N1350 N 0.35321 0.47922 0.88632 0.0
C1351 C 0.37133 0.49312 0.86532 0.0
C1352 C 0.37014 0.52589 0.86444 0.0
C1353 C 0.52725 0.40174 0.86225 0.0
C1354 C 0.54375 0.38138 0.84369 0.0
C1355 C 0.49511 0.40107 0.86296 0.0
C1356 C 0.47867 0.38 0.84514 0.0
H1357 H 0.5391 0.41933 0.87492 0.0
H1358 H 0.48309 0.41818 0.87613 0.0
S1359 S 0.51133 0.31805 0.79791 0.0
N1360 N 0.54136 0.33683 0.81077 0.0
N1361 N 0.48126 0.33569 0.81211 0.0
C1362 C 0.49504 0.35813 0.82847 0.0
C1363 C 0.52752 0.35879 0.82775 0.0
C1364 C 0.65477 0.49423 0.19984 0.0
C1365 C 0.63992 0.47717 0.17701 0.0
C1366 C 0.65393 0.52617 0.2001 0.0
C1367 C 0.63825 0.54292 0.17754 0.0
H1368 H 0.66684 0.48282 0.21819 0.0
H1369 H 0.66548 0.5378 0.21859 0.0
S1370 S 0.59692 0.50965 0.1115 0.0
N1371 N 0.61005 0.47964 0.13027 0.0
N1372 N 0.60857 0.5399 0.1307 0.0
C1373 C 0.62423 0.52633 0.1538 0.0
C1374 C 0.62505 0.4935 0.15355 0.0
C1375 C 0.52795 0.63438 0.15553 0.0
C1376 C 0.54612 0.63969 0.18153 0.0
C1377 C 0.49569 0.63524 0.15716 0.0
C1378 C 0.48033 0.64194 0.18471 0.0
H1379 H 0.53866 0.62837 0.1341 0.0
H1380 H 0.48274 0.62984 0.13682 0.0
S1381 S 0.51802 0.66172 0.25827 0.0
N1382 N 0.54656 0.65436 0.23485 0.0
N1383 N 0.48671 0.65694 0.23792 0.0
C1384 C 0.49858 0.64896 0.21039 0.0
C1385 C 0.53118 0.64756 0.20878 0.0
C1386 C 0.41364 0.5239 0.20023 0.0
C1387 C 0.39666 0.54155 0.1794 0.0
C1388 C 0.41215 0.49197 0.2003 0.0
C1389 C 0.39358 0.47595 0.1795 0.0
H1390 H 0.42809 0.53479 0.21709 0.0
H1391 H 0.42563 0.4798 0.21707 0.0
S1392 S 0.34457 0.51106 0.11982 0.0
N1393 N 0.36073 0.54043 0.13699 0.0
N1394 N 0.35801 0.48031 0.13709 0.0
C1395 C 0.37684 0.49318 0.15809 0.0
C1396 C 0.37834 0.52591 0.15803 0.0
C1397 C 0.52888 0.39201 0.15423 0.0
C1398 C 0.54654 0.38401 0.17984 0.0
C1399 C 0.49667 0.39121 0.15533 0.0
C1400 C 0.48102 0.38189 0.18197 0.0
H1401 H 0.53997 0.39991 0.13356 0.0
H1402 H 0.48402 0.39848 0.13538 0.0
S1403 S 0.51762 0.35463 0.25382 0.0
N1404 N 0.54645 0.36419 0.23154 0.0
N1405 N 0.48658 0.36165 0.23367 0.0
C1406 C 0.49882 0.37236 0.20717 0.0
C1407 C 0.53137 0.3737 0.20612 0.0
C1408 C 0.86648 0.63016 0.49513 0.0
C1409 C 0.84027 0.63603 0.47741 0.0
C1410 C 0.86539 0.63097 0.52736 0.0
C1411 C 0.83817 0.63823 0.54305 0.0
H1412 H 0.88772 0.62405 0.48405 0.0
H1413 H 0.88591 0.6255 0.54002 0.0
S1414 S 0.76415 0.65903 0.5064 0.0
N1415 N 0.78711 0.65138 0.4776 0.0
N1416 N 0.78489 0.65383 0.5374 0.0
C1417 C 0.81219 0.64543 0.5252 0.0
C1418 C 0.81328 0.64407 0.49265 0.0
C1419 C 0.37374 0.86212 0.52727 0.0
C1420 C 0.39365 0.84385 0.54481 0.0
C1421 C 0.3751 0.86227 0.49507 0.0
C1422 C 0.39651 0.84427 0.47911 0.0
H1423 H 0.35634 0.87566 0.53844 0.0
H1424 H 0.35862 0.8759 0.48261 0.0
S1425 S 0.45656 0.79568 0.51447 0.0
N1426 N 0.43733 0.80955 0.54369 0.0
N1427 N 0.43997 0.80992 0.48378 0.0
C1428 C 0.41743 0.82703 0.49652 0.0
C1429 C 0.41597 0.8268 0.52913 0.0
C1430 C 0.15938 0.3832 0.49587 0.0
C1431 C 0.18701 0.38513 0.47935 0.0
C1432 C 0.15911 0.38313 0.52815 0.0
C1433 C 0.18647 0.38494 0.54499 0.0
H1434 H 0.13781 0.38264 0.48382 0.0
H1435 H 0.13737 0.38262 0.53991 0.0
S1436 S 0.26499 0.38525 0.51269 0.0
N1437 N 0.24242 0.38539 0.48256 0.0
N1438 N 0.24198 0.38515 0.54249 0.0
C1439 C 0.21419 0.38525 0.52862 0.0
C1440 C 0.21444 0.38539 0.49606 0.0
C1441 C 0.62121 0.16182 0.49277 0.0
C1442 C 0.64015 0.18251 0.4769 0.0
C1443 C 0.62095 0.16079 0.52493 0.0
C1444 C 0.63967 0.18039 0.5421 0.0
H1445 H 0.60548 0.14737 0.48035 0.0
H1446 H 0.605 0.1457 0.53634 0.0
S1447 S 0.69729 0.23452 0.51151 0.0
N1448 N 0.68079 0.22008 0.4809 0.0
N1449 N 0.68044 0.21802 0.5409 0.0
C1450 C 0.66015 0.19955 0.52641 0.0
C1451 C 0.66035 0.20066 0.49393 0.0
C1452 C 0.85887 0.3664 0.49245 0.0
C1453 C 0.84697 0.39055 0.47474 0.0
C1454 C 0.85823 0.3675 0.52466 0.0
C1455 C 0.84577 0.39281 0.54008 0.0
H1456 H 0.86745 0.34604 0.48139 0.0
H1457 H 0.86615 0.34786 0.53748 0.0
S1458 S 0.81704 0.46411 0.50415 0.0
N1459 N 0.82612 0.44198 0.47511 0.0
N1460 N 0.825 0.44406 0.53508 0.0
C1461 C 0.83574 0.41781 0.52251 0.0
C1462 C 0.83631 0.41667 0.49 0.0
C1463 C 0.6341 0.81315 0.49425 0.0
C1464 C 0.63556 0.84054 0.4775 0.0
C1465 C 0.63392 0.81301 0.52614 0.0
C1466 C 0.63484 0.8403 0.54308 0.0
H1467 H 0.63315 0.79137 0.48261 0.0
H1468 H 0.63262 0.79108 0.53755 0.0
S1469 S 0.63926 0.91846 0.51041 0.0
N1470 N 0.63848 0.89592 0.48024 0.0
N1471 N 0.63775 0.89571 0.54052 0.0
C1472 C 0.63647 0.868 0.52673 0.0
C1473 C 0.63703 0.86812 0.49394 0.0
C1474 C 0.20081 0.65854 0.52777 0.0
C1475 C 0.18076 0.63927 0.54386 0.0
C1476 C 0.20222 0.65811 0.49594 0.0
C1477 C 0.18364 0.63843 0.47872 0.0
H1478 H 0.2163 0.67349 0.53992 0.0
H1479 H 0.21884 0.67265 0.48473 0.0
S1480 S 0.12571 0.58488 0.50951 0.0
N1481 N 0.14049 0.60119 0.54009 0.0
N1482 N 0.14325 0.60041 0.47991 0.0
C1483 C 0.1622 0.62027 0.49428 0.0
C1484 C 0.16074 0.62068 0.52694 0.0
C1485 C 0.39577 0.20774 0.49479 0.0
C1486 C 0.38978 0.18047 0.47893 0.0
C1487 C 0.39611 0.20874 0.52669 0.0
C1488 C 0.3908 0.18247 0.5445 0.0
H1489 H 0.40008 0.22879 0.4825 0.0
H1490 H 0.40087 0.23047 0.53744 0.0
S1491 S 0.37377 0.10513 0.51458 0.0
N1492 N 0.37809 0.12634 0.48364 0.0
N1493 N 0.37909 0.12822 0.54386 0.0
C1494 C 0.38485 0.15491 0.5291 0.0
C1495 C 0.38415 0.15394 0.49634 0.0
C1496 C 0.49262 0.86591 0.63444 0.0
C1497 C 0.47676 0.83841 0.6402 0.0
C1498 C 0.52479 0.86682 0.63331 0.0
C1499 C 0.54228 0.84017 0.63735 0.0
H1500 H 0.48012 0.88686 0.63031 0.0
H1501 H 0.53596 0.88831 0.62826 0.0
S1502 S 0.51274 0.76296 0.65605 0.0
N1503 N 0.48187 0.78426 0.65243 0.0
N1504 N 0.54174 0.7861 0.64957 0.0
C1505 C 0.52688 0.81282 0.64405 0.0
C1506 C 0.49433 0.8119 0.64568 0.0
C1507 C 0.49618 0.15961 0.36982 0.0
C1508 C 0.47863 0.17803 0.38935 0.0
C1509 C 0.5284 0.16081 0.37041 0.0
C1510 C 0.54404 0.18048 0.39056 0.0
H1511 H 0.48498 0.14509 0.35328 0.0
H1512 H 0.54107 0.14698 0.35433 0.0
S1513 S 0.50773 0.23058 0.4487 0.0
N1514 N 0.47878 0.21456 0.43076 0.0
N1515 N 0.53875 0.21669 0.43246 0.0
C1516 C 0.52638 0.1979 0.41112 0.0
C1517 C 0.49385 0.19672 0.41034 0.0
C1518 C 0.82373 0.52702 0.36572 0.0
C1519 C 0.84472 0.544 0.38307 0.0
C1520 C 0.82436 0.49508 0.36544 0.0
C1521 C 0.84597 0.47844 0.38253 0.0
H1522 H 0.80621 0.53848 0.35251 0.0
H1523 H 0.80725 0.48333 0.35201 0.0
S1524 S 0.90697 0.51175 0.43087 0.0
N1525 N 0.88869 0.54171 0.41696 0.0
N1526 N 0.88976 0.48147 0.41649 0.0
C1527 C 0.8679 0.49502 0.39913 0.0
C1528 C 0.8673 0.52779 0.39939 0.0
C1529 C 0.49669 0.81818 0.36568 0.0
C1530 C 0.48002 0.84162 0.38003 0.0
C1531 C 0.52861 0.81731 0.36665 0.0
C1532 C 0.54552 0.83988 0.38196 0.0
H1533 H 0.48497 0.79974 0.35414 0.0
H1534 H 0.54007 0.79834 0.35569 0.0
S1535 S 0.51328 0.9076 0.42141 0.0
N1536 N 0.48306 0.88907 0.40863 0.0
N1537 N 0.54322 0.88753 0.41035 0.0
C1538 C 0.52934 0.86433 0.39521 0.0
C1539 C 0.49661 0.86518 0.39426 0.0
C1540 C 0.18006 0.49464 0.3616 0.0
C1541 C 0.18349 0.47711 0.38832 0.0
C1542 C 0.17982 0.52679 0.36276 0.0
C1543 C 0.18375 0.54227 0.39061 0.0
H1544 H 0.1783 0.48345 0.33965 0.0
H1545 H 0.17813 0.53957 0.34162 0.0
S1546 S 0.19196 0.50646 0.46703 0.0
N1547 N 0.18922 0.4773 0.44336 0.0
N1548 N 0.1896 0.53747 0.44561 0.0
C1549 C 0.18632 0.52481 0.4175 0.0
C1550 C 0.186 0.49226 0.41634 0.0
C1551 C 0.49764 0.19079 0.61193 0.0
C1552 C 0.48096 0.17608 0.63514 0.0
C1553 C 0.52953 0.19038 0.61144 0.0
C1554 C 0.54656 0.17528 0.63416 0.0
H1555 H 0.48596 0.20324 0.59399 0.0
H1556 H 0.54095 0.20257 0.59316 0.0
S1557 S 0.51427 0.13242 0.69978 0.0
N1558 N 0.48393 0.14507 0.68118 0.0
N1559 N 0.54431 0.1444 0.68028 0.0
C1560 C 0.53035 0.15948 0.65704 0.0
C1561 C 0.49751 0.15986 0.65753 0.0
C1562 C 0.8627 0.52745 0.6275 0.0
C1563 C 0.83771 0.54538 0.63669 0.0
C1564 C 0.86069 0.49531 0.62697 0.0
C1565 C 0.83372 0.48004 0.63588 0.0
H1566 H 0.88344 0.53832 0.61953 0.0
H1567 H 0.8801 0.48245 0.61866 0.0
S1568 S 0.76366 0.51707 0.66649 0.0
N1569 N 0.78648 0.54575 0.65774 0.0
N1570 N 0.78276 0.48586 0.65758 0.0
C1571 C 0.80928 0.49795 0.64682 0.0
C1572 C 0.81126 0.53046 0.64698 0.0
C1573 C 0.20964 0.52914 0.63292 0.0
C1574 C 0.18172 0.54486 0.63515 0.0
C1575 C 0.211 0.49727 0.63355 0.0
C1576 C 0.18448 0.47924 0.63615 0.0
H1577 H 0.23093 0.54157 0.63075 0.0
H1578 H 0.2333 0.48675 0.63158 0.0
S1579 S 0.10538 0.50889 0.64325 0.0
N1580 N 0.12667 0.53994 0.64065 0.0
N1581 N 0.1292 0.47967 0.64147 0.0
C1582 C 0.15626 0.49453 0.63856 0.0
C1583 C 0.1549 0.52734 0.63826 0.0
C1584 C 0.13094 0.23811 0.26178 0.0
C1585 C 0.12169 0.2079 0.25628 0.0
C1586 C 0.13114 0.25986 0.23843 0.0
C1587 C 0.12192 0.25236 0.20867 0.0
H1588 H 0.14003 0.24451 0.28387 0.0
H1589 H 0.14052 0.28223 0.24326 0.0
S1590 S 0.09189 0.17758 0.18323 0.0
N1591 N 0.1 0.17234 0.21972 0.0
N1592 N 0.10031 0.21359 0.17555 0.0
C1593 C 0.10994 0.22308 0.2034 0.0
C1594 C 0.10979 0.20072 0.22735 0.0
C1595 C 0.79861 0.10915 0.19906 0.0
C1596 C 0.76869 0.11864 0.20604 0.0
C1597 C 0.82166 0.10972 0.22154 0.0
C1598 C 0.81521 0.1199 0.25131 0.0
H1599 H 0.80479 0.10392 0.17572 0.0
H1600 H 0.84498 0.10479 0.21493 0.0
S1601 S 0.73947 0.14209 0.28186 0.0
N1602 N 0.73317 0.13433 0.24557 0.0
N1603 N 0.77621 0.13573 0.28732 0.0
C1604 C 0.78484 0.12656 0.25898 0.0
C1605 C 0.7616 0.12581 0.23643 0.0
C1606 C 0.91183 0.81342 0.22758 0.0
C1607 C 0.90165 0.80922 0.25765 0.0
C1608 C 0.91002 0.78948 0.20629 0.0
C1609 C 0.89791 0.76067 0.21445 0.0
H1610 H 0.91884 0.83586 0.21984 0.0
H1611 H 0.91643 0.79422 0.18288 0.0
S1612 S 0.87244 0.7375 0.29204 0.0
N1613 N 0.88232 0.77365 0.2955 0.0
N1614 N 0.87922 0.72874 0.25609 0.0
C1615 C 0.89028 0.75568 0.24528 0.0
C1616 C 0.89204 0.77998 0.26671 0.0
C1617 C 0.23031 0.91904 0.25444 0.0
C1618 C 0.19879 0.91777 0.24892 0.0
C1619 C 0.25114 0.91957 0.23029 0.0
C1620 C 0.24132 0.91921 0.19985 0.0
H1621 H 0.239 0.91637 0.27746 0.0
H1622 H 0.27501 0.91665 0.23546 0.0
S1623 S 0.16111 0.91901 0.17329 0.0
N1624 N 0.15845 0.91888 0.21092 0.0
N1625 N 0.198 0.92004 0.16536 0.0
C1626 C 0.20985 0.92088 0.19399 0.0
C1627 C 0.18844 0.92024 0.21866 0.0
C1628 C 0.11656 0.80946 0.78502 0.0
C1629 C 0.12761 0.80304 0.75551 0.0
C1630 C 0.11625 0.78703 0.80798 0.0
C1631 C 0.12691 0.75724 0.80233 0.0
H1632 H 0.10939 0.83236 0.79095 0.0
H1633 H 0.10892 0.79355 0.83066 0.0
S1634 S 0.15467 0.72754 0.72798 0.0
N1635 N 0.14687 0.76376 0.7213 0.0
N1636 N 0.14586 0.72176 0.76406 0.0
C1637 C 0.13593 0.74997 0.77233 0.0
C1638 C 0.1364 0.77279 0.74906 0.0
C1639 C 0.21818 0.13874 0.82559 0.0
C1640 C 0.24299 0.11841 0.82584 0.0
C1641 C 0.19685 0.13839 0.8019 0.0
C1642 C 0.19957 0.11768 0.77762 0.0
H1643 H 0.21652 0.15654 0.84267 0.0
H1644 H 0.17937 0.15593 0.80141 0.0
S1645 S 0.25795 0.05714 0.76968 0.0
N1646 N 0.2674 0.07501 0.80151 0.0
N1647 N 0.22687 0.07426 0.75675 0.0
C1648 C 0.22264 0.09549 0.77888 0.0
C1649 C 0.24453 0.09586 0.80314 0.0
C1650 C 0.87865 0.19631 0.79909 0.0
C1651 C 0.90021 0.19694 0.77538 0.0
C1652 C 0.87897 0.2183 0.82205 0.0
C1653 C 0.90078 0.24183 0.82208 0.0
H1654 H 0.8602 0.1798 0.79882 0.0
H1655 H 0.8607 0.21813 0.83877 0.0
S1656 S 0.96473 0.25104 0.76757 0.0
N1657 N 0.94604 0.22073 0.75509 0.0
N1658 N 0.94642 0.26264 0.79844 0.0
C1659 C 0.92408 0.24123 0.80009 0.0
C1660 C 0.92384 0.21858 0.7766 0.0
C1661 C 0.76094 0.89686 0.77949 0.0
C1662 C 0.76826 0.90044 0.81058 0.0
C1663 C 0.78367 0.89651 0.75711 0.0
C1664 C 0.81452 0.90058 0.76471 0.0
H1665 H 0.73766 0.8923 0.77246 0.0
H1666 H 0.77725 0.89111 0.73386 0.0
S1667 S 0.84591 0.91438 0.84186 0.0
N1668 N 0.80875 0.91086 0.84734 0.0
N1669 N 0.85133 0.91074 0.80473 0.0
C1670 C 0.8221 0.90677 0.79515 0.0
C1671 C 0.79896 0.90669 0.81822 0.0
C1672 C 0.23395 0.11915 0.21149 0.0
C1673 C 0.26423 0.12683 0.21917 0.0
C1674 C 0.2108 0.11895 0.23356 0.0
C1675 C 0.21708 0.1263 0.26415 0.0
H1676 H 0.22763 0.11493 0.18798 0.0
H1677 H 0.18759 0.11468 0.22617 0.0
S1678 S 0.29343 0.14245 0.29709 0.0
N1679 N 0.29981 0.13802 0.26028 0.0
N1680 N 0.25649 0.13709 0.30174 0.0
C1681 C 0.24769 0.13127 0.27258 0.0
C1682 C 0.2712 0.1317 0.25011 0.0
C1683 C 0.91068 0.22959 0.20212 0.0
C1684 C 0.90389 0.2601 0.20903 0.0
C1685 C 0.90977 0.20709 0.22501 0.0
C1686 C 0.90193 0.21456 0.25534 0.0
H1687 H 0.91409 0.22269 0.17864 0.0
H1688 H 0.91304 0.18351 0.21838 0.0
S1689 S 0.88809 0.2926 0.28535 0.0
N1690 N 0.8934 0.29745 0.24839 0.0
N1691 N 0.89213 0.25564 0.29148 0.0
C1692 C 0.89829 0.2456 0.26279 0.0
C1693 C 0.8991 0.26827 0.23955 0.0
C1694 C 0.80208 0.88561 0.1971 0.0
C1695 C 0.77334 0.89926 0.20067 0.0
C1696 C 0.82318 0.8854 0.22108 0.0
C1697 C 0.81583 0.89811 0.24965 0.0
H1698 H 0.80756 0.87345 0.17629 0.0
H1699 H 0.84461 0.87346 0.21782 0.0
S1700 S 0.7446 0.9392 0.26908 0.0
N1701 N 0.73952 0.92811 0.23345 0.0
N1702 N 0.77887 0.92694 0.27917 0.0
C1703 C 0.78773 0.91309 0.25295 0.0
C1704 C 0.76653 0.91387 0.22823 0.0
C1705 C 0.1404 0.76105 0.23319 0.0
C1706 C 0.13479 0.7694 0.2027 0.0
C1707 C 0.13986 0.78265 0.25658 0.0
C1708 C 0.13297 0.81342 0.25053 0.0
H1709 H 0.14598 0.73775 0.23904 0.0
H1710 H 0.14584 0.77527 0.27942 0.0
S1711 S 0.11144 0.84616 0.17521 0.0
N1712 N 0.11851 0.80985 0.16818 0.0
N1713 N 0.11692 0.85053 0.2122 0.0
C1714 C 0.12475 0.82164 0.22051 0.0
C1715 C 0.12567 0.79959 0.19659 0.0
C1716 C 0.23726 0.89359 0.75443 0.0
C1717 C 0.20669 0.90019 0.76154 0.0
C1718 C 0.25976 0.89325 0.77701 0.0
C1719 C 0.25255 0.89923 0.80774 0.0
H1720 H 0.24348 0.88666 0.73152 0.0
H1721 H 0.28256 0.88623 0.77049 0.0
S1722 S 0.17642 0.92255 0.83712 0.0
N1723 N 0.17077 0.91649 0.80036 0.0
N1724 N 0.21308 0.91608 0.84321 0.0
C1725 C 0.22251 0.90874 0.81461 0.0
C1726 C 0.19954 0.90916 0.79138 0.0
C1727 C 0.1375 0.26551 0.77839 0.0
C1728 C 0.1284 0.25945 0.80859 0.0
C1729 C 0.13737 0.2426 0.75625 0.0
C1730 C 0.12817 0.21257 0.76334 0.0
H1731 H 0.14627 0.28777 0.772 0.0
H1732 H 0.14605 0.24824 0.73378 0.0
S1733 S 0.09625 0.18632 0.83739 0.0
N1734 N 0.1054 0.22239 0.84321 0.0
N1735 N 0.10532 0.17923 0.80155 0.0
C1736 C 0.1163 0.20689 0.79265 0.0
C1737 C 0.11638 0.23032 0.81528 0.0
C1738 C 0.75729 0.12649 0.77777 0.0
C1739 C 0.76469 0.12243 0.80877 0.0
C1740 C 0.77977 0.12545 0.75516 0.0
C1741 C 0.81061 0.12011 0.76252 0.0
H1742 H 0.73417 0.13212 0.77096 0.0
H1743 H 0.77307 0.13062 0.73193 0.0
S1744 S 0.84129 0.10311 0.83977 0.0
N1745 N 0.80451 0.10915 0.84528 0.0
N1746 N 0.84676 0.10694 0.8027 0.0
C1747 C 0.81792 0.11328 0.7931 0.0
C1748 C 0.79497 0.11448 0.81623 0.0
C1749 C 0.88666 0.75348 0.777 0.0
C1750 C 0.8949 0.76074 0.80721 0.0
C1751 C 0.8869 0.77556 0.75393 0.0
C1752 C 0.89555 0.80589 0.75995 0.0
H1753 H 0.87839 0.7309 0.77128 0.0
H1754 H 0.87873 0.76902 0.73155 0.0
S1755 S 0.92452 0.83547 0.83393 0.0
N1756 N 0.9159 0.79945 0.84097 0.0
N1757 N 0.9166 0.84102 0.79751 0.0
C1758 C 0.90646 0.81285 0.78941 0.0
C1759 C 0.9061 0.79028 0.81303 0.0
C1760 C 0.26707 0.23802 0.12795 0.0
C1761 C 0.25956 0.20738 0.12246 0.0
C1762 C 0.24477 0.26081 0.12735 0.0
C1763 C 0.21391 0.25382 0.1216 0.0
H1764 H 0.29009 0.24417 0.13464 0.0
H1765 H 0.2516 0.28374 0.13351 0.0
S1766 S 0.18342 0.1772 0.10179 0.0
N1767 N 0.22018 0.17134 0.10787 0.0
N1768 N 0.17781 0.21417 0.10669 0.0
C1769 C 0.2066 0.22352 0.11345 0.0
C1770 C 0.22956 0.20026 0.11391 0.0
C1771 C 0.23481 0.75851 0.89301 0.0
C1772 C 0.20422 0.76453 0.90073 0.0
C1773 C 0.25666 0.78174 0.89269 0.0
C1774 C 0.24893 0.81187 0.90039 0.0
H1775 H 0.24146 0.73605 0.88505 0.0
H1776 H 0.27939 0.77644 0.88442 0.0
S1777 S 0.17306 0.83895 0.92609 0.0
N1778 N 0.16795 0.80219 0.91923 0.0
N1779 N 0.20946 0.84603 0.91901 0.0
C1780 C 0.2192 0.81775 0.91094 0.0
C1781 C 0.1967 0.79397 0.91107 0.0
C1782 C 0.26156 0.24123 0.90072 0.0
C1783 C 0.25397 0.21029 0.90509 0.0
C1784 C 0.23911 0.26389 0.90098 0.0
C1785 C 0.20829 0.25659 0.90599 0.0
H1786 H 0.28469 0.24786 0.89499 0.0
H1787 H 0.2456 0.28706 0.8951 0.0
S1788 S 0.17663 0.1801 0.92292 0.0
N1789 N 0.21357 0.17417 0.91813 0.0
N1790 N 0.17147 0.21721 0.91852 0.0
C1791 C 0.20063 0.22639 0.91325 0.0
C1792 C 0.22349 0.2031 0.91286 0.0
C1793 C 0.75994 0.23702 0.90004 0.0
C1794 C 0.76792 0.20617 0.90311 0.0
C1795 C 0.78224 0.25978 0.90042 0.0
C1796 C 0.81341 0.25239 0.90325 0.0
H1797 H 0.73649 0.24344 0.89533 0.0
H1798 H 0.7751 0.28311 0.89627 0.0
S1799 S 0.84528 0.17466 0.91558 0.0
N1800 N 0.80812 0.16922 0.91223 0.0
N1801 N 0.85056 0.2119 0.91269 0.0
C1802 C 0.82133 0.22167 0.90904 0.0
C1803 C 0.7984 0.19851 0.90893 0.0
C1804 C 0.78268 0.76077 0.8968 0.0
C1805 C 0.81341 0.76722 0.90333 0.0
C1806 C 0.76069 0.78386 0.8966 0.0
C1807 C 0.76864 0.81425 0.90294 0.0
H1808 H 0.77599 0.73805 0.88964 0.0
H1809 H 0.73771 0.77828 0.88932 0.0
S1810 S 0.84536 0.84263 0.92418 0.0
N1811 N 0.8503 0.80561 0.91875 0.0
N1812 N 0.80866 0.84931 0.91841 0.0
C1813 C 0.7987 0.82066 0.91205 0.0
C1814 C 0.82124 0.797 0.91224 0.0
C1815 C 0.8163 0.79017 0.11058 0.0
C1816 C 0.81053 0.7604 0.12096 0.0
C1817 C 0.79299 0.81223 0.11053 0.0
C1818 C 0.76325 0.80506 0.12076 0.0
H1819 H 0.83937 0.7971 0.10491 0.0
H1820 H 0.79889 0.83546 0.1044 0.0
S1821 S 0.73582 0.72831 0.14448 0.0
N1822 N 0.77259 0.72368 0.13779 0.0
N1823 N 0.72862 0.76448 0.13676 0.0
C1824 C 0.75673 0.77441 0.12805 0.0
C1825 C 0.78046 0.75225 0.12846 0.0
C1826 C 0.20762 0.82878 0.12016 0.0
C1827 C 0.23779 0.82609 0.10976 0.0
C1828 C 0.18642 0.80548 0.11471 0.0
C1829 C 0.19488 0.77887 0.09889 0.0
H1830 H 0.20114 0.84755 0.1349 0.0
H1831 H 0.16448 0.80666 0.12602 0.0
S1832 S 0.26825 0.76567 0.05916 0.0
N1833 N 0.273 0.79861 0.07691 0.0
N1834 N 0.23327 0.75421 0.06757 0.0
C1835 C 0.2237 0.77793 0.08504 0.0
C1836 C 0.24524 0.80174 0.09036 0.0
C1837 C 0.75613 0.24549 0.13583 0.0
C1838 C 0.76294 0.21591 0.12522 0.0
C1839 C 0.77835 0.26842 0.13643 0.0
C1840 C 0.80834 0.26287 0.1263 0.0
H1841 H 0.73386 0.25071 0.14525 0.0
H1842 H 0.7722 0.29024 0.14631 0.0
S1843 S 0.8361 0.19142 0.09009 0.0
N1844 N 0.8005 0.18381 0.09985 0.0
N1845 N 0.84226 0.22701 0.10077 0.0
C1846 C 0.81467 0.23432 0.11293 0.0
C1847 C 0.79198 0.21086 0.11241 0.0
C1848 C 0.62518 0.76155 0.73787 0.0
C1849 C 0.61731 0.75565 0.70738 0.0
C1850 C 0.62446 0.73841 0.75984 0.0
C1851 C 0.6159 0.70848 0.75214 0.0
H1852 H 0.63389 0.78377 0.74438 0.0
H1853 H 0.6328 0.74347 0.78256 0.0
S1854 S 0.5894 0.68214 0.6764 0.0
N1855 N 0.59741 0.71867 0.67122 0.0
N1856 N 0.59629 0.67482 0.71278 0.0
C1857 C 0.60523 0.70286 0.72245 0.0
C1858 C 0.60587 0.72661 0.69994 0.0
C1859 C 0.31628 0.60861 0.72678 0.0
C1860 C 0.30903 0.61857 0.75645 0.0
C1861 C 0.29422 0.60958 0.70331 0.0
C1862 C 0.26461 0.62073 0.70906 0.0
H1863 H 0.33959 0.60263 0.72109 0.0
H1864 H 0.3011 0.60414 0.68021 0.0
S1865 S 0.23334 0.64451 0.78402 0.0
N1866 N 0.26925 0.63555 0.79108 0.0
N1867 N 0.2284 0.63819 0.74723 0.0
C1868 C 0.2566 0.62799 0.73921 0.0
C1869 C 0.27869 0.62665 0.76289 0.0
C1870 C 0.39652 0.27936 0.76315 0.0
C1871 C 0.40136 0.31057 0.75718 0.0
C1872 C 0.3982 0.25772 0.73976 0.0
C1873 C 0.40525 0.26632 0.70965 0.0
H1874 H 0.38957 0.27171 0.78564 0.0
H1875 H 0.39191 0.23433 0.74488 0.0
S1876 S 0.42355 0.34413 0.68228 0.0
N1877 N 0.41661 0.3484 0.71907 0.0
N1878 N 0.41961 0.3073 0.67533 0.0
C1879 C 0.41269 0.29683 0.70372 0.0
C1880 C 0.41083 0.31908 0.72748 0.0
C1881 C 0.71604 0.38136 0.69475 0.0
C1882 C 0.74188 0.40014 0.69662 0.0
C1883 C 0.69348 0.38233 0.7173 0.0
C1884 C 0.69619 0.40179 0.7426 0.0
H1885 H 0.71415 0.36453 0.67674 0.0
H1886 H 0.6746 0.36652 0.71581 0.0
S1887 S 0.75505 0.46147 0.7532 0.0
N1888 N 0.76566 0.44342 0.72181 0.0
N1889 N 0.72367 0.44422 0.76523 0.0
C1890 C 0.72021 0.42295 0.74302 0.0
C1891 C 0.7431 0.42226 0.71975 0.0
C1892 C 0.62304 0.26285 0.28406 0.0
C1893 C 0.61657 0.27092 0.31442 0.0
C1894 C 0.62491 0.28497 0.2611 0.0
C1895 C 0.62006 0.31597 0.26756 0.0
H1896 H 0.62925 0.23956 0.27849 0.0
H1897 H 0.63222 0.27801 0.23853 0.0
S1898 S 0.59901 0.34861 0.34258 0.0
N1899 N 0.60269 0.31163 0.34928 0.0
N1900 N 0.60555 0.35342 0.30571 0.0
C1901 C 0.61075 0.32409 0.29715 0.0
C1902 C 0.60912 0.30145 0.32075 0.0
C1903 C 0.71286 0.61348 0.28652 0.0
C1904 C 0.71979 0.62266 0.25645 0.0
C1905 C 0.73492 0.61461 0.30976 0.0
C1906 C 0.76476 0.62509 0.30388 0.0
H1907 H 0.68981 0.6069 0.29261 0.0
H1908 H 0.72799 0.60878 0.33277 0.0
S1909 S 0.79567 0.64776 0.22817 0.0
N1910 N 0.75971 0.63916 0.22149 0.0
N1911 N 0.80081 0.64175 0.26494 0.0
C1912 C 0.77256 0.6321 0.27345 0.0
C1913 C 0.7502 0.63074 0.24982 0.0
C1914 C 0.40021 0.72533 0.32026 0.0
C1915 C 0.39208 0.75546 0.31228 0.0
C1916 C 0.39952 0.70177 0.2986 0.0
C1917 C 0.39076 0.70755 0.26827 0.0
H1918 H 0.40557 0.71952 0.34367 0.0
H1919 H 0.40433 0.67866 0.30613 0.0
S1920 S 0.37211 0.78318 0.23452 0.0
N1921 N 0.37827 0.79016 0.27099 0.0
N1922 N 0.37764 0.74619 0.23043 0.0
C1923 C 0.38489 0.73794 0.25949 0.0
C1924 C 0.38537 0.76178 0.28148 0.0
C1925 C 0.29769 0.40658 0.31584 0.0
C1926 C 0.26745 0.39813 0.30848 0.0
C1927 C 0.32085 0.40662 0.29359 0.0
C1928 C 0.31443 0.39818 0.26338 0.0
H1929 H 0.30401 0.41123 0.33927 0.0
H1930 H 0.34419 0.41092 0.30056 0.0
S1931 S 0.23853 0.37957 0.231 0.0
N1932 N 0.23195 0.38559 0.26756 0.0
N1933 N 0.27552 0.38498 0.22632 0.0
C1934 C 0.28402 0.39234 0.25522 0.0
C1935 C 0.26048 0.39255 0.27761 0.0
C1936 C 0.74003 0.62918 0.76135 0.0
C1937 C 0.70947 0.62184 0.75455 0.0
C1938 C 0.76232 0.62954 0.7386 0.0
C1939 C 0.75512 0.62197 0.70835 0.0
H1940 H 0.74652 0.63673 0.78397 0.0
H1941 H 0.78501 0.63757 0.74436 0.0
S1942 S 0.68046 0.59494 0.67958 0.0
N1943 N 0.67439 0.60221 0.71607 0.0
N1944 N 0.71685 0.60268 0.67334 0.0
C1945 C 0.72569 0.61132 0.70175 0.0
C1946 C 0.7027 0.61126 0.7249 0.0
C1947 C 0.398 0.70928 0.73203 0.0
C1948 C 0.3895 0.71547 0.76237 0.0
C1949 C 0.39795 0.73233 0.70974 0.0
C1950 C 0.38931 0.7625 0.71685 0.0
H1951 H 0.40329 0.68618 0.72501 0.0
H1952 H 0.40331 0.72602 0.68645 0.0
S1953 S 0.36969 0.7916 0.79394 0.0
N1954 N 0.37589 0.75484 0.79908 0.0
N1955 N 0.37547 0.7979 0.75728 0.0
C1956 C 0.38299 0.76942 0.74757 0.0
C1957 C 0.38318 0.74601 0.77026 0.0
C1958 C 0.28737 0.40376 0.76465 0.0
C1959 C 0.31822 0.40652 0.75633 0.0
C1960 C 0.26437 0.40275 0.74254 0.0
C1961 C 0.2715 0.40405 0.71126 0.0
H1962 H 0.28118 0.39999 0.78832 0.0
H1963 H 0.2411 0.39889 0.75001 0.0
S1964 S 0.34901 0.41467 0.67815 0.0
N1965 N 0.35476 0.41334 0.71537 0.0
N1966 N 0.31173 0.41158 0.67338 0.0
C1967 C 0.30218 0.40953 0.70283 0.0
C1968 C 0.32555 0.41068 0.72552 0.0
C1969 C 0.65277 0.30869 0.73576 0.0
C1970 C 0.62576 0.3125 0.75226 0.0
C1971 C 0.65418 0.28892 0.71114 0.0
C1972 C 0.62892 0.27094 0.70264 0.0
H1973 H 0.67333 0.32073 0.74229 0.0
H1974 H 0.67585 0.28694 0.69934 0.0
S1975 S 0.55275 0.27193 0.73931 0.0
N1976 N 0.57279 0.2974 0.75864 0.0
N1977 N 0.57583 0.25828 0.71277 0.0
C1978 C 0.60144 0.27466 0.71874 0.0
C1979 C 0.59983 0.29572 0.74367 0.0
C1980 C 0.74795 0.39008 0.25126 0.0
C1981 C 0.71757 0.39755 0.25879 0.0
C1982 C 0.77117 0.39103 0.27314 0.0
C1983 C 0.76507 0.39963 0.30346 0.0
H1984 H 0.75368 0.38185 0.22868 0.0
H1985 H 0.7937 0.38327 0.26652 0.0
S1986 S 0.6907 0.42752 0.33333 0.0
N1987 N 0.6836 0.41831 0.29754 0.0
N1988 N 0.72733 0.42041 0.33862 0.0
C1989 C 0.73545 0.41009 0.31052 0.0
C1990 C 0.7117 0.40899 0.28821 0.0
C1991 C 0.65815 0.71091 0.28742 0.0
C1992 C 0.63308 0.70438 0.26844 0.0
C1993 C 0.65705 0.73458 0.30856 0.0
C1994 C 0.63089 0.75272 0.31154 0.0
H1995 H 0.67922 0.69807 0.28536 0.0
H1996 H 0.67713 0.73913 0.32228 0.0
S1997 S 0.55829 0.74395 0.26923 0.0
N1998 N 0.58065 0.71699 0.25516 0.0
N1999 N 0.5786 0.76182 0.29551 0.0
C2000 C 0.60512 0.74587 0.29381 0.0
C2001 C 0.60618 0.7215 0.27212 0.0
C2002 C 0.33581 0.60312 0.30664 0.0
C2003 C 0.32493 0.60084 0.27651 0.0
C2004 C 0.31538 0.6046 0.33141 0.0
C2005 C 0.28364 0.60338 0.32667 0.0
H2006 H 0.35984 0.60725 0.31079 0.0
H2007 H 0.32429 0.60969 0.3539 0.0
S2008 S 0.24413 0.59357 0.25265 0.0
N2009 N 0.28077 0.59445 0.24373 0.0
N2010 N 0.2426 0.59651 0.29019 0.0
C2011 C 0.27282 0.59802 0.29704 0.0
C2012 C 0.29346 0.59686 0.27194 0.0
C2013 C 0.38848 0.25187 0.27654 0.0
C2014 C 0.39894 0.25836 0.30622 0.0
C2015 C 0.38869 0.27411 0.25365 0.0
C2016 C 0.39923 0.30387 0.25949 0.0
H2017 H 0.37849 0.22989 0.2712 0.0
H2018 H 0.37884 0.26827 0.23175 0.0
S2019 S 0.43564 0.33052 0.33118 0.0
N2020 N 0.42502 0.29512 0.33865 0.0
N2021 N 0.42536 0.33708 0.29552 0.0
C2022 C 0.41265 0.30978 0.28808 0.0
C2023 C 0.41249 0.28701 0.31147 0.0
C2024 C 0.70638 0.73122 0.61834 0.0
C2025 C 0.7132 0.76189 0.62492 0.0
C2026 C 0.72932 0.70892 0.61819 0.0
C2027 C 0.7599 0.71648 0.62468 0.0
H2028 H 0.68296 0.72397 0.6151 0.0
H2029 H 0.72264 0.68536 0.61478 0.0
S2030 S 0.79042 0.79445 0.63744 0.0
N2031 N 0.75332 0.79933 0.63348 0.0
N2032 N 0.79629 0.75749 0.63345 0.0
C2033 C 0.76735 0.74747 0.62849 0.0
C2034 C 0.74405 0.77015 0.62855 0.0
C2035 C 0.71076 0.29232 0.36803 0.0
C2036 C 0.70925 0.2721 0.39282 0.0
C2037 C 0.73276 0.31531 0.367 0.0
C2038 C 0.75389 0.31913 0.39087 0.0
H2039 H 0.69547 0.28967 0.34876 0.0
H2040 H 0.73392 0.32962 0.3468 0.0
S2041 S 0.75706 0.27414 0.46245 0.0
N2042 N 0.72889 0.25848 0.44283 0.0
N2043 N 0.77035 0.3024 0.44115 0.0
C2044 C 0.75148 0.30023 0.41668 0.0
C2045 C 0.72914 0.27641 0.41755 0.0
C2046 C 0.7268 0.70094 0.41251 0.0
C2047 C 0.75616 0.70754 0.40107 0.0
C2048 C 0.70394 0.72373 0.41334 0.0
C2049 C 0.71008 0.75356 0.40292 0.0
H2050 H 0.72075 0.67766 0.41833 0.0
H2051 H 0.68088 0.71734 0.41959 0.0
S2052 S 0.7846 0.78314 0.37551 0.0
N2053 N 0.79092 0.74673 0.38289 0.0
N2054 N 0.74849 0.78902 0.38445 0.0
C2055 C 0.74012 0.76079 0.39431 0.0
C2056 C 0.76305 0.73789 0.39339 0.0
C2057 C 0.29303 0.75616 0.4177 0.0
C2058 C 0.32438 0.75037 0.41477 0.0
C2059 C 0.27184 0.73239 0.41624 0.0
C2060 C 0.28131 0.70208 0.41152 0.0
H2061 H 0.2847 0.77946 0.4183 0.0
H2062 H 0.2478 0.73811 0.41636 0.0
S2063 S 0.36128 0.67487 0.40597 0.0
N2064 N 0.36428 0.71224 0.41005 0.0
N2065 N 0.32436 0.66722 0.40727 0.0
C2066 C 0.31278 0.69566 0.41162 0.0
C2067 C 0.33441 0.71999 0.4132 0.0
C2068 C 0.26516 0.28467 0.39766 0.0
C2069 C 0.2732 0.31502 0.40427 0.0
C2070 C 0.28715 0.2616 0.39673 0.0
C2071 C 0.31802 0.26789 0.40264 0.0
H2072 H 0.24202 0.27913 0.39085 0.0
H2073 H 0.28025 0.23902 0.38935 0.0
S2074 S 0.35038 0.34284 0.42457 0.0
N2075 N 0.31359 0.34972 0.41958 0.0
N2076 N 0.35519 0.30595 0.41824 0.0
C2077 C 0.32602 0.29751 0.41202 0.0
C2078 C 0.30348 0.32123 0.41279 0.0
C2079 C 0.28493 0.26285 0.62288 0.0
C2080 C 0.31639 0.26894 0.62028 0.0
C2081 C 0.26352 0.28653 0.62254 0.0
C2082 C 0.27264 0.31704 0.61895 0.0
H2083 H 0.27684 0.23988 0.62727 0.0
H2084 H 0.23984 0.28111 0.62724 0.0
S2085 S 0.35134 0.34525 0.60716 0.0
N2086 N 0.35514 0.30788 0.6107 0.0
N2087 N 0.31438 0.3522 0.60992 0.0
C2088 C 0.30349 0.32337 0.61355 0.0
C2089 C 0.32552 0.2993 0.61415 0.0
C2090 C 0.71971 0.32139 0.60455 0.0
C2091 C 0.7513 0.31629 0.60375 0.0
C2092 C 0.69929 0.29691 0.60776 0.0
C2093 C 0.70991 0.26657 0.61083 0.0
H2094 H 0.71092 0.34449 0.60581 0.0
H2095 H 0.67528 0.30217 0.61042 0.0
S2096 S 0.79029 0.2413 0.6042 0.0
N2097 N 0.79195 0.27888 0.60166 0.0
N2098 N 0.75377 0.23281 0.60784 0.0
C2099 C 0.74121 0.26115 0.60686 0.0
C2100 C 0.76186 0.28605 0.60329 0.0
C2101 C 0.3147 0.73035 0.61155 0.0
C2102 C 0.30866 0.76073 0.61964 0.0
C2103 C 0.29147 0.70821 0.61282 0.0
C2104 C 0.26162 0.71579 0.62245 0.0
H2105 H 0.33788 0.72316 0.60675 0.0
H2106 H 0.29753 0.68468 0.60825 0.0
S2107 S 0.23375 0.79373 0.64101 0.0
N2108 N 0.27035 0.79823 0.63341 0.0
N2109 N 0.22688 0.75702 0.63624 0.0
C2110 C 0.25494 0.74678 0.62779 0.0
C2111 C 0.27845 0.76913 0.62627 0.0
C2112 C 0.15682 0.23719 0.40617 0.0
C2113 C 0.13274 0.22741 0.38746 0.0
C2114 C 0.16375 0.26837 0.40885 0.0
C2115 C 0.14651 0.29074 0.39334 0.0
H2116 H 0.1727 0.22069 0.41557 0.0
H2117 H 0.18445 0.2748 0.42077 0.0
S2118 S 0.07754 0.27684 0.34656 0.0
N2119 N 0.08904 0.24241 0.35691 0.0
N2120 N 0.1015 0.30107 0.36267 0.0
C2121 C 0.12002 0.28141 0.37796 0.0
C2122 C 0.11326 0.24965 0.37488 0.0
C2123 C 0.73972 0.11942 0.36349 0.0
C2124 C 0.72784 0.14118 0.38376 0.0
C2125 C 0.77137 0.11541 0.36021 0.0
C2126 C 0.79235 0.13338 0.37667 0.0
H2127 H 0.72457 0.10746 0.34805 0.0
H2128 H 0.77948 0.1004 0.34233 0.0
S2129 S 0.77264 0.19072 0.43544 0.0
N2130 N 0.73923 0.17837 0.42306 0.0
N2131 N 0.79879 0.17124 0.41648 0.0
C2132 C 0.78072 0.15297 0.3992 0.0
C2133 C 0.74839 0.15687 0.40274 0.0
C2134 C 0.90374 0.74184 0.37121 0.0
C2135 C 0.8825 0.73065 0.39245 0.0
C2136 C 0.90621 0.77333 0.36562 0.0
C2137 C 0.88773 0.79451 0.38124 0.0
H2138 H 0.91559 0.72621 0.35616 0.0
H2139 H 0.92039 0.78092 0.3468 0.0
S2140 S 0.83416 0.77696 0.44417 0.0
N2141 N 0.8469 0.74325 0.43302 0.0
N2142 N 0.85181 0.80245 0.42261 0.0
C2143 C 0.86972 0.78386 0.40545 0.0
C2144 C 0.86705 0.75182 0.41103 0.0
C2145 C 0.25428 0.90958 0.36538 0.0
C2146 C 0.23082 0.89315 0.38016 0.0
C2147 C 0.28513 0.90443 0.37243 0.0
C2148 C 0.29347 0.8823 0.39414 0.0
H2149 H 0.24889 0.92433 0.34623 0.0
H2150 H 0.30241 0.91509 0.35828 0.0
S2151 S 0.24091 0.83745 0.44312 0.0
N2152 N 0.21806 0.85759 0.42083 0.0
N2153 N 0.27602 0.84746 0.43363 0.0
C2154 C 0.27022 0.86853 0.41156 0.0
C2155 C 0.23883 0.87408 0.40468 0.0
C2156 C 0.1185 0.7444 0.65387 0.0
C2157 C 0.13721 0.72816 0.63345 0.0
C2158 C 0.11734 0.77652 0.65344 0.0
C2159 C 0.13545 0.79356 0.63307 0.0
H2160 H 0.10659 0.73231 0.67189 0.0
H2161 H 0.10462 0.78807 0.67121 0.0
S2162 S 0.18509 0.76194 0.57235 0.0
N2163 N 0.17125 0.73146 0.58985 0.0
N2164 N 0.17006 0.79177 0.58986 0.0
C2165 C 0.15228 0.77756 0.61096 0.0
C2166 C 0.15287 0.74484 0.61091 0.0
C2167 C 0.27521 0.15727 0.61889 0.0
C2168 C 0.29665 0.1387 0.63409 0.0
C2169 C 0.2436 0.15248 0.62243 0.0
C2170 C 0.23254 0.12916 0.6416 0.0
H2171 H 0.28282 0.17748 0.60676 0.0
H2172 H 0.22797 0.16923 0.61306 0.0
S2173 S 0.27915 0.07156 0.68249 0.0
N2174 N 0.30455 0.09389 0.66569 0.0
N2175 N 0.24533 0.08503 0.67261 0.0
C2176 C 0.25374 0.10865 0.65428 0.0
C2177 C 0.2858 0.11343 0.65054 0.0
C2178 C 0.8664 0.27159 0.61362 0.0
C2179 C 0.8766 0.29412 0.63412 0.0
C2180 C 0.87299 0.24045 0.61842 0.0
C2181 C 0.88997 0.23104 0.64398 0.0
H2182 H 0.8514 0.27789 0.59504 0.0
H2183 H 0.86208 0.22363 0.60399 0.0
S2184 S 0.92726 0.28178 0.7005 0.0
N2185 N 0.90857 0.30537 0.67776 0.0
N2186 N 0.92124 0.24718 0.68685 0.0
C2187 C 0.90351 0.25379 0.66223 0.0
C2188 C 0.89678 0.28532 0.6573 0.0
C2189 C 0.7757 0.87378 0.61698 0.0
C2190 C 0.78942 0.89207 0.6395 0.0
C2191 C 0.7436 0.87148 0.61489 0.0
C2192 C 0.72444 0.88734 0.63528 0.0
H2193 H 0.78964 0.85857 0.60338 0.0
H2194 H 0.73391 0.85471 0.59955 0.0
S2195 S 0.74912 0.94286 0.69382 0.0
N2196 N 0.78132 0.93015 0.67885 0.0
N2197 N 0.72141 0.92528 0.6753 0.0
C2198 C 0.73791 0.90827 0.6553 0.0
C2199 C 0.77033 0.91087 0.65721 0.0
C2200 C 0.36974 0.1156 0.24766 0.0
C2201 C 0.3878 0.13631 0.23096 0.0
C2202 C 0.36919 0.11621 0.27979 0.0
C2203 C 0.38725 0.13701 0.29623 0.0
H2204 H 0.35359 0.10107 0.23586 0.0
H2205 H 0.35281 0.10201 0.29172 0.0
S2206 S 0.44212 0.1924 0.26327 0.0
N2207 N 0.4264 0.17592 0.23325 0.0
N2208 N 0.4266 0.17594 0.2935 0.0
C2209 C 0.40777 0.15547 0.27983 0.0
C2210 C 0.4077 0.15545 0.24719 0.0
C2211 C 0.91382 0.37206 0.27919 0.0
C2212 C 0.89164 0.39039 0.29322 0.0
C2213 C 0.9158 0.37025 0.24729 0.0
C2214 C 0.89525 0.38624 0.22837 0.0
H2215 H 0.92754 0.35661 0.29284 0.0
H2216 H 0.931 0.35338 0.23747 0.0
S2217 S 0.83639 0.44116 0.25404 0.0
N2218 N 0.85184 0.42831 0.286 0.0
N2219 N 0.85493 0.42416 0.22595 0.0
C2220 C 0.87544 0.40735 0.24207 0.0
C2221 C 0.87371 0.40951 0.27462 0.0
C2222 C 0.65801 0.90478 0.28143 0.0
C2223 C 0.63795 0.88311 0.29396 0.0
C2224 C 0.66092 0.90824 0.2497 0.0
C2225 C 0.64441 0.88975 0.22929 0.0
H2226 H 0.67355 0.91714 0.29616 0.0
H2227 H 0.67843 0.92339 0.24105 0.0
S2228 S 0.58643 0.83199 0.25071 0.0
N2229 N 0.59891 0.84521 0.28372 0.0
N2230 N 0.60495 0.85124 0.22401 0.0
C2231 C 0.62215 0.87012 0.24152 0.0
C2232 C 0.6189 0.86683 0.27393 0.0
C2233 C 0.14551 0.62825 0.27245 0.0
C2234 C 0.16499 0.64741 0.28943 0.0
C2235 C 0.14114 0.63305 0.2407 0.0
C2236 C 0.15687 0.65653 0.22514 0.0
H2237 H 0.13488 0.60875 0.28335 0.0
H2238 H 0.12682 0.61738 0.22807 0.0
S2239 S 0.20849 0.71421 0.2606 0.0
N2240 N 0.19704 0.69259 0.28914 0.0
N2241 N 0.19173 0.69976 0.23028 0.0
C2242 C 0.17544 0.67629 0.24258 0.0
C2243 C 0.17867 0.67224 0.27449 0.0
C2244 C 0.39879 0.86798 0.77781 0.0
C2245 C 0.37768 0.88675 0.79311 0.0
C2246 C 0.40104 0.8682 0.74572 0.0
C2247 C 0.38172 0.88667 0.72783 0.0
H2248 H 0.4119 0.85129 0.79056 0.0
H2249 H 0.41567 0.85151 0.73482 0.0
S2250 S 0.3251 0.94236 0.75697 0.0
N2251 N 0.33961 0.92669 0.78809 0.0
N2252 N 0.3429 0.92619 0.72793 0.0
C2253 C 0.36225 0.90716 0.74299 0.0
C2254 C 0.36048 0.90744 0.77561 0.0
C2255 C 0.15967 0.40422 0.77986 0.0
C2256 C 0.13929 0.38402 0.79438 0.0
C2257 C 0.1617 0.40573 0.74784 0.0
C2258 C 0.14391 0.38658 0.72922 0.0
H2259 H 0.17588 0.41712 0.79335 0.0
H2260 H 0.17947 0.41969 0.73773 0.0
S2261 S 0.08612 0.33079 0.75591 0.0
N2262 N 0.09955 0.34605 0.78764 0.0
N2263 N 0.10424 0.34799 0.72759 0.0
C2264 C 0.12217 0.36769 0.74341 0.0
C2265 C 0.11962 0.36666 0.77597 0.0
C2266 C 0.65874 0.11854 0.77371 0.0
C2267 C 0.64002 0.13641 0.79278 0.0
C2268 C 0.65813 0.12221 0.74175 0.0
C2269 C 0.63877 0.1439 0.72807 0.0
H2270 H 0.67623 0.10411 0.78365 0.0
H2271 H 0.67504 0.11042 0.72809 0.0
S2272 S 0.58241 0.19295 0.76757 0.0
N2273 N 0.59934 0.17385 0.79539 0.0
N2274 N 0.59801 0.18064 0.73556 0.0
C2275 C 0.61793 0.15957 0.7467 0.0
C2276 C 0.61859 0.15586 0.77904 0.0
C2277 C 0.86232 0.61172 0.74994 0.0
C2278 C 0.87986 0.63054 0.73053 0.0
C2279 C 0.8636 0.61471 0.78181 0.0
C2280 C 0.883 0.63614 0.79556 0.0
H2281 H 0.84488 0.59705 0.74034 0.0
H2282 H 0.84736 0.60211 0.79561 0.0
S2283 S 0.93653 0.68808 0.75546 0.0
N2284 N 0.91932 0.66932 0.72766 0.0
N2285 N 0.92253 0.6742 0.78767 0.0
C2286 C 0.90303 0.65276 0.77667 0.0
C2287 C 0.9014 0.65003 0.74408 0.0
C2288 C 0.24237 0.40429 0.15197 0.0
C2289 C 0.22954 0.38147 0.13355 0.0
C2290 C 0.27418 0.40814 0.15381 0.0
C2291 C 0.29438 0.38898 0.1377 0.0
H2292 H 0.22792 0.41727 0.16727 0.0
H2293 H 0.28308 0.42386 0.17068 0.0
S2294 S 0.27204 0.32873 0.08294 0.0
N2295 N 0.2392 0.34212 0.09585 0.0
N2296 N 0.29901 0.34889 0.0999 0.0
C2297 C 0.28173 0.36831 0.11676 0.0
C2298 C 0.24926 0.36457 0.11466 0.0
C2299 C 0.23628 0.61248 0.87197 0.0
C2300 C 0.22525 0.63413 0.8928 0.0
C2301 C 0.26783 0.60841 0.86785 0.0
C2302 C 0.28926 0.62572 0.8845 0.0
H2303 H 0.22076 0.60163 0.85608 0.0
H2304 H 0.27544 0.59433 0.84901 0.0
S2305 S 0.27148 0.68 0.94661 0.0
N2306 N 0.23775 0.66892 0.93393 0.0
N2307 N 0.29703 0.66107 0.92632 0.0
C2308 C 0.27841 0.64405 0.90835 0.0
C2309 C 0.24631 0.64834 0.91241 0.0
C2310 C 0.39788 0.24057 0.86447 0.0
C2311 C 0.37906 0.22655 0.88647 0.0
C2312 C 0.40081 0.27254 0.86287 0.0
C2313 C 0.38454 0.29172 0.88281 0.0
H2314 H 0.40853 0.22685 0.84689 0.0
H2315 H 0.41357 0.28235 0.84406 0.0
S2316 S 0.3334 0.26645 0.94534 0.0
N2317 N 0.34554 0.23428 0.92985 0.0
N2318 N 0.35014 0.29432 0.92612 0.0
C2319 C 0.3671 0.27795 0.906 0.0
C2320 C 0.36462 0.24537 0.90803 0.0
C2321 C 0.77352 0.35904 0.8997 0.0
C2322 C 0.79493 0.37862 0.8858 0.0
C2323 C 0.74195 0.36296 0.89506 0.0
C2324 C 0.73087 0.38644 0.87611 0.0
H2325 H 0.7813 0.33889 0.9118 0.0
H2326 H 0.72644 0.34573 0.90375 0.0
S2327 S 0.77712 0.44678 0.83891 0.0
N2328 N 0.80257 0.42473 0.85602 0.0
N2329 N 0.7434 0.43173 0.84669 0.0
C2330 C 0.75187 0.40775 0.8645 0.0
C2331 C 0.7839 0.40394 0.86952 0.0
C2332 C 0.65801 0.77036 0.90315 0.0
C2333 C 0.64197 0.79258 0.88615 0.0
C2334 C 0.65223 0.73904 0.89936 0.0
C2335 C 0.63051 0.72897 0.8781 0.0
H2336 H 0.67718 0.77711 0.91724 0.0
H2337 H 0.66733 0.72276 0.91032 0.0
S2338 S 0.57924 0.77773 0.8316 0.0
N2339 N 0.60067 0.80228 0.85054 0.0
N2340 N 0.59021 0.74345 0.84294 0.0
C2341 C 0.61209 0.75097 0.86357 0.0
C2342 C 0.61771 0.78284 0.86771 0.0
C2343 C 0.74693 0.61346 0.15109 0.0
C2344 C 0.72845 0.6314 0.13171 0.0
C2345 C 0.77909 0.61573 0.15031 0.0
C2346 C 0.79374 0.63593 0.13002 0.0
H2347 H 0.73648 0.60032 0.16928 0.0
H2348 H 0.79221 0.6044 0.16798 0.0
S2349 S 0.75597 0.68329 0.07081 0.0
N2350 N 0.72741 0.66656 0.08894 0.0
N2351 N 0.7875 0.67039 0.08704 0.0
C2352 C 0.77559 0.65097 0.10815 0.0
C2353 C 0.74301 0.64889 0.10915 0.0
C2354 C 0.38649 0.777 0.14216 0.0
C2355 C 0.35672 0.78898 0.13905 0.0
C2356 C 0.39146 0.74509 0.14515 0.0
C2357 C 0.36679 0.72435 0.14484 0.0
H2358 H 0.40567 0.79239 0.14467 0.0
H2359 H 0.41428 0.73693 0.15011 0.0
S2360 S 0.28492 0.7441 0.13498 0.0
N2361 N 0.30286 0.77717 0.13446 0.0
N2362 N 0.31204 0.71828 0.13818 0.0
C2363 C 0.33743 0.73618 0.13918 0.0
C2364 C 0.33242 0.76819 0.1369 0.0
C2365 C 0.65315 0.24454 0.11611 0.0
C2366 C 0.63677 0.22461 0.13538 0.0
C2367 C 0.6503 0.2765 0.11894 0.0
C2368 C 0.63094 0.28932 0.14111 0.0
H2369 H 0.67066 0.23552 0.10116 0.0
H2370 H 0.66582 0.29101 0.10623 0.0
S2371 S 0.57991 0.24686 0.19374 0.0
N2372 N 0.59812 0.21993 0.17468 0.0
N2373 N 0.59234 0.27962 0.17971 0.0
C2374 C 0.61209 0.26951 0.15802 0.0
C2375 C 0.61518 0.2372 0.15532 0.0
C2376 C 0.86756 0.77686 0.6147 0.0
C2377 C 0.88551 0.79296 0.63585 0.0
C2378 C 0.86741 0.74472 0.61419 0.0
C2379 C 0.88464 0.72771 0.63535 0.0
H2380 H 0.85167 0.78911 0.60021 0.0
H2381 H 0.85125 0.73323 0.59942 0.0
S2382 S 0.93853 0.75901 0.69241 0.0
N2383 N 0.92397 0.78953 0.67558 0.0
N2384 N 0.92255 0.72927 0.67566 0.0
C2385 C 0.90458 0.74356 0.65477 0.0
C2386 C 0.90532 0.77619 0.65473 0.0
C2387 C 0.27147 0.87211 0.60764 0.0
C2388 C 0.29229 0.88754 0.62674 0.0
C2389 C 0.23976 0.87563 0.61125 0.0
C2390 C 0.22802 0.89456 0.63423 0.0
H2391 H 0.27963 0.85442 0.59243 0.0
H2392 H 0.22467 0.86049 0.59884 0.0
S2393 S 0.27263 0.94469 0.68559 0.0
N2394 N 0.29879 0.92627 0.66564 0.0
N2395 N 0.23931 0.93285 0.67255 0.0
C2396 C 0.24854 0.91321 0.65042 0.0
C2397 C 0.28075 0.90975 0.64662 0.0
C2398 C 0.16481 0.23875 0.62006 0.0
C2399 C 0.14331 0.22583 0.64004 0.0
C2400 C 0.16807 0.27051 0.61754 0.0
C2401 C 0.15035 0.29061 0.6353 0.0
H2402 H 0.18095 0.22422 0.60823 0.0
H2403 H 0.18659 0.27937 0.60371 0.0
S2404 S 0.0891 0.2682 0.6892 0.0
N2405 N 0.10218 0.23542 0.67591 0.0
N2406 N 0.10882 0.29525 0.67168 0.0
C2407 C 0.12701 0.27806 0.65342 0.0
C2408 C 0.12345 0.24558 0.65574 0.0
C2409 C 0.78261 0.15485 0.61486 0.0
C2410 C 0.79659 0.13532 0.63621 0.0
C2411 C 0.75064 0.15562 0.61149 0.0
C2412 C 0.73158 0.13749 0.62996 0.0
H2413 H 0.7963 0.1713 0.60243 0.0
H2414 H 0.74068 0.17283 0.59675 0.0
S2415 S 0.75712 0.07979 0.68642 0.0
N2416 N 0.78918 0.0947 0.67322 0.0
N2417 N 0.72917 0.09721 0.66795 0.0
C2418 C 0.74545 0.116 0.64937 0.0
C2419 C 0.77798 0.1147 0.65227 0.0
C2420 C 0.90792 0.24614 0.36451 0.0
C2421 C 0.88862 0.22671 0.38143 0.0
C2422 C 0.90594 0.27816 0.3674 0.0
C2423 C 0.88463 0.29152 0.38735 0.0
H2424 H 0.92223 0.23674 0.34668 0.0
H2425 H 0.91857 0.29237 0.35155 0.0
S2426 S 0.83377 0.25037 0.44101 0.0
N2427 N 0.85122 0.22295 0.42196 0.0
N2428 N 0.84765 0.28282 0.42766 0.0
C2429 C 0.86808 0.27215 0.40691 0.0
C2430 C 0.86995 0.23977 0.40382 0.0
C2431 C 0.75292 0.86059 0.4068 0.0
C2432 C 0.73167 0.87894 0.39112 0.0
C2433 C 0.78438 0.86541 0.40373 0.0
C2434 C 0.79575 0.88909 0.38527 0.0
H2435 H 0.74527 0.84041 0.41893 0.0
H2436 H 0.79984 0.84844 0.41303 0.0
S2437 S 0.74965 0.94944 0.34798 0.0
N2438 N 0.72398 0.92586 0.36251 0.0
N2439 N 0.78344 0.93525 0.35708 0.0
C2440 C 0.7748 0.91044 0.37357 0.0
C2441 C 0.74257 0.90535 0.3765 0.0
C2442 C 0.17059 0.78031 0.39606 0.0
C2443 C 0.14887 0.79258 0.37576 0.0
C2444 C 0.17483 0.74854 0.39881 0.0
C2445 C 0.15803 0.72792 0.38087 0.0
H2446 H 0.18571 0.7954 0.40847 0.0
H2447 H 0.19292 0.74015 0.41343 0.0
S2448 S 0.09796 0.74828 0.32488 0.0
N2449 N 0.10942 0.78151 0.33853 0.0
N2450 N 0.11824 0.72197 0.34287 0.0
C2451 C 0.13538 0.73982 0.36151 0.0
C2452 C 0.13059 0.77211 0.35917 0.0
C2453 C 0.24614 0.11528 0.37426 0.0
C2454 C 0.22632 0.13552 0.3895 0.0
C2455 C 0.27817 0.11818 0.37685 0.0
C2456 C 0.29117 0.1414 0.39482 0.0
H2457 H 0.237 0.09941 0.35767 0.0
H2458 H 0.29259 0.10457 0.3621 0.0
S2459 S 0.24905 0.19647 0.44328 0.0
N2460 N 0.222 0.17661 0.42616 0.0
N2461 N 0.28171 0.18181 0.43143 0.0
C2462 C 0.27146 0.15923 0.41283 0.0
C2463 C 0.23912 0.15643 0.41 0.0
C2464 C 0.65838 0.9057 0.77265 0.0
C2465 C 0.64016 0.88929 0.79349 0.0
C2466 C 0.65353 0.90343 0.74095 0.0
C2467 C 0.63041 0.88449 0.72922 0.0
H2468 H 0.67836 0.91786 0.7807 0.0
H2469 H 0.67016 0.91354 0.72565 0.0
S2470 S 0.57411 0.84029 0.77436 0.0
N2471 N 0.59616 0.85645 0.8003 0.0
N2472 N 0.58704 0.85211 0.74095 0.0
C2473 C 0.61021 0.87063 0.75 0.0
C2474 C 0.61517 0.87291 0.78211 0.0
C2475 C 0.1191 0.65031 0.74272 0.0
C2476 C 0.14002 0.63017 0.72909 0.0
C2477 C 0.11632 0.65184 0.77471 0.0
C2478 C 0.13448 0.63338 0.79381 0.0
H2479 H 0.10751 0.6673 0.72892 0.0
H2480 H 0.10246 0.66983 0.7845 0.0
S2481 S 0.18802 0.57296 0.76901 0.0
N2482 N 0.17534 0.58815 0.73686 0.0
N2483 N 0.17053 0.59148 0.79679 0.0
C2484 C 0.15281 0.61095 0.78031 0.0
C2485 C 0.15539 0.60917 0.74792 0.0
C2486 C 0.40231 0.15953 0.75405 0.0
C2487 C 0.38684 0.1426 0.73149 0.0
C2488 C 0.39701 0.15439 0.78525 0.0
C2489 C 0.37576 0.13239 0.79486 0.0
H2490 H 0.41637 0.17881 0.74748 0.0
H2491 H 0.40701 0.16994 0.80165 0.0
S2492 S 0.33405 0.07814 0.74538 0.0
N2493 N 0.35333 0.09977 0.72119 0.0
N2494 N 0.34278 0.09053 0.77986 0.0
C2495 C 0.36279 0.11315 0.77274 0.0
C2496 C 0.36856 0.11808 0.74098 0.0
C2497 C 0.90355 0.37092 0.76847 0.0
C2498 C 0.88065 0.37607 0.79047 0.0
C2499 C 0.8979 0.37582 0.7371 0.0
C2500 C 0.86903 0.38555 0.72685 0.0
H2501 H 0.9251 0.36083 0.7753 0.0
H2502 H 0.91525 0.36935 0.72071 0.0
S2503 S 0.8013 0.40021 0.77524 0.0
N2504 N 0.82837 0.39108 0.79971 0.0
N2505 N 0.81757 0.39983 0.74128 0.0
C2506 C 0.84659 0.39197 0.74883 0.0
C2507 C 0.85244 0.38736 0.78053 0.0
C2508 C 0.62089 0.15453 0.23695 0.0
C2509 C 0.64054 0.13104 0.22751 0.0
C2510 C 0.61751 0.16146 0.26804 0.0
C2511 C 0.63325 0.14484 0.29071 0.0
H2512 H 0.61107 0.16995 0.22025 0.0
H2513 H 0.60472 0.18173 0.2742 0.0
S2514 S 0.68268 0.07749 0.27784 0.0
N2515 N 0.67244 0.08848 0.24321 0.0
N2516 N 0.66547 0.10106 0.30169 0.0
C2517 C 0.64983 0.11896 0.28172 0.0
C2518 C 0.65361 0.11217 0.25004 0.0
C2519 C 0.90636 0.65871 0.24655 0.0
C2520 C 0.88954 0.63741 0.22942 0.0
C2521 C 0.9048 0.65917 0.27865 0.0
C2522 C 0.88698 0.63786 0.29487 0.0
H2523 H 0.91832 0.67707 0.23501 0.0
H2524 H 0.91579 0.6777 0.29074 0.0
S2525 S 0.84176 0.57501 0.26095 0.0
N2526 N 0.85655 0.59296 0.23119 0.0
N2527 N 0.85471 0.59297 0.29145 0.0
C2528 C 0.87249 0.61465 0.27815 0.0
C2529 C 0.87347 0.61465 0.24543 0.0
C2530 C 0.39245 0.86249 0.27353 0.0
C2531 C 0.37687 0.8805 0.29512 0.0
C2532 C 0.38598 0.86489 0.24203 0.0
C2533 C 0.36366 0.88538 0.23121 0.0
H2534 H 0.40776 0.84464 0.28125 0.0
H2535 H 0.39655 0.84889 0.22647 0.0
S2536 S 0.32245 0.94279 0.27769 0.0
N2537 N 0.34208 0.92275 0.30294 0.0
N2538 N 0.33098 0.92823 0.24398 0.0
C2539 C 0.3508 0.90588 0.25227 0.0
C2540 C 0.35709 0.90318 0.28419 0.0
C2541 C 0.15741 0.40208 0.27613 0.0
C2542 C 0.1412 0.38301 0.29644 0.0
C2543 C 0.15476 0.39858 0.24418 0.0
C2544 C 0.13577 0.37592 0.23166 0.0
H2545 H 0.17459 0.41753 0.28492 0.0
H2546 H 0.17002 0.41136 0.22948 0.0
S2547 S 0.08503 0.3237 0.27491 0.0
N2548 N 0.10294 0.3434 0.30156 0.0
N2549 N 0.09756 0.33714 0.24196 0.0
C2550 C 0.11713 0.35913 0.25175 0.0
C2551 C 0.11998 0.36253 0.28404 0.0
C2552 C 0.77595 0.61899 0.87076 0.0
C2553 C 0.78791 0.64057 0.89129 0.0
C2554 C 0.74415 0.61627 0.86633 0.0
C2555 C 0.72347 0.63498 0.88234 0.0
H2556 H 0.79115 0.60677 0.85557 0.0
H2557 H 0.73594 0.60181 0.84806 0.0
S2558 S 0.74314 0.69175 0.94158 0.0
N2559 N 0.77643 0.67808 0.93034 0.0
N2560 N 0.71705 0.67318 0.92171 0.0
C2561 C 0.73508 0.6543 0.90499 0.0
C2562 C 0.76723 0.65692 0.90963 0.0
C2563 C 0.77859 0.40436 0.15447 0.0
C2564 C 0.79513 0.38494 0.13494 0.0
C2565 C 0.74646 0.40382 0.15529 0.0
C2566 C 0.72976 0.3832 0.13724 0.0
H2567 H 0.79062 0.41832 0.17093 0.0
H2568 H 0.7348 0.41753 0.17224 0.0
S2569 S 0.762 0.32877 0.08122 0.0
N2570 N 0.79221 0.34623 0.09553 0.0
N2571 N 0.732 0.3441 0.09821 0.0
C2572 C 0.7459 0.36492 0.11646 0.0
C2573 C 0.77855 0.36612 0.11498 0.0
C2574 C 0.65267 0.7436 0.11743 0.0
C2575 C 0.63305 0.72983 0.13883 0.0
C2576 C 0.65501 0.77566 0.11539 0.0
C2577 C 0.6379 0.79478 0.13477 0.0
H2578 H 0.66873 0.72971 0.10476 0.0
H2579 H 0.67264 0.78538 0.10098 0.0
S2580 S 0.57987 0.76991 0.1909 0.0
N2581 N 0.59336 0.73775 0.17662 0.0
N2582 N 0.5981 0.7977 0.17302 0.0
C2583 C 0.61605 0.78127 0.15384 0.0
C2584 C 0.61349 0.74883 0.15574 0.0
C2585 C 0.2379 0.61891 0.14705 0.0
C2586 C 0.23196 0.64045 0.12394 0.0
C2587 C 0.26799 0.61181 0.15562 0.0
C2588 C 0.29323 0.6256 0.14112 0.0
H2589 H 0.21937 0.60997 0.16081 0.0
H2590 H 0.27145 0.59741 0.17546 0.0
S2591 S 0.28959 0.67789 0.07443 0.0
N2592 N 0.25349 0.67157 0.08339 0.0
N2593 N 0.31002 0.65752 0.09879 0.0
C2594 C 0.28751 0.64402 0.11536 0.0
C2595 C 0.25686 0.65167 0.107 0.0
C2596 C 0.3696 0.24812 0.11079 0.0
C2597 C 0.38618 0.2291 0.13078 0.0
C2598 C 0.37153 0.28001 0.11274 0.0
C2599 C 0.39055 0.29399 0.13435 0.0
H2600 H 0.35231 0.23837 0.09605 0.0
H2601 H 0.35579 0.29372 0.09941 0.0
S2602 S 0.44175 0.25461 0.18905 0.0
N2603 N 0.42457 0.22657 0.17063 0.0
N2604 N 0.42888 0.28662 0.1737 0.0
C2605 C 0.40986 0.27532 0.152 0.0
C2606 C 0.40761 0.24275 0.15028 0.0
C2607 C 0.23992 0.40502 0.8711 0.0
C2608 C 0.22916 0.38436 0.89315 0.0
C2609 C 0.27132 0.40767 0.86525 0.0
C2610 C 0.29282 0.39012 0.88159 0.0
H2611 H 0.22404 0.41606 0.85563 0.0
H2612 H 0.2786 0.42117 0.8458 0.0
S2613 S 0.27622 0.33747 0.94565 0.0
N2614 N 0.24235 0.34975 0.93444 0.0
N2615 N 0.30139 0.35519 0.9238 0.0
C2616 C 0.28254 0.37268 0.90641 0.0
C2617 C 0.25059 0.36975 0.91214 0.0
C2618 C 0.65882 0.25103 0.90655 0.0
C2619 C 0.64199 0.23065 0.88826 0.0
C2620 C 0.65616 0.28272 0.90286 0.0
C2621 C 0.63614 0.29515 0.88116 0.0
H2622 H 0.67665 0.24239 0.92142 0.0
H2623 H 0.67189 0.29743 0.915 0.0
S2624 S 0.58401 0.2521 0.83053 0.0
N2625 N 0.60234 0.22535 0.84992 0.0
N2626 N 0.59683 0.28509 0.8435 0.0
C2627 C 0.6168 0.27524 0.86511 0.0
C2628 C 0.61973 0.24286 0.86864 0.0
C2629 C 0.39945 0.74447 0.87059 0.0
C2630 C 0.37971 0.72506 0.88707 0.0
C2631 C 0.39644 0.77654 0.8722 0.0
C2632 C 0.37366 0.78997 0.89042 0.0
H2633 H 0.41495 0.73489 0.85388 0.0
H2634 H 0.4096 0.79056 0.85662 0.0
S2635 S 0.3204 0.7493 0.94214 0.0
N2636 N 0.33976 0.72175 0.9252 0.0
N2637 N 0.33447 0.7816 0.92866 0.0
C2638 C 0.35644 0.7708 0.9096 0.0
C2639 C 0.35929 0.73841 0.90775 0.0
loop_
_geom_bond_atom_site_label_1
_geom_bond_atom_site_label_2
_geom_bond_distance
_geom_bond_site_symmetry_2
_ccdc_geom_bond_type
Fe0 O2 1.918 . S
Fe0 O5 1.997 . S
Fe0 O6 2.002 . S
Fe0 O11 1.976 . S
Fe0 O14 1.996 . S
Fe1 O2 1.918 . S
Fe1 O9 1.997 . S
Fe1 O12 1.996 . S
Fe1 O16 1.976 . S
Fe1 O19 2.002 . S
O2 Fe0 1.918 . S
O2 Fe1 1.918 . S
O2 Fe3 1.918 . S
Fe3 O2 1.918 . S
Fe3 O4 2.002 . S
Fe3 O13 1.976 . S
Fe3 O17 1.996 . S
Fe3 O20 1.997 . S
O4 Fe3 2.002 . S
O4 C21 1.295 . S
O5 Fe0 1.997 . S
O5 C21 1.235 . S
O6 Fe0 2.002 . S
O6 C7 1.295 . S
C7 O6 1.295 . S
C7 O9 1.235 . S
C8 O13 1.287 . S
C8 O14 1.255 . S
O9 Fe1 1.997 . S
O9 C7 1.235 . S
C10 O16 1.287 . S
C10 O17 1.255 . S
O11 Fe0 1.976 . S
O11 C18 1.287 . S
O12 Fe1 1.996 . S
O12 C18 1.255 . S
O13 Fe3 1.976 . S
O13 C8 1.287 . S
O14 Fe0 1.996 . S
O14 C8 1.255 . S
C15 O19 1.295 . S
C15 O20 1.235 . S
O16 Fe1 1.976 . S
O16 C10 1.287 . S
O17 Fe3 1.996 . S
O17 C10 1.255 . S
C18 O11 1.287 . S
C18 O12 1.255 . S
O19 Fe1 2.002 . S
O19 C15 1.295 . S
O20 Fe3 1.997 . S
O20 C15 1.235 . S
C21 O4 1.295 . S
C21 O5 1.235 . S
Fe22 O24 1.918 . S
Fe22 O27 1.997 . S
Fe22 O28 2.002 . S
Fe22 O33 1.976 . S
Fe22 O36 1.996 . S
Fe23 O24 1.918 . S
Fe23 O31 1.997 . S
Fe23 O34 1.996 . S
Fe23 O38 1.976 . S
Fe23 O41 2.002 . S
O24 Fe22 1.918 . S
O24 Fe23 1.918 . S
O24 Fe25 1.918 . S
Fe25 O24 1.918 . S
Fe25 O26 2.002 . S
Fe25 O35 1.976 . S
Fe25 O39 1.996 . S
Fe25 O42 1.997 . S
O26 Fe25 2.002 . S
O26 C43 1.295 . S
O27 Fe22 1.997 . S
O27 C43 1.235 . S
O28 Fe22 2.002 . S
O28 C29 1.295 . S
C29 O28 1.295 . S
C29 O31 1.235 . S
C30 O35 1.287 . S
C30 O36 1.255 . S
O31 Fe23 1.997 . S
O31 C29 1.235 . S
C32 O38 1.287 . S
C32 O39 1.255 . S
O33 Fe22 1.976 . S
O33 C40 1.287 . S
O34 Fe23 1.996 . S
O34 C40 1.255 . S
O35 Fe25 1.976 . S
O35 C30 1.287 . S
O36 Fe22 1.996 . S
O36 C30 1.255 . S
C37 O41 1.295 . S
C37 O42 1.235 . S
O38 Fe23 1.976 . S
O38 C32 1.287 . S
O39 Fe25 1.996 . S
O39 C32 1.255 . S
C40 O33 1.287 . S
C40 O34 1.255 . S
O41 Fe23 2.002 . S
O41 C37 1.295 . S
O42 Fe25 1.997 . S
O42 C37 1.235 . S
C43 O26 1.295 . S
C43 O27 1.235 . S
Fe44 O46 1.918 . S
Fe44 O49 1.997 . S
Fe44 O50 2.002 . S
Fe44 O55 1.976 . S
Fe44 O58 1.996 . S
Fe45 O46 1.918 . S
Fe45 O53 1.997 . S
Fe45 O56 1.996 . S
Fe45 O60 1.976 . S
Fe45 O63 2.002 . S
O46 Fe44 1.918 . S
O46 Fe45 1.918 . S
O46 Fe47 1.918 . S
Fe47 O46 1.918 . S
Fe47 O48 2.002 . S
Fe47 O57 1.976 . S
Fe47 O61 1.996 . S
Fe47 O64 1.997 . S
O48 Fe47 2.002 . S
O48 C65 1.295 . S
O49 Fe44 1.997 . S
O49 C65 1.235 . S
O50 Fe44 2.002 . S
O50 C51 1.295 . S
C51 O50 1.295 . S
C51 O53 1.235 . S
C52 O57 1.287 . S
C52 O58 1.255 . S
O53 Fe45 1.997 . S
O53 C51 1.235 . S
C54 O60 1.287 . S
C54 O61 1.255 . S
O55 Fe44 1.976 . S
O55 C62 1.287 . S
O56 Fe45 1.996 . S
O56 C62 1.255 . S
O57 Fe47 1.976 . S
O57 C52 1.287 . S
O58 Fe44 1.996 . S
O58 C52 1.255 . S
C59 O63 1.295 . S
C59 O64 1.235 . S
O60 Fe45 1.976 . S
O60 C54 1.287 . S
O61 Fe47 1.996 . S
O61 C54 1.255 . S
C62 O55 1.287 . S
C62 O56 1.255 . S
O63 Fe45 2.002 . S
O63 C59 1.295 . S
O64 Fe47 1.997 . S
O64 C59 1.235 . S
C65 O48 1.295 . S
C65 O49 1.235 . S
Fe66 O68 1.918 . S
Fe66 O71 1.997 . S
Fe66 O72 2.002 . S
Fe66 O77 1.976 . S
Fe66 O80 1.996 . S
Fe67 O68 1.918 . S
Fe67 O75 1.997 . S
Fe67 O78 1.996 . S
Fe67 O82 1.976 . S
Fe67 O85 2.002 . S
O68 Fe66 1.918 . S
O68 Fe67 1.918 . S
O68 Fe69 1.918 . S
Fe69 O68 1.918 . S
Fe69 O70 2.002 . S
Fe69 O79 1.976 . S
Fe69 O83 1.996 . S
Fe69 O86 1.997 . S
O70 Fe69 2.002 . S
O70 C87 1.295 . S
O71 Fe66 1.997 . S
O71 C87 1.235 . S
O72 Fe66 2.002 . S
O72 C73 1.295 . S
C73 O72 1.295 . S
C73 O75 1.235 . S
C74 O79 1.287 . S
C74 O80 1.255 . S
O75 Fe67 1.997 . S
O75 C73 1.235 . S
C76 O82 1.287 . S
C76 O83 1.255 . S
O77 Fe66 1.976 . S
O77 C84 1.287 . S
O78 Fe67 1.996 . S
O78 C84 1.255 . S
O79 Fe69 1.976 . S
O79 C74 1.287 . S
O80 Fe66 1.996 . S
O80 C74 1.255 . S
C81 O85 1.295 . S
C81 O86 1.235 . S
O82 Fe67 1.976 . S
O82 C76 1.287 . S
O83 Fe69 1.996 . S
O83 C76 1.255 . S
C84 O77 1.287 . S
C84 O78 1.255 . S
O85 Fe67 2.002 . S
O85 C81 1.295 . S
O86 Fe69 1.997 . S
O86 C81 1.235 . S
C87 O70 1.295 . S
C87 O71 1.235 . S
Fe88 O90 1.918 . S
Fe88 O93 1.997 . S
Fe88 O94 2.002 . S
Fe88 O99 1.976 . S
Fe88 O102 1.996 . S
Fe89 O90 1.918 . S
Fe89 O97 1.997 . S
Fe89 O100 1.996 . S
Fe89 O104 1.976 . S
Fe89 O107 2.002 . S
O90 Fe88 1.918 . S
O90 Fe89 1.918 . S
O90 Fe91 1.918 . S
Fe91 O90 1.918 . S
Fe91 O92 2.002 . S
Fe91 O101 1.976 . S
Fe91 O105 1.996 . S
Fe91 O108 1.997 . S
O92 Fe91 2.002 . S
O92 C109 1.295 . S
O93 Fe88 1.997 . S
O93 C109 1.235 . S
O94 Fe88 2.002 . S
O94 C95 1.295 . S
C95 O94 1.295 . S
C95 O97 1.235 . S
C96 O101 1.287 . S
C96 O102 1.255 . S
O97 Fe89 1.997 . S
O97 C95 1.235 . S
C98 O104 1.287 . S
C98 O105 1.255 . S
O99 Fe88 1.976 . S
O99 C106 1.287 . S
O100 Fe89 1.996 . S
O100 C106 1.255 . S
O101 Fe91 1.976 . S
O101 C96 1.287 . S
O102 Fe88 1.996 . S
O102 C96 1.255 . S
C103 O107 1.295 . S
C103 O108 1.235 . S
O104 Fe89 1.976 . S
O104 C98 1.287 . S
O105 Fe91 1.996 . S
O105 C98 1.255 . S
C106 O99 1.287 . S
C106 O100 1.255 . S
O107 Fe89 2.002 . S
O107 C103 1.295 . S
O108 Fe91 1.997 . S
O108 C103 1.235 . S
C109 O92 1.295 . S
C109 O93 1.235 . S
Fe110 O112 1.918 . S
Fe110 O115 1.997 . S
Fe110 O116 2.002 . S
Fe110 O121 1.976 . S
Fe110 O124 1.996 . S
Fe111 O112 1.918 . S
Fe111 O119 1.997 . S
Fe111 O122 1.996 . S
Fe111 O126 1.976 . S
Fe111 O129 2.002 . S
O112 Fe110 1.918 . S
O112 Fe111 1.918 . S
O112 Fe113 1.918 . S
Fe113 O112 1.918 . S
Fe113 O114 2.002 . S
Fe113 O123 1.976 . S
Fe113 O127 1.996 . S
Fe113 O130 1.997 . S
O114 Fe113 2.002 . S
O114 C131 1.295 . S
O115 Fe110 1.997 . S
O115 C131 1.235 . S
O116 Fe110 2.002 . S
O116 C117 1.295 . S
C117 O116 1.295 . S
C117 O119 1.235 . S
C118 O123 1.287 . S
C118 O124 1.255 . S
O119 Fe111 1.997 . S
O119 C117 1.235 . S
C120 O126 1.287 . S
C120 O127 1.255 . S
O121 Fe110 1.976 . S
O121 C128 1.287 . S
O122 Fe111 1.996 . S
O122 C128 1.255 . S
O123 Fe113 1.976 . S
O123 C118 1.287 . S
O124 Fe110 1.996 . S
O124 C118 1.255 . S
C125 O129 1.295 . S
C125 O130 1.235 . S
O126 Fe111 1.976 . S
O126 C120 1.287 . S
O127 Fe113 1.996 . S
O127 C120 1.255 . S
C128 O121 1.287 . S
C128 O122 1.255 . S
O129 Fe111 2.002 . S
O129 C125 1.295 . S
O130 Fe113 1.997 . S
O130 C125 1.235 . S
C131 O114 1.295 . S
C131 O115 1.235 . S
Fe132 O134 1.918 . S
Fe132 O137 1.997 . S
Fe132 O138 2.002 . S
Fe132 O143 1.976 . S
Fe132 O146 1.996 . S
Fe133 O134 1.918 . S
Fe133 O141 1.997 . S
Fe133 O144 1.996 . S
Fe133 O148 1.976 . S
Fe133 O151 2.002 . S
O134 Fe132 1.918 . S
O134 Fe133 1.918 . S
O134 Fe135 1.918 . S
Fe135 O134 1.918 . S
Fe135 O136 2.002 . S
Fe135 O145 1.976 . S
Fe135 O149 1.996 . S
Fe135 O152 1.997 . S
O136 Fe135 2.002 . S
O136 C153 1.295 . S
O137 Fe132 1.997 . S
O137 C153 1.235 . S
O138 Fe132 2.002 . S
O138 C139 1.295 . S
C139 O138 1.295 . S
C139 O141 1.235 . S
C140 O145 1.287 . S
C140 O146 1.255 . S
O141 Fe133 1.997 . S
O141 C139 1.235 . S
C142 O148 1.287 . S
C142 O149 1.255 . S
O143 Fe132 1.976 . S
O143 C150 1.287 . S
O144 Fe133 1.996 . S
O144 C150 1.255 . S
O145 Fe135 1.976 . S
O145 C140 1.287 . S
O146 Fe132 1.996 . S
O146 C140 1.255 . S
C147 O151 1.295 . S
C147 O152 1.235 . S
O148 Fe133 1.976 . S
O148 C142 1.287 . S
O149 Fe135 1.996 . S
O149 C142 1.255 . S
C150 O143 1.287 . S
C150 O144 1.255 . S
O151 Fe133 2.002 . S
O151 C147 1.295 . S
O152 Fe135 1.997 . S
O152 C147 1.235 . S
C153 O136 1.295 . S
C153 O137 1.235 . S
Fe154 O156 1.918 . S
Fe154 O159 1.997 . S
Fe154 O160 2.002 . S
Fe154 O165 1.976 . S
Fe154 O168 1.996 . S
Fe155 O156 1.918 . S
Fe155 O163 1.997 . S
Fe155 O166 1.996 . S
Fe155 O170 1.976 . S
Fe155 O173 2.002 . S
O156 Fe154 1.918 . S
O156 Fe155 1.918 . S
O156 Fe157 1.918 . S
Fe157 O156 1.918 . S
Fe157 O158 2.002 . S
Fe157 O167 1.976 . S
Fe157 O171 1.996 . S
Fe157 O174 1.997 . S
O158 Fe157 2.002 . S
O158 C175 1.295 . S
O159 Fe154 1.997 . S
O159 C175 1.235 . S
O160 Fe154 2.002 . S
O160 C161 1.295 . S
C161 O160 1.295 . S
C161 O163 1.235 . S
C162 O167 1.287 . S
C162 O168 1.255 . S
O163 Fe155 1.997 . S
O163 C161 1.235 . S
C164 O170 1.287 . S
C164 O171 1.255 . S
O165 Fe154 1.976 . S
O165 C172 1.287 . S
O166 Fe155 1.996 . S
O166 C172 1.255 . S
O167 Fe157 1.976 . S
O167 C162 1.287 . S
O168 Fe154 1.996 . S
O168 C162 1.255 . S
C169 O173 1.295 . S
C169 O174 1.235 . S
O170 Fe155 1.976 . S
O170 C164 1.287 . S
O171 Fe157 1.996 . S
O171 C164 1.255 . S
C172 O165 1.287 . S
C172 O166 1.255 . S
O173 Fe155 2.002 . S
O173 C169 1.295 . S
O174 Fe157 1.997 . S
O174 C169 1.235 . S
C175 O158 1.295 . S
C175 O159 1.235 . S
Fe176 O178 1.918 . S
Fe176 O181 1.997 . S
Fe176 O182 2.002 . S
Fe176 O187 1.976 . S
Fe176 O190 1.996 . S
Fe177 O178 1.918 . S
Fe177 O185 1.997 . S
Fe177 O188 1.996 . S
Fe177 O192 1.976 . S
Fe177 O195 2.002 . S
O178 Fe176 1.918 . S
O178 Fe177 1.918 . S
O178 Fe179 1.918 . S
Fe179 O178 1.918 . S
Fe179 O180 2.002 . S
Fe179 O189 1.976 . S
Fe179 O193 1.996 . S
Fe179 O196 1.997 . S
O180 Fe179 2.002 . S
O180 C197 1.295 . S
O181 Fe176 1.997 . S
O181 C197 1.235 . S
O182 Fe176 2.002 . S
O182 C183 1.295 . S
C183 O182 1.295 . S
C183 O185 1.235 . S
C184 O189 1.287 . S
C184 O190 1.255 . S
O185 Fe177 1.997 . S
O185 C183 1.235 . S
C186 O192 1.287 . S
C186 O193 1.255 . S
O187 Fe176 1.976 . S
O187 C194 1.287 . S
O188 Fe177 1.996 . S
O188 C194 1.255 . S
O189 Fe179 1.976 . S
O189 C184 1.287 . S
O190 Fe176 1.996 . S
O190 C184 1.255 . S
C191 O195 1.295 . S
C191 O196 1.235 . S
O192 Fe177 1.976 . S
O192 C186 1.287 . S
O193 Fe179 1.996 . S
O193 C186 1.255 . S
C194 O187 1.287 . S
C194 O188 1.255 . S
O195 Fe177 2.002 . S
O195 C191 1.295 . S
O196 Fe179 1.997 . S
O196 C191 1.235 . S
C197 O180 1.295 . S
C197 O181 1.235 . S
Fe198 O200 1.918 . S
Fe198 O203 1.997 . S
Fe198 O204 2.002 . S
Fe198 O209 1.976 . S
Fe198 O212 1.996 . S
Fe199 O200 1.918 . S
Fe199 O207 1.997 . S
Fe199 O210 1.996 . S
Fe199 O214 1.976 . S
Fe199 O217 2.002 . S
O200 Fe198 1.918 . S
O200 Fe199 1.918 . S
O200 Fe201 1.918 . S
Fe201 O200 1.918 . S
Fe201 O202 2.002 . S
Fe201 O211 1.976 . S
Fe201 O215 1.996 . S
Fe201 O218 1.997 . S
O202 Fe201 2.002 . S
O202 C219 1.295 . S
O203 Fe198 1.997 . S
O203 C219 1.235 . S
O204 Fe198 2.002 . S
O204 C205 1.295 . S
C205 O204 1.295 . S
C205 O207 1.235 . S
C206 O211 1.287 . S
C206 O212 1.255 . S
O207 Fe199 1.997 . S
O207 C205 1.235 . S
C208 O214 1.287 . S
C208 O215 1.255 . S
O209 Fe198 1.976 . S
O209 C216 1.287 . S
O210 Fe199 1.996 . S
O210 C216 1.255 . S
O211 Fe201 1.976 . S
O211 C206 1.287 . S
O212 Fe198 1.996 . S
O212 C206 1.255 . S
C213 O217 1.295 . S
C213 O218 1.235 . S
O214 Fe199 1.976 . S
O214 C208 1.287 . S
O215 Fe201 1.996 . S
O215 C208 1.255 . S
C216 O209 1.287 . S
C216 O210 1.255 . S
O217 Fe199 2.002 . S
O217 C213 1.295 . S
O218 Fe201 1.997 . S
O218 C213 1.235 . S
C219 O202 1.295 . S
C219 O203 1.235 . S
Fe220 O222 1.918 . S
Fe220 O225 1.997 . S
Fe220 O226 2.002 . S
Fe220 O231 1.976 . S
Fe220 O234 1.996 . S
Fe221 O222 1.918 . S
Fe221 O229 1.997 . S
Fe221 O232 1.996 . S
Fe221 O236 1.976 . S
Fe221 O239 2.002 . S
O222 Fe220 1.918 . S
O222 Fe221 1.918 . S
O222 Fe223 1.918 . S
Fe223 O222 1.918 . S
Fe223 O224 2.002 . S
Fe223 O233 1.976 . S
Fe223 O237 1.996 . S
Fe223 O240 1.997 . S
O224 Fe223 2.002 . S
O224 C241 1.295 . S
O225 Fe220 1.997 . S
O225 C241 1.235 . S
O226 Fe220 2.002 . S
O226 C227 1.295 . S
C227 O226 1.295 . S
C227 O229 1.235 . S
C228 O233 1.287 . S
C228 O234 1.255 . S
O229 Fe221 1.997 . S
O229 C227 1.235 . S
C230 O236 1.287 . S
C230 O237 1.255 . S
O231 Fe220 1.976 . S
O231 C238 1.287 . S
O232 Fe221 1.996 . S
O232 C238 1.255 . S
O233 Fe223 1.976 . S
O233 C228 1.287 . S
O234 Fe220 1.996 . S
O234 C228 1.255 . S
C235 O239 1.295 . S
C235 O240 1.235 . S
O236 Fe221 1.976 . S
O236 C230 1.287 . S
O237 Fe223 1.996 . S
O237 C230 1.255 . S
C238 O231 1.287 . S
C238 O232 1.255 . S
O239 Fe221 2.002 . S
O239 C235 1.295 . S
O240 Fe223 1.997 . S
O240 C235 1.235 . S
C241 O224 1.295 . S
C241 O225 1.235 . S
Fe242 O244 1.918 . S
Fe242 O247 1.997 . S
Fe242 O248 2.002 . S
Fe242 O253 1.976 . S
Fe242 O256 1.996 . S
Fe243 O244 1.918 . S
Fe243 O251 1.997 . S
Fe243 O254 1.996 . S
Fe243 O258 1.976 . S
Fe243 O261 2.002 . S
O244 Fe242 1.918 . S
O244 Fe243 1.918 . S
O244 Fe245 1.918 . S
Fe245 O244 1.918 . S
Fe245 O246 2.002 . S
Fe245 O255 1.976 . S
Fe245 O259 1.996 . S
Fe245 O262 1.997 . S
O246 Fe245 2.002 . S
O246 C263 1.295 . S
O247 Fe242 1.997 . S
O247 C263 1.235 . S
O248 Fe242 2.002 . S
O248 C249 1.295 . S
C249 O248 1.295 . S
C249 O251 1.235 . S
C250 O255 1.287 . S
C250 O256 1.255 . S
O251 Fe243 1.997 . S
O251 C249 1.235 . S
C252 O258 1.287 . S
C252 O259 1.255 . S
O253 Fe242 1.976 . S
O253 C260 1.287 . S
O254 Fe243 1.996 . S
O254 C260 1.255 . S
O255 Fe245 1.976 . S
O255 C250 1.287 . S
O256 Fe242 1.996 . S
O256 C250 1.255 . S
C257 O261 1.295 . S
C257 O262 1.235 . S
O258 Fe243 1.976 . S
O258 C252 1.287 . S
O259 Fe245 1.996 . S
O259 C252 1.255 . S
C260 O253 1.287 . S
C260 O254 1.255 . S
O261 Fe243 2.002 . S
O261 C257 1.295 . S
O262 Fe245 1.997 . S
O262 C257 1.235 . S
C263 O246 1.295 . S
C263 O247 1.235 . S
Fe264 O266 1.918 . S
Fe264 O269 1.997 . S
Fe264 O270 2.002 . S
Fe264 O275 1.976 . S
Fe264 O278 1.996 . S
Fe265 O266 1.918 . S
Fe265 O273 1.997 . S
Fe265 O276 1.996 . S
Fe265 O280 1.976 . S
Fe265 O283 2.002 . S
O266 Fe264 1.918 . S
O266 Fe265 1.918 . S
O266 Fe267 1.918 . S
Fe267 O266 1.918 . S
Fe267 O268 2.002 . S
Fe267 O277 1.976 . S
Fe267 O281 1.996 . S
Fe267 O284 1.997 . S
O268 Fe267 2.002 . S
O268 C285 1.295 . S
O269 Fe264 1.997 . S
O269 C285 1.235 . S
O270 Fe264 2.002 . S
O270 C271 1.295 . S
C271 O270 1.295 . S
C271 O273 1.235 . S
C272 O277 1.287 . S
C272 O278 1.255 . S
O273 Fe265 1.997 . S
O273 C271 1.235 . S
C274 O280 1.287 . S
C274 O281 1.255 . S
O275 Fe264 1.976 . S
O275 C282 1.287 . S
O276 Fe265 1.996 . S
O276 C282 1.255 . S
O277 Fe267 1.976 . S
O277 C272 1.287 . S
O278 Fe264 1.996 . S
O278 C272 1.255 . S
C279 O283 1.295 . S
C279 O284 1.235 . S
O280 Fe265 1.976 . S
O280 C274 1.287 . S
O281 Fe267 1.996 . S
O281 C274 1.255 . S
C282 O275 1.287 . S
C282 O276 1.255 . S
O283 Fe265 2.002 . S
O283 C279 1.295 . S
O284 Fe267 1.997 . S
O284 C279 1.235 . S
C285 O268 1.295 . S
C285 O269 1.235 . S
Fe286 O288 1.918 . S
Fe286 O291 1.997 . S
Fe286 O292 2.002 . S
Fe286 O297 1.976 . S
Fe286 O300 1.996 . S
Fe287 O288 1.918 . S
Fe287 O295 1.997 . S
Fe287 O298 1.996 . S
Fe287 O302 1.976 . S
Fe287 O305 2.002 . S
O288 Fe286 1.918 . S
O288 Fe287 1.918 . S
O288 Fe289 1.918 . S
Fe289 O288 1.918 . S
Fe289 O290 2.002 . S
Fe289 O299 1.976 . S
Fe289 O303 1.996 . S
Fe289 O306 1.997 . S
O290 Fe289 2.002 . S
O290 C307 1.295 . S
O291 Fe286 1.997 . S
O291 C307 1.235 . S
O292 Fe286 2.002 . S
O292 C293 1.295 . S
C293 O292 1.295 . S
C293 O295 1.235 . S
C294 O299 1.287 . S
C294 O300 1.255 . S
O295 Fe287 1.997 . S
O295 C293 1.235 . S
C296 O302 1.287 . S
C296 O303 1.255 . S
O297 Fe286 1.976 . S
O297 C304 1.287 . S
O298 Fe287 1.996 . S
O298 C304 1.255 . S
O299 Fe289 1.976 . S
O299 C294 1.287 . S
O300 Fe286 1.996 . S
O300 C294 1.255 . S
C301 O305 1.295 . S
C301 O306 1.235 . S
O302 Fe287 1.976 . S
O302 C296 1.287 . S
O303 Fe289 1.996 . S
O303 C296 1.255 . S
C304 O297 1.287 . S
C304 O298 1.255 . S
O305 Fe287 2.002 . S
O305 C301 1.295 . S
O306 Fe289 1.997 . S
O306 C301 1.235 . S
C307 O290 1.295 . S
C307 O291 1.235 . S
Fe308 O310 1.918 . S
Fe308 O313 1.997 . S
Fe308 O314 2.002 . S
Fe308 O319 1.976 . S
Fe308 O322 1.996 . S
Fe309 O310 1.918 . S
Fe309 O317 1.997 . S
Fe309 O320 1.996 . S
Fe309 O324 1.976 . S
Fe309 O327 2.002 . S
O310 Fe308 1.918 . S
O310 Fe309 1.918 . S
O310 Fe311 1.918 . S
Fe311 O310 1.918 . S
Fe311 O312 2.002 . S
Fe311 O321 1.976 . S
Fe311 O325 1.996 . S
Fe311 O328 1.997 . S
O312 Fe311 2.002 . S
O312 C329 1.295 . S
O313 Fe308 1.997 . S
O313 C329 1.235 . S
O314 Fe308 2.002 . S
O314 C315 1.295 . S
C315 O314 1.295 . S
C315 O317 1.235 . S
C316 O321 1.287 . S
C316 O322 1.255 . S
O317 Fe309 1.997 . S
O317 C315 1.235 . S
C318 O324 1.287 . S
C318 O325 1.255 . S
O319 Fe308 1.976 . S
O319 C326 1.287 . S
O320 Fe309 1.996 . S
O320 C326 1.255 . S
O321 Fe311 1.976 . S
O321 C316 1.287 . S
O322 Fe308 1.996 . S
O322 C316 1.255 . S
C323 O327 1.295 . S
C323 O328 1.235 . S
O324 Fe309 1.976 . S
O324 C318 1.287 . S
O325 Fe311 1.996 . S
O325 C318 1.255 . S
C326 O319 1.287 . S
C326 O320 1.255 . S
O327 Fe309 2.002 . S
O327 C323 1.295 . S
O328 Fe311 1.997 . S
O328 C323 1.235 . S
C329 O312 1.295 . S
C329 O313 1.235 . S
Fe330 O332 1.918 . S
Fe330 O335 1.997 . S
Fe330 O336 2.002 . S
Fe330 O341 1.976 . S
Fe330 O344 1.996 . S
Fe331 O332 1.918 . S
Fe331 O339 1.997 . S
Fe331 O342 1.996 . S
Fe331 O346 1.976 . S
Fe331 O349 2.002 . S
O332 Fe330 1.918 . S
O332 Fe331 1.918 . S
O332 Fe333 1.918 . S
Fe333 O332 1.918 . S
Fe333 O334 2.002 . S
Fe333 O343 1.976 . S
Fe333 O347 1.996 . S
Fe333 O350 1.997 . S
O334 Fe333 2.002 . S
O334 C351 1.295 . S
O335 Fe330 1.997 . S
O335 C351 1.235 . S
O336 Fe330 2.002 . S
O336 C337 1.295 . S
C337 O336 1.295 . S
C337 O339 1.235 . S
C338 O343 1.287 . S
C338 O344 1.255 . S
O339 Fe331 1.997 . S
O339 C337 1.235 . S
C340 O346 1.287 . S
C340 O347 1.255 . S
O341 Fe330 1.976 . S
O341 C348 1.287 . S
O342 Fe331 1.996 . S
O342 C348 1.255 . S
O343 Fe333 1.976 . S
O343 C338 1.287 . S
O344 Fe330 1.996 . S
O344 C338 1.255 . S
C345 O349 1.295 . S
C345 O350 1.235 . S
O346 Fe331 1.976 . S
O346 C340 1.287 . S
O347 Fe333 1.996 . S
O347 C340 1.255 . S
C348 O341 1.287 . S
C348 O342 1.255 . S
O349 Fe331 2.002 . S
O349 C345 1.295 . S
O350 Fe333 1.997 . S
O350 C345 1.235 . S
C351 O334 1.295 . S
C351 O335 1.235 . S
Fe352 O354 1.918 . S
Fe352 O357 1.997 . S
Fe352 O358 2.002 . S
Fe352 O363 1.976 . S
Fe352 O366 1.996 . S
Fe353 O354 1.918 . S
Fe353 O361 1.997 . S
Fe353 O364 1.996 . S
Fe353 O368 1.976 . S
Fe353 O371 2.002 . S
O354 Fe352 1.918 . S
O354 Fe353 1.918 . S
O354 Fe355 1.918 . S
Fe355 O354 1.918 . S
Fe355 O356 2.002 . S
Fe355 O365 1.976 . S
Fe355 O369 1.996 . S
Fe355 O372 1.997 . S
O356 Fe355 2.002 . S
O356 C373 1.295 . S
O357 Fe352 1.997 . S
O357 C373 1.235 . S
O358 Fe352 2.002 . S
O358 C359 1.295 . S
C359 O358 1.295 . S
C359 O361 1.235 . S
C360 O365 1.287 . S
C360 O366 1.255 . S
O361 Fe353 1.997 . S
O361 C359 1.235 . S
C362 O368 1.287 . S
C362 O369 1.255 . S
O363 Fe352 1.976 . S
O363 C370 1.287 . S
O364 Fe353 1.996 . S
O364 C370 1.255 . S
O365 Fe355 1.976 . S
O365 C360 1.287 . S
O366 Fe352 1.996 . S
O366 C360 1.255 . S
C367 O371 1.295 . S
C367 O372 1.235 . S
O368 Fe353 1.976 . S
O368 C362 1.287 . S
O369 Fe355 1.996 . S
O369 C362 1.255 . S
C370 O363 1.287 . S
C370 O364 1.255 . S
O371 Fe353 2.002 . S
O371 C367 1.295 . S
O372 Fe355 1.997 . S
O372 C367 1.235 . S
C373 O356 1.295 . S
C373 O357 1.235 . S
Fe374 O376 1.918 . S
Fe374 O379 1.997 . S
Fe374 O380 2.002 . S
Fe374 O385 1.976 . S
Fe374 O388 1.996 . S
Fe375 O376 1.918 . S
Fe375 O383 1.997 . S
Fe375 O386 1.996 . S
Fe375 O390 1.976 . S
Fe375 O393 2.002 . S
O376 Fe374 1.918 . S
O376 Fe375 1.918 . S
O376 Fe377 1.918 . S
Fe377 O376 1.918 . S
Fe377 O378 2.002 . S
Fe377 O387 1.976 . S
Fe377 O391 1.996 . S
Fe377 O394 1.997 . S
O378 Fe377 2.002 . S
O378 C395 1.295 . S
O379 Fe374 1.997 . S
O379 C395 1.235 . S
O380 Fe374 2.002 . S
O380 C381 1.295 . S
C381 O380 1.295 . S
C381 O383 1.235 . S
C382 O387 1.287 . S
C382 O388 1.255 . S
O383 Fe375 1.997 . S
O383 C381 1.235 . S
C384 O390 1.287 . S
C384 O391 1.255 . S
O385 Fe374 1.976 . S
O385 C392 1.287 . S
O386 Fe375 1.996 . S
O386 C392 1.255 . S
O387 Fe377 1.976 . S
O387 C382 1.287 . S
O388 Fe374 1.996 . S
O388 C382 1.255 . S
C389 O393 1.295 . S
C389 O394 1.235 . S
O390 Fe375 1.976 . S
O390 C384 1.287 . S
O391 Fe377 1.996 . S
O391 C384 1.255 . S
C392 O385 1.287 . S
C392 O386 1.255 . S
O393 Fe375 2.002 . S
O393 C389 1.295 . S
O394 Fe377 1.997 . S
O394 C389 1.235 . S
C395 O378 1.295 . S
C395 O379 1.235 . S
Fe396 O398 1.918 . S
Fe396 O401 1.997 . S
Fe396 O402 2.002 . S
Fe396 O407 1.976 . S
Fe396 O410 1.996 . S
Fe397 O398 1.918 . S
Fe397 O405 1.997 . S
Fe397 O408 1.996 . S
Fe397 O412 1.976 . S
Fe397 O415 2.002 . S
O398 Fe396 1.918 . S
O398 Fe397 1.918 . S
O398 Fe399 1.918 . S
Fe399 O398 1.918 . S
Fe399 O400 2.002 . S
Fe399 O409 1.976 . S
Fe399 O413 1.996 . S
Fe399 O416 1.997 . S
O400 Fe399 2.002 . S
O400 C417 1.295 . S
O401 Fe396 1.997 . S
O401 C417 1.235 . S
O402 Fe396 2.002 . S
O402 C403 1.295 . S
C403 O402 1.295 . S
C403 O405 1.235 . S
C404 O409 1.287 . S
C404 O410 1.255 . S
O405 Fe397 1.997 . S
O405 C403 1.235 . S
C406 O412 1.287 . S
C406 O413 1.255 . S
O407 Fe396 1.976 . S
O407 C414 1.287 . S
O408 Fe397 1.996 . S
O408 C414 1.255 . S
O409 Fe399 1.976 . S
O409 C404 1.287 . S
O410 Fe396 1.996 . S
O410 C404 1.255 . S
C411 O415 1.295 . S
C411 O416 1.235 . S
O412 Fe397 1.976 . S
O412 C406 1.287 . S
O413 Fe399 1.996 . S
O413 C406 1.255 . S
C414 O407 1.287 . S
C414 O408 1.255 . S
O415 Fe397 2.002 . S
O415 C411 1.295 . S
O416 Fe399 1.997 . S
O416 C411 1.235 . S
C417 O400 1.295 . S
C417 O401 1.235 . S
Fe418 O420 1.918 . S
Fe418 O423 1.997 . S
Fe418 O424 2.002 . S
Fe418 O429 1.976 . S
Fe418 O432 1.996 . S
Fe419 O420 1.918 . S
Fe419 O427 1.997 . S
Fe419 O430 1.996 . S
Fe419 O434 1.976 . S
Fe419 O437 2.002 . S
O420 Fe418 1.918 . S
O420 Fe419 1.918 . S
O420 Fe421 1.918 . S
Fe421 O420 1.918 . S
Fe421 O422 2.002 . S
Fe421 O431 1.976 . S
Fe421 O435 1.996 . S
Fe421 O438 1.997 . S
O422 Fe421 2.002 . S
O422 C439 1.295 . S
O423 Fe418 1.997 . S
O423 C439 1.235 . S
O424 Fe418 2.002 . S
O424 C425 1.295 . S
C425 O424 1.295 . S
C425 O427 1.235 . S
C426 O431 1.287 . S
C426 O432 1.255 . S
O427 Fe419 1.997 . S
O427 C425 1.235 . S
C428 O434 1.287 . S
C428 O435 1.255 . S
O429 Fe418 1.976 . S
O429 C436 1.287 . S
O430 Fe419 1.996 . S
O430 C436 1.255 . S
O431 Fe421 1.976 . S
O431 C426 1.287 . S
O432 Fe418 1.996 . S
O432 C426 1.255 . S
C433 O437 1.295 . S
C433 O438 1.235 . S
O434 Fe419 1.976 . S
O434 C428 1.287 . S
O435 Fe421 1.996 . S
O435 C428 1.255 . S
C436 O429 1.287 . S
C436 O430 1.255 . S
O437 Fe419 2.002 . S
O437 C433 1.295 . S
O438 Fe421 1.997 . S
O438 C433 1.235 . S
C439 O422 1.295 . S
C439 O423 1.235 . S
Fe440 O442 1.918 . S
Fe440 O445 1.997 . S
Fe440 O446 2.002 . S
Fe440 O451 1.976 . S
Fe440 O454 1.996 . S
Fe441 O442 1.918 . S
Fe441 O449 1.997 . S
Fe441 O452 1.996 . S
Fe441 O456 1.976 . S
Fe441 O459 2.002 . S
O442 Fe440 1.918 . S
O442 Fe441 1.918 . S
O442 Fe443 1.918 . S
Fe443 O442 1.918 . S
Fe443 O444 2.002 . S
Fe443 O453 1.976 . S
Fe443 O457 1.996 . S
Fe443 O460 1.997 . S
O444 Fe443 2.002 . S
O444 C461 1.295 . S
O445 Fe440 1.997 . S
O445 C461 1.235 . S
O446 Fe440 2.002 . S
O446 C447 1.295 . S
C447 O446 1.295 . S
C447 O449 1.235 . S
C448 O453 1.287 . S
C448 O454 1.255 . S
O449 Fe441 1.997 . S
O449 C447 1.235 . S
C450 O456 1.287 . S
C450 O457 1.255 . S
O451 Fe440 1.976 . S
O451 C458 1.287 . S
O452 Fe441 1.996 . S
O452 C458 1.255 . S
O453 Fe443 1.976 . S
O453 C448 1.287 . S
O454 Fe440 1.996 . S
O454 C448 1.255 . S
C455 O459 1.295 . S
C455 O460 1.235 . S
O456 Fe441 1.976 . S
O456 C450 1.287 . S
O457 Fe443 1.996 . S
O457 C450 1.255 . S
C458 O451 1.287 . S
C458 O452 1.255 . S
O459 Fe441 2.002 . S
O459 C455 1.295 . S
O460 Fe443 1.997 . S
O460 C455 1.235 . S
C461 O444 1.295 . S
C461 O445 1.235 . S
Fe462 O464 1.918 . S
Fe462 O467 1.997 . S
Fe462 O468 2.002 . S
Fe462 O473 1.976 . S
Fe462 O476 1.996 . S
Fe463 O464 1.918 . S
Fe463 O471 1.997 . S
Fe463 O474 1.996 . S
Fe463 O478 1.976 . S
Fe463 O481 2.002 . S
O464 Fe462 1.918 . S
O464 Fe463 1.918 . S
O464 Fe465 1.918 . S
Fe465 O464 1.918 . S
Fe465 O466 2.002 . S
Fe465 O475 1.976 . S
Fe465 O479 1.996 . S
Fe465 O482 1.997 . S
O466 Fe465 2.002 . S
O466 C483 1.295 . S
O467 Fe462 1.997 . S
O467 C483 1.235 . S
O468 Fe462 2.002 . S
O468 C469 1.295 . S
C469 O468 1.295 . S
C469 O471 1.235 . S
C470 O475 1.287 . S
C470 O476 1.255 . S
O471 Fe463 1.997 . S
O471 C469 1.235 . S
C472 O478 1.287 . S
C472 O479 1.255 . S
O473 Fe462 1.976 . S
O473 C480 1.287 . S
O474 Fe463 1.996 . S
O474 C480 1.255 . S
O475 Fe465 1.976 . S
O475 C470 1.287 . S
O476 Fe462 1.996 . S
O476 C470 1.255 . S
C477 O481 1.295 . S
C477 O482 1.235 . S
O478 Fe463 1.976 . S
O478 C472 1.287 . S
O479 Fe465 1.996 . S
O479 C472 1.255 . S
C480 O473 1.287 . S
C480 O474 1.255 . S
O481 Fe463 2.002 . S
O481 C477 1.295 . S
O482 Fe465 1.997 . S
O482 C477 1.235 . S
C483 O466 1.295 . S
C483 O467 1.235 . S
Fe484 O486 1.918 . S
Fe484 O489 1.997 . S
Fe484 O490 2.002 . S
Fe484 O495 1.976 . S
Fe484 O498 1.996 . S
Fe485 O486 1.918 . S
Fe485 O493 1.997 . S
Fe485 O496 1.996 . S
Fe485 O500 1.976 . S
Fe485 O503 2.002 . S
O486 Fe484 1.918 . S
O486 Fe485 1.918 . S
O486 Fe487 1.918 . S
Fe487 O486 1.918 . S
Fe487 O488 2.002 . S
Fe487 O497 1.976 . S
Fe487 O501 1.996 . S
Fe487 O504 1.997 . S
O488 Fe487 2.002 . S
O488 C505 1.295 . S
O489 Fe484 1.997 . S
O489 C505 1.235 . S
O490 Fe484 2.002 . S
O490 C491 1.295 . S
C491 O490 1.295 . S
C491 O493 1.235 . S
C492 O497 1.287 . S
C492 O498 1.255 . S
O493 Fe485 1.997 . S
O493 C491 1.235 . S
C494 O500 1.287 . S
C494 O501 1.255 . S
O495 Fe484 1.976 . S
O495 C502 1.287 . S
O496 Fe485 1.996 . S
O496 C502 1.255 . S
O497 Fe487 1.976 . S
O497 C492 1.287 . S
O498 Fe484 1.996 . S
O498 C492 1.255 . S
C499 O503 1.295 . S
C499 O504 1.235 . S
O500 Fe485 1.976 . S
O500 C494 1.287 . S
O501 Fe487 1.996 . S
O501 C494 1.255 . S
C502 O495 1.287 . S
C502 O496 1.255 . S
O503 Fe485 2.002 . S
O503 C499 1.295 . S
O504 Fe487 1.997 . S
O504 C499 1.235 . S
C505 O488 1.295 . S
C505 O489 1.235 . S
Fe506 O508 1.918 . S
Fe506 O511 1.997 . S
Fe506 O512 2.002 . S
Fe506 O517 1.976 . S
Fe506 O520 1.996 . S
Fe507 O508 1.918 . S
Fe507 O515 1.997 . S
Fe507 O518 1.996 . S
Fe507 O522 1.976 . S
Fe507 O525 2.002 . S
O508 Fe506 1.918 . S
O508 Fe507 1.918 . S
O508 Fe509 1.918 . S
Fe509 O508 1.918 . S
Fe509 O510 2.002 . S
Fe509 O519 1.976 . S
Fe509 O523 1.996 . S
Fe509 O526 1.997 . S
O510 Fe509 2.002 . S
O510 C527 1.295 . S
O511 Fe506 1.997 . S
O511 C527 1.235 . S
O512 Fe506 2.002 . S
O512 C513 1.295 . S
C513 O512 1.295 . S
C513 O515 1.235 . S
C514 O519 1.287 . S
C514 O520 1.255 . S
O515 Fe507 1.997 . S
O515 C513 1.235 . S
C516 O522 1.287 . S
C516 O523 1.255 . S
O517 Fe506 1.976 . S
O517 C524 1.287 . S
O518 Fe507 1.996 . S
O518 C524 1.255 . S
O519 Fe509 1.976 . S
O519 C514 1.287 . S
O520 Fe506 1.996 . S
O520 C514 1.255 . S
C521 O525 1.295 . S
C521 O526 1.235 . S
O522 Fe507 1.976 . S
O522 C516 1.287 . S
O523 Fe509 1.996 . S
O523 C516 1.255 . S
C524 O517 1.287 . S
C524 O518 1.255 . S
O525 Fe507 2.002 . S
O525 C521 1.295 . S
O526 Fe509 1.997 . S
O526 C521 1.235 . S
C527 O510 1.295 . S
C527 O511 1.235 . S
Fe528 O530 1.918 . S
Fe528 O533 1.997 . S
Fe528 O534 2.002 . S
Fe528 O539 1.976 . S
Fe528 O542 1.996 . S
Fe529 O530 1.918 . S
Fe529 O537 1.997 . S
Fe529 O540 1.996 . S
Fe529 O544 1.976 . S
Fe529 O547 2.002 . S
O530 Fe528 1.918 . S
O530 Fe529 1.918 . S
O530 Fe531 1.918 . S
Fe531 O530 1.918 . S
Fe531 O532 2.002 . S
Fe531 O541 1.976 . S
Fe531 O545 1.996 . S
Fe531 O548 1.997 . S
O532 Fe531 2.002 . S
O532 C549 1.295 . S
O533 Fe528 1.997 . S
O533 C549 1.235 . S
O534 Fe528 2.002 . S
O534 C535 1.295 . S
C535 O534 1.295 . S
C535 O537 1.235 . S
C536 O541 1.287 . S
C536 O542 1.255 . S
O537 Fe529 1.997 . S
O537 C535 1.235 . S
C538 O544 1.287 . S
C538 O545 1.255 . S
O539 Fe528 1.976 . S
O539 C546 1.287 . S
O540 Fe529 1.996 . S
O540 C546 1.255 . S
O541 Fe531 1.976 . S
O541 C536 1.287 . S
O542 Fe528 1.996 . S
O542 C536 1.255 . S
C543 O547 1.295 . S
C543 O548 1.235 . S
O544 Fe529 1.976 . S
O544 C538 1.287 . S
O545 Fe531 1.996 . S
O545 C538 1.255 . S
C546 O539 1.287 . S
C546 O540 1.255 . S
O547 Fe529 2.002 . S
O547 C543 1.295 . S
O548 Fe531 1.997 . S
O548 C543 1.235 . S
C549 O532 1.295 . S
C549 O533 1.235 . S
Fe550 O552 1.918 . S
Fe550 O555 1.997 . S
Fe550 O556 2.002 . S
Fe550 O561 1.976 . S
Fe550 O564 1.996 . S
Fe551 O552 1.918 . S
Fe551 O559 1.997 . S
Fe551 O562 1.996 . S
Fe551 O566 1.976 . S
Fe551 O569 2.002 . S
O552 Fe550 1.918 . S
O552 Fe551 1.918 . S
O552 Fe553 1.918 . S
Fe553 O552 1.918 . S
Fe553 O554 2.002 . S
Fe553 O563 1.976 . S
Fe553 O567 1.996 . S
Fe553 O570 1.997 . S
O554 Fe553 2.002 . S
O554 C571 1.295 . S
O555 Fe550 1.997 . S
O555 C571 1.235 . S
O556 Fe550 2.002 . S
O556 C557 1.295 . S
C557 O556 1.295 . S
C557 O559 1.235 . S
C558 O563 1.287 . S
C558 O564 1.255 . S
O559 Fe551 1.997 . S
O559 C557 1.235 . S
C560 O566 1.287 . S
C560 O567 1.255 . S
O561 Fe550 1.976 . S
O561 C568 1.287 . S
O562 Fe551 1.996 . S
O562 C568 1.255 . S
O563 Fe553 1.976 . S
O563 C558 1.287 . S
O564 Fe550 1.996 . S
O564 C558 1.255 . S
C565 O569 1.295 . S
C565 O570 1.235 . S
O566 Fe551 1.976 . S
O566 C560 1.287 . S
O567 Fe553 1.996 . S
O567 C560 1.255 . S
C568 O561 1.287 . S
C568 O562 1.255 . S
O569 Fe551 2.002 . S
O569 C565 1.295 . S
O570 Fe553 1.997 . S
O570 C565 1.235 . S
C571 O554 1.295 . S
C571 O555 1.235 . S
Fe572 O574 1.918 . S
Fe572 O577 1.997 . S
Fe572 O578 2.002 . S
Fe572 O583 1.976 . S
Fe572 O586 1.996 . S
Fe573 O574 1.918 . S
Fe573 O581 1.997 . S
Fe573 O584 1.996 . S
Fe573 O588 1.976 . S
Fe573 O591 2.002 . S
O574 Fe572 1.918 . S
O574 Fe573 1.918 . S
O574 Fe575 1.918 . S
Fe575 O574 1.918 . S
Fe575 O576 2.002 . S
Fe575 O585 1.976 . S
Fe575 O589 1.996 . S
Fe575 O592 1.997 . S
O576 Fe575 2.002 . S
O576 C593 1.295 . S
O577 Fe572 1.997 . S
O577 C593 1.235 . S
O578 Fe572 2.002 . S
O578 C579 1.295 . S
C579 O578 1.295 . S
C579 O581 1.235 . S
C580 O585 1.287 . S
C580 O586 1.255 . S
O581 Fe573 1.997 . S
O581 C579 1.235 . S
C582 O588 1.287 . S
C582 O589 1.255 . S
O583 Fe572 1.976 . S
O583 C590 1.287 . S
O584 Fe573 1.996 . S
O584 C590 1.255 . S
O585 Fe575 1.976 . S
O585 C580 1.287 . S
O586 Fe572 1.996 . S
O586 C580 1.255 . S
C587 O591 1.295 . S
C587 O592 1.235 . S
O588 Fe573 1.976 . S
O588 C582 1.287 . S
O589 Fe575 1.996 . S
O589 C582 1.255 . S
C590 O583 1.287 . S
C590 O584 1.255 . S
O591 Fe573 2.002 . S
O591 C587 1.295 . S
O592 Fe575 1.997 . S
O592 C587 1.235 . S
C593 O576 1.295 . S
C593 O577 1.235 . S
Fe594 O596 1.918 . S
Fe594 O599 1.997 . S
Fe594 O600 2.002 . S
Fe594 O605 1.976 . S
Fe594 O608 1.996 . S
Fe595 O596 1.918 . S
Fe595 O603 1.997 . S
Fe595 O606 1.996 . S
Fe595 O610 1.976 . S
Fe595 O613 2.002 . S
O596 Fe594 1.918 . S
O596 Fe595 1.918 . S
O596 Fe597 1.918 . S
Fe597 O596 1.918 . S
Fe597 O598 2.002 . S
Fe597 O607 1.976 . S
Fe597 O611 1.996 . S
Fe597 O614 1.997 . S
O598 Fe597 2.002 . S
O598 C615 1.295 . S
O599 Fe594 1.997 . S
O599 C615 1.235 . S
O600 Fe594 2.002 . S
O600 C601 1.295 . S
C601 O600 1.295 . S
C601 O603 1.235 . S
C602 O607 1.287 . S
C602 O608 1.255 . S
O603 Fe595 1.997 . S
O603 C601 1.235 . S
C604 O610 1.287 . S
C604 O611 1.255 . S
O605 Fe594 1.976 . S
O605 C612 1.287 . S
O606 Fe595 1.996 . S
O606 C612 1.255 . S
O607 Fe597 1.976 . S
O607 C602 1.287 . S
O608 Fe594 1.996 . S
O608 C602 1.255 . S
C609 O613 1.295 . S
C609 O614 1.235 . S
O610 Fe595 1.976 . S
O610 C604 1.287 . S
O611 Fe597 1.996 . S
O611 C604 1.255 . S
C612 O605 1.287 . S
C612 O606 1.255 . S
O613 Fe595 2.002 . S
O613 C609 1.295 . S
O614 Fe597 1.997 . S
O614 C609 1.235 . S
C615 O598 1.295 . S
C615 O599 1.235 . S
Fe616 O618 1.918 . S
Fe616 O621 1.997 . S
Fe616 O622 2.002 . S
Fe616 O627 1.976 . S
Fe616 O630 1.996 . S
Fe617 O618 1.918 . S
Fe617 O625 1.997 . S
Fe617 O628 1.996 . S
Fe617 O632 1.976 . S
Fe617 O635 2.002 . S
O618 Fe616 1.918 . S
O618 Fe617 1.918 . S
O618 Fe619 1.918 . S
Fe619 O618 1.918 . S
Fe619 O620 2.002 . S
Fe619 O629 1.976 . S
Fe619 O633 1.996 . S
Fe619 O636 1.997 . S
O620 Fe619 2.002 . S
O620 C637 1.295 . S
O621 Fe616 1.997 . S
O621 C637 1.235 . S
O622 Fe616 2.002 . S
O622 C623 1.295 . S
C623 O622 1.295 . S
C623 O625 1.235 . S
C624 O629 1.287 . S
C624 O630 1.255 . S
O625 Fe617 1.997 . S
O625 C623 1.235 . S
C626 O632 1.287 . S
C626 O633 1.255 . S
O627 Fe616 1.976 . S
O627 C634 1.287 . S
O628 Fe617 1.996 . S
O628 C634 1.255 . S
O629 Fe619 1.976 . S
O629 C624 1.287 . S
O630 Fe616 1.996 . S
O630 C624 1.255 . S
C631 O635 1.295 . S
C631 O636 1.235 . S
O632 Fe617 1.976 . S
O632 C626 1.287 . S
O633 Fe619 1.996 . S
O633 C626 1.255 . S
C634 O627 1.287 . S
C634 O628 1.255 . S
O635 Fe617 2.002 . S
O635 C631 1.295 . S
O636 Fe619 1.997 . S
O636 C631 1.235 . S
C637 O620 1.295 . S
C637 O621 1.235 . S
Fe638 O640 1.918 . S
Fe638 O643 1.997 . S
Fe638 O644 2.002 . S
Fe638 O649 1.976 . S
Fe638 O652 1.996 . S
Fe639 O640 1.918 . S
Fe639 O647 1.997 . S
Fe639 O650 1.996 . S
Fe639 O654 1.976 . S
Fe639 O657 2.002 . S
O640 Fe638 1.918 . S
O640 Fe639 1.918 . S
O640 Fe641 1.918 . S
Fe641 O640 1.918 . S
Fe641 O642 2.002 . S
Fe641 O651 1.976 . S
Fe641 O655 1.996 . S
Fe641 O658 1.997 . S
O642 Fe641 2.002 . S
O642 C659 1.295 . S
O643 Fe638 1.997 . S
O643 C659 1.235 . S
O644 Fe638 2.002 . S
O644 C645 1.295 . S
C645 O644 1.295 . S
C645 O647 1.235 . S
C646 O651 1.287 . S
C646 O652 1.255 . S
O647 Fe639 1.997 . S
O647 C645 1.235 . S
C648 O654 1.287 . S
C648 O655 1.255 . S
O649 Fe638 1.976 . S
O649 C656 1.287 . S
O650 Fe639 1.996 . S
O650 C656 1.255 . S
O651 Fe641 1.976 . S
O651 C646 1.287 . S
O652 Fe638 1.996 . S
O652 C646 1.255 . S
C653 O657 1.295 . S
C653 O658 1.235 . S
O654 Fe639 1.976 . S
O654 C648 1.287 . S
O655 Fe641 1.996 . S
O655 C648 1.255 . S
C656 O649 1.287 . S
C656 O650 1.255 . S
O657 Fe639 2.002 . S
O657 C653 1.295 . S
O658 Fe641 1.997 . S
O658 C653 1.235 . S
C659 O642 1.295 . S
C659 O643 1.235 . S
Fe660 O662 1.918 . S
Fe660 O665 1.997 . S
Fe660 O666 2.002 . S
Fe660 O671 1.976 . S
Fe660 O674 1.996 . S
Fe661 O662 1.918 . S
Fe661 O669 1.997 . S
Fe661 O672 1.996 . S
Fe661 O676 1.976 . S
Fe661 O679 2.002 . S
O662 Fe660 1.918 . S
O662 Fe661 1.918 . S
O662 Fe663 1.918 . S
Fe663 O662 1.918 . S
Fe663 O664 2.002 . S
Fe663 O673 1.976 . S
Fe663 O677 1.996 . S
Fe663 O680 1.997 . S
O664 Fe663 2.002 . S
O664 C681 1.295 . S
O665 Fe660 1.997 . S
O665 C681 1.235 . S
O666 Fe660 2.002 . S
O666 C667 1.295 . S
C667 O666 1.295 . S
C667 O669 1.235 . S
C668 O673 1.287 . S
C668 O674 1.255 . S
O669 Fe661 1.997 . S
O669 C667 1.235 . S
C670 O676 1.287 . S
C670 O677 1.255 . S
O671 Fe660 1.976 . S
O671 C678 1.287 . S
O672 Fe661 1.996 . S
O672 C678 1.255 . S
O673 Fe663 1.976 . S
O673 C668 1.287 . S
O674 Fe660 1.996 . S
O674 C668 1.255 . S
C675 O679 1.295 . S
C675 O680 1.235 . S
O676 Fe661 1.976 . S
O676 C670 1.287 . S
O677 Fe663 1.996 . S
O677 C670 1.255 . S
C678 O671 1.287 . S
C678 O672 1.255 . S
O679 Fe661 2.002 . S
O679 C675 1.295 . S
O680 Fe663 1.997 . S
O680 C675 1.235 . S
C681 O664 1.295 . S
C681 O665 1.235 . S
Fe682 O684 1.918 . S
Fe682 O687 1.997 . S
Fe682 O688 2.002 . S
Fe682 O693 1.976 . S
Fe682 O696 1.996 . S
Fe683 O684 1.918 . S
Fe683 O691 1.997 . S
Fe683 O694 1.996 . S
Fe683 O698 1.976 . S
Fe683 O701 2.002 . S
O684 Fe682 1.918 . S
O684 Fe683 1.918 . S
O684 Fe685 1.918 . S
Fe685 O684 1.918 . S
Fe685 O686 2.002 . S
Fe685 O695 1.976 . S
Fe685 O699 1.996 . S
Fe685 O702 1.997 . S
O686 Fe685 2.002 . S
O686 C703 1.295 . S
O687 Fe682 1.997 . S
O687 C703 1.235 . S
O688 Fe682 2.002 . S
O688 C689 1.295 . S
C689 O688 1.295 . S
C689 O691 1.235 . S
C690 O695 1.287 . S
C690 O696 1.255 . S
O691 Fe683 1.997 . S
O691 C689 1.235 . S
C692 O698 1.287 . S
C692 O699 1.255 . S
O693 Fe682 1.976 . S
O693 C700 1.287 . S
O694 Fe683 1.996 . S
O694 C700 1.255 . S
O695 Fe685 1.976 . S
O695 C690 1.287 . S
O696 Fe682 1.996 . S
O696 C690 1.255 . S
C697 O701 1.295 . S
C697 O702 1.235 . S
O698 Fe683 1.976 . S
O698 C692 1.287 . S
O699 Fe685 1.996 . S
O699 C692 1.255 . S
C700 O693 1.287 . S
C700 O694 1.255 . S
O701 Fe683 2.002 . S
O701 C697 1.295 . S
O702 Fe685 1.997 . S
O702 C697 1.235 . S
C703 O686 1.295 . S
C703 O687 1.235 . S
Fe704 O706 1.918 . S
Fe704 O709 1.997 . S
Fe704 O710 2.002 . S
Fe704 O715 1.976 . S
Fe704 O718 1.996 . S
Fe705 O706 1.918 . S
Fe705 O713 1.997 . S
Fe705 O716 1.996 . S
Fe705 O720 1.976 . S
Fe705 O723 2.002 . S
O706 Fe704 1.918 . S
O706 Fe705 1.918 . S
O706 Fe707 1.918 . S
Fe707 O706 1.918 . S
Fe707 O708 2.002 . S
Fe707 O717 1.976 . S
Fe707 O721 1.996 . S
Fe707 O724 1.997 . S
O708 Fe707 2.002 . S
O708 C725 1.295 . S
O709 Fe704 1.997 . S
O709 C725 1.235 . S
O710 Fe704 2.002 . S
O710 C711 1.295 . S
C711 O710 1.295 . S
C711 O713 1.235 . S
C712 O717 1.287 . S
C712 O718 1.255 . S
O713 Fe705 1.997 . S
O713 C711 1.235 . S
C714 O720 1.287 . S
C714 O721 1.255 . S
O715 Fe704 1.976 . S
O715 C722 1.287 . S
O716 Fe705 1.996 . S
O716 C722 1.255 . S
O717 Fe707 1.976 . S
O717 C712 1.287 . S
O718 Fe704 1.996 . S
O718 C712 1.255 . S
C719 O723 1.295 . S
C719 O724 1.235 . S
O720 Fe705 1.976 . S
O720 C714 1.287 . S
O721 Fe707 1.996 . S
O721 C714 1.255 . S
C722 O715 1.287 . S
C722 O716 1.255 . S
O723 Fe705 2.002 . S
O723 C719 1.295 . S
O724 Fe707 1.997 . S
O724 C719 1.235 . S
C725 O708 1.295 . S
C725 O709 1.235 . S
Fe726 O728 1.918 . S
Fe726 O731 1.997 . S
Fe726 O732 2.002 . S
Fe726 O737 1.976 . S
Fe726 O740 1.996 . S
Fe727 O728 1.918 . S
Fe727 O735 1.997 . S
Fe727 O738 1.996 . S
Fe727 O742 1.976 . S
Fe727 O745 2.002 . S
O728 Fe726 1.918 . S
O728 Fe727 1.918 . S
O728 Fe729 1.918 . S
Fe729 O728 1.918 . S
Fe729 O730 2.002 . S
Fe729 O739 1.976 . S
Fe729 O743 1.996 . S
Fe729 O746 1.997 . S
O730 Fe729 2.002 . S
O730 C747 1.295 . S
O731 Fe726 1.997 . S
O731 C747 1.235 . S
O732 Fe726 2.002 . S
O732 C733 1.295 . S
C733 O732 1.295 . S
C733 O735 1.235 . S
C734 O739 1.287 . S
C734 O740 1.255 . S
O735 Fe727 1.997 . S
O735 C733 1.235 . S
C736 O742 1.287 . S
C736 O743 1.255 . S
O737 Fe726 1.976 . S
O737 C744 1.287 . S
O738 Fe727 1.996 . S
O738 C744 1.255 . S
O739 Fe729 1.976 . S
O739 C734 1.287 . S
O740 Fe726 1.996 . S
O740 C734 1.255 . S
C741 O745 1.295 . S
C741 O746 1.235 . S
O742 Fe727 1.976 . S
O742 C736 1.287 . S
O743 Fe729 1.996 . S
O743 C736 1.255 . S
C744 O737 1.287 . S
C744 O738 1.255 . S
O745 Fe727 2.002 . S
O745 C741 1.295 . S
O746 Fe729 1.997 . S
O746 C741 1.235 . S
C747 O730 1.295 . S
C747 O731 1.235 . S
Fe748 O750 1.918 . S
Fe748 O753 1.997 . S
Fe748 O754 2.002 . S
Fe748 O759 1.976 . S
Fe748 O762 1.996 . S
Fe749 O750 1.918 . S
Fe749 O757 1.997 . S
Fe749 O760 1.996 . S
Fe749 O764 1.976 . S
Fe749 O767 2.002 . S
O750 Fe748 1.918 . S
O750 Fe749 1.918 . S
O750 Fe751 1.918 . S
Fe751 O750 1.918 . S
Fe751 O752 2.002 . S
Fe751 O761 1.976 . S
Fe751 O765 1.996 . S
Fe751 O768 1.997 . S
O752 Fe751 2.002 . S
O752 C769 1.295 . S
O753 Fe748 1.997 . S
O753 C769 1.235 . S
O754 Fe748 2.002 . S
O754 C755 1.295 . S
C755 O754 1.295 . S
C755 O757 1.235 . S
C756 O761 1.287 . S
C756 O762 1.255 . S
O757 Fe749 1.997 . S
O757 C755 1.235 . S
C758 O764 1.287 . S
C758 O765 1.255 . S
O759 Fe748 1.976 . S
O759 C766 1.287 . S
O760 Fe749 1.996 . S
O760 C766 1.255 . S
O761 Fe751 1.976 . S
O761 C756 1.287 . S
O762 Fe748 1.996 . S
O762 C756 1.255 . S
C763 O767 1.295 . S
C763 O768 1.235 . S
O764 Fe749 1.976 . S
O764 C758 1.287 . S
O765 Fe751 1.996 . S
O765 C758 1.255 . S
C766 O759 1.287 . S
C766 O760 1.255 . S
O767 Fe749 2.002 . S
O767 C763 1.295 . S
O768 Fe751 1.997 . S
O768 C763 1.235 . S
C769 O752 1.295 . S
C769 O753 1.235 . S
Fe770 O772 1.918 . S
Fe770 O775 1.997 . S
Fe770 O776 2.002 . S
Fe770 O781 1.976 . S
Fe770 O784 1.996 . S
Fe771 O772 1.918 . S
Fe771 O779 1.997 . S
Fe771 O782 1.996 . S
Fe771 O786 1.976 . S
Fe771 O789 2.002 . S
O772 Fe770 1.918 . S
O772 Fe771 1.918 . S
O772 Fe773 1.918 . S
Fe773 O772 1.918 . S
Fe773 O774 2.002 . S
Fe773 O783 1.976 . S
Fe773 O787 1.996 . S
Fe773 O790 1.997 . S
O774 Fe773 2.002 . S
O774 C791 1.295 . S
O775 Fe770 1.997 . S
O775 C791 1.235 . S
O776 Fe770 2.002 . S
O776 C777 1.295 . S
C777 O776 1.295 . S
C777 O779 1.235 . S
C778 O783 1.287 . S
C778 O784 1.255 . S
O779 Fe771 1.997 . S
O779 C777 1.235 . S
C780 O786 1.287 . S
C780 O787 1.255 . S
O781 Fe770 1.976 . S
O781 C788 1.287 . S
O782 Fe771 1.996 . S
O782 C788 1.255 . S
O783 Fe773 1.976 . S
O783 C778 1.287 . S
O784 Fe770 1.996 . S
O784 C778 1.255 . S
C785 O789 1.295 . S
C785 O790 1.235 . S
O786 Fe771 1.976 . S
O786 C780 1.287 . S
O787 Fe773 1.996 . S
O787 C780 1.255 . S
C788 O781 1.287 . S
C788 O782 1.255 . S
O789 Fe771 2.002 . S
O789 C785 1.295 . S
O790 Fe773 1.997 . S
O790 C785 1.235 . S
C791 O774 1.295 . S
C791 O775 1.235 . S
Fe792 O794 1.918 . S
Fe792 O797 1.997 . S
Fe792 O798 2.002 . S
Fe792 O803 1.976 . S
Fe792 O806 1.996 . S
Fe793 O794 1.918 . S
Fe793 O801 1.997 . S
Fe793 O804 1.996 . S
Fe793 O808 1.976 . S
Fe793 O811 2.002 . S
O794 Fe792 1.918 . S
O794 Fe793 1.918 . S
O794 Fe795 1.918 . S
Fe795 O794 1.918 . S
Fe795 O796 2.002 . S
Fe795 O805 1.976 . S
Fe795 O809 1.996 . S
Fe795 O812 1.997 . S
O796 Fe795 2.002 . S
O796 C813 1.295 . S
O797 Fe792 1.997 . S
O797 C813 1.235 . S
O798 Fe792 2.002 . S
O798 C799 1.295 . S
C799 O798 1.295 . S
C799 O801 1.235 . S
C800 O805 1.287 . S
C800 O806 1.255 . S
O801 Fe793 1.997 . S
O801 C799 1.235 . S
C802 O808 1.287 . S
C802 O809 1.255 . S
O803 Fe792 1.976 . S
O803 C810 1.287 . S
O804 Fe793 1.996 . S
O804 C810 1.255 . S
O805 Fe795 1.976 . S
O805 C800 1.287 . S
O806 Fe792 1.996 . S
O806 C800 1.255 . S
C807 O811 1.295 . S
C807 O812 1.235 . S
O808 Fe793 1.976 . S
O808 C802 1.287 . S
O809 Fe795 1.996 . S
O809 C802 1.255 . S
C810 O803 1.287 . S
C810 O804 1.255 . S
O811 Fe793 2.002 . S
O811 C807 1.295 . S
O812 Fe795 1.997 . S
O812 C807 1.235 . S
C813 O796 1.295 . S
C813 O797 1.235 . S
Fe814 O816 1.918 . S
Fe814 O819 1.997 . S
Fe814 O820 2.002 . S
Fe814 O825 1.976 . S
Fe814 O828 1.996 . S
Fe815 O816 1.918 . S
Fe815 O823 1.997 . S
Fe815 O826 1.996 . S
Fe815 O830 1.976 . S
Fe815 O833 2.002 . S
O816 Fe814 1.918 . S
O816 Fe815 1.918 . S
O816 Fe817 1.918 . S
Fe817 O816 1.918 . S
Fe817 O818 2.002 . S
Fe817 O827 1.976 . S
Fe817 O831 1.996 . S
Fe817 O834 1.997 . S
O818 Fe817 2.002 . S
O818 C835 1.295 . S
O819 Fe814 1.997 . S
O819 C835 1.235 . S
O820 Fe814 2.002 . S
O820 C821 1.295 . S
C821 O820 1.295 . S
C821 O823 1.235 . S
C822 O827 1.287 . S
C822 O828 1.255 . S
O823 Fe815 1.997 . S
O823 C821 1.235 . S
C824 O830 1.287 . S
C824 O831 1.255 . S
O825 Fe814 1.976 . S
O825 C832 1.287 . S
O826 Fe815 1.996 . S
O826 C832 1.255 . S
O827 Fe817 1.976 . S
O827 C822 1.287 . S
O828 Fe814 1.996 . S
O828 C822 1.255 . S
C829 O833 1.295 . S
C829 O834 1.235 . S
O830 Fe815 1.976 . S
O830 C824 1.287 . S
O831 Fe817 1.996 . S
O831 C824 1.255 . S
C832 O825 1.287 . S
C832 O826 1.255 . S
O833 Fe815 2.002 . S
O833 C829 1.295 . S
O834 Fe817 1.997 . S
O834 C829 1.235 . S
C835 O818 1.295 . S
C835 O819 1.235 . S
Fe836 O838 1.918 . S
Fe836 O841 1.997 . S
Fe836 O842 2.002 . S
Fe836 O847 1.976 . S
Fe836 O850 1.996 . S
Fe837 O838 1.918 . S
Fe837 O845 1.997 . S
Fe837 O848 1.996 . S
Fe837 O852 1.976 . S
Fe837 O855 2.002 . S
O838 Fe836 1.918 . S
O838 Fe837 1.918 . S
O838 Fe839 1.918 . S
Fe839 O838 1.918 . S
Fe839 O840 2.002 . S
Fe839 O849 1.976 . S
Fe839 O853 1.996 . S
Fe839 O856 1.997 . S
O840 Fe839 2.002 . S
O840 C857 1.295 . S
O841 Fe836 1.997 . S
O841 C857 1.235 . S
O842 Fe836 2.002 . S
O842 C843 1.295 . S
C843 O842 1.295 . S
C843 O845 1.235 . S
C844 O849 1.287 . S
C844 O850 1.255 . S
O845 Fe837 1.997 . S
O845 C843 1.235 . S
C846 O852 1.287 . S
C846 O853 1.255 . S
O847 Fe836 1.976 . S
O847 C854 1.287 . S
O848 Fe837 1.996 . S
O848 C854 1.255 . S
O849 Fe839 1.976 . S
O849 C844 1.287 . S
O850 Fe836 1.996 . S
O850 C844 1.255 . S
C851 O855 1.295 . S
C851 O856 1.235 . S
O852 Fe837 1.976 . S
O852 C846 1.287 . S
O853 Fe839 1.996 . S
O853 C846 1.255 . S
C854 O847 1.287 . S
C854 O848 1.255 . S
O855 Fe837 2.002 . S
O855 C851 1.295 . S
O856 Fe839 1.997 . S
O856 C851 1.235 . S
C857 O840 1.295 . S
C857 O841 1.235 . S
Fe858 O860 1.918 . S
Fe858 O863 1.997 . S
Fe858 O864 2.002 . S
Fe858 O869 1.976 . S
Fe858 O872 1.996 . S
Fe859 O860 1.918 . S
Fe859 O867 1.997 . S
Fe859 O870 1.996 . S
Fe859 O874 1.976 . S
Fe859 O877 2.002 . S
O860 Fe858 1.918 . S
O860 Fe859 1.918 . S
O860 Fe861 1.918 . S
Fe861 O860 1.918 . S
Fe861 O862 2.002 . S
Fe861 O871 1.976 . S
Fe861 O875 1.996 . S
Fe861 O878 1.997 . S
O862 Fe861 2.002 . S
O862 C879 1.295 . S
O863 Fe858 1.997 . S
O863 C879 1.235 . S
O864 Fe858 2.002 . S
O864 C865 1.295 . S
C865 O864 1.295 . S
C865 O867 1.235 . S
C866 O871 1.287 . S
C866 O872 1.255 . S
O867 Fe859 1.997 . S
O867 C865 1.235 . S
C868 O874 1.287 . S
C868 O875 1.255 . S
O869 Fe858 1.976 . S
O869 C876 1.287 . S
O870 Fe859 1.996 . S
O870 C876 1.255 . S
O871 Fe861 1.976 . S
O871 C866 1.287 . S
O872 Fe858 1.996 . S
O872 C866 1.255 . S
C873 O877 1.295 . S
C873 O878 1.235 . S
O874 Fe859 1.976 . S
O874 C868 1.287 . S
O875 Fe861 1.996 . S
O875 C868 1.255 . S
C876 O869 1.287 . S
C876 O870 1.255 . S
O877 Fe859 2.002 . S
O877 C873 1.295 . S
O878 Fe861 1.997 . S
O878 C873 1.235 . S
C879 O862 1.295 . S
C879 O863 1.235 . S
Fe880 O882 1.918 . S
Fe880 O885 1.997 . S
Fe880 O886 2.002 . S
Fe880 O891 1.976 . S
Fe880 O894 1.996 . S
Fe881 O882 1.918 . S
Fe881 O889 1.997 . S
Fe881 O892 1.996 . S
Fe881 O896 1.976 . S
Fe881 O899 2.002 . S
O882 Fe880 1.918 . S
O882 Fe881 1.918 . S
O882 Fe883 1.918 . S
Fe883 O882 1.918 . S
Fe883 O884 2.002 . S
Fe883 O893 1.976 . S
Fe883 O897 1.996 . S
Fe883 O900 1.997 . S
O884 Fe883 2.002 . S
O884 C901 1.295 . S
O885 Fe880 1.997 . S
O885 C901 1.235 . S
O886 Fe880 2.002 . S
O886 C887 1.295 . S
C887 O886 1.295 . S
C887 O889 1.235 . S
C888 O893 1.287 . S
C888 O894 1.255 . S
O889 Fe881 1.997 . S
O889 C887 1.235 . S
C890 O896 1.287 . S
C890 O897 1.255 . S
O891 Fe880 1.976 . S
O891 C898 1.287 . S
O892 Fe881 1.996 . S
O892 C898 1.255 . S
O893 Fe883 1.976 . S
O893 C888 1.287 . S
O894 Fe880 1.996 . S
O894 C888 1.255 . S
C895 O899 1.295 . S
C895 O900 1.235 . S
O896 Fe881 1.976 . S
O896 C890 1.287 . S
O897 Fe883 1.996 . S
O897 C890 1.255 . S
C898 O891 1.287 . S
C898 O892 1.255 . S
O899 Fe881 2.002 . S
O899 C895 1.295 . S
O900 Fe883 1.997 . S
O900 C895 1.235 . S
C901 O884 1.295 . S
C901 O885 1.235 . S
Fe902 O904 1.918 . S
Fe902 O907 1.997 . S
Fe902 O908 2.002 . S
Fe902 O913 1.976 . S
Fe902 O916 1.996 . S
Fe903 O904 1.918 . S
Fe903 O911 1.997 . S
Fe903 O914 1.996 . S
Fe903 O918 1.976 . S
Fe903 O921 2.002 . S
O904 Fe902 1.918 . S
O904 Fe903 1.918 . S
O904 Fe905 1.918 . S
Fe905 O904 1.918 . S
Fe905 O906 2.002 . S
Fe905 O915 1.976 . S
Fe905 O919 1.996 . S
Fe905 O922 1.997 . S
O906 Fe905 2.002 . S
O906 C923 1.295 . S
O907 Fe902 1.997 . S
O907 C923 1.235 . S
O908 Fe902 2.002 . S
O908 C909 1.295 . S
C909 O908 1.295 . S
C909 O911 1.235 . S
C910 O915 1.287 . S
C910 O916 1.255 . S
O911 Fe903 1.997 . S
O911 C909 1.235 . S
C912 O918 1.287 . S
C912 O919 1.255 . S
O913 Fe902 1.976 . S
O913 C920 1.287 . S
O914 Fe903 1.996 . S
O914 C920 1.255 . S
O915 Fe905 1.976 . S
O915 C910 1.287 . S
O916 Fe902 1.996 . S
O916 C910 1.255 . S
C917 O921 1.295 . S
C917 O922 1.235 . S
O918 Fe903 1.976 . S
O918 C912 1.287 . S
O919 Fe905 1.996 . S
O919 C912 1.255 . S
C920 O913 1.287 . S
C920 O914 1.255 . S
O921 Fe903 2.002 . S
O921 C917 1.295 . S
O922 Fe905 1.997 . S
O922 C917 1.235 . S
C923 O906 1.295 . S
C923 O907 1.235 . S
Fe924 O926 1.918 . S
Fe924 O929 1.997 . S
Fe924 O930 2.002 . S
Fe924 O935 1.976 . S
Fe924 O938 1.996 . S
Fe925 O926 1.918 . S
Fe925 O933 1.997 . S
Fe925 O936 1.996 . S
Fe925 O940 1.976 . S
Fe925 O943 2.002 . S
O926 Fe924 1.918 . S
O926 Fe925 1.918 . S
O926 Fe927 1.918 . S
Fe927 O926 1.918 . S
Fe927 O928 2.002 . S
Fe927 O937 1.976 . S
Fe927 O941 1.996 . S
Fe927 O944 1.997 . S
O928 Fe927 2.002 . S
O928 C945 1.295 . S
O929 Fe924 1.997 . S
O929 C945 1.235 . S
O930 Fe924 2.002 . S
O930 C931 1.295 . S
C931 O930 1.295 . S
C931 O933 1.235 . S
C932 O937 1.287 . S
C932 O938 1.255 . S
O933 Fe925 1.997 . S
O933 C931 1.235 . S
C934 O940 1.287 . S
C934 O941 1.255 . S
O935 Fe924 1.976 . S
O935 C942 1.287 . S
O936 Fe925 1.996 . S
O936 C942 1.255 . S
O937 Fe927 1.976 . S
O937 C932 1.287 . S
O938 Fe924 1.996 . S
O938 C932 1.255 . S
C939 O943 1.295 . S
C939 O944 1.235 . S
O940 Fe925 1.976 . S
O940 C934 1.287 . S
O941 Fe927 1.996 . S
O941 C934 1.255 . S
C942 O935 1.287 . S
C942 O936 1.255 . S
O943 Fe925 2.002 . S
O943 C939 1.295 . S
O944 Fe927 1.997 . S
O944 C939 1.235 . S
C945 O928 1.295 . S
C945 O929 1.235 . S
Fe946 O948 1.918 . S
Fe946 O951 1.997 . S
Fe946 O952 2.002 . S
Fe946 O957 1.976 . S
Fe946 O960 1.996 . S
Fe947 O948 1.918 . S
Fe947 O955 1.997 . S
Fe947 O958 1.996 . S
Fe947 O962 1.976 . S
Fe947 O965 2.002 . S
O948 Fe946 1.918 . S
O948 Fe947 1.918 . S
O948 Fe949 1.918 . S
Fe949 O948 1.918 . S
Fe949 O950 2.002 . S
Fe949 O959 1.976 . S
Fe949 O963 1.996 . S
Fe949 O966 1.997 . S
O950 Fe949 2.002 . S
O950 C967 1.295 . S
O951 Fe946 1.997 . S
O951 C967 1.235 . S
O952 Fe946 2.002 . S
O952 C953 1.295 . S
C953 O952 1.295 . S
C953 O955 1.235 . S
C954 O959 1.287 . S
C954 O960 1.255 . S
O955 Fe947 1.997 . S
O955 C953 1.235 . S
C956 O962 1.287 . S
C956 O963 1.255 . S
O957 Fe946 1.976 . S
O957 C964 1.287 . S
O958 Fe947 1.996 . S
O958 C964 1.255 . S
O959 Fe949 1.976 . S
O959 C954 1.287 . S
O960 Fe946 1.996 . S
O960 C954 1.255 . S
C961 O965 1.295 . S
C961 O966 1.235 . S
O962 Fe947 1.976 . S
O962 C956 1.287 . S
O963 Fe949 1.996 . S
O963 C956 1.255 . S
C964 O957 1.287 . S
C964 O958 1.255 . S
O965 Fe947 2.002 . S
O965 C961 1.295 . S
O966 Fe949 1.997 . S
O966 C961 1.235 . S
C967 O950 1.295 . S
C967 O951 1.235 . S
Fe968 O970 1.918 . S
Fe968 O973 1.997 . S
Fe968 O974 2.002 . S
Fe968 O979 1.976 . S
Fe968 O982 1.996 . S
Fe969 O970 1.918 . S
Fe969 O977 1.997 . S
Fe969 O980 1.996 . S
Fe969 O984 1.976 . S
Fe969 O987 2.002 . S
O970 Fe968 1.918 . S
O970 Fe969 1.918 . S
O970 Fe971 1.918 . S
Fe971 O970 1.918 . S
Fe971 O972 2.002 . S
Fe971 O981 1.976 . S
Fe971 O985 1.996 . S
Fe971 O988 1.997 . S
O972 Fe971 2.002 . S
O972 C989 1.295 . S
O973 Fe968 1.997 . S
O973 C989 1.235 . S
O974 Fe968 2.002 . S
O974 C975 1.295 . S
C975 O974 1.295 . S
C975 O977 1.235 . S
C976 O981 1.287 . S
C976 O982 1.255 . S
O977 Fe969 1.997 . S
O977 C975 1.235 . S
C978 O984 1.287 . S
C978 O985 1.255 . S
O979 Fe968 1.976 . S
O979 C986 1.287 . S
O980 Fe969 1.996 . S
O980 C986 1.255 . S
O981 Fe971 1.976 . S
O981 C976 1.287 . S
O982 Fe968 1.996 . S
O982 C976 1.255 . S
C983 O987 1.295 . S
C983 O988 1.235 . S
O984 Fe969 1.976 . S
O984 C978 1.287 . S
O985 Fe971 1.996 . S
O985 C978 1.255 . S
C986 O979 1.287 . S
C986 O980 1.255 . S
O987 Fe969 2.002 . S
O987 C983 1.295 . S
O988 Fe971 1.997 . S
O988 C983 1.235 . S
C989 O972 1.295 . S
C989 O973 1.235 . S
Fe990 O992 1.918 . S
Fe990 O995 1.997 . S
Fe990 O996 2.002 . S
Fe990 O1001 1.976 . S
Fe990 O1004 1.996 . S
Fe991 O992 1.918 . S
Fe991 O999 1.997 . S
Fe991 O1002 1.996 . S
Fe991 O1006 1.976 . S
Fe991 O1009 2.002 . S
O992 Fe990 1.918 . S
O992 Fe991 1.918 . S
O992 Fe993 1.918 . S
Fe993 O992 1.918 . S
Fe993 O994 2.002 . S
Fe993 O1003 1.976 . S
Fe993 O1007 1.996 . S
Fe993 O1010 1.997 . S
O994 Fe993 2.002 . S
O994 C1011 1.295 . S
O995 Fe990 1.997 . S
O995 C1011 1.235 . S
O996 Fe990 2.002 . S
O996 C997 1.295 . S
C997 O996 1.295 . S
C997 O999 1.235 . S
C998 O1003 1.287 . S
C998 O1004 1.255 . S
O999 Fe991 1.997 . S
O999 C997 1.235 . S
C1000 O1006 1.287 . S
C1000 O1007 1.255 . S
O1001 Fe990 1.976 . S
O1001 C1008 1.287 . S
O1002 Fe991 1.996 . S
O1002 C1008 1.255 . S
O1003 Fe993 1.976 . S
O1003 C998 1.287 . S
O1004 Fe990 1.996 . S
O1004 C998 1.255 . S
C1005 O1009 1.295 . S
C1005 O1010 1.235 . S
O1006 Fe991 1.976 . S
O1006 C1000 1.287 . S
O1007 Fe993 1.996 . S
O1007 C1000 1.255 . S
C1008 O1001 1.287 . S
C1008 O1002 1.255 . S
O1009 Fe991 2.002 . S
O1009 C1005 1.295 . S
O1010 Fe993 1.997 . S
O1010 C1005 1.235 . S
C1011 O994 1.295 . S
C1011 O995 1.235 . S
Fe1012 O1014 1.918 . S
Fe1012 O1017 1.997 . S
Fe1012 O1018 2.002 . S
Fe1012 O1023 1.976 . S
Fe1012 O1026 1.996 . S
Fe1013 O1014 1.918 . S
Fe1013 O1021 1.997 . S
Fe1013 O1024 1.996 . S
Fe1013 O1028 1.976 . S
Fe1013 O1031 2.002 . S
O1014 Fe1012 1.918 . S
O1014 Fe1013 1.918 . S
O1014 Fe1015 1.918 . S
Fe1015 O1014 1.918 . S
Fe1015 O1016 2.002 . S
Fe1015 O1025 1.976 . S
Fe1015 O1029 1.996 . S
Fe1015 O1032 1.997 . S
O1016 Fe1015 2.002 . S
O1016 C1033 1.295 . S
O1017 Fe1012 1.997 . S
O1017 C1033 1.235 . S
O1018 Fe1012 2.002 . S
O1018 C1019 1.295 . S
C1019 O1018 1.295 . S
C1019 O1021 1.235 . S
C1020 O1025 1.287 . S
C1020 O1026 1.255 . S
O1021 Fe1013 1.997 . S
O1021 C1019 1.235 . S
C1022 O1028 1.287 . S
C1022 O1029 1.255 . S
O1023 Fe1012 1.976 . S
O1023 C1030 1.287 . S
O1024 Fe1013 1.996 . S
O1024 C1030 1.255 . S
O1025 Fe1015 1.976 . S
O1025 C1020 1.287 . S
O1026 Fe1012 1.996 . S
O1026 C1020 1.255 . S
C1027 O1031 1.295 . S
C1027 O1032 1.235 . S
O1028 Fe1013 1.976 . S
O1028 C1022 1.287 . S
O1029 Fe1015 1.996 . S
O1029 C1022 1.255 . S
C1030 O1023 1.287 . S
C1030 O1024 1.255 . S
O1031 Fe1013 2.002 . S
O1031 C1027 1.295 . S
O1032 Fe1015 1.997 . S
O1032 C1027 1.235 . S
C1033 O1016 1.295 . S
C1033 O1017 1.235 . S
Fe1034 O1036 1.918 . S
Fe1034 O1039 1.997 . S
Fe1034 O1040 2.002 . S
Fe1034 O1045 1.976 . S
Fe1034 O1048 1.996 . S
Fe1035 O1036 1.918 . S
Fe1035 O1043 1.997 . S
Fe1035 O1046 1.996 . S
Fe1035 O1050 1.976 . S
Fe1035 O1053 2.002 . S
O1036 Fe1034 1.918 . S
O1036 Fe1035 1.918 . S
O1036 Fe1037 1.918 . S
Fe1037 O1036 1.918 . S
Fe1037 O1038 2.002 . S
Fe1037 O1047 1.976 . S
Fe1037 O1051 1.996 . S
Fe1037 O1054 1.997 . S
O1038 Fe1037 2.002 . S
O1038 C1055 1.295 . S
O1039 Fe1034 1.997 . S
O1039 C1055 1.235 . S
O1040 Fe1034 2.002 . S
O1040 C1041 1.295 . S
C1041 O1040 1.295 . S
C1041 O1043 1.235 . S
C1042 O1047 1.287 . S
C1042 O1048 1.255 . S
O1043 Fe1035 1.997 . S
O1043 C1041 1.235 . S
C1044 O1050 1.287 . S
C1044 O1051 1.255 . S
O1045 Fe1034 1.976 . S
O1045 C1052 1.287 . S
O1046 Fe1035 1.996 . S
O1046 C1052 1.255 . S
O1047 Fe1037 1.976 . S
O1047 C1042 1.287 . S
O1048 Fe1034 1.996 . S
O1048 C1042 1.255 . S
C1049 O1053 1.295 . S
C1049 O1054 1.235 . S
O1050 Fe1035 1.976 . S
O1050 C1044 1.287 . S
O1051 Fe1037 1.996 . S
O1051 C1044 1.255 . S
C1052 O1045 1.287 . S
C1052 O1046 1.255 . S
O1053 Fe1035 2.002 . S
O1053 C1049 1.295 . S
O1054 Fe1037 1.997 . S
O1054 C1049 1.235 . S
C1055 O1038 1.295 . S
C1055 O1039 1.235 . S
C1056 C1057 1.369 . S
C1056 C1058 1.419 1_545 S
C1056 H1060 0.930 . S
C1057 C1056 1.369 . S
C1057 C1066 1.429 . S
C1058 C1056 1.419 1_565 S
C1058 C1059 1.363 . S
C1058 H1061 0.929 . S
C1059 C1058 1.363 . S
C1059 C1065 1.428 . S
H1060 C1056 0.930 . S
H1061 C1058 0.929 . S
S1062 N1063 1.613 . S
S1062 N1064 1.610 1_545 S
N1063 S1062 1.613 . S
N1063 C1066 1.350 . S
N1064 S1062 1.610 1_565 S
N1064 C1065 1.351 . S
C1065 C1059 1.428 . S
C1065 N1064 1.351 . S
C1065 C1066 1.434 1_565 S
C1066 C1057 1.429 . S
C1066 N1063 1.350 . S
C1066 C1065 1.434 1_545 S
C1067 C1068 1.369 . S
C1067 C1069 1.419 1_455 S
C1067 H1071 0.930 . S
C1068 C1067 1.369 . S
C1068 C1077 1.429 . S
C1069 C1067 1.419 1_655 S
C1069 C1070 1.363 . S
C1069 H1072 0.929 . S
C1070 C1069 1.363 . S
C1070 C1076 1.428 . S
H1071 C1067 0.930 . S
H1072 C1069 0.929 . S
S1073 N1074 1.609 1_655 S
S1073 N1075 1.615 . S
N1074 S1073 1.609 1_455 S
N1074 C1077 1.350 . S
N1075 S1073 1.615 . S
N1075 C1076 1.351 . S
C1076 C1070 1.428 . S
C1076 N1075 1.351 . S
C1076 C1077 1.434 1_655 S
C1077 C1068 1.429 . S
C1077 N1074 1.350 . S
C1077 C1076 1.434 1_455 S
C1078 C1079 1.369 . S
C1078 C1080 1.419 1_545 S
C1078 H1082 0.930 . S
C1079 C1078 1.369 . S
C1079 C1088 1.429 . S
C1080 C1078 1.419 1_565 S
C1080 C1081 1.363 . S
C1080 H1083 0.929 . S
C1081 C1080 1.363 . S
C1081 C1087 1.428 . S
H1082 C1078 0.930 . S
H1083 C1080 0.929 . S
S1084 N1085 1.613 1_565 S
S1084 N1086 1.610 . S
N1085 S1084 1.613 1_545 S
N1085 C1088 1.350 . S
N1086 S1084 1.610 . S
N1086 C1087 1.351 . S
C1087 C1081 1.428 . S
C1087 N1086 1.351 . S
C1087 C1088 1.434 1_565 S
C1088 C1079 1.429 . S
C1088 N1085 1.350 . S
C1088 C1087 1.434 1_545 S
C1089 C1090 1.369 . S
C1089 C1091 1.419 1_655 S
C1089 H1093 0.930 . S
C1090 C1089 1.369 . S
C1090 C1099 1.429 . S
C1091 C1089 1.419 1_455 S
C1091 C1092 1.363 . S
C1091 H1094 0.929 . S
C1092 C1091 1.363 . S
C1092 C1098 1.428 . S
H1093 C1089 0.930 . S
H1094 C1091 0.929 . S
S1095 N1096 1.613 1_455 S
S1095 N1097 1.610 . S
N1096 S1095 1.613 1_655 S
N1096 C1099 1.350 . S
N1097 S1095 1.610 . S
N1097 C1098 1.351 . S
C1098 C1092 1.428 . S
C1098 N1097 1.351 . S
C1098 C1099 1.434 1_455 S
C1099 C1090 1.429 . S
C1099 N1096 1.350 . S
C1099 C1098 1.434 1_655 S
C1100 C1101 1.369 . S
C1100 C1102 1.419 1_565 S
C1100 H1104 0.930 . S
C1101 C1100 1.369 . S
C1101 C1110 1.429 . S
C1102 C1100 1.419 1_545 S
C1102 C1103 1.363 . S
C1102 H1105 0.929 . S
C1103 C1102 1.363 . S
C1103 C1109 1.428 . S
H1104 C1100 0.930 . S
H1105 C1102 0.929 . S
S1106 N1107 1.637 . S
S1106 N1108 1.587 1_565 S
N1107 S1106 1.637 . S
N1107 C1110 1.350 . S
N1108 S1106 1.587 1_545 S
N1108 C1109 1.351 . S
C1109 C1103 1.428 . S
C1109 N1108 1.351 . S
C1109 C1110 1.434 1_545 S
C1110 C1101 1.429 . S
C1110 N1107 1.350 . S
C1110 C1109 1.434 1_565 S
C1111 C1112 1.369 . S
C1111 C1113 1.419 1_455 S
C1111 H1115 0.930 . S
C1112 C1111 1.369 . S
C1112 C1121 1.429 . S
C1113 C1111 1.419 1_655 S
C1113 C1114 1.363 . S
C1113 H1116 0.929 . S
C1114 C1113 1.363 . S
C1114 C1120 1.428 . S
H1115 C1111 0.930 . S
H1116 C1113 0.929 . S
S1117 N1118 1.605 1_655 S
S1117 N1119 1.618 . S
N1118 S1117 1.605 1_455 S
N1118 C1121 1.350 . S
N1119 S1117 1.618 . S
N1119 C1120 1.351 . S
C1120 C1114 1.428 . S
C1120 N1119 1.351 . S
C1120 C1121 1.434 1_655 S
C1121 C1112 1.429 . S
C1121 N1118 1.350 . S
C1121 C1120 1.434 1_455 S
C1122 C1123 1.369 . S
C1122 C1124 1.419 1_545 S
C1122 H1126 0.930 . S
C1123 C1122 1.369 . S
C1123 C1132 1.429 . S
C1124 C1122 1.419 1_565 S
C1124 C1125 1.363 . S
C1124 H1127 0.929 . S
C1125 C1124 1.363 . S
C1125 C1131 1.428 . S
H1126 C1122 0.930 . S
H1127 C1124 0.929 . S
S1128 N1129 1.606 1_565 S
S1128 N1130 1.618 . S
N1129 S1128 1.606 1_545 S
N1129 C1132 1.350 . S
N1130 S1128 1.618 . S
N1130 C1131 1.351 . S
C1131 C1125 1.428 . S
C1131 N1130 1.351 . S
C1131 C1132 1.434 1_565 S
C1132 C1123 1.429 . S
C1132 N1129 1.350 . S
C1132 C1131 1.434 1_545 S
C1133 C1134 1.369 . S
C1133 C1135 1.419 1_655 S
C1133 H1137 0.930 . S
C1134 C1133 1.369 . S
C1134 C1143 1.429 . S
C1135 C1133 1.419 1_455 S
C1135 C1136 1.363 . S
C1135 H1138 0.929 . S
C1136 C1135 1.363 . S
C1136 C1142 1.428 . S
H1137 C1133 0.930 . S
H1138 C1135 0.929 . S
S1139 N1140 1.606 1_455 S
S1139 N1141 1.617 . S
N1140 S1139 1.606 1_655 S
N1140 C1143 1.350 . S
N1141 S1139 1.617 . S
N1141 C1142 1.351 . S
C1142 C1136 1.428 . S
C1142 N1141 1.351 . S
C1142 C1143 1.434 1_455 S
C1143 C1134 1.429 . S
C1143 N1140 1.350 . S
C1143 C1142 1.434 1_655 S
C1144 C1145 1.369 . S
C1144 C1146 1.419 1_554 S
C1144 H1148 0.930 . S
C1145 C1144 1.369 . S
C1145 C1154 1.429 . S
C1146 C1144 1.419 1_556 S
C1146 C1147 1.363 . S
C1146 H1149 0.929 . S
C1147 C1146 1.363 . S
C1147 C1153 1.428 . S
H1148 C1144 0.930 . S
H1149 C1146 0.929 . S
S1150 N1151 1.613 . S
S1150 N1152 1.610 1_554 S
N1151 S1150 1.613 . S
N1151 C1154 1.350 . S
N1152 S1150 1.610 1_556 S
N1152 C1153 1.351 . S
C1153 C1147 1.428 . S
C1153 N1152 1.351 . S
C1153 C1154 1.434 1_556 S
C1154 C1145 1.429 . S
C1154 N1151 1.350 . S
C1154 C1153 1.434 1_554 S
C1155 C1156 1.369 . S
C1155 C1157 1.419 1_556 S
C1155 H1159 0.930 . S
C1156 C1155 1.369 . S
C1156 C1165 1.429 . S
C1157 C1155 1.419 1_554 S
C1157 C1158 1.363 . S
C1157 H1160 0.929 . S
C1158 C1157 1.363 . S
C1158 C1164 1.428 . S
H1159 C1155 0.930 . S
H1160 C1157 0.929 . S
S1161 N1162 1.613 1_554 S
S1161 N1163 1.610 . S
N1162 S1161 1.613 1_556 S
N1162 C1165 1.350 . S
N1163 S1161 1.610 . S
N1163 C1164 1.351 . S
C1164 C1158 1.428 . S
C1164 N1163 1.351 . S
C1164 C1165 1.434 1_554 S
C1165 C1156 1.429 . S
C1165 N1162 1.350 . S
C1165 C1164 1.434 1_556 S
C1166 C1167 1.369 . S
C1166 C1168 1.419 1_556 S
C1166 H1170 0.930 . S
C1167 C1166 1.369 . S
C1167 C1176 1.429 . S
C1168 C1166 1.419 1_554 S
C1168 C1169 1.363 . S
C1168 H1171 0.929 . S
C1169 C1168 1.363 . S
C1169 C1175 1.428 . S
H1170 C1166 0.930 . S
H1171 C1168 0.929 . S
S1172 N1173 1.613 1_554 S
S1172 N1174 1.610 . S
N1173 S1172 1.613 1_556 S
N1173 C1176 1.350 . S
N1174 S1172 1.610 . S
N1174 C1175 1.351 . S
C1175 C1169 1.428 . S
C1175 N1174 1.351 . S
C1175 C1176 1.434 1_554 S
C1176 C1167 1.429 . S
C1176 N1173 1.350 . S
C1176 C1175 1.434 1_556 S
C1177 C1178 1.369 . S
C1177 C1179 1.419 1_556 S
C1177 H1181 0.930 . S
C1178 C1177 1.369 . S
C1178 C1187 1.429 . S
C1179 C1177 1.419 1_554 S
C1179 C1180 1.363 . S
C1179 H1182 0.929 . S
C1180 C1179 1.363 . S
C1180 C1186 1.428 . S
H1181 C1177 0.930 . S
H1182 C1179 0.929 . S
S1183 N1184 1.591 1_554 S
S1183 N1185 1.633 . S
N1184 S1183 1.591 1_556 S
N1184 C1187 1.350 . S
N1185 S1183 1.633 . S
N1185 C1186 1.351 . S
C1186 C1180 1.428 . S
C1186 N1185 1.351 . S
C1186 C1187 1.434 1_554 S
C1187 C1178 1.429 . S
C1187 N1184 1.350 . S
C1187 C1186 1.434 1_556 S
C1188 C1189 1.369 . S
C1188 C1190 1.419 1_556 S
C1188 H1192 0.930 . S
C1189 C1188 1.369 . S
C1189 C1198 1.429 . S
C1190 C1188 1.419 1_554 S
C1190 C1191 1.363 . S
C1190 H1193 0.929 . S
C1191 C1190 1.363 . S
C1191 C1197 1.428 . S
H1192 C1188 0.930 . S
H1193 C1190 0.929 . S
S1194 N1195 1.613 . S
S1194 N1196 1.610 1_556 S
N1195 S1194 1.613 . S
N1195 C1198 1.350 . S
N1196 S1194 1.610 1_554 S
N1196 C1197 1.351 . S
C1197 C1191 1.428 . S
C1197 N1196 1.351 . S
C1197 C1198 1.434 1_554 S
C1198 C1189 1.429 . S
C1198 N1195 1.350 . S
C1198 C1197 1.434 1_556 S
C1199 C1200 1.369 . S
C1199 C1201 1.419 1_556 S
C1199 H1203 0.930 . S
C1200 C1199 1.369 . S
C1200 C1209 1.429 . S
C1201 C1199 1.419 1_554 S
C1201 C1202 1.363 . S
C1201 H1204 0.929 . S
C1202 C1201 1.363 . S
C1202 C1208 1.428 . S
H1203 C1199 0.930 . S
H1204 C1201 0.929 . S
S1205 N1206 1.620 . S
S1205 N1207 1.603 1_556 S
N1206 S1205 1.620 . S
N1206 C1209 1.350 . S
N1207 S1205 1.603 1_554 S
N1207 C1208 1.351 . S
C1208 C1202 1.428 . S
C1208 N1207 1.351 . S
C1208 C1209 1.434 1_554 S
C1209 C1200 1.429 . S
C1209 N1206 1.350 . S
C1209 C1208 1.434 1_556 S
C1210 C1211 1.369 . S
C1210 C1212 1.419 1_556 S
C1210 H1214 0.930 . S
C1211 C1210 1.369 . S
C1211 C1220 1.429 . S
C1212 C1210 1.419 1_554 S
C1212 C1213 1.363 . S
C1212 H1215 0.929 . S
C1213 C1212 1.363 . S
C1213 C1219 1.428 . S
H1214 C1210 0.930 . S
H1215 C1212 0.929 . S
S1216 N1217 1.636 . S
S1216 N1218 1.588 1_556 S
N1217 S1216 1.636 . S
N1217 C1220 1.350 . S
N1218 S1216 1.588 1_554 S
N1218 C1219 1.351 . S
C1219 C1213 1.428 . S
C1219 N1218 1.351 . S
C1219 C1220 1.434 1_554 S
C1220 C1211 1.429 . S
C1220 N1217 1.350 . S
C1220 C1219 1.434 1_556 S
C1221 C1222 1.369 . S
C1221 C1223 1.419 1_556 S
C1221 H1225 0.930 . S
C1222 C1221 1.369 . S
C1222 C1231 1.429 . S
C1223 C1221 1.419 1_554 S
C1223 C1224 1.363 . S
C1223 H1226 0.929 . S
C1224 C1223 1.363 . S
C1224 C1230 1.428 . S
H1225 C1221 0.930 . S
H1226 C1223 0.929 . S
S1227 N1228 1.613 . S
S1227 N1229 1.610 1_556 S
N1228 S1227 1.613 . S
N1228 C1231 1.350 . S
N1229 S1227 1.610 1_554 S
N1229 C1230 1.351 . S
C1230 C1224 1.428 . S
C1230 N1229 1.351 . S
C1230 C1231 1.434 1_554 S
C1231 C1222 1.429 . S
C1231 N1228 1.350 . S
C1231 C1230 1.434 1_556 S
C1232 C1233 1.369 . S
C1232 C1234 1.419 1_655 S
C1232 H1236 0.930 . S
C1233 C1232 1.369 . S
C1233 C1242 1.429 . S
C1234 C1232 1.419 1_455 S
C1234 C1235 1.363 . S
C1234 H1237 0.929 . S
C1235 C1234 1.363 . S
C1235 C1241 1.428 . S
H1236 C1232 0.930 . S
H1237 C1234 0.929 . S
S1238 N1239 1.613 1_455 S
S1238 N1240 1.610 . S
N1239 S1238 1.613 1_655 S
N1239 C1242 1.350 . S
N1240 S1238 1.610 . S
N1240 C1241 1.351 . S
C1241 C1235 1.428 . S
C1241 N1240 1.351 . S
C1241 C1242 1.434 1_455 S
C1242 C1233 1.429 . S
C1242 N1239 1.350 . S
C1242 C1241 1.434 1_655 S
C1243 C1244 1.369 . S
C1243 C1245 1.419 1_455 S
C1243 H1247 0.930 . S
C1244 C1243 1.369 . S
C1244 C1253 1.429 . S
C1245 C1243 1.419 1_655 S
C1245 C1246 1.363 . S
C1245 H1248 0.929 . S
C1246 C1245 1.363 . S
C1246 C1252 1.428 . S
H1247 C1243 0.930 . S
H1248 C1245 0.929 . S
S1249 N1250 1.621 . S
S1249 N1251 1.603 1_455 S
N1250 S1249 1.621 . S
N1250 C1253 1.350 . S
N1251 S1249 1.603 1_655 S
N1251 C1252 1.351 . S
C1252 C1246 1.428 . S
C1252 N1251 1.351 . S
C1252 C1253 1.434 1_655 S
C1253 C1244 1.429 . S
C1253 N1250 1.350 . S
C1253 C1252 1.434 1_455 S
C1254 C1255 1.369 . S
C1254 C1256 1.419 1_545 S
C1254 H1258 0.930 . S
C1255 C1254 1.369 . S
C1255 C1264 1.429 . S
C1256 C1254 1.419 1_565 S
C1256 C1257 1.363 . S
C1256 H1259 0.929 . S
C1257 C1256 1.363 . S
C1257 C1263 1.428 . S
H1258 C1254 0.930 . S
H1259 C1256 0.929 . S
S1260 N1261 1.640 . S
S1260 N1262 1.585 1_545 S
N1261 S1260 1.640 . S
N1261 C1264 1.350 . S
N1262 S1260 1.585 1_565 S
N1262 C1263 1.351 . S
C1263 C1257 1.428 . S
C1263 N1262 1.351 . S
C1263 C1264 1.434 1_565 S
C1264 C1255 1.429 . S
C1264 N1261 1.350 . S
C1264 C1263 1.434 1_545 S
C1265 C1266 1.369 . S
C1265 C1267 1.419 1_655 S
C1265 H1269 0.930 . S
C1266 C1265 1.369 . S
C1266 C1275 1.429 . S
C1267 C1265 1.419 1_455 S
C1267 C1268 1.363 . S
C1267 H1270 0.929 . S
C1268 C1267 1.363 . S
C1268 C1274 1.428 . S
H1269 C1265 0.930 . S
H1270 C1267 0.929 . S
S1271 N1272 1.617 1_455 S
S1271 N1273 1.607 . S
N1272 S1271 1.617 1_655 S
N1272 C1275 1.350 . S
N1273 S1271 1.607 . S
N1273 C1274 1.351 . S
C1274 C1268 1.428 . S
C1274 N1273 1.351 . S
C1274 C1275 1.434 1_455 S
C1275 C1266 1.429 . S
C1275 N1272 1.350 . S
C1275 C1274 1.434 1_655 S
C1276 C1277 1.369 . S
C1276 C1278 1.419 1_565 S
C1276 H1280 0.930 . S
C1277 C1276 1.369 . S
C1277 C1286 1.429 . S
C1278 C1276 1.419 1_545 S
C1278 C1279 1.363 . S
C1278 H1281 0.929 . S
C1279 C1278 1.363 . S
C1279 C1285 1.428 . S
H1280 C1276 0.930 . S
H1281 C1278 0.929 . S
S1282 N1283 1.613 . S
S1282 N1284 1.610 1_565 S
N1283 S1282 1.613 . S
N1283 C1286 1.350 . S
N1284 S1282 1.610 1_545 S
N1284 C1285 1.351 . S
C1285 C1279 1.428 . S
C1285 N1284 1.351 . S
C1285 C1286 1.434 1_545 S
C1286 C1277 1.429 . S
C1286 N1283 1.350 . S
C1286 C1285 1.434 1_565 S
C1287 C1288 1.369 . S
C1287 C1289 1.419 1_455 S
C1287 H1291 0.930 . S
C1288 C1287 1.369 . S
C1288 C1297 1.429 . S
C1289 C1287 1.419 1_655 S
C1289 C1290 1.363 . S
C1289 H1292 0.929 . S
C1290 C1289 1.363 . S
C1290 C1296 1.428 . S
H1291 C1287 0.930 . S
H1292 C1289 0.929 . S
S1293 N1294 1.613 1_655 S
S1293 N1295 1.610 . S
N1294 S1293 1.613 1_455 S
N1294 C1297 1.350 . S
N1295 S1293 1.610 . S
N1295 C1296 1.351 . S
C1296 C1290 1.428 . S
C1296 N1295 1.351 . S
C1296 C1297 1.434 1_655 S
C1297 C1288 1.429 . S
C1297 N1294 1.350 . S
C1297 C1296 1.434 1_455 S
C1298 C1299 1.369 . S
C1298 C1300 1.419 1_565 S
C1298 H1302 0.930 . S
C1299 C1298 1.369 . S
C1299 C1308 1.429 . S
C1300 C1298 1.419 1_545 S
C1300 C1301 1.363 . S
C1300 H1303 0.929 . S
C1301 C1300 1.363 . S
C1301 C1307 1.428 . S
H1302 C1298 0.930 . S
H1303 C1300 0.929 . S
S1304 N1305 1.623 . S
S1304 N1306 1.601 1_565 S
N1305 S1304 1.623 . S
N1305 C1308 1.350 . S
N1306 S1304 1.601 1_545 S
N1306 C1307 1.351 . S
C1307 C1301 1.428 . S
C1307 N1306 1.351 . S
C1307 C1308 1.434 1_545 S
C1308 C1299 1.429 . S
C1308 N1305 1.350 . S
C1308 C1307 1.434 1_565 S
C1309 C1310 1.369 . S
C1309 C1311 1.419 1_545 S
C1309 H1313 0.930 . S
C1310 C1309 1.369 . S
C1310 C1319 1.429 . S
C1311 C1309 1.419 1_565 S
C1311 C1312 1.363 . S
C1311 H1314 0.929 . S
C1312 C1311 1.363 . S
C1312 C1318 1.428 . S
H1313 C1309 0.930 . S
H1314 C1311 0.929 . S
S1315 N1316 1.613 . S
S1315 N1317 1.610 1_545 S
N1316 S1315 1.613 . S
N1316 C1319 1.350 . S
N1317 S1315 1.610 1_565 S
N1317 C1318 1.351 . S
C1318 C1312 1.428 . S
C1318 N1317 1.351 . S
C1318 C1319 1.434 1_565 S
C1319 C1310 1.429 . S
C1319 N1316 1.350 . S
C1319 C1318 1.434 1_545 S
C1320 C1321 1.369 . S
C1320 C1322 1.419 . S
C1320 H1324 0.930 . S
C1321 C1320 1.369 . S
C1321 C1330 1.429 . S
C1322 C1320 1.419 . S
C1322 C1323 1.363 . S
C1322 H1325 0.929 . S
C1323 C1322 1.363 . S
C1323 C1329 1.428 . S
H1324 C1320 0.930 . S
H1325 C1322 0.929 . S
S1326 N1327 1.613 . S
S1326 N1328 1.610 . S
N1327 S1326 1.613 . S
N1327 C1330 1.350 . S
N1328 S1326 1.610 . S
N1328 C1329 1.351 . S
C1329 C1323 1.428 . S
C1329 N1328 1.351 . S
C1329 C1330 1.434 . S
C1330 C1321 1.429 . S
C1330 N1327 1.350 . S
C1330 C1329 1.434 . S
C1331 C1332 1.369 . S
C1331 C1333 1.419 . S
C1331 H1335 0.930 . S
C1332 C1331 1.369 . S
C1332 C1341 1.429 . S
C1333 C1331 1.419 . S
C1333 C1334 1.363 . S
C1333 H1336 0.929 . S
C1334 C1333 1.363 . S
C1334 C1340 1.428 . S
H1335 C1331 0.930 . S
H1336 C1333 0.929 . S
S1337 N1338 1.613 . S
S1337 N1339 1.610 . S
N1338 S1337 1.613 . S
N1338 C1341 1.350 . S
N1339 S1337 1.610 . S
N1339 C1340 1.351 . S
C1340 C1334 1.428 . S
C1340 N1339 1.351 . S
C1340 C1341 1.434 . S
C1341 C1332 1.429 . S
C1341 N1338 1.350 . S
C1341 C1340 1.434 . S
C1342 C1343 1.369 . S
C1342 C1344 1.419 . S
C1342 H1346 0.930 . S
C1343 C1342 1.369 . S
C1343 C1352 1.429 . S
C1344 C1342 1.419 . S
C1344 C1345 1.363 . S
C1344 H1347 0.929 . S
C1345 C1344 1.363 . S
C1345 C1351 1.428 . S
H1346 C1342 0.930 . S
H1347 C1344 0.929 . S
S1348 N1349 1.613 . S
S1348 N1350 1.610 . S
N1349 S1348 1.613 . S
N1349 C1352 1.350 . S
N1350 S1348 1.610 . S
N1350 C1351 1.351 . S
C1351 C1345 1.428 . S
C1351 N1350 1.351 . S
C1351 C1352 1.434 . S
C1352 C1343 1.429 . S
C1352 N1349 1.350 . S
C1352 C1351 1.434 . S
C1353 C1354 1.369 . S
C1353 C1355 1.419 . S
C1353 H1357 0.930 . S
C1354 C1353 1.369 . S
C1354 C1363 1.429 . S
C1355 C1353 1.419 . S
C1355 C1356 1.363 . S
C1355 H1358 0.929 . S
C1356 C1355 1.363 . S
C1356 C1362 1.428 . S
H1357 C1353 0.930 . S
H1358 C1355 0.929 . S
S1359 N1360 1.613 . S
S1359 N1361 1.610 . S
N1360 S1359 1.613 . S
N1360 C1363 1.350 . S
N1361 S1359 1.610 . S
N1361 C1362 1.351 . S
C1362 C1356 1.428 . S
C1362 N1361 1.351 . S
C1362 C1363 1.434 . S
C1363 C1354 1.429 . S
C1363 N1360 1.350 . S
C1363 C1362 1.434 . S
C1364 C1365 1.369 . S
C1364 C1366 1.419 . S
C1364 H1368 0.930 . S
C1365 C1364 1.369 . S
C1365 C1374 1.429 . S
C1366 C1364 1.419 . S
C1366 C1367 1.363 . S
C1366 H1369 0.929 . S
C1367 C1366 1.363 . S
C1367 C1373 1.428 . S
H1368 C1364 0.930 . S
H1369 C1366 0.929 . S
S1370 N1371 1.613 . S
S1370 N1372 1.610 . S
N1371 S1370 1.613 . S
N1371 C1374 1.350 . S
N1372 S1370 1.610 . S
N1372 C1373 1.351 . S
C1373 C1367 1.428 . S
C1373 N1372 1.351 . S
C1373 C1374 1.434 . S
C1374 C1365 1.429 . S
C1374 N1371 1.350 . S
C1374 C1373 1.434 . S
C1375 C1376 1.369 . S
C1375 C1377 1.419 . S
C1375 H1379 0.930 . S
C1376 C1375 1.369 . S
C1376 C1385 1.429 . S
C1377 C1375 1.419 . S
C1377 C1378 1.363 . S
C1377 H1380 0.929 . S
C1378 C1377 1.363 . S
C1378 C1384 1.428 . S
H1379 C1375 0.930 . S
H1380 C1377 0.929 . S
S1381 N1382 1.613 . S
S1381 N1383 1.610 . S
N1382 S1381 1.613 . S
N1382 C1385 1.350 . S
N1383 S1381 1.610 . S
N1383 C1384 1.351 . S
C1384 C1378 1.428 . S
C1384 N1383 1.351 . S
C1384 C1385 1.434 . S
C1385 C1376 1.429 . S
C1385 N1382 1.350 . S
C1385 C1384 1.434 . S
C1386 C1387 1.369 . S
C1386 C1388 1.419 . S
C1386 H1390 0.930 . S
C1387 C1386 1.369 . S
C1387 C1396 1.429 . S
C1388 C1386 1.419 . S
C1388 C1389 1.363 . S
C1388 H1391 0.929 . S
C1389 C1388 1.363 . S
C1389 C1395 1.428 . S
H1390 C1386 0.930 . S
H1391 C1388 0.929 . S
S1392 N1393 1.613 . S
S1392 N1394 1.610 . S
N1393 S1392 1.613 . S
N1393 C1396 1.350 . S
N1394 S1392 1.610 . S
N1394 C1395 1.351 . S
C1395 C1389 1.428 . S
C1395 N1394 1.351 . S
C1395 C1396 1.434 . S
C1396 C1387 1.429 . S
C1396 N1393 1.350 . S
C1396 C1395 1.434 . S
C1397 C1398 1.369 . S
C1397 C1399 1.419 . S
C1397 H1401 0.930 . S
C1398 C1397 1.369 . S
C1398 C1407 1.429 . S
C1399 C1397 1.419 . S
C1399 C1400 1.363 . S
C1399 H1402 0.929 . S
C1400 C1399 1.363 . S
C1400 C1406 1.428 . S
H1401 C1397 0.930 . S
H1402 C1399 0.929 . S
S1403 N1404 1.613 . S
S1403 N1405 1.610 . S
N1404 S1403 1.613 . S
N1404 C1407 1.350 . S
N1405 S1403 1.610 . S
N1405 C1406 1.351 . S
C1406 C1400 1.428 . S
C1406 N1405 1.351 . S
C1406 C1407 1.434 . S
C1407 C1398 1.429 . S
C1407 N1404 1.350 . S
C1407 C1406 1.434 . S
C1408 C1409 1.369 . S
C1408 C1410 1.419 . S
C1408 H1412 0.930 . S
C1409 C1408 1.369 . S
C1409 C1418 1.429 . S
C1410 C1408 1.419 . S
C1410 C1411 1.363 . S
C1410 H1413 0.929 . S
C1411 C1410 1.363 . S
C1411 C1417 1.428 . S
H1412 C1408 0.930 . S
H1413 C1410 0.929 . S
S1414 N1415 1.613 . S
S1414 N1416 1.610 . S
N1415 S1414 1.613 . S
N1415 C1418 1.350 . S
N1416 S1414 1.610 . S
N1416 C1417 1.351 . S
C1417 C1411 1.428 . S
C1417 N1416 1.351 . S
C1417 C1418 1.434 . S
C1418 C1409 1.429 . S
C1418 N1415 1.350 . S
C1418 C1417 1.434 . S
C1419 C1420 1.369 . S
C1419 C1421 1.419 . S
C1419 H1423 0.930 . S
C1420 C1419 1.369 . S
C1420 C1429 1.429 . S
C1421 C1419 1.419 . S
C1421 C1422 1.363 . S
C1421 H1424 0.929 . S
C1422 C1421 1.363 . S
C1422 C1428 1.428 . S
H1423 C1419 0.930 . S
H1424 C1421 0.929 . S
S1425 N1426 1.613 . S
S1425 N1427 1.610 . S
N1426 S1425 1.613 . S
N1426 C1429 1.350 . S
N1427 S1425 1.610 . S
N1427 C1428 1.351 . S
C1428 C1422 1.428 . S
C1428 N1427 1.351 . S
C1428 C1429 1.434 . S
C1429 C1420 1.429 . S
C1429 N1426 1.350 . S
C1429 C1428 1.434 . S
C1430 C1431 1.369 . S
C1430 C1432 1.419 . S
C1430 H1434 0.930 . S
C1431 C1430 1.369 . S
C1431 C1440 1.429 . S
C1432 C1430 1.419 . S
C1432 C1433 1.363 . S
C1432 H1435 0.929 . S
C1433 C1432 1.363 . S
C1433 C1439 1.428 . S
H1434 C1430 0.930 . S
H1435 C1432 0.929 . S
S1436 N1437 1.613 . S
S1436 N1438 1.610 . S
N1437 S1436 1.613 . S
N1437 C1440 1.350 . S
N1438 S1436 1.610 . S
N1438 C1439 1.351 . S
C1439 C1433 1.428 . S
C1439 N1438 1.351 . S
C1439 C1440 1.434 . S
C1440 C1431 1.429 . S
C1440 N1437 1.350 . S
C1440 C1439 1.434 . S
C1441 C1442 1.369 . S
C1441 C1443 1.419 . S
C1441 H1445 0.930 . S
C1442 C1441 1.369 . S
C1442 C1451 1.429 . S
C1443 C1441 1.419 . S
C1443 C1444 1.363 . S
C1443 H1446 0.929 . S
C1444 C1443 1.363 . S
C1444 C1450 1.428 . S
H1445 C1441 0.930 . S
H1446 C1443 0.929 . S
S1447 N1448 1.613 . S
S1447 N1449 1.610 . S
N1448 S1447 1.613 . S
N1448 C1451 1.350 . S
N1449 S1447 1.610 . S
N1449 C1450 1.351 . S
C1450 C1444 1.428 . S
C1450 N1449 1.351 . S
C1450 C1451 1.434 . S
C1451 C1442 1.429 . S
C1451 N1448 1.350 . S
C1451 C1450 1.434 . S
C1452 C1453 1.369 . S
C1452 C1454 1.419 . S
C1452 H1456 0.930 . S
C1453 C1452 1.369 . S
C1453 C1462 1.429 . S
C1454 C1452 1.419 . S
C1454 C1455 1.363 . S
C1454 H1457 0.929 . S
C1455 C1454 1.363 . S
C1455 C1461 1.428 . S
H1456 C1452 0.930 . S
H1457 C1454 0.929 . S
S1458 N1459 1.613 . S
S1458 N1460 1.610 . S
N1459 S1458 1.613 . S
N1459 C1462 1.350 . S
N1460 S1458 1.610 . S
N1460 C1461 1.351 . S
C1461 C1455 1.428 . S
C1461 N1460 1.351 . S
C1461 C1462 1.434 . S
C1462 C1453 1.429 . S
C1462 N1459 1.350 . S
C1462 C1461 1.434 . S
C1463 C1464 1.369 . S
C1463 C1465 1.419 . S
C1463 H1467 0.930 . S
C1464 C1463 1.369 . S
C1464 C1473 1.429 . S
C1465 C1463 1.419 . S
C1465 C1466 1.363 . S
C1465 H1468 0.929 . S
C1466 C1465 1.363 . S
C1466 C1472 1.428 . S
H1467 C1463 0.930 . S
H1468 C1465 0.929 . S
S1469 N1470 1.613 . S
S1469 N1471 1.610 . S
N1470 S1469 1.613 . S
N1470 C1473 1.350 . S
N1471 S1469 1.610 . S
N1471 C1472 1.351 . S
C1472 C1466 1.428 . S
C1472 N1471 1.351 . S
C1472 C1473 1.434 . S
C1473 C1464 1.429 . S
C1473 N1470 1.350 . S
C1473 C1472 1.434 . S
C1474 C1475 1.369 . S
C1474 C1476 1.419 . S
C1474 H1478 0.930 . S
C1475 C1474 1.369 . S
C1475 C1484 1.429 . S
C1476 C1474 1.419 . S
C1476 C1477 1.363 . S
C1476 H1479 0.929 . S
C1477 C1476 1.363 . S
C1477 C1483 1.428 . S
H1478 C1474 0.930 . S
H1479 C1476 0.929 . S
S1480 N1481 1.613 . S
S1480 N1482 1.610 . S
N1481 S1480 1.613 . S
N1481 C1484 1.350 . S
N1482 S1480 1.610 . S
N1482 C1483 1.351 . S
C1483 C1477 1.428 . S
C1483 N1482 1.351 . S
C1483 C1484 1.434 . S
C1484 C1475 1.429 . S
C1484 N1481 1.350 . S
C1484 C1483 1.434 . S
C1485 C1486 1.369 . S
C1485 C1487 1.419 . S
C1485 H1489 0.930 . S
C1486 C1485 1.369 . S
C1486 C1495 1.429 . S
C1487 C1485 1.419 . S
C1487 C1488 1.363 . S
C1487 H1490 0.929 . S
C1488 C1487 1.363 . S
C1488 C1494 1.428 . S
H1489 C1485 0.930 . S
H1490 C1487 0.929 . S
S1491 N1492 1.613 . S
S1491 N1493 1.610 . S
N1492 S1491 1.613 . S
N1492 C1495 1.350 . S
N1493 S1491 1.610 . S
N1493 C1494 1.351 . S
C1494 C1488 1.428 . S
C1494 N1493 1.351 . S
C1494 C1495 1.434 . S
C1495 C1486 1.429 . S
C1495 N1492 1.350 . S
C1495 C1494 1.434 . S
C1496 C1497 1.369 . S
C1496 C1498 1.419 . S
C1496 H1500 0.930 . S
C1497 C1496 1.369 . S
C1497 C1506 1.429 . S
C1498 C1496 1.419 . S
C1498 C1499 1.363 . S
C1498 H1501 0.929 . S
C1499 C1498 1.363 . S
C1499 C1505 1.428 . S
H1500 C1496 0.930 . S
H1501 C1498 0.929 . S
S1502 N1503 1.613 . S
S1502 N1504 1.610 . S
N1503 S1502 1.613 . S
N1503 C1506 1.350 . S
N1504 S1502 1.610 . S
N1504 C1505 1.351 . S
C1505 C1499 1.428 . S
C1505 N1504 1.351 . S
C1505 C1506 1.434 . S
C1506 C1497 1.429 . S
C1506 N1503 1.350 . S
C1506 C1505 1.434 . S
C1507 C1508 1.369 . S
C1507 C1509 1.419 . S
C1507 H1511 0.930 . S
C1508 C1507 1.369 . S
C1508 C1517 1.429 . S
C1509 C1507 1.419 . S
C1509 C1510 1.363 . S
C1509 H1512 0.929 . S
C1510 C1509 1.363 . S
C1510 C1516 1.428 . S
H1511 C1507 0.930 . S
H1512 C1509 0.929 . S
S1513 N1514 1.613 . S
S1513 N1515 1.610 . S
N1514 S1513 1.613 . S
N1514 C1517 1.350 . S
N1515 S1513 1.610 . S
N1515 C1516 1.351 . S
C1516 C1510 1.428 . S
C1516 N1515 1.351 . S
C1516 C1517 1.434 . S
C1517 C1508 1.429 . S
C1517 N1514 1.350 . S
C1517 C1516 1.434 . S
C1518 C1519 1.369 . S
C1518 C1520 1.419 . S
C1518 H1522 0.930 . S
C1519 C1518 1.369 . S
C1519 C1528 1.429 . S
C1520 C1518 1.419 . S
C1520 C1521 1.363 . S
C1520 H1523 0.929 . S
C1521 C1520 1.363 . S
C1521 C1527 1.428 . S
H1522 C1518 0.930 . S
H1523 C1520 0.929 . S
S1524 N1525 1.613 . S
S1524 N1526 1.610 . S
N1525 S1524 1.613 . S
N1525 C1528 1.350 . S
N1526 S1524 1.610 . S
N1526 C1527 1.351 . S
C1527 C1521 1.428 . S
C1527 N1526 1.351 . S
C1527 C1528 1.434 . S
C1528 C1519 1.429 . S
C1528 N1525 1.350 . S
C1528 C1527 1.434 . S
C1529 C1530 1.369 . S
C1529 C1531 1.419 . S
C1529 H1533 0.930 . S
C1530 C1529 1.369 . S
C1530 C1539 1.429 . S
C1531 C1529 1.419 . S
C1531 C1532 1.363 . S
C1531 H1534 0.929 . S
C1532 C1531 1.363 . S
C1532 C1538 1.428 . S
H1533 C1529 0.930 . S
H1534 C1531 0.929 . S
S1535 N1536 1.613 . S
S1535 N1537 1.610 . S
N1536 S1535 1.613 . S
N1536 C1539 1.350 . S
N1537 S1535 1.610 . S
N1537 C1538 1.351 . S
C1538 C1532 1.428 . S
C1538 N1537 1.351 . S
C1538 C1539 1.434 . S
C1539 C1530 1.429 . S
C1539 N1536 1.350 . S
C1539 C1538 1.434 . S
C1540 C1541 1.369 . S
C1540 C1542 1.419 . S
C1540 H1544 0.930 . S
C1541 C1540 1.369 . S
C1541 C1550 1.429 . S
C1542 C1540 1.419 . S
C1542 C1543 1.363 . S
C1542 H1545 0.929 . S
C1543 C1542 1.363 . S
C1543 C1549 1.428 . S
H1544 C1540 0.930 . S
H1545 C1542 0.929 . S
S1546 N1547 1.613 . S
S1546 N1548 1.610 . S
N1547 S1546 1.613 . S
N1547 C1550 1.350 . S
N1548 S1546 1.610 . S
N1548 C1549 1.351 . S
C1549 C1543 1.428 . S
C1549 N1548 1.351 . S
C1549 C1550 1.434 . S
C1550 C1541 1.429 . S
C1550 N1547 1.350 . S
C1550 C1549 1.434 . S
C1551 C1552 1.369 . S
C1551 C1553 1.419 . S
C1551 H1555 0.930 . S
C1552 C1551 1.369 . S
C1552 C1561 1.429 . S
C1553 C1551 1.419 . S
C1553 C1554 1.363 . S
C1553 H1556 0.929 . S
C1554 C1553 1.363 . S
C1554 C1560 1.428 . S
H1555 C1551 0.930 . S
H1556 C1553 0.929 . S
S1557 N1558 1.613 . S
S1557 N1559 1.610 . S
N1558 S1557 1.613 . S
N1558 C1561 1.350 . S
N1559 S1557 1.610 . S
N1559 C1560 1.351 . S
C1560 C1554 1.428 . S
C1560 N1559 1.351 . S
C1560 C1561 1.434 . S
C1561 C1552 1.429 . S
C1561 N1558 1.350 . S
C1561 C1560 1.434 . S
C1562 C1563 1.369 . S
C1562 C1564 1.419 . S
C1562 H1566 0.930 . S
C1563 C1562 1.369 . S
C1563 C1572 1.429 . S
C1564 C1562 1.419 . S
C1564 C1565 1.363 . S
C1564 H1567 0.929 . S
C1565 C1564 1.363 . S
C1565 C1571 1.428 . S
H1566 C1562 0.930 . S
H1567 C1564 0.929 . S
S1568 N1569 1.613 . S
S1568 N1570 1.610 . S
N1569 S1568 1.613 . S
N1569 C1572 1.350 . S
N1570 S1568 1.610 . S
N1570 C1571 1.351 . S
C1571 C1565 1.428 . S
C1571 N1570 1.351 . S
C1571 C1572 1.434 . S
C1572 C1563 1.429 . S
C1572 N1569 1.350 . S
C1572 C1571 1.434 . S
C1573 C1574 1.369 . S
C1573 C1575 1.419 . S
C1573 H1577 0.930 . S
C1574 C1573 1.369 . S
C1574 C1583 1.429 . S
C1575 C1573 1.419 . S
C1575 C1576 1.363 . S
C1575 H1578 0.929 . S
C1576 C1575 1.363 . S
C1576 C1582 1.428 . S
H1577 C1573 0.930 . S
H1578 C1575 0.929 . S
S1579 N1580 1.613 . S
S1579 N1581 1.610 . S
N1580 S1579 1.613 . S
N1580 C1583 1.350 . S
N1581 S1579 1.610 . S
N1581 C1582 1.351 . S
C1582 C1576 1.428 . S
C1582 N1581 1.351 . S
C1582 C1583 1.434 . S
C1583 C1574 1.429 . S
C1583 N1580 1.350 . S
C1583 C1582 1.434 . S
C1584 C1585 1.369 . S
C1584 C1586 1.419 . S
C1584 H1588 0.930 . S
C1585 C1584 1.369 . S
C1585 C1594 1.429 . S
C1586 C1584 1.419 . S
C1586 C1587 1.363 . S
C1586 H1589 0.929 . S
C1587 C1586 1.363 . S
C1587 C1593 1.428 . S
H1588 C1584 0.930 . S
H1589 C1586 0.929 . S
S1590 N1591 1.613 . S
S1590 N1592 1.610 . S
N1591 S1590 1.613 . S
N1591 C1594 1.350 . S
N1592 S1590 1.610 . S
N1592 C1593 1.351 . S
C1593 C1587 1.428 . S
C1593 N1592 1.351 . S
C1593 C1594 1.434 . S
C1594 C1585 1.429 . S
C1594 N1591 1.350 . S
C1594 C1593 1.434 . S
C1595 C1596 1.369 . S
C1595 C1597 1.419 . S
C1595 H1599 0.930 . S
C1596 C1595 1.369 . S
C1596 C1605 1.429 . S
C1597 C1595 1.419 . S
C1597 C1598 1.363 . S
C1597 H1600 0.929 . S
C1598 C1597 1.363 . S
C1598 C1604 1.428 . S
H1599 C1595 0.930 . S
H1600 C1597 0.929 . S
S1601 N1602 1.613 . S
S1601 N1603 1.610 . S
N1602 S1601 1.613 . S
N1602 C1605 1.350 . S
N1603 S1601 1.610 . S
N1603 C1604 1.351 . S
C1604 C1598 1.428 . S
C1604 N1603 1.351 . S
C1604 C1605 1.434 . S
C1605 C1596 1.429 . S
C1605 N1602 1.350 . S
C1605 C1604 1.434 . S
C1606 C1607 1.369 . S
C1606 C1608 1.419 . S
C1606 H1610 0.930 . S
C1607 C1606 1.369 . S
C1607 C1616 1.429 . S
C1608 C1606 1.419 . S
C1608 C1609 1.363 . S
C1608 H1611 0.929 . S
C1609 C1608 1.363 . S
C1609 C1615 1.428 . S
H1610 C1606 0.930 . S
H1611 C1608 0.929 . S
S1612 N1613 1.613 . S
S1612 N1614 1.610 . S
N1613 S1612 1.613 . S
N1613 C1616 1.350 . S
N1614 S1612 1.610 . S
N1614 C1615 1.351 . S
C1615 C1609 1.428 . S
C1615 N1614 1.351 . S
C1615 C1616 1.434 . S
C1616 C1607 1.429 . S
C1616 N1613 1.350 . S
C1616 C1615 1.434 . S
C1617 C1618 1.369 . S
C1617 C1619 1.419 . S
C1617 H1621 0.930 . S
C1618 C1617 1.369 . S
C1618 C1627 1.429 . S
C1619 C1617 1.419 . S
C1619 C1620 1.363 . S
C1619 H1622 0.929 . S
C1620 C1619 1.363 . S
C1620 C1626 1.428 . S
H1621 C1617 0.930 . S
H1622 C1619 0.929 . S
S1623 N1624 1.613 . S
S1623 N1625 1.610 . S
N1624 S1623 1.613 . S
N1624 C1627 1.350 . S
N1625 S1623 1.610 . S
N1625 C1626 1.351 . S
C1626 C1620 1.428 . S
C1626 N1625 1.351 . S
C1626 C1627 1.434 . S
C1627 C1618 1.429 . S
C1627 N1624 1.350 . S
C1627 C1626 1.434 . S
C1628 C1629 1.369 . S
C1628 C1630 1.419 . S
C1628 H1632 0.930 . S
C1629 C1628 1.369 . S
C1629 C1638 1.429 . S
C1630 C1628 1.419 . S
C1630 C1631 1.363 . S
C1630 H1633 0.929 . S
C1631 C1630 1.363 . S
C1631 C1637 1.428 . S
H1632 C1628 0.930 . S
H1633 C1630 0.929 . S
S1634 N1635 1.613 . S
S1634 N1636 1.610 . S
N1635 S1634 1.613 . S
N1635 C1638 1.350 . S
N1636 S1634 1.610 . S
N1636 C1637 1.351 . S
C1637 C1631 1.428 . S
C1637 N1636 1.351 . S
C1637 C1638 1.434 . S
C1638 C1629 1.429 . S
C1638 N1635 1.350 . S
C1638 C1637 1.434 . S
C1639 C1640 1.369 . S
C1639 C1641 1.419 . S
C1639 H1643 0.930 . S
C1640 C1639 1.369 . S
C1640 C1649 1.429 . S
C1641 C1639 1.419 . S
C1641 C1642 1.363 . S
C1641 H1644 0.929 . S
C1642 C1641 1.363 . S
C1642 C1648 1.428 . S
H1643 C1639 0.930 . S
H1644 C1641 0.929 . S
S1645 N1646 1.613 . S
S1645 N1647 1.610 . S
N1646 S1645 1.613 . S
N1646 C1649 1.350 . S
N1647 S1645 1.610 . S
N1647 C1648 1.351 . S
C1648 C1642 1.428 . S
C1648 N1647 1.351 . S
C1648 C1649 1.434 . S
C1649 C1640 1.429 . S
C1649 N1646 1.350 . S
C1649 C1648 1.434 . S
C1650 C1651 1.369 . S
C1650 C1652 1.419 . S
C1650 H1654 0.930 . S
C1651 C1650 1.369 . S
C1651 C1660 1.429 . S
C1652 C1650 1.419 . S
C1652 C1653 1.363 . S
C1652 H1655 0.929 . S
C1653 C1652 1.363 . S
C1653 C1659 1.428 . S
H1654 C1650 0.930 . S
H1655 C1652 0.929 . S
S1656 N1657 1.613 . S
S1656 N1658 1.610 . S
N1657 S1656 1.613 . S
N1657 C1660 1.350 . S
N1658 S1656 1.610 . S
N1658 C1659 1.351 . S
C1659 C1653 1.428 . S
C1659 N1658 1.351 . S
C1659 C1660 1.434 . S
C1660 C1651 1.429 . S
C1660 N1657 1.350 . S
C1660 C1659 1.434 . S
C1661 C1662 1.369 . S
C1661 C1663 1.419 . S
C1661 H1665 0.930 . S
C1662 C1661 1.369 . S
C1662 C1671 1.429 . S
C1663 C1661 1.419 . S
C1663 C1664 1.363 . S
C1663 H1666 0.929 . S
C1664 C1663 1.363 . S
C1664 C1670 1.428 . S
H1665 C1661 0.930 . S
H1666 C1663 0.929 . S
S1667 N1668 1.613 . S
S1667 N1669 1.610 . S
N1668 S1667 1.613 . S
N1668 C1671 1.350 . S
N1669 S1667 1.610 . S
N1669 C1670 1.351 . S
C1670 C1664 1.428 . S
C1670 N1669 1.351 . S
C1670 C1671 1.434 . S
C1671 C1662 1.429 . S
C1671 N1668 1.350 . S
C1671 C1670 1.434 . S
C1672 C1673 1.369 . S
C1672 C1674 1.419 . S
C1672 H1676 0.930 . S
C1673 C1672 1.369 . S
C1673 C1682 1.429 . S
C1674 C1672 1.419 . S
C1674 C1675 1.363 . S
C1674 H1677 0.929 . S
C1675 C1674 1.363 . S
C1675 C1681 1.428 . S
H1676 C1672 0.930 . S
H1677 C1674 0.929 . S
S1678 N1679 1.613 . S
S1678 N1680 1.610 . S
N1679 S1678 1.613 . S
N1679 C1682 1.350 . S
N1680 S1678 1.610 . S
N1680 C1681 1.351 . S
C1681 C1675 1.428 . S
C1681 N1680 1.351 . S
C1681 C1682 1.434 . S
C1682 C1673 1.429 . S
C1682 N1679 1.350 . S
C1682 C1681 1.434 . S
C1683 C1684 1.369 . S
C1683 C1685 1.419 . S
C1683 H1687 0.930 . S
C1684 C1683 1.369 . S
C1684 C1693 1.429 . S
C1685 C1683 1.419 . S
C1685 C1686 1.363 . S
C1685 H1688 0.929 . S
C1686 C1685 1.363 . S
C1686 C1692 1.428 . S
H1687 C1683 0.930 . S
H1688 C1685 0.929 . S
S1689 N1690 1.613 . S
S1689 N1691 1.610 . S
N1690 S1689 1.613 . S
N1690 C1693 1.350 . S
N1691 S1689 1.610 . S
N1691 C1692 1.351 . S
C1692 C1686 1.428 . S
C1692 N1691 1.351 . S
C1692 C1693 1.434 . S
C1693 C1684 1.429 . S
C1693 N1690 1.350 . S
C1693 C1692 1.434 . S
C1694 C1695 1.369 . S
C1694 C1696 1.419 . S
C1694 H1698 0.930 . S
C1695 C1694 1.369 . S
C1695 C1704 1.429 . S
C1696 C1694 1.419 . S
C1696 C1697 1.363 . S
C1696 H1699 0.929 . S
C1697 C1696 1.363 . S
C1697 C1703 1.428 . S
H1698 C1694 0.930 . S
H1699 C1696 0.929 . S
S1700 N1701 1.613 . S
S1700 N1702 1.610 . S
N1701 S1700 1.613 . S
N1701 C1704 1.350 . S
N1702 S1700 1.610 . S
N1702 C1703 1.351 . S
C1703 C1697 1.428 . S
C1703 N1702 1.351 . S
C1703 C1704 1.434 . S
C1704 C1695 1.429 . S
C1704 N1701 1.350 . S
C1704 C1703 1.434 . S
C1705 C1706 1.369 . S
C1705 C1707 1.419 . S
C1705 H1709 0.930 . S
C1706 C1705 1.369 . S
C1706 C1715 1.429 . S
C1707 C1705 1.419 . S
C1707 C1708 1.363 . S
C1707 H1710 0.929 . S
C1708 C1707 1.363 . S
C1708 C1714 1.428 . S
H1709 C1705 0.930 . S
H1710 C1707 0.929 . S
S1711 N1712 1.613 . S
S1711 N1713 1.610 . S
N1712 S1711 1.613 . S
N1712 C1715 1.350 . S
N1713 S1711 1.610 . S
N1713 C1714 1.351 . S
C1714 C1708 1.428 . S
C1714 N1713 1.351 . S
C1714 C1715 1.434 . S
C1715 C1706 1.429 . S
C1715 N1712 1.350 . S
C1715 C1714 1.434 . S
C1716 C1717 1.369 . S
C1716 C1718 1.419 . S
C1716 H1720 0.930 . S
C1717 C1716 1.369 . S
C1717 C1726 1.429 . S
C1718 C1716 1.419 . S
C1718 C1719 1.363 . S
C1718 H1721 0.929 . S
C1719 C1718 1.363 . S
C1719 C1725 1.428 . S
H1720 C1716 0.930 . S
H1721 C1718 0.929 . S
S1722 N1723 1.613 . S
S1722 N1724 1.610 . S
N1723 S1722 1.613 . S
N1723 C1726 1.350 . S
N1724 S1722 1.610 . S
N1724 C1725 1.351 . S
C1725 C1719 1.428 . S
C1725 N1724 1.351 . S
C1725 C1726 1.434 . S
C1726 C1717 1.429 . S
C1726 N1723 1.350 . S
C1726 C1725 1.434 . S
C1727 C1728 1.369 . S
C1727 C1729 1.419 . S
C1727 H1731 0.930 . S
C1728 C1727 1.369 . S
C1728 C1737 1.429 . S
C1729 C1727 1.419 . S
C1729 C1730 1.363 . S
C1729 H1732 0.929 . S
C1730 C1729 1.363 . S
C1730 C1736 1.428 . S
H1731 C1727 0.930 . S
H1732 C1729 0.929 . S
S1733 N1734 1.613 . S
S1733 N1735 1.610 . S
N1734 S1733 1.613 . S
N1734 C1737 1.350 . S
N1735 S1733 1.610 . S
N1735 C1736 1.351 . S
C1736 C1730 1.428 . S
C1736 N1735 1.351 . S
C1736 C1737 1.434 . S
C1737 C1728 1.429 . S
C1737 N1734 1.350 . S
C1737 C1736 1.434 . S
C1738 C1739 1.369 . S
C1738 C1740 1.419 . S
C1738 H1742 0.930 . S
C1739 C1738 1.369 . S
C1739 C1748 1.429 . S
C1740 C1738 1.419 . S
C1740 C1741 1.363 . S
C1740 H1743 0.929 . S
C1741 C1740 1.363 . S
C1741 C1747 1.428 . S
H1742 C1738 0.930 . S
H1743 C1740 0.929 . S
S1744 N1745 1.613 . S
S1744 N1746 1.610 . S
N1745 S1744 1.613 . S
N1745 C1748 1.350 . S
N1746 S1744 1.610 . S
N1746 C1747 1.351 . S
C1747 C1741 1.428 . S
C1747 N1746 1.351 . S
C1747 C1748 1.434 . S
C1748 C1739 1.429 . S
C1748 N1745 1.350 . S
C1748 C1747 1.434 . S
C1749 C1750 1.369 . S
C1749 C1751 1.419 . S
C1749 H1753 0.930 . S
C1750 C1749 1.369 . S
C1750 C1759 1.429 . S
C1751 C1749 1.419 . S
C1751 C1752 1.363 . S
C1751 H1754 0.929 . S
C1752 C1751 1.363 . S
C1752 C1758 1.428 . S
H1753 C1749 0.930 . S
H1754 C1751 0.929 . S
S1755 N1756 1.613 . S
S1755 N1757 1.610 . S
N1756 S1755 1.613 . S
N1756 C1759 1.350 . S
N1757 S1755 1.610 . S
N1757 C1758 1.351 . S
C1758 C1752 1.428 . S
C1758 N1757 1.351 . S
C1758 C1759 1.434 . S
C1759 C1750 1.429 . S
C1759 N1756 1.350 . S
C1759 C1758 1.434 . S
C1760 C1761 1.369 . S
C1760 C1762 1.419 . S
C1760 H1764 0.930 . S
C1761 C1760 1.369 . S
C1761 C1770 1.429 . S
C1762 C1760 1.419 . S
C1762 C1763 1.363 . S
C1762 H1765 0.929 . S
C1763 C1762 1.363 . S
C1763 C1769 1.428 . S
H1764 C1760 0.930 . S
H1765 C1762 0.929 . S
S1766 N1767 1.613 . S
S1766 N1768 1.610 . S
N1767 S1766 1.613 . S
N1767 C1770 1.350 . S
N1768 S1766 1.610 . S
N1768 C1769 1.351 . S
C1769 C1763 1.428 . S
C1769 N1768 1.351 . S
C1769 C1770 1.434 . S
C1770 C1761 1.429 . S
C1770 N1767 1.350 . S
C1770 C1769 1.434 . S
C1771 C1772 1.369 . S
C1771 C1773 1.419 . S
C1771 H1775 0.930 . S
C1772 C1771 1.369 . S
C1772 C1781 1.429 . S
C1773 C1771 1.419 . S
C1773 C1774 1.363 . S
C1773 H1776 0.929 . S
C1774 C1773 1.363 . S
C1774 C1780 1.428 . S
H1775 C1771 0.930 . S
H1776 C1773 0.929 . S
S1777 N1778 1.613 . S
S1777 N1779 1.610 . S
N1778 S1777 1.613 . S
N1778 C1781 1.350 . S
N1779 S1777 1.610 . S
N1779 C1780 1.351 . S
C1780 C1774 1.428 . S
C1780 N1779 1.351 . S
C1780 C1781 1.434 . S
C1781 C1772 1.429 . S
C1781 N1778 1.350 . S
C1781 C1780 1.434 . S
C1782 C1783 1.369 . S
C1782 C1784 1.419 . S
C1782 H1786 0.930 . S
C1783 C1782 1.369 . S
C1783 C1792 1.429 . S
C1784 C1782 1.419 . S
C1784 C1785 1.363 . S
C1784 H1787 0.929 . S
C1785 C1784 1.363 . S
C1785 C1791 1.428 . S
H1786 C1782 0.930 . S
H1787 C1784 0.929 . S
S1788 N1789 1.613 . S
S1788 N1790 1.610 . S
N1789 S1788 1.613 . S
N1789 C1792 1.350 . S
N1790 S1788 1.610 . S
N1790 C1791 1.351 . S
C1791 C1785 1.428 . S
C1791 N1790 1.351 . S
C1791 C1792 1.434 . S
C1792 C1783 1.429 . S
C1792 N1789 1.350 . S
C1792 C1791 1.434 . S
C1793 C1794 1.369 . S
C1793 C1795 1.419 . S
C1793 H1797 0.930 . S
C1794 C1793 1.369 . S
C1794 C1803 1.429 . S
C1795 C1793 1.419 . S
C1795 C1796 1.363 . S
C1795 H1798 0.929 . S
C1796 C1795 1.363 . S
C1796 C1802 1.428 . S
H1797 C1793 0.930 . S
H1798 C1795 0.929 . S
S1799 N1800 1.613 . S
S1799 N1801 1.610 . S
N1800 S1799 1.613 . S
N1800 C1803 1.350 . S
N1801 S1799 1.610 . S
N1801 C1802 1.351 . S
C1802 C1796 1.428 . S
C1802 N1801 1.351 . S
C1802 C1803 1.434 . S
C1803 C1794 1.429 . S
C1803 N1800 1.350 . S
C1803 C1802 1.434 . S
C1804 C1805 1.369 . S
C1804 C1806 1.419 . S
C1804 H1808 0.930 . S
C1805 C1804 1.369 . S
C1805 C1814 1.429 . S
C1806 C1804 1.419 . S
C1806 C1807 1.363 . S
C1806 H1809 0.929 . S
C1807 C1806 1.363 . S
C1807 C1813 1.428 . S
H1808 C1804 0.930 . S
H1809 C1806 0.929 . S
S1810 N1811 1.613 . S
S1810 N1812 1.610 . S
N1811 S1810 1.613 . S
N1811 C1814 1.350 . S
N1812 S1810 1.610 . S
N1812 C1813 1.351 . S
C1813 C1807 1.428 . S
C1813 N1812 1.351 . S
C1813 C1814 1.434 . S
C1814 C1805 1.429 . S
C1814 N1811 1.350 . S
C1814 C1813 1.434 . S
C1815 C1816 1.369 . S
C1815 C1817 1.419 . S
C1815 H1819 0.930 . S
C1816 C1815 1.369 . S
C1816 C1825 1.429 . S
C1817 C1815 1.419 . S
C1817 C1818 1.363 . S
C1817 H1820 0.929 . S
C1818 C1817 1.363 . S
C1818 C1824 1.428 . S
H1819 C1815 0.930 . S
H1820 C1817 0.929 . S
S1821 N1822 1.613 . S
S1821 N1823 1.610 . S
N1822 S1821 1.613 . S
N1822 C1825 1.350 . S
N1823 S1821 1.610 . S
N1823 C1824 1.351 . S
C1824 C1818 1.428 . S
C1824 N1823 1.351 . S
C1824 C1825 1.434 . S
C1825 C1816 1.429 . S
C1825 N1822 1.350 . S
C1825 C1824 1.434 . S
C1826 C1827 1.369 . S
C1826 C1828 1.419 . S
C1826 H1830 0.930 . S
C1827 C1826 1.369 . S
C1827 C1836 1.429 . S
C1828 C1826 1.419 . S
C1828 C1829 1.363 . S
C1828 H1831 0.929 . S
C1829 C1828 1.363 . S
C1829 C1835 1.428 . S
H1830 C1826 0.930 . S
H1831 C1828 0.929 . S
S1832 N1833 1.613 . S
S1832 N1834 1.610 . S
N1833 S1832 1.613 . S
N1833 C1836 1.350 . S
N1834 S1832 1.610 . S
N1834 C1835 1.351 . S
C1835 C1829 1.428 . S
C1835 N1834 1.351 . S
C1835 C1836 1.434 . S
C1836 C1827 1.429 . S
C1836 N1833 1.350 . S
C1836 C1835 1.434 . S
C1837 C1838 1.369 . S
C1837 C1839 1.419 . S
C1837 H1841 0.930 . S
C1838 C1837 1.369 . S
C1838 C1847 1.429 . S
C1839 C1837 1.419 . S
C1839 C1840 1.363 . S
C1839 H1842 0.929 . S
C1840 C1839 1.363 . S
C1840 C1846 1.428 . S
H1841 C1837 0.930 . S
H1842 C1839 0.929 . S
S1843 N1844 1.613 . S
S1843 N1845 1.610 . S
N1844 S1843 1.613 . S
N1844 C1847 1.350 . S
N1845 S1843 1.610 . S
N1845 C1846 1.351 . S
C1846 C1840 1.428 . S
C1846 N1845 1.351 . S
C1846 C1847 1.434 . S
C1847 C1838 1.429 . S
C1847 N1844 1.350 . S
C1847 C1846 1.434 . S
C1848 C1849 1.369 . S
C1848 C1850 1.419 . S
C1848 H1852 0.930 . S
C1849 C1848 1.369 . S
C1849 C1858 1.429 . S
C1850 C1848 1.419 . S
C1850 C1851 1.363 . S
C1850 H1853 0.929 . S
C1851 C1850 1.363 . S
C1851 C1857 1.428 . S
H1852 C1848 0.930 . S
H1853 C1850 0.929 . S
S1854 N1855 1.613 . S
S1854 N1856 1.610 . S
N1855 S1854 1.613 . S
N1855 C1858 1.350 . S
N1856 S1854 1.610 . S
N1856 C1857 1.351 . S
C1857 C1851 1.428 . S
C1857 N1856 1.351 . S
C1857 C1858 1.434 . S
C1858 C1849 1.429 . S
C1858 N1855 1.350 . S
C1858 C1857 1.434 . S
C1859 C1860 1.369 . S
C1859 C1861 1.419 . S
C1859 H1863 0.930 . S
C1860 C1859 1.369 . S
C1860 C1869 1.429 . S
C1861 C1859 1.419 . S
C1861 C1862 1.363 . S
C1861 H1864 0.929 . S
C1862 C1861 1.363 . S
C1862 C1868 1.428 . S
H1863 C1859 0.930 . S
H1864 C1861 0.929 . S
S1865 N1866 1.613 . S
S1865 N1867 1.610 . S
N1866 S1865 1.613 . S
N1866 C1869 1.350 . S
N1867 S1865 1.610 . S
N1867 C1868 1.351 . S
C1868 C1862 1.428 . S
C1868 N1867 1.351 . S
C1868 C1869 1.434 . S
C1869 C1860 1.429 . S
C1869 N1866 1.350 . S
C1869 C1868 1.434 . S
C1870 C1871 1.369 . S
C1870 C1872 1.419 . S
C1870 H1874 0.930 . S
C1871 C1870 1.369 . S
C1871 C1880 1.429 . S
C1872 C1870 1.419 . S
C1872 C1873 1.363 . S
C1872 H1875 0.929 . S
C1873 C1872 1.363 . S
C1873 C1879 1.428 . S
H1874 C1870 0.930 . S
H1875 C1872 0.929 . S
S1876 N1877 1.613 . S
S1876 N1878 1.610 . S
N1877 S1876 1.613 . S
N1877 C1880 1.350 . S
N1878 S1876 1.610 . S
N1878 C1879 1.351 . S
C1879 C1873 1.428 . S
C1879 N1878 1.351 . S
C1879 C1880 1.434 . S
C1880 C1871 1.429 . S
C1880 N1877 1.350 . S
C1880 C1879 1.434 . S
C1881 C1882 1.369 . S
C1881 C1883 1.419 . S
C1881 H1885 0.930 . S
C1882 C1881 1.369 . S
C1882 C1891 1.429 . S
C1883 C1881 1.419 . S
C1883 C1884 1.363 . S
C1883 H1886 0.929 . S
C1884 C1883 1.363 . S
C1884 C1890 1.428 . S
H1885 C1881 0.930 . S
H1886 C1883 0.929 . S
S1887 N1888 1.613 . S
S1887 N1889 1.610 . S
N1888 S1887 1.613 . S
N1888 C1891 1.350 . S
N1889 S1887 1.610 . S
N1889 C1890 1.351 . S
C1890 C1884 1.428 . S
C1890 N1889 1.351 . S
C1890 C1891 1.434 . S
C1891 C1882 1.429 . S
C1891 N1888 1.350 . S
C1891 C1890 1.434 . S
C1892 C1893 1.369 . S
C1892 C1894 1.419 . S
C1892 H1896 0.930 . S
C1893 C1892 1.369 . S
C1893 C1902 1.429 . S
C1894 C1892 1.419 . S
C1894 C1895 1.363 . S
C1894 H1897 0.929 . S
C1895 C1894 1.363 . S
C1895 C1901 1.428 . S
H1896 C1892 0.930 . S
H1897 C1894 0.929 . S
S1898 N1899 1.613 . S
S1898 N1900 1.610 . S
N1899 S1898 1.613 . S
N1899 C1902 1.350 . S
N1900 S1898 1.610 . S
N1900 C1901 1.351 . S
C1901 C1895 1.428 . S
C1901 N1900 1.351 . S
C1901 C1902 1.434 . S
C1902 C1893 1.429 . S
C1902 N1899 1.350 . S
C1902 C1901 1.434 . S
C1903 C1904 1.369 . S
C1903 C1905 1.419 . S
C1903 H1907 0.930 . S
C1904 C1903 1.369 . S
C1904 C1913 1.429 . S
C1905 C1903 1.419 . S
C1905 C1906 1.363 . S
C1905 H1908 0.929 . S
C1906 C1905 1.363 . S
C1906 C1912 1.428 . S
H1907 C1903 0.930 . S
H1908 C1905 0.929 . S
S1909 N1910 1.613 . S
S1909 N1911 1.610 . S
N1910 S1909 1.613 . S
N1910 C1913 1.350 . S
N1911 S1909 1.610 . S
N1911 C1912 1.351 . S
C1912 C1906 1.428 . S
C1912 N1911 1.351 . S
C1912 C1913 1.434 . S
C1913 C1904 1.429 . S
C1913 N1910 1.350 . S
C1913 C1912 1.434 . S
C1914 C1915 1.369 . S
C1914 C1916 1.419 . S
C1914 H1918 0.930 . S
C1915 C1914 1.369 . S
C1915 C1924 1.429 . S
C1916 C1914 1.419 . S
C1916 C1917 1.363 . S
C1916 H1919 0.929 . S
C1917 C1916 1.363 . S
C1917 C1923 1.428 . S
H1918 C1914 0.930 . S
H1919 C1916 0.929 . S
S1920 N1921 1.613 . S
S1920 N1922 1.610 . S
N1921 S1920 1.613 . S
N1921 C1924 1.350 . S
N1922 S1920 1.610 . S
N1922 C1923 1.351 . S
C1923 C1917 1.428 . S
C1923 N1922 1.351 . S
C1923 C1924 1.434 . S
C1924 C1915 1.429 . S
C1924 N1921 1.350 . S
C1924 C1923 1.434 . S
C1925 C1926 1.369 . S
C1925 C1927 1.419 . S
C1925 H1929 0.930 . S
C1926 C1925 1.369 . S
C1926 C1935 1.429 . S
C1927 C1925 1.419 . S
C1927 C1928 1.363 . S
C1927 H1930 0.929 . S
C1928 C1927 1.363 . S
C1928 C1934 1.428 . S
H1929 C1925 0.930 . S
H1930 C1927 0.929 . S
S1931 N1932 1.613 . S
S1931 N1933 1.610 . S
N1932 S1931 1.613 . S
N1932 C1935 1.350 . S
N1933 S1931 1.610 . S
N1933 C1934 1.351 . S
C1934 C1928 1.428 . S
C1934 N1933 1.351 . S
C1934 C1935 1.434 . S
C1935 C1926 1.429 . S
C1935 N1932 1.350 . S
C1935 C1934 1.434 . S
C1936 C1937 1.369 . S
C1936 C1938 1.419 . S
C1936 H1940 0.930 . S
C1937 C1936 1.369 . S
C1937 C1946 1.429 . S
C1938 C1936 1.419 . S
C1938 C1939 1.363 . S
C1938 H1941 0.929 . S
C1939 C1938 1.363 . S
C1939 C1945 1.428 . S
H1940 C1936 0.930 . S
H1941 C1938 0.929 . S
S1942 N1943 1.613 . S
S1942 N1944 1.610 . S
N1943 S1942 1.613 . S
N1943 C1946 1.350 . S
N1944 S1942 1.610 . S
N1944 C1945 1.351 . S
C1945 C1939 1.428 . S
C1945 N1944 1.351 . S
C1945 C1946 1.434 . S
C1946 C1937 1.429 . S
C1946 N1943 1.350 . S
C1946 C1945 1.434 . S
C1947 C1948 1.369 . S
C1947 C1949 1.419 . S
C1947 H1951 0.930 . S
C1948 C1947 1.369 . S
C1948 C1957 1.429 . S
C1949 C1947 1.419 . S
C1949 C1950 1.363 . S
C1949 H1952 0.929 . S
C1950 C1949 1.363 . S
C1950 C1956 1.428 . S
H1951 C1947 0.930 . S
H1952 C1949 0.929 . S
S1953 N1954 1.613 . S
S1953 N1955 1.610 . S
N1954 S1953 1.613 . S
N1954 C1957 1.350 . S
N1955 S1953 1.610 . S
N1955 C1956 1.351 . S
C1956 C1950 1.428 . S
C1956 N1955 1.351 . S
C1956 C1957 1.434 . S
C1957 C1948 1.429 . S
C1957 N1954 1.350 . S
C1957 C1956 1.434 . S
C1958 C1959 1.369 . S
C1958 C1960 1.419 . S
C1958 H1962 0.930 . S
C1959 C1958 1.369 . S
C1959 C1968 1.429 . S
C1960 C1958 1.419 . S
C1960 C1961 1.363 . S
C1960 H1963 0.929 . S
C1961 C1960 1.363 . S
C1961 C1967 1.428 . S
H1962 C1958 0.930 . S
H1963 C1960 0.929 . S
S1964 N1965 1.613 . S
S1964 N1966 1.610 . S
N1965 S1964 1.613 . S
N1965 C1968 1.350 . S
N1966 S1964 1.610 . S
N1966 C1967 1.351 . S
C1967 C1961 1.428 . S
C1967 N1966 1.351 . S
C1967 C1968 1.434 . S
C1968 C1959 1.429 . S
C1968 N1965 1.350 . S
C1968 C1967 1.434 . S
C1969 C1970 1.369 . S
C1969 C1971 1.419 . S
C1969 H1973 0.930 . S
C1970 C1969 1.369 . S
C1970 C1979 1.429 . S
C1971 C1969 1.419 . S
C1971 C1972 1.363 . S
C1971 H1974 0.929 . S
C1972 C1971 1.363 . S
C1972 C1978 1.428 . S
H1973 C1969 0.930 . S
H1974 C1971 0.929 . S
S1975 N1976 1.613 . S
S1975 N1977 1.610 . S
N1976 S1975 1.613 . S
N1976 C1979 1.350 . S
N1977 S1975 1.610 . S
N1977 C1978 1.351 . S
C1978 C1972 1.428 . S
C1978 N1977 1.351 . S
C1978 C1979 1.434 . S
C1979 C1970 1.429 . S
C1979 N1976 1.350 . S
C1979 C1978 1.434 . S
C1980 C1981 1.369 . S
C1980 C1982 1.419 . S
C1980 H1984 0.930 . S
C1981 C1980 1.369 . S
C1981 C1990 1.429 . S
C1982 C1980 1.419 . S
C1982 C1983 1.363 . S
C1982 H1985 0.929 . S
C1983 C1982 1.363 . S
C1983 C1989 1.428 . S
H1984 C1980 0.930 . S
H1985 C1982 0.929 . S
S1986 N1987 1.613 . S
S1986 N1988 1.610 . S
N1987 S1986 1.613 . S
N1987 C1990 1.350 . S
N1988 S1986 1.610 . S
N1988 C1989 1.351 . S
C1989 C1983 1.428 . S
C1989 N1988 1.351 . S
C1989 C1990 1.434 . S
C1990 C1981 1.429 . S
C1990 N1987 1.350 . S
C1990 C1989 1.434 . S
C1991 C1992 1.369 . S
C1991 C1993 1.419 . S
C1991 H1995 0.930 . S
C1992 C1991 1.369 . S
C1992 C2001 1.429 . S
C1993 C1991 1.419 . S
C1993 C1994 1.363 . S
C1993 H1996 0.929 . S
C1994 C1993 1.363 . S
C1994 C2000 1.428 . S
H1995 C1991 0.930 . S
H1996 C1993 0.929 . S
S1997 N1998 1.613 . S
S1997 N1999 1.610 . S
N1998 S1997 1.613 . S
N1998 C2001 1.350 . S
N1999 S1997 1.610 . S
N1999 C2000 1.351 . S
C2000 C1994 1.428 . S
C2000 N1999 1.351 . S
C2000 C2001 1.434 . S
C2001 C1992 1.429 . S
C2001 N1998 1.350 . S
C2001 C2000 1.434 . S
C2002 C2003 1.369 . S
C2002 C2004 1.419 . S
C2002 H2006 0.930 . S
C2003 C2002 1.369 . S
C2003 C2012 1.429 . S
C2004 C2002 1.419 . S
C2004 C2005 1.363 . S
C2004 H2007 0.929 . S
C2005 C2004 1.363 . S
C2005 C2011 1.428 . S
H2006 C2002 0.930 . S
H2007 C2004 0.929 . S
S2008 N2009 1.613 . S
S2008 N2010 1.610 . S
N2009 S2008 1.613 . S
N2009 C2012 1.350 . S
N2010 S2008 1.610 . S
N2010 C2011 1.351 . S
C2011 C2005 1.428 . S
C2011 N2010 1.351 . S
C2011 C2012 1.434 . S
C2012 C2003 1.429 . S
C2012 N2009 1.350 . S
C2012 C2011 1.434 . S
C2013 C2014 1.369 . S
C2013 C2015 1.419 . S
C2013 H2017 0.930 . S
C2014 C2013 1.369 . S
C2014 C2023 1.429 . S
C2015 C2013 1.419 . S
C2015 C2016 1.363 . S
C2015 H2018 0.929 . S
C2016 C2015 1.363 . S
C2016 C2022 1.428 . S
H2017 C2013 0.930 . S
H2018 C2015 0.929 . S
S2019 N2020 1.613 . S
S2019 N2021 1.610 . S
N2020 S2019 1.613 . S
N2020 C2023 1.350 . S
N2021 S2019 1.610 . S
N2021 C2022 1.351 . S
C2022 C2016 1.428 . S
C2022 N2021 1.351 . S
C2022 C2023 1.434 . S
C2023 C2014 1.429 . S
C2023 N2020 1.350 . S
C2023 C2022 1.434 . S
C2024 C2025 1.369 . S
C2024 C2026 1.419 . S
C2024 H2028 0.930 . S
C2025 C2024 1.369 . S
C2025 C2034 1.429 . S
C2026 C2024 1.419 . S
C2026 C2027 1.363 . S
C2026 H2029 0.929 . S
C2027 C2026 1.363 . S
C2027 C2033 1.428 . S
H2028 C2024 0.930 . S
H2029 C2026 0.929 . S
S2030 N2031 1.613 . S
S2030 N2032 1.610 . S
N2031 S2030 1.613 . S
N2031 C2034 1.350 . S
N2032 S2030 1.610 . S
N2032 C2033 1.351 . S
C2033 C2027 1.428 . S
C2033 N2032 1.351 . S
C2033 C2034 1.434 . S
C2034 C2025 1.429 . S
C2034 N2031 1.350 . S
C2034 C2033 1.434 . S
C2035 C2036 1.369 . S
C2035 C2037 1.419 . S
C2035 H2039 0.930 . S
C2036 C2035 1.369 . S
C2036 C2045 1.429 . S
C2037 C2035 1.419 . S
C2037 C2038 1.363 . S
C2037 H2040 0.929 . S
C2038 C2037 1.363 . S
C2038 C2044 1.428 . S
H2039 C2035 0.930 . S
H2040 C2037 0.929 . S
S2041 N2042 1.613 . S
S2041 N2043 1.610 . S
N2042 S2041 1.613 . S
N2042 C2045 1.350 . S
N2043 S2041 1.610 . S
N2043 C2044 1.351 . S
C2044 C2038 1.428 . S
C2044 N2043 1.351 . S
C2044 C2045 1.434 . S
C2045 C2036 1.429 . S
C2045 N2042 1.350 . S
C2045 C2044 1.434 . S
C2046 C2047 1.369 . S
C2046 C2048 1.419 . S
C2046 H2050 0.930 . S
C2047 C2046 1.369 . S
C2047 C2056 1.429 . S
C2048 C2046 1.419 . S
C2048 C2049 1.363 . S
C2048 H2051 0.929 . S
C2049 C2048 1.363 . S
C2049 C2055 1.428 . S
H2050 C2046 0.930 . S
H2051 C2048 0.929 . S
S2052 N2053 1.613 . S
S2052 N2054 1.610 . S
N2053 S2052 1.613 . S
N2053 C2056 1.350 . S
N2054 S2052 1.610 . S
N2054 C2055 1.351 . S
C2055 C2049 1.428 . S
C2055 N2054 1.351 . S
C2055 C2056 1.434 . S
C2056 C2047 1.429 . S
C2056 N2053 1.350 . S
C2056 C2055 1.434 . S
C2057 C2058 1.369 . S
C2057 C2059 1.419 . S
C2057 H2061 0.930 . S
C2058 C2057 1.369 . S
C2058 C2067 1.429 . S
C2059 C2057 1.419 . S
C2059 C2060 1.363 . S
C2059 H2062 0.929 . S
C2060 C2059 1.363 . S
C2060 C2066 1.428 . S
H2061 C2057 0.930 . S
H2062 C2059 0.929 . S
S2063 N2064 1.613 . S
S2063 N2065 1.610 . S
N2064 S2063 1.613 . S
N2064 C2067 1.350 . S
N2065 S2063 1.610 . S
N2065 C2066 1.351 . S
C2066 C2060 1.428 . S
C2066 N2065 1.351 . S
C2066 C2067 1.434 . S
C2067 C2058 1.429 . S
C2067 N2064 1.350 . S
C2067 C2066 1.434 . S
C2068 C2069 1.369 . S
C2068 C2070 1.419 . S
C2068 H2072 0.930 . S
C2069 C2068 1.369 . S
C2069 C2078 1.429 . S
C2070 C2068 1.419 . S
C2070 C2071 1.363 . S
C2070 H2073 0.929 . S
C2071 C2070 1.363 . S
C2071 C2077 1.428 . S
H2072 C2068 0.930 . S
H2073 C2070 0.929 . S
S2074 N2075 1.613 . S
S2074 N2076 1.610 . S
N2075 S2074 1.613 . S
N2075 C2078 1.350 . S
N2076 S2074 1.610 . S
N2076 C2077 1.351 . S
C2077 C2071 1.428 . S
C2077 N2076 1.351 . S
C2077 C2078 1.434 . S
C2078 C2069 1.429 . S
C2078 N2075 1.350 . S
C2078 C2077 1.434 . S
C2079 C2080 1.369 . S
C2079 C2081 1.419 . S
C2079 H2083 0.930 . S
C2080 C2079 1.369 . S
C2080 C2089 1.429 . S
C2081 C2079 1.419 . S
C2081 C2082 1.363 . S
C2081 H2084 0.929 . S
C2082 C2081 1.363 . S
C2082 C2088 1.428 . S
H2083 C2079 0.930 . S
H2084 C2081 0.929 . S
S2085 N2086 1.613 . S
S2085 N2087 1.610 . S
N2086 S2085 1.613 . S
N2086 C2089 1.350 . S
N2087 S2085 1.610 . S
N2087 C2088 1.351 . S
C2088 C2082 1.428 . S
C2088 N2087 1.351 . S
C2088 C2089 1.434 . S
C2089 C2080 1.429 . S
C2089 N2086 1.350 . S
C2089 C2088 1.434 . S
C2090 C2091 1.369 . S
C2090 C2092 1.419 . S
C2090 H2094 0.930 . S
C2091 C2090 1.369 . S
C2091 C2100 1.429 . S
C2092 C2090 1.419 . S
C2092 C2093 1.363 . S
C2092 H2095 0.929 . S
C2093 C2092 1.363 . S
C2093 C2099 1.428 . S
H2094 C2090 0.930 . S
H2095 C2092 0.929 . S
S2096 N2097 1.613 . S
S2096 N2098 1.610 . S
N2097 S2096 1.613 . S
N2097 C2100 1.350 . S
N2098 S2096 1.610 . S
N2098 C2099 1.351 . S
C2099 C2093 1.428 . S
C2099 N2098 1.351 . S
C2099 C2100 1.434 . S
C2100 C2091 1.429 . S
C2100 N2097 1.350 . S
C2100 C2099 1.434 . S
C2101 C2102 1.369 . S
C2101 C2103 1.419 . S
C2101 H2105 0.930 . S
C2102 C2101 1.369 . S
C2102 C2111 1.429 . S
C2103 C2101 1.419 . S
C2103 C2104 1.363 . S
C2103 H2106 0.929 . S
C2104 C2103 1.363 . S
C2104 C2110 1.428 . S
H2105 C2101 0.930 . S
H2106 C2103 0.929 . S
S2107 N2108 1.613 . S
S2107 N2109 1.610 . S
N2108 S2107 1.613 . S
N2108 C2111 1.350 . S
N2109 S2107 1.610 . S
N2109 C2110 1.351 . S
C2110 C2104 1.428 . S
C2110 N2109 1.351 . S
C2110 C2111 1.434 . S
C2111 C2102 1.429 . S
C2111 N2108 1.350 . S
C2111 C2110 1.434 . S
C2112 C2113 1.369 . S
C2112 C2114 1.419 . S
C2112 H2116 0.930 . S
C2113 C2112 1.369 . S
C2113 C2122 1.429 . S
C2114 C2112 1.419 . S
C2114 C2115 1.363 . S
C2114 H2117 0.929 . S
C2115 C2114 1.363 . S
C2115 C2121 1.428 . S
H2116 C2112 0.930 . S
H2117 C2114 0.929 . S
S2118 N2119 1.613 . S
S2118 N2120 1.610 . S
N2119 S2118 1.613 . S
N2119 C2122 1.350 . S
N2120 S2118 1.610 . S
N2120 C2121 1.351 . S
C2121 C2115 1.428 . S
C2121 N2120 1.351 . S
C2121 C2122 1.434 . S
C2122 C2113 1.429 . S
C2122 N2119 1.350 . S
C2122 C2121 1.434 . S
C2123 C2124 1.369 . S
C2123 C2125 1.419 . S
C2123 H2127 0.930 . S
C2124 C2123 1.369 . S
C2124 C2133 1.429 . S
C2125 C2123 1.419 . S
C2125 C2126 1.363 . S
C2125 H2128 0.929 . S
C2126 C2125 1.363 . S
C2126 C2132 1.428 . S
H2127 C2123 0.930 . S
H2128 C2125 0.929 . S
S2129 N2130 1.613 . S
S2129 N2131 1.610 . S
N2130 S2129 1.613 . S
N2130 C2133 1.350 . S
N2131 S2129 1.610 . S
N2131 C2132 1.351 . S
C2132 C2126 1.428 . S
C2132 N2131 1.351 . S
C2132 C2133 1.434 . S
C2133 C2124 1.429 . S
C2133 N2130 1.350 . S
C2133 C2132 1.434 . S
C2134 C2135 1.369 . S
C2134 C2136 1.419 . S
C2134 H2138 0.930 . S
C2135 C2134 1.369 . S
C2135 C2144 1.429 . S
C2136 C2134 1.419 . S
C2136 C2137 1.363 . S
C2136 H2139 0.929 . S
C2137 C2136 1.363 . S
C2137 C2143 1.428 . S
H2138 C2134 0.930 . S
H2139 C2136 0.929 . S
S2140 N2141 1.613 . S
S2140 N2142 1.610 . S
N2141 S2140 1.613 . S
N2141 C2144 1.350 . S
N2142 S2140 1.610 . S
N2142 C2143 1.351 . S
C2143 C2137 1.428 . S
C2143 N2142 1.351 . S
C2143 C2144 1.434 . S
C2144 C2135 1.429 . S
C2144 N2141 1.350 . S
C2144 C2143 1.434 . S
C2145 C2146 1.369 . S
C2145 C2147 1.419 . S
C2145 H2149 0.930 . S
C2146 C2145 1.369 . S
C2146 C2155 1.429 . S
C2147 C2145 1.419 . S
C2147 C2148 1.363 . S
C2147 H2150 0.929 . S
C2148 C2147 1.363 . S
C2148 C2154 1.428 . S
H2149 C2145 0.930 . S
H2150 C2147 0.929 . S
S2151 N2152 1.613 . S
S2151 N2153 1.610 . S
N2152 S2151 1.613 . S
N2152 C2155 1.350 . S
N2153 S2151 1.610 . S
N2153 C2154 1.351 . S
C2154 C2148 1.428 . S
C2154 N2153 1.351 . S
C2154 C2155 1.434 . S
C2155 C2146 1.429 . S
C2155 N2152 1.350 . S
C2155 C2154 1.434 . S
C2156 C2157 1.369 . S
C2156 C2158 1.419 . S
C2156 H2160 0.930 . S
C2157 C2156 1.369 . S
C2157 C2166 1.429 . S
C2158 C2156 1.419 . S
C2158 C2159 1.363 . S
C2158 H2161 0.929 . S
C2159 C2158 1.363 . S
C2159 C2165 1.428 . S
H2160 C2156 0.930 . S
H2161 C2158 0.929 . S
S2162 N2163 1.613 . S
S2162 N2164 1.610 . S
N2163 S2162 1.613 . S
N2163 C2166 1.350 . S
N2164 S2162 1.610 . S
N2164 C2165 1.351 . S
C2165 C2159 1.428 . S
C2165 N2164 1.351 . S
C2165 C2166 1.434 . S
C2166 C2157 1.429 . S
C2166 N2163 1.350 . S
C2166 C2165 1.434 . S
C2167 C2168 1.369 . S
C2167 C2169 1.419 . S
C2167 H2171 0.930 . S
C2168 C2167 1.369 . S
C2168 C2177 1.429 . S
C2169 C2167 1.419 . S
C2169 C2170 1.363 . S
C2169 H2172 0.929 . S
C2170 C2169 1.363 . S
C2170 C2176 1.428 . S
H2171 C2167 0.930 . S
H2172 C2169 0.929 . S
S2173 N2174 1.613 . S
S2173 N2175 1.610 . S
N2174 S2173 1.613 . S
N2174 C2177 1.350 . S
N2175 S2173 1.610 . S
N2175 C2176 1.351 . S
C2176 C2170 1.428 . S
C2176 N2175 1.351 . S
C2176 C2177 1.434 . S
C2177 C2168 1.429 . S
C2177 N2174 1.350 . S
C2177 C2176 1.434 . S
C2178 C2179 1.369 . S
C2178 C2180 1.419 . S
C2178 H2182 0.930 . S
C2179 C2178 1.369 . S
C2179 C2188 1.429 . S
C2180 C2178 1.419 . S
C2180 C2181 1.363 . S
C2180 H2183 0.929 . S
C2181 C2180 1.363 . S
C2181 C2187 1.428 . S
H2182 C2178 0.930 . S
H2183 C2180 0.929 . S
S2184 N2185 1.613 . S
S2184 N2186 1.610 . S
N2185 S2184 1.613 . S
N2185 C2188 1.350 . S
N2186 S2184 1.610 . S
N2186 C2187 1.351 . S
C2187 C2181 1.428 . S
C2187 N2186 1.351 . S
C2187 C2188 1.434 . S
C2188 C2179 1.429 . S
C2188 N2185 1.350 . S
C2188 C2187 1.434 . S
C2189 C2190 1.369 . S
C2189 C2191 1.419 . S
C2189 H2193 0.930 . S
C2190 C2189 1.369 . S
C2190 C2199 1.429 . S
C2191 C2189 1.419 . S
C2191 C2192 1.363 . S
C2191 H2194 0.929 . S
C2192 C2191 1.363 . S
C2192 C2198 1.428 . S
H2193 C2189 0.930 . S
H2194 C2191 0.929 . S
S2195 N2196 1.613 . S
S2195 N2197 1.610 . S
N2196 S2195 1.613 . S
N2196 C2199 1.350 . S
N2197 S2195 1.610 . S
N2197 C2198 1.351 . S
C2198 C2192 1.428 . S
C2198 N2197 1.351 . S
C2198 C2199 1.434 . S
C2199 C2190 1.429 . S
C2199 N2196 1.350 . S
C2199 C2198 1.434 . S
C2200 C2201 1.369 . S
C2200 C2202 1.419 . S
C2200 H2204 0.930 . S
C2201 C2200 1.369 . S
C2201 C2210 1.429 . S
C2202 C2200 1.419 . S
C2202 C2203 1.363 . S
C2202 H2205 0.929 . S
C2203 C2202 1.363 . S
C2203 C2209 1.428 . S
H2204 C2200 0.930 . S
H2205 C2202 0.929 . S
S2206 N2207 1.613 . S
S2206 N2208 1.610 . S
N2207 S2206 1.613 . S
N2207 C2210 1.350 . S
N2208 S2206 1.610 . S
N2208 C2209 1.351 . S
C2209 C2203 1.428 . S
C2209 N2208 1.351 . S
C2209 C2210 1.434 . S
C2210 C2201 1.429 . S
C2210 N2207 1.350 . S
C2210 C2209 1.434 . S
C2211 C2212 1.369 . S
C2211 C2213 1.419 . S
C2211 H2215 0.930 . S
C2212 C2211 1.369 . S
C2212 C2221 1.429 . S
C2213 C2211 1.419 . S
C2213 C2214 1.363 . S
C2213 H2216 0.929 . S
C2214 C2213 1.363 . S
C2214 C2220 1.428 . S
H2215 C2211 0.930 . S
H2216 C2213 0.929 . S
S2217 N2218 1.613 . S
S2217 N2219 1.610 . S
N2218 S2217 1.613 . S
N2218 C2221 1.350 . S
N2219 S2217 1.610 . S
N2219 C2220 1.351 . S
C2220 C2214 1.428 . S
C2220 N2219 1.351 . S
C2220 C2221 1.434 . S
C2221 C2212 1.429 . S
C2221 N2218 1.350 . S
C2221 C2220 1.434 . S
C2222 C2223 1.369 . S
C2222 C2224 1.419 . S
C2222 H2226 0.930 . S
C2223 C2222 1.369 . S
C2223 C2232 1.429 . S
C2224 C2222 1.419 . S
C2224 C2225 1.363 . S
C2224 H2227 0.929 . S
C2225 C2224 1.363 . S
C2225 C2231 1.428 . S
H2226 C2222 0.930 . S
H2227 C2224 0.929 . S
S2228 N2229 1.613 . S
S2228 N2230 1.610 . S
N2229 S2228 1.613 . S
N2229 C2232 1.350 . S
N2230 S2228 1.610 . S
N2230 C2231 1.351 . S
C2231 C2225 1.428 . S
C2231 N2230 1.351 . S
C2231 C2232 1.434 . S
C2232 C2223 1.429 . S
C2232 N2229 1.350 . S
C2232 C2231 1.434 . S
C2233 C2234 1.369 . S
C2233 C2235 1.419 . S
C2233 H2237 0.930 . S
C2234 C2233 1.369 . S
C2234 C2243 1.429 . S
C2235 C2233 1.419 . S
C2235 C2236 1.363 . S
C2235 H2238 0.929 . S
C2236 C2235 1.363 . S
C2236 C2242 1.428 . S
H2237 C2233 0.930 . S
H2238 C2235 0.929 . S
S2239 N2240 1.613 . S
S2239 N2241 1.610 . S
N2240 S2239 1.613 . S
N2240 C2243 1.350 . S
N2241 S2239 1.610 . S
N2241 C2242 1.351 . S
C2242 C2236 1.428 . S
C2242 N2241 1.351 . S
C2242 C2243 1.434 . S
C2243 C2234 1.429 . S
C2243 N2240 1.350 . S
C2243 C2242 1.434 . S
C2244 C2245 1.369 . S
C2244 C2246 1.419 . S
C2244 H2248 0.930 . S
C2245 C2244 1.369 . S
C2245 C2254 1.429 . S
C2246 C2244 1.419 . S
C2246 C2247 1.363 . S
C2246 H2249 0.929 . S
C2247 C2246 1.363 . S
C2247 C2253 1.428 . S
H2248 C2244 0.930 . S
H2249 C2246 0.929 . S
S2250 N2251 1.613 . S
S2250 N2252 1.610 . S
N2251 S2250 1.613 . S
N2251 C2254 1.350 . S
N2252 S2250 1.610 . S
N2252 C2253 1.351 . S
C2253 C2247 1.428 . S
C2253 N2252 1.351 . S
C2253 C2254 1.434 . S
C2254 C2245 1.429 . S
C2254 N2251 1.350 . S
C2254 C2253 1.434 . S
C2255 C2256 1.369 . S
C2255 C2257 1.419 . S
C2255 H2259 0.930 . S
C2256 C2255 1.369 . S
C2256 C2265 1.429 . S
C2257 C2255 1.419 . S
C2257 C2258 1.363 . S
C2257 H2260 0.929 . S
C2258 C2257 1.363 . S
C2258 C2264 1.428 . S
H2259 C2255 0.930 . S
H2260 C2257 0.929 . S
S2261 N2262 1.613 . S
S2261 N2263 1.610 . S
N2262 S2261 1.613 . S
N2262 C2265 1.350 . S
N2263 S2261 1.610 . S
N2263 C2264 1.351 . S
C2264 C2258 1.428 . S
C2264 N2263 1.351 . S
C2264 C2265 1.434 . S
C2265 C2256 1.429 . S
C2265 N2262 1.350 . S
C2265 C2264 1.434 . S
C2266 C2267 1.369 . S
C2266 C2268 1.419 . S
C2266 H2270 0.930 . S
C2267 C2266 1.369 . S
C2267 C2276 1.429 . S
C2268 C2266 1.419 . S
C2268 C2269 1.363 . S
C2268 H2271 0.929 . S
C2269 C2268 1.363 . S
C2269 C2275 1.428 . S
H2270 C2266 0.930 . S
H2271 C2268 0.929 . S
S2272 N2273 1.613 . S
S2272 N2274 1.610 . S
N2273 S2272 1.613 . S
N2273 C2276 1.350 . S
N2274 S2272 1.610 . S
N2274 C2275 1.351 . S
C2275 C2269 1.428 . S
C2275 N2274 1.351 . S
C2275 C2276 1.434 . S
C2276 C2267 1.429 . S
C2276 N2273 1.350 . S
C2276 C2275 1.434 . S
C2277 C2278 1.369 . S
C2277 C2279 1.419 . S
C2277 H2281 0.930 . S
C2278 C2277 1.369 . S
C2278 C2287 1.429 . S
C2279 C2277 1.419 . S
C2279 C2280 1.363 . S
C2279 H2282 0.929 . S
C2280 C2279 1.363 . S
C2280 C2286 1.428 . S
H2281 C2277 0.930 . S
H2282 C2279 0.929 . S
S2283 N2284 1.613 . S
S2283 N2285 1.610 . S
N2284 S2283 1.613 . S
N2284 C2287 1.350 . S
N2285 S2283 1.610 . S
N2285 C2286 1.351 . S
C2286 C2280 1.428 . S
C2286 N2285 1.351 . S
C2286 C2287 1.434 . S
C2287 C2278 1.429 . S
C2287 N2284 1.350 . S
C2287 C2286 1.434 . S
C2288 C2289 1.369 . S
C2288 C2290 1.419 . S
C2288 H2292 0.930 . S
C2289 C2288 1.369 . S
C2289 C2298 1.429 . S
C2290 C2288 1.419 . S
C2290 C2291 1.363 . S
C2290 H2293 0.929 . S
C2291 C2290 1.363 . S
C2291 C2297 1.428 . S
H2292 C2288 0.930 . S
H2293 C2290 0.929 . S
S2294 N2295 1.613 . S
S2294 N2296 1.610 . S
N2295 S2294 1.613 . S
N2295 C2298 1.350 . S
N2296 S2294 1.610 . S
N2296 C2297 1.351 . S
C2297 C2291 1.428 . S
C2297 N2296 1.351 . S
C2297 C2298 1.434 . S
C2298 C2289 1.429 . S
C2298 N2295 1.350 . S
C2298 C2297 1.434 . S
C2299 C2300 1.369 . S
C2299 C2301 1.419 . S
C2299 H2303 0.930 . S
C2300 C2299 1.369 . S
C2300 C2309 1.429 . S
C2301 C2299 1.419 . S
C2301 C2302 1.363 . S
C2301 H2304 0.929 . S
C2302 C2301 1.363 . S
C2302 C2308 1.428 . S
H2303 C2299 0.930 . S
H2304 C2301 0.929 . S
S2305 N2306 1.613 . S
S2305 N2307 1.610 . S
N2306 S2305 1.613 . S
N2306 C2309 1.350 . S
N2307 S2305 1.610 . S
N2307 C2308 1.351 . S
C2308 C2302 1.428 . S
C2308 N2307 1.351 . S
C2308 C2309 1.434 . S
C2309 C2300 1.429 . S
C2309 N2306 1.350 . S
C2309 C2308 1.434 . S
C2310 C2311 1.369 . S
C2310 C2312 1.419 . S
C2310 H2314 0.930 . S
C2311 C2310 1.369 . S
C2311 C2320 1.429 . S
C2312 C2310 1.419 . S
C2312 C2313 1.363 . S
C2312 H2315 0.929 . S
C2313 C2312 1.363 . S
C2313 C2319 1.428 . S
H2314 C2310 0.930 . S
H2315 C2312 0.929 . S
S2316 N2317 1.613 . S
S2316 N2318 1.610 . S
N2317 S2316 1.613 . S
N2317 C2320 1.350 . S
N2318 S2316 1.610 . S
N2318 C2319 1.351 . S
C2319 C2313 1.428 . S
C2319 N2318 1.351 . S
C2319 C2320 1.434 . S
C2320 C2311 1.429 . S
C2320 N2317 1.350 . S
C2320 C2319 1.434 . S
C2321 C2322 1.369 . S
C2321 C2323 1.419 . S
C2321 H2325 0.930 . S
C2322 C2321 1.369 . S
C2322 C2331 1.429 . S
C2323 C2321 1.419 . S
C2323 C2324 1.363 . S
C2323 H2326 0.929 . S
C2324 C2323 1.363 . S
C2324 C2330 1.428 . S
H2325 C2321 0.930 . S
H2326 C2323 0.929 . S
S2327 N2328 1.613 . S
S2327 N2329 1.610 . S
N2328 S2327 1.613 . S
N2328 C2331 1.350 . S
N2329 S2327 1.610 . S
N2329 C2330 1.351 . S
C2330 C2324 1.428 . S
C2330 N2329 1.351 . S
C2330 C2331 1.434 . S
C2331 C2322 1.429 . S
C2331 N2328 1.350 . S
C2331 C2330 1.434 . S
C2332 C2333 1.369 . S
C2332 C2334 1.419 . S
C2332 H2336 0.930 . S
C2333 C2332 1.369 . S
C2333 C2342 1.429 . S
C2334 C2332 1.419 . S
C2334 C2335 1.363 . S
C2334 H2337 0.929 . S
C2335 C2334 1.363 . S
C2335 C2341 1.428 . S
H2336 C2332 0.930 . S
H2337 C2334 0.929 . S
S2338 N2339 1.613 . S
S2338 N2340 1.610 . S
N2339 S2338 1.613 . S
N2339 C2342 1.350 . S
N2340 S2338 1.610 . S
N2340 C2341 1.351 . S
C2341 C2335 1.428 . S
C2341 N2340 1.351 . S
C2341 C2342 1.434 . S
C2342 C2333 1.429 . S
C2342 N2339 1.350 . S
C2342 C2341 1.434 . S
C2343 C2344 1.369 . S
C2343 C2345 1.419 . S
C2343 H2347 0.930 . S
C2344 C2343 1.369 . S
C2344 C2353 1.429 . S
C2345 C2343 1.419 . S
C2345 C2346 1.363 . S
C2345 H2348 0.929 . S
C2346 C2345 1.363 . S
C2346 C2352 1.428 . S
H2347 C2343 0.930 . S
H2348 C2345 0.929 . S
S2349 N2350 1.613 . S
S2349 N2351 1.610 . S
N2350 S2349 1.613 . S
N2350 C2353 1.350 . S
N2351 S2349 1.610 . S
N2351 C2352 1.351 . S
C2352 C2346 1.428 . S
C2352 N2351 1.351 . S
C2352 C2353 1.434 . S
C2353 C2344 1.429 . S
C2353 N2350 1.350 . S
C2353 C2352 1.434 . S
C2354 C2355 1.369 . S
C2354 C2356 1.419 . S
C2354 H2358 0.930 . S
C2355 C2354 1.369 . S
C2355 C2364 1.429 . S
C2356 C2354 1.419 . S
C2356 C2357 1.363 . S
C2356 H2359 0.929 . S
C2357 C2356 1.363 . S
C2357 C2363 1.428 . S
H2358 C2354 0.930 . S
H2359 C2356 0.929 . S
S2360 N2361 1.613 . S
S2360 N2362 1.610 . S
N2361 S2360 1.613 . S
N2361 C2364 1.350 . S
N2362 S2360 1.610 . S
N2362 C2363 1.351 . S
C2363 C2357 1.428 . S
C2363 N2362 1.351 . S
C2363 C2364 1.434 . S
C2364 C2355 1.429 . S
C2364 N2361 1.350 . S
C2364 C2363 1.434 . S
C2365 C2366 1.369 . S
C2365 C2367 1.419 . S
C2365 H2369 0.930 . S
C2366 C2365 1.369 . S
C2366 C2375 1.429 . S
C2367 C2365 1.419 . S
C2367 C2368 1.363 . S
C2367 H2370 0.929 . S
C2368 C2367 1.363 . S
C2368 C2374 1.428 . S
H2369 C2365 0.930 . S
H2370 C2367 0.929 . S
S2371 N2372 1.613 . S
S2371 N2373 1.610 . S
N2372 S2371 1.613 . S
N2372 C2375 1.350 . S
N2373 S2371 1.610 . S
N2373 C2374 1.351 . S
C2374 C2368 1.428 . S
C2374 N2373 1.351 . S
C2374 C2375 1.434 . S
C2375 C2366 1.429 . S
C2375 N2372 1.350 . S
C2375 C2374 1.434 . S
C2376 C2377 1.369 . S
C2376 C2378 1.419 . S
C2376 H2380 0.930 . S
C2377 C2376 1.369 . S
C2377 C2386 1.429 . S
C2378 C2376 1.419 . S
C2378 C2379 1.363 . S
C2378 H2381 0.929 . S
C2379 C2378 1.363 . S
C2379 C2385 1.428 . S
H2380 C2376 0.930 . S
H2381 C2378 0.929 . S
S2382 N2383 1.613 . S
S2382 N2384 1.610 . S
N2383 S2382 1.613 . S
N2383 C2386 1.350 . S
N2384 S2382 1.610 . S
N2384 C2385 1.351 . S
C2385 C2379 1.428 . S
C2385 N2384 1.351 . S
C2385 C2386 1.434 . S
C2386 C2377 1.429 . S
C2386 N2383 1.350 . S
C2386 C2385 1.434 . S
C2387 C2388 1.369 . S
C2387 C2389 1.419 . S
C2387 H2391 0.930 . S
C2388 C2387 1.369 . S
C2388 C2397 1.429 . S
C2389 C2387 1.419 . S
C2389 C2390 1.363 . S
C2389 H2392 0.929 . S
C2390 C2389 1.363 . S
C2390 C2396 1.428 . S
H2391 C2387 0.930 . S
H2392 C2389 0.929 . S
S2393 N2394 1.613 . S
S2393 N2395 1.610 . S
N2394 S2393 1.613 . S
N2394 C2397 1.350 . S
N2395 S2393 1.610 . S
N2395 C2396 1.351 . S
C2396 C2390 1.428 . S
C2396 N2395 1.351 . S
C2396 C2397 1.434 . S
C2397 C2388 1.429 . S
C2397 N2394 1.350 . S
C2397 C2396 1.434 . S
C2398 C2399 1.369 . S
C2398 C2400 1.419 . S
C2398 H2402 0.930 . S
C2399 C2398 1.369 . S
C2399 C2408 1.429 . S
C2400 C2398 1.419 . S
C2400 C2401 1.363 . S
C2400 H2403 0.929 . S
C2401 C2400 1.363 . S
C2401 C2407 1.428 . S
H2402 C2398 0.930 . S
H2403 C2400 0.929 . S
S2404 N2405 1.613 . S
S2404 N2406 1.610 . S
N2405 S2404 1.613 . S
N2405 C2408 1.350 . S
N2406 S2404 1.610 . S
N2406 C2407 1.351 . S
C2407 C2401 1.428 . S
C2407 N2406 1.351 . S
C2407 C2408 1.434 . S
C2408 C2399 1.429 . S
C2408 N2405 1.350 . S
C2408 C2407 1.434 . S
C2409 C2410 1.369 . S
C2409 C2411 1.419 . S
C2409 H2413 0.930 . S
C2410 C2409 1.369 . S
C2410 C2419 1.429 . S
C2411 C2409 1.419 . S
C2411 C2412 1.363 . S
C2411 H2414 0.929 . S
C2412 C2411 1.363 . S
C2412 C2418 1.428 . S
H2413 C2409 0.930 . S
H2414 C2411 0.929 . S
S2415 N2416 1.613 . S
S2415 N2417 1.610 . S
N2416 S2415 1.613 . S
N2416 C2419 1.350 . S
N2417 S2415 1.610 . S
N2417 C2418 1.351 . S
C2418 C2412 1.428 . S
C2418 N2417 1.351 . S
C2418 C2419 1.434 . S
C2419 C2410 1.429 . S
C2419 N2416 1.350 . S
C2419 C2418 1.434 . S
C2420 C2421 1.369 . S
C2420 C2422 1.419 . S
C2420 H2424 0.930 . S
C2421 C2420 1.369 . S
C2421 C2430 1.429 . S
C2422 C2420 1.419 . S
C2422 C2423 1.363 . S
C2422 H2425 0.929 . S
C2423 C2422 1.363 . S
C2423 C2429 1.428 . S
H2424 C2420 0.930 . S
H2425 C2422 0.929 . S
S2426 N2427 1.613 . S
S2426 N2428 1.610 . S
N2427 S2426 1.613 . S
N2427 C2430 1.350 . S
N2428 S2426 1.610 . S
N2428 C2429 1.351 . S
C2429 C2423 1.428 . S
C2429 N2428 1.351 . S
C2429 C2430 1.434 . S
C2430 C2421 1.429 . S
C2430 N2427 1.350 . S
C2430 C2429 1.434 . S
C2431 C2432 1.369 . S
C2431 C2433 1.419 . S
C2431 H2435 0.930 . S
C2432 C2431 1.369 . S
C2432 C2441 1.429 . S
C2433 C2431 1.419 . S
C2433 C2434 1.363 . S
C2433 H2436 0.929 . S
C2434 C2433 1.363 . S
C2434 C2440 1.428 . S
H2435 C2431 0.930 . S
H2436 C2433 0.929 . S
S2437 N2438 1.613 . S
S2437 N2439 1.610 . S
N2438 S2437 1.613 . S
N2438 C2441 1.350 . S
N2439 S2437 1.610 . S
N2439 C2440 1.351 . S
C2440 C2434 1.428 . S
C2440 N2439 1.351 . S
C2440 C2441 1.434 . S
C2441 C2432 1.429 . S
C2441 N2438 1.350 . S
C2441 C2440 1.434 . S
C2442 C2443 1.369 . S
C2442 C2444 1.419 . S
C2442 H2446 0.930 . S
C2443 C2442 1.369 . S
C2443 C2452 1.429 . S
C2444 C2442 1.419 . S
C2444 C2445 1.363 . S
C2444 H2447 0.929 . S
C2445 C2444 1.363 . S
C2445 C2451 1.428 . S
H2446 C2442 0.930 . S
H2447 C2444 0.929 . S
S2448 N2449 1.613 . S
S2448 N2450 1.610 . S
N2449 S2448 1.613 . S
N2449 C2452 1.350 . S
N2450 S2448 1.610 . S
N2450 C2451 1.351 . S
C2451 C2445 1.428 . S
C2451 N2450 1.351 . S
C2451 C2452 1.434 . S
C2452 C2443 1.429 . S
C2452 N2449 1.350 . S
C2452 C2451 1.434 . S
C2453 C2454 1.369 . S
C2453 C2455 1.419 . S
C2453 H2457 0.930 . S
C2454 C2453 1.369 . S
C2454 C2463 1.429 . S
C2455 C2453 1.419 . S
C2455 C2456 1.363 . S
C2455 H2458 0.929 . S
C2456 C2455 1.363 . S
C2456 C2462 1.428 . S
H2457 C2453 0.930 . S
H2458 C2455 0.929 . S
S2459 N2460 1.613 . S
S2459 N2461 1.610 . S
N2460 S2459 1.613 . S
N2460 C2463 1.350 . S
N2461 S2459 1.610 . S
N2461 C2462 1.351 . S
C2462 C2456 1.428 . S
C2462 N2461 1.351 . S
C2462 C2463 1.434 . S
C2463 C2454 1.429 . S
C2463 N2460 1.350 . S
C2463 C2462 1.434 . S
C2464 C2465 1.369 . S
C2464 C2466 1.419 . S
C2464 H2468 0.930 . S
C2465 C2464 1.369 . S
C2465 C2474 1.429 . S
C2466 C2464 1.419 . S
C2466 C2467 1.363 . S
C2466 H2469 0.929 . S
C2467 C2466 1.363 . S
C2467 C2473 1.428 . S
H2468 C2464 0.930 . S
H2469 C2466 0.929 . S
S2470 N2471 1.613 . S
S2470 N2472 1.610 . S
N2471 S2470 1.613 . S
N2471 C2474 1.350 . S
N2472 S2470 1.610 . S
N2472 C2473 1.351 . S
C2473 C2467 1.428 . S
C2473 N2472 1.351 . S
C2473 C2474 1.434 . S
C2474 C2465 1.429 . S
C2474 N2471 1.350 . S
C2474 C2473 1.434 . S
C2475 C2476 1.369 . S
C2475 C2477 1.419 . S
C2475 H2479 0.930 . S
C2476 C2475 1.369 . S
C2476 C2485 1.429 . S
C2477 C2475 1.419 . S
C2477 C2478 1.363 . S
C2477 H2480 0.929 . S
C2478 C2477 1.363 . S
C2478 C2484 1.428 . S
H2479 C2475 0.930 . S
H2480 C2477 0.929 . S
S2481 N2482 1.613 . S
S2481 N2483 1.610 . S
N2482 S2481 1.613 . S
N2482 C2485 1.350 . S
N2483 S2481 1.610 . S
N2483 C2484 1.351 . S
C2484 C2478 1.428 . S
C2484 N2483 1.351 . S
C2484 C2485 1.434 . S
C2485 C2476 1.429 . S
C2485 N2482 1.350 . S
C2485 C2484 1.434 . S
C2486 C2487 1.369 . S
C2486 C2488 1.419 . S
C2486 H2490 0.930 . S
C2487 C2486 1.369 . S
C2487 C2496 1.429 . S
C2488 C2486 1.419 . S
C2488 C2489 1.363 . S
C2488 H2491 0.929 . S
C2489 C2488 1.363 . S
C2489 C2495 1.428 . S
H2490 C2486 0.930 . S
H2491 C2488 0.929 . S
S2492 N2493 1.613 . S
S2492 N2494 1.610 . S
N2493 S2492 1.613 . S
N2493 C2496 1.350 . S
N2494 S2492 1.610 . S
N2494 C2495 1.351 . S
C2495 C2489 1.428 . S
C2495 N2494 1.351 . S
C2495 C2496 1.434 . S
C2496 C2487 1.429 . S
C2496 N2493 1.350 . S
C2496 C2495 1.434 . S
C2497 C2498 1.369 . S
C2497 C2499 1.419 . S
C2497 H2501 0.930 . S
C2498 C2497 1.369 . S
C2498 C2507 1.429 . S
C2499 C2497 1.419 . S
C2499 C2500 1.363 . S
C2499 H2502 0.929 . S
C2500 C2499 1.363 . S
C2500 C2506 1.428 . S
H2501 C2497 0.930 . S
H2502 C2499 0.929 . S
S2503 N2504 1.613 . S
S2503 N2505 1.610 . S
N2504 S2503 1.613 . S
N2504 C2507 1.350 . S
N2505 S2503 1.610 . S
N2505 C2506 1.351 . S
C2506 C2500 1.428 . S
C2506 N2505 1.351 . S
C2506 C2507 1.434 . S
C2507 C2498 1.429 . S
C2507 N2504 1.350 . S
C2507 C2506 1.434 . S
C2508 C2509 1.369 . S
C2508 C2510 1.419 . S
C2508 H2512 0.930 . S
C2509 C2508 1.369 . S
C2509 C2518 1.429 . S
C2510 C2508 1.419 . S
C2510 C2511 1.363 . S
C2510 H2513 0.929 . S
C2511 C2510 1.363 . S
C2511 C2517 1.428 . S
H2512 C2508 0.930 . S
H2513 C2510 0.929 . S
S2514 N2515 1.613 . S
S2514 N2516 1.610 . S
N2515 S2514 1.613 . S
N2515 C2518 1.350 . S
N2516 S2514 1.610 . S
N2516 C2517 1.351 . S
C2517 C2511 1.428 . S
C2517 N2516 1.351 . S
C2517 C2518 1.434 . S
C2518 C2509 1.429 . S
C2518 N2515 1.350 . S
C2518 C2517 1.434 . S
C2519 C2520 1.369 . S
C2519 C2521 1.419 . S
C2519 H2523 0.930 . S
C2520 C2519 1.369 . S
C2520 C2529 1.429 . S
C2521 C2519 1.419 . S
C2521 C2522 1.363 . S
C2521 H2524 0.929 . S
C2522 C2521 1.363 . S
C2522 C2528 1.428 . S
H2523 C2519 0.930 . S
H2524 C2521 0.929 . S
S2525 N2526 1.613 . S
S2525 N2527 1.610 . S
N2526 S2525 1.613 . S
N2526 C2529 1.350 . S
N2527 S2525 1.610 . S
N2527 C2528 1.351 . S
C2528 C2522 1.428 . S
C2528 N2527 1.351 . S
C2528 C2529 1.434 . S
C2529 C2520 1.429 . S
C2529 N2526 1.350 . S
C2529 C2528 1.434 . S
C2530 C2531 1.369 . S
C2530 C2532 1.419 . S
C2530 H2534 0.930 . S
C2531 C2530 1.369 . S
C2531 C2540 1.429 . S
C2532 C2530 1.419 . S
C2532 C2533 1.363 . S
C2532 H2535 0.929 . S
C2533 C2532 1.363 . S
C2533 C2539 1.428 . S
H2534 C2530 0.930 . S
H2535 C2532 0.929 . S
S2536 N2537 1.613 . S
S2536 N2538 1.610 . S
N2537 S2536 1.613 . S
N2537 C2540 1.350 . S
N2538 S2536 1.610 . S
N2538 C2539 1.351 . S
C2539 C2533 1.428 . S
C2539 N2538 1.351 . S
C2539 C2540 1.434 . S
C2540 C2531 1.429 . S
C2540 N2537 1.350 . S
C2540 C2539 1.434 . S
C2541 C2542 1.369 . S
C2541 C2543 1.419 . S
C2541 H2545 0.930 . S
C2542 C2541 1.369 . S
C2542 C2551 1.429 . S
C2543 C2541 1.419 . S
C2543 C2544 1.363 . S
C2543 H2546 0.929 . S
C2544 C2543 1.363 . S
C2544 C2550 1.428 . S
H2545 C2541 0.930 . S
H2546 C2543 0.929 . S
S2547 N2548 1.613 . S
S2547 N2549 1.610 . S
N2548 S2547 1.613 . S
N2548 C2551 1.350 . S
N2549 S2547 1.610 . S
N2549 C2550 1.351 . S
C2550 C2544 1.428 . S
C2550 N2549 1.351 . S
C2550 C2551 1.434 . S
C2551 C2542 1.429 . S
C2551 N2548 1.350 . S
C2551 C2550 1.434 . S
C2552 C2553 1.369 . S
C2552 C2554 1.419 . S
C2552 H2556 0.930 . S
C2553 C2552 1.369 . S
C2553 C2562 1.429 . S
C2554 C2552 1.419 . S
C2554 C2555 1.363 . S
C2554 H2557 0.929 . S
C2555 C2554 1.363 . S
C2555 C2561 1.428 . S
H2556 C2552 0.930 . S
H2557 C2554 0.929 . S
S2558 N2559 1.613 . S
S2558 N2560 1.610 . S
N2559 S2558 1.613 . S
N2559 C2562 1.350 . S
N2560 S2558 1.610 . S
N2560 C2561 1.351 . S
C2561 C2555 1.428 . S
C2561 N2560 1.351 . S
C2561 C2562 1.434 . S
C2562 C2553 1.429 . S
C2562 N2559 1.350 . S
C2562 C2561 1.434 . S
C2563 C2564 1.369 . S
C2563 C2565 1.419 . S
C2563 H2567 0.930 . S
C2564 C2563 1.369 . S
C2564 C2573 1.429 . S
C2565 C2563 1.419 . S
C2565 C2566 1.363 . S
C2565 H2568 0.929 . S
C2566 C2565 1.363 . S
C2566 C2572 1.428 . S
H2567 C2563 0.930 . S
H2568 C2565 0.929 . S
S2569 N2570 1.613 . S
S2569 N2571 1.610 . S
N2570 S2569 1.613 . S
N2570 C2573 1.350 . S
N2571 S2569 1.610 . S
N2571 C2572 1.351 . S
C2572 C2566 1.428 . S
C2572 N2571 1.351 . S
C2572 C2573 1.434 . S
C2573 C2564 1.429 . S
C2573 N2570 1.350 . S
C2573 C2572 1.434 . S
C2574 C2575 1.369 . S
C2574 C2576 1.419 . S
C2574 H2578 0.930 . S
C2575 C2574 1.369 . S
C2575 C2584 1.429 . S
C2576 C2574 1.419 . S
C2576 C2577 1.363 . S
C2576 H2579 0.929 . S
C2577 C2576 1.363 . S
C2577 C2583 1.428 . S
H2578 C2574 0.930 . S
H2579 C2576 0.929 . S
S2580 N2581 1.613 . S
S2580 N2582 1.610 . S
N2581 S2580 1.613 . S
N2581 C2584 1.350 . S
N2582 S2580 1.610 . S
N2582 C2583 1.351 . S
C2583 C2577 1.428 . S
C2583 N2582 1.351 . S
C2583 C2584 1.434 . S
C2584 C2575 1.429 . S
C2584 N2581 1.350 . S
C2584 C2583 1.434 . S
C2585 C2586 1.369 . S
C2585 C2587 1.419 . S
C2585 H2589 0.930 . S
C2586 C2585 1.369 . S
C2586 C2595 1.429 . S
C2587 C2585 1.419 . S
C2587 C2588 1.363 . S
C2587 H2590 0.929 . S
C2588 C2587 1.363 . S
C2588 C2594 1.428 . S
H2589 C2585 0.930 . S
H2590 C2587 0.929 . S
S2591 N2592 1.613 . S
S2591 N2593 1.610 . S
N2592 S2591 1.613 . S
N2592 C2595 1.350 . S
N2593 S2591 1.610 . S
N2593 C2594 1.351 . S
C2594 C2588 1.428 . S
C2594 N2593 1.351 . S
C2594 C2595 1.434 . S
C2595 C2586 1.429 . S
C2595 N2592 1.350 . S
C2595 C2594 1.434 . S
C2596 C2597 1.369 . S
C2596 C2598 1.419 . S
C2596 H2600 0.930 . S
C2597 C2596 1.369 . S
C2597 C2606 1.429 . S
C2598 C2596 1.419 . S
C2598 C2599 1.363 . S
C2598 H2601 0.929 . S
C2599 C2598 1.363 . S
C2599 C2605 1.428 . S
H2600 C2596 0.930 . S
H2601 C2598 0.929 . S
S2602 N2603 1.613 . S
S2602 N2604 1.610 . S
N2603 S2602 1.613 . S
N2603 C2606 1.350 . S
N2604 S2602 1.610 . S
N2604 C2605 1.351 . S
C2605 C2599 1.428 . S
C2605 N2604 1.351 . S
C2605 C2606 1.434 . S
C2606 C2597 1.429 . S
C2606 N2603 1.350 . S
C2606 C2605 1.434 . S
C2607 C2608 1.369 . S
C2607 C2609 1.419 . S
C2607 H2611 0.930 . S
C2608 C2607 1.369 . S
C2608 C2617 1.429 . S
C2609 C2607 1.419 . S
C2609 C2610 1.363 . S
C2609 H2612 0.929 . S
C2610 C2609 1.363 . S
C2610 C2616 1.428 . S
H2611 C2607 0.930 . S
H2612 C2609 0.929 . S
S2613 N2614 1.613 . S
S2613 N2615 1.610 . S
N2614 S2613 1.613 . S
N2614 C2617 1.350 . S
N2615 S2613 1.610 . S
N2615 C2616 1.351 . S
C2616 C2610 1.428 . S
C2616 N2615 1.351 . S
C2616 C2617 1.434 . S
C2617 C2608 1.429 . S
C2617 N2614 1.350 . S
C2617 C2616 1.434 . S
C2618 C2619 1.369 . S
C2618 C2620 1.419 . S
C2618 H2622 0.930 . S
C2619 C2618 1.369 . S
C2619 C2628 1.429 . S
C2620 C2618 1.419 . S
C2620 C2621 1.363 . S
C2620 H2623 0.929 . S
C2621 C2620 1.363 . S
C2621 C2627 1.428 . S
H2622 C2618 0.930 . S
H2623 C2620 0.929 . S
S2624 N2625 1.613 . S
S2624 N2626 1.610 . S
N2625 S2624 1.613 . S
N2625 C2628 1.350 . S
N2626 S2624 1.610 . S
N2626 C2627 1.351 . S
C2627 C2621 1.428 . S
C2627 N2626 1.351 . S
C2627 C2628 1.434 . S
C2628 C2619 1.429 . S
C2628 N2625 1.350 . S
C2628 C2627 1.434 . S
C2629 C2630 1.369 . S
C2629 C2631 1.419 . S
C2629 H2633 0.930 . S
C2630 C2629 1.369 . S
C2630 C2639 1.429 . S
C2631 C2629 1.419 . S
C2631 C2632 1.363 . S
C2631 H2634 0.929 . S
C2632 C2631 1.363 . S
C2632 C2638 1.428 . S
H2633 C2629 0.930 . S
H2634 C2631 0.929 . S
S2635 N2636 1.613 . S
S2635 N2637 1.610 . S
N2636 S2635 1.613 . S
N2636 C2639 1.350 . S
N2637 S2635 1.610 . S
N2637 C2638 1.351 . S
C2638 C2632 1.428 . S
C2638 N2637 1.351 . S
C2638 C2639 1.434 . S
C2639 C2630 1.429 . S
C2639 N2636 1.350 . S
C2639 C2638 1.434 . S
C1057 C21 1.371 . S
C1059 C84 1.371 . S
C1068 C8 1.387 . S
C1070 C37 1.391 . S
C1079 C32 1.378 . S
C1081 C65 1.378 . S
C1090 C52 1.382 . S
C1092 C73 1.382 . S
C1101 C109 1.367 . S
C1103 C118 1.366 . S
C1112 C131 1.393 . S
C1114 C140 1.390 . S
C1123 C153 1.408 . S
C1125 C161 1.404 . S
C1134 C172 1.358 . S
C1136 C96 1.356 . S
C1145 C183 1.361 . S
C1147 C404 1.359 . S
C1156 C426 1.364 . S
C1158 C219 1.364 . S
C1167 C450 1.378 . S
C1169 C227 1.379 . S
C1178 C392 1.376 . S
C1180 C249 1.378 . S
C1189 C271 1.373 . S
C1191 C494 1.372 . S
C1200 C293 1.409 . S
C1202 C367 1.405 . S
C1211 C329 1.372 . S
C1213 C524 1.369 . S
C1222 C337 1.374 . S
C1224 C480 1.373 . S
C1233 C206 1.355 . S
C1235 C362 1.356 . S
C1244 C381 1.389 . S
C1246 C348 1.387 . S
C1255 C417 1.371 . S
C1257 C282 1.369 . S
C1266 C439 1.392 . S
C1268 C304 1.390 . S
C1277 C455 1.359 . S
C1279 C316 1.357 . S
C1288 C260 1.378 . S
C1290 C469 1.380 . S
C1299 C499 1.381 . S
C1301 C194 1.380 . S
C1310 C513 1.374 . S
C1312 C238 1.374 . S
C1321 C612 1.370 . S
C1323 C543 1.373 . S
C1332 C565 1.392 . S
C1334 C538 1.389 . S
C1343 C560 1.377 . S
C1345 C593 1.379 . S
C1354 C601 1.382 . S
C1356 C580 1.379 . S
C1365 C637 1.367 . S
C1367 C646 1.366 . S
C1376 C659 1.392 . S
C1378 C668 1.392 . S
C1387 C681 1.409 . S
C1389 C697 1.405 . S
C1398 C624 1.353 . S
C1400 C692 1.356 . S
C1409 C934 1.355 . S
C1411 C719 1.360 . S
C1420 C747 1.364 . S
C1422 C954 1.365 . S
C1431 C978 1.378 . S
C1433 C755 1.379 . S
C1442 C920 1.375 . S
C1444 C777 1.377 . S
C1453 C799 1.373 . S
C1455 C1030 1.374 . S
C1464 C821 1.408 . S
C1466 C901 1.404 . S
C1475 C1044 1.370 . S
C1477 C857 1.371 . S
C1486 C865 1.374 . S
C1488 C1000 1.373 . S
C1497 C734 1.355 . S
C1499 C888 1.356 . S
C1508 C876 1.387 . S
C1510 C909 1.389 . S
C1519 C939 1.373 . S
C1521 C810 1.370 . S
C1530 C967 1.392 . S
C1532 C832 1.392 . S
C1541 C983 1.358 . S
C1543 C844 1.356 . S
C1552 C1005 1.382 . S
C1554 C788 1.379 . S
C1563 C714 1.377 . S
C1565 C1019 1.378 . S
C1574 C1049 1.374 . S
C1576 C766 1.374 . S
C1585 C18 1.175 . S
C1587 C370 1.181 . S
C1596 C521 1.207 . S
C1598 C30 1.212 . S
C1607 C62 1.215 . S
C1609 C477 1.209 . S
C1618 C76 1.210 . S
C1620 C505 1.204 . S
C1629 C106 1.218 . S
C1631 C389 1.212 . S
C1640 C403 1.204 . S
C1642 C128 1.211 . S
C1651 C150 1.220 . S
C1653 C425 1.213 . S
C1662 C461 1.253 . S
C1664 C175 1.246 . S
C1673 C186 1.211 . S
C1675 C7 1.204 . S
C1684 C216 1.219 . S
C1686 C43 1.213 . S
C1695 C230 1.216 . S
C1697 C51 1.210 . S
C1706 C252 1.214 . S
C1708 C81 1.206 . S
C1717 C95 1.211 . S
C1719 C274 1.216 . S
C1728 C296 1.221 . S
C1730 C117 1.212 . S
C1739 C326 1.210 . S
C1741 C139 1.201 . S
C1750 C340 1.176 . S
C1752 C162 1.182 . S
C1761 C191 1.259 . S
C1763 C359 1.251 . S
C1772 C384 1.216 . S
C1774 C279 1.209 . S
C1783 C414 1.210 . S
C1785 C301 1.201 . S
C1794 C315 1.211 . S
C1796 C436 1.216 . S
C1805 C345 1.203 . S
C1807 C448 1.210 . S
C1816 C472 1.216 . S
C1818 C235 1.210 . S
C1827 C492 1.214 . S
C1829 C257 1.209 . S
C1838 C516 1.213 . S
C1840 C205 1.205 . S
C1849 C890 1.180 . S
C1851 C536 1.173 . S
C1860 C558 1.215 . S
C1862 C1055 1.210 . S
C1871 C590 1.212 . S
C1873 C1011 1.205 . S
C1882 C1027 1.209 . S
C1884 C604 1.213 . S
C1893 C917 1.215 . S
C1895 C634 1.223 . S
C1904 C656 1.209 . S
C1906 C945 1.204 . S
C1915 C953 1.205 . S
C1917 C678 1.214 . S
C1926 C989 1.252 . S
C1928 C689 1.245 . S
C1937 C549 1.202 . S
C1939 C712 1.209 . S
C1948 C571 1.216 . S
C1950 C744 1.222 . S
C1959 C579 1.206 . S
C1961 C758 1.213 . S
C1970 C609 1.205 . S
C1972 C780 1.212 . S
C1981 C623 1.211 . S
C1983 C802 1.216 . S
C1992 C645 1.211 . S
C1994 C824 1.217 . S
C2003 C667 1.200 . S
C2005 C854 1.208 . S
C2014 C868 1.175 . S
C2016 C700 1.182 . S
C2025 C895 1.251 . S
C2027 C725 1.257 . S
C2036 C912 1.218 . S
C2038 C807 1.211 . S
C2047 C932 1.207 . S
C2049 C829 1.200 . S
C2058 C964 1.213 . S
C2060 C843 1.206 . S
C2069 C976 1.208 . S
C2071 C873 1.199 . S
C2080 C998 1.215 . S
C2082 C763 1.208 . S
C2091 C1022 1.210 . S
C2093 C785 1.205 . S
C2102 C733 1.203 . S
C2104 C1042 1.211 . S
C2113 C10 1.239 . S
C2115 C986 1.243 . S
C2124 C910 1.218 . S
C2126 C40 1.221 . S
C2135 C942 1.218 . S
C2137 C54 1.222 . S
C2146 C74 1.227 . S
C2148 C956 1.223 . S
C2157 C1052 1.223 . S
C2159 C98 1.227 . S
C2168 C1008 1.229 . S
C2170 C120 1.226 . S
C2179 C1020 1.235 . S
C2181 C142 1.233 . S
C2190 C169 1.283 . S
C2192 C887 1.282 . S
C2201 C184 1.242 . S
C2203 C866 1.235 . S
C2212 C800 1.224 . S
C2214 C208 1.229 . S
C2223 C822 1.227 . S
C2225 C228 1.226 . S
C2234 C846 1.221 . S
C2236 C250 1.220 . S
C2245 C272 1.222 . S
C2247 C736 1.226 . S
C2256 C294 1.226 . S
C2258 C756 1.229 . S
C2267 C318 1.227 . S
C2269 C778 1.228 . S
C2278 C722 1.236 . S
C2280 C338 1.233 . S
C2289 C373 1.276 . S
C2291 C703 1.277 . S
C2300 C382 1.219 . S
C2302 C568 1.220 . S
C2311 C406 1.225 . S
C2313 C582 1.227 . S
C2322 C428 1.229 . S
C2324 C602 1.225 . S
C2333 C458 1.244 . S
C2335 C546 1.237 . S
C2344 C648 1.228 . S
C2346 C470 1.227 . S
C2355 C502 1.225 . S
C2357 C670 1.228 . S
C2366 C514 1.233 . S
C2368 C626 1.230 . S
C2377 C164 1.276 . S
C2379 C711 1.286 . S
C2388 C741 1.307 . S
C2390 C103 1.308 . S
C2399 C125 1.325 . S
C2401 C769 1.325 . S
C2410 C147 1.320 . S
C2412 C791 1.322 . S
C2421 C29 1.324 . S
C2423 C813 1.323 . S
C2432 C835 1.318 . S
C2434 C59 1.320 . S
C2443 C87 1.321 . S
C2445 C851 1.321 . S
C2454 C15 1.312 . S
C2456 C879 1.312 . S
C2465 C447 1.294 . S
C2467 C898 1.284 . S
C2476 C1041 1.324 . S
C2478 C395 1.323 . S
C2487 C997 1.318 . S
C2489 C411 1.319 . S
C2498 C433 1.317 . S
C2500 C1033 1.318 . S
C2509 C527 1.321 . S
C2511 C923 1.321 . S
C2520 C483 1.319 . S
C2522 C931 1.319 . S
C2531 C961 1.326 . S
C2533 C491 1.325 . S
C2542 C975 1.294 . S
C2544 C360 1.284 . S
C2553 C351 1.319 . S
C2555 C535 1.318 . S
C2564 C213 1.313 . S
C2566 C631 1.312 . S
C2575 C653 1.325 . S
C2577 C241 1.325 . S
C2586 C263 1.325 . S
C2588 C675 1.324 . S
C2597 C197 1.284 . S
C2599 C690 1.277 . S
C2608 C307 1.319 . S
C2610 C587 1.321 . S
C2619 C323 1.317 . S
C2621 C615 1.319 . S
C2630 C557 1.321 . S
C2632 C285 1.320 . S
