# Generated by pormake.
# Topology why, (6)-cn, num edge types: 1
# Building blocks:
#     Node 0, Type 0, BuildingBlock: MIFKUJ_clean_sbu_0, # of connection points: 6
#     Node 1, Type 0, BuildingBlock: MIFKUJ_clean_sbu_0, # of connection points: 6
#     Node 2, Type 0, BuildingBlock: MIFKUJ_clean_sbu_0, # of connection points: 6
#     Node 3, Type 0, BuildingBlock: MIFKUJ_clean_sbu_0, # of connection points: 6
#     Node 4, Type 0, BuildingBlock: MIFKUJ_clean_sbu_0, # of connection points: 6
#     Node 5, Type 0, BuildingBlock: MIFKUJ_clean_sbu_0, # of connection points: 6
#     Node 6, Type 0, BuildingBlock: MIFKUJ_clean_sbu_0, # of connection points: 6
#     Node 7, Type 0, BuildingBlock: MIFKUJ_clean_sbu_0, # of connection points: 6
#     Node 8, Type 0, BuildingBlock: MIFKUJ_clean_sbu_0, # of connection points: 6
#     Node 9, Type 0, BuildingBlock: MIFKUJ_clean_sbu_0, # of connection points: 6
#     Node 10, Type 0, BuildingBlock: MIFKUJ_clean_sbu_0, # of connection points: 6
#     Node 11, Type 0, BuildingBlock: MIFKUJ_clean_sbu_0, # of connection points: 6
#     Node 12, Type 0, BuildingBlock: MIFKUJ_clean_sbu_0, # of connection points: 6
#     Node 13, Type 0, BuildingBlock: MIFKUJ_clean_sbu_0, # of connection points: 6
#     Node 14, Type 0, BuildingBlock: MIFKUJ_clean_sbu_0, # of connection points: 6
#     Node 15, Type 0, BuildingBlock: MIFKUJ_clean_sbu_0, # of connection points: 6
#     Edge 16, Type (0, 0), BuildingBlock: AJUNOK_clean_linker_0, # of connection points: 2
#     Edge 17, Type (0, 0), BuildingBlock: AJUNOK_clean_linker_0, # of connection points: 2
#     Edge 18, Type (0, 0), BuildingBlock: AJUNOK_clean_linker_0, # of connection points: 2
#     Edge 19, Type (0, 0), BuildingBlock: AJUNOK_clean_linker_0, # of connection points: 2
#     Edge 20, Type (0, 0), BuildingBlock: AJUNOK_clean_linker_0, # of connection points: 2
#     Edge 21, Type (0, 0), BuildingBlock: AJUNOK_clean_linker_0, # of connection points: 2
#     Edge 22, Type (0, 0), BuildingBlock: AJUNOK_clean_linker_0, # of connection points: 2
#     Edge 23, Type (0, 0), BuildingBlock: AJUNOK_clean_linker_0, # of connection points: 2
#     Edge 24, Type (0, 0), BuildingBlock: AJUNOK_clean_linker_0, # of connection points: 2
#     Edge 25, Type (0, 0), BuildingBlock: AJUNOK_clean_linker_0, # of connection points: 2
#     Edge 26, Type (0, 0), BuildingBlock: AJUNOK_clean_linker_0, # of connection points: 2
#     Edge 27, Type (0, 0), BuildingBlock: AJUNOK_clean_linker_0, # of connection points: 2
#     Edge 28, Type (0, 0), BuildingBlock: AJUNOK_clean_linker_0, # of connection points: 2
#     Edge 29, Type (0, 0), BuildingBlock: AJUNOK_clean_linker_0, # of connection points: 2
#     Edge 30, Type (0, 0), BuildingBlock: AJUNOK_clean_linker_0, # of connection points: 2
#     Edge 31, Type (0, 0), BuildingBlock: AJUNOK_clean_linker_0, # of connection points: 2
#     Edge 32, Type (0, 0), BuildingBlock: AJUNOK_clean_linker_0, # of connection points: 2
#     Edge 33, Type (0, 0), BuildingBlock: AJUNOK_clean_linker_0, # of connection points: 2
#     Edge 34, Type (0, 0), BuildingBlock: AJUNOK_clean_linker_0, # of connection points: 2
#     Edge 35, Type (0, 0), BuildingBlock: AJUNOK_clean_linker_0, # of connection points: 2
#     Edge 36, Type (0, 0), BuildingBlock: AJUNOK_clean_linker_0, # of connection points: 2
#     Edge 37, Type (0, 0), BuildingBlock: AJUNOK_clean_linker_0, # of connection points: 2
#     Edge 38, Type (0, 0), BuildingBlock: AJUNOK_clean_linker_0, # of connection points: 2
#     Edge 39, Type (0, 0), BuildingBlock: AJUNOK_clean_linker_0, # of connection points: 2
#     Edge 40, Type (0, 0), BuildingBlock: AJUNOK_clean_linker_0, # of connection points: 2
#     Edge 41, Type (0, 0), BuildingBlock: AJUNOK_clean_linker_0, # of connection points: 2
#     Edge 42, Type (0, 0), BuildingBlock: AJUNOK_clean_linker_0, # of connection points: 2
#     Edge 43, Type (0, 0), BuildingBlock: AJUNOK_clean_linker_0, # of connection points: 2
#     Edge 44, Type (0, 0), BuildingBlock: AJUNOK_clean_linker_0, # of connection points: 2
#     Edge 45, Type (0, 0), BuildingBlock: AJUNOK_clean_linker_0, # of connection points: 2
#     Edge 46, Type (0, 0), BuildingBlock: AJUNOK_clean_linker_0, # of connection points: 2
#     Edge 47, Type (0, 0), BuildingBlock: AJUNOK_clean_linker_0, # of connection points: 2
#     Edge 48, Type (0, 0), BuildingBlock: AJUNOK_clean_linker_0, # of connection points: 2
#     Edge 49, Type (0, 0), BuildingBlock: AJUNOK_clean_linker_0, # of connection points: 2
#     Edge 50, Type (0, 0), BuildingBlock: AJUNOK_clean_linker_0, # of connection points: 2
#     Edge 51, Type (0, 0), BuildingBlock: AJUNOK_clean_linker_0, # of connection points: 2
#     Edge 52, Type (0, 0), BuildingBlock: AJUNOK_clean_linker_0, # of connection points: 2
#     Edge 53, Type (0, 0), BuildingBlock: AJUNOK_clean_linker_0, # of connection points: 2
#     Edge 54, Type (0, 0), BuildingBlock: AJUNOK_clean_linker_0, # of connection points: 2
#     Edge 55, Type (0, 0), BuildingBlock: AJUNOK_clean_linker_0, # of connection points: 2
#     Edge 56, Type (0, 0), BuildingBlock: AJUNOK_clean_linker_0, # of connection points: 2
#     Edge 57, Type (0, 0), BuildingBlock: AJUNOK_clean_linker_0, # of connection points: 2
#     Edge 58, Type (0, 0), BuildingBlock: AJUNOK_clean_linker_0, # of connection points: 2
#     Edge 59, Type (0, 0), BuildingBlock: AJUNOK_clean_linker_0, # of connection points: 2
#     Edge 60, Type (0, 0), BuildingBlock: AJUNOK_clean_linker_0, # of connection points: 2
#     Edge 61, Type (0, 0), BuildingBlock: AJUNOK_clean_linker_0, # of connection points: 2
#     Edge 62, Type (0, 0), BuildingBlock: AJUNOK_clean_linker_0, # of connection points: 2
#     Edge 63, Type (0, 0), BuildingBlock: AJUNOK_clean_linker_0, # of connection points: 2
# Relax obj value: 0.205
# Max RMSD: 0.177
# Mean RMSD: 0.177
data_MOF--net-why--node1-MIFKUJ_clean_sbu_0--edge1-AJUNOK_clean_linker_0
_symmetry_space_group_name_H-M    P1
_symmetry_Int_Tables_number       1
_symmetry_cell_setting            triclinic
loop_
_symmetry_equiv_pos_as_xyz
'x, y, z'
_cell_length_a     38.383773
_cell_length_b     38.380407
_cell_length_c     23.317188
_cell_angle_alpha  89.963374
_cell_angle_beta   89.764838
_cell_angle_gamma 89.816434
loop_
_atom_site_label
_atom_site_type_symbol
_atom_site_fract_x
_atom_site_fract_y
_atom_site_fract_z
_atom_type_partial_charge
Zn0 Zn 0.32596 0.17336 0.08007 0.0
Zn1 Zn 0.40437 0.1609 0.99748 0.0
C2 C 0.26417 0.14205 0.03118 0.0
O3 O 0.25724 0.13476 0.08509 0.0
C4 C 0.46756 0.19384 0.03699 0.0
O5 O 0.48034 0.16267 0.02665 0.0
O6 O 0.29578 0.19344 0.14278 0.0
O7 O 0.35363 0.1327 0.11276 0.0
O8 O 0.3993 0.12274 0.05622 0.0
C9 C 0.30572 0.21915 0.17278 0.0
O10 O 0.33724 0.23153 0.16469 0.0
O11 O 0.29285 0.15679 0.01887 0.0
C12 C 0.44629 0.16551 0.89812 0.0
O13 O 0.43997 0.19865 0.90782 0.0
O14 O 0.43177 0.1427 0.92968 0.0
O15 O 0.36055 0.18335 0.96849 0.0
O16 O 0.3518 0.2141 0.04581 0.0
O17 O 0.43496 0.19885 0.03081 0.0
C18 C 0.38045 0.11476 0.09928 0.0
C19 C 0.35693 0.21289 0.99209 0.0
Zn20 Zn 0.59811 0.57967 0.33293 0.0
Zn21 Zn 0.61985 0.65659 0.25512 0.0
C22 C 0.59523 0.51702 0.26742 0.0
O23 O 0.56205 0.5255 0.26994 0.0
C24 C 0.579 0.71188 0.30107 0.0
O25 O 0.60963 0.72703 0.29876 0.0
O26 O 0.56498 0.5659 0.39613 0.0
O27 O 0.63876 0.60581 0.37004 0.0
O28 O 0.65465 0.65111 0.31707 0.0
C29 C 0.5631 0.53603 0.41933 0.0
O30 O 0.58543 0.51173 0.40393 0.0
O31 O 0.61703 0.53627 0.29326 0.0
C32 C 0.62046 0.70056 0.15687 0.0
O33 O 0.59004 0.68578 0.14898 0.0
O34 O 0.63918 0.69095 0.19881 0.0
O35 O 0.60695 0.61339 0.21229 0.0
O36 O 0.56611 0.6029 0.27503 0.0
O37 O 0.57671 0.68003 0.28659 0.0
C38 C 0.65888 0.63154 0.36041 0.0
C39 C 0.57538 0.60642 0.22305 0.0
Zn40 Zn 0.18965 0.84474 0.57932 0.0
Zn41 Zn 0.10072 0.85828 0.5108 0.0
C42 C 0.2553 0.84459 0.52317 0.0
O43 O 0.24998 0.81118 0.53171 0.0
C44 C 0.04879 0.81662 0.56169 0.0
O45 O 0.03416 0.84756 0.56476 0.0
O46 O 0.20607 0.81388 0.64448 0.0
O47 O 0.15977 0.8842 0.61494 0.0
O48 O 0.10846 0.89221 0.573 0.0
C49 C 0.23388 0.81876 0.67275 0.0
O50 O 0.25283 0.84638 0.66146 0.0
O51 O 0.23215 0.86598 0.54041 0.0
C52 C 0.06903 0.8906 0.40969 0.0
O53 O 0.10121 0.89378 0.39111 0.0
O54 O 0.06367 0.87781 0.45914 0.0
O55 O 0.14307 0.84687 0.46483 0.0
O56 O 0.16919 0.81008 0.52213 0.0
O57 O 0.0798 0.81438 0.54271 0.0
C58 C 0.13074 0.90038 0.6107 0.0
C59 C 0.15436 0.81643 0.47467 0.0
Zn60 Zn 0.92506 0.4345 0.83685 0.0
Zn61 Zn 0.91088 0.35261 0.76189 0.0
C62 C 0.92391 0.49249 0.76188 0.0
O63 O 0.95758 0.48752 0.76814 0.0
C64 C 0.95291 0.29612 0.80486 0.0
O65 O 0.92259 0.28034 0.80649 0.0
O66 O 0.95635 0.45956 0.89196 0.0
O67 O 0.88726 0.40766 0.87966 0.0
O68 O 0.87768 0.36023 0.82768 0.0
C69 C 0.95481 0.46253 0.94608 0.0
O70 O 0.92834 0.44904 0.97412 0.0
O71 O 0.90303 0.47197 0.78746 0.0
C72 C 0.90008 0.31328 0.65759 0.0
O73 O 0.92502 0.33344 0.63813 0.0
O74 O 0.88868 0.31779 0.7083 0.0
O75 O 0.92749 0.3944 0.71693 0.0
O76 O 0.96059 0.40862 0.78902 0.0
O77 O 0.95396 0.32798 0.7901 0.0
C78 C 0.87045 0.37968 0.87028 0.0
C79 C 0.95682 0.4045 0.73545 0.0
Zn80 Zn 0.61208 0.86846 0.00255 0.0
Zn81 Zn 0.6859 0.84806 0.91037 0.0
C82 C 0.55521 0.83138 0.94263 0.0
O83 O 0.55053 0.86071 0.91463 0.0
C84 C 0.74386 0.84028 0.98642 0.0
O85 O 0.73519 0.80751 0.97902 0.0
O86 O 0.58626 0.88978 0.06936 0.0
O87 O 0.65659 0.84749 0.03096 0.0
O88 O 0.65876 0.81305 0.95678 0.0
C89 C 0.57536 0.86761 0.1057 0.0
O90 O 0.58514 0.83494 0.10034 0.0
O91 O 0.58013 0.82898 0.97822 0.0
C92 C 0.73487 0.81349 0.83013 0.0
O93 O 0.75947 0.83054 0.85712 0.0
O94 O 0.70324 0.81885 0.84393 0.0
O95 O 0.65965 0.89036 0.87921 0.0
O96 O 0.61649 0.90373 0.93928 0.0
O97 O 0.72682 0.86363 0.95956 0.0
C98 C 0.65787 0.81691 0.01073 0.0
C99 C 0.63415 0.90981 0.89408 0.0
Zn100 Zn 0.40284 0.36771 0.7446 0.0
Zn101 Zn 0.42368 0.45267 0.66945 0.0
C102 C 0.44321 0.31606 0.67834 0.0
O103 O 0.41481 0.31262 0.64766 0.0
C104 C 0.42915 0.51217 0.7424 0.0
O105 O 0.46212 0.50382 0.73546 0.0
O106 O 0.37968 0.33646 0.80252 0.0
O107 O 0.4211 0.4106 0.78335 0.0
O108 O 0.45827 0.42592 0.71683 0.0
C109 C 0.39167 0.33362 0.85305 0.0
O110 O 0.4175 0.35372 0.8689 0.0
O111 O 0.44391 0.33866 0.71817 0.0
C112 C 0.45404 0.50117 0.58474 0.0
O113 O 0.43252 0.5245 0.6061 0.0
O114 O 0.45327 0.47022 0.60407 0.0
O115 O 0.3827 0.42628 0.63545 0.0
O116 O 0.36909 0.37687 0.6802 0.0
O117 O 0.40634 0.49375 0.71721 0.0
C118 C 0.4523 0.41552 0.76747 0.0
C119 C 0.36359 0.39935 0.64104 0.0
Zn120 Zn 0.91046 0.15593 0.48104 0.0
Zn121 Zn 0.82486 0.1698 0.40829 0.0
C122 C 0.96378 0.19903 0.43265 0.0
O123 O 0.97877 0.16842 0.42663 0.0
C124 C 0.76298 0.17571 0.474 0.0
O125 O 0.77172 0.20839 0.46564 0.0
O126 O 0.94583 0.13502 0.53457 0.0
O127 O 0.86712 0.16759 0.5254 0.0
O128 O 0.84876 0.20432 0.46075 0.0
C129 C 0.95328 0.15098 0.5806 0.0
O130 O 0.93614 0.17954 0.59389 0.0
O131 O 0.93292 0.20033 0.4527 0.0
C132 C 0.77839 0.20179 0.32185 0.0
O133 O 0.75534 0.17837 0.33749 0.0
O134 O 0.80849 0.20117 0.34427 0.0
O135 O 0.85282 0.12942 0.37211 0.0
O136 O 0.90356 0.12253 0.4165 0.0
O137 O 0.78233 0.1521 0.45226 0.0
C138 C 0.85769 0.19817 0.5121 0.0
C139 C 0.88209 0.11389 0.37768 0.0
Zn140 Zn 0.11652 0.65463 0.23393 0.0
Zn141 Zn 0.08905 0.57512 0.17041 0.0
C142 C 0.07859 0.71573 0.19261 0.0
O143 O 0.10842 0.7313 0.20228 0.0
C144 C 0.12639 0.51501 0.21735 0.0
O145 O 0.13986 0.51339 0.16554 0.0
O146 O 0.13866 0.68712 0.29183 0.0
O147 O 0.09483 0.61561 0.27947 0.0
O148 O 0.05687 0.60801 0.21144 0.0
C149 C 0.11686 0.70038 0.32688 0.0
O150 O 0.08426 0.69015 0.32494 0.0
O151 O 0.07657 0.68289 0.1997 0.0
C152 C 0.06489 0.53356 0.07163 0.0
O153 O 0.09757 0.53312 0.05486 0.0
O154 O 0.05669 0.54948 0.11744 0.0
O155 O 0.13038 0.59506 0.12592 0.0
O156 O 0.15095 0.64154 0.17131 0.0
O157 O 0.10524 0.53957 0.22914 0.0
C158 C 0.06335 0.61259 0.26411 0.0
C159 C 0.15288 0.61927 0.1308 0.0
Zn160 Zn 0.82732 0.66932 0.59538 0.0
Zn161 Zn 0.90756 0.65326 0.51703 0.0
C162 C 0.77061 0.67196 0.51589 0.0
O163 O 0.77842 0.70523 0.51858 0.0
C164 C 0.96484 0.69134 0.56254 0.0
O165 O 0.97983 0.66067 0.55749 0.0
O166 O 0.80743 0.69883 0.65961 0.0
O167 O 0.85371 0.62832 0.63068 0.0
O168 O 0.90031 0.61696 0.57711 0.0
C169 C 0.7752 0.70304 0.67055 0.0
O170 O 0.75224 0.68476 0.64197 0.0
O171 O 0.78793 0.65055 0.54626 0.0
C172 C 0.95074 0.6524 0.41723 0.0
O173 O 0.93587 0.68286 0.40936 0.0
O174 O 0.94161 0.63374 0.45968 0.0
O175 O 0.86569 0.67147 0.47505 0.0
O176 O 0.8529 0.70519 0.54753 0.0
O177 O 0.93266 0.69428 0.55084 0.0
C178 C 0.88043 0.60977 0.61914 0.0
C179 C 0.85801 0.70148 0.49407 0.0
Zn180 Zn 0.09028 0.0743 0.8352 0.0
Zn181 Zn 0.11517 0.15204 0.7593 0.0
C182 C 0.08828 0.01538 0.75999 0.0
O183 O 0.05494 0.02315 0.76231 0.0
C184 C 0.07826 0.21063 0.80361 0.0
O185 O 0.10963 0.22399 0.79934 0.0
O186 O 0.05842 0.05595 0.89719 0.0
O187 O 0.13114 0.09842 0.87291 0.0
O188 O 0.15086 0.14252 0.82037 0.0
C189 C 0.05793 0.0247 0.9152 0.0
O190 O 0.08091 1.0024 0.89499 0.0
O191 O 0.10943 0.03384 0.78861 0.0
C192 C 0.12477 0.18731 0.65067 0.0
O193 O 0.10248 0.16391 0.63277 0.0
O194 O 0.13535 0.18624 0.70221 0.0
O195 O 0.09629 0.11051 0.71692 0.0
O196 O 0.05782 0.10163 0.78444 0.0
O197 O 0.07428 0.17842 0.7928 0.0
C198 C 0.15338 0.12234 0.86349 0.0
C199 C 0.06477 0.10647 0.73184 0.0
Zn200 Zn 0.69028 0.34478 0.08096 0.0
Zn201 Zn 0.6078 0.36325 0.01119 0.0
C202 C 0.75247 0.34041 0.01623 0.0
O203 O 0.74346 0.30762 0.02221 0.0
C204 C 0.55487 0.31743 0.04946 0.0
O205 O 0.53916 0.34774 0.05481 0.0
O206 O 0.7062 0.31121 0.14229 0.0
O207 O 0.66322 0.38472 0.12043 0.0
O208 O 0.6126 0.39506 0.07773 0.0
C209 C 0.73535 0.31379 0.16756 0.0
O210 O 0.75541 0.34054 0.15576 0.0
O211 O 0.73348 0.36357 0.04007 0.0
C212 C 0.56537 0.36767 0.91213 0.0
O213 O 0.58222 0.33868 0.90048 0.0
O214 O 0.57238 0.38409 0.95793 0.0
O215 O 0.65169 0.35649 0.96602 0.0
O216 O 0.66727 0.3137 0.02169 0.0
O217 O 0.58675 0.31698 0.03429 0.0
C218 C 0.6346 0.4016 0.11679 0.0
C219 C 0.66213 0.32541 0.97151 0.0
Zn220 Zn 0.42127 0.94911 0.33614 0.0
Zn221 Zn 0.41465 0.85504 0.28125 0.0
C222 C 0.42147 1.00129 0.2522 0.0
O223 O 0.45465 0.9974 0.26437 0.0
C224 C 0.4548 0.79821 0.32212 0.0
O225 O 0.42349 0.78456 0.32384 0.0
O226 O 0.44342 0.98007 0.39539 0.0
O227 O 0.38434 0.91901 0.37832 0.0
O228 O 0.38228 0.86442 0.34579 0.0
C229 C 0.47078 0.97067 0.4218 0.0
O230 O 0.48357 0.93941 0.41221 0.0
O231 O 0.39938 0.98244 0.27869 0.0
C232 C 0.38293 0.82594 0.17734 0.0
O233 O 0.38245 0.85798 0.15748 0.0
O234 O 0.39298 0.82033 0.22828 0.0
O235 O 0.42784 0.8973 0.23712 0.0
O236 O 0.46206 0.9256 0.29496 0.0
O237 O 0.45775 0.83037 0.30977 0.0
C238 C 0.37201 0.88811 0.37997 0.0
C239 C 0.45809 0.90757 0.24993 0.0
Zn240 Zn 0.10815 0.36036 0.47837 0.0
Zn241 Zn 0.19489 0.34095 0.42009 0.0
C242 C 0.04804 0.32443 0.4351 0.0
O243 O 0.03341 0.35471 0.44597 0.0
C244 C 0.25434 0.37529 0.47186 0.0
O245 O 0.26 0.38567 0.41893 0.0
O246 O 0.07362 0.3819 0.53378 0.0
O247 O 0.14654 0.33745 0.52425 0.0
O248 O 0.16464 0.30372 0.45457 0.0
C249 C 0.07804 0.38573 0.58737 0.0
O250 O 0.10833 0.3777 0.60989 0.0
O251 O 0.08078 0.32111 0.44183 0.0
C252 C 0.21278 0.29189 0.33153 0.0
O253 O 0.17984 0.28348 0.33779 0.0
O254 O 0.22502 0.31654 0.36167 0.0
O255 O 0.17222 0.38192 0.38034 0.0
O256 O 0.12116 0.39646 0.41857 0.0
O257 O 0.22735 0.35728 0.48263 0.0
C258 C 0.15361 0.30717 0.50557 0.0
C259 C 0.14555 0.40168 0.38239 0.0
Zn260 Zn 0.9064 0.85097 0.2353 0.0
Zn261 Zn 0.91534 0.93643 0.15912 0.0
C262 C 0.95016 0.79668 0.19033 0.0
O263 O 0.92011 0.78039 0.19019 0.0
C264 C 0.92051 0.99707 0.22843 0.0
O265 O 0.95336 0.98865 0.22033 0.0
O266 O 0.88778 0.81543 0.29144 0.0
O267 O 0.91951 0.89436 0.278 0.0
O268 O 0.95209 0.91341 0.20774 0.0
C269 C 0.88181 0.82098 0.3443 0.0
O270 O 0.88622 0.8525 0.36484 0.0
O271 O 0.95071 0.82864 0.20479 0.0
C272 C 0.94723 0.98416 0.07404 0.0
O273 O 0.927 1.00855 0.09563 0.0
O274 O 0.94447 0.95313 0.09245 0.0
O275 O 0.87524 0.90744 0.12739 0.0
O276 O 0.87067 0.85701 0.1735 0.0
O277 O 0.89734 0.97828 0.20482 0.0
C278 C 0.94861 0.9056 0.26025 0.0
C279 C 0.86036 0.87812 0.13505 0.0
Zn280 Zn 0.41152 0.66601 0.00239 0.0
Zn281 Zn 0.32636 0.68082 0.92064 0.0
C282 C 0.45011 0.72184 0.93868 0.0
O283 O 0.43823 0.7083 0.8909 0.0
C284 C 0.26605 0.63728 0.96344 0.0
O285 O 0.26967 0.61772 0.91758 0.0
O286 O 0.43971 0.64103 0.06252 0.0
O287 O 0.36532 0.67972 0.03428 0.0
O288 O 0.34896 0.71737 0.96965 0.0
C289 C 0.47129 0.63556 0.04833 0.0
O290 O 0.48117 0.64359 0.99598 0.0
O291 O 0.44084 0.70886 0.98651 0.0
C292 C 0.27591 0.71382 0.84068 0.0
O293 O 0.25167 0.69568 0.86698 0.0
O294 O 0.30759 0.70975 0.85496 0.0
O295 O 0.35731 0.64172 0.88689 0.0
O296 O 0.40752 0.63517 0.93355 0.0
O297 O 0.28662 0.66281 0.97069 0.0
C298 C 0.35878 0.7109 0.02038 0.0
C299 C 0.38698 0.62694 0.89305 0.0
Zn300 Zn 0.60845 0.17126 0.73254 0.0
Zn301 Zn 0.59547 0.07969 0.66454 0.0
C302 C 0.5545 0.21239 0.66727 0.0
O303 O 0.56804 0.2008 0.61908 0.0
C304 C 0.59443 0.02495 0.74368 0.0
O305 O 0.56133 0.02973 0.73178 0.0
O306 O 0.63483 0.1981 0.79201 0.0
O307 O 0.59255 0.12674 0.76688 0.0
O308 O 0.55582 0.10312 0.70787 0.0
C309 C 0.63925 0.23029 0.78168 0.0
O310 O 0.63013 0.24241 0.7312 0.0
O311 O 0.56705 0.20225 0.71479 0.0
C312 C 0.54548 0.06318 0.57697 0.0
O313 O 0.53423 0.09464 0.58941 0.0
O314 O 0.57228 0.05155 0.60261 0.0
O315 O 0.63268 0.11076 0.62575 0.0
O316 O 0.63883 0.16378 0.66374 0.0
O317 O 0.61684 0.04418 0.71879 0.0
C318 C 0.56141 0.11972 0.75384 0.0
C319 C 0.64689 0.14087 0.62646 0.0
C320 C 0.47677 0.25712 0.05759 0.0
C321 C 0.49111 0.22394 0.0472 0.0
C322 C 0.49778 0.28683 0.06056 0.0
C323 C 0.53417 0.28477 0.05311 0.0
H324 H 0.44889 0.2604 0.06209 0.0
H325 H 0.48508 0.31177 0.067 0.0
S326 S 0.58539 0.20367 0.03022 0.0
N327 N 0.54455 0.19044 0.03363 0.0
N328 N 0.58398 0.24634 0.03882 0.0
C329 C 0.54914 0.25157 0.04521 0.0
C330 C 0.52767 0.22118 0.04243 0.0
C331 C 0.54942 0.76956 0.31341 0.0
C332 C 0.5473 0.73293 0.31321 0.0
C333 C 0.51955 0.79039 0.31865 0.0
C334 C 0.48624 0.77553 0.32441 0.0
H335 H 0.57425 0.78242 0.30744 0.0
H336 H 0.5226 0.81842 0.31645 0.0
S337 S 0.46673 0.68077 0.33145 0.0
N338 N 0.50937 0.6826 0.32276 0.0
N339 N 0.45323 0.72163 0.33331 0.0
C340 C 0.48388 0.73888 0.32688 0.0
C341 C 0.51436 0.71764 0.32107 0.0
C342 C 0.04272 0.75171 0.56009 0.0
C343 C 0.02781 0.78464 0.57091 0.0
C344 C 0.02243 0.72144 0.56051 0.0
C345 C 0.98635 0.72286 0.57133 0.0
H346 H 0.07006 0.74933 0.54905 0.0
H347 H 0.03495 0.69697 0.5496 0.0
S348 S 0.93527 0.80181 0.60932 0.0
N349 N 0.9752 0.81627 0.59839 0.0
N350 N 0.9371 0.75937 0.59839 0.0
C351 C 0.97141 0.75528 0.58522 0.0
C352 C 0.99212 0.78613 0.58526 0.0
C353 C 0.98399 0.23941 0.82035 0.0
C354 C 0.98561 0.27573 0.8121 0.0
C355 C 0.0142 0.21877 0.82009 0.0
C356 C 0.04734 0.23354 0.81174 0.0
H357 H 0.9591 0.2265 0.82518 0.0
H358 H 0.01139 0.19086 0.82503 0.0
S359 S 0.06628 0.32771 0.79257 0.0
N360 N 0.0235 0.32588 0.79886 0.0
N361 N 0.08013 0.28715 0.79838 0.0
C362 C 0.04953 0.27003 0.80617 0.0
C363 C 0.01873 0.29108 0.80629 0.0
C364 C 0.52508 0.77967 0.98509 0.0
C365 C 0.52918 0.80289 0.9388 0.0
C366 C 0.4992 0.75398 0.98476 0.0
C367 C 0.47674 0.74988 0.93762 0.0
H368 H 0.54151 0.78175 0.02259 0.0
H369 H 0.49705 0.73698 0.02172 0.0
S370 S 0.47742 0.80308 0.80468 0.0
N371 N 0.5089 0.81975 0.84406 0.0
N372 N 0.4608 0.77086 0.84286 0.0
C373 C 0.48096 0.77244 0.89054 0.0
C374 C 0.50699 0.79908 0.8913 0.0
C375 C 0.49433 0.2845 0.71961 0.0
C376 C 0.47236 0.29074 0.67252 0.0
C377 C 0.52058 0.25911 0.71729 0.0
C378 C 0.52637 0.2391 0.66751 0.0
H379 H 0.49084 0.29885 0.75924 0.0
H380 H 0.53654 0.2553 0.75502 0.0
S381 S 0.47683 0.24601 0.53158 0.0
N382 N 0.45852 0.27525 0.57413 0.0
N383 N 0.50829 0.2278 0.56944 0.0
C384 C 0.50504 0.24547 0.61965 0.0
C385 C 0.47793 0.27114 0.62228 0.0
C386 C 0.97073 0.26346 0.4449 0.0
C387 C 0.98424 0.23155 0.42486 0.0
C388 C 0.99108 0.29371 0.44535 0.0
C389 C 0.02588 0.29332 0.42605 0.0
H390 H 0.94464 0.26494 0.46251 0.0
H391 H 0.97981 0.31718 0.46346 0.0
S392 S 0.07196 0.21811 0.36047 0.0
N393 N 0.03342 0.20255 0.37868 0.0
N394 N 0.07172 0.2594 0.38028 0.0
C395 C 0.03913 0.26218 0.40285 0.0
C396 C 0.01831 0.23134 0.40201 0.0
C397 C 0.04614 0.77235 0.19917 0.0
C398 C 0.04651 0.73686 0.18378 0.0
C399 C 0.01519 0.79191 0.19868 0.0
C400 C 0.98326 0.77682 0.18273 0.0
H401 H 0.06966 0.78489 0.21412 0.0
H402 H 0.01617 0.81872 0.21314 0.0
S403 S 0.97102 0.68612 0.13105 0.0
N404 N 0.01289 0.68843 0.14642 0.0
N405 N 0.9547 0.72495 0.14579 0.0
C406 C 0.98363 0.74185 0.16425 0.0
C407 C 0.0152 0.72195 0.16473 0.0
C408 C 0.18121 0.11119 0.95892 0.0
C409 C 0.18278 0.12682 0.90429 0.0
C410 C 0.20789 0.11578 -0.00091 0.0
C411 C 0.23752 0.13589 0.98625 0.0
H412 H 0.15887 0.09572 0.97137 0.0
H413 H 0.20504 0.10363 0.04077 0.0
S414 S 0.25534 0.18118 0.84834 0.0
N415 N 0.21715 0.16245 0.83886 0.0
N416 N 0.26731 0.17084 0.9141 0.0
C417 C 0.23988 0.15105 0.93131 0.0
C418 C 0.21252 0.14662 0.8905 0.0
C419 C 0.59118 0.44168 0.16236 0.0
C420 C 0.62588 0.42981 0.15843 0.0
C421 C 0.58174 0.46927 0.19842 0.0
C422 C 0.60652 0.4866 0.23222 0.0
H423 H 0.57089 0.4297 0.13703 0.0
H424 H 0.55468 0.47736 0.19892 0.0
S425 S 0.70087 0.46521 0.23961 0.0
N426 N 0.68514 0.43704 0.19296 0.0
N427 N 0.6674 0.48919 0.26075 0.0
C428 C 0.6413 0.47472 0.22971 0.0
C429 C 0.65094 0.44627 0.19298 0.0
C430 C 0.31805 0.902 0.43772 0.0
C431 C 0.34469 0.8785 0.42235 0.0
C432 C 0.28962 0.89121 0.47171 0.0
C433 C 0.28695 0.8566 0.49176 0.0
H434 H 0.3184 0.92843 0.42144 0.0
H435 H 0.2691 0.90986 0.48082 0.0
S436 S 0.35284 0.78657 0.47032 0.0
N437 N 0.36849 0.82022 0.43464 0.0
N438 N 0.31565 0.80007 0.49838 0.0
C439 C 0.31454 0.83352 0.4792 0.0
C440 C 0.34323 0.84443 0.44457 0.0
C441 C 0.92425 0.56649 0.65404 0.0
C442 C 0.88995 0.57961 0.65613 0.0
C443 C 0.93465 0.53836 0.68816 0.0
C444 C 0.91121 0.52172 0.72563 0.0
H445 H 0.94356 0.57827 0.62619 0.0
H446 H 0.96144 0.52958 0.68486 0.0
S447 S 0.81811 0.54524 0.74681 0.0
N448 N 0.83229 0.57343 0.6986 0.0
N449 N 0.85183 0.5202 0.76251 0.0
C450 C 0.87667 0.53421 0.72791 0.0
C451 C 0.86609 0.56325 0.69338 0.0
C452 C 0.78785 0.88312 0.02348 0.0
C453 C 0.77314 0.84957 0.02514 0.0
C454 C 0.81595 0.89212 0.05896 0.0
C455 C 0.83037 0.86804 0.09799 0.0
H456 H 0.77785 0.90257 0.99411 0.0
H457 H 0.82637 0.91824 0.05569 0.0
S458 S 0.80037 0.77693 0.12057 0.0
N459 N 0.77454 0.79239 0.0702 0.0
N460 N 0.82704 0.80907 0.13652 0.0
C461 C 0.81555 0.83445 0.10046 0.0
C462 C 0.78708 0.8253 0.06419 0.0
C463 C 0.37353 0.57998 0.82087 0.0
C464 C 0.39818 0.59891 0.85266 0.0
C465 C 0.38369 0.55216 0.78516 0.0
C466 C 0.41895 0.54229 0.77937 0.0
H467 H 0.34606 0.5862 0.82446 0.0
H468 H 0.36364 0.53815 0.76224 0.0
S469 S 0.49409 0.58505 0.85047 0.0
N470 N 0.45971 0.60679 0.87373 0.0
N471 N 0.4787 0.55489 0.80712 0.0
C472 C 0.44393 0.56159 0.80995 0.0
C473 C 0.43359 0.58974 0.84639 0.0
C474 C 0.69569 0.12358 0.55941 0.0
C475 C 0.67448 0.14971 0.58382 0.0
C476 C 0.72388 0.13205 0.52321 0.0
C477 C 0.73181 0.16696 0.50964 0.0
H478 H 0.69118 0.09644 0.56973 0.0
H479 H 0.73993 0.11106 0.50664 0.0
S480 S 0.68173 0.24489 0.55758 0.0
N481 N 0.66173 0.21175 0.58828 0.0
N482 N 0.71418 0.22765 0.52054 0.0
C483 C 0.70985 0.19319 0.53205 0.0
C484 C 0.68137 0.18458 0.569 0.0
C485 C 0.11669 0.45695 0.34899 0.0
C486 C 0.14244 0.43115 0.3409 0.0
C487 C 0.11235 0.48433 0.30971 0.0
C488 C 0.13331 0.48701 0.26017 0.0
H489 H 0.09951 0.45598 0.38593 0.0
H490 H 0.09184 0.50317 0.31782 0.0
S491 S 0.20539 0.427 0.21941 0.0
N492 N 0.18998 0.41076 0.27991 0.0
N493 N 0.18163 0.46198 0.20617 0.0
C494 C 0.15956 0.46176 0.25191 0.0
C495 C 0.16417 0.43397 0.29217 0.0
C496 C 0.70275 0.67353 0.39821 0.0
C497 C 0.68734 0.64031 0.4011 0.0
C498 C 0.72942 0.68327 0.43555 0.0
C499 C 0.74224 0.66018 0.47735 0.0
H500 H 0.694 0.69255 0.36703 0.0
H501 H 0.74018 0.7092 0.43118 0.0
S502 S 0.71123 0.56993 0.50311 0.0
N503 N 0.68702 0.58412 0.4495 0.0
N504 N 0.7375 0.60238 0.5196 0.0
C505 C 0.72729 0.62675 0.48081 0.0
C506 C 0.69976 0.61687 0.44286 0.0
C507 C 0.07669 0.96928 0.68729 0.0
C508 C 0.10054 0.98588 0.72367 0.0
C509 C 0.08688 0.94178 0.65166 0.0
C510 C 0.12148 0.9293 0.65067 0.0
H511 H 0.04974 0.97768 0.68577 0.0
H512 H 0.06717 0.93022 0.62462 0.0
S513 S 0.19428 0.96326 0.73859 0.0
N514 N 0.16051 0.98757 0.75723 0.0
N515 N 0.17969 0.93561 0.69012 0.0
C516 C 0.14569 0.94536 0.68729 0.0
C517 C 0.13526 0.97369 0.72366 0.0
C518 C 0.79532 0.38455 0.97805 0.0
C519 C 0.78344 0.34987 0.98067 0.0
C520 C 0.82392 0.39395 0.94341 0.0
C521 C 0.84155 0.36912 0.90945 0.0
H522 H 0.78233 0.40471 0.00269 0.0
H523 H 0.83177 0.42103 0.94232 0.0
S524 S 0.82205 0.27443 0.9027 0.0
N525 N 0.79266 0.29036 0.94741 0.0
N526 N 0.84591 0.30799 0.88269 0.0
C527 C 0.83031 0.33426 0.91245 0.0
C528 C 0.80144 0.32466 0.94791 0.0
C529 C 0.37687 0.04296 0.21269 0.0
C530 C 0.41054 0.0284 0.21036 0.0
C531 C 0.36723 0.07061 0.17638 0.0
C532 C 0.39072 0.0845 0.13574 0.0
H533 H 0.35809 0.03359 0.24383 0.0
H534 H 0.34119 0.08131 0.18054 0.0
S535 S 0.48147 0.05388 0.11006 0.0
N536 N 0.46691 0.02882 0.16238 0.0
N537 N 0.44895 0.08035 0.09426 0.0
C538 C 0.42418 0.06938 0.13196 0.0
C539 C 0.43403 0.0415 0.16921 0.0
C540 C 0.30792 0.40584 0.50659 0.0
C541 C 0.28055 0.38233 0.51728 0.0
C542 C 0.33418 0.41159 0.54715 0.0
C543 C 0.33449 0.39378 0.59998 0.0
H544 H 0.30931 0.41982 0.46629 0.0
H545 H 0.3548 0.42968 0.53637 0.0
S546 S 0.26804 0.33038 0.6503 0.0
N547 N 0.25479 0.3419 0.58575 0.0
N548 N 0.3042 0.35246 0.66161 0.0
C549 C 0.30697 0.37057 0.61168 0.0
C550 C 0.28001 0.36496 0.57054 0.0
C551 C 0.86667 0.06578 0.30848 0.0
C552 C 0.89211 0.0851 0.33789 0.0
C553 C 0.87595 0.03751 0.27298 0.0
C554 C 0.91106 0.02763 0.26501 0.0
H555 H 0.83932 0.07208 0.31375 0.0
H556 H 0.85537 0.02319 0.25195 0.0
S557 S 0.98793 0.07142 0.32919 0.0
N558 N 0.95413 0.09333 0.35424 0.0
N559 N 0.97147 0.04072 0.28803 0.0
C560 C 0.93677 0.04734 0.29319 0.0
C561 C 0.92734 0.07588 0.32942 0.0
C562 C 0.20756 0.64805 0.09484 0.0
C563 C 0.18188 0.62224 0.08794 0.0
C564 C 0.23463 0.65231 0.05485 0.0
C565 C 0.23744 0.63101 0.00583 0.0
H566 H 0.20678 0.66542 0.13142 0.0
H567 H 0.25342 0.67277 0.06251 0.0
S568 S 0.17736 0.55907 0.96731 0.0
N569 N 0.16143 0.57464 0.02797 0.0
N570 N 0.21219 0.58269 0.953 0.0
C571 C 0.2122 0.60482 0.99849 0.0
C572 C 0.18454 0.60044 0.03937 0.0
C573 C 0.63829 0.98175 0.78101 0.0
C574 C 0.60489 0.99688 0.78408 0.0
C575 C 0.64761 0.95363 0.81659 0.0
C576 C 0.62407 0.93993 0.85727 0.0
H577 H 0.65715 0.99116 0.75002 0.0
H578 H 0.67349 0.9426 0.81215 0.0
S579 S 0.53375 0.97149 0.88403 0.0
N580 N 0.54856 0.99678 0.83222 0.0
N581 N 0.56595 0.94446 0.89907 0.0
C582 C 0.5908 0.95542 0.86148 0.0
C583 C 0.58125 0.98371 0.82492 0.0
C584 C 0.47172 0.12637 0.82293 0.0
C585 C 0.47493 0.15538 0.8592 0.0
C586 C 0.49955 0.11569 0.78774 0.0
C587 C 0.53194 0.13285 0.78924 0.0
H588 H 0.44751 0.11196 0.82162 0.0
H589 H 0.49595 0.09322 0.76032 0.0
S590 S 0.55369 0.20965 0.87913 0.0
N591 N 0.51255 0.20131 0.89448 0.0
N592 N 0.56552 0.17984 0.8319 0.0
C593 C 0.53547 0.1616 0.82626 0.0
C594 C 0.50677 0.17325 0.86028 0.0
C595 C 0.61863 0.73226 0.06348 0.0
C596 C 0.63147 0.72974 0.11975 0.0
C597 C 0.62778 0.76025 0.02795 0.0
C598 C 0.64932 0.78714 0.04804 0.0
H599 H 0.6015 0.71238 0.04664 0.0
H600 H 0.6173 0.76119 0.9849 0.0
S601 S 0.68964 0.79308 0.19178 0.0
N602 N 0.66714 0.75649 0.19367 0.0
N603 N 0.68354 0.80952 0.12713 0.0
C604 C 0.66225 0.78504 0.10413 0.0
C605 C 0.65355 0.75621 0.13993 0.0
C606 C 0.97592 0.89445 0.35583 0.0
C607 C 0.97975 0.90349 0.2977 0.0
C608 C 1.00485 0.89132 0.39182 0.0
C609 C 0.03893 0.89709 0.37131 0.0
H610 H 0.95037 0.88946 0.37382 0.0
H611 H 1.00035 0.88377 0.43599 0.0
S612 S 0.06328 0.9225 0.22278 0.0
N613 N 0.02045 0.91917 0.22149 0.0
N614 N 0.07476 0.91315 0.28916 0.0
C615 C 0.04317 0.90683 0.31352 0.0
C616 C 0.01364 0.91006 0.27677 0.0
C617 C 0.87705 0.25973 0.52664 0.0
C618 C 0.86688 0.22754 0.55024 0.0
C619 C 0.88751 0.28738 0.56175 0.0
C620 C 0.88721 0.28426 0.62183 0.0
H621 H 0.87781 0.26336 0.48057 0.0
H622 H 0.8959 0.3114 0.54163 0.0
S623 S 0.86166 0.20589 0.70507 0.0
N624 N 0.8566 0.19433 0.63741 0.0
N625 N 0.87539 0.24662 0.70354 0.0
C626 C 0.87625 0.25254 0.64609 0.0
C627 C 0.86629 0.22412 0.61026 0.0
C628 C 0.54606 0.90882 0.17425 0.0
C629 C 0.54668 0.87669 0.14535 0.0
C630 C 0.51778 0.91811 0.20965 0.0
C631 C 0.48866 0.89613 0.21558 0.0
H632 H 0.56756 0.92683 0.16948 0.0
H633 H 0.51822 0.94315 0.23107 0.0
S634 S 0.4776 0.80938 0.14746 0.0
N635 N 0.51619 0.82271 0.12539 0.0
N636 N 0.46248 0.84086 0.18888 0.0
C637 C 0.48907 0.86403 0.18643 0.0
C638 C 0.51825 0.85412 0.15213 0.0
C639 C 0.36809 0.27357 0.86513 0.0
C640 C 0.38041 0.30446 0.8902 0.0
C641 C 0.36044 0.24426 0.89862 0.0
C642 C 0.36417 0.24488 0.9586 0.0
H643 H 0.36537 0.27156 0.81902 0.0
H644 H 0.35164 0.22086 0.8772 0.0
S645 S 0.39333 0.32027 0.04558 0.0
N646 N 0.3949 0.33441 0.97872 0.0
N647 N 0.37942 0.27966 0.04202 0.0
C648 C 0.37532 0.27601 0.98448 0.0
C649 C 0.38379 0.30569 0.95018 0.0
C650 C 1.007 0.13442 0.71381 0.0
C651 C 0.03658 0.11693 0.69236 0.0
C652 C 0.98025 0.14538 0.67726 0.0
C653 C 0.98162 0.13842 0.61811 0.0
H654 H 1.00472 0.14021 0.75911 0.0
H655 H 0.9582 0.15919 0.6956 0.0
S656 S 0.05306 0.09282 0.54072 0.0
N657 N 0.06559 0.09289 0.60841 0.0
N658 N 0.01492 0.11285 0.53964 0.0
C659 C 0.01078 0.12048 0.59617 0.0
C660 C 0.03836 0.1099 0.63331 0.0
C661 C 0.16776 0.75916 0.42756 0.0
C662 C 0.1446 0.78722 0.43636 0.0
C663 C 0.15907 0.73127 0.39121 0.0
C664 C 0.12647 0.73002 0.36399 0.0
H665 H 0.19296 0.759 0.44833 0.0
H666 H 0.17767 0.7103 0.38521 0.0
S667 S 0.05637 0.79659 0.37323 0.0
N668 N 0.08779 0.8118 0.41422 0.0
N669 N 0.07109 0.75922 0.34782 0.0
C670 C 0.10304 0.75772 0.37278 0.0
C671 C 0.11219 0.78638 0.40846 0.0
C672 C 0.97761 0.64841 0.32012 0.0
C673 C 0.9793 0.64115 0.37907 0.0
C674 C 1.00471 0.63856 0.2831 0.0
C675 C 0.03496 0.62221 0.30404 0.0
H676 H 0.955 0.66145 0.30236 0.0
H677 H 1.00214 0.64425 0.23788 0.0
S678 S 0.05259 0.59863 0.4554 0.0
N679 N 0.01354 0.61682 0.45698 0.0
N680 N 0.06516 0.59952 0.38758 0.0
C681 C 0.03717 0.61526 0.36306 0.0
C682 C 1.00914 0.62442 0.40054 0.0
C683 C 0.13819 0.25042 0.63684 0.0
C684 C 0.13404 0.21697 0.61326 0.0
C685 C 0.14422 0.27946 0.60166 0.0
C686 C 0.147 0.27602 0.5417 0.0
H687 H 0.13583 0.25436 0.68271 0.0
H688 H 0.14687 0.30477 0.62171 0.0
S689 S 0.13998 0.19345 0.45945 0.0
N690 N 0.13394 0.18176 0.52687 0.0
N691 N 0.14616 0.236 0.46062 0.0
C692 C 0.14364 0.24248 0.51779 0.0
C693 C 0.13689 0.21306 0.5536 0.0
C694 C 0.48042 0.4081 0.8628 0.0
C695 C 0.48128 0.40271 0.80322 0.0
C696 C 0.50806 0.39723 0.89765 0.0
C697 C 0.53713 0.37983 0.87424 0.0
H698 H 0.45843 0.4213 0.88251 0.0
H699 H 0.50639 0.40198 0.94338 0.0
S700 S 0.55175 0.35883 0.72078 0.0
N701 N 0.51371 0.37906 0.72214 0.0
N702 N 0.56504 0.35744 0.788 0.0
C703 C 0.53811 0.37385 0.81482 0.0
C704 C 0.51037 0.38567 0.77917 0.0
C705 C 0.35339 0.77352 0.04865 0.0
C706 C 0.36593 0.73979 0.06069 0.0
C707 C 0.35869 0.80116 0.08681 0.0
C708 C 0.37657 0.7961 0.13863 0.0
H709 H 0.33903 0.77864 0.00962 0.0
H710 H 0.34851 0.82663 0.0757 0.0
S711 S 0.41717 0.7134 0.18845 0.0
N712 N 0.39872 0.70333 0.12691 0.0
N713 N 0.40854 0.75507 0.19866 0.0
C714 C 0.3897 0.76258 0.15092 0.0
C715 C 0.38444 0.73449 0.11194 0.0
C716 C 0.01366 0.39052 0.60337 0.0
C717 C 0.04774 0.39439 0.62459 0.0
C718 C 0.98448 0.39497 0.63895 0.0
C719 C 0.98806 0.40322 0.69741 0.0
H720 H 1.00937 0.383 0.5592 0.0
H721 H 0.95893 0.39136 0.62047 0.0
S722 S 0.07145 0.42216 0.77171 0.0
N723 N 0.08327 0.41108 0.70605 0.0
N724 N 0.02855 0.41945 0.77307 0.0
C725 C 0.02196 0.40926 0.71836 0.0
C726 C 0.05172 0.40471 0.68202 0.0
C727 C 0.8741 0.75702 0.3615 0.0
C728 C 0.87302 0.79135 0.3828 0.0
C729 C 0.86838 0.7283 0.39743 0.0
C730 C 0.86163 0.73257 0.45637 0.0
H731 H 0.88002 0.75209 0.31677 0.0
H732 H 0.86978 0.7025 0.37878 0.0
S733 S 0.85209 0.81718 0.53252 0.0
N734 N 0.86182 0.82807 0.46591 0.0
N735 N 0.85132 0.7742 0.53351 0.0
C736 C 0.85906 0.76683 0.47787 0.0
C737 C 0.86479 0.79614 0.44115 0.0
C738 C 0.48856 0.62398 0.15027 0.0
C739 C 0.49746 0.62468 0.09163 0.0
C740 C 0.51369 0.61719 0.19239 0.0
C741 C 0.54878 0.61097 0.1776 0.0
H742 H 0.46217 0.62968 0.16405 0.0
H743 H 0.50565 0.61781 0.23696 0.0
S744 S 0.58514 0.60668 0.03 0.0
N745 N 0.54357 0.61618 0.02089 0.0
N746 N 0.59061 0.60348 0.09996 0.0
C747 C 0.55778 0.61029 0.11907 0.0
C748 C 0.53221 0.61714 0.07617 0.0
C749 C 0.65643 0.2652 0.93121 0.0
C750 C 0.65956 0.3013 0.92211 0.0
C751 C 0.65122 0.24227 0.88532 0.0
C752 C 0.64907 0.25449 0.82846 0.0
H753 H 0.65692 0.2546 0.97427 0.0
H754 H 0.64775 0.21487 0.89487 0.0
S755 S 0.65937 0.34636 0.78116 0.0
N756 N 0.66295 0.34792 0.8516 0.0
N757 N 0.65306 0.30495 0.76542 0.0
C758 C 0.6537 0.29038 0.81857 0.0
C759 C 0.65898 0.31372 0.86533 0.0
C760 C 0.29313 0.26491 0.24647 0.0
C761 C 0.28154 0.23636 0.21396 0.0
C762 C 0.27074 0.28259 0.28417 0.0
C763 C 0.23572 0.27254 0.291 0.0
H764 H 0.31974 0.27395 0.24271 0.0
H765 H 0.28107 0.30444 0.30799 0.0
S766 S 0.19229 0.1991 0.2164 0.0
N767 N 0.2326 0.19858 0.19153 0.0
N768 N 0.19056 0.23177 0.2623 0.0
C769 C 0.22376 0.24387 0.25902 0.0
C770 C 0.24662 0.2258 0.22061 0.0
C771 C 0.53287 0.49483 0.48608 0.0
C772 C 0.53499 0.52821 0.46143 0.0
C773 C 0.50641 0.48636 0.52515 0.0
C774 C 0.48087 0.51091 0.54148 0.0
H775 H 0.55181 0.47489 0.47522 0.0
H776 H 0.50626 0.46029 0.54299 0.0
S777 S 0.47406 0.60197 0.48852 0.0
N778 N 0.50873 0.58599 0.45559 0.0
N779 N 0.45909 0.57004 0.52907 0.0
C780 C 0.48248 0.54439 0.51695 0.0
C781 C 0.50948 0.55304 0.477 0.0
C782 C 0.2233 0.7646 0.73061 0.0
C783 C 0.2453 0.79262 0.71607 0.0
C784 C 0.23345 0.73924 0.77063 0.0
C785 C 0.26619 0.74054 0.79737 0.0
H786 H 0.19787 0.76218 0.71107 0.0
H787 H 0.21549 0.71832 0.78039 0.0
S788 S 0.33351 0.80869 0.7754 0.0
N789 N 0.30137 0.82026 0.73254 0.0
N790 N 0.32048 0.77256 0.8072 0.0
C791 C 0.28853 0.76836 0.78326 0.0
C792 C 0.27807 0.79439 0.74287 0.0
C793 C 1.00516 0.50791 0.06445 0.0
C794 C 0.03752 0.51529 0.03848 0.0
C795 C 0.97871 0.4907 0.03447 0.0
C796 C 0.98334 0.48054 0.97702 0.0
H797 H 1.00019 0.51524 0.1086 0.0
H798 H 0.95434 0.48561 0.05648 0.0
S799 S 0.0632 0.49394 0.88892 0.0
N800 N 0.0727 0.5111 0.95179 0.0
N801 N 0.02307 0.47906 0.8952 0.0
C802 C 0.01559 0.48785 0.95039 0.0
C803 C 0.04264 0.50509 0.98116 0.0
C804 C 0.77933 0.77864 0.77575 0.0
C805 C 0.7441 0.78582 0.78798 0.0
C806 C 0.78902 0.75164 0.73846 0.0
C807 C 0.76392 0.73055 0.71164 0.0
H808 H 0.79979 0.79386 0.79537 0.0
H809 H 0.81654 0.74743 0.73053 0.0
S810 S 0.66793 0.73843 0.72888 0.0
N811 N 0.68385 0.76951 0.76989 0.0
N812 N 0.70206 0.71884 0.69998 0.0
C813 C 0.72853 0.73743 0.72335 0.0
C814 C 0.71864 0.76502 0.76135 0.0
C815 C 0.72517 0.25731 0.21898 0.0
C816 C 0.74708 0.28586 0.2074 0.0
C817 C 0.73566 0.23018 0.25539 0.0
C818 C 0.76858 0.23031 0.28173 0.0
H819 H 0.69957 0.25576 0.19979 0.0
H820 H 0.71767 0.20896 0.26295 0.0
S821 S 0.83598 0.29907 0.26585 0.0
N822 N 0.8034 0.31258 0.22551 0.0
N823 N 0.82314 0.26171 0.2937 0.0
C824 C 0.79086 0.25868 0.27045 0.0
C825 C 0.78011 0.28639 0.23346 0.0
C826 C 1.00359 0.03692 0.97174 0.0
C827 C 0.03026 0.01344 0.95597 0.0
C828 C 0.97669 0.02706 0.00914 0.0
C829 C 0.9752 0.99327 0.03239 0.0
H830 H 1.00331 0.06324 0.95499 0.0
H831 H 0.95696 0.04622 0.01993 0.0
S832 S 0.03905 0.92193 0.00597 0.0
N833 N 0.05367 0.95486 0.96732 0.0
N834 N 1.00323 0.9363 0.03748 0.0
C835 C 1.00171 0.96945 0.01704 0.0
C836 C 0.02918 0.97954 0.97896 0.0
C837 C 0.53671 1.0058 0.5281 0.0
C838 C 0.52618 0.04063 0.53624 0.0
C839 C 0.51853 0.98349 0.4914 0.0
C840 C 0.48898 0.99498 0.46115 0.0
H841 H 0.55914 0.99545 0.55054 0.0
H842 H 0.52781 0.95695 0.48688 0.0
S843 S 0.45085 0.08406 0.4662 0.0
N844 N 0.4844 0.08573 0.51015 0.0
N845 N 0.45025 0.04385 0.44123 0.0
C846 C 0.47818 0.02981 0.4686 0.0
C847 C 0.49676 0.05259 0.50604 0.0
loop_
_geom_bond_atom_site_label_1
_geom_bond_atom_site_label_2
_geom_bond_distance
_geom_bond_site_symmetry_2
_ccdc_geom_bond_type
Zn0 O6 1.969 . S
Zn0 O7 1.965 . S
Zn0 O11 2.024 . S
Zn0 O16 1.969 . S
Zn1 O8 1.969 . S
Zn1 O14 1.969 1_554 S
Zn1 O15 1.965 1_554 S
Zn1 O17 2.024 . S
C2 O3 1.229 . S
C2 O11 1.058 . S
O3 C2 1.229 . S
C4 O5 1.229 . S
C4 O17 1.058 . S
O5 C4 1.229 . S
O6 Zn0 1.969 . S
O6 C9 1.267 . S
O7 Zn0 1.965 . S
O7 C18 1.260 . S
O8 Zn1 1.969 . S
O8 C18 1.258 . S
C9 O6 1.267 . S
C9 O10 1.228 . S
O10 C9 1.228 . S
O11 Zn0 2.024 . S
O11 C2 1.058 . S
C12 O13 1.228 . S
C12 O14 1.267 . S
O13 C12 1.228 . S
O14 Zn1 1.969 1_556 S
O14 C12 1.267 . S
O15 Zn1 1.965 1_556 S
O15 C19 1.260 . S
O16 Zn0 1.969 . S
O16 C19 1.258 1_554 S
O17 Zn1 2.024 . S
O17 C4 1.058 . S
C18 O7 1.260 . S
C18 O8 1.258 . S
C19 O15 1.260 . S
C19 O16 1.258 1_556 S
Zn20 O26 1.969 . S
Zn20 O27 1.965 . S
Zn20 O31 2.024 . S
Zn20 O36 1.969 . S
Zn21 O28 1.969 . S
Zn21 O34 1.969 . S
Zn21 O35 1.965 . S
Zn21 O37 2.024 . S
C22 O23 1.229 . S
C22 O31 1.058 . S
O23 C22 1.229 . S
C24 O25 1.229 . S
C24 O37 1.058 . S
O25 C24 1.229 . S
O26 Zn20 1.969 . S
O26 C29 1.267 . S
O27 Zn20 1.965 . S
O27 C38 1.260 . S
O28 Zn21 1.969 . S
O28 C38 1.258 . S
C29 O26 1.267 . S
C29 O30 1.228 . S
O30 C29 1.228 . S
O31 Zn20 2.024 . S
O31 C22 1.058 . S
C32 O33 1.228 . S
C32 O34 1.267 . S
O33 C32 1.228 . S
O34 Zn21 1.969 . S
O34 C32 1.267 . S
O35 Zn21 1.965 . S
O35 C39 1.260 . S
O36 Zn20 1.969 . S
O36 C39 1.258 . S
O37 Zn21 2.024 . S
O37 C24 1.058 . S
C38 O27 1.260 . S
C38 O28 1.258 . S
C39 O35 1.260 . S
C39 O36 1.258 . S
Zn40 O46 1.969 . S
Zn40 O47 1.965 . S
Zn40 O51 2.024 . S
Zn40 O56 1.969 . S
Zn41 O48 1.969 . S
Zn41 O54 1.969 . S
Zn41 O55 1.965 . S
Zn41 O57 2.024 . S
C42 O43 1.229 . S
C42 O51 1.058 . S
O43 C42 1.229 . S
C44 O45 1.229 . S
C44 O57 1.058 . S
O45 C44 1.229 . S
O46 Zn40 1.969 . S
O46 C49 1.267 . S
O47 Zn40 1.965 . S
O47 C58 1.260 . S
O48 Zn41 1.969 . S
O48 C58 1.258 . S
C49 O46 1.267 . S
C49 O50 1.228 . S
O50 C49 1.228 . S
O51 Zn40 2.024 . S
O51 C42 1.058 . S
C52 O53 1.228 . S
C52 O54 1.267 . S
O53 C52 1.228 . S
O54 Zn41 1.969 . S
O54 C52 1.267 . S
O55 Zn41 1.965 . S
O55 C59 1.260 . S
O56 Zn40 1.969 . S
O56 C59 1.258 . S
O57 Zn41 2.024 . S
O57 C44 1.058 . S
C58 O47 1.260 . S
C58 O48 1.258 . S
C59 O55 1.260 . S
C59 O56 1.258 . S
Zn60 O66 1.969 . S
Zn60 O67 1.965 . S
Zn60 O71 2.024 . S
Zn60 O76 1.969 . S
Zn61 O68 1.969 . S
Zn61 O74 1.969 . S
Zn61 O75 1.965 . S
Zn61 O77 2.024 . S
C62 O63 1.229 . S
C62 O71 1.058 . S
O63 C62 1.229 . S
C64 O65 1.229 . S
C64 O77 1.058 . S
O65 C64 1.229 . S
O66 Zn60 1.969 . S
O66 C69 1.267 . S
O67 Zn60 1.965 . S
O67 C78 1.260 . S
O68 Zn61 1.969 . S
O68 C78 1.258 . S
C69 O66 1.267 . S
C69 O70 1.228 . S
O70 C69 1.228 . S
O71 Zn60 2.024 . S
O71 C62 1.058 . S
C72 O73 1.228 . S
C72 O74 1.267 . S
O73 C72 1.228 . S
O74 Zn61 1.969 . S
O74 C72 1.267 . S
O75 Zn61 1.965 . S
O75 C79 1.260 . S
O76 Zn60 1.969 . S
O76 C79 1.258 . S
O77 Zn61 2.024 . S
O77 C64 1.058 . S
C78 O67 1.260 . S
C78 O68 1.258 . S
C79 O75 1.260 . S
C79 O76 1.258 . S
Zn80 O86 1.969 1_556 S
Zn80 O87 1.965 1_556 S
Zn80 O91 2.024 . S
Zn80 O96 1.969 . S
Zn81 O88 1.969 . S
Zn81 O94 1.969 . S
Zn81 O95 1.965 . S
Zn81 O97 2.024 . S
C82 O83 1.229 . S
C82 O91 1.058 . S
O83 C82 1.229 . S
C84 O85 1.229 . S
C84 O97 1.058 . S
O85 C84 1.229 . S
O86 Zn80 1.969 1_554 S
O86 C89 1.267 . S
O87 Zn80 1.965 1_554 S
O87 C98 1.260 . S
O88 Zn81 1.969 . S
O88 C98 1.258 1_556 S
C89 O86 1.267 . S
C89 O90 1.228 . S
O90 C89 1.228 . S
O91 Zn80 2.024 . S
O91 C82 1.058 . S
C92 O93 1.228 . S
C92 O94 1.267 . S
O93 C92 1.228 . S
O94 Zn81 1.969 . S
O94 C92 1.267 . S
O95 Zn81 1.965 . S
O95 C99 1.260 . S
O96 Zn80 1.969 . S
O96 C99 1.258 . S
O97 Zn81 2.024 . S
O97 C84 1.058 . S
C98 O87 1.260 . S
C98 O88 1.258 1_554 S
C99 O95 1.260 . S
C99 O96 1.258 . S
Zn100 O106 1.969 . S
Zn100 O107 1.965 . S
Zn100 O111 2.024 . S
Zn100 O116 1.969 . S
Zn101 O108 1.969 . S
Zn101 O114 1.969 . S
Zn101 O115 1.965 . S
Zn101 O117 2.024 . S
C102 O103 1.229 . S
C102 O111 1.058 . S
O103 C102 1.229 . S
C104 O105 1.229 . S
C104 O117 1.058 . S
O105 C104 1.229 . S
O106 Zn100 1.969 . S
O106 C109 1.267 . S
O107 Zn100 1.965 . S
O107 C118 1.260 . S
O108 Zn101 1.969 . S
O108 C118 1.258 . S
C109 O106 1.267 . S
C109 O110 1.228 . S
O110 C109 1.228 . S
O111 Zn100 2.024 . S
O111 C102 1.058 . S
C112 O113 1.228 . S
C112 O114 1.267 . S
O113 C112 1.228 . S
O114 Zn101 1.969 . S
O114 C112 1.267 . S
O115 Zn101 1.965 . S
O115 C119 1.260 . S
O116 Zn100 1.969 . S
O116 C119 1.258 . S
O117 Zn101 2.024 . S
O117 C104 1.058 . S
C118 O107 1.260 . S
C118 O108 1.258 . S
C119 O115 1.260 . S
C119 O116 1.258 . S
Zn120 O126 1.969 . S
Zn120 O127 1.965 . S
Zn120 O131 2.024 . S
Zn120 O136 1.969 . S
Zn121 O128 1.969 . S
Zn121 O134 1.969 . S
Zn121 O135 1.965 . S
Zn121 O137 2.024 . S
C122 O123 1.229 . S
C122 O131 1.058 . S
O123 C122 1.229 . S
C124 O125 1.229 . S
C124 O137 1.058 . S
O125 C124 1.229 . S
O126 Zn120 1.969 . S
O126 C129 1.267 . S
O127 Zn120 1.965 . S
O127 C138 1.260 . S
O128 Zn121 1.969 . S
O128 C138 1.258 . S
C129 O126 1.267 . S
C129 O130 1.228 . S
O130 C129 1.228 . S
O131 Zn120 2.024 . S
O131 C122 1.058 . S
C132 O133 1.228 . S
C132 O134 1.267 . S
O133 C132 1.228 . S
O134 Zn121 1.969 . S
O134 C132 1.267 . S
O135 Zn121 1.965 . S
O135 C139 1.260 . S
O136 Zn120 1.969 . S
O136 C139 1.258 . S
O137 Zn121 2.024 . S
O137 C124 1.058 . S
C138 O127 1.260 . S
C138 O128 1.258 . S
C139 O135 1.260 . S
C139 O136 1.258 . S
Zn140 O146 1.969 . S
Zn140 O147 1.965 . S
Zn140 O151 2.024 . S
Zn140 O156 1.969 . S
Zn141 O148 1.969 . S
Zn141 O154 1.969 . S
Zn141 O155 1.965 . S
Zn141 O157 2.024 . S
C142 O143 1.229 . S
C142 O151 1.058 . S
O143 C142 1.229 . S
C144 O145 1.229 . S
C144 O157 1.058 . S
O145 C144 1.229 . S
O146 Zn140 1.969 . S
O146 C149 1.267 . S
O147 Zn140 1.965 . S
O147 C158 1.260 . S
O148 Zn141 1.969 . S
O148 C158 1.258 . S
C149 O146 1.267 . S
C149 O150 1.228 . S
O150 C149 1.228 . S
O151 Zn140 2.024 . S
O151 C142 1.058 . S
C152 O153 1.228 . S
C152 O154 1.267 . S
O153 C152 1.228 . S
O154 Zn141 1.969 . S
O154 C152 1.267 . S
O155 Zn141 1.965 . S
O155 C159 1.260 . S
O156 Zn140 1.969 . S
O156 C159 1.258 . S
O157 Zn141 2.024 . S
O157 C144 1.058 . S
C158 O147 1.260 . S
C158 O148 1.258 . S
C159 O155 1.260 . S
C159 O156 1.258 . S
Zn160 O166 1.969 . S
Zn160 O167 1.965 . S
Zn160 O171 2.024 . S
Zn160 O176 1.969 . S
Zn161 O168 1.969 . S
Zn161 O174 1.969 . S
Zn161 O175 1.965 . S
Zn161 O177 2.024 . S
C162 O163 1.229 . S
C162 O171 1.058 . S
O163 C162 1.229 . S
C164 O165 1.229 . S
C164 O177 1.058 . S
O165 C164 1.229 . S
O166 Zn160 1.969 . S
O166 C169 1.267 . S
O167 Zn160 1.965 . S
O167 C178 1.260 . S
O168 Zn161 1.969 . S
O168 C178 1.258 . S
C169 O166 1.267 . S
C169 O170 1.228 . S
O170 C169 1.228 . S
O171 Zn160 2.024 . S
O171 C162 1.058 . S
C172 O173 1.228 . S
C172 O174 1.267 . S
O173 C172 1.228 . S
O174 Zn161 1.969 . S
O174 C172 1.267 . S
O175 Zn161 1.965 . S
O175 C179 1.260 . S
O176 Zn160 1.969 . S
O176 C179 1.258 . S
O177 Zn161 2.024 . S
O177 C164 1.058 . S
C178 O167 1.260 . S
C178 O168 1.258 . S
C179 O175 1.260 . S
C179 O176 1.258 . S
Zn180 O186 1.969 . S
Zn180 O187 1.965 . S
Zn180 O191 2.024 . S
Zn180 O196 1.969 . S
Zn181 O188 1.969 . S
Zn181 O194 1.969 . S
Zn181 O195 1.965 . S
Zn181 O197 2.024 . S
C182 O183 1.237 . S
C182 O191 1.058 . S
O183 C182 1.237 . S
C184 O185 1.229 . S
C184 O197 1.058 . S
O185 C184 1.229 . S
O186 Zn180 1.969 . S
O186 C189 1.267 . S
O187 Zn180 1.965 . S
O187 C198 1.260 . S
O188 Zn181 1.969 . S
O188 C198 1.258 . S
C189 O186 1.267 . S
C189 O190 1.228 . S
O190 C189 1.228 . S
O191 Zn180 2.024 . S
O191 C182 1.058 . S
C192 O193 1.228 . S
C192 O194 1.267 . S
O193 C192 1.228 . S
O194 Zn181 1.969 . S
O194 C192 1.267 . S
O195 Zn181 1.965 . S
O195 C199 1.260 . S
O196 Zn180 1.969 . S
O196 C199 1.258 . S
O197 Zn181 2.024 . S
O197 C184 1.058 . S
C198 O187 1.260 . S
C198 O188 1.258 . S
C199 O195 1.260 . S
C199 O196 1.258 . S
Zn200 O206 1.969 . S
Zn200 O207 1.965 . S
Zn200 O211 2.024 . S
Zn200 O216 1.969 . S
Zn201 O208 1.969 . S
Zn201 O214 1.969 1_554 S
Zn201 O215 1.965 1_554 S
Zn201 O217 2.024 . S
C202 O203 1.229 . S
C202 O211 1.058 . S
O203 C202 1.229 . S
C204 O205 1.229 . S
C204 O217 1.058 . S
O205 C204 1.229 . S
O206 Zn200 1.969 . S
O206 C209 1.267 . S
O207 Zn200 1.965 . S
O207 C218 1.260 . S
O208 Zn201 1.969 . S
O208 C218 1.258 . S
C209 O206 1.267 . S
C209 O210 1.228 . S
O210 C209 1.228 . S
O211 Zn200 2.024 . S
O211 C202 1.058 . S
C212 O213 1.228 . S
C212 O214 1.267 . S
O213 C212 1.228 . S
O214 Zn201 1.969 1_556 S
O214 C212 1.267 . S
O215 Zn201 1.965 1_556 S
O215 C219 1.260 . S
O216 Zn200 1.969 . S
O216 C219 1.258 1_554 S
O217 Zn201 2.024 . S
O217 C204 1.058 . S
C218 O207 1.260 . S
C218 O208 1.258 . S
C219 O215 1.260 . S
C219 O216 1.258 1_556 S
Zn220 O226 1.969 . S
Zn220 O227 1.965 . S
Zn220 O231 2.024 . S
Zn220 O236 1.969 . S
Zn221 O228 1.969 . S
Zn221 O234 1.969 . S
Zn221 O235 1.965 . S
Zn221 O237 2.024 . S
C222 O223 1.237 . S
C222 O231 1.058 . S
O223 C222 1.237 . S
C224 O225 1.229 . S
C224 O237 1.058 . S
O225 C224 1.229 . S
O226 Zn220 1.969 . S
O226 C229 1.267 . S
O227 Zn220 1.965 . S
O227 C238 1.260 . S
O228 Zn221 1.969 . S
O228 C238 1.258 . S
C229 O226 1.267 . S
C229 O230 1.228 . S
O230 C229 1.228 . S
O231 Zn220 2.024 . S
O231 C222 1.058 . S
C232 O233 1.228 . S
C232 O234 1.267 . S
O233 C232 1.228 . S
O234 Zn221 1.969 . S
O234 C232 1.267 . S
O235 Zn221 1.965 . S
O235 C239 1.260 . S
O236 Zn220 1.969 . S
O236 C239 1.258 . S
O237 Zn221 2.024 . S
O237 C224 1.058 . S
C238 O227 1.260 . S
C238 O228 1.258 . S
C239 O235 1.260 . S
C239 O236 1.258 . S
Zn240 O246 1.969 . S
Zn240 O247 1.965 . S
Zn240 O251 2.024 . S
Zn240 O256 1.969 . S
Zn241 O248 1.969 . S
Zn241 O254 1.969 . S
Zn241 O255 1.965 . S
Zn241 O257 2.024 . S
C242 O243 1.229 . S
C242 O251 1.058 . S
O243 C242 1.229 . S
C244 O245 1.229 . S
C244 O257 1.058 . S
O245 C244 1.229 . S
O246 Zn240 1.969 . S
O246 C249 1.267 . S
O247 Zn240 1.965 . S
O247 C258 1.260 . S
O248 Zn241 1.969 . S
O248 C258 1.258 . S
C249 O246 1.267 . S
C249 O250 1.228 . S
O250 C249 1.228 . S
O251 Zn240 2.024 . S
O251 C242 1.058 . S
C252 O253 1.228 . S
C252 O254 1.267 . S
O253 C252 1.228 . S
O254 Zn241 1.969 . S
O254 C252 1.267 . S
O255 Zn241 1.965 . S
O255 C259 1.260 . S
O256 Zn240 1.969 . S
O256 C259 1.258 . S
O257 Zn241 2.024 . S
O257 C244 1.058 . S
C258 O247 1.260 . S
C258 O248 1.258 . S
C259 O255 1.260 . S
C259 O256 1.258 . S
Zn260 O266 1.969 . S
Zn260 O267 1.965 . S
Zn260 O271 2.024 . S
Zn260 O276 1.969 . S
Zn261 O268 1.969 . S
Zn261 O274 1.969 . S
Zn261 O275 1.965 . S
Zn261 O277 2.024 . S
C262 O263 1.229 . S
C262 O271 1.058 . S
O263 C262 1.229 . S
C264 O265 1.237 . S
C264 O277 1.058 . S
O265 C264 1.237 . S
O266 Zn260 1.969 . S
O266 C269 1.267 . S
O267 Zn260 1.965 . S
O267 C278 1.260 . S
O268 Zn261 1.969 . S
O268 C278 1.258 . S
C269 O266 1.267 . S
C269 O270 1.228 . S
O270 C269 1.228 . S
O271 Zn260 2.024 . S
O271 C262 1.058 . S
C272 O273 1.228 . S
C272 O274 1.267 . S
O273 C272 1.228 . S
O274 Zn261 1.969 . S
O274 C272 1.267 . S
O275 Zn261 1.965 . S
O275 C279 1.260 . S
O276 Zn260 1.969 . S
O276 C279 1.258 . S
O277 Zn261 2.024 . S
O277 C264 1.058 . S
C278 O267 1.260 . S
C278 O268 1.258 . S
C279 O275 1.260 . S
C279 O276 1.258 . S
Zn280 O286 1.969 1_556 S
Zn280 O287 1.965 1_556 S
Zn280 O291 2.024 . S
Zn280 O296 1.969 . S
Zn281 O288 1.969 . S
Zn281 O294 1.969 . S
Zn281 O295 1.965 . S
Zn281 O297 2.024 . S
C282 O283 1.229 . S
C282 O291 1.058 . S
O283 C282 1.229 . S
C284 O285 1.229 . S
C284 O297 1.058 . S
O285 C284 1.229 . S
O286 Zn280 1.969 1_554 S
O286 C289 1.267 . S
O287 Zn280 1.965 1_554 S
O287 C298 1.260 . S
O288 Zn281 1.969 . S
O288 C298 1.258 1_556 S
C289 O286 1.267 . S
C289 O290 1.228 . S
O290 C289 1.228 . S
O291 Zn280 2.024 . S
O291 C282 1.058 . S
C292 O293 1.228 . S
C292 O294 1.267 . S
O293 C292 1.228 . S
O294 Zn281 1.969 . S
O294 C292 1.267 . S
O295 Zn281 1.965 . S
O295 C299 1.260 . S
O296 Zn280 1.969 . S
O296 C299 1.258 . S
O297 Zn281 2.024 . S
O297 C284 1.058 . S
C298 O287 1.260 . S
C298 O288 1.258 1_554 S
C299 O295 1.260 . S
C299 O296 1.258 . S
Zn300 O306 1.969 . S
Zn300 O307 1.965 . S
Zn300 O311 2.024 . S
Zn300 O316 1.969 . S
Zn301 O308 1.969 . S
Zn301 O314 1.969 . S
Zn301 O315 1.965 . S
Zn301 O317 2.024 . S
C302 O303 1.229 . S
C302 O311 1.058 . S
O303 C302 1.229 . S
C304 O305 1.237 . S
C304 O317 1.058 . S
O305 C304 1.237 . S
O306 Zn300 1.969 . S
O306 C309 1.267 . S
O307 Zn300 1.965 . S
O307 C318 1.260 . S
O308 Zn301 1.969 . S
O308 C318 1.258 . S
C309 O306 1.267 . S
C309 O310 1.228 . S
O310 C309 1.228 . S
O311 Zn300 2.024 . S
O311 C302 1.058 . S
C312 O313 1.228 . S
C312 O314 1.267 . S
O313 C312 1.228 . S
O314 Zn301 1.969 . S
O314 C312 1.267 . S
O315 Zn301 1.965 . S
O315 C319 1.260 . S
O316 Zn300 1.969 . S
O316 C319 1.258 . S
O317 Zn301 2.024 . S
O317 C304 1.058 . S
C318 O307 1.260 . S
C318 O308 1.258 . S
C319 O315 1.260 . S
C319 O316 1.258 . S
C320 C321 1.369 . S
C320 C322 1.419 . S
C320 H324 0.930 . S
C321 C320 1.369 . S
C321 C330 1.429 . S
C322 C320 1.419 . S
C322 C323 1.363 . S
C322 H325 0.929 . S
C323 C322 1.363 . S
C323 C329 1.428 . S
H324 C320 0.930 . S
H325 C322 0.929 . S
S326 N327 1.613 . S
S326 N328 1.610 . S
N327 S326 1.613 . S
N327 C330 1.350 . S
N328 S326 1.610 . S
N328 C329 1.351 . S
C329 C323 1.428 . S
C329 N328 1.351 . S
C329 C330 1.434 . S
C330 C321 1.429 . S
C330 N327 1.350 . S
C330 C329 1.434 . S
C331 C332 1.369 . S
C331 C333 1.419 . S
C331 H335 0.930 . S
C332 C331 1.369 . S
C332 C341 1.429 . S
C333 C331 1.419 . S
C333 C334 1.363 . S
C333 H336 0.929 . S
C334 C333 1.363 . S
C334 C340 1.428 . S
H335 C331 0.930 . S
H336 C333 0.929 . S
S337 N338 1.613 . S
S337 N339 1.610 . S
N338 S337 1.613 . S
N338 C341 1.350 . S
N339 S337 1.610 . S
N339 C340 1.351 . S
C340 C334 1.428 . S
C340 N339 1.351 . S
C340 C341 1.434 . S
C341 C332 1.429 . S
C341 N338 1.350 . S
C341 C340 1.434 . S
C342 C343 1.369 . S
C342 C344 1.419 . S
C342 H346 0.930 . S
C343 C342 1.369 . S
C343 C352 1.429 1_455 S
C344 C342 1.419 . S
C344 C345 1.363 1_455 S
C344 H347 0.929 . S
C345 C344 1.363 1_655 S
C345 C351 1.428 . S
H346 C342 0.930 . S
H347 C344 0.929 . S
S348 N349 1.613 . S
S348 N350 1.610 . S
N349 S348 1.613 . S
N349 C352 1.350 . S
N350 S348 1.610 . S
N350 C351 1.351 . S
C351 C345 1.428 . S
C351 N350 1.351 . S
C351 C352 1.434 . S
C352 C343 1.429 1_655 S
C352 N349 1.350 . S
C352 C351 1.434 . S
C353 C354 1.369 . S
C353 C355 1.419 1_655 S
C353 H357 0.930 . S
C354 C353 1.369 . S
C354 C363 1.429 . S
C355 C353 1.419 1_455 S
C355 C356 1.363 . S
C355 H358 0.929 . S
C356 C355 1.363 . S
C356 C362 1.428 . S
H357 C353 0.930 . S
H358 C355 0.929 . S
S359 N360 1.613 1_455 S
S359 N361 1.610 . S
N360 S359 1.613 1_655 S
N360 C363 1.350 . S
N361 S359 1.610 . S
N361 C362 1.351 . S
C362 C356 1.428 . S
C362 N361 1.351 . S
C362 C363 1.434 1_455 S
C363 C354 1.429 . S
C363 N360 1.350 . S
C363 C362 1.434 1_655 S
C364 C365 1.369 . S
C364 C366 1.419 . S
C364 H368 0.930 . S
C365 C364 1.369 . S
C365 C374 1.429 . S
C366 C364 1.419 . S
C366 C367 1.363 . S
C366 H369 0.929 . S
C367 C366 1.363 . S
C367 C373 1.428 . S
H368 C364 0.930 . S
H369 C366 0.929 . S
S370 N371 1.613 . S
S370 N372 1.610 . S
N371 S370 1.613 . S
N371 C374 1.350 . S
N372 S370 1.610 . S
N372 C373 1.351 . S
C373 C367 1.428 . S
C373 N372 1.351 . S
C373 C374 1.434 . S
C374 C365 1.429 . S
C374 N371 1.350 . S
C374 C373 1.434 . S
C375 C376 1.369 . S
C375 C377 1.419 . S
C375 H379 0.930 . S
C376 C375 1.369 . S
C376 C385 1.429 . S
C377 C375 1.419 . S
C377 C378 1.363 . S
C377 H380 0.929 . S
C378 C377 1.363 . S
C378 C384 1.428 . S
H379 C375 0.930 . S
H380 C377 0.929 . S
S381 N382 1.613 . S
S381 N383 1.610 . S
N382 S381 1.613 . S
N382 C385 1.350 . S
N383 S381 1.610 . S
N383 C384 1.351 . S
C384 C378 1.428 . S
C384 N383 1.351 . S
C384 C385 1.434 . S
C385 C376 1.429 . S
C385 N382 1.350 . S
C385 C384 1.434 . S
C386 C387 1.369 . S
C386 C388 1.419 . S
C386 H390 0.930 . S
C387 C386 1.369 . S
C387 C396 1.429 1_655 S
C388 C386 1.419 . S
C388 C389 1.363 1_655 S
C388 H391 0.929 . S
C389 C388 1.363 1_455 S
C389 C395 1.428 . S
H390 C386 0.930 . S
H391 C388 0.929 . S
S392 N393 1.613 . S
S392 N394 1.610 . S
N393 S392 1.613 . S
N393 C396 1.350 . S
N394 S392 1.610 . S
N394 C395 1.351 . S
C395 C389 1.428 . S
C395 N394 1.351 . S
C395 C396 1.434 . S
C396 C387 1.429 1_455 S
C396 N393 1.350 . S
C396 C395 1.434 . S
C397 C398 1.369 . S
C397 C399 1.419 1_455 S
C397 H401 0.930 . S
C398 C397 1.369 . S
C398 C407 1.429 . S
C399 C397 1.419 1_655 S
C399 C400 1.363 . S
C399 H402 0.929 . S
C400 C399 1.363 . S
C400 C406 1.428 . S
H401 C397 0.930 . S
H402 C399 0.929 . S
S403 N404 1.613 1_655 S
S403 N405 1.610 . S
N404 S403 1.613 1_455 S
N404 C407 1.350 . S
N405 S403 1.610 . S
N405 C406 1.351 . S
C406 C400 1.428 . S
C406 N405 1.351 . S
C406 C407 1.434 1_655 S
C407 C398 1.429 . S
C407 N404 1.350 . S
C407 C406 1.434 1_455 S
C408 C409 1.369 . S
C408 C410 1.419 . S
C408 H412 0.930 . S
C409 C408 1.369 . S
C409 C418 1.429 . S
C410 C408 1.419 . S
C410 C411 1.363 . S
C410 H413 0.929 1_556 S
C411 C410 1.363 . S
C411 C417 1.428 . S
H412 C408 0.930 . S
H413 C410 0.929 1_554 S
S414 N415 1.613 . S
S414 N416 1.610 . S
N415 S414 1.613 . S
N415 C418 1.350 . S
N416 S414 1.610 . S
N416 C417 1.351 . S
C417 C411 1.428 . S
C417 N416 1.351 . S
C417 C418 1.434 . S
C418 C409 1.429 . S
C418 N415 1.350 . S
C418 C417 1.434 . S
C419 C420 1.369 . S
C419 C421 1.419 . S
C419 H423 0.930 . S
C420 C419 1.369 . S
C420 C429 1.429 . S
C421 C419 1.419 . S
C421 C422 1.363 . S
C421 H424 0.929 . S
C422 C421 1.363 . S
C422 C428 1.428 . S
H423 C419 0.930 . S
H424 C421 0.929 . S
S425 N426 1.613 . S
S425 N427 1.610 . S
N426 S425 1.613 . S
N426 C429 1.350 . S
N427 S425 1.610 . S
N427 C428 1.351 . S
C428 C422 1.428 . S
C428 N427 1.351 . S
C428 C429 1.434 . S
C429 C420 1.429 . S
C429 N426 1.350 . S
C429 C428 1.434 . S
C430 C431 1.369 . S
C430 C432 1.419 . S
C430 H434 0.930 . S
C431 C430 1.369 . S
C431 C440 1.429 . S
C432 C430 1.419 . S
C432 C433 1.363 . S
C432 H435 0.929 . S
C433 C432 1.363 . S
C433 C439 1.428 . S
H434 C430 0.930 . S
H435 C432 0.929 . S
S436 N437 1.613 . S
S436 N438 1.610 . S
N437 S436 1.613 . S
N437 C440 1.350 . S
N438 S436 1.610 . S
N438 C439 1.351 . S
C439 C433 1.428 . S
C439 N438 1.351 . S
C439 C440 1.434 . S
C440 C431 1.429 . S
C440 N437 1.350 . S
C440 C439 1.434 . S
C441 C442 1.369 . S
C441 C443 1.419 . S
C441 H445 0.930 . S
C442 C441 1.369 . S
C442 C451 1.429 . S
C443 C441 1.419 . S
C443 C444 1.363 . S
C443 H446 0.929 . S
C444 C443 1.363 . S
C444 C450 1.428 . S
H445 C441 0.930 . S
H446 C443 0.929 . S
S447 N448 1.613 . S
S447 N449 1.610 . S
N448 S447 1.613 . S
N448 C451 1.350 . S
N449 S447 1.610 . S
N449 C450 1.351 . S
C450 C444 1.428 . S
C450 N449 1.351 . S
C450 C451 1.434 . S
C451 C442 1.429 . S
C451 N448 1.350 . S
C451 C450 1.434 . S
C452 C453 1.369 . S
C452 C454 1.419 . S
C452 H456 0.930 . S
C453 C452 1.369 . S
C453 C462 1.429 . S
C454 C452 1.419 . S
C454 C455 1.363 . S
C454 H457 0.929 . S
C455 C454 1.363 . S
C455 C461 1.428 . S
H456 C452 0.930 . S
H457 C454 0.929 . S
S458 N459 1.613 . S
S458 N460 1.610 1_556 S
N459 S458 1.613 . S
N459 C462 1.350 1_556 S
N460 S458 1.610 1_554 S
N460 C461 1.351 . S
C461 C455 1.428 . S
C461 N460 1.351 . S
C461 C462 1.434 . S
C462 C453 1.429 . S
C462 N459 1.350 1_554 S
C462 C461 1.434 . S
C463 C464 1.369 . S
C463 C465 1.419 . S
C463 H467 0.930 . S
C464 C463 1.369 . S
C464 C473 1.429 . S
C465 C463 1.419 . S
C465 C466 1.363 . S
C465 H468 0.929 . S
C466 C465 1.363 . S
C466 C472 1.428 . S
H467 C463 0.930 . S
H468 C465 0.929 . S
S469 N470 1.613 . S
S469 N471 1.610 . S
N470 S469 1.613 . S
N470 C473 1.350 . S
N471 S469 1.610 . S
N471 C472 1.351 . S
C472 C466 1.428 . S
C472 N471 1.351 . S
C472 C473 1.434 . S
C473 C464 1.429 . S
C473 N470 1.350 . S
C473 C472 1.434 . S
C474 C475 1.369 . S
C474 C476 1.419 . S
C474 H478 0.930 . S
C475 C474 1.369 . S
C475 C484 1.429 . S
C476 C474 1.419 . S
C476 C477 1.363 . S
C476 H479 0.929 . S
C477 C476 1.363 . S
C477 C483 1.428 . S
H478 C474 0.930 . S
H479 C476 0.929 . S
S480 N481 1.613 . S
S480 N482 1.610 . S
N481 S480 1.613 . S
N481 C484 1.350 . S
N482 S480 1.610 . S
N482 C483 1.351 . S
C483 C477 1.428 . S
C483 N482 1.351 . S
C483 C484 1.434 . S
C484 C475 1.429 . S
C484 N481 1.350 . S
C484 C483 1.434 . S
C485 C486 1.369 . S
C485 C487 1.419 . S
C485 H489 0.930 . S
C486 C485 1.369 . S
C486 C495 1.429 . S
C487 C485 1.419 . S
C487 C488 1.363 . S
C487 H490 0.929 . S
C488 C487 1.363 . S
C488 C494 1.428 . S
H489 C485 0.930 . S
H490 C487 0.929 . S
S491 N492 1.613 . S
S491 N493 1.610 . S
N492 S491 1.613 . S
N492 C495 1.350 . S
N493 S491 1.610 . S
N493 C494 1.351 . S
C494 C488 1.428 . S
C494 N493 1.351 . S
C494 C495 1.434 . S
C495 C486 1.429 . S
C495 N492 1.350 . S
C495 C494 1.434 . S
C496 C497 1.369 . S
C496 C498 1.419 . S
C496 H500 0.930 . S
C497 C496 1.369 . S
C497 C506 1.429 . S
C498 C496 1.419 . S
C498 C499 1.363 . S
C498 H501 0.929 . S
C499 C498 1.363 . S
C499 C505 1.428 . S
H500 C496 0.930 . S
H501 C498 0.929 . S
S502 N503 1.613 . S
S502 N504 1.610 . S
N503 S502 1.613 . S
N503 C506 1.350 . S
N504 S502 1.610 . S
N504 C505 1.351 . S
C505 C499 1.428 . S
C505 N504 1.351 . S
C505 C506 1.434 . S
C506 C497 1.429 . S
C506 N503 1.350 . S
C506 C505 1.434 . S
C507 C508 1.369 . S
C507 C509 1.419 . S
C507 H511 0.930 . S
C508 C507 1.369 . S
C508 C517 1.429 . S
C509 C507 1.419 . S
C509 C510 1.363 . S
C509 H512 0.929 . S
C510 C509 1.363 . S
C510 C516 1.428 . S
H511 C507 0.930 . S
H512 C509 0.929 . S
S513 N514 1.613 . S
S513 N515 1.610 . S
N514 S513 1.613 . S
N514 C517 1.350 . S
N515 S513 1.610 . S
N515 C516 1.351 . S
C516 C510 1.428 . S
C516 N515 1.351 . S
C516 C517 1.434 . S
C517 C508 1.429 . S
C517 N514 1.350 . S
C517 C516 1.434 . S
C518 C519 1.369 . S
C518 C520 1.419 . S
C518 H522 0.930 . S
C519 C518 1.369 . S
C519 C528 1.429 . S
C520 C518 1.419 . S
C520 C521 1.363 . S
C520 H523 0.929 . S
C521 C520 1.363 . S
C521 C527 1.428 . S
H522 C518 0.930 . S
H523 C520 0.929 . S
S524 N525 1.613 . S
S524 N526 1.610 . S
N525 S524 1.613 . S
N525 C528 1.350 . S
N526 S524 1.610 . S
N526 C527 1.351 . S
C527 C521 1.428 . S
C527 N526 1.351 . S
C527 C528 1.434 . S
C528 C519 1.429 . S
C528 N525 1.350 . S
C528 C527 1.434 . S
C529 C530 1.369 . S
C529 C531 1.419 . S
C529 H533 0.930 . S
C530 C529 1.369 . S
C530 C539 1.429 . S
C531 C529 1.419 . S
C531 C532 1.363 . S
C531 H534 0.929 . S
C532 C531 1.363 . S
C532 C538 1.428 . S
H533 C529 0.930 . S
H534 C531 0.929 . S
S535 N536 1.613 . S
S535 N537 1.610 . S
N536 S535 1.613 . S
N536 C539 1.350 . S
N537 S535 1.610 . S
N537 C538 1.351 . S
C538 C532 1.428 . S
C538 N537 1.351 . S
C538 C539 1.434 . S
C539 C530 1.429 . S
C539 N536 1.350 . S
C539 C538 1.434 . S
C540 C541 1.369 . S
C540 C542 1.419 . S
C540 H544 0.930 . S
C541 C540 1.369 . S
C541 C550 1.429 . S
C542 C540 1.419 . S
C542 C543 1.363 . S
C542 H545 0.929 . S
C543 C542 1.363 . S
C543 C549 1.428 . S
H544 C540 0.930 . S
H545 C542 0.929 . S
S546 N547 1.613 . S
S546 N548 1.610 . S
N547 S546 1.613 . S
N547 C550 1.350 . S
N548 S546 1.610 . S
N548 C549 1.351 . S
C549 C543 1.428 . S
C549 N548 1.351 . S
C549 C550 1.434 . S
C550 C541 1.429 . S
C550 N547 1.350 . S
C550 C549 1.434 . S
C551 C552 1.369 . S
C551 C553 1.419 . S
C551 H555 0.930 . S
C552 C551 1.369 . S
C552 C561 1.429 . S
C553 C551 1.419 . S
C553 C554 1.363 . S
C553 H556 0.929 . S
C554 C553 1.363 . S
C554 C560 1.428 . S
H555 C551 0.930 . S
H556 C553 0.929 . S
S557 N558 1.613 . S
S557 N559 1.610 . S
N558 S557 1.613 . S
N558 C561 1.350 . S
N559 S557 1.610 . S
N559 C560 1.351 . S
C560 C554 1.428 . S
C560 N559 1.351 . S
C560 C561 1.434 . S
C561 C552 1.429 . S
C561 N558 1.350 . S
C561 C560 1.434 . S
C562 C563 1.369 . S
C562 C564 1.419 . S
C562 H566 0.930 . S
C563 C562 1.369 . S
C563 C572 1.429 . S
C564 C562 1.419 . S
C564 C565 1.363 . S
C564 H567 0.929 . S
C565 C564 1.363 . S
C565 C571 1.428 . S
H566 C562 0.930 . S
H567 C564 0.929 . S
S568 N569 1.613 1_556 S
S568 N570 1.610 . S
N569 S568 1.613 1_554 S
N569 C572 1.350 . S
N570 S568 1.610 . S
N570 C571 1.351 1_556 S
C571 C565 1.428 . S
C571 N570 1.351 1_554 S
C571 C572 1.434 . S
C572 C563 1.429 . S
C572 N569 1.350 . S
C572 C571 1.434 . S
C573 C574 1.369 . S
C573 C575 1.419 . S
C573 H577 0.930 . S
C574 C573 1.369 . S
C574 C583 1.429 . S
C575 C573 1.419 . S
C575 C576 1.363 . S
C575 H578 0.929 . S
C576 C575 1.363 . S
C576 C582 1.428 . S
H577 C573 0.930 . S
H578 C575 0.929 . S
S579 N580 1.613 . S
S579 N581 1.610 . S
N580 S579 1.613 . S
N580 C583 1.350 . S
N581 S579 1.610 . S
N581 C582 1.351 . S
C582 C576 1.428 . S
C582 N581 1.351 . S
C582 C583 1.434 . S
C583 C574 1.429 . S
C583 N580 1.350 . S
C583 C582 1.434 . S
C584 C585 1.369 . S
C584 C586 1.419 . S
C584 H588 0.930 . S
C585 C584 1.369 . S
C585 C594 1.429 . S
C586 C584 1.419 . S
C586 C587 1.363 . S
C586 H589 0.929 . S
C587 C586 1.363 . S
C587 C593 1.428 . S
H588 C584 0.930 . S
H589 C586 0.929 . S
S590 N591 1.613 . S
S590 N592 1.610 . S
N591 S590 1.613 . S
N591 C594 1.350 . S
N592 S590 1.610 . S
N592 C593 1.351 . S
C593 C587 1.428 . S
C593 N592 1.351 . S
C593 C594 1.434 . S
C594 C585 1.429 . S
C594 N591 1.350 . S
C594 C593 1.434 . S
C595 C596 1.369 . S
C595 C597 1.419 . S
C595 H599 0.930 . S
C596 C595 1.369 . S
C596 C605 1.429 . S
C597 C595 1.419 . S
C597 C598 1.363 . S
C597 H600 0.929 . S
C598 C597 1.363 . S
C598 C604 1.428 . S
H599 C595 0.930 . S
H600 C597 0.929 . S
S601 N602 1.613 . S
S601 N603 1.610 . S
N602 S601 1.613 . S
N602 C605 1.350 . S
N603 S601 1.610 . S
N603 C604 1.351 . S
C604 C598 1.428 . S
C604 N603 1.351 . S
C604 C605 1.434 . S
C605 C596 1.429 . S
C605 N602 1.350 . S
C605 C604 1.434 . S
C606 C607 1.369 . S
C606 C608 1.419 1_655 S
C606 H610 0.930 . S
C607 C606 1.369 . S
C607 C616 1.429 1_655 S
C608 C606 1.419 1_455 S
C608 C609 1.363 . S
C608 H611 0.929 . S
C609 C608 1.363 . S
C609 C615 1.428 . S
H610 C606 0.930 . S
H611 C608 0.929 . S
S612 N613 1.613 . S
S612 N614 1.610 . S
N613 S612 1.613 . S
N613 C616 1.350 . S
N614 S612 1.610 . S
N614 C615 1.351 . S
C615 C609 1.428 . S
C615 N614 1.351 . S
C615 C616 1.434 . S
C616 C607 1.429 1_455 S
C616 N613 1.350 . S
C616 C615 1.434 . S
C617 C618 1.369 . S
C617 C619 1.419 . S
C617 H621 0.930 . S
C618 C617 1.369 . S
C618 C627 1.429 . S
C619 C617 1.419 . S
C619 C620 1.363 . S
C619 H622 0.929 . S
C620 C619 1.363 . S
C620 C626 1.428 . S
H621 C617 0.930 . S
H622 C619 0.929 . S
S623 N624 1.613 . S
S623 N625 1.610 . S
N624 S623 1.613 . S
N624 C627 1.350 . S
N625 S623 1.610 . S
N625 C626 1.351 . S
C626 C620 1.428 . S
C626 N625 1.351 . S
C626 C627 1.434 . S
C627 C618 1.429 . S
C627 N624 1.350 . S
C627 C626 1.434 . S
C628 C629 1.369 . S
C628 C630 1.419 . S
C628 H632 0.930 . S
C629 C628 1.369 . S
C629 C638 1.429 . S
C630 C628 1.419 . S
C630 C631 1.363 . S
C630 H633 0.929 . S
C631 C630 1.363 . S
C631 C637 1.428 . S
H632 C628 0.930 . S
H633 C630 0.929 . S
S634 N635 1.613 . S
S634 N636 1.610 . S
N635 S634 1.613 . S
N635 C638 1.350 . S
N636 S634 1.610 . S
N636 C637 1.351 . S
C637 C631 1.428 . S
C637 N636 1.351 . S
C637 C638 1.434 . S
C638 C629 1.429 . S
C638 N635 1.350 . S
C638 C637 1.434 . S
C639 C640 1.369 . S
C639 C641 1.419 . S
C639 H643 0.930 . S
C640 C639 1.369 . S
C640 C649 1.429 . S
C641 C639 1.419 . S
C641 C642 1.363 . S
C641 H644 0.929 . S
C642 C641 1.363 . S
C642 C648 1.428 . S
H643 C639 0.930 . S
H644 C641 0.929 . S
S645 N646 1.613 1_554 S
S645 N647 1.610 . S
N646 S645 1.613 1_556 S
N646 C649 1.350 . S
N647 S645 1.610 . S
N647 C648 1.351 1_554 S
C648 C642 1.428 . S
C648 N647 1.351 1_556 S
C648 C649 1.434 . S
C649 C640 1.429 . S
C649 N646 1.350 . S
C649 C648 1.434 . S
C650 C651 1.369 1_655 S
C650 C652 1.419 . S
C650 H654 0.930 . S
C651 C650 1.369 1_455 S
C651 C660 1.429 . S
C652 C650 1.419 . S
C652 C653 1.363 . S
C652 H655 0.929 . S
C653 C652 1.363 . S
C653 C659 1.428 . S
H654 C650 0.930 . S
H655 C652 0.929 . S
S656 N657 1.613 . S
S656 N658 1.610 1_455 S
N657 S656 1.613 . S
N657 C660 1.350 . S
N658 S656 1.610 1_655 S
N658 C659 1.351 . S
C659 C653 1.428 . S
C659 N658 1.351 . S
C659 C660 1.434 1_655 S
C660 C651 1.429 . S
C660 N657 1.350 . S
C660 C659 1.434 1_455 S
C661 C662 1.369 . S
C661 C663 1.419 . S
C661 H665 0.930 . S
C662 C661 1.369 . S
C662 C671 1.429 . S
C663 C661 1.419 . S
C663 C664 1.363 . S
C663 H666 0.929 . S
C664 C663 1.363 . S
C664 C670 1.428 . S
H665 C661 0.930 . S
H666 C663 0.929 . S
S667 N668 1.613 . S
S667 N669 1.610 . S
N668 S667 1.613 . S
N668 C671 1.350 . S
N669 S667 1.610 . S
N669 C670 1.351 . S
C670 C664 1.428 . S
C670 N669 1.351 . S
C670 C671 1.434 . S
C671 C662 1.429 . S
C671 N668 1.350 . S
C671 C670 1.434 . S
C672 C673 1.369 . S
C672 C674 1.419 . S
C672 H676 0.930 . S
C673 C672 1.369 . S
C673 C682 1.429 . S
C674 C672 1.419 . S
C674 C675 1.363 1_655 S
C674 H677 0.929 . S
C675 C674 1.363 1_455 S
C675 C681 1.428 . S
H676 C672 0.930 . S
H677 C674 0.929 . S
S678 N679 1.613 . S
S678 N680 1.610 . S
N679 S678 1.613 . S
N679 C682 1.350 1_455 S
N680 S678 1.610 . S
N680 C681 1.351 . S
C681 C675 1.428 . S
C681 N680 1.351 . S
C681 C682 1.434 1_455 S
C682 C673 1.429 . S
C682 N679 1.350 1_655 S
C682 C681 1.434 1_655 S
C683 C684 1.369 . S
C683 C685 1.419 . S
C683 H687 0.930 . S
C684 C683 1.369 . S
C684 C693 1.429 . S
C685 C683 1.419 . S
C685 C686 1.363 . S
C685 H688 0.929 . S
C686 C685 1.363 . S
C686 C692 1.428 . S
H687 C683 0.930 . S
H688 C685 0.929 . S
S689 N690 1.613 . S
S689 N691 1.610 . S
N690 S689 1.613 . S
N690 C693 1.350 . S
N691 S689 1.610 . S
N691 C692 1.351 . S
C692 C686 1.428 . S
C692 N691 1.351 . S
C692 C693 1.434 . S
C693 C684 1.429 . S
C693 N690 1.350 . S
C693 C692 1.434 . S
C694 C695 1.369 . S
C694 C696 1.419 . S
C694 H698 0.930 . S
C695 C694 1.369 . S
C695 C704 1.429 . S
C696 C694 1.419 . S
C696 C697 1.363 . S
C696 H699 0.929 . S
C697 C696 1.363 . S
C697 C703 1.428 . S
H698 C694 0.930 . S
H699 C696 0.929 . S
S700 N701 1.613 . S
S700 N702 1.610 . S
N701 S700 1.613 . S
N701 C704 1.350 . S
N702 S700 1.610 . S
N702 C703 1.351 . S
C703 C697 1.428 . S
C703 N702 1.351 . S
C703 C704 1.434 . S
C704 C695 1.429 . S
C704 N701 1.350 . S
C704 C703 1.434 . S
C705 C706 1.369 . S
C705 C707 1.419 . S
C705 H709 0.930 . S
C706 C705 1.369 . S
C706 C715 1.429 . S
C707 C705 1.419 . S
C707 C708 1.363 . S
C707 H710 0.929 . S
C708 C707 1.363 . S
C708 C714 1.428 . S
H709 C705 0.930 . S
H710 C707 0.929 . S
S711 N712 1.613 . S
S711 N713 1.610 . S
N712 S711 1.613 . S
N712 C715 1.350 . S
N713 S711 1.610 . S
N713 C714 1.351 . S
C714 C708 1.428 . S
C714 N713 1.351 . S
C714 C715 1.434 . S
C715 C706 1.429 . S
C715 N712 1.350 . S
C715 C714 1.434 . S
C716 C717 1.369 . S
C716 C718 1.419 1_455 S
C716 H720 0.930 . S
C717 C716 1.369 . S
C717 C726 1.429 . S
C718 C716 1.419 1_655 S
C718 C719 1.363 . S
C718 H721 0.929 . S
C719 C718 1.363 . S
C719 C725 1.428 1_655 S
H720 C716 0.930 . S
H721 C718 0.929 . S
S722 N723 1.613 . S
S722 N724 1.610 . S
N723 S722 1.613 . S
N723 C726 1.350 . S
N724 S722 1.610 . S
N724 C725 1.351 . S
C725 C719 1.428 1_455 S
C725 N724 1.351 . S
C725 C726 1.434 . S
C726 C717 1.429 . S
C726 N723 1.350 . S
C726 C725 1.434 . S
C727 C728 1.369 . S
C727 C729 1.419 . S
C727 H731 0.930 . S
C728 C727 1.369 . S
C728 C737 1.429 . S
C729 C727 1.419 . S
C729 C730 1.363 . S
C729 H732 0.929 . S
C730 C729 1.363 . S
C730 C736 1.428 . S
H731 C727 0.930 . S
H732 C729 0.929 . S
S733 N734 1.613 . S
S733 N735 1.610 . S
N734 S733 1.613 . S
N734 C737 1.350 . S
N735 S733 1.610 . S
N735 C736 1.351 . S
C736 C730 1.428 . S
C736 N735 1.351 . S
C736 C737 1.434 . S
C737 C728 1.429 . S
C737 N734 1.350 . S
C737 C736 1.434 . S
C738 C739 1.369 . S
C738 C740 1.419 . S
C738 H742 0.930 . S
C739 C738 1.369 . S
C739 C748 1.429 . S
C740 C738 1.419 . S
C740 C741 1.363 . S
C740 H743 0.929 . S
C741 C740 1.363 . S
C741 C747 1.428 . S
H742 C738 0.930 . S
H743 C740 0.929 . S
S744 N745 1.613 . S
S744 N746 1.610 . S
N745 S744 1.613 . S
N745 C748 1.350 . S
N746 S744 1.610 . S
N746 C747 1.351 . S
C747 C741 1.428 . S
C747 N746 1.351 . S
C747 C748 1.434 . S
C748 C739 1.429 . S
C748 N745 1.350 . S
C748 C747 1.434 . S
C749 C750 1.369 . S
C749 C751 1.419 . S
C749 H753 0.930 . S
C750 C749 1.369 . S
C750 C759 1.429 . S
C751 C749 1.419 . S
C751 C752 1.363 . S
C751 H754 0.929 . S
C752 C751 1.363 . S
C752 C758 1.428 . S
H753 C749 0.930 . S
H754 C751 0.929 . S
S755 N756 1.613 . S
S755 N757 1.610 . S
N756 S755 1.613 . S
N756 C759 1.350 . S
N757 S755 1.610 . S
N757 C758 1.351 . S
C758 C752 1.428 . S
C758 N757 1.351 . S
C758 C759 1.434 . S
C759 C750 1.429 . S
C759 N756 1.350 . S
C759 C758 1.434 . S
C760 C761 1.369 . S
C760 C762 1.419 . S
C760 H764 0.930 . S
C761 C760 1.369 . S
C761 C770 1.429 . S
C762 C760 1.419 . S
C762 C763 1.363 . S
C762 H765 0.929 . S
C763 C762 1.363 . S
C763 C769 1.428 . S
H764 C760 0.930 . S
H765 C762 0.929 . S
S766 N767 1.613 . S
S766 N768 1.610 . S
N767 S766 1.613 . S
N767 C770 1.350 . S
N768 S766 1.610 . S
N768 C769 1.351 . S
C769 C763 1.428 . S
C769 N768 1.351 . S
C769 C770 1.434 . S
C770 C761 1.429 . S
C770 N767 1.350 . S
C770 C769 1.434 . S
C771 C772 1.369 . S
C771 C773 1.419 . S
C771 H775 0.930 . S
C772 C771 1.369 . S
C772 C781 1.429 . S
C773 C771 1.419 . S
C773 C774 1.363 . S
C773 H776 0.929 . S
C774 C773 1.363 . S
C774 C780 1.428 . S
H775 C771 0.930 . S
H776 C773 0.929 . S
S777 N778 1.613 . S
S777 N779 1.610 . S
N778 S777 1.613 . S
N778 C781 1.350 . S
N779 S777 1.610 . S
N779 C780 1.351 . S
C780 C774 1.428 . S
C780 N779 1.351 . S
C780 C781 1.434 . S
C781 C772 1.429 . S
C781 N778 1.350 . S
C781 C780 1.434 . S
C782 C783 1.369 . S
C782 C784 1.419 . S
C782 H786 0.930 . S
C783 C782 1.369 . S
C783 C792 1.429 . S
C784 C782 1.419 . S
C784 C785 1.363 . S
C784 H787 0.929 . S
C785 C784 1.363 . S
C785 C791 1.428 . S
H786 C782 0.930 . S
H787 C784 0.929 . S
S788 N789 1.613 . S
S788 N790 1.610 . S
N789 S788 1.613 . S
N789 C792 1.350 . S
N790 S788 1.610 . S
N790 C791 1.351 . S
C791 C785 1.428 . S
C791 N790 1.351 . S
C791 C792 1.434 . S
C792 C783 1.429 . S
C792 N789 1.350 . S
C792 C791 1.434 . S
C793 C794 1.369 1_655 S
C793 C795 1.419 . S
C793 H797 0.930 . S
C794 C793 1.369 1_455 S
C794 C803 1.429 1_554 S
C795 C793 1.419 . S
C795 C796 1.363 1_554 S
C795 H798 0.929 . S
C796 C795 1.363 1_556 S
C796 C802 1.428 1_655 S
H797 C793 0.930 . S
H798 C795 0.929 . S
S799 N800 1.613 . S
S799 N801 1.610 . S
N800 S799 1.613 . S
N800 C803 1.350 . S
N801 S799 1.610 . S
N801 C802 1.351 . S
C802 C796 1.428 1_455 S
C802 N801 1.351 . S
C802 C803 1.434 . S
C803 C794 1.429 1_556 S
C803 N800 1.350 . S
C803 C802 1.434 . S
C804 C805 1.369 . S
C804 C806 1.419 . S
C804 H808 0.930 . S
C805 C804 1.369 . S
C805 C814 1.429 . S
C806 C804 1.419 . S
C806 C807 1.363 . S
C806 H809 0.929 . S
C807 C806 1.363 . S
C807 C813 1.428 . S
H808 C804 0.930 . S
H809 C806 0.929 . S
S810 N811 1.613 . S
S810 N812 1.610 . S
N811 S810 1.613 . S
N811 C814 1.350 . S
N812 S810 1.610 . S
N812 C813 1.351 . S
C813 C807 1.428 . S
C813 N812 1.351 . S
C813 C814 1.434 . S
C814 C805 1.429 . S
C814 N811 1.350 . S
C814 C813 1.434 . S
C815 C816 1.369 . S
C815 C817 1.419 . S
C815 H819 0.930 . S
C816 C815 1.369 . S
C816 C825 1.429 . S
C817 C815 1.419 . S
C817 C818 1.363 . S
C817 H820 0.929 . S
C818 C817 1.363 . S
C818 C824 1.428 . S
H819 C815 0.930 . S
H820 C817 0.929 . S
S821 N822 1.613 . S
S821 N823 1.610 . S
N822 S821 1.613 . S
N822 C825 1.350 . S
N823 S821 1.610 . S
N823 C824 1.351 . S
C824 C818 1.428 . S
C824 N823 1.351 . S
C824 C825 1.434 . S
C825 C816 1.429 . S
C825 N822 1.350 . S
C825 C824 1.434 . S
C826 C827 1.369 1_655 S
C826 C828 1.419 1_545 S
C826 H830 0.930 . S
C827 C826 1.369 1_455 S
C827 C836 1.438 1_556 S
C828 C826 1.419 1_565 S
C828 C829 1.363 1_556 S
C828 H831 0.929 . S
C829 C828 1.363 1_554 S
C829 C835 1.428 1_655 S
H830 C826 0.930 . S
H831 C828 0.929 . S
S832 N833 1.625 . S
S832 N834 1.610 . S
N833 S832 1.625 . S
N833 C836 1.348 1_565 S
N834 S832 1.610 . S
N834 C835 1.351 . S
C835 C829 1.428 1_455 S
C835 N834 1.351 . S
C835 C836 1.424 1_565 S
C836 C827 1.438 1_554 S
C836 N833 1.348 1_545 S
C836 C835 1.424 1_545 S
C837 C838 1.369 1_565 S
C837 C839 1.419 . S
C837 H841 0.930 . S
C838 C837 1.369 1_545 S
C838 C847 1.429 . S
C839 C837 1.419 . S
C839 C840 1.363 . S
C839 H842 0.929 . S
C840 C839 1.363 . S
C840 C846 1.428 1_565 S
H841 C837 0.930 . S
H842 C839 0.929 . S
S843 N844 1.613 . S
S843 N845 1.610 . S
N844 S843 1.613 . S
N844 C847 1.350 . S
N845 S843 1.610 . S
N845 C846 1.351 . S
C846 C840 1.428 1_545 S
C846 N845 1.351 . S
C846 C847 1.434 . S
C847 C838 1.429 . S
C847 N844 1.350 . S
C847 C846 1.434 . S
C321 C4 1.379 . S
C323 C204 1.377 . S
C332 C24 1.371 . S
C334 C224 1.373 . S
C343 C44 1.380 . S
C345 C164 1.377 . S
C354 C64 1.371 . S
C356 C184 1.373 . S
C365 C82 1.382 . S
C367 C282 1.380 . S
C376 C102 1.382 . S
C378 C302 1.381 . S
C387 C122 1.380 . S
C389 C242 1.378 . S
C398 C142 1.382 . S
C400 C262 1.381 . S
C409 C198 2.062 . S
C411 C2 2.037 1_556 S
C420 C218 2.062 . S
C422 C22 2.037 . S
C431 C238 2.058 . S
C433 C42 2.033 . S
C442 C178 2.063 . S
C444 C62 2.037 . S
C453 C84 2.031 1_554 S
C455 C279 2.059 . S
C464 C299 2.058 . S
C466 C104 2.032 . S
C475 C319 2.058 . S
C477 C124 2.032 . S
C486 C259 2.060 . S
C488 C144 2.033 . S
C497 C38 2.061 . S
C499 C162 2.034 . S
C508 C182 2.035 1_565 S
C510 C58 2.062 . S
C519 C202 2.031 1_556 S
C521 C78 2.059 . S
C530 C222 2.031 1_545 S
C532 C18 2.059 . S
C541 C244 2.036 . S
C543 C119 2.060 . S
C552 C139 2.059 . S
C554 C264 2.032 1_545 S
C563 C159 2.061 . S
C565 C284 2.034 1_554 S
C574 C304 2.035 1_565 S
C576 C99 2.059 . S
C585 C12 1.180 . S
C587 C318 1.207 . S
C596 C32 1.178 . S
C598 C98 1.206 . S
C607 C278 1.208 . S
C609 C52 1.183 . S
C618 C138 1.206 . S
C620 C72 1.184 . S
C629 C89 1.179 . S
C631 C239 1.207 . S
C640 C109 1.184 . S
C642 C19 1.208 . S
C651 C199 1.205 . S
C653 C129 1.181 . S
C662 C59 1.208 . S
C664 C149 1.182 . S
C673 C172 1.179 . S
C675 C158 1.205 . S
C684 C192 1.185 . S
C686 C258 1.208 . S
C695 C118 1.208 . S
C697 C212 1.182 . S
C706 C298 1.205 . S
C708 C232 1.179 . S
C717 C249 1.181 . S
C719 C79 1.208 . S
C728 C269 1.186 . S
C730 C179 1.209 . S
C739 C289 1.183 . S
C741 C39 1.206 . S
C750 C219 1.205 . S
C752 C309 1.182 . S
C761 C9 1.690 . S
C763 C252 1.692 . S
C772 C29 1.690 . S
C774 C112 1.692 . S
C783 C49 1.692 . S
C785 C292 1.690 . S
C794 C152 1.692 . S
C796 C69 1.690 . S
C805 C92 1.690 . S
C807 C169 1.692 . S
C816 C209 1.692 . S
C818 C132 1.690 . S
C827 C189 1.692 . S
C829 C272 1.690 . S
C838 C312 1.691 . S
C840 C229 1.691 . S
