# Generated by pormake.
# Topology zfw, (5)-cn, num edge types: 1
# Building blocks:
#     Node 0, Type 0, BuildingBlock: XOMCOT_clean_sbu_0, # of connection points: 5
#     Node 1, Type 0, BuildingBlock: XOMCOT_clean_sbu_0, # of connection points: 5
#     Node 2, Type 0, BuildingBlock: XOMCOT_clean_sbu_0, # of connection points: 5
#     Node 3, Type 0, BuildingBlock: XOMCOT_clean_sbu_0, # of connection points: 5
#     Node 4, Type 0, BuildingBlock: XOMCOT_clean_sbu_0, # of connection points: 5
#     Node 5, Type 0, BuildingBlock: XOMCOT_clean_sbu_0, # of connection points: 5
#     Node 6, Type 0, BuildingBlock: XOMCOT_clean_sbu_0, # of connection points: 5
#     Node 7, Type 0, BuildingBlock: XOMCOT_clean_sbu_0, # of connection points: 5
#     Node 8, Type 0, BuildingBlock: XOMCOT_clean_sbu_0, # of connection points: 5
#     Node 9, Type 0, BuildingBlock: XOMCOT_clean_sbu_0, # of connection points: 5
#     Node 10, Type 0, BuildingBlock: XOMCOT_clean_sbu_0, # of connection points: 5
#     Node 11, Type 0, BuildingBlock: XOMCOT_clean_sbu_0, # of connection points: 5
#     Node 12, Type 0, BuildingBlock: XOMCOT_clean_sbu_0, # of connection points: 5
#     Node 13, Type 0, BuildingBlock: XOMCOT_clean_sbu_0, # of connection points: 5
#     Node 14, Type 0, BuildingBlock: XOMCOT_clean_sbu_0, # of connection points: 5
#     Node 15, Type 0, BuildingBlock: XOMCOT_clean_sbu_0, # of connection points: 5
#     Edge 16, Type (0, 0), BuildingBlock: AJUNOK_clean_linker_0, # of connection points: 2
#     Edge 17, Type (0, 0), BuildingBlock: AJUNOK_clean_linker_0, # of connection points: 2
#     Edge 18, Type (0, 0), BuildingBlock: AJUNOK_clean_linker_0, # of connection points: 2
#     Edge 19, Type (0, 0), BuildingBlock: AJUNOK_clean_linker_0, # of connection points: 2
#     Edge 20, Type (0, 0), BuildingBlock: AJUNOK_clean_linker_0, # of connection points: 2
#     Edge 21, Type (0, 0), BuildingBlock: AJUNOK_clean_linker_0, # of connection points: 2
#     Edge 22, Type (0, 0), BuildingBlock: AJUNOK_clean_linker_0, # of connection points: 2
#     Edge 23, Type (0, 0), BuildingBlock: AJUNOK_clean_linker_0, # of connection points: 2
#     Edge 24, Type (0, 0), BuildingBlock: AJUNOK_clean_linker_0, # of connection points: 2
#     Edge 25, Type (0, 0), BuildingBlock: AJUNOK_clean_linker_0, # of connection points: 2
#     Edge 26, Type (0, 0), BuildingBlock: AJUNOK_clean_linker_0, # of connection points: 2
#     Edge 27, Type (0, 0), BuildingBlock: AJUNOK_clean_linker_0, # of connection points: 2
#     Edge 28, Type (0, 0), BuildingBlock: AJUNOK_clean_linker_0, # of connection points: 2
#     Edge 29, Type (0, 0), BuildingBlock: AJUNOK_clean_linker_0, # of connection points: 2
#     Edge 30, Type (0, 0), BuildingBlock: AJUNOK_clean_linker_0, # of connection points: 2
#     Edge 31, Type (0, 0), BuildingBlock: AJUNOK_clean_linker_0, # of connection points: 2
#     Edge 32, Type (0, 0), BuildingBlock: AJUNOK_clean_linker_0, # of connection points: 2
#     Edge 33, Type (0, 0), BuildingBlock: AJUNOK_clean_linker_0, # of connection points: 2
#     Edge 34, Type (0, 0), BuildingBlock: AJUNOK_clean_linker_0, # of connection points: 2
#     Edge 35, Type (0, 0), BuildingBlock: AJUNOK_clean_linker_0, # of connection points: 2
#     Edge 36, Type (0, 0), BuildingBlock: AJUNOK_clean_linker_0, # of connection points: 2
#     Edge 37, Type (0, 0), BuildingBlock: AJUNOK_clean_linker_0, # of connection points: 2
#     Edge 38, Type (0, 0), BuildingBlock: AJUNOK_clean_linker_0, # of connection points: 2
#     Edge 39, Type (0, 0), BuildingBlock: AJUNOK_clean_linker_0, # of connection points: 2
#     Edge 40, Type (0, 0), BuildingBlock: AJUNOK_clean_linker_0, # of connection points: 2
#     Edge 41, Type (0, 0), BuildingBlock: AJUNOK_clean_linker_0, # of connection points: 2
#     Edge 42, Type (0, 0), BuildingBlock: AJUNOK_clean_linker_0, # of connection points: 2
#     Edge 43, Type (0, 0), BuildingBlock: AJUNOK_clean_linker_0, # of connection points: 2
#     Edge 44, Type (0, 0), BuildingBlock: AJUNOK_clean_linker_0, # of connection points: 2
#     Edge 45, Type (0, 0), BuildingBlock: AJUNOK_clean_linker_0, # of connection points: 2
#     Edge 46, Type (0, 0), BuildingBlock: AJUNOK_clean_linker_0, # of connection points: 2
#     Edge 47, Type (0, 0), BuildingBlock: AJUNOK_clean_linker_0, # of connection points: 2
#     Edge 48, Type (0, 0), BuildingBlock: AJUNOK_clean_linker_0, # of connection points: 2
#     Edge 49, Type (0, 0), BuildingBlock: AJUNOK_clean_linker_0, # of connection points: 2
#     Edge 50, Type (0, 0), BuildingBlock: AJUNOK_clean_linker_0, # of connection points: 2
#     Edge 51, Type (0, 0), BuildingBlock: AJUNOK_clean_linker_0, # of connection points: 2
#     Edge 52, Type (0, 0), BuildingBlock: AJUNOK_clean_linker_0, # of connection points: 2
#     Edge 53, Type (0, 0), BuildingBlock: AJUNOK_clean_linker_0, # of connection points: 2
#     Edge 54, Type (0, 0), BuildingBlock: AJUNOK_clean_linker_0, # of connection points: 2
#     Edge 55, Type (0, 0), BuildingBlock: AJUNOK_clean_linker_0, # of connection points: 2
# Relax obj value: 0.262
# Max RMSD: 0.221
# Mean RMSD: 0.205
data_MOF--net-zfw--node1-XOMCOT_clean_sbu_0--edge1-AJUNOK_clean_linker_0
_symmetry_space_group_name_H-M    P1
_symmetry_Int_Tables_number       1
_symmetry_cell_setting            triclinic
loop_
_symmetry_equiv_pos_as_xyz
'x, y, z'
_cell_length_a     51.581169
_cell_length_b     51.085054
_cell_length_c     13.306872
_cell_angle_alpha  90.524094
_cell_angle_beta   89.907465
_cell_angle_gamma 89.735218
loop_
_atom_site_label
_atom_site_type_symbol
_atom_site_fract_x
_atom_site_fract_y
_atom_site_fract_z
_atom_type_partial_charge
Co0 Co 0.10537 0.10051 0.25349 0.0
C1 C 0.1105 0.09579 0.47403 0.0
C2 C 0.10409 0.05803 0.40867 0.0
C3 C 0.10624 0.05543 0.51176 0.0
N4 N 0.10615 0.0836 0.38506 0.0
N5 N 0.1101 0.07938 0.55227 0.0
H6 H 0.11255 0.11668 0.48304 0.0
H7 H 0.10148 0.04213 0.35585 0.0
C8 C 0.08445 0.04894 0.16748 0.0
O9 O 0.06306 0.05137 0.22051 0.0
N10 N 0.10595 0.11678 0.1231 0.0
C11 C 0.09552 0.13971 0.09344 0.0
C12 C 0.09688 0.14079 0.98958 0.0
C13 C 0.11421 0.10483 0.03838 0.0
N14 N 0.1085 0.11868 0.95617 0.0
C15 C 0.0587 0.11632 0.35188 0.0
C16 C 0.02582 0.11569 0.18895 0.0
C17 C 0.01708 0.12692 0.28003 0.0
C18 C 0.03373 0.12623 0.36238 0.0
C19 C 0.05113 0.1051 0.18227 0.0
N20 N 0.06756 0.10592 0.26321 0.0
H21 H 0.07139 0.11938 0.41419 0.0
H22 H 0.0579 0.09757 0.11066 0.0
H23 H 0.08597 0.15367 0.14282 0.0
H24 H 0.12308 0.08571 0.03567 0.0
O25 O 0.11475 0.13329 0.31453 0.0
O26 O 0.14321 0.10382 0.26101 0.0
O27 O 0.10294 0.06524 0.18065 0.0
C28 C 0.13886 0.1263 0.30574 0.0
H29 H 0.10525 0.03732 0.55311 0.0
H30 H 0.08843 0.15566 0.94221 0.0
H31 H 0.01363 0.11596 0.12281 0.0
H32 H 0.02833 0.13541 0.43318 0.0
Co33 Co 0.23933 0.78619 0.45261 0.0
C34 C 0.24191 0.78143 0.67199 0.0
C35 C 0.2799 0.78593 0.60918 0.0
C36 C 0.28177 0.78695 0.71247 0.0
N37 N 0.25484 0.78249 0.58412 0.0
N38 N 0.2577 0.78468 0.75157 0.0
H39 H 0.22106 0.78006 0.67759 0.0
H40 H 0.29561 0.78875 0.55657 0.0
C41 C 0.28229 0.76064 0.33056 0.0
O42 O 0.2668 0.7406 0.31774 0.0
N43 N 0.22431 0.79229 0.32021 0.0
C44 C 0.19944 0.79801 0.29579 0.0
C45 C 0.19774 0.80135 0.19316 0.0
C46 C 0.23744 0.79448 0.23303 0.0
N47 N 0.22182 0.79931 0.15489 0.0
C48 C 0.24258 0.73153 0.51541 0.0
C49 C 0.19512 0.71791 0.43697 0.0
C50 C 0.20496 0.70312 0.51645 0.0
C51 C 0.22988 0.7092 0.55139 0.0
C52 C 0.20779 0.74057 0.40686 0.0
N53 N 0.23036 0.74851 0.45134 0.0
H54 H 0.26137 0.73613 0.5462 0.0
H55 H 0.19791 0.75233 0.35317 0.0
H56 H 0.18337 0.79868 0.34807 0.0
H57 H 0.25807 0.79281 0.22475 0.0
O58 O 0.20775 0.79767 0.51521 0.0
O59 O 0.23964 0.82438 0.47572 0.0
O60 O 0.27484 0.78005 0.38608 0.0
C61 C 0.21699 0.82119 0.51834 0.0
H62 H 0.29943 0.78985 0.75468 0.0
H63 H 0.1803 0.80474 0.15 0.0
H64 H 0.17646 0.71335 0.40405 0.0
H65 H 0.23871 0.69818 0.61151 0.0
Co66 Co 0.55156 0.91567 0.68019 0.0
C67 C 0.56218 0.91932 0.89758 0.0
C68 C 0.55045 0.9564 0.83754 0.0
C69 C 0.55134 0.9585 0.94083 0.0
N70 N 0.55711 0.93178 0.81066 0.0
N71 N 0.55868 0.93516 0.97819 0.0
H72 H 0.56603 0.89852 0.90232 0.0
H73 H 0.54347 0.97119 0.7865 0.0
C74 C 0.54121 0.96174 0.55953 0.0
O75 O 0.51732 0.95302 0.56278 0.0
N76 N 0.5453 0.90032 0.54803 0.0
C77 C 0.52421 0.88706 0.51632 0.0
C78 C 0.52428 0.88616 0.41286 0.0
C79 C 0.55811 0.90677 0.4631 0.0
N80 N 0.54561 0.89853 0.37991 0.0
C81 C 0.59293 0.88 0.64635 0.0
C82 C 0.62926 0.90739 0.75729 0.0
C83 C 0.63314 0.88045 0.73986 0.0
C84 C 0.61562 0.86748 0.67634 0.0
C85 C 0.60672 0.91968 0.72099 0.0
N86 N 0.58796 0.90535 0.67352 0.0
H87 H 0.57817 0.8683 0.61042 0.0
H88 H 0.60305 0.9399 0.74135 0.0
H89 H 0.50862 0.88037 0.56358 0.0
H90 H 0.57485 0.91947 0.46179 0.0
O91 O 0.53948 0.88467 0.74613 0.0
O92 O 0.51408 0.91794 0.70681 0.0
O93 O 0.55869 0.94994 0.61032 0.0
C94 C 0.51667 0.89533 0.75072 0.0
H95 H 0.54543 0.97535 0.98537 0.0
H96 H 0.5089 0.87875 0.36535 0.0
H97 H 0.64217 0.91837 0.80571 0.0
H98 H 0.6181 0.84691 0.65812 0.0
Co99 Co 0.41821 0.23891 0.96235 0.0
C100 C 0.41242 0.24453 0.17961 0.0
C101 C 0.3806 0.2232 0.11706 0.0
C102 C 0.37953 0.22138 0.22024 0.0
N103 N 0.40098 0.23818 0.0916 0.0
N104 N 0.39996 0.23435 0.25941 0.0
H105 H 0.43111 0.25393 0.18457 0.0
H106 H 0.36845 0.21275 0.06418 0.0
C107 C 0.36248 0.2573 0.90598 0.0
O108 O 0.35456 0.25991 0.99928 0.0
N109 N 0.43542 0.23879 0.83241 0.0
C110 C 0.45858 0.24841 0.8034 0.0
C111 C 0.46019 0.24709 0.69994 0.0
C112 C 0.42378 0.23109 0.74641 0.0
N113 N 0.43826 0.23619 0.66458 0.0
C114 C 0.45538 0.27674 0.02242 0.0
C115 C 0.42271 0.31919 0.04816 0.0
C116 C 0.44841 0.32088 0.08255 0.0
C117 C 0.4648 0.29946 0.06673 0.0
C118 C 0.41383 0.29565 0.00395 0.0
N119 N 0.43012 0.27457 0.99251 0.0
H120 H 0.46851 0.26035 0.01736 0.0
H121 H 0.39371 0.29422 0.98352 0.0
H122 H 0.47317 0.25661 0.85186 0.0
H123 H 0.4043 0.22333 0.74333 0.0
O124 O 0.44666 0.22054 0.02333 0.0
O125 O 0.41359 0.20086 0.94981 0.0
O126 O 0.38603 0.25109 0.8864 0.0
C127 C 0.43516 0.19891 1.00026 0.0
H128 H 0.36541 0.21033 0.26221 0.0
H129 H 0.47593 0.25429 0.65405 0.0
H130 H 0.40942 0.33545 0.05881 0.0
H131 H 0.48487 0.30003 0.09068 0.0
Co132 Co 0.11241 0.91844 0.76315 0.0
C133 C 0.12236 0.92345 0.54719 0.0
C134 C 0.10664 0.95931 0.60541 0.0
C135 C 0.10863 0.96123 0.50254 0.0
N136 N 0.11462 0.93523 0.63315 0.0
N137 N 0.11835 0.93847 0.46666 0.0
H138 H 0.12933 0.90354 0.54167 0.0
H139 H 0.09905 0.97435 0.65432 0.0
C140 C 0.08739 0.96945 0.8453 0.0
O141 O 0.06656 0.96671 0.78973 0.0
N142 N 0.11113 0.90238 0.89222 0.0
C143 C 0.09656 0.88247 0.92516 0.0
C144 C 0.09786 0.88239 0.02854 0.0
C145 C 0.12205 0.91311 0.97384 0.0
N146 N 0.11363 0.90203 0.05925 0.0
C147 C 0.07052 0.89746 0.65399 0.0
C148 C 0.03052 0.90581 0.78803 0.0
C149 C 0.02531 0.89202 0.6979 0.0
C150 C 0.04614 0.88757 0.63235 0.0
C151 C 0.05588 0.91457 0.80905 0.0
N152 N 0.07546 0.91112 0.74041 0.0
H153 H 0.08591 0.89244 0.60274 0.0
H154 H 0.05982 0.92355 0.88131 0.0
H155 H 0.08445 0.87018 0.87835 0.0
H156 H 0.13532 0.92927 0.96888 0.0
O157 O 0.12493 0.88584 0.70778 0.0
O158 O 0.15054 0.91699 0.76632 0.0
O159 O 0.10668 0.95369 0.83521 0.0
C160 C 0.1483 0.89389 0.72437 0.0
H161 H 0.10187 0.97743 0.45761 0.0
H162 H 0.0866 0.86991 0.07703 0.0
H163 H 0.01541 0.9092 0.84318 0.0
H164 H 0.04431 0.8752 0.56637 0.0
Co165 Co 0.41845 0.79111 0.97027 0.0
C166 C 0.41575 0.79645 0.75068 0.0
C167 C 0.3776 0.79685 0.81353 0.0
C168 C 0.37571 0.80067 0.7112 0.0
N169 N 0.40281 0.79346 0.83785 0.0
N170 N 0.39986 0.80067 0.6726 0.0
H171 H 0.43655 0.796 0.74381 0.0
H172 H 0.36162 0.79753 0.86593 0.0
C173 C 0.36582 0.76783 0.0303 0.0
O174 O 0.36734 0.74965 0.96001 0.0
N175 N 0.4334 0.78985 0.10182 0.0
C176 C 0.45621 0.77972 0.13229 0.0
C177 C 0.45749 0.78218 0.23582 0.0
C178 C 0.42142 0.79856 0.18531 0.0
N179 N 0.43547 0.79391 0.26785 0.0
C180 C 0.44278 0.74818 0.87208 0.0
C181 C 0.4281 0.70802 0.99598 0.0
C182 C 0.44508 0.70233 0.91505 0.0
C183 C 0.45224 0.72316 0.85376 0.0
C184 C 0.41942 0.734 0.01338 0.0
N185 N 0.42617 0.75369 0.9494 0.0
H186 H 0.45048 0.76337 0.82628 0.0
H187 H 0.40786 0.73826 0.07936 0.0
H188 H 0.47039 0.77052 0.08336 0.0
H189 H 0.4025 0.80773 0.18634 0.0
O190 O 0.45081 0.80391 0.91899 0.0
O191 O 0.41919 0.82952 0.97527 0.0
O192 O 0.3834 0.78528 0.03705 0.0
C193 C 0.44227 0.82738 0.93555 0.0
H194 H 0.35806 0.80376 0.66891 0.0
H195 H 0.47273 0.77487 0.284 0.0
H196 H 0.42181 0.69284 0.0464 0.0
H197 H 0.46629 0.72065 0.79387 0.0
Co198 Co 0.53661 0.09268 0.1713 0.0
C199 C 0.53018 0.08792 0.95122 0.0
C200 C 0.54069 0.05089 0.01314 0.0
C201 C 0.53866 0.04817 0.91017 0.0
N202 N 0.5359 0.07608 0.03877 0.0
N203 N 0.53241 0.07169 0.87155 0.0
H204 H 0.52605 0.10859 0.94455 0.0
H205 H 0.54548 0.03539 0.06442 0.0
C206 C 0.5607 0.04194 0.256 0.0
O207 O 0.58313 0.04509 0.21119 0.0
N208 N 0.53618 0.10843 0.30332 0.0
C209 C 0.54435 0.13226 0.33381 0.0
C210 C 0.54292 0.13341 0.43766 0.0
C211 C 0.52928 0.09585 0.38741 0.0
N212 N 0.53361 0.11036 0.47001 0.0
C213 C 0.58085 0.11217 0.06973 0.0
C214 C 0.61599 0.11058 0.22543 0.0
C215 C 0.62323 0.12256 0.13484 0.0
C216 C 0.60532 0.12274 0.05642 0.0
C217 C 0.59104 0.09964 0.23519 0.0
N218 N 0.57371 0.10043 0.15724 0.0
H219 H 0.56711 0.11546 0.01099 0.0
H220 H 0.58537 0.09151 0.30665 0.0
H221 H 0.55207 0.14709 0.28473 0.0
H222 H 0.52216 0.076 0.3893 0.0
O223 O 0.52403 0.12504 0.11622 0.0
O224 O 0.49884 0.0931 0.17165 0.0
O225 O 0.54182 0.05755 0.2385 0.0
C226 C 0.50082 0.1162 0.13162 0.0
H227 H 0.54166 0.03027 0.86759 0.0
H228 H 0.5496 0.1492 0.4857 0.0
H229 H 0.62916 0.11027 0.2887 0.0
H230 H 0.60951 0.13265 0.98662 0.0
Co231 Co 0.2305 0.2388 0.5218 0.0
C232 C 0.23619 0.24398 0.30449 0.0
C233 C 0.26762 0.22183 0.36629 0.0
C234 C 0.26884 0.22 0.26294 0.0
N235 N 0.24732 0.23719 0.39216 0.0
N236 N 0.24878 0.23367 0.22447 0.0
H237 H 0.21778 0.25406 0.29934 0.0
H238 H 0.27962 0.21126 0.41888 0.0
C239 C 0.28679 0.25528 0.57585 0.0
O240 O 0.29278 0.26162 0.48333 0.0
N241 N 0.21373 0.23972 0.6518 0.0
C242 C 0.19195 0.2523 0.6816 0.0
C243 C 0.19052 0.25154 0.7851 0.0
C244 C 0.22471 0.23086 0.73687 0.0
N245 N 0.2112 0.23809 0.81937 0.0
C246 C 0.19685 0.27977 0.45917 0.0
C247 C 0.22987 0.32182 0.47793 0.0
C248 C 0.2056 0.3254 0.43253 0.0
C249 C 0.18895 0.30411 0.42553 0.0
C250 C 0.23734 0.29661 0.50999 0.0
N251 N 0.22103 0.27567 0.49842 0.0
H252 H 0.18309 0.26417 0.45151 0.0
H253 H 0.25617 0.29432 0.54301 0.0
H254 H 0.17856 0.26237 0.63306 0.0
H255 H 0.24321 0.22082 0.73872 0.0
O256 O 0.2003 0.22325 0.46195 0.0
O257 O 0.23219 0.20026 0.52778 0.0
O258 O 0.26388 0.24748 0.59675 0.0
C259 C 0.20991 0.20055 0.48162 0.0
H260 H 0.28275 0.20858 0.21999 0.0
H261 H 0.17598 0.261 0.8318 0.0
H262 H 0.24302 0.33813 0.48693 0.0
H263 H 0.16971 0.30627 0.39388 0.0
Co264 Co 0.91436 0.2909 0.50469 0.0
C265 C 0.90993 0.28385 0.28882 0.0
C266 C 0.87857 0.30748 0.34546 0.0
C267 C 0.87757 0.30746 0.24196 0.0
N268 N 0.89853 0.29214 0.37436 0.0
N269 N 0.89739 0.29268 0.20762 0.0
H270 H 0.92813 0.27327 0.28561 0.0
H271 H 0.86659 0.31905 0.39592 0.0
C272 C 0.85802 0.27243 0.54429 0.0
O273 O 0.8535 0.26731 0.44911 0.0
N274 N 0.93047 0.29024 0.63574 0.0
C275 C 0.95573 0.28865 0.6618 0.0
C276 C 0.95739 0.28764 0.76535 0.0
C277 C 0.91744 0.29112 0.72321 0.0
N278 N 0.93314 0.28873 0.80292 0.0
C279 C 0.95207 0.25203 0.45625 0.0
C280 C 0.91982 0.20979 0.42546 0.0
C281 C 0.94605 0.20759 0.39799 0.0
C282 C 0.96222 0.22887 0.41671 0.0
C283 C 0.91021 0.23375 0.4646 0.0
N284 N 0.92624 0.25483 0.47751 0.0
H285 H 0.96519 0.26817 0.46426 0.0
H286 H 0.88987 0.23527 0.48095 0.0
H287 H 0.97192 0.28855 0.61034 0.0
H288 H 0.89684 0.29426 0.72944 0.0
O289 O 0.94387 0.30861 0.44862 0.0
O290 O 0.91019 0.32893 0.51741 0.0
O291 O 0.88053 0.27989 0.57273 0.0
C292 C 0.93254 0.33044 0.47204 0.0
H293 H 0.86457 0.31885 0.19561 0.0
H294 H 0.97495 0.28603 0.80936 0.0
H295 H 0.90674 0.19354 0.41361 0.0
H296 H 0.98271 0.22784 0.39876 0.0
Co297 Co 0.73525 0.73078 0.05992 0.0
C298 C 0.73795 0.73435 0.84087 0.0
C299 C 0.77583 0.72848 0.90316 0.0
C300 C 0.77766 0.72738 0.79981 0.0
N301 N 0.75087 0.73285 0.92835 0.0
N302 N 0.75367 0.73063 0.76118 0.0
H303 H 0.71715 0.7366 0.83569 0.0
H304 H 0.79145 0.72524 0.95575 0.0
C305 C 0.77697 0.7574 0.18084 0.0
O306 O 0.76029 0.77652 0.19571 0.0
N307 N 0.72 0.72643 0.19291 0.0
C308 C 0.69501 0.72164 0.21804 0.0
C309 C 0.6933 0.71838 0.32063 0.0
C310 C 0.73316 0.72364 0.2796 0.0
N311 N 0.71745 0.71945 0.3581 0.0
C312 C 0.73947 0.78478 0.99098 0.0
C313 C 0.69078 0.79943 0.05601 0.0
C314 C 0.70212 0.81375 0.97838 0.0
C315 C 0.72756 0.80709 0.95005 0.0
C316 C 0.70269 0.7767 0.09056 0.0
N317 N 0.72607 0.76839 0.05343 0.0
H318 H 0.75868 0.7796 0.96502 0.0
H319 H 0.69165 0.76512 0.14117 0.0
H320 H 0.67894 0.72111 0.16599 0.0
H321 H 0.75389 0.72417 0.28692 0.0
O322 O 0.70396 0.71837 0.99906 0.0
O323 O 0.73614 0.69243 0.04525 0.0
O324 O 0.77052 0.73779 0.12517 0.0
C325 C 0.71352 0.6949 0.00185 0.0
H326 H 0.79523 0.72392 0.75714 0.0
H327 H 0.67583 0.71546 0.3642 0.0
H328 H 0.67162 0.8044 0.08398 0.0
H329 H 0.73749 0.81762 0.89137 0.0
Co330 Co 0.73159 0.28296 0.96978 0.0
C331 C 0.73596 0.27278 0.1867 0.0
C332 C 0.77169 0.28717 0.12588 0.0
C333 C 0.77359 0.28682 0.22929 0.0
N334 N 0.74803 0.27849 0.09942 0.0
N335 N 0.75113 0.27769 0.26698 0.0
H336 H 0.71572 0.26744 0.19193 0.0
H337 H 0.78572 0.29527 0.07447 0.0
C338 C 0.77598 0.25899 0.84669 0.0
O339 O 0.7647 0.23611 0.8508 0.0
N340 N 0.71559 0.28889 0.83825 0.0
C341 C 0.70233 0.31047 0.8095 0.0
C342 C 0.70112 0.31106 0.70632 0.0
C343 C 0.72138 0.27633 0.75088 0.0
N344 N 0.71327 0.28966 0.66968 0.0
C345 C 0.69788 0.23973 0.93578 0.0
C346 C 0.725 0.20386 0.04992 0.0
C347 C 0.69949 0.19828 0.02187 0.0
C348 C 0.68625 0.21606 0.96122 0.0
C349 C 0.73621 0.22762 0.02106 0.0
N350 N 0.72243 0.2457 0.96687 0.0
H351 H 0.68608 0.25417 0.8985 0.0
H352 H 0.75556 0.23199 0.04711 0.0
H353 H 0.6957 0.32606 0.85841 0.0
H354 H 0.73282 0.25875 0.74538 0.0
O355 O 0.70051 0.2941 0.03798 0.0
O356 O 0.73208 0.32094 0.99599 0.0
O357 O 0.76654 0.27858 0.89616 0.0
C358 C 0.70987 0.31759 0.04166 0.0
H359 H 0.78951 0.29439 0.27367 0.0
H360 H 0.69358 0.32695 0.6615 0.0
H361 H 0.73575 0.19052 0.0972 0.0
H362 H 0.66633 0.2125 0.9395 0.0
Co363 Co 0.91147 0.73159 0.5607 0.0
C364 C 0.90464 0.71853 0.77463 0.0
C365 C 0.87502 0.74496 0.72669 0.0
C366 C 0.87419 0.74343 0.82973 0.0
N367 N 0.89467 0.72987 0.69184 0.0
N368 N 0.89332 0.72729 0.85974 0.0
H369 H 0.92106 0.7055 0.77398 0.0
H370 H 0.86334 0.75797 0.68287 0.0
C371 C 0.86162 0.7567 0.47583 0.0
O372 O 0.86567 0.77879 0.52424 0.0
N373 N 0.92762 0.7326 0.43091 0.0
C374 C 0.94973 0.7443 0.40225 0.0
C375 C 0.95141 0.74266 0.29887 0.0
C376 C 0.91682 0.72315 0.34662 0.0
N377 N 0.93058 0.72937 0.26441 0.0
C378 C 0.93151 0.77411 0.67121 0.0
C379 C 0.9285 0.81275 0.52872 0.0
C380 C 0.94273 0.8179 0.61743 0.0
C381 C 0.9436 0.79793 0.68905 0.0
C382 C 0.91779 0.78778 0.51127 0.0
N383 N 0.91898 0.76883 0.58312 0.0
H384 H 0.9342 0.75903 0.72631 0.0
H385 H 0.90923 0.78354 0.43882 0.0
H386 H 0.96279 0.75463 0.45209 0.0
H387 H 0.89868 0.71265 0.3453 0.0
O388 O 0.94367 0.71935 0.61523 0.0
O389 O 0.91315 0.69317 0.55545 0.0
O390 O 0.87652 0.73694 0.4904 0.0
C391 C 0.9362 0.69574 0.59482 0.0
H392 H 0.862 0.75515 0.879 0.0
H393 H 0.96586 0.75209 0.25288 0.0
H394 H 0.926 0.82736 0.47147 0.0
H395 H 0.95489 0.79976 0.75714 0.0
Co396 Co 0.6091 0.59502 0.78206 0.0
C397 C 0.61562 0.59089 0.00202 0.0
C398 C 0.60813 0.55314 0.93797 0.0
C399 C 0.60994 0.55072 0.04096 0.0
N400 N 0.61093 0.57858 0.91367 0.0
N401 N 0.61438 0.57464 0.08067 0.0
H402 H 0.6189 0.61168 0.01006 0.0
H403 H 0.60509 0.5372 0.88579 0.0
C404 C 0.58471 0.54386 0.70427 0.0
O405 O 0.56495 0.54597 0.76621 0.0
N406 N 0.60822 0.61074 0.65129 0.0
C407 C 0.59818 0.63394 0.62296 0.0
C408 C 0.5994 0.63529 0.5192 0.0
C409 C 0.6158 0.59864 0.56597 0.0
N410 N 0.61043 0.61299 0.4847 0.0
C411 C 0.56636 0.61695 0.88638 0.0
C412 C 0.52748 0.60836 0.74869 0.0
C413 C 0.52152 0.62239 0.83783 0.0
C414 C 0.54174 0.62677 0.90559 0.0
C415 C 0.55301 0.59911 0.73121 0.0
N416 N 0.57203 0.60277 0.80168 0.0
H417 H 0.58129 0.62261 0.93785 0.0
H418 H 0.55756 0.58968 0.66022 0.0
H419 H 0.58945 0.64818 0.67344 0.0
H420 H 0.62413 0.57918 0.56241 0.0
O421 O 0.62147 0.62751 0.83741 0.0
O422 O 0.64713 0.59592 0.77977 0.0
O423 O 0.60361 0.5599 0.71112 0.0
C424 C 0.64482 0.61907 0.82137 0.0
H425 H 0.60808 0.53279 0.08305 0.0
H426 H 0.5915 0.65064 0.47263 0.0
H427 H 0.51282 0.6052 0.6918 0.0
H428 H 0.53921 0.63924 0.9711 0.0
Co429 Co 0.04265 0.42501 0.28272 0.0
C430 C 0.04881 0.43017 0.50188 0.0
C431 C 0.03215 0.4649 0.44033 0.0
C432 C 0.03169 0.46697 0.54404 0.0
N433 N 0.04323 0.44185 0.41403 0.0
N434 N 0.04239 0.44507 0.58197 0.0
H435 H 0.05478 0.4101 0.50876 0.0
H436 H 0.02352 0.47851 0.38817 0.0
C437 C 0.06458 0.47877 0.23283 0.0
O438 O 0.07938 0.47838 0.31308 0.0
N439 N 0.04161 0.40851 0.15212 0.0
C440 C 0.05151 0.38508 0.12454 0.0
C441 C 0.05159 0.38351 0.02087 0.0
C442 C 0.03532 0.42054 0.06588 0.0
N443 N 0.0417 0.40604 0.98453 0.0
C444 C 0.08532 0.39544 0.35777 0.0
C445 C 0.12495 0.41783 0.24965 0.0
C446 C 0.13096 0.39897 0.32226 0.0
C447 C 0.11066 0.38755 0.37505 0.0
C448 C 0.09892 0.42571 0.23615 0.0
N449 N 0.07952 0.41546 0.29408 0.0
H450 H 0.07038 0.38463 0.39506 0.0
H451 H 0.09453 0.43942 0.17739 0.0
H452 H 0.05951 0.37085 0.1757 0.0
H453 H 0.02786 0.44027 0.06222 0.0
O454 O 0.02821 0.39418 0.34331 0.0
O455 O 1.00469 0.42693 0.28482 0.0
O456 O 0.04979 0.45942 0.21316 0.0
C457 C 1.00551 0.40448 0.33043 0.0
H458 H 0.02315 0.48274 0.58797 0.0
H459 H 0.05927 0.3675 0.97593 0.0
H460 H 0.14007 0.42616 0.20352 0.0
H461 H 0.11427 0.37179 0.4273 0.0
Co462 Co 0.60758 0.42108 0.27215 0.0
C463 C 0.61665 0.42527 0.05365 0.0
C464 C 0.60573 0.46261 0.11471 0.0
C465 C 0.60913 0.46497 0.0122 0.0
N466 N 0.60993 0.43745 0.14043 0.0
N467 N 0.61597 0.44135 0.97427 0.0
H468 H 0.61967 0.40441 0.04687 0.0
H469 H 0.60017 0.47824 0.16544 0.0
C470 C 0.58416 0.47133 0.35817 0.0
O471 O 0.56314 0.4684 0.30388 0.0
N472 N 0.60692 0.40565 0.4038 0.0
C473 C 0.59937 0.38159 0.43261 0.0
C474 C 0.60149 0.3802 0.53619 0.0
C475 C 0.61399 0.41818 0.48868 0.0
N476 N 0.61058 0.40335 0.57004 0.0
C477 C 0.56177 0.40722 0.16427 0.0
C478 C 0.52725 0.40601 0.32238 0.0
C479 C 0.519 0.39749 0.22686 0.0
C480 C 0.53663 0.39871 0.14754 0.0
C481 C 0.55279 0.41525 0.33559 0.0
N482 N 0.56992 0.41575 0.25659 0.0
H483 H 0.575 0.40483 0.10294 0.0
H484 H 0.55891 0.42123 0.40995 0.0
H485 H 0.59207 0.36655 0.38255 0.0
H486 H 0.62124 0.43799 0.4921 0.0
O487 O 0.61763 0.38775 0.21605 0.0
O488 O 0.64548 0.41749 0.27066 0.0
O489 O 0.60398 0.45672 0.34181 0.0
C490 C 0.64157 0.39445 0.23005 0.0
H491 H 0.60611 0.48253 0.96874 0.0
H492 H 0.59583 0.364 0.58313 0.0
H493 H 0.5144 0.40478 0.38655 0.0
H494 H 0.53171 0.39108 0.07375 0.0
Co495 Co 0.04963 0.60701 0.82476 0.0
C496 C 0.054 0.60444 0.60548 0.0
C497 C 0.04951 0.56605 0.66677 0.0
C498 C 0.0486 0.56417 0.56345 0.0
N499 N 0.05286 0.59137 0.69267 0.0
N500 N 0.05091 0.58847 0.5254 0.0
H501 H 0.05532 0.62551 0.60085 0.0
H502 H 0.04674 0.5502 0.71889 0.0
C503 C 0.07554 0.56518 0.94819 0.0
O504 O 0.09367 0.58231 0.96943 0.0
N505 N 0.04448 0.62232 0.95834 0.0
C506 C 0.03995 0.64759 0.98494 0.0
C507 C 0.03663 0.64923 0.08766 0.0
C508 C 0.04131 0.60897 0.04438 0.0
N509 N 0.03739 0.62478 0.12402 0.0
C510 C 0.10394 0.6016 0.76651 0.0
C511 C 0.11612 0.65285 0.81203 0.0
C512 C 0.13235 0.639 0.74586 0.0
C513 C 0.12678 0.61252 0.72729 0.0
C514 C 0.09321 0.64164 0.84583 0.0
N515 N 0.08651 0.61667 0.81966 0.0
H516 H 0.09926 0.58163 0.74646 0.0
H517 H 0.08002 0.65432 0.88462 0.0
H518 H 0.03923 0.66391 0.93379 0.0
H519 H 0.04141 0.58802 0.0503 0.0
O520 O 0.03666 0.63838 0.76493 0.0
O521 O 0.01182 0.60526 0.80959 0.0
O522 O 0.05711 0.57158 0.88829 0.0
C523 C 0.01371 0.62817 0.76719 0.0
H524 H 0.04579 0.54634 0.52044 0.0
H525 H 0.0339 0.66689 0.13212 0.0
H526 H 0.11988 0.67319 0.83043 0.0
H527 H 0.13873 0.60092 0.67675 0.0
C528 C 0.16884 0.17643 0.48111 0.0
C529 C 0.19497 0.17713 0.45227 0.0
C530 C 0.15138 0.15937 0.43472 0.0
C531 C 0.15918 0.14216 0.35688 0.0
H532 H 0.16148 0.1902 0.53685 0.0
H533 H 0.13131 0.16033 0.45862 0.0
S534 S 0.22589 0.13597 0.25473 0.0
N535 N 0.22824 0.15898 0.34242 0.0
N536 N 0.19535 0.12624 0.25565 0.0
C537 C 0.18561 0.14175 0.33014 0.0
C538 C 0.20352 0.15942 0.37763 0.0
C539 C 0.18464 0.83291 0.65004 0.0
C540 C 0.20289 0.84152 0.57867 0.0
C541 C 0.16868 0.85044 0.70287 0.0
C542 C 0.17026 0.87752 0.68804 0.0
H543 H 0.18197 0.81222 0.66358 0.0
H544 H 0.1541 0.84257 0.75282 0.0
S545 S 0.2156 0.9108 0.51501 0.0
N546 N 0.22255 0.87936 0.50023 0.0
N547 N 0.19222 0.91251 0.60006 0.0
C548 C 0.18928 0.88675 0.6212 0.0
C549 C 0.20569 0.86871 0.56653 0.0
C550 C 0.50298 0.86503 0.88512 0.0
C551 C 0.49575 0.88209 0.80743 0.0
C552 C 0.48481 0.84909 0.93257 0.0
C553 C 0.45855 0.84967 0.90529 0.0
H554 H 0.52311 0.8632 0.90718 0.0
H555 H 0.49161 0.83518 0.98775 0.0
S556 S 0.42911 0.89165 0.71021 0.0
N557 N 0.46016 0.89954 0.70865 0.0
N558 N 0.42583 0.86932 0.79845 0.0
C559 C 0.45064 0.86762 0.83181 0.0
C560 C 0.46929 0.88395 0.78282 0.0
C561 C 0.46907 0.1331 0.00634 0.0
C562 C 0.47828 0.13253 0.1059 0.0
C563 C 0.45281 0.15352 0.97336 0.0
C564 C 0.44577 0.17408 0.03892 0.0
H565 H 0.47577 0.1186 0.95226 0.0
H566 H 0.44744 0.15428 0.89476 0.0
S567 S 0.46288 0.18007 0.3089 0.0
N568 N 0.47753 0.1529 0.27099 0.0
N569 N 0.44735 0.19132 0.20967 0.0
C570 C 0.45357 0.17269 0.14002 0.0
C571 C 0.4698 0.1519 0.17342 0.0
C572 C 0.96497 0.85036 0.73356 0.0
C573 C 0.95891 0.84219 0.63436 0.0
C574 C 0.98524 0.86786 0.75405 0.0
C575 C 0.99966 0.87922 0.67618 0.0
H576 H 0.95496 0.84208 0.79727 0.0
H577 H 0.99055 0.87112 0.8318 0.0
S578 S 0.98602 0.87216 0.40296 0.0
N579 N 0.96635 0.85114 0.45684 0.0
N580 N 1.0015 0.8868 0.49591 0.0
C581 C 0.99104 0.87464 0.57682 0.0
C582 C 0.97138 0.85562 0.55566 0.0
C583 C 0.95966 0.1604 0.40574 0.0
C584 C 0.95753 0.18364 0.35068 0.0
C585 C 0.97703 0.14045 0.37581 0.0
C586 C 0.99287 0.14299 0.28969 0.0
H587 H 0.94953 0.15856 0.47669 0.0
H588 H 0.9796 0.12382 0.4248 0.0
S589 S 0.99127 0.19839 0.11159 0.0
N590 N 0.96998 0.20662 0.19929 0.0
N591 N 1.00272 0.16941 0.14376 0.0
C592 C 0.98891 0.16502 0.22894 0.0
C593 C 0.97128 0.1853 0.25947 0.0
C594 C 0.66165 0.13513 0.03052 0.0
C595 C 0.64772 0.13762 0.12158 0.0
C596 C 0.67992 0.15391 0.00143 0.0
C597 C 0.68531 0.17561 0.06315 0.0
H598 H 0.65709 0.11946 0.97814 0.0
H599 H 0.68882 0.15222 0.92783 0.0
S600 S 0.65632 0.19026 0.31235 0.0
N601 N 0.6421 0.16286 0.27594 0.0
N602 N 0.67697 0.1977 0.22212 0.0
C603 C 0.67311 0.17736 0.15747 0.0
C604 C 0.65428 0.15839 0.18678 0.0
C605 C 0.64356 0.84073 0.84018 0.0
C606 C 0.652 0.8646 0.79977 0.0
C607 C 0.65996 0.82487 0.89684 0.0
C608 C 0.68564 0.83219 0.91876 0.0
H609 H 0.62386 0.8341 0.82864 0.0
H610 H 0.65231 0.8064 0.92269 0.0
S611 S 0.71745 0.89323 0.83401 0.0
N612 N 0.68799 0.89495 0.78585 0.0
N613 N 0.71869 0.8655 0.89684 0.0
C614 C 0.69445 0.8562 0.88013 0.0
C615 C 0.67764 0.87237 0.82058 0.0
C616 C 0.68219 0.68055 0.87149 0.0
C617 C 0.69965 0.67348 0.9481 0.0
C618 C 0.66607 0.66213 0.82531 0.0
C619 C 0.66681 0.63569 0.85249 0.0
H620 H 0.68024 0.70077 0.84879 0.0
H621 H 0.65202 0.66888 0.77073 0.0
S622 S 0.70974 0.60636 0.04455 0.0
N623 N 0.71758 0.63772 0.04561 0.0
N624 N 0.68698 0.60289 0.95811 0.0
C625 C 0.68504 0.62788 0.92501 0.0
C626 C 0.70158 0.64682 0.97283 0.0
C627 C 0.65892 0.34951 0.20866 0.0
C628 C 0.66245 0.37647 0.19504 0.0
C629 C 0.67501 0.33104 0.16128 0.0
C630 C 0.69526 0.33858 0.09662 0.0
H631 H 0.643 0.34254 0.25428 0.0
H632 H 0.67101 0.31053 0.17388 0.0
S633 S 0.71296 0.407 0.03666 0.0
N634 N 0.68805 0.41009 0.11431 0.0
N635 N 0.71841 0.37522 0.02398 0.0
C636 C 0.69966 0.36558 0.0848 0.0
C637 C 0.68322 0.38455 0.13421 0.0
C638 C 0.96257 0.38228 0.31062 0.0
C639 C 0.98252 0.3915 0.37318 0.0
C640 C 0.94435 0.36413 0.34647 0.0
C641 C 0.94526 0.35522 0.44629 0.0
H642 H 0.96229 0.38744 0.23184 0.0
H643 H 0.93064 0.35563 0.29403 0.0
S644 S 0.99208 0.37558 0.64205 0.0
N645 N 1.00089 0.39193 0.54118 0.0
N646 N 0.96648 0.35831 0.6083 0.0
C647 C 0.96395 0.36575 0.51098 0.0
C648 C 0.98264 0.38384 0.47443 0.0
C649 C 0.97983 0.67624 0.59714 0.0
C650 C 0.95352 0.6738 0.62175 0.0
C651 C 0.99867 0.66051 0.64195 0.0
C652 C 0.99215 0.64173 0.71454 0.0
H653 H 0.98609 0.69138 0.54609 0.0
H654 H 0.01872 0.66381 0.62153 0.0
S655 S 0.92559 0.62648 0.80099 0.0
N656 N 0.92144 0.65026 0.71899 0.0
N657 N 0.9571 0.62043 0.80419 0.0
C658 C 0.9657 0.63798 0.73594 0.0
C659 C 0.94632 0.6541 0.68939 0.0
C660 C 0.47237 0.34102 0.22691 0.0
C661 C 0.45916 0.3443 0.13508 0.0
C662 C 0.48956 0.36008 0.26365 0.0
C663 C 0.49428 0.38309 0.20958 0.0
H664 H 0.47096 0.32264 0.26655 0.0
H665 H 0.50104 0.35557 0.32941 0.0
S666 S 0.46097 0.40326 0.97551 0.0
N667 N 0.44922 0.3739 0.9988 0.0
N668 N 0.4813 0.40988 0.06807 0.0
C669 C 0.47903 0.38784 0.12369 0.0
C670 C 0.46152 0.36841 0.08636 0.0
C671 C 0.46473 0.66861 0.79727 0.0
C672 C 0.45796 0.67616 0.89659 0.0
C673 C 0.48367 0.64938 0.77749 0.0
C674 C 0.49602 0.63603 0.85606 0.0
H675 H 0.45679 0.67907 0.73384 0.0
H676 H 0.49003 0.64656 0.70056 0.0
S677 S 0.47904 0.6416 0.12712 0.0
N678 N 0.46159 0.66467 0.07312 0.0
N679 N 0.49487 0.62663 0.03513 0.0
C680 C 0.4863 0.64027 0.95435 0.0
C681 C 0.4678 0.66068 0.97492 0.0
C682 C 0.16162 0.6932 0.58999 0.0
C683 C 0.18731 0.68501 0.57161 0.0
C684 C 0.14433 0.67793 0.64458 0.0
C685 C 0.15182 0.65376 0.68565 0.0
H686 H 0.15474 0.71199 0.56358 0.0
H687 H 0.12476 0.6853 0.65479 0.0
S688 S 0.21663 0.62267 0.65833 0.0
N689 N 0.21923 0.65046 0.59659 0.0
N690 N 0.18669 0.62195 0.7027 0.0
C691 C 0.17733 0.64498 0.66737 0.0
C692 C 0.1951 0.66061 0.61044 0.0
C693 C 0.18621 0.36929 0.46576 0.0
C694 C 0.19586 0.35094 0.39583 0.0
C695 C 0.16726 0.38768 0.43775 0.0
C696 C 0.15744 0.38832 0.33893 0.0
H697 H 0.19113 0.36757 0.54455 0.0
H698 H 0.15834 0.39965 0.496 0.0
S699 S 0.17977 0.34727 0.12474 0.0
N700 N 0.19699 0.33686 0.22117 0.0
N701 N 0.1614 0.37138 0.16866 0.0
C702 C 0.16919 0.37215 0.26612 0.0
C703 C 0.18842 0.35341 0.29465 0.0
C704 C 0.0643 0.01332 0.06127 0.0
C705 C 0.08636 0.02814 0.08704 0.0
C706 C 0.06482 0.99475 0.98248 0.0
C707 C 0.08752 0.9898 0.92645 0.0
H708 H 0.04621 0.01628 0.10131 0.0
H709 H 0.04728 0.98395 0.966 0.0
S710 S 0.15069 0.02291 0.96105 0.0
N711 N 0.13178 0.03629 0.04781 0.0
N712 N 0.1326 1.00124 0.90122 0.0
C713 C 0.10978 1.0042 0.95123 0.0
C714 C 0.10921 0.02342 0.03071 0.0
C715 C 0.33082 0.74359 0.12239 0.0
C716 C 0.34474 0.76688 0.108 0.0
C717 C 0.31159 0.74164 0.19693 0.0
C718 C 0.30511 0.76291 0.26089 0.0
H719 H 0.33488 0.72652 0.07605 0.0
H720 H 0.30146 0.7232 0.20323 0.0
S721 S 0.33555 0.82862 0.25423 0.0
N722 N 0.35049 0.81194 0.16425 0.0
N723 N 0.31452 0.80822 0.30418 0.0
C724 C 0.31904 0.78632 0.24806 0.0
C725 C 0.33871 0.78831 0.17184 0.0
C726 C 0.53183 0.01639 0.37067 0.0
C727 C 0.55686 0.02087 0.33208 0.0
C728 C 0.52732 0.99783 0.44558 0.0
C729 C 0.5476 0.98278 0.4864 0.0
H730 H 0.51533 0.02729 0.34276 0.0
H731 H 0.50758 0.99523 0.47132 0.0
S732 S 0.61694 0.9867 0.41326 0.0
N733 N 0.60243 1.00857 0.34173 0.0
N734 N 0.59388 0.97362 0.48256 0.0
C735 C 0.57282 0.98702 0.44932 0.0
C736 C 0.57744 1.00597 0.37217 0.0
C737 C 0.31693 0.25428 0.83898 0.0
C738 C 0.34338 0.25931 0.82164 0.0
C739 C 0.2989 0.25347 0.75971 0.0
C740 C 0.30635 0.25774 0.65901 0.0
H741 H 0.31012 0.25017 0.91423 0.0
H742 H 0.27894 0.2492 0.77806 0.0
S743 S 0.37276 0.27485 0.57443 0.0
N744 N 0.37571 0.27087 0.69684 0.0
N745 N 0.34202 0.2692 0.54828 0.0
C746 C 0.33259 0.26382 0.64118 0.0
C747 C 0.351 0.26459 0.72207 0.0
C748 C 0.81692 0.28075 0.78362 0.0
C749 C 0.79667 0.26276 0.7692 0.0
C750 C 0.83676 0.2836 0.71128 0.0
C751 C 0.8369 0.26899 0.62054 0.0
H752 H 0.81771 0.29238 0.85201 0.0
H753 H 0.85185 0.29773 0.72608 0.0
S754 S 0.78669 0.22125 0.54149 0.0
N755 N 0.77711 0.23135 0.65372 0.0
N756 N 0.81389 0.237 0.51862 0.0
C757 C 0.81622 0.25164 0.60393 0.0
C758 C 0.7963 0.24844 0.6779 0.0
C759 C 0.80756 0.7792 0.30085 0.0
C760 C 0.80032 0.75642 0.24765 0.0
C761 C 0.82711 0.77885 0.374 0.0
C762 C 0.84053 0.75568 0.39835 0.0
H763 H 0.79776 0.79762 0.28708 0.0
H764 H 0.83161 0.79711 0.41193 0.0
S765 S 0.82959 0.69046 0.27998 0.0
N766 N 0.80867 0.70989 0.2232 0.0
N767 N 0.84526 0.70914 0.36134 0.0
C768 C 0.83383 0.73271 0.34472 0.0
C769 C 0.81388 0.73311 0.26929 0.0
C770 C 0.60728 0.51821 0.5656 0.0
C771 C 0.58438 0.52424 0.61956 0.0
C772 C 0.60715 0.50115 0.4816 0.0
C773 C 0.58402 0.48982 0.44615 0.0
H774 H 0.62555 0.52678 0.58829 0.0
H775 H 0.62529 0.49711 0.44325 0.0
S776 S 0.5188 0.49852 0.56083 0.0
N777 N 0.53795 0.51675 0.63154 0.0
N778 N 0.53769 0.48522 0.47398 0.0
C779 C 0.56105 0.49548 0.49974 0.0
C780 C 0.56123 0.5125 0.58611 0.0
C781 C 0.09197 0.53659 0.08765 0.0
C782 C 0.073 0.54165 0.01388 0.0
C783 C 0.08896 0.51653 0.15835 0.0
C784 C 0.06688 0.50046 0.15862 0.0
H785 H 0.10926 0.54848 0.09219 0.0
H786 H 0.10421 0.51356 0.21299 0.0
S787 S 0.01113 0.5055 0.98298 0.0
N788 N 0.03118 0.5286 0.94606 0.0
N789 N 0.02536 0.49138 0.07949 0.0
C790 C 0.04777 0.50518 0.08513 0.0
C791 C 0.05088 0.52556 0.01273 0.0
C792 C 0.12477 0.11994 0.78248 0.0
C793 C 0.109 0.10851 0.85545 0.0
C794 C 0.12593 0.1095 0.68472 0.0
C795 C 0.11111 0.08744 0.65641 0.0
H796 H 0.13634 0.1369 0.80154 0.0
H797 H 0.13835 0.11893 0.63044 0.0
S798 S 0.06585 0.05141 0.82128 0.0
N799 N 0.07813 0.07443 0.89471 0.0
N800 N 0.07964 0.05515 0.71029 0.0
C801 C 0.09537 0.07582 0.72969 0.0
C802 C 0.09442 0.08633 0.82932 0.0
C803 C 0.21656 0.78139 0.98447 0.0
C804 C 0.22965 0.79797 0.05157 0.0
C805 C 0.22624 0.77672 0.88762 0.0
C806 C 0.24921 0.7887 0.85392 0.0
H807 H 0.1993 0.7712 0.0085 0.0
H808 H 0.21581 0.76329 0.83923 0.0
S809 S 0.28949 0.83544 0.00075 0.0
N810 N 0.26597 0.82718 0.07832 0.0
N811 N 0.28388 0.81921 0.89521 0.0
C812 C 0.26213 0.80585 0.92022 0.0
C813 C 0.25237 0.81034 0.01917 0.0
C814 C 0.53455 0.93388 0.13806 0.0
C815 C 0.55656 0.92694 0.08102 0.0
C816 C 0.53108 0.9244 0.23564 0.0
C817 C 0.54968 0.90803 0.28 0.0
H818 H 0.51958 0.94612 0.10589 0.0
H819 H 0.51377 0.92991 0.27706 0.0
S820 S 0.61118 0.88521 0.16492 0.0
N821 N 0.59747 0.90322 0.07696 0.0
N822 N 0.59118 0.88601 0.26214 0.0
C823 C 0.57205 0.90151 0.22523 0.0
C824 C 0.5754 0.91076 0.12508 0.0
C825 C 0.42415 0.25542 0.39824 0.0
C826 C 0.40941 0.23422 0.36171 0.0
C827 C 0.43429 0.25556 0.496 0.0
C828 C 0.42984 0.23463 0.56156 0.0
H829 H 0.42755 0.27227 0.35135 0.0
H830 H 0.4449 0.27257 0.52169 0.0
S831 S 0.39553 0.173 0.50036 0.0
N832 N 0.39323 0.19051 0.39707 0.0
N833 N 0.41161 0.19134 0.58156 0.0
C834 C 0.41576 0.21306 0.52572 0.0
C835 C 0.40566 0.21272 0.42579 0.0
C836 C 0.11263 0.90341 0.34084 0.0
C837 C 0.11914 0.92946 0.36436 0.0
C838 C 0.11196 0.89451 0.24155 0.0
C839 C 0.1172 0.91136 0.16117 0.0
H840 H 0.10732 0.88987 0.39935 0.0
H841 H 0.10688 0.87427 0.22805 0.0
S842 S 0.13761 0.98109 0.18642 0.0
N843 N 0.13332 0.97133 0.30275 0.0
N844 N 0.13038 0.95568 0.11458 0.0
C845 C 0.12441 0.93748 0.18446 0.0
C846 C 0.12565 0.94626 0.28635 0.0
C847 C 0.39273 0.78955 0.49452 0.0
C848 C 0.40761 0.80205 0.56896 0.0
C849 C 0.4019 0.78722 0.39582 0.0
C850 C 0.42634 0.79704 0.36883 0.0
H851 H 0.3744 0.7806 0.51356 0.0
H852 H 0.39018 0.77701 0.34067 0.0
S853 S 0.47075 0.83519 0.53045 0.0
N854 N 0.44638 0.82753 0.60507 0.0
N855 N 0.46394 0.82201 0.41984 0.0
C856 C 0.44087 0.81056 0.44083 0.0
C857 C 0.43138 0.8134 0.54088 0.0
C858 C 0.51687 0.11146 0.64284 0.0
C859 C 0.53348 0.10058 0.57038 0.0
C860 C 0.51581 0.10109 0.73987 0.0
C861 C 0.53162 0.07974 0.76799 0.0
H862 H 0.50447 0.12784 0.62376 0.0
H863 H 0.50261 0.11 0.79354 0.0
S864 S 0.57922 0.04529 0.60359 0.0
N865 N 0.56609 0.06773 0.53086 0.0
N866 N 0.56497 0.04872 0.71414 0.0
C867 C 0.54831 0.06873 0.69514 0.0
C868 C 0.54907 0.0791 0.59616 0.0
C869 C 0.21796 0.25799 0.98689 0.0
C870 C 0.21994 0.23624 0.92178 0.0
C871 C 0.22778 0.25707 0.08498 0.0
C872 C 0.2399 0.23435 0.12178 0.0
H873 H 0.20926 0.27603 0.96105 0.0
H874 H 0.22608 0.27435 0.13229 0.0
S875 S 0.24755 0.17129 0.9838 0.0
N876 N 0.23352 0.19094 0.90218 0.0
N877 N 0.2516 0.18895 0.08708 0.0
C878 C 0.24154 0.21229 0.05787 0.0
C879 C 0.23164 0.2133 0.9578 0.0
C880 C 0.93025 0.30239 0.08002 0.0
C881 C 0.90653 0.29095 0.10663 0.0
C882 C 0.93932 0.30104 0.98081 0.0
C883 C 0.92497 0.288 0.90607 0.0
H884 H 0.94148 0.31284 0.13605 0.0
H885 H 0.95723 0.31081 0.96183 0.0
S886 S 0.86354 0.25166 0.94378 0.0
N887 N 0.87001 0.2646 0.05508 0.0
N888 N 0.8873 0.26095 0.86891 0.0
C889 C 0.90176 0.27547 0.9337 0.0
C890 C 0.89245 0.27726 0.03409 0.0
C891 C 0.7229 0.74106 0.6258 0.0
C892 C 0.74514 0.72751 0.65881 0.0
C893 C 0.7131 0.7373 0.52884 0.0
C894 C 0.72537 0.72011 0.46111 0.0
H895 H 0.71316 0.75496 0.67491 0.0
H896 H 0.69642 0.74862 0.50528 0.0
S897 S 0.78298 0.67867 0.51029 0.0
N898 N 0.77816 0.69495 0.61649 0.0
N899 N 0.76008 0.68869 0.43294 0.0
C900 C 0.74737 0.70623 0.49279 0.0
C901 C 0.75723 0.70978 0.59187 0.0
C902 C 0.73469 0.30694 0.51877 0.0
C903 C 0.72256 0.28609 0.56839 0.0
C904 C 0.74465 0.30381 0.42133 0.0
C905 C 0.74242 0.27986 0.36941 0.0
H906 H 0.73676 0.32572 0.55621 0.0
H907 H 0.75365 0.32038 0.38531 0.0
S908 S 0.7127 0.21924 0.46608 0.0
N909 N 0.70946 0.24057 0.5595 0.0
N910 N 0.72743 0.23495 0.37432 0.0
C911 C 0.73034 0.25888 0.4179 0.0
C912 C 0.72068 0.26191 0.51808 0.0
C913 C 0.89506 0.72761 0.14085 0.0
C914 C 0.92179 0.72665 0.16228 0.0
C915 C 0.88597 0.72676 0.0421 0.0
C916 C 0.9032 0.72517 0.96056 0.0
H917 H 0.88095 0.72993 0.20053 0.0
H918 H 0.86527 0.72791 0.02933 0.0
S919 S 0.97519 0.72117 0.97661 0.0
N920 N 0.96534 0.72242 0.09458 0.0
N921 N 0.94858 0.72255 0.90824 0.0
C922 C 0.93006 0.72373 0.98088 0.0
C923 C 0.93926 0.72415 0.08189 0.0
C924 C 0.62867 0.61388 0.31409 0.0
C925 C 0.61117 0.60344 0.38338 0.0
C926 C 0.63033 0.60363 0.21614 0.0
C927 C 0.61441 0.58274 0.18456 0.0
H928 H 0.64123 0.62984 0.33628 0.0
H929 H 0.64405 0.6122 0.16441 0.0
S930 S 0.56426 0.55006 0.33836 0.0
N931 N 0.57731 0.57186 0.41524 0.0
N932 N 0.57979 0.55294 0.23042 0.0
C933 C 0.59679 0.57227 0.25392 0.0
C934 C 0.59529 0.58259 0.35354 0.0
C935 C 0.02153 0.43105 0.84698 0.0
C936 C 0.04197 0.41528 0.88252 0.0
C937 C 0.02203 0.44147 0.74971 0.0
C938 C 0.04307 0.43656 0.68483 0.0
H939 H 1.00493 0.43513 0.89459 0.0
H940 H 1.00559 0.45284 0.72423 0.0
S941 S 0.10277 0.39922 0.74556 0.0
N942 N 0.08471 0.3971 0.8477 0.0
N943 N 0.08567 0.41668 0.66541 0.0
C944 C 0.06392 0.42147 0.72049 0.0
C945 C 0.06337 0.41079 0.81909 0.0
C946 C 0.59836 0.43496 0.70172 0.0
C947 C 0.61243 0.41261 0.67157 0.0
C948 C 0.60036 0.44495 0.7997 0.0
C949 C 0.61684 0.43313 0.87038 0.0
H950 H 0.58538 0.44445 0.64934 0.0
H951 H 0.58829 0.46148 0.82094 0.0
S952 S 0.66087 0.37659 0.82165 0.0
N953 N 0.64491 0.38032 0.71513 0.0
N954 N 0.64981 0.39963 0.89857 0.0
C955 C 0.63205 0.41151 0.83883 0.0
C956 C 0.62954 0.40108 0.73961 0.0
C957 C 0.05959 0.61989 0.3902 0.0
C958 C 0.04723 0.59699 0.42347 0.0
C959 C 0.05524 0.62966 0.29382 0.0
C960 C 0.03859 0.61674 0.22681 0.0
H961 H 0.07303 0.63019 0.43864 0.0
H962 H 0.0657 0.64687 0.27011 0.0
S963 S 1.00021 0.55714 0.2772 0.0
N964 N 0.01638 0.56255 0.38228 0.0
N965 N 1.00888 0.58067 0.20003 0.0
C966 C 0.02585 0.59408 0.25889 0.0
C967 C 0.03006 0.58421 0.35736 0.0
loop_
_geom_bond_atom_site_label_1
_geom_bond_atom_site_label_2
_geom_bond_distance
_geom_bond_site_symmetry_2
_ccdc_geom_bond_type
Co0 N4 2.148 . S
Co0 N10 2.128 . S
Co0 N20 2.194 . S
Co0 O25 2.351 . S
Co0 O26 2.155 . S
Co0 O27 2.096 . S
C1 N4 1.301 . S
C1 N5 1.328 . S
C1 H6 0.930 . S
C2 C3 1.333 . S
C2 N4 1.317 . S
C2 H7 0.930 . S
C3 C2 1.333 . S
C3 N5 1.350 . S
C3 H29 0.931 . S
N4 Co0 2.148 . S
N4 C1 1.301 . S
N4 C2 1.317 . S
N5 C1 1.328 . S
N5 C3 1.350 . S
H6 C1 0.930 . S
H7 C2 0.930 . S
C8 O9 1.224 . S
C8 O27 1.247 . S
O9 C8 1.224 . S
N10 Co0 2.128 . S
N10 C11 1.355 . S
N10 C13 1.311 . S
C11 N10 1.355 . S
C11 C12 1.363 1_554 S
C11 H23 0.929 . S
C12 C11 1.363 1_556 S
C12 N14 1.375 . S
C12 H30 0.931 . S
C13 N10 1.311 . S
C13 N14 1.347 1_554 S
C13 H24 0.929 . S
N14 C12 1.375 . S
N14 C13 1.347 1_556 S
C15 C18 1.365 . S
C15 N20 1.328 . S
C15 H21 0.929 . S
C16 C17 1.362 . S
C16 C19 1.378 . S
C16 H31 0.912 1_455 S
C17 C16 1.362 . S
C17 C18 1.366 . S
C18 C15 1.365 . S
C18 C17 1.366 . S
C18 H32 0.930 . S
C19 C16 1.378 . S
C19 N20 1.315 . S
C19 H22 0.930 . S
N20 Co0 2.194 . S
N20 C15 1.328 . S
N20 C19 1.315 . S
H21 C15 0.929 . S
H22 C19 0.930 . S
H23 C11 0.929 . S
H24 C13 0.929 . S
O25 Co0 2.351 . S
O25 C28 1.244 . S
O26 Co0 2.155 . S
O26 C28 1.240 . S
O27 Co0 2.096 . S
O27 C8 1.247 . S
C28 O25 1.244 . S
C28 O26 1.240 . S
H29 C3 0.931 . S
H30 C12 0.931 . S
H31 C16 0.912 1_655 S
H32 C18 0.930 . S
Co33 N37 2.148 . S
Co33 N43 2.128 . S
Co33 N53 2.194 . S
Co33 O58 2.351 . S
Co33 O59 2.155 . S
Co33 O60 2.096 . S
C34 N37 1.301 . S
C34 N38 1.328 . S
C34 H39 0.930 . S
C35 C36 1.333 . S
C35 N37 1.317 . S
C35 H40 0.930 . S
C36 C35 1.333 . S
C36 N38 1.350 . S
C36 H62 0.931 . S
N37 Co33 2.148 . S
N37 C34 1.301 . S
N37 C35 1.317 . S
N38 C34 1.328 . S
N38 C36 1.350 . S
H39 C34 0.930 . S
H40 C35 0.930 . S
C41 O42 1.224 . S
C41 O60 1.247 . S
O42 C41 1.224 . S
N43 Co33 2.128 . S
N43 C44 1.355 . S
N43 C46 1.311 . S
C44 N43 1.355 . S
C44 C45 1.363 . S
C44 H56 0.929 . S
C45 C44 1.363 . S
C45 N47 1.375 . S
C45 H63 0.931 . S
C46 N43 1.311 . S
C46 N47 1.347 . S
C46 H57 0.929 . S
N47 C45 1.375 . S
N47 C46 1.347 . S
C48 C51 1.365 . S
C48 N53 1.328 . S
C48 H54 0.929 . S
C49 C50 1.362 . S
C49 C52 1.378 . S
C49 H64 0.929 . S
C50 C49 1.362 . S
C50 C51 1.366 . S
C51 C48 1.365 . S
C51 C50 1.366 . S
C51 H65 0.930 . S
C52 C49 1.378 . S
C52 N53 1.315 . S
C52 H55 0.930 . S
N53 Co33 2.194 . S
N53 C48 1.328 . S
N53 C52 1.315 . S
H54 C48 0.929 . S
H55 C52 0.930 . S
H56 C44 0.929 . S
H57 C46 0.929 . S
O58 Co33 2.351 . S
O58 C61 1.244 . S
O59 Co33 2.155 . S
O59 C61 1.240 . S
O60 Co33 2.096 . S
O60 C41 1.247 . S
C61 O58 1.244 . S
C61 O59 1.240 . S
H62 C36 0.931 . S
H63 C45 0.931 . S
H64 C49 0.929 . S
H65 C51 0.930 . S
Co66 N70 2.148 . S
Co66 N76 2.128 . S
Co66 N86 2.194 . S
Co66 O91 2.351 . S
Co66 O92 2.155 . S
Co66 O93 2.096 . S
C67 N70 1.301 1_554 S
C67 N71 1.328 . S
C67 H72 0.930 . S
C68 C69 1.333 1_556 S
C68 N70 1.317 . S
C68 H73 0.930 . S
C69 C68 1.333 1_554 S
C69 N71 1.350 . S
C69 H95 0.931 . S
N70 Co66 2.148 . S
N70 C67 1.301 1_556 S
N70 C68 1.317 . S
N71 C67 1.328 . S
N71 C69 1.350 . S
H72 C67 0.930 . S
H73 C68 0.930 . S
C74 O75 1.224 . S
C74 O93 1.247 . S
O75 C74 1.224 . S
N76 Co66 2.128 . S
N76 C77 1.355 . S
N76 C79 1.311 . S
C77 N76 1.355 . S
C77 C78 1.363 . S
C77 H89 0.929 . S
C78 C77 1.363 . S
C78 N80 1.375 . S
C78 H96 0.931 . S
C79 N76 1.311 . S
C79 N80 1.347 . S
C79 H90 0.929 . S
N80 C78 1.375 . S
N80 C79 1.347 . S
C81 C84 1.365 . S
C81 N86 1.328 . S
C81 H87 0.929 . S
C82 C83 1.362 . S
C82 C85 1.378 . S
C82 H97 0.929 . S
C83 C82 1.362 . S
C83 C84 1.366 . S
C84 C81 1.365 . S
C84 C83 1.366 . S
C84 H98 0.930 . S
C85 C82 1.378 . S
C85 N86 1.315 . S
C85 H88 0.930 . S
N86 Co66 2.194 . S
N86 C81 1.328 . S
N86 C85 1.315 . S
H87 C81 0.929 . S
H88 C85 0.930 . S
H89 C77 0.929 . S
H90 C79 0.929 . S
O91 Co66 2.351 . S
O91 C94 1.244 . S
O92 Co66 2.155 . S
O92 C94 1.240 . S
O93 Co66 2.096 . S
O93 C74 1.247 . S
C94 O91 1.244 . S
C94 O92 1.240 . S
H95 C69 0.931 . S
H96 C78 0.931 . S
H97 C82 0.929 . S
H98 C84 0.930 . S
Co99 N103 2.148 1_556 S
Co99 N109 2.128 . S
Co99 N119 2.194 1_556 S
Co99 O124 2.351 1_556 S
Co99 O125 2.155 1_556 S
Co99 O126 2.096 . S
C100 N103 1.301 . S
C100 N104 1.328 . S
C100 H105 0.930 . S
C101 C102 1.333 . S
C101 N103 1.317 . S
C101 H106 0.930 . S
C102 C101 1.333 . S
C102 N104 1.350 . S
C102 H128 0.931 . S
N103 Co99 2.148 1_554 S
N103 C100 1.301 . S
N103 C101 1.317 . S
N104 C100 1.328 . S
N104 C102 1.350 . S
H105 C100 0.930 . S
H106 C101 0.930 . S
C107 O108 1.224 . S
C107 O126 1.247 . S
O108 C107 1.224 . S
N109 Co99 2.128 . S
N109 C110 1.355 . S
N109 C112 1.311 . S
C110 N109 1.355 . S
C110 C111 1.363 . S
C110 H122 0.929 . S
C111 C110 1.363 . S
C111 N113 1.375 . S
C111 H129 0.931 . S
C112 N109 1.311 . S
C112 N113 1.347 . S
C112 H123 0.929 . S
N113 C111 1.375 . S
N113 C112 1.347 . S
C114 C117 1.365 . S
C114 N119 1.328 . S
C114 H120 0.929 . S
C115 C116 1.362 . S
C115 C118 1.377 1_554 S
C115 H130 0.929 1_554 S
C116 C115 1.362 . S
C116 C117 1.366 . S
C117 C114 1.365 . S
C117 C116 1.366 . S
C117 H131 0.930 . S
C118 C115 1.377 1_556 S
C118 N119 1.313 1_556 S
C118 H121 0.933 . S
N119 Co99 2.194 1_554 S
N119 C114 1.328 . S
N119 C118 1.313 1_554 S
H120 C114 0.929 . S
H121 C118 0.933 . S
H122 C110 0.929 . S
H123 C112 0.929 . S
O124 Co99 2.351 1_554 S
O124 C127 1.244 . S
O125 Co99 2.155 1_554 S
O125 C127 1.240 . S
O126 Co99 2.096 . S
O126 C107 1.247 . S
C127 O124 1.244 . S
C127 O125 1.240 . S
H128 C102 0.931 . S
H129 C111 0.931 . S
H130 C115 0.929 1_556 S
H131 C117 0.930 . S
Co132 N136 2.148 . S
Co132 N142 2.128 . S
Co132 N152 2.194 . S
Co132 O157 2.351 . S
Co132 O158 2.155 . S
Co132 O159 2.096 . S
C133 N136 1.301 . S
C133 N137 1.328 . S
C133 H138 0.930 . S
C134 C135 1.333 . S
C134 N136 1.317 . S
C134 H139 0.930 . S
C135 C134 1.333 . S
C135 N137 1.350 . S
C135 H161 0.931 . S
N136 Co132 2.148 . S
N136 C133 1.301 . S
N136 C134 1.317 . S
N137 C133 1.328 . S
N137 C135 1.350 . S
H138 C133 0.930 . S
H139 C134 0.930 . S
C140 O141 1.224 . S
C140 O159 1.247 . S
O141 C140 1.224 . S
N142 Co132 2.128 . S
N142 C143 1.355 . S
N142 C145 1.311 . S
C143 N142 1.355 . S
C143 C144 1.363 1_556 S
C143 H155 0.929 . S
C144 C143 1.363 1_554 S
C144 N146 1.375 . S
C144 H162 0.931 . S
C145 N142 1.311 . S
C145 N146 1.347 1_556 S
C145 H156 0.929 . S
N146 C144 1.375 . S
N146 C145 1.347 1_554 S
C147 C150 1.365 . S
C147 N152 1.328 . S
C147 H153 0.929 . S
C148 C149 1.362 . S
C148 C151 1.378 . S
C148 H163 0.912 1_455 S
C149 C148 1.362 . S
C149 C150 1.366 . S
C150 C147 1.365 . S
C150 C149 1.366 . S
C150 H164 0.930 . S
C151 C148 1.378 . S
C151 N152 1.315 . S
C151 H154 0.930 . S
N152 Co132 2.194 . S
N152 C147 1.328 . S
N152 C151 1.315 . S
H153 C147 0.929 . S
H154 C151 0.930 . S
H155 C143 0.929 . S
H156 C145 0.929 . S
O157 Co132 2.351 . S
O157 C160 1.244 . S
O158 Co132 2.155 . S
O158 C160 1.240 . S
O159 Co132 2.096 . S
O159 C140 1.247 . S
C160 O157 1.244 . S
C160 O158 1.240 . S
H161 C135 0.931 . S
H162 C144 0.931 . S
H163 C148 0.912 1_655 S
H164 C150 0.930 . S
Co165 N169 2.148 1_554 S
Co165 N175 2.128 . S
Co165 N185 2.194 1_554 S
Co165 O190 2.351 1_554 S
Co165 O191 2.155 1_554 S
Co165 O192 2.096 . S
C166 N169 1.301 . S
C166 N170 1.328 . S
C166 H171 0.930 . S
C167 C168 1.333 . S
C167 N169 1.317 . S
C167 H172 0.930 . S
C168 C167 1.333 . S
C168 N170 1.350 . S
C168 H194 0.931 . S
N169 Co165 2.148 1_556 S
N169 C166 1.301 . S
N169 C167 1.317 . S
N170 C166 1.328 . S
N170 C168 1.350 . S
H171 C166 0.930 . S
H172 C167 0.930 . S
C173 O174 1.224 . S
C173 O192 1.247 . S
O174 C173 1.224 . S
N175 Co165 2.128 . S
N175 C176 1.355 . S
N175 C178 1.311 . S
C176 N175 1.355 . S
C176 C177 1.363 . S
C176 H188 0.929 . S
C177 C176 1.363 . S
C177 N179 1.375 . S
C177 H195 0.931 . S
C178 N175 1.311 . S
C178 N179 1.347 . S
C178 H189 0.929 . S
N179 C177 1.375 . S
N179 C178 1.347 . S
C180 C183 1.365 . S
C180 N185 1.328 . S
C180 H186 0.929 . S
C181 C182 1.362 . S
C181 C184 1.377 1_556 S
C181 H196 0.929 1_556 S
C182 C181 1.362 . S
C182 C183 1.366 . S
C183 C180 1.365 . S
C183 C182 1.366 . S
C183 H197 0.930 . S
C184 C181 1.377 1_554 S
C184 N185 1.313 1_554 S
C184 H187 0.933 . S
N185 Co165 2.194 1_556 S
N185 C180 1.328 . S
N185 C184 1.313 1_556 S
H186 C180 0.929 . S
H187 C184 0.933 . S
H188 C176 0.929 . S
H189 C178 0.929 . S
O190 Co165 2.351 1_556 S
O190 C193 1.244 . S
O191 Co165 2.155 1_556 S
O191 C193 1.240 . S
O192 Co165 2.096 . S
O192 C173 1.247 . S
C193 O190 1.244 . S
C193 O191 1.240 . S
H194 C168 0.931 . S
H195 C177 0.931 . S
H196 C181 0.929 1_554 S
H197 C183 0.930 . S
Co198 N202 2.148 . S
Co198 N208 2.128 . S
Co198 N218 2.194 . S
Co198 O223 2.351 . S
Co198 O224 2.155 . S
Co198 O225 2.096 . S
C199 N202 1.301 1_556 S
C199 N203 1.328 . S
C199 H204 0.930 . S
C200 C201 1.333 1_554 S
C200 N202 1.317 . S
C200 H205 0.930 . S
C201 C200 1.333 1_556 S
C201 N203 1.350 . S
C201 H227 0.931 . S
N202 Co198 2.148 . S
N202 C199 1.301 1_554 S
N202 C200 1.317 . S
N203 C199 1.328 . S
N203 C201 1.350 . S
H204 C199 0.930 . S
H205 C200 0.930 . S
C206 O207 1.224 . S
C206 O225 1.247 . S
O207 C206 1.224 . S
N208 Co198 2.128 . S
N208 C209 1.355 . S
N208 C211 1.311 . S
C209 N208 1.355 . S
C209 C210 1.363 . S
C209 H221 0.929 . S
C210 C209 1.363 . S
C210 N212 1.375 . S
C210 H228 0.931 . S
C211 N208 1.311 . S
C211 N212 1.347 . S
C211 H222 0.929 . S
N212 C210 1.375 . S
N212 C211 1.347 . S
C213 C216 1.365 . S
C213 N218 1.328 . S
C213 H219 0.929 . S
C214 C215 1.362 . S
C214 C217 1.378 . S
C214 H229 0.929 . S
C215 C214 1.362 . S
C215 C216 1.366 . S
C216 C213 1.365 . S
C216 C215 1.366 . S
C216 H230 0.930 . S
C217 C214 1.378 . S
C217 N218 1.315 . S
C217 H220 0.930 . S
N218 Co198 2.194 . S
N218 C213 1.328 . S
N218 C217 1.315 . S
H219 C213 0.929 . S
H220 C217 0.930 . S
H221 C209 0.929 . S
H222 C211 0.929 . S
O223 Co198 2.351 . S
O223 C226 1.244 . S
O224 Co198 2.155 . S
O224 C226 1.240 . S
O225 Co198 2.096 . S
O225 C206 1.247 . S
C226 O223 1.244 . S
C226 O224 1.240 . S
H227 C201 0.931 . S
H228 C210 0.931 . S
H229 C214 0.929 . S
H230 C216 0.930 . S
Co231 N235 2.148 . S
Co231 N241 2.128 . S
Co231 N251 2.194 . S
Co231 O256 2.351 . S
Co231 O257 2.155 . S
Co231 O258 2.096 . S
C232 N235 1.301 . S
C232 N236 1.328 . S
C232 H237 0.930 . S
C233 C234 1.333 . S
C233 N235 1.317 . S
C233 H238 0.930 . S
C234 C233 1.333 . S
C234 N236 1.350 . S
C234 H260 0.931 . S
N235 Co231 2.148 . S
N235 C232 1.301 . S
N235 C233 1.317 . S
N236 C232 1.328 . S
N236 C234 1.350 . S
H237 C232 0.930 . S
H238 C233 0.930 . S
C239 O240 1.224 . S
C239 O258 1.247 . S
O240 C239 1.224 . S
N241 Co231 2.128 . S
N241 C242 1.355 . S
N241 C244 1.311 . S
C242 N241 1.355 . S
C242 C243 1.363 . S
C242 H254 0.929 . S
C243 C242 1.363 . S
C243 N245 1.375 . S
C243 H261 0.931 . S
C244 N241 1.311 . S
C244 N245 1.347 . S
C244 H255 0.929 . S
N245 C243 1.375 . S
N245 C244 1.347 . S
C246 C249 1.365 . S
C246 N251 1.328 . S
C246 H252 0.929 . S
C247 C248 1.362 . S
C247 C250 1.378 . S
C247 H262 0.929 . S
C248 C247 1.362 . S
C248 C249 1.366 . S
C249 C246 1.365 . S
C249 C248 1.366 . S
C249 H263 0.930 . S
C250 C247 1.378 . S
C250 N251 1.315 . S
C250 H253 0.930 . S
N251 Co231 2.194 . S
N251 C246 1.328 . S
N251 C250 1.315 . S
H252 C246 0.929 . S
H253 C250 0.930 . S
H254 C242 0.929 . S
H255 C244 0.929 . S
O256 Co231 2.351 . S
O256 C259 1.244 . S
O257 Co231 2.155 . S
O257 C259 1.240 . S
O258 Co231 2.096 . S
O258 C239 1.247 . S
C259 O256 1.244 . S
C259 O257 1.240 . S
H260 C234 0.931 . S
H261 C243 0.931 . S
H262 C247 0.929 . S
H263 C249 0.930 . S
Co264 N268 2.148 . S
Co264 N274 2.128 . S
Co264 N284 2.194 . S
Co264 O289 2.351 . S
Co264 O290 2.155 . S
Co264 O291 2.096 . S
C265 N268 1.301 . S
C265 N269 1.328 . S
C265 H270 0.930 . S
C266 C267 1.333 . S
C266 N268 1.317 . S
C266 H271 0.930 . S
C267 C266 1.333 . S
C267 N269 1.350 . S
C267 H293 0.931 . S
N268 Co264 2.148 . S
N268 C265 1.301 . S
N268 C266 1.317 . S
N269 C265 1.328 . S
N269 C267 1.350 . S
H270 C265 0.930 . S
H271 C266 0.930 . S
C272 O273 1.224 . S
C272 O291 1.247 . S
O273 C272 1.224 . S
N274 Co264 2.128 . S
N274 C275 1.355 . S
N274 C277 1.311 . S
C275 N274 1.355 . S
C275 C276 1.363 . S
C275 H287 0.929 . S
C276 C275 1.363 . S
C276 N278 1.375 . S
C276 H294 0.931 . S
C277 N274 1.311 . S
C277 N278 1.347 . S
C277 H288 0.929 . S
N278 C276 1.375 . S
N278 C277 1.347 . S
C279 C282 1.365 . S
C279 N284 1.328 . S
C279 H285 0.929 . S
C280 C281 1.362 . S
C280 C283 1.378 . S
C280 H295 0.929 . S
C281 C280 1.362 . S
C281 C282 1.366 . S
C282 C279 1.365 . S
C282 C281 1.366 . S
C282 H296 0.930 . S
C283 C280 1.378 . S
C283 N284 1.315 . S
C283 H286 0.930 . S
N284 Co264 2.194 . S
N284 C279 1.328 . S
N284 C283 1.315 . S
H285 C279 0.929 . S
H286 C283 0.930 . S
H287 C275 0.929 . S
H288 C277 0.929 . S
O289 Co264 2.351 . S
O289 C292 1.244 . S
O290 Co264 2.155 . S
O290 C292 1.240 . S
O291 Co264 2.096 . S
O291 C272 1.247 . S
C292 O289 1.244 . S
C292 O290 1.240 . S
H293 C267 0.931 . S
H294 C276 0.931 . S
H295 C280 0.929 . S
H296 C282 0.930 . S
Co297 N301 2.148 1_554 S
Co297 N307 2.128 . S
Co297 N317 2.194 1_554 S
Co297 O322 2.351 1_554 S
Co297 O323 2.155 1_554 S
Co297 O324 2.096 . S
C298 N301 1.301 . S
C298 N302 1.328 . S
C298 H303 0.930 . S
C299 C300 1.333 . S
C299 N301 1.317 . S
C299 H304 0.930 . S
C300 C299 1.333 . S
C300 N302 1.350 . S
C300 H326 0.931 . S
N301 Co297 2.148 1_556 S
N301 C298 1.301 . S
N301 C299 1.317 . S
N302 C298 1.328 . S
N302 C300 1.350 . S
H303 C298 0.930 . S
H304 C299 0.930 . S
C305 O306 1.224 . S
C305 O324 1.247 . S
O306 C305 1.224 . S
N307 Co297 2.128 . S
N307 C308 1.355 . S
N307 C310 1.311 . S
C308 N307 1.355 . S
C308 C309 1.363 . S
C308 H320 0.929 . S
C309 C308 1.363 . S
C309 N311 1.375 . S
C309 H327 0.931 . S
C310 N307 1.311 . S
C310 N311 1.347 . S
C310 H321 0.929 . S
N311 C309 1.375 . S
N311 C310 1.347 . S
C312 C315 1.365 . S
C312 N317 1.328 . S
C312 H318 0.929 . S
C313 C314 1.362 . S
C313 C316 1.377 1_556 S
C313 H328 0.929 1_556 S
C314 C313 1.362 . S
C314 C315 1.366 . S
C315 C312 1.365 . S
C315 C314 1.366 . S
C315 H329 0.930 . S
C316 C313 1.377 1_554 S
C316 N317 1.313 1_554 S
C316 H319 0.933 . S
N317 Co297 2.194 1_556 S
N317 C312 1.328 . S
N317 C316 1.313 1_556 S
H318 C312 0.929 . S
H319 C316 0.933 . S
H320 C308 0.929 . S
H321 C310 0.929 . S
O322 Co297 2.351 1_556 S
O322 C325 1.244 . S
O323 Co297 2.155 1_556 S
O323 C325 1.240 . S
O324 Co297 2.096 . S
O324 C305 1.247 . S
C325 O322 1.244 . S
C325 O323 1.240 . S
H326 C300 0.931 . S
H327 C309 0.931 . S
H328 C313 0.929 1_554 S
H329 C315 0.930 . S
Co330 N334 2.148 1_556 S
Co330 N340 2.128 . S
Co330 N350 2.194 1_556 S
Co330 O355 2.351 1_556 S
Co330 O356 2.155 1_556 S
Co330 O357 2.096 . S
C331 N334 1.301 . S
C331 N335 1.328 . S
C331 H336 0.930 . S
C332 C333 1.333 . S
C332 N334 1.317 . S
C332 H337 0.930 . S
C333 C332 1.333 . S
C333 N335 1.350 . S
C333 H359 0.931 . S
N334 Co330 2.148 1_554 S
N334 C331 1.301 . S
N334 C332 1.317 . S
N335 C331 1.328 . S
N335 C333 1.350 . S
H336 C331 0.930 . S
H337 C332 0.930 . S
C338 O339 1.224 . S
C338 O357 1.247 . S
O339 C338 1.224 . S
N340 Co330 2.128 . S
N340 C341 1.355 . S
N340 C343 1.311 . S
C341 N340 1.355 . S
C341 C342 1.363 . S
C341 H353 0.929 . S
C342 C341 1.363 . S
C342 N344 1.375 . S
C342 H360 0.931 . S
C343 N340 1.311 . S
C343 N344 1.347 . S
C343 H354 0.929 . S
N344 C342 1.375 . S
N344 C343 1.347 . S
C345 C348 1.365 . S
C345 N350 1.328 . S
C345 H351 0.929 . S
C346 C347 1.362 . S
C346 C349 1.377 1_554 S
C346 H361 0.929 1_554 S
C347 C346 1.362 . S
C347 C348 1.366 . S
C348 C345 1.365 . S
C348 C347 1.366 . S
C348 H362 0.930 . S
C349 C346 1.377 1_556 S
C349 N350 1.313 1_556 S
C349 H352 0.933 . S
N350 Co330 2.194 1_554 S
N350 C345 1.328 . S
N350 C349 1.313 1_554 S
H351 C345 0.929 . S
H352 C349 0.933 . S
H353 C341 0.929 . S
H354 C343 0.929 . S
O355 Co330 2.351 1_554 S
O355 C358 1.244 . S
O356 Co330 2.155 1_554 S
O356 C358 1.240 . S
O357 Co330 2.096 . S
O357 C338 1.247 . S
C358 O355 1.244 . S
C358 O356 1.240 . S
H359 C333 0.931 . S
H360 C342 0.931 . S
H361 C346 0.929 1_556 S
H362 C348 0.930 . S
Co363 N367 2.148 . S
Co363 N373 2.128 . S
Co363 N383 2.194 . S
Co363 O388 2.351 . S
Co363 O389 2.155 . S
Co363 O390 2.096 . S
C364 N367 1.301 . S
C364 N368 1.328 . S
C364 H369 0.930 . S
C365 C366 1.333 . S
C365 N367 1.317 . S
C365 H370 0.930 . S
C366 C365 1.333 . S
C366 N368 1.350 . S
C366 H392 0.931 . S
N367 Co363 2.148 . S
N367 C364 1.301 . S
N367 C365 1.317 . S
N368 C364 1.328 . S
N368 C366 1.350 . S
H369 C364 0.930 . S
H370 C365 0.930 . S
C371 O372 1.224 . S
C371 O390 1.247 . S
O372 C371 1.224 . S
N373 Co363 2.128 . S
N373 C374 1.355 . S
N373 C376 1.311 . S
C374 N373 1.355 . S
C374 C375 1.363 . S
C374 H386 0.929 . S
C375 C374 1.363 . S
C375 N377 1.375 . S
C375 H393 0.931 . S
C376 N373 1.311 . S
C376 N377 1.347 . S
C376 H387 0.929 . S
N377 C375 1.375 . S
N377 C376 1.347 . S
C378 C381 1.365 . S
C378 N383 1.328 . S
C378 H384 0.929 . S
C379 C380 1.362 . S
C379 C382 1.378 . S
C379 H394 0.929 . S
C380 C379 1.362 . S
C380 C381 1.366 . S
C381 C378 1.365 . S
C381 C380 1.366 . S
C381 H395 0.930 . S
C382 C379 1.378 . S
C382 N383 1.315 . S
C382 H385 0.930 . S
N383 Co363 2.194 . S
N383 C378 1.328 . S
N383 C382 1.315 . S
H384 C378 0.929 . S
H385 C382 0.930 . S
H386 C374 0.929 . S
H387 C376 0.929 . S
O388 Co363 2.351 . S
O388 C391 1.244 . S
O389 Co363 2.155 . S
O389 C391 1.240 . S
O390 Co363 2.096 . S
O390 C371 1.247 . S
C391 O388 1.244 . S
C391 O389 1.240 . S
H392 C366 0.931 . S
H393 C375 0.931 . S
H394 C379 0.929 . S
H395 C381 0.930 . S
Co396 N400 2.148 . S
Co396 N406 2.128 . S
Co396 N416 2.194 . S
Co396 O421 2.351 . S
Co396 O422 2.155 . S
Co396 O423 2.096 . S
C397 N400 1.301 1_554 S
C397 N401 1.328 . S
C397 H402 0.930 . S
C398 C399 1.333 1_556 S
C398 N400 1.317 . S
C398 H403 0.930 . S
C399 C398 1.333 1_554 S
C399 N401 1.350 . S
C399 H425 0.931 . S
N400 Co396 2.148 . S
N400 C397 1.301 1_556 S
N400 C398 1.317 . S
N401 C397 1.328 . S
N401 C399 1.350 . S
H402 C397 0.930 . S
H403 C398 0.930 . S
C404 O405 1.224 . S
C404 O423 1.247 . S
O405 C404 1.224 . S
N406 Co396 2.128 . S
N406 C407 1.355 . S
N406 C409 1.311 . S
C407 N406 1.355 . S
C407 C408 1.363 . S
C407 H419 0.929 . S
C408 C407 1.363 . S
C408 N410 1.375 . S
C408 H426 0.931 . S
C409 N406 1.311 . S
C409 N410 1.347 . S
C409 H420 0.929 . S
N410 C408 1.375 . S
N410 C409 1.347 . S
C411 C414 1.365 . S
C411 N416 1.328 . S
C411 H417 0.929 . S
C412 C413 1.362 . S
C412 C415 1.378 . S
C412 H427 0.929 . S
C413 C412 1.362 . S
C413 C414 1.366 . S
C414 C411 1.365 . S
C414 C413 1.366 . S
C414 H428 0.930 . S
C415 C412 1.378 . S
C415 N416 1.315 . S
C415 H418 0.930 . S
N416 Co396 2.194 . S
N416 C411 1.328 . S
N416 C415 1.315 . S
H417 C411 0.929 . S
H418 C415 0.930 . S
H419 C407 0.929 . S
H420 C409 0.929 . S
O421 Co396 2.351 . S
O421 C424 1.244 . S
O422 Co396 2.155 . S
O422 C424 1.240 . S
O423 Co396 2.096 . S
O423 C404 1.247 . S
C424 O421 1.244 . S
C424 O422 1.240 . S
H425 C399 0.931 . S
H426 C408 0.931 . S
H427 C412 0.929 . S
H428 C414 0.930 . S
Co429 N433 2.148 . S
Co429 N439 2.128 . S
Co429 N449 2.194 . S
Co429 O454 2.351 . S
Co429 O455 2.155 1_455 S
Co429 O456 2.096 . S
C430 N433 1.301 . S
C430 N434 1.328 . S
C430 H435 0.930 . S
C431 C432 1.333 . S
C431 N433 1.317 . S
C431 H436 0.930 . S
C432 C431 1.333 . S
C432 N434 1.350 . S
C432 H458 0.931 . S
N433 Co429 2.148 . S
N433 C430 1.301 . S
N433 C431 1.317 . S
N434 C430 1.328 . S
N434 C432 1.350 . S
H435 C430 0.930 . S
H436 C431 0.930 . S
C437 O438 1.224 . S
C437 O456 1.247 . S
O438 C437 1.224 . S
N439 Co429 2.128 . S
N439 C440 1.355 . S
N439 C442 1.311 . S
C440 N439 1.355 . S
C440 C441 1.363 1_554 S
C440 H452 0.929 . S
C441 C440 1.363 1_556 S
C441 N443 1.375 . S
C441 H459 0.931 . S
C442 N439 1.311 . S
C442 N443 1.347 1_554 S
C442 H453 0.929 . S
N443 C441 1.375 . S
N443 C442 1.347 1_556 S
C444 C447 1.365 . S
C444 N449 1.328 . S
C444 H450 0.929 . S
C445 C446 1.362 . S
C445 C448 1.378 . S
C445 H460 0.929 . S
C446 C445 1.362 . S
C446 C447 1.366 . S
C447 C444 1.365 . S
C447 C446 1.366 . S
C447 H461 0.930 . S
C448 C445 1.378 . S
C448 N449 1.315 . S
C448 H451 0.930 . S
N449 Co429 2.194 . S
N449 C444 1.328 . S
N449 C448 1.315 . S
H450 C444 0.929 . S
H451 C448 0.930 . S
H452 C440 0.929 . S
H453 C442 0.929 . S
O454 Co429 2.351 . S
O454 C457 1.244 1_455 S
O455 Co429 2.155 1_655 S
O455 C457 1.240 . S
O456 Co429 2.096 . S
O456 C437 1.247 . S
C457 O454 1.244 1_655 S
C457 O455 1.240 . S
H458 C432 0.931 . S
H459 C441 0.931 . S
H460 C445 0.929 . S
H461 C447 0.930 . S
Co462 N466 2.148 . S
Co462 N472 2.128 . S
Co462 N482 2.194 . S
Co462 O487 2.351 . S
Co462 O488 2.155 . S
Co462 O489 2.096 . S
C463 N466 1.301 1_556 S
C463 N467 1.328 . S
C463 H468 0.930 . S
C464 C465 1.333 1_554 S
C464 N466 1.317 . S
C464 H469 0.930 . S
C465 C464 1.333 1_556 S
C465 N467 1.350 . S
C465 H491 0.931 . S
N466 Co462 2.148 . S
N466 C463 1.301 1_554 S
N466 C464 1.317 . S
N467 C463 1.328 . S
N467 C465 1.350 . S
H468 C463 0.930 . S
H469 C464 0.930 . S
C470 O471 1.224 . S
C470 O489 1.247 . S
O471 C470 1.224 . S
N472 Co462 2.128 . S
N472 C473 1.355 . S
N472 C475 1.311 . S
C473 N472 1.355 . S
C473 C474 1.363 . S
C473 H485 0.929 . S
C474 C473 1.363 . S
C474 N476 1.375 . S
C474 H492 0.931 . S
C475 N472 1.311 . S
C475 N476 1.347 . S
C475 H486 0.929 . S
N476 C474 1.375 . S
N476 C475 1.347 . S
C477 C480 1.365 . S
C477 N482 1.328 . S
C477 H483 0.929 . S
C478 C479 1.362 . S
C478 C481 1.378 . S
C478 H493 0.929 . S
C479 C478 1.362 . S
C479 C480 1.366 . S
C480 C477 1.365 . S
C480 C479 1.366 . S
C480 H494 0.930 . S
C481 C478 1.378 . S
C481 N482 1.315 . S
C481 H484 0.930 . S
N482 Co462 2.194 . S
N482 C477 1.328 . S
N482 C481 1.315 . S
H483 C477 0.929 . S
H484 C481 0.930 . S
H485 C473 0.929 . S
H486 C475 0.929 . S
O487 Co462 2.351 . S
O487 C490 1.244 . S
O488 Co462 2.155 . S
O488 C490 1.240 . S
O489 Co462 2.096 . S
O489 C470 1.247 . S
C490 O487 1.244 . S
C490 O488 1.240 . S
H491 C465 0.931 . S
H492 C474 0.931 . S
H493 C478 0.929 . S
H494 C480 0.930 . S
Co495 N499 2.148 . S
Co495 N505 2.128 . S
Co495 N515 2.194 . S
Co495 O520 2.351 . S
Co495 O521 2.155 1_455 S
Co495 O522 2.096 . S
C496 N499 1.301 . S
C496 N500 1.328 . S
C496 H501 0.930 . S
C497 C498 1.333 . S
C497 N499 1.317 . S
C497 H502 0.930 . S
C498 C497 1.333 . S
C498 N500 1.350 . S
C498 H524 0.931 . S
N499 Co495 2.148 . S
N499 C496 1.301 . S
N499 C497 1.317 . S
N500 C496 1.328 . S
N500 C498 1.350 . S
H501 C496 0.930 . S
H502 C497 0.930 . S
C503 O504 1.224 . S
C503 O522 1.247 . S
O504 C503 1.224 . S
N505 Co495 2.128 . S
N505 C506 1.355 . S
N505 C508 1.311 . S
C506 N505 1.355 . S
C506 C507 1.363 1_556 S
C506 H518 0.929 . S
C507 C506 1.363 1_554 S
C507 N509 1.375 . S
C507 H525 0.931 . S
C508 N505 1.311 . S
C508 N509 1.347 1_556 S
C508 H519 0.929 . S
N509 C507 1.375 . S
N509 C508 1.347 1_554 S
C510 C513 1.365 . S
C510 N515 1.328 . S
C510 H516 0.929 . S
C511 C512 1.362 . S
C511 C514 1.378 . S
C511 H526 0.929 . S
C512 C511 1.362 . S
C512 C513 1.366 . S
C513 C510 1.365 . S
C513 C512 1.366 . S
C513 H527 0.930 . S
C514 C511 1.378 . S
C514 N515 1.315 . S
C514 H517 0.930 . S
N515 Co495 2.194 . S
N515 C510 1.328 . S
N515 C514 1.315 . S
H516 C510 0.929 . S
H517 C514 0.930 . S
H518 C506 0.929 . S
H519 C508 0.929 . S
O520 Co495 2.351 . S
O520 C523 1.244 1_455 S
O521 Co495 2.155 1_655 S
O521 C523 1.240 . S
O522 Co495 2.096 . S
O522 C503 1.247 . S
C523 O520 1.244 1_655 S
C523 O521 1.240 . S
H524 C498 0.931 . S
H525 C507 0.931 . S
H526 C511 0.929 . S
H527 C513 0.930 . S
C528 C529 1.369 . S
C528 C530 1.419 . S
C528 H532 0.930 . S
C529 C528 1.369 . S
C529 C538 1.429 . S
C530 C528 1.419 . S
C530 C531 1.363 . S
C530 H533 0.929 . S
C531 C530 1.363 . S
C531 C537 1.428 . S
H532 C528 0.930 . S
H533 C530 0.929 . S
S534 N535 1.613 . S
S534 N536 1.610 . S
N535 S534 1.613 . S
N535 C538 1.350 . S
N536 S534 1.610 . S
N536 C537 1.351 . S
C537 C531 1.428 . S
C537 N536 1.351 . S
C537 C538 1.434 . S
C538 C529 1.429 . S
C538 N535 1.350 . S
C538 C537 1.434 . S
C539 C540 1.369 . S
C539 C541 1.419 . S
C539 H543 0.930 . S
C540 C539 1.369 . S
C540 C549 1.429 . S
C541 C539 1.419 . S
C541 C542 1.363 . S
C541 H544 0.929 . S
C542 C541 1.363 . S
C542 C548 1.428 . S
H543 C539 0.930 . S
H544 C541 0.929 . S
S545 N546 1.613 . S
S545 N547 1.610 . S
N546 S545 1.613 . S
N546 C549 1.350 . S
N547 S545 1.610 . S
N547 C548 1.351 . S
C548 C542 1.428 . S
C548 N547 1.351 . S
C548 C549 1.434 . S
C549 C540 1.429 . S
C549 N546 1.350 . S
C549 C548 1.434 . S
C550 C551 1.369 . S
C550 C552 1.419 . S
C550 H554 0.930 . S
C551 C550 1.369 . S
C551 C560 1.429 . S
C552 C550 1.419 . S
C552 C553 1.363 . S
C552 H555 0.929 . S
C553 C552 1.363 . S
C553 C559 1.428 . S
H554 C550 0.930 . S
H555 C552 0.929 . S
S556 N557 1.613 1_554 S
S556 N558 1.610 . S
N557 S556 1.613 1_556 S
N557 C560 1.350 . S
N558 S556 1.610 . S
N558 C559 1.351 1_554 S
C559 C553 1.428 . S
C559 N558 1.351 1_556 S
C559 C560 1.434 . S
C560 C551 1.429 . S
C560 N557 1.350 . S
C560 C559 1.434 . S
C561 C562 1.369 . S
C561 C563 1.419 . S
C561 H565 0.930 . S
C562 C561 1.369 . S
C562 C571 1.429 . S
C563 C561 1.419 . S
C563 C564 1.363 . S
C563 H566 0.929 . S
C564 C563 1.363 . S
C564 C570 1.428 . S
H565 C561 0.930 . S
H566 C563 0.929 . S
S567 N568 1.613 . S
S567 N569 1.610 . S
N568 S567 1.613 . S
N568 C571 1.350 . S
N569 S567 1.610 . S
N569 C570 1.351 . S
C570 C564 1.428 . S
C570 N569 1.351 . S
C570 C571 1.434 . S
C571 C562 1.429 . S
C571 N568 1.350 . S
C571 C570 1.434 . S
C572 C573 1.369 . S
C572 C574 1.419 . S
C572 H576 0.930 . S
C573 C572 1.369 . S
C573 C582 1.429 . S
C574 C572 1.419 . S
C574 C575 1.363 . S
C574 H577 0.929 . S
C575 C574 1.363 . S
C575 C581 1.428 . S
H576 C572 0.930 . S
H577 C574 0.929 . S
S578 N579 1.613 . S
S578 N580 1.610 . S
N579 S578 1.613 . S
N579 C582 1.350 . S
N580 S578 1.610 . S
N580 C581 1.351 . S
C581 C575 1.428 . S
C581 N580 1.351 . S
C581 C582 1.434 . S
C582 C573 1.429 . S
C582 N579 1.350 . S
C582 C581 1.434 . S
C583 C584 1.369 . S
C583 C585 1.419 . S
C583 H587 0.930 . S
C584 C583 1.369 . S
C584 C593 1.429 . S
C585 C583 1.419 . S
C585 C586 1.363 . S
C585 H588 0.929 . S
C586 C585 1.363 . S
C586 C592 1.428 . S
H587 C583 0.930 . S
H588 C585 0.929 . S
S589 N590 1.613 . S
S589 N591 1.610 . S
N590 S589 1.613 . S
N590 C593 1.350 . S
N591 S589 1.610 . S
N591 C592 1.351 . S
C592 C586 1.428 . S
C592 N591 1.351 . S
C592 C593 1.434 . S
C593 C584 1.429 . S
C593 N590 1.350 . S
C593 C592 1.434 . S
C594 C595 1.369 . S
C594 C596 1.419 . S
C594 H598 0.930 . S
C595 C594 1.369 . S
C595 C604 1.429 . S
C596 C594 1.419 . S
C596 C597 1.363 . S
C596 H599 0.929 . S
C597 C596 1.363 . S
C597 C603 1.428 . S
H598 C594 0.930 . S
H599 C596 0.929 . S
S600 N601 1.613 . S
S600 N602 1.610 . S
N601 S600 1.613 . S
N601 C604 1.350 . S
N602 S600 1.610 . S
N602 C603 1.351 . S
C603 C597 1.428 . S
C603 N602 1.351 . S
C603 C604 1.434 . S
C604 C595 1.429 . S
C604 N601 1.350 . S
C604 C603 1.434 . S
C605 C606 1.369 . S
C605 C607 1.419 . S
C605 H609 0.930 . S
C606 C605 1.369 . S
C606 C615 1.429 . S
C607 C605 1.419 . S
C607 C608 1.363 . S
C607 H610 0.929 . S
C608 C607 1.363 . S
C608 C614 1.428 . S
H609 C605 0.930 . S
H610 C607 0.929 . S
S611 N612 1.613 . S
S611 N613 1.610 . S
N612 S611 1.613 . S
N612 C615 1.350 . S
N613 S611 1.610 . S
N613 C614 1.351 . S
C614 C608 1.428 . S
C614 N613 1.351 . S
C614 C615 1.434 . S
C615 C606 1.429 . S
C615 N612 1.350 . S
C615 C614 1.434 . S
C616 C617 1.369 . S
C616 C618 1.419 . S
C616 H620 0.930 . S
C617 C616 1.369 . S
C617 C626 1.429 . S
C618 C616 1.419 . S
C618 C619 1.363 . S
C618 H621 0.929 . S
C619 C618 1.363 . S
C619 C625 1.428 . S
H620 C616 0.930 . S
H621 C618 0.929 . S
S622 N623 1.613 . S
S622 N624 1.610 . S
N623 S622 1.613 . S
N623 C626 1.350 1_554 S
N624 S622 1.610 . S
N624 C625 1.351 1_554 S
C625 C619 1.428 . S
C625 N624 1.351 1_556 S
C625 C626 1.434 . S
C626 C617 1.429 . S
C626 N623 1.350 1_556 S
C626 C625 1.434 . S
C627 C628 1.369 . S
C627 C629 1.419 . S
C627 H631 0.930 . S
C628 C627 1.369 . S
C628 C637 1.429 . S
C629 C627 1.419 . S
C629 C630 1.363 . S
C629 H632 0.929 . S
C630 C629 1.363 . S
C630 C636 1.428 . S
H631 C627 0.930 . S
H632 C629 0.929 . S
S633 N634 1.613 . S
S633 N635 1.610 . S
N634 S633 1.613 . S
N634 C637 1.350 . S
N635 S633 1.610 . S
N635 C636 1.351 . S
C636 C630 1.428 . S
C636 N635 1.351 . S
C636 C637 1.434 . S
C637 C628 1.429 . S
C637 N634 1.350 . S
C637 C636 1.434 . S
C638 C639 1.369 . S
C638 C640 1.419 . S
C638 H642 0.930 . S
C639 C638 1.369 . S
C639 C648 1.429 . S
C640 C638 1.419 . S
C640 C641 1.363 . S
C640 H643 0.929 . S
C641 C640 1.363 . S
C641 C647 1.428 . S
H642 C638 0.930 . S
H643 C640 0.929 . S
S644 N645 1.617 . S
S644 N646 1.610 . S
N645 S644 1.617 . S
N645 C648 1.374 . S
N646 S644 1.610 . S
N646 C647 1.351 . S
C647 C641 1.428 . S
C647 N646 1.351 . S
C647 C648 1.434 . S
C648 C639 1.429 . S
C648 N645 1.374 . S
C648 C647 1.434 . S
C649 C650 1.369 . S
C649 C651 1.419 . S
C649 H653 0.930 . S
C650 C649 1.369 . S
C650 C659 1.429 . S
C651 C649 1.419 . S
C651 C652 1.363 . S
C651 H654 0.929 . S
C652 C651 1.363 . S
C652 C658 1.428 . S
H653 C649 0.930 . S
H654 C651 0.929 . S
S655 N656 1.613 . S
S655 N657 1.610 . S
N656 S655 1.613 . S
N656 C659 1.350 . S
N657 S655 1.610 . S
N657 C658 1.351 . S
C658 C652 1.428 . S
C658 N657 1.351 . S
C658 C659 1.434 . S
C659 C650 1.429 . S
C659 N656 1.350 . S
C659 C658 1.434 . S
C660 C661 1.369 . S
C660 C662 1.419 . S
C660 H664 0.930 . S
C661 C660 1.369 . S
C661 C670 1.429 . S
C662 C660 1.419 . S
C662 C663 1.363 . S
C662 H665 0.929 . S
C663 C662 1.363 . S
C663 C669 1.428 . S
H664 C660 0.930 . S
H665 C662 0.929 . S
S666 N667 1.613 . S
S666 N668 1.610 . S
N667 S666 1.613 . S
N667 C670 1.350 1_556 S
N668 S666 1.610 . S
N668 C669 1.351 1_556 S
C669 C663 1.428 . S
C669 N668 1.351 1_554 S
C669 C670 1.434 . S
C670 C661 1.429 . S
C670 N667 1.350 1_554 S
C670 C669 1.434 . S
C671 C672 1.369 . S
C671 C673 1.419 . S
C671 H675 0.930 . S
C672 C671 1.369 . S
C672 C681 1.429 . S
C673 C671 1.419 . S
C673 C674 1.363 . S
C673 H676 0.929 . S
C674 C673 1.363 . S
C674 C680 1.428 . S
H675 C671 0.930 . S
H676 C673 0.929 . S
S677 N678 1.613 . S
S677 N679 1.610 . S
N678 S677 1.613 . S
N678 C681 1.350 1_554 S
N679 S677 1.610 . S
N679 C680 1.351 1_554 S
C680 C674 1.428 . S
C680 N679 1.351 1_556 S
C680 C681 1.434 . S
C681 C672 1.429 . S
C681 N678 1.350 1_556 S
C681 C680 1.434 . S
C682 C683 1.369 . S
C682 C684 1.419 . S
C682 H686 0.930 . S
C683 C682 1.369 . S
C683 C692 1.429 . S
C684 C682 1.419 . S
C684 C685 1.363 . S
C684 H687 0.929 . S
C685 C684 1.363 . S
C685 C691 1.428 . S
H686 C682 0.930 . S
H687 C684 0.929 . S
S688 N689 1.613 . S
S688 N690 1.610 . S
N689 S688 1.613 . S
N689 C692 1.350 . S
N690 S688 1.610 . S
N690 C691 1.351 . S
C691 C685 1.428 . S
C691 N690 1.351 . S
C691 C692 1.434 . S
C692 C683 1.429 . S
C692 N689 1.350 . S
C692 C691 1.434 . S
C693 C694 1.369 . S
C693 C695 1.419 . S
C693 H697 0.930 . S
C694 C693 1.369 . S
C694 C703 1.429 . S
C695 C693 1.419 . S
C695 C696 1.363 . S
C695 H698 0.929 . S
C696 C695 1.363 . S
C696 C702 1.428 . S
H697 C693 0.930 . S
H698 C695 0.929 . S
S699 N700 1.613 . S
S699 N701 1.610 . S
N700 S699 1.613 . S
N700 C703 1.350 . S
N701 S699 1.610 . S
N701 C702 1.351 . S
C702 C696 1.428 . S
C702 N701 1.351 . S
C702 C703 1.434 . S
C703 C694 1.429 . S
C703 N700 1.350 . S
C703 C702 1.434 . S
C704 C705 1.369 1_565 S
C704 C706 1.419 1_554 S
C704 H708 0.930 . S
C705 C704 1.369 1_545 S
C705 C714 1.429 . S
C706 C704 1.419 1_556 S
C706 C707 1.363 . S
C706 H709 0.929 . S
C707 C706 1.363 . S
C707 C713 1.428 1_565 S
H708 C704 0.930 . S
H709 C706 0.929 . S
S710 N711 1.613 1_556 S
S710 N712 1.610 . S
N711 S710 1.613 1_554 S
N711 C714 1.350 . S
N712 S710 1.610 . S
N712 C713 1.351 . S
C713 C707 1.428 1_545 S
C713 N712 1.351 . S
C713 C714 1.434 1_556 S
C714 C705 1.429 . S
C714 N711 1.350 . S
C714 C713 1.434 1_554 S
C715 C716 1.369 . S
C715 C717 1.419 . S
C715 H719 0.930 . S
C716 C715 1.369 . S
C716 C725 1.429 . S
C717 C715 1.419 . S
C717 C718 1.363 . S
C717 H720 0.929 . S
C718 C717 1.363 . S
C718 C724 1.428 . S
H719 C715 0.930 . S
H720 C717 0.929 . S
S721 N722 1.613 . S
S721 N723 1.610 . S
N722 S721 1.613 . S
N722 C725 1.350 . S
N723 S721 1.610 . S
N723 C724 1.351 . S
C724 C718 1.428 . S
C724 N723 1.351 . S
C724 C725 1.434 . S
C725 C716 1.429 . S
C725 N722 1.350 . S
C725 C724 1.434 . S
C726 C727 1.369 . S
C726 C728 1.419 . S
C726 H730 0.930 . S
C727 C726 1.369 . S
C727 C736 1.429 1_545 S
C728 C726 1.419 . S
C728 C729 1.363 1_545 S
C728 H731 0.929 . S
C729 C728 1.363 1_565 S
C729 C735 1.428 . S
H730 C726 0.930 . S
H731 C728 0.929 . S
S732 N733 1.613 . S
S732 N734 1.610 . S
N733 S732 1.613 . S
N733 C736 1.350 . S
N734 S732 1.610 . S
N734 C735 1.351 . S
C735 C729 1.428 . S
C735 N734 1.351 . S
C735 C736 1.434 . S
C736 C727 1.429 1_565 S
C736 N733 1.350 . S
C736 C735 1.434 . S
C737 C738 1.369 . S
C737 C739 1.419 . S
C737 H741 0.930 . S
C738 C737 1.369 . S
C738 C747 1.429 . S
C739 C737 1.419 . S
C739 C740 1.363 . S
C739 H742 0.929 . S
C740 C739 1.363 . S
C740 C746 1.428 . S
H741 C737 0.930 . S
H742 C739 0.929 . S
S743 N744 1.613 . S
S743 N745 1.610 . S
N744 S743 1.613 . S
N744 C747 1.350 . S
N745 S743 1.610 . S
N745 C746 1.351 . S
C746 C740 1.428 . S
C746 N745 1.351 . S
C746 C747 1.434 . S
C747 C738 1.429 . S
C747 N744 1.350 . S
C747 C746 1.434 . S
C748 C749 1.369 . S
C748 C750 1.419 . S
C748 H752 0.930 . S
C749 C748 1.369 . S
C749 C758 1.429 . S
C750 C748 1.419 . S
C750 C751 1.363 . S
C750 H753 0.929 . S
C751 C750 1.363 . S
C751 C757 1.428 . S
H752 C748 0.930 . S
H753 C750 0.929 . S
S754 N755 1.613 . S
S754 N756 1.610 . S
N755 S754 1.613 . S
N755 C758 1.350 . S
N756 S754 1.610 . S
N756 C757 1.351 . S
C757 C751 1.428 . S
C757 N756 1.351 . S
C757 C758 1.434 . S
C758 C749 1.429 . S
C758 N755 1.350 . S
C758 C757 1.434 . S
C759 C760 1.369 . S
C759 C761 1.419 . S
C759 H763 0.930 . S
C760 C759 1.369 . S
C760 C769 1.429 . S
C761 C759 1.419 . S
C761 C762 1.363 . S
C761 H764 0.929 . S
C762 C761 1.363 . S
C762 C768 1.428 . S
H763 C759 0.930 . S
H764 C761 0.929 . S
S765 N766 1.613 . S
S765 N767 1.610 . S
N766 S765 1.613 . S
N766 C769 1.350 . S
N767 S765 1.610 . S
N767 C768 1.351 . S
C768 C762 1.428 . S
C768 N767 1.351 . S
C768 C769 1.434 . S
C769 C760 1.429 . S
C769 N766 1.350 . S
C769 C768 1.434 . S
C770 C771 1.369 . S
C770 C772 1.419 . S
C770 H774 0.930 . S
C771 C770 1.369 . S
C771 C780 1.429 . S
C772 C770 1.419 . S
C772 C773 1.363 . S
C772 H775 0.929 . S
C773 C772 1.363 . S
C773 C779 1.428 . S
H774 C770 0.930 . S
H775 C772 0.929 . S
S776 N777 1.613 . S
S776 N778 1.610 . S
N777 S776 1.613 . S
N777 C780 1.350 . S
N778 S776 1.610 . S
N778 C779 1.351 . S
C779 C773 1.428 . S
C779 N778 1.351 . S
C779 C780 1.434 . S
C780 C771 1.429 . S
C780 N777 1.350 . S
C780 C779 1.434 . S
C781 C782 1.369 . S
C781 C783 1.419 1_556 S
C781 H785 0.930 . S
C782 C781 1.369 . S
C782 C791 1.429 . S
C783 C781 1.419 1_554 S
C783 C784 1.363 . S
C783 H786 0.929 . S
C784 C783 1.363 . S
C784 C790 1.428 . S
H785 C781 0.930 . S
H786 C783 0.929 . S
S787 N788 1.613 1_554 S
S787 N789 1.610 . S
N788 S787 1.613 1_556 S
N788 C791 1.350 . S
N789 S787 1.610 . S
N789 C790 1.351 . S
C790 C784 1.428 . S
C790 N789 1.351 . S
C790 C791 1.434 1_554 S
C791 C782 1.429 . S
C791 N788 1.350 . S
C791 C790 1.434 1_556 S
C792 C793 1.369 . S
C792 C794 1.419 . S
C792 H796 0.930 . S
C793 C792 1.369 . S
C793 C802 1.429 . S
C794 C792 1.419 . S
C794 C795 1.363 . S
C794 H797 0.929 . S
C795 C794 1.363 . S
C795 C801 1.428 . S
H796 C792 0.930 . S
H797 C794 0.929 . S
S798 N799 1.613 . S
S798 N800 1.610 . S
N799 S798 1.613 . S
N799 C802 1.350 . S
N800 S798 1.610 . S
N800 C801 1.351 . S
C801 C795 1.428 . S
C801 N800 1.351 . S
C801 C802 1.434 . S
C802 C793 1.429 . S
C802 N799 1.350 . S
C802 C801 1.434 . S
C803 C804 1.369 . S
C803 C805 1.419 1_554 S
C803 H807 0.930 . S
C804 C803 1.369 . S
C804 C813 1.429 . S
C805 C803 1.419 1_556 S
C805 C806 1.363 . S
C805 H808 0.929 . S
C806 C805 1.363 . S
C806 C812 1.428 1_556 S
H807 C803 0.930 . S
H808 C805 0.929 . S
S809 N810 1.613 . S
S809 N811 1.610 1_554 S
N810 S809 1.613 . S
N810 C813 1.350 . S
N811 S809 1.610 1_556 S
N811 C812 1.351 1_556 S
C812 C806 1.428 1_554 S
C812 N811 1.351 1_554 S
C812 C813 1.434 . S
C813 C804 1.429 . S
C813 N810 1.350 . S
C813 C812 1.434 . S
C814 C815 1.369 . S
C814 C816 1.419 . S
C814 H818 0.930 . S
C815 C814 1.369 . S
C815 C824 1.429 . S
C816 C814 1.419 . S
C816 C817 1.363 . S
C816 H819 0.929 . S
C817 C816 1.363 . S
C817 C823 1.428 . S
H818 C814 0.930 . S
H819 C816 0.929 . S
S820 N821 1.613 . S
S820 N822 1.610 . S
N821 S820 1.613 . S
N821 C824 1.350 . S
N822 S820 1.610 . S
N822 C823 1.351 . S
C823 C817 1.428 . S
C823 N822 1.351 . S
C823 C824 1.434 . S
C824 C815 1.429 . S
C824 N821 1.350 . S
C824 C823 1.434 . S
C825 C826 1.369 . S
C825 C827 1.419 . S
C825 H829 0.930 . S
C826 C825 1.369 . S
C826 C835 1.429 . S
C827 C825 1.419 . S
C827 C828 1.363 . S
C827 H830 0.929 . S
C828 C827 1.363 . S
C828 C834 1.428 . S
H829 C825 0.930 . S
H830 C827 0.929 . S
S831 N832 1.613 . S
S831 N833 1.610 . S
N832 S831 1.613 . S
N832 C835 1.350 . S
N833 S831 1.610 . S
N833 C834 1.351 . S
C834 C828 1.428 . S
C834 N833 1.351 . S
C834 C835 1.434 . S
C835 C826 1.429 . S
C835 N832 1.350 . S
C835 C834 1.434 . S
C836 C837 1.369 . S
C836 C838 1.419 . S
C836 H840 0.930 . S
C837 C836 1.369 . S
C837 C846 1.429 . S
C838 C836 1.419 . S
C838 C839 1.363 . S
C838 H841 0.929 . S
C839 C838 1.363 . S
C839 C845 1.428 . S
H840 C836 0.930 . S
H841 C838 0.929 . S
S842 N843 1.613 . S
S842 N844 1.610 . S
N843 S842 1.613 . S
N843 C846 1.350 . S
N844 S842 1.610 . S
N844 C845 1.351 . S
C845 C839 1.428 . S
C845 N844 1.351 . S
C845 C846 1.434 . S
C846 C837 1.429 . S
C846 N843 1.350 . S
C846 C845 1.434 . S
C847 C848 1.369 . S
C847 C849 1.419 . S
C847 H851 0.930 . S
C848 C847 1.369 . S
C848 C857 1.429 . S
C849 C847 1.419 . S
C849 C850 1.363 . S
C849 H852 0.929 . S
C850 C849 1.363 . S
C850 C856 1.428 . S
H851 C847 0.930 . S
H852 C849 0.929 . S
S853 N854 1.613 . S
S853 N855 1.610 . S
N854 S853 1.613 . S
N854 C857 1.350 . S
N855 S853 1.610 . S
N855 C856 1.351 . S
C856 C850 1.428 . S
C856 N855 1.351 . S
C856 C857 1.434 . S
C857 C848 1.429 . S
C857 N854 1.350 . S
C857 C856 1.434 . S
C858 C859 1.369 . S
C858 C860 1.419 . S
C858 H862 0.930 . S
C859 C858 1.369 . S
C859 C868 1.429 . S
C860 C858 1.419 . S
C860 C861 1.363 . S
C860 H863 0.929 . S
C861 C860 1.363 . S
C861 C867 1.428 . S
H862 C858 0.930 . S
H863 C860 0.929 . S
S864 N865 1.613 . S
S864 N866 1.610 . S
N865 S864 1.613 . S
N865 C868 1.350 . S
N866 S864 1.610 . S
N866 C867 1.351 . S
C867 C861 1.428 . S
C867 N866 1.351 . S
C867 C868 1.434 . S
C868 C859 1.429 . S
C868 N865 1.350 . S
C868 C867 1.434 . S
C869 C870 1.369 . S
C869 C871 1.419 1_556 S
C869 H873 0.930 . S
C870 C869 1.369 . S
C870 C879 1.429 . S
C871 C869 1.419 1_554 S
C871 C872 1.363 . S
C871 H874 0.929 . S
C872 C871 1.363 . S
C872 C878 1.428 1_554 S
H873 C869 0.930 . S
H874 C871 0.929 . S
S875 N876 1.613 . S
S875 N877 1.613 . S
N876 S875 1.613 . S
N876 C879 1.350 . S
N877 S875 1.613 . S
N877 C878 1.351 . S
C878 C872 1.428 1_556 S
C878 N877 1.351 . S
C878 C879 1.434 . S
C879 C870 1.429 . S
C879 N876 1.350 . S
C879 C878 1.434 . S
C880 C881 1.369 . S
C880 C882 1.419 1_554 S
C880 H884 0.930 . S
C881 C880 1.369 . S
C881 C890 1.429 1_554 S
C882 C880 1.419 1_556 S
C882 C883 1.363 . S
C882 H885 0.929 . S
C883 C882 1.363 . S
C883 C889 1.428 . S
H884 C880 0.930 . S
H885 C882 0.929 . S
S886 N887 1.613 . S
S886 N888 1.610 . S
N887 S886 1.613 . S
N887 C890 1.350 . S
N888 S886 1.610 . S
N888 C889 1.351 . S
C889 C883 1.428 . S
C889 N888 1.351 . S
C889 C890 1.434 . S
C890 C881 1.429 1_556 S
C890 N887 1.350 . S
C890 C889 1.434 . S
C891 C892 1.369 . S
C891 C893 1.419 . S
C891 H895 0.930 . S
C892 C891 1.369 . S
C892 C901 1.429 . S
C893 C891 1.419 . S
C893 C894 1.363 . S
C893 H896 0.929 . S
C894 C893 1.363 . S
C894 C900 1.428 . S
H895 C891 0.930 . S
H896 C893 0.929 . S
S897 N898 1.613 . S
S897 N899 1.610 . S
N898 S897 1.613 . S
N898 C901 1.350 . S
N899 S897 1.610 . S
N899 C900 1.351 . S
C900 C894 1.428 . S
C900 N899 1.351 . S
C900 C901 1.434 . S
C901 C892 1.429 . S
C901 N898 1.350 . S
C901 C900 1.434 . S
C902 C903 1.369 . S
C902 C904 1.419 . S
C902 H906 0.930 . S
C903 C902 1.369 . S
C903 C912 1.429 . S
C904 C902 1.419 . S
C904 C905 1.363 . S
C904 H907 0.929 . S
C905 C904 1.363 . S
C905 C911 1.428 . S
H906 C902 0.930 . S
H907 C904 0.929 . S
S908 N909 1.613 . S
S908 N910 1.610 . S
N909 S908 1.613 . S
N909 C912 1.350 . S
N910 S908 1.610 . S
N910 C911 1.351 . S
C911 C905 1.428 . S
C911 N910 1.351 . S
C911 C912 1.434 . S
C912 C903 1.429 . S
C912 N909 1.350 . S
C912 C911 1.434 . S
C913 C914 1.369 . S
C913 C915 1.419 . S
C913 H917 0.930 . S
C914 C913 1.369 . S
C914 C923 1.429 . S
C915 C913 1.419 . S
C915 C916 1.363 1_554 S
C915 H918 0.929 . S
C916 C915 1.363 1_556 S
C916 C922 1.428 . S
H917 C913 0.930 . S
H918 C915 0.929 . S
S919 N920 1.613 1_556 S
S919 N921 1.610 . S
N920 S919 1.613 1_554 S
N920 C923 1.350 . S
N921 S919 1.610 . S
N921 C922 1.351 . S
C922 C916 1.428 . S
C922 N921 1.351 . S
C922 C923 1.434 1_556 S
C923 C914 1.429 . S
C923 N920 1.350 . S
C923 C922 1.434 1_554 S
C924 C925 1.369 . S
C924 C926 1.419 . S
C924 H928 0.930 . S
C925 C924 1.369 . S
C925 C934 1.429 . S
C926 C924 1.419 . S
C926 C927 1.363 . S
C926 H929 0.929 . S
C927 C926 1.363 . S
C927 C933 1.428 . S
H928 C924 0.930 . S
H929 C926 0.929 . S
S930 N931 1.613 . S
S930 N932 1.610 . S
N931 S930 1.613 . S
N931 C934 1.350 . S
N932 S930 1.610 . S
N932 C933 1.351 . S
C933 C927 1.428 . S
C933 N932 1.351 . S
C933 C934 1.434 . S
C934 C925 1.429 . S
C934 N931 1.350 . S
C934 C933 1.434 . S
C935 C936 1.369 . S
C935 C937 1.419 . S
C935 H939 0.930 . S
C936 C935 1.369 . S
C936 C945 1.429 . S
C937 C935 1.419 . S
C937 C938 1.363 . S
C937 H940 0.929 . S
C938 C937 1.363 . S
C938 C944 1.428 . S
H939 C935 0.930 . S
H940 C937 0.929 . S
S941 N942 1.613 . S
S941 N943 1.610 . S
N942 S941 1.613 . S
N942 C945 1.350 . S
N943 S941 1.610 . S
N943 C944 1.351 . S
C944 C938 1.428 . S
C944 N943 1.351 . S
C944 C945 1.434 . S
C945 C936 1.429 . S
C945 N942 1.350 . S
C945 C944 1.434 . S
C946 C947 1.369 . S
C946 C948 1.419 . S
C946 H950 0.930 . S
C947 C946 1.369 . S
C947 C956 1.429 . S
C948 C946 1.419 . S
C948 C949 1.363 . S
C948 H951 0.929 . S
C949 C948 1.363 . S
C949 C955 1.428 . S
H950 C946 0.930 . S
H951 C948 0.929 . S
S952 N953 1.613 . S
S952 N954 1.610 . S
N953 S952 1.613 . S
N953 C956 1.350 . S
N954 S952 1.610 . S
N954 C955 1.351 . S
C955 C949 1.428 . S
C955 N954 1.351 . S
C955 C956 1.434 . S
C956 C947 1.429 . S
C956 N953 1.350 . S
C956 C955 1.434 . S
C957 C958 1.369 . S
C957 C959 1.419 . S
C957 H961 0.930 . S
C958 C957 1.369 . S
C958 C967 1.429 . S
C959 C957 1.419 . S
C959 C960 1.363 . S
C959 H962 0.929 . S
C960 C959 1.363 . S
C960 C966 1.428 . S
H961 C957 0.930 . S
H962 C959 0.929 . S
S963 N964 1.613 . S
S963 N965 1.610 . S
N964 S963 1.613 . S
N964 C967 1.350 1_655 S
N965 S963 1.610 . S
N965 C966 1.351 1_655 S
C966 C960 1.428 . S
C966 N965 1.351 1_455 S
C966 C967 1.434 . S
C967 C958 1.429 . S
C967 N964 1.350 1_455 S
C967 C966 1.434 . S
C529 C259 1.571 . S
C531 C28 1.571 . S
C540 C61 1.572 . S
C542 C160 1.572 . S
C551 C94 1.615 . S
C553 C193 1.619 . S
C562 C226 1.611 . S
C564 C127 1.618 . S
C573 C380 1.614 . S
C575 C149 1.613 1_655 S
C584 C281 1.608 . S
C586 C17 1.615 1_655 S
C595 C215 1.641 . S
C597 C347 1.647 . S
C606 C83 1.647 . S
C608 C314 1.648 . S
C617 C325 1.620 . S
C619 C424 1.616 . S
C628 C490 1.616 . S
C630 C358 1.620 . S
C639 C457 1.570 . S
C641 C292 1.568 . S
C650 C391 1.572 . S
C652 C523 1.572 . S
C661 C116 1.651 . S
C663 C479 1.643 . S
C672 C182 1.651 . S
C674 C413 1.643 . S
C683 C50 1.613 . S
C685 C512 1.615 . S
C694 C248 1.613 . S
C696 C446 1.616 . S
C705 C8 1.539 . S
C707 C140 1.552 . S
C716 C173 1.538 . S
C718 C41 1.535 . S
C727 C206 1.746 . S
C729 C74 1.735 . S
C738 C107 1.533 . S
C740 C239 1.539 . S
C749 C338 1.544 . S
C751 C272 1.530 . S
C760 C305 1.537 . S
C762 C371 1.535 . S
C771 C404 1.746 . S
C773 C470 1.735 . S
C782 C503 1.539 . S
C784 C437 1.552 . S
C793 N14 1.164 . S
C795 N5 1.161 . S
C804 N47 1.149 . S
C806 N38 1.149 . S
C815 N71 1.205 . S
C817 N80 1.211 . S
C826 N104 1.166 . S
C828 N113 1.166 . S
C837 N137 1.162 . S
C839 N146 1.163 . S
C848 N170 1.165 . S
C850 N179 1.167 . S
C859 N212 1.209 . S
C861 N203 1.207 . S
C870 N245 1.149 . S
C872 N236 1.149 . S
C881 N269 1.148 . S
C883 N278 1.150 . S
C892 N302 1.167 . S
C894 N311 1.166 . S
C903 N344 1.168 . S
C905 N335 1.164 . S
C914 N377 1.151 . S
C916 N368 1.147 . S
C925 N410 1.209 . S
C927 N401 1.208 . S
C936 N443 1.165 . S
C938 N434 1.161 . S
C947 N476 1.211 . S
C949 N467 1.206 . S
C958 N500 1.164 . S
C960 N509 1.163 . S
