# Generated by pormake.
# Topology smu, (6)-cn, num edge types: 1
# Building blocks:
#     Node 0, Type 0, BuildingBlock: HISSIN_clean_sbu_0, # of connection points: 6
#     Node 1, Type 0, BuildingBlock: HISSIN_clean_sbu_0, # of connection points: 6
#     Node 2, Type 0, BuildingBlock: HISSIN_clean_sbu_0, # of connection points: 6
#     Node 3, Type 0, BuildingBlock: HISSIN_clean_sbu_0, # of connection points: 6
#     Node 4, Type 0, BuildingBlock: HISSIN_clean_sbu_0, # of connection points: 6
#     Node 5, Type 0, BuildingBlock: HISSIN_clean_sbu_0, # of connection points: 6
#     Edge 6, Type (0, 0), BuildingBlock: TEMPAE_clean_linker_10, # of connection points: 2
#     Edge 7, Type (0, 0), BuildingBlock: TEMPAE_clean_linker_10, # of connection points: 2
#     Edge 8, Type (0, 0), BuildingBlock: TEMPAE_clean_linker_10, # of connection points: 2
#     Edge 9, Type (0, 0), BuildingBlock: TEMPAE_clean_linker_10, # of connection points: 2
#     Edge 10, Type (0, 0), BuildingBlock: TEMPAE_clean_linker_10, # of connection points: 2
#     Edge 11, Type (0, 0), BuildingBlock: TEMPAE_clean_linker_10, # of connection points: 2
#     Edge 12, Type (0, 0), BuildingBlock: TEMPAE_clean_linker_10, # of connection points: 2
#     Edge 13, Type (0, 0), BuildingBlock: TEMPAE_clean_linker_10, # of connection points: 2
#     Edge 14, Type (0, 0), BuildingBlock: TEMPAE_clean_linker_10, # of connection points: 2
#     Edge 15, Type (0, 0), BuildingBlock: TEMPAE_clean_linker_10, # of connection points: 2
#     Edge 16, Type (0, 0), BuildingBlock: TEMPAE_clean_linker_10, # of connection points: 2
#     Edge 17, Type (0, 0), BuildingBlock: TEMPAE_clean_linker_10, # of connection points: 2
#     Edge 18, Type (0, 0), BuildingBlock: TEMPAE_clean_linker_10, # of connection points: 2
#     Edge 19, Type (0, 0), BuildingBlock: TEMPAE_clean_linker_10, # of connection points: 2
#     Edge 20, Type (0, 0), BuildingBlock: TEMPAE_clean_linker_10, # of connection points: 2
#     Edge 21, Type (0, 0), BuildingBlock: TEMPAE_clean_linker_10, # of connection points: 2
#     Edge 22, Type (0, 0), BuildingBlock: TEMPAE_clean_linker_10, # of connection points: 2
#     Edge 23, Type (0, 0), BuildingBlock: TEMPAE_clean_linker_10, # of connection points: 2
# Relax obj value: 0.221
# Max RMSD: 0.312
# Mean RMSD: 0.312
data_MOF--net-smu--node1-HISSIN_clean_sbu_0--edge1-TEMPAE_clean_linker_10
_symmetry_space_group_name_H-M    P1
_symmetry_Int_Tables_number       1
_symmetry_cell_setting            triclinic
loop_
_symmetry_equiv_pos_as_xyz
'x, y, z'
_cell_length_a     39.99374
_cell_length_b     39.973676
_cell_length_c     28.015687
_cell_angle_alpha  89.790101
_cell_angle_beta   90.240088
_cell_angle_gamma 119.98918
loop_
_atom_site_label
_atom_site_type_symbol
_atom_site_fract_x
_atom_site_fract_y
_atom_site_fract_z
_atom_type_partial_charge
Eu0 Eu 0.323 0.12024 0.25532 0.0
Eu1 Eu 0.38534 0.08913 0.25911 0.0
C2 C 0.33629 0.08177 0.16199 0.0
C3 C 0.25877 0.17316 0.25807 0.0
C4 C 0.24346 0.17898 0.21576 0.0
C5 C 0.22962 0.20397 0.30278 0.0
C6 C 0.22164 0.19747 0.21689 0.0
C7 C 0.25199 0.18607 0.30153 0.0
C8 C 0.21429 0.20986 0.26046 0.0
C9 C 0.28199 0.15399 0.25686 0.0
O10 O 0.41595 0.15252 0.27799 0.0
O11 O 0.38052 0.16614 0.22745 0.0
C12 C 0.41212 0.17764 0.25209 0.0
O13 O 0.32642 0.10715 0.33356 0.0
O14 O 0.42945 0.08406 0.21951 0.0
O15 O 0.42045 0.06823 0.29416 0.0
O16 O 0.35882 0.07284 0.33164 0.0
C17 C 0.33848 0.08534 0.35399 0.0
O18 O 0.28537 0.05681 0.26821 0.0
O19 O 0.32734 0.03416 0.25055 0.0
O20 O 0.36854 0.08678 0.18138 0.0
O21 O 0.31011 0.16244 0.28697 0.0
O22 O 0.27588 0.1271 0.22603 0.0
O23 O 0.31311 0.09078 0.18438 0.0
C24 C 0.48428 0.09516 0.26351 0.0
C25 C 0.50251 0.12491 0.2973 0.0
C26 C 0.54715 0.10701 0.23743 0.0
C27 C 0.5429 0.14542 0.30124 0.0
C28 C 0.50693 0.08637 0.23381 0.0
C29 C 0.56566 0.13688 0.27101 0.0
C30 C 0.44202 0.07407 0.25676 0.0
C31 C 0.29252 0.02868 0.25948 0.0
H32 H 0.24851 0.1694 0.18181 0.0
H33 H 0.22436 0.21329 0.33679 0.0
H34 H 0.20977 0.20129 0.18385 0.0
H35 H 0.26354 0.18185 0.33461 0.0
H36 H 0.48562 0.13253 0.32025 0.0
H37 H 0.56381 0.09936 0.2141 0.0
H38 H 0.55636 0.16843 0.32725 0.0
H39 H 0.49345 0.06365 0.20742 0.0
Eu40 Eu 0.82178 0.70575 0.27592 0.0
Eu41 Eu 0.72776 0.64492 0.27464 0.0
C42 C 0.77078 0.69077 0.17834 0.0
C43 C 0.93564 0.77685 0.26623 0.0
C44 C 0.95559 0.77266 0.22763 0.0
C45 C 0.9945 0.83518 0.28973 0.0
C46 C 0.99483 0.79916 0.22066 0.0
C47 C 0.95536 0.80882 0.29658 0.0
C48 C 1.01498 0.83021 0.25236 0.0
C49 C 0.8971 0.74511 0.28039 0.0
O50 O 0.75829 0.6123 0.25513 0.0
O51 O 0.808 0.64768 0.30452 0.0
C52 C 0.78775 0.61621 0.27988 0.0
O53 O 0.80078 0.7158 0.34602 0.0
O54 O 0.67339 0.60863 0.23708 0.0
O55 O 0.67537 0.60589 0.31389 0.0
O56 O 0.74477 0.6574 0.35199 0.0
C57 C 0.77044 0.69075 0.37015 0.0
O58 O 0.79765 0.7438 0.2574 0.0
O59 O 0.73374 0.70469 0.28063 0.0
O60 O 0.7389 0.67276 0.20325 0.0
O61 O 0.87468 0.75317 0.30564 0.0
O62 O 0.87798 0.71552 0.2521 0.0
O63 O 0.80505 0.70084 0.19688 0.0
C64 C 0.63291 0.54831 0.27327 0.0
C65 C 0.65167 0.52658 0.27565 0.0
C66 C 0.57131 0.48889 0.2666 0.0
C67 C 0.63027 0.48614 0.27378 0.0
C68 C 0.59269 0.52922 0.2685 0.0
C69 C 0.58974 0.46677 0.26951 0.0
C70 C 0.6548 0.5908 0.27555 0.0
C71 C 0.76312 0.73836 0.26703 0.0
H72 H 0.94137 0.74808 0.20392 0.0
H73 H 1.00912 0.85838 0.31526 0.0
H74 H 1.00959 0.7948 0.19111 0.0
H75 H 0.94105 0.81244 0.32724 0.0
H76 H 0.68279 0.54087 0.2792 0.0
H77 H 0.54028 0.47504 0.26239 0.0
H78 H 0.64539 0.47005 0.27645 0.0
H79 H 0.57777 0.54554 0.26624 0.0
Eu80 Eu 0.90977 0.20862 0.27855 0.0
Eu81 Eu 0.94164 0.30141 0.26355 0.0
C82 C 0.93805 0.24825 0.17532 0.0
C83 C 0.86862 0.09534 0.28397 0.0
C84 C 0.84831 0.07601 0.24248 0.0
C85 C 0.86337 0.03545 0.31279 0.0
C86 C 0.83494 0.03654 0.23676 0.0
C87 C 0.87666 0.07483 0.31853 0.0
C88 C 0.84153 0.01562 0.2724 0.0
C89 C 0.87576 0.1344 0.29569 0.0
O90 O 0.88015 0.27343 0.29073 0.0
O91 O 0.86145 0.21703 0.25301 0.0
C92 C 0.85265 0.2408 0.27346 0.0
O93 O 0.91961 0.23667 0.35178 0.0
O94 O 0.95166 0.35023 0.21802 0.0
O95 O 0.96096 0.35817 0.29423 0.0
O96 O 0.96881 0.29598 0.33054 0.0
C97 C 0.95148 0.26887 0.36252 0.0
O98 O 0.97318 0.23255 0.26814 0.0
O99 O 0.99631 0.29802 0.25406 0.0
O100 O 0.92996 0.27467 0.19007 0.0
O101 O 0.90841 0.15938 0.31547 0.0
O102 O 0.86206 0.15046 0.26706 0.0
O103 O 0.93431 0.22029 0.20382 0.0
C104 C 0.93626 0.39436 0.25537 0.0
C105 C 0.92427 0.40232 0.29894 0.0
C106 C 0.90849 0.42847 0.21381 0.0
C107 C 0.90476 0.42317 0.29991 0.0
C108 C 0.92814 0.4077 0.21284 0.0
C109 C 0.89672 0.43667 0.25739 0.0
C110 C 0.95795 0.37318 0.25417 0.0
C111 C 1.00125 0.26781 0.25855 0.0
H112 H 0.84141 0.09094 0.21527 0.0
H113 H 0.86866 0.02016 0.34114 0.0
H114 H 0.81874 0.02222 0.20488 0.0
H115 H 0.89166 0.08885 0.35119 0.0
H116 H 0.93026 0.3928 0.3325 0.0
H117 H 0.90244 0.43803 0.18032 0.0
H118 H 0.89676 0.42947 0.33419 0.0
H119 H 0.93714 0.40219 0.17875 0.0
Eu120 Eu 0.09301 0.377 0.77699 0.0
Eu121 Eu 0.12812 0.31843 0.77243 0.0
C122 C 0.0896 0.32788 0.86986 0.0
C123 C 0.09462 0.47304 0.77703 0.0
C124 C 0.13516 0.49408 0.77739 0.0
C125 C 0.09363 0.53323 0.77318 0.0
C126 C 0.15482 0.53452 0.77598 0.0
C127 C 0.07404 0.49284 0.77465 0.0
C128 C 0.13428 0.55462 0.77418 0.0
C129 C 0.07363 0.4306 0.78039 0.0
O130 O 0.06581 0.27801 0.78704 0.0
O131 O 0.04004 0.31713 0.76764 0.0
C132 C 0.0363 0.28301 0.77778 0.0
O133 O 0.10027 0.36901 0.69872 0.0
O134 O 0.17505 0.30883 0.7951 0.0
O135 O 0.13442 0.27217 0.73995 0.0
O136 O 0.09707 0.31028 0.70246 0.0
C137 C 0.09236 0.33607 0.67891 0.0
O138 O 0.15655 0.41019 0.7954 0.0
O139 O 0.17076 0.3767 0.74323 0.0
O140 O 0.11726 0.32276 0.85189 0.0
O141 O 0.07196 0.41188 0.74163 0.0
O142 O 0.08126 0.41623 0.81793 0.0
O143 O 0.07326 0.34377 0.84515 0.0
C144 C 0.17848 0.25251 0.7708 0.0
C145 C 0.17918 0.23208 0.73059 0.0
C146 C 0.21042 0.2246 0.8167 0.0
C147 C 0.19582 0.20868 0.73304 0.0
C148 C 0.19394 0.24839 0.81411 0.0
C149 C 0.21217 0.20512 0.77586 0.0
C150 C 0.16557 0.28094 0.76438 0.0
C151 C 0.18173 0.40793 0.76815 0.0
H152 H 0.15157 0.47925 0.77928 0.0
H153 H 0.0769 0.5477 0.77092 0.0
H154 H 0.18607 0.55002 0.77721 0.0
H155 H 0.04276 0.47706 0.77418 0.0
H156 H 0.16777 0.23505 0.69668 0.0
H157 H 0.22274 0.22229 0.85019 0.0
H158 H 0.19603 0.19346 0.70123 0.0
H159 H 0.19406 0.26414 0.84555 0.0
Eu160 Eu 0.30389 0.93201 0.75125 0.0
Eu161 Eu 0.21099 0.89632 0.75551 0.0
C162 C 0.26517 0.93897 0.8482 0.0
C163 C 0.39754 0.92854 0.75007 0.0
C164 C 0.39453 0.90682 0.79115 0.0
C165 C 0.44133 0.90949 0.71571 0.0
C166 C 0.41506 0.88701 0.79462 0.0
C167 C 0.42106 0.92956 0.71241 0.0
C168 C 0.43875 0.88815 0.75697 0.0
C169 C 0.37634 0.95002 0.74578 0.0
O170 O 0.23178 0.95911 0.76421 0.0
O171 O 0.29693 0.98546 0.7457 0.0
C172 C 0.26619 0.98881 0.75501 0.0
O173 O 0.28297 0.92508 0.67472 0.0
O174 O 0.15684 0.85541 0.79108 0.0
O175 O 0.15594 0.8794 0.72156 0.0
O176 O 0.22845 0.92894 0.68613 0.0
C177 C 0.25701 0.93344 0.65899 0.0
O178 O 0.27561 0.86985 0.77619 0.0
O179 O 0.2261 0.85348 0.72637 0.0
O180 O 0.23104 0.91144 0.83317 0.0
O181 O 0.35395 0.94225 0.70862 0.0
O182 O 0.36048 0.95383 0.78436 0.0
O183 O 0.29588 0.95316 0.82112 0.0
C184 C 0.09683 0.85059 0.76558 0.0
C185 C 0.0798 0.86499 0.73367 0.0
C186 C 0.03457 0.81222 0.80422 0.0
C187 C 0.04037 0.85232 0.73622 0.0
C188 C 0.074 0.82477 0.80152 0.0
C189 C 1.01708 0.82497 0.77071 0.0
C190 C 0.13562 0.85626 0.75605 0.0
C191 C 0.2469 0.84329 0.75156 0.0
H192 H 0.37635 0.90512 0.82069 0.0
H193 H 0.45967 0.9113 0.6863 0.0
H194 H 0.41217 0.87053 0.82666 0.0
H195 H 0.42386 0.94605 0.68039 0.0
H196 H 0.09643 0.8845 0.7051 0.0
H197 H 1.0176 0.79174 0.83181 0.0
H198 H 0.02784 0.86252 0.7096 0.0
H199 H 0.08621 0.81281 0.82621 0.0
Eu200 Eu 0.64887 0.72142 0.77161 0.0
Eu201 Eu 0.71121 0.81453 0.77246 0.0
C202 C 0.69873 0.76166 0.86615 0.0
C203 C 0.55144 0.62791 0.77032 0.0
C204 C 0.5306 0.64744 0.77469 0.0
C205 C 0.49114 0.56699 0.76644 0.0
C206 C 0.49018 0.62678 0.77533 0.0
C207 C 0.53148 0.58766 0.76586 0.0
C208 C 0.46995 0.58622 0.77165 0.0
C209 C 0.59388 0.64895 0.77203 0.0
O210 O 0.74881 0.78889 0.78469 0.0
O211 O 0.70752 0.7257 0.76052 0.0
C212 C 0.74212 0.75437 0.77246 0.0
O213 O 0.65865 0.73953 0.69444 0.0
O214 O 0.72441 0.87071 0.80244 0.0
O215 O 0.75951 0.86718 0.74437 0.0
O216 O 0.718 0.79449 0.69987 0.0
C217 C 0.6918 0.76492 0.6755 0.0
O218 O 0.61704 0.75302 0.79105 0.0
O219 O 0.65439 0.8046 0.74481 0.0
O220 O 0.70513 0.79556 0.85054 0.0
O221 O 0.61175 0.66756 0.73349 0.0
O222 O 0.60935 0.66916 0.81047 0.0
O223 O 0.68125 0.73054 0.83978 0.0
C224 C 0.77696 0.93141 0.77065 0.0
C225 C 0.79322 0.94965 0.72715 0.0
C226 C 0.80497 0.99413 0.8089 0.0
C227 C 0.81503 0.98984 0.72442 0.0
C228 C 0.78266 0.95388 0.81142 0.0
C229 C 0.82149 0.01259 0.76534 0.0
C230 C 0.75304 0.88914 0.7727 0.0
C231 C 0.62216 0.78361 0.76764 0.0
H232 H 0.54561 0.67858 0.77823 0.0
H233 H 0.47652 0.53589 0.76262 0.0
H234 H 0.47481 0.64247 0.77972 0.0
H235 H 0.54712 0.57215 0.76232 0.0
H236 H 0.78866 0.93285 0.69504 0.0
H237 H 0.8099 1.01068 0.84129 0.0
H238 H 0.82672 1.00305 0.69015 0.0
H239 H 0.77029 0.94032 0.84535 0.0
C240 C 0.29892 0.99735 0.89901 0.0
C241 C 0.26989 0.95846 0.8948 0.0
C242 C 0.30665 0.01704 0.94245 0.0
C243 C 0.28508 0.99743 0.98335 0.0
C244 C 0.25477 0.95849 0.97925 0.0
C245 C 0.24726 0.93947 0.93476 0.0
C246 C 0.33879 0.05865 0.94472 0.0
C247 C 0.23118 0.93666 0.02216 0.0
C248 C 0.33944 0.03888 0.09952 0.0
C249 C 0.32377 0.0614 0.11543 0.0
C250 C 0.32588 0.01667 0.05776 0.0
C251 C 0.29632 0.01737 0.03055 0.0
C252 C 0.2803 0.03998 0.04638 0.0
C253 C 0.29395 0.06142 0.08885 0.0
C254 C 0.34357 0.99273 0.04247 0.0
C255 C 0.24927 0.04212 0.01794 0.0
H256 H 0.31603 0.01262 0.86807 0.0
H257 H 0.22467 0.90954 0.93165 0.0
H258 H 0.3283 0.07688 0.96119 0.0
H259 H 0.3626 0.06087 0.96746 0.0
H260 H 0.35067 0.07061 0.9089 0.0
H261 H 0.20738 0.90735 1.0127 0.0
H262 H 0.25008 0.93377 0.04899 0.0
H263 H 0.21868 0.95288 0.03933 0.0
H264 H 0.3619 0.03794 0.12024 0.0
H265 H 0.2814 0.07842 0.10108 0.0
H266 H 0.35911 1.00398 1.00823 0.0
H267 H 0.32063 0.96237 0.03634 0.0
H268 H 0.36421 0.99301 0.06936 0.0
H269 H 0.26071 0.05504 0.9824 0.0
H270 H 0.23863 0.05967 0.03607 0.0
H271 H 0.22453 0.01267 1.01179 0.0
C272 C 0.69232 0.71783 0.61844 0.0
C273 C 0.70252 0.75606 0.62875 0.0
C274 C 0.70558 0.70864 0.577 0.0
C275 C 0.72852 0.73821 0.54408 0.0
C276 C 0.73832 0.77686 0.55384 0.0
C277 C 0.72588 0.78546 0.59667 0.0
C278 C 0.69545 0.66729 0.5688 0.0
C279 C 0.76161 0.80899 0.51889 0.0
C280 C 0.78676 0.71758 0.45321 0.0
C281 C 0.76074 0.70309 0.41498 0.0
C282 C 0.77682 0.72936 0.49562 0.0
C283 C 0.74079 0.7281 0.49872 0.0
C284 C 0.71525 0.71495 0.45919 0.0
C285 C 0.72525 0.70194 0.41819 0.0
C286 C 0.80432 0.74208 0.53749 0.0
C287 C 0.67724 0.71442 0.46024 0.0
H288 H 0.67511 0.69516 0.64382 0.0
H289 H 0.73408 0.81508 0.60489 0.0
H290 H 0.6775 0.65591 0.53616 0.0
H291 H 0.72214 0.66583 0.56304 0.0
H292 H 0.67939 0.64817 0.59926 0.0
H293 H 0.76596 0.83728 0.53122 0.0
H294 H 0.79027 0.81162 0.51338 0.0
H295 H 0.74681 0.80219 0.4837 0.0
H296 H 0.81434 0.71874 0.45036 0.0
H297 H 0.70556 0.69155 0.38803 0.0
H298 H 0.79015 0.72257 0.5683 0.0
H299 H 0.81184 0.77159 0.54877 0.0
H300 H 0.83137 0.74193 0.52913 0.0
H301 H 0.65794 0.69328 0.48723 0.0
H302 H 0.66229 0.70658 0.42511 0.0
H303 H 0.68193 0.74319 0.47082 0.0
C304 C 0.97061 0.22918 0.11277 0.0
C305 C 0.95775 0.2542 0.12838 0.0
C306 C 0.99385 0.23765 0.07177 0.0
C307 C 1.00475 0.27209 0.04582 0.0
C308 C 0.9915 0.29718 0.06111 0.0
C309 C 0.96809 0.28786 0.10182 0.0
C310 C 1.00686 0.20985 0.05633 0.0
C311 C 1.00238 0.33424 0.03467 0.0
C312 C 0.08972 0.31741 0.95882 0.0
C313 C 0.07018 0.30897 0.91506 0.0
C314 C 0.06897 0.30414 1.00204 0.0
C315 C 0.02802 0.2812 1.00102 0.0
C316 C 1.00873 0.27051 0.9565 0.0
C317 C 0.02992 0.28521 0.91439 0.0
C318 C 0.09062 0.31668 0.04876 0.0
C319 C 0.96538 0.24532 0.95319 0.0
H320 H 0.96313 0.20325 0.13307 0.0
H321 H 0.95876 0.3077 0.11354 0.0
H322 H 0.99698 0.19999 0.0193 0.0
H323 H 0.03885 0.2246 0.05627 0.0
H324 H 0.99566 0.18415 0.08004 0.0
H325 H 0.99138 0.35161 0.05251 0.0
H326 H 0.03424 0.35208 0.03176 0.0
H327 H 0.99055 0.32761 0.99785 0.0
H328 H 0.12079 0.33615 0.95944 0.0
H329 H 1.01466 0.27903 0.88066 0.0
H330 H 0.08119 0.29163 0.0731 0.0
H331 H 0.08405 0.33747 0.06659 0.0
H332 H 0.12235 0.33075 0.04371 0.0
H333 H 0.95506 0.21994 0.97721 0.0
H334 H 0.95563 0.23487 0.91623 0.0
H335 H 0.95152 0.26202 0.96476 0.0
C336 C 0.34827 0.07714 0.44022 0.0
C337 C 0.32336 0.06863 0.40126 0.0
C338 C 0.33501 0.05642 0.48323 0.0
C339 C 0.29651 0.02524 0.48628 0.0
C340 C 0.2711 0.01717 0.44708 0.0
C341 C 0.28471 0.0395 0.40532 0.0
C342 C 0.36257 0.06706 0.52482 0.0
C343 C 0.2303 0.98349 0.44803 0.0
C344 C 0.28198 0.94681 0.57516 0.0
C345 C 0.26351 0.9539 0.61287 0.0
C346 C 0.29146 0.96886 0.533 0.0
C347 C 0.28369 0.99974 0.52929 0.0
C348 C 0.26485 1.00685 0.56729 0.0
C349 C 0.2544 0.98341 0.60824 0.0
C350 C 0.31036 0.9595 0.4927 0.0
C351 C 0.25713 0.04016 0.56557 0.0
H352 H 0.37825 0.09952 0.43672 0.0
H353 H 0.2657 0.03274 0.37475 0.0
H354 H 0.34885 0.06953 0.55795 0.0
H355 H 0.3699 0.04402 0.53074 0.0
H356 H 0.38977 0.09476 0.51875 0.0
H357 H 0.2134 0.98297 0.41619 0.0
H358 H 0.23102 0.9561 0.44922 0.0
H359 H 0.21506 0.98441 0.48053 0.0
H360 H 0.28909 0.92406 0.57871 0.0
H361 H 0.24069 0.98941 0.63766 0.0
H362 H 0.34024 0.98369 0.48748 0.0
H363 H 0.29438 0.95596 0.45887 0.0
H364 H 0.31153 0.93272 0.4996 0.0
H365 H 0.28481 0.06774 0.56186 0.0
H366 H 0.24217 0.04174 0.5981 0.0
H367 H 0.23921 0.03753 0.53395 0.0
C368 C 0.72811 0.73042 0.91364 0.0
C369 C 0.71661 0.75832 0.91112 0.0
C370 C 0.74401 0.7247 0.95529 0.0
C371 C 0.74704 0.7462 0.99662 0.0
C372 C 0.73683 0.77549 0.99409 0.0
C373 C 0.72226 0.78167 0.95096 0.0
C374 C 0.75546 0.69396 0.95566 0.0
C375 C 0.73917 0.79868 0.03761 0.0
C376 C 0.72954 0.68831 0.11019 0.0
C377 C 0.76676 0.70361 0.12978 0.0
C378 C 0.72295 0.70289 0.06797 0.0
C379 C 0.75442 0.73318 0.0435 0.0
C380 C 0.79232 0.7483 0.06211 0.0
C381 C 0.79807 0.7335 0.10533 0.0
C382 C 0.68202 0.68565 0.04955 0.0
C383 C 0.82665 0.78014 0.03649 0.0
H384 H 0.72465 0.71272 0.88271 0.0
H385 H 0.7137 0.80344 0.94911 0.0
H386 H 0.78374 0.70464 0.97368 0.0
H387 H 0.73374 0.66842 0.97588 0.0
H388 H 0.75738 0.68449 0.91903 0.0
H389 H 0.73452 0.82315 0.02872 0.0
H390 H 0.71688 0.77966 0.06372 0.0
H391 H 0.76766 0.81014 0.05534 0.0
H392 H 0.70502 0.66508 0.12841 0.0
H393 H 0.82683 0.74585 0.12038 0.0
H394 H 0.67925 0.67128 1.01478 0.0
H395 H 0.67476 0.70873 0.04351 0.0
H396 H 0.66051 0.66405 0.07455 0.0
H397 H 0.82767 0.77136 0.99923 0.0
H398 H 0.85434 0.78773 0.0545 0.0
H399 H 0.82381 0.80633 0.03463 0.0
C400 C 0.95012 0.25776 0.45147 0.0
C401 C 0.97077 0.27453 0.4095 0.0
C402 C 0.96922 0.2659 0.496 0.0
C403 C 1.00987 0.29066 0.49819 0.0
C404 C 0.03084 0.30619 0.45554 0.0
C405 C 1.01105 0.29824 0.41198 0.0
C406 C 0.94585 0.24895 0.54079 0.0
C407 C 0.07422 0.33193 0.45588 0.0
C408 C 0.05851 0.34766 0.61075 0.0
C409 C 0.07345 0.32575 0.63121 0.0
C410 C 0.03704 0.33605 0.56812 0.0
C411 C 0.03063 0.30188 0.54495 0.0
C412 C 0.046 0.27986 0.56506 0.0
C413 C 0.06703 0.29193 0.60801 0.0
C414 C 0.02105 0.3603 0.54795 0.0
C415 C 0.04038 0.24362 0.54109 0.0
H416 H 0.91903 0.23935 0.44968 0.0
H417 H 0.02733 0.31073 0.37954 0.0
H418 H 0.95727 0.23302 0.5613 0.0
H419 H 0.94841 0.27255 0.56402 0.0
H420 H 0.91482 0.22901 0.53296 0.0
H421 H 0.08645 0.33927 0.41929 0.0
H422 H 0.08212 0.35915 0.47502 0.0
H423 H 0.08794 0.31762 0.47524 0.0
H424 H 0.06281 0.37354 0.62859 0.0
H425 H 0.07825 0.27465 0.62358 0.0
H426 H 0.98935 0.3423 0.54306 0.0
H427 H 0.03376 0.37158 0.51231 0.0
H428 H 0.02715 0.38513 0.57131 0.0
H429 H 1.00913 0.22271 0.53679 0.0
H430 H 0.05378 0.22948 0.56159 0.0
H431 H 0.05316 0.25061 0.50483 0.0
C432 C 0.63086 0.17107 0.23249 0.0
C433 C 0.60858 0.15865 0.2742 0.0
C434 C 0.67124 0.18851 0.23431 0.0
C435 C 0.68992 0.19346 0.27892 0.0
C436 C 0.66773 0.18242 0.32135 0.0
C437 C 0.62732 0.1653 0.3185 0.0
C438 C 0.69375 0.20008 0.18822 0.0
C439 C 0.68645 0.18684 0.36957 0.0
C440 C 0.7831 0.19032 0.27404 0.0
C441 C 0.81135 0.2295 0.27739 0.0
C442 C 0.74367 0.17831 0.2759 0.0
C443 C 0.73193 0.20619 0.28049 0.0
C444 C 0.76027 0.24582 0.28453 0.0
C445 C 0.79974 0.25702 0.28338 0.0
C446 C 0.71455 0.13572 0.27217 0.0
C447 C 0.74887 0.27641 0.28886 0.0
H448 H 0.61658 0.16659 0.19821 0.0
H449 H 0.61025 0.15559 0.35084 0.0
H450 H 0.71825 0.23013 0.19063 0.0
H451 H 0.70605 0.18104 0.18171 0.0
H452 H 0.67549 0.19797 0.1571 0.0
H453 H 0.66585 0.18054 0.39933 0.0
H454 H 0.69798 0.16676 0.37226 0.0
H455 H 0.71118 0.21656 0.37398 0.0
H456 H 0.79181 0.16879 0.26999 0.0
H457 H 0.82146 0.28732 0.28588 0.0
H458 H 0.69701 0.13012 0.23927 0.0
H459 H 0.69445 0.12642 0.30292 0.0
H460 H 0.72844 0.11763 0.27121 0.0
H461 H 0.73279 0.27628 0.25641 0.0
H462 H 0.77427 0.30578 0.29338 0.0
H463 H 0.72926 0.27001 0.3197 0.0
C464 C 0.53143 0.40411 0.29301 0.0
C465 C 0.56655 0.42371 0.26828 0.0
C466 C 0.50829 0.36374 0.29072 0.0
C467 C 0.52049 0.34221 0.26311 0.0
C468 C 0.55631 0.36166 0.23889 0.0
C469 C 0.5789 0.40215 0.24177 0.0
C470 C 0.47041 0.34419 0.31729 0.0
C471 C 0.5703 0.33977 0.20901 0.0
C472 C 0.47105 0.23399 0.28769 0.0
C473 C 0.4419 0.21926 0.25281 0.0
C474 C 0.49741 0.27387 0.2909 0.0
C475 C 0.49485 0.29958 0.2581 0.0
C476 C 0.46632 0.28467 0.22181 0.0
C477 C 0.44011 0.2448 0.21979 0.0
C478 C 0.52721 0.28861 0.33031 0.0
C479 C 0.46283 0.31098 0.18579 0.0
H480 H 0.52197 0.4204 0.31433 0.0
H481 H 0.60581 0.41701 0.22221 0.0
H482 H 0.44618 0.32952 0.29159 0.0
H483 H 0.46937 0.3217 0.34157 0.0
H484 H 0.46577 0.36489 0.33863 0.0
H485 H 0.59967 0.35885 0.19444 0.0
H486 H 0.57072 0.31665 0.23056 0.0
H487 H 0.55011 0.32555 0.17878 0.0
H488 H 0.47262 0.21449 0.31341 0.0
H489 H 0.41786 0.23369 0.1925 0.0
H490 H 0.52178 0.30708 0.35488 0.0
H491 H 0.55651 0.30681 0.31523 0.0
H492 H 0.52682 0.26479 0.3513 0.0
H493 H 0.45506 0.33066 0.20423 0.0
H494 H 0.44062 0.29467 0.15812 0.0
H495 H 0.49095 0.32925 0.16787 0.0
C496 C 0.84705 0.45117 0.291 0.0
C497 C 0.87724 0.4602 0.2588 0.0
C498 C 0.82995 0.4744 0.2945 0.0
C499 C 0.84314 0.50738 0.26489 0.0
C500 C 0.87292 0.51613 0.23151 0.0
C501 C 0.88967 0.49256 0.22899 0.0
C502 C 0.79836 0.46415 0.33065 0.0
C503 C 0.88782 0.55102 0.19926 0.0
C504 C 0.78164 0.55483 0.24742 0.0
C505 C 0.79993 0.58671 0.27812 0.0
C506 C 0.79499 0.52841 0.24319 0.0
C507 C 0.82727 0.5339 0.27046 0.0
C508 C 0.84523 0.56549 0.30233 0.0
C509 C 0.83141 0.59148 0.30569 0.0
C510 C 0.77515 0.49514 0.20873 0.0
C511 C 0.87956 0.57228 0.33229 0.0
H512 H 0.83679 0.42591 0.31366 0.0
H513 H 0.9133 0.50016 0.20448 0.0
H514 H 0.80797 0.4876 0.35741 0.0
H515 H 0.77229 0.46144 0.31286 0.0
H516 H 0.79028 0.4367 0.34964 0.0
H517 H 0.90949 0.55255 0.17334 0.0
H518 H 0.86358 0.55048 0.17918 0.0
H519 H 0.90135 0.57774 0.22105 0.0
H520 H 0.75733 0.55092 0.22595 0.0
H521 H 0.84573 0.61594 0.32961 0.0
H522 H 0.76587 0.4674 0.22751 0.0
H523 H 0.79568 0.49781 0.18044 0.0
H524 H 0.74951 0.494 0.19156 0.0
H525 H 0.87222 0.54628 0.35407 0.0
H526 H 0.88939 0.59741 0.35656 0.0
H527 H 0.90394 0.57743 0.30877 0.0
C528 C 0.18817 0.61881 0.74552 0.0
C529 C 0.15495 0.5977 0.77344 0.0
C530 C 0.20674 0.65934 0.7429 0.0
C531 C 0.19175 0.67929 0.76875 0.0
C532 C 0.15888 0.65824 0.79799 0.0
C533 C 0.14097 0.6178 0.80003 0.0
C534 C 0.24164 0.6807 0.71119 0.0
C535 C 0.14194 0.67835 0.82614 0.0
C536 C 0.25139 0.78816 0.78855 0.0
C537 C 0.2357 0.80189 0.754 0.0
C538 C 0.238 0.74834 0.79324 0.0
C539 C 0.20845 0.72177 0.76247 0.0
C540 C 0.19346 0.73568 0.72661 0.0
C541 C 0.20717 0.77544 0.7229 0.0
C542 C 0.25464 0.73459 0.83196 0.0
C543 C 0.1621 0.70845 0.69287 0.0
H544 H 0.19903 0.60357 0.72453 0.0
H545 H 0.1158 0.60184 0.82244 0.0
H546 H 0.23459 0.69416 0.681 0.0
H547 H 0.26578 0.70433 0.73134 0.0
H548 H 0.25156 0.66138 0.69648 0.0
H549 H 0.11774 0.65809 0.84938 0.0
H550 H 0.16451 0.70134 0.84875 0.0
H551 H 0.13109 0.69248 0.80131 0.0
H552 H 0.27336 0.8084 0.81276 0.0
H553 H 0.19499 0.78573 0.69588 0.0
H554 H 0.26506 0.71594 0.81653 0.0
H555 H 0.23181 0.71683 0.85818 0.0
H556 H 0.27892 0.75894 0.85117 0.0
H557 H 0.17121 0.68983 0.67438 0.0
H558 H 0.15482 0.72402 0.66554 0.0
H559 H 0.13559 0.68917 0.71331 0.0
C560 C 0.48237 0.87127 0.80288 0.0
C561 C 0.46153 0.86806 0.76106 0.0
C562 C 0.50614 0.85473 0.80606 0.0
C563 C 0.50896 0.83422 0.76661 0.0
C564 C 0.48689 0.82968 0.72495 0.0
C565 C 0.4636 0.84678 0.72261 0.0
C566 C 0.52951 0.86065 0.85091 0.0
C567 C 0.48882 0.80779 0.68225 0.0
C568 C 0.60236 0.83259 0.75051 0.0
C569 C 0.5926 0.79575 0.76759 0.0
C570 C 0.57548 0.84538 0.75036 0.0
C571 C 0.53759 0.82063 0.76722 0.0
C572 C 0.52738 0.7833 0.78435 0.0
C573 C 0.55511 0.77138 0.78465 0.0
C574 C 0.58777 0.88554 0.73222 0.0
C575 C 0.48717 0.75597 0.80223 0.0
H576 H 0.48118 0.88794 0.83258 0.0
H577 H 0.44713 0.84372 0.69046 0.0
H578 H 0.52513 0.8326 0.86432 0.0
H579 H 0.56068 0.87907 0.84283 0.0
H580 H 0.52183 0.87465 0.87969 0.0
H581 H 0.46742 0.80397 0.65429 0.0
H582 H 0.51811 0.82357 0.66639 0.0
H583 H 0.48366 0.77891 0.69332 0.0
H584 H 0.63132 0.85183 0.73759 0.0
H585 H 0.54734 0.74291 0.7979 0.0
H586 H 0.58357 0.90248 0.76045 0.0
H587 H 0.56957 0.8839 0.70133 0.0
H588 H 0.6185 0.90141 0.72099 0.0
H589 H 0.48056 0.76896 0.83312 0.0
H590 H 0.48354 0.72763 0.81331 0.0
H591 H 0.4657 0.75106 0.77393 0.0
C592 C 0.23797 0.46795 0.80194 0.0
C593 C 0.22285 0.43879 0.76725 0.0
C594 C 0.27775 0.49495 0.80371 0.0
C595 C 0.30282 0.49291 0.76971 0.0
C596 C 0.28739 0.46451 0.73348 0.0
C597 C 0.2477 0.43776 0.73282 0.0
C598 C 0.29315 0.52473 0.84297 0.0
C599 C 0.31299 0.46153 0.69625 0.0
C600 C 0.4047 0.57648 0.74892 0.0
C601 C 0.42698 0.5638 0.77355 0.0
C602 C 0.36414 0.55435 0.74858 0.0
C603 C 0.34544 0.51871 0.77345 0.0
C604 C 0.36774 0.50635 0.79949 0.0
C605 C 0.40815 0.52903 0.79929 0.0
C606 C 0.34139 0.56848 0.72032 0.0
C607 C 0.34897 0.4686 0.8266 0.0
H608 H 0.21896 0.46893 0.82865 0.0
H609 H 0.23624 0.41554 0.70561 0.0
H610 H 0.31195 0.51922 0.86709 0.0
H611 H 0.31113 0.55406 0.82772 0.0
H612 H 0.26967 0.52432 0.86448 0.0
H613 H 0.29619 0.43943 0.66871 0.0
H614 H 0.33067 0.4898 0.67827 0.0
H615 H 0.33322 0.45383 0.71364 0.0
H616 H 0.41898 0.60316 0.72869 0.0
H617 H 0.42509 0.5194 0.81922 0.0
H618 H 0.31851 0.56822 0.74284 0.0
H619 H 0.32684 0.54876 0.68985 0.0
H620 H 0.35995 0.59816 0.70618 0.0
H621 H 0.327 0.46752 0.85157 0.0
H622 H 0.37024 0.46419 0.84727 0.0
H623 H 0.33384 0.44422 0.80127 0.0
C624 C 0.19512 0.25698 0.23039 0.0
C625 C 0.18907 0.22712 0.26186 0.0
C626 C 0.16942 0.27129 0.22887 0.0
C627 C 0.13661 0.25475 0.25884 0.0
C628 C 0.13116 0.2255 0.29184 0.0
C629 C 0.15763 0.21223 0.29316 0.0
C630 C 0.1765 0.30296 0.19389 0.0
C631 C 0.09622 0.20667 0.32395 0.0
C632 C 0.07068 0.29619 0.28001 0.0
C633 C 0.03936 0.27195 0.25094 0.0
C634 C 0.10394 0.29264 0.28109 0.0
C635 C 0.10555 0.26445 0.25213 0.0
C636 C 0.075 0.24213 0.22004 0.0
C637 C 0.04215 0.24601 0.22016 0.0
C638 C 0.13596 0.31698 0.31566 0.0
C639 C 0.07551 0.21193 0.18827 0.0
H640 H 0.21971 0.26878 0.20655 0.0
H641 H 0.1528 0.18895 0.31725 0.0
H642 H 0.15441 0.29115 0.16516 0.0
H643 H 0.17375 0.32612 0.21195 0.0
H644 H 0.20552 0.31585 0.17728 0.0
H645 H 0.09773 0.18641 0.34995 0.0
H646 H 0.09321 0.22892 0.34395 0.0
H647 H 0.06977 0.19037 0.30195 0.0
H648 H 0.06812 0.31588 0.30421 0.0
H649 H 1.01766 0.22723 0.19786 0.0
H650 H 0.16457 0.3284 0.29845 0.0
H651 H 0.13494 0.29886 0.34634 0.0
H652 H 0.13334 0.34155 0.3296 0.0
H653 H 0.10317 0.2242 0.16858 0.0
H654 H 0.05144 0.20008 0.16196 0.0
H655 H 0.07301 0.18777 0.21054 0.0
C656 C 0.08167 0.84084 0.23817 0.0
C657 C 0.05756 0.85606 0.24849 0.0
C658 C 0.12205 0.86455 0.23755 0.0
C659 C 0.13872 0.90437 0.24774 0.0
C660 C 0.11456 0.92 0.25763 0.0
C661 C 0.07435 0.89572 0.25766 0.0
C662 C 0.1469 0.84691 0.22693 0.0
C663 C 0.1312 0.96237 0.2687 0.0
C664 C 0.24048 0.96795 0.29433 0.0
C665 C 0.25854 0.99029 0.25398 0.0
C666 C 0.20208 0.93758 0.292 0.0
C667 C 0.1814 0.93009 0.2484 0.0
C668 C 0.2007 0.95091 0.20676 0.0
C669 C 0.23914 0.98088 0.21014 0.0
C670 C 0.18281 0.91589 0.33713 0.0
C671 C 0.17987 0.94392 0.15959 0.0
H672 H 0.06905 0.81014 0.23182 0.0
H673 H 0.05599 0.90785 0.26504 0.0
H674 H 0.16631 0.86211 0.19646 0.0
H675 H 0.1655 0.85045 0.2582 0.0
H676 H 0.12946 0.81567 0.21829 0.0
H677 H 0.10846 0.96999 0.27543 0.0
H678 H 0.15009 0.97021 0.30068 0.0
H679 H 0.14933 0.98018 0.23854 0.0
H680 H 0.25554 0.97572 0.3283 0.0
H681 H 0.25313 0.99885 0.17921 0.0
H682 H 0.16402 0.88461 0.32995 0.0
H683 H 0.16432 0.92689 0.35149 0.0
H684 H 0.20428 0.91961 0.36496 0.0
H685 H 0.16301 0.91257 0.15167 0.0
H686 H 0.20011 0.95885 0.12962 0.0
H687 H 0.15919 0.95473 0.16149 0.0
C688 C 0.78593 0.94968 0.25343 0.0
C689 C 0.82428 0.97301 0.26875 0.0
C690 C 0.76888 0.90927 0.25159 0.0
C691 C 0.79069 0.89182 0.2654 0.0
C692 C 0.82941 0.91522 0.28083 0.0
C693 C 0.8457 0.95546 0.28226 0.0
C694 C 0.7276 0.88526 0.2349 0.0
C695 C 0.8538 0.89775 0.29549 0.0
C696 C 0.74917 0.78703 0.30223 0.0
C697 C 0.7588 0.77256 0.26248 0.0
C698 C 0.75677 0.82539 0.30258 0.0
C699 C 0.77404 0.84926 0.26208 0.0
C700 C 0.78027 0.83331 0.22033 0.0
C701 C 0.77283 0.79517 0.22122 0.0
C702 C 0.7496 0.84127 0.34774 0.0
C703 C 0.79813 0.85742 0.17615 0.0
H704 H 0.76899 0.96298 0.24364 0.0
H705 H 0.87544 0.9733 0.29361 0.0
H706 H 0.72625 0.86831 0.20295 0.0
H707 H 0.71001 0.86428 0.26307 0.0
H708 H 0.71441 0.90322 0.22586 0.0
H709 H 0.88304 0.91988 0.30782 0.0
H710 H 0.83941 0.87652 0.32469 0.0
H711 H 0.85698 0.88198 0.26494 0.0
H712 H 0.73882 0.76955 0.33431 0.0
H713 H 0.78032 0.78374 0.19055 0.0
H714 H 0.73592 0.85887 0.33949 0.0
H715 H 0.77758 0.86045 0.36563 0.0
H716 H 0.73092 0.81796 0.37309 0.0
H717 H 0.7842 0.87465 0.16718 0.0
H718 H 0.79578 0.83937 0.14483 0.0
H719 H 0.82917 0.87797 0.18292 0.0
C720 C 0.2552 0.1831 0.74014 0.0
C721 C 0.23062 0.18078 0.77722 0.0
C722 C 0.26871 0.15684 0.73719 0.0
C723 C 0.25716 0.12739 0.77198 0.0
C724 C 0.23446 0.12651 0.81123 0.0
C725 C 0.22154 0.15333 0.81345 0.0
C726 C 0.29318 0.15903 0.69508 0.0
C727 C 0.22138 0.09546 0.84899 0.0
C728 C 0.2375 0.02877 0.73306 0.0
C729 C 0.26844 0.0267 0.75343 0.0
C730 C 0.23447 0.06196 0.73738 0.0
C731 C 0.26302 0.09396 0.76318 0.0
C732 C 0.29542 0.0928 0.782 0.0
C733 C 0.29787 0.05902 0.77671 0.0
C734 C 0.19966 0.06197 0.71613 0.0
C735 C 0.32644 0.1264 0.80959 0.0
H736 H 0.26292 0.2048 0.71254 0.0
H737 H 0.20254 0.1514 0.84213 0.0
H738 H 0.31792 0.15581 0.70694 0.0
H739 H 0.27565 0.13497 0.67014 0.0
H740 H 0.30438 0.1867 0.67527 0.0
H741 H 0.20814 0.1016 0.88008 0.0
H742 H 0.19971 0.06734 0.83342 0.0
H743 H 0.246 0.09238 0.86174 0.0
H744 H 0.21483 1.00375 0.71482 0.0
H745 H 0.32159 0.0572 0.79285 0.0
H746 H 0.20894 0.0873 0.69231 0.0
H747 H 0.18204 0.06427 0.74504 0.0
H748 H 0.18108 0.03538 0.69528 0.0
H749 H 0.33592 0.15385 0.78999 0.0
H750 H 0.35196 0.12298 0.8165 0.0
H751 H 0.31468 0.12879 0.84439 0.0
C752 C 0.9496 0.76882 0.77805 0.0
C753 C 0.9745 0.80848 0.77018 0.0
C754 C 0.90935 0.75282 0.77727 0.0
C755 C 0.89364 0.77698 0.76804 0.0
C756 C 0.91856 0.81687 0.75921 0.0
C757 C 0.95864 0.83214 0.76063 0.0
C758 C 0.88365 0.71025 0.78716 0.0
C759 C 0.9029 0.84366 0.74929 0.0
C760 C 0.78983 0.74196 0.73159 0.0
C761 C 0.77563 0.74881 0.77372 0.0
C762 C 0.8278 0.74856 0.72971 0.0
C763 C 0.85137 0.76163 0.77118 0.0
C764 C 0.8356 0.76504 0.81477 0.0
C765 C 0.79816 0.7593 0.81521 0.0
C766 C 0.84367 0.74498 0.68244 0.0
C767 C 0.85929 0.77816 0.86008 0.0
H768 H 0.96158 0.75015 0.78449 0.0
H769 H 0.9776 0.86283 0.75498 0.0
H770 H 0.86684 0.70626 0.82021 0.0
H771 H 0.86258 0.69647 0.75765 0.0
H772 H 0.90033 0.69504 0.79153 0.0
H773 H 0.92604 0.87335 0.73999 0.0
H774 H 0.88177 0.83229 0.71948 0.0
H775 H 0.88746 0.84533 0.7812 0.0
H776 H 0.77255 0.7347 0.69929 0.0
H777 H 0.78741 0.76553 0.84741 0.0
H778 H 0.86122 0.73075 0.68696 0.0
H779 H 0.86284 0.77426 0.66764 0.0
H780 H 0.82033 0.72838 0.6561 0.0
H781 H 0.87574 0.76283 0.86519 0.0
H782 H 0.84103 0.77323 0.89207 0.0
H783 H 0.88049 0.8095 0.85756 0.0
C784 C 0.96885 0.24249 0.74707 0.0
C785 C 0.99786 0.24826 0.77968 0.0
C786 C 0.93504 0.20623 0.74358 0.0
C787 C 0.93037 0.17571 0.77388 0.0
C788 C 0.9584 0.18257 0.80927 0.0
C789 C 0.99193 0.21861 0.81135 0.0
C790 C 0.90578 0.19991 0.70537 0.0
C791 C 0.9544 0.15107 0.84281 0.0
C792 C 0.8385 0.07973 0.78996 0.0
C793 C 0.84685 0.05524 0.76306 0.0
C794 C 0.86435 0.11968 0.79156 0.0
C795 C 0.89915 0.13542 0.7654 0.0
C796 C 0.90668 0.1112 0.73605 0.0
C797 C 0.8806 0.07142 0.73552 0.0
C798 C 0.85545 0.14469 0.82324 0.0
C799 C 0.94351 0.12691 0.70754 0.0
H800 H 0.9736 0.26541 0.7224 0.0
H801 H 1.01427 0.22319 0.83691 0.0
H802 H 0.90851 0.18312 0.6757 0.0
H803 H 0.87598 0.18294 0.71949 0.0
H804 H 0.91007 0.22764 0.69067 0.0
H805 H 0.97652 0.16239 0.8716 0.0
H806 H 0.9254 0.13635 0.8595 0.0
H807 H 0.95753 0.12904 0.82245 0.0
H808 H 0.8121 0.06759 0.81057 0.0
H809 H 0.88764 0.0528 0.71508 0.0
H810 H 0.86035 0.17098 0.80378 0.0
H811 H 0.87519 0.15434 0.8545 0.0
H812 H 0.82524 0.12907 0.83643 0.0
H813 H 0.94862 0.15277 0.68689 0.0
H814 H 0.94291 0.1052 0.68239 0.0
H815 H 0.96834 0.13595 0.7322 0.0
loop_
_geom_bond_atom_site_label_1
_geom_bond_atom_site_label_2
_geom_bond_distance
_geom_bond_site_symmetry_2
_ccdc_geom_bond_type
Eu0 C9 2.828 . S
Eu0 O11 2.392 . S
Eu0 O13 2.418 . S
Eu0 O18 2.373 . S
Eu0 O21 2.488 . S
Eu0 O22 2.471 . S
Eu0 O23 2.349 . S
Eu1 O10 2.373 . S
Eu1 O14 2.488 . S
Eu1 O15 2.471 . S
Eu1 O16 2.349 . S
Eu1 O19 2.392 . S
Eu1 O20 2.418 . S
Eu1 C30 2.828 . S
C2 O20 1.244 . S
C2 O23 1.265 . S
C3 C4 1.379 . S
C3 C7 1.373 . S
C3 C9 1.505 . S
C4 C3 1.379 . S
C4 C6 1.369 . S
C4 H32 0.930 . S
C5 C7 1.383 . S
C5 C8 1.382 . S
C5 H33 0.930 . S
C6 C4 1.369 . S
C6 C8 1.392 . S
C6 H34 0.930 . S
C7 C3 1.373 . S
C7 C5 1.383 . S
C7 H35 0.931 . S
C8 C5 1.382 . S
C8 C6 1.392 . S
C9 Eu0 2.828 . S
C9 C3 1.505 . S
C9 O21 1.249 . S
C9 O22 1.244 . S
O10 Eu1 2.373 . S
O10 C12 1.258 . S
O11 Eu0 2.392 . S
O11 C12 1.242 . S
C12 O10 1.258 . S
C12 O11 1.242 . S
O13 Eu0 2.418 . S
O13 C17 1.244 . S
O14 Eu1 2.488 . S
O14 C30 1.249 . S
O15 Eu1 2.471 . S
O15 C30 1.244 . S
O16 Eu1 2.349 . S
O16 C17 1.265 . S
C17 O13 1.244 . S
C17 O16 1.265 . S
O18 Eu0 2.373 . S
O18 C31 1.258 . S
O19 Eu1 2.392 . S
O19 C31 1.242 . S
O20 Eu1 2.418 . S
O20 C2 1.244 . S
O21 Eu0 2.488 . S
O21 C9 1.249 . S
O22 Eu0 2.471 . S
O22 C9 1.244 . S
O23 Eu0 2.349 . S
O23 C2 1.265 . S
C24 C25 1.379 . S
C24 C28 1.373 . S
C24 C30 1.505 . S
C25 C24 1.379 . S
C25 C27 1.369 . S
C25 H36 0.930 . S
C26 C28 1.383 . S
C26 C29 1.382 . S
C26 H37 0.930 . S
C27 C25 1.369 . S
C27 C29 1.392 . S
C27 H38 0.930 . S
C28 C24 1.373 . S
C28 C26 1.383 . S
C28 H39 0.931 . S
C29 C26 1.382 . S
C29 C27 1.392 . S
C30 Eu1 2.828 . S
C30 O14 1.249 . S
C30 O15 1.244 . S
C30 C24 1.505 . S
C31 O18 1.258 . S
C31 O19 1.242 . S
H32 C4 0.930 . S
H33 C5 0.930 . S
H34 C6 0.930 . S
H35 C7 0.931 . S
H36 C25 0.930 . S
H37 C26 0.930 . S
H38 C27 0.930 . S
H39 C28 0.931 . S
Eu40 C49 2.828 . S
Eu40 O51 2.392 . S
Eu40 O53 2.418 . S
Eu40 O58 2.373 . S
Eu40 O61 2.488 . S
Eu40 O62 2.471 . S
Eu40 O63 2.349 . S
Eu41 O50 2.373 . S
Eu41 O54 2.488 . S
Eu41 O55 2.471 . S
Eu41 O56 2.349 . S
Eu41 O59 2.392 . S
Eu41 O60 2.418 . S
Eu41 C70 2.828 . S
C42 O60 1.244 . S
C42 O63 1.265 . S
C43 C44 1.379 . S
C43 C47 1.373 . S
C43 C49 1.505 . S
C44 C43 1.379 . S
C44 C46 1.369 . S
C44 H72 0.930 . S
C45 C47 1.383 . S
C45 C48 1.382 . S
C45 H73 0.930 1_655 S
C46 C44 1.369 . S
C46 C48 1.392 . S
C46 H74 0.930 . S
C47 C43 1.373 . S
C47 C45 1.383 . S
C47 H75 0.931 . S
C48 C45 1.382 . S
C48 C46 1.392 . S
C49 Eu40 2.828 . S
C49 C43 1.505 . S
C49 O61 1.249 . S
C49 O62 1.244 . S
O50 Eu41 2.373 . S
O50 C52 1.258 . S
O51 Eu40 2.392 . S
O51 C52 1.242 . S
C52 O50 1.258 . S
C52 O51 1.242 . S
O53 Eu40 2.418 . S
O53 C57 1.244 . S
O54 Eu41 2.488 . S
O54 C70 1.249 . S
O55 Eu41 2.471 . S
O55 C70 1.244 . S
O56 Eu41 2.349 . S
O56 C57 1.265 . S
C57 O53 1.244 . S
C57 O56 1.265 . S
O58 Eu40 2.373 . S
O58 C71 1.258 . S
O59 Eu41 2.392 . S
O59 C71 1.242 . S
O60 Eu41 2.418 . S
O60 C42 1.244 . S
O61 Eu40 2.488 . S
O61 C49 1.249 . S
O62 Eu40 2.471 . S
O62 C49 1.244 . S
O63 Eu40 2.349 . S
O63 C42 1.265 . S
C64 C65 1.379 . S
C64 C68 1.373 . S
C64 C70 1.505 . S
C65 C64 1.379 . S
C65 C67 1.369 . S
C65 H76 0.930 . S
C66 C68 1.383 . S
C66 C69 1.382 . S
C66 H77 0.930 . S
C67 C65 1.369 . S
C67 C69 1.392 . S
C67 H78 0.930 . S
C68 C64 1.373 . S
C68 C66 1.383 . S
C68 H79 0.931 . S
C69 C66 1.382 . S
C69 C67 1.392 . S
C70 Eu41 2.828 . S
C70 O54 1.249 . S
C70 O55 1.244 . S
C70 C64 1.505 . S
C71 O58 1.258 . S
C71 O59 1.242 . S
H72 C44 0.930 . S
H73 C45 0.930 1_455 S
H74 C46 0.930 . S
H75 C47 0.931 . S
H76 C65 0.930 . S
H77 C66 0.930 . S
H78 C67 0.930 . S
H79 C68 0.931 . S
Eu80 C89 2.828 . S
Eu80 O91 2.392 . S
Eu80 O93 2.418 . S
Eu80 O98 2.373 . S
Eu80 O101 2.488 . S
Eu80 O102 2.471 . S
Eu80 O103 2.349 . S
Eu81 O90 2.373 . S
Eu81 O94 2.488 . S
Eu81 O95 2.471 . S
Eu81 O96 2.349 . S
Eu81 O99 2.392 . S
Eu81 O100 2.418 . S
Eu81 C110 2.828 . S
C82 O100 1.244 . S
C82 O103 1.265 . S
C83 C84 1.379 . S
C83 C87 1.373 . S
C83 C89 1.505 . S
C84 C83 1.379 . S
C84 C86 1.369 . S
C84 H112 0.930 . S
C85 C87 1.383 . S
C85 C88 1.382 . S
C85 H113 0.930 1_545 S
C86 C84 1.369 . S
C86 C88 1.392 . S
C86 H114 0.930 . S
C87 C83 1.373 . S
C87 C85 1.383 . S
C87 H115 0.931 . S
C88 C85 1.382 . S
C88 C86 1.392 . S
C89 Eu80 2.828 . S
C89 C83 1.505 . S
C89 O101 1.249 . S
C89 O102 1.244 . S
O90 Eu81 2.373 . S
O90 C92 1.258 . S
O91 Eu80 2.392 . S
O91 C92 1.242 . S
C92 O90 1.258 . S
C92 O91 1.242 . S
O93 Eu80 2.418 . S
O93 C97 1.244 . S
O94 Eu81 2.488 . S
O94 C110 1.249 . S
O95 Eu81 2.471 . S
O95 C110 1.244 . S
O96 Eu81 2.349 . S
O96 C97 1.265 . S
C97 O93 1.244 . S
C97 O96 1.265 . S
O98 Eu80 2.373 . S
O98 C111 1.258 . S
O99 Eu81 2.392 . S
O99 C111 1.242 . S
O100 Eu81 2.418 . S
O100 C82 1.244 . S
O101 Eu80 2.488 . S
O101 C89 1.249 . S
O102 Eu80 2.471 . S
O102 C89 1.244 . S
O103 Eu80 2.349 . S
O103 C82 1.265 . S
C104 C105 1.379 . S
C104 C108 1.373 . S
C104 C110 1.505 . S
C105 C104 1.379 . S
C105 C107 1.369 . S
C105 H116 0.930 . S
C106 C108 1.383 . S
C106 C109 1.382 . S
C106 H117 0.930 . S
C107 C105 1.369 . S
C107 C109 1.392 . S
C107 H118 0.930 . S
C108 C104 1.373 . S
C108 C106 1.383 . S
C108 H119 0.931 . S
C109 C106 1.382 . S
C109 C107 1.392 . S
C110 Eu81 2.828 . S
C110 O94 1.249 . S
C110 O95 1.244 . S
C110 C104 1.505 . S
C111 O98 1.258 . S
C111 O99 1.242 . S
H112 C84 0.930 . S
H113 C85 0.930 1_565 S
H114 C86 0.930 . S
H115 C87 0.931 . S
H116 C105 0.930 . S
H117 C106 0.930 . S
H118 C107 0.930 . S
H119 C108 0.931 . S
Eu120 C129 2.828 . S
Eu120 O131 2.392 . S
Eu120 O133 2.418 . S
Eu120 O138 2.373 . S
Eu120 O141 2.488 . S
Eu120 O142 2.471 . S
Eu120 O143 2.349 . S
Eu121 O130 2.373 . S
Eu121 O134 2.488 . S
Eu121 O135 2.471 . S
Eu121 O136 2.349 . S
Eu121 O139 2.392 . S
Eu121 O140 2.418 . S
Eu121 C150 2.828 . S
C122 O140 1.244 . S
C122 O143 1.265 . S
C123 C124 1.379 . S
C123 C127 1.373 . S
C123 C129 1.505 . S
C124 C123 1.379 . S
C124 C126 1.369 . S
C124 H152 0.930 . S
C125 C127 1.383 . S
C125 C128 1.382 . S
C125 H153 0.930 . S
C126 C124 1.369 . S
C126 C128 1.392 . S
C126 H154 0.930 . S
C127 C123 1.373 . S
C127 C125 1.383 . S
C127 H155 0.931 . S
C128 C125 1.382 . S
C128 C126 1.392 . S
C129 Eu120 2.828 . S
C129 C123 1.505 . S
C129 O141 1.249 . S
C129 O142 1.244 . S
O130 Eu121 2.373 . S
O130 C132 1.258 . S
O131 Eu120 2.392 . S
O131 C132 1.242 . S
C132 O130 1.258 . S
C132 O131 1.242 . S
O133 Eu120 2.418 . S
O133 C137 1.244 . S
O134 Eu121 2.488 . S
O134 C150 1.249 . S
O135 Eu121 2.471 . S
O135 C150 1.244 . S
O136 Eu121 2.349 . S
O136 C137 1.265 . S
C137 O133 1.244 . S
C137 O136 1.265 . S
O138 Eu120 2.373 . S
O138 C151 1.258 . S
O139 Eu121 2.392 . S
O139 C151 1.242 . S
O140 Eu121 2.418 . S
O140 C122 1.244 . S
O141 Eu120 2.488 . S
O141 C129 1.249 . S
O142 Eu120 2.471 . S
O142 C129 1.244 . S
O143 Eu120 2.349 . S
O143 C122 1.265 . S
C144 C145 1.379 . S
C144 C148 1.373 . S
C144 C150 1.505 . S
C145 C144 1.379 . S
C145 C147 1.369 . S
C145 H156 0.930 . S
C146 C148 1.383 . S
C146 C149 1.382 . S
C146 H157 0.930 . S
C147 C145 1.369 . S
C147 C149 1.392 . S
C147 H158 0.930 . S
C148 C144 1.373 . S
C148 C146 1.383 . S
C148 H159 0.931 . S
C149 C146 1.382 . S
C149 C147 1.392 . S
C150 Eu121 2.828 . S
C150 O134 1.249 . S
C150 O135 1.244 . S
C150 C144 1.505 . S
C151 O138 1.258 . S
C151 O139 1.242 . S
H152 C124 0.930 . S
H153 C125 0.930 . S
H154 C126 0.930 . S
H155 C127 0.931 . S
H156 C145 0.930 . S
H157 C146 0.930 . S
H158 C147 0.930 . S
H159 C148 0.931 . S
Eu160 C169 2.828 . S
Eu160 O171 2.392 . S
Eu160 O173 2.418 . S
Eu160 O178 2.373 . S
Eu160 O181 2.488 . S
Eu160 O182 2.471 . S
Eu160 O183 2.349 . S
Eu161 O170 2.373 . S
Eu161 O174 2.488 . S
Eu161 O175 2.471 . S
Eu161 O176 2.349 . S
Eu161 O179 2.392 . S
Eu161 O180 2.418 . S
Eu161 C190 2.828 . S
C162 O180 1.244 . S
C162 O183 1.265 . S
C163 C164 1.379 . S
C163 C167 1.373 . S
C163 C169 1.505 . S
C164 C163 1.379 . S
C164 C166 1.369 . S
C164 H192 0.930 . S
C165 C167 1.383 . S
C165 C168 1.382 . S
C165 H193 0.930 . S
C166 C164 1.369 . S
C166 C168 1.392 . S
C166 H194 0.930 . S
C167 C163 1.373 . S
C167 C165 1.383 . S
C167 H195 0.931 . S
C168 C165 1.382 . S
C168 C166 1.392 . S
C169 Eu160 2.828 . S
C169 C163 1.505 . S
C169 O181 1.249 . S
C169 O182 1.244 . S
O170 Eu161 2.373 . S
O170 C172 1.258 . S
O171 Eu160 2.392 . S
O171 C172 1.242 . S
C172 O170 1.258 . S
C172 O171 1.242 . S
O173 Eu160 2.418 . S
O173 C177 1.244 . S
O174 Eu161 2.488 . S
O174 C190 1.249 . S
O175 Eu161 2.471 . S
O175 C190 1.244 . S
O176 Eu161 2.349 . S
O176 C177 1.265 . S
C177 O173 1.244 . S
C177 O176 1.265 . S
O178 Eu160 2.373 . S
O178 C191 1.258 . S
O179 Eu161 2.392 . S
O179 C191 1.242 . S
O180 Eu161 2.418 . S
O180 C162 1.244 . S
O181 Eu160 2.488 . S
O181 C169 1.249 . S
O182 Eu160 2.471 . S
O182 C169 1.244 . S
O183 Eu160 2.349 . S
O183 C162 1.265 . S
C184 C185 1.379 . S
C184 C188 1.373 . S
C184 C190 1.505 . S
C185 C184 1.379 . S
C185 C187 1.369 . S
C185 H196 0.930 . S
C186 C188 1.383 . S
C186 C189 1.382 . S
C186 H197 0.930 1_455 S
C187 C185 1.369 . S
C187 C189 1.392 . S
C187 H198 0.930 . S
C188 C184 1.373 . S
C188 C186 1.383 . S
C188 H199 0.931 . S
C189 C186 1.382 . S
C189 C187 1.392 . S
C190 Eu161 2.828 . S
C190 O174 1.249 . S
C190 O175 1.244 . S
C190 C184 1.505 . S
C191 O178 1.258 . S
C191 O179 1.242 . S
H192 C164 0.930 . S
H193 C165 0.930 . S
H194 C166 0.930 . S
H195 C167 0.931 . S
H196 C185 0.930 . S
H197 C186 0.930 1_655 S
H198 C187 0.930 . S
H199 C188 0.931 . S
Eu200 C209 2.828 . S
Eu200 O211 2.392 . S
Eu200 O213 2.418 . S
Eu200 O218 2.373 . S
Eu200 O221 2.488 . S
Eu200 O222 2.471 . S
Eu200 O223 2.349 . S
Eu201 O210 2.373 . S
Eu201 O214 2.488 . S
Eu201 O215 2.471 . S
Eu201 O216 2.349 . S
Eu201 O219 2.392 . S
Eu201 O220 2.418 . S
Eu201 C230 2.828 . S
C202 O220 1.244 . S
C202 O223 1.265 . S
C203 C204 1.379 . S
C203 C207 1.373 . S
C203 C209 1.505 . S
C204 C203 1.379 . S
C204 C206 1.369 . S
C204 H232 0.930 . S
C205 C207 1.383 . S
C205 C208 1.382 . S
C205 H233 0.930 . S
C206 C204 1.369 . S
C206 C208 1.392 . S
C206 H234 0.930 . S
C207 C203 1.373 . S
C207 C205 1.383 . S
C207 H235 0.931 . S
C208 C205 1.382 . S
C208 C206 1.392 . S
C209 Eu200 2.828 . S
C209 C203 1.505 . S
C209 O221 1.249 . S
C209 O222 1.244 . S
O210 Eu201 2.373 . S
O210 C212 1.258 . S
O211 Eu200 2.392 . S
O211 C212 1.242 . S
C212 O210 1.258 . S
C212 O211 1.242 . S
O213 Eu200 2.418 . S
O213 C217 1.244 . S
O214 Eu201 2.488 . S
O214 C230 1.249 . S
O215 Eu201 2.471 . S
O215 C230 1.244 . S
O216 Eu201 2.349 . S
O216 C217 1.265 . S
C217 O213 1.244 . S
C217 O216 1.265 . S
O218 Eu200 2.373 . S
O218 C231 1.258 . S
O219 Eu201 2.392 . S
O219 C231 1.242 . S
O220 Eu201 2.418 . S
O220 C202 1.244 . S
O221 Eu200 2.488 . S
O221 C209 1.249 . S
O222 Eu200 2.471 . S
O222 C209 1.244 . S
O223 Eu200 2.349 . S
O223 C202 1.265 . S
C224 C225 1.379 . S
C224 C228 1.373 . S
C224 C230 1.505 . S
C225 C224 1.379 . S
C225 C227 1.369 . S
C225 H236 0.930 . S
C226 C228 1.383 . S
C226 C229 1.382 . S
C226 H237 0.930 1_565 S
C227 C225 1.369 . S
C227 C229 1.392 . S
C227 H238 0.930 . S
C228 C224 1.373 . S
C228 C226 1.383 . S
C228 H239 0.931 . S
C229 C226 1.382 . S
C229 C227 1.392 . S
C230 Eu201 2.828 . S
C230 O214 1.249 . S
C230 O215 1.244 . S
C230 C224 1.505 . S
C231 O218 1.258 . S
C231 O219 1.242 . S
H232 C204 0.930 . S
H233 C205 0.930 . S
H234 C206 0.930 . S
H235 C207 0.931 . S
H236 C225 0.930 . S
H237 C226 0.930 1_545 S
H238 C227 0.930 . S
H239 C228 0.931 . S
C240 C241 1.391 . S
C240 C242 1.394 . S
C240 H256 0.931 . S
C241 C240 1.391 . S
C241 C245 1.376 . S
C242 C240 1.394 . S
C242 C243 1.369 . S
C242 C246 1.531 1_565 S
C243 C242 1.369 . S
C243 C244 1.410 . S
C243 C251 1.503 1_566 S
C244 C243 1.410 . S
C244 C245 1.392 . S
C244 C247 1.511 1_556 S
C245 C241 1.376 . S
C245 C244 1.392 . S
C245 H257 0.929 . S
C246 C242 1.531 1_545 S
C246 H258 0.960 . S
C246 H259 0.962 . S
C246 H260 0.960 . S
C247 C244 1.511 1_554 S
C247 H261 0.961 . S
C247 H262 0.961 . S
C247 H263 0.961 . S
C248 C249 1.370 . S
C248 C250 1.363 . S
C248 H264 0.931 . S
C249 C248 1.370 . S
C249 C253 1.408 . S
C250 C248 1.363 . S
C250 C251 1.370 . S
C250 C254 1.524 1_545 S
C251 C243 1.503 1_544 S
C251 C250 1.370 . S
C251 C252 1.403 . S
C252 C251 1.403 . S
C252 C253 1.404 . S
C252 C255 1.539 1_554 S
C253 C249 1.408 . S
C253 C252 1.404 . S
C253 H265 0.930 . S
C254 C250 1.524 1_565 S
C254 H266 0.956 . S
C254 H267 0.961 . S
C254 H268 0.961 . S
C255 C252 1.539 1_556 S
C255 H269 0.958 . S
C255 H270 0.961 . S
C255 H271 0.960 . S
H256 C240 0.931 . S
H257 C245 0.929 . S
H258 C246 0.960 . S
H259 C246 0.962 . S
H260 C246 0.960 . S
H261 C247 0.961 . S
H262 C247 0.961 . S
H263 C247 0.961 . S
H264 C248 0.931 . S
H265 C253 0.930 . S
H266 C254 0.956 . S
H267 C254 0.961 . S
H268 C254 0.961 . S
H269 C255 0.958 . S
H270 C255 0.961 . S
H271 C255 0.960 . S
C272 C273 1.391 . S
C272 C274 1.394 . S
C272 H288 0.931 . S
C273 C272 1.391 . S
C273 C277 1.376 . S
C274 C272 1.394 . S
C274 C275 1.369 . S
C274 C278 1.531 . S
C275 C274 1.369 . S
C275 C276 1.410 . S
C275 C283 1.503 . S
C276 C275 1.410 . S
C276 C277 1.392 . S
C276 C279 1.511 . S
C277 C273 1.376 . S
C277 C276 1.392 . S
C277 H289 0.929 . S
C278 C274 1.531 . S
C278 H290 0.960 . S
C278 H291 0.962 . S
C278 H292 0.960 . S
C279 C276 1.511 . S
C279 H293 0.961 . S
C279 H294 0.961 . S
C279 H295 0.961 . S
C280 C281 1.370 . S
C280 C282 1.363 . S
C280 H296 0.931 . S
C281 C280 1.370 . S
C281 C285 1.408 . S
C282 C280 1.363 . S
C282 C283 1.370 . S
C282 C286 1.524 . S
C283 C275 1.503 . S
C283 C282 1.370 . S
C283 C284 1.403 . S
C284 C283 1.403 . S
C284 C285 1.404 . S
C284 C287 1.539 . S
C285 C281 1.408 . S
C285 C284 1.404 . S
C285 H297 0.930 . S
C286 C282 1.524 . S
C286 H298 0.956 . S
C286 H299 0.961 . S
C286 H300 0.961 . S
C287 C284 1.539 . S
C287 H301 0.958 . S
C287 H302 0.961 . S
C287 H303 0.960 . S
H288 C272 0.931 . S
H289 C277 0.929 . S
H290 C278 0.960 . S
H291 C278 0.962 . S
H292 C278 0.960 . S
H293 C279 0.961 . S
H294 C279 0.961 . S
H295 C279 0.961 . S
H296 C280 0.931 . S
H297 C285 0.930 . S
H298 C286 0.956 . S
H299 C286 0.961 . S
H300 C286 0.961 . S
H301 C287 0.958 . S
H302 C287 0.961 . S
H303 C287 0.960 . S
C304 C305 1.391 . S
C304 C306 1.394 . S
C304 H320 0.931 . S
C305 C304 1.391 . S
C305 C309 1.376 . S
C306 C304 1.394 . S
C306 C307 1.369 . S
C306 C310 1.531 1_655 S
C307 C306 1.369 . S
C307 C308 1.410 . S
C307 C315 1.503 1_654 S
C308 C307 1.410 . S
C308 C309 1.392 . S
C308 C311 1.511 1_554 S
C309 C305 1.376 . S
C309 C308 1.392 . S
C309 H321 0.929 . S
C310 C306 1.531 1_455 S
C310 H322 0.967 . S
C310 H323 0.962 . S
C310 H324 0.960 1_455 S
C311 C308 1.511 1_556 S
C311 H325 0.961 1_556 S
C311 H326 0.961 . S
C311 H327 0.961 . S
C312 C313 1.370 . S
C312 C314 1.363 . S
C312 H328 0.931 . S
C313 C312 1.370 . S
C313 C317 1.408 . S
C314 C312 1.363 . S
C314 C315 1.370 . S
C314 C318 1.524 1_556 S
C315 C307 1.503 1_456 S
C315 C314 1.370 . S
C315 C316 1.403 . S
C316 C315 1.403 . S
C316 C317 1.404 . S
C316 C319 1.539 1_455 S
C317 C313 1.408 . S
C317 C316 1.404 . S
C317 H329 0.930 . S
C318 C314 1.524 1_554 S
C318 H330 0.956 . S
C318 H331 0.961 . S
C318 H332 0.961 . S
C319 C316 1.539 1_655 S
C319 H333 0.958 . S
C319 H334 0.961 . S
C319 H335 0.960 . S
H320 C304 0.931 . S
H321 C309 0.929 . S
H322 C310 0.967 . S
H323 C310 0.962 . S
H324 C310 0.960 1_655 S
H325 C311 0.961 1_554 S
H326 C311 0.961 . S
H327 C311 0.961 . S
H328 C312 0.931 . S
H329 C317 0.930 . S
H330 C318 0.956 . S
H331 C318 0.961 . S
H332 C318 0.961 . S
H333 C319 0.958 . S
H334 C319 0.961 . S
H335 C319 0.960 . S
C336 C337 1.391 . S
C336 C338 1.394 . S
C336 H352 0.931 . S
C337 C336 1.391 . S
C337 C341 1.376 . S
C338 C336 1.394 . S
C338 C339 1.369 . S
C338 C342 1.531 . S
C339 C338 1.369 . S
C339 C340 1.410 . S
C339 C347 1.503 1_545 S
C340 C339 1.410 . S
C340 C341 1.392 . S
C340 C343 1.511 1_545 S
C341 C337 1.376 . S
C341 C340 1.392 . S
C341 H353 0.929 . S
C342 C338 1.531 . S
C342 H354 0.960 . S
C342 H355 0.962 . S
C342 H356 0.960 . S
C343 C340 1.511 1_565 S
C343 H357 0.961 . S
C343 H358 0.961 . S
C343 H359 0.961 . S
C344 C345 1.370 . S
C344 C346 1.363 . S
C344 H360 0.931 . S
C345 C344 1.370 . S
C345 C349 1.408 . S
C346 C344 1.363 . S
C346 C347 1.370 . S
C346 C350 1.524 . S
C347 C339 1.503 1_565 S
C347 C346 1.370 . S
C347 C348 1.403 . S
C348 C347 1.403 . S
C348 C349 1.404 . S
C348 C351 1.539 1_565 S
C349 C345 1.408 . S
C349 C348 1.404 . S
C349 H361 0.930 . S
C350 C346 1.524 . S
C350 H362 0.956 . S
C350 H363 0.961 . S
C350 H364 0.961 . S
C351 C348 1.539 1_545 S
C351 H365 0.958 . S
C351 H366 0.961 . S
C351 H367 0.960 . S
H352 C336 0.931 . S
H353 C341 0.929 . S
H354 C342 0.960 . S
H355 C342 0.962 . S
H356 C342 0.960 . S
H357 C343 0.961 . S
H358 C343 0.961 . S
H359 C343 0.961 . S
H360 C344 0.931 . S
H361 C349 0.930 . S
H362 C350 0.956 . S
H363 C350 0.961 . S
H364 C350 0.961 . S
H365 C351 0.958 . S
H366 C351 0.961 . S
H367 C351 0.960 . S
C368 C369 1.391 . S
C368 C370 1.394 . S
C368 H384 0.931 . S
C369 C368 1.391 . S
C369 C373 1.376 . S
C370 C368 1.394 . S
C370 C371 1.369 . S
C370 C374 1.531 . S
C371 C370 1.369 . S
C371 C372 1.410 . S
C371 C379 1.503 1_556 S
C372 C371 1.410 . S
C372 C373 1.392 . S
C372 C375 1.511 1_556 S
C373 C369 1.376 . S
C373 C372 1.392 . S
C373 H385 0.929 . S
C374 C370 1.531 . S
C374 H386 0.960 . S
C374 H387 0.962 . S
C374 H388 0.960 . S
C375 C372 1.511 1_554 S
C375 H389 0.961 . S
C375 H390 0.961 . S
C375 H391 0.961 . S
C376 C377 1.370 . S
C376 C378 1.363 . S
C376 H392 0.931 . S
C377 C376 1.370 . S
C377 C381 1.408 . S
C378 C376 1.363 . S
C378 C379 1.370 . S
C378 C382 1.524 1_554 S
C379 C371 1.503 1_554 S
C379 C378 1.370 . S
C379 C380 1.403 . S
C380 C379 1.403 . S
C380 C381 1.404 . S
C380 C383 1.539 . S
C381 C377 1.408 . S
C381 C380 1.404 . S
C381 H393 0.930 . S
C382 C378 1.524 1_556 S
C382 H394 0.956 . S
C382 H395 0.961 . S
C382 H396 0.961 1_556 S
C383 C380 1.539 . S
C383 H397 0.958 . S
C383 H398 0.961 . S
C383 H399 0.960 . S
H384 C368 0.931 . S
H385 C373 0.929 . S
H386 C374 0.960 . S
H387 C374 0.962 . S
H388 C374 0.960 . S
H389 C375 0.961 . S
H390 C375 0.961 . S
H391 C375 0.961 . S
H392 C376 0.931 . S
H393 C381 0.930 . S
H394 C382 0.956 . S
H395 C382 0.961 . S
H396 C382 0.961 1_554 S
H397 C383 0.958 . S
H398 C383 0.961 . S
H399 C383 0.960 . S
C400 C401 1.391 . S
C400 C402 1.394 . S
C400 H416 0.931 . S
C401 C400 1.391 . S
C401 C405 1.376 . S
C402 C400 1.394 . S
C402 C403 1.369 . S
C402 C406 1.531 . S
C403 C402 1.369 . S
C403 C404 1.410 . S
C403 C411 1.503 1_655 S
C404 C403 1.410 . S
C404 C405 1.393 . S
C404 C407 1.511 1_655 S
C405 C401 1.376 . S
C405 C404 1.393 . S
C405 H417 0.929 . S
C406 C402 1.531 . S
C406 H418 0.960 . S
C406 H419 0.962 . S
C406 H420 0.960 . S
C407 C404 1.511 1_455 S
C407 H421 0.961 . S
C407 H422 0.961 . S
C407 H423 0.961 . S
C408 C409 1.370 . S
C408 C410 1.363 . S
C408 H424 0.931 . S
C409 C408 1.370 . S
C409 C413 1.408 . S
C410 C408 1.363 . S
C410 C411 1.370 . S
C410 C414 1.524 . S
C411 C403 1.503 1_455 S
C411 C410 1.370 . S
C411 C412 1.403 . S
C412 C411 1.403 . S
C412 C413 1.404 . S
C412 C415 1.539 . S
C413 C409 1.408 . S
C413 C412 1.404 . S
C413 H425 0.930 . S
C414 C410 1.524 . S
C414 H426 0.956 1_455 S
C414 H427 0.961 . S
C414 H428 0.961 . S
C415 C412 1.539 . S
C415 H429 0.958 1_455 S
C415 H430 0.961 . S
C415 H431 0.960 . S
H416 C400 0.931 . S
H417 C405 0.929 . S
H418 C406 0.960 . S
H419 C406 0.962 . S
H420 C406 0.960 . S
H421 C407 0.961 . S
H422 C407 0.961 . S
H423 C407 0.961 . S
H424 C408 0.931 . S
H425 C413 0.930 . S
H426 C414 0.956 1_655 S
H427 C414 0.961 . S
H428 C414 0.961 . S
H429 C415 0.958 1_655 S
H430 C415 0.961 . S
H431 C415 0.960 . S
C432 C433 1.391 . S
C432 C434 1.394 . S
C432 H448 0.931 . S
C433 C432 1.391 . S
C433 C437 1.376 . S
C434 C432 1.394 . S
C434 C435 1.369 . S
C434 C438 1.531 . S
C435 C434 1.369 . S
C435 C436 1.410 . S
C435 C443 1.503 . S
C436 C435 1.410 . S
C436 C437 1.392 . S
C436 C439 1.511 . S
C437 C433 1.376 . S
C437 C436 1.392 . S
C437 H449 0.929 . S
C438 C434 1.531 . S
C438 H450 0.960 . S
C438 H451 0.962 . S
C438 H452 0.960 . S
C439 C436 1.511 . S
C439 H453 0.961 . S
C439 H454 0.961 . S
C439 H455 0.961 . S
C440 C441 1.370 . S
C440 C442 1.363 . S
C440 H456 0.931 . S
C441 C440 1.370 . S
C441 C445 1.408 . S
C442 C440 1.363 . S
C442 C443 1.370 . S
C442 C446 1.524 . S
C443 C435 1.503 . S
C443 C442 1.370 . S
C443 C444 1.403 . S
C444 C443 1.403 . S
C444 C445 1.404 . S
C444 C447 1.539 . S
C445 C441 1.408 . S
C445 C444 1.404 . S
C445 H457 0.930 . S
C446 C442 1.524 . S
C446 H458 0.956 . S
C446 H459 0.961 . S
C446 H460 0.961 . S
C447 C444 1.539 . S
C447 H461 0.958 . S
C447 H462 0.961 . S
C447 H463 0.960 . S
H448 C432 0.931 . S
H449 C437 0.929 . S
H450 C438 0.960 . S
H451 C438 0.962 . S
H452 C438 0.960 . S
H453 C439 0.961 . S
H454 C439 0.961 . S
H455 C439 0.961 . S
H456 C440 0.931 . S
H457 C445 0.930 . S
H458 C446 0.956 . S
H459 C446 0.961 . S
H460 C446 0.961 . S
H461 C447 0.958 . S
H462 C447 0.961 . S
H463 C447 0.960 . S
C464 C465 1.391 . S
C464 C466 1.394 . S
C464 H480 0.931 . S
C465 C464 1.391 . S
C465 C469 1.376 . S
C466 C464 1.394 . S
C466 C467 1.369 . S
C466 C470 1.531 . S
C467 C466 1.369 . S
C467 C468 1.410 . S
C467 C475 1.503 . S
C468 C467 1.410 . S
C468 C469 1.392 . S
C468 C471 1.511 . S
C469 C465 1.376 . S
C469 C468 1.392 . S
C469 H481 0.929 . S
C470 C466 1.531 . S
C470 H482 0.960 . S
C470 H483 0.962 . S
C470 H484 0.960 . S
C471 C468 1.511 . S
C471 H485 0.961 . S
C471 H486 0.961 . S
C471 H487 0.961 . S
C472 C473 1.370 . S
C472 C474 1.363 . S
C472 H488 0.931 . S
C473 C472 1.370 . S
C473 C477 1.408 . S
C474 C472 1.363 . S
C474 C475 1.370 . S
C474 C478 1.524 . S
C475 C467 1.503 . S
C475 C474 1.370 . S
C475 C476 1.403 . S
C476 C475 1.403 . S
C476 C477 1.404 . S
C476 C479 1.539 . S
C477 C473 1.408 . S
C477 C476 1.404 . S
C477 H489 0.930 . S
C478 C474 1.524 . S
C478 H490 0.956 . S
C478 H491 0.961 . S
C478 H492 0.961 . S
C479 C476 1.539 . S
C479 H493 0.958 . S
C479 H494 0.961 . S
C479 H495 0.960 . S
H480 C464 0.931 . S
H481 C469 0.929 . S
H482 C470 0.960 . S
H483 C470 0.962 . S
H484 C470 0.960 . S
H485 C471 0.961 . S
H486 C471 0.961 . S
H487 C471 0.961 . S
H488 C472 0.931 . S
H489 C477 0.930 . S
H490 C478 0.956 . S
H491 C478 0.961 . S
H492 C478 0.961 . S
H493 C479 0.958 . S
H494 C479 0.961 . S
H495 C479 0.960 . S
C496 C497 1.391 . S
C496 C498 1.394 . S
C496 H512 0.931 . S
C497 C496 1.391 . S
C497 C501 1.376 . S
C498 C496 1.394 . S
C498 C499 1.369 . S
C498 C502 1.531 . S
C499 C498 1.369 . S
C499 C500 1.410 . S
C499 C507 1.503 . S
C500 C499 1.410 . S
C500 C501 1.392 . S
C500 C503 1.511 . S
C501 C497 1.376 . S
C501 C500 1.392 . S
C501 H513 0.929 . S
C502 C498 1.531 . S
C502 H514 0.960 . S
C502 H515 0.962 . S
C502 H516 0.960 . S
C503 C500 1.511 . S
C503 H517 0.961 . S
C503 H518 0.961 . S
C503 H519 0.961 . S
C504 C505 1.370 . S
C504 C506 1.363 . S
C504 H520 0.931 . S
C505 C504 1.370 . S
C505 C509 1.408 . S
C506 C504 1.363 . S
C506 C507 1.370 . S
C506 C510 1.524 . S
C507 C499 1.503 . S
C507 C506 1.370 . S
C507 C508 1.403 . S
C508 C507 1.403 . S
C508 C509 1.404 . S
C508 C511 1.539 . S
C509 C505 1.408 . S
C509 C508 1.404 . S
C509 H521 0.930 . S
C510 C506 1.524 . S
C510 H522 0.956 . S
C510 H523 0.961 . S
C510 H524 0.961 . S
C511 C508 1.539 . S
C511 H525 0.958 . S
C511 H526 0.961 . S
C511 H527 0.960 . S
H512 C496 0.931 . S
H513 C501 0.929 . S
H514 C502 0.960 . S
H515 C502 0.962 . S
H516 C502 0.960 . S
H517 C503 0.961 . S
H518 C503 0.961 . S
H519 C503 0.961 . S
H520 C504 0.931 . S
H521 C509 0.930 . S
H522 C510 0.956 . S
H523 C510 0.961 . S
H524 C510 0.961 . S
H525 C511 0.958 . S
H526 C511 0.961 . S
H527 C511 0.960 . S
C528 C529 1.391 . S
C528 C530 1.394 . S
C528 H544 0.931 . S
C529 C528 1.391 . S
C529 C533 1.376 . S
C530 C528 1.394 . S
C530 C531 1.369 . S
C530 C534 1.531 . S
C531 C530 1.369 . S
C531 C532 1.410 . S
C531 C539 1.503 . S
C532 C531 1.410 . S
C532 C533 1.392 . S
C532 C535 1.511 . S
C533 C529 1.376 . S
C533 C532 1.392 . S
C533 H545 0.929 . S
C534 C530 1.531 . S
C534 H546 0.960 . S
C534 H547 0.962 . S
C534 H548 0.960 . S
C535 C532 1.511 . S
C535 H549 0.961 . S
C535 H550 0.961 . S
C535 H551 0.961 . S
C536 C537 1.370 . S
C536 C538 1.363 . S
C536 H552 0.931 . S
C537 C536 1.370 . S
C537 C541 1.408 . S
C538 C536 1.363 . S
C538 C539 1.370 . S
C538 C542 1.524 . S
C539 C531 1.503 . S
C539 C538 1.370 . S
C539 C540 1.403 . S
C540 C539 1.403 . S
C540 C541 1.404 . S
C540 C543 1.539 . S
C541 C537 1.408 . S
C541 C540 1.404 . S
C541 H553 0.930 . S
C542 C538 1.524 . S
C542 H554 0.956 . S
C542 H555 0.961 . S
C542 H556 0.961 . S
C543 C540 1.539 . S
C543 H557 0.958 . S
C543 H558 0.961 . S
C543 H559 0.960 . S
H544 C528 0.931 . S
H545 C533 0.929 . S
H546 C534 0.960 . S
H547 C534 0.962 . S
H548 C534 0.960 . S
H549 C535 0.961 . S
H550 C535 0.961 . S
H551 C535 0.961 . S
H552 C536 0.931 . S
H553 C541 0.930 . S
H554 C542 0.956 . S
H555 C542 0.961 . S
H556 C542 0.961 . S
H557 C543 0.958 . S
H558 C543 0.961 . S
H559 C543 0.960 . S
C560 C561 1.391 . S
C560 C562 1.394 . S
C560 H576 0.931 . S
C561 C560 1.391 . S
C561 C565 1.376 . S
C562 C560 1.394 . S
C562 C563 1.369 . S
C562 C566 1.531 . S
C563 C562 1.369 . S
C563 C564 1.410 . S
C563 C571 1.503 . S
C564 C563 1.410 . S
C564 C565 1.392 . S
C564 C567 1.511 . S
C565 C561 1.376 . S
C565 C564 1.392 . S
C565 H577 0.929 . S
C566 C562 1.531 . S
C566 H578 0.960 . S
C566 H579 0.962 . S
C566 H580 0.960 . S
C567 C564 1.511 . S
C567 H581 0.961 . S
C567 H582 0.961 . S
C567 H583 0.961 . S
C568 C569 1.370 . S
C568 C570 1.363 . S
C568 H584 0.931 . S
C569 C568 1.370 . S
C569 C573 1.408 . S
C570 C568 1.363 . S
C570 C571 1.370 . S
C570 C574 1.524 . S
C571 C563 1.503 . S
C571 C570 1.370 . S
C571 C572 1.403 . S
C572 C571 1.403 . S
C572 C573 1.404 . S
C572 C575 1.539 . S
C573 C569 1.408 . S
C573 C572 1.404 . S
C573 H585 0.930 . S
C574 C570 1.524 . S
C574 H586 0.956 . S
C574 H587 0.961 . S
C574 H588 0.961 . S
C575 C572 1.539 . S
C575 H589 0.958 . S
C575 H590 0.961 . S
C575 H591 0.960 . S
H576 C560 0.931 . S
H577 C565 0.929 . S
H578 C566 0.960 . S
H579 C566 0.962 . S
H580 C566 0.960 . S
H581 C567 0.961 . S
H582 C567 0.961 . S
H583 C567 0.961 . S
H584 C568 0.931 . S
H585 C573 0.930 . S
H586 C574 0.956 . S
H587 C574 0.961 . S
H588 C574 0.961 . S
H589 C575 0.958 . S
H590 C575 0.961 . S
H591 C575 0.960 . S
C592 C593 1.391 . S
C592 C594 1.394 . S
C592 H608 0.931 . S
C593 C592 1.391 . S
C593 C597 1.376 . S
C594 C592 1.394 . S
C594 C595 1.369 . S
C594 C598 1.531 . S
C595 C594 1.369 . S
C595 C596 1.410 . S
C595 C603 1.503 . S
C596 C595 1.410 . S
C596 C597 1.392 . S
C596 C599 1.511 . S
C597 C593 1.376 . S
C597 C596 1.392 . S
C597 H609 0.929 . S
C598 C594 1.531 . S
C598 H610 0.960 . S
C598 H611 0.962 . S
C598 H612 0.960 . S
C599 C596 1.511 . S
C599 H613 0.961 . S
C599 H614 0.961 . S
C599 H615 0.961 . S
C600 C601 1.370 . S
C600 C602 1.363 . S
C600 H616 0.931 . S
C601 C600 1.370 . S
C601 C605 1.408 . S
C602 C600 1.363 . S
C602 C603 1.370 . S
C602 C606 1.524 . S
C603 C595 1.503 . S
C603 C602 1.370 . S
C603 C604 1.403 . S
C604 C603 1.403 . S
C604 C605 1.404 . S
C604 C607 1.539 . S
C605 C601 1.408 . S
C605 C604 1.404 . S
C605 H617 0.930 . S
C606 C602 1.524 . S
C606 H618 0.956 . S
C606 H619 0.961 . S
C606 H620 0.961 . S
C607 C604 1.539 . S
C607 H621 0.958 . S
C607 H622 0.961 . S
C607 H623 0.960 . S
H608 C592 0.931 . S
H609 C597 0.929 . S
H610 C598 0.960 . S
H611 C598 0.962 . S
H612 C598 0.960 . S
H613 C599 0.961 . S
H614 C599 0.961 . S
H615 C599 0.961 . S
H616 C600 0.931 . S
H617 C605 0.930 . S
H618 C606 0.956 . S
H619 C606 0.961 . S
H620 C606 0.961 . S
H621 C607 0.958 . S
H622 C607 0.961 . S
H623 C607 0.960 . S
C624 C625 1.391 . S
C624 C626 1.394 . S
C624 H640 0.931 . S
C625 C624 1.391 . S
C625 C629 1.376 . S
C626 C624 1.394 . S
C626 C627 1.369 . S
C626 C630 1.531 . S
C627 C626 1.369 . S
C627 C628 1.410 . S
C627 C635 1.503 . S
C628 C627 1.410 . S
C628 C629 1.392 . S
C628 C631 1.511 1_455 S
C629 C625 1.376 . S
C629 C628 1.392 . S
C629 H641 0.929 . S
C630 C626 1.531 . S
C630 H642 0.960 . S
C630 H643 0.962 . S
C630 H644 0.960 . S
C631 C628 1.511 1_655 S
C631 H645 0.961 1_655 S
C631 H646 0.961 . S
C631 H647 0.961 . S
C632 C633 1.370 1_455 S
C632 C634 1.363 . S
C632 H648 0.931 . S
C633 C632 1.370 1_655 S
C633 C637 1.408 . S
C634 C632 1.363 . S
C634 C635 1.370 . S
C634 C638 1.524 . S
C635 C627 1.503 . S
C635 C634 1.370 . S
C635 C636 1.403 1_455 S
C636 C635 1.403 1_655 S
C636 C637 1.404 . S
C636 C639 1.539 . S
C637 C633 1.408 . S
C637 C636 1.404 . S
C637 H649 0.930 . S
C638 C634 1.524 . S
C638 H650 0.956 . S
C638 H651 0.961 . S
C638 H652 0.961 . S
C639 C636 1.539 . S
C639 H653 0.958 . S
C639 H654 0.961 . S
C639 H655 0.960 . S
H640 C624 0.931 . S
H641 C629 0.929 . S
H642 C630 0.960 . S
H643 C630 0.962 . S
H644 C630 0.960 . S
H645 C631 0.961 1_455 S
H646 C631 0.961 . S
H647 C631 0.961 . S
H648 C632 0.931 . S
H649 C637 0.930 . S
H650 C638 0.956 . S
H651 C638 0.961 . S
H652 C638 0.961 . S
H653 C639 0.958 . S
H654 C639 0.961 . S
H655 C639 0.960 . S
C656 C657 1.391 . S
C656 C658 1.394 . S
C656 H672 0.931 . S
C657 C656 1.391 . S
C657 C661 1.376 . S
C658 C656 1.394 . S
C658 C659 1.369 . S
C658 C662 1.531 . S
C659 C658 1.369 . S
C659 C660 1.410 . S
C659 C667 1.503 . S
C660 C659 1.410 . S
C660 C661 1.392 . S
C660 C663 1.517 . S
C661 C657 1.376 . S
C661 C660 1.392 . S
C661 H673 0.929 . S
C662 C658 1.531 . S
C662 H674 0.960 . S
C662 H675 0.962 . S
C662 H676 0.960 . S
C663 C660 1.517 . S
C663 H677 0.960 . S
C663 H678 0.966 1_565 S
C663 H679 0.950 1_565 S
C664 C665 1.370 1_565 S
C664 C666 1.363 . S
C664 H680 0.931 . S
C665 C664 1.370 1_545 S
C665 C669 1.408 . S
C666 C664 1.363 . S
C666 C667 1.370 . S
C666 C670 1.524 . S
C667 C659 1.503 . S
C667 C666 1.370 . S
C667 C668 1.403 1_565 S
C668 C667 1.403 1_545 S
C668 C669 1.404 . S
C668 C671 1.539 . S
C669 C665 1.408 . S
C669 C668 1.404 . S
C669 H681 0.930 . S
C670 C666 1.524 . S
C670 H682 0.956 . S
C670 H683 0.961 . S
C670 H684 0.961 . S
C671 C668 1.539 . S
C671 H685 0.958 . S
C671 H686 0.961 . S
C671 H687 0.960 . S
H672 C656 0.931 . S
H673 C661 0.929 . S
H674 C662 0.960 . S
H675 C662 0.962 . S
H676 C662 0.960 . S
H677 C663 0.960 . S
H678 C663 0.966 1_545 S
H679 C663 0.950 1_545 S
H680 C664 0.931 . S
H681 C669 0.930 . S
H682 C670 0.956 . S
H683 C670 0.961 . S
H684 C670 0.961 . S
H685 C671 0.958 . S
H686 C671 0.961 . S
H687 C671 0.960 . S
C688 C689 1.391 . S
C688 C690 1.394 . S
C688 H704 0.931 . S
C689 C688 1.391 . S
C689 C693 1.376 . S
C690 C688 1.394 . S
C690 C691 1.369 . S
C690 C694 1.531 . S
C691 C690 1.369 . S
C691 C692 1.410 . S
C691 C699 1.503 . S
C692 C691 1.410 . S
C692 C693 1.392 . S
C692 C695 1.511 . S
C693 C689 1.376 . S
C693 C692 1.392 . S
C693 H705 0.929 . S
C694 C690 1.531 . S
C694 H706 0.960 . S
C694 H707 0.962 . S
C694 H708 0.960 . S
C695 C692 1.511 . S
C695 H709 0.961 . S
C695 H710 0.961 . S
C695 H711 0.961 . S
C696 C697 1.370 . S
C696 C698 1.363 . S
C696 H712 0.931 . S
C697 C696 1.370 . S
C697 C701 1.408 . S
C698 C696 1.363 . S
C698 C699 1.370 . S
C698 C702 1.524 . S
C699 C691 1.503 . S
C699 C698 1.370 . S
C699 C700 1.403 . S
C700 C699 1.403 . S
C700 C701 1.404 . S
C700 C703 1.539 . S
C701 C697 1.408 . S
C701 C700 1.404 . S
C701 H713 0.930 . S
C702 C698 1.524 . S
C702 H714 0.956 . S
C702 H715 0.961 . S
C702 H716 0.961 . S
C703 C700 1.539 . S
C703 H717 0.958 . S
C703 H718 0.961 . S
C703 H719 0.960 . S
H704 C688 0.931 . S
H705 C693 0.929 . S
H706 C694 0.960 . S
H707 C694 0.962 . S
H708 C694 0.960 . S
H709 C695 0.961 . S
H710 C695 0.961 . S
H711 C695 0.961 . S
H712 C696 0.931 . S
H713 C701 0.930 . S
H714 C702 0.956 . S
H715 C702 0.961 . S
H716 C702 0.961 . S
H717 C703 0.958 . S
H718 C703 0.961 . S
H719 C703 0.960 . S
C720 C721 1.391 . S
C720 C722 1.394 . S
C720 H736 0.931 . S
C721 C720 1.391 . S
C721 C725 1.376 . S
C722 C720 1.394 . S
C722 C723 1.369 . S
C722 C726 1.531 . S
C723 C722 1.369 . S
C723 C724 1.410 . S
C723 C731 1.503 . S
C724 C723 1.410 . S
C724 C725 1.392 . S
C724 C727 1.511 . S
C725 C721 1.376 . S
C725 C724 1.392 . S
C725 H737 0.929 . S
C726 C722 1.531 . S
C726 H738 0.960 . S
C726 H739 0.962 . S
C726 H740 0.960 . S
C727 C724 1.511 . S
C727 H741 0.961 . S
C727 H742 0.961 . S
C727 H743 0.961 . S
C728 C729 1.370 . S
C728 C730 1.363 . S
C728 H744 0.931 . S
C729 C728 1.370 . S
C729 C733 1.408 1_565 S
C730 C728 1.363 . S
C730 C731 1.370 1_565 S
C730 C734 1.524 . S
C731 C723 1.503 . S
C731 C730 1.370 1_545 S
C731 C732 1.403 . S
C732 C731 1.403 . S
C732 C733 1.404 . S
C732 C735 1.539 . S
C733 C729 1.408 1_545 S
C733 C732 1.404 . S
C733 H745 0.930 . S
C734 C730 1.524 . S
C734 H746 0.956 . S
C734 H747 0.961 . S
C734 H748 0.961 . S
C735 C732 1.539 . S
C735 H749 0.958 . S
C735 H750 0.961 . S
C735 H751 0.960 . S
H736 C720 0.931 . S
H737 C725 0.929 . S
H738 C726 0.960 . S
H739 C726 0.962 . S
H740 C726 0.960 . S
H741 C727 0.961 . S
H742 C727 0.961 . S
H743 C727 0.961 . S
H744 C728 0.931 . S
H745 C733 0.930 . S
H746 C734 0.956 . S
H747 C734 0.961 . S
H748 C734 0.961 . S
H749 C735 0.958 . S
H750 C735 0.961 . S
H751 C735 0.960 . S
C752 C753 1.391 . S
C752 C754 1.394 . S
C752 H768 0.931 . S
C753 C752 1.391 . S
C753 C757 1.376 . S
C754 C752 1.394 . S
C754 C755 1.369 . S
C754 C758 1.531 . S
C755 C754 1.369 . S
C755 C756 1.410 . S
C755 C763 1.503 . S
C756 C755 1.410 . S
C756 C757 1.392 . S
C756 C759 1.511 . S
C757 C753 1.376 . S
C757 C756 1.392 . S
C757 H769 0.929 . S
C758 C754 1.531 . S
C758 H770 0.960 . S
C758 H771 0.962 . S
C758 H772 0.960 . S
C759 C756 1.511 . S
C759 H773 0.961 . S
C759 H774 0.961 . S
C759 H775 0.961 . S
C760 C761 1.370 . S
C760 C762 1.363 . S
C760 H776 0.931 . S
C761 C760 1.370 . S
C761 C765 1.408 . S
C762 C760 1.363 . S
C762 C763 1.370 . S
C762 C766 1.524 . S
C763 C755 1.503 . S
C763 C762 1.370 . S
C763 C764 1.403 . S
C764 C763 1.403 . S
C764 C765 1.404 . S
C764 C767 1.539 . S
C765 C761 1.408 . S
C765 C764 1.404 . S
C765 H777 0.930 . S
C766 C762 1.524 . S
C766 H778 0.956 . S
C766 H779 0.961 . S
C766 H780 0.961 . S
C767 C764 1.539 . S
C767 H781 0.958 . S
C767 H782 0.961 . S
C767 H783 0.960 . S
H768 C752 0.931 . S
H769 C757 0.929 . S
H770 C758 0.960 . S
H771 C758 0.962 . S
H772 C758 0.960 . S
H773 C759 0.961 . S
H774 C759 0.961 . S
H775 C759 0.961 . S
H776 C760 0.931 . S
H777 C765 0.930 . S
H778 C766 0.956 . S
H779 C766 0.961 . S
H780 C766 0.961 . S
H781 C767 0.958 . S
H782 C767 0.961 . S
H783 C767 0.960 . S
C784 C785 1.391 1_655 S
C784 C786 1.394 . S
C784 H800 0.931 . S
C785 C784 1.391 1_455 S
C785 C789 1.376 . S
C786 C784 1.394 . S
C786 C787 1.369 . S
C786 C790 1.531 . S
C787 C786 1.369 . S
C787 C788 1.410 1_655 S
C787 C795 1.503 . S
C788 C787 1.410 1_455 S
C788 C789 1.392 . S
C788 C791 1.511 . S
C789 C785 1.376 . S
C789 C788 1.392 . S
C789 H801 0.929 . S
C790 C786 1.531 . S
C790 H802 0.960 . S
C790 H803 0.962 . S
C790 H804 0.960 . S
C791 C788 1.511 . S
C791 H805 0.961 . S
C791 H806 0.961 . S
C791 H807 0.961 . S
C792 C793 1.370 . S
C792 C794 1.363 . S
C792 H808 0.931 . S
C793 C792 1.370 . S
C793 C797 1.408 . S
C794 C792 1.363 . S
C794 C795 1.370 . S
C794 C798 1.524 . S
C795 C787 1.503 . S
C795 C794 1.370 . S
C795 C796 1.403 . S
C796 C795 1.403 . S
C796 C797 1.404 . S
C796 C799 1.539 . S
C797 C793 1.408 . S
C797 C796 1.404 . S
C797 H809 0.930 . S
C798 C794 1.524 . S
C798 H810 0.956 . S
C798 H811 0.961 . S
C798 H812 0.961 . S
C799 C796 1.539 . S
C799 H813 0.958 . S
C799 H814 0.961 1_655 S
C799 H815 0.960 1_655 S
H800 C784 0.931 . S
H801 C789 0.929 . S
H802 C790 0.960 . S
H803 C790 0.962 . S
H804 C790 0.960 . S
H805 C791 0.961 . S
H806 C791 0.961 . S
H807 C791 0.961 . S
H808 C792 0.931 . S
H809 C797 0.930 . S
H810 C798 0.956 . S
H811 C798 0.961 . S
H812 C798 0.961 . S
H813 C799 0.958 . S
H814 C799 0.961 1_455 S
H815 C799 0.960 1_455 S
C241 C162 2.473 . S
C249 C2 2.335 . S
C273 C217 2.325 . S
C281 C57 2.499 . S
C305 C82 2.350 . S
C313 C122 2.492 . S
C337 C17 2.493 . S
C345 C177 2.322 . S
C369 C202 2.485 . S
C377 C42 2.322 . S
C401 C97 2.480 . S
C409 C137 2.330 . S
C433 C29 1.898 . S
C441 C92 1.879 . S
C465 C69 1.903 . S
C473 C12 1.870 . S
C497 C109 1.924 . S
C505 C52 1.860 . S
C529 C128 1.905 . S
C537 C191 1.865 . S
C561 C168 1.906 . S
C569 C231 1.878 . S
C593 C151 1.839 . S
C601 C208 1.920 . S
C625 C8 1.211 . S
C633 C111 1.212 . S
C657 C48 1.211 1_455 S
C665 C31 1.212 . S
C689 C88 1.201 1_565 S
C697 C71 1.214 . S
C721 C149 1.104 . S
C729 C172 1.239 . S
C753 C189 1.155 1_655 S
C761 C212 1.224 . S
C785 C132 1.198 . S
C793 C229 1.182 1_545 S
