# Generated by pormake.
# Topology ukd, (4)-cn, num edge types: 1
# Building blocks:
#     Node 0, Type 0, BuildingBlock: AZAVOO_clean_sbu_0, # of connection points: 4
#     Node 1, Type 0, BuildingBlock: AZAVOO_clean_sbu_0, # of connection points: 4
#     Node 2, Type 0, BuildingBlock: AZAVOO_clean_sbu_0, # of connection points: 4
#     Node 3, Type 0, BuildingBlock: AZAVOO_clean_sbu_0, # of connection points: 4
#     Node 4, Type 0, BuildingBlock: AZAVOO_clean_sbu_0, # of connection points: 4
#     Node 5, Type 0, BuildingBlock: AZAVOO_clean_sbu_0, # of connection points: 4
#     Node 6, Type 0, BuildingBlock: AZAVOO_clean_sbu_0, # of connection points: 4
#     Node 7, Type 0, BuildingBlock: AZAVOO_clean_sbu_0, # of connection points: 4
#     Node 8, Type 0, BuildingBlock: AZAVOO_clean_sbu_0, # of connection points: 4
#     Node 9, Type 0, BuildingBlock: AZAVOO_clean_sbu_0, # of connection points: 4
#     Node 10, Type 0, BuildingBlock: AZAVOO_clean_sbu_0, # of connection points: 4
#     Node 11, Type 0, BuildingBlock: AZAVOO_clean_sbu_0, # of connection points: 4
#     Node 12, Type 0, BuildingBlock: AZAVOO_clean_sbu_0, # of connection points: 4
#     Node 13, Type 0, BuildingBlock: AZAVOO_clean_sbu_0, # of connection points: 4
#     Node 14, Type 0, BuildingBlock: AZAVOO_clean_sbu_0, # of connection points: 4
#     Node 15, Type 0, BuildingBlock: AZAVOO_clean_sbu_0, # of connection points: 4
#     Node 16, Type 0, BuildingBlock: AZAVOO_clean_sbu_0, # of connection points: 4
#     Node 17, Type 0, BuildingBlock: AZAVOO_clean_sbu_0, # of connection points: 4
#     Node 18, Type 0, BuildingBlock: AZAVOO_clean_sbu_0, # of connection points: 4
#     Node 19, Type 0, BuildingBlock: AZAVOO_clean_sbu_0, # of connection points: 4
#     Node 20, Type 0, BuildingBlock: AZAVOO_clean_sbu_0, # of connection points: 4
#     Node 21, Type 0, BuildingBlock: AZAVOO_clean_sbu_0, # of connection points: 4
#     Node 22, Type 0, BuildingBlock: AZAVOO_clean_sbu_0, # of connection points: 4
#     Node 23, Type 0, BuildingBlock: AZAVOO_clean_sbu_0, # of connection points: 4
#     Node 24, Type 0, BuildingBlock: AZAVOO_clean_sbu_0, # of connection points: 4
#     Node 25, Type 0, BuildingBlock: AZAVOO_clean_sbu_0, # of connection points: 4
#     Node 26, Type 0, BuildingBlock: AZAVOO_clean_sbu_0, # of connection points: 4
#     Node 27, Type 0, BuildingBlock: AZAVOO_clean_sbu_0, # of connection points: 4
#     Node 28, Type 0, BuildingBlock: AZAVOO_clean_sbu_0, # of connection points: 4
#     Node 29, Type 0, BuildingBlock: AZAVOO_clean_sbu_0, # of connection points: 4
#     Node 30, Type 0, BuildingBlock: AZAVOO_clean_sbu_0, # of connection points: 4
#     Node 31, Type 0, BuildingBlock: AZAVOO_clean_sbu_0, # of connection points: 4
#     Edge 32, Type (0, 0), BuildingBlock: XUDNAN_clean_linker_2, # of connection points: 2
#     Edge 33, Type (0, 0), BuildingBlock: XUDNAN_clean_linker_2, # of connection points: 2
#     Edge 34, Type (0, 0), BuildingBlock: XUDNAN_clean_linker_2, # of connection points: 2
#     Edge 35, Type (0, 0), BuildingBlock: XUDNAN_clean_linker_2, # of connection points: 2
#     Edge 36, Type (0, 0), BuildingBlock: XUDNAN_clean_linker_2, # of connection points: 2
#     Edge 37, Type (0, 0), BuildingBlock: XUDNAN_clean_linker_2, # of connection points: 2
#     Edge 38, Type (0, 0), BuildingBlock: XUDNAN_clean_linker_2, # of connection points: 2
#     Edge 39, Type (0, 0), BuildingBlock: XUDNAN_clean_linker_2, # of connection points: 2
#     Edge 40, Type (0, 0), BuildingBlock: XUDNAN_clean_linker_2, # of connection points: 2
#     Edge 41, Type (0, 0), BuildingBlock: XUDNAN_clean_linker_2, # of connection points: 2
#     Edge 42, Type (0, 0), BuildingBlock: XUDNAN_clean_linker_2, # of connection points: 2
#     Edge 43, Type (0, 0), BuildingBlock: XUDNAN_clean_linker_2, # of connection points: 2
#     Edge 44, Type (0, 0), BuildingBlock: XUDNAN_clean_linker_2, # of connection points: 2
#     Edge 45, Type (0, 0), BuildingBlock: XUDNAN_clean_linker_2, # of connection points: 2
#     Edge 46, Type (0, 0), BuildingBlock: XUDNAN_clean_linker_2, # of connection points: 2
#     Edge 47, Type (0, 0), BuildingBlock: XUDNAN_clean_linker_2, # of connection points: 2
#     Edge 48, Type (0, 0), BuildingBlock: XUDNAN_clean_linker_2, # of connection points: 2
#     Edge 49, Type (0, 0), BuildingBlock: XUDNAN_clean_linker_2, # of connection points: 2
#     Edge 50, Type (0, 0), BuildingBlock: XUDNAN_clean_linker_2, # of connection points: 2
#     Edge 51, Type (0, 0), BuildingBlock: XUDNAN_clean_linker_2, # of connection points: 2
#     Edge 52, Type (0, 0), BuildingBlock: XUDNAN_clean_linker_2, # of connection points: 2
#     Edge 53, Type (0, 0), BuildingBlock: XUDNAN_clean_linker_2, # of connection points: 2
#     Edge 54, Type (0, 0), BuildingBlock: XUDNAN_clean_linker_2, # of connection points: 2
#     Edge 55, Type (0, 0), BuildingBlock: XUDNAN_clean_linker_2, # of connection points: 2
#     Edge 56, Type (0, 0), BuildingBlock: XUDNAN_clean_linker_2, # of connection points: 2
#     Edge 57, Type (0, 0), BuildingBlock: XUDNAN_clean_linker_2, # of connection points: 2
#     Edge 58, Type (0, 0), BuildingBlock: XUDNAN_clean_linker_2, # of connection points: 2
#     Edge 59, Type (0, 0), BuildingBlock: XUDNAN_clean_linker_2, # of connection points: 2
#     Edge 60, Type (0, 0), BuildingBlock: XUDNAN_clean_linker_2, # of connection points: 2
#     Edge 61, Type (0, 0), BuildingBlock: XUDNAN_clean_linker_2, # of connection points: 2
#     Edge 62, Type (0, 0), BuildingBlock: XUDNAN_clean_linker_2, # of connection points: 2
#     Edge 63, Type (0, 0), BuildingBlock: XUDNAN_clean_linker_2, # of connection points: 2
#     Edge 64, Type (0, 0), BuildingBlock: XUDNAN_clean_linker_2, # of connection points: 2
#     Edge 65, Type (0, 0), BuildingBlock: XUDNAN_clean_linker_2, # of connection points: 2
#     Edge 66, Type (0, 0), BuildingBlock: XUDNAN_clean_linker_2, # of connection points: 2
#     Edge 67, Type (0, 0), BuildingBlock: XUDNAN_clean_linker_2, # of connection points: 2
#     Edge 68, Type (0, 0), BuildingBlock: XUDNAN_clean_linker_2, # of connection points: 2
#     Edge 69, Type (0, 0), BuildingBlock: XUDNAN_clean_linker_2, # of connection points: 2
#     Edge 70, Type (0, 0), BuildingBlock: XUDNAN_clean_linker_2, # of connection points: 2
#     Edge 71, Type (0, 0), BuildingBlock: XUDNAN_clean_linker_2, # of connection points: 2
#     Edge 72, Type (0, 0), BuildingBlock: XUDNAN_clean_linker_2, # of connection points: 2
#     Edge 73, Type (0, 0), BuildingBlock: XUDNAN_clean_linker_2, # of connection points: 2
#     Edge 74, Type (0, 0), BuildingBlock: XUDNAN_clean_linker_2, # of connection points: 2
#     Edge 75, Type (0, 0), BuildingBlock: XUDNAN_clean_linker_2, # of connection points: 2
#     Edge 76, Type (0, 0), BuildingBlock: XUDNAN_clean_linker_2, # of connection points: 2
#     Edge 77, Type (0, 0), BuildingBlock: XUDNAN_clean_linker_2, # of connection points: 2
#     Edge 78, Type (0, 0), BuildingBlock: XUDNAN_clean_linker_2, # of connection points: 2
#     Edge 79, Type (0, 0), BuildingBlock: XUDNAN_clean_linker_2, # of connection points: 2
#     Edge 80, Type (0, 0), BuildingBlock: XUDNAN_clean_linker_2, # of connection points: 2
#     Edge 81, Type (0, 0), BuildingBlock: XUDNAN_clean_linker_2, # of connection points: 2
#     Edge 82, Type (0, 0), BuildingBlock: XUDNAN_clean_linker_2, # of connection points: 2
#     Edge 83, Type (0, 0), BuildingBlock: XUDNAN_clean_linker_2, # of connection points: 2
#     Edge 84, Type (0, 0), BuildingBlock: XUDNAN_clean_linker_2, # of connection points: 2
#     Edge 85, Type (0, 0), BuildingBlock: XUDNAN_clean_linker_2, # of connection points: 2
#     Edge 86, Type (0, 0), BuildingBlock: XUDNAN_clean_linker_2, # of connection points: 2
#     Edge 87, Type (0, 0), BuildingBlock: XUDNAN_clean_linker_2, # of connection points: 2
#     Edge 88, Type (0, 0), BuildingBlock: XUDNAN_clean_linker_2, # of connection points: 2
#     Edge 89, Type (0, 0), BuildingBlock: XUDNAN_clean_linker_2, # of connection points: 2
#     Edge 90, Type (0, 0), BuildingBlock: XUDNAN_clean_linker_2, # of connection points: 2
#     Edge 91, Type (0, 0), BuildingBlock: XUDNAN_clean_linker_2, # of connection points: 2
#     Edge 92, Type (0, 0), BuildingBlock: XUDNAN_clean_linker_2, # of connection points: 2
#     Edge 93, Type (0, 0), BuildingBlock: XUDNAN_clean_linker_2, # of connection points: 2
#     Edge 94, Type (0, 0), BuildingBlock: XUDNAN_clean_linker_2, # of connection points: 2
#     Edge 95, Type (0, 0), BuildingBlock: XUDNAN_clean_linker_2, # of connection points: 2
# Relax obj value: 0.164
# Max RMSD: 0.196
# Mean RMSD: 0.196
data_MOF--net-ukd--node1-AZAVOO_clean_sbu_0--edge1-XUDNAN_clean_linker_2
_symmetry_space_group_name_H-M    P1
_symmetry_Int_Tables_number       1
_symmetry_cell_setting            triclinic
loop_
_symmetry_equiv_pos_as_xyz
'x, y, z'
_cell_length_a     41.278202
_cell_length_b     41.308292
_cell_length_c     79.558046
_cell_angle_alpha  89.999537
_cell_angle_beta   89.998358
_cell_angle_gamma 90.030779
loop_
_atom_site_label
_atom_site_type_symbol
_atom_site_fract_x
_atom_site_fract_y
_atom_site_fract_z
_atom_type_partial_charge
Mg0 Mg 0.23854 0.24781 0.34177 0.0
O1 O 0.19309 0.21628 0.34258 0.0
O2 O 0.14924 0.24653 0.33756 0.0
Mg3 Mg 0.16707 0.29874 0.33413 0.0
C4 C 0.16255 0.2193 0.34068 0.0
C5 C 0.28967 0.19619 0.35277 0.0
O6 O 0.29328 0.21768 0.3648 0.0
O7 O 0.23505 0.25017 0.31292 0.0
O8 O 0.19217 0.28276 0.30998 0.0
O9 O 0.23125 0.25898 0.3692 0.0
O10 O 0.21145 0.28823 0.34836 0.0
C11 C 0.21507 0.26588 0.3037 0.0
C12 C 0.21339 0.2829 0.36422 0.0
O13 O 0.26929 0.20172 0.34112 0.0
Mg14 Mg 0.00272 0.00406 0.60056 0.0
O15 O 0.03632 0.96015 0.59917 0.0
O16 O 0.00825 0.91645 0.59109 0.0
Mg17 Mg 0.95724 0.93437 0.58453 0.0
C18 C 0.03444 0.93 0.5959 0.0
C19 C 0.04578 0.06222 0.61283 0.0
O20 O 0.01782 0.0713 0.61916 0.0
O21 O 0.00567 0.00885 0.57221 0.0
O22 O 0.97784 0.9659 0.56296 0.0
O23 O 0.98785 0.98884 0.62631 0.0
O24 O 0.96273 0.97384 0.60299 0.0
C25 C 0.99443 0.99154 0.56025 0.0
C26 C 0.96589 0.97133 0.61903 0.0
O27 O 0.04721 0.03614 0.60437 0.0
Mg28 Mg 0.2408 0.74033 0.85193 0.0
O29 O 0.28651 0.77169 0.85182 0.0
O30 O 0.3306 0.74021 0.8508 0.0
Mg31 Mg 0.3122 0.68851 0.84638 0.0
C32 C 0.31719 0.76796 0.85188 0.0
C33 C 0.19055 0.79243 0.86207 0.0
O34 O 0.18802 0.77183 0.87459 0.0
O35 O 0.24491 0.73581 0.82329 0.0
O36 O 0.28904 0.70458 0.82156 0.0
O37 O 0.24827 0.73212 0.87964 0.0
O38 O 0.2673 0.70028 0.85964 0.0
C39 C 0.26614 0.72059 0.81464 0.0
C40 C 0.26589 0.70761 0.87529 0.0
O41 O 0.21025 0.78627 0.85021 0.0
Mg42 Mg 0.51251 0.99841 0.09954 0.0
O43 O 0.47832 0.04194 0.09802 0.0
O44 O 0.50759 0.08743 0.0958 0.0
Mg45 Mg 0.56046 0.07206 0.09229 0.0
C46 C 0.48051 0.0727 0.09715 0.0
C47 C 0.4508 0.95882 0.11069 0.0
O48 O 0.45677 0.97395 0.12488 0.0
O49 O 0.5175 1.00018 0.07086 0.0
O50 O 0.54636 0.0457 0.06803 0.0
O51 O 0.51979 0.009 0.12711 0.0
O52 O 0.55066 0.0282 0.10676 0.0
C53 C 0.53172 0.02131 0.06169 0.0
C54 C 0.54319 0.0278 0.1224 0.0
O55 O 0.46893 0.96416 0.09805 0.0
Mg56 Mg 0.23091 0.75646 0.14788 0.0
O57 O 0.19092 0.79366 0.15326 0.0
O58 O 0.14948 0.76816 0.16565 0.0
Mg59 Mg 0.16266 0.71449 0.16785 0.0
C60 C 0.16271 0.79381 0.15989 0.0
C61 C 0.27987 0.79574 0.1275 0.0
O62 O 0.27107 0.77216 0.11739 0.0
O63 O 0.24414 0.75499 0.17573 0.0
O64 O 0.20248 0.72771 0.18685 0.0
O65 O 0.20782 0.74612 0.12312 0.0
O66 O 0.19636 0.71978 0.14657 0.0
C67 C 0.22974 0.74212 0.1883 0.0
C68 C 0.19046 0.72475 0.13089 0.0
O69 O 0.26744 0.79695 0.14212 0.0
Mg70 Mg 0.49935 0.98631 0.39048 0.0
O71 O 0.46478 0.94381 0.39547 0.0
O72 O 0.49346 0.90251 0.40605 0.0
Mg73 Mg 0.54503 0.92079 0.41063 0.0
C74 C 0.46691 0.91475 0.40083 0.0
C75 C 0.43756 0.0132 0.37245 0.0
O76 O 0.44243 0.98667 0.3637 0.0
O77 O 0.49746 0.99855 0.41827 0.0
O78 O 0.52542 0.95785 0.42981 0.0
O79 O 0.51271 0.96402 0.36584 0.0
O80 O 0.5386 0.95473 0.38968 0.0
C81 C 0.5091 0.98404 0.4311 0.0
C82 C 0.53458 0.94804 0.37403 0.0
O83 O 0.45637 0.01956 0.38468 0.0
Mg84 Mg 0.27989 0.25896 0.6494 0.0
O85 O 0.32217 0.22326 0.65142 0.0
O86 O 0.36318 0.24722 0.66496 0.0
Mg87 Mg 0.34782 0.29943 0.67048 0.0
C88 C 0.35072 0.22269 0.65762 0.0
C89 C 0.21559 0.21778 0.64498 0.0
O90 O 0.20248 0.24331 0.6521 0.0
O91 O 0.26966 0.25349 0.67731 0.0
O92 O 0.31002 0.28093 0.68951 0.0
O93 O 0.29843 0.27636 0.62476 0.0
O94 O 0.31316 0.29671 0.64937 0.0
C95 C 0.28376 0.26462 0.69039 0.0
C96 C 0.31681 0.29576 0.63328 0.0
O97 O 0.24604 0.21717 0.6426 0.0
Mg98 Mg 0.99004 0.00975 0.90251 0.0
O99 O 0.02758 0.05055 0.901 0.0
O100 O 0.00637 0.09594 0.91169 0.0
Mg101 Mg 0.95492 0.08373 0.92053 0.0
C102 C 0.02972 0.08047 0.90489 0.0
C103 C 0.04508 0.97684 0.88245 0.0
O104 O 0.03882 0.00239 0.87317 0.0
O105 O 0.99968 0.0057 0.93047 0.0
O106 O 0.97564 0.04978 0.94103 0.0
O107 O 0.9685 0.02321 0.87778 0.0
O108 O 0.95325 0.04394 0.90219 0.0
C109 C 0.9912 0.02325 0.94294 0.0
C110 C 0.9508 0.04355 0.88607 0.0
O111 O 0.02916 0.97266 0.89597 0.0
Mg112 Mg 0.76356 0.75209 0.63929 0.0
O113 O 0.80588 0.78665 0.64443 0.0
O114 O 0.84578 0.75901 0.65695 0.0
Mg115 Mg 0.82894 0.70654 0.65975 0.0
C116 C 0.83411 0.78521 0.65096 0.0
C117 C 0.73782 0.81504 0.62209 0.0
O118 O 0.76549 0.81119 0.61417 0.0
O119 O 0.75047 0.75265 0.66715 0.0
O120 O 0.79048 0.72363 0.67864 0.0
O121 O 0.78626 0.74009 0.61467 0.0
O122 O 0.79598 0.71359 0.6383 0.0
C123 C 0.76424 0.73983 0.67991 0.0
C124 C 0.8029 0.71854 0.62273 0.0
O125 O 0.73012 0.79506 0.63359 0.0
Mg126 Mg 0.01286 0.99786 0.40051 0.0
O127 O 0.97609 0.03845 0.39762 0.0
O128 O 0.99813 0.08726 0.40115 0.0
Mg129 Mg 0.05103 0.07722 0.40836 0.0
C130 C 0.97382 0.0692 0.39791 0.0
C131 C 0.95362 0.96509 0.385 0.0
O132 O 0.96104 0.98868 0.37462 0.0
O133 O 0.00886 0.00299 0.42945 0.0
O134 O 0.03319 0.05115 0.4318 0.0
O135 O 0.02782 0.00592 0.3736 0.0
O136 O 0.05039 0.03054 0.39525 0.0
C137 C 0.01923 0.02665 0.43839 0.0
C138 C 0.04777 0.02744 0.37926 0.0
O139 O 0.97081 0.96132 0.39817 0.0
Mg140 Mg 0.7295 0.25537 0.14962 0.0
O141 O 0.68573 0.22146 0.15196 0.0
O142 O 0.64174 0.25054 0.15836 0.0
Mg143 Mg 0.65731 0.30373 0.15992 0.0
C144 C 0.65553 0.22351 0.15528 0.0
C145 C 0.75877 0.1919 0.1364 0.0
O146 O 0.73292 0.19593 0.127 0.0
O147 O 0.73148 0.25941 0.17853 0.0
O148 O 0.68807 0.29087 0.18269 0.0
O149 O 0.71662 0.26436 0.12253 0.0
O150 O 0.69902 0.29373 0.14383 0.0
C151 C 0.71268 0.27552 0.18825 0.0
C152 C 0.6984 0.28751 0.12803 0.0
O153 O 0.76405 0.21191 0.14825 0.0
Mg154 Mg 0.49235 0.98711 0.90138 0.0
O155 O 0.53338 0.95041 0.89907 0.0
O156 O 0.51823 0.90337 0.91056 0.0
Mg157 Mg 0.46639 0.91025 0.9203 0.0
C158 C 0.53917 0.92106 0.90311 0.0
C159 C 0.52217 0.04389 0.88098 0.0
O160 O 0.49617 0.03709 0.87213 0.0
O161 O 0.50406 0.99232 0.92908 0.0
O162 O 0.48555 0.94617 0.94021 0.0
O163 O 0.47107 0.97093 0.87703 0.0
O164 O 0.45908 0.949 0.9016 0.0
C165 C 0.49869 0.97406 0.94173 0.0
C166 C 0.45602 0.94878 0.88548 0.0
O167 O 0.52762 0.02784 0.89432 0.0
Mg168 Mg 0.74079 0.25807 0.84357 0.0
O169 O 0.7802 0.21974 0.84787 0.0
O170 O 0.82786 0.24175 0.8404 0.0
Mg171 Mg 0.81875 0.29282 0.83037 0.0
C172 C 0.81096 0.2183 0.84613 0.0
C173 C 0.69668 0.20107 0.85858 0.0
O174 O 0.71777 0.20137 0.87095 0.0
O175 O 0.74451 0.24748 0.81574 0.0
O176 O 0.79107 0.27076 0.80787 0.0
O177 O 0.74887 0.27892 0.86924 0.0
O178 O 0.77555 0.29368 0.84636 0.0
C179 C 0.76531 0.25484 0.8045 0.0
C180 C 0.77205 0.29544 0.8624 0.0
O181 O 0.70032 0.22051 0.84632 0.0
Mg182 Mg 0.50557 0.01521 0.58913 0.0
O183 O 0.53583 0.06167 0.58878 0.0
O184 O 0.50356 0.10423 0.58414 0.0
Mg185 Mg 0.45194 0.08467 0.58145 0.0
C186 C 0.53152 0.09204 0.58678 0.0
C187 C 0.55649 0.96364 0.59957 0.0
O188 O 0.5336 0.95878 0.61077 0.0
O189 O 0.50178 0.01736 0.5603 0.0
O190 O 0.46813 0.05939 0.55736 0.0
O191 O 0.49645 0.02338 0.61659 0.0
O192 O 0.46501 0.04181 0.59627 0.0
C193 C 0.48539 0.03677 0.55108 0.0
C194 C 0.47207 0.04098 0.612 0.0
O195 O 0.55223 0.98522 0.58837 0.0
Mg196 Mg 0.74762 0.73676 0.35474 0.0
O197 O 0.70016 0.76546 0.35272 0.0
O198 O 0.65967 0.7308 0.34745 0.0
Mg199 Mg 0.68112 0.67978 0.34626 0.0
C200 C 0.67025 0.75945 0.34997 0.0
C201 C 0.79837 0.78797 0.36547 0.0
O202 O 0.80299 0.76496 0.37661 0.0
O203 O 0.74836 0.73119 0.32586 0.0
O204 O 0.70832 0.6952 0.32269 0.0
O205 O 0.73648 0.72922 0.38207 0.0
O206 O 0.72182 0.69577 0.36177 0.0
C207 C 0.73069 0.71299 0.31658 0.0
C208 C 0.72022 0.70403 0.37731 0.0
O209 O 0.77689 0.78389 0.35417 0.0
Mg210 Mg 0.00113 0.00501 0.10156 0.0
O211 O 0.96558 0.96349 0.10452 0.0
O212 O 0.98916 0.91546 0.10108 0.0
Mg213 Mg 0.04221 0.92726 0.09458 0.0
C214 C 0.96421 0.9327 0.10418 0.0
C215 C 0.95033 0.05664 0.11423 0.0
O216 O 0.97028 0.05756 0.12709 0.0
O217 O 0.99949 0.99889 0.0728 0.0
O218 O 0.02579 0.9518 0.07029 0.0
O219 O 0.01539 0.99849 0.12875 0.0
O220 O 0.0396 0.97446 0.10738 0.0
C221 C 0.0113 0.97608 0.06379 0.0
C222 C 0.03687 0.97819 0.12332 0.0
O223 O 0.95717 0.03877 0.1017 0.0
Mg224 Mg 0.73505 0.75159 0.83839 0.0
O225 O 0.68529 0.72708 0.84038 0.0
O226 O 0.64653 0.76314 0.83443 0.0
Mg227 Mg 0.67169 0.81113 0.82843 0.0
C228 C 0.6555 0.73462 0.83849 0.0
C229 C 0.78178 0.70049 0.85232 0.0
O230 O 0.7885 0.72646 0.8612 0.0
O231 O 0.73135 0.74901 0.80945 0.0
O232 O 0.69294 0.78641 0.80531 0.0
O233 O 0.72996 0.76817 0.86511 0.0
O234 O 0.71424 0.79647 0.84296 0.0
C235 C 0.71285 0.76538 0.7997 0.0
C236 C 0.71593 0.79354 0.85899 0.0
O237 O 0.76024 0.7024 0.8409 0.0
Mg238 Mg 0.49697 0.49821 0.09388 0.0
O239 O 0.52474 0.45045 0.09278 0.0
O240 O 0.49257 0.41138 0.08271 0.0
Mg241 Mg 0.44321 0.43475 0.07764 0.0
C242 C 0.51985 0.42113 0.08835 0.0
C243 C 0.54929 0.54495 0.10941 0.0
O244 O 0.52566 0.54962 0.1202 0.0
O245 O 0.5011 0.50159 0.06555 0.0
O246 O 0.46696 0.46367 0.0561 0.0
O247 O 0.4812 0.48565 0.11969 0.0
O248 O 0.45407 0.47217 0.09672 0.0
C249 C 0.48745 0.48632 0.05352 0.0
C250 C 0.45788 0.46944 0.11275 0.0
O251 O 0.54489 0.52549 0.09723 0.0
Mg252 Mg 0.76035 0.247 0.34864 0.0
O253 O 0.80775 0.2753 0.34652 0.0
O254 O 0.84466 0.24494 0.3333 0.0
Mg255 Mg 0.82045 0.19643 0.32708 0.0
C256 C 0.83615 0.2712 0.34053 0.0
C257 C 0.74126 0.30926 0.36921 0.0
O258 O 0.76753 0.30095 0.37748 0.0
O259 O 0.75117 0.25609 0.32077 0.0
O260 O 0.78741 0.22332 0.30859 0.0
O261 O 0.77785 0.22537 0.37275 0.0
O262 O 0.78554 0.20375 0.34757 0.0
C263 C 0.76434 0.24386 0.30768 0.0
C264 C 0.79062 0.20297 0.3635 0.0
O265 O 0.73281 0.29272 0.35645 0.0
Mg266 Mg 0.00758 0.50662 0.59656 0.0
O267 O 0.9836 0.55629 0.59656 0.0
O268 O 0.01681 0.5926 0.58483 0.0
Mg269 Mg 0.06339 0.56547 0.57772 0.0
C270 C 0.98995 0.58508 0.59179 0.0
C271 C 0.95686 0.45889 0.61228 0.0
O272 O 0.98366 0.44699 0.6187 0.0
O273 O 0.99843 0.50291 0.56831 0.0
O274 O 0.03447 0.53789 0.55769 0.0
O275 O 0.03006 0.51885 0.62137 0.0
O276 O 0.05296 0.52799 0.59664 0.0
C277 C 0.01201 0.51691 0.55581 0.0
C278 C 0.05364 0.53108 0.6127 0.0
O279 O 0.9586 0.48346 0.60268 0.0
Mg280 Mg 0.75131 0.24415 0.64554 0.0
O281 O 0.7059 0.27505 0.64935 0.0
O282 O 0.66335 0.24327 0.65488 0.0
Mg283 Mg 0.68201 0.19099 0.65485 0.0
C284 C 0.67587 0.27121 0.65263 0.0
C285 C 0.77497 0.31305 0.63609 0.0
O286 O 0.74808 0.31067 0.62735 0.0
O287 O 0.7546 0.23712 0.67426 0.0
O288 O 0.71271 0.20339 0.67774 0.0
O289 O 0.73748 0.2383 0.61838 0.0
O290 O 0.72248 0.20501 0.63866 0.0
C291 C 0.73672 0.21927 0.6836 0.0
C292 C 0.72043 0.2137 0.6232 0.0
O293 O 0.78311 0.28972 0.64565 0.0
Mg294 Mg 0.98736 0.4974 0.90395 0.0
O295 O 0.95407 0.45331 0.90236 0.0
O296 O 0.98142 0.40703 0.90552 0.0
Mg297 Mg 0.03276 0.42251 0.91307 0.0
C298 C 0.9552 0.4225 0.90277 0.0
C299 C 0.92537 0.52343 0.88778 0.0
O300 O 0.93305 0.49801 0.8787 0.0
O301 O 0.98321 0.49377 0.93285 0.0
O302 O 0.01125 0.4478 0.93599 0.0
O303 O 0.00385 0.48926 0.87728 0.0
O304 O 0.02786 0.46817 0.89947 0.0
C305 C 0.99496 0.47128 0.94214 0.0
C306 C 0.02586 0.47041 0.88343 0.0
O307 O 0.94288 0.53041 0.90047 0.0
Mg308 Mg 0.75393 0.75276 0.15533 0.0
O309 O 0.8006 0.72297 0.15495 0.0
O310 O 0.83999 0.75183 0.16716 0.0
Mg311 Mg 0.81855 0.80078 0.17488 0.0
C312 C 0.82984 0.72616 0.15992 0.0
C313 C 0.73105 0.69032 0.13592 0.0
O314 O 0.75724 0.69702 0.12721 0.0
O315 O 0.74918 0.74253 0.1834 0.0
O316 O 0.78777 0.77401 0.19453 0.0
O317 O 0.76795 0.77503 0.13074 0.0
O318 O 0.78073 0.79517 0.15569 0.0
C319 C 0.76447 0.75384 0.19609 0.0
C320 C 0.78318 0.79646 0.13961 0.0
O321 O 0.72379 0.70809 0.14842 0.0
Mg322 Mg 0.51051 0.50131 0.41429 0.0
O323 O 0.53804 0.54921 0.41163 0.0
O324 O 0.50427 0.59062 0.41628 0.0
Mg325 Mg 0.4545 0.569 0.42206 0.0
C326 C 0.53237 0.57952 0.41287 0.0
C327 C 0.56277 0.45415 0.40122 0.0
O328 O 0.5391 0.45026 0.39037 0.0
O329 O 0.51248 0.50771 0.443 0.0
O330 O 0.47747 0.54866 0.44588 0.0
O331 O 0.49563 0.50492 0.38727 0.0
O332 O 0.46721 0.52481 0.40836 0.0
C333 C 0.4972 0.52814 0.45214 0.0
C334 C 0.47123 0.52188 0.39242 0.0
O335 O 0.55873 0.47371 0.41341 0.0
Mg336 Mg 0.26017 0.24656 0.14277 0.0
O337 O 0.30288 0.28223 0.14376 0.0
O338 O 0.34395 0.25749 0.15695 0.0
Mg339 Mg 0.32898 0.20536 0.16274 0.0
C340 C 0.33163 0.28222 0.14973 0.0
C341 C 0.23064 0.30911 0.12595 0.0
O342 O 0.258 0.30765 0.11754 0.0
O343 O 0.25255 0.25308 0.17086 0.0
O344 O 0.29317 0.22501 0.18239 0.0
O345 O 0.27684 0.22786 0.11782 0.0
O346 O 0.29308 0.20883 0.14242 0.0
C347 C 0.26749 0.24207 0.1837 0.0
C348 C 0.29564 0.20883 0.1263 0.0
O349 O 0.22469 0.2877 0.13702 0.0
Mg350 Mg 0.48969 0.51758 0.8944 0.0
O351 O 0.45531 0.55986 0.89981 0.0
O352 O 0.48489 0.60275 0.90757 0.0
Mg353 Mg 0.53845 0.5883 0.9069 0.0
C354 C 0.4576 0.58931 0.9046 0.0
C355 C 0.45446 0.45257 0.89715 0.0
O356 O 0.48373 0.44674 0.90289 0.0
O357 O 0.49674 0.51044 0.923 0.0
O358 O 0.52868 0.55309 0.92824 0.0
O359 O 0.49595 0.53593 0.86781 0.0
O360 O 0.527 0.54974 0.88919 0.0
C361 C 0.51411 0.52743 0.93302 0.0
C362 C 0.5195 0.55327 0.87367 0.0
O363 O 0.4474 0.48139 0.89291 0.0
Mg364 Mg 0.24889 0.75998 0.65384 0.0
O365 O 0.21218 0.71947 0.64967 0.0
O366 O 0.16376 0.73389 0.6597 0.0
Mg367 Mg 0.16962 0.78554 0.66994 0.0
C368 C 0.18239 0.71338 0.65257 0.0
C369 C 0.28832 0.7078 0.63487 0.0
O370 O 0.2638 0.71257 0.62464 0.0
O371 O 0.24987 0.74751 0.68154 0.0
O372 O 0.20249 0.76604 0.69117 0.0
O373 O 0.23682 0.7819 0.62909 0.0
O374 O 0.21106 0.79329 0.65276 0.0
C375 C 0.23006 0.75269 0.69356 0.0
C376 C 0.21334 0.79664 0.63669 0.0
O377 O 0.28997 0.72432 0.64834 0.0
Mg378 Mg 0.00279 0.48736 0.39643 0.0
O379 O 0.03819 0.44487 0.39959 0.0
O380 O 0.00934 0.40172 0.40778 0.0
Mg381 Mg 0.95573 0.4156 0.40902 0.0
C382 C 0.03624 0.41517 0.404 0.0
C383 C 0.03318 0.55106 0.38815 0.0
O384 O 0.00169 0.55384 0.38615 0.0
O385 O 0.99885 0.49262 0.42538 0.0
O386 O 0.96722 0.4497 0.43057 0.0
O387 O 0.99345 0.47134 0.36973 0.0
O388 O 0.96518 0.4553 0.39172 0.0
C389 C 0.98216 0.47506 0.43547 0.0
C390 C 0.97084 0.4532 0.37592 0.0
O391 O 0.04416 0.52431 0.39366 0.0
Mg392 Mg 0.26825 0.73184 0.34614 0.0
O393 O 0.30958 0.69446 0.34877 0.0
O394 O 0.35542 0.72009 0.34144 0.0
Mg395 Mg 0.3451 0.77332 0.33631 0.0
C396 C 0.34013 0.69468 0.346 0.0
C397 C 0.2007 0.70496 0.34983 0.0
O398 O 0.19779 0.73656 0.34864 0.0
O399 O 0.27187 0.7286 0.31714 0.0
O400 O 0.31747 0.7569 0.31309 0.0
O401 O 0.27499 0.74847 0.37295 0.0
O402 O 0.30106 0.76853 0.35108 0.0
C403 C 0.29311 0.74132 0.3074 0.0
C404 C 0.29689 0.76776 0.36704 0.0
O405 O 0.22883 0.69272 0.34836 0.0
Mg406 Mg 0.99084 0.50657 0.10331 0.0
O407 O 0.01898 0.55383 0.09981 0.0
O408 O 0.98553 0.59233 0.09032 0.0
Mg409 Mg 0.93552 0.56907 0.08769 0.0
C410 C 0.01348 0.58286 0.0951 0.0
C411 C 0.04372 0.45537 0.11453 0.0
O412 O 0.02022 0.44592 0.12453 0.0
O413 O 0.9888 0.49904 0.07512 0.0
O414 O 0.95465 0.53721 0.06604 0.0
O415 O 0.98013 0.52274 0.1293 0.0
O416 O 0.94892 0.5334 0.10731 0.0
C417 C 0.97348 0.51324 0.0633 0.0
C418 C 0.95578 0.5383 0.12292 0.0
O419 O 0.03892 0.47918 0.10471 0.0
Mg420 Mg 0.23415 0.25885 0.84802 0.0
O421 O 0.1902 0.29338 0.84909 0.0
O422 O 0.14696 0.26487 0.84054 0.0
Mg423 Mg 0.16163 0.21259 0.83547 0.0
C424 C 0.16005 0.29122 0.84548 0.0
C425 C 0.29391 0.28928 0.86129 0.0
O426 O 0.29353 0.25836 0.86518 0.0
O427 O 0.23446 0.26268 0.81895 0.0
O428 O 0.19111 0.23185 0.81349 0.0
O429 O 0.22419 0.24146 0.87442 0.0
O430 O 0.20361 0.21943 0.85151 0.0
C431 C 0.21506 0.24897 0.80857 0.0
C432 C 0.20528 0.22028 0.86758 0.0
O433 O 0.27076 0.30021 0.85237 0.0
Mg434 Mg 0.52584 0.50741 0.61259 0.0
O435 O 0.4953 0.46238 0.60719 0.0
O436 O 0.52748 0.42142 0.59928 0.0
Mg437 Mg 0.5782 0.44303 0.59634 0.0
C438 C 0.49968 0.43297 0.6029 0.0
C439 C 0.47314 0.55836 0.62514 0.0
O440 O 0.49448 0.56404 0.63704 0.0
O441 O 0.52858 0.51676 0.58464 0.0
O442 O 0.55897 0.47595 0.57508 0.0
O443 O 0.53492 0.4876 0.63824 0.0
O444 O 0.56631 0.47844 0.61617 0.0
C445 C 0.54191 0.50133 0.5726 0.0
C446 C 0.55891 0.47203 0.63153 0.0
O447 O 0.47924 0.53702 0.61407 0.0
H448 H 0.08863 0.42238 0.38352 0.0
H449 H 0.04929 0.36127 0.42285 0.0
H450 H 0.09584 0.32403 0.41977 0.0
H451 H 0.11029 0.35964 0.35745 0.0
H452 H 0.14649 0.37841 0.34934 0.0
H453 H 0.11373 0.40314 0.35683 0.0
H454 H 0.1528 0.43199 0.37751 0.0
H455 H 0.18579 0.4073 0.37004 0.0
H456 H 0.17622 0.40828 0.39214 0.0
H457 H 0.14403 0.29072 0.4104 0.0
H458 H 0.18654 0.2624 0.39399 0.0
H459 H 0.19179 0.34414 0.35993 0.0
C460 C 0.09037 0.40171 0.39185 0.0
C461 C 0.06569 0.39491 0.40359 0.0
C462 C 0.06814 0.367 0.41385 0.0
C463 C 0.09456 0.34583 0.41226 0.0
C464 C 0.11817 0.35283 0.40026 0.0
C465 C 0.11619 0.38007 0.39019 0.0
C466 C 0.14221 0.38006 0.37682 0.0
C467 C 0.12728 0.38031 0.35907 0.0
C468 C 0.16565 0.4086 0.37928 0.0
C469 C 0.15855 0.34814 0.3806 0.0
C470 C 0.14494 0.33308 0.39441 0.0
C471 C 0.15513 0.30248 0.3997 0.0
C472 C 0.17931 0.28661 0.39036 0.0
C473 C 0.19235 0.30119 0.37577 0.0
C474 C 0.18227 0.33255 0.37111 0.0
H475 H 0.90944 0.94271 0.6095 0.0
H476 H 0.98147 0.94321 0.6492 0.0
H477 H 0.95323 0.89751 0.66304 0.0
H478 H 0.83975 0.92215 0.6364 0.0
H479 H 0.82153 0.89714 0.62041 0.0
H480 H 0.84609 0.93137 0.61449 0.0
H481 H 0.88243 0.89378 0.59645 0.0
H482 H 0.85808 0.8595 0.60236 0.0
H483 H 0.90115 0.859 0.60609 0.0
H484 H 0.92051 0.84782 0.67059 0.0
H485 H 0.88375 0.80059 0.67238 0.0
H486 H 0.83174 0.83499 0.62849 0.0
C487 C 0.91902 0.9335 0.62123 0.0
C488 C 0.94761 0.94638 0.6283 0.0
C489 C 0.95944 0.93377 0.64366 0.0
C490 C 0.94361 0.90781 0.65157 0.0
C491 C 0.91574 0.89526 0.64409 0.0
C492 C 0.9033 0.90802 0.62938 0.0
C493 C 0.87368 0.8896 0.62357 0.0
C494 C 0.84347 0.91136 0.62374 0.0
C495 C 0.87918 0.87458 0.60609 0.0
C496 C 0.87181 0.8639 0.63706 0.0
C497 C 0.89628 0.8675 0.64878 0.0
C498 C 0.90089 0.84512 0.66167 0.0
C499 C 0.88001 0.81835 0.66255 0.0
C500 C 0.8547 0.81441 0.6507 0.0
C501 C 0.85042 0.83776 0.63795 0.0
H502 H 0.39851 0.57628 0.89077 0.0
H503 H 0.44954 0.6473 0.921 0.0
H504 H 0.40079 0.68203 0.92106 0.0
H505 H 0.36294 0.63126 0.86435 0.0
H506 H 0.32552 0.60931 0.86179 0.0
H507 H 0.36208 0.58787 0.86683 0.0
H508 H 0.33408 0.56309 0.89305 0.0
H509 H 0.29739 0.58477 0.88812 0.0
H510 H 0.31599 0.58946 0.90847 0.0
H511 H 0.34859 0.71185 0.91491 0.0
H512 H 0.30029 0.73546 0.90102 0.0
H513 H 0.28483 0.64528 0.87443 0.0
C514 C 0.39919 0.5987 0.89782 0.0
C515 C 0.42773 0.60892 0.90601 0.0
C516 C 0.42788 0.6389 0.91468 0.0
C517 C 0.40022 0.65869 0.91489 0.0
C518 C 0.37263 0.64814 0.90639 0.0
C519 C 0.37202 0.61883 0.89798 0.0
C520 C 0.34112 0.61473 0.88802 0.0
C521 C 0.34837 0.61057 0.86914 0.0
C522 C 0.32095 0.58633 0.89483 0.0
C523 C 0.32491 0.64678 0.89163 0.0
C524 C 0.34297 0.6655 0.90257 0.0
C525 C 0.33393 0.69716 0.9066 0.0
C526 C 0.30639 0.71033 0.89876 0.0
C527 C 0.28881 0.69195 0.88686 0.0
C528 C 0.29764 0.65957 0.88372 0.0
H529 H 0.60406 0.05141 0.12078 0.0
H530 H 0.51378 0.06108 0.14809 0.0
H531 H 0.53491 0.11056 0.16196 0.0
H532 H 0.65842 0.08343 0.15476 0.0
H533 H 0.68401 0.10326 0.13955 0.0
H534 H 0.66351 0.06617 0.13411 0.0
H535 H 0.63786 0.09471 0.10834 0.0
H536 H 0.65777 0.13194 0.11382 0.0
H537 H 0.61435 0.131 0.11144 0.0
H538 H 0.56272 0.16379 0.16885 0.0
H539 H 0.59664 0.21311 0.17043 0.0
H540 H 0.6693 0.16673 0.13926 0.0
C541 C 0.58919 0.06335 0.13013 0.0
C542 C 0.55748 0.05244 0.13353 0.0
C543 C 0.53839 0.06882 0.14559 0.0
C544 C 0.55014 0.09701 0.15342 0.0
C545 C 0.58117 0.1079 0.14925 0.0
C546 C 0.60068 0.0911 0.13815 0.0
C547 C 0.63208 0.10884 0.13478 0.0
C548 C 0.66123 0.08926 0.14119 0.0
C549 C 0.63569 0.11711 0.11599 0.0
C550 C 0.62681 0.13891 0.14522 0.0
C551 C 0.59739 0.13798 0.15353 0.0
C552 C 0.58611 0.16442 0.16272 0.0
C553 C 0.60544 0.19239 0.16346 0.0
C554 C 0.63576 0.19363 0.15511 0.0
C555 C 0.64657 0.16632 0.14606 0.0
H556 H 0.16343 0.66715 0.13984 0.0
H557 H 0.15757 0.74377 0.10268 0.0
H558 H 0.11222 0.7151 0.08874 0.0
H559 H 0.14771 0.60144 0.11091 0.0
H560 H 0.12472 0.57842 0.12601 0.0
H561 H 0.15641 0.60519 0.13303 0.0
H562 H 0.11561 0.63493 0.15241 0.0
H563 H 0.08385 0.60819 0.1455 0.0
H564 H 0.07897 0.65138 0.14353 0.0
H565 H 0.06518 0.67932 0.08004 0.0
H566 H 0.02266 0.63759 0.0762 0.0
H567 H 0.06266 0.58293 0.11786 0.0
C568 C 0.15256 0.67791 0.12878 0.0
C569 C 0.16374 0.70772 0.12237 0.0
C570 C 0.14928 0.72089 0.10776 0.0
C571 C 0.12354 0.70482 0.09978 0.0
C572 C 0.11305 0.67541 0.10645 0.0
C573 C 0.12737 0.66193 0.12051 0.0
C574 C 0.11202 0.62986 0.12504 0.0
C575 C 0.13669 0.60209 0.12366 0.0
C576 C 0.0967 0.63119 0.14266 0.0
C577 C 0.08648 0.62755 0.11148 0.0
C578 C 0.08724 0.65414 0.10094 0.0
C579 C 0.06465 0.65817 0.08807 0.0
C580 C 0.04061 0.63444 0.08599 0.0
C581 C 0.03976 0.60689 0.09657 0.0
C582 C 0.0632 0.60339 0.10935 0.0
H583 H 0.59299 0.92358 0.38346 0.0
H584 H 0.51474 0.90995 0.34778 0.0
H585 H 0.54182 0.86066 0.33695 0.0
H586 H 0.65791 0.89702 0.35534 0.0
H587 H 0.68029 0.87793 0.37208 0.0
H588 H 0.65516 0.91255 0.37647 0.0
H589 H 0.62433 0.87957 0.39912 0.0
H590 H 0.64923 0.84482 0.39475 0.0
H591 H 0.60576 0.84161 0.39343 0.0
H592 H 0.57514 0.81005 0.33206 0.0
H593 H 0.61473 0.76505 0.33148 0.0
H594 H 0.67285 0.81437 0.36899 0.0
C595 C 0.58174 0.91039 0.37325 0.0
C596 C 0.55181 0.92042 0.36644 0.0
C597 C 0.53781 0.9027 0.35306 0.0
C598 C 0.55294 0.87466 0.34689 0.0
C599 C 0.58228 0.86516 0.35406 0.0
C600 C 0.59678 0.88282 0.36675 0.0
C601 C 0.62827 0.86751 0.37235 0.0
C602 C 0.65711 0.8901 0.36885 0.0
C603 C 0.62679 0.8578 0.39102 0.0
C604 C 0.629 0.83809 0.36105 0.0
C605 C 0.60214 0.83698 0.35068 0.0
C606 C 0.59652 0.81095 0.33992 0.0
C607 C 0.61901 0.78547 0.33972 0.0
C608 C 0.64696 0.78652 0.35003 0.0
C609 C 0.65201 0.81329 0.36073 0.0
H610 H 0.3784 0.30747 0.64425 0.0
H611 H 0.31201 0.32689 0.60328 0.0
H612 H 0.35321 0.36205 0.58984 0.0
H613 H 0.41273 0.38506 0.64752 0.0
H614 H 0.45329 0.371 0.65164 0.0
H615 H 0.41912 0.34639 0.65749 0.0
H616 H 0.44214 0.29874 0.63999 0.0
H617 H 0.47643 0.32325 0.63407 0.0
H618 H 0.45156 0.30483 0.61809 0.0
H619 H 0.39931 0.39967 0.58273 0.0
H620 H 0.44907 0.43329 0.58113 0.0
H621 H 0.48674 0.38574 0.62552 0.0
C622 C 0.37257 0.31917 0.63248 0.0
C623 C 0.342 0.31502 0.62488 0.0
C624 C 0.3354 0.32995 0.60925 0.0
C625 C 0.35858 0.34991 0.60157 0.0
C626 C 0.38842 0.35393 0.60952 0.0
C627 C 0.39566 0.33853 0.62448 0.0
C628 C 0.42946 0.34684 0.63045 0.0
C629 C 0.42857 0.36331 0.6478 0.0
C630 C 0.45118 0.31661 0.63066 0.0
C631 C 0.43972 0.37023 0.61682 0.0
C632 C 0.41569 0.37404 0.60486 0.0
C633 C 0.41859 0.39634 0.59178 0.0
C634 C 0.44676 0.41529 0.59096 0.0
C635 C 0.47162 0.41133 0.60298 0.0
C636 C 0.46824 0.38839 0.61595 0.0
H637 H 0.94505 0.10881 0.89032 0.0
H638 H 0.90654 0.02738 0.86238 0.0
H639 H 0.86542 0.06323 0.8494 0.0
H640 H 0.87101 0.14973 0.89847 0.0
H641 H 0.88721 0.18976 0.89514 0.0
H642 H 0.91331 0.1577 0.90233 0.0
H643 H 0.95187 0.16762 0.87714 0.0
H644 H 0.92602 0.1999 0.86996 0.0
H645 H 0.93585 0.16687 0.85606 0.0
H646 H 0.8257 0.10696 0.84162 0.0
H647 H 0.7955 0.15759 0.83576 0.0
H648 H 0.86384 0.21148 0.86624 0.0
C649 C 0.92795 0.09868 0.88143 0.0
C650 C 0.92846 0.06547 0.87739 0.0
C651 C 0.90631 0.05289 0.86553 0.0
C652 C 0.88287 0.07298 0.8582 0.0
C653 C 0.88261 0.10563 0.86261 0.0
C654 C 0.90507 0.11858 0.87362 0.0
C655 C 0.90045 0.15473 0.87565 0.0
C656 C 0.89252 0.16348 0.89399 0.0
C657 C 0.93032 0.17337 0.86932 0.0
C658 C 0.87151 0.15997 0.86429 0.0
C659 C 0.86124 0.13125 0.85712 0.0
C660 C 0.83381 0.12969 0.84693 0.0
C661 C 0.81674 0.15839 0.84375 0.0
C662 C 0.8277 0.18813 0.85045 0.0
C663 C 0.85536 0.18894 0.86083 0.0
H664 H 0.94132 0.58548 0.61502 0.0
H665 H 0.98192 0.64123 0.57385 0.0
H666 H 0.93777 0.68137 0.57689 0.0
H667 H 0.85813 0.59794 0.60555 0.0
H668 H 0.84583 0.60159 0.6272 0.0
H669 H 0.88065 0.5775 0.6218 0.0
H670 H 0.91611 0.6111 0.64229 0.0
H671 H 0.88135 0.63517 0.64784 0.0
H672 H 0.91757 0.65453 0.64013 0.0
H673 H 0.88726 0.71383 0.58363 0.0
H674 H 0.83766 0.73884 0.59535 0.0
H675 H 0.83236 0.66283 0.63288 0.0
C676 C 0.94098 0.60615 0.60664 0.0
C677 C 0.96488 0.61018 0.59413 0.0
C678 C 0.96385 0.63776 0.58356 0.0
C679 C 0.93881 0.66057 0.58514 0.0
C680 C 0.91537 0.65562 0.5975 0.0
C681 C 0.91655 0.62933 0.60822 0.0
C682 C 0.88896 0.62989 0.62072 0.0
C683 C 0.86711 0.59995 0.61869 0.0
C684 C 0.90177 0.63286 0.63881 0.0
C685 C 0.87177 0.66042 0.61524 0.0
C686 C 0.88716 0.67481 0.60175 0.0
C687 C 0.87516 0.70289 0.59428 0.0
C688 C 0.84692 0.71682 0.60095 0.0
C689 C 0.83133 0.7028 0.61504 0.0
C690 C 0.84393 0.6742 0.62218 0.0
H691 H 0.1733 0.16767 0.36115 0.0
H692 H 0.10528 0.20582 0.32466 0.0
H693 H 0.0711 0.15688 0.32807 0.0
H694 H 0.16545 0.08198 0.35082 0.0
H695 H 0.16742 0.06955 0.37252 0.0
H696 H 0.18808 0.10574 0.36578 0.0
H697 H 0.15735 0.13917 0.3883 0.0
H698 H 0.13689 0.10309 0.39519 0.0
H699 H 0.1137 0.13795 0.38882 0.0
H700 H 0.04377 0.10386 0.3362 0.0
H701 H 0.02215 0.05566 0.35108 0.0
H702 H 0.10654 0.05521 0.38346 0.0
C703 C 0.15146 0.16547 0.35368 0.0
C704 C 0.14206 0.19022 0.34249 0.0
C705 C 0.11289 0.18699 0.33327 0.0
C706 C 0.0935 0.15921 0.33503 0.0
C707 C 0.10349 0.13519 0.34622 0.0
C708 C 0.13158 0.13835 0.35555 0.0
C709 C 0.13542 0.11086 0.36793 0.0
C710 C 0.1659 0.09085 0.36402 0.0
C711 C 0.13585 0.12353 0.38613 0.0
C712 C 0.10493 0.09186 0.36427 0.0
C713 C 0.08712 0.10577 0.35145 0.0
C714 C 0.05761 0.09269 0.34619 0.0
C715 C 0.04563 0.06523 0.3546 0.0
C716 C 0.06288 0.05179 0.36828 0.0
C717 C 0.09308 0.06497 0.37292 0.0
H718 H 0.57164 0.42591 0.10938 0.0
H719 H 0.52804 0.36314 0.07195 0.0
H720 H 0.57262 0.32373 0.0759 0.0
H721 H 0.65627 0.40898 0.09972 0.0
H722 H 0.66805 0.40965 0.12153 0.0
H723 H 0.63457 0.43406 0.11445 0.0
H724 H 0.59723 0.4072 0.13667 0.0
H725 H 0.63058 0.38286 0.14385 0.0
H726 H 0.59354 0.36371 0.13713 0.0
H727 H 0.62163 0.29033 0.08489 0.0
H728 H 0.66708 0.26397 0.10008 0.0
H729 H 0.67569 0.34823 0.13225 0.0
C730 C 0.57169 0.40413 0.1018 0.0
C731 C 0.5466 0.3977 0.09024 0.0
C732 C 0.54713 0.36854 0.08086 0.0
C733 C 0.57242 0.34614 0.08294 0.0
C734 C 0.59677 0.35323 0.09453 0.0
C735 C 0.59636 0.38143 0.10389 0.0
C736 C 0.62363 0.38231 0.11652 0.0
C737 C 0.64701 0.41042 0.11283 0.0
C738 C 0.61045 0.38411 0.13461 0.0
C739 C 0.63928 0.34999 0.11301 0.0
C740 C 0.62393 0.33371 0.10009 0.0
C741 C 0.63391 0.30294 0.09497 0.0
C742 C 0.65976 0.28823 0.10358 0.0
C743 C 0.6747 0.30417 0.11728 0.0
C744 C 0.66462 0.33556 0.1218 0.0
H745 H 0.44698 0.88506 0.89421 0.0
H746 H 0.42 0.95742 0.8573 0.0
H747 H 0.38301 0.91809 0.84382 0.0
H748 H 0.44587 0.81651 0.86485 0.0
H749 H 0.43035 0.78875 0.88037 0.0
H750 H 0.45539 0.82233 0.88676 0.0
H751 H 0.41044 0.84138 0.90723 0.0
H752 H 0.38526 0.80796 0.90087 0.0
H753 H 0.37022 0.8488 0.89928 0.0
H754 H 0.34466 0.87314 0.83649 0.0
H755 H 0.31193 0.82319 0.83365 0.0
H756 H 0.36739 0.7783 0.87359 0.0
C757 C 0.43332 0.89257 0.88329 0.0
C758 C 0.43596 0.92434 0.87688 0.0
C759 C 0.41826 0.93313 0.86236 0.0
C760 C 0.39717 0.91102 0.85466 0.0
C761 C 0.39471 0.88001 0.86144 0.0
C762 C 0.41275 0.87055 0.87522 0.0
C763 C 0.40575 0.83569 0.87993 0.0
C764 C 0.43615 0.81458 0.87785 0.0
C765 C 0.3921 0.83334 0.89789 0.0
C766 C 0.38027 0.82732 0.86693 0.0
C767 C 0.3741 0.85334 0.85647 0.0
C768 C 0.34974 0.85238 0.84435 0.0
C769 C 0.33124 0.82405 0.84286 0.0
C770 C 0.33766 0.79698 0.85321 0.0
C771 C 0.36265 0.79852 0.86528 0.0
H772 H 0.94563 0.36709 0.88457 0.0
H773 H 0.89612 0.43827 0.91526 0.0
H774 H 0.84419 0.40976 0.91065 0.0
H775 H 0.88477 0.36313 0.8537 0.0
H776 H 0.88942 0.32049 0.84952 0.0
H777 H 0.9233 0.34367 0.85712 0.0
H778 H 0.92984 0.30391 0.8821 0.0
H779 H 0.89589 0.2806 0.87457 0.0
H780 H 0.89583 0.29615 0.89573 0.0
H781 H 0.79742 0.37429 0.90211 0.0
H782 H 0.75839 0.3386 0.88728 0.0
H783 H 0.83781 0.29383 0.86034 0.0
C784 C 0.92391 0.37619 0.89056 0.0
C785 C 0.92475 0.4045 0.90045 0.0
C786 C 0.89582 0.41644 0.90771 0.0
C787 C 0.86632 0.40033 0.90525 0.0
C788 C 0.86614 0.3726 0.8953 0.0
C789 C 0.8941 0.36084 0.88788 0.0
C790 C 0.88673 0.33271 0.8763 0.0
C791 C 0.89664 0.34048 0.85809 0.0
C792 C 0.90304 0.3015 0.88255 0.0
C793 C 0.85029 0.33089 0.87816 0.0
C794 C 0.83893 0.35353 0.88949 0.0
C795 C 0.80602 0.35646 0.8932 0.0
C796 C 0.78408 0.33613 0.8848 0.0
C797 C 0.79523 0.31393 0.8726 0.0
C798 C 0.82871 0.31099 0.86944 0.0
H799 H 0.34203 0.17452 0.63455 0.0
H800 H 0.40492 0.20479 0.67534 0.0
H801 H 0.44 0.15728 0.6702 0.0
H802 H 0.35051 0.08646 0.64029 0.0
H803 H 0.35087 0.07905 0.61797 0.0
H804 H 0.32862 0.11295 0.62633 0.0
H805 H 0.3604 0.15182 0.60674 0.0
H806 H 0.3827 0.11812 0.59834 0.0
H807 H 0.40407 0.15195 0.60739 0.0
H808 H 0.47028 0.10829 0.65918 0.0
H809 H 0.49491 0.06476 0.64199 0.0
H810 H 0.41281 0.06848 0.60803 0.0
C811 C 0.36276 0.17081 0.64267 0.0
C812 C 0.37056 0.19317 0.65546 0.0
C813 C 0.39841 0.18787 0.6655 0.0
C814 C 0.41839 0.16088 0.66273 0.0
C815 C 0.41022 0.13953 0.64984 0.0
C816 C 0.38311 0.14432 0.63993 0.0
C817 C 0.38124 0.11975 0.62588 0.0
C818 C 0.35101 0.09828 0.62774 0.0
C819 C 0.38217 0.13641 0.60857 0.0
C820 C 0.41189 0.10077 0.62919 0.0
C821 C 0.42804 0.11209 0.64322 0.0
C822 C 0.45767 0.09904 0.64826 0.0
C823 C 0.47143 0.07428 0.63847 0.0
C824 C 0.45574 0.06334 0.62371 0.0
C825 C 0.42533 0.07638 0.61927 0.0
H826 H 0.69948 0.64199 0.37564 0.0
H827 H 0.68441 0.73215 0.40237 0.0
H828 H 0.63555 0.70892 0.41591 0.0
H829 H 0.62002 0.62676 0.36604 0.0
H830 H 0.6217 0.5835 0.36888 0.0
H831 H 0.65771 0.60543 0.36317 0.0
H832 H 0.68781 0.58263 0.38919 0.0
H833 H 0.65207 0.56005 0.39484 0.0
H834 H 0.67021 0.58739 0.40978 0.0
H835 H 0.58403 0.67839 0.42293 0.0
H836 H 0.53774 0.64074 0.42582 0.0
H837 H 0.58837 0.57 0.39525 0.0
C838 C 0.68642 0.65648 0.38474 0.0
C839 C 0.69566 0.6887 0.38809 0.0
C840 C 0.67791 0.7072 0.39988 0.0
C841 C 0.65005 0.69428 0.40751 0.0
C842 C 0.64084 0.66273 0.4034 0.0
C843 C 0.65896 0.64384 0.39258 0.0
C844 C 0.64321 0.6113 0.38954 0.0
C845 C 0.63519 0.60649 0.3708 0.0
C846 C 0.6646 0.58371 0.39625 0.0
C847 C 0.61282 0.6151 0.39993 0.0
C848 C 0.61179 0.64493 0.40781 0.0
C849 C 0.5849 0.65474 0.4171 0.0
C850 C 0.55863 0.63332 0.41855 0.0
C851 C 0.55961 0.60239 0.41086 0.0
C852 C 0.58714 0.59328 0.40148 0.0
H853 H 0.16996 0.8452 0.13872 0.0
H854 H 0.11179 0.81035 0.18036 0.0
H855 H 0.07704 0.85896 0.1782 0.0
H856 H 0.1628 0.93317 0.14739 0.0
H857 H 0.15965 0.94267 0.12534 0.0
H858 H 0.18294 0.90812 0.13207 0.0
H859 H 0.14886 0.87101 0.11259 0.0
H860 H 0.12557 0.90535 0.10582 0.0
H861 H 0.10537 0.87063 0.11469 0.0
H862 H 0.04556 0.90923 0.16963 0.0
H863 H 0.0182 0.95342 0.15395 0.0
H864 H 0.096 0.95289 0.11738 0.0
C865 C 0.15049 0.84822 0.14771 0.0
C866 C 0.14382 0.82423 0.15984 0.0
C867 C 0.11745 0.82857 0.17102 0.0
C868 C 0.09769 0.85618 0.16995 0.0
C869 C 0.10456 0.87912 0.15759 0.0
C870 C 0.1303 0.87528 0.14663 0.0
C871 C 0.13039 0.90114 0.1332 0.0
C872 C 0.16075 0.92254 0.13459 0.0
C873 C 0.12735 0.88613 0.11554 0.0
C874 C 0.10021 0.91965 0.13801 0.0
C875 C 0.08593 0.90715 0.15232 0.0
C876 C 0.05676 0.91946 0.15854 0.0
C877 C 0.04145 0.9446 0.14963 0.0
C878 C 0.05513 0.95649 0.13455 0.0
C879 C 0.08517 0.94431 0.12896 0.0
H880 H 0.66375 0.78154 0.87889 0.0
H881 H 0.72725 0.85761 0.86111 0.0
H882 H 0.69157 0.89878 0.87396 0.0
H883 H 0.59357 0.82019 0.86834 0.0
H884 H 0.56955 0.80665 0.88591 0.0
H885 H 0.60324 0.78271 0.8788 0.0
H886 H 0.62849 0.78431 0.9086 0.0
H887 H 0.59458 0.80793 0.91591 0.0
H888 H 0.63529 0.82277 0.91872 0.0
H889 H 0.64596 0.93139 0.88473 0.0
H890 H 0.59327 0.95403 0.89316 0.0
H891 H 0.55757 0.85701 0.90329 0.0
C892 C 0.67074 0.8068 0.87847 0.0
C893 C 0.69857 0.81667 0.86958 0.0
C894 C 0.70634 0.84986 0.8683 0.0
C895 C 0.68624 0.8733 0.87553 0.0
C896 C 0.65831 0.86302 0.88379 0.0
C897 C 0.65055 0.83057 0.88539 0.0
C898 C 0.61706 0.82628 0.89289 0.0
C899 C 0.59454 0.80788 0.88076 0.0
C900 C 0.61898 0.80932 0.91005 0.0
C901 C 0.60689 0.86135 0.89476 0.0
C902 C 0.63125 0.88208 0.88965 0.0
C903 C 0.62687 0.91546 0.88905 0.0
C904 C 0.59675 0.92807 0.89376 0.0
C905 C 0.57127 0.90732 0.89894 0.0
C906 C 0.57667 0.87354 0.89961 0.0
H907 H 0.40224 0.43792 0.10343 0.0
H908 H 0.47293 0.44489 0.14366 0.0
H909 H 0.44613 0.39963 0.1584 0.0
H910 H 0.33258 0.41669 0.13042 0.0
H911 H 0.31588 0.38933 0.11504 0.0
H912 H 0.33906 0.42399 0.10833 0.0
H913 H 0.37745 0.38632 0.09155 0.0
H914 H 0.35452 0.35158 0.09826 0.0
H915 H 0.39748 0.35343 0.10222 0.0
H916 H 0.41567 0.34998 0.16709 0.0
H917 H 0.38071 0.30182 0.17034 0.0
H918 H 0.3282 0.32859 0.12518 0.0
C919 C 0.41181 0.43022 0.11545 0.0
C920 C 0.4397 0.44486 0.12239 0.0
C921 C 0.45147 0.43414 0.13816 0.0
C922 C 0.43646 0.40841 0.14661 0.0
C923 C 0.40944 0.39402 0.13924 0.0
C924 C 0.3969 0.40481 0.12414 0.0
C925 C 0.36823 0.38446 0.11868 0.0
C926 C 0.33709 0.40483 0.11809 0.0
C927 C 0.37483 0.36797 0.10167 0.0
C928 C 0.36714 0.36003 0.13286 0.0
C929 C 0.39115 0.36596 0.14457 0.0
C930 C 0.39641 0.3454 0.15817 0.0
C931 C 0.37656 0.31804 0.15986 0.0
C932 C 0.3516 0.3117 0.1481 0.0
C933 C 0.34671 0.33319 0.13453 0.0
H934 H 0.95587 0.13351 0.39998 0.0
H935 H 0.91972 0.03808 0.38655 0.0
H936 H 0.86754 0.06195 0.3785 0.0
H937 H 0.87879 0.16399 0.41707 0.0
H938 H 0.88495 0.20424 0.40891 0.0
H939 H 0.9193 0.17965 0.4146 0.0
H940 H 0.94308 0.18688 0.38469 0.0
H941 H 0.90888 0.2115 0.37893 0.0
H942 H 0.9188 0.17614 0.3667 0.0
H943 H 0.82177 0.09588 0.36911 0.0
H944 H 0.78343 0.13855 0.36023 0.0
H945 H 0.84654 0.2119 0.38132 0.0
C946 C 0.93688 0.11761 0.3955 0.0
C947 C 0.94205 0.08389 0.39387 0.0
C948 C 0.91651 0.06395 0.38793 0.0
C949 C 0.88667 0.07725 0.38334 0.0
C950 C 0.88248 0.1105 0.38496 0.0
C951 C 0.90668 0.13046 0.39102 0.0
C952 C 0.89595 0.16557 0.39099 0.0
C953 C 0.89467 0.17915 0.40897 0.0
C954 C 0.91799 0.18623 0.37965 0.0
C955 C 0.86227 0.1622 0.3836 0.0
C956 C 0.85509 0.13015 0.38021 0.0
C957 C 0.8267 0.12098 0.37204 0.0
C958 C 0.80515 0.14526 0.36705 0.0
C959 C 0.81189 0.1781 0.37052 0.0
C960 C 0.84054 0.18673 0.37907 0.0
H961 H 0.12063 0.68939 0.65725 0.0
H962 H 0.21438 0.66536 0.63572 0.0
H963 H 0.19249 0.61343 0.62577 0.0
H964 H 0.09952 0.60653 0.67054 0.0
H965 H 0.05735 0.61135 0.66523 0.0
H966 H 0.08081 0.64588 0.67186 0.0
H967 H 0.06527 0.67616 0.64449 0.0
H968 H 0.0417 0.64182 0.63783 0.0
H969 H 0.0733 0.65741 0.62445 0.0
H970 H 0.1597 0.56737 0.61548 0.0
H971 H 0.11766 0.52882 0.60608 0.0
H972 H 0.04568 0.58019 0.6354 0.0
C973 C 0.13668 0.67307 0.65062 0.0
C974 C 0.16926 0.68159 0.64728 0.0
C975 C 0.18936 0.65952 0.63847 0.0
C976 C 0.1772 0.62984 0.6328 0.0
C977 C 0.14498 0.62235 0.63617 0.0
C978 C 0.12499 0.64315 0.64495 0.0
C979 C 0.09085 0.62974 0.64616 0.0
C980 C 0.0816 0.62297 0.66454 0.0
C981 C 0.06635 0.65264 0.63773 0.0
C982 C 0.09466 0.59855 0.63633 0.0
C983 C 0.12616 0.5948 0.63073 0.0
C984 C 0.13514 0.56957 0.6201 0.0
C985 C 0.11119 0.54785 0.61484 0.0
C986 C 0.07886 0.55125 0.6204 0.0
C987 C 0.07056 0.57654 0.6315 0.0
H988 H 0.58735 0.08141 0.60419 0.0
H989 H 0.53911 0.15211 0.5726 0.0
H990 H 0.58603 0.18902 0.57565 0.0
H991 H 0.61708 0.13765 0.63321 0.0
H992 H 0.65449 0.11641 0.63705 0.0
H993 H 0.61908 0.09435 0.63055 0.0
H994 H 0.65106 0.07058 0.60535 0.0
H995 H 0.68658 0.09278 0.61174 0.0
H996 H 0.67076 0.09758 0.59077 0.0
H997 H 0.63752 0.21926 0.58344 0.0
H998 H 0.68579 0.24216 0.59772 0.0
H999 H 0.69797 0.15229 0.62513 0.0
C1000 C 0.58691 0.1044 0.59764 0.0
C1001 C 0.55982 0.11379 0.588 0.0
C1002 C 0.55974 0.14444 0.58001 0.0
C1003 C 0.58634 0.16544 0.58157 0.0
C1004 C 0.61265 0.15549 0.59128 0.0
C1005 C 0.61292 0.12578 0.5993 0.0
C1006 C 0.64244 0.122 0.61035 0.0
C1007 C 0.63268 0.11735 0.62888 0.0
C1008 C 0.66398 0.09408 0.60418 0.0
C1009 C 0.65853 0.15442 0.60754 0.0
C1010 C 0.64143 0.17323 0.59625 0.0
C1011 C 0.65122 0.20464 0.5922 0.0
C1012 C 0.67871 0.21739 0.60028 0.0
C1013 C 0.6955 0.19888 0.61244 0.0
C1014 C 0.6856 0.16686 0.6158 0.0
H1015 H 0.16344 0.33956 0.86893 0.0
H1016 H 0.10923 0.3073 0.82536 0.0
H1017 H 0.07233 0.35407 0.82831 0.0
H1018 H 0.09507 0.36097 0.89252 0.0
H1019 H 0.11359 0.39536 0.90263 0.0
H1020 H 0.13832 0.36214 0.89565 0.0
H1021 H 0.17312 0.4017 0.8779 0.0
H1022 H 0.14838 0.43508 0.88481 0.0
H1023 H 0.1537 0.42752 0.86267 0.0
H1024 H 0.03949 0.40274 0.83697 0.0
H1025 H 0.01037 0.44606 0.85234 0.0
H1026 H 0.08423 0.44418 0.89109 0.0
C1027 C 0.14422 0.34282 0.85982 0.0
C1028 C 0.13932 0.32016 0.84681 0.0
C1029 C 0.11337 0.32455 0.83539 0.0
C1030 C 0.09244 0.35111 0.8369 0.0
C1031 C 0.09762 0.37287 0.85 0.0
C1032 C 0.12269 0.36882 0.86136 0.0
C1033 C 0.12092 0.39357 0.87534 0.0
C1034 C 0.11671 0.37702 0.89254 0.0
C1035 C 0.15081 0.41579 0.87516 0.0
C1036 C 0.09067 0.41177 0.87023 0.0
C1037 C 0.07792 0.39996 0.8554 0.0
C1038 C 0.04938 0.41237 0.84853 0.0
C1039 C 0.03307 0.43701 0.85728 0.0
C1040 C 0.04512 0.44836 0.87284 0.0
C1041 C 0.07455 0.43594 0.87917 0.0
H1042 H 0.94975 0.8673 0.10529 0.0
H1043 H 0.90707 0.96272 0.11163 0.0
H1044 H 0.85505 0.93768 0.11904 0.0
H1045 H 0.877 0.82849 0.08754 0.0
H1046 H 0.88401 0.79082 0.09838 0.0
H1047 H 0.91778 0.81601 0.0924 0.0
H1048 H 0.93749 0.81705 0.12332 0.0
H1049 H 0.90386 0.79187 0.12937 0.0
H1050 H 0.91015 0.83029 0.1396 0.0
H1051 H 0.80933 0.90328 0.12829 0.0
H1052 H 0.77186 0.86057 0.1382 0.0
H1053 H 0.84219 0.78712 0.12491 0.0
C1054 C 0.92938 0.88292 0.10804 0.0
C1055 C 0.93266 0.91703 0.10786 0.0
C1056 C 0.90535 0.93656 0.11166 0.0
C1057 C 0.87557 0.92258 0.11585 0.0
C1058 C 0.87324 0.88901 0.11607 0.0
C1059 C 0.89927 0.86934 0.11219 0.0
C1060 C 0.89038 0.83388 0.11407 0.0
C1061 C 0.89241 0.81627 0.09708 0.0
C1062 C 0.91174 0.81731 0.12738 0.0
C1063 C 0.85557 0.83682 0.11997 0.0
C1064 C 0.84622 0.8689 0.12097 0.0
C1065 C 0.81606 0.87805 0.12724 0.0
C1066 C 0.79499 0.85376 0.13281 0.0
C1067 C 0.80406 0.82088 0.13185 0.0
C1068 C 0.83453 0.81219 0.12523 0.0
H1069 H 0.41205 0.54869 0.39844 0.0
H1070 H 0.48672 0.54025 0.36032 0.0
H1071 H 0.4574 0.57973 0.3426 0.0
H1072 H 0.34265 0.55996 0.36883 0.0
H1073 H 0.32315 0.58839 0.38271 0.0
H1074 H 0.3477 0.55628 0.39125 0.0
H1075 H 0.38235 0.59858 0.40726 0.0
H1076 H 0.35812 0.63078 0.39871 0.0
H1077 H 0.40141 0.63095 0.3957 0.0
H1078 H 0.42508 0.62623 0.33143 0.0
H1079 H 0.3896 0.67343 0.32641 0.0
H1080 H 0.33417 0.64967 0.37102 0.0
C1081 C 0.42186 0.55462 0.3862 0.0
C1082 C 0.45164 0.54151 0.38073 0.0
C1083 C 0.4638 0.54985 0.36468 0.0
C1084 C 0.44733 0.57227 0.35455 0.0
C1085 C 0.4185 0.58554 0.36056 0.0
C1086 C 0.40556 0.57661 0.37589 0.0
C1087 C 0.37537 0.59592 0.37995 0.0
C1088 C 0.34544 0.57381 0.38073 0.0
C1089 C 0.37959 0.6152 0.39637 0.0
C1090 C 0.37404 0.61808 0.36482 0.0
C1091 C 0.39909 0.61161 0.35375 0.0
C1092 C 0.4049 0.63099 0.33975 0.0
C1093 C 0.38477 0.65779 0.33706 0.0
C1094 C 0.35897 0.66473 0.3482 0.0
C1095 C 0.35321 0.64429 0.36208 0.0
H1096 H 0.4682 0.12488 0.11705 0.0
H1097 H 0.42531 0.06265 0.07926 0.0
H1098 H 0.37424 0.09403 0.08087 0.0
H1099 H 0.39783 0.12848 0.14249 0.0
H1100 H 0.40404 0.16977 0.14908 0.0
H1101 H 0.43823 0.14498 0.14349 0.0
H1102 H 0.4561 0.18771 0.1215 0.0
H1103 H 0.4219 0.21264 0.12702 0.0
H1104 H 0.42795 0.20044 0.10549 0.0
H1105 H 0.32798 0.13242 0.08668 0.0
H1106 H 0.28756 0.16997 0.09901 0.0
H1107 H 0.35921 0.20315 0.13489 0.0
C1108 C 0.44816 0.11832 0.10894 0.0
C1109 C 0.45057 0.09186 0.09783 0.0
C1110 C 0.42375 0.0831 0.08775 0.0
C1111 C 0.39482 0.10084 0.08852 0.0
C1112 C 0.39305 0.1268 0.09969 0.0
C1113 C 0.41884 0.13518 0.10991 0.0
C1114 C 0.40969 0.16198 0.12198 0.0
C1115 C 0.41261 0.15061 0.14034 0.0
C1116 C 0.43013 0.1925 0.1188 0.0
C1117 C 0.37469 0.16722 0.11703 0.0
C1118 C 0.36575 0.14724 0.10388 0.0
C1119 C 0.33466 0.14807 0.09703 0.0
C1120 C 0.31195 0.16946 0.10403 0.0
C1121 C 0.32035 0.18895 0.11796 0.0
C1122 C 0.35215 0.18805 0.1244 0.0
H1123 H 0.58115 0.57382 0.87735 0.0
H1124 H 0.49381 0.59104 0.84847 0.0
H1125 H 0.51969 0.63918 0.83539 0.0
H1126 H 0.59948 0.65406 0.88652 0.0
H1127 H 0.64274 0.64959 0.88452 0.0
H1128 H 0.61825 0.6154 0.89045 0.0
H1129 H 0.64113 0.58231 0.86543 0.0
H1130 H 0.66605 0.61628 0.85954 0.0
H1131 H 0.63864 0.59865 0.84446 0.0
H1132 H 0.55365 0.68895 0.82815 0.0
H1133 H 0.59461 0.73226 0.82474 0.0
H1134 H 0.66016 0.67978 0.8575 0.0
C1135 C 0.56767 0.5874 0.86803 0.0
C1136 C 0.53557 0.57889 0.86386 0.0
C1137 C 0.51858 0.59711 0.85167 0.0
C1138 C 0.53302 0.62452 0.84429 0.0
C1139 C 0.56454 0.63278 0.84907 0.0
C1140 C 0.58183 0.6143 0.86042 0.0
C1141 C 0.61503 0.62836 0.86376 0.0
C1142 C 0.61909 0.63739 0.88241 0.0
C1143 C 0.64179 0.60501 0.85794 0.0
C1144 C 0.61364 0.65815 0.85278 0.0
C1145 C 0.5843 0.66047 0.84446 0.0
C1146 C 0.57687 0.68706 0.83438 0.0
C1147 C 0.60019 0.71161 0.83261 0.0
C1148 C 0.63065 0.70921 0.84075 0.0
C1149 C 0.6373 0.68206 0.85092 0.0
H1150 H 0.14814 0.80319 0.64241 0.0
H1151 H 0.22581 0.83408 0.60941 0.0
H1152 H 0.18766 0.86993 0.59429 0.0
H1153 H 0.0853 0.80245 0.6098 0.0
H1154 H 0.05419 0.81633 0.62397 0.0
H1155 H 0.08746 0.7925 0.63184 0.0
H1156 H 0.10088 0.83749 0.65344 0.0
H1157 H 0.06772 0.86144 0.64564 0.0
H1158 H 0.10803 0.87821 0.64616 0.0
H1159 H 0.14263 0.90668 0.58499 0.0
H1160 H 0.09211 0.93769 0.5801 0.0
H1161 H 0.04257 0.87923 0.61729 0.0
C1162 C 0.15706 0.8175 0.63201 0.0
C1163 C 0.18993 0.8163 0.62717 0.0
C1164 C 0.20065 0.83477 0.61326 0.0
C1165 C 0.17921 0.85519 0.60464 0.0
C1166 C 0.147 0.85619 0.60986 0.0
C1167 C 0.1358 0.8374 0.62302 0.0
C1168 C 0.09997 0.84281 0.62602 0.0
C1169 C 0.08059 0.81167 0.6227 0.0
C1170 C 0.09381 0.85577 0.64387 0.0
C1171 C 0.09298 0.8683 0.61283 0.0
C1172 C 0.12051 0.87581 0.60371 0.0
C1173 C 0.12075 0.90051 0.59176 0.0
C1174 C 0.0921 0.918 0.58909 0.0
C1175 C 0.06363 0.91021 0.59808 0.0
C1176 C 0.06396 0.88491 0.60997 0.0
H1177 H 0.91154 0.42843 0.38227 0.0
H1178 H 0.99225 0.42135 0.34759 0.0
H1179 H 0.96552 0.37466 0.33362 0.0
H1180 H 0.89934 0.34591 0.38819 0.0
H1181 H 0.85579 0.34834 0.3892 0.0
H1182 H 0.88004 0.38255 0.39534 0.0
H1183 H 0.84974 0.41879 0.37386 0.0
H1184 H 0.82515 0.38471 0.36777 0.0
H1185 H 0.84785 0.40665 0.35212 0.0
H1186 H 0.93188 0.32502 0.32564 0.0
H1187 H 0.89249 0.28016 0.32265 0.0
H1188 H 0.83368 0.32227 0.36223 0.0
C1189 C 0.9234 0.41737 0.37156 0.0
C1190 C 0.95392 0.42832 0.36598 0.0
C1191 C 0.9687 0.41337 0.35194 0.0
C1192 C 0.95376 0.38682 0.34401 0.0
C1193 C 0.92393 0.37608 0.35016 0.0
C1194 C 0.90873 0.39132 0.36346 0.0
C1195 C 0.87728 0.37486 0.36809 0.0
C1196 C 0.87819 0.36216 0.38628 0.0
C1197 C 0.84829 0.39761 0.36528 0.0
C1198 C 0.87734 0.34744 0.35555 0.0
C1199 C 0.90441 0.34839 0.34532 0.0
C1200 C 0.91038 0.32435 0.33341 0.0
C1201 C 0.88797 0.2989 0.33187 0.0
C1202 C 0.85989 0.29785 0.34212 0.0
C1203 C 0.85464 0.32258 0.35404 0.0
H1204 H 0.36239 0.76699 0.36842 0.0
H1205 H 0.2777 0.81402 0.38922 0.0
H1206 H 0.31295 0.85516 0.40273 0.0
H1207 H 0.41711 0.7835 0.40536 0.0
H1208 H 0.45161 0.78917 0.39178 0.0
H1209 H 0.41988 0.7614 0.38587 0.0
H1210 H 0.41309 0.79185 0.35762 0.0
H1211 H 0.44436 0.81996 0.3635 0.0
H1212 H 0.40476 0.83469 0.3578 0.0
H1213 H 0.35649 0.89642 0.40892 0.0
H1214 H 0.40588 0.93037 0.41113 0.0
H1215 H 0.46254 0.85359 0.38855 0.0
C1216 C 0.35147 0.78541 0.37627 0.0
C1217 C 0.31758 0.78752 0.37796 0.0
C1218 C 0.30378 0.81195 0.38809 0.0
C1219 C 0.32357 0.83541 0.3957 0.0
C1220 C 0.35702 0.8334 0.39332 0.0
C1221 C 0.37092 0.80846 0.38424 0.0
C1222 C 0.40725 0.81254 0.38285 0.0
C1223 C 0.42501 0.78502 0.39201 0.0
C1224 C 0.41797 0.81491 0.36435 0.0
C1225 C 0.41153 0.84445 0.3919 0.0
C1226 C 0.38228 0.8562 0.39781 0.0
C1227 C 0.37966 0.88702 0.40484 0.0
C1228 C 0.40769 0.90618 0.40595 0.0
C1229 C 0.43786 0.89416 0.40032 0.0
C1230 C 0.43982 0.86283 0.3934 0.0
H1231 H 0.89784 0.56705 0.11572 0.0
H1232 H 0.97792 0.56941 0.15104 0.0
H1233 H 0.95382 0.6173 0.16484 0.0
H1234 H 0.8901 0.65129 0.11039 0.0
H1235 H 0.84648 0.65112 0.10926 0.0
H1236 H 0.86902 0.61596 0.10279 0.0
H1237 H 0.83657 0.58048 0.12375 0.0
H1238 H 0.81375 0.61553 0.13019 0.0
H1239 H 0.83512 0.59179 0.14563 0.0
H1240 H 0.92333 0.66767 0.17315 0.0
H1241 H 0.88605 0.71388 0.17707 0.0
H1242 H 0.82497 0.67705 0.13696 0.0
C1243 C 0.91012 0.57742 0.12648 0.0
C1244 C 0.93974 0.56459 0.13231 0.0
C1245 C 0.95507 0.57875 0.14644 0.0
C1246 C 0.94164 0.60602 0.15431 0.0
C1247 C 0.91272 0.61849 0.14801 0.0
C1248 C 0.89689 0.60436 0.13458 0.0
C1249 C 0.86634 0.62267 0.13009 0.0
C1250 C 0.86811 0.63605 0.11206 0.0
C1251 C 0.83616 0.60134 0.13257 0.0
C1252 C 0.8677 0.64961 0.14295 0.0
C1253 C 0.89471 0.64689 0.15311 0.0
C1254 C 0.90188 0.66983 0.16541 0.0
C1255 C 0.88067 0.69606 0.16748 0.0
C1256 C 0.85252 0.69892 0.1574 0.0
C1257 C 0.84607 0.67531 0.14501 0.0
H1258 H 0.14214 0.22775 0.87652 0.0
H1259 H 0.22354 0.16197 0.8795 0.0
H1260 H 0.18773 0.1195 0.89127 0.0
H1261 H 0.1006 0.19872 0.91572 0.0
H1262 H 0.06101 0.20389 0.90656 0.0
H1263 H 0.09386 0.23004 0.90034 0.0
H1264 H 0.0842 0.21431 0.86922 0.0
H1265 H 0.05169 0.18778 0.87533 0.0
H1266 H 0.08518 0.17223 0.86324 0.0
H1267 H 0.14206 0.08238 0.89862 0.0
H1268 H 0.09032 0.05428 0.90417 0.0
H1269 H 0.0386 0.14493 0.89798 0.0
C1270 C 0.15245 0.20474 0.88026 0.0
C1271 C 0.1855 0.19802 0.87755 0.0
C1272 C 0.19831 0.1675 0.88193 0.0
C1273 C 0.17816 0.14329 0.88852 0.0
C1274 C 0.1454 0.1503 0.89073 0.0
C1275 C 0.13269 0.18046 0.88705 0.0
C1276 C 0.09637 0.18113 0.8898 0.0
C1277 C 0.08744 0.20485 0.90395 0.0
C1278 C 0.07831 0.18934 0.87342 0.0
C1279 C 0.0905 0.14638 0.89507 0.0
C1280 C 0.11911 0.12901 0.89549 0.0
C1281 C 0.11959 0.09585 0.8987 0.0
C1282 C 0.09009 0.08008 0.90172 0.0
C1283 C 0.06057 0.09752 0.90168 0.0
C1284 C 0.06089 0.13113 0.89841 0.0
H1285 H 0.61857 0.44695 0.62557 0.0
H1286 H 0.53194 0.43263 0.65549 0.0
H1287 H 0.55382 0.38037 0.66571 0.0
H1288 H 0.6273 0.36773 0.61217 0.0
H1289 H 0.67093 0.36708 0.61316 0.0
H1290 H 0.65004 0.4047 0.60971 0.0
H1291 H 0.67867 0.42987 0.63561 0.0
H1292 H 0.69994 0.39236 0.63902 0.0
H1293 H 0.67605 0.4098 0.65569 0.0
H1294 H 0.58249 0.32651 0.66962 0.0
H1295 H 0.61776 0.27804 0.66906 0.0
H1296 H 0.68627 0.32952 0.63748 0.0
C1297 C 0.60455 0.43316 0.63459 0.0
C1298 C 0.5737 0.44378 0.63984 0.0
C1299 C 0.55586 0.42506 0.65152 0.0
C1300 C 0.56802 0.39531 0.6573 0.0
C1301 C 0.59823 0.38508 0.65149 0.0
C1302 C 0.6165 0.40378 0.64063 0.0
C1303 C 0.64756 0.3869 0.63566 0.0
C1304 C 0.64902 0.38127 0.61655 0.0
C1305 C 0.67731 0.40586 0.64187 0.0
C1306 C 0.64364 0.35541 0.6451 0.0
C1307 C 0.61504 0.35468 0.65413 0.0
C1308 C 0.60523 0.32707 0.66285 0.0
C1309 C 0.6253 0.29963 0.66239 0.0
C1310 C 0.65491 0.30016 0.65339 0.0
C1311 C 0.66412 0.32855 0.64475 0.0
H1312 H 0.29211 0.22234 0.21417 0.0
H1313 H 0.21374 0.27779 0.19176 0.0
H1314 H 0.1921 0.28924 0.22 0.0
H1315 H 0.24509 0.18657 0.2474 0.0
H1316 H 0.27718 0.189 0.26271 0.0
H1317 H 0.2868 0.18507 0.24072 0.0
H1318 H 0.3219 0.23701 0.24225 0.0
H1319 H 0.31244 0.24108 0.26425 0.0
H1320 H 0.30421 0.27401 0.25001 0.0
H1321 H 0.17888 0.29471 0.25026 0.0
H1322 H 0.17472 0.2946 0.28101 0.0
H1323 H 0.26168 0.23555 0.28422 0.0
C1324 C 0.2704 0.23691 0.21516 0.0
C1325 C 0.25463 0.24914 0.20069 0.0
C1326 C 0.22628 0.26811 0.20261 0.0
C1327 C 0.21377 0.27475 0.2186 0.0
C1328 C 0.22987 0.26226 0.23255 0.0
C1329 C 0.25756 0.24378 0.23103 0.0
C1330 C 0.27015 0.23339 0.24811 0.0
C1331 C 0.26977 0.19631 0.24983 0.0
C1332 C 0.30419 0.24721 0.25134 0.0
C1333 C 0.24517 0.24898 0.25946 0.0
C1334 C 0.2222 0.26546 0.25016 0.0
C1335 C 0.19671 0.28192 0.25769 0.0
C1336 C 0.19462 0.28166 0.27523 0.0
C1337 C 0.21791 0.26506 0.28513 0.0
C1338 C 0.24348 0.24843 0.27706 0.0
H1339 H 0.98129 0.95808 0.53093 0.0
H1340 H 0.02075 0.04873 0.54973 0.0
H1341 H 0.02974 0.06705 0.52071 0.0
H1342 H 0.03704 0.94966 0.49628 0.0
H1343 H 0.00733 0.93304 0.48209 0.0
H1344 H 0.00328 0.9268 0.5044 0.0
H1345 H 0.94572 0.95168 0.5035 0.0
H1346 H 0.94963 0.9581 0.48119 0.0
H1347 H 0.94013 0.99161 0.49483 0.0
H1348 H 0.03416 0.07615 0.49035 0.0
H1349 H 0.03638 0.07524 0.45967 0.0
H1350 H 0.9951 0.9783 0.45943 0.0
C1351 C 0.99177 0.98181 0.52895 0.0
C1352 C 1.00023 0.00199 0.54268 0.0
C1353 C 0.01409 0.03277 0.5395 0.0
C1354 C 0.01922 0.04347 0.52304 0.0
C1355 C 0.01053 0.0231 0.50986 0.0
C1356 C 0.99728 0.99286 0.51254 0.0
C1357 C 0.99076 0.97572 0.49597 0.0
C1358 C 0.0108 0.94445 0.49461 0.0
C1359 C 0.95439 0.96888 0.49375 0.0
C1360 C 0.00247 0.00114 0.4836 0.0
C1361 C 0.01357 0.02824 0.492 0.0
C1362 C 0.02564 0.05507 0.48359 0.0
C1363 C 0.02676 0.0542 0.46607 0.0
C1364 C 0.01602 0.02659 0.45699 0.0
C1365 C 0.00348 0.99974 0.46594 0.0
H1366 H 0.19999 0.76866 0.72334 0.0
H1367 H 0.2819 0.7156 0.70289 0.0
H1368 H 0.29886 0.70097 0.73157 0.0
H1369 H 0.24177 0.80123 0.75885 0.0
H1370 H 0.20775 0.79773 0.77293 0.0
H1371 H 0.20102 0.80315 0.75075 0.0
H1372 H 0.16599 0.7511 0.75006 0.0
H1373 H 0.17255 0.74555 0.77227 0.0
H1374 H 0.18272 0.71362 0.75776 0.0
H1375 H 0.30771 0.69285 0.76208 0.0
H1376 H 0.3085 0.69188 0.79292 0.0
H1377 H 0.22121 0.75073 0.79408 0.0
C1378 C 0.22136 0.75376 0.72487 0.0
C1379 C 0.23958 0.74325 0.71082 0.0
C1380 C 0.26756 0.72402 0.71341 0.0
C1381 C 0.27738 0.71551 0.72966 0.0
C1382 C 0.25903 0.72645 0.7432 0.0
C1383 C 0.23164 0.74516 0.74103 0.0
C1384 C 0.21682 0.75437 0.75781 0.0
C1385 C 0.21685 0.79131 0.76022 0.0
C1386 C 0.18248 0.74031 0.75957 0.0
C1387 C 0.2403 0.738 0.76973 0.0
C1388 C 0.26434 0.72197 0.76098 0.0
C1389 C 0.28899 0.70525 0.7691 0.0
C1390 C 0.28917 0.70489 0.78667 0.0
C1391 C 0.26489 0.72123 0.79602 0.0
C1392 C 0.2401 0.73797 0.78735 0.0
H1393 H 0.50271 0.97383 0.0423 0.0
H1394 H 0.5593 0.0624 0.03892 0.0
H1395 H 0.55765 0.05916 0.00812 0.0
H1396 H 0.54002 0.93357 0.00664 0.0
H1397 H 0.50276 0.91517 -0.00033 0.0
H1398 H 0.50876 0.92385 0.02164 0.0
H1399 H 0.45581 0.95751 0.022 0.0
H1400 H 0.44967 0.94897 4e-05 0.0
H1401 H 0.45091 0.9903 0.00727 0.0
H1402 H 0.5489 0.04776 0.97783 0.0
H1403 H 0.53417 0.02797 0.94964 0.0
H1404 H 0.48379 0.94646 0.97227 0.0
C1405 C 0.51489 0.99245 0.0351 0.0
C1406 C 0.53113 0.01835 0.04312 0.0
C1407 C 0.54668 0.04226 0.03316 0.0
C1408 C 0.54592 0.04069 0.01561 0.0
C1409 C 0.52961 0.01502 0.00813 0.0
C1410 C 0.51445 0.99125 0.01749 0.0
C1411 C 0.49835 0.96648 0.00618 0.0
C1412 C 0.51338 0.93277 0.00868 0.0
C1413 C 0.4615 0.96579 0.00905 0.0
C1414 C 0.50671 0.98025 0.98906 0.0
C1415 C 0.52475 0.00826 0.9905 0.0
C1416 C 0.53489 0.02576 0.9765 0.0
C1417 C 0.52633 0.01434 0.96053 0.0
C1418 C 0.50787 0.98562 0.95869 0.0
C1419 C 0.49808 0.96838 0.97321 0.0
H1420 H 0.23931 0.72421 0.28845 0.0
H1421 H 0.33991 0.75432 0.2843 0.0
H1422 H 0.3347 0.75674 0.25362 0.0
H1423 H 0.2387 0.67425 0.25007 0.0
H1424 H 0.19803 0.68593 0.24448 0.0
H1425 H 0.20995 0.68461 0.26626 0.0
H1426 H 0.1921 0.74434 0.26982 0.0
H1427 H 0.18041 0.74594 0.24803 0.0
H1428 H 0.20901 0.7749 0.25622 0.0
H1429 H 0.3183 0.7599 0.2237 0.0
H1430 H 0.29209 0.75976 0.19584 0.0
H1431 H 0.20245 0.7267 0.2188 0.0
C1432 C 0.26035 0.73078 0.28106 0.0
C1433 C 0.28995 0.73919 0.28887 0.0
C1434 C 0.31685 0.74796 0.27871 0.0
C1435 C 0.31422 0.74939 0.26122 0.0
C1436 C 0.28459 0.74181 0.25395 0.0
C1437 C 0.25819 0.73233 0.26346 0.0
C1438 C 0.22896 0.72626 0.25236 0.0
C1439 C 0.21829 0.69064 0.25335 0.0
C1440 C 0.20097 0.74923 0.25688 0.0
C1441 C 0.24308 0.73425 0.23524 0.0
C1442 C 0.2752 0.74319 0.23648 0.0
C1443 C 0.29321 0.75264 0.2225 0.0
C1444 C 0.27807 0.75263 0.20674 0.0
C1445 C 0.24526 0.74311 0.20508 0.0
C1446 C 0.22764 0.73387 0.21959 0.0
H1447 H 0.52914 0.95967 0.46158 0.0
H1448 H 0.47527 0.03901 0.43908 0.0
H1449 H 0.46422 0.06096 0.46729 0.0
H1450 H 0.47713 0.9484 0.49707 0.0
H1451 H 0.50962 0.93956 0.51149 0.0
H1452 H 0.51407 0.93025 0.4895 0.0
H1453 H 0.56656 0.9646 0.48834 0.0
H1454 H 0.56231 0.97399 0.51034 0.0
H1455 H 0.56555 0.00621 0.49515 0.0
H1456 H 0.45806 0.0738 0.49758 0.0
H1457 H 0.45735 0.07749 0.52835 0.0
H1458 H 0.51542 0.98993 0.53164 0.0
C1459 C 0.51513 0.98174 0.46254 0.0
C1460 C 0.5031 0.99761 0.44805 0.0
C1461 C 0.48479 0.02639 0.44994 0.0
C1462 C 0.47837 0.03907 0.46592 0.0
C1463 C 0.49046 0.02275 0.47989 0.0
C1464 C 0.50849 0.99477 0.4784 0.0
C1465 C 0.51832 0.98185 0.49551 0.0
C1466 C 0.50392 0.94801 0.49857 0.0
C1467 C 0.55539 0.98166 0.49744 0.0
C1468 C 0.50284 0.00693 0.50684 0.0
C1469 C 0.48693 0.03025 0.49752 0.0
C1470 C 0.47047 0.05575 0.50503 0.0
C1471 C 0.47021 0.05754 0.52257 0.0
C1472 C 0.48634 0.03397 0.53251 0.0
C1473 C 0.50293 0.00835 0.52446 0.0
H1474 H 0.26869 0.27158 0.79092 0.0
H1475 H 0.17153 0.23286 0.78435 0.0
H1476 H 0.17895 0.23287 0.75383 0.0
H1477 H 0.26686 0.32406 0.75369 0.0
H1478 H 0.30871 0.31674 0.74845 0.0
H1479 H 0.29569 0.315 0.77005 0.0
H1480 H 0.31892 0.25694 0.77251 0.0
H1481 H 0.33175 0.2584 0.75089 0.0
H1482 H 0.30563 0.22619 0.75798 0.0
H1483 H 0.19687 0.23388 0.72433 0.0
H1484 H 0.22365 0.23971 0.69686 0.0
H1485 H 0.30904 0.27875 0.72164 0.0
C1486 C 0.24889 0.2635 0.78304 0.0
C1487 C 0.21962 0.25205 0.79014 0.0
C1488 C 0.19434 0.24151 0.77934 0.0
C1489 C 0.19822 0.24142 0.76192 0.0
C1490 C 0.22747 0.2521 0.75535 0.0
C1491 C 0.25231 0.26327 0.76547 0.0
C1492 C 0.28136 0.27305 0.75493 0.0
C1493 C 0.28857 0.30937 0.7569 0.0
C1494 C 0.31117 0.25241 0.75935 0.0
C1495 C 0.26889 0.26529 0.73743 0.0
C1496 C 0.23777 0.25316 0.73803 0.0
C1497 C 0.22119 0.24358 0.72363 0.0
C1498 C 0.23669 0.24686 0.70808 0.0
C1499 C 0.26843 0.25976 0.70703 0.0
C1500 C 0.28472 0.26893 0.72198 0.0
H1501 H 0.9769 0.05319 0.97304 0.0
H1502 H 0.02114 0.96676 0.95196 0.0
H1503 H 0.03014 0.94569 0.9805 0.0
H1504 H 0.03073 0.06 0.00895 0.0
H1505 H 0.99926 0.07361 0.02297 0.0
H1506 H 0.99667 0.08239 0.00083 0.0
H1507 H 0.94016 0.05514 -0.00027 0.0
H1508 H 0.94267 0.04606 0.02183 0.0
H1509 H 0.93565 0.01399 0.0069 0.0
H1510 H 0.03296 0.93301 0.01083 0.0
H1511 H 0.03237 0.93037 0.04161 0.0
H1512 H 0.98688 0.02523 0.04368 0.0
C1513 C 0.98867 0.02992 0.9744 0.0
C1514 C 0.99826 0.01164 0.96018 0.0
C1515 C 0.01356 0.98128 0.96258 0.0
C1516 C 0.01874 0.96903 0.97876 0.0
C1517 C 0.0086 0.98744 0.99244 0.0
C1518 C 0.99412 0.01731 0.99049 0.0
C1519 C 0.98561 0.03207 0.0074 0.0
C1520 C 0.00418 0.0639 0.0102 0.0
C1521 C 0.94884 0.0371 0.00905 0.0
C1522 C 0.99748 0.00569 0.01912 0.0
C1523 C 0.01053 0.98019 0.01015 0.0
C1524 C 0.02294 0.95287 0.01802 0.0
C1525 C 0.02242 0.95165 0.03557 0.0
C1526 C 0.00965 0.97766 0.04517 0.0
C1527 C 0.99678 0.00495 0.03675 0.0
H1528 H 0.79029 0.72226 0.71037 0.0
H1529 H 0.70575 0.76744 0.68781 0.0
H1530 H 0.68244 0.77563 0.71603 0.0
H1531 H 0.74789 0.68126 0.74448 0.0
H1532 H 0.77986 0.68841 0.75946 0.0
H1533 H 0.78928 0.6844 0.73744 0.0
H1534 H 0.81796 0.7402 0.73791 0.0
H1535 H 0.80868 0.74437 0.75991 0.0
H1536 H 0.79615 0.77524 0.74528 0.0
H1537 H 0.66929 0.78087 0.74634 0.0
H1538 H 0.66722 0.7844 0.77711 0.0
H1539 H 0.76049 0.73605 0.78046 0.0
C1540 C 0.76672 0.73361 0.71131 0.0
C1541 C 0.74979 0.74411 0.69681 0.0
C1542 C 0.71918 0.75916 0.69868 0.0
C1543 C 0.70569 0.76383 0.71466 0.0
C1544 C 0.72309 0.75331 0.72864 0.0
C1545 C 0.75293 0.73855 0.72716 0.0
C1546 C 0.76716 0.73075 0.74428 0.0
C1547 C 0.77128 0.69402 0.74654 0.0
C1548 C 0.79939 0.74872 0.747 0.0
C1549 C 0.74078 0.74385 0.75563 0.0
C1550 C 0.71554 0.75652 0.74629 0.0
C1551 C 0.68881 0.77092 0.7538 0.0
C1552 C 0.68798 0.77287 0.77133 0.0
C1553 C 0.71376 0.76056 0.78126 0.0
C1554 C 0.74031 0.74543 0.77325 0.0
H1555 H 0.75472 0.23832 0.20731 0.0
H1556 H 0.68337 0.3154 0.21086 0.0
H1557 H 0.68968 0.31625 0.2415 0.0
H1558 H 0.72967 0.19595 0.24402 0.0
H1559 H 0.77001 0.18497 0.25055 0.0
H1560 H 0.76132 0.19116 0.2286 0.0
H1561 H 0.80714 0.23395 0.22683 0.0
H1562 H 0.81608 0.22776 0.24876 0.0
H1563 H 0.80697 0.26782 0.24113 0.0
H1564 H 0.70148 0.30768 0.27177 0.0
H1565 H 0.71971 0.29081 0.29997 0.0
H1566 H 0.78352 0.21963 0.27712 0.0
C1567 C 0.74071 0.25559 0.21452 0.0
C1568 C 0.71851 0.27669 0.20661 0.0
C1569 C 0.70044 0.29879 0.21656 0.0
C1570 C 0.70386 0.29958 0.23402 0.0
C1571 C 0.72549 0.27819 0.24144 0.0
C1572 C 0.74376 0.25671 0.23206 0.0
C1573 C 0.76471 0.23588 0.24334 0.0
C1574 C 0.75588 0.19986 0.24152 0.0
C1575 C 0.80087 0.24172 0.2398 0.0
C1576 C 0.75503 0.24888 0.26044 0.0
C1577 C 0.73242 0.27331 0.25904 0.0
C1578 C 0.71934 0.28867 0.27307 0.0
C1579 C 0.72977 0.27886 0.28904 0.0
C1580 C 0.75307 0.25393 0.29081 0.0
C1581 C 0.76578 0.23885 0.27625 0.0
H1582 H 0.78909 0.28085 0.77511 0.0
H1583 H 0.72908 0.20313 0.79472 0.0
H1584 H 0.71965 0.18344 0.76592 0.0
H1585 H 0.73933 0.29751 0.73962 0.0
H1586 H 0.77247 0.30649 0.72562 0.0
H1587 H 0.77688 0.31317 0.74786 0.0
H1588 H 0.82778 0.2765 0.74813 0.0
H1589 H 0.82341 0.26957 0.72587 0.0
H1590 H 0.82501 0.23574 0.74015 0.0
H1591 H 0.71532 0.17284 0.73563 0.0
H1592 H 0.7122 0.17406 0.70488 0.0
H1593 H 0.77331 0.2598 0.70396 0.0
C1594 C 0.77426 0.25949 0.77332 0.0
C1595 C 0.75992 0.2434 0.78715 0.0
C1596 C 0.74021 0.21588 0.78431 0.0
C1597 C 0.7349 0.20437 0.76802 0.0
C1598 C 0.74928 0.22077 0.75468 0.0
C1599 C 0.7683 0.24789 0.75706 0.0
C1600 C 0.77894 0.26215 0.74035 0.0
C1601 C 0.76613 0.29689 0.73824 0.0
C1602 C 0.81599 0.26091 0.73852 0.0
C1603 C 0.76254 0.23898 0.72825 0.0
C1604 C 0.746 0.2151 0.73688 0.0
C1605 C 0.72819 0.19135 0.72869 0.0
C1606 C 0.72655 0.19237 0.71118 0.0
C1607 C 0.74239 0.21715 0.70195 0.0
C1608 C 0.76116 0.24042 0.71063 0.0
H1609 H 0.76752 0.75406 0.2967 0.0
H1610 H 0.70219 0.6716 0.29438 0.0
H1611 H 0.7043 0.67293 0.26359 0.0
H1612 H 0.73454 0.79623 0.26174 0.0
H1613 H 0.77292 0.81065 0.25393 0.0
H1614 H 0.76784 0.80263 0.27602 0.0
H1615 H 0.8168 0.76341 0.27539 0.0
H1616 H 0.82219 0.77151 0.25332 0.0
H1617 H 0.81717 0.73045 0.26054 0.0
H1618 H 0.71067 0.68445 0.23315 0.0
H1619 H 0.72379 0.704 0.20466 0.0
H1620 H 0.78558 0.77836 0.22628 0.0
C1621 C 0.75401 0.73605 0.28972 0.0
C1622 C 0.73463 0.71282 0.29805 0.0
C1623 C 0.71713 0.6898 0.28839 0.0
C1624 C 0.71813 0.69028 0.27083 0.0
C1625 C 0.73688 0.7138 0.26302 0.0
C1626 C 0.75474 0.73611 0.27209 0.0
C1627 C 0.77245 0.75913 0.26043 0.0
C1628 C 0.76126 0.79424 0.2632 0.0
C1629 C 0.80934 0.75592 0.26255 0.0
C1630 C 0.76142 0.74637 0.2435 0.0
C1631 C 0.74087 0.72024 0.24531 0.0
C1632 C 0.72692 0.70477 0.23153 0.0
C1633 C 0.73442 0.71614 0.21539 0.0
C1634 C 0.75577 0.74266 0.21319 0.0
C1635 C 0.76931 0.75792 0.2275 0.0
H1636 H 0.45565 0.47045 0.02418 0.0
H1637 H 0.54145 0.51898 0.04338 0.0
H1638 H 0.55922 0.53 0.01442 0.0
H1639 H 0.49336 0.43411 0.98731 0.0
H1640 H 0.45879 0.44086 0.97392 0.0
H1641 H 0.45318 0.43493 0.99618 0.0
H1642 H 0.4224 0.48944 0.99819 0.0
H1643 H 0.42765 0.49538 0.97593 0.0
H1644 H 0.44143 0.52585 0.9905 0.0
H1645 H 0.56755 0.53674 0.98406 0.0
H1646 H 0.56385 0.54368 0.9535 0.0
H1647 H 0.47208 0.49213 0.95311 0.0
C1648 C 0.47826 0.48325 0.02228 0.0
C1649 C 0.49722 0.49378 0.03607 0.0
C1650 C 0.52644 0.51079 0.03305 0.0
C1651 C 0.53689 0.51695 0.01664 0.0
C1652 C 0.51779 0.50609 0.00337 0.0
C1653 C 0.48894 0.48992 0.00593 0.0
C1654 C 0.47223 0.48264 0.98934 0.0
C1655 C 0.46922 0.44595 0.98653 0.0
C1656 C 0.43896 0.49933 0.98844 0.0
C1657 C 0.49607 0.49767 0.97711 0.0
C1658 C 0.52233 0.51061 0.98556 0.0
C1659 C 0.54718 0.52669 0.97727 0.0
C1660 C 0.54477 0.53053 0.95989 0.0
C1661 C 0.5176 0.51854 0.95092 0.0
C1662 C 0.49327 0.50121 0.95961 0.0
H1663 H 0.02431 0.51057 0.45542 0.0
H1664 H 0.93365 0.45715 0.45642 0.0
H1665 H 0.93052 0.46403 0.487 0.0
H1666 H 0.05638 0.4774 0.49253 0.0
H1667 H 0.07503 0.51416 0.49999 0.0
H1668 H 0.06913 0.50802 0.4778 0.0
H1669 H 0.03705 0.56179 0.47587 0.0
H1670 H 0.04313 0.56826 0.49805 0.0
H1671 H 0.00271 0.56817 0.48948 0.0
H1672 H 0.93903 0.4719 0.51749 0.0
H1673 H 0.95745 0.48378 0.54634 0.0
H1674 H 0.04209 0.53282 0.52613 0.0
C1675 C 0.0035 0.50099 0.46206 0.0
C1676 C 0.97932 0.48323 0.45351 0.0
C1677 C 0.95266 0.47063 0.46269 0.0
C1678 C 0.95054 0.47446 0.48008 0.0
C1679 C 0.97517 0.49114 0.48822 0.0
C1680 C 0.00099 0.50454 0.47957 0.0
C1681 C 0.02481 0.52008 0.49163 0.0
C1682 C 0.05831 0.50394 0.49041 0.0
C1683 C 0.02704 0.55676 0.48857 0.0
C1684 C 0.00857 0.51265 0.5083 0.0
C1685 C 0.97993 0.49601 0.50601 0.0
C1686 C 0.96124 0.48528 0.5195 0.0
C1687 C 0.97199 0.49198 0.53583 0.0
C1688 C 0.00112 0.50932 0.53853 0.0
C1689 C 0.01954 0.51976 0.52452 0.0
H1690 H 0.95884 0.54468 0.03368 0.0
H1691 H 0.99697 0.45446 0.0536 0.0
H1692 H 0.00352 0.43372 0.0248 0.0
H1693 H 0.91508 0.50994 0.99827 0.0
H1694 H 0.92526 0.54248 0.98412 0.0
H1695 H 0.92193 0.55014 0.00635 0.0
H1696 H 0.98016 0.57355 0.00663 0.0
H1697 H 0.98363 0.56606 0.98441 0.0
H1698 H 0.01314 0.54938 0.99869 0.0
H1699 H 0.00665 0.42271 0.99452 0.0
H1700 H 0.00952 0.42255 0.96382 0.0
H1701 H 0.97086 0.52046 0.96252 0.0
C1702 C 0.96833 0.52046 0.03197 0.0
C1703 C 0.97727 0.50111 0.04592 0.0
C1704 C 0.99001 0.46975 0.04315 0.0
C1705 C 0.99369 0.45768 0.02684 0.0
C1706 C 0.98469 0.47732 0.01341 0.0
C1707 C 0.97249 0.5081 0.01571 0.0
C1708 C 0.96615 0.52455 0.99895 0.0
C1709 C 0.92995 0.53223 0.9968 0.0
C1710 C 0.98702 0.5552 0.99706 0.0
C1711 C 0.97692 0.49819 0.98691 0.0
C1712 C 0.9872 0.47114 0.99563 0.0
C1713 C 0.99871 0.44372 0.98752 0.0
C1714 C 1.00027 0.44399 0.97001 0.0
C1715 C 0.99058 0.47161 0.96064 0.0
C1716 C 0.97835 0.49897 0.96926 0.0
H1717 H 0.52937 0.48421 0.47255 0.0
H1718 H 0.47834 0.57627 0.47333 0.0
H1719 H 0.48714 0.58038 0.50371 0.0
H1720 H 0.4974 0.4551 0.51149 0.0
H1721 H 0.53434 0.43561 0.51806 0.0
H1722 H 0.52563 0.44026 0.49602 0.0
H1723 H 0.58038 0.46991 0.49184 0.0
H1724 H 0.58921 0.46543 0.5139 0.0
H1725 H 0.58954 0.50505 0.50441 0.0
H1726 H 0.49935 0.5745 0.53385 0.0
H1727 H 0.51322 0.55776 0.56264 0.0
H1728 H 0.55634 0.46945 0.54309 0.0
C1729 C 0.52025 0.50529 0.47911 0.0
C1730 C 0.50312 0.52985 0.47048 0.0
C1731 C 0.49139 0.55697 0.47958 0.0
C1732 C 0.49638 0.55969 0.49688 0.0
C1733 C 0.51315 0.53513 0.505 0.0
C1734 C 0.52487 0.50839 0.49651 0.0
C1735 C 0.54101 0.48495 0.50856 0.0
C1736 C 0.52354 0.45204 0.50853 0.0
C1737 C 0.57719 0.48112 0.50443 0.0
C1738 C 0.53614 0.50266 0.52508 0.0
C1739 C 0.5202 0.53164 0.52265 0.0
C1740 C 0.51201 0.55193 0.53595 0.0
C1741 C 0.51999 0.54217 0.55227 0.0
C1742 C 0.53595 0.51233 0.55517 0.0
C1743 C 0.54443 0.49255 0.54131 0.0
H1744 H 0.33706 0.17846 0.37516 0.0
H1745 H 0.28506 0.14478 0.33104 0.0
H1746 H 0.31616 0.09372 0.33177 0.0
H1747 H 0.41431 0.14546 0.36384 0.0
H1748 H 0.42502 0.13472 0.38509 0.0
H1749 H 0.39823 0.1683 0.38125 0.0
H1750 H 0.355 0.14211 0.40058 0.0
H1751 H 0.38163 0.10839 0.40443 0.0
H1752 H 0.34144 0.10143 0.39635 0.0
H1753 H 0.35322 0.04641 0.33723 0.0
H1754 H 0.39445 0.00702 0.34649 0.0
H1755 H 0.42243 0.07177 0.38698 0.0
C1756 C 0.33214 0.16036 0.36565 0.0
C1757 C 0.30856 0.16566 0.35304 0.0
C1758 C 0.303 0.14133 0.34081 0.0
C1759 C 0.3205 0.11221 0.34114 0.0
C1760 C 0.3435 0.10777 0.35376 0.0
C1761 C 0.34941 0.13121 0.36576 0.0
C1762 C 0.3758 0.12065 0.37782 0.0
C1763 C 0.40507 0.14365 0.37694 0.0
C1764 C 0.36267 0.11798 0.39586 0.0
C1765 C 0.38392 0.08764 0.37069 0.0
C1766 C 0.36492 0.08061 0.35686 0.0
C1767 C 0.3682 0.05165 0.34805 0.0
C1768 C 0.3917 0.0294 0.35343 0.0
C1769 C 0.41173 0.03624 0.36747 0.0
C1770 C 0.4075 0.06572 0.37623 0.0
H1771 H 0.05074 0.12064 0.62918 0.0
H1772 H 0.10802 0.04753 0.60359 0.0
H1773 H 0.15762 0.07905 0.60932 0.0
H1774 H 0.09607 0.18952 0.61431 0.0
H1775 H 0.09238 0.21156 0.63377 0.0
H1776 H 0.06139 0.18318 0.62769 0.0
H1777 H 0.06859 0.15278 0.65594 0.0
H1778 H 0.09967 0.18101 0.66208 0.0
H1779 H 0.10815 0.13821 0.66183 0.0
H1780 H 0.20109 0.11817 0.6181 0.0
H1781 H 0.23519 0.16292 0.62853 0.0
H1782 H 0.14957 0.21087 0.64819 0.0
C1783 C 0.07369 0.11124 0.62476 0.0
C1784 C 0.07545 0.08155 0.61594 0.0
C1785 C 0.10601 0.0702 0.61035 0.0
C1786 C 0.13435 0.08791 0.61357 0.0
C1787 C 0.13176 0.11697 0.62235 0.0
C1788 C 0.10222 0.12864 0.62781 0.0
C1789 C 0.10609 0.16069 0.63687 0.0
C1790 C 0.08791 0.18784 0.6276 0.0
C1791 C 0.09497 0.15799 0.65527 0.0
C1792 C 0.14245 0.16518 0.63568 0.0
C1793 C 0.15679 0.13965 0.6273 0.0
C1794 C 0.19012 0.13832 0.62466 0.0
C1795 C 0.2093 0.16387 0.63066 0.0
C1796 C 0.19511 0.19048 0.63918 0.0
C1797 C 0.1612 0.19093 0.64173 0.0
H1798 H 0.14659 0.81239 0.88574 0.0
H1799 H 0.19081 0.84089 0.83847 0.0
H1800 H 0.15899 0.89154 0.83878 0.0
H1801 H 0.06714 0.84322 0.87688 0.0
H1802 H 0.05998 0.85656 0.89813 0.0
H1803 H 0.08641 0.82273 0.89421 0.0
H1804 H 0.13247 0.85155 0.91054 0.0
H1805 H 0.1062 0.88551 0.91447 0.0
H1806 H 0.14476 0.89169 0.90434 0.0
H1807 H 0.12229 0.93902 0.84426 0.0
H1808 H 0.08277 0.97949 0.8542 0.0
H1809 H 0.06254 0.91986 0.89793 0.0
C1810 C 0.14962 0.82923 0.87543 0.0
C1811 C 0.17122 0.82264 0.86207 0.0
C1812 C 0.17441 0.84538 0.84884 0.0
C1813 C 0.15647 0.87424 0.84891 0.0
C1814 C 0.13547 0.87998 0.86231 0.0
C1815 C 0.13193 0.8581 0.87531 0.0
C1816 C 0.1076 0.86997 0.88816 0.0
C1817 C 0.07856 0.84674 0.88941 0.0
C1818 C 0.12373 0.87498 0.9054 0.0
C1819 C 0.09791 0.90194 0.88034 0.0
C1820 C 0.11432 0.90729 0.86545 0.0
C1821 C 0.10931 0.93509 0.85591 0.0
C1822 C 0.08679 0.95795 0.86168 0.0
C1823 C 0.0695 0.95289 0.87685 0.0
C1824 C 0.07536 0.92451 0.8863 0.0
H1825 H 0.31007 0.84378 0.14597 0.0
H1826 H 0.30473 0.80207 0.09593 0.0
H1827 H 0.34607 0.84057 0.08606 0.0
H1828 H 0.32233 0.92743 0.13258 0.0
H1829 H 0.35042 0.9364 0.14929 0.0
H1830 H 0.3192 0.90647 0.15239 0.0
H1831 H 0.36274 0.86406 0.16046 0.0
H1832 H 0.39406 0.89383 0.15738 0.0
H1833 H 0.39561 0.85598 0.14614 0.0
H1834 H 0.38914 0.88213 0.08164 0.0
H1835 H 0.43177 0.9239 0.08314 0.0
H1836 H 0.40985 0.93888 0.13597 0.0
C1837 C 0.3174 0.84294 0.13291 0.0
C1838 C 0.30406 0.81987 0.12174 0.0
C1839 C 0.31455 0.81944 0.10476 0.0
C1840 C 0.33801 0.84128 0.099 0.0
C1841 C 0.35084 0.86351 0.11032 0.0
C1842 C 0.34097 0.86457 0.12692 0.0
C1843 C 0.35949 0.89029 0.13657 0.0
C1844 C 0.33648 0.91671 0.14309 0.0
C1845 C 0.37914 0.87512 0.15099 0.0
C1846 C 0.38148 0.9032 0.12283 0.0
C1847 C 0.37593 0.88751 0.10778 0.0
C1848 C 0.39364 0.89471 0.09334 0.0
C1849 C 0.41783 0.91848 0.09432 0.0
C1850 C 0.42421 0.93474 0.10965 0.0
C1851 C 0.40554 0.92703 0.12404 0.0
H1852 H 0.6772 0.82842 0.63478 0.0
H1853 H 0.74712 0.86062 0.59757 0.0
H1854 H 0.70868 0.90237 0.5879 0.0
H1855 H 0.60693 0.83808 0.60929 0.0
H1856 H 0.58157 0.85232 0.62619 0.0
H1857 H 0.61497 0.82563 0.63061 0.0
H1858 H 0.63821 0.86723 0.65181 0.0
H1859 H 0.60478 0.89399 0.64752 0.0
H1860 H 0.6458 0.90818 0.64503 0.0
H1861 H 0.66178 0.93957 0.58159 0.0
H1862 H 0.61062 0.97046 0.57981 0.0
H1863 H 0.57159 0.9142 0.62124 0.0
C1864 C 0.68455 0.84438 0.62468 0.0
C1865 C 0.71523 0.84116 0.61694 0.0
C1866 C 0.72379 0.86254 0.60372 0.0
C1867 C 0.7021 0.88636 0.59811 0.0
C1868 C 0.67194 0.88862 0.60588 0.0
C1869 C 0.66322 0.86833 0.61894 0.0
C1870 C 0.62921 0.87562 0.62502 0.0
C1871 C 0.60686 0.84616 0.62263 0.0
C1872 C 0.62953 0.88693 0.64344 0.0
C1873 C 0.62008 0.90298 0.61325 0.0
C1874 C 0.64505 0.91013 0.60231 0.0
C1875 C 0.6421 0.93426 0.59014 0.0
C1876 C 0.61291 0.95163 0.5892 0.0
C1877 C 0.58705 0.94482 0.60037 0.0
C1878 C 0.59086 0.9201 0.61252 0.0
H1879 H 0.93747 0.90637 0.39956 0.0
H1880 H 0.90821 0.97405 0.36065 0.0
H1881 H 0.86471 0.93689 0.35196 0.0
H1882 H 0.92482 0.83483 0.37553 0.0
H1883 H 0.90944 0.81115 0.3928 0.0
H1884 H 0.93735 0.84379 0.39673 0.0
H1885 H 0.89642 0.86989 0.41736 0.0
H1886 H 0.86842 0.83722 0.41356 0.0
H1887 H 0.85582 0.87852 0.41031 0.0
H1888 H 0.82581 0.89165 0.34652 0.0
H1889 H 0.79336 0.84147 0.34521 0.0
H1890 H 0.84746 0.80282 0.3875 0.0
C1891 C 0.92166 0.91351 0.38935 0.0
C1892 C 0.92633 0.94316 0.38079 0.0
C1893 C 0.90527 0.95145 0.36738 0.0
C1894 C 0.88039 0.93052 0.36234 0.0
C1895 C 0.87674 0.9013 0.37083 0.0
C1896 C 0.89666 0.89278 0.38409 0.0
C1897 C 0.88797 0.85947 0.39072 0.0
C1898 C 0.9166 0.83592 0.38883 0.0
C1899 C 0.87647 0.8614 0.40908 0.0
C1900 C 0.86035 0.85057 0.37901 0.0
C1901 C 0.85422 0.8751 0.36767 0.0
C1902 C 0.83025 0.87231 0.3554 0.0
C1903 C 0.81198 0.84368 0.35473 0.0
C1904 C 0.81778 0.81817 0.36624 0.0
C1905 C 0.84231 0.82186 0.37854 0.0
H1906 H 0.81848 0.18015 0.15088 0.0
H1907 H 0.75403 0.14727 0.11123 0.0
H1908 H 0.7958 0.10915 0.10145 0.0
H1909 H 0.89096 0.17781 0.12707 0.0
H1910 H 0.91608 0.16317 0.14397 0.0
H1911 H 0.88059 0.1869 0.14857 0.0
H1912 H 0.85874 0.14122 0.1678 0.0
H1913 H 0.89434 0.11747 0.16339 0.0
H1914 H 0.85468 0.10078 0.15954 0.0
H1915 H 0.84555 0.07716 0.09472 0.0
H1916 H 0.89873 0.05016 0.09289 0.0
H1917 H 0.93085 0.10249 0.13721 0.0
C1918 C 0.81298 0.16462 0.14029 0.0
C1919 C 0.78292 0.16682 0.13181 0.0
C1920 C 0.77682 0.14615 0.11794 0.0
C1921 C 0.80044 0.12439 0.11225 0.0
C1922 C 0.83003 0.12336 0.12062 0.0
C1923 C 0.83629 0.1426 0.13446 0.0
C1924 C 0.87032 0.1369 0.14102 0.0
C1925 C 0.89068 0.16805 0.1401 0.0
C1926 C 0.86946 0.12327 0.159 0.0
C1927 C 0.88226 0.11177 0.12858 0.0
C1928 C 0.85864 0.1044 0.11689 0.0
C1929 C 0.86417 0.08252 0.10388 0.0
C1930 C 0.89454 0.06743 0.1029 0.0
C1931 C 0.91899 0.07413 0.11491 0.0
C1932 C 0.91266 0.09672 0.12787 0.0
H1933 H 0.57899 0.06433 0.89595 0.0
H1934 H 0.51719 0.08069 0.85258 0.0
H1935 H 0.55526 0.12203 0.8422 0.0
H1936 H 0.60238 0.14781 0.90192 0.0
H1937 H 0.64339 0.13826 0.9079 0.0
H1938 H 0.6113 0.10977 0.91202 0.0
H1939 H 0.64264 0.0656 0.8956 0.0
H1940 H 0.67479 0.09397 0.8914 0.0
H1941 H 0.65505 0.07337 0.87425 0.0
H1942 H 0.5999 0.16115 0.83626 0.0
H1943 H 0.64785 0.19664 0.83546 0.0
H1944 H 0.68103 0.15566 0.88271 0.0
C1945 C 0.57343 0.07665 0.88429 0.0
C1946 C 0.54503 0.0692 0.87509 0.0
C1947 C 0.53872 0.08591 0.85988 0.0
C1948 C 0.56023 0.10945 0.85385 0.0
C1949 C 0.588 0.11611 0.86316 0.0
C1950 C 0.59467 0.10032 0.87807 0.0
C1951 C 0.62626 0.11225 0.88562 0.0
C1952 C 0.62047 0.12796 0.90289 0.0
C1953 C 0.65115 0.08465 0.88678 0.0
C1954 C 0.63622 0.1372 0.87262 0.0
C1955 C 0.6138 0.13893 0.85976 0.0
C1956 C 0.61762 0.16007 0.84627 0.0
C1957 C 0.645 0.18013 0.84593 0.0
C1958 C 0.66827 0.17904 0.85902 0.0
C1959 C 0.66373 0.15714 0.87251 0.0
H1960 H 0.82955 0.68977 0.87563 0.0
H1961 H 0.77246 0.64133 0.83729 0.0
H1962 H 0.80085 0.59005 0.84353 0.0
H1963 H 0.90371 0.64898 0.86728 0.0
H1964 H 0.91579 0.64676 0.88902 0.0
H1965 H 0.89004 0.67921 0.882 0.0
H1966 H 0.84753 0.66366 0.90457 0.0
H1967 H 0.8731 0.63103 0.91161 0.0
H1968 H 0.832 0.62288 0.90523 0.0
H1969 H 0.83664 0.54466 0.85326 0.0
H1970 H 0.87829 0.50855 0.86508 0.0
H1971 H 0.91205 0.58633 0.89734 0.0
C1972 C 0.82286 0.66837 0.86857 0.0
C1973 C 0.79871 0.6696 0.85595 0.0
C1974 C 0.79085 0.64103 0.84699 0.0
C1975 C 0.80678 0.61176 0.85049 0.0
C1976 C 0.83043 0.61144 0.86302 0.0
C1977 C 0.83849 0.639 0.87191 0.0
C1978 C 0.86547 0.63237 0.88439 0.0
C1979 C 0.89553 0.65305 0.88043 0.0
C1980 C 0.85382 0.63781 0.90252 0.0
C1981 C 0.87167 0.59681 0.88098 0.0
C1982 C 0.85104 0.58522 0.86868 0.0
C1983 C 0.85279 0.55343 0.86296 0.0
C1984 C 0.87659 0.53311 0.86977 0.0
C1985 C 0.89841 0.54456 0.88219 0.0
C1986 C 0.8955 0.57674 0.88803 0.0
H1987 H 0.6712 0.6747 0.14877 0.0
H1988 H 0.74078 0.64653 0.11055 0.0
H1989 H 0.70267 0.60495 0.10022 0.0
H1990 H 0.6399 0.59357 0.15728 0.0
H1991 H 0.59894 0.60763 0.16013 0.0
H1992 H 0.63248 0.63386 0.1651 0.0
H1993 H 0.60939 0.6775 0.14501 0.0
H1994 H 0.57589 0.65137 0.13991 0.0
H1995 H 0.6013 0.66711 0.1234 0.0
H1996 H 0.65575 0.56825 0.09312 0.0
H1997 H 0.60407 0.53863 0.09014 0.0
H1998 H 0.56523 0.59081 0.13302 0.0
C1999 C 0.67863 0.65955 0.13836 0.0
C2000 C 0.70904 0.66391 0.13049 0.0
C2001 C 0.71764 0.6437 0.1168 0.0
C2002 C 0.69615 0.61997 0.11084 0.0
C2003 C 0.66618 0.61666 0.11872 0.0
C2004 C 0.65747 0.63579 0.13224 0.0
C2005 C 0.62343 0.62805 0.13814 0.0
C2006 C 0.62372 0.615 0.15624 0.0
C2007 C 0.6012 0.65777 0.13651 0.0
C2008 C 0.61418 0.60187 0.12569 0.0
C2009 C 0.63921 0.59556 0.11464 0.0
C2010 C 0.63606 0.57286 0.10177 0.0
C2011 C 0.60657 0.5562 0.10016 0.0
C2012 C 0.58054 0.56232 0.11135 0.0
C2013 C 0.58463 0.58543 0.1243 0.0
H2014 H 0.6819 0.32819 0.35711 0.0
H2015 H 0.75243 0.34941 0.39607 0.0
H2016 H 0.71527 0.39015 0.40812 0.0
H2017 H 0.65215 0.41093 0.35192 0.0
H2018 H 0.61095 0.39794 0.34861 0.0
H2019 H 0.64405 0.37205 0.34253 0.0
H2020 H 0.62033 0.32589 0.36086 0.0
H2021 H 0.58732 0.35168 0.36709 0.0
H2022 H 0.6126 0.33312 0.38284 0.0
H2023 H 0.6688 0.42671 0.41682 0.0
H2024 H 0.61756 0.45679 0.42092 0.0
H2025 H 0.5779 0.41109 0.37628 0.0
C2026 C 0.68978 0.34167 0.36804 0.0
C2027 C 0.72014 0.33557 0.37562 0.0
C2028 C 0.72932 0.35364 0.39001 0.0
C2029 C 0.70837 0.37685 0.39696 0.0
C2030 C 0.67836 0.38181 0.38935 0.0
C2031 C 0.66918 0.36486 0.37515 0.0
C2032 C 0.63526 0.37394 0.36967 0.0
C2033 C 0.63564 0.38965 0.35215 0.0
C2034 C 0.61255 0.3444 0.37015 0.0
C2035 C 0.62657 0.3983 0.38315 0.0
C2036 C 0.65175 0.40267 0.39436 0.0
C2037 C 0.649 0.4236 0.40805 0.0
C2038 C 0.61977 0.44052 0.4103 0.0
C2039 C 0.59366 0.43633 0.39894 0.0
C2040 C 0.59734 0.41493 0.3852 0.0
H2041 H 0.94539 0.40337 0.63035 0.0
H2042 H 0.89667 0.47892 0.60206 0.0
H2043 H 0.8442 0.45185 0.60703 0.0
H2044 H 0.89874 0.33829 0.61495 0.0
H2045 H 0.89797 0.31638 0.63454 0.0
H2046 H 0.93131 0.34297 0.62986 0.0
H2047 H 0.92099 0.37423 0.65758 0.0
H2048 H 0.88752 0.34773 0.66234 0.0
H2049 H 0.8814 0.39091 0.66164 0.0
H2050 H 0.79755 0.41488 0.61354 0.0
H2051 H 0.76024 0.37027 0.62071 0.0
H2052 H 0.83916 0.31888 0.64495 0.0
C2053 C 0.92366 0.41446 0.62535 0.0
C2054 C 0.92519 0.44335 0.61583 0.0
C2055 C 0.89617 0.45685 0.6094 0.0
C2056 C 0.86621 0.44169 0.6122 0.0
C2057 C 0.86562 0.41312 0.62151 0.0
C2058 C 0.89357 0.39965 0.62802 0.0
C2059 C 0.88648 0.36797 0.63692 0.0
C2060 C 0.9047 0.33974 0.62856 0.0
C2061 C 0.89458 0.37037 0.65574 0.0
C2062 C 0.85027 0.36539 0.63411 0.0
C2063 C 0.83869 0.39182 0.62531 0.0
C2064 C 0.80629 0.39421 0.62056 0.0
C2065 C 0.7853 0.36871 0.62467 0.0
C2066 C 0.79674 0.34112 0.63344 0.0
C2067 C 0.82958 0.33981 0.63844 0.0
H2068 H 0.06167 0.40253 0.13339 0.0
H2069 H 0.09708 0.46896 0.09526 0.0
H2070 H 0.14908 0.43956 0.0945 0.0
H2071 H 0.13781 0.3934 0.15563 0.0
H2072 H 0.1314 0.35105 0.15998 0.0
H2073 H 0.09722 0.37784 0.15784 0.0
H2074 H 0.07347 0.34087 0.13458 0.0
H2075 H 0.10757 0.314 0.13664 0.0
H2076 H 0.09781 0.33121 0.11645 0.0
H2077 H 0.19687 0.40213 0.0974 0.0
H2078 H 0.2369 0.35948 0.10378 0.0
H2079 H 0.17036 0.3175 0.14003 0.0
C2080 C 0.08039 0.41103 0.12493 0.0
C2081 C 0.07523 0.43811 0.11438 0.0
C2082 C 0.10039 0.44831 0.10347 0.0
C2083 C 0.13006 0.43178 0.10295 0.0
C2084 C 0.13426 0.4051 0.11344 0.0
C2085 C 0.11016 0.39481 0.12425 0.0
C2086 C 0.12069 0.36515 0.13403 0.0
C2087 C 0.12185 0.3723 0.15299 0.0
C2088 C 0.09857 0.33609 0.13019 0.0
C2089 C 0.15437 0.36019 0.12693 0.0
C2090 C 0.16178 0.38355 0.11511 0.0
C2091 C 0.19137 0.38376 0.10667 0.0
C2092 C 0.21394 0.35939 0.11037 0.0
C2093 C 0.20682 0.33509 0.1224 0.0
C2094 C 0.17662 0.33572 0.13079 0.0
H2095 H 0.3969 0.45179 0.87906 0.0
H2096 H 0.46049 0.3913 0.90916 0.0
H2097 H 0.42582 0.3442 0.90339 0.0
H2098 H 0.32087 0.4117 0.8913 0.0
H2099 H 0.30323 0.41506 0.87065 0.0
H2100 H 0.33204 0.44487 0.87775 0.0
H2101 H 0.36748 0.4338 0.85153 0.0
H2102 H 0.33894 0.40379 0.8444 0.0
H2103 H 0.38091 0.39311 0.84724 0.0
H2104 H 0.38689 0.30328 0.89359 0.0
H2105 H 0.34382 0.27022 0.88114 0.0
H2106 H 0.30359 0.35568 0.85707 0.0
C2107 C 0.40322 0.42872 0.88462 0.0
C2108 C 0.4315 0.42531 0.8946 0.0
C2109 C 0.43909 0.39461 0.90147 0.0
C2110 C 0.41952 0.36764 0.89827 0.0
C2111 C 0.39229 0.37162 0.88817 0.0
C2112 C 0.38387 0.40131 0.8815 0.0
C2113 C 0.35356 0.39835 0.87071 0.0
C2114 C 0.32578 0.4187 0.87804 0.0
C2115 C 0.36066 0.40783 0.85238 0.0
C2116 C 0.34657 0.36232 0.87228 0.0
C2117 C 0.36935 0.34758 0.88245 0.0
C2118 C 0.36877 0.31453 0.88568 0.0
C2119 C 0.34412 0.29592 0.87848 0.0
C2120 C 0.32013 0.31023 0.8681 0.0
C2121 C 0.32149 0.34399 0.86494 0.0
H2122 H 0.45163 0.60577 0.64681 0.0
H2123 H 0.42572 0.55394 0.60123 0.0
H2124 H 0.37572 0.58622 0.59901 0.0
H2125 H 0.37006 0.61218 0.6634 0.0
H2126 H 0.37625 0.65222 0.67182 0.0
H2127 H 0.40991 0.62468 0.67003 0.0
H2128 H 0.44131 0.66712 0.65242 0.0
H2129 H 0.40773 0.69475 0.65411 0.0
H2130 H 0.42298 0.68353 0.6337 0.0
H2131 H 0.32924 0.62469 0.60126 0.0
H2132 H 0.28857 0.66626 0.60817 0.0
H2133 H 0.34406 0.69316 0.65241 0.0
C2134 C 0.4354 0.60111 0.63639 0.0
C2135 C 0.44268 0.57728 0.62419 0.0
C2136 C 0.42074 0.572 0.61075 0.0
C2137 C 0.39224 0.59023 0.60937 0.0
C2138 C 0.38591 0.61362 0.62153 0.0
C2139 C 0.40675 0.61906 0.63483 0.0
C2140 C 0.39421 0.64583 0.64613 0.0
C2141 C 0.38719 0.63295 0.6639 0.0
C2142 C 0.41798 0.6745 0.64661 0.0
C2143 C 0.36319 0.65471 0.63703 0.0
C2144 C 0.35891 0.63579 0.62288 0.0
C2145 C 0.33227 0.6396 0.61234 0.0
C2146 C 0.30932 0.66336 0.61636 0.0
C2147 C 0.31309 0.68303 0.63083 0.0
C2148 C 0.34044 0.67852 0.64128 0.0
H2149 H 0.10019 0.55136 0.38427 0.0
H2150 H 0.01465 0.61202 0.37983 0.0
H2151 H 0.04821 0.65654 0.3691 0.0
H2152 H 0.15521 0.61584 0.39748 0.0
H2153 H 0.1891 0.60042 0.38565 0.0
H2154 H 0.1586 0.57303 0.39342 0.0
H2155 H 0.14947 0.55151 0.36322 0.0
H2156 H 0.17974 0.57904 0.35534 0.0
H2157 H 0.13942 0.57953 0.34665 0.0
H2158 H 0.08964 0.69416 0.35836 0.0
H2159 H 0.13787 0.72439 0.34933 0.0
H2160 H 0.1981 0.64078 0.36028 0.0
C2161 C 0.08863 0.57413 0.38119 0.0
C2162 C 0.05468 0.57809 0.38291 0.0
C2163 C 0.0405 0.60823 0.37862 0.0
C2164 C 0.05937 0.63375 0.37248 0.0
C2165 C 0.09252 0.62894 0.37065 0.0
C2166 C 0.10722 0.60007 0.37496 0.0
C2167 C 0.14348 0.60167 0.37162 0.0
C2168 C 0.16273 0.5975 0.38802 0.0
C2169 C 0.15362 0.57643 0.35842 0.0
C2170 C 0.14666 0.6359 0.36477 0.0
C2171 C 0.11684 0.65102 0.36433 0.0
C2172 C 0.11318 0.68266 0.35866 0.0
C2173 C 0.1408 0.69963 0.35353 0.0
C2174 C 0.17186 0.68505 0.35406 0.0
C2175 C 0.1747 0.65255 0.3596 0.0
loop_
_geom_bond_atom_site_label_1
_geom_bond_atom_site_label_2
_geom_bond_distance
_geom_bond_site_symmetry_2
_ccdc_geom_bond_type
Mg0 O1 2.028 . S
Mg0 O7 1.986 . S
Mg0 O9 2.114 . S
Mg0 O10 2.251 . S
Mg0 O13 2.010 . S
O1 Mg0 2.028 . S
O1 C4 1.250 . S
O2 Mg3 2.028 . S
O2 C4 1.248 . S
Mg3 O2 2.028 . S
Mg3 O8 2.032 . S
Mg3 O10 2.079 . S
C4 O1 1.250 . S
C4 O2 1.248 . S
C5 O6 1.264 . S
C5 O13 1.249 . S
O6 C5 1.264 . S
O7 Mg0 1.986 . S
O7 C11 1.246 . S
O8 Mg3 2.032 . S
O8 C11 1.259 . S
O9 Mg0 2.114 . S
O9 C12 1.252 . S
O10 Mg0 2.251 . S
O10 Mg3 2.079 . S
O10 C12 1.273 . S
C11 O7 1.246 . S
C11 O8 1.259 . S
C12 O9 1.252 . S
C12 O10 1.273 . S
O13 Mg0 2.010 . S
O13 C5 1.249 . S
Mg14 O15 2.028 . S
Mg14 O21 1.986 . S
Mg14 O23 2.114 1_455 S
Mg14 O24 2.251 1_455 S
Mg14 O27 2.010 1_565 S
O15 Mg14 2.028 . S
O15 C18 1.250 . S
O16 Mg17 2.059 . S
O16 C18 1.248 . S
Mg17 O16 2.059 . S
Mg17 O22 2.042 . S
Mg17 O24 2.068 1_455 S
C18 O15 1.250 . S
C18 O16 1.248 . S
C19 O20 1.264 . S
C19 O27 1.249 . S
O20 C19 1.264 . S
O21 Mg14 1.986 . S
O21 C25 1.246 . S
O22 Mg17 2.042 . S
O22 C25 1.259 . S
O23 Mg14 2.114 1_655 S
O23 C26 1.252 . S
O24 Mg14 2.251 1_655 S
O24 Mg17 2.068 1_655 S
O24 C26 1.273 . S
C25 O21 1.246 . S
C25 O22 1.259 . S
C26 O23 1.252 . S
C26 O24 1.273 . S
O27 Mg14 2.010 1_545 S
O27 C19 1.249 . S
Mg28 O29 2.028 . S
Mg28 O35 1.986 . S
Mg28 O37 2.114 . S
Mg28 O38 2.251 . S
Mg28 O41 2.010 . S
O29 Mg28 2.028 . S
O29 C32 1.250 . S
O30 Mg31 2.028 . S
O30 C32 1.248 . S
Mg31 O30 2.028 . S
Mg31 O36 2.032 . S
Mg31 O38 2.079 . S
C32 O29 1.250 . S
C32 O30 1.248 . S
C33 O34 1.264 . S
C33 O41 1.249 . S
O34 C33 1.264 . S
O35 Mg28 1.986 . S
O35 C39 1.246 . S
O36 Mg31 2.032 . S
O36 C39 1.259 . S
O37 Mg28 2.114 . S
O37 C40 1.252 . S
O38 Mg28 2.251 . S
O38 Mg31 2.079 . S
O38 C40 1.273 . S
C39 O35 1.246 . S
C39 O36 1.259 . S
C40 O37 1.252 . S
C40 O38 1.273 . S
O41 Mg28 2.010 . S
O41 C33 1.249 . S
Mg42 O43 2.028 . S
Mg42 O49 1.986 . S
Mg42 O51 2.114 . S
Mg42 O52 2.251 . S
Mg42 O55 2.010 1_545 S
O43 Mg42 2.028 . S
O43 C46 1.250 . S
O44 Mg45 2.028 . S
O44 C46 1.248 . S
Mg45 O44 2.028 . S
Mg45 O50 2.032 . S
Mg45 O52 2.079 . S
C46 O43 1.250 . S
C46 O44 1.248 . S
C47 O48 1.264 . S
C47 O55 1.249 . S
O48 C47 1.264 . S
O49 Mg42 1.986 . S
O49 C53 1.246 . S
O50 Mg45 2.032 . S
O50 C53 1.259 . S
O51 Mg42 2.114 . S
O51 C54 1.252 . S
O52 Mg42 2.251 . S
O52 Mg45 2.079 . S
O52 C54 1.273 . S
C53 O49 1.246 . S
C53 O50 1.259 . S
C54 O51 1.252 . S
C54 O52 1.273 . S
O55 Mg42 2.010 1_565 S
O55 C47 1.249 . S
Mg56 O57 2.028 . S
Mg56 O63 1.986 . S
Mg56 O65 2.114 . S
Mg56 O66 2.251 . S
Mg56 O69 2.010 . S
O57 Mg56 2.028 . S
O57 C60 1.250 . S
O58 Mg59 2.028 . S
O58 C60 1.248 . S
Mg59 O58 2.028 . S
Mg59 O64 2.032 . S
Mg59 O66 2.079 . S
C60 O57 1.250 . S
C60 O58 1.248 . S
C61 O62 1.264 . S
C61 O69 1.249 . S
O62 C61 1.264 . S
O63 Mg56 1.986 . S
O63 C67 1.246 . S
O64 Mg59 2.032 . S
O64 C67 1.259 . S
O65 Mg56 2.114 . S
O65 C68 1.252 . S
O66 Mg56 2.251 . S
O66 Mg59 2.079 . S
O66 C68 1.273 . S
C67 O63 1.246 . S
C67 O64 1.259 . S
C68 O65 1.252 . S
C68 O66 1.273 . S
O69 Mg56 2.010 . S
O69 C61 1.249 . S
Mg70 O71 2.028 . S
Mg70 O77 1.986 . S
Mg70 O79 2.114 . S
Mg70 O80 2.251 . S
Mg70 O83 2.010 1_565 S
O71 Mg70 2.028 . S
O71 C74 1.250 . S
O72 Mg73 2.028 . S
O72 C74 1.248 . S
Mg73 O72 2.028 . S
Mg73 O78 2.032 . S
Mg73 O80 2.079 . S
C74 O71 1.250 . S
C74 O72 1.248 . S
C75 O76 1.264 . S
C75 O83 1.249 . S
O76 C75 1.264 . S
O77 Mg70 1.986 . S
O77 C81 1.246 . S
O78 Mg73 2.032 . S
O78 C81 1.259 . S
O79 Mg70 2.114 . S
O79 C82 1.252 . S
O80 Mg70 2.251 . S
O80 Mg73 2.079 . S
O80 C82 1.273 . S
C81 O77 1.246 . S
C81 O78 1.259 . S
C82 O79 1.252 . S
C82 O80 1.273 . S
O83 Mg70 2.010 1_545 S
O83 C75 1.249 . S
Mg84 O85 2.028 . S
Mg84 O91 1.986 . S
Mg84 O93 2.114 . S
Mg84 O94 2.251 . S
Mg84 O97 2.010 . S
O85 Mg84 2.028 . S
O85 C88 1.250 . S
O86 Mg87 2.028 . S
O86 C88 1.248 . S
Mg87 O86 2.028 . S
Mg87 O92 2.032 . S
Mg87 O94 2.079 . S
C88 O85 1.250 . S
C88 O86 1.248 . S
C89 O90 1.264 . S
C89 O97 1.249 . S
O90 C89 1.264 . S
O91 Mg84 1.986 . S
O91 C95 1.246 . S
O92 Mg87 2.032 . S
O92 C95 1.259 . S
O93 Mg84 2.114 . S
O93 C96 1.252 . S
O94 Mg84 2.251 . S
O94 Mg87 2.079 . S
O94 C96 1.273 . S
C95 O91 1.246 . S
C95 O92 1.259 . S
C96 O93 1.252 . S
C96 O94 1.273 . S
O97 Mg84 2.010 . S
O97 C89 1.249 . S
Mg98 O99 2.028 . S
Mg98 O105 1.986 . S
Mg98 O107 2.114 1_455 S
Mg98 O108 2.251 1_455 S
Mg98 O111 2.010 1_545 S
O99 Mg98 2.028 . S
O99 C102 1.250 . S
O100 Mg101 2.059 . S
O100 C102 1.248 . S
Mg101 O100 2.059 . S
Mg101 O106 2.042 . S
Mg101 O108 2.068 1_455 S
C102 O99 1.250 . S
C102 O100 1.248 . S
C103 O104 1.264 . S
C103 O111 1.249 . S
O104 C103 1.264 . S
O105 Mg98 1.986 . S
O105 C109 1.246 . S
O106 Mg101 2.042 . S
O106 C109 1.259 . S
O107 Mg98 2.114 1_655 S
O107 C110 1.252 . S
O108 Mg98 2.251 1_655 S
O108 Mg101 2.068 1_655 S
O108 C110 1.273 . S
C109 O105 1.246 . S
C109 O106 1.259 . S
C110 O107 1.252 . S
C110 O108 1.273 . S
O111 Mg98 2.010 1_565 S
O111 C103 1.249 . S
Mg112 O113 2.028 . S
Mg112 O119 1.986 . S
Mg112 O121 2.114 . S
Mg112 O122 2.251 . S
Mg112 O125 2.010 . S
O113 Mg112 2.028 . S
O113 C116 1.250 . S
O114 Mg115 2.028 . S
O114 C116 1.248 . S
Mg115 O114 2.028 . S
Mg115 O120 2.032 . S
Mg115 O122 2.079 . S
C116 O113 1.250 . S
C116 O114 1.248 . S
C117 O118 1.264 . S
C117 O125 1.249 . S
O118 C117 1.264 . S
O119 Mg112 1.986 . S
O119 C123 1.246 . S
O120 Mg115 2.032 . S
O120 C123 1.259 . S
O121 Mg112 2.114 . S
O121 C124 1.252 . S
O122 Mg112 2.251 . S
O122 Mg115 2.079 . S
O122 C124 1.273 . S
C123 O119 1.246 . S
C123 O120 1.259 . S
C124 O121 1.252 . S
C124 O122 1.273 . S
O125 Mg112 2.010 . S
O125 C117 1.249 . S
Mg126 O127 2.028 . S
Mg126 O133 1.986 . S
Mg126 O135 2.114 1_655 S
Mg126 O136 2.251 1_655 S
Mg126 O139 2.010 1_545 S
O127 Mg126 2.028 . S
O127 C130 1.250 . S
O128 Mg129 2.059 . S
O128 C130 1.248 . S
Mg129 O128 2.059 . S
Mg129 O134 2.042 . S
Mg129 O136 2.068 1_655 S
C130 O127 1.250 . S
C130 O128 1.248 . S
C131 O132 1.264 . S
C131 O139 1.249 . S
O132 C131 1.264 . S
O133 Mg126 1.986 . S
O133 C137 1.246 . S
O134 Mg129 2.042 . S
O134 C137 1.259 . S
O135 Mg126 2.114 1_455 S
O135 C138 1.252 . S
O136 Mg126 2.251 1_455 S
O136 Mg129 2.068 1_455 S
O136 C138 1.273 . S
C137 O133 1.246 . S
C137 O134 1.259 . S
C138 O135 1.252 . S
C138 O136 1.273 . S
O139 Mg126 2.010 1_565 S
O139 C131 1.249 . S
Mg140 O141 2.028 . S
Mg140 O147 1.986 . S
Mg140 O149 2.114 . S
Mg140 O150 2.251 . S
Mg140 O153 2.010 . S
O141 Mg140 2.028 . S
O141 C144 1.250 . S
O142 Mg143 2.028 . S
O142 C144 1.248 . S
Mg143 O142 2.028 . S
Mg143 O148 2.032 . S
Mg143 O150 2.079 . S
C144 O141 1.250 . S
C144 O142 1.248 . S
C145 O146 1.264 . S
C145 O153 1.249 . S
O146 C145 1.264 . S
O147 Mg140 1.986 . S
O147 C151 1.246 . S
O148 Mg143 2.032 . S
O148 C151 1.259 . S
O149 Mg140 2.114 . S
O149 C152 1.252 . S
O150 Mg140 2.251 . S
O150 Mg143 2.079 . S
O150 C152 1.273 . S
C151 O147 1.246 . S
C151 O148 1.259 . S
C152 O149 1.252 . S
C152 O150 1.273 . S
O153 Mg140 2.010 . S
O153 C145 1.249 . S
Mg154 O155 2.028 . S
Mg154 O161 1.986 . S
Mg154 O163 2.114 . S
Mg154 O164 2.251 . S
Mg154 O167 2.010 1_565 S
O155 Mg154 2.028 . S
O155 C158 1.250 . S
O156 Mg157 2.028 . S
O156 C158 1.248 . S
Mg157 O156 2.028 . S
Mg157 O162 2.032 . S
Mg157 O164 2.079 . S
C158 O155 1.250 . S
C158 O156 1.248 . S
C159 O160 1.264 . S
C159 O167 1.249 . S
O160 C159 1.264 . S
O161 Mg154 1.986 . S
O161 C165 1.246 . S
O162 Mg157 2.032 . S
O162 C165 1.259 . S
O163 Mg154 2.114 . S
O163 C166 1.252 . S
O164 Mg154 2.251 . S
O164 Mg157 2.079 . S
O164 C166 1.273 . S
C165 O161 1.246 . S
C165 O162 1.259 . S
C166 O163 1.252 . S
C166 O164 1.273 . S
O167 Mg154 2.010 1_545 S
O167 C159 1.249 . S
Mg168 O169 2.028 . S
Mg168 O175 1.986 . S
Mg168 O177 2.114 . S
Mg168 O178 2.251 . S
Mg168 O181 2.010 . S
O169 Mg168 2.028 . S
O169 C172 1.250 . S
O170 Mg171 2.028 . S
O170 C172 1.248 . S
Mg171 O170 2.028 . S
Mg171 O176 2.032 . S
Mg171 O178 2.079 . S
C172 O169 1.250 . S
C172 O170 1.248 . S
C173 O174 1.264 . S
C173 O181 1.249 . S
O174 C173 1.264 . S
O175 Mg168 1.986 . S
O175 C179 1.246 . S
O176 Mg171 2.032 . S
O176 C179 1.259 . S
O177 Mg168 2.114 . S
O177 C180 1.252 . S
O178 Mg168 2.251 . S
O178 Mg171 2.079 . S
O178 C180 1.273 . S
C179 O175 1.246 . S
C179 O176 1.259 . S
C180 O177 1.252 . S
C180 O178 1.273 . S
O181 Mg168 2.010 . S
O181 C173 1.249 . S
Mg182 O183 2.028 . S
Mg182 O189 1.986 . S
Mg182 O191 2.114 . S
Mg182 O192 2.251 . S
Mg182 O195 2.010 1_545 S
O183 Mg182 2.028 . S
O183 C186 1.250 . S
O184 Mg185 2.028 . S
O184 C186 1.248 . S
Mg185 O184 2.028 . S
Mg185 O190 2.032 . S
Mg185 O192 2.079 . S
C186 O183 1.250 . S
C186 O184 1.248 . S
C187 O188 1.264 . S
C187 O195 1.249 . S
O188 C187 1.264 . S
O189 Mg182 1.986 . S
O189 C193 1.246 . S
O190 Mg185 2.032 . S
O190 C193 1.259 . S
O191 Mg182 2.114 . S
O191 C194 1.252 . S
O192 Mg182 2.251 . S
O192 Mg185 2.079 . S
O192 C194 1.273 . S
C193 O189 1.246 . S
C193 O190 1.259 . S
C194 O191 1.252 . S
C194 O192 1.273 . S
O195 Mg182 2.010 1_565 S
O195 C187 1.249 . S
Mg196 O197 2.028 . S
Mg196 O203 1.986 . S
Mg196 O205 2.114 . S
Mg196 O206 2.251 . S
Mg196 O209 2.010 . S
O197 Mg196 2.028 . S
O197 C200 1.250 . S
O198 Mg199 2.028 . S
O198 C200 1.248 . S
Mg199 O198 2.028 . S
Mg199 O204 2.032 . S
Mg199 O206 2.079 . S
C200 O197 1.250 . S
C200 O198 1.248 . S
C201 O202 1.264 . S
C201 O209 1.249 . S
O202 C201 1.264 . S
O203 Mg196 1.986 . S
O203 C207 1.246 . S
O204 Mg199 2.032 . S
O204 C207 1.259 . S
O205 Mg196 2.114 . S
O205 C208 1.252 . S
O206 Mg196 2.251 . S
O206 Mg199 2.079 . S
O206 C208 1.273 . S
C207 O203 1.246 . S
C207 O204 1.259 . S
C208 O205 1.252 . S
C208 O206 1.273 . S
O209 Mg196 2.010 . S
O209 C201 1.249 . S
Mg210 O211 2.028 . S
Mg210 O217 1.986 . S
Mg210 O219 2.114 1_655 S
Mg210 O220 2.251 1_655 S
Mg210 O223 2.010 1_565 S
O211 Mg210 2.028 . S
O211 C214 1.250 . S
O212 Mg213 2.059 . S
O212 C214 1.248 . S
Mg213 O212 2.059 . S
Mg213 O218 2.042 . S
Mg213 O220 2.068 1_655 S
C214 O211 1.250 . S
C214 O212 1.248 . S
C215 O216 1.264 . S
C215 O223 1.249 . S
O216 C215 1.264 . S
O217 Mg210 1.986 . S
O217 C221 1.246 . S
O218 Mg213 2.042 . S
O218 C221 1.259 . S
O219 Mg210 2.114 1_455 S
O219 C222 1.252 . S
O220 Mg210 2.251 1_455 S
O220 Mg213 2.068 1_455 S
O220 C222 1.273 . S
C221 O217 1.246 . S
C221 O218 1.259 . S
C222 O219 1.252 . S
C222 O220 1.273 . S
O223 Mg210 2.010 1_545 S
O223 C215 1.249 . S
Mg224 O225 2.028 . S
Mg224 O231 1.986 . S
Mg224 O233 2.114 . S
Mg224 O234 2.251 . S
Mg224 O237 2.010 . S
O225 Mg224 2.028 . S
O225 C228 1.250 . S
O226 Mg227 2.028 . S
O226 C228 1.248 . S
Mg227 O226 2.028 . S
Mg227 O232 2.032 . S
Mg227 O234 2.079 . S
C228 O225 1.250 . S
C228 O226 1.248 . S
C229 O230 1.264 . S
C229 O237 1.249 . S
O230 C229 1.264 . S
O231 Mg224 1.986 . S
O231 C235 1.246 . S
O232 Mg227 2.032 . S
O232 C235 1.259 . S
O233 Mg224 2.114 . S
O233 C236 1.252 . S
O234 Mg224 2.251 . S
O234 Mg227 2.079 . S
O234 C236 1.273 . S
C235 O231 1.246 . S
C235 O232 1.259 . S
C236 O233 1.252 . S
C236 O234 1.273 . S
O237 Mg224 2.010 . S
O237 C229 1.249 . S
Mg238 O239 2.028 . S
Mg238 O245 1.986 . S
Mg238 O247 2.114 . S
Mg238 O248 2.251 . S
Mg238 O251 2.010 . S
O239 Mg238 2.028 . S
O239 C242 1.250 . S
O240 Mg241 2.028 . S
O240 C242 1.248 . S
Mg241 O240 2.028 . S
Mg241 O246 2.032 . S
Mg241 O248 2.079 . S
C242 O239 1.250 . S
C242 O240 1.248 . S
C243 O244 1.264 . S
C243 O251 1.249 . S
O244 C243 1.264 . S
O245 Mg238 1.986 . S
O245 C249 1.246 . S
O246 Mg241 2.032 . S
O246 C249 1.259 . S
O247 Mg238 2.114 . S
O247 C250 1.252 . S
O248 Mg238 2.251 . S
O248 Mg241 2.079 . S
O248 C250 1.273 . S
C249 O245 1.246 . S
C249 O246 1.259 . S
C250 O247 1.252 . S
C250 O248 1.273 . S
O251 Mg238 2.010 . S
O251 C243 1.249 . S
Mg252 O253 2.028 . S
Mg252 O259 1.986 . S
Mg252 O261 2.114 . S
Mg252 O262 2.251 . S
Mg252 O265 2.010 . S
O253 Mg252 2.028 . S
O253 C256 1.250 . S
O254 Mg255 2.028 . S
O254 C256 1.248 . S
Mg255 O254 2.028 . S
Mg255 O260 2.032 . S
Mg255 O262 2.079 . S
C256 O253 1.250 . S
C256 O254 1.248 . S
C257 O258 1.264 . S
C257 O265 1.249 . S
O258 C257 1.264 . S
O259 Mg252 1.986 . S
O259 C263 1.246 . S
O260 Mg255 2.032 . S
O260 C263 1.259 . S
O261 Mg252 2.114 . S
O261 C264 1.252 . S
O262 Mg252 2.251 . S
O262 Mg255 2.079 . S
O262 C264 1.273 . S
C263 O259 1.246 . S
C263 O260 1.259 . S
C264 O261 1.252 . S
C264 O262 1.273 . S
O265 Mg252 2.010 . S
O265 C257 1.249 . S
Mg266 O267 2.028 . S
Mg266 O273 1.986 . S
Mg266 O275 2.114 1_655 S
Mg266 O276 2.251 1_655 S
Mg266 O279 2.010 . S
O267 Mg266 2.028 . S
O267 C270 1.250 . S
O268 Mg269 2.059 . S
O268 C270 1.248 . S
Mg269 O268 2.059 . S
Mg269 O274 2.042 . S
Mg269 O276 2.068 1_655 S
C270 O267 1.250 . S
C270 O268 1.248 . S
C271 O272 1.264 . S
C271 O279 1.249 . S
O272 C271 1.264 . S
O273 Mg266 1.986 . S
O273 C277 1.246 . S
O274 Mg269 2.042 . S
O274 C277 1.259 . S
O275 Mg266 2.114 1_455 S
O275 C278 1.252 . S
O276 Mg266 2.251 1_455 S
O276 Mg269 2.068 1_455 S
O276 C278 1.273 . S
C277 O273 1.246 . S
C277 O274 1.259 . S
C278 O275 1.252 . S
C278 O276 1.273 . S
O279 Mg266 2.010 . S
O279 C271 1.249 . S
Mg280 O281 2.028 . S
Mg280 O287 1.986 . S
Mg280 O289 2.114 . S
Mg280 O290 2.251 . S
Mg280 O293 2.010 . S
O281 Mg280 2.028 . S
O281 C284 1.250 . S
O282 Mg283 2.028 . S
O282 C284 1.248 . S
Mg283 O282 2.028 . S
Mg283 O288 2.032 . S
Mg283 O290 2.079 . S
C284 O281 1.250 . S
C284 O282 1.248 . S
C285 O286 1.264 . S
C285 O293 1.249 . S
O286 C285 1.264 . S
O287 Mg280 1.986 . S
O287 C291 1.246 . S
O288 Mg283 2.032 . S
O288 C291 1.259 . S
O289 Mg280 2.114 . S
O289 C292 1.252 . S
O290 Mg280 2.251 . S
O290 Mg283 2.079 . S
O290 C292 1.273 . S
C291 O287 1.246 . S
C291 O288 1.259 . S
C292 O289 1.252 . S
C292 O290 1.273 . S
O293 Mg280 2.010 . S
O293 C285 1.249 . S
Mg294 O295 2.028 . S
Mg294 O301 1.986 . S
Mg294 O303 2.114 1_655 S
Mg294 O304 2.251 1_655 S
Mg294 O307 2.010 . S
O295 Mg294 2.028 . S
O295 C298 1.250 . S
O296 Mg297 2.059 . S
O296 C298 1.248 . S
Mg297 O296 2.059 . S
Mg297 O302 2.042 . S
Mg297 O304 2.068 1_655 S
C298 O295 1.250 . S
C298 O296 1.248 . S
C299 O300 1.264 . S
C299 O307 1.249 . S
O300 C299 1.264 . S
O301 Mg294 1.986 . S
O301 C305 1.246 . S
O302 Mg297 2.042 . S
O302 C305 1.259 . S
O303 Mg294 2.114 1_455 S
O303 C306 1.252 . S
O304 Mg294 2.251 1_455 S
O304 Mg297 2.068 1_455 S
O304 C306 1.273 . S
C305 O301 1.246 . S
C305 O302 1.259 . S
C306 O303 1.252 . S
C306 O304 1.273 . S
O307 Mg294 2.010 . S
O307 C299 1.249 . S
Mg308 O309 2.028 . S
Mg308 O315 1.986 . S
Mg308 O317 2.114 . S
Mg308 O318 2.251 . S
Mg308 O321 2.010 . S
O309 Mg308 2.028 . S
O309 C312 1.250 . S
O310 Mg311 2.028 . S
O310 C312 1.248 . S
Mg311 O310 2.028 . S
Mg311 O316 2.032 . S
Mg311 O318 2.079 . S
C312 O309 1.250 . S
C312 O310 1.248 . S
C313 O314 1.264 . S
C313 O321 1.249 . S
O314 C313 1.264 . S
O315 Mg308 1.986 . S
O315 C319 1.246 . S
O316 Mg311 2.032 . S
O316 C319 1.259 . S
O317 Mg308 2.114 . S
O317 C320 1.252 . S
O318 Mg308 2.251 . S
O318 Mg311 2.079 . S
O318 C320 1.273 . S
C319 O315 1.246 . S
C319 O316 1.259 . S
C320 O317 1.252 . S
C320 O318 1.273 . S
O321 Mg308 2.010 . S
O321 C313 1.249 . S
Mg322 O323 2.028 . S
Mg322 O329 1.986 . S
Mg322 O331 2.114 . S
Mg322 O332 2.251 . S
Mg322 O335 2.010 . S
O323 Mg322 2.028 . S
O323 C326 1.250 . S
O324 Mg325 2.028 . S
O324 C326 1.248 . S
Mg325 O324 2.028 . S
Mg325 O330 2.032 . S
Mg325 O332 2.079 . S
C326 O323 1.250 . S
C326 O324 1.248 . S
C327 O328 1.264 . S
C327 O335 1.249 . S
O328 C327 1.264 . S
O329 Mg322 1.986 . S
O329 C333 1.246 . S
O330 Mg325 2.032 . S
O330 C333 1.259 . S
O331 Mg322 2.114 . S
O331 C334 1.252 . S
O332 Mg322 2.251 . S
O332 Mg325 2.079 . S
O332 C334 1.273 . S
C333 O329 1.246 . S
C333 O330 1.259 . S
C334 O331 1.252 . S
C334 O332 1.273 . S
O335 Mg322 2.010 . S
O335 C327 1.249 . S
Mg336 O337 2.028 . S
Mg336 O343 1.986 . S
Mg336 O345 2.114 . S
Mg336 O346 2.251 . S
Mg336 O349 2.010 . S
O337 Mg336 2.028 . S
O337 C340 1.250 . S
O338 Mg339 2.028 . S
O338 C340 1.248 . S
Mg339 O338 2.028 . S
Mg339 O344 2.032 . S
Mg339 O346 2.079 . S
C340 O337 1.250 . S
C340 O338 1.248 . S
C341 O342 1.264 . S
C341 O349 1.249 . S
O342 C341 1.264 . S
O343 Mg336 1.986 . S
O343 C347 1.246 . S
O344 Mg339 2.032 . S
O344 C347 1.259 . S
O345 Mg336 2.114 . S
O345 C348 1.252 . S
O346 Mg336 2.251 . S
O346 Mg339 2.079 . S
O346 C348 1.273 . S
C347 O343 1.246 . S
C347 O344 1.259 . S
C348 O345 1.252 . S
C348 O346 1.273 . S
O349 Mg336 2.010 . S
O349 C341 1.249 . S
Mg350 O351 2.028 . S
Mg350 O357 1.986 . S
Mg350 O359 2.114 . S
Mg350 O360 2.251 . S
Mg350 O363 2.010 . S
O351 Mg350 2.028 . S
O351 C354 1.250 . S
O352 Mg353 2.028 . S
O352 C354 1.248 . S
Mg353 O352 2.028 . S
Mg353 O358 2.032 . S
Mg353 O360 2.079 . S
C354 O351 1.250 . S
C354 O352 1.248 . S
C355 O356 1.264 . S
C355 O363 1.249 . S
O356 C355 1.264 . S
O357 Mg350 1.986 . S
O357 C361 1.246 . S
O358 Mg353 2.032 . S
O358 C361 1.259 . S
O359 Mg350 2.114 . S
O359 C362 1.252 . S
O360 Mg350 2.251 . S
O360 Mg353 2.079 . S
O360 C362 1.273 . S
C361 O357 1.246 . S
C361 O358 1.259 . S
C362 O359 1.252 . S
C362 O360 1.273 . S
O363 Mg350 2.010 . S
O363 C355 1.249 . S
Mg364 O365 2.028 . S
Mg364 O371 1.986 . S
Mg364 O373 2.114 . S
Mg364 O374 2.251 . S
Mg364 O377 2.010 . S
O365 Mg364 2.028 . S
O365 C368 1.250 . S
O366 Mg367 2.028 . S
O366 C368 1.248 . S
Mg367 O366 2.028 . S
Mg367 O372 2.032 . S
Mg367 O374 2.079 . S
C368 O365 1.250 . S
C368 O366 1.248 . S
C369 O370 1.264 . S
C369 O377 1.249 . S
O370 C369 1.264 . S
O371 Mg364 1.986 . S
O371 C375 1.246 . S
O372 Mg367 2.032 . S
O372 C375 1.259 . S
O373 Mg364 2.114 . S
O373 C376 1.252 . S
O374 Mg364 2.251 . S
O374 Mg367 2.079 . S
O374 C376 1.273 . S
C375 O371 1.246 . S
C375 O372 1.259 . S
C376 O373 1.252 . S
C376 O374 1.273 . S
O377 Mg364 2.010 . S
O377 C369 1.249 . S
Mg378 O379 2.028 . S
Mg378 O385 1.986 . S
Mg378 O387 2.114 1_455 S
Mg378 O388 2.251 1_455 S
Mg378 O391 2.010 . S
O379 Mg378 2.028 . S
O379 C382 1.250 . S
O380 Mg381 2.059 . S
O380 C382 1.248 . S
Mg381 O380 2.059 . S
Mg381 O386 2.042 . S
Mg381 O388 2.068 1_455 S
C382 O379 1.250 . S
C382 O380 1.248 . S
C383 O384 1.264 . S
C383 O391 1.249 . S
O384 C383 1.264 . S
O385 Mg378 1.986 . S
O385 C389 1.246 . S
O386 Mg381 2.042 . S
O386 C389 1.259 . S
O387 Mg378 2.114 1_655 S
O387 C390 1.252 . S
O388 Mg378 2.251 1_655 S
O388 Mg381 2.068 1_655 S
O388 C390 1.273 . S
C389 O385 1.246 . S
C389 O386 1.259 . S
C390 O387 1.252 . S
C390 O388 1.273 . S
O391 Mg378 2.010 . S
O391 C383 1.249 . S
Mg392 O393 2.028 . S
Mg392 O399 1.986 . S
Mg392 O401 2.114 . S
Mg392 O402 2.251 . S
Mg392 O405 2.010 . S
O393 Mg392 2.028 . S
O393 C396 1.250 . S
O394 Mg395 2.028 . S
O394 C396 1.248 . S
Mg395 O394 2.028 . S
Mg395 O400 2.032 . S
Mg395 O402 2.079 . S
C396 O393 1.250 . S
C396 O394 1.248 . S
C397 O398 1.264 . S
C397 O405 1.249 . S
O398 C397 1.264 . S
O399 Mg392 1.986 . S
O399 C403 1.246 . S
O400 Mg395 2.032 . S
O400 C403 1.259 . S
O401 Mg392 2.114 . S
O401 C404 1.252 . S
O402 Mg392 2.251 . S
O402 Mg395 2.079 . S
O402 C404 1.273 . S
C403 O399 1.246 . S
C403 O400 1.259 . S
C404 O401 1.252 . S
C404 O402 1.273 . S
O405 Mg392 2.010 . S
O405 C397 1.249 . S
Mg406 O407 2.028 . S
Mg406 O413 1.986 . S
Mg406 O415 2.114 1_455 S
Mg406 O416 2.251 1_455 S
Mg406 O419 2.010 . S
O407 Mg406 2.028 . S
O407 C410 1.250 . S
O408 Mg409 2.059 . S
O408 C410 1.248 . S
Mg409 O408 2.059 . S
Mg409 O414 2.042 . S
Mg409 O416 2.068 1_455 S
C410 O407 1.250 . S
C410 O408 1.248 . S
C411 O412 1.264 . S
C411 O419 1.249 . S
O412 C411 1.264 . S
O413 Mg406 1.986 . S
O413 C417 1.246 . S
O414 Mg409 2.042 . S
O414 C417 1.259 . S
O415 Mg406 2.114 1_655 S
O415 C418 1.252 . S
O416 Mg406 2.251 1_655 S
O416 Mg409 2.068 1_655 S
O416 C418 1.273 . S
C417 O413 1.246 . S
C417 O414 1.259 . S
C418 O415 1.252 . S
C418 O416 1.273 . S
O419 Mg406 2.010 . S
O419 C411 1.249 . S
Mg420 O421 2.028 . S
Mg420 O427 1.986 . S
Mg420 O429 2.114 . S
Mg420 O430 2.251 . S
Mg420 O433 2.010 . S
O421 Mg420 2.028 . S
O421 C424 1.250 . S
O422 Mg423 2.028 . S
O422 C424 1.248 . S
Mg423 O422 2.028 . S
Mg423 O428 2.032 . S
Mg423 O430 2.079 . S
C424 O421 1.250 . S
C424 O422 1.248 . S
C425 O426 1.264 . S
C425 O433 1.249 . S
O426 C425 1.264 . S
O427 Mg420 1.986 . S
O427 C431 1.246 . S
O428 Mg423 2.032 . S
O428 C431 1.259 . S
O429 Mg420 2.114 . S
O429 C432 1.252 . S
O430 Mg420 2.251 . S
O430 Mg423 2.079 . S
O430 C432 1.273 . S
C431 O427 1.246 . S
C431 O428 1.259 . S
C432 O429 1.252 . S
C432 O430 1.273 . S
O433 Mg420 2.010 . S
O433 C425 1.249 . S
Mg434 O435 2.028 . S
Mg434 O441 1.986 . S
Mg434 O443 2.114 . S
Mg434 O444 2.251 . S
Mg434 O447 2.010 . S
O435 Mg434 2.028 . S
O435 C438 1.250 . S
O436 Mg437 2.028 . S
O436 C438 1.248 . S
Mg437 O436 2.028 . S
Mg437 O442 2.032 . S
Mg437 O444 2.079 . S
C438 O435 1.250 . S
C438 O436 1.248 . S
C439 O440 1.264 . S
C439 O447 1.249 . S
O440 C439 1.264 . S
O441 Mg434 1.986 . S
O441 C445 1.246 . S
O442 Mg437 2.032 . S
O442 C445 1.259 . S
O443 Mg434 2.114 . S
O443 C446 1.252 . S
O444 Mg434 2.251 . S
O444 Mg437 2.079 . S
O444 C446 1.273 . S
C445 O441 1.246 . S
C445 O442 1.259 . S
C446 O443 1.252 . S
C446 O444 1.273 . S
O447 Mg434 2.010 . S
O447 C439 1.249 . S
H448 C460 0.930 . S
H449 C462 0.930 . S
H450 C463 0.930 . S
H451 C467 0.959 . S
H452 C467 0.959 . S
H453 C467 0.961 . S
H454 C468 0.960 . S
H455 C468 0.961 . S
H456 C468 0.959 . S
H457 C471 0.929 . S
H458 C472 0.931 . S
H459 C474 0.930 . S
C460 H448 0.930 . S
C460 C461 1.399 . S
C460 C465 1.399 . S
C461 C460 1.399 . S
C461 C462 1.376 . S
C462 H449 0.930 . S
C462 C461 1.376 . S
C462 C463 1.388 . S
C463 H450 0.930 . S
C463 C462 1.388 . S
C463 C464 1.390 . S
C464 C463 1.390 . S
C464 C465 1.394 . S
C464 C470 1.465 . S
C465 C460 1.399 . S
C465 C464 1.394 . S
C465 C466 1.516 . S
C466 C465 1.516 . S
C466 C467 1.502 . S
C466 C468 1.561 . S
C466 C469 1.526 . S
C467 H451 0.959 . S
C467 H452 0.959 . S
C467 H453 0.961 . S
C467 C466 1.502 . S
C468 H454 0.960 . S
C468 H455 0.961 . S
C468 H456 0.959 . S
C468 C466 1.561 . S
C469 C466 1.526 . S
C469 C470 1.396 . S
C469 C474 1.390 . S
C470 C464 1.465 . S
C470 C469 1.396 . S
C470 C471 1.399 . S
C471 H457 0.929 . S
C471 C470 1.399 . S
C471 C472 1.385 . S
C472 H458 0.931 . S
C472 C471 1.385 . S
C472 C473 1.389 . S
C473 C472 1.389 . S
C473 C474 1.387 . S
C474 H459 0.930 . S
C474 C469 1.390 . S
C474 C473 1.387 . S
H475 C487 0.930 . S
H476 C489 0.930 . S
H477 C490 0.930 . S
H478 C494 0.959 . S
H479 C494 0.959 . S
H480 C494 0.961 . S
H481 C495 0.960 . S
H482 C495 0.961 . S
H483 C495 0.959 . S
H484 C498 0.929 . S
H485 C499 0.931 . S
H486 C501 0.930 . S
C487 H475 0.930 . S
C487 C488 1.399 . S
C487 C492 1.399 . S
C488 C487 1.399 . S
C488 C489 1.376 . S
C489 H476 0.930 . S
C489 C488 1.376 . S
C489 C490 1.388 . S
C490 H477 0.930 . S
C490 C489 1.388 . S
C490 C491 1.390 . S
C491 C490 1.390 . S
C491 C492 1.394 . S
C491 C497 1.465 . S
C492 C487 1.399 . S
C492 C491 1.394 . S
C492 C493 1.516 . S
C493 C492 1.516 . S
C493 C494 1.502 . S
C493 C495 1.561 . S
C493 C496 1.526 . S
C494 H478 0.959 . S
C494 H479 0.959 . S
C494 H480 0.961 . S
C494 C493 1.502 . S
C495 H481 0.960 . S
C495 H482 0.961 . S
C495 H483 0.959 . S
C495 C493 1.561 . S
C496 C493 1.526 . S
C496 C497 1.396 . S
C496 C501 1.390 . S
C497 C491 1.465 . S
C497 C496 1.396 . S
C497 C498 1.399 . S
C498 H484 0.929 . S
C498 C497 1.399 . S
C498 C499 1.385 . S
C499 H485 0.931 . S
C499 C498 1.385 . S
C499 C500 1.389 . S
C500 C499 1.389 . S
C500 C501 1.387 . S
C501 H486 0.930 . S
C501 C496 1.390 . S
C501 C500 1.387 . S
H502 C514 0.930 . S
H503 C516 0.930 . S
H504 C517 0.930 . S
H505 C521 0.959 . S
H506 C521 0.959 . S
H507 C521 0.961 . S
H508 C522 0.960 . S
H509 C522 0.961 . S
H510 C522 0.959 . S
H511 C525 0.929 . S
H512 C526 0.931 . S
H513 C528 0.930 . S
C514 H502 0.930 . S
C514 C515 1.399 . S
C514 C519 1.399 . S
C515 C514 1.399 . S
C515 C516 1.376 . S
C516 H503 0.930 . S
C516 C515 1.376 . S
C516 C517 1.388 . S
C517 H504 0.930 . S
C517 C516 1.388 . S
C517 C518 1.390 . S
C518 C517 1.390 . S
C518 C519 1.394 . S
C518 C524 1.465 . S
C519 C514 1.399 . S
C519 C518 1.394 . S
C519 C520 1.516 . S
C520 C519 1.516 . S
C520 C521 1.502 . S
C520 C522 1.561 . S
C520 C523 1.526 . S
C521 H505 0.959 . S
C521 H506 0.959 . S
C521 H507 0.961 . S
C521 C520 1.502 . S
C522 H508 0.960 . S
C522 H509 0.961 . S
C522 H510 0.959 . S
C522 C520 1.561 . S
C523 C520 1.526 . S
C523 C524 1.396 . S
C523 C528 1.390 . S
C524 C518 1.465 . S
C524 C523 1.396 . S
C524 C525 1.399 . S
C525 H511 0.929 . S
C525 C524 1.399 . S
C525 C526 1.385 . S
C526 H512 0.931 . S
C526 C525 1.385 . S
C526 C527 1.389 . S
C527 C526 1.389 . S
C527 C528 1.387 . S
C528 H513 0.930 . S
C528 C523 1.390 . S
C528 C527 1.387 . S
H529 C541 0.930 . S
H530 C543 0.930 . S
H531 C544 0.930 . S
H532 C548 0.959 . S
H533 C548 0.959 . S
H534 C548 0.961 . S
H535 C549 0.960 . S
H536 C549 0.961 . S
H537 C549 0.959 . S
H538 C552 0.929 . S
H539 C553 0.931 . S
H540 C555 0.930 . S
C541 H529 0.930 . S
C541 C542 1.399 . S
C541 C546 1.399 . S
C542 C541 1.399 . S
C542 C543 1.376 . S
C543 H530 0.930 . S
C543 C542 1.376 . S
C543 C544 1.388 . S
C544 H531 0.930 . S
C544 C543 1.388 . S
C544 C545 1.390 . S
C545 C544 1.390 . S
C545 C546 1.394 . S
C545 C551 1.465 . S
C546 C541 1.399 . S
C546 C545 1.394 . S
C546 C547 1.516 . S
C547 C546 1.516 . S
C547 C548 1.502 . S
C547 C549 1.561 . S
C547 C550 1.526 . S
C548 H532 0.959 . S
C548 H533 0.959 . S
C548 H534 0.961 . S
C548 C547 1.502 . S
C549 H535 0.960 . S
C549 H536 0.961 . S
C549 H537 0.959 . S
C549 C547 1.561 . S
C550 C547 1.526 . S
C550 C551 1.396 . S
C550 C555 1.390 . S
C551 C545 1.465 . S
C551 C550 1.396 . S
C551 C552 1.399 . S
C552 H538 0.929 . S
C552 C551 1.399 . S
C552 C553 1.385 . S
C553 H539 0.931 . S
C553 C552 1.385 . S
C553 C554 1.389 . S
C554 C553 1.389 . S
C554 C555 1.387 . S
C555 H540 0.930 . S
C555 C550 1.390 . S
C555 C554 1.387 . S
H556 C568 0.930 . S
H557 C570 0.930 . S
H558 C571 0.930 . S
H559 C575 0.959 . S
H560 C575 0.959 . S
H561 C575 0.961 . S
H562 C576 0.960 . S
H563 C576 0.961 . S
H564 C576 0.959 . S
H565 C579 0.929 . S
H566 C580 0.931 . S
H567 C582 0.930 . S
C568 H556 0.930 . S
C568 C569 1.399 . S
C568 C573 1.399 . S
C569 C568 1.399 . S
C569 C570 1.376 . S
C570 H557 0.930 . S
C570 C569 1.376 . S
C570 C571 1.388 . S
C571 H558 0.930 . S
C571 C570 1.388 . S
C571 C572 1.390 . S
C572 C571 1.390 . S
C572 C573 1.394 . S
C572 C578 1.465 . S
C573 C568 1.399 . S
C573 C572 1.394 . S
C573 C574 1.516 . S
C574 C573 1.516 . S
C574 C575 1.502 . S
C574 C576 1.561 . S
C574 C577 1.526 . S
C575 H559 0.959 . S
C575 H560 0.959 . S
C575 H561 0.961 . S
C575 C574 1.502 . S
C576 H562 0.960 . S
C576 H563 0.961 . S
C576 H564 0.959 . S
C576 C574 1.561 . S
C577 C574 1.526 . S
C577 C578 1.396 . S
C577 C582 1.390 . S
C578 C572 1.465 . S
C578 C577 1.396 . S
C578 C579 1.399 . S
C579 H565 0.929 . S
C579 C578 1.399 . S
C579 C580 1.385 . S
C580 H566 0.931 . S
C580 C579 1.385 . S
C580 C581 1.389 . S
C581 C580 1.389 . S
C581 C582 1.387 . S
C582 H567 0.930 . S
C582 C577 1.390 . S
C582 C581 1.387 . S
H583 C595 0.930 . S
H584 C597 0.930 . S
H585 C598 0.930 . S
H586 C602 0.959 . S
H587 C602 0.959 . S
H588 C602 0.961 . S
H589 C603 0.960 . S
H590 C603 0.961 . S
H591 C603 0.959 . S
H592 C606 0.929 . S
H593 C607 0.931 . S
H594 C609 0.930 . S
C595 H583 0.930 . S
C595 C596 1.399 . S
C595 C600 1.399 . S
C596 C595 1.399 . S
C596 C597 1.376 . S
C597 H584 0.930 . S
C597 C596 1.376 . S
C597 C598 1.388 . S
C598 H585 0.930 . S
C598 C597 1.388 . S
C598 C599 1.390 . S
C599 C598 1.390 . S
C599 C600 1.394 . S
C599 C605 1.465 . S
C600 C595 1.399 . S
C600 C599 1.394 . S
C600 C601 1.516 . S
C601 C600 1.516 . S
C601 C602 1.502 . S
C601 C603 1.561 . S
C601 C604 1.526 . S
C602 H586 0.959 . S
C602 H587 0.959 . S
C602 H588 0.961 . S
C602 C601 1.502 . S
C603 H589 0.960 . S
C603 H590 0.961 . S
C603 H591 0.959 . S
C603 C601 1.561 . S
C604 C601 1.526 . S
C604 C605 1.396 . S
C604 C609 1.390 . S
C605 C599 1.465 . S
C605 C604 1.396 . S
C605 C606 1.399 . S
C606 H592 0.929 . S
C606 C605 1.399 . S
C606 C607 1.385 . S
C607 H593 0.931 . S
C607 C606 1.385 . S
C607 C608 1.389 . S
C608 C607 1.389 . S
C608 C609 1.387 . S
C609 H594 0.930 . S
C609 C604 1.390 . S
C609 C608 1.387 . S
H610 C622 0.930 . S
H611 C624 0.930 . S
H612 C625 0.930 . S
H613 C629 0.959 . S
H614 C629 0.959 . S
H615 C629 0.961 . S
H616 C630 0.960 . S
H617 C630 0.961 . S
H618 C630 0.959 . S
H619 C633 0.929 . S
H620 C634 0.931 . S
H621 C636 0.930 . S
C622 H610 0.930 . S
C622 C623 1.399 . S
C622 C627 1.399 . S
C623 C622 1.399 . S
C623 C624 1.376 . S
C624 H611 0.930 . S
C624 C623 1.376 . S
C624 C625 1.388 . S
C625 H612 0.930 . S
C625 C624 1.388 . S
C625 C626 1.390 . S
C626 C625 1.390 . S
C626 C627 1.394 . S
C626 C632 1.465 . S
C627 C622 1.399 . S
C627 C626 1.394 . S
C627 C628 1.516 . S
C628 C627 1.516 . S
C628 C629 1.502 . S
C628 C630 1.561 . S
C628 C631 1.526 . S
C629 H613 0.959 . S
C629 H614 0.959 . S
C629 H615 0.961 . S
C629 C628 1.502 . S
C630 H616 0.960 . S
C630 H617 0.961 . S
C630 H618 0.959 . S
C630 C628 1.561 . S
C631 C628 1.526 . S
C631 C632 1.396 . S
C631 C636 1.390 . S
C632 C626 1.465 . S
C632 C631 1.396 . S
C632 C633 1.399 . S
C633 H619 0.929 . S
C633 C632 1.399 . S
C633 C634 1.385 . S
C634 H620 0.931 . S
C634 C633 1.385 . S
C634 C635 1.389 . S
C635 C634 1.389 . S
C635 C636 1.387 . S
C636 H621 0.930 . S
C636 C631 1.390 . S
C636 C635 1.387 . S
H637 C649 0.930 . S
H638 C651 0.930 . S
H639 C652 0.930 . S
H640 C656 0.959 . S
H641 C656 0.959 . S
H642 C656 0.961 . S
H643 C657 0.960 . S
H644 C657 0.961 . S
H645 C657 0.959 . S
H646 C660 0.929 . S
H647 C661 0.931 . S
H648 C663 0.930 . S
C649 H637 0.930 . S
C649 C650 1.399 . S
C649 C654 1.399 . S
C650 C649 1.399 . S
C650 C651 1.376 . S
C651 H638 0.930 . S
C651 C650 1.376 . S
C651 C652 1.388 . S
C652 H639 0.930 . S
C652 C651 1.388 . S
C652 C653 1.390 . S
C653 C652 1.390 . S
C653 C654 1.394 . S
C653 C659 1.465 . S
C654 C649 1.399 . S
C654 C653 1.394 . S
C654 C655 1.516 . S
C655 C654 1.516 . S
C655 C656 1.502 . S
C655 C657 1.561 . S
C655 C658 1.526 . S
C656 H640 0.959 . S
C656 H641 0.959 . S
C656 H642 0.961 . S
C656 C655 1.502 . S
C657 H643 0.960 . S
C657 H644 0.961 . S
C657 H645 0.959 . S
C657 C655 1.561 . S
C658 C655 1.526 . S
C658 C659 1.396 . S
C658 C663 1.390 . S
C659 C653 1.465 . S
C659 C658 1.396 . S
C659 C660 1.399 . S
C660 H646 0.929 . S
C660 C659 1.399 . S
C660 C661 1.385 . S
C661 H647 0.931 . S
C661 C660 1.385 . S
C661 C662 1.389 . S
C662 C661 1.389 . S
C662 C663 1.387 . S
C663 H648 0.930 . S
C663 C658 1.390 . S
C663 C662 1.387 . S
H664 C676 0.930 . S
H665 C678 0.930 . S
H666 C679 0.930 . S
H667 C683 0.959 . S
H668 C683 0.959 . S
H669 C683 0.961 . S
H670 C684 0.960 . S
H671 C684 0.961 . S
H672 C684 0.959 . S
H673 C687 0.929 . S
H674 C688 0.931 . S
H675 C690 0.930 . S
C676 H664 0.930 . S
C676 C677 1.399 . S
C676 C681 1.399 . S
C677 C676 1.399 . S
C677 C678 1.376 . S
C678 H665 0.930 . S
C678 C677 1.376 . S
C678 C679 1.388 . S
C679 H666 0.930 . S
C679 C678 1.388 . S
C679 C680 1.390 . S
C680 C679 1.390 . S
C680 C681 1.394 . S
C680 C686 1.465 . S
C681 C676 1.399 . S
C681 C680 1.394 . S
C681 C682 1.516 . S
C682 C681 1.516 . S
C682 C683 1.502 . S
C682 C684 1.561 . S
C682 C685 1.526 . S
C683 H667 0.959 . S
C683 H668 0.959 . S
C683 H669 0.961 . S
C683 C682 1.502 . S
C684 H670 0.960 . S
C684 H671 0.961 . S
C684 H672 0.959 . S
C684 C682 1.561 . S
C685 C682 1.526 . S
C685 C686 1.396 . S
C685 C690 1.390 . S
C686 C680 1.465 . S
C686 C685 1.396 . S
C686 C687 1.399 . S
C687 H673 0.929 . S
C687 C686 1.399 . S
C687 C688 1.385 . S
C688 H674 0.931 . S
C688 C687 1.385 . S
C688 C689 1.389 . S
C689 C688 1.389 . S
C689 C690 1.387 . S
C690 H675 0.930 . S
C690 C685 1.390 . S
C690 C689 1.387 . S
H691 C703 0.930 . S
H692 C705 0.930 . S
H693 C706 0.930 . S
H694 C710 0.959 . S
H695 C710 0.959 . S
H696 C710 0.961 . S
H697 C711 0.960 . S
H698 C711 0.961 . S
H699 C711 0.959 . S
H700 C714 0.929 . S
H701 C715 0.931 . S
H702 C717 0.930 . S
C703 H691 0.930 . S
C703 C704 1.399 . S
C703 C708 1.399 . S
C704 C703 1.399 . S
C704 C705 1.376 . S
C705 H692 0.930 . S
C705 C704 1.376 . S
C705 C706 1.388 . S
C706 H693 0.930 . S
C706 C705 1.388 . S
C706 C707 1.390 . S
C707 C706 1.390 . S
C707 C708 1.394 . S
C707 C713 1.465 . S
C708 C703 1.399 . S
C708 C707 1.394 . S
C708 C709 1.516 . S
C709 C708 1.516 . S
C709 C710 1.502 . S
C709 C711 1.561 . S
C709 C712 1.526 . S
C710 H694 0.959 . S
C710 H695 0.959 . S
C710 H696 0.961 . S
C710 C709 1.502 . S
C711 H697 0.960 . S
C711 H698 0.961 . S
C711 H699 0.959 . S
C711 C709 1.561 . S
C712 C709 1.526 . S
C712 C713 1.396 . S
C712 C717 1.390 . S
C713 C707 1.465 . S
C713 C712 1.396 . S
C713 C714 1.399 . S
C714 H700 0.929 . S
C714 C713 1.399 . S
C714 C715 1.385 . S
C715 H701 0.931 . S
C715 C714 1.385 . S
C715 C716 1.389 . S
C716 C715 1.389 . S
C716 C717 1.387 . S
C717 H702 0.930 . S
C717 C712 1.390 . S
C717 C716 1.387 . S
H718 C730 0.930 . S
H719 C732 0.930 . S
H720 C733 0.930 . S
H721 C737 0.959 . S
H722 C737 0.959 . S
H723 C737 0.961 . S
H724 C738 0.960 . S
H725 C738 0.961 . S
H726 C738 0.959 . S
H727 C741 0.929 . S
H728 C742 0.931 . S
H729 C744 0.930 . S
C730 H718 0.930 . S
C730 C731 1.399 . S
C730 C735 1.399 . S
C731 C730 1.399 . S
C731 C732 1.376 . S
C732 H719 0.930 . S
C732 C731 1.376 . S
C732 C733 1.388 . S
C733 H720 0.930 . S
C733 C732 1.388 . S
C733 C734 1.390 . S
C734 C733 1.390 . S
C734 C735 1.394 . S
C734 C740 1.465 . S
C735 C730 1.399 . S
C735 C734 1.394 . S
C735 C736 1.516 . S
C736 C735 1.516 . S
C736 C737 1.502 . S
C736 C738 1.561 . S
C736 C739 1.526 . S
C737 H721 0.959 . S
C737 H722 0.959 . S
C737 H723 0.961 . S
C737 C736 1.502 . S
C738 H724 0.960 . S
C738 H725 0.961 . S
C738 H726 0.959 . S
C738 C736 1.561 . S
C739 C736 1.526 . S
C739 C740 1.396 . S
C739 C744 1.390 . S
C740 C734 1.465 . S
C740 C739 1.396 . S
C740 C741 1.399 . S
C741 H727 0.929 . S
C741 C740 1.399 . S
C741 C742 1.385 . S
C742 H728 0.931 . S
C742 C741 1.385 . S
C742 C743 1.389 . S
C743 C742 1.389 . S
C743 C744 1.387 . S
C744 H729 0.930 . S
C744 C739 1.390 . S
C744 C743 1.387 . S
H745 C757 0.930 . S
H746 C759 0.930 . S
H747 C760 0.930 . S
H748 C764 0.959 . S
H749 C764 0.959 . S
H750 C764 0.961 . S
H751 C765 0.960 . S
H752 C765 0.961 . S
H753 C765 0.959 . S
H754 C768 0.929 . S
H755 C769 0.931 . S
H756 C771 0.930 . S
C757 H745 0.930 . S
C757 C758 1.399 . S
C757 C762 1.399 . S
C758 C757 1.399 . S
C758 C759 1.376 . S
C759 H746 0.930 . S
C759 C758 1.376 . S
C759 C760 1.388 . S
C760 H747 0.930 . S
C760 C759 1.388 . S
C760 C761 1.390 . S
C761 C760 1.390 . S
C761 C762 1.394 . S
C761 C767 1.465 . S
C762 C757 1.399 . S
C762 C761 1.394 . S
C762 C763 1.516 . S
C763 C762 1.516 . S
C763 C764 1.502 . S
C763 C765 1.561 . S
C763 C766 1.526 . S
C764 H748 0.959 . S
C764 H749 0.959 . S
C764 H750 0.961 . S
C764 C763 1.502 . S
C765 H751 0.960 . S
C765 H752 0.961 . S
C765 H753 0.959 . S
C765 C763 1.561 . S
C766 C763 1.526 . S
C766 C767 1.396 . S
C766 C771 1.390 . S
C767 C761 1.465 . S
C767 C766 1.396 . S
C767 C768 1.399 . S
C768 H754 0.929 . S
C768 C767 1.399 . S
C768 C769 1.385 . S
C769 H755 0.931 . S
C769 C768 1.385 . S
C769 C770 1.389 . S
C770 C769 1.389 . S
C770 C771 1.387 . S
C771 H756 0.930 . S
C771 C766 1.390 . S
C771 C770 1.387 . S
H772 C784 0.930 . S
H773 C786 0.930 . S
H774 C787 0.930 . S
H775 C791 0.959 . S
H776 C791 0.959 . S
H777 C791 0.961 . S
H778 C792 0.960 . S
H779 C792 0.961 . S
H780 C792 0.959 . S
H781 C795 0.929 . S
H782 C796 0.931 . S
H783 C798 0.930 . S
C784 H772 0.930 . S
C784 C785 1.399 . S
C784 C789 1.399 . S
C785 C784 1.399 . S
C785 C786 1.376 . S
C786 H773 0.930 . S
C786 C785 1.376 . S
C786 C787 1.388 . S
C787 H774 0.930 . S
C787 C786 1.388 . S
C787 C788 1.390 . S
C788 C787 1.390 . S
C788 C789 1.394 . S
C788 C794 1.465 . S
C789 C784 1.399 . S
C789 C788 1.394 . S
C789 C790 1.516 . S
C790 C789 1.516 . S
C790 C791 1.502 . S
C790 C792 1.561 . S
C790 C793 1.526 . S
C791 H775 0.959 . S
C791 H776 0.959 . S
C791 H777 0.961 . S
C791 C790 1.502 . S
C792 H778 0.960 . S
C792 H779 0.961 . S
C792 H780 0.959 . S
C792 C790 1.561 . S
C793 C790 1.526 . S
C793 C794 1.396 . S
C793 C798 1.390 . S
C794 C788 1.465 . S
C794 C793 1.396 . S
C794 C795 1.399 . S
C795 H781 0.929 . S
C795 C794 1.399 . S
C795 C796 1.385 . S
C796 H782 0.931 . S
C796 C795 1.385 . S
C796 C797 1.389 . S
C797 C796 1.389 . S
C797 C798 1.387 . S
C798 H783 0.930 . S
C798 C793 1.390 . S
C798 C797 1.387 . S
H799 C811 0.930 . S
H800 C813 0.930 . S
H801 C814 0.930 . S
H802 C818 0.959 . S
H803 C818 0.959 . S
H804 C818 0.961 . S
H805 C819 0.960 . S
H806 C819 0.961 . S
H807 C819 0.959 . S
H808 C822 0.929 . S
H809 C823 0.931 . S
H810 C825 0.930 . S
C811 H799 0.930 . S
C811 C812 1.399 . S
C811 C816 1.399 . S
C812 C811 1.399 . S
C812 C813 1.376 . S
C813 H800 0.930 . S
C813 C812 1.376 . S
C813 C814 1.388 . S
C814 H801 0.930 . S
C814 C813 1.388 . S
C814 C815 1.390 . S
C815 C814 1.390 . S
C815 C816 1.394 . S
C815 C821 1.465 . S
C816 C811 1.399 . S
C816 C815 1.394 . S
C816 C817 1.516 . S
C817 C816 1.516 . S
C817 C818 1.502 . S
C817 C819 1.561 . S
C817 C820 1.526 . S
C818 H802 0.959 . S
C818 H803 0.959 . S
C818 H804 0.961 . S
C818 C817 1.502 . S
C819 H805 0.960 . S
C819 H806 0.961 . S
C819 H807 0.959 . S
C819 C817 1.561 . S
C820 C817 1.526 . S
C820 C821 1.396 . S
C820 C825 1.390 . S
C821 C815 1.465 . S
C821 C820 1.396 . S
C821 C822 1.399 . S
C822 H808 0.929 . S
C822 C821 1.399 . S
C822 C823 1.385 . S
C823 H809 0.931 . S
C823 C822 1.385 . S
C823 C824 1.389 . S
C824 C823 1.389 . S
C824 C825 1.387 . S
C825 H810 0.930 . S
C825 C820 1.390 . S
C825 C824 1.387 . S
H826 C838 0.930 . S
H827 C840 0.930 . S
H828 C841 0.930 . S
H829 C845 0.959 . S
H830 C845 0.959 . S
H831 C845 0.961 . S
H832 C846 0.960 . S
H833 C846 0.961 . S
H834 C846 0.959 . S
H835 C849 0.929 . S
H836 C850 0.931 . S
H837 C852 0.930 . S
C838 H826 0.930 . S
C838 C839 1.399 . S
C838 C843 1.399 . S
C839 C838 1.399 . S
C839 C840 1.376 . S
C840 H827 0.930 . S
C840 C839 1.376 . S
C840 C841 1.388 . S
C841 H828 0.930 . S
C841 C840 1.388 . S
C841 C842 1.390 . S
C842 C841 1.390 . S
C842 C843 1.394 . S
C842 C848 1.465 . S
C843 C838 1.399 . S
C843 C842 1.394 . S
C843 C844 1.516 . S
C844 C843 1.516 . S
C844 C845 1.502 . S
C844 C846 1.561 . S
C844 C847 1.526 . S
C845 H829 0.959 . S
C845 H830 0.959 . S
C845 H831 0.961 . S
C845 C844 1.502 . S
C846 H832 0.960 . S
C846 H833 0.961 . S
C846 H834 0.959 . S
C846 C844 1.561 . S
C847 C844 1.526 . S
C847 C848 1.396 . S
C847 C852 1.390 . S
C848 C842 1.465 . S
C848 C847 1.396 . S
C848 C849 1.399 . S
C849 H835 0.929 . S
C849 C848 1.399 . S
C849 C850 1.385 . S
C850 H836 0.931 . S
C850 C849 1.385 . S
C850 C851 1.389 . S
C851 C850 1.389 . S
C851 C852 1.387 . S
C852 H837 0.930 . S
C852 C847 1.390 . S
C852 C851 1.387 . S
H853 C865 0.930 . S
H854 C867 0.930 . S
H855 C868 0.930 . S
H856 C872 0.959 . S
H857 C872 0.959 . S
H858 C872 0.961 . S
H859 C873 0.960 . S
H860 C873 0.961 . S
H861 C873 0.959 . S
H862 C876 0.929 . S
H863 C877 0.931 . S
H864 C879 0.930 . S
C865 H853 0.930 . S
C865 C866 1.399 . S
C865 C870 1.399 . S
C866 C865 1.399 . S
C866 C867 1.376 . S
C867 H854 0.930 . S
C867 C866 1.376 . S
C867 C868 1.388 . S
C868 H855 0.930 . S
C868 C867 1.388 . S
C868 C869 1.390 . S
C869 C868 1.390 . S
C869 C870 1.394 . S
C869 C875 1.465 . S
C870 C865 1.399 . S
C870 C869 1.394 . S
C870 C871 1.516 . S
C871 C870 1.516 . S
C871 C872 1.502 . S
C871 C873 1.561 . S
C871 C874 1.526 . S
C872 H856 0.959 . S
C872 H857 0.959 . S
C872 H858 0.961 . S
C872 C871 1.502 . S
C873 H859 0.960 . S
C873 H860 0.961 . S
C873 H861 0.959 . S
C873 C871 1.561 . S
C874 C871 1.526 . S
C874 C875 1.396 . S
C874 C879 1.390 . S
C875 C869 1.465 . S
C875 C874 1.396 . S
C875 C876 1.399 . S
C876 H862 0.929 . S
C876 C875 1.399 . S
C876 C877 1.385 . S
C877 H863 0.931 . S
C877 C876 1.385 . S
C877 C878 1.389 . S
C878 C877 1.389 . S
C878 C879 1.387 . S
C879 H864 0.930 . S
C879 C874 1.390 . S
C879 C878 1.387 . S
H880 C892 0.930 . S
H881 C894 0.930 . S
H882 C895 0.930 . S
H883 C899 0.959 . S
H884 C899 0.959 . S
H885 C899 0.961 . S
H886 C900 0.960 . S
H887 C900 0.961 . S
H888 C900 0.959 . S
H889 C903 0.929 . S
H890 C904 0.931 . S
H891 C906 0.930 . S
C892 H880 0.930 . S
C892 C893 1.399 . S
C892 C897 1.399 . S
C893 C892 1.399 . S
C893 C894 1.376 . S
C894 H881 0.930 . S
C894 C893 1.376 . S
C894 C895 1.388 . S
C895 H882 0.930 . S
C895 C894 1.388 . S
C895 C896 1.390 . S
C896 C895 1.390 . S
C896 C897 1.394 . S
C896 C902 1.465 . S
C897 C892 1.399 . S
C897 C896 1.394 . S
C897 C898 1.516 . S
C898 C897 1.516 . S
C898 C899 1.502 . S
C898 C900 1.561 . S
C898 C901 1.526 . S
C899 H883 0.959 . S
C899 H884 0.959 . S
C899 H885 0.961 . S
C899 C898 1.502 . S
C900 H886 0.960 . S
C900 H887 0.961 . S
C900 H888 0.959 . S
C900 C898 1.561 . S
C901 C898 1.526 . S
C901 C902 1.396 . S
C901 C906 1.390 . S
C902 C896 1.465 . S
C902 C901 1.396 . S
C902 C903 1.399 . S
C903 H889 0.929 . S
C903 C902 1.399 . S
C903 C904 1.385 . S
C904 H890 0.931 . S
C904 C903 1.385 . S
C904 C905 1.389 . S
C905 C904 1.389 . S
C905 C906 1.387 . S
C906 H891 0.930 . S
C906 C901 1.390 . S
C906 C905 1.387 . S
H907 C919 0.930 . S
H908 C921 0.930 . S
H909 C922 0.930 . S
H910 C926 0.959 . S
H911 C926 0.959 . S
H912 C926 0.961 . S
H913 C927 0.960 . S
H914 C927 0.961 . S
H915 C927 0.959 . S
H916 C930 0.929 . S
H917 C931 0.931 . S
H918 C933 0.930 . S
C919 H907 0.930 . S
C919 C920 1.399 . S
C919 C924 1.399 . S
C920 C919 1.399 . S
C920 C921 1.376 . S
C921 H908 0.930 . S
C921 C920 1.376 . S
C921 C922 1.388 . S
C922 H909 0.930 . S
C922 C921 1.388 . S
C922 C923 1.390 . S
C923 C922 1.390 . S
C923 C924 1.394 . S
C923 C929 1.465 . S
C924 C919 1.399 . S
C924 C923 1.394 . S
C924 C925 1.516 . S
C925 C924 1.516 . S
C925 C926 1.502 . S
C925 C927 1.561 . S
C925 C928 1.526 . S
C926 H910 0.959 . S
C926 H911 0.959 . S
C926 H912 0.961 . S
C926 C925 1.502 . S
C927 H913 0.960 . S
C927 H914 0.961 . S
C927 H915 0.959 . S
C927 C925 1.561 . S
C928 C925 1.526 . S
C928 C929 1.396 . S
C928 C933 1.390 . S
C929 C923 1.465 . S
C929 C928 1.396 . S
C929 C930 1.399 . S
C930 H916 0.929 . S
C930 C929 1.399 . S
C930 C931 1.385 . S
C931 H917 0.931 . S
C931 C930 1.385 . S
C931 C932 1.389 . S
C932 C931 1.389 . S
C932 C933 1.387 . S
C933 H918 0.930 . S
C933 C928 1.390 . S
C933 C932 1.387 . S
H934 C946 0.930 . S
H935 C948 0.930 . S
H936 C949 0.930 . S
H937 C953 0.959 . S
H938 C953 0.959 . S
H939 C953 0.961 . S
H940 C954 0.960 . S
H941 C954 0.961 . S
H942 C954 0.959 . S
H943 C957 0.929 . S
H944 C958 0.931 . S
H945 C960 0.930 . S
C946 H934 0.930 . S
C946 C947 1.399 . S
C946 C951 1.399 . S
C947 C946 1.399 . S
C947 C948 1.376 . S
C948 H935 0.930 . S
C948 C947 1.376 . S
C948 C949 1.388 . S
C949 H936 0.930 . S
C949 C948 1.388 . S
C949 C950 1.390 . S
C950 C949 1.390 . S
C950 C951 1.394 . S
C950 C956 1.465 . S
C951 C946 1.399 . S
C951 C950 1.394 . S
C951 C952 1.516 . S
C952 C951 1.516 . S
C952 C953 1.502 . S
C952 C954 1.561 . S
C952 C955 1.526 . S
C953 H937 0.959 . S
C953 H938 0.959 . S
C953 H939 0.961 . S
C953 C952 1.502 . S
C954 H940 0.960 . S
C954 H941 0.961 . S
C954 H942 0.959 . S
C954 C952 1.561 . S
C955 C952 1.526 . S
C955 C956 1.396 . S
C955 C960 1.390 . S
C956 C950 1.465 . S
C956 C955 1.396 . S
C956 C957 1.399 . S
C957 H943 0.929 . S
C957 C956 1.399 . S
C957 C958 1.385 . S
C958 H944 0.931 . S
C958 C957 1.385 . S
C958 C959 1.389 . S
C959 C958 1.389 . S
C959 C960 1.387 . S
C960 H945 0.930 . S
C960 C955 1.390 . S
C960 C959 1.387 . S
H961 C973 0.930 . S
H962 C975 0.930 . S
H963 C976 0.930 . S
H964 C980 0.959 . S
H965 C980 0.959 . S
H966 C980 0.961 . S
H967 C981 0.960 . S
H968 C981 0.961 . S
H969 C981 0.959 . S
H970 C984 0.929 . S
H971 C985 0.931 . S
H972 C987 0.930 . S
C973 H961 0.930 . S
C973 C974 1.399 . S
C973 C978 1.399 . S
C974 C973 1.399 . S
C974 C975 1.376 . S
C975 H962 0.930 . S
C975 C974 1.376 . S
C975 C976 1.388 . S
C976 H963 0.930 . S
C976 C975 1.388 . S
C976 C977 1.390 . S
C977 C976 1.390 . S
C977 C978 1.394 . S
C977 C983 1.465 . S
C978 C973 1.399 . S
C978 C977 1.394 . S
C978 C979 1.516 . S
C979 C978 1.516 . S
C979 C980 1.502 . S
C979 C981 1.561 . S
C979 C982 1.526 . S
C980 H964 0.959 . S
C980 H965 0.959 . S
C980 H966 0.961 . S
C980 C979 1.502 . S
C981 H967 0.960 . S
C981 H968 0.961 . S
C981 H969 0.959 . S
C981 C979 1.561 . S
C982 C979 1.526 . S
C982 C983 1.396 . S
C982 C987 1.390 . S
C983 C977 1.465 . S
C983 C982 1.396 . S
C983 C984 1.399 . S
C984 H970 0.929 . S
C984 C983 1.399 . S
C984 C985 1.385 . S
C985 H971 0.931 . S
C985 C984 1.385 . S
C985 C986 1.389 . S
C986 C985 1.389 . S
C986 C987 1.387 . S
C987 H972 0.930 . S
C987 C982 1.390 . S
C987 C986 1.387 . S
H988 C1000 0.930 . S
H989 C1002 0.930 . S
H990 C1003 0.930 . S
H991 C1007 0.959 . S
H992 C1007 0.959 . S
H993 C1007 0.961 . S
H994 C1008 0.960 . S
H995 C1008 0.961 . S
H996 C1008 0.959 . S
H997 C1011 0.929 . S
H998 C1012 0.931 . S
H999 C1014 0.930 . S
C1000 H988 0.930 . S
C1000 C1001 1.399 . S
C1000 C1005 1.399 . S
C1001 C1000 1.399 . S
C1001 C1002 1.376 . S
C1002 H989 0.930 . S
C1002 C1001 1.376 . S
C1002 C1003 1.388 . S
C1003 H990 0.930 . S
C1003 C1002 1.388 . S
C1003 C1004 1.390 . S
C1004 C1003 1.390 . S
C1004 C1005 1.394 . S
C1004 C1010 1.465 . S
C1005 C1000 1.399 . S
C1005 C1004 1.394 . S
C1005 C1006 1.516 . S
C1006 C1005 1.516 . S
C1006 C1007 1.502 . S
C1006 C1008 1.561 . S
C1006 C1009 1.526 . S
C1007 H991 0.959 . S
C1007 H992 0.959 . S
C1007 H993 0.961 . S
C1007 C1006 1.502 . S
C1008 H994 0.960 . S
C1008 H995 0.961 . S
C1008 H996 0.959 . S
C1008 C1006 1.561 . S
C1009 C1006 1.526 . S
C1009 C1010 1.396 . S
C1009 C1014 1.390 . S
C1010 C1004 1.465 . S
C1010 C1009 1.396 . S
C1010 C1011 1.399 . S
C1011 H997 0.929 . S
C1011 C1010 1.399 . S
C1011 C1012 1.385 . S
C1012 H998 0.931 . S
C1012 C1011 1.385 . S
C1012 C1013 1.389 . S
C1013 C1012 1.389 . S
C1013 C1014 1.387 . S
C1014 H999 0.930 . S
C1014 C1009 1.390 . S
C1014 C1013 1.387 . S
H1015 C1027 0.930 . S
H1016 C1029 0.930 . S
H1017 C1030 0.930 . S
H1018 C1034 0.959 . S
H1019 C1034 0.959 . S
H1020 C1034 0.961 . S
H1021 C1035 0.960 . S
H1022 C1035 0.961 . S
H1023 C1035 0.959 . S
H1024 C1038 0.929 . S
H1025 C1039 0.931 . S
H1026 C1041 0.930 . S
C1027 H1015 0.930 . S
C1027 C1028 1.399 . S
C1027 C1032 1.399 . S
C1028 C1027 1.399 . S
C1028 C1029 1.376 . S
C1029 H1016 0.930 . S
C1029 C1028 1.376 . S
C1029 C1030 1.388 . S
C1030 H1017 0.930 . S
C1030 C1029 1.388 . S
C1030 C1031 1.390 . S
C1031 C1030 1.390 . S
C1031 C1032 1.394 . S
C1031 C1037 1.465 . S
C1032 C1027 1.399 . S
C1032 C1031 1.394 . S
C1032 C1033 1.516 . S
C1033 C1032 1.516 . S
C1033 C1034 1.502 . S
C1033 C1035 1.561 . S
C1033 C1036 1.526 . S
C1034 H1018 0.959 . S
C1034 H1019 0.959 . S
C1034 H1020 0.961 . S
C1034 C1033 1.502 . S
C1035 H1021 0.960 . S
C1035 H1022 0.961 . S
C1035 H1023 0.959 . S
C1035 C1033 1.561 . S
C1036 C1033 1.526 . S
C1036 C1037 1.396 . S
C1036 C1041 1.390 . S
C1037 C1031 1.465 . S
C1037 C1036 1.396 . S
C1037 C1038 1.399 . S
C1038 H1024 0.929 . S
C1038 C1037 1.399 . S
C1038 C1039 1.385 . S
C1039 H1025 0.931 . S
C1039 C1038 1.385 . S
C1039 C1040 1.389 . S
C1040 C1039 1.389 . S
C1040 C1041 1.387 . S
C1041 H1026 0.930 . S
C1041 C1036 1.390 . S
C1041 C1040 1.387 . S
H1042 C1054 0.930 . S
H1043 C1056 0.930 . S
H1044 C1057 0.930 . S
H1045 C1061 0.959 . S
H1046 C1061 0.959 . S
H1047 C1061 0.961 . S
H1048 C1062 0.960 . S
H1049 C1062 0.961 . S
H1050 C1062 0.959 . S
H1051 C1065 0.929 . S
H1052 C1066 0.931 . S
H1053 C1068 0.930 . S
C1054 H1042 0.930 . S
C1054 C1055 1.399 . S
C1054 C1059 1.399 . S
C1055 C1054 1.399 . S
C1055 C1056 1.376 . S
C1056 H1043 0.930 . S
C1056 C1055 1.376 . S
C1056 C1057 1.388 . S
C1057 H1044 0.930 . S
C1057 C1056 1.388 . S
C1057 C1058 1.390 . S
C1058 C1057 1.390 . S
C1058 C1059 1.394 . S
C1058 C1064 1.465 . S
C1059 C1054 1.399 . S
C1059 C1058 1.394 . S
C1059 C1060 1.516 . S
C1060 C1059 1.516 . S
C1060 C1061 1.502 . S
C1060 C1062 1.561 . S
C1060 C1063 1.526 . S
C1061 H1045 0.959 . S
C1061 H1046 0.959 . S
C1061 H1047 0.961 . S
C1061 C1060 1.502 . S
C1062 H1048 0.960 . S
C1062 H1049 0.961 . S
C1062 H1050 0.959 . S
C1062 C1060 1.561 . S
C1063 C1060 1.526 . S
C1063 C1064 1.396 . S
C1063 C1068 1.390 . S
C1064 C1058 1.465 . S
C1064 C1063 1.396 . S
C1064 C1065 1.399 . S
C1065 H1051 0.929 . S
C1065 C1064 1.399 . S
C1065 C1066 1.385 . S
C1066 H1052 0.931 . S
C1066 C1065 1.385 . S
C1066 C1067 1.389 . S
C1067 C1066 1.389 . S
C1067 C1068 1.387 . S
C1068 H1053 0.930 . S
C1068 C1063 1.390 . S
C1068 C1067 1.387 . S
H1069 C1081 0.930 . S
H1070 C1083 0.930 . S
H1071 C1084 0.930 . S
H1072 C1088 0.959 . S
H1073 C1088 0.959 . S
H1074 C1088 0.961 . S
H1075 C1089 0.960 . S
H1076 C1089 0.961 . S
H1077 C1089 0.959 . S
H1078 C1092 0.929 . S
H1079 C1093 0.931 . S
H1080 C1095 0.930 . S
C1081 H1069 0.930 . S
C1081 C1082 1.399 . S
C1081 C1086 1.399 . S
C1082 C1081 1.399 . S
C1082 C1083 1.376 . S
C1083 H1070 0.930 . S
C1083 C1082 1.376 . S
C1083 C1084 1.388 . S
C1084 H1071 0.930 . S
C1084 C1083 1.388 . S
C1084 C1085 1.390 . S
C1085 C1084 1.390 . S
C1085 C1086 1.394 . S
C1085 C1091 1.465 . S
C1086 C1081 1.399 . S
C1086 C1085 1.394 . S
C1086 C1087 1.516 . S
C1087 C1086 1.516 . S
C1087 C1088 1.502 . S
C1087 C1089 1.561 . S
C1087 C1090 1.526 . S
C1088 H1072 0.959 . S
C1088 H1073 0.959 . S
C1088 H1074 0.961 . S
C1088 C1087 1.502 . S
C1089 H1075 0.960 . S
C1089 H1076 0.961 . S
C1089 H1077 0.959 . S
C1089 C1087 1.561 . S
C1090 C1087 1.526 . S
C1090 C1091 1.396 . S
C1090 C1095 1.390 . S
C1091 C1085 1.465 . S
C1091 C1090 1.396 . S
C1091 C1092 1.399 . S
C1092 H1078 0.929 . S
C1092 C1091 1.399 . S
C1092 C1093 1.385 . S
C1093 H1079 0.931 . S
C1093 C1092 1.385 . S
C1093 C1094 1.389 . S
C1094 C1093 1.389 . S
C1094 C1095 1.387 . S
C1095 H1080 0.930 . S
C1095 C1090 1.390 . S
C1095 C1094 1.387 . S
H1096 C1108 0.930 . S
H1097 C1110 0.930 . S
H1098 C1111 0.930 . S
H1099 C1115 0.959 . S
H1100 C1115 0.959 . S
H1101 C1115 0.961 . S
H1102 C1116 0.960 . S
H1103 C1116 0.961 . S
H1104 C1116 0.959 . S
H1105 C1119 0.929 . S
H1106 C1120 0.931 . S
H1107 C1122 0.930 . S
C1108 H1096 0.930 . S
C1108 C1109 1.399 . S
C1108 C1113 1.399 . S
C1109 C1108 1.399 . S
C1109 C1110 1.376 . S
C1110 H1097 0.930 . S
C1110 C1109 1.376 . S
C1110 C1111 1.388 . S
C1111 H1098 0.930 . S
C1111 C1110 1.388 . S
C1111 C1112 1.390 . S
C1112 C1111 1.390 . S
C1112 C1113 1.394 . S
C1112 C1118 1.465 . S
C1113 C1108 1.399 . S
C1113 C1112 1.394 . S
C1113 C1114 1.516 . S
C1114 C1113 1.516 . S
C1114 C1115 1.502 . S
C1114 C1116 1.561 . S
C1114 C1117 1.526 . S
C1115 H1099 0.959 . S
C1115 H1100 0.959 . S
C1115 H1101 0.961 . S
C1115 C1114 1.502 . S
C1116 H1102 0.960 . S
C1116 H1103 0.961 . S
C1116 H1104 0.959 . S
C1116 C1114 1.561 . S
C1117 C1114 1.526 . S
C1117 C1118 1.396 . S
C1117 C1122 1.390 . S
C1118 C1112 1.465 . S
C1118 C1117 1.396 . S
C1118 C1119 1.399 . S
C1119 H1105 0.929 . S
C1119 C1118 1.399 . S
C1119 C1120 1.385 . S
C1120 H1106 0.931 . S
C1120 C1119 1.385 . S
C1120 C1121 1.389 . S
C1121 C1120 1.389 . S
C1121 C1122 1.387 . S
C1122 H1107 0.930 . S
C1122 C1117 1.390 . S
C1122 C1121 1.387 . S
H1123 C1135 0.930 . S
H1124 C1137 0.930 . S
H1125 C1138 0.930 . S
H1126 C1142 0.959 . S
H1127 C1142 0.959 . S
H1128 C1142 0.961 . S
H1129 C1143 0.960 . S
H1130 C1143 0.961 . S
H1131 C1143 0.959 . S
H1132 C1146 0.929 . S
H1133 C1147 0.931 . S
H1134 C1149 0.930 . S
C1135 H1123 0.930 . S
C1135 C1136 1.399 . S
C1135 C1140 1.399 . S
C1136 C1135 1.399 . S
C1136 C1137 1.376 . S
C1137 H1124 0.930 . S
C1137 C1136 1.376 . S
C1137 C1138 1.388 . S
C1138 H1125 0.930 . S
C1138 C1137 1.388 . S
C1138 C1139 1.390 . S
C1139 C1138 1.390 . S
C1139 C1140 1.394 . S
C1139 C1145 1.465 . S
C1140 C1135 1.399 . S
C1140 C1139 1.394 . S
C1140 C1141 1.516 . S
C1141 C1140 1.516 . S
C1141 C1142 1.502 . S
C1141 C1143 1.561 . S
C1141 C1144 1.526 . S
C1142 H1126 0.959 . S
C1142 H1127 0.959 . S
C1142 H1128 0.961 . S
C1142 C1141 1.502 . S
C1143 H1129 0.960 . S
C1143 H1130 0.961 . S
C1143 H1131 0.959 . S
C1143 C1141 1.561 . S
C1144 C1141 1.526 . S
C1144 C1145 1.396 . S
C1144 C1149 1.390 . S
C1145 C1139 1.465 . S
C1145 C1144 1.396 . S
C1145 C1146 1.399 . S
C1146 H1132 0.929 . S
C1146 C1145 1.399 . S
C1146 C1147 1.385 . S
C1147 H1133 0.931 . S
C1147 C1146 1.385 . S
C1147 C1148 1.389 . S
C1148 C1147 1.389 . S
C1148 C1149 1.387 . S
C1149 H1134 0.930 . S
C1149 C1144 1.390 . S
C1149 C1148 1.387 . S
H1150 C1162 0.930 . S
H1151 C1164 0.930 . S
H1152 C1165 0.930 . S
H1153 C1169 0.959 . S
H1154 C1169 0.959 . S
H1155 C1169 0.961 . S
H1156 C1170 0.960 . S
H1157 C1170 0.961 . S
H1158 C1170 0.959 . S
H1159 C1173 0.929 . S
H1160 C1174 0.931 . S
H1161 C1176 0.930 . S
C1162 H1150 0.930 . S
C1162 C1163 1.399 . S
C1162 C1167 1.399 . S
C1163 C1162 1.399 . S
C1163 C1164 1.376 . S
C1164 H1151 0.930 . S
C1164 C1163 1.376 . S
C1164 C1165 1.388 . S
C1165 H1152 0.930 . S
C1165 C1164 1.388 . S
C1165 C1166 1.390 . S
C1166 C1165 1.390 . S
C1166 C1167 1.394 . S
C1166 C1172 1.465 . S
C1167 C1162 1.399 . S
C1167 C1166 1.394 . S
C1167 C1168 1.516 . S
C1168 C1167 1.516 . S
C1168 C1169 1.502 . S
C1168 C1170 1.561 . S
C1168 C1171 1.526 . S
C1169 H1153 0.959 . S
C1169 H1154 0.959 . S
C1169 H1155 0.961 . S
C1169 C1168 1.502 . S
C1170 H1156 0.960 . S
C1170 H1157 0.961 . S
C1170 H1158 0.959 . S
C1170 C1168 1.561 . S
C1171 C1168 1.526 . S
C1171 C1172 1.396 . S
C1171 C1176 1.390 . S
C1172 C1166 1.465 . S
C1172 C1171 1.396 . S
C1172 C1173 1.399 . S
C1173 H1159 0.929 . S
C1173 C1172 1.399 . S
C1173 C1174 1.385 . S
C1174 H1160 0.931 . S
C1174 C1173 1.385 . S
C1174 C1175 1.389 . S
C1175 C1174 1.389 . S
C1175 C1176 1.387 . S
C1176 H1161 0.930 . S
C1176 C1171 1.390 . S
C1176 C1175 1.387 . S
H1177 C1189 0.930 . S
H1178 C1191 0.930 . S
H1179 C1192 0.930 . S
H1180 C1196 0.959 . S
H1181 C1196 0.959 . S
H1182 C1196 0.961 . S
H1183 C1197 0.960 . S
H1184 C1197 0.961 . S
H1185 C1197 0.959 . S
H1186 C1200 0.929 . S
H1187 C1201 0.931 . S
H1188 C1203 0.930 . S
C1189 H1177 0.930 . S
C1189 C1190 1.399 . S
C1189 C1194 1.399 . S
C1190 C1189 1.399 . S
C1190 C1191 1.376 . S
C1191 H1178 0.930 . S
C1191 C1190 1.376 . S
C1191 C1192 1.388 . S
C1192 H1179 0.930 . S
C1192 C1191 1.388 . S
C1192 C1193 1.390 . S
C1193 C1192 1.390 . S
C1193 C1194 1.394 . S
C1193 C1199 1.465 . S
C1194 C1189 1.399 . S
C1194 C1193 1.394 . S
C1194 C1195 1.516 . S
C1195 C1194 1.516 . S
C1195 C1196 1.502 . S
C1195 C1197 1.561 . S
C1195 C1198 1.526 . S
C1196 H1180 0.959 . S
C1196 H1181 0.959 . S
C1196 H1182 0.961 . S
C1196 C1195 1.502 . S
C1197 H1183 0.960 . S
C1197 H1184 0.961 . S
C1197 H1185 0.959 . S
C1197 C1195 1.561 . S
C1198 C1195 1.526 . S
C1198 C1199 1.396 . S
C1198 C1203 1.390 . S
C1199 C1193 1.465 . S
C1199 C1198 1.396 . S
C1199 C1200 1.399 . S
C1200 H1186 0.929 . S
C1200 C1199 1.399 . S
C1200 C1201 1.385 . S
C1201 H1187 0.931 . S
C1201 C1200 1.385 . S
C1201 C1202 1.389 . S
C1202 C1201 1.389 . S
C1202 C1203 1.387 . S
C1203 H1188 0.930 . S
C1203 C1198 1.390 . S
C1203 C1202 1.387 . S
H1204 C1216 0.930 . S
H1205 C1218 0.930 . S
H1206 C1219 0.930 . S
H1207 C1223 0.959 . S
H1208 C1223 0.959 . S
H1209 C1223 0.961 . S
H1210 C1224 0.960 . S
H1211 C1224 0.961 . S
H1212 C1224 0.959 . S
H1213 C1227 0.929 . S
H1214 C1228 0.931 . S
H1215 C1230 0.930 . S
C1216 H1204 0.930 . S
C1216 C1217 1.399 . S
C1216 C1221 1.399 . S
C1217 C1216 1.399 . S
C1217 C1218 1.376 . S
C1218 H1205 0.930 . S
C1218 C1217 1.376 . S
C1218 C1219 1.388 . S
C1219 H1206 0.930 . S
C1219 C1218 1.388 . S
C1219 C1220 1.390 . S
C1220 C1219 1.390 . S
C1220 C1221 1.394 . S
C1220 C1226 1.465 . S
C1221 C1216 1.399 . S
C1221 C1220 1.394 . S
C1221 C1222 1.516 . S
C1222 C1221 1.516 . S
C1222 C1223 1.502 . S
C1222 C1224 1.561 . S
C1222 C1225 1.526 . S
C1223 H1207 0.959 . S
C1223 H1208 0.959 . S
C1223 H1209 0.961 . S
C1223 C1222 1.502 . S
C1224 H1210 0.960 . S
C1224 H1211 0.961 . S
C1224 H1212 0.959 . S
C1224 C1222 1.561 . S
C1225 C1222 1.526 . S
C1225 C1226 1.396 . S
C1225 C1230 1.390 . S
C1226 C1220 1.465 . S
C1226 C1225 1.396 . S
C1226 C1227 1.399 . S
C1227 H1213 0.929 . S
C1227 C1226 1.399 . S
C1227 C1228 1.385 . S
C1228 H1214 0.931 . S
C1228 C1227 1.385 . S
C1228 C1229 1.389 . S
C1229 C1228 1.389 . S
C1229 C1230 1.387 . S
C1230 H1215 0.930 . S
C1230 C1225 1.390 . S
C1230 C1229 1.387 . S
H1231 C1243 0.930 . S
H1232 C1245 0.930 . S
H1233 C1246 0.930 . S
H1234 C1250 0.959 . S
H1235 C1250 0.959 . S
H1236 C1250 0.961 . S
H1237 C1251 0.960 . S
H1238 C1251 0.961 . S
H1239 C1251 0.959 . S
H1240 C1254 0.929 . S
H1241 C1255 0.931 . S
H1242 C1257 0.930 . S
C1243 H1231 0.930 . S
C1243 C1244 1.399 . S
C1243 C1248 1.399 . S
C1244 C1243 1.399 . S
C1244 C1245 1.376 . S
C1245 H1232 0.930 . S
C1245 C1244 1.376 . S
C1245 C1246 1.388 . S
C1246 H1233 0.930 . S
C1246 C1245 1.388 . S
C1246 C1247 1.390 . S
C1247 C1246 1.390 . S
C1247 C1248 1.394 . S
C1247 C1253 1.465 . S
C1248 C1243 1.399 . S
C1248 C1247 1.394 . S
C1248 C1249 1.516 . S
C1249 C1248 1.516 . S
C1249 C1250 1.502 . S
C1249 C1251 1.561 . S
C1249 C1252 1.526 . S
C1250 H1234 0.959 . S
C1250 H1235 0.959 . S
C1250 H1236 0.961 . S
C1250 C1249 1.502 . S
C1251 H1237 0.960 . S
C1251 H1238 0.961 . S
C1251 H1239 0.959 . S
C1251 C1249 1.561 . S
C1252 C1249 1.526 . S
C1252 C1253 1.396 . S
C1252 C1257 1.390 . S
C1253 C1247 1.465 . S
C1253 C1252 1.396 . S
C1253 C1254 1.399 . S
C1254 H1240 0.929 . S
C1254 C1253 1.399 . S
C1254 C1255 1.385 . S
C1255 H1241 0.931 . S
C1255 C1254 1.385 . S
C1255 C1256 1.389 . S
C1256 C1255 1.389 . S
C1256 C1257 1.387 . S
C1257 H1242 0.930 . S
C1257 C1252 1.390 . S
C1257 C1256 1.387 . S
H1258 C1270 0.930 . S
H1259 C1272 0.930 . S
H1260 C1273 0.930 . S
H1261 C1277 0.959 . S
H1262 C1277 0.959 . S
H1263 C1277 0.961 . S
H1264 C1278 0.960 . S
H1265 C1278 0.961 . S
H1266 C1278 0.959 . S
H1267 C1281 0.929 . S
H1268 C1282 0.931 . S
H1269 C1284 0.930 . S
C1270 H1258 0.930 . S
C1270 C1271 1.399 . S
C1270 C1275 1.399 . S
C1271 C1270 1.399 . S
C1271 C1272 1.376 . S
C1272 H1259 0.930 . S
C1272 C1271 1.376 . S
C1272 C1273 1.388 . S
C1273 H1260 0.930 . S
C1273 C1272 1.388 . S
C1273 C1274 1.390 . S
C1274 C1273 1.390 . S
C1274 C1275 1.394 . S
C1274 C1280 1.465 . S
C1275 C1270 1.399 . S
C1275 C1274 1.394 . S
C1275 C1276 1.516 . S
C1276 C1275 1.516 . S
C1276 C1277 1.502 . S
C1276 C1278 1.561 . S
C1276 C1279 1.526 . S
C1277 H1261 0.959 . S
C1277 H1262 0.959 . S
C1277 H1263 0.961 . S
C1277 C1276 1.502 . S
C1278 H1264 0.960 . S
C1278 H1265 0.961 . S
C1278 H1266 0.959 . S
C1278 C1276 1.561 . S
C1279 C1276 1.526 . S
C1279 C1280 1.396 . S
C1279 C1284 1.390 . S
C1280 C1274 1.465 . S
C1280 C1279 1.396 . S
C1280 C1281 1.399 . S
C1281 H1267 0.929 . S
C1281 C1280 1.399 . S
C1281 C1282 1.385 . S
C1282 H1268 0.931 . S
C1282 C1281 1.385 . S
C1282 C1283 1.389 . S
C1283 C1282 1.389 . S
C1283 C1284 1.387 . S
C1284 H1269 0.930 . S
C1284 C1279 1.390 . S
C1284 C1283 1.387 . S
H1285 C1297 0.930 . S
H1286 C1299 0.930 . S
H1287 C1300 0.930 . S
H1288 C1304 0.959 . S
H1289 C1304 0.959 . S
H1290 C1304 0.961 . S
H1291 C1305 0.960 . S
H1292 C1305 0.961 . S
H1293 C1305 0.959 . S
H1294 C1308 0.929 . S
H1295 C1309 0.931 . S
H1296 C1311 0.930 . S
C1297 H1285 0.930 . S
C1297 C1298 1.399 . S
C1297 C1302 1.399 . S
C1298 C1297 1.399 . S
C1298 C1299 1.376 . S
C1299 H1286 0.930 . S
C1299 C1298 1.376 . S
C1299 C1300 1.388 . S
C1300 H1287 0.930 . S
C1300 C1299 1.388 . S
C1300 C1301 1.390 . S
C1301 C1300 1.390 . S
C1301 C1302 1.394 . S
C1301 C1307 1.465 . S
C1302 C1297 1.399 . S
C1302 C1301 1.394 . S
C1302 C1303 1.516 . S
C1303 C1302 1.516 . S
C1303 C1304 1.502 . S
C1303 C1305 1.561 . S
C1303 C1306 1.526 . S
C1304 H1288 0.959 . S
C1304 H1289 0.959 . S
C1304 H1290 0.961 . S
C1304 C1303 1.502 . S
C1305 H1291 0.960 . S
C1305 H1292 0.961 . S
C1305 H1293 0.959 . S
C1305 C1303 1.561 . S
C1306 C1303 1.526 . S
C1306 C1307 1.396 . S
C1306 C1311 1.390 . S
C1307 C1301 1.465 . S
C1307 C1306 1.396 . S
C1307 C1308 1.399 . S
C1308 H1294 0.929 . S
C1308 C1307 1.399 . S
C1308 C1309 1.385 . S
C1309 H1295 0.931 . S
C1309 C1308 1.385 . S
C1309 C1310 1.389 . S
C1310 C1309 1.389 . S
C1310 C1311 1.387 . S
C1311 H1296 0.930 . S
C1311 C1306 1.390 . S
C1311 C1310 1.387 . S
H1312 C1324 0.930 . S
H1313 C1326 0.930 . S
H1314 C1327 0.930 . S
H1315 C1331 0.959 . S
H1316 C1331 0.959 . S
H1317 C1331 0.961 . S
H1318 C1332 0.960 . S
H1319 C1332 0.961 . S
H1320 C1332 0.959 . S
H1321 C1335 0.929 . S
H1322 C1336 0.931 . S
H1323 C1338 0.930 . S
C1324 H1312 0.930 . S
C1324 C1325 1.399 . S
C1324 C1329 1.399 . S
C1325 C1324 1.399 . S
C1325 C1326 1.376 . S
C1326 H1313 0.930 . S
C1326 C1325 1.376 . S
C1326 C1327 1.388 . S
C1327 H1314 0.930 . S
C1327 C1326 1.388 . S
C1327 C1328 1.390 . S
C1328 C1327 1.390 . S
C1328 C1329 1.394 . S
C1328 C1334 1.465 . S
C1329 C1324 1.399 . S
C1329 C1328 1.394 . S
C1329 C1330 1.516 . S
C1330 C1329 1.516 . S
C1330 C1331 1.502 . S
C1330 C1332 1.561 . S
C1330 C1333 1.526 . S
C1331 H1315 0.959 . S
C1331 H1316 0.959 . S
C1331 H1317 0.961 . S
C1331 C1330 1.502 . S
C1332 H1318 0.960 . S
C1332 H1319 0.961 . S
C1332 H1320 0.959 . S
C1332 C1330 1.561 . S
C1333 C1330 1.526 . S
C1333 C1334 1.396 . S
C1333 C1338 1.390 . S
C1334 C1328 1.465 . S
C1334 C1333 1.396 . S
C1334 C1335 1.399 . S
C1335 H1321 0.929 . S
C1335 C1334 1.399 . S
C1335 C1336 1.385 . S
C1336 H1322 0.931 . S
C1336 C1335 1.385 . S
C1336 C1337 1.389 . S
C1337 C1336 1.389 . S
C1337 C1338 1.387 . S
C1338 H1323 0.930 . S
C1338 C1333 1.390 . S
C1338 C1337 1.387 . S
H1339 C1351 0.930 . S
H1340 C1353 0.930 . S
H1341 C1354 0.930 . S
H1342 C1358 0.959 . S
H1343 C1358 0.959 . S
H1344 C1358 0.961 . S
H1345 C1359 0.960 . S
H1346 C1359 0.961 . S
H1347 C1359 0.959 . S
H1348 C1362 0.929 . S
H1349 C1363 0.931 . S
H1350 C1365 0.930 1_565 S
C1351 H1339 0.930 . S
C1351 C1352 1.399 1_655 S
C1351 C1356 1.399 . S
C1352 C1351 1.399 1_455 S
C1352 C1353 1.376 1_565 S
C1353 H1340 0.930 . S
C1353 C1352 1.376 1_545 S
C1353 C1354 1.388 . S
C1354 H1341 0.930 . S
C1354 C1353 1.388 . S
C1354 C1355 1.390 . S
C1355 C1354 1.390 . S
C1355 C1356 1.394 1_445 S
C1355 C1361 1.465 . S
C1356 C1351 1.399 . S
C1356 C1355 1.394 1_665 S
C1356 C1357 1.516 . S
C1357 C1356 1.516 . S
C1357 C1358 1.502 . S
C1357 C1359 1.561 1_565 S
C1357 C1360 1.521 1_565 S
C1358 H1342 0.959 . S
C1358 H1343 0.959 . S
C1358 H1344 0.961 . S
C1358 C1357 1.502 . S
C1359 H1345 0.960 . S
C1359 H1346 0.961 . S
C1359 H1347 0.959 . S
C1359 C1357 1.561 1_545 S
C1360 C1357 1.521 1_545 S
C1360 C1361 1.401 1_655 S
C1360 C1365 1.390 . S
C1361 C1355 1.465 . S
C1361 C1360 1.401 1_455 S
C1361 C1362 1.399 . S
C1362 H1348 0.929 . S
C1362 C1361 1.399 . S
C1362 C1363 1.385 . S
C1363 H1349 0.931 . S
C1363 C1362 1.385 . S
C1363 C1364 1.389 1_455 S
C1364 C1363 1.389 1_655 S
C1364 C1365 1.387 . S
C1365 H1350 0.930 1_545 S
C1365 C1360 1.390 . S
C1365 C1364 1.387 . S
H1366 C1378 0.930 . S
H1367 C1380 0.930 . S
H1368 C1381 0.930 . S
H1369 C1385 0.959 . S
H1370 C1385 0.959 . S
H1371 C1385 0.961 . S
H1372 C1386 0.960 . S
H1373 C1386 0.961 . S
H1374 C1386 0.959 . S
H1375 C1389 0.929 . S
H1376 C1390 0.931 . S
H1377 C1392 0.930 . S
C1378 H1366 0.930 . S
C1378 C1379 1.399 . S
C1378 C1383 1.399 . S
C1379 C1378 1.399 . S
C1379 C1380 1.376 . S
C1380 H1367 0.930 . S
C1380 C1379 1.376 . S
C1380 C1381 1.388 . S
C1381 H1368 0.930 . S
C1381 C1380 1.388 . S
C1381 C1382 1.390 . S
C1382 C1381 1.390 . S
C1382 C1383 1.394 . S
C1382 C1388 1.465 . S
C1383 C1378 1.399 . S
C1383 C1382 1.394 . S
C1383 C1384 1.516 . S
C1384 C1383 1.516 . S
C1384 C1385 1.502 . S
C1384 C1386 1.561 . S
C1384 C1387 1.526 . S
C1385 H1369 0.959 . S
C1385 H1370 0.959 . S
C1385 H1371 0.961 . S
C1385 C1384 1.502 . S
C1386 H1372 0.960 . S
C1386 H1373 0.961 . S
C1386 H1374 0.959 . S
C1386 C1384 1.561 . S
C1387 C1384 1.526 . S
C1387 C1388 1.396 . S
C1387 C1392 1.390 . S
C1388 C1382 1.465 . S
C1388 C1387 1.396 . S
C1388 C1389 1.399 . S
C1389 H1375 0.929 . S
C1389 C1388 1.399 . S
C1389 C1390 1.385 . S
C1390 H1376 0.931 . S
C1390 C1389 1.385 . S
C1390 C1391 1.389 . S
C1391 C1390 1.389 . S
C1391 C1392 1.387 . S
C1392 H1377 0.930 . S
C1392 C1387 1.390 . S
C1392 C1391 1.387 . S
H1393 C1405 0.930 . S
H1394 C1407 0.930 . S
H1395 C1408 0.930 . S
H1396 C1412 0.959 . S
H1397 C1412 0.959 1_556 S
H1398 C1412 0.961 . S
H1399 C1413 0.960 1_554 S
H1400 C1413 0.961 . S
H1401 C1413 0.959 1_545 S
H1402 C1416 0.929 . S
H1403 C1417 0.931 . S
H1404 C1419 0.930 . S
C1405 H1393 0.930 . S
C1405 C1406 1.399 1_565 S
C1405 C1410 1.399 . S
C1406 C1405 1.399 1_545 S
C1406 C1407 1.376 . S
C1407 H1394 0.930 . S
C1407 C1406 1.376 . S
C1407 C1408 1.388 . S
C1408 H1395 0.930 . S
C1408 C1407 1.388 . S
C1408 C1409 1.390 . S
C1409 C1408 1.390 . S
C1409 C1410 1.394 1_545 S
C1409 C1415 1.465 1_554 S
C1410 C1405 1.399 . S
C1410 C1409 1.394 1_565 S
C1410 C1411 1.516 1_554 S
C1411 C1410 1.516 1_556 S
C1411 C1412 1.502 1_556 S
C1411 C1413 1.561 . S
C1411 C1414 1.526 . S
C1412 H1396 0.959 . S
C1412 H1397 0.959 1_554 S
C1412 H1398 0.961 . S
C1412 C1411 1.502 1_554 S
C1413 H1399 0.960 1_556 S
C1413 H1400 0.961 . S
C1413 H1401 0.959 1_565 S
C1413 C1411 1.561 . S
C1414 C1411 1.526 . S
C1414 C1415 1.396 1_565 S
C1414 C1419 1.390 . S
C1415 C1409 1.465 1_556 S
C1415 C1414 1.396 1_545 S
C1415 C1416 1.399 . S
C1416 H1402 0.929 . S
C1416 C1415 1.399 . S
C1416 C1417 1.385 . S
C1417 H1403 0.931 . S
C1417 C1416 1.385 . S
C1417 C1418 1.389 1_545 S
C1418 C1417 1.389 1_565 S
C1418 C1419 1.387 . S
C1419 H1404 0.930 . S
C1419 C1414 1.390 . S
C1419 C1418 1.387 . S
H1420 C1432 0.930 . S
H1421 C1434 0.930 . S
H1422 C1435 0.930 . S
H1423 C1439 0.959 . S
H1424 C1439 0.959 . S
H1425 C1439 0.961 . S
H1426 C1440 0.960 . S
H1427 C1440 0.961 . S
H1428 C1440 0.959 . S
H1429 C1443 0.929 . S
H1430 C1444 0.931 . S
H1431 C1446 0.930 . S
C1432 H1420 0.930 . S
C1432 C1433 1.399 . S
C1432 C1437 1.399 . S
C1433 C1432 1.399 . S
C1433 C1434 1.376 . S
C1434 H1421 0.930 . S
C1434 C1433 1.376 . S
C1434 C1435 1.388 . S
C1435 H1422 0.930 . S
C1435 C1434 1.388 . S
C1435 C1436 1.390 . S
C1436 C1435 1.390 . S
C1436 C1437 1.394 . S
C1436 C1442 1.465 . S
C1437 C1432 1.399 . S
C1437 C1436 1.394 . S
C1437 C1438 1.516 . S
C1438 C1437 1.516 . S
C1438 C1439 1.502 . S
C1438 C1440 1.561 . S
C1438 C1441 1.526 . S
C1439 H1423 0.959 . S
C1439 H1424 0.959 . S
C1439 H1425 0.961 . S
C1439 C1438 1.502 . S
C1440 H1426 0.960 . S
C1440 H1427 0.961 . S
C1440 H1428 0.959 . S
C1440 C1438 1.561 . S
C1441 C1438 1.526 . S
C1441 C1442 1.396 . S
C1441 C1446 1.390 . S
C1442 C1436 1.465 . S
C1442 C1441 1.396 . S
C1442 C1443 1.399 . S
C1443 H1429 0.929 . S
C1443 C1442 1.399 . S
C1443 C1444 1.385 . S
C1444 H1430 0.931 . S
C1444 C1443 1.385 . S
C1444 C1445 1.389 . S
C1445 C1444 1.389 . S
C1445 C1446 1.387 . S
C1446 H1431 0.930 . S
C1446 C1441 1.390 . S
C1446 C1445 1.387 . S
H1447 C1459 0.930 . S
H1448 C1461 0.930 . S
H1449 C1462 0.930 . S
H1450 C1466 0.959 . S
H1451 C1466 0.959 . S
H1452 C1466 0.961 . S
H1453 C1467 0.960 . S
H1454 C1467 0.961 . S
H1455 C1467 0.959 . S
H1456 C1470 0.929 . S
H1457 C1471 0.931 . S
H1458 C1473 0.930 . S
C1459 H1447 0.930 . S
C1459 C1460 1.399 . S
C1459 C1464 1.399 . S
C1460 C1459 1.399 . S
C1460 C1461 1.376 1_565 S
C1461 H1448 0.930 . S
C1461 C1460 1.376 1_545 S
C1461 C1462 1.388 . S
C1462 H1449 0.930 . S
C1462 C1461 1.388 . S
C1462 C1463 1.390 . S
C1463 C1462 1.390 . S
C1463 C1464 1.394 1_545 S
C1463 C1469 1.465 . S
C1464 C1459 1.399 . S
C1464 C1463 1.394 1_565 S
C1464 C1465 1.516 . S
C1465 C1464 1.516 . S
C1465 C1466 1.502 . S
C1465 C1467 1.561 . S
C1465 C1468 1.526 . S
C1466 H1450 0.959 . S
C1466 H1451 0.959 . S
C1466 H1452 0.961 . S
C1466 C1465 1.502 . S
C1467 H1453 0.960 . S
C1467 H1454 0.961 . S
C1467 H1455 0.959 . S
C1467 C1465 1.561 . S
C1468 C1465 1.526 . S
C1468 C1469 1.396 1_565 S
C1468 C1473 1.390 . S
C1469 C1463 1.465 . S
C1469 C1468 1.396 1_545 S
C1469 C1470 1.399 . S
C1470 H1456 0.929 . S
C1470 C1469 1.399 . S
C1470 C1471 1.385 . S
C1471 H1457 0.931 . S
C1471 C1470 1.385 . S
C1471 C1472 1.389 . S
C1472 C1471 1.389 . S
C1472 C1473 1.387 1_545 S
C1473 H1458 0.930 . S
C1473 C1468 1.390 . S
C1473 C1472 1.387 1_565 S
H1474 C1486 0.930 . S
H1475 C1488 0.930 . S
H1476 C1489 0.930 . S
H1477 C1493 0.959 . S
H1478 C1493 0.959 . S
H1479 C1493 0.961 . S
H1480 C1494 0.960 . S
H1481 C1494 0.961 . S
H1482 C1494 0.959 . S
H1483 C1497 0.929 . S
H1484 C1498 0.931 . S
H1485 C1500 0.930 . S
C1486 H1474 0.930 . S
C1486 C1487 1.399 . S
C1486 C1491 1.399 . S
C1487 C1486 1.399 . S
C1487 C1488 1.376 . S
C1488 H1475 0.930 . S
C1488 C1487 1.376 . S
C1488 C1489 1.388 . S
C1489 H1476 0.930 . S
C1489 C1488 1.388 . S
C1489 C1490 1.390 . S
C1490 C1489 1.390 . S
C1490 C1491 1.394 . S
C1490 C1496 1.465 . S
C1491 C1486 1.399 . S
C1491 C1490 1.394 . S
C1491 C1492 1.516 . S
C1492 C1491 1.516 . S
C1492 C1493 1.502 . S
C1492 C1494 1.561 . S
C1492 C1495 1.526 . S
C1493 H1477 0.959 . S
C1493 H1478 0.959 . S
C1493 H1479 0.961 . S
C1493 C1492 1.502 . S
C1494 H1480 0.960 . S
C1494 H1481 0.961 . S
C1494 H1482 0.959 . S
C1494 C1492 1.561 . S
C1495 C1492 1.526 . S
C1495 C1496 1.396 . S
C1495 C1500 1.390 . S
C1496 C1490 1.465 . S
C1496 C1495 1.396 . S
C1496 C1497 1.399 . S
C1497 H1483 0.929 . S
C1497 C1496 1.399 . S
C1497 C1498 1.385 . S
C1498 H1484 0.931 . S
C1498 C1497 1.385 . S
C1498 C1499 1.389 . S
C1499 C1498 1.389 . S
C1499 C1500 1.387 . S
C1500 H1485 0.930 . S
C1500 C1495 1.390 . S
C1500 C1499 1.387 . S
H1501 C1513 0.930 . S
H1502 C1515 0.928 1_655 S
H1503 C1516 0.930 . S
H1504 C1520 0.959 . S
H1505 C1520 0.959 . S
H1506 C1520 0.994 . S
H1507 C1521 0.960 1_556 S
H1508 C1521 0.961 . S
H1509 C1521 0.959 . S
H1510 C1524 0.929 . S
H1511 C1525 0.931 . S
H1512 C1527 0.930 . S
C1513 H1501 0.930 . S
C1513 C1514 1.399 . S
C1513 C1518 1.399 . S
C1514 C1513 1.399 . S
C1514 C1515 1.376 1_545 S
C1515 H1502 0.928 1_455 S
C1515 C1514 1.376 1_565 S
C1515 C1516 1.388 1_455 S
C1516 H1503 0.930 . S
C1516 C1515 1.388 1_655 S
C1516 C1517 1.390 . S
C1517 C1516 1.390 . S
C1517 C1518 1.394 1_665 S
C1517 C1523 1.465 1_556 S
C1518 C1513 1.399 . S
C1518 C1517 1.394 1_445 S
C1518 C1519 1.516 1_556 S
C1519 C1518 1.516 1_554 S
C1519 C1520 1.502 . S
C1519 C1521 1.561 1_455 S
C1519 C1522 1.526 1_455 S
C1520 H1504 0.959 . S
C1520 H1505 0.959 . S
C1520 H1506 0.994 . S
C1520 C1519 1.502 . S
C1521 H1507 0.960 1_554 S
C1521 H1508 0.961 . S
C1521 H1509 0.959 . S
C1521 C1519 1.561 1_655 S
C1522 C1519 1.526 1_655 S
C1522 C1523 1.396 1_545 S
C1522 C1527 1.390 . S
C1523 C1517 1.465 1_554 S
C1523 C1522 1.396 1_565 S
C1523 C1524 1.399 . S
C1524 H1510 0.929 . S
C1524 C1523 1.399 . S
C1524 C1525 1.385 . S
C1525 H1511 0.931 . S
C1525 C1524 1.385 . S
C1525 C1526 1.389 . S
C1526 C1525 1.389 . S
C1526 C1527 1.387 1_565 S
C1527 H1512 0.930 . S
C1527 C1522 1.390 . S
C1527 C1526 1.387 1_545 S
H1528 C1540 0.930 . S
H1529 C1542 0.930 . S
H1530 C1543 0.930 . S
H1531 C1547 0.959 . S
H1532 C1547 0.959 . S
H1533 C1547 0.961 . S
H1534 C1548 0.960 . S
H1535 C1548 0.961 . S
H1536 C1548 0.959 . S
H1537 C1551 0.929 . S
H1538 C1552 0.931 . S
H1539 C1554 0.930 . S
C1540 H1528 0.930 . S
C1540 C1541 1.399 . S
C1540 C1545 1.399 . S
C1541 C1540 1.399 . S
C1541 C1542 1.376 . S
C1542 H1529 0.930 . S
C1542 C1541 1.376 . S
C1542 C1543 1.388 . S
C1543 H1530 0.930 . S
C1543 C1542 1.388 . S
C1543 C1544 1.390 . S
C1544 C1543 1.390 . S
C1544 C1545 1.394 . S
C1544 C1550 1.465 . S
C1545 C1540 1.399 . S
C1545 C1544 1.394 . S
C1545 C1546 1.516 . S
C1546 C1545 1.516 . S
C1546 C1547 1.502 . S
C1546 C1548 1.561 . S
C1546 C1549 1.526 . S
C1547 H1531 0.959 . S
C1547 H1532 0.959 . S
C1547 H1533 0.961 . S
C1547 C1546 1.502 . S
C1548 H1534 0.960 . S
C1548 H1535 0.961 . S
C1548 H1536 0.959 . S
C1548 C1546 1.561 . S
C1549 C1546 1.526 . S
C1549 C1550 1.396 . S
C1549 C1554 1.390 . S
C1550 C1544 1.465 . S
C1550 C1549 1.396 . S
C1550 C1551 1.399 . S
C1551 H1537 0.929 . S
C1551 C1550 1.399 . S
C1551 C1552 1.385 . S
C1552 H1538 0.931 . S
C1552 C1551 1.385 . S
C1552 C1553 1.389 . S
C1553 C1552 1.389 . S
C1553 C1554 1.387 . S
C1554 H1539 0.930 . S
C1554 C1549 1.390 . S
C1554 C1553 1.387 . S
H1555 C1567 0.930 . S
H1556 C1569 0.930 . S
H1557 C1570 0.930 . S
H1558 C1574 0.959 . S
H1559 C1574 0.959 . S
H1560 C1574 0.961 . S
H1561 C1575 0.960 . S
H1562 C1575 0.961 . S
H1563 C1575 0.959 . S
H1564 C1578 0.929 . S
H1565 C1579 0.931 . S
H1566 C1581 0.930 . S
C1567 H1555 0.930 . S
C1567 C1568 1.399 . S
C1567 C1572 1.399 . S
C1568 C1567 1.399 . S
C1568 C1569 1.376 . S
C1569 H1556 0.930 . S
C1569 C1568 1.376 . S
C1569 C1570 1.388 . S
C1570 H1557 0.930 . S
C1570 C1569 1.388 . S
C1570 C1571 1.390 . S
C1571 C1570 1.390 . S
C1571 C1572 1.394 . S
C1571 C1577 1.465 . S
C1572 C1567 1.399 . S
C1572 C1571 1.394 . S
C1572 C1573 1.516 . S
C1573 C1572 1.516 . S
C1573 C1574 1.502 . S
C1573 C1575 1.561 . S
C1573 C1576 1.526 . S
C1574 H1558 0.959 . S
C1574 H1559 0.959 . S
C1574 H1560 0.961 . S
C1574 C1573 1.502 . S
C1575 H1561 0.960 . S
C1575 H1562 0.961 . S
C1575 H1563 0.959 . S
C1575 C1573 1.561 . S
C1576 C1573 1.526 . S
C1576 C1577 1.396 . S
C1576 C1581 1.390 . S
C1577 C1571 1.465 . S
C1577 C1576 1.396 . S
C1577 C1578 1.399 . S
C1578 H1564 0.929 . S
C1578 C1577 1.399 . S
C1578 C1579 1.385 . S
C1579 H1565 0.931 . S
C1579 C1578 1.385 . S
C1579 C1580 1.389 . S
C1580 C1579 1.389 . S
C1580 C1581 1.387 . S
C1581 H1566 0.930 . S
C1581 C1576 1.390 . S
C1581 C1580 1.387 . S
H1582 C1594 0.930 . S
H1583 C1596 0.930 . S
H1584 C1597 0.930 . S
H1585 C1601 0.959 . S
H1586 C1601 0.959 . S
H1587 C1601 0.961 . S
H1588 C1602 0.960 . S
H1589 C1602 0.961 . S
H1590 C1602 0.959 . S
H1591 C1605 0.929 . S
H1592 C1606 0.931 . S
H1593 C1608 0.930 . S
C1594 H1582 0.930 . S
C1594 C1595 1.399 . S
C1594 C1599 1.399 . S
C1595 C1594 1.399 . S
C1595 C1596 1.376 . S
C1596 H1583 0.930 . S
C1596 C1595 1.376 . S
C1596 C1597 1.388 . S
C1597 H1584 0.930 . S
C1597 C1596 1.388 . S
C1597 C1598 1.390 . S
C1598 C1597 1.390 . S
C1598 C1599 1.394 . S
C1598 C1604 1.465 . S
C1599 C1594 1.399 . S
C1599 C1598 1.394 . S
C1599 C1600 1.516 . S
C1600 C1599 1.516 . S
C1600 C1601 1.502 . S
C1600 C1602 1.561 . S
C1600 C1603 1.526 . S
C1601 H1585 0.959 . S
C1601 H1586 0.959 . S
C1601 H1587 0.961 . S
C1601 C1600 1.502 . S
C1602 H1588 0.960 . S
C1602 H1589 0.961 . S
C1602 H1590 0.959 . S
C1602 C1600 1.561 . S
C1603 C1600 1.526 . S
C1603 C1604 1.396 . S
C1603 C1608 1.390 . S
C1604 C1598 1.465 . S
C1604 C1603 1.396 . S
C1604 C1605 1.399 . S
C1605 H1591 0.929 . S
C1605 C1604 1.399 . S
C1605 C1606 1.385 . S
C1606 H1592 0.931 . S
C1606 C1605 1.385 . S
C1606 C1607 1.389 . S
C1607 C1606 1.389 . S
C1607 C1608 1.387 . S
C1608 H1593 0.930 . S
C1608 C1603 1.390 . S
C1608 C1607 1.387 . S
H1609 C1621 0.930 . S
H1610 C1623 0.930 . S
H1611 C1624 0.930 . S
H1612 C1628 0.959 . S
H1613 C1628 0.959 . S
H1614 C1628 0.961 . S
H1615 C1629 0.960 . S
H1616 C1629 0.961 . S
H1617 C1629 0.959 . S
H1618 C1632 0.929 . S
H1619 C1633 0.931 . S
H1620 C1635 0.930 . S
C1621 H1609 0.930 . S
C1621 C1622 1.399 . S
C1621 C1626 1.399 . S
C1622 C1621 1.399 . S
C1622 C1623 1.376 . S
C1623 H1610 0.930 . S
C1623 C1622 1.376 . S
C1623 C1624 1.388 . S
C1624 H1611 0.930 . S
C1624 C1623 1.388 . S
C1624 C1625 1.390 . S
C1625 C1624 1.390 . S
C1625 C1626 1.394 . S
C1625 C1631 1.465 . S
C1626 C1621 1.399 . S
C1626 C1625 1.394 . S
C1626 C1627 1.516 . S
C1627 C1626 1.516 . S
C1627 C1628 1.502 . S
C1627 C1629 1.561 . S
C1627 C1630 1.526 . S
C1628 H1612 0.959 . S
C1628 H1613 0.959 . S
C1628 H1614 0.961 . S
C1628 C1627 1.502 . S
C1629 H1615 0.960 . S
C1629 H1616 0.961 . S
C1629 H1617 0.959 . S
C1629 C1627 1.561 . S
C1630 C1627 1.526 . S
C1630 C1631 1.396 . S
C1630 C1635 1.390 . S
C1631 C1625 1.465 . S
C1631 C1630 1.396 . S
C1631 C1632 1.399 . S
C1632 H1618 0.929 . S
C1632 C1631 1.399 . S
C1632 C1633 1.385 . S
C1633 H1619 0.931 . S
C1633 C1632 1.385 . S
C1633 C1634 1.389 . S
C1634 C1633 1.389 . S
C1634 C1635 1.387 . S
C1635 H1620 0.930 . S
C1635 C1630 1.390 . S
C1635 C1634 1.387 . S
H1636 C1648 0.930 . S
H1637 C1650 0.930 . S
H1638 C1651 0.930 . S
H1639 C1655 0.959 . S
H1640 C1655 0.959 . S
H1641 C1655 0.975 . S
H1642 C1656 0.960 1_554 S
H1643 C1656 0.961 . S
H1644 C1656 0.963 . S
H1645 C1659 0.929 . S
H1646 C1660 0.931 . S
H1647 C1662 0.930 . S
C1648 H1636 0.930 . S
C1648 C1649 1.399 . S
C1648 C1653 1.399 . S
C1649 C1648 1.399 . S
C1649 C1650 1.376 . S
C1650 H1637 0.930 . S
C1650 C1649 1.376 . S
C1650 C1651 1.388 . S
C1651 H1638 0.930 . S
C1651 C1650 1.388 . S
C1651 C1652 1.390 . S
C1652 C1651 1.390 . S
C1652 C1653 1.394 . S
C1652 C1658 1.465 1_554 S
C1653 C1648 1.399 . S
C1653 C1652 1.394 . S
C1653 C1654 1.516 1_554 S
C1654 C1653 1.516 1_556 S
C1654 C1655 1.502 . S
C1654 C1656 1.561 . S
C1654 C1657 1.526 . S
C1655 H1639 0.959 . S
C1655 H1640 0.959 . S
C1655 H1641 0.975 . S
C1655 C1654 1.502 . S
C1656 H1642 0.960 1_556 S
C1656 H1643 0.961 . S
C1656 H1644 0.963 . S
C1656 C1654 1.561 . S
C1657 C1654 1.526 . S
C1657 C1658 1.396 . S
C1657 C1662 1.390 . S
C1658 C1652 1.465 1_556 S
C1658 C1657 1.396 . S
C1658 C1659 1.399 . S
C1659 H1645 0.929 . S
C1659 C1658 1.399 . S
C1659 C1660 1.385 . S
C1660 H1646 0.931 . S
C1660 C1659 1.385 . S
C1660 C1661 1.389 . S
C1661 C1660 1.389 . S
C1661 C1662 1.387 . S
C1662 H1647 0.930 . S
C1662 C1657 1.390 . S
C1662 C1661 1.387 . S
H1663 C1675 0.930 . S
H1664 C1677 0.930 1_655 S
H1665 C1678 0.930 . S
H1666 C1682 0.959 . S
H1667 C1682 0.959 . S
H1668 C1682 0.961 . S
H1669 C1683 0.960 . S
H1670 C1683 0.961 . S
H1671 C1683 0.959 . S
H1672 C1686 0.929 . S
H1673 C1687 0.931 . S
H1674 C1689 0.930 . S
C1675 H1663 0.930 . S
C1675 C1676 1.399 . S
C1675 C1680 1.399 . S
C1676 C1675 1.399 . S
C1676 C1677 1.376 . S
C1677 H1664 0.930 1_455 S
C1677 C1676 1.376 . S
C1677 C1678 1.388 1_455 S
C1678 H1665 0.930 . S
C1678 C1677 1.388 1_655 S
C1678 C1679 1.390 . S
C1679 C1678 1.390 . S
C1679 C1680 1.394 1_655 S
C1679 C1685 1.465 . S
C1680 C1675 1.399 . S
C1680 C1679 1.394 1_455 S
C1680 C1681 1.516 . S
C1681 C1680 1.516 . S
C1681 C1682 1.502 . S
C1681 C1683 1.561 1_455 S
C1681 C1684 1.526 1_455 S
C1682 H1666 0.959 . S
C1682 H1667 0.959 . S
C1682 H1668 0.961 . S
C1682 C1681 1.502 . S
C1683 H1669 0.960 . S
C1683 H1670 0.961 . S
C1683 H1671 0.959 . S
C1683 C1681 1.561 1_655 S
C1684 C1681 1.526 1_655 S
C1684 C1685 1.396 . S
C1684 C1689 1.390 . S
C1685 C1679 1.465 . S
C1685 C1684 1.396 . S
C1685 C1686 1.399 . S
C1686 H1672 0.929 . S
C1686 C1685 1.399 . S
C1686 C1687 1.385 . S
C1687 H1673 0.931 . S
C1687 C1686 1.385 . S
C1687 C1688 1.389 . S
C1688 C1687 1.389 . S
C1688 C1689 1.387 . S
C1689 H1674 0.930 . S
C1689 C1684 1.390 . S
C1689 C1688 1.387 . S
H1690 C1702 0.930 . S
H1691 C1704 0.930 . S
H1692 C1705 0.930 . S
H1693 C1709 0.959 1_655 S
H1694 C1709 0.959 . S
H1695 C1709 0.936 1_554 S
H1696 C1710 1.001 . S
H1697 C1710 0.961 . S
H1698 C1710 0.959 . S
H1699 C1713 0.929 . S
H1700 C1714 0.931 . S
H1701 C1716 0.933 . S
C1702 H1690 0.930 . S
C1702 C1703 1.399 . S
C1702 C1707 1.399 . S
C1703 C1702 1.399 . S
C1703 C1704 1.376 1_455 S
C1704 H1691 0.930 . S
C1704 C1703 1.376 1_655 S
C1704 C1705 1.388 . S
C1705 H1692 0.930 . S
C1705 C1704 1.388 . S
C1705 C1706 1.390 . S
C1706 C1705 1.390 . S
C1706 C1707 1.394 1_655 S
C1706 C1712 1.465 1_554 S
C1707 C1702 1.399 . S
C1707 C1706 1.394 1_455 S
C1707 C1708 1.516 1_554 S
C1708 C1707 1.516 1_556 S
C1708 C1709 1.502 . S
C1708 C1710 1.561 . S
C1708 C1711 1.526 . S
C1709 H1693 0.959 1_455 S
C1709 H1694 0.959 . S
C1709 H1695 0.936 1_556 S
C1709 C1708 1.502 . S
C1710 H1696 1.001 . S
C1710 H1697 0.961 . S
C1710 H1698 0.959 . S
C1710 C1708 1.561 . S
C1711 C1708 1.526 . S
C1711 C1712 1.396 1_455 S
C1711 C1716 1.390 . S
C1712 C1706 1.465 1_556 S
C1712 C1711 1.396 1_655 S
C1712 C1713 1.399 . S
C1713 H1699 0.929 . S
C1713 C1712 1.399 . S
C1713 C1714 1.385 . S
C1714 H1700 0.931 . S
C1714 C1713 1.385 . S
C1714 C1715 1.389 . S
C1715 C1714 1.389 . S
C1715 C1716 1.383 1_655 S
C1716 H1701 0.933 . S
C1716 C1711 1.390 . S
C1716 C1715 1.383 1_455 S
H1717 C1729 0.930 . S
H1718 C1731 0.930 . S
H1719 C1732 0.930 . S
H1720 C1736 0.959 . S
H1721 C1736 0.959 . S
H1722 C1736 0.961 . S
H1723 C1737 0.960 . S
H1724 C1737 0.961 . S
H1725 C1737 0.959 . S
H1726 C1740 0.929 . S
H1727 C1741 0.931 . S
H1728 C1743 0.930 . S
C1729 H1717 0.930 . S
C1729 C1730 1.399 . S
C1729 C1734 1.399 . S
C1730 C1729 1.399 . S
C1730 C1731 1.376 . S
C1731 H1718 0.930 . S
C1731 C1730 1.376 . S
C1731 C1732 1.388 . S
C1732 H1719 0.930 . S
C1732 C1731 1.388 . S
C1732 C1733 1.390 . S
C1733 C1732 1.390 . S
C1733 C1734 1.394 . S
C1733 C1739 1.465 . S
C1734 C1729 1.399 . S
C1734 C1733 1.394 . S
C1734 C1735 1.516 . S
C1735 C1734 1.516 . S
C1735 C1736 1.502 . S
C1735 C1737 1.561 . S
C1735 C1738 1.526 . S
C1736 H1720 0.959 . S
C1736 H1721 0.959 . S
C1736 H1722 0.961 . S
C1736 C1735 1.502 . S
C1737 H1723 0.960 . S
C1737 H1724 0.961 . S
C1737 H1725 0.959 . S
C1737 C1735 1.561 . S
C1738 C1735 1.526 . S
C1738 C1739 1.396 . S
C1738 C1743 1.390 . S
C1739 C1733 1.465 . S
C1739 C1738 1.396 . S
C1739 C1740 1.399 . S
C1740 H1726 0.929 . S
C1740 C1739 1.399 . S
C1740 C1741 1.385 . S
C1741 H1727 0.931 . S
C1741 C1740 1.385 . S
C1741 C1742 1.389 . S
C1742 C1741 1.389 . S
C1742 C1743 1.387 . S
C1743 H1728 0.930 . S
C1743 C1738 1.390 . S
C1743 C1742 1.387 . S
H1744 C1756 0.930 . S
H1745 C1758 0.930 . S
H1746 C1759 0.930 . S
H1747 C1763 0.959 . S
H1748 C1763 0.959 . S
H1749 C1763 0.961 . S
H1750 C1764 0.960 . S
H1751 C1764 0.961 . S
H1752 C1764 0.959 . S
H1753 C1767 0.929 . S
H1754 C1768 0.931 . S
H1755 C1770 0.930 . S
C1756 H1744 0.930 . S
C1756 C1757 1.399 . S
C1756 C1761 1.399 . S
C1757 C1756 1.399 . S
C1757 C1758 1.376 . S
C1758 H1745 0.930 . S
C1758 C1757 1.376 . S
C1758 C1759 1.388 . S
C1759 H1746 0.930 . S
C1759 C1758 1.388 . S
C1759 C1760 1.390 . S
C1760 C1759 1.390 . S
C1760 C1761 1.394 . S
C1760 C1766 1.465 . S
C1761 C1756 1.399 . S
C1761 C1760 1.394 . S
C1761 C1762 1.516 . S
C1762 C1761 1.516 . S
C1762 C1763 1.502 . S
C1762 C1764 1.561 . S
C1762 C1765 1.526 . S
C1763 H1747 0.959 . S
C1763 H1748 0.959 . S
C1763 H1749 0.961 . S
C1763 C1762 1.502 . S
C1764 H1750 0.960 . S
C1764 H1751 0.961 . S
C1764 H1752 0.959 . S
C1764 C1762 1.561 . S
C1765 C1762 1.526 . S
C1765 C1766 1.396 . S
C1765 C1770 1.390 . S
C1766 C1760 1.465 . S
C1766 C1765 1.396 . S
C1766 C1767 1.399 . S
C1767 H1753 0.929 . S
C1767 C1766 1.399 . S
C1767 C1768 1.385 . S
C1768 H1754 0.931 . S
C1768 C1767 1.385 . S
C1768 C1769 1.389 . S
C1769 C1768 1.389 . S
C1769 C1770 1.387 . S
C1770 H1755 0.930 . S
C1770 C1765 1.390 . S
C1770 C1769 1.387 . S
H1771 C1783 0.930 . S
H1772 C1785 0.930 . S
H1773 C1786 0.930 . S
H1774 C1790 0.959 . S
H1775 C1790 0.959 . S
H1776 C1790 0.961 . S
H1777 C1791 0.960 . S
H1778 C1791 0.961 . S
H1779 C1791 0.959 . S
H1780 C1794 0.929 . S
H1781 C1795 0.931 . S
H1782 C1797 0.930 . S
C1783 H1771 0.930 . S
C1783 C1784 1.399 . S
C1783 C1788 1.399 . S
C1784 C1783 1.399 . S
C1784 C1785 1.376 . S
C1785 H1772 0.930 . S
C1785 C1784 1.376 . S
C1785 C1786 1.388 . S
C1786 H1773 0.930 . S
C1786 C1785 1.388 . S
C1786 C1787 1.390 . S
C1787 C1786 1.390 . S
C1787 C1788 1.394 . S
C1787 C1793 1.465 . S
C1788 C1783 1.399 . S
C1788 C1787 1.394 . S
C1788 C1789 1.516 . S
C1789 C1788 1.516 . S
C1789 C1790 1.502 . S
C1789 C1791 1.561 . S
C1789 C1792 1.526 . S
C1790 H1774 0.959 . S
C1790 H1775 0.959 . S
C1790 H1776 0.961 . S
C1790 C1789 1.502 . S
C1791 H1777 0.960 . S
C1791 H1778 0.961 . S
C1791 H1779 0.959 . S
C1791 C1789 1.561 . S
C1792 C1789 1.526 . S
C1792 C1793 1.396 . S
C1792 C1797 1.390 . S
C1793 C1787 1.465 . S
C1793 C1792 1.396 . S
C1793 C1794 1.399 . S
C1794 H1780 0.929 . S
C1794 C1793 1.399 . S
C1794 C1795 1.385 . S
C1795 H1781 0.931 . S
C1795 C1794 1.385 . S
C1795 C1796 1.389 . S
C1796 C1795 1.389 . S
C1796 C1797 1.387 . S
C1797 H1782 0.930 . S
C1797 C1792 1.390 . S
C1797 C1796 1.387 . S
H1798 C1810 0.930 . S
H1799 C1812 0.930 . S
H1800 C1813 0.930 . S
H1801 C1817 0.959 . S
H1802 C1817 0.959 . S
H1803 C1817 0.961 . S
H1804 C1818 0.960 . S
H1805 C1818 0.961 . S
H1806 C1818 0.959 . S
H1807 C1821 0.929 . S
H1808 C1822 0.931 . S
H1809 C1824 0.930 . S
C1810 H1798 0.930 . S
C1810 C1811 1.399 . S
C1810 C1815 1.399 . S
C1811 C1810 1.399 . S
C1811 C1812 1.376 . S
C1812 H1799 0.930 . S
C1812 C1811 1.376 . S
C1812 C1813 1.388 . S
C1813 H1800 0.930 . S
C1813 C1812 1.388 . S
C1813 C1814 1.390 . S
C1814 C1813 1.390 . S
C1814 C1815 1.394 . S
C1814 C1820 1.465 . S
C1815 C1810 1.399 . S
C1815 C1814 1.394 . S
C1815 C1816 1.516 . S
C1816 C1815 1.516 . S
C1816 C1817 1.502 . S
C1816 C1818 1.561 . S
C1816 C1819 1.526 . S
C1817 H1801 0.959 . S
C1817 H1802 0.959 . S
C1817 H1803 0.961 . S
C1817 C1816 1.502 . S
C1818 H1804 0.960 . S
C1818 H1805 0.961 . S
C1818 H1806 0.959 . S
C1818 C1816 1.561 . S
C1819 C1816 1.526 . S
C1819 C1820 1.396 . S
C1819 C1824 1.390 . S
C1820 C1814 1.465 . S
C1820 C1819 1.396 . S
C1820 C1821 1.399 . S
C1821 H1807 0.929 . S
C1821 C1820 1.399 . S
C1821 C1822 1.385 . S
C1822 H1808 0.931 . S
C1822 C1821 1.385 . S
C1822 C1823 1.389 . S
C1823 C1822 1.389 . S
C1823 C1824 1.387 . S
C1824 H1809 0.930 . S
C1824 C1819 1.390 . S
C1824 C1823 1.387 . S
H1825 C1837 0.930 . S
H1826 C1839 0.930 . S
H1827 C1840 0.930 . S
H1828 C1844 0.959 . S
H1829 C1844 0.959 . S
H1830 C1844 0.961 . S
H1831 C1845 0.960 . S
H1832 C1845 0.961 . S
H1833 C1845 0.959 . S
H1834 C1848 0.929 . S
H1835 C1849 0.931 . S
H1836 C1851 0.930 . S
C1837 H1825 0.930 . S
C1837 C1838 1.399 . S
C1837 C1842 1.399 . S
C1838 C1837 1.399 . S
C1838 C1839 1.376 . S
C1839 H1826 0.930 . S
C1839 C1838 1.376 . S
C1839 C1840 1.388 . S
C1840 H1827 0.930 . S
C1840 C1839 1.388 . S
C1840 C1841 1.390 . S
C1841 C1840 1.390 . S
C1841 C1842 1.394 . S
C1841 C1847 1.465 . S
C1842 C1837 1.399 . S
C1842 C1841 1.394 . S
C1842 C1843 1.516 . S
C1843 C1842 1.516 . S
C1843 C1844 1.502 . S
C1843 C1845 1.561 . S
C1843 C1846 1.526 . S
C1844 H1828 0.959 . S
C1844 H1829 0.959 . S
C1844 H1830 0.961 . S
C1844 C1843 1.502 . S
C1845 H1831 0.960 . S
C1845 H1832 0.961 . S
C1845 H1833 0.959 . S
C1845 C1843 1.561 . S
C1846 C1843 1.526 . S
C1846 C1847 1.396 . S
C1846 C1851 1.390 . S
C1847 C1841 1.465 . S
C1847 C1846 1.396 . S
C1847 C1848 1.399 . S
C1848 H1834 0.929 . S
C1848 C1847 1.399 . S
C1848 C1849 1.385 . S
C1849 H1835 0.931 . S
C1849 C1848 1.385 . S
C1849 C1850 1.389 . S
C1850 C1849 1.389 . S
C1850 C1851 1.387 . S
C1851 H1836 0.930 . S
C1851 C1846 1.390 . S
C1851 C1850 1.387 . S
H1852 C1864 0.930 . S
H1853 C1866 0.930 . S
H1854 C1867 0.930 . S
H1855 C1871 0.959 . S
H1856 C1871 0.959 . S
H1857 C1871 0.961 . S
H1858 C1872 0.960 . S
H1859 C1872 0.961 . S
H1860 C1872 0.959 . S
H1861 C1875 0.929 . S
H1862 C1876 0.931 . S
H1863 C1878 0.930 . S
C1864 H1852 0.930 . S
C1864 C1865 1.399 . S
C1864 C1869 1.399 . S
C1865 C1864 1.399 . S
C1865 C1866 1.376 . S
C1866 H1853 0.930 . S
C1866 C1865 1.376 . S
C1866 C1867 1.388 . S
C1867 H1854 0.930 . S
C1867 C1866 1.388 . S
C1867 C1868 1.390 . S
C1868 C1867 1.390 . S
C1868 C1869 1.394 . S
C1868 C1874 1.465 . S
C1869 C1864 1.399 . S
C1869 C1868 1.394 . S
C1869 C1870 1.516 . S
C1870 C1869 1.516 . S
C1870 C1871 1.502 . S
C1870 C1872 1.561 . S
C1870 C1873 1.526 . S
C1871 H1855 0.959 . S
C1871 H1856 0.959 . S
C1871 H1857 0.961 . S
C1871 C1870 1.502 . S
C1872 H1858 0.960 . S
C1872 H1859 0.961 . S
C1872 H1860 0.959 . S
C1872 C1870 1.561 . S
C1873 C1870 1.526 . S
C1873 C1874 1.396 . S
C1873 C1878 1.390 . S
C1874 C1868 1.465 . S
C1874 C1873 1.396 . S
C1874 C1875 1.399 . S
C1875 H1861 0.929 . S
C1875 C1874 1.399 . S
C1875 C1876 1.385 . S
C1876 H1862 0.931 . S
C1876 C1875 1.385 . S
C1876 C1877 1.389 . S
C1877 C1876 1.389 . S
C1877 C1878 1.387 . S
C1878 H1863 0.930 . S
C1878 C1873 1.390 . S
C1878 C1877 1.387 . S
H1879 C1891 0.930 . S
H1880 C1893 0.930 . S
H1881 C1894 0.930 . S
H1882 C1898 0.959 . S
H1883 C1898 0.959 . S
H1884 C1898 0.961 . S
H1885 C1899 0.960 . S
H1886 C1899 0.961 . S
H1887 C1899 0.959 . S
H1888 C1902 0.929 . S
H1889 C1903 0.931 . S
H1890 C1905 0.930 . S
C1891 H1879 0.930 . S
C1891 C1892 1.399 . S
C1891 C1896 1.399 . S
C1892 C1891 1.399 . S
C1892 C1893 1.376 . S
C1893 H1880 0.930 . S
C1893 C1892 1.376 . S
C1893 C1894 1.388 . S
C1894 H1881 0.930 . S
C1894 C1893 1.388 . S
C1894 C1895 1.390 . S
C1895 C1894 1.390 . S
C1895 C1896 1.394 . S
C1895 C1901 1.465 . S
C1896 C1891 1.399 . S
C1896 C1895 1.394 . S
C1896 C1897 1.516 . S
C1897 C1896 1.516 . S
C1897 C1898 1.502 . S
C1897 C1899 1.561 . S
C1897 C1900 1.526 . S
C1898 H1882 0.959 . S
C1898 H1883 0.959 . S
C1898 H1884 0.961 . S
C1898 C1897 1.502 . S
C1899 H1885 0.960 . S
C1899 H1886 0.961 . S
C1899 H1887 0.959 . S
C1899 C1897 1.561 . S
C1900 C1897 1.526 . S
C1900 C1901 1.396 . S
C1900 C1905 1.390 . S
C1901 C1895 1.465 . S
C1901 C1900 1.396 . S
C1901 C1902 1.399 . S
C1902 H1888 0.929 . S
C1902 C1901 1.399 . S
C1902 C1903 1.385 . S
C1903 H1889 0.931 . S
C1903 C1902 1.385 . S
C1903 C1904 1.389 . S
C1904 C1903 1.389 . S
C1904 C1905 1.387 . S
C1905 H1890 0.930 . S
C1905 C1900 1.390 . S
C1905 C1904 1.387 . S
H1906 C1918 0.930 . S
H1907 C1920 0.930 . S
H1908 C1921 0.930 . S
H1909 C1925 0.959 . S
H1910 C1925 0.959 . S
H1911 C1925 0.961 . S
H1912 C1926 0.960 . S
H1913 C1926 0.961 . S
H1914 C1926 0.959 . S
H1915 C1929 0.929 . S
H1916 C1930 0.931 . S
H1917 C1932 0.930 . S
C1918 H1906 0.930 . S
C1918 C1919 1.399 . S
C1918 C1923 1.399 . S
C1919 C1918 1.399 . S
C1919 C1920 1.376 . S
C1920 H1907 0.930 . S
C1920 C1919 1.376 . S
C1920 C1921 1.388 . S
C1921 H1908 0.930 . S
C1921 C1920 1.388 . S
C1921 C1922 1.390 . S
C1922 C1921 1.390 . S
C1922 C1923 1.394 . S
C1922 C1928 1.465 . S
C1923 C1918 1.399 . S
C1923 C1922 1.394 . S
C1923 C1924 1.516 . S
C1924 C1923 1.516 . S
C1924 C1925 1.502 . S
C1924 C1926 1.561 . S
C1924 C1927 1.526 . S
C1925 H1909 0.959 . S
C1925 H1910 0.959 . S
C1925 H1911 0.961 . S
C1925 C1924 1.502 . S
C1926 H1912 0.960 . S
C1926 H1913 0.961 . S
C1926 H1914 0.959 . S
C1926 C1924 1.561 . S
C1927 C1924 1.526 . S
C1927 C1928 1.396 . S
C1927 C1932 1.390 . S
C1928 C1922 1.465 . S
C1928 C1927 1.396 . S
C1928 C1929 1.399 . S
C1929 H1915 0.929 . S
C1929 C1928 1.399 . S
C1929 C1930 1.385 . S
C1930 H1916 0.931 . S
C1930 C1929 1.385 . S
C1930 C1931 1.389 . S
C1931 C1930 1.389 . S
C1931 C1932 1.387 . S
C1932 H1917 0.930 . S
C1932 C1927 1.390 . S
C1932 C1931 1.387 . S
H1933 C1945 0.930 . S
H1934 C1947 0.930 . S
H1935 C1948 0.930 . S
H1936 C1952 0.959 . S
H1937 C1952 0.959 . S
H1938 C1952 0.961 . S
H1939 C1953 0.960 . S
H1940 C1953 0.961 . S
H1941 C1953 0.959 . S
H1942 C1956 0.929 . S
H1943 C1957 0.931 . S
H1944 C1959 0.930 . S
C1945 H1933 0.930 . S
C1945 C1946 1.399 . S
C1945 C1950 1.399 . S
C1946 C1945 1.399 . S
C1946 C1947 1.376 . S
C1947 H1934 0.930 . S
C1947 C1946 1.376 . S
C1947 C1948 1.388 . S
C1948 H1935 0.930 . S
C1948 C1947 1.388 . S
C1948 C1949 1.390 . S
C1949 C1948 1.390 . S
C1949 C1950 1.394 . S
C1949 C1955 1.465 . S
C1950 C1945 1.399 . S
C1950 C1949 1.394 . S
C1950 C1951 1.516 . S
C1951 C1950 1.516 . S
C1951 C1952 1.502 . S
C1951 C1953 1.561 . S
C1951 C1954 1.526 . S
C1952 H1936 0.959 . S
C1952 H1937 0.959 . S
C1952 H1938 0.961 . S
C1952 C1951 1.502 . S
C1953 H1939 0.960 . S
C1953 H1940 0.961 . S
C1953 H1941 0.959 . S
C1953 C1951 1.561 . S
C1954 C1951 1.526 . S
C1954 C1955 1.396 . S
C1954 C1959 1.390 . S
C1955 C1949 1.465 . S
C1955 C1954 1.396 . S
C1955 C1956 1.399 . S
C1956 H1942 0.929 . S
C1956 C1955 1.399 . S
C1956 C1957 1.385 . S
C1957 H1943 0.931 . S
C1957 C1956 1.385 . S
C1957 C1958 1.389 . S
C1958 C1957 1.389 . S
C1958 C1959 1.387 . S
C1959 H1944 0.930 . S
C1959 C1954 1.390 . S
C1959 C1958 1.387 . S
H1960 C1972 0.930 . S
H1961 C1974 0.930 . S
H1962 C1975 0.930 . S
H1963 C1979 0.959 . S
H1964 C1979 0.959 . S
H1965 C1979 0.961 . S
H1966 C1980 0.960 . S
H1967 C1980 0.961 . S
H1968 C1980 0.959 . S
H1969 C1983 0.929 . S
H1970 C1984 0.931 . S
H1971 C1986 0.930 . S
C1972 H1960 0.930 . S
C1972 C1973 1.399 . S
C1972 C1977 1.399 . S
C1973 C1972 1.399 . S
C1973 C1974 1.376 . S
C1974 H1961 0.930 . S
C1974 C1973 1.376 . S
C1974 C1975 1.388 . S
C1975 H1962 0.930 . S
C1975 C1974 1.388 . S
C1975 C1976 1.390 . S
C1976 C1975 1.390 . S
C1976 C1977 1.394 . S
C1976 C1982 1.465 . S
C1977 C1972 1.399 . S
C1977 C1976 1.394 . S
C1977 C1978 1.516 . S
C1978 C1977 1.516 . S
C1978 C1979 1.502 . S
C1978 C1980 1.561 . S
C1978 C1981 1.526 . S
C1979 H1963 0.959 . S
C1979 H1964 0.959 . S
C1979 H1965 0.961 . S
C1979 C1978 1.502 . S
C1980 H1966 0.960 . S
C1980 H1967 0.961 . S
C1980 H1968 0.959 . S
C1980 C1978 1.561 . S
C1981 C1978 1.526 . S
C1981 C1982 1.396 . S
C1981 C1986 1.390 . S
C1982 C1976 1.465 . S
C1982 C1981 1.396 . S
C1982 C1983 1.399 . S
C1983 H1969 0.929 . S
C1983 C1982 1.399 . S
C1983 C1984 1.385 . S
C1984 H1970 0.931 . S
C1984 C1983 1.385 . S
C1984 C1985 1.389 . S
C1985 C1984 1.389 . S
C1985 C1986 1.387 . S
C1986 H1971 0.930 . S
C1986 C1981 1.390 . S
C1986 C1985 1.387 . S
H1987 C1999 0.930 . S
H1988 C2001 0.930 . S
H1989 C2002 0.930 . S
H1990 C2006 0.959 . S
H1991 C2006 0.959 . S
H1992 C2006 0.961 . S
H1993 C2007 0.960 . S
H1994 C2007 0.961 . S
H1995 C2007 0.959 . S
H1996 C2010 0.929 . S
H1997 C2011 0.931 . S
H1998 C2013 0.930 . S
C1999 H1987 0.930 . S
C1999 C2000 1.399 . S
C1999 C2004 1.399 . S
C2000 C1999 1.399 . S
C2000 C2001 1.376 . S
C2001 H1988 0.930 . S
C2001 C2000 1.376 . S
C2001 C2002 1.388 . S
C2002 H1989 0.930 . S
C2002 C2001 1.388 . S
C2002 C2003 1.390 . S
C2003 C2002 1.390 . S
C2003 C2004 1.394 . S
C2003 C2009 1.465 . S
C2004 C1999 1.399 . S
C2004 C2003 1.394 . S
C2004 C2005 1.516 . S
C2005 C2004 1.516 . S
C2005 C2006 1.502 . S
C2005 C2007 1.561 . S
C2005 C2008 1.526 . S
C2006 H1990 0.959 . S
C2006 H1991 0.959 . S
C2006 H1992 0.961 . S
C2006 C2005 1.502 . S
C2007 H1993 0.960 . S
C2007 H1994 0.961 . S
C2007 H1995 0.959 . S
C2007 C2005 1.561 . S
C2008 C2005 1.526 . S
C2008 C2009 1.396 . S
C2008 C2013 1.390 . S
C2009 C2003 1.465 . S
C2009 C2008 1.396 . S
C2009 C2010 1.399 . S
C2010 H1996 0.929 . S
C2010 C2009 1.399 . S
C2010 C2011 1.385 . S
C2011 H1997 0.931 . S
C2011 C2010 1.385 . S
C2011 C2012 1.389 . S
C2012 C2011 1.389 . S
C2012 C2013 1.387 . S
C2013 H1998 0.930 . S
C2013 C2008 1.390 . S
C2013 C2012 1.387 . S
H2014 C2026 0.930 . S
H2015 C2028 0.930 . S
H2016 C2029 0.930 . S
H2017 C2033 0.959 . S
H2018 C2033 0.959 . S
H2019 C2033 0.961 . S
H2020 C2034 0.960 . S
H2021 C2034 0.961 . S
H2022 C2034 0.959 . S
H2023 C2037 0.929 . S
H2024 C2038 0.931 . S
H2025 C2040 0.930 . S
C2026 H2014 0.930 . S
C2026 C2027 1.399 . S
C2026 C2031 1.399 . S
C2027 C2026 1.399 . S
C2027 C2028 1.376 . S
C2028 H2015 0.930 . S
C2028 C2027 1.376 . S
C2028 C2029 1.388 . S
C2029 H2016 0.930 . S
C2029 C2028 1.388 . S
C2029 C2030 1.390 . S
C2030 C2029 1.390 . S
C2030 C2031 1.394 . S
C2030 C2036 1.465 . S
C2031 C2026 1.399 . S
C2031 C2030 1.394 . S
C2031 C2032 1.516 . S
C2032 C2031 1.516 . S
C2032 C2033 1.502 . S
C2032 C2034 1.561 . S
C2032 C2035 1.526 . S
C2033 H2017 0.959 . S
C2033 H2018 0.959 . S
C2033 H2019 0.961 . S
C2033 C2032 1.502 . S
C2034 H2020 0.960 . S
C2034 H2021 0.961 . S
C2034 H2022 0.959 . S
C2034 C2032 1.561 . S
C2035 C2032 1.526 . S
C2035 C2036 1.396 . S
C2035 C2040 1.390 . S
C2036 C2030 1.465 . S
C2036 C2035 1.396 . S
C2036 C2037 1.399 . S
C2037 H2023 0.929 . S
C2037 C2036 1.399 . S
C2037 C2038 1.385 . S
C2038 H2024 0.931 . S
C2038 C2037 1.385 . S
C2038 C2039 1.389 . S
C2039 C2038 1.389 . S
C2039 C2040 1.387 . S
C2040 H2025 0.930 . S
C2040 C2035 1.390 . S
C2040 C2039 1.387 . S
H2041 C2053 0.930 . S
H2042 C2055 0.930 . S
H2043 C2056 0.930 . S
H2044 C2060 0.959 . S
H2045 C2060 0.959 . S
H2046 C2060 0.961 . S
H2047 C2061 0.960 . S
H2048 C2061 0.961 . S
H2049 C2061 0.959 . S
H2050 C2064 0.929 . S
H2051 C2065 0.931 . S
H2052 C2067 0.930 . S
C2053 H2041 0.930 . S
C2053 C2054 1.399 . S
C2053 C2058 1.399 . S
C2054 C2053 1.399 . S
C2054 C2055 1.376 . S
C2055 H2042 0.930 . S
C2055 C2054 1.376 . S
C2055 C2056 1.388 . S
C2056 H2043 0.930 . S
C2056 C2055 1.388 . S
C2056 C2057 1.390 . S
C2057 C2056 1.390 . S
C2057 C2058 1.394 . S
C2057 C2063 1.465 . S
C2058 C2053 1.399 . S
C2058 C2057 1.394 . S
C2058 C2059 1.516 . S
C2059 C2058 1.516 . S
C2059 C2060 1.502 . S
C2059 C2061 1.561 . S
C2059 C2062 1.526 . S
C2060 H2044 0.959 . S
C2060 H2045 0.959 . S
C2060 H2046 0.961 . S
C2060 C2059 1.502 . S
C2061 H2047 0.960 . S
C2061 H2048 0.961 . S
C2061 H2049 0.959 . S
C2061 C2059 1.561 . S
C2062 C2059 1.526 . S
C2062 C2063 1.396 . S
C2062 C2067 1.390 . S
C2063 C2057 1.465 . S
C2063 C2062 1.396 . S
C2063 C2064 1.399 . S
C2064 H2050 0.929 . S
C2064 C2063 1.399 . S
C2064 C2065 1.385 . S
C2065 H2051 0.931 . S
C2065 C2064 1.385 . S
C2065 C2066 1.389 . S
C2066 C2065 1.389 . S
C2066 C2067 1.387 . S
C2067 H2052 0.930 . S
C2067 C2062 1.390 . S
C2067 C2066 1.387 . S
H2068 C2080 0.930 . S
H2069 C2082 0.930 . S
H2070 C2083 0.930 . S
H2071 C2087 0.959 . S
H2072 C2087 0.959 . S
H2073 C2087 0.961 . S
H2074 C2088 0.960 . S
H2075 C2088 0.961 . S
H2076 C2088 0.959 . S
H2077 C2091 0.929 . S
H2078 C2092 0.931 . S
H2079 C2094 0.930 . S
C2080 H2068 0.930 . S
C2080 C2081 1.399 . S
C2080 C2085 1.399 . S
C2081 C2080 1.399 . S
C2081 C2082 1.376 . S
C2082 H2069 0.930 . S
C2082 C2081 1.376 . S
C2082 C2083 1.388 . S
C2083 H2070 0.930 . S
C2083 C2082 1.388 . S
C2083 C2084 1.390 . S
C2084 C2083 1.390 . S
C2084 C2085 1.394 . S
C2084 C2090 1.465 . S
C2085 C2080 1.399 . S
C2085 C2084 1.394 . S
C2085 C2086 1.516 . S
C2086 C2085 1.516 . S
C2086 C2087 1.502 . S
C2086 C2088 1.561 . S
C2086 C2089 1.526 . S
C2087 H2071 0.959 . S
C2087 H2072 0.959 . S
C2087 H2073 0.961 . S
C2087 C2086 1.502 . S
C2088 H2074 0.960 . S
C2088 H2075 0.961 . S
C2088 H2076 0.959 . S
C2088 C2086 1.561 . S
C2089 C2086 1.526 . S
C2089 C2090 1.396 . S
C2089 C2094 1.390 . S
C2090 C2084 1.465 . S
C2090 C2089 1.396 . S
C2090 C2091 1.399 . S
C2091 H2077 0.929 . S
C2091 C2090 1.399 . S
C2091 C2092 1.385 . S
C2092 H2078 0.931 . S
C2092 C2091 1.385 . S
C2092 C2093 1.389 . S
C2093 C2092 1.389 . S
C2093 C2094 1.387 . S
C2094 H2079 0.930 . S
C2094 C2089 1.390 . S
C2094 C2093 1.387 . S
H2095 C2107 0.930 . S
H2096 C2109 0.930 . S
H2097 C2110 0.930 . S
H2098 C2114 0.959 . S
H2099 C2114 0.959 . S
H2100 C2114 0.961 . S
H2101 C2115 0.960 . S
H2102 C2115 0.961 . S
H2103 C2115 0.959 . S
H2104 C2118 0.929 . S
H2105 C2119 0.931 . S
H2106 C2121 0.930 . S
C2107 H2095 0.930 . S
C2107 C2108 1.399 . S
C2107 C2112 1.399 . S
C2108 C2107 1.399 . S
C2108 C2109 1.376 . S
C2109 H2096 0.930 . S
C2109 C2108 1.376 . S
C2109 C2110 1.388 . S
C2110 H2097 0.930 . S
C2110 C2109 1.388 . S
C2110 C2111 1.390 . S
C2111 C2110 1.390 . S
C2111 C2112 1.394 . S
C2111 C2117 1.465 . S
C2112 C2107 1.399 . S
C2112 C2111 1.394 . S
C2112 C2113 1.516 . S
C2113 C2112 1.516 . S
C2113 C2114 1.502 . S
C2113 C2115 1.561 . S
C2113 C2116 1.526 . S
C2114 H2098 0.959 . S
C2114 H2099 0.959 . S
C2114 H2100 0.961 . S
C2114 C2113 1.502 . S
C2115 H2101 0.960 . S
C2115 H2102 0.961 . S
C2115 H2103 0.959 . S
C2115 C2113 1.561 . S
C2116 C2113 1.526 . S
C2116 C2117 1.396 . S
C2116 C2121 1.390 . S
C2117 C2111 1.465 . S
C2117 C2116 1.396 . S
C2117 C2118 1.399 . S
C2118 H2104 0.929 . S
C2118 C2117 1.399 . S
C2118 C2119 1.385 . S
C2119 H2105 0.931 . S
C2119 C2118 1.385 . S
C2119 C2120 1.389 . S
C2120 C2119 1.389 . S
C2120 C2121 1.387 . S
C2121 H2106 0.930 . S
C2121 C2116 1.390 . S
C2121 C2120 1.387 . S
H2122 C2134 0.930 . S
H2123 C2136 0.930 . S
H2124 C2137 0.930 . S
H2125 C2141 0.959 . S
H2126 C2141 0.959 . S
H2127 C2141 0.961 . S
H2128 C2142 0.960 . S
H2129 C2142 0.961 . S
H2130 C2142 0.959 . S
H2131 C2145 0.929 . S
H2132 C2146 0.931 . S
H2133 C2148 0.930 . S
C2134 H2122 0.930 . S
C2134 C2135 1.399 . S
C2134 C2139 1.399 . S
C2135 C2134 1.399 . S
C2135 C2136 1.376 . S
C2136 H2123 0.930 . S
C2136 C2135 1.376 . S
C2136 C2137 1.388 . S
C2137 H2124 0.930 . S
C2137 C2136 1.388 . S
C2137 C2138 1.390 . S
C2138 C2137 1.390 . S
C2138 C2139 1.394 . S
C2138 C2144 1.465 . S
C2139 C2134 1.399 . S
C2139 C2138 1.394 . S
C2139 C2140 1.516 . S
C2140 C2139 1.516 . S
C2140 C2141 1.502 . S
C2140 C2142 1.561 . S
C2140 C2143 1.526 . S
C2141 H2125 0.959 . S
C2141 H2126 0.959 . S
C2141 H2127 0.961 . S
C2141 C2140 1.502 . S
C2142 H2128 0.960 . S
C2142 H2129 0.961 . S
C2142 H2130 0.959 . S
C2142 C2140 1.561 . S
C2143 C2140 1.526 . S
C2143 C2144 1.396 . S
C2143 C2148 1.390 . S
C2144 C2138 1.465 . S
C2144 C2143 1.396 . S
C2144 C2145 1.399 . S
C2145 H2131 0.929 . S
C2145 C2144 1.399 . S
C2145 C2146 1.385 . S
C2146 H2132 0.931 . S
C2146 C2145 1.385 . S
C2146 C2147 1.389 . S
C2147 C2146 1.389 . S
C2147 C2148 1.387 . S
C2148 H2133 0.930 . S
C2148 C2143 1.390 . S
C2148 C2147 1.387 . S
H2149 C2161 0.930 . S
H2150 C2163 0.930 . S
H2151 C2164 0.930 . S
H2152 C2168 0.959 . S
H2153 C2168 0.959 . S
H2154 C2168 0.961 . S
H2155 C2169 0.960 . S
H2156 C2169 0.961 . S
H2157 C2169 0.959 . S
H2158 C2172 0.929 . S
H2159 C2173 0.931 . S
H2160 C2175 0.930 . S
C2161 H2149 0.930 . S
C2161 C2162 1.399 . S
C2161 C2166 1.399 . S
C2162 C2161 1.399 . S
C2162 C2163 1.376 . S
C2163 H2150 0.930 . S
C2163 C2162 1.376 . S
C2163 C2164 1.388 . S
C2164 H2151 0.930 . S
C2164 C2163 1.388 . S
C2164 C2165 1.390 . S
C2165 C2164 1.390 . S
C2165 C2166 1.394 . S
C2165 C2171 1.465 . S
C2166 C2161 1.399 . S
C2166 C2165 1.394 . S
C2166 C2167 1.516 . S
C2167 C2166 1.516 . S
C2167 C2168 1.502 . S
C2167 C2169 1.561 . S
C2167 C2170 1.526 . S
C2168 H2152 0.959 . S
C2168 H2153 0.959 . S
C2168 H2154 0.961 . S
C2168 C2167 1.502 . S
C2169 H2155 0.960 . S
C2169 H2156 0.961 . S
C2169 H2157 0.959 . S
C2169 C2167 1.561 . S
C2170 C2167 1.526 . S
C2170 C2171 1.396 . S
C2170 C2175 1.390 . S
C2171 C2165 1.465 . S
C2171 C2170 1.396 . S
C2171 C2172 1.399 . S
C2172 H2158 0.929 . S
C2172 C2171 1.399 . S
C2172 C2173 1.385 . S
C2173 H2159 0.931 . S
C2173 C2172 1.385 . S
C2173 C2174 1.389 . S
C2174 C2173 1.389 . S
C2174 C2175 1.387 . S
C2175 H2160 0.930 . S
C2175 C2170 1.390 . S
C2175 C2174 1.387 . S
C461 C382 1.395 . S
C473 C12 1.393 . S
C488 C26 1.368 . S
C500 C116 1.375 . S
C515 C354 1.393 . S
C527 C40 1.391 . S
C542 C54 1.366 . S
C554 C144 1.373 . S
C569 C68 1.351 . S
C581 C410 1.362 . S
C596 C82 1.374 . S
C608 C200 1.379 . S
C623 C96 1.405 . S
C635 C438 1.411 . S
C650 C110 1.411 . S
C662 C172 1.413 . S
C677 C270 1.407 . S
C689 C124 1.411 . S
C704 C4 1.384 . S
C716 C138 1.398 . S
C731 C242 1.385 . S
C743 C152 1.398 . S
C758 C166 1.411 . S
C770 C32 1.407 . S
C785 C298 1.396 . S
C797 C180 1.367 . S
C812 C88 1.382 . S
C824 C194 1.355 . S
C839 C208 1.409 . S
C851 C326 1.399 . S
C866 C60 1.364 . S
C878 C222 1.371 . S
C893 C236 1.399 . S
C905 C158 1.407 . S
C920 C250 1.362 . S
C932 C340 1.370 . S
C947 C130 1.368 . S
C959 C264 1.355 . S
C974 C368 1.369 . S
C986 C278 1.356 . S
C1001 C186 1.395 . S
C1013 C292 1.393 . S
C1028 C424 1.363 . S
C1040 C306 1.350 . S
C1055 C214 1.372 . S
C1067 C320 1.359 . S
C1082 C334 1.365 . S
C1094 C396 1.372 . S
C1109 C46 1.407 . S
C1121 C348 1.410 . S
C1136 C362 1.397 . S
C1148 C228 1.384 . S
C1163 C376 1.362 . S
C1175 C18 1.392 . S
C1190 C390 1.408 . S
C1202 C256 1.397 . S
C1217 C404 1.365 . S
C1229 C74 1.394 . S
C1244 C418 1.411 . S
C1256 C312 1.403 . S
C1271 C432 1.354 . S
C1283 C102 1.382 . S
C1298 C446 1.349 . S
C1310 C284 1.367 . S
C1325 C347 1.480 . S
C1337 C11 1.483 . S
C1352 C25 1.510 . S
C1364 C137 1.463 . S
C1379 C375 1.485 . S
C1391 C39 1.493 . S
C1406 C53 1.462 . S
C1418 C165 1.509 . S
C1433 C403 1.486 . S
C1445 C67 1.492 . S
C1460 C81 1.489 . S
C1472 C193 1.475 . S
C1487 C431 1.470 . S
C1499 C95 1.494 . S
C1514 C109 1.488 . S
C1526 C221 1.475 . S
C1541 C123 1.481 . S
C1553 C235 1.482 . S
C1568 C151 1.478 . S
C1580 C263 1.485 . S
C1595 C179 1.489 . S
C1607 C291 1.489 . S
C1622 C207 1.484 . S
C1634 C319 1.494 . S
C1649 C249 1.490 . S
C1661 C361 1.473 . S
C1676 C389 1.460 . S
C1688 C277 1.509 . S
C1703 C417 1.501 . S
C1715 C305 1.476 . S
C1730 C333 1.484 . S
C1742 C445 1.494 . S
C1757 C5 1.006 . S
C1769 C75 1.017 . S
C1784 C19 1.020 . S
C1796 C89 1.013 . S
C1811 C33 0.890 . S
C1823 C103 0.927 . S
C1838 C61 0.905 . S
C1850 C47 0.871 . S
C1865 C117 0.986 . S
C1877 C187 0.896 . S
C1892 C131 1.004 . S
C1904 C201 0.924 . S
C1919 C145 1.014 . S
C1931 C215 0.947 . S
C1946 C159 0.939 . S
C1958 C173 0.851 . S
C1973 C229 0.912 . S
C1985 C299 0.949 . S
C2000 C313 0.950 . S
C2012 C243 0.913 . S
C2027 C257 0.847 . S
C2039 C327 0.831 . S
C2054 C271 0.942 . S
C2066 C285 0.976 . S
C2081 C411 0.828 . S
C2093 C341 0.897 . S
C2108 C355 0.853 . S
C2120 C425 0.831 . S
C2135 C439 0.898 . S
C2147 C369 0.987 . S
C2162 C383 0.883 . S
C2174 C397 0.828 . S
