# Generated by pormake.
# Topology lcy-e, (6)-cn, num edge types: 1
# Building blocks:
#     Node 0, Type 0, BuildingBlock: KUMJIN_clean_sbu_1, # of connection points: 6
#     Node 1, Type 0, BuildingBlock: KUMJIN_clean_sbu_1, # of connection points: 6
#     Node 2, Type 0, BuildingBlock: KUMJIN_clean_sbu_1, # of connection points: 6
#     Node 3, Type 0, BuildingBlock: KUMJIN_clean_sbu_1, # of connection points: 6
#     Node 4, Type 0, BuildingBlock: KUMJIN_clean_sbu_1, # of connection points: 6
#     Node 5, Type 0, BuildingBlock: KUMJIN_clean_sbu_1, # of connection points: 6
#     Node 6, Type 0, BuildingBlock: KUMJIN_clean_sbu_1, # of connection points: 6
#     Node 7, Type 0, BuildingBlock: KUMJIN_clean_sbu_1, # of connection points: 6
#     Node 8, Type 0, BuildingBlock: KUMJIN_clean_sbu_1, # of connection points: 6
#     Node 9, Type 0, BuildingBlock: KUMJIN_clean_sbu_1, # of connection points: 6
#     Node 10, Type 0, BuildingBlock: KUMJIN_clean_sbu_1, # of connection points: 6
#     Node 11, Type 0, BuildingBlock: KUMJIN_clean_sbu_1, # of connection points: 6
#     Edge 12, Type (0, 0), BuildingBlock: CIFDUS_clean_linker_0, # of connection points: 2
#     Edge 13, Type (0, 0), BuildingBlock: CIFDUS_clean_linker_0, # of connection points: 2
#     Edge 14, Type (0, 0), BuildingBlock: CIFDUS_clean_linker_0, # of connection points: 2
#     Edge 15, Type (0, 0), BuildingBlock: CIFDUS_clean_linker_0, # of connection points: 2
#     Edge 16, Type (0, 0), BuildingBlock: CIFDUS_clean_linker_0, # of connection points: 2
#     Edge 17, Type (0, 0), BuildingBlock: CIFDUS_clean_linker_0, # of connection points: 2
#     Edge 18, Type (0, 0), BuildingBlock: CIFDUS_clean_linker_0, # of connection points: 2
#     Edge 19, Type (0, 0), BuildingBlock: CIFDUS_clean_linker_0, # of connection points: 2
#     Edge 20, Type (0, 0), BuildingBlock: CIFDUS_clean_linker_0, # of connection points: 2
#     Edge 21, Type (0, 0), BuildingBlock: CIFDUS_clean_linker_0, # of connection points: 2
#     Edge 22, Type (0, 0), BuildingBlock: CIFDUS_clean_linker_0, # of connection points: 2
#     Edge 23, Type (0, 0), BuildingBlock: CIFDUS_clean_linker_0, # of connection points: 2
#     Edge 24, Type (0, 0), BuildingBlock: CIFDUS_clean_linker_0, # of connection points: 2
#     Edge 25, Type (0, 0), BuildingBlock: CIFDUS_clean_linker_0, # of connection points: 2
#     Edge 26, Type (0, 0), BuildingBlock: CIFDUS_clean_linker_0, # of connection points: 2
#     Edge 27, Type (0, 0), BuildingBlock: CIFDUS_clean_linker_0, # of connection points: 2
#     Edge 28, Type (0, 0), BuildingBlock: CIFDUS_clean_linker_0, # of connection points: 2
#     Edge 29, Type (0, 0), BuildingBlock: CIFDUS_clean_linker_0, # of connection points: 2
#     Edge 30, Type (0, 0), BuildingBlock: CIFDUS_clean_linker_0, # of connection points: 2
#     Edge 31, Type (0, 0), BuildingBlock: CIFDUS_clean_linker_0, # of connection points: 2
#     Edge 32, Type (0, 0), BuildingBlock: CIFDUS_clean_linker_0, # of connection points: 2
#     Edge 33, Type (0, 0), BuildingBlock: CIFDUS_clean_linker_0, # of connection points: 2
#     Edge 34, Type (0, 0), BuildingBlock: CIFDUS_clean_linker_0, # of connection points: 2
#     Edge 35, Type (0, 0), BuildingBlock: CIFDUS_clean_linker_0, # of connection points: 2
#     Edge 36, Type (0, 0), BuildingBlock: CIFDUS_clean_linker_0, # of connection points: 2
#     Edge 37, Type (0, 0), BuildingBlock: CIFDUS_clean_linker_0, # of connection points: 2
#     Edge 38, Type (0, 0), BuildingBlock: CIFDUS_clean_linker_0, # of connection points: 2
#     Edge 39, Type (0, 0), BuildingBlock: CIFDUS_clean_linker_0, # of connection points: 2
#     Edge 40, Type (0, 0), BuildingBlock: CIFDUS_clean_linker_0, # of connection points: 2
#     Edge 41, Type (0, 0), BuildingBlock: CIFDUS_clean_linker_0, # of connection points: 2
#     Edge 42, Type (0, 0), BuildingBlock: CIFDUS_clean_linker_0, # of connection points: 2
#     Edge 43, Type (0, 0), BuildingBlock: CIFDUS_clean_linker_0, # of connection points: 2
#     Edge 44, Type (0, 0), BuildingBlock: CIFDUS_clean_linker_0, # of connection points: 2
#     Edge 45, Type (0, 0), BuildingBlock: CIFDUS_clean_linker_0, # of connection points: 2
#     Edge 46, Type (0, 0), BuildingBlock: CIFDUS_clean_linker_0, # of connection points: 2
#     Edge 47, Type (0, 0), BuildingBlock: CIFDUS_clean_linker_0, # of connection points: 2
# Relax obj value: 0.092
# Max RMSD: 0.246
# Mean RMSD: 0.244
data_MOF--net-lcy-e--node1-KUMJIN_clean_sbu_1--edge1-CIFDUS_clean_linker_0
_symmetry_space_group_name_H-M    P1
_symmetry_Int_Tables_number       1
_symmetry_cell_setting            triclinic
loop_
_symmetry_equiv_pos_as_xyz
'x, y, z'
_cell_length_a     39.697479
_cell_length_b     39.519266
_cell_length_c     39.72337
_cell_angle_alpha  90.046601
_cell_angle_beta   89.828684
_cell_angle_gamma 89.6803
loop_
_atom_site_label
_atom_site_type_symbol
_atom_site_fract_x
_atom_site_fract_y
_atom_site_fract_z
_atom_type_partial_charge
Eu0 Eu 0.14731 0.20754 0.53243 0.0
C1 C 0.04639 0.31259 0.46339 0.0
N2 N 0.0648 0.28589 0.45165 0.0
C3 C 0.01726 0.26647 0.42003 0.0
C4 C 0.01196 0.31603 0.45528 0.0
C5 C 0.05139 0.26447 0.42827 0.0
C6 C 0.99726 0.29193 0.43417 0.0
C7 C 0.04455 0.3671 0.49192 0.0
C8 C 0.06253 0.3381 0.48131 0.0
C9 C 0.00991 0.36959 0.48541 0.0
C10 C 0.99367 0.34415 0.46714 0.0
Eu11 Eu 0.12197 0.28524 0.46822 0.0
N12 N 0.0961 0.33524 0.4872 0.0
C13 C 0.06215 0.3932 0.50791 0.0
C14 C 0.11362 0.36101 0.50154 0.0
C15 C 0.09696 0.39035 0.51228 0.0
H16 H 0.06694 0.24603 0.41541 0.0
H17 H 0.11093 0.41064 0.52397 0.0
H18 H 0.21068 0.24433 0.57868 0.0
H19 H 0.15074 0.09557 0.45346 0.0
H20 H 0.1404 0.35893 0.50431 0.0
H21 H 0.04924 0.41592 0.51632 0.0
H22 H 0.12394 0.14325 0.48442 0.0
H23 H 1.00657 0.24877 0.40227 0.0
H24 H 0.99562 0.39156 0.49359 0.0
H25 H 0.96714 0.34699 0.46139 0.0
H26 H 0.27212 0.24142 0.58129 0.0
H27 H 0.97091 0.29371 0.42735 0.0
H28 H 0.21281 0.08897 0.45407 0.0
N29 N 0.20648 0.20719 0.53971 0.0
C30 C 0.22291 0.1822 0.52245 0.0
C31 C 0.25866 0.22502 0.5642 0.0
C32 C 0.25823 0.17871 0.52454 0.0
C33 C 0.22363 0.22719 0.56188 0.0
C34 C 0.2761 0.20104 0.54508 0.0
N35 N 0.17051 0.1636 0.50044 0.0
C36 C 0.15103 0.14052 0.48416 0.0
C37 C 0.22074 0.13268 0.48595 0.0
C38 C 0.20443 0.1594 0.50305 0.0
C39 C 0.20116 0.10982 0.46755 0.0
C40 C 0.16612 0.11354 0.46698 0.0
H41 H 0.30325 0.19924 0.5472 0.0
H42 H 0.30176 0.14994 0.50774 0.0
H43 H 0.26897 0.10958 0.47424 0.0
O44 O 0.11624 0.16647 0.55313 0.0
O45 O 0.16244 0.20874 0.47689 0.0
O46 O 0.17446 0.26404 0.47048 0.0
O47 O 0.16257 0.18036 0.57755 0.0
O48 O 0.09486 0.20678 0.50978 0.0
O49 O 0.10589 0.231 0.45851 0.0
O50 O 0.14005 0.32958 0.44052 0.0
O51 O 0.09753 0.29052 0.52103 0.0
O52 O 0.11446 0.24679 0.55743 0.0
O53 O 0.1309 0.28285 0.41401 0.0
O54 O 0.16809 0.29135 0.50092 0.0
O55 O 0.16237 0.26082 0.55035 0.0
C56 C 0.18192 0.23242 0.46478 0.0
C57 C 0.12215 0.15199 0.61115 0.0
C58 C 0.09519 0.11103 0.64857 0.0
C59 C 0.09937 0.13368 0.67547 0.0
C60 C 0.12555 0.17436 0.6384 0.0
C61 C 0.11444 0.16506 0.67039 0.0
C62 C 0.10702 0.12013 0.61636 0.0
C63 C 0.08691 0.21236 0.47823 0.0
C64 C 0.13666 0.16037 0.57799 0.0
C65 C 0.27462 0.15273 0.50663 0.0
C66 C 0.25594 0.12968 0.4876 0.0
C67 C 0.09725 0.27463 0.5506 0.0
C68 C 0.12807 0.3335 0.38229 0.0
C69 C 0.13975 0.36681 0.33176 0.0
C70 C 0.10527 0.36591 0.32388 0.0
C71 C 0.09376 0.33338 0.37411 0.0
C72 C 0.15106 0.35074 0.36134 0.0
C73 C 0.08249 0.34952 0.34502 0.0
C74 C 0.17105 0.28858 0.53375 0.0
C75 C 0.14041 0.31431 0.41152 0.0
H76 H 0.09093 0.12701 0.70056 0.0
H77 H 0.13728 0.19882 0.63508 0.0
H78 H 0.11755 0.18224 0.69137 0.0
H79 H 0.10433 0.10266 0.59549 0.0
H80 H 0.09592 0.37809 0.30131 0.0
H81 H 0.07576 0.32047 0.38994 0.0
H82 H 0.17767 0.35076 0.36744 0.0
H83 H 0.056 0.34908 0.33866 0.0
Eu84 Eu 0.05841 0.89799 0.78315 0.0
C85 C 0.95498 0.7999 0.70531 0.0
N86 N 0.98193 0.81838 0.69492 0.0
C87 C 1.00042 0.7724 0.6598 0.0
C88 C 0.95101 0.76605 0.69478 0.0
C89 C 1.00349 0.80573 0.67109 0.0
C90 C 0.97459 0.75219 0.67236 0.0
C91 C 0.90098 0.79731 0.73435 0.0
C92 C 0.92995 0.81544 0.72465 0.0
C93 C 0.89804 0.76309 0.72547 0.0
C94 C 0.92296 0.74752 0.70572 0.0
Eu95 Eu 0.98357 0.87444 0.71577 0.0
N96 N 0.93331 0.84858 0.73303 0.0
C97 C 0.87549 0.81432 0.75217 0.0
C98 C 0.90818 0.86555 0.74936 0.0
C99 C 0.87897 0.84872 0.75939 0.0
H100 H 0.02293 0.82141 0.66026 0.0
H101 H 0.85919 0.86227 0.77264 0.0
H102 H 0.02083 0.96176 0.82885 0.0
H103 H 0.17384 0.9007 0.70978 0.0
H104 H 0.91072 0.89199 0.75437 0.0
H105 H 0.85286 0.80128 0.76001 0.0
H106 H 0.12519 0.8741 0.73861 0.0
H107 H 0.01797 0.76237 0.64139 0.0
H108 H 0.87616 0.74867 0.73304 0.0
H109 H 0.91979 0.72137 0.69821 0.0
H110 H 0.02274 0.02357 0.8313 0.0
H111 H 0.97231 0.72635 0.66357 0.0
H112 H 0.17913 0.9631 0.70935 0.0
N113 N 0.05789 0.95751 0.78987 0.0
C114 C 0.08275 0.97395 0.77284 0.0
C115 C 0.0393 0.01 0.81424 0.0
C116 C 0.08573 0.00945 0.77485 0.0
C117 C 0.03768 0.97479 0.812 0.0
C118 C 0.06301 0.02748 0.79512 0.0
N119 N 0.10321 0.92108 0.7527 0.0
C120 C 0.1275 0.90133 0.7381 0.0
C121 C 0.1337 0.97144 0.73862 0.0
C122 C 0.10651 0.95522 0.75464 0.0
C123 C 0.15789 0.95153 0.72197 0.0
C124 C 0.15496 0.9163 0.72203 0.0
H125 H 0.0645 0.05476 0.79729 0.0
H126 H 0.11433 0.05306 0.75862 0.0
H127 H 0.15637 0.01979 0.72711 0.0
O128 O 0.09951 0.86669 0.80363 0.0
O129 O 0.06063 0.90901 0.72699 0.0
O130 O 1.00719 0.92607 0.71932 0.0
O131 O 0.08341 0.91168 0.83009 0.0
O132 O 0.05879 0.84445 0.76292 0.0
O133 O 0.03654 0.85264 0.71013 0.0
O134 O 0.93982 0.88944 0.68504 0.0
O135 O 0.97761 0.84838 0.76755 0.0
O136 O 0.01814 0.86628 0.80664 0.0
O137 O 0.98999 0.89035 0.6638 0.0
O138 O 0.97366 0.91988 0.74883 0.0
O139 O 1.00429 0.91445 0.79847 0.0
C140 C 0.03911 0.92957 0.71276 0.0
C141 C 0.11593 0.87148 0.86134 0.0
C142 C 0.16106 0.84638 0.89529 0.0
C143 C 0.14011 0.8486 0.92372 0.0
C144 C 0.09535 0.87303 0.89009 0.0
C145 C 0.10749 0.86174 0.92108 0.0
C146 C 0.14887 0.8579 0.86401 0.0
C147 C 0.05221 0.83369 0.73243 0.0
C148 C 0.10471 0.8865 0.8292 0.0
C149 C 0.11192 0.02578 0.75758 0.0
C150 C 0.13594 1.00683 0.73972 0.0
C151 C 0.99163 0.84834 0.79797 0.0
C152 C 0.9451 0.8847 0.62529 0.0
C153 C 0.91389 0.89691 0.57338 0.0
C154 C 0.92881 0.86775 0.55895 0.0
C155 C 0.958 0.85522 0.61041 0.0
C156 C 0.9226 0.90544 0.60687 0.0
C157 C 0.94996 0.84687 0.57753 0.0
C158 C 0.97688 0.92386 0.78152 0.0
C159 C 0.95796 0.8956 0.65838 0.0
H160 H 0.14902 0.83994 0.94801 0.0
H161 H 0.07009 0.88345 0.88871 0.0
H162 H 0.0916 0.8633 0.94322 0.0
H163 H 0.16502 0.85662 0.84197 0.0
H164 H 0.92474 0.86101 0.53289 0.0
H165 H 0.97548 0.83928 0.62362 0.0
H166 H 0.91237 0.9281 0.61847 0.0
H167 H 0.96088 0.8245 0.56604 0.0
Eu168 Eu 0.39796 0.72848 0.95935 0.0
C169 C 0.3025 0.79691 0.06774 0.0
N170 N 0.31954 0.81055 0.04132 0.0
C171 C 0.27075 0.84301 0.02613 0.0
C172 C 0.26802 0.80395 0.07281 0.0
C173 C 0.30498 0.83531 0.02239 0.0
C174 C 0.25195 0.8266 0.05094 0.0
C175 C 0.30352 0.76355 0.11907 0.0
C176 C 0.32015 0.77761 0.09106 0.0
C177 C 0.26875 0.76893 0.12315 0.0
C178 C 0.25108 0.78924 0.10019 0.0
Eu179 Eu 0.37671 0.79439 0.03598 0.0
N180 N 0.35375 0.77263 0.08626 0.0
C181 C 0.32249 0.74487 0.14232 0.0
C182 C 0.37266 0.75645 0.10983 0.0
C183 C 0.35733 0.74178 0.13794 0.0
H184 H 0.31998 0.84984 1.00511 0.0
H185 H 0.3724 0.72831 0.15628 0.0
H186 H 0.46079 0.68492 1.00126 0.0
H187 H 0.40158 0.79929 0.84284 0.0
H188 H 0.39955 0.75545 0.10713 0.0
H189 H 0.31064 0.7335 0.16411 0.0
H190 H 0.37549 0.77717 0.89511 0.0
H191 H 0.25909 0.86203 0.01034 0.0
H192 H 0.25545 0.75814 0.14441 0.0
H193 H 0.22448 0.79403 0.10425 0.0
H194 H 0.52124 0.67598 0.99513 0.0
H195 H 0.2255 0.8328 0.05403 0.0
H196 H 0.46214 0.78902 0.83169 0.0
N197 N 0.4567 0.7186 0.95927 0.0
C198 C 0.47273 0.73111 0.93152 0.0
C199 C 0.50801 0.692 0.97739 0.0
C200 C 0.50739 0.72493 0.92625 0.0
C201 C 0.47354 0.69803 0.98128 0.0
C202 C 0.52508 0.70572 0.94995 0.0
N203 N 0.42131 0.75628 0.91337 0.0
C204 C 0.4021 0.77332 0.89049 0.0
C205 C 0.47016 0.76126 0.87804 0.0
C206 C 0.45438 0.74937 0.90755 0.0
C207 C 0.45086 0.77944 0.85462 0.0
C208 C 0.4167 0.78551 0.8609 0.0
H209 H 0.55171 0.70047 0.94676 0.0
H210 H 0.54982 0.73279 0.89279 0.0
H211 H 0.51726 0.76442 0.85066 0.0
O212 O 0.36877 0.71027 0.91643 0.0
O213 O 0.41688 0.78296 0.95863 0.0
O214 O 0.42907 0.78978 0.01376 0.0
O215 O 0.40933 0.67958 0.93611 0.0
O216 O 0.3478 0.75628 0.95715 0.0
O217 O 0.35993 0.80728 0.98244 0.0
O218 O 0.39689 0.82149 0.07933 0.0
O219 O 0.34573 0.74529 0.03767 0.0
O220 O 0.35903 0.70783 0.99387 0.0
O221 O 0.38379 0.84922 0.03433 0.0
O222 O 0.42097 0.75829 0.04066 0.0
O223 O 0.40869 0.70867 0.01314 0.0
C224 C 0.43555 0.79646 0.9822 0.0
C225 C 0.3679 0.65197 0.90309 0.0
C226 C 0.34593 0.6163 0.85812 0.0
C227 C 0.33421 0.59346 0.88252 0.0
C228 C 0.35597 0.62898 0.9271 0.0
C229 C 0.33933 0.59974 0.91675 0.0
C230 C 0.36296 0.64554 0.86859 0.0
C231 C 0.34128 0.78852 0.96238 0.0
C232 C 0.38616 0.68251 0.91313 0.0
C233 C 0.52322 0.73732 0.89714 0.0
C234 C 0.50465 0.75521 0.87305 0.0
C235 C 0.34158 0.71697 0.02047 0.0
C236 C 0.38191 0.87892 0.08604 0.0
C237 C 0.39134 0.93178 0.11613 0.0
C238 C 0.35732 0.93229 0.12575 0.0
C239 C 0.34801 0.87973 0.09603 0.0
C240 C 0.40367 0.90498 0.09626 0.0
C241 C 0.33582 0.90635 0.11579 0.0
C242 C 0.41929 0.72512 0.04017 0.0
C243 C 0.39496 0.8511 0.06512 0.0
H244 H 0.32131 0.57058 0.87504 0.0
H245 H 0.35965 0.63357 0.95373 0.0
H246 H 0.33036 0.58186 0.9353 0.0
H247 H 0.37204 0.6634 0.84997 0.0
H248 H 0.34741 0.9529 0.14089 0.0
H249 H 0.33099 0.85986 0.08863 0.0
H250 H 0.4299 0.9046 0.08853 0.0
H251 H 0.3096 0.90694 0.12332 0.0
Eu252 Eu 0.45765 0.11671 0.27745 0.0
C253 C 0.56353 0.21544 0.21337 0.0
N254 N 0.53812 0.19809 0.19851 0.0
C255 C 0.52175 0.2476 0.16776 0.0
C256 C 0.56771 0.25032 0.20741 0.0
C257 C 0.51862 0.21309 0.17459 0.0
C258 C 0.54597 0.26649 0.18477 0.0
C259 C 0.61331 0.21516 0.24878 0.0
C260 C 0.58636 0.19796 0.23347 0.0
C261 C 0.61654 0.25022 0.24421 0.0
C262 C 0.59389 0.26773 0.22347 0.0
Eu263 Eu 0.53334 0.1408 0.21416 0.0
N264 N 0.58258 0.16404 0.23753 0.0
C265 C 0.63647 0.1965 0.26786 0.0
C266 C 0.60606 0.14555 0.25442 0.0
C267 C 0.63309 0.16144 0.27026 0.0
H268 H 0.50098 0.19838 0.16035 0.0
H269 H 0.65142 0.1466 0.28406 0.0
H270 H 0.48873 0.05591 0.32984 0.0
H271 H 0.34958 0.11266 0.19387 0.0
H272 H 0.60432 0.11862 0.25514 0.0
H273 H 0.65747 0.20879 0.28009 0.0
H274 H 0.3961 0.13967 0.22537 0.0
H275 H 0.50569 0.25951 0.1492 0.0
H276 H 0.63691 0.26392 0.25603 0.0
H277 H 0.59723 0.29462 0.21951 0.0
H278 H 0.48238 0.99482 0.3384 0.0
H279 H 0.54843 0.29323 0.17939 0.0
H280 H 0.34129 0.05074 0.19779 0.0
N281 N 0.45392 0.05825 0.289 0.0
C282 C 0.42963 0.04154 0.27162 0.0
C283 C 0.46775 0.00754 0.3192 0.0
C284 C 0.42422 1.0067 0.27683 0.0
C285 C 0.47184 0.04216 0.31365 0.0
C286 C 0.44412 0.98963 0.30046 0.0
N287 N 0.4145 0.09316 0.24497 0.0
C288 C 0.39271 0.11258 0.22665 0.0
C289 C 0.38297 0.0431 0.23208 0.0
C290 C 0.40917 0.0595 0.24934 0.0
C291 C 0.36179 0.06244 0.21139 0.0
C292 C 0.3664 0.0974 0.20904 0.0
H293 H 0.44076 0.96285 0.3051 0.0
H294 H 0.39448 0.96328 0.26236 0.0
H295 H 0.35838 0.99513 0.22328 0.0
O296 O 0.42209 0.15374 0.29892 0.0
O297 O 0.4598 0.10089 0.22272 0.0
O298 O 0.51461 0.08701 0.2175 0.0
O299 O 0.42623 0.10384 0.32053 0.0
O300 O 0.45563 0.16866 0.25255 0.0
O301 O 0.4801 0.15733 0.20126 0.0
O302 O 0.57759 0.13233 0.18119 0.0
O303 O 0.52604 0.17394 0.26205 0.0
O304 O 0.5015 0.14045 0.30323 0.0
O305 O 0.52698 0.1245 0.16263 0.0
O306 O 0.5461 0.09677 0.24782 0.0
O307 O 0.51056 0.09842 0.29483 0.0
C308 C 0.48308 0.08007 0.21216 0.0
C309 C 0.40206 0.14611 0.35494 0.0
C310 C 0.35852 0.16461 0.39459 0.0
C311 C 0.38324 0.1665 0.41985 0.0
C312 C 0.42632 0.14834 0.38037 0.0
C313 C 0.41684 0.15849 0.41271 0.0
C314 C 0.36824 0.15425 0.36206 0.0
C315 C 0.45945 0.17515 0.22031 0.0
C316 C 0.41077 0.13286 0.32155 0.0
C317 C 0.39881 0.99009 0.25882 0.0
C318 C 0.37824 0.00823 0.23654 0.0
C319 C 0.5208 0.16571 0.29401 0.0
C320 C 0.56867 0.1331 0.12129 0.0
C321 C 0.59672 0.11918 0.06786 0.0
C322 C 0.57679 0.14436 0.05225 0.0
C323 C 0.55055 0.15883 0.10506 0.0
C324 C 0.59215 0.1135 0.10274 0.0
C325 C 0.55456 0.16431 0.07079 0.0
C326 C 0.53896 0.08913 0.27928 0.0
C327 C 0.5591 0.1231 0.15572 0.0
H328 H 0.37652 0.17375 0.44531 0.0
H329 H 0.45238 0.14175 0.37531 0.0
H330 H 0.43553 0.15985 0.43244 0.0
H331 H 0.34955 0.15246 0.34228 0.0
H332 H 0.57773 0.14849 0.02534 0.0
H333 H 0.53197 0.17363 0.11843 0.0
H334 H 0.60614 0.09361 0.11533 0.0
H335 H 0.53961 0.18351 0.05831 0.0
Eu336 Eu 0.64519 0.30639 0.48134 0.0
C337 C 0.54759 0.20155 0.55384 0.0
N338 N 0.56471 0.22908 0.56491 0.0
C339 C 0.51567 0.24845 0.59476 0.0
C340 C 0.51306 0.19759 0.56116 0.0
C341 C 0.54998 0.25095 0.5872 0.0
C342 C 0.49691 0.2221 0.58099 0.0
C343 C 0.54873 0.14612 0.52739 0.0
C344 C 0.56522 0.17597 0.53737 0.0
C345 C 0.51394 0.14298 0.5329 0.0
C346 C 0.49614 0.16865 0.54974 0.0
Eu347 Eu 0.62191 0.23184 0.54836 0.0
N348 N 0.59878 0.17981 0.53207 0.0
C349 C 0.56788 0.12009 0.51273 0.0
C350 C 0.61785 0.15413 0.51915 0.0
C351 C 0.60268 0.12392 0.50913 0.0
H352 H 0.56457 0.27044 0.59931 0.0
H353 H 0.61782 0.1035 0.49891 0.0
H354 H 0.7075 0.27108 0.43272 0.0
H355 H 0.6476 0.41746 0.56209 0.0
H356 H 0.64481 0.1569 0.51712 0.0
H357 H 0.55619 0.0967 0.50484 0.0
H358 H 0.62122 0.36932 0.53213 0.0
H359 H 0.50384 0.26662 0.61148 0.0
H360 H 0.50074 0.12041 0.52502 0.0
H361 H 0.46952 0.1654 0.55476 0.0
H362 H 0.76832 0.27739 0.42513 0.0
H363 H 0.4704 0.22003 0.58714 0.0
H364 H 0.70918 0.42612 0.55794 0.0
N365 N 0.70376 0.30851 0.47147 0.0
C366 C 0.71976 0.33425 0.48763 0.0
C367 C 0.75508 0.29319 0.44315 0.0
C368 C 0.75455 0.33961 0.48275 0.0
C369 C 0.72055 0.2891 0.44828 0.0
C370 C 0.77224 0.3183 0.46069 0.0
N371 N 0.66779 0.3506 0.51315 0.0
C372 C 0.64817 0.37299 0.53072 0.0
C373 C 0.71733 0.38304 0.52512 0.0
C374 C 0.70135 0.35593 0.5087 0.0
C375 C 0.69777 0.40497 0.54499 0.0
C376 C 0.66299 0.40015 0.54748 0.0
H377 H 0.79898 0.32158 0.45638 0.0
H378 H 0.79733 0.37046 0.49638 0.0
H379 H 0.76482 0.40838 0.53338 0.0
O380 O 0.61448 0.34833 0.4618 0.0
O381 O 0.66101 0.30647 0.53655 0.0
O382 O 0.67492 0.25184 0.54513 0.0
O383 O 0.6584 0.33134 0.43429 0.0
O384 O 0.59227 0.30648 0.50272 0.0
O385 O 0.60402 0.28634 0.55543 0.0
O386 O 0.64281 0.19069 0.57837 0.0
O387 O 0.59541 0.22561 0.4969 0.0
O388 O 0.61343 0.26609 0.45761 0.0
O389 O 0.6283 0.23743 0.60287 0.0
O390 O 0.66618 0.22112 0.51425 0.0
O391 O 0.66189 0.25292 0.46489 0.0
C392 C 0.68141 0.28377 0.54911 0.0
C393 C 0.61749 0.36217 0.40362 0.0
C394 C 0.59659 0.40643 0.36599 0.0
C395 C 0.59115 0.38158 0.3412 0.0
C396 C 0.61173 0.33785 0.37862 0.0
C397 C 0.59859 0.3476 0.34756 0.0
C398 C 0.60989 0.3964 0.39727 0.0
C399 C 0.58411 0.30251 0.53443 0.0
C400 C 0.6336 0.35294 0.43556 0.0
C401 C 0.7706 0.36618 0.4997 0.0
C402 C 0.75207 0.38778 0.52081 0.0
C403 C 0.59558 0.23942 0.46633 0.0
C404 C 0.63021 0.18742 0.63608 0.0
C405 C 0.64523 0.15545 0.68636 0.0
C406 C 0.61122 0.14699 0.69073 0.0
C407 C 0.59632 0.17883 0.6408 0.0
C408 C 0.65467 0.17582 0.65899 0.0
C409 C 0.58692 0.15877 0.66815 0.0
C410 C 0.67052 0.22525 0.48171 0.0
C411 C 0.64088 0.20709 0.60668 0.0
H412 H 0.58157 0.38847 0.31663 0.0
H413 H 0.61796 0.31151 0.3829 0.0
H414 H 0.59448 0.32882 0.32818 0.0
H415 H 0.61437 0.41514 0.41668 0.0
H416 H 0.60346 0.13149 0.71183 0.0
H417 H 0.57727 0.1874 0.62329 0.0
H418 H 0.68095 0.18229 0.65536 0.0
H419 H 0.56073 0.15222 0.6718 0.0
Eu420 Eu 0.02818 0.36687 0.81006 0.0
C421 C 0.95684 0.46839 0.70845 0.0
N422 N 0.94439 0.44936 0.73404 0.0
C423 C 0.91338 0.49733 0.75483 0.0
C424 C 0.94947 0.50327 0.70621 0.0
C425 C 0.92093 0.46275 0.75555 0.0
C426 C 0.92835 0.51787 0.73053 0.0
C427 C 0.98532 0.47069 0.65438 0.0
C428 C 0.97441 0.45233 0.68276 0.0
C429 C 0.97988 0.50579 0.65307 0.0
C430 C 0.962 0.52206 0.67896 0.0
Eu431 Eu 0.96207 0.39192 0.73496 0.0
N432 N 0.97901 0.41834 0.68458 0.0
C433 C 1.00021 0.45299 0.6276 0.0
C434 C 0.9916 0.40072 0.65782 0.0
C435 C 1.00268 0.41776 0.62905 0.0
H436 H 0.90808 0.44691 0.77357 0.0
H437 H 0.01275 0.40374 0.60787 0.0
H438 H 0.07937 0.30424 0.77806 0.0
H439 H 0.95208 0.36478 0.92376 0.0
H440 H 0.99272 0.37344 0.65849 0.0
H441 H 0.00871 0.46613 0.60524 0.0
H442 H 0.98145 0.39117 0.87521 0.0
H443 H 0.89575 0.50803 0.77281 0.0
H444 H 0.98838 0.52039 0.63162 0.0
H445 H 0.95691 0.54895 0.67702 0.0
H446 H 0.08393 0.24247 0.78172 0.0
H447 H 0.92216 0.54459 0.72977 0.0
H448 H 0.95295 0.30249 0.93038 0.0
N449 N 0.03783 0.30775 0.81232 0.0
C450 C 0.01994 0.2913 0.83655 0.0
C451 C 0.06539 0.25579 0.79683 0.0
C452 C 0.02311 0.25596 0.84064 0.0
C453 C 0.06203 0.29087 0.79422 0.0
C454 C 0.04534 0.23814 0.81965 0.0
N455 N 0.99719 0.34407 0.85468 0.0
C456 C 0.98158 0.36396 0.87817 0.0
C457 C 0.98367 0.29394 0.886 0.0
C458 C 1.00006 0.31002 0.85894 0.0
C459 C 0.96584 0.31393 0.90923 0.0
C460 C 0.96518 0.34912 0.90554 0.0
H461 H 0.04838 0.21098 0.82197 0.0
H462 H 1.00699 0.2125 0.86961 0.0
H463 H 0.97276 0.24575 0.90943 0.0
O464 O 0.05238 0.40327 0.84474 0.0
O465 O 0.97248 0.35422 0.8115 0.0
O466 O 0.9638 0.33914 0.75759 0.0
O467 O 0.07022 0.35188 0.84163 0.0
O468 O 1.00646 0.42033 0.80987 0.0
O469 O 0.95385 0.40952 0.78908 0.0
O470 O 0.93447 0.36875 0.69359 0.0
O471 O 0.01336 0.41998 0.73324 0.0
O472 O 0.05374 0.39144 0.76615 0.0
O473 O 0.90696 0.38694 0.73677 0.0
O474 O 0.99915 0.35205 0.71838 0.0
O475 O 0.04322 0.34607 0.75748 0.0
C476 C 0.95889 0.3338 0.7896 0.0
C477 C 0.10784 0.39091 0.86612 0.0
C478 C 0.14722 0.41332 0.90804 0.0
C479 C 0.17405 0.40159 0.88787 0.0
C480 C 0.13525 0.38042 0.84624 0.0
C481 C 0.16809 0.38549 0.85726 0.0
C482 C 0.11387 0.40741 0.89722 0.0
C483 C 0.97477 0.42897 0.80581 0.0
C484 C 0.07337 0.38088 0.85661 0.0
C485 C 1.00514 0.23967 0.86639 0.0
C486 C 0.98572 0.25862 0.88916 0.0
C487 C 0.04487 0.4137 0.74303 0.0
C488 C 0.87819 0.38473 0.68427 0.0
C489 C 0.82831 0.37299 0.65029 0.0
C490 C 0.82968 0.40604 0.63754 0.0
C491 C 0.87899 0.41767 0.67126 0.0
C492 C 0.85267 0.36232 0.67379 0.0
C493 C 0.8548 0.42823 0.64805 0.0
C494 C 0.02876 0.34037 0.72779 0.0
C495 C 0.90493 0.37291 0.70712 0.0
H496 H 0.1999 0.40507 0.89578 0.0
H497 H 0.13126 0.36744 0.82256 0.0
H498 H 0.18909 0.37675 0.84208 0.0
H499 H 0.09285 0.41557 0.91276 0.0
H500 H 0.81103 0.41476 0.61962 0.0
H501 H 0.89849 0.4351 0.6788 0.0
H502 H 0.8519 0.33676 0.68366 0.0
H503 H 0.85555 0.45369 0.63809 0.0
Eu504 Eu 0.86389 0.71555 0.98089 0.0
C505 C 0.97458 0.80249 0.06375 0.0
N506 N 0.95341 0.77777 0.07437 0.0
C507 C 0.99678 0.75416 0.10909 0.0
C508 C 0.00812 0.80366 0.07526 0.0
C509 C 0.96369 0.75422 0.09725 0.0
C510 C 0.01915 0.77892 0.09796 0.0
C511 C 0.9845 0.85227 0.02937 0.0
C512 C 0.96287 0.82655 0.04107 0.0
C513 C 0.01779 0.85362 0.04101 0.0
C514 C 0.0296 0.82934 0.0638 0.0
Eu515 Eu 0.89817 0.77963 0.0532 0.0
N516 N 0.93093 0.82381 0.02915 0.0
C517 C 0.97235 0.87538 1.00559 0.0
C518 C 0.91963 0.84551 1.00487 0.0
C519 C 0.93983 0.87177 0.99307 0.0
H520 H 0.94612 0.73581 0.10684 0.0
H521 H 0.9307 0.88846 0.97348 0.0
H522 H 0.80162 0.74959 0.93577 0.0
H523 H 0.86446 0.60709 0.06643 0.0
H524 H 0.89653 0.84057 0.99219 0.0
H525 H 0.98824 0.89537 0.99592 0.0
H526 H 0.88938 0.65414 0.03487 0.0
H527 H 1.00492 0.73523 0.12702 0.0
H528 H 0.03476 0.8731 0.03218 0.0
H529 H 0.05545 0.83057 0.07235 0.0
H530 H 0.74125 0.73904 0.92482 0.0
H531 H 0.04478 0.77889 0.10726 0.0
H532 H 0.8041 0.59372 0.05939 0.0
N533 N 0.80664 0.70809 0.96934 0.0
C534 C 0.79166 0.68141 0.98474 0.0
C535 C 0.75511 0.72273 0.94179 0.0
C536 C 0.75734 0.6745 0.97929 0.0
C537 C 0.78914 0.72878 0.94817 0.0
C538 C 0.73913 0.69547 0.9574 0.0
N539 N 0.84335 0.66946 0.01243 0.0
C540 C 0.86291 0.64965 0.03261 0.0
C541 C 0.79528 0.63425 0.02378 0.0
C542 C 0.81048 0.66153 1.00683 0.0
C543 C 0.81487 0.61486 0.04586 0.0
C544 C 0.8489 0.62244 0.05006 0.0
H545 H 0.71271 0.69091 0.95248 0.0
H546 H 0.71586 0.64152 0.99216 0.0
H547 H 0.74902 0.60633 0.03106 0.0
O548 O 0.89281 0.67417 0.9558 0.0
O549 O 0.82968 0.72654 0.02537 0.0
O550 O 0.86803 0.73287 0.06755 0.0
O551 O 0.85384 0.70215 0.92875 0.0
O552 O 0.91619 0.70613 1.00415 0.0
O553 O 0.9065 0.72414 0.05769 0.0
O554 O 0.86811 0.81973 0.07745 0.0
O555 O 0.92764 0.77725 1.00228 0.0
O556 O 0.88863 0.76191 0.96211 0.0
O557 O 0.90022 0.78766 0.10742 0.0
O558 O 0.84831 0.79086 0.02865 0.0
O559 O 0.84847 0.77219 0.97358 0.0
C560 C 0.83709 0.72702 0.05745 0.0
C561 C 0.88127 0.65687 0.89691 0.0
C562 C 0.90513 0.60848 0.86547 0.0
C563 C 0.88697 0.61895 0.83706 0.0
C564 C 0.86368 0.66637 0.86772 0.0
C565 C 0.8665 0.64759 0.83821 0.0
C566 C 0.90224 0.62751 0.89575 0.0
C567 C 0.92509 0.70779 0.03599 0.0
C568 C 0.87574 0.67749 0.92799 0.0
C569 C 0.74222 0.64723 0.99605 0.0
C570 C 0.76111 0.6272 0.01824 0.0
C571 C 0.91786 0.77423 0.97044 0.0
C572 C 0.88592 0.84059 0.13087 0.0
C573 C 0.87021 0.87423 0.18024 0.0
C574 C 0.90137 0.89075 0.17822 0.0
C575 C 0.91696 0.85726 0.12946 0.0
C576 C 0.86259 0.84893 0.1565 0.0
C577 C 0.9246 0.88218 0.15311 0.0
C578 C 0.84157 0.79566 0.99687 0.0
C579 C 0.87871 0.81256 0.10765 0.0
H580 H 0.88879 0.60486 0.81369 0.0
H581 H 0.84739 0.68845 0.86761 0.0
H582 H 0.85269 0.65531 0.81603 0.0
H583 H 0.91604 0.61959 0.9179 0.0
H584 H 0.90798 0.90991 0.19654 0.0
H585 H 0.93542 0.85064 0.11041 0.0
H586 H 0.83881 0.83565 0.15813 0.0
H587 H 0.94875 0.89471 0.15217 0.0
Eu588 Eu 0.47171 0.64571 0.30201 0.0
C589 C 0.55092 0.55003 0.20458 0.0
N590 N 0.56283 0.56823 0.23104 0.0
C591 C 0.59418 0.52 0.25026 0.0
C592 C 0.55813 0.51516 0.20166 0.0
C593 C 0.58664 0.55454 0.25181 0.0
C594 C 0.57901 0.49997 0.22571 0.0
C595 C 0.5239 0.54904 0.14971 0.0
C596 C 0.53425 0.56683 0.1786 0.0
C597 C 0.52885 0.51388 0.14801 0.0
C598 C 0.54591 0.49698 0.17391 0.0
Eu599 Eu 0.54616 0.62568 0.23193 0.0
N600 N 0.52936 0.60084 0.18096 0.0
C601 C 0.50964 0.56728 0.123 0.0
C602 C 0.51703 0.61903 0.15448 0.0
C603 C 0.50669 0.6025 0.12519 0.0
H604 H 0.59961 0.57014 0.26993 0.0
H605 H 0.49629 0.61687 0.10446 0.0
H606 H 0.43688 0.71361 0.25953 0.0
H607 H 0.53007 0.64115 0.4256 0.0
H608 H 0.51503 0.64621 0.1562 0.0
H609 H 0.50142 0.55451 0.10035 0.0
H610 H 0.50923 0.61759 0.3717 0.0
H611 H 0.61194 0.50893 0.26777 0.0
H612 H 0.52056 0.49968 0.12624 0.0
H613 H 0.55072 0.47007 0.17158 0.0
H614 H 0.43532 0.77494 0.26503 0.0
H615 H 0.58512 0.47325 0.22438 0.0
H616 H 0.52752 0.70291 0.43568 0.0
N617 N 0.46775 0.70559 0.30297 0.0
C618 C 0.47976 0.72011 0.33172 0.0
C619 C 0.44854 0.7599 0.28359 0.0
C620 C 0.47781 0.75547 0.33654 0.0
C621 C 0.45047 0.7248 0.28007 0.0
C622 C 0.46271 0.77537 0.31166 0.0
N623 N 0.49577 0.6657 0.35192 0.0
C624 C 0.50822 0.64459 0.37614 0.0
C625 C 0.50488 0.71408 0.38736 0.0
C626 C 0.49319 0.69965 0.35712 0.0
C627 C 0.51824 0.6927 0.41217 0.0
C628 C 0.51986 0.65782 0.40655 0.0
H629 H 0.46073 0.80258 0.31449 0.0
H630 H 0.48893 0.797 0.37028 0.0
H631 H 0.5126 0.76083 0.41464 0.0
O632 O 0.44581 0.6214 0.34517 0.0
O633 O 0.52692 0.66035 0.31113 0.0
O634 O 0.54455 0.67607 0.25894 0.0
O635 O 0.41816 0.65471 0.31141 0.0
O636 O 0.49651 0.59441 0.30404 0.0
O637 O 0.55088 0.60427 0.28547 0.0
O638 O 0.57428 0.64809 0.19 0.0
O639 O 0.49312 0.60572 0.21922 0.0
O640 O 0.4667 0.59805 0.27061 0.0
O641 O 0.6006 0.6327 0.2349 0.0
O642 O 0.51334 0.67266 0.23142 0.0
O643 O 0.45939 0.66116 0.24715 0.0
C644 C 0.54567 0.6795 0.29166 0.0
C645 C 0.38615 0.632 0.35897 0.0
C646 C 0.35405 0.60917 0.40701 0.0
C647 C 0.32645 0.62917 0.39721 0.0
C648 C 0.35777 0.65135 0.35007 0.0
C649 C 0.32834 0.65001 0.36909 0.0
C650 C 0.38432 0.61082 0.38793 0.0
C651 C 0.52838 0.58557 0.30129 0.0
C652 C 0.41747 0.63647 0.33874 0.0
C653 C 0.4901 0.76988 0.36636 0.0
C654 C 0.50344 0.74927 0.39172 0.0
C655 C 0.4677 0.5945 0.23772 0.0
C656 C 0.63136 0.63176 0.18385 0.0
C657 C 0.68162 0.64182 0.14985 0.0
C658 C 0.68691 0.60677 0.14762 0.0
C659 C 0.6367 0.59678 0.18072 0.0
C660 C 0.65363 0.65433 0.16789 0.0
C661 C 0.6644 0.58441 0.16275 0.0
C662 C 0.48111 0.67262 0.22462 0.0
C663 C 0.60341 0.64495 0.20456 0.0
H664 H 0.30311 0.62853 0.41142 0.0
H665 H 0.35836 0.66805 0.32847 0.0
H666 H 0.3068 0.66527 0.36195 0.0
H667 H 0.40591 0.59572 0.39536 0.0
H668 H 0.70825 0.5967 0.13371 0.0
H669 H 0.61969 0.57904 0.1924 0.0
H670 H 0.64954 0.68141 0.16993 0.0
H671 H 0.66849 0.5574 0.1606 0.0
Eu672 Eu 0.28539 0.46388 0.11746 0.0
C673 C 0.20944 0.55633 0.22053 0.0
N674 N 0.19644 0.53143 0.20084 0.0
C675 C 0.16447 0.51055 0.24765 0.0
C676 C 0.20164 0.55816 0.25513 0.0
C677 C 0.17255 0.51008 0.21337 0.0
C678 C 0.17966 0.53419 0.26878 0.0
C679 C 0.23915 0.60984 0.22442 0.0
C680 C 0.22792 0.58201 0.20545 0.0
C681 C 0.23326 0.61058 0.25927 0.0
C682 C 0.21456 0.58479 0.27459 0.0
Eu683 Eu 0.21339 0.53275 0.14372 0.0
N684 N 0.23304 0.58087 0.17168 0.0
C685 C 0.25462 0.63677 0.20752 0.0
C686 C 0.24505 0.60822 0.15468 0.0
C687 C 0.25692 0.63627 0.17238 0.0
H688 H 0.15955 0.49264 0.19704 0.0
H689 H 0.26744 0.65758 0.15894 0.0
H690 H 0.3338 0.5027 0.05925 0.0
H691 H 0.20213 0.35522 0.10562 0.0
H692 H 0.24556 0.60808 0.12751 0.0
H693 H 0.26354 0.65867 0.2212 0.0
H694 H 0.2346 0.39899 0.13592 0.0
H695 H 0.14626 0.49289 0.25767 0.0
H696 H 0.24197 0.63159 0.27438 0.0
H697 H 0.2091 0.5864 0.30128 0.0
H698 H 0.34339 0.49987 0.99795 0.0
H699 H 0.17303 0.53474 0.29525 0.0
H700 H 0.20723 0.35038 0.04367 0.0
N701 N 0.29766 0.46313 0.05944 0.0
C702 C 0.28177 0.43874 0.0413 0.0
C703 C 0.3258 0.48274 0.0098 0.0
C704 C 0.28657 0.43626 1.0062 0.0
C705 C 0.32005 0.48449 0.0445 0.0
C706 C 0.30881 0.45871 0.99052 0.0
N707 N 0.25525 0.4199 0.09163 0.0
C708 C 0.23575 0.39771 0.10894 0.0
C709 C 0.24259 0.3917 0.03944 0.0
C710 C 0.26001 0.41658 0.05779 0.0
C711 C 0.22111 0.3698 0.05688 0.0
C712 C 0.21799 0.37258 0.09183 0.0
H713 H 0.31324 0.45754 0.96362 0.0
H714 H 0.27223 0.40951 0.96085 0.0
H715 H 0.23369 0.37065 0.98988 0.0
O716 O 0.3073 0.41497 0.13218 0.0
O717 O 0.24279 0.4807 0.08267 0.0
O718 O 0.19623 0.48563 0.11597 0.0
O719 O 0.33996 0.45601 0.11472 0.0
O720 O 0.25654 0.45217 0.16563 0.0
O721 O 0.20473 0.47808 0.15883 0.0
O722 O 0.18662 0.55821 0.10248 0.0
O723 O 0.2669 0.542 0.16358 0.0
O724 O 0.29179 0.48936 0.16813 0.0
O725 O 0.16722 0.56108 0.15303 0.0
O726 O 0.2472 0.54257 0.09833 0.0
O727 O 0.29993 0.51911 0.10814 0.0
C728 C 0.21029 0.47692 0.08731 0.0
C729 C 0.36771 0.40293 0.1308 0.0
C730 C 0.39508 0.35174 0.15269 0.0
C731 C 0.42582 0.36309 0.13948 0.0
C732 C 0.39889 0.41355 0.11799 0.0
C733 C 0.42767 0.39376 0.12236 0.0
C734 C 0.36583 0.37178 0.1484 0.0
C735 C 0.22536 0.458 0.17536 0.0
C736 C 0.33786 0.42502 0.12597 0.0
C737 C 0.26901 0.41163 0.98787 0.0
C738 C 0.24705 0.38948 1.00442 0.0
C739 C 0.29043 0.52168 0.17546 0.0
C740 C 0.12757 0.5621 0.10995 0.0
C741 C 0.07406 0.58379 0.08906 0.0
C742 C 0.05946 0.55206 0.09525 0.0
C743 C 0.11271 0.53044 0.11551 0.0
C744 C 0.10833 0.58867 0.09625 0.0
C745 C 0.07877 0.52552 0.10815 0.0
C746 C 0.28031 0.54412 0.0975 0.0
C747 C 0.16193 0.56842 0.12166 0.0
H748 H 0.44859 0.3482 0.14268 0.0
H749 H 0.4011 0.43726 0.10453 0.0
H750 H 0.45159 0.40227 0.11245 0.0
H751 H 0.34201 0.3632 0.1586 0.0
H752 H 0.03305 0.54782 0.09001 0.0
H753 H 0.12716 0.50983 0.12634 0.0
H754 H 0.1196 0.61332 0.09245 0.0
H755 H 0.06727 0.50121 0.11289 0.0
Eu756 Eu 0.78593 0.04902 0.89651 0.0
C757 C 0.70246 0.95033 0.79261 0.0
N758 N 0.69224 0.97808 0.81023 0.0
C759 C 0.65339 0.99306 0.76658 0.0
C760 C 0.68899 0.94359 0.76047 0.0
C761 C 0.66752 0.99894 0.79816 0.0
C762 C 0.66431 0.9654 0.74755 0.0
C763 C 0.73854 0.9006 0.7876 0.0
C764 C 0.72658 0.92853 0.80647 0.0
C765 C 0.72508 0.89399 0.75566 0.0
C766 C 0.70031 0.9153 0.74223 0.0
Eu767 Eu 0.71463 0.98289 0.86451 0.0
N768 N 0.73942 0.93533 0.83753 0.0
C769 C 0.76438 0.88051 0.80094 0.0
C770 C 0.76596 0.9169 0.84957 0.0
C771 C 0.77852 0.88907 0.83181 0.0
H772 H 0.65866 0.02027 0.81281 0.0
H773 H 0.7997 0.87479 0.84156 0.0
H774 H 0.82524 0.00982 0.96104 0.0
H775 H 0.7308 0.17498 0.89366 0.0
H776 H 0.77936 0.92522 0.87134 0.0
H777 H 0.77439 0.85907 0.78706 0.0
H778 H 0.75438 0.12176 0.86983 0.0
H779 H 0.63408 0.00985 0.75695 0.0
H780 H 0.73391 0.87258 0.74098 0.0
H781 H 0.69022 0.90981 0.71752 0.0
H782 H 0.82727 0.01353 0.02283 0.0
H783 H 0.65335 0.96097 0.72301 0.0
H784 H 0.72698 0.1821 0.95553 0.0
N785 N 0.79109 0.05118 0.95571 0.0
C786 C 0.77642 0.07819 0.97116 0.0
C787 C 0.81234 0.03154 0.00868 0.0
C788 C 0.77816 0.08225 1.00636 0.0
C789 C 0.81043 0.029 0.97366 0.0
C790 C 0.79566 0.05798 0.0252 0.0
N791 N 0.76179 0.09911 0.9176 0.0
C792 C 0.75228 0.12487 0.89677 0.0
C793 C 0.74901 0.13301 0.96625 0.0
C794 C 0.7619 0.10321 0.95147 0.0
C795 C 0.7371 0.15881 0.94514 0.0
C796 C 0.73919 0.1549 0.9102 0.0
H797 H 0.79766 0.06022 0.0523 0.0
H798 H 0.76456 0.11447 0.04849 0.0
H799 H 0.73904 0.15894 0.01333 0.0
O800 O 0.8159 0.07883 0.86013 0.0
O801 O 0.73037 0.05956 0.90161 0.0
O802 O 0.71017 0.00826 0.91604 0.0
O803 O 0.8351 0.06911 0.91066 0.0
O804 O 0.76648 0.05554 0.84263 0.0
O805 O 0.7115 0.03623 0.84464 0.0
O806 O 0.68016 0.9394 0.8762 0.0
O807 O 0.76597 0.98555 0.83559 0.0
O808 O 0.8028 0.99889 0.8779 0.0
O809 O 0.66195 0.99167 0.86947 0.0
O810 O 0.7352 0.97325 0.91606 0.0
O811 O 0.78984 0.99263 0.91607 0.0
C812 C 0.71086 0.04103 0.92044 0.0
C813 C 0.87045 0.10388 0.87456 0.0
C814 C 0.90019 0.15265 0.85067 0.0
C815 C 0.92996 0.14105 0.86581 0.0
C816 C 0.9007 0.09311 0.88934 0.0
C817 C 0.93019 0.1115 0.88488 0.0
C818 C 0.87018 0.13387 0.85491 0.0
C819 C 0.73593 0.05294 0.82988 0.0
C820 C 0.83947 0.08451 0.88206 0.0
C821 C 0.76369 0.11105 0.02145 0.0
C822 C 0.74922 0.13642 1.00143 0.0
C823 C 0.79711 0.98782 0.84758 0.0
C824 C 0.6182 0.95185 0.88153 0.0
C825 C 0.57197 0.91605 0.90138 0.0
C826 C 0.5493 0.9426 0.895 0.0
C827 C 0.59434 0.9775 0.87478 0.0
C828 C 0.60679 0.92054 0.89471 0.0
C829 C 0.56038 0.97293 0.88162 0.0
C830 C 0.76664 0.96967 0.92462 0.0
C831 C 0.6543 0.96028 0.87604 0.0
H832 H 0.9532 0.15503 0.86285 0.0
H833 H 0.90153 0.07038 0.90456 0.0
H834 H 0.95335 0.10289 0.89644 0.0
H835 H 0.84694 0.14278 0.84363 0.0
H836 H 0.52257 0.93951 0.89974 0.0
H837 H 0.60184 1.00165 0.86438 0.0
H838 H 0.6245 0.90021 0.8997 0.0
H839 H 0.54253 0.99303 0.8764 0.0
Eu840 Eu 0.72528 0.96281 0.39634 0.0
C841 C 0.80756 0.06301 0.30002 0.0
N842 N 0.8195 0.03738 0.31963 0.0
C843 C 0.85901 0.02149 0.27663 0.0
C844 C 0.82004 0.06774 0.26709 0.0
C845 C 0.84578 0.01758 0.30903 0.0
C846 C 0.84571 0.04628 0.25537 0.0
C847 C 0.77145 0.11256 0.29353 0.0
C848 C 0.78389 0.08566 0.31331 0.0
C849 C 0.78297 0.11644 0.26033 0.0
C850 C 0.80726 0.0942 0.2472 0.0
Eu851 Eu 0.79609 0.03455 0.374 0.0
N852 N 0.77306 0.08146 0.34557 0.0
C853 C 0.74799 0.135 0.30781 0.0
C854 C 0.75107 0.1038 0.3599 0.0
C855 C 0.73792 0.1307 0.34122 0.0
H856 H 0.85665 0.99878 0.32556 0.0
H857 H 0.72006 0.14808 0.35263 0.0
H858 H 0.68444 1.00038 0.46273 0.0
H859 H 0.78073 0.83763 0.38853 0.0
H860 H 0.74332 0.10053 0.38542 0.0
H861 H 0.73777 0.15591 0.29338 0.0
H862 H 0.75991 0.89285 0.36698 0.0
H863 H 0.87944 1.00538 0.26807 0.0
H864 H 0.77361 0.1369 0.24474 0.0
H865 H 0.81639 0.098 0.22176 0.0
H866 H 0.67967 0.99272 0.52356 0.0
H867 H 0.856 0.04919 0.23026 0.0
H868 H 0.77921 0.82596 0.44978 0.0
N869 N 0.71778 0.9583 0.4554 0.0
C870 C 0.73076 0.92979 0.46962 0.0
C871 C 0.69468 0.97517 0.50882 0.0
C872 C 0.72706 0.9235 0.50438 0.0
C873 C 0.69833 0.97994 0.47418 0.0
C874 C 0.70954 0.9471 0.52411 0.0
N875 N 0.74847 0.91195 0.41559 0.0
C876 C 0.75972 0.88778 0.39371 0.0
C877 C 0.75715 0.8746 0.46246 0.0
C878 C 0.74579 0.90561 0.44902 0.0
C879 C 0.77027 0.85011 0.44041 0.0
C880 C 0.77123 0.85661 0.40582 0.0
H881 H 0.70612 0.94316 0.55088 0.0
H882 H 0.73722 0.88816 0.54482 0.0
H883 H 0.76349 0.84532 0.50809 0.0
O884 O 0.69852 0.93183 0.35824 0.0
O885 O 0.78052 0.95454 0.40661 0.0
O886 O 0.79703 1.00646 0.42409 0.0
O887 O 0.67618 0.94173 0.40769 0.0
O888 O 0.74911 0.96136 0.34418 0.0
O889 O 0.80315 0.98133 0.353 0.0
O890 O 0.82175 0.08059 0.39068 0.0
O891 O 0.74728 0.03334 0.34162 0.0
O892 O 0.70585 0.01164 0.37647 0.0
O893 O 0.85037 0.03441 0.38352 0.0
O894 O 0.76599 0.04566 0.42111 0.0
O895 O 0.71526 0.01714 0.41607 0.0
C896 C 0.79811 0.97351 0.42694 0.0
C897 C 0.64274 0.90777 0.37021 0.0
C898 C 0.61357 0.85778 0.34903 0.0
C899 C 0.5829 0.87188 0.3599 0.0
C900 C 0.61168 0.92128 0.38066 0.0
C901 C 0.58198 0.9035 0.37538 0.0
C902 C 0.64371 0.87596 0.35386 0.0
C903 C 0.78081 0.96469 0.33495 0.0
C904 C 0.67366 0.92628 0.37892 0.0
C905 C 0.73971 0.89329 0.51815 0.0
C906 C 0.75459 0.86885 0.49722 0.0
C907 C 0.71529 0.02802 0.3495 0.0
C908 C 0.88056 0.08617 0.38006 0.0
C909 C 0.93198 0.11831 0.39187 0.0
C910 C 0.93769 0.12082 0.35699 0.0
C911 C 0.88675 0.08975 0.34552 0.0
C912 C 0.90306 0.10095 0.40331 0.0
C913 C 0.9152 0.10677 0.33411 0.0
C914 C 0.73363 0.04288 0.42725 0.0
C915 C 0.85143 0.06631 0.39207 0.0
H916 H 0.55952 0.85835 0.35625 0.0
H917 H 0.6104 0.94561 0.39321 0.0
H918 H 0.55816 0.91414 0.38358 0.0
H919 H 0.66758 0.8651 0.34593 0.0
H920 H 0.95936 0.13425 0.3473 0.0
H921 H 0.86974 0.07947 0.32723 0.0
H922 H 0.89842 0.09841 0.4301 0.0
H923 H 0.91981 0.10915 0.30735 0.0
Eu924 Eu 0.30415 0.48007 0.64718 0.0
C925 C 0.20635 0.5566 0.54368 0.0
N926 N 0.23063 0.56874 0.56444 0.0
C927 C 0.24953 0.60662 0.52137 0.0
C928 C 0.20354 0.5684 0.51031 0.0
C929 C 0.2511 0.59446 0.55435 0.0
C930 C 0.22592 0.59326 0.49912 0.0
C931 C 0.15745 0.52082 0.53535 0.0
C932 C 0.18326 0.53336 0.55617 0.0
C933 C 0.15514 0.53194 0.50189 0.0
C934 C 0.17806 0.5557 0.48943 0.0
Eu935 Eu 0.23081 0.54653 0.61941 0.0
N936 N 0.18587 0.52316 0.58872 0.0
C937 C 0.13454 0.49762 0.54885 0.0
C938 C 0.16329 0.50104 0.60216 0.0
C939 C 0.13746 0.48775 0.58244 0.0
H940 H 0.26873 0.6057 0.57167 0.0
H941 H 0.11985 0.46991 0.59317 0.0
H942 H 0.27103 0.4322 0.7105 0.0
H943 H 0.42029 0.55148 0.64386 0.0
H944 H 0.16547 0.49312 0.62783 0.0
H945 H 0.11444 0.48733 0.53362 0.0
H946 H 0.36838 0.52612 0.62041 0.0
H947 H 0.26635 0.62647 0.51322 0.0
H948 H 0.13547 0.52259 0.48554 0.0
H949 H 0.1756 0.56442 0.4637 0.0
H950 H 0.27896 0.42474 0.77117 0.0
H951 H 0.22461 0.60291 0.47364 0.0
H952 H 0.43229 0.54639 0.70477 0.0
N953 N 0.30879 0.47006 0.70561 0.0
C954 C 0.33554 0.48524 0.72066 0.0
C955 C 0.29465 0.44231 0.75742 0.0
C956 C 0.34225 0.48002 0.75512 0.0
C957 C 0.28954 0.44744 0.72305 0.0
C958 C 0.32085 0.45901 0.77366 0.0
N959 N 0.35078 0.50918 0.66795 0.0
C960 C 0.3733 0.52467 0.64712 0.0
C961 C 0.38699 0.51803 0.7155 0.0
C962 C 0.35763 0.50437 0.70114 0.0
C963 C 0.40943 0.5356 0.69466 0.0
C964 C 0.40269 0.53867 0.66027 0.0
H965 H 0.32517 0.45442 0.80019 0.0
H966 H 0.37623 0.49108 0.79621 0.0
H967 H 0.41548 0.52406 0.7615 0.0
O968 O 0.33651 0.45352 0.60975 0.0
O969 O 0.3069 0.5354 0.66295 0.0
O970 O 0.25152 0.54324 0.67189 0.0
O971 O 0.33408 0.43625 0.66118 0.0
O972 O 0.3066 0.50342 0.59467 0.0
O973 O 0.28541 0.55634 0.60557 0.0
O974 O 0.18489 0.57213 0.63595 0.0
O975 O 0.23595 0.49674 0.58908 0.0
O976 O 0.25846 0.45611 0.62523 0.0
O977 O 0.23036 0.60124 0.62924 0.0
O978 O 0.21397 0.51341 0.66217 0.0
O979 O 0.25025 0.46674 0.66743 0.0
C980 C 0.28253 0.54988 0.67989 0.0
C981 C 0.35909 0.39781 0.62247 0.0
C982 C 0.40222 0.35928 0.59969 0.0
C983 C 0.38398 0.33187 0.61273 0.0
C984 C 0.34128 0.36982 0.63477 0.0
C985 C 0.35382 0.33713 0.63009 0.0
C986 C 0.38981 0.39246 0.60495 0.0
C987 C 0.30296 0.53548 0.58657 0.0
C988 C 0.34839 0.43243 0.63199 0.0
C989 C 0.37078 0.49477 0.76975 0.0
C990 C 0.3932 0.51348 0.74996 0.0
C991 C 0.24003 0.46504 0.59928 0.0
C992 C 0.17789 0.63073 0.62656 0.0
C993 C 0.14713 0.68299 0.63935 0.0
C994 C 0.13541 0.68374 0.60608 0.0
C995 C 0.16595 0.63204 0.59342 0.0
C996 C 0.16849 0.65637 0.64959 0.0
C997 C 0.14484 0.65846 0.58329 0.0
C998 C 0.22107 0.48289 0.67347 0.0
C999 C 0.19861 0.60193 0.6379 0.0
H1000 H 0.39321 0.30621 0.60951 0.0
H1001 H 0.31808 0.37327 0.64882 0.0
H1002 H 0.34022 0.31574 0.64017 0.0
H1003 H 0.40401 0.4139 0.59571 0.0
H1004 H 0.11911 0.70411 0.59769 0.0
H1005 H 0.17266 0.61249 0.57551 0.0
H1006 H 0.17759 0.65554 0.67529 0.0
H1007 H 0.13567 0.65933 0.55767 0.0
H1008 H 0.19924 0.34448 0.50602 0.0
H1009 H 0.17361 0.29985 0.60192 0.0
H1010 H 0.1911 0.35179 0.6305 0.0
H1011 H 0.21283 0.4099 0.62778 0.0
H1012 H 0.23161 0.45663 0.53153 0.0
H1013 H 0.21511 0.40414 0.50299 0.0
C1014 C 0.19722 0.34599 0.53321 0.0
C1015 C 0.18495 0.31821 0.5518 0.0
C1016 C 0.20506 0.37657 0.54913 0.0
C1017 C 0.1831 0.32067 0.587 0.0
C1018 C 0.19267 0.35052 0.60328 0.0
C1019 C 0.21289 0.4087 0.60051 0.0
C1020 C 0.22373 0.43682 0.58161 0.0
C1021 C 0.20334 0.37867 0.58452 0.0
C1022 C 0.22326 0.43528 0.54642 0.0
C1023 C 0.21428 0.4052 0.53024 0.0
H1024 H 0.85478 0.96468 0.87542 0.0
H1025 H 0.80702 0.98097 0.77926 0.0
H1026 H 0.86022 0.96646 0.75069 0.0
H1027 H 0.9204 0.95173 0.75358 0.0
H1028 H 0.96579 0.92894 0.84972 0.0
H1029 H 0.91366 0.94616 0.87814 0.0
C1030 C 0.85583 0.96505 0.84813 0.0
C1031 C 0.82701 0.97439 0.82938 0.0
C1032 C 0.88628 0.95667 0.83212 0.0
C1033 C 0.82876 0.97394 0.79416 0.0
C1034 C 0.85926 0.96601 0.77795 0.0
C1035 C 0.91906 0.95034 0.78081 0.0
C1036 C 0.94717 0.93863 0.79943 0.0
C1037 C 0.88827 0.9579 0.79675 0.0
C1038 C 0.9448 0.93776 0.83468 0.0
C1039 C 0.91481 0.94718 0.8509 0.0
H1040 H 0.34045 0.69083 0.08366 0.0
H1041 H 0.29689 0.68084 0.98501 0.0
H1042 H 0.27453 0.62539 0.99979 0.0
H1043 H 0.27109 0.57768 0.03931 0.0
H1044 H 0.31871 0.58551 0.13598 0.0
H1045 H 0.33668 0.64301 0.12348 0.0
C1046 C 0.3252 0.67687 0.0659 0.0
C1047 C 0.31981 0.69001 0.03355 0.0
C1048 C 0.31438 0.64396 0.07379 0.0
C1049 C 0.30067 0.67141 0.01035 0.0
C1050 C 0.28842 0.63948 0.01856 0.0
C1051 C 0.28596 0.59188 0.05727 0.0
C1052 C 0.29501 0.57686 0.0879 0.0
C1053 C 0.29597 0.62507 0.04983 0.0
C1054 C 0.3135 0.59565 0.1114 0.0
C1055 C 0.32292 0.62896 0.10459 0.0
H1056 H 0.59383 0.05687 0.25347 0.0
H1057 H 0.54797 0.08684 0.34771 0.0
H1058 H 0.6005 0.07359 0.37706 0.0
H1059 H 0.6596 0.05633 0.3751 0.0
H1060 H 0.70746 0.03122 0.28089 0.0
H1061 H 0.65419 0.04274 0.25134 0.0
C1062 C 0.59516 0.06038 0.28052 0.0
C1063 C 0.56708 0.07354 0.29832 0.0
C1064 C 0.62606 0.05513 0.2967 0.0
C1065 C 0.56913 0.07714 0.33336 0.0
C1066 C 0.59932 0.07006 0.35002 0.0
C1067 C 0.6586 0.05393 0.34807 0.0
C1068 C 0.68734 0.04299 0.33016 0.0
C1069 C 0.62804 0.05993 0.33175 0.0
C1070 C 0.68577 0.04005 0.29508 0.0
C1071 C 0.6552 0.04598 0.27841 0.0
H1072 H 0.64174 0.17144 0.45223 0.0
H1073 H 0.73762 0.21479 0.47746 0.0
H1074 H 0.76565 0.16055 0.46606 0.0
H1075 H 0.76224 0.10021 0.45241 0.0
H1076 H 0.66553 0.0553 0.43213 0.0
H1077 H 0.63822 0.11037 0.43925 0.0
C1078 C 0.6689 0.1691 0.45421 0.0
C1079 C 0.68786 0.19711 0.46471 0.0
C1080 C 0.68441 0.13729 0.44975 0.0
C1081 C 0.72281 0.19375 0.46834 0.0
C1082 C 0.73865 0.16258 0.46258 0.0
C1083 C 0.73509 0.1022 0.45011 0.0
C1084 C 0.71617 0.07364 0.44053 0.0
C1085 C 0.71956 0.13398 0.45421 0.0
C1086 C 0.68096 0.0769 0.43832 0.0
C1087 C 0.66529 0.10847 0.44231 0.0
H1088 H 0.10705 0.38754 0.73172 0.0
H1089 H 0.04744 0.47793 0.7168 0.0
H1090 H 0.09783 0.50783 0.6971 0.0
H1091 H 0.15863 0.50881 0.68716 0.0
H1092 H 0.21696 0.41647 0.69517 0.0
H1093 H 0.16728 0.38721 0.71671 0.0
C1094 C 0.105 0.41382 0.72406 0.0
C1095 C 0.07358 0.43075 0.72626 0.0
C1096 C 0.13394 0.43063 0.71261 0.0
C1097 C 0.07124 0.46443 0.71545 0.0
C1098 C 0.10011 0.48154 0.70452 0.0
C1099 C 0.16083 0.48221 0.69351 0.0
C1100 C 0.19213 0.46511 0.6898 0.0
C1101 C 0.13165 0.46502 0.70363 0.0
C1102 C 0.19381 0.43067 0.69834 0.0
C1103 C 0.16516 0.41375 0.71017 0.0
H1104 H 0.81545 0.95123 0.97078 0.0
H1105 H 0.7344 0.91073 0.91142 0.0
H1106 H 0.75361 0.85342 0.92223 0.0
H1107 H 0.79519 0.81396 0.94827 0.0
H1108 H 0.85434 0.85485 0.02924 0.0
H1109 H 0.84224 0.91187 0.01129 0.0
C1110 C 0.80203 0.92994 0.96025 0.0
C1111 C 0.77561 0.93551 0.93768 0.0
C1112 C 0.80981 0.89668 0.97052 0.0
C1113 C 0.75642 0.90738 0.92709 0.0
C1114 C 0.76719 0.87435 0.93331 0.0
C1115 C 0.80542 0.83534 0.96187 0.0
C1116 C 0.82836 0.82986 0.98806 0.0
C1117 C 0.79439 0.86858 0.95469 0.0
C1118 C 0.83854 0.85797 0.00746 0.0
C1119 C 0.83152 0.89094 0.99737 0.0
H1120 H 0.40697 0.57947 0.26655 0.0
H1121 H 0.45881 0.57941 0.17107 0.0
H1122 H 0.40891 0.55708 0.1435 0.0
H1123 H 0.35115 0.53464 0.14718 0.0
H1124 H 0.29658 0.5414 0.24083 0.0
H1125 H 0.34727 0.56288 0.26894 0.0
C1126 C 0.40759 0.57428 0.23975 0.0
C1127 C 0.43734 0.58017 0.22107 0.0
C1128 C 0.37829 0.56223 0.22392 0.0
C1129 C 0.43694 0.57423 0.18622 0.0
C1130 C 0.40821 0.56158 0.17042 0.0
C1131 C 0.35023 0.54128 0.17365 0.0
C1132 C 0.32022 0.53657 0.19202 0.0
C1133 C 0.3789 0.55503 0.18911 0.0
C1134 C 0.3194 0.54501 0.22627 0.0
C1135 C 0.34834 0.55727 0.24225 0.0
H1136 H 0.52896 0.14403 0.35804 0.0
H1137 H 0.54897 0.22956 0.2936 0.0
H1138 H 0.57249 0.26027 0.34182 0.0
H1139 H 0.58628 0.26271 0.40222 0.0
H1140 H 0.5676 0.17601 0.46534 0.0
H1141 H 0.5441 0.14578 0.41742 0.0
C1142 C 0.53856 0.16935 0.35424 0.0
C1143 C 0.53713 0.18445 0.32202 0.0
C1144 C 0.55191 0.18667 0.38193 0.0
C1145 C 0.54991 0.21723 0.31791 0.0
C1146 C 0.56315 0.23483 0.34556 0.0
C1147 C 0.57703 0.23723 0.4057 0.0
C1148 C 0.57857 0.22181 0.43786 0.0
C1149 C 0.56405 0.21982 0.37772 0.0
C1150 C 0.56633 0.18877 0.44142 0.0
C1151 C 0.55312 0.17137 0.41383 0.0
H1152 H 0.08357 0.24667 0.61192 0.0
H1153 H 0.07937 0.34142 0.55836 0.0
H1154 H 0.06422 0.37082 0.61019 0.0
H1155 H 0.05131 0.36946 0.67099 0.0
H1156 H 0.04848 0.27408 0.72303 0.0
H1157 H 0.06927 0.24514 0.67224 0.0
C1158 C 0.07895 0.27374 0.61134 0.0
C1159 C 0.08266 0.29181 0.58082 0.0
C1160 C 0.06969 0.29037 0.64135 0.0
C1161 C 0.07654 0.32681 0.581 0.0
C1162 C 0.06801 0.34367 0.61085 0.0
C1163 C 0.05493 0.34228 0.67101 0.0
C1164 C 0.04818 0.32382 0.70054 0.0
C1165 C 0.06452 0.32571 0.64114 0.0
C1166 C 0.05408 0.28884 0.70079 0.0
C1167 C 0.06531 0.27229 0.67156 0.0
H1168 H 0.01381 0.84216 0.8628 0.0
H1169 H 0.93102 0.81535 0.79796 0.0
H1170 H 0.90097 0.79161 0.84586 0.0
H1171 H 0.89812 0.77894 0.90542 0.0
H1172 H 0.98133 0.80306 0.97099 0.0
H1173 H 0.01146 0.82792 0.92303 0.0
C1174 C 0.98923 0.83103 0.85889 0.0
C1175 C 0.97452 0.83094 0.82642 0.0
C1176 C 0.97226 0.81715 0.88667 0.0
C1177 C 0.94281 0.81612 0.82231 0.0
C1178 C 0.92565 0.8025 0.84982 0.0
C1179 C 0.92293 0.78947 0.90962 0.0
C1180 C 0.93733 0.78928 0.94216 0.0
C1181 C 0.94012 0.80302 0.88203 0.0
C1182 C 0.96949 0.80314 0.94649 0.0
C1183 C 0.98673 0.81719 0.91901 0.0
H1184 H 0.43263 0.64948 0.18043 0.0
H1185 H 0.50788 0.72662 0.19376 0.0
H1186 H 0.49829 0.74697 0.13675 0.0
H1187 H 0.46842 0.74383 0.08325 0.0
H1188 H 0.39527 0.6656 0.06682 0.0
H1189 H 0.40457 0.64421 0.1242 0.0
C1190 C 0.44638 0.67111 0.17096 0.0
C1191 C 0.4705 0.68695 0.19167 0.0
C1192 C 0.44156 0.68211 0.13732 0.0
C1193 C 0.48886 0.7143 0.17862 0.0
C1194 C 0.48364 0.72578 0.14585 0.0
C1195 C 0.4549 0.7217 0.09197 0.0
C1196 C 0.43061 0.70678 0.07098 0.0
C1197 C 0.46027 0.70981 0.12491 0.0
C1198 C 0.41369 0.67788 0.08261 0.0
C1199 C 0.41884 0.66584 0.11556 0.0
H1200 H 0.14712 0.35396 0.26569 0.0
H1201 H 0.18385 0.41852 0.34468 0.0
H1202 H 0.21585 0.45164 0.30318 0.0
H1203 H 0.23057 0.46388 0.24332 0.0
H1204 H 0.18615 0.40319 0.16514 0.0
H1205 H 0.16134 0.36596 0.20715 0.0
C1206 C 0.16252 0.37502 0.27383 0.0
C1207 C 0.16325 0.38379 0.30808 0.0
C1208 C 0.1799 0.3943 0.24986 0.0
C1209 C 0.18329 0.41107 0.31844 0.0
C1210 C 0.20136 0.43011 0.29469 0.0
C1211 C 0.21568 0.44226 0.23572 0.0
C1212 C 0.21103 0.43553 0.20123 0.0
C1213 C 0.19946 0.42222 0.2602 0.0
C1214 C 0.19106 0.40813 0.19145 0.0
C1215 C 0.17647 0.3871 0.2155 0.0
H1216 H 0.87112 0.87424 0.52552 0.0
H1217 H 0.9018 0.96677 0.57411 0.0
H1218 H 0.86702 0.99936 0.53449 0.0
H1219 H 0.83038 1.00112 0.48271 0.0
H1220 H 0.81677 0.90799 0.42777 0.0
H1221 H 0.84327 0.87628 0.47226 0.0
C1222 C 0.87134 0.90161 0.52723 0.0
C1223 C 0.89012 0.91774 0.55246 0.0
C1224 C 0.85408 0.92018 0.50283 0.0
C1225 C 0.88777 0.9533 0.55507 0.0
C1226 C 0.86819 0.97207 0.53206 0.0
C1227 C 0.83347 0.97394 0.48049 0.0
C1228 C 0.81935 0.95664 0.45278 0.0
C1229 C 0.85175 0.95576 0.50524 0.0
C1230 C 0.82491 0.92167 0.44977 0.0
C1231 C 0.84066 0.90346 0.47506 0.0
H1232 H 0.34268 0.57334 0.70469 0.0
H1233 H 0.2368 0.56603 0.72835 0.0
H1234 H 0.24694 0.58882 0.78415 0.0
H1235 H 0.28608 0.60576 0.82839 0.0
H1236 H 0.39237 0.61079 0.80721 0.0
H1237 H 0.38223 0.5928 0.74889 0.0
C1238 C 0.32203 0.57596 0.72235 0.0
C1239 C 0.28929 0.56653 0.71268 0.0
C1240 C 0.32816 0.5883 0.75505 0.0
C1241 C 0.26242 0.57228 0.73517 0.0
C1242 C 0.26815 0.58527 0.76725 0.0
C1243 C 0.30695 0.6031 0.81087 0.0
C1244 C 0.33986 0.60928 0.82197 0.0
C1245 C 0.30094 0.59252 0.77774 0.0
C1246 C 0.36677 0.60625 0.79906 0.0
C1247 C 0.36097 0.59582 0.76584 0.0
H1248 H 0.63222 0.14129 0.014 0.0
H1249 H 0.61735 0.05171 0.07421 0.0
H1250 H 0.65253 0.01913 0.03475 0.0
H1251 H 0.68474 0.0158 0.98012 0.0
H1252 H 0.68694 0.10441 0.91674 0.0
H1253 H 0.65803 0.13715 0.95955 0.0
C1254 C 0.63565 0.11443 0.01837 0.0
C1255 C 0.62106 0.09909 0.04676 0.0
C1256 C 0.65347 0.09547 0.99453 0.0
C1257 C 0.62802 0.06453 0.05264 0.0
C1258 C 0.64783 0.0457 0.02978 0.0
C1259 C 0.67848 0.04216 0.97569 0.0
C1260 C 0.68914 0.05806 0.9457 0.0
C1261 C 0.66008 0.06077 1.0001 0.0
C1262 C 0.68036 0.09199 0.94008 0.0
C1263 C 0.66359 0.11073 0.96449 0.0
H1264 H 0.67141 0.09239 0.69197 0.0
H1265 H 0.67383 0.19161 0.73664 0.0
H1266 H 0.7059 0.16939 0.78457 0.0
H1267 H 0.72627 0.11991 0.81704 0.0
H1268 H 0.72818 0.02175 0.77006 0.0
H1269 H 0.7011 0.04498 0.71982 0.0
C1270 C 0.67971 0.10916 0.71189 0.0
C1271 C 0.6702 0.14342 0.71119 0.0
C1272 C 0.69826 0.09621 0.73913 0.0
C1273 C 0.68097 0.16512 0.73691 0.0
C1274 C 0.69911 0.15238 0.76432 0.0
C1275 C 0.72168 0.10393 0.79538 0.0
C1276 C 0.72813 0.06904 0.79741 0.0
C1277 C 0.70695 0.11775 0.76622 0.0
C1278 C 0.72227 0.04852 0.76925 0.0
C1279 C 0.707 0.06182 0.7405 0.0
H1280 H 0.21939 0.49449 0.0227 0.0
H1281 H 0.15585 0.43418 0.08661 0.0
H1282 H 0.12794 0.41036 0.03671 0.0
H1283 H 0.12543 0.40346 0.97386 0.0
H1284 H 0.18841 0.46692 0.912 0.0
H1285 H 0.21231 0.49294 0.96191 0.0
C1286 C 0.19903 0.47652 0.02574 0.0
C1287 C 0.18972 0.466 0.0582 0.0
C1288 C 0.18306 0.46338 0.99714 0.0
C1289 C 0.16323 0.44285 0.06181 0.0
C1290 C 0.14746 0.42909 0.03325 0.0
C1291 C 0.14378 0.42354 0.97142 0.0
C1292 C 0.15552 0.43285 0.93912 0.0
C1293 C 0.15757 0.43874 1.00062 0.0
C1294 C 0.17933 0.45892 0.93647 0.0
C1295 C 0.19308 0.47383 0.96502 0.0
H1296 H 0.8006 0.90009 0.32061 0.0
H1297 H 0.78249 0.99744 0.27544 0.0
H1298 H 0.80726 0.97774 0.22241 0.0
H1299 H 0.83841 0.93401 0.19052 0.0
H1300 H 0.85096 0.83455 0.23297 0.0
H1301 H 0.8228 0.85314 0.28498 0.0
C1302 C 0.80169 0.9167 0.29894 0.0
C1303 C 0.7913 0.95063 0.30213 0.0
C1304 C 0.81464 0.90464 0.26804 0.0
C1305 C 0.79178 0.97169 0.27377 0.0
C1306 C 0.80562 0.96033 0.24341 0.0
C1307 C 0.83427 0.91629 0.21094 0.0
C1308 C 0.84692 0.88312 0.2082 0.0
C1309 C 0.81787 0.9271 0.2405 0.0
C1310 C 0.84136 0.86021 0.23462 0.0
C1311 C 0.82552 0.87093 0.26442 0.0
H1312 H 0.28971 0.51965 0.52139 0.0
H1313 H 0.35337 0.58149 0.58336 0.0
H1314 H 0.37926 0.6063 0.53298 0.0
H1315 H 0.37998 0.61428 0.47086 0.0
H1316 H 0.31336 0.55487 0.40956 0.0
H1317 H 0.29238 0.52556 0.4595 0.0
C1318 C 0.30965 0.53817 0.52371 0.0
C1319 C 0.3199 0.54861 0.55595 0.0
C1320 C 0.32374 0.55297 0.49456 0.0
C1321 C 0.34515 0.57314 0.55875 0.0
C1322 C 0.35992 0.58731 0.52993 0.0
C1323 C 0.36179 0.59406 0.46843 0.0
C1324 C 0.34887 0.58617 0.43637 0.0
C1325 C 0.34908 0.57787 0.49761 0.0
C1326 C 0.32433 0.56076 0.4338 0.0
C1327 C 0.31204 0.54425 0.46244 0.0
H1328 H 0.20194 0.18025 0.4242 0.0
H1329 H 0.23875 0.26649 0.47933 0.0
H1330 H 0.29616 0.25367 0.46152 0.0
H1331 H 0.33608 0.21793 0.43111 0.0
H1332 H 0.30085 0.13117 0.37585 0.0
H1333 H 0.24268 0.14445 0.39234 0.0
C1334 C 0.22265 0.19615 0.43213 0.0
C1335 C 0.21626 0.22417 0.45306 0.0
C1336 C 0.25579 0.18869 0.42164 0.0
C1337 C 0.24307 0.24488 0.46304 0.0
C1338 C 0.27592 0.23751 0.45299 0.0
C1339 C 0.31572 0.2018 0.42278 0.0
C1340 C 0.32287 0.17346 0.40258 0.0
C1341 C 0.28258 0.20947 0.43242 0.0
C1342 C 0.29605 0.15327 0.39131 0.0
C1343 C 0.26281 0.16075 0.40087 0.0
H1344 H 0.11943 0.04648 0.64049 0.0
H1345 H 0.032 0.10332 0.67224 0.0
H1346 H 1.00547 0.05165 0.69277 0.0
H1347 H 0.00944 0.99134 0.7069 0.0
H1348 H 0.09638 0.93375 0.67525 0.0
H1349 H 0.12081 0.98432 0.64962 0.0
C1350 C 0.09427 0.04728 0.65121 0.0
C1351 C 0.07764 0.0786 0.65499 0.0
C1352 C 0.07933 0.0174 0.66348 0.0
C1353 C 0.04523 0.07945 0.66924 0.0
C1354 C 0.03012 0.04996 0.68108 0.0
C1355 C 0.03344 0.98976 0.69384 0.0
C1356 C 0.05144 0.95909 0.69352 0.0
C1357 C 0.04727 0.01894 0.67915 0.0
C1358 C 0.0824 0.95734 0.67637 0.0
C1359 C 0.09632 0.98622 0.66161 0.0
H1360 H 0.22069 0.87812 0.90709 0.0
H1361 H 0.17655 0.77975 0.89403 0.0
H1362 H 0.22928 0.75265 0.91169 0.0
H1363 H 0.28594 0.75717 0.93647 0.0
H1364 H 0.3314 0.85545 0.94691 0.0
H1365 H 0.28036 0.88231 0.92509 0.0
C1366 C 0.22304 0.85076 0.90734 0.0
C1367 C 0.19496 0.83084 0.8991 0.0
C1368 C 0.25343 0.83538 0.91782 0.0
C1369 C 0.19801 0.79546 0.89998 0.0
C1370 C 0.22806 0.78002 0.91032 0.0
C1371 C 0.28493 0.78443 0.93349 0.0
C1372 C 0.31212 0.80432 0.94455 0.0
C1373 C 0.25567 0.79972 0.92016 0.0
C1374 C 0.31044 0.83956 0.9398 0.0
C1375 C 0.28129 0.85498 0.92709 0.0
H1376 H 0.45077 0.07356 0.15321 0.0
H1377 H 0.49335 0.01625 0.2349 0.0
H1378 H 0.46999 0.96389 0.21154 0.0
H1379 H 0.43404 0.93528 0.16929 0.0
H1380 H 0.39532 0.99244 0.08551 0.0
H1381 H 0.42171 0.04388 0.1072 0.0
C1382 C 0.4554 0.04941 0.16539 0.0
C1383 C 0.47337 0.04839 0.19567 0.0
C1384 C 0.44291 0.01949 0.15119 0.0
C1385 C 0.47961 0.01726 0.21139 0.0
C1386 C 0.46621 0.98745 0.1981 0.0
C1387 C 0.43218 0.9589 0.15551 0.0
C1388 C 0.41289 0.9604 0.12595 0.0
C1389 C 0.44743 0.98832 0.16819 0.0
C1390 C 0.41018 0.99099 0.1083 0.0
C1391 C 0.42504 0.02034 0.1208 0.0
H1392 H 0.82487 0.3339 0.59407 0.0
H1393 H 0.76853 0.36447 0.68184 0.0
H1394 H 0.71743 0.33904 0.65857 0.0
H1395 H 0.68761 0.31328 0.61029 0.0
H1396 H 0.74514 0.27625 0.52585 0.0
H1397 H 0.79682 0.2996 0.55003 0.0
C1398 C 0.80155 0.33415 0.60837 0.0
C1399 C 0.80025 0.35095 0.63957 0.0
C1400 C 0.77239 0.31919 0.59492 0.0
C1401 C 0.76997 0.35147 0.65786 0.0
C1402 C 0.74075 0.33721 0.64442 0.0
C1403 C 0.71162 0.31006 0.59753 0.0
C1404 C 0.71271 0.29422 0.56591 0.0
C1405 C 0.74143 0.32191 0.61252 0.0
C1406 C 0.74385 0.28915 0.5499 0.0
C1407 C 0.77335 0.30233 0.5638 0.0
H1408 H 0.99763 0.49392 0.80398 0.0
H1409 H 0.92109 0.43112 0.84818 0.0
H1410 H 0.89551 0.4807 0.87541 0.0
H1411 H 0.89169 0.54295 0.88229 0.0
H1412 H 0.96604 0.60604 0.835 0.0
H1413 H 0.99554 0.55592 0.81339 0.0
C1414 C 0.97572 0.49114 0.82009 0.0
C1415 C 0.96132 0.4589 0.82427 0.0
C1416 C 0.96063 0.52001 0.83502 0.0
C1417 C 0.93251 0.45569 0.84458 0.0
C1418 C 0.9179 0.48406 0.86014 0.0
C1419 C 0.91508 0.54555 0.86839 0.0
C1420 C 0.92732 0.57818 0.86126 0.0
C1421 C 0.93136 0.51648 0.85514 0.0
C1422 C 0.95683 0.58121 0.84185 0.0
C1423 C 0.97344 0.55253 0.82909 0.0
H1424 H 0.76967 0.7248 0.04793 0.0
H1425 H 0.84712 0.69944 0.11978 0.0
H1426 H 0.80504 0.67293 0.1562 0.0
H1427 H 0.74677 0.65331 0.16552 0.0
H1428 H 0.66942 0.67982 0.09432 0.0
H1429 H 0.71092 0.70958 0.05953 0.0
C1430 C 0.77732 0.71371 0.07171 0.0
C1431 C 0.8115 0.71386 0.08108 0.0
C1432 C 0.75302 0.69866 0.09249 0.0
C1433 C 0.82097 0.69969 0.11205 0.0
C1434 C 0.79694 0.68442 0.1328 0.0
C1435 C 0.73904 0.66626 0.14272 0.0
C1436 C 0.70527 0.66464 0.13238 0.0
C1437 C 0.763 0.68332 0.12303 0.0
C1438 C 0.69529 0.68119 0.10279 0.0
C1439 C 0.71902 0.69794 0.08287 0.0
H1440 H 0.54108 0.43075 0.33483 0.0
H1441 H 0.6335 0.46329 0.38115 0.0
H1442 H 0.62092 0.52205 0.36555 0.0
H1443 H 0.58396 0.56413 0.33665 0.0
H1444 H 0.49199 0.52968 0.29068 0.0
H1445 H 0.50437 0.47179 0.30766 0.0
C1446 C 0.55863 0.45063 0.34136 0.0
C1447 C 0.58833 0.44252 0.35877 0.0
C1448 C 0.55139 0.48409 0.33215 0.0
C1449 C 0.61035 0.4688 0.36783 0.0
C1450 C 0.60328 0.50239 0.35872 0.0
C1451 C 0.56677 0.54383 0.3305 0.0
C1452 C 0.53714 0.55103 0.31245 0.0
C1453 C 0.57397 0.51033 0.34056 0.0
C1454 C 0.51484 0.52471 0.30474 0.0
C1455 C 0.52193 0.49159 0.31433 0.0
H1456 H 0.40344 0.28971 0.12584 0.0
H1457 H 0.38934 0.34109 0.2204 0.0
H1458 H 0.40563 0.28947 0.25089 0.0
H1459 H 0.43153 0.2319 0.2498 0.0
H1460 H 0.44266 0.18067 0.1544 0.0
H1461 H 0.42025 0.22989 0.12515 0.0
C1462 C 0.40291 0.28919 0.15315 0.0
C1463 C 0.3951 0.31897 0.17091 0.0
C1464 C 0.41266 0.25965 0.17032 0.0
C1465 C 0.39488 0.31827 0.20626 0.0
C1466 C 0.40458 0.28887 0.22364 0.0
C1467 C 0.42834 0.23128 0.22271 0.0
C1468 C 0.43991 0.203 0.20423 0.0
C1469 C 0.41469 0.25971 0.20588 0.0
C1470 C 0.43499 0.20246 0.16918 0.0
C1471 C 0.42203 0.23058 0.15237 0.0
H1472 H 0.95302 0.2713 0.76011 0.0
H1473 H 0.92128 0.3295 0.84643 0.0
H1474 H 0.89664 0.27911 0.87184 0.0
H1475 H 0.88917 0.21705 0.87217 0.0
H1476 H 0.91942 0.15883 0.78553 0.0
H1477 H 0.93872 0.21036 0.75729 0.0
C1478 C 0.94006 0.27303 0.78414 0.0
C1479 C 0.93968 0.30397 0.80175 0.0
C1480 C 0.92554 0.24381 0.79853 0.0
C1481 C 0.92262 0.30581 0.83275 0.0
C1482 C 0.90836 0.277 0.84724 0.0
C1483 C 0.89881 0.21593 0.84661 0.0
C1484 C 0.90223 0.18431 0.83062 0.0
C1485 C 0.91033 0.24567 0.83076 0.0
C1486 C 0.91582 0.183 0.79795 0.0
C1487 C 0.92725 0.21243 0.78199 0.0
H1488 H 0.01738 0.60777 0.1174 0.0
H1489 H 0.08287 0.62162 0.032 0.0
H1490 H 0.04224 0.66145 1.00702 0.0
H1491 H 0.98587 0.68957 0.00833 0.0
H1492 H 0.9218 0.67453 0.09496 0.0
H1493 H 0.96386 0.63795 0.1205 0.0
C1494 C 0.02281 0.61978 0.09343 0.0
C1495 C 0.05264 0.61162 0.07626 0.0
C1496 C 0.99937 0.64212 0.07928 0.0
C1497 C 0.05989 0.62764 0.04556 0.0
C1498 C 0.03658 0.65013 0.0312 0.0
C1499 C 0.9812 0.67797 0.03262 0.0
C1500 C 0.95073 0.68444 0.04958 0.0
C1501 C 1.00581 0.65697 0.04749 0.0
C1502 C 0.94508 0.66985 0.08136 0.0
C1503 C 0.96912 0.64898 0.09608 0.0
H1504 H 0.60673 0.79701 0.37937 0.0
H1505 H 0.61518 0.84419 0.28211 0.0
H1506 H 0.59642 0.79189 0.25484 0.0
H1507 H 0.57045 0.73542 0.25969 0.0
H1508 H 0.56675 0.68659 0.35656 0.0
H1509 H 0.5902 0.73691 0.38317 0.0
C1510 C 0.60556 0.79533 0.35213 0.0
C1511 C 0.61253 0.82416 0.33264 0.0
C1512 C 0.59451 0.76531 0.33676 0.0
C1513 C 0.6104 0.82207 0.29746 0.0
C1514 C 0.59927 0.79233 0.28196 0.0
C1515 C 0.57525 0.73555 0.28655 0.0
C1516 C 0.56507 0.70791 0.30649 0.0
C1517 C 0.59011 0.76418 0.30146 0.0
C1518 C 0.5725 0.70824 0.34101 0.0
C1519 C 0.5864 0.73686 0.35616 0.0
H1520 H 0.51998 0.29535 0.51305 0.0
H1521 H 0.58044 0.34806 0.58571 0.0
H1522 H 0.52969 0.37428 0.61004 0.0
H1523 H 0.4672 0.37857 0.61337 0.0
H1524 H 0.40729 0.32156 0.54331 0.0
H1525 H 0.45822 0.3006 0.51545 0.0
C1526 C 0.52194 0.31302 0.53387 0.0
C1527 C 0.55374 0.32007 0.54749 0.0
C1528 C 0.49257 0.32699 0.5484 0.0
C1529 C 0.55609 0.34234 0.57492 0.0
C1530 C 0.52709 0.35727 0.58881 0.0
C1531 C 0.46543 0.36223 0.59151 0.0
C1532 C 0.4335 0.35192 0.58013 0.0
C1533 C 0.49505 0.34939 0.57613 0.0
C1534 C 0.43157 0.33008 0.55227 0.0
C1535 C 0.46069 0.31795 0.53643 0.0
H1536 H 0.09143 0.68832 0.67908 0.0
H1537 H 0.18096 0.74135 0.64877 0.0
H1538 H 0.16016 0.79309 0.67607 0.0
H1539 H 0.11358 0.8247 0.70339 0.0
H1540 H 0.0258 0.77099 0.73733 0.0
H1541 H 0.04832 0.71817 0.71358 0.0
C1542 C 0.10666 0.71103 0.6793 0.0
C1543 C 0.1377 0.7112 0.66214 0.0
C1544 C 0.09446 0.74066 0.69505 0.0
C1545 C 0.15713 0.74074 0.66212 0.0
C1546 C 0.14511 0.77034 0.67746 0.0
C1547 C 0.09977 0.80126 0.70601 0.0
C1548 C 0.06787 0.8016 0.72138 0.0
C1549 C 0.11338 0.77087 0.69317 0.0
C1550 C 0.05027 0.77116 0.72516 0.0
C1551 C 0.06316 0.74102 0.71163 0.0
H1552 H 0.4573 0.8147 0.91969 0.0
H1553 H 0.47984 0.8282 0.02469 0.0
H1554 H 0.52827 0.86326 0.00957 0.0
H1555 H 0.56199 0.89294 0.96548 0.0
H1556 H 0.54403 0.86978 0.86111 0.0
H1557 H 0.49793 0.83255 0.87687 0.0
C1558 C 0.47389 0.82313 0.93933 0.0
C1559 C 0.4654 0.81738 0.97318 0.0
C1560 C 0.50311 0.84092 0.93048 0.0
C1561 C 0.4858 0.83174 0.9983 0.0
C1562 C 0.51373 0.85161 0.98969 0.0
C1563 C 0.54916 0.87822 0.94641 0.0
C1564 C 0.55668 0.88373 0.91214 0.0
C1565 C 0.52262 0.85646 0.95575 0.0
C1566 C 0.53919 0.86533 0.8876 0.0
C1567 C 0.51238 0.84451 0.8966 0.0
H1568 H 1.00008 0.11384 0.38964 0.0
H1569 H 0.91901 0.15952 0.44631 0.0
H1570 H 0.9599 0.19165 0.47964 0.0
H1571 H 0.01922 0.20922 0.4903 0.0
H1572 H 0.09882 0.16615 0.42969 0.0
H1573 H 0.05825 0.1304 0.40047 0.0
C1574 C 0.99132 0.13068 0.40944 0.0
C1575 C 0.95651 0.13431 0.41539 0.0
C1576 C 0.01486 0.14955 0.42781 0.0
C1577 C 0.94565 0.15594 0.44143 0.0
C1578 C 0.96904 0.17453 0.46029 0.0
C1579 C 0.02753 0.19162 0.47098 0.0
C1580 C 0.06194 0.18985 0.46236 0.0
C1581 C 1.00375 0.17188 0.45343 0.0
C1582 C 0.07248 0.16767 0.4368 0.0
C1583 C 0.04929 0.14732 0.42007 0.0
loop_
_geom_bond_atom_site_label_1
_geom_bond_atom_site_label_2
_geom_bond_distance
_geom_bond_site_symmetry_2
_ccdc_geom_bond_type
Eu0 N29 2.600 . S
Eu0 N35 2.562 . S
Eu0 O44 2.462 . S
Eu0 O45 2.373 . S
Eu0 O47 2.432 . S
Eu0 O48 2.291 . S
Eu0 O52 2.335 . S
Eu0 O55 2.372 . S
Eu0 C64 2.787 . S
C1 N2 1.365 . S
C1 C4 1.405 1_455 S
C1 C8 1.448 . S
N2 C1 1.365 . S
N2 C5 1.319 . S
N2 Eu11 2.600 . S
C3 C5 1.397 1_655 S
C3 C6 1.367 . S
C3 H23 0.931 . S
C4 C1 1.405 1_655 S
C4 C6 1.403 . S
C4 C10 1.439 . S
C5 N2 1.319 . S
C5 C3 1.397 1_455 S
C5 H16 0.930 . S
C6 C3 1.367 . S
C6 C4 1.403 . S
C6 H27 0.929 . S
C7 C8 1.430 . S
C7 C9 1.387 1_455 S
C7 C13 1.404 . S
C8 C1 1.448 . S
C8 C7 1.430 . S
C8 N12 1.351 . S
C9 C7 1.387 1_655 S
C9 C10 1.374 . S
C9 H24 0.931 . S
C10 C4 1.439 . S
C10 C9 1.374 . S
C10 H25 0.931 . S
Eu11 N2 2.600 . S
Eu11 N12 2.562 . S
Eu11 O46 2.335 . S
Eu11 O49 2.372 . S
Eu11 O50 2.462 . S
Eu11 O51 2.373 . S
Eu11 O53 2.432 . S
Eu11 O54 2.291 . S
Eu11 C75 2.787 . S
N12 C8 1.351 . S
N12 Eu11 2.562 . S
N12 C14 1.325 . S
C13 C7 1.404 . S
C13 C15 1.366 . S
C13 H21 0.930 . S
C14 N12 1.325 . S
C14 C15 1.416 . S
C14 H20 0.929 . S
C15 C13 1.366 . S
C15 C14 1.416 . S
C15 H17 0.930 . S
H16 C5 0.930 . S
H17 C15 0.930 . S
H18 C33 0.930 . S
H19 C40 0.930 . S
H20 C14 0.929 . S
H21 C13 0.930 . S
H22 C36 0.929 . S
H23 C3 0.931 . S
H24 C9 0.931 . S
H25 C10 0.931 . S
H26 C31 0.931 . S
H27 C6 0.929 . S
H28 C39 0.930 . S
N29 Eu0 2.600 . S
N29 C30 1.365 . S
N29 C33 1.319 . S
C30 N29 1.365 . S
C30 C32 1.405 . S
C30 C38 1.448 . S
C31 H26 0.931 . S
C31 C33 1.397 . S
C31 C34 1.367 . S
C32 C30 1.405 . S
C32 C34 1.403 . S
C32 C65 1.439 . S
C33 H18 0.930 . S
C33 N29 1.319 . S
C33 C31 1.397 . S
C34 C31 1.367 . S
C34 C32 1.403 . S
C34 H41 0.929 . S
N35 Eu0 2.562 . S
N35 C36 1.325 . S
N35 C38 1.351 . S
C36 H22 0.929 . S
C36 N35 1.325 . S
C36 C40 1.416 . S
C37 C38 1.430 . S
C37 C39 1.404 . S
C37 C66 1.387 . S
C38 C30 1.448 . S
C38 N35 1.351 . S
C38 C37 1.430 . S
C39 H28 0.930 . S
C39 C37 1.404 . S
C39 C40 1.366 . S
C40 H19 0.930 . S
C40 C36 1.416 . S
C40 C39 1.366 . S
H41 C34 0.929 . S
H42 C65 0.931 . S
H43 C66 0.931 . S
O44 Eu0 2.462 . S
O44 C64 1.252 . S
O45 Eu0 2.373 . S
O45 C56 1.249 . S
O46 Eu11 2.335 . S
O46 C56 1.264 . S
O47 Eu0 2.432 . S
O47 C64 1.268 . S
O48 Eu0 2.291 . S
O48 C63 1.255 . S
O49 Eu11 2.372 . S
O49 C63 1.257 . S
O50 Eu11 2.462 . S
O50 C75 1.252 . S
O51 Eu11 2.373 . S
O51 C67 1.249 . S
O52 Eu0 2.335 . S
O52 C67 1.264 . S
O53 Eu11 2.432 . S
O53 C75 1.268 . S
O54 Eu11 2.291 . S
O54 C74 1.255 . S
O55 Eu0 2.372 . S
O55 C74 1.257 . S
C56 O45 1.249 . S
C56 O46 1.264 . S
C57 C60 1.382 . S
C57 C62 1.390 . S
C57 C64 1.506 . S
C58 C59 1.398 . S
C58 C62 1.392 . S
C59 C58 1.398 . S
C59 C61 1.372 . S
C59 H76 0.931 . S
C60 C57 1.382 . S
C60 C61 1.390 . S
C60 H77 0.931 . S
C61 C59 1.372 . S
C61 C60 1.390 . S
C61 H78 0.929 . S
C62 C57 1.390 . S
C62 C58 1.392 . S
C62 H79 0.930 . S
C63 O48 1.255 . S
C63 O49 1.257 . S
C64 Eu0 2.787 . S
C64 O44 1.252 . S
C64 O47 1.268 . S
C64 C57 1.506 . S
C65 C32 1.439 . S
C65 H42 0.931 . S
C65 C66 1.374 . S
C66 C37 1.387 . S
C66 H43 0.931 . S
C66 C65 1.374 . S
C67 O51 1.249 . S
C67 O52 1.264 . S
C68 C71 1.382 . S
C68 C72 1.390 . S
C68 C75 1.506 . S
C69 C70 1.398 . S
C69 C72 1.392 . S
C70 C69 1.398 . S
C70 C73 1.372 . S
C70 H80 0.931 . S
C71 C68 1.382 . S
C71 C73 1.390 . S
C71 H81 0.931 . S
C72 C68 1.390 . S
C72 C69 1.392 . S
C72 H82 0.930 . S
C73 C70 1.372 . S
C73 C71 1.390 . S
C73 H83 0.929 . S
C74 O54 1.255 . S
C74 O55 1.257 . S
C75 Eu11 2.787 . S
C75 O50 1.252 . S
C75 O53 1.268 . S
C75 C68 1.506 . S
H76 C59 0.931 . S
H77 C60 0.931 . S
H78 C61 0.929 . S
H79 C62 0.930 . S
H80 C70 0.931 . S
H81 C71 0.931 . S
H82 C72 0.930 . S
H83 C73 0.929 . S
Eu84 N113 2.600 . S
Eu84 N119 2.562 . S
Eu84 O128 2.462 . S
Eu84 O129 2.373 . S
Eu84 O131 2.432 . S
Eu84 O132 2.291 . S
Eu84 O136 2.335 . S
Eu84 O139 2.372 1_455 S
Eu84 C148 2.787 . S
C85 N86 1.365 . S
C85 C88 1.405 . S
C85 C92 1.448 . S
N86 C85 1.365 . S
N86 C89 1.319 . S
N86 Eu95 2.600 . S
C87 C89 1.397 . S
C87 C90 1.367 . S
C87 H107 0.933 . S
C88 C85 1.405 . S
C88 C90 1.403 . S
C88 C94 1.439 . S
C89 N86 1.319 . S
C89 C87 1.397 . S
C89 H100 0.930 1_655 S
C90 C87 1.367 . S
C90 C88 1.403 . S
C90 H111 0.929 . S
C91 C92 1.430 . S
C91 C93 1.387 . S
C91 C97 1.404 . S
C92 C85 1.448 . S
C92 C91 1.430 . S
C92 N96 1.351 . S
C93 C91 1.387 . S
C93 C94 1.374 . S
C93 H108 0.931 . S
C94 C88 1.439 . S
C94 C93 1.374 . S
C94 H109 0.931 . S
Eu95 N86 2.600 . S
Eu95 N96 2.562 . S
Eu95 O130 2.335 1_655 S
Eu95 O133 2.372 1_655 S
Eu95 O134 2.462 . S
Eu95 O135 2.373 . S
Eu95 O137 2.432 . S
Eu95 O138 2.291 . S
Eu95 C159 2.787 . S
N96 C92 1.351 . S
N96 Eu95 2.562 . S
N96 C98 1.325 . S
C97 C91 1.404 . S
C97 C99 1.366 . S
C97 H105 0.930 . S
C98 N96 1.325 . S
C98 C99 1.416 . S
C98 H104 0.929 . S
C99 C97 1.366 . S
C99 C98 1.416 . S
C99 H101 0.930 . S
H100 C89 0.930 1_455 S
H101 C99 0.930 . S
H102 C117 0.930 . S
H103 C124 0.930 . S
H104 C98 0.929 . S
H105 C97 0.930 . S
H106 C120 0.929 . S
H107 C87 0.933 . S
H108 C93 0.931 . S
H109 C94 0.931 . S
H110 C115 0.931 . S
H111 C90 0.929 . S
H112 C123 0.930 . S
N113 Eu84 2.600 . S
N113 C114 1.365 . S
N113 C117 1.319 . S
C114 N113 1.365 . S
C114 C116 1.405 1_565 S
C114 C122 1.448 . S
C115 H110 0.931 . S
C115 C117 1.397 1_545 S
C115 C118 1.367 . S
C116 C114 1.405 1_545 S
C116 C118 1.403 . S
C116 C149 1.439 . S
C117 H102 0.930 . S
C117 N113 1.319 . S
C117 C115 1.397 1_565 S
C118 C115 1.367 . S
C118 C116 1.403 . S
C118 H125 0.929 . S
N119 Eu84 2.562 . S
N119 C120 1.325 . S
N119 C122 1.351 . S
C120 H106 0.929 . S
C120 N119 1.325 . S
C120 C124 1.416 . S
C121 C122 1.430 . S
C121 C123 1.404 . S
C121 C150 1.387 1_565 S
C122 C114 1.448 . S
C122 N119 1.351 . S
C122 C121 1.430 . S
C123 H112 0.930 . S
C123 C121 1.404 . S
C123 C124 1.366 . S
C124 H103 0.930 . S
C124 C120 1.416 . S
C124 C123 1.366 . S
H125 C118 0.929 . S
H126 C149 0.931 . S
H127 C150 0.931 . S
O128 Eu84 2.462 . S
O128 C148 1.252 . S
O129 Eu84 2.373 . S
O129 C140 1.249 . S
O130 Eu95 2.335 1_455 S
O130 C140 1.264 . S
O131 Eu84 2.432 . S
O131 C148 1.268 . S
O132 Eu84 2.291 . S
O132 C147 1.255 . S
O133 Eu95 2.372 1_455 S
O133 C147 1.257 . S
O134 Eu95 2.462 . S
O134 C159 1.252 . S
O135 Eu95 2.373 . S
O135 C151 1.249 . S
O136 Eu84 2.335 . S
O136 C151 1.264 1_455 S
O137 Eu95 2.432 . S
O137 C159 1.268 . S
O138 Eu95 2.291 . S
O138 C158 1.255 . S
O139 Eu84 2.372 1_655 S
O139 C158 1.257 . S
C140 O129 1.249 . S
C140 O130 1.264 . S
C141 C144 1.382 . S
C141 C146 1.390 . S
C141 C148 1.506 . S
C142 C143 1.398 . S
C142 C146 1.392 . S
C143 C142 1.398 . S
C143 C145 1.372 . S
C143 H160 0.931 . S
C144 C141 1.382 . S
C144 C145 1.390 . S
C144 H161 0.931 . S
C145 C143 1.372 . S
C145 C144 1.390 . S
C145 H162 0.929 . S
C146 C141 1.390 . S
C146 C142 1.392 . S
C146 H163 0.930 . S
C147 O132 1.255 . S
C147 O133 1.257 . S
C148 Eu84 2.787 . S
C148 O128 1.252 . S
C148 O131 1.268 . S
C148 C141 1.506 . S
C149 C116 1.439 . S
C149 H126 0.931 . S
C149 C150 1.374 . S
C150 C121 1.387 1_545 S
C150 H127 0.931 . S
C150 C149 1.374 . S
C151 O135 1.249 . S
C151 O136 1.264 1_655 S
C152 C155 1.382 . S
C152 C156 1.390 . S
C152 C159 1.506 . S
C153 C154 1.398 . S
C153 C156 1.392 . S
C154 C153 1.398 . S
C154 C157 1.372 . S
C154 H164 0.931 . S
C155 C152 1.382 . S
C155 C157 1.390 . S
C155 H165 0.931 . S
C156 C152 1.390 . S
C156 C153 1.392 . S
C156 H166 0.930 . S
C157 C154 1.372 . S
C157 C155 1.390 . S
C157 H167 0.929 . S
C158 O138 1.255 . S
C158 O139 1.257 . S
C159 Eu95 2.787 . S
C159 O134 1.252 . S
C159 O137 1.268 . S
C159 C152 1.506 . S
H160 C143 0.931 . S
H161 C144 0.931 . S
H162 C145 0.929 . S
H163 C146 0.930 . S
H164 C154 0.931 . S
H165 C155 0.931 . S
H166 C156 0.930 . S
H167 C157 0.929 . S
Eu168 N197 2.600 . S
Eu168 N203 2.562 . S
Eu168 O212 2.462 . S
Eu168 O213 2.373 . S
Eu168 O215 2.432 . S
Eu168 O216 2.291 . S
Eu168 O220 2.335 . S
Eu168 O223 2.372 1_556 S
Eu168 C232 2.787 . S
C169 N170 1.365 . S
C169 C172 1.405 . S
C169 C176 1.448 . S
N170 C169 1.365 . S
N170 C173 1.319 . S
N170 Eu179 2.600 . S
C171 C173 1.397 . S
C171 C174 1.367 . S
C171 H191 0.925 1_554 S
C172 C169 1.405 . S
C172 C174 1.403 . S
C172 C178 1.439 . S
C173 N170 1.319 . S
C173 C171 1.397 . S
C173 H184 0.930 1_554 S
C174 C171 1.367 . S
C174 C172 1.403 . S
C174 H195 0.929 . S
C175 C176 1.430 . S
C175 C177 1.387 . S
C175 C181 1.404 . S
C176 C169 1.448 . S
C176 C175 1.430 . S
C176 N180 1.351 . S
C177 C175 1.387 . S
C177 C178 1.374 . S
C177 H192 0.931 . S
C178 C172 1.439 . S
C178 C177 1.374 . S
C178 H193 0.931 . S
Eu179 N170 2.600 . S
Eu179 N180 2.562 . S
Eu179 O214 2.335 1_554 S
Eu179 O217 2.372 1_554 S
Eu179 O218 2.462 . S
Eu179 O219 2.373 . S
Eu179 O221 2.432 . S
Eu179 O222 2.291 . S
Eu179 C243 2.787 . S
N180 C176 1.351 . S
N180 Eu179 2.562 . S
N180 C182 1.325 . S
C181 C175 1.404 . S
C181 C183 1.366 . S
C181 H189 0.930 . S
C182 N180 1.325 . S
C182 C183 1.416 . S
C182 H188 0.929 . S
C183 C181 1.366 . S
C183 C182 1.416 . S
C183 H185 0.930 . S
H184 C173 0.930 1_556 S
H185 C183 0.930 . S
H186 C201 0.930 . S
H187 C208 0.930 . S
H188 C182 0.929 . S
H189 C181 0.930 . S
H190 C204 0.929 . S
H191 C171 0.925 1_556 S
H192 C177 0.931 . S
H193 C178 0.931 . S
H194 C199 0.931 . S
H195 C174 0.929 . S
H196 C207 0.930 . S
N197 Eu168 2.600 . S
N197 C198 1.365 . S
N197 C201 1.319 . S
C198 N197 1.365 . S
C198 C200 1.405 . S
C198 C206 1.448 . S
C199 H194 0.931 . S
C199 C201 1.397 . S
C199 C202 1.367 . S
C200 C198 1.405 . S
C200 C202 1.403 . S
C200 C233 1.439 . S
C201 H186 0.930 . S
C201 N197 1.319 . S
C201 C199 1.397 . S
C202 C199 1.367 . S
C202 C200 1.403 . S
C202 H209 0.929 . S
N203 Eu168 2.562 . S
N203 C204 1.325 . S
N203 C206 1.351 . S
C204 H190 0.929 . S
C204 N203 1.325 . S
C204 C208 1.416 . S
C205 C206 1.430 . S
C205 C207 1.404 . S
C205 C234 1.387 . S
C206 C198 1.448 . S
C206 N203 1.351 . S
C206 C205 1.430 . S
C207 H196 0.930 . S
C207 C205 1.404 . S
C207 C208 1.366 . S
C208 H187 0.930 . S
C208 C204 1.416 . S
C208 C207 1.366 . S
H209 C202 0.929 . S
H210 C233 0.931 . S
H211 C234 0.931 . S
O212 Eu168 2.462 . S
O212 C232 1.252 . S
O213 Eu168 2.373 . S
O213 C224 1.249 . S
O214 Eu179 2.335 1_556 S
O214 C224 1.264 . S
O215 Eu168 2.432 . S
O215 C232 1.268 . S
O216 Eu168 2.291 . S
O216 C231 1.255 . S
O217 Eu179 2.372 1_556 S
O217 C231 1.257 . S
O218 Eu179 2.462 . S
O218 C243 1.252 . S
O219 Eu179 2.373 . S
O219 C235 1.249 . S
O220 Eu168 2.335 . S
O220 C235 1.264 1_556 S
O221 Eu179 2.432 . S
O221 C243 1.268 . S
O222 Eu179 2.291 . S
O222 C242 1.255 . S
O223 Eu168 2.372 1_554 S
O223 C242 1.257 . S
C224 O213 1.249 . S
C224 O214 1.264 . S
C225 C228 1.382 . S
C225 C230 1.390 . S
C225 C232 1.506 . S
C226 C227 1.398 . S
C226 C230 1.392 . S
C227 C226 1.398 . S
C227 C229 1.372 . S
C227 H244 0.931 . S
C228 C225 1.382 . S
C228 C229 1.390 . S
C228 H245 0.931 . S
C229 C227 1.372 . S
C229 C228 1.390 . S
C229 H246 0.929 . S
C230 C225 1.390 . S
C230 C226 1.392 . S
C230 H247 0.930 . S
C231 O216 1.255 . S
C231 O217 1.257 . S
C232 Eu168 2.787 . S
C232 O212 1.252 . S
C232 O215 1.268 . S
C232 C225 1.506 . S
C233 C200 1.439 . S
C233 H210 0.931 . S
C233 C234 1.374 . S
C234 C205 1.387 . S
C234 H211 0.931 . S
C234 C233 1.374 . S
C235 O219 1.249 . S
C235 O220 1.264 1_554 S
C236 C239 1.382 . S
C236 C240 1.390 . S
C236 C243 1.506 . S
C237 C238 1.398 . S
C237 C240 1.392 . S
C238 C237 1.398 . S
C238 C241 1.372 . S
C238 H248 0.931 . S
C239 C236 1.382 . S
C239 C241 1.390 . S
C239 H249 0.931 . S
C240 C236 1.390 . S
C240 C237 1.392 . S
C240 H250 0.930 . S
C241 C238 1.372 . S
C241 C239 1.390 . S
C241 H251 0.929 . S
C242 O222 1.255 . S
C242 O223 1.257 . S
C243 Eu179 2.787 . S
C243 O218 1.252 . S
C243 O221 1.268 . S
C243 C236 1.506 . S
H244 C227 0.931 . S
H245 C228 0.931 . S
H246 C229 0.929 . S
H247 C230 0.930 . S
H248 C238 0.931 . S
H249 C239 0.931 . S
H250 C240 0.930 . S
H251 C241 0.929 . S
Eu252 N281 2.600 . S
Eu252 N287 2.562 . S
Eu252 O296 2.462 . S
Eu252 O297 2.373 . S
Eu252 O299 2.432 . S
Eu252 O300 2.291 . S
Eu252 O304 2.335 . S
Eu252 O307 2.372 . S
Eu252 C316 2.787 . S
C253 N254 1.365 . S
C253 C256 1.405 . S
C253 C260 1.448 . S
N254 C253 1.365 . S
N254 C257 1.319 . S
N254 Eu263 2.600 . S
C255 C257 1.397 . S
C255 C258 1.367 . S
C255 H275 0.931 . S
C256 C253 1.405 . S
C256 C258 1.403 . S
C256 C262 1.439 . S
C257 N254 1.319 . S
C257 C255 1.397 . S
C257 H268 0.930 . S
C258 C255 1.367 . S
C258 C256 1.403 . S
C258 H279 0.929 . S
C259 C260 1.430 . S
C259 C261 1.387 . S
C259 C265 1.404 . S
C260 C253 1.448 . S
C260 C259 1.430 . S
C260 N264 1.351 . S
C261 C259 1.387 . S
C261 C262 1.374 . S
C261 H276 0.931 . S
C262 C256 1.439 . S
C262 C261 1.374 . S
C262 H277 0.931 . S
Eu263 N254 2.600 . S
Eu263 N264 2.562 . S
Eu263 O298 2.335 . S
Eu263 O301 2.372 . S
Eu263 O302 2.462 . S
Eu263 O303 2.373 . S
Eu263 O305 2.432 . S
Eu263 O306 2.291 . S
Eu263 C327 2.787 . S
N264 C260 1.351 . S
N264 Eu263 2.562 . S
N264 C266 1.325 . S
C265 C259 1.404 . S
C265 C267 1.366 . S
C265 H273 0.930 . S
C266 N264 1.325 . S
C266 C267 1.416 . S
C266 H272 0.929 . S
C267 C265 1.366 . S
C267 C266 1.416 . S
C267 H269 0.930 . S
H268 C257 0.930 . S
H269 C267 0.930 . S
H270 C285 0.930 . S
H271 C292 0.930 . S
H272 C266 0.929 . S
H273 C265 0.930 . S
H274 C288 0.929 . S
H275 C255 0.931 . S
H276 C261 0.931 . S
H277 C262 0.931 . S
H278 C283 0.931 . S
H279 C258 0.929 . S
H280 C291 0.930 . S
N281 Eu252 2.600 . S
N281 C282 1.365 . S
N281 C285 1.319 . S
C282 N281 1.365 . S
C282 C284 1.405 1_545 S
C282 C290 1.448 . S
C283 H278 0.931 . S
C283 C285 1.397 1_565 S
C283 C286 1.367 . S
C284 C282 1.405 1_565 S
C284 C286 1.403 . S
C284 C317 1.439 . S
C285 H270 0.930 . S
C285 N281 1.319 . S
C285 C283 1.397 1_545 S
C286 C283 1.367 . S
C286 C284 1.403 . S
C286 H293 0.929 . S
N287 Eu252 2.562 . S
N287 C288 1.325 . S
N287 C290 1.351 . S
C288 H274 0.929 . S
C288 N287 1.325 . S
C288 C292 1.416 . S
C289 C290 1.430 . S
C289 C291 1.404 . S
C289 C318 1.387 1_545 S
C290 C282 1.448 . S
C290 N287 1.351 . S
C290 C289 1.430 . S
C291 H280 0.930 . S
C291 C289 1.404 . S
C291 C292 1.366 . S
C292 H271 0.930 . S
C292 C288 1.416 . S
C292 C291 1.366 . S
H293 C286 0.929 . S
H294 C317 0.931 . S
H295 C318 0.931 . S
O296 Eu252 2.462 . S
O296 C316 1.252 . S
O297 Eu252 2.373 . S
O297 C308 1.249 . S
O298 Eu263 2.335 . S
O298 C308 1.264 . S
O299 Eu252 2.432 . S
O299 C316 1.268 . S
O300 Eu252 2.291 . S
O300 C315 1.255 . S
O301 Eu263 2.372 . S
O301 C315 1.257 . S
O302 Eu263 2.462 . S
O302 C327 1.252 . S
O303 Eu263 2.373 . S
O303 C319 1.249 . S
O304 Eu252 2.335 . S
O304 C319 1.264 . S
O305 Eu263 2.432 . S
O305 C327 1.268 . S
O306 Eu263 2.291 . S
O306 C326 1.255 . S
O307 Eu252 2.372 . S
O307 C326 1.257 . S
C308 O297 1.249 . S
C308 O298 1.264 . S
C309 C312 1.382 . S
C309 C314 1.390 . S
C309 C316 1.506 . S
C310 C311 1.398 . S
C310 C314 1.392 . S
C311 C310 1.398 . S
C311 C313 1.372 . S
C311 H328 0.931 . S
C312 C309 1.382 . S
C312 C313 1.390 . S
C312 H329 0.931 . S
C313 C311 1.372 . S
C313 C312 1.390 . S
C313 H330 0.929 . S
C314 C309 1.390 . S
C314 C310 1.392 . S
C314 H331 0.930 . S
C315 O300 1.255 . S
C315 O301 1.257 . S
C316 Eu252 2.787 . S
C316 O296 1.252 . S
C316 O299 1.268 . S
C316 C309 1.506 . S
C317 C284 1.439 . S
C317 H294 0.931 . S
C317 C318 1.374 . S
C318 C289 1.387 1_565 S
C318 H295 0.931 . S
C318 C317 1.374 . S
C319 O303 1.249 . S
C319 O304 1.264 . S
C320 C323 1.382 . S
C320 C324 1.390 . S
C320 C327 1.506 . S
C321 C322 1.398 . S
C321 C324 1.392 . S
C322 C321 1.398 . S
C322 C325 1.372 . S
C322 H332 0.931 . S
C323 C320 1.382 . S
C323 C325 1.390 . S
C323 H333 0.931 . S
C324 C320 1.390 . S
C324 C321 1.392 . S
C324 H334 0.930 . S
C325 C322 1.372 . S
C325 C323 1.390 . S
C325 H335 0.929 . S
C326 O306 1.255 . S
C326 O307 1.257 . S
C327 Eu263 2.787 . S
C327 O302 1.252 . S
C327 O305 1.268 . S
C327 C320 1.506 . S
H328 C311 0.931 . S
H329 C312 0.931 . S
H330 C313 0.929 . S
H331 C314 0.930 . S
H332 C322 0.931 . S
H333 C323 0.931 . S
H334 C324 0.930 . S
H335 C325 0.929 . S
Eu336 N365 2.600 . S
Eu336 N371 2.562 . S
Eu336 O380 2.462 . S
Eu336 O381 2.373 . S
Eu336 O383 2.432 . S
Eu336 O384 2.291 . S
Eu336 O388 2.335 . S
Eu336 O391 2.372 . S
Eu336 C400 2.787 . S
C337 N338 1.365 . S
C337 C340 1.405 . S
C337 C344 1.448 . S
N338 C337 1.365 . S
N338 C341 1.319 . S
N338 Eu347 2.600 . S
C339 C341 1.397 . S
C339 C342 1.367 . S
C339 H359 0.931 . S
C340 C337 1.405 . S
C340 C342 1.403 . S
C340 C346 1.439 . S
C341 N338 1.319 . S
C341 C339 1.397 . S
C341 H352 0.930 . S
C342 C339 1.367 . S
C342 C340 1.403 . S
C342 H363 0.929 . S
C343 C344 1.430 . S
C343 C345 1.387 . S
C343 C349 1.404 . S
C344 C337 1.448 . S
C344 C343 1.430 . S
C344 N348 1.351 . S
C345 C343 1.387 . S
C345 C346 1.374 . S
C345 H360 0.931 . S
C346 C340 1.439 . S
C346 C345 1.374 . S
C346 H361 0.931 . S
Eu347 N338 2.600 . S
Eu347 N348 2.562 . S
Eu347 O382 2.335 . S
Eu347 O385 2.372 . S
Eu347 O386 2.462 . S
Eu347 O387 2.373 . S
Eu347 O389 2.432 . S
Eu347 O390 2.291 . S
Eu347 C411 2.787 . S
N348 C344 1.351 . S
N348 Eu347 2.562 . S
N348 C350 1.325 . S
C349 C343 1.404 . S
C349 C351 1.366 . S
C349 H357 0.930 . S
C350 N348 1.325 . S
C350 C351 1.416 . S
C350 H356 0.929 . S
C351 C349 1.366 . S
C351 C350 1.416 . S
C351 H353 0.930 . S
H352 C341 0.930 . S
H353 C351 0.930 . S
H354 C369 0.930 . S
H355 C376 0.930 . S
H356 C350 0.929 . S
H357 C349 0.930 . S
H358 C372 0.929 . S
H359 C339 0.931 . S
H360 C345 0.931 . S
H361 C346 0.931 . S
H362 C367 0.931 . S
H363 C342 0.929 . S
H364 C375 0.930 . S
N365 Eu336 2.600 . S
N365 C366 1.365 . S
N365 C369 1.319 . S
C366 N365 1.365 . S
C366 C368 1.405 . S
C366 C374 1.448 . S
C367 H362 0.931 . S
C367 C369 1.397 . S
C367 C370 1.367 . S
C368 C366 1.405 . S
C368 C370 1.403 . S
C368 C401 1.439 . S
C369 H354 0.930 . S
C369 N365 1.319 . S
C369 C367 1.397 . S
C370 C367 1.367 . S
C370 C368 1.403 . S
C370 H377 0.929 . S
N371 Eu336 2.562 . S
N371 C372 1.325 . S
N371 C374 1.351 . S
C372 H358 0.929 . S
C372 N371 1.325 . S
C372 C376 1.416 . S
C373 C374 1.430 . S
C373 C375 1.404 . S
C373 C402 1.387 . S
C374 C366 1.448 . S
C374 N371 1.351 . S
C374 C373 1.430 . S
C375 H364 0.930 . S
C375 C373 1.404 . S
C375 C376 1.366 . S
C376 H355 0.930 . S
C376 C372 1.416 . S
C376 C375 1.366 . S
H377 C370 0.929 . S
H378 C401 0.931 . S
H379 C402 0.931 . S
O380 Eu336 2.462 . S
O380 C400 1.252 . S
O381 Eu336 2.373 . S
O381 C392 1.249 . S
O382 Eu347 2.335 . S
O382 C392 1.264 . S
O383 Eu336 2.432 . S
O383 C400 1.268 . S
O384 Eu336 2.291 . S
O384 C399 1.255 . S
O385 Eu347 2.372 . S
O385 C399 1.257 . S
O386 Eu347 2.462 . S
O386 C411 1.252 . S
O387 Eu347 2.373 . S
O387 C403 1.249 . S
O388 Eu336 2.335 . S
O388 C403 1.264 . S
O389 Eu347 2.432 . S
O389 C411 1.268 . S
O390 Eu347 2.291 . S
O390 C410 1.255 . S
O391 Eu336 2.372 . S
O391 C410 1.257 . S
C392 O381 1.249 . S
C392 O382 1.264 . S
C393 C396 1.382 . S
C393 C398 1.390 . S
C393 C400 1.506 . S
C394 C395 1.398 . S
C394 C398 1.392 . S
C395 C394 1.398 . S
C395 C397 1.372 . S
C395 H412 0.931 . S
C396 C393 1.382 . S
C396 C397 1.390 . S
C396 H413 0.931 . S
C397 C395 1.372 . S
C397 C396 1.390 . S
C397 H414 0.929 . S
C398 C393 1.390 . S
C398 C394 1.392 . S
C398 H415 0.930 . S
C399 O384 1.255 . S
C399 O385 1.257 . S
C400 Eu336 2.787 . S
C400 O380 1.252 . S
C400 O383 1.268 . S
C400 C393 1.506 . S
C401 C368 1.439 . S
C401 H378 0.931 . S
C401 C402 1.374 . S
C402 C373 1.387 . S
C402 H379 0.931 . S
C402 C401 1.374 . S
C403 O387 1.249 . S
C403 O388 1.264 . S
C404 C407 1.382 . S
C404 C408 1.390 . S
C404 C411 1.506 . S
C405 C406 1.398 . S
C405 C408 1.392 . S
C406 C405 1.398 . S
C406 C409 1.372 . S
C406 H416 0.931 . S
C407 C404 1.382 . S
C407 C409 1.390 . S
C407 H417 0.931 . S
C408 C404 1.390 . S
C408 C405 1.392 . S
C408 H418 0.930 . S
C409 C406 1.372 . S
C409 C407 1.390 . S
C409 H419 0.929 . S
C410 O390 1.255 . S
C410 O391 1.257 . S
C411 Eu347 2.787 . S
C411 O386 1.252 . S
C411 O389 1.268 . S
C411 C404 1.506 . S
H412 C395 0.931 . S
H413 C396 0.931 . S
H414 C397 0.929 . S
H415 C398 0.930 . S
H416 C406 0.931 . S
H417 C407 0.931 . S
H418 C408 0.930 . S
H419 C409 0.929 . S
Eu420 N449 2.600 . S
Eu420 N455 2.562 . S
Eu420 O464 2.462 . S
Eu420 O465 2.373 1_455 S
Eu420 O467 2.432 . S
Eu420 O468 2.291 1_455 S
Eu420 O472 2.335 . S
Eu420 O475 2.372 . S
Eu420 C484 2.787 . S
C421 N422 1.365 . S
C421 C424 1.405 . S
C421 C428 1.448 . S
N422 C421 1.365 . S
N422 C425 1.319 . S
N422 Eu431 2.600 . S
C423 C425 1.397 . S
C423 C426 1.367 . S
C423 H443 0.931 . S
C424 C421 1.405 . S
C424 C426 1.403 . S
C424 C430 1.439 . S
C425 N422 1.319 . S
C425 C423 1.397 . S
C425 H436 0.930 . S
C426 C423 1.367 . S
C426 C424 1.403 . S
C426 H447 0.929 . S
C427 C428 1.430 . S
C427 C429 1.387 . S
C427 C433 1.404 . S
C428 C421 1.448 . S
C428 C427 1.430 . S
C428 N432 1.351 . S
C429 C427 1.387 . S
C429 C430 1.374 . S
C429 H444 0.931 . S
C430 C424 1.439 . S
C430 C429 1.374 . S
C430 H445 0.931 . S
Eu431 N422 2.600 . S
Eu431 N432 2.562 . S
Eu431 O466 2.335 . S
Eu431 O469 2.372 . S
Eu431 O470 2.462 . S
Eu431 O471 2.373 1_655 S
Eu431 O473 2.432 . S
Eu431 O474 2.291 . S
Eu431 C495 2.787 . S
N432 C428 1.351 . S
N432 Eu431 2.562 . S
N432 C434 1.325 . S
C433 C427 1.404 . S
C433 C435 1.366 1_655 S
C433 H441 0.930 1_655 S
C434 N432 1.325 . S
C434 C435 1.416 1_655 S
C434 H440 0.929 . S
C435 C433 1.366 1_455 S
C435 C434 1.416 1_455 S
C435 H437 0.930 . S
H436 C425 0.930 . S
H437 C435 0.930 . S
H438 C453 0.930 . S
H439 C460 0.930 . S
H440 C434 0.929 . S
H441 C433 0.930 1_455 S
H442 C456 0.929 . S
H443 C423 0.931 . S
H444 C429 0.931 . S
H445 C430 0.931 . S
H446 C451 0.931 . S
H447 C426 0.929 . S
H448 C459 0.930 . S
N449 Eu420 2.600 . S
N449 C450 1.365 . S
N449 C453 1.319 . S
C450 N449 1.365 . S
C450 C452 1.405 . S
C450 C458 1.448 . S
C451 H446 0.931 . S
C451 C453 1.397 . S
C451 C454 1.367 . S
C452 C450 1.405 . S
C452 C454 1.403 . S
C452 C485 1.439 . S
C453 H438 0.930 . S
C453 N449 1.319 . S
C453 C451 1.397 . S
C454 C451 1.367 . S
C454 C452 1.403 . S
C454 H461 0.929 . S
N455 Eu420 2.562 . S
N455 C456 1.325 1_455 S
N455 C458 1.351 . S
C456 H442 0.929 . S
C456 N455 1.325 1_655 S
C456 C460 1.416 . S
C457 C458 1.430 1_655 S
C457 C459 1.404 . S
C457 C486 1.386 1_655 S
C458 C450 1.448 . S
C458 N455 1.351 . S
C458 C457 1.430 1_455 S
C459 H448 0.930 . S
C459 C457 1.404 . S
C459 C460 1.366 . S
C460 H439 0.930 . S
C460 C456 1.416 . S
C460 C459 1.366 . S
H461 C454 0.929 . S
H462 C485 0.931 . S
H463 C486 0.929 1_655 S
O464 Eu420 2.462 . S
O464 C484 1.252 . S
O465 Eu420 2.373 1_655 S
O465 C476 1.249 . S
O466 Eu431 2.335 . S
O466 C476 1.264 . S
O467 Eu420 2.432 . S
O467 C484 1.268 . S
O468 Eu420 2.291 1_655 S
O468 C483 1.255 . S
O469 Eu431 2.372 . S
O469 C483 1.257 . S
O470 Eu431 2.462 . S
O470 C495 1.252 . S
O471 Eu431 2.373 1_455 S
O471 C487 1.249 . S
O472 Eu420 2.335 . S
O472 C487 1.264 . S
O473 Eu431 2.432 . S
O473 C495 1.268 . S
O474 Eu431 2.291 . S
O474 C494 1.255 1_655 S
O475 Eu420 2.372 . S
O475 C494 1.257 . S
C476 O465 1.249 . S
C476 O466 1.264 . S
C477 C480 1.382 . S
C477 C482 1.390 . S
C477 C484 1.506 . S
C478 C479 1.398 . S
C478 C482 1.392 . S
C479 C478 1.398 . S
C479 C481 1.372 . S
C479 H496 0.931 . S
C480 C477 1.382 . S
C480 C481 1.390 . S
C480 H497 0.931 . S
C481 C479 1.372 . S
C481 C480 1.390 . S
C481 H498 0.929 . S
C482 C477 1.390 . S
C482 C478 1.392 . S
C482 H499 0.930 . S
C483 O468 1.255 . S
C483 O469 1.257 . S
C484 Eu420 2.787 . S
C484 O464 1.252 . S
C484 O467 1.268 . S
C484 C477 1.506 . S
C485 C452 1.439 . S
C485 H462 0.931 . S
C485 C486 1.376 . S
C486 C457 1.386 1_455 S
C486 H463 0.929 1_455 S
C486 C485 1.376 . S
C487 O471 1.249 . S
C487 O472 1.264 . S
C488 C491 1.382 . S
C488 C492 1.390 . S
C488 C495 1.506 . S
C489 C490 1.398 . S
C489 C492 1.392 . S
C490 C489 1.398 . S
C490 C493 1.372 . S
C490 H500 0.931 . S
C491 C488 1.382 . S
C491 C493 1.390 . S
C491 H501 0.931 . S
C492 C488 1.390 . S
C492 C489 1.392 . S
C492 H502 0.930 . S
C493 C490 1.372 . S
C493 C491 1.390 . S
C493 H503 0.929 . S
C494 O474 1.255 1_455 S
C494 O475 1.257 . S
C495 Eu431 2.787 . S
C495 O470 1.252 . S
C495 O473 1.268 . S
C495 C488 1.506 . S
H496 C479 0.931 . S
H497 C480 0.931 . S
H498 C481 0.929 . S
H499 C482 0.930 . S
H500 C490 0.931 . S
H501 C491 0.931 . S
H502 C492 0.930 . S
H503 C493 0.929 . S
Eu504 N533 2.600 . S
Eu504 N539 2.562 . S
Eu504 O548 2.462 . S
Eu504 O549 2.373 1_556 S
Eu504 O551 2.432 . S
Eu504 O552 2.291 1_556 S
Eu504 O556 2.335 . S
Eu504 O559 2.372 . S
Eu504 C568 2.787 . S
C505 N506 1.365 . S
C505 C508 1.405 1_655 S
C505 C512 1.448 . S
N506 C505 1.365 . S
N506 C509 1.319 . S
N506 Eu515 2.600 . S
C507 C509 1.397 1_455 S
C507 C510 1.367 . S
C507 H527 0.931 . S
C508 C505 1.405 1_455 S
C508 C510 1.403 . S
C508 C514 1.439 . S
C509 N506 1.319 . S
C509 C507 1.397 1_655 S
C509 H520 0.930 . S
C510 C507 1.367 . S
C510 C508 1.403 . S
C510 H531 0.929 . S
C511 C512 1.430 . S
C511 C513 1.387 1_655 S
C511 C517 1.390 1_554 S
C512 C505 1.448 . S
C512 C511 1.430 . S
C512 N516 1.351 . S
C513 C511 1.387 1_455 S
C513 C514 1.374 . S
C513 H528 0.930 . S
C514 C508 1.439 . S
C514 C513 1.374 . S
C514 H529 0.931 . S
Eu515 N506 2.600 . S
Eu515 N516 2.562 . S
Eu515 O550 2.335 . S
Eu515 O553 2.372 . S
Eu515 O554 2.462 . S
Eu515 O555 2.373 1_554 S
Eu515 O557 2.432 . S
Eu515 O558 2.291 . S
Eu515 C579 2.787 . S
N516 C512 1.351 . S
N516 Eu515 2.562 . S
N516 C518 1.325 . S
C517 C511 1.390 1_556 S
C517 C519 1.369 . S
C517 H525 0.942 . S
C518 N516 1.325 . S
C518 C519 1.416 1_554 S
C518 H524 0.929 . S
C519 C517 1.369 . S
C519 C518 1.416 1_556 S
C519 H521 0.930 . S
H520 C509 0.930 . S
H521 C519 0.930 . S
H522 C537 0.930 . S
H523 C544 0.930 . S
H524 C518 0.929 . S
H525 C517 0.942 . S
H526 C540 0.929 . S
H527 C507 0.931 . S
H528 C513 0.930 . S
H529 C514 0.931 . S
H530 C535 0.931 . S
H531 C510 0.929 . S
H532 C543 0.930 . S
N533 Eu504 2.600 . S
N533 C534 1.365 . S
N533 C537 1.319 . S
C534 N533 1.365 . S
C534 C536 1.405 . S
C534 C542 1.448 . S
C535 H530 0.931 . S
C535 C537 1.397 . S
C535 C538 1.367 . S
C536 C534 1.405 . S
C536 C538 1.403 . S
C536 C569 1.439 . S
C537 H522 0.930 . S
C537 N533 1.319 . S
C537 C535 1.397 . S
C538 C535 1.367 . S
C538 C536 1.403 . S
C538 H545 0.929 . S
N539 Eu504 2.562 . S
N539 C540 1.325 1_556 S
N539 C542 1.351 . S
C540 H526 0.929 . S
C540 N539 1.325 1_554 S
C540 C544 1.416 . S
C541 C542 1.430 1_554 S
C541 C543 1.404 . S
C541 C570 1.387 1_554 S
C542 C534 1.448 . S
C542 N539 1.351 . S
C542 C541 1.430 1_556 S
C543 H532 0.930 . S
C543 C541 1.404 . S
C543 C544 1.366 . S
C544 H523 0.930 . S
C544 C540 1.416 . S
C544 C543 1.366 . S
H545 C538 0.929 . S
H546 C569 0.931 . S
H547 C570 0.931 1_554 S
O548 Eu504 2.462 . S
O548 C568 1.252 . S
O549 Eu504 2.373 1_554 S
O549 C560 1.249 . S
O550 Eu515 2.335 . S
O550 C560 1.264 . S
O551 Eu504 2.432 . S
O551 C568 1.268 . S
O552 Eu504 2.291 1_554 S
O552 C567 1.255 . S
O553 Eu515 2.372 . S
O553 C567 1.257 . S
O554 Eu515 2.462 . S
O554 C579 1.252 . S
O555 Eu515 2.373 1_556 S
O555 C571 1.249 . S
O556 Eu504 2.335 . S
O556 C571 1.264 . S
O557 Eu515 2.432 . S
O557 C579 1.268 . S
O558 Eu515 2.291 . S
O558 C578 1.255 1_554 S
O559 Eu504 2.372 . S
O559 C578 1.257 . S
C560 O549 1.249 . S
C560 O550 1.264 . S
C561 C564 1.382 . S
C561 C566 1.390 . S
C561 C568 1.506 . S
C562 C563 1.398 . S
C562 C566 1.392 . S
C563 C562 1.398 . S
C563 C565 1.372 . S
C563 H580 0.931 . S
C564 C561 1.382 . S
C564 C565 1.390 . S
C564 H581 0.931 . S
C565 C563 1.372 . S
C565 C564 1.390 . S
C565 H582 0.929 . S
C566 C561 1.390 . S
C566 C562 1.392 . S
C566 H583 0.930 . S
C567 O552 1.255 . S
C567 O553 1.257 . S
C568 Eu504 2.787 . S
C568 O548 1.252 . S
C568 O551 1.268 . S
C568 C561 1.506 . S
C569 C536 1.439 . S
C569 H546 0.931 . S
C569 C570 1.374 . S
C570 C541 1.387 1_556 S
C570 H547 0.931 1_556 S
C570 C569 1.374 . S
C571 O555 1.249 . S
C571 O556 1.264 . S
C572 C575 1.382 . S
C572 C576 1.390 . S
C572 C579 1.506 . S
C573 C574 1.398 . S
C573 C576 1.392 . S
C574 C573 1.398 . S
C574 C577 1.372 . S
C574 H584 0.931 . S
C575 C572 1.382 . S
C575 C577 1.390 . S
C575 H585 0.931 . S
C576 C572 1.390 . S
C576 C573 1.392 . S
C576 H586 0.930 . S
C577 C574 1.372 . S
C577 C575 1.390 . S
C577 H587 0.929 . S
C578 O558 1.255 1_556 S
C578 O559 1.257 . S
C579 Eu515 2.787 . S
C579 O554 1.252 . S
C579 O557 1.268 . S
C579 C572 1.506 . S
H580 C563 0.931 . S
H581 C564 0.931 . S
H582 C565 0.929 . S
H583 C566 0.930 . S
H584 C574 0.931 . S
H585 C575 0.931 . S
H586 C576 0.930 . S
H587 C577 0.929 . S
Eu588 N617 2.600 . S
Eu588 N623 2.562 . S
Eu588 O632 2.462 . S
Eu588 O633 2.373 . S
Eu588 O635 2.432 . S
Eu588 O636 2.291 . S
Eu588 O640 2.335 . S
Eu588 O643 2.372 . S
Eu588 C652 2.787 . S
C589 N590 1.365 . S
C589 C592 1.405 . S
C589 C596 1.448 . S
N590 C589 1.365 . S
N590 C593 1.319 . S
N590 Eu599 2.600 . S
C591 C593 1.397 . S
C591 C594 1.367 . S
C591 H611 0.931 . S
C592 C589 1.405 . S
C592 C594 1.403 . S
C592 C598 1.439 . S
C593 N590 1.319 . S
C593 C591 1.397 . S
C593 H604 0.930 . S
C594 C591 1.367 . S
C594 C592 1.403 . S
C594 H615 0.929 . S
C595 C596 1.430 . S
C595 C597 1.387 . S
C595 C601 1.404 . S
C596 C589 1.448 . S
C596 C595 1.430 . S
C596 N600 1.351 . S
C597 C595 1.387 . S
C597 C598 1.374 . S
C597 H612 0.931 . S
C598 C592 1.439 . S
C598 C597 1.374 . S
C598 H613 0.931 . S
Eu599 N590 2.600 . S
Eu599 N600 2.562 . S
Eu599 O634 2.335 . S
Eu599 O637 2.372 . S
Eu599 O638 2.462 . S
Eu599 O639 2.373 . S
Eu599 O641 2.432 . S
Eu599 O642 2.291 . S
Eu599 C663 2.787 . S
N600 C596 1.351 . S
N600 Eu599 2.562 . S
N600 C602 1.325 . S
C601 C595 1.404 . S
C601 C603 1.366 . S
C601 H609 0.930 . S
C602 N600 1.325 . S
C602 C603 1.416 . S
C602 H608 0.929 . S
C603 C601 1.366 . S
C603 C602 1.416 . S
C603 H605 0.930 . S
H604 C593 0.930 . S
H605 C603 0.930 . S
H606 C621 0.930 . S
H607 C628 0.930 . S
H608 C602 0.929 . S
H609 C601 0.930 . S
H610 C624 0.929 . S
H611 C591 0.931 . S
H612 C597 0.931 . S
H613 C598 0.931 . S
H614 C619 0.931 . S
H615 C594 0.929 . S
H616 C627 0.930 . S
N617 Eu588 2.600 . S
N617 C618 1.365 . S
N617 C621 1.319 . S
C618 N617 1.365 . S
C618 C620 1.405 . S
C618 C626 1.448 . S
C619 H614 0.931 . S
C619 C621 1.397 . S
C619 C622 1.367 . S
C620 C618 1.405 . S
C620 C622 1.403 . S
C620 C653 1.439 . S
C621 H606 0.930 . S
C621 N617 1.319 . S
C621 C619 1.397 . S
C622 C619 1.367 . S
C622 C620 1.403 . S
C622 H629 0.929 . S
N623 Eu588 2.562 . S
N623 C624 1.325 . S
N623 C626 1.351 . S
C624 H610 0.929 . S
C624 N623 1.325 . S
C624 C628 1.416 . S
C625 C626 1.430 . S
C625 C627 1.404 . S
C625 C654 1.387 . S
C626 C618 1.448 . S
C626 N623 1.351 . S
C626 C625 1.430 . S
C627 H616 0.930 . S
C627 C625 1.404 . S
C627 C628 1.366 . S
C628 H607 0.930 . S
C628 C624 1.416 . S
C628 C627 1.366 . S
H629 C622 0.929 . S
H630 C653 0.931 . S
H631 C654 0.931 . S
O632 Eu588 2.462 . S
O632 C652 1.252 . S
O633 Eu588 2.373 . S
O633 C644 1.249 . S
O634 Eu599 2.335 . S
O634 C644 1.264 . S
O635 Eu588 2.432 . S
O635 C652 1.268 . S
O636 Eu588 2.291 . S
O636 C651 1.255 . S
O637 Eu599 2.372 . S
O637 C651 1.257 . S
O638 Eu599 2.462 . S
O638 C663 1.252 . S
O639 Eu599 2.373 . S
O639 C655 1.249 . S
O640 Eu588 2.335 . S
O640 C655 1.264 . S
O641 Eu599 2.432 . S
O641 C663 1.268 . S
O642 Eu599 2.291 . S
O642 C662 1.255 . S
O643 Eu588 2.372 . S
O643 C662 1.257 . S
C644 O633 1.249 . S
C644 O634 1.264 . S
C645 C648 1.382 . S
C645 C650 1.390 . S
C645 C652 1.506 . S
C646 C647 1.398 . S
C646 C650 1.392 . S
C647 C646 1.398 . S
C647 C649 1.372 . S
C647 H664 0.931 . S
C648 C645 1.382 . S
C648 C649 1.390 . S
C648 H665 0.931 . S
C649 C647 1.372 . S
C649 C648 1.390 . S
C649 H666 0.929 . S
C650 C645 1.390 . S
C650 C646 1.392 . S
C650 H667 0.930 . S
C651 O636 1.255 . S
C651 O637 1.257 . S
C652 Eu588 2.787 . S
C652 O632 1.252 . S
C652 O635 1.268 . S
C652 C645 1.506 . S
C653 C620 1.439 . S
C653 H630 0.931 . S
C653 C654 1.374 . S
C654 C625 1.387 . S
C654 H631 0.931 . S
C654 C653 1.374 . S
C655 O639 1.249 . S
C655 O640 1.264 . S
C656 C659 1.382 . S
C656 C660 1.390 . S
C656 C663 1.506 . S
C657 C658 1.398 . S
C657 C660 1.392 . S
C658 C657 1.398 . S
C658 C661 1.372 . S
C658 H668 0.931 . S
C659 C656 1.382 . S
C659 C661 1.390 . S
C659 H669 0.931 . S
C660 C656 1.390 . S
C660 C657 1.392 . S
C660 H670 0.930 . S
C661 C658 1.372 . S
C661 C659 1.390 . S
C661 H671 0.929 . S
C662 O642 1.255 . S
C662 O643 1.257 . S
C663 Eu599 2.787 . S
C663 O638 1.252 . S
C663 O641 1.268 . S
C663 C656 1.506 . S
H664 C647 0.931 . S
H665 C648 0.931 . S
H666 C649 0.929 . S
H667 C650 0.930 . S
H668 C658 0.931 . S
H669 C659 0.931 . S
H670 C660 0.930 . S
H671 C661 0.929 . S
Eu672 N701 2.600 . S
Eu672 N707 2.562 . S
Eu672 O716 2.462 . S
Eu672 O717 2.373 . S
Eu672 O719 2.432 . S
Eu672 O720 2.291 . S
Eu672 O724 2.335 . S
Eu672 O727 2.372 . S
Eu672 C736 2.787 . S
C673 N674 1.365 . S
C673 C676 1.405 . S
C673 C680 1.448 . S
N674 C673 1.365 . S
N674 C677 1.319 . S
N674 Eu683 2.600 . S
C675 C677 1.397 . S
C675 C678 1.367 . S
C675 H695 0.931 . S
C676 C673 1.405 . S
C676 C678 1.403 . S
C676 C682 1.439 . S
C677 N674 1.319 . S
C677 C675 1.397 . S
C677 H688 0.930 . S
C678 C675 1.367 . S
C678 C676 1.403 . S
C678 H699 0.929 . S
C679 C680 1.430 . S
C679 C681 1.387 . S
C679 C685 1.404 . S
C680 C673 1.448 . S
C680 C679 1.430 . S
C680 N684 1.351 . S
C681 C679 1.387 . S
C681 C682 1.374 . S
C681 H696 0.931 . S
C682 C676 1.439 . S
C682 C681 1.374 . S
C682 H697 0.931 . S
Eu683 N674 2.600 . S
Eu683 N684 2.562 . S
Eu683 O718 2.335 . S
Eu683 O721 2.372 . S
Eu683 O722 2.462 . S
Eu683 O723 2.373 . S
Eu683 O725 2.432 . S
Eu683 O726 2.291 . S
Eu683 C747 2.787 . S
N684 C680 1.351 . S
N684 Eu683 2.562 . S
N684 C686 1.325 . S
C685 C679 1.404 . S
C685 C687 1.366 . S
C685 H693 0.930 . S
C686 N684 1.325 . S
C686 C687 1.416 . S
C686 H692 0.929 . S
C687 C685 1.366 . S
C687 C686 1.416 . S
C687 H689 0.930 . S
H688 C677 0.930 . S
H689 C687 0.930 . S
H690 C705 0.930 . S
H691 C712 0.930 . S
H692 C686 0.929 . S
H693 C685 0.930 . S
H694 C708 0.929 . S
H695 C675 0.931 . S
H696 C681 0.931 . S
H697 C682 0.931 . S
H698 C703 0.931 . S
H699 C678 0.929 . S
H700 C711 0.930 . S
N701 Eu672 2.600 . S
N701 C702 1.365 . S
N701 C705 1.319 . S
C702 N701 1.365 . S
C702 C704 1.405 1_554 S
C702 C710 1.448 . S
C703 H698 0.931 . S
C703 C705 1.397 1_556 S
C703 C706 1.367 . S
C704 C702 1.405 1_556 S
C704 C706 1.403 . S
C704 C737 1.439 . S
C705 H690 0.930 . S
C705 N701 1.319 . S
C705 C703 1.397 1_554 S
C706 C703 1.367 . S
C706 C704 1.403 . S
C706 H713 0.929 . S
N707 Eu672 2.562 . S
N707 C708 1.325 . S
N707 C710 1.351 . S
C708 H694 0.929 . S
C708 N707 1.325 . S
C708 C712 1.416 . S
C709 C710 1.430 . S
C709 C711 1.404 . S
C709 C738 1.387 1_554 S
C710 C702 1.448 . S
C710 N707 1.351 . S
C710 C709 1.430 . S
C711 H700 0.930 . S
C711 C709 1.404 . S
C711 C712 1.366 . S
C712 H691 0.930 . S
C712 C708 1.416 . S
C712 C711 1.366 . S
H713 C706 0.929 . S
H714 C737 0.931 . S
H715 C738 0.931 . S
O716 Eu672 2.462 . S
O716 C736 1.252 . S
O717 Eu672 2.373 . S
O717 C728 1.249 . S
O718 Eu683 2.335 . S
O718 C728 1.264 . S
O719 Eu672 2.432 . S
O719 C736 1.268 . S
O720 Eu672 2.291 . S
O720 C735 1.255 . S
O721 Eu683 2.372 . S
O721 C735 1.257 . S
O722 Eu683 2.462 . S
O722 C747 1.252 . S
O723 Eu683 2.373 . S
O723 C739 1.249 . S
O724 Eu672 2.335 . S
O724 C739 1.264 . S
O725 Eu683 2.432 . S
O725 C747 1.268 . S
O726 Eu683 2.291 . S
O726 C746 1.255 . S
O727 Eu672 2.372 . S
O727 C746 1.257 . S
C728 O717 1.249 . S
C728 O718 1.264 . S
C729 C732 1.382 . S
C729 C734 1.390 . S
C729 C736 1.506 . S
C730 C731 1.398 . S
C730 C734 1.392 . S
C731 C730 1.398 . S
C731 C733 1.372 . S
C731 H748 0.931 . S
C732 C729 1.382 . S
C732 C733 1.390 . S
C732 H749 0.931 . S
C733 C731 1.372 . S
C733 C732 1.390 . S
C733 H750 0.929 . S
C734 C729 1.390 . S
C734 C730 1.392 . S
C734 H751 0.930 . S
C735 O720 1.255 . S
C735 O721 1.257 . S
C736 Eu672 2.787 . S
C736 O716 1.252 . S
C736 O719 1.268 . S
C736 C729 1.506 . S
C737 C704 1.439 . S
C737 H714 0.931 . S
C737 C738 1.374 . S
C738 C709 1.387 1_556 S
C738 H715 0.931 . S
C738 C737 1.374 . S
C739 O723 1.249 . S
C739 O724 1.264 . S
C740 C743 1.382 . S
C740 C744 1.390 . S
C740 C747 1.506 . S
C741 C742 1.398 . S
C741 C744 1.392 . S
C742 C741 1.398 . S
C742 C745 1.372 . S
C742 H752 0.931 . S
C743 C740 1.382 . S
C743 C745 1.390 . S
C743 H753 0.931 . S
C744 C740 1.390 . S
C744 C741 1.392 . S
C744 H754 0.930 . S
C745 C742 1.372 . S
C745 C743 1.390 . S
C745 H755 0.929 . S
C746 O726 1.255 . S
C746 O727 1.257 . S
C747 Eu683 2.787 . S
C747 O722 1.252 . S
C747 O725 1.268 . S
C747 C740 1.506 . S
H748 C731 0.931 . S
H749 C732 0.931 . S
H750 C733 0.929 . S
H751 C734 0.930 . S
H752 C742 0.931 . S
H753 C743 0.931 . S
H754 C744 0.930 . S
H755 C745 0.929 . S
Eu756 N785 2.600 . S
Eu756 N791 2.562 . S
Eu756 O800 2.462 . S
Eu756 O801 2.373 . S
Eu756 O803 2.432 . S
Eu756 O804 2.291 . S
Eu756 O808 2.335 . S
Eu756 O811 2.372 1_545 S
Eu756 C820 2.787 . S
C757 N758 1.365 . S
C757 C760 1.405 . S
C757 C764 1.448 . S
N758 C757 1.365 . S
N758 C761 1.319 . S
N758 Eu767 2.600 . S
C759 C761 1.397 . S
C759 C762 1.367 . S
C759 H779 0.931 . S
C760 C757 1.405 . S
C760 C762 1.403 . S
C760 C766 1.439 . S
C761 N758 1.319 . S
C761 C759 1.397 . S
C761 H772 0.930 1_565 S
C762 C759 1.367 . S
C762 C760 1.403 . S
C762 H783 0.929 . S
C763 C764 1.430 . S
C763 C765 1.387 . S
C763 C769 1.404 . S
C764 C757 1.448 . S
C764 C763 1.430 . S
C764 N768 1.351 . S
C765 C763 1.387 . S
C765 C766 1.374 . S
C765 H780 0.931 . S
C766 C760 1.439 . S
C766 C765 1.374 . S
C766 H781 0.931 . S
Eu767 N758 2.600 . S
Eu767 N768 2.562 . S
Eu767 O802 2.335 1_565 S
Eu767 O805 2.372 1_565 S
Eu767 O806 2.462 . S
Eu767 O807 2.373 . S
Eu767 O809 2.432 . S
Eu767 O810 2.291 . S
Eu767 C831 2.787 . S
N768 C764 1.351 . S
N768 Eu767 2.562 . S
N768 C770 1.325 . S
C769 C763 1.404 . S
C769 C771 1.366 . S
C769 H777 0.930 . S
C770 N768 1.325 . S
C770 C771 1.416 . S
C770 H776 0.929 . S
C771 C769 1.366 . S
C771 C770 1.416 . S
C771 H773 0.930 . S
H772 C761 0.930 1_545 S
H773 C771 0.930 . S
H774 C789 0.930 . S
H775 C796 0.930 . S
H776 C770 0.929 . S
H777 C769 0.930 . S
H778 C792 0.929 . S
H779 C759 0.931 . S
H780 C765 0.931 . S
H781 C766 0.931 . S
H782 C787 0.931 . S
H783 C762 0.929 . S
H784 C795 0.930 . S
N785 Eu756 2.600 . S
N785 C786 1.365 . S
N785 C789 1.319 . S
C786 N785 1.365 . S
C786 C788 1.405 1_556 S
C786 C794 1.448 . S
C787 H782 0.931 . S
C787 C789 1.397 1_554 S
C787 C790 1.367 . S
C788 C786 1.405 1_554 S
C788 C790 1.403 . S
C788 C821 1.439 . S
C789 H774 0.930 . S
C789 N785 1.319 . S
C789 C787 1.397 1_556 S
C790 C787 1.367 . S
C790 C788 1.403 . S
C790 H797 0.929 . S
N791 Eu756 2.562 . S
N791 C792 1.325 . S
N791 C794 1.351 . S
C792 H778 0.929 . S
C792 N791 1.325 . S
C792 C796 1.416 . S
C793 C794 1.430 . S
C793 C795 1.404 . S
C793 C822 1.384 1_556 S
C794 C786 1.448 . S
C794 N791 1.351 . S
C794 C793 1.430 . S
C795 H784 0.930 . S
C795 C793 1.404 . S
C795 C796 1.366 . S
C796 H775 0.930 . S
C796 C792 1.416 . S
C796 C795 1.366 . S
H797 C790 0.929 . S
H798 C821 0.931 . S
H799 C822 0.932 . S
O800 Eu756 2.462 . S
O800 C820 1.252 . S
O801 Eu756 2.373 . S
O801 C812 1.249 . S
O802 Eu767 2.335 1_545 S
O802 C812 1.264 . S
O803 Eu756 2.432 . S
O803 C820 1.268 . S
O804 Eu756 2.291 . S
O804 C819 1.255 . S
O805 Eu767 2.372 1_545 S
O805 C819 1.257 . S
O806 Eu767 2.462 . S
O806 C831 1.252 . S
O807 Eu767 2.373 . S
O807 C823 1.249 . S
O808 Eu756 2.335 . S
O808 C823 1.264 1_545 S
O809 Eu767 2.432 . S
O809 C831 1.268 . S
O810 Eu767 2.291 . S
O810 C830 1.255 . S
O811 Eu756 2.372 1_565 S
O811 C830 1.257 . S
C812 O801 1.249 . S
C812 O802 1.264 . S
C813 C816 1.382 . S
C813 C818 1.390 . S
C813 C820 1.506 . S
C814 C815 1.398 . S
C814 C818 1.392 . S
C815 C814 1.398 . S
C815 C817 1.372 . S
C815 H832 0.931 . S
C816 C813 1.382 . S
C816 C817 1.390 . S
C816 H833 0.931 . S
C817 C815 1.372 . S
C817 C816 1.390 . S
C817 H834 0.929 . S
C818 C813 1.390 . S
C818 C814 1.392 . S
C818 H835 0.930 . S
C819 O804 1.255 . S
C819 O805 1.257 . S
C820 Eu756 2.787 . S
C820 O800 1.252 . S
C820 O803 1.268 . S
C820 C813 1.506 . S
C821 C788 1.439 . S
C821 H798 0.931 . S
C821 C822 1.376 . S
C822 C793 1.384 1_554 S
C822 H799 0.932 . S
C822 C821 1.376 . S
C823 O807 1.249 . S
C823 O808 1.264 1_565 S
C824 C827 1.382 . S
C824 C828 1.390 . S
C824 C831 1.506 . S
C825 C826 1.398 . S
C825 C828 1.392 . S
C826 C825 1.398 . S
C826 C829 1.372 . S
C826 H836 0.931 . S
C827 C824 1.382 . S
C827 C829 1.390 . S
C827 H837 0.931 . S
C828 C824 1.390 . S
C828 C825 1.392 . S
C828 H838 0.930 . S
C829 C826 1.372 . S
C829 C827 1.390 . S
C829 H839 0.929 . S
C830 O810 1.255 . S
C830 O811 1.257 . S
C831 Eu767 2.787 . S
C831 O806 1.252 . S
C831 O809 1.268 . S
C831 C824 1.506 . S
H832 C815 0.931 . S
H833 C816 0.931 . S
H834 C817 0.929 . S
H835 C818 0.930 . S
H836 C826 0.931 . S
H837 C827 0.931 . S
H838 C828 0.930 . S
H839 C829 0.929 . S
Eu840 N869 2.600 . S
Eu840 N875 2.562 . S
Eu840 O884 2.462 . S
Eu840 O885 2.373 . S
Eu840 O887 2.432 . S
Eu840 O888 2.291 . S
Eu840 O892 2.335 . S
Eu840 O895 2.372 1_565 S
Eu840 C904 2.787 . S
C841 N842 1.365 . S
C841 C844 1.405 . S
C841 C848 1.448 . S
N842 C841 1.365 . S
N842 C845 1.319 . S
N842 Eu851 2.600 . S
C843 C845 1.397 . S
C843 C846 1.367 . S
C843 H863 0.931 . S
C844 C841 1.405 . S
C844 C846 1.403 . S
C844 C850 1.439 . S
C845 N842 1.319 . S
C845 C843 1.397 . S
C845 H856 0.930 1_545 S
C846 C843 1.367 . S
C846 C844 1.403 . S
C846 H867 0.929 . S
C847 C848 1.430 . S
C847 C849 1.387 . S
C847 C853 1.404 . S
C848 C841 1.448 . S
C848 C847 1.430 . S
C848 N852 1.351 . S
C849 C847 1.387 . S
C849 C850 1.374 . S
C849 H864 0.931 . S
C850 C844 1.439 . S
C850 C849 1.374 . S
C850 H865 0.931 . S
Eu851 N842 2.600 . S
Eu851 N852 2.562 . S
Eu851 O886 2.335 1_545 S
Eu851 O889 2.372 1_545 S
Eu851 O890 2.462 . S
Eu851 O891 2.373 . S
Eu851 O893 2.432 . S
Eu851 O894 2.291 . S
Eu851 C915 2.787 . S
N852 C848 1.351 . S
N852 Eu851 2.562 . S
N852 C854 1.325 . S
C853 C847 1.404 . S
C853 C855 1.366 . S
C853 H861 0.930 . S
C854 N852 1.325 . S
C854 C855 1.416 . S
C854 H860 0.929 . S
C855 C853 1.366 . S
C855 C854 1.416 . S
C855 H857 0.930 . S
H856 C845 0.930 1_565 S
H857 C855 0.930 . S
H858 C873 0.930 . S
H859 C880 0.930 . S
H860 C854 0.929 . S
H861 C853 0.930 . S
H862 C876 0.929 . S
H863 C843 0.931 . S
H864 C849 0.931 . S
H865 C850 0.931 . S
H866 C871 0.931 . S
H867 C846 0.929 . S
H868 C879 0.930 . S
N869 Eu840 2.600 . S
N869 C870 1.365 . S
N869 C873 1.319 . S
C870 N869 1.365 . S
C870 C872 1.405 . S
C870 C878 1.448 . S
C871 H866 0.931 . S
C871 C873 1.397 . S
C871 C874 1.367 . S
C872 C870 1.405 . S
C872 C874 1.403 . S
C872 C905 1.439 . S
C873 H858 0.930 . S
C873 N869 1.319 . S
C873 C871 1.397 . S
C874 C871 1.367 . S
C874 C872 1.403 . S
C874 H881 0.929 . S
N875 Eu840 2.562 . S
N875 C876 1.325 . S
N875 C878 1.351 . S
C876 H862 0.929 . S
C876 N875 1.325 . S
C876 C880 1.416 . S
C877 C878 1.430 . S
C877 C879 1.404 . S
C877 C906 1.387 . S
C878 C870 1.448 . S
C878 N875 1.351 . S
C878 C877 1.430 . S
C879 H868 0.930 . S
C879 C877 1.404 . S
C879 C880 1.366 . S
C880 H859 0.930 . S
C880 C876 1.416 . S
C880 C879 1.366 . S
H881 C874 0.929 . S
H882 C905 0.931 . S
H883 C906 0.931 . S
O884 Eu840 2.462 . S
O884 C904 1.252 . S
O885 Eu840 2.373 . S
O885 C896 1.249 . S
O886 Eu851 2.335 1_565 S
O886 C896 1.264 . S
O887 Eu840 2.432 . S
O887 C904 1.268 . S
O888 Eu840 2.291 . S
O888 C903 1.255 . S
O889 Eu851 2.372 1_565 S
O889 C903 1.257 . S
O890 Eu851 2.462 . S
O890 C915 1.252 . S
O891 Eu851 2.373 . S
O891 C907 1.249 . S
O892 Eu840 2.335 . S
O892 C907 1.264 1_565 S
O893 Eu851 2.432 . S
O893 C915 1.268 . S
O894 Eu851 2.291 . S
O894 C914 1.255 . S
O895 Eu840 2.372 1_545 S
O895 C914 1.257 . S
C896 O885 1.249 . S
C896 O886 1.264 . S
C897 C900 1.382 . S
C897 C902 1.390 . S
C897 C904 1.506 . S
C898 C899 1.398 . S
C898 C902 1.392 . S
C899 C898 1.398 . S
C899 C901 1.372 . S
C899 H916 0.931 . S
C900 C897 1.382 . S
C900 C901 1.390 . S
C900 H917 0.931 . S
C901 C899 1.372 . S
C901 C900 1.390 . S
C901 H918 0.929 . S
C902 C897 1.390 . S
C902 C898 1.392 . S
C902 H919 0.930 . S
C903 O888 1.255 . S
C903 O889 1.257 . S
C904 Eu840 2.787 . S
C904 O884 1.252 . S
C904 O887 1.268 . S
C904 C897 1.506 . S
C905 C872 1.439 . S
C905 H882 0.931 . S
C905 C906 1.374 . S
C906 C877 1.387 . S
C906 H883 0.931 . S
C906 C905 1.374 . S
C907 O891 1.249 . S
C907 O892 1.264 1_545 S
C908 C911 1.382 . S
C908 C912 1.390 . S
C908 C915 1.506 . S
C909 C910 1.398 . S
C909 C912 1.392 . S
C910 C909 1.398 . S
C910 C913 1.372 . S
C910 H920 0.931 . S
C911 C908 1.382 . S
C911 C913 1.390 . S
C911 H921 0.931 . S
C912 C908 1.390 . S
C912 C909 1.392 . S
C912 H922 0.930 . S
C913 C910 1.372 . S
C913 C911 1.390 . S
C913 H923 0.929 . S
C914 O894 1.255 . S
C914 O895 1.257 . S
C915 Eu851 2.787 . S
C915 O890 1.252 . S
C915 O893 1.268 . S
C915 C908 1.506 . S
H916 C899 0.931 . S
H917 C900 0.931 . S
H918 C901 0.929 . S
H919 C902 0.930 . S
H920 C910 0.931 . S
H921 C911 0.931 . S
H922 C912 0.930 . S
H923 C913 0.929 . S
Eu924 N953 2.600 . S
Eu924 N959 2.562 . S
Eu924 O968 2.462 . S
Eu924 O969 2.373 . S
Eu924 O971 2.432 . S
Eu924 O972 2.291 . S
Eu924 O976 2.335 . S
Eu924 O979 2.372 . S
Eu924 C988 2.787 . S
C925 N926 1.365 . S
C925 C928 1.405 . S
C925 C932 1.448 . S
N926 C925 1.365 . S
N926 C929 1.319 . S
N926 Eu935 2.600 . S
C927 C929 1.397 . S
C927 C930 1.367 . S
C927 H947 0.931 . S
C928 C925 1.405 . S
C928 C930 1.403 . S
C928 C934 1.439 . S
C929 N926 1.319 . S
C929 C927 1.397 . S
C929 H940 0.930 . S
C930 C927 1.367 . S
C930 C928 1.403 . S
C930 H951 0.929 . S
C931 C932 1.430 . S
C931 C933 1.387 . S
C931 C937 1.404 . S
C932 C925 1.448 . S
C932 C931 1.430 . S
C932 N936 1.351 . S
C933 C931 1.387 . S
C933 C934 1.374 . S
C933 H948 0.931 . S
C934 C928 1.439 . S
C934 C933 1.374 . S
C934 H949 0.931 . S
Eu935 N926 2.600 . S
Eu935 N936 2.562 . S
Eu935 O970 2.335 . S
Eu935 O973 2.372 . S
Eu935 O974 2.462 . S
Eu935 O975 2.373 . S
Eu935 O977 2.432 . S
Eu935 O978 2.291 . S
Eu935 C999 2.787 . S
N936 C932 1.351 . S
N936 Eu935 2.562 . S
N936 C938 1.325 . S
C937 C931 1.404 . S
C937 C939 1.366 . S
C937 H945 0.930 . S
C938 N936 1.325 . S
C938 C939 1.416 . S
C938 H944 0.929 . S
C939 C937 1.366 . S
C939 C938 1.416 . S
C939 H941 0.930 . S
H940 C929 0.930 . S
H941 C939 0.930 . S
H942 C957 0.930 . S
H943 C964 0.930 . S
H944 C938 0.929 . S
H945 C937 0.930 . S
H946 C960 0.929 . S
H947 C927 0.931 . S
H948 C933 0.931 . S
H949 C934 0.931 . S
H950 C955 0.931 . S
H951 C930 0.929 . S
H952 C963 0.930 . S
N953 Eu924 2.600 . S
N953 C954 1.365 . S
N953 C957 1.319 . S
C954 N953 1.365 . S
C954 C956 1.405 . S
C954 C962 1.448 . S
C955 H950 0.931 . S
C955 C957 1.397 . S
C955 C958 1.367 . S
C956 C954 1.405 . S
C956 C958 1.403 . S
C956 C989 1.439 . S
C957 H942 0.930 . S
C957 N953 1.319 . S
C957 C955 1.397 . S
C958 C955 1.367 . S
C958 C956 1.403 . S
C958 H965 0.929 . S
N959 Eu924 2.562 . S
N959 C960 1.325 . S
N959 C962 1.351 . S
C960 H946 0.929 . S
C960 N959 1.325 . S
C960 C964 1.416 . S
C961 C962 1.430 . S
C961 C963 1.404 . S
C961 C990 1.387 . S
C962 C954 1.448 . S
C962 N959 1.351 . S
C962 C961 1.430 . S
C963 H952 0.930 . S
C963 C961 1.404 . S
C963 C964 1.366 . S
C964 H943 0.930 . S
C964 C960 1.416 . S
C964 C963 1.366 . S
H965 C958 0.929 . S
H966 C989 0.931 . S
H967 C990 0.931 . S
O968 Eu924 2.462 . S
O968 C988 1.252 . S
O969 Eu924 2.373 . S
O969 C980 1.249 . S
O970 Eu935 2.335 . S
O970 C980 1.264 . S
O971 Eu924 2.432 . S
O971 C988 1.268 . S
O972 Eu924 2.291 . S
O972 C987 1.255 . S
O973 Eu935 2.372 . S
O973 C987 1.257 . S
O974 Eu935 2.462 . S
O974 C999 1.252 . S
O975 Eu935 2.373 . S
O975 C991 1.249 . S
O976 Eu924 2.335 . S
O976 C991 1.264 . S
O977 Eu935 2.432 . S
O977 C999 1.268 . S
O978 Eu935 2.291 . S
O978 C998 1.255 . S
O979 Eu924 2.372 . S
O979 C998 1.257 . S
C980 O969 1.249 . S
C980 O970 1.264 . S
C981 C984 1.382 . S
C981 C986 1.390 . S
C981 C988 1.506 . S
C982 C983 1.398 . S
C982 C986 1.392 . S
C983 C982 1.398 . S
C983 C985 1.372 . S
C983 H1000 0.931 . S
C984 C981 1.382 . S
C984 C985 1.390 . S
C984 H1001 0.931 . S
C985 C983 1.372 . S
C985 C984 1.390 . S
C985 H1002 0.929 . S
C986 C981 1.390 . S
C986 C982 1.392 . S
C986 H1003 0.930 . S
C987 O972 1.255 . S
C987 O973 1.257 . S
C988 Eu924 2.787 . S
C988 O968 1.252 . S
C988 O971 1.268 . S
C988 C981 1.506 . S
C989 C956 1.439 . S
C989 H966 0.931 . S
C989 C990 1.374 . S
C990 C961 1.387 . S
C990 H967 0.931 . S
C990 C989 1.374 . S
C991 O975 1.249 . S
C991 O976 1.264 . S
C992 C995 1.382 . S
C992 C996 1.390 . S
C992 C999 1.506 . S
C993 C994 1.398 . S
C993 C996 1.392 . S
C994 C993 1.398 . S
C994 C997 1.372 . S
C994 H1004 0.931 . S
C995 C992 1.382 . S
C995 C997 1.390 . S
C995 H1005 0.931 . S
C996 C992 1.390 . S
C996 C993 1.392 . S
C996 H1006 0.930 . S
C997 C994 1.372 . S
C997 C995 1.390 . S
C997 H1007 0.929 . S
C998 O978 1.255 . S
C998 O979 1.257 . S
C999 Eu935 2.787 . S
C999 O974 1.252 . S
C999 O977 1.268 . S
C999 C992 1.506 . S
H1000 C983 0.931 . S
H1001 C984 0.931 . S
H1002 C985 0.929 . S
H1003 C986 0.930 . S
H1004 C994 0.931 . S
H1005 C995 0.931 . S
H1006 C996 0.930 . S
H1007 C997 0.929 . S
H1008 C1014 0.930 . S
H1009 C1017 0.930 . S
H1010 C1018 0.930 . S
H1011 C1019 0.930 . S
H1012 C1022 0.930 . S
H1013 C1023 0.930 . S
C1014 H1008 0.930 . S
C1014 C1015 1.355 . S
C1014 C1016 1.415 . S
C1015 C1014 1.355 . S
C1015 C1017 1.419 . S
C1016 C1014 1.415 . S
C1016 C1021 1.425 . S
C1016 C1023 1.409 . S
C1017 H1009 0.930 . S
C1017 C1015 1.419 . S
C1017 C1018 1.362 . S
C1018 H1010 0.930 . S
C1018 C1017 1.362 . S
C1018 C1021 1.409 . S
C1019 H1011 0.930 . S
C1019 C1020 1.355 . S
C1019 C1021 1.415 . S
C1020 C1019 1.355 . S
C1020 C1022 1.419 . S
C1021 C1016 1.425 . S
C1021 C1018 1.409 . S
C1021 C1019 1.415 . S
C1022 H1012 0.930 . S
C1022 C1020 1.419 . S
C1022 C1023 1.362 . S
C1023 H1013 0.930 . S
C1023 C1016 1.409 . S
C1023 C1022 1.362 . S
H1024 C1030 0.930 . S
H1025 C1033 0.930 . S
H1026 C1034 0.930 . S
H1027 C1035 0.930 . S
H1028 C1038 0.930 . S
H1029 C1039 0.930 . S
C1030 H1024 0.930 . S
C1030 C1031 1.355 . S
C1030 C1032 1.415 . S
C1031 C1030 1.355 . S
C1031 C1033 1.419 . S
C1032 C1030 1.415 . S
C1032 C1037 1.425 . S
C1032 C1039 1.409 . S
C1033 H1025 0.930 . S
C1033 C1031 1.419 . S
C1033 C1034 1.362 . S
C1034 H1026 0.930 . S
C1034 C1033 1.362 . S
C1034 C1037 1.409 . S
C1035 H1027 0.930 . S
C1035 C1036 1.355 . S
C1035 C1037 1.415 . S
C1036 C1035 1.355 . S
C1036 C1038 1.419 . S
C1037 C1032 1.425 . S
C1037 C1034 1.409 . S
C1037 C1035 1.415 . S
C1038 H1028 0.930 . S
C1038 C1036 1.419 . S
C1038 C1039 1.362 . S
C1039 H1029 0.930 . S
C1039 C1032 1.409 . S
C1039 C1038 1.362 . S
H1040 C1046 0.930 . S
H1041 C1049 0.930 . S
H1042 C1050 0.930 . S
H1043 C1051 0.930 . S
H1044 C1054 0.930 . S
H1045 C1055 0.930 . S
C1046 H1040 0.930 . S
C1046 C1047 1.355 . S
C1046 C1048 1.415 . S
C1047 C1046 1.355 . S
C1047 C1049 1.419 1_554 S
C1048 C1046 1.415 . S
C1048 C1053 1.425 . S
C1048 C1055 1.409 . S
C1049 H1041 0.930 . S
C1049 C1047 1.419 1_556 S
C1049 C1050 1.362 . S
C1050 H1042 0.930 . S
C1050 C1049 1.362 . S
C1050 C1053 1.409 1_556 S
C1051 H1043 0.930 . S
C1051 C1052 1.355 . S
C1051 C1053 1.415 . S
C1052 C1051 1.355 . S
C1052 C1054 1.419 . S
C1053 C1048 1.425 . S
C1053 C1050 1.409 1_554 S
C1053 C1051 1.415 . S
C1054 H1044 0.930 . S
C1054 C1052 1.419 . S
C1054 C1055 1.362 . S
C1055 H1045 0.930 . S
C1055 C1048 1.409 . S
C1055 C1054 1.362 . S
H1056 C1062 0.930 . S
H1057 C1065 0.930 . S
H1058 C1066 0.930 . S
H1059 C1067 0.930 . S
H1060 C1070 0.930 1_565 S
H1061 C1071 0.930 . S
C1062 H1056 0.930 . S
C1062 C1063 1.355 . S
C1062 C1064 1.415 . S
C1063 C1062 1.355 . S
C1063 C1065 1.419 . S
C1064 C1062 1.415 . S
C1064 C1069 1.425 . S
C1064 C1071 1.409 . S
C1065 H1057 0.930 . S
C1065 C1063 1.419 . S
C1065 C1066 1.362 . S
C1066 H1058 0.930 . S
C1066 C1065 1.362 . S
C1066 C1069 1.409 . S
C1067 H1059 0.930 . S
C1067 C1068 1.355 . S
C1067 C1069 1.415 . S
C1068 C1067 1.355 . S
C1068 C1070 1.419 . S
C1069 C1064 1.425 . S
C1069 C1066 1.409 . S
C1069 C1067 1.415 . S
C1070 H1060 0.930 1_545 S
C1070 C1068 1.419 . S
C1070 C1071 1.362 . S
C1071 H1061 0.930 . S
C1071 C1064 1.409 . S
C1071 C1070 1.362 . S
H1072 C1078 0.930 . S
H1073 C1081 0.930 . S
H1074 C1082 0.930 . S
H1075 C1083 0.930 . S
H1076 C1086 0.930 . S
H1077 C1087 0.930 . S
C1078 H1072 0.930 . S
C1078 C1079 1.355 . S
C1078 C1080 1.415 . S
C1079 C1078 1.355 . S
C1079 C1081 1.419 . S
C1080 C1078 1.415 . S
C1080 C1085 1.425 . S
C1080 C1087 1.409 . S
C1081 H1073 0.930 . S
C1081 C1079 1.419 . S
C1081 C1082 1.362 . S
C1082 H1074 0.930 . S
C1082 C1081 1.362 . S
C1082 C1085 1.409 . S
C1083 H1075 0.930 . S
C1083 C1084 1.355 . S
C1083 C1085 1.415 . S
C1084 C1083 1.355 . S
C1084 C1086 1.419 . S
C1085 C1080 1.425 . S
C1085 C1082 1.409 . S
C1085 C1083 1.415 . S
C1086 H1076 0.930 . S
C1086 C1084 1.419 . S
C1086 C1087 1.362 . S
C1087 H1077 0.930 . S
C1087 C1080 1.409 . S
C1087 C1086 1.362 . S
H1088 C1094 0.930 . S
H1089 C1097 0.930 . S
H1090 C1098 0.930 . S
H1091 C1099 0.930 . S
H1092 C1102 0.930 . S
H1093 C1103 0.930 . S
C1094 H1088 0.930 . S
C1094 C1095 1.355 . S
C1094 C1096 1.415 . S
C1095 C1094 1.355 . S
C1095 C1097 1.419 . S
C1096 C1094 1.415 . S
C1096 C1101 1.425 . S
C1096 C1103 1.409 . S
C1097 H1089 0.930 . S
C1097 C1095 1.419 . S
C1097 C1098 1.362 . S
C1098 H1090 0.930 . S
C1098 C1097 1.362 . S
C1098 C1101 1.409 . S
C1099 H1091 0.930 . S
C1099 C1100 1.355 . S
C1099 C1101 1.415 . S
C1100 C1099 1.355 . S
C1100 C1102 1.419 . S
C1101 C1096 1.425 . S
C1101 C1098 1.409 . S
C1101 C1099 1.415 . S
C1102 H1092 0.930 . S
C1102 C1100 1.419 . S
C1102 C1103 1.362 . S
C1103 H1093 0.930 . S
C1103 C1096 1.409 . S
C1103 C1102 1.362 . S
H1104 C1110 0.930 . S
H1105 C1113 0.930 . S
H1106 C1114 0.930 . S
H1107 C1115 0.930 . S
H1108 C1118 0.930 1_554 S
H1109 C1119 0.930 . S
C1110 H1104 0.930 . S
C1110 C1111 1.355 . S
C1110 C1112 1.415 . S
C1111 C1110 1.355 . S
C1111 C1113 1.419 . S
C1112 C1110 1.415 . S
C1112 C1117 1.425 . S
C1112 C1119 1.409 . S
C1113 H1105 0.930 . S
C1113 C1111 1.419 . S
C1113 C1114 1.362 . S
C1114 H1106 0.930 . S
C1114 C1113 1.362 . S
C1114 C1117 1.409 . S
C1115 H1107 0.930 . S
C1115 C1116 1.355 . S
C1115 C1117 1.415 . S
C1116 C1115 1.355 . S
C1116 C1118 1.419 . S
C1117 C1112 1.425 . S
C1117 C1114 1.409 . S
C1117 C1115 1.415 . S
C1118 H1108 0.930 1_556 S
C1118 C1116 1.419 . S
C1118 C1119 1.362 . S
C1119 H1109 0.930 . S
C1119 C1112 1.409 . S
C1119 C1118 1.362 . S
H1120 C1126 0.930 . S
H1121 C1129 0.930 . S
H1122 C1130 0.930 . S
H1123 C1131 0.930 . S
H1124 C1134 0.930 . S
H1125 C1135 0.930 . S
C1126 H1120 0.930 . S
C1126 C1127 1.355 . S
C1126 C1128 1.415 . S
C1127 C1126 1.355 . S
C1127 C1129 1.419 . S
C1128 C1126 1.415 . S
C1128 C1133 1.425 . S
C1128 C1135 1.409 . S
C1129 H1121 0.930 . S
C1129 C1127 1.419 . S
C1129 C1130 1.362 . S
C1130 H1122 0.930 . S
C1130 C1129 1.362 . S
C1130 C1133 1.409 . S
C1131 H1123 0.930 . S
C1131 C1132 1.355 . S
C1131 C1133 1.415 . S
C1132 C1131 1.355 . S
C1132 C1134 1.419 . S
C1133 C1128 1.425 . S
C1133 C1130 1.409 . S
C1133 C1131 1.415 . S
C1134 H1124 0.930 . S
C1134 C1132 1.419 . S
C1134 C1135 1.362 . S
C1135 H1125 0.930 . S
C1135 C1128 1.409 . S
C1135 C1134 1.362 . S
H1136 C1142 0.930 . S
H1137 C1145 0.930 . S
H1138 C1146 0.930 . S
H1139 C1147 0.930 . S
H1140 C1150 0.930 . S
H1141 C1151 0.930 . S
C1142 H1136 0.930 . S
C1142 C1143 1.355 . S
C1142 C1144 1.415 . S
C1143 C1142 1.355 . S
C1143 C1145 1.419 . S
C1144 C1142 1.415 . S
C1144 C1149 1.425 . S
C1144 C1151 1.409 . S
C1145 H1137 0.930 . S
C1145 C1143 1.419 . S
C1145 C1146 1.362 . S
C1146 H1138 0.930 . S
C1146 C1145 1.362 . S
C1146 C1149 1.409 . S
C1147 H1139 0.930 . S
C1147 C1148 1.355 . S
C1147 C1149 1.415 . S
C1148 C1147 1.355 . S
C1148 C1150 1.419 . S
C1149 C1144 1.425 . S
C1149 C1146 1.409 . S
C1149 C1147 1.415 . S
C1150 H1140 0.930 . S
C1150 C1148 1.419 . S
C1150 C1151 1.362 . S
C1151 H1141 0.930 . S
C1151 C1144 1.409 . S
C1151 C1150 1.362 . S
H1152 C1158 0.930 . S
H1153 C1161 0.930 . S
H1154 C1162 0.930 . S
H1155 C1163 0.930 . S
H1156 C1166 0.930 . S
H1157 C1167 0.930 . S
C1158 H1152 0.930 . S
C1158 C1159 1.355 . S
C1158 C1160 1.415 . S
C1159 C1158 1.355 . S
C1159 C1161 1.419 . S
C1160 C1158 1.415 . S
C1160 C1165 1.425 . S
C1160 C1167 1.409 . S
C1161 H1153 0.930 . S
C1161 C1159 1.419 . S
C1161 C1162 1.362 . S
C1162 H1154 0.930 . S
C1162 C1161 1.362 . S
C1162 C1165 1.409 . S
C1163 H1155 0.930 . S
C1163 C1164 1.355 . S
C1163 C1165 1.415 . S
C1164 C1163 1.355 . S
C1164 C1166 1.419 . S
C1165 C1160 1.425 . S
C1165 C1162 1.409 . S
C1165 C1163 1.415 . S
C1166 H1156 0.930 . S
C1166 C1164 1.419 . S
C1166 C1167 1.362 . S
C1167 H1157 0.930 . S
C1167 C1160 1.409 . S
C1167 C1166 1.362 . S
H1168 C1174 0.930 1_455 S
H1169 C1177 0.930 . S
H1170 C1178 0.930 . S
H1171 C1179 0.930 . S
H1172 C1182 0.930 . S
H1173 C1183 0.930 1_455 S
C1174 H1168 0.930 1_655 S
C1174 C1175 1.355 . S
C1174 C1176 1.415 . S
C1175 C1174 1.355 . S
C1175 C1177 1.419 . S
C1176 C1174 1.415 . S
C1176 C1181 1.425 . S
C1176 C1183 1.409 . S
C1177 H1169 0.930 . S
C1177 C1175 1.419 . S
C1177 C1178 1.362 . S
C1178 H1170 0.930 . S
C1178 C1177 1.362 . S
C1178 C1181 1.409 . S
C1179 H1171 0.930 . S
C1179 C1180 1.355 . S
C1179 C1181 1.415 . S
C1180 C1179 1.355 . S
C1180 C1182 1.419 . S
C1181 C1176 1.425 . S
C1181 C1178 1.409 . S
C1181 C1179 1.415 . S
C1182 H1172 0.930 . S
C1182 C1180 1.419 . S
C1182 C1183 1.362 . S
C1183 H1173 0.930 1_655 S
C1183 C1176 1.409 . S
C1183 C1182 1.362 . S
H1184 C1190 0.930 . S
H1185 C1193 0.930 . S
H1186 C1194 0.930 . S
H1187 C1195 0.930 . S
H1188 C1198 0.930 . S
H1189 C1199 0.930 . S
C1190 H1184 0.930 . S
C1190 C1191 1.355 . S
C1190 C1192 1.415 . S
C1191 C1190 1.355 . S
C1191 C1193 1.419 . S
C1192 C1190 1.415 . S
C1192 C1197 1.425 . S
C1192 C1199 1.409 . S
C1193 H1185 0.930 . S
C1193 C1191 1.419 . S
C1193 C1194 1.362 . S
C1194 H1186 0.930 . S
C1194 C1193 1.362 . S
C1194 C1197 1.409 . S
C1195 H1187 0.930 . S
C1195 C1196 1.355 . S
C1195 C1197 1.415 . S
C1196 C1195 1.355 . S
C1196 C1198 1.419 . S
C1197 C1192 1.425 . S
C1197 C1194 1.409 . S
C1197 C1195 1.415 . S
C1198 H1188 0.930 . S
C1198 C1196 1.419 . S
C1198 C1199 1.362 . S
C1199 H1189 0.930 . S
C1199 C1192 1.409 . S
C1199 C1198 1.362 . S
H1200 C1206 0.930 . S
H1201 C1209 0.930 . S
H1202 C1210 0.930 . S
H1203 C1211 0.930 . S
H1204 C1214 0.930 . S
H1205 C1215 0.930 . S
C1206 H1200 0.930 . S
C1206 C1207 1.355 . S
C1206 C1208 1.415 . S
C1207 C1206 1.355 . S
C1207 C1209 1.419 . S
C1208 C1206 1.415 . S
C1208 C1213 1.425 . S
C1208 C1215 1.409 . S
C1209 H1201 0.930 . S
C1209 C1207 1.419 . S
C1209 C1210 1.362 . S
C1210 H1202 0.930 . S
C1210 C1209 1.362 . S
C1210 C1213 1.409 . S
C1211 H1203 0.930 . S
C1211 C1212 1.355 . S
C1211 C1213 1.415 . S
C1212 C1211 1.355 . S
C1212 C1214 1.419 . S
C1213 C1208 1.425 . S
C1213 C1210 1.409 . S
C1213 C1211 1.415 . S
C1214 H1204 0.930 . S
C1214 C1212 1.419 . S
C1214 C1215 1.362 . S
C1215 H1205 0.930 . S
C1215 C1208 1.409 . S
C1215 C1214 1.362 . S
H1216 C1222 0.930 . S
H1217 C1225 0.930 . S
H1218 C1226 0.944 . S
H1219 C1227 0.930 . S
H1220 C1230 0.930 . S
H1221 C1231 0.930 . S
C1222 H1216 0.930 . S
C1222 C1223 1.355 . S
C1222 C1224 1.415 . S
C1223 C1222 1.355 . S
C1223 C1225 1.419 . S
C1224 C1222 1.415 . S
C1224 C1229 1.425 . S
C1224 C1231 1.409 . S
C1225 H1217 0.930 . S
C1225 C1223 1.419 . S
C1225 C1226 1.362 . S
C1226 H1218 0.944 . S
C1226 C1225 1.362 . S
C1226 C1229 1.409 . S
C1227 H1219 0.930 . S
C1227 C1228 1.355 . S
C1227 C1229 1.415 . S
C1228 C1227 1.355 . S
C1228 C1230 1.419 . S
C1229 C1224 1.425 . S
C1229 C1226 1.409 . S
C1229 C1227 1.415 . S
C1230 H1220 0.930 . S
C1230 C1228 1.419 . S
C1230 C1231 1.362 . S
C1231 H1221 0.930 . S
C1231 C1224 1.409 . S
C1231 C1230 1.362 . S
H1232 C1238 0.930 . S
H1233 C1241 0.930 . S
H1234 C1242 0.930 . S
H1235 C1243 0.930 . S
H1236 C1246 0.930 . S
H1237 C1247 0.930 . S
C1238 H1232 0.930 . S
C1238 C1239 1.355 . S
C1238 C1240 1.415 . S
C1239 C1238 1.355 . S
C1239 C1241 1.419 . S
C1240 C1238 1.415 . S
C1240 C1245 1.425 . S
C1240 C1247 1.409 . S
C1241 H1233 0.930 . S
C1241 C1239 1.419 . S
C1241 C1242 1.362 . S
C1242 H1234 0.930 . S
C1242 C1241 1.362 . S
C1242 C1245 1.409 . S
C1243 H1235 0.930 . S
C1243 C1244 1.355 . S
C1243 C1245 1.415 . S
C1244 C1243 1.355 . S
C1244 C1246 1.419 . S
C1245 C1240 1.425 . S
C1245 C1242 1.409 . S
C1245 C1243 1.415 . S
C1246 H1236 0.930 . S
C1246 C1244 1.419 . S
C1246 C1247 1.362 . S
C1247 H1237 0.930 . S
C1247 C1240 1.409 . S
C1247 C1246 1.362 . S
H1248 C1254 0.930 . S
H1249 C1257 0.930 . S
H1250 C1258 0.930 1_565 S
H1251 C1259 0.930 . S
H1252 C1262 0.930 . S
H1253 C1263 0.930 . S
C1254 H1248 0.930 . S
C1254 C1255 1.355 . S
C1254 C1256 1.415 . S
C1255 C1254 1.355 . S
C1255 C1257 1.419 . S
C1256 C1254 1.415 . S
C1256 C1261 1.425 . S
C1256 C1263 1.409 1_554 S
C1257 H1249 0.930 . S
C1257 C1255 1.419 . S
C1257 C1258 1.362 . S
C1258 H1250 0.930 1_545 S
C1258 C1257 1.362 . S
C1258 C1261 1.409 . S
C1259 H1251 0.930 . S
C1259 C1260 1.355 . S
C1259 C1261 1.415 1_556 S
C1260 C1259 1.355 . S
C1260 C1262 1.419 . S
C1261 C1256 1.425 . S
C1261 C1258 1.409 . S
C1261 C1259 1.415 1_554 S
C1262 H1252 0.930 . S
C1262 C1260 1.419 . S
C1262 C1263 1.362 . S
C1263 H1253 0.930 . S
C1263 C1256 1.409 1_556 S
C1263 C1262 1.362 . S
H1264 C1270 0.930 . S
H1265 C1273 0.930 . S
H1266 C1274 0.930 . S
H1267 C1275 0.930 . S
H1268 C1278 0.930 . S
H1269 C1279 0.930 . S
C1270 H1264 0.930 . S
C1270 C1271 1.355 . S
C1270 C1272 1.415 . S
C1271 C1270 1.355 . S
C1271 C1273 1.419 . S
C1272 C1270 1.415 . S
C1272 C1277 1.425 . S
C1272 C1279 1.409 . S
C1273 H1265 0.930 . S
C1273 C1271 1.419 . S
C1273 C1274 1.362 . S
C1274 H1266 0.930 . S
C1274 C1273 1.362 . S
C1274 C1277 1.409 . S
C1275 H1267 0.930 . S
C1275 C1276 1.355 . S
C1275 C1277 1.415 . S
C1276 C1275 1.355 . S
C1276 C1278 1.419 . S
C1277 C1272 1.425 . S
C1277 C1274 1.409 . S
C1277 C1275 1.415 . S
C1278 H1268 0.930 . S
C1278 C1276 1.419 . S
C1278 C1279 1.362 . S
C1279 H1269 0.930 . S
C1279 C1272 1.409 . S
C1279 C1278 1.362 . S
H1280 C1286 0.930 . S
H1281 C1289 0.930 . S
H1282 C1290 0.930 . S
H1283 C1291 0.930 . S
H1284 C1294 0.930 . S
H1285 C1295 0.930 . S
C1286 H1280 0.930 . S
C1286 C1287 1.355 . S
C1286 C1288 1.415 1_554 S
C1287 C1286 1.355 . S
C1287 C1289 1.419 . S
C1288 C1286 1.415 1_556 S
C1288 C1293 1.425 . S
C1288 C1295 1.409 . S
C1289 H1281 0.930 . S
C1289 C1287 1.419 . S
C1289 C1290 1.362 . S
C1290 H1282 0.930 . S
C1290 C1289 1.362 . S
C1290 C1293 1.409 1_554 S
C1291 H1283 0.930 . S
C1291 C1292 1.355 . S
C1291 C1293 1.415 . S
C1292 C1291 1.355 . S
C1292 C1294 1.419 . S
C1293 C1288 1.425 . S
C1293 C1290 1.409 1_556 S
C1293 C1291 1.415 . S
C1294 H1284 0.930 . S
C1294 C1292 1.419 . S
C1294 C1295 1.362 . S
C1295 H1285 0.930 . S
C1295 C1288 1.409 . S
C1295 C1294 1.362 . S
H1296 C1302 0.930 . S
H1297 C1305 0.930 . S
H1298 C1306 0.930 . S
H1299 C1307 0.930 . S
H1300 C1310 0.930 . S
H1301 C1311 0.930 . S
C1302 H1296 0.930 . S
C1302 C1303 1.355 . S
C1302 C1304 1.415 . S
C1303 C1302 1.355 . S
C1303 C1305 1.419 . S
C1304 C1302 1.415 . S
C1304 C1309 1.425 . S
C1304 C1311 1.409 . S
C1305 H1297 0.930 . S
C1305 C1303 1.419 . S
C1305 C1306 1.362 . S
C1306 H1298 0.930 . S
C1306 C1305 1.362 . S
C1306 C1309 1.409 . S
C1307 H1299 0.930 . S
C1307 C1308 1.355 . S
C1307 C1309 1.415 . S
C1308 C1307 1.355 . S
C1308 C1310 1.419 . S
C1309 C1304 1.425 . S
C1309 C1306 1.409 . S
C1309 C1307 1.415 . S
C1310 H1300 0.930 . S
C1310 C1308 1.419 . S
C1310 C1311 1.362 . S
C1311 H1301 0.930 . S
C1311 C1304 1.409 . S
C1311 C1310 1.362 . S
H1312 C1318 0.930 . S
H1313 C1321 0.930 . S
H1314 C1322 0.930 . S
H1315 C1323 0.930 . S
H1316 C1326 0.930 . S
H1317 C1327 0.930 . S
C1318 H1312 0.930 . S
C1318 C1319 1.355 . S
C1318 C1320 1.415 . S
C1319 C1318 1.355 . S
C1319 C1321 1.419 . S
C1320 C1318 1.415 . S
C1320 C1325 1.425 . S
C1320 C1327 1.409 . S
C1321 H1313 0.930 . S
C1321 C1319 1.419 . S
C1321 C1322 1.362 . S
C1322 H1314 0.930 . S
C1322 C1321 1.362 . S
C1322 C1325 1.409 . S
C1323 H1315 0.930 . S
C1323 C1324 1.355 . S
C1323 C1325 1.415 . S
C1324 C1323 1.355 . S
C1324 C1326 1.419 . S
C1325 C1320 1.425 . S
C1325 C1322 1.409 . S
C1325 C1323 1.415 . S
C1326 H1316 0.930 . S
C1326 C1324 1.419 . S
C1326 C1327 1.362 . S
C1327 H1317 0.930 . S
C1327 C1320 1.409 . S
C1327 C1326 1.362 . S
H1328 C1334 0.930 . S
H1329 C1337 0.930 . S
H1330 C1338 0.930 . S
H1331 C1339 0.930 . S
H1332 C1342 0.930 . S
H1333 C1343 0.930 . S
C1334 H1328 0.930 . S
C1334 C1335 1.355 . S
C1334 C1336 1.415 . S
C1335 C1334 1.355 . S
C1335 C1337 1.419 . S
C1336 C1334 1.415 . S
C1336 C1341 1.425 . S
C1336 C1343 1.409 . S
C1337 H1329 0.930 . S
C1337 C1335 1.419 . S
C1337 C1338 1.362 . S
C1338 H1330 0.930 . S
C1338 C1337 1.362 . S
C1338 C1341 1.409 . S
C1339 H1331 0.930 . S
C1339 C1340 1.355 . S
C1339 C1341 1.415 . S
C1340 C1339 1.355 . S
C1340 C1342 1.419 . S
C1341 C1336 1.425 . S
C1341 C1338 1.409 . S
C1341 C1339 1.415 . S
C1342 H1332 0.930 . S
C1342 C1340 1.419 . S
C1342 C1343 1.362 . S
C1343 H1333 0.930 . S
C1343 C1336 1.409 . S
C1343 C1342 1.362 . S
H1344 C1350 0.930 . S
H1345 C1353 0.930 . S
H1346 C1354 0.930 1_655 S
H1347 C1355 0.930 . S
H1348 C1358 0.930 . S
H1349 C1359 0.930 . S
C1350 H1344 0.930 . S
C1350 C1351 1.355 . S
C1350 C1352 1.415 . S
C1351 C1350 1.355 . S
C1351 C1353 1.419 . S
C1352 C1350 1.415 . S
C1352 C1357 1.425 . S
C1352 C1359 1.409 1_545 S
C1353 H1345 0.930 . S
C1353 C1351 1.419 . S
C1353 C1354 1.362 . S
C1354 H1346 0.930 1_455 S
C1354 C1353 1.362 . S
C1354 C1357 1.409 . S
C1355 H1347 0.930 . S
C1355 C1356 1.355 . S
C1355 C1357 1.415 1_565 S
C1356 C1355 1.355 . S
C1356 C1358 1.419 . S
C1357 C1352 1.425 . S
C1357 C1354 1.409 . S
C1357 C1355 1.415 1_545 S
C1358 H1348 0.930 . S
C1358 C1356 1.419 . S
C1358 C1359 1.362 . S
C1359 H1349 0.930 . S
C1359 C1352 1.409 1_565 S
C1359 C1358 1.362 . S
H1360 C1366 0.930 . S
H1361 C1369 0.930 . S
H1362 C1370 0.930 . S
H1363 C1371 0.930 . S
H1364 C1374 0.930 . S
H1365 C1375 0.930 . S
C1366 H1360 0.930 . S
C1366 C1367 1.355 . S
C1366 C1368 1.415 . S
C1367 C1366 1.355 . S
C1367 C1369 1.419 . S
C1368 C1366 1.415 . S
C1368 C1373 1.425 . S
C1368 C1375 1.409 . S
C1369 H1361 0.930 . S
C1369 C1367 1.419 . S
C1369 C1370 1.362 . S
C1370 H1362 0.930 . S
C1370 C1369 1.362 . S
C1370 C1373 1.409 . S
C1371 H1363 0.930 . S
C1371 C1372 1.355 . S
C1371 C1373 1.415 . S
C1372 C1371 1.355 . S
C1372 C1374 1.419 . S
C1373 C1368 1.425 . S
C1373 C1370 1.409 . S
C1373 C1371 1.415 . S
C1374 H1364 0.930 . S
C1374 C1372 1.419 . S
C1374 C1375 1.362 . S
C1375 H1365 0.930 . S
C1375 C1368 1.409 . S
C1375 C1374 1.362 . S
H1376 C1382 0.930 . S
H1377 C1385 0.930 . S
H1378 C1386 0.930 . S
H1379 C1387 0.930 . S
H1380 C1390 0.930 . S
H1381 C1391 0.928 1_545 S
C1382 H1376 0.930 . S
C1382 C1383 1.355 . S
C1382 C1384 1.415 1_545 S
C1383 C1382 1.355 . S
C1383 C1385 1.419 . S
C1384 C1382 1.415 1_565 S
C1384 C1389 1.425 . S
C1384 C1391 1.409 . S
C1385 H1377 0.930 . S
C1385 C1383 1.419 . S
C1385 C1386 1.362 1_545 S
C1386 H1378 0.930 . S
C1386 C1385 1.362 1_565 S
C1386 C1389 1.409 . S
C1387 H1379 0.930 . S
C1387 C1388 1.355 . S
C1387 C1389 1.415 . S
C1388 C1387 1.355 . S
C1388 C1390 1.419 . S
C1389 C1384 1.425 . S
C1389 C1386 1.409 . S
C1389 C1387 1.415 . S
C1390 H1380 0.930 . S
C1390 C1388 1.419 . S
C1390 C1391 1.362 . S
C1391 H1381 0.928 1_565 S
C1391 C1384 1.409 . S
C1391 C1390 1.362 . S
H1392 C1398 0.930 . S
H1393 C1401 0.930 . S
H1394 C1402 0.930 . S
H1395 C1403 0.930 . S
H1396 C1406 0.930 . S
H1397 C1407 0.930 . S
C1398 H1392 0.930 . S
C1398 C1399 1.355 . S
C1398 C1400 1.415 . S
C1399 C1398 1.355 . S
C1399 C1401 1.419 . S
C1400 C1398 1.415 . S
C1400 C1405 1.425 . S
C1400 C1407 1.409 . S
C1401 H1393 0.930 . S
C1401 C1399 1.419 . S
C1401 C1402 1.362 . S
C1402 H1394 0.930 . S
C1402 C1401 1.362 . S
C1402 C1405 1.409 . S
C1403 H1395 0.930 . S
C1403 C1404 1.355 . S
C1403 C1405 1.415 . S
C1404 C1403 1.355 . S
C1404 C1406 1.419 . S
C1405 C1400 1.425 . S
C1405 C1402 1.409 . S
C1405 C1403 1.415 . S
C1406 H1396 0.930 . S
C1406 C1404 1.419 . S
C1406 C1407 1.362 . S
C1407 H1397 0.930 . S
C1407 C1400 1.409 . S
C1407 C1406 1.362 . S
H1408 C1414 0.930 . S
H1409 C1417 0.930 . S
H1410 C1418 0.930 . S
H1411 C1419 0.930 . S
H1412 C1422 0.930 . S
H1413 C1423 0.930 . S
C1414 H1408 0.930 . S
C1414 C1415 1.355 . S
C1414 C1416 1.415 . S
C1415 C1414 1.355 . S
C1415 C1417 1.419 . S
C1416 C1414 1.415 . S
C1416 C1421 1.425 . S
C1416 C1423 1.409 . S
C1417 H1409 0.930 . S
C1417 C1415 1.419 . S
C1417 C1418 1.362 . S
C1418 H1410 0.930 . S
C1418 C1417 1.362 . S
C1418 C1421 1.409 . S
C1419 H1411 0.930 . S
C1419 C1420 1.355 . S
C1419 C1421 1.415 . S
C1420 C1419 1.355 . S
C1420 C1422 1.419 . S
C1421 C1416 1.425 . S
C1421 C1418 1.409 . S
C1421 C1419 1.415 . S
C1422 H1412 0.930 . S
C1422 C1420 1.419 . S
C1422 C1423 1.362 . S
C1423 H1413 0.930 . S
C1423 C1416 1.409 . S
C1423 C1422 1.362 . S
H1424 C1430 0.930 . S
H1425 C1433 0.930 . S
H1426 C1434 0.930 . S
H1427 C1435 0.930 . S
H1428 C1438 0.930 . S
H1429 C1439 0.930 . S
C1430 H1424 0.930 . S
C1430 C1431 1.355 . S
C1430 C1432 1.415 . S
C1431 C1430 1.355 . S
C1431 C1433 1.419 . S
C1432 C1430 1.415 . S
C1432 C1437 1.425 . S
C1432 C1439 1.409 . S
C1433 H1425 0.930 . S
C1433 C1431 1.419 . S
C1433 C1434 1.362 . S
C1434 H1426 0.930 . S
C1434 C1433 1.362 . S
C1434 C1437 1.409 . S
C1435 H1427 0.930 . S
C1435 C1436 1.355 . S
C1435 C1437 1.415 . S
C1436 C1435 1.355 . S
C1436 C1438 1.419 . S
C1437 C1432 1.425 . S
C1437 C1434 1.409 . S
C1437 C1435 1.415 . S
C1438 H1428 0.930 . S
C1438 C1436 1.419 . S
C1438 C1439 1.362 . S
C1439 H1429 0.930 . S
C1439 C1432 1.409 . S
C1439 C1438 1.362 . S
H1440 C1446 0.930 . S
H1441 C1449 0.930 . S
H1442 C1450 0.930 . S
H1443 C1451 0.930 . S
H1444 C1454 0.930 . S
H1445 C1455 0.930 . S
C1446 H1440 0.930 . S
C1446 C1447 1.355 . S
C1446 C1448 1.415 . S
C1447 C1446 1.355 . S
C1447 C1449 1.419 . S
C1448 C1446 1.415 . S
C1448 C1453 1.425 . S
C1448 C1455 1.409 . S
C1449 H1441 0.930 . S
C1449 C1447 1.419 . S
C1449 C1450 1.362 . S
C1450 H1442 0.930 . S
C1450 C1449 1.362 . S
C1450 C1453 1.409 . S
C1451 H1443 0.930 . S
C1451 C1452 1.355 . S
C1451 C1453 1.415 . S
C1452 C1451 1.355 . S
C1452 C1454 1.419 . S
C1453 C1448 1.425 . S
C1453 C1450 1.409 . S
C1453 C1451 1.415 . S
C1454 H1444 0.930 . S
C1454 C1452 1.419 . S
C1454 C1455 1.362 . S
C1455 H1445 0.930 . S
C1455 C1448 1.409 . S
C1455 C1454 1.362 . S
H1456 C1462 0.930 . S
H1457 C1465 0.930 . S
H1458 C1466 0.930 . S
H1459 C1467 0.930 . S
H1460 C1470 0.930 . S
H1461 C1471 0.930 . S
C1462 H1456 0.930 . S
C1462 C1463 1.355 . S
C1462 C1464 1.415 . S
C1463 C1462 1.355 . S
C1463 C1465 1.419 . S
C1464 C1462 1.415 . S
C1464 C1469 1.425 . S
C1464 C1471 1.409 . S
C1465 H1457 0.930 . S
C1465 C1463 1.419 . S
C1465 C1466 1.362 . S
C1466 H1458 0.930 . S
C1466 C1465 1.362 . S
C1466 C1469 1.409 . S
C1467 H1459 0.930 . S
C1467 C1468 1.355 . S
C1467 C1469 1.415 . S
C1468 C1467 1.355 . S
C1468 C1470 1.419 . S
C1469 C1464 1.425 . S
C1469 C1466 1.409 . S
C1469 C1467 1.415 . S
C1470 H1460 0.930 . S
C1470 C1468 1.419 . S
C1470 C1471 1.362 . S
C1471 H1461 0.930 . S
C1471 C1464 1.409 . S
C1471 C1470 1.362 . S
H1472 C1478 0.930 . S
H1473 C1481 0.930 . S
H1474 C1482 0.930 . S
H1475 C1483 0.930 . S
H1476 C1486 0.930 . S
H1477 C1487 0.930 . S
C1478 H1472 0.930 . S
C1478 C1479 1.355 . S
C1478 C1480 1.415 . S
C1479 C1478 1.355 . S
C1479 C1481 1.419 . S
C1480 C1478 1.415 . S
C1480 C1485 1.425 . S
C1480 C1487 1.409 . S
C1481 H1473 0.930 . S
C1481 C1479 1.419 . S
C1481 C1482 1.362 . S
C1482 H1474 0.930 . S
C1482 C1481 1.362 . S
C1482 C1485 1.409 . S
C1483 H1475 0.930 . S
C1483 C1484 1.355 . S
C1483 C1485 1.415 . S
C1484 C1483 1.355 . S
C1484 C1486 1.419 . S
C1485 C1480 1.425 . S
C1485 C1482 1.409 . S
C1485 C1483 1.415 . S
C1486 H1476 0.930 . S
C1486 C1484 1.419 . S
C1486 C1487 1.362 . S
C1487 H1477 0.930 . S
C1487 C1480 1.409 . S
C1487 C1486 1.362 . S
H1488 C1494 0.930 . S
H1489 C1497 0.930 . S
H1490 C1498 0.930 1_556 S
H1491 C1499 0.930 . S
H1492 C1502 0.930 . S
H1493 C1503 0.930 . S
C1494 H1488 0.930 . S
C1494 C1495 1.355 . S
C1494 C1496 1.415 . S
C1495 C1494 1.355 . S
C1495 C1497 1.419 . S
C1496 C1494 1.415 . S
C1496 C1501 1.425 . S
C1496 C1503 1.409 1_455 S
C1497 H1489 0.930 . S
C1497 C1495 1.419 . S
C1497 C1498 1.362 . S
C1498 H1490 0.930 1_554 S
C1498 C1497 1.362 . S
C1498 C1501 1.409 . S
C1499 H1491 0.930 . S
C1499 C1500 1.355 . S
C1499 C1501 1.415 1_655 S
C1500 C1499 1.355 . S
C1500 C1502 1.419 . S
C1501 C1496 1.425 . S
C1501 C1498 1.409 . S
C1501 C1499 1.415 1_455 S
C1502 H1492 0.930 . S
C1502 C1500 1.419 . S
C1502 C1503 1.362 . S
C1503 H1493 0.930 . S
C1503 C1496 1.409 1_655 S
C1503 C1502 1.362 . S
H1504 C1510 0.930 . S
H1505 C1513 0.930 . S
H1506 C1514 0.930 . S
H1507 C1515 0.930 . S
H1508 C1518 0.930 . S
H1509 C1519 0.930 . S
C1510 H1504 0.930 . S
C1510 C1511 1.355 . S
C1510 C1512 1.415 . S
C1511 C1510 1.355 . S
C1511 C1513 1.419 . S
C1512 C1510 1.415 . S
C1512 C1517 1.425 . S
C1512 C1519 1.409 . S
C1513 H1505 0.930 . S
C1513 C1511 1.419 . S
C1513 C1514 1.362 . S
C1514 H1506 0.930 . S
C1514 C1513 1.362 . S
C1514 C1517 1.409 . S
C1515 H1507 0.930 . S
C1515 C1516 1.355 . S
C1515 C1517 1.415 . S
C1516 C1515 1.355 . S
C1516 C1518 1.419 . S
C1517 C1512 1.425 . S
C1517 C1514 1.409 . S
C1517 C1515 1.415 . S
C1518 H1508 0.930 . S
C1518 C1516 1.419 . S
C1518 C1519 1.362 . S
C1519 H1509 0.930 . S
C1519 C1512 1.409 . S
C1519 C1518 1.362 . S
H1520 C1526 0.930 . S
H1521 C1529 0.930 . S
H1522 C1530 0.930 . S
H1523 C1531 0.930 . S
H1524 C1534 0.930 . S
H1525 C1535 0.930 . S
C1526 H1520 0.930 . S
C1526 C1527 1.355 . S
C1526 C1528 1.415 . S
C1527 C1526 1.355 . S
C1527 C1529 1.419 . S
C1528 C1526 1.415 . S
C1528 C1533 1.425 . S
C1528 C1535 1.409 . S
C1529 H1521 0.930 . S
C1529 C1527 1.419 . S
C1529 C1530 1.362 . S
C1530 H1522 0.930 . S
C1530 C1529 1.362 . S
C1530 C1533 1.409 . S
C1531 H1523 0.930 . S
C1531 C1532 1.355 . S
C1531 C1533 1.415 . S
C1532 C1531 1.355 . S
C1532 C1534 1.419 . S
C1533 C1528 1.425 . S
C1533 C1530 1.409 . S
C1533 C1531 1.415 . S
C1534 H1524 0.930 . S
C1534 C1532 1.419 . S
C1534 C1535 1.362 . S
C1535 H1525 0.930 . S
C1535 C1528 1.409 . S
C1535 C1534 1.362 . S
H1536 C1542 0.930 . S
H1537 C1545 0.930 . S
H1538 C1546 0.930 . S
H1539 C1547 0.930 . S
H1540 C1550 0.930 . S
H1541 C1551 0.930 . S
C1542 H1536 0.930 . S
C1542 C1543 1.355 . S
C1542 C1544 1.415 . S
C1543 C1542 1.355 . S
C1543 C1545 1.419 . S
C1544 C1542 1.415 . S
C1544 C1549 1.425 . S
C1544 C1551 1.409 . S
C1545 H1537 0.930 . S
C1545 C1543 1.419 . S
C1545 C1546 1.362 . S
C1546 H1538 0.930 . S
C1546 C1545 1.362 . S
C1546 C1549 1.409 . S
C1547 H1539 0.930 . S
C1547 C1548 1.355 . S
C1547 C1549 1.415 . S
C1548 C1547 1.355 . S
C1548 C1550 1.419 . S
C1549 C1544 1.425 . S
C1549 C1546 1.409 . S
C1549 C1547 1.415 . S
C1550 H1540 0.930 . S
C1550 C1548 1.419 . S
C1550 C1551 1.362 . S
C1551 H1541 0.930 . S
C1551 C1544 1.409 . S
C1551 C1550 1.362 . S
H1552 C1558 0.930 . S
H1553 C1561 0.930 1_554 S
H1554 C1562 0.930 1_554 S
H1555 C1563 0.930 . S
H1556 C1566 0.930 . S
H1557 C1567 0.930 . S
C1558 H1552 0.930 . S
C1558 C1559 1.355 . S
C1558 C1560 1.415 . S
C1559 C1558 1.355 . S
C1559 C1561 1.419 . S
C1560 C1558 1.415 . S
C1560 C1565 1.425 . S
C1560 C1567 1.409 . S
C1561 H1553 0.930 1_556 S
C1561 C1559 1.419 . S
C1561 C1562 1.362 . S
C1562 H1554 0.930 1_556 S
C1562 C1561 1.362 . S
C1562 C1565 1.409 . S
C1563 H1555 0.930 . S
C1563 C1564 1.355 . S
C1563 C1565 1.415 . S
C1564 C1563 1.355 . S
C1564 C1566 1.419 . S
C1565 C1560 1.425 . S
C1565 C1562 1.409 . S
C1565 C1563 1.415 . S
C1566 H1556 0.930 . S
C1566 C1564 1.419 . S
C1566 C1567 1.362 . S
C1567 H1557 0.930 . S
C1567 C1560 1.409 . S
C1567 C1566 1.362 . S
H1568 C1574 0.930 . S
H1569 C1577 0.930 . S
H1570 C1578 0.930 . S
H1571 C1579 0.930 . S
H1572 C1582 0.930 . S
H1573 C1583 0.930 . S
C1574 H1568 0.930 . S
C1574 C1575 1.355 . S
C1574 C1576 1.415 . S
C1575 C1574 1.355 . S
C1575 C1577 1.419 . S
C1576 C1574 1.415 . S
C1576 C1581 1.425 . S
C1576 C1583 1.409 1_655 S
C1577 H1569 0.930 . S
C1577 C1575 1.419 . S
C1577 C1578 1.362 . S
C1578 H1570 0.930 . S
C1578 C1577 1.362 . S
C1578 C1581 1.409 . S
C1579 H1571 0.930 . S
C1579 C1580 1.355 . S
C1579 C1581 1.415 1_455 S
C1580 C1579 1.355 . S
C1580 C1582 1.419 . S
C1581 C1576 1.425 . S
C1581 C1578 1.409 . S
C1581 C1579 1.415 1_655 S
C1582 H1572 0.930 . S
C1582 C1580 1.419 . S
C1582 C1583 1.362 . S
C1583 H1573 0.930 . S
C1583 C1576 1.409 1_455 S
C1583 C1582 1.362 . S
C1015 C74 1.639 . S
C1020 C991 1.711 . S
C1031 C823 1.735 . S
C1036 C158 1.659 . S
C1047 C235 1.685 . S
C1052 C746 1.640 . S
C1063 C326 1.660 . S
C1068 C907 1.736 . S
C1079 C410 1.718 . S
C1084 C914 1.659 . S
C1095 C487 1.729 . S
C1100 C998 1.664 . S
C1111 C830 1.684 . S
C1116 C578 1.687 . S
C1127 C655 1.681 . S
C1132 C739 1.692 . S
C1143 C319 1.692 . S
C1148 C403 1.681 . S
C1159 C67 1.732 . S
C1164 C494 1.691 . S
C1175 C151 1.697 . S
C1180 C571 1.703 . S
C1191 C662 1.705 . S
C1196 C242 1.693 . S
C1207 C69 1.478 . S
C1212 C735 1.698 . S
C1223 C153 1.420 . S
C1228 C896 1.642 . S
C1239 C980 1.663 . S
C1244 C226 1.634 . S
C1255 C321 1.450 . S
C1260 C812 1.643 . S
C1271 C405 1.366 . S
C1276 C819 1.644 . S
C1287 C728 1.694 . S
C1292 C478 1.662 . S
C1303 C903 1.641 . S
C1308 C573 1.376 . S
C1319 C987 1.746 . S
C1324 C646 1.663 . S
C1335 C56 1.614 . S
C1340 C310 1.643 . S
C1351 C58 1.651 . S
C1356 C140 1.641 . S
C1367 C142 1.685 . S
C1372 C231 1.650 . S
C1383 C308 1.585 . S
C1388 C237 1.336 . S
C1399 C489 1.363 . S
C1404 C392 1.625 . S
C1415 C483 1.726 . S
C1420 C562 1.639 . S
C1431 C560 1.700 . S
C1436 C657 1.493 . S
C1447 C394 1.628 . S
C1452 C651 1.700 . S
C1463 C730 1.652 . S
C1468 C315 1.618 . S
C1479 C476 1.680 . S
C1484 C814 1.651 . S
C1495 C741 1.451 . S
C1500 C567 1.649 . S
C1511 C898 1.692 . S
C1516 C644 1.647 . S
C1527 C399 1.718 . S
C1532 C982 1.635 . S
C1543 C993 1.346 . S
C1548 C147 1.663 . S
C1559 C224 1.621 . S
C1564 C825 1.356 . S
C1575 C909 1.497 . S
C1580 C63 1.698 . S
