# Generated by pormake.
# Topology bcu-j, (5)-cn, num edge types: 1
# Building blocks:
#     Node 0, Type 0, BuildingBlock: XOMCOT_clean_sbu_0, # of connection points: 5
#     Node 1, Type 0, BuildingBlock: XOMCOT_clean_sbu_0, # of connection points: 5
#     Node 2, Type 0, BuildingBlock: XOMCOT_clean_sbu_0, # of connection points: 5
#     Node 3, Type 0, BuildingBlock: XOMCOT_clean_sbu_0, # of connection points: 5
#     Node 4, Type 0, BuildingBlock: XOMCOT_clean_sbu_0, # of connection points: 5
#     Node 5, Type 0, BuildingBlock: XOMCOT_clean_sbu_0, # of connection points: 5
#     Node 6, Type 0, BuildingBlock: XOMCOT_clean_sbu_0, # of connection points: 5
#     Node 7, Type 0, BuildingBlock: XOMCOT_clean_sbu_0, # of connection points: 5
#     Node 8, Type 0, BuildingBlock: XOMCOT_clean_sbu_0, # of connection points: 5
#     Node 9, Type 0, BuildingBlock: XOMCOT_clean_sbu_0, # of connection points: 5
#     Node 10, Type 0, BuildingBlock: XOMCOT_clean_sbu_0, # of connection points: 5
#     Node 11, Type 0, BuildingBlock: XOMCOT_clean_sbu_0, # of connection points: 5
#     Node 12, Type 0, BuildingBlock: XOMCOT_clean_sbu_0, # of connection points: 5
#     Node 13, Type 0, BuildingBlock: XOMCOT_clean_sbu_0, # of connection points: 5
#     Node 14, Type 0, BuildingBlock: XOMCOT_clean_sbu_0, # of connection points: 5
#     Node 15, Type 0, BuildingBlock: XOMCOT_clean_sbu_0, # of connection points: 5
#     Edge 16, Type (0, 0), BuildingBlock: OJICUG_clean_linker_0, # of connection points: 2
#     Edge 17, Type (0, 0), BuildingBlock: OJICUG_clean_linker_0, # of connection points: 2
#     Edge 18, Type (0, 0), BuildingBlock: OJICUG_clean_linker_0, # of connection points: 2
#     Edge 19, Type (0, 0), BuildingBlock: OJICUG_clean_linker_0, # of connection points: 2
#     Edge 20, Type (0, 0), BuildingBlock: OJICUG_clean_linker_0, # of connection points: 2
#     Edge 21, Type (0, 0), BuildingBlock: OJICUG_clean_linker_0, # of connection points: 2
#     Edge 22, Type (0, 0), BuildingBlock: OJICUG_clean_linker_0, # of connection points: 2
#     Edge 23, Type (0, 0), BuildingBlock: OJICUG_clean_linker_0, # of connection points: 2
#     Edge 24, Type (0, 0), BuildingBlock: OJICUG_clean_linker_0, # of connection points: 2
#     Edge 25, Type (0, 0), BuildingBlock: OJICUG_clean_linker_0, # of connection points: 2
#     Edge 26, Type (0, 0), BuildingBlock: OJICUG_clean_linker_0, # of connection points: 2
#     Edge 27, Type (0, 0), BuildingBlock: OJICUG_clean_linker_0, # of connection points: 2
#     Edge 28, Type (0, 0), BuildingBlock: OJICUG_clean_linker_0, # of connection points: 2
#     Edge 29, Type (0, 0), BuildingBlock: OJICUG_clean_linker_0, # of connection points: 2
#     Edge 30, Type (0, 0), BuildingBlock: OJICUG_clean_linker_0, # of connection points: 2
#     Edge 31, Type (0, 0), BuildingBlock: OJICUG_clean_linker_0, # of connection points: 2
#     Edge 32, Type (0, 0), BuildingBlock: OJICUG_clean_linker_0, # of connection points: 2
#     Edge 33, Type (0, 0), BuildingBlock: OJICUG_clean_linker_0, # of connection points: 2
#     Edge 34, Type (0, 0), BuildingBlock: OJICUG_clean_linker_0, # of connection points: 2
#     Edge 35, Type (0, 0), BuildingBlock: OJICUG_clean_linker_0, # of connection points: 2
#     Edge 36, Type (0, 0), BuildingBlock: OJICUG_clean_linker_0, # of connection points: 2
#     Edge 37, Type (0, 0), BuildingBlock: OJICUG_clean_linker_0, # of connection points: 2
#     Edge 38, Type (0, 0), BuildingBlock: OJICUG_clean_linker_0, # of connection points: 2
#     Edge 39, Type (0, 0), BuildingBlock: OJICUG_clean_linker_0, # of connection points: 2
#     Edge 40, Type (0, 0), BuildingBlock: OJICUG_clean_linker_0, # of connection points: 2
#     Edge 41, Type (0, 0), BuildingBlock: OJICUG_clean_linker_0, # of connection points: 2
#     Edge 42, Type (0, 0), BuildingBlock: OJICUG_clean_linker_0, # of connection points: 2
#     Edge 43, Type (0, 0), BuildingBlock: OJICUG_clean_linker_0, # of connection points: 2
#     Edge 44, Type (0, 0), BuildingBlock: OJICUG_clean_linker_0, # of connection points: 2
#     Edge 45, Type (0, 0), BuildingBlock: OJICUG_clean_linker_0, # of connection points: 2
#     Edge 46, Type (0, 0), BuildingBlock: OJICUG_clean_linker_0, # of connection points: 2
#     Edge 47, Type (0, 0), BuildingBlock: OJICUG_clean_linker_0, # of connection points: 2
#     Edge 48, Type (0, 0), BuildingBlock: OJICUG_clean_linker_0, # of connection points: 2
#     Edge 49, Type (0, 0), BuildingBlock: OJICUG_clean_linker_0, # of connection points: 2
#     Edge 50, Type (0, 0), BuildingBlock: OJICUG_clean_linker_0, # of connection points: 2
#     Edge 51, Type (0, 0), BuildingBlock: OJICUG_clean_linker_0, # of connection points: 2
#     Edge 52, Type (0, 0), BuildingBlock: OJICUG_clean_linker_0, # of connection points: 2
#     Edge 53, Type (0, 0), BuildingBlock: OJICUG_clean_linker_0, # of connection points: 2
#     Edge 54, Type (0, 0), BuildingBlock: OJICUG_clean_linker_0, # of connection points: 2
#     Edge 55, Type (0, 0), BuildingBlock: OJICUG_clean_linker_0, # of connection points: 2
# Relax obj value: 0.627
# Max RMSD: 0.322
# Mean RMSD: 0.321
data_MOF--net-bcu-j--node1-XOMCOT_clean_sbu_0--edge1-OJICUG_clean_linker_0
_symmetry_space_group_name_H-M    P1
_symmetry_Int_Tables_number       1
_symmetry_cell_setting            triclinic
loop_
_symmetry_equiv_pos_as_xyz
'x, y, z'
_cell_length_a     31.412891
_cell_length_b     31.506769
_cell_length_c     38.907942
_cell_angle_alpha  89.895061
_cell_angle_beta   90.179025
_cell_angle_gamma 90.289095
loop_
_atom_site_label
_atom_site_type_symbol
_atom_site_fract_x
_atom_site_fract_y
_atom_site_fract_z
_atom_type_partial_charge
Co0 Co 0.03725 0.17502 0.56923 0.0
C1 C 0.11515 0.12997 0.54657 0.0
C2 C 0.1113 0.19227 0.52473 0.0
C3 C 0.14927 0.17458 0.51515 0.0
N4 N 0.08994 0.16448 0.54477 0.0
N5 N 0.15194 0.13551 0.52918 0.0
H6 H 0.10755 0.10191 0.56134 0.0
H7 H 0.10116 0.22403 0.51842 0.0
C8 C 0.01801 0.26796 0.55943 0.0
O9 O 0.97681 0.26067 0.55905 0.0
N10 N 0.98538 0.18613 0.59448 0.0
C11 C 0.94675 0.16736 0.59248 0.0
C12 C 0.92274 0.18016 0.62028 0.0
C13 C 0.98416 0.20995 0.62322 0.0
N14 N 0.94647 0.20695 0.6395 0.0
C15 C 0.99205 0.12374 0.52192 0.0
C16 C 0.01377 0.17155 0.46493 0.0
C17 C 0.00408 0.12849 0.46087 0.0
C18 C 0.99057 0.10522 0.48943 0.0
C19 C 0.01462 0.18903 0.49802 0.0
N20 N 0.00705 0.16416 0.52628 0.0
H21 H 0.98591 0.10361 0.54381 0.0
H22 H 0.02664 0.22092 0.50073 0.0
H23 H 0.93696 0.1446 0.57333 0.0
H24 H 0.01139 0.22728 0.6331 0.0
O25 O 0.03725 0.11807 0.58808 0.0
O26 O 0.06825 0.17381 0.61232 0.0
O27 O 0.04448 0.23737 0.56024 0.0
C28 C 0.05898 0.13361 0.61366 0.0
H29 H 0.17421 0.19064 0.50099 0.0
H30 H 0.89084 0.1695 0.62642 0.0
H31 H 0.02441 0.19039 0.44325 0.0
H32 H 0.98274 0.07181 0.4871 0.0
Co33 Co 0.37216 0.0396 0.61412 0.0
C34 C 0.42275 0.12061 0.60345 0.0
C35 C 0.35513 0.12925 0.6045 0.0
C36 C 0.37384 0.16801 0.59938 0.0
N37 N 0.38544 0.09905 0.60569 0.0
N38 N 0.41622 0.16254 0.59863 0.0
H39 H 0.45389 0.10691 0.60667 0.0
H40 H 0.32146 0.12363 0.60814 0.0
C41 C 0.31424 0.06442 0.55614 0.0
O42 O 0.34698 0.08116 0.54 0.0
N43 N 0.35579 0.9817 0.62337 0.0
C44 C 0.37979 0.94827 0.63269 0.0
C45 C 0.35296 0.91638 0.64446 0.0
C46 C 0.31528 0.96982 0.62928 0.0
N47 N 0.31239 0.93017 0.64209 0.0
C48 C 0.44992 0.02784 0.57889 0.0
C49 C 0.41677 -0.00023 0.51726 0.0
C50 C 0.45969 0.01242 0.51896 0.0
C51 C 0.47657 0.0244 0.55077 0.0
C52 C 0.39116 0.0033 0.54656 0.0
N53 N 0.40713 0.02143 0.57577 0.0
H54 H 0.46386 0.03784 0.60285 0.0
H55 H 0.3582 0.99355 0.54514 0.0
H56 H 0.41422 0.94814 0.63317 0.0
H57 H 0.28866 0.99139 0.62742 0.0
O58 O 0.41524 0.03669 0.64883 0.0
O59 O 0.34867 0.05658 0.65823 0.0
O60 O 0.31946 0.04558 0.58494 0.0
C61 C 0.38691 0.05009 0.67024 0.0
H62 H 0.35777 0.19832 0.59839 0.0
H63 H 0.36265 0.88642 0.65559 0.0
H64 H 0.40298 0.98834 0.49345 0.0
H65 H 0.50968 0.0335 0.55367 0.0
Co66 Co 0.48355 0.37424 0.68762 0.0
C67 C 0.4094 0.42069 0.65719 0.0
C68 C 0.40694 0.35371 0.64818 0.0
C69 C 0.37059 0.37135 0.63506 0.0
N70 N 0.43222 0.38468 0.66098 0.0
N71 N 0.37211 0.4134 0.64084 0.0
H72 H 0.41803 0.45097 0.66812 0.0
H73 H 0.41301 0.32007 0.6503 0.0
C74 C 0.49299 0.31873 0.62546 0.0
O75 O 0.48419 0.35152 0.60577 0.0
N76 N 0.53334 0.3616 0.7146 0.0
C77 C 0.55605 0.38769 0.73513 0.0
C78 C 0.58057 0.3631 0.75696 0.0
C79 C 0.54458 0.32202 0.72373 0.0
N80 N 0.5733 0.32187 0.74949 0.0
C81 C 0.50659 0.45533 0.66169 0.0
C82 C 0.5653 0.42911 0.61379 0.0
C83 C 0.55064 0.47115 0.61287 0.0
C84 C 0.52275 0.48461 0.63846 0.0
C85 C 0.5487 0.40085 0.63824 0.0
N86 N 0.51653 0.41333 0.65942 0.0
H87 H 0.4846 0.46662 0.68066 0.0
H88 H 0.5602 0.36862 0.6389 0.0
H89 H 0.55228 0.42176 0.73622 0.0
H90 H 0.52844 0.29382 0.71446 0.0
O91 O 0.46549 0.41424 0.7215 0.0
O92 O 0.44812 0.34597 0.72173 0.0
O93 O 0.49644 0.32351 0.65794 0.0
C94 C 0.44502 0.38325 0.73596 0.0
H95 H 0.34346 0.35415 0.62483 0.0
H96 H 0.59979 0.37447 0.7782 0.0
H97 H 0.58824 0.41794 0.59519 0.0
H98 H 0.51122 0.51694 0.63927 0.0
Co99 Co 0.13767 0.50067 0.68964 0.0
C100 C 0.09594 0.43802 0.64078 0.0
C101 C 0.15371 0.416 0.6643 0.0
C102 C 0.13953 0.38546 0.64203 0.0
N103 N 0.12718 0.44952 0.66303 0.0
N104 N 0.10344 0.39935 0.6272 0.0
H105 H 0.06854 0.45691 0.63433 0.0
H106 H 0.18217 0.41435 0.67996 0.0
C107 C 0.21096 0.49164 0.6412 0.0
O108 O 0.18395 0.48177 0.61657 0.0
N109 N 0.15013 0.54972 0.71744 0.0
C110 C 0.12214 0.57611 0.73239 0.0
C111 C 0.14159 0.59455 0.76065 0.0
C112 C 0.18608 0.55306 0.73622 0.0
N113 N 0.18179 0.57984 0.76292 0.0
C114 C 0.07021 0.53637 0.65043 0.0
C115 C 0.11972 0.56665 0.59727 0.0
C116 C 0.07657 0.55744 0.59125 0.0
C117 C 0.05107 0.54622 0.61922 0.0
C118 C 0.13742 0.55713 0.62948 0.0
N119 N 0.11351 0.5365 0.65361 0.0
H120 H 0.05014 0.52367 0.67037 0.0
H121 H 0.17085 0.56312 0.63368 0.0
H122 H 0.08872 0.57795 0.72581 0.0
H123 H 0.21268 0.53162 0.73342 0.0
O124 O 0.08641 0.49044 0.71513 0.0
O125 O 0.14958 0.4645 0.72895 0.0
O126 O 0.19736 0.5034 0.67061 0.0
C127 C 0.10904 0.46691 0.73541 0.0
H128 H 0.15426 0.35501 0.63738 0.0
H129 H 0.12617 0.61399 0.77981 0.0
H130 H 0.14021 0.57767 0.57674 0.0
H131 H 0.0171 0.54127 0.61619 0.0
Co132 Co 0.98213 0.31528 0.8643 0.0
C133 C 0.05995 0.33528 0.90649 0.0
C134 C 0.00814 0.37742 0.91531 0.0
C135 C 0.04281 0.39287 0.93255 0.0
N136 N 0.01793 0.34046 0.89992 0.0
N137 N 0.07547 0.36643 0.92701 0.0
H138 H 0.07942 0.3113 0.89444 0.0
H139 H 0.97929 0.39461 0.91086 0.0
C140 C 0.01257 0.23649 0.90292 0.0
O141 O 0.02911 0.25758 0.92878 0.0
N142 N 0.94651 0.29143 0.82813 0.0
C143 C 0.91025 0.26896 0.83245 0.0
C144 C 0.89728 0.25312 0.80112 0.0
C145 C 0.95526 0.28842 0.79423 0.0
N146 N 0.9257 0.26533 0.77708 0.0
C147 C 0.90513 0.35436 0.88316 0.0
C148 C 0.92079 0.34099 0.95215 0.0
C149 C 0.90366 0.38007 0.94149 0.0
C150 C 0.88954 0.38316 0.90724 0.0
C151 C 0.93474 0.31239 0.92722 0.0
N152 N 0.93258 0.32336 0.89333 0.0
H153 H 0.90162 0.36172 0.85614 0.0
H154 H 0.95443 0.28641 0.93543 0.0
H155 H 0.89501 0.26302 0.85688 0.0
H156 H 0.98382 0.30085 0.78248 0.0
O157 O 0.98258 0.36977 0.84192 0.0
O158 O 0.02997 0.31869 0.8335 0.0
O159 O 0.99065 0.2552 0.8799 0.0
C160 C 0.01745 0.35729 0.82718 0.0
H161 H 0.04472 0.42289 0.946 0.0
H162 H 0.86957 0.23333 0.79664 0.0
H163 H 0.93068 0.33572 0.97847 0.0
H164 H 0.87358 0.41143 0.8981 0.0
Co165 Co 0.12002 0.99549 0.77965 0.0
C166 C 0.08366 0.06476 0.82253 0.0
C167 C 0.15086 0.0716 0.81377 0.0
C168 C 0.13835 0.10274 0.8361 0.0
N169 N 0.11679 0.04754 0.80556 0.0
N170 N 0.09626 0.09825 0.84181 0.0
H171 H 0.05153 0.05223 0.82175 0.0
H172 H 0.18286 0.06635 0.80463 0.0
C173 C 0.20985 0.97853 0.79241 0.0
O174 O 0.21394 0.97995 0.75887 0.0
N175 N 0.12576 0.94276 0.75403 0.0
C176 C 0.13253 0.90462 0.76886 0.0
C177 C 0.1559 0.8797 0.74682 0.0
C178 C 0.14364 0.9395 0.72257 0.0
N179 N 0.16358 0.9021 0.71793 0.0
C180 C 0.04439 0.956 0.80375 0.0
C181 C 0.06348 0.9652 0.87273 0.0
C182 C 0.02096 0.95816 0.86291 0.0
C183 C 0.01201 0.95123 0.82802 0.0
C184 C 0.09481 0.96998 0.84765 0.0
N185 N 0.08442 0.96781 0.81361 0.0
H186 H 0.03645 0.95384 0.77676 0.0
H187 H 0.12632 0.97975 0.85563 0.0
H188 H 0.12674 0.89754 0.79565 0.0
H189 H 0.14862 0.96623 0.70561 0.0
O190 O 0.07562 0.01466 0.74914 0.0
O191 O 0.1444 0.02818 0.74217 0.0
O192 O 0.173 0.98137 0.80577 0.0
C193 C 0.10543 0.03293 0.73134 0.0
H194 H 0.15862 0.12716 0.847 0.0
H195 H 0.17056 0.84971 0.75333 0.0
H196 H 0.07213 0.96947 0.89947 0.0
H197 H 0.97979 0.94535 0.81922 0.0
Co198 Co 0.46686 0.10182 0.86029 0.0
C199 C 0.39082 0.04496 0.86219 0.0
C200 C 0.37715 0.10684 0.88147 0.0
C201 C 0.33973 0.08447 0.87939 0.0
N202 N 0.40977 0.08174 0.8719 0.0
N203 N 0.34828 0.0457 0.8669 0.0
H204 H 0.40675 0.01985 0.84853 0.0
H205 H 0.37919 0.14059 0.88588 0.0
C206 C 0.44683 0.15147 0.92397 0.0
O207 O 0.43512 0.11617 0.93942 0.0
N208 N 0.52204 0.12353 0.84783 0.0
C209 C 0.55559 0.10225 0.83519 0.0
C210 C 0.58371 0.13137 0.82114 0.0
C211 C 0.53025 0.16481 0.84182 0.0
N212 N 0.5676 0.17062 0.82553 0.0
C213 C 0.48299 0.02364 0.89397 0.0
C214 C 0.51747 0.05882 0.95278 0.0
C215 C 0.49893 0.01823 0.9542 0.0
C216 C 0.48521 0.99925 0.92363 0.0
C217 C 0.51473 0.08203 0.92217 0.0
N218 N 0.49234 0.06585 0.89504 0.0
H219 H 0.47033 0.00942 0.87097 0.0
H220 H 0.52593 0.11453 0.92169 0.0
H221 H 0.55778 0.06805 0.83373 0.0
H222 H 0.50718 0.18972 0.8459 0.0
O223 O 0.46865 0.06284 0.82255 0.0
O224 O 0.44226 0.12809 0.81995 0.0
O225 O 0.4608 0.15062 0.89318 0.0
C226 C 0.44939 0.09199 0.80477 0.0
H227 H 0.30817 0.09751 0.88264 0.0
H228 H 0.61221 0.1241 0.80677 0.0
H229 H 0.53005 0.07395 0.97565 0.0
H230 H 0.47324 0.96694 0.92327 0.0
Co231 Co 0.32671 0.42672 0.91322 0.0
C232 C 0.36585 0.34419 0.93439 0.0
C233 C 0.3037 0.3373 0.91199 0.0
C234 C 0.3182 0.29779 0.92071 0.0
N235 N 0.33291 0.36657 0.92153 0.0
N236 N 0.35714 0.30227 0.93478 0.0
H237 H 0.39611 0.35748 0.94206 0.0
H238 H 0.27394 0.34432 0.89917 0.0
C239 C 0.25083 0.39975 0.95476 0.0
O240 O 0.27481 0.37542 0.97419 0.0
N241 N 0.31869 0.4861 0.90337 0.0
C242 C 0.34878 0.51636 0.89961 0.0
C243 C 0.33147 0.54966 0.88114 0.0
C244 C 0.28368 0.50146 0.88773 0.0
N245 N 0.29052 0.54007 0.87375 0.0
C246 C 0.3969 0.43742 0.95853 0.0
C247 C 0.35328 0.45608 0.01797 0.0
C248 C 0.39721 0.44816 0.01974 0.0
C249 C 0.41904 0.44045 0.98926 0.0
C250 C 0.33196 0.45249 0.98619 0.0
N251 N 0.35356 0.44052 0.9573 0.0
H252 H 0.41521 0.43034 0.93598 0.0
H253 H 0.2983 0.45888 0.98518 0.0
H254 H 0.3819 0.51271 0.90664 0.0
H255 H 0.25543 0.48251 0.88292 0.0
O256 O 0.37715 0.42663 0.88563 0.0
O257 O 0.31243 0.41325 0.8656 0.0
O258 O 0.26739 0.4245 0.93242 0.0
C259 C 0.35308 0.41679 0.85982 0.0
H260 H 0.30251 0.26784 0.91531 0.0
H261 H 0.34855 0.57714 0.87156 0.0
H262 H 0.33552 0.46388 0.0409 0.0
H263 H 0.45326 0.43619 0.98915 0.0
Co264 Co 0.99299 0.903 0.28284 0.0
C265 C 0.92938 0.94634 0.32478 0.0
C266 C 0.93969 0.88279 0.3429 0.0
C267 C 0.90862 0.90121 0.36269 0.0
N268 N 0.95243 0.91117 0.31912 0.0
N269 N 0.90203 0.9411 0.35112 0.0
H270 H 0.93166 0.97468 0.30915 0.0
H271 H 0.95082 0.85046 0.34492 0.0
C272 C 0.0564 0.83958 0.31204 0.0
O273 O 0.08852 0.85446 0.29411 0.0
N274 N 0.03299 0.89381 0.24588 0.0
C275 C 0.0479 0.92194 0.22256 0.0
C276 C 0.06336 0.89989 0.19457 0.0
C277 C 0.03936 0.85537 0.23161 0.0
N278 N 0.05819 0.85811 0.2007 0.0
C279 C 0.02364 0.98742 0.29193 0.0
C280 C 0.04854 0.97528 0.35933 0.0
C281 C 0.03921 0.01651 0.34817 0.0
C282 C 0.02887 0.0226 0.31347 0.0
C283 C 0.04236 0.941 0.33718 0.0
N284 N 0.02773 0.94702 0.30438 0.0
H285 H 0.01126 0.99286 0.26645 0.0
H286 H 0.04427 0.90982 0.34832 0.0
H287 H 0.04452 0.95593 0.2241 0.0
H288 H 0.02686 0.82608 0.24225 0.0
O289 O 0.9587 0.93795 0.25274 0.0
O290 O 0.9522 0.86819 0.25827 0.0
O291 O 0.01949 0.85616 0.31039 0.0
C292 C 0.93929 0.9031 0.24386 0.0
H293 H 0.8903 0.8854 0.38249 0.0
H294 H 0.07513 0.91344 0.17082 0.0
H295 H 0.05622 0.9689 0.386 0.0
H296 H 0.02186 0.05399 0.30365 0.0
Co297 Co 0.66595 0.97942 0.32549 0.0
C298 C 0.63807 0.928 0.3859 0.0
C299 C 0.70221 0.91478 0.3705 0.0
C300 C 0.69226 0.88915 0.39786 0.0
N301 N 0.66863 0.93983 0.36346 0.0
N302 N 0.65196 0.89741 0.40753 0.0
H303 H 0.60594 0.94006 0.38561 0.0
H304 H 0.73174 0.91474 0.35626 0.0
C305 C 0.73868 0.00693 0.37099 0.0
O306 O 0.718 0.996 0.39899 0.0
N307 N 0.66512 0.01807 0.28692 0.0
C308 C 0.63234 0.03796 0.27149 0.0
C309 C 0.64716 0.05731 0.24193 0.0
C310 C 0.69912 0.02561 0.26675 0.0
N311 N 0.68921 0.04937 0.23898 0.0
C312 C 0.58442 0.0083 0.34551 0.0
C313 C 0.61039 0.05058 0.40385 0.0
C314 C 0.56816 0.0362 0.40124 0.0
C315 C 0.55451 0.01817 0.3704 0.0
C316 C 0.63915 0.04103 0.37763 0.0
N317 N 0.62688 0.01562 0.35098 0.0
H318 H 0.57332 0.99102 0.32336 0.0
H319 H 0.67129 0.05236 0.37998 0.0
H320 H 0.59966 0.03705 0.27993 0.0
H321 H 0.7299 0.01128 0.27116 0.0
O322 O 0.62395 0.94354 0.30434 0.0
O323 O 0.69336 0.93731 0.29622 0.0
O324 O 0.71931 0.00901 0.34206 0.0
C325 C 0.65499 0.9235 0.29002 0.0
H326 H 0.71215 0.86425 0.4083 0.0
H327 H 0.62803 0.07445 0.22342 0.0
H328 H 0.62155 0.06673 0.42675 0.0
H329 H 0.52193 0.00752 0.36694 0.0
Co330 Co 0.58285 0.68259 0.40583 0.0
C331 C 0.67141 0.66027 0.42698 0.0
C332 C 0.66349 0.72682 0.41796 0.0
C333 C 0.70565 0.71946 0.4251 0.0
N334 N 0.64171 0.68987 0.41994 0.0
N335 N 0.71056 0.67756 0.43058 0.0
H336 H 0.6655 0.6266 0.42739 0.0
H337 H 0.65005 0.75675 0.40986 0.0
C338 C 0.58321 0.75086 0.45905 0.0
O339 O 0.6066 0.72702 0.47936 0.0
N340 N 0.52476 0.67755 0.39058 0.0
C341 C 0.50384 0.64244 0.38017 0.0
C342 C 0.47076 0.65471 0.35886 0.0
C343 C 0.50401 0.7103 0.37613 0.0
N344 N 0.47129 0.69749 0.35614 0.0
C345 C 0.58705 0.60377 0.44127 0.0
C346 C 0.54351 0.6268 0.49967 0.0
C347 C 0.5629 0.58675 0.49831 0.0
C348 C 0.58392 0.57511 0.46825 0.0
C349 C 0.5474 0.65472 0.47176 0.0
N350 N 0.57145 0.64401 0.44392 0.0
H351 H 0.60327 0.59339 0.41849 0.0
H352 H 0.53121 0.68479 0.47277 0.0
H353 H 0.51463 0.61032 0.38448 0.0
H354 H 0.51661 0.74235 0.37619 0.0
O355 O 0.60016 0.64119 0.37264 0.0
O356 O 0.59653 0.71041 0.36252 0.0
O357 O 0.56641 0.73481 0.43212 0.0
C358 C 0.60496 0.67248 0.35139 0.0
H359 H 0.7312 0.74257 0.4236 0.0
H360 H 0.45055 0.6336 0.34406 0.0
H361 H 0.52532 0.63632 0.52194 0.0
H362 H 0.59888 0.54438 0.46575 0.0
Co363 Co 0.92908 0.57688 0.35488 0.0
C364 C 0.99017 0.65099 0.3584 0.0
C365 C 0.92578 0.66779 0.36961 0.0
C366 C 0.9501 0.7038 0.37094 0.0
N367 N 0.9509 0.634 0.36351 0.0
N368 N 0.99058 0.69333 0.36396 0.0
H369 H 0.01713 0.63379 0.34853 0.0
H370 H 0.89143 0.66719 0.3705 0.0
C371 C 0.87432 0.6059 0.4139 0.0
O372 O 0.90824 0.61843 0.43104 0.0
N373 N 0.90461 0.52183 0.34502 0.0
C374 C 0.92356 0.4872 0.33186 0.0
C375 C 0.89237 0.46091 0.31814 0.0
C376 C 0.8626 0.51594 0.33949 0.0
N377 N 0.85412 0.47919 0.32319 0.0
C378 C 0.0035 0.56017 0.39481 0.0
C379 C 0.9614 0.52877 0.45165 0.0
C380 C 0.00401 0.54197 0.45504 0.0
C381 C 0.02578 0.55521 0.42553 0.0
C382 C 0.94044 0.53413 0.42022 0.0
N383 N 0.96058 0.5539 0.39357 0.0
H384 H 0.02048 0.57086 0.37242 0.0
H385 H 0.90717 0.52557 0.41819 0.0
H386 H 0.9576 0.48317 0.32951 0.0
H387 H 0.83906 0.54035 0.34356 0.0
O388 O 0.97115 0.56876 0.31953 0.0
O389 O 0.90712 0.59707 0.31179 0.0
O390 O 0.87788 0.58902 0.38423 0.0
C391 C 0.94343 0.58558 0.29875 0.0
H392 H 0.93833 0.73586 0.3737 0.0
H393 H 0.89759 0.43215 0.30362 0.0
H394 H 0.94355 0.51707 0.4735 0.0
H395 H 0.05935 0.56317 0.42644 0.0
Co396 Co 0.9747 0.61281 0.0963 0.0
C397 C 0.88578 0.57823 0.09555 0.0
C398 C 0.93251 0.52934 0.09964 0.0
C399 C 0.89318 0.51073 0.1012 0.0
N400 N 0.92826 0.57162 0.0948 0.0
N401 N 0.8638 0.5414 0.09855 0.0
H402 H 0.87128 0.60932 0.09568 0.0
H403 H 0.96187 0.51292 0.1046 0.0
C404 C 0.91502 0.65239 0.04274 0.0
O405 O 0.89997 0.61602 0.03145 0.0
N406 N 0.02098 0.65299 0.09902 0.0
C407 C 0.0627 0.64395 0.10191 0.0
C408 C 0.08387 0.67979 0.11323 0.0
C409 C 0.01733 0.69406 0.10816 0.0
N410 N 0.0552 0.71116 0.11713 0.0
C411 C 0.01864 0.54427 0.06496 0.0
C412 C 0.98205 0.56188 0.00205 0.0
C413 C 0.98637 0.51931 0.01224 0.0
C414 C 0.00978 0.51092 0.04231 0.0
C415 C 0.99234 0.59391 0.02541 0.0
N416 N 0.00243 0.58349 0.05842 0.0
H417 H 0.03108 0.53679 0.09016 0.0
H418 H 0.98683 0.62645 0.01814 0.0
H419 H 0.07616 0.61264 0.09897 0.0
H420 H 0.98705 0.70971 0.11175 0.0
O421 O 0.99771 0.5824 0.13575 0.0
O422 O 0.95152 0.63536 0.1376 0.0
O423 O 0.94453 0.65391 0.06531 0.0
C424 C 0.97353 0.60718 0.15405 0.0
H425 H 0.88668 0.47735 0.10542 0.0
H426 H 0.11714 0.68181 0.1204 0.0
H427 H 0.96694 0.57058 0.97804 0.0
H428 H 0.017 0.47872 0.05006 0.0
Co429 Co 0.81554 0.93395 0.07078 0.0
C430 C 0.84069 0.84822 0.04451 0.0
C431 C 0.77789 0.8496 0.06578 0.0
C432 C 0.7865 0.80875 0.05595 0.0
N433 N 0.81156 0.87457 0.05816 0.0
N434 N 0.82606 0.80783 0.04266 0.0
H435 H 0.87242 0.85766 0.0373 0.0
H436 H 0.74942 0.86023 0.07868 0.0
C437 C 0.73934 0.92498 0.02515 0.0
O438 O 0.76201 0.90292 0.00323 0.0
N439 N 0.81699 0.99248 0.08491 0.0
C440 C 0.8511 0.01527 0.09519 0.0
C441 C 0.83764 0.04555 0.11842 0.0
C442 C 0.78355 0.00976 0.10116 0.0
N443 N 0.79508 0.04158 0.12236 0.0
C444 C 0.8889 0.93792 0.02836 0.0
C445 C 0.853 0.97556 0.97118 0.0
C446 C 0.89556 0.96248 0.97014 0.0
C447 C 0.91365 0.9445 -0.00062 0.0
C448 C 0.82925 0.96906 0.00134 0.0
N449 N 0.84665 0.94809 0.02881 0.0
H450 H 0.90408 0.92323 0.05012 0.0
H451 H 0.79713 0.98088 0.00234 0.0
H452 H 0.8838 0.0069 0.08998 0.0
H453 H 0.75263 0.99446 0.10207 0.0
O454 O 0.86376 0.92166 0.09966 0.0
O455 O 0.79674 0.91897 0.11704 0.0
O456 O 0.75776 0.9441 0.05 0.0
C457 C 0.83698 0.91482 0.12423 0.0
H458 H 0.76624 0.7814 0.06037 0.0
H459 H 0.85812 0.06559 0.13393 0.0
H460 H 0.8385 0.99085 0.94914 0.0
H461 H 0.94669 0.93473 -0.00038 0.0
Co462 Co 0.506 0.83385 0.15631 0.0
C463 C 0.56036 0.86551 0.09861 0.0
C464 C 0.5684 0.79911 0.10885 0.0
C465 C 0.59563 0.81054 0.08295 0.0
N466 N 0.54545 0.83323 0.11813 0.0
N467 N 0.59069 0.8523 0.07654 0.0
H468 H 0.55096 0.8982 0.1015 0.0
H469 H 0.56639 0.76823 0.12093 0.0
C470 C 0.47519 0.76838 0.10611 0.0
O471 O 0.48375 0.79335 0.07989 0.0
N472 N 0.46782 0.83252 0.19494 0.0
C473 C 0.45015 0.86466 0.21253 0.0
C474 C 0.43338 0.84852 0.24268 0.0
C475 C 0.46138 0.79763 0.21426 0.0
N476 N 0.44079 0.80631 0.24379 0.0
C477 C 0.48175 0.9177 0.1388 0.0
C478 C 0.4372 0.89538 0.08045 0.0
C479 C 0.45762 0.9351 0.08196 0.0
C480 C 0.47567 0.9478 0.11317 0.0
C481 C 0.44303 0.86665 0.10746 0.0
N482 N 0.47081 0.87621 0.13334 0.0
H483 H 0.49985 0.92715 0.16108 0.0
H484 H 0.42792 0.83601 0.10594 0.0
H485 H 0.45179 0.89776 0.20535 0.0
H486 H 0.47531 0.76719 0.20824 0.0
O487 O 0.54352 0.87234 0.17973 0.0
O488 O 0.54758 0.80233 0.18361 0.0
O489 O 0.47415 0.78359 0.13658 0.0
C490 C 0.56274 0.83942 0.192 0.0
H491 H 0.61947 0.79036 0.07149 0.0
H492 H 0.41914 0.86695 0.26303 0.0
H493 H 0.42044 0.88502 0.05758 0.0
H494 H 0.4892 0.97926 0.11634 0.0
Co495 Co 0.6297 0.53902 0.18405 0.0
C496 C 0.57248 0.59124 0.14083 0.0
C497 C 0.63754 0.61201 0.13791 0.0
C498 C 0.61309 0.63885 0.11838 0.0
N499 N 0.61225 0.58144 0.15116 0.0
N500 N 0.57226 0.62575 0.12034 0.0
H501 H 0.544 0.57544 0.1497 0.0
H502 H 0.6713 0.61517 0.14295 0.0
C503 C 0.68547 0.52642 0.12155 0.0
O504 O 0.65619 0.54001 0.10009 0.0
N505 N 0.64866 0.49774 0.21738 0.0
C506 C 0.62644 0.47948 0.24306 0.0
C507 C 0.65492 0.4619 0.26618 0.0
C508 C 0.68996 0.49089 0.22506 0.0
N509 N 0.69482 0.46917 0.25468 0.0
C510 C 0.5477 0.49998 0.17911 0.0
C511 C 0.56095 0.45815 0.11795 0.0
C512 C 0.51901 0.46487 0.129 0.0
C513 C 0.51281 0.48384 0.16102 0.0
C514 C 0.595 0.47499 0.13686 0.0
N515 N 0.58777 0.49896 0.16545 0.0
H516 H 0.5415 0.51657 0.20273 0.0
H517 H 0.62661 0.46999 0.12735 0.0
H518 H 0.59235 0.48173 0.24627 0.0
H519 H 0.71606 0.50538 0.21113 0.0
O520 O 0.59431 0.56617 0.21776 0.0
O521 O 0.66216 0.58194 0.20856 0.0
O522 O 0.67715 0.5199 0.15324 0.0
C523 C 0.62732 0.58918 0.22546 0.0
H524 H 0.62391 0.66776 0.10602 0.0
H525 H 0.64701 0.44724 0.29053 0.0
H526 H 0.56741 0.44253 0.09377 0.0
H527 H 0.48107 0.48824 0.17118 0.0
C528 C 0.10901 0.11681 0.6618 0.0
C529 C 0.07215 0.10694 0.64285 0.0
H530 H 0.14919 0.10014 0.70443 0.0
C531 C 0.04731 0.07177 0.65243 0.0
H532 H 0.12878 0.14369 0.65472 0.0
C533 C 0.05838 0.04762 0.68118 0.0
C534 C 0.09512 0.05751 0.70024 0.0
H535 H 0.01869 0.06362 0.63824 0.0
H536 H 0.03819 0.02114 0.68849 0.0
C537 C 0.12078 0.09186 0.69003 0.0
C538 C 0.38125 0.09266 0.72433 0.0
C539 C 0.39963 0.05933 0.70578 0.0
H540 H 0.38365 0.13022 0.77034 0.0
C541 C 0.43418 0.03723 0.71993 0.0
H542 H 0.3549 0.11044 0.71365 0.0
C543 C 0.45046 0.04837 0.75194 0.0
C544 C 0.43299 0.08232 0.77025 0.0
H545 H 0.44895 0.01144 0.70605 0.0
H546 H 0.47707 0.03059 0.76222 0.0
C547 C 0.39812 0.10436 0.75635 0.0
C548 C 0.36127 0.37479 0.80569 0.0
C549 C 0.37246 0.40979 0.82615 0.0
H550 H 0.37667 0.33786 0.76096 0.0
C551 C 0.40662 0.43584 0.81648 0.0
H552 H 0.33534 0.35397 0.81315 0.0
C553 C 0.42973 0.42698 0.78701 0.0
C554 C 0.41974 0.39131 0.76696 0.0
H555 H 0.41588 0.46287 0.83206 0.0
H556 H 0.45612 0.44767 0.78036 0.0
C557 C 0.38518 0.36528 0.77631 0.0
C558 C 0.08382 0.37598 0.79517 0.0
C559 C 0.0421 0.3861 0.80506 0.0
H560 H 0.13848 0.39451 0.76573 0.0
C561 C 0.02417 0.42451 0.79413 0.0
H562 H 0.09854 0.34675 0.80365 0.0
C563 C 0.04689 0.45161 0.77257 0.0
C564 C 0.08814 0.44106 0.76191 0.0
H565 H 0.99221 0.43326 0.8016 0.0
H566 H 0.03179 0.48049 0.76369 0.0
C567 C 0.10683 0.40346 0.77387 0.0
C568 C 0.90146 0.86767 0.19534 0.0
C569 C 0.9063 0.90302 0.21695 0.0
H570 H 0.8749 0.84393 0.14821 0.0
C571 C 0.88214 0.93963 0.2106 0.0
H572 H 0.91999 0.83922 0.1996 0.0
C573 C 0.85536 0.94169 0.1819 0.0
C574 C 0.85306 0.90749 0.15899 0.0
H575 H 0.88527 0.96721 0.22702 0.0
H576 H 0.83902 0.9711 0.17621 0.0
C577 C 0.87553 0.87019 0.16617 0.0
C578 C 0.65546 0.89419 0.23126 0.0
C579 C 0.64519 0.88912 0.26601 0.0
H580 H 0.63624 0.88103 0.17946 0.0
C581 C 0.61507 0.85827 0.27573 0.0
H582 H 0.67802 0.91839 0.22329 0.0
C583 C 0.59189 0.8362 0.25076 0.0
C584 C 0.59809 0.8457 0.21598 0.0
H585 H 0.60646 0.85438 0.30252 0.0
H586 H 0.56567 0.81597 0.2587 0.0
C587 C 0.63155 0.87291 0.20627 0.0
C588 C 0.58216 0.66296 0.29142 0.0
C589 C 0.61519 0.6635 0.31565 0.0
H590 H 0.56028 0.63812 0.24325 0.0
C591 C 0.65442 0.64493 0.30777 0.0
H592 H 0.55137 0.67634 0.29753 0.0
C593 C 0.65982 0.62376 0.2766 0.0
C594 C 0.62545 0.61979 0.25372 0.0
H595 H 0.67984 0.64433 0.32667 0.0
H596 H 0.6895 0.60746 0.27178 0.0
C597 C 0.58712 0.64079 0.26069 0.0
C598 C 0.9271 0.61882 0.24249 0.0
C599 C 0.95263 0.59158 0.26205 0.0
H600 H 0.91423 0.64543 0.19327 0.0
C601 C 0.98642 0.57012 0.24616 0.0
H602 H 0.90104 0.63596 0.25411 0.0
C603 C 0.99387 0.57521 0.21092 0.0
C604 C 0.968 0.60233 0.1914 0.0
H605 H 0.00656 0.54886 0.26079 0.0
H606 H 0.01958 0.55788 0.19901 0.0
C607 C 0.93487 0.62435 0.20762 0.0
C608 C 0.99751 0.07691 0.37323 0.0
C609 C 0.03409 0.05111 0.37381 0.0
H610 H 0.95914 0.12197 0.40065 0.0
C611 C 0.06249 0.05477 0.40163 0.0
H612 H 0.97461 0.07435 0.35246 0.0
C613 C 0.05336 0.08167 0.42909 0.0
C614 C 0.01579 0.10559 0.42926 0.0
H615 H 0.09099 0.03561 0.40276 0.0
H616 H 0.0749 0.08265 0.4509 0.0
C617 C 0.98841 0.10394 0.40081 0.0
C618 C 0.49717 0.04321 0.42994 0.0
C619 C 0.54058 0.03291 0.43177 0.0
H620 H 0.43735 0.04456 0.4562 0.0
C621 C 0.5566 0.01377 0.46168 0.0
H622 H 0.484 0.05751 0.40693 0.0
C623 C 0.52986 0.00532 0.48936 0.0
C624 C 0.48656 0.01627 0.48791 0.0
H625 H 0.58961 0.00412 0.4633 0.0
H626 H 0.54314 0.99022 0.51198 0.0
C627 C 0.4704 0.03512 0.45784 0.0
C628 C 0.56726 0.54333 0.58909 0.0
C629 C 0.55971 0.49982 0.58362 0.0
H630 H 0.57402 0.60497 0.56638 0.0
C631 C 0.55448 0.48496 0.5499 0.0
H632 H 0.57157 0.5556 0.61487 0.0
C633 C 0.55528 0.51323 0.52228 0.0
C634 C 0.56161 0.55693 0.52778 0.0
H635 H 0.54766 0.45179 0.54496 0.0
H636 H 0.54976 0.50094 0.49666 0.0
C637 C 0.56816 0.57163 0.56143 0.0
C638 C 0.05044 0.58009 0.49776 0.0
C639 C 0.02468 0.54481 0.48931 0.0
H640 H 0.08683 0.61211 0.53677 0.0
C641 C 0.0171 0.51369 0.51438 0.0
H642 H 0.05637 0.605 0.47914 0.0
C643 C 0.03413 0.51809 0.5473 0.0
C644 C 0.05907 0.55377 0.556 0.0
H645 H 0.99807 0.48584 0.50857 0.0
H646 H 0.02802 0.49325 0.56597 0.0
C647 C 0.06766 0.58441 0.53077 0.0
C648 C 0.92091 0.41908 -0.00343 0.0
C649 C 0.91595 0.41945 0.96065 0.0
H650 H 0.94678 0.45001 0.04089 0.0
C651 C 0.93196 0.45475 0.94226 0.0
H652 H 0.90847 0.39304 0.01178 0.0
C653 C 0.95526 0.48659 0.95875 0.0
C654 C 0.96238 0.48488 -0.00568 0.0
H655 H 0.92967 0.45645 0.91454 0.0
H656 H 0.96892 0.51174 0.94327 0.0
C657 C 0.94368 0.45143 0.01319 0.0
C658 C 0.98824 0.99266 0.91446 0.0
C659 C 0.98606 0.96157 0.88856 0.0
H660 H 0.96045 0.0177 0.96036 0.0
C661 C 0.95034 0.93443 0.88739 0.0
H662 H 0.01459 0.01493 0.91559 0.0
C663 C 0.91872 0.93697 0.91261 0.0
C664 C 0.92229 0.9667 0.93927 0.0
H665 H 0.94765 0.91013 0.86785 0.0
H666 H 0.89271 0.91425 0.91237 0.0
C667 C 0.95688 0.99493 0.9397 0.0
C668 C 0.51841 0.9961 0.01401 0.0
C669 C 0.48847 0.99801 0.98736 0.0
H670 H 0.53218 0.97409 0.06467 0.0
C671 C 0.44727 0.98151 -0.00732 0.0
H672 H 0.55032 0.00854 0.0105 0.0
C673 C 0.43649 0.96245 0.02384 0.0
C674 C 0.46669 0.95957 0.0503 0.0
H675 H 0.42322 0.98357 0.97274 0.0
H676 H 0.40465 0.94975 0.02711 0.0
C677 C 0.50772 0.97679 0.04512 0.0
C678 C 0.45146 0.41597 0.05871 0.0
C679 C 0.4217 0.44833 0.05238 0.0
H680 H 0.50523 0.39545 0.0882 0.0
C681 C 0.42032 0.48321 0.07467 0.0
H682 H 0.45279 0.38839 0.04215 0.0
C683 C 0.45046 0.48726 0.10109 0.0
C684 C 0.48241 0.45644 0.10565 0.0
H685 H 0.39792 0.50869 0.07024 0.0
H686 H 0.45045 0.5159 0.11645 0.0
C687 C 0.48156 0.42003 0.08496 0.0
C688 C 0.95573 0.26232 0.68372 0.0
C689 C 0.93695 0.224 0.67295 0.0
H690 H 0.96601 0.30607 0.72484 0.0
C691 C 0.91163 0.20112 0.6963 0.0
H692 H 0.9748 0.28102 0.66611 0.0
C693 C 0.90688 0.21525 0.73016 0.0
C694 C 0.92719 0.25271 0.74139 0.0
H695 H 0.89711 0.17128 0.68888 0.0
H696 H 0.88871 0.19581 0.7478 0.0
C697 C 0.9508 0.27657 0.71745 0.0
C698 C 0.27622 0.89091 0.68889 0.0
C699 C 0.27445 0.91221 0.65716 0.0
H700 H 0.2417 0.87061 0.73339 0.0
C701 C 0.23438 0.92185 0.64304 0.0
H702 H 0.30659 0.88333 0.70052 0.0
C703 C 0.1972 0.91442 0.66176 0.0
C704 C 0.19922 0.89717 0.69501 0.0
H705 H 0.23206 0.93772 0.6184 0.0
H706 H 0.16706 0.92505 0.65135 0.0
C707 C 0.23892 0.88349 0.70768 0.0
C708 C 0.59028 0.20852 0.77323 0.0
C709 C 0.57979 0.20918 0.80827 0.0
H710 H 0.59633 0.24484 0.72677 0.0
C711 C 0.5743 0.24847 0.82466 0.0
H712 H 0.59413 0.17865 0.75992 0.0
C713 C 0.57621 0.28629 0.80583 0.0
C714 C 0.58284 0.28529 0.77018 0.0
H715 H 0.56605 0.24963 0.85164 0.0
H716 H 0.569 0.3159 0.81858 0.0
C717 C 0.59137 0.24626 0.75428 0.0
C718 C 0.19224 0.57051 0.82533 0.0
C719 C 0.20908 0.57966 0.79271 0.0
H720 H 0.20558 0.55038 0.87699 0.0
C721 C 0.25348 0.58132 0.78868 0.0
H722 H 0.15815 0.56831 0.82898 0.0
C723 C 0.28055 0.5717 0.81622 0.0
C724 C 0.26363 0.55933 0.84812 0.0
H725 H 0.26707 0.58792 0.76368 0.0
H726 H 0.31456 0.57084 0.81186 0.0
C727 C 0.21929 0.56002 0.85268 0.0
C728 C 0.04078 0.78748 0.12477 0.0
C729 C 0.06105 0.75016 0.13575 0.0
H730 H 0.02517 0.85212 0.13684 0.0
C731 C 0.08353 0.75033 0.16702 0.0
H732 H 0.02302 0.78785 0.10087 0.0
C733 C 0.08393 0.7865 0.18775 0.0
C734 C 0.06293 0.82348 0.17714 0.0
H735 H 0.09876 0.72174 0.17628 0.0
H736 H 0.09957 0.78539 0.21258 0.0
C737 C 0.0422 0.82409 0.14512 0.0
C738 C 0.78734 0.05609 0.18446 0.0
C739 C 0.7697 0.05474 0.15124 0.0
H740 H 0.77538 0.05598 0.2386 0.0
C741 C 0.72534 0.0584 0.14752 0.0
H742 H 0.82133 0.05307 0.18828 0.0
C743 C 0.69891 0.05951 0.17635 0.0
C744 C 0.7163 0.05691 0.20962 0.0
H745 H 0.71095 0.05759 0.1222 0.0
H746 H 0.66481 0.0594 0.1724 0.0
C747 C 0.76091 0.05711 0.21333 0.0
C748 C 0.44774 0.76719 0.33456 0.0
C749 C 0.45256 0.7233 0.32947 0.0
H750 H 0.44029 0.82822 0.3114 0.0
C751 C 0.44583 0.70674 0.29638 0.0
H752 H 0.45222 0.78077 0.35987 0.0
C753 C 0.43855 0.73393 0.26854 0.0
C754 C 0.43805 0.77824 0.27312 0.0
H755 H 0.44938 0.67316 0.29145 0.0
H756 H 0.4357 0.72036 0.24309 0.0
C757 C 0.44062 0.79439 0.30673 0.0
C758 C 0.77229 0.45574 0.25555 0.0
C759 C 0.73433 0.46439 0.27325 0.0
H760 H 0.84052 0.45268 0.25794 0.0
C761 C 0.7364 0.47299 0.30864 0.0
H762 H 0.77151 0.44907 0.22826 0.0
C763 C 0.7758 0.47558 0.32544 0.0
C764 C 0.81385 0.46875 0.30742 0.0
H765 H 0.7078 0.4803 0.32285 0.0
H766 H 0.77676 0.48456 0.35229 0.0
C767 C 0.81166 0.45748 0.27254 0.0
C768 C 0.26364 0.0989 0.51508 0.0
C769 C 0.27058 0.07476 0.54491 0.0
H770 H 0.21969 0.13607 0.48595 0.0
C771 C 0.2359 0.06514 0.56631 0.0
H772 H 0.28958 0.10625 0.49775 0.0
C773 C 0.19606 0.08278 0.55989 0.0
C774 C 0.18993 0.11016 0.53173 0.0
H775 H 0.24002 0.04621 0.58935 0.0
H776 H 0.17112 0.0771 0.57844 0.0
C777 C 0.22362 0.11624 0.50846 0.0
C778 C 0.44174 0.23041 0.57593 0.0
C779 C 0.44658 0.19659 0.59907 0.0
H780 H 0.45415 0.29582 0.56547 0.0
C781 C 0.47504 0.20072 0.62668 0.0
H782 H 0.41994 0.22756 0.55442 0.0
C783 C 0.4943 0.23996 0.63341 0.0
C784 C 0.48549 0.27531 0.6124 0.0
H785 H 0.47897 0.17499 0.64489 0.0
H786 H 0.5131 0.24346 0.65664 0.0
C787 C 0.4614 0.2694 0.5823 0.0
C788 C 0.30925 0.43737 0.60889 0.0
C789 C 0.33655 0.44147 0.6373 0.0
H790 H 0.24826 0.45105 0.58738 0.0
C791 C 0.32517 0.46853 0.66433 0.0
H792 H 0.31772 0.41696 0.58764 0.0
C793 C 0.28525 0.4879 0.66442 0.0
C794 C 0.25633 0.48065 0.63735 0.0
H795 H 0.34564 0.47201 0.68659 0.0
H796 H 0.27609 0.50625 0.6867 0.0
C797 C 0.26958 0.45699 0.60878 0.0
C798 C 0.03447 0.36955 0.60821 0.0
C799 C 0.07832 0.37553 0.60307 0.0
H800 H 0.98007 0.33017 0.59758 0.0
C801 C 0.09894 0.35211 0.57748 0.0
H802 H 0.01806 0.38728 0.62791 0.0
C803 C 0.07745 0.31991 0.56005 0.0
C804 C 0.0349 0.3104 0.56802 0.0
H805 H 0.13263 0.35672 0.57283 0.0
H806 H 0.09515 0.30015 0.54244 0.0
C807 C 0.01279 0.33703 0.59075 0.0
C808 C 0.1882 0.35064 0.9559 0.0
C809 C 0.20469 0.39202 0.9525 0.0
H810 H 0.13365 0.30984 0.94937 0.0
C811 C 0.17777 0.4248 0.94165 0.0
H812 H 0.20861 0.32464 0.96354 0.0
C813 C 0.13527 0.41634 0.93381 0.0
C814 C 0.11904 0.37479 0.93601 0.0
H815 H 0.18989 0.45682 0.93838 0.0
H816 H 0.1154 0.4421 0.92487 0.0
C817 C 0.14571 0.342 0.94732 0.0
C818 C 0.08863 0.1462 0.8914 0.0
C819 C 0.07065 0.12572 0.86269 0.0
H820 H 0.08362 0.19692 0.92762 0.0
C821 C 0.0292 0.13631 0.85245 0.0
H822 H 0.12016 0.13785 0.90036 0.0
C823 C 0.00811 0.17004 0.86815 0.0
C824 C 0.02806 0.19352 0.8945 0.0
H825 H 0.01449 0.12088 0.83057 0.0
H826 H 0.97753 0.1797 0.85791 0.0
C827 C 0.06746 0.1797 0.9073 0.0
C828 C 0.27735 0.01278 0.8674 0.0
C829 C 0.31703 0.01823 0.85153 0.0
H830 H 0.21215 0.99481 0.86135 0.0
C831 C 0.32297 0.00272 0.81806 0.0
H832 H 0.27227 0.02425 0.89329 0.0
C833 C 0.28858 0.98603 0.7996 0.0
C834 C 0.24781 0.98457 0.81437 0.0
H835 H 0.35316 0.00681 0.8051 0.0
H836 H 0.29336 0.97719 0.773 0.0
C837 C 0.24304 0.99587 0.84908 0.0
C838 C 0.37089 0.23145 0.95802 0.0
C839 C 0.38584 0.26817 0.94152 0.0
H840 H 0.37983 0.16513 0.96653 0.0
C841 C 0.42619 0.26813 0.92624 0.0
H842 H 0.33988 0.2312 0.97012 0.0
C843 C 0.44887 0.23033 0.92371 0.0
C844 C 0.4316 0.19244 0.9369 0.0
H845 H 0.43814 0.2962 0.9133 0.0
H846 H 0.47806 0.23003 0.90894 0.0
C847 C 0.39389 0.19384 0.9561 0.0
C848 C 0.84782 0.99372 0.33439 0.0
C849 C 0.86661 0.96785 0.35966 0.0
H850 H 0.79248 0.02776 0.31861 0.0
C851 C 0.84675 0.96412 0.39183 0.0
H852 H 0.86224 0.99761 0.30937 0.0
C853 C 0.80653 0.98151 0.39716 0.0
C854 C 0.78545 0.00269 0.37027 0.0
H855 H 0.86106 0.94538 0.41211 0.0
H856 H 0.79056 0.97496 0.42124 0.0
C857 C 0.80763 0.01104 0.33968 0.0
C858 C 0.58564 0.85879 0.4206 0.0
C859 C 0.6271 0.87095 0.43003 0.0
H860 H 0.53771 0.81063 0.42395 0.0
C861 C 0.64691 0.85023 0.45775 0.0
H862 H 0.56934 0.87448 0.39962 0.0
C863 C 0.62872 0.81369 0.47191 0.0
C864 C 0.59076 0.79719 0.45806 0.0
H865 H 0.67843 0.85983 0.4661 0.0
H866 H 0.64716 0.79568 0.49038 0.0
C867 C 0.5675 0.82214 0.43463 0.0
C868 C 0.79554 0.59889 0.4111 0.0
C869 C 0.83162 0.61941 0.42469 0.0
H870 H 0.72851 0.6014 0.40234 0.0
C871 C 0.82643 0.65643 0.44422 0.0
H872 H 0.79867 0.57017 0.39607 0.0
C873 C 0.78612 0.67448 0.44768 0.0
C874 C 0.75044 0.65548 0.43206 0.0
H875 H 0.85373 0.67297 0.45488 0.0
H876 H 0.78303 0.70418 0.46138 0.0
C877 C 0.7553 0.61666 0.41487 0.0
C878 C 0.02692 0.76 0.37718 0.0
C879 C 0.02315 0.72394 0.35624 0.0
H880 H 0.04215 0.82616 0.37923 0.0
C881 C 0.04313 0.72381 0.32399 0.0
H882 H 0.0118 0.76059 0.40216 0.0
C883 C 0.0611 0.76132 0.31098 0.0
C884 C 0.05906 0.79894 0.3302 0.0
H885 H 0.04025 0.69646 0.30732 0.0
H886 H 0.07142 0.76215 0.28443 0.0
C887 C 0.04451 0.79735 0.36418 0.0
C888 C 0.80272 0.50467 0.12465 0.0
C889 C 0.81868 0.5357 0.10208 0.0
H890 H 0.74772 0.47701 0.14806 0.0
C891 C 0.79012 0.56079 0.08322 0.0
H892 H 0.82406 0.48513 0.13969 0.0
C893 C 0.7462 0.55558 0.08755 0.0
C894 C 0.73044 0.52575 0.11128 0.0
H895 H 0.80183 0.58458 0.06544 0.0
H896 H 0.72475 0.57637 0.07372 0.0
C897 C 0.75906 0.49994 0.12937 0.0
C898 C 0.85099 0.69385 0.02494 0.0
C899 C 0.89431 0.69276 0.03371 0.0
H900 H 0.7951 0.7321 0.02047 0.0
C901 C 0.91609 0.7311 0.03978 0.0
H902 H 0.83344 0.66477 0.02011 0.0
C903 C 0.8942 0.76942 0.04036 0.0
C904 C 0.85 0.77019 0.03491 0.0
H905 H 0.94966 0.73124 0.04631 0.0
H906 H 0.91153 0.79779 0.0476 0.0
C907 C 0.82899 0.73232 0.02558 0.0
C908 C 0.66997 0.9362 0.05489 0.0
C909 C 0.69351 0.9153 0.0293 0.0
H910 H 0.61812 0.93222 0.09026 0.0
C911 C 0.67614 0.87874 0.014 0.0
H912 H 0.68217 0.96482 0.06686 0.0
C913 C 0.63943 0.86007 0.02753 0.0
C914 C 0.61935 0.8778 0.05632 0.0
H915 H 0.69309 0.86209 -0.00603 0.0
H916 H 0.62869 0.82994 0.01726 0.0
C917 C 0.63314 0.91757 0.06831 0.0
C918 C 0.50526 0.66037 0.13572 0.0
C919 C 0.53631 0.6511 0.11104 0.0
H920 H 0.45957 0.70554 0.15299 0.0
C921 C 0.53676 0.67376 0.08002 0.0
H922 H 0.5042 0.6431 0.15979 0.0
C923 C 0.51076 0.70911 0.07579 0.0
C924 C 0.48503 0.72281 0.10308 0.0
H925 H 0.56012 0.66652 0.0605 0.0
H926 H 0.51513 0.72852 0.05306 0.0
C927 C 0.47971 0.69614 0.13178 0.0
loop_
_geom_bond_atom_site_label_1
_geom_bond_atom_site_label_2
_geom_bond_distance
_geom_bond_site_symmetry_2
_ccdc_geom_bond_type
Co0 N4 2.148 . S
Co0 N10 2.128 1_455 S
Co0 N20 2.194 1_455 S
Co0 O25 2.351 1_455 S
Co0 O26 2.155 . S
Co0 O27 2.096 . S
C1 N4 1.301 . S
C1 N5 1.328 . S
C1 H6 0.930 . S
C2 C3 1.333 . S
C2 N4 1.317 . S
C2 H7 0.930 . S
C3 C2 1.333 . S
C3 N5 1.350 . S
C3 H29 0.931 . S
N4 Co0 2.148 . S
N4 C1 1.301 . S
N4 C2 1.317 . S
N5 C1 1.328 . S
N5 C3 1.350 . S
H6 C1 0.930 . S
H7 C2 0.930 . S
C8 O9 1.224 . S
C8 O27 1.247 . S
O9 C8 1.224 . S
N10 Co0 2.128 1_655 S
N10 C11 1.355 . S
N10 C13 1.311 . S
C11 N10 1.355 . S
C11 C12 1.363 . S
C11 H23 0.929 . S
C12 C11 1.363 . S
C12 N14 1.375 . S
C12 H30 0.931 . S
C13 N10 1.311 . S
C13 N14 1.347 . S
C13 H24 0.929 . S
N14 C12 1.375 . S
N14 C13 1.347 . S
C15 C18 1.365 . S
C15 N20 1.328 . S
C15 H21 0.929 . S
C16 C17 1.362 . S
C16 C19 1.378 . S
C16 H31 0.929 . S
C17 C16 1.362 . S
C17 C18 1.366 . S
C18 C15 1.365 . S
C18 C17 1.366 . S
C18 H32 0.930 . S
C19 C16 1.378 . S
C19 N20 1.315 . S
C19 H22 0.930 . S
N20 Co0 2.194 1_655 S
N20 C15 1.328 . S
N20 C19 1.315 . S
H21 C15 0.929 . S
H22 C19 0.930 . S
H23 C11 0.929 . S
H24 C13 0.929 . S
O25 Co0 2.351 1_655 S
O25 C28 1.244 1_655 S
O26 Co0 2.155 . S
O26 C28 1.240 . S
O27 Co0 2.096 . S
O27 C8 1.247 . S
C28 O25 1.244 1_455 S
C28 O26 1.240 . S
H29 C3 0.931 . S
H30 C12 0.931 . S
H31 C16 0.929 . S
H32 C18 0.930 . S
Co33 N37 2.148 . S
Co33 N43 2.128 1_545 S
Co33 N53 2.194 1_545 S
Co33 O58 2.351 1_545 S
Co33 O59 2.155 . S
Co33 O60 2.096 . S
C34 N37 1.301 . S
C34 N38 1.328 . S
C34 H39 0.930 . S
C35 C36 1.333 . S
C35 N37 1.317 . S
C35 H40 0.930 . S
C36 C35 1.333 . S
C36 N38 1.350 . S
C36 H62 0.931 . S
N37 Co33 2.148 . S
N37 C34 1.301 . S
N37 C35 1.317 . S
N38 C34 1.328 . S
N38 C36 1.350 . S
H39 C34 0.930 . S
H40 C35 0.930 . S
C41 O42 1.224 . S
C41 O60 1.247 . S
O42 C41 1.224 . S
N43 Co33 2.128 1_565 S
N43 C44 1.355 . S
N43 C46 1.311 . S
C44 N43 1.355 . S
C44 C45 1.363 . S
C44 H56 0.929 . S
C45 C44 1.363 . S
C45 N47 1.375 . S
C45 H63 0.931 . S
C46 N43 1.311 . S
C46 N47 1.347 . S
C46 H57 0.929 . S
N47 C45 1.375 . S
N47 C46 1.347 . S
C48 C51 1.365 . S
C48 N53 1.328 . S
C48 H54 0.929 . S
C49 C50 1.362 . S
C49 C52 1.378 . S
C49 H64 0.929 . S
C50 C49 1.362 . S
C50 C51 1.366 . S
C51 C48 1.365 . S
C51 C50 1.366 . S
C51 H65 0.930 . S
C52 C49 1.378 . S
C52 N53 1.315 . S
C52 H55 0.930 . S
N53 Co33 2.194 1_565 S
N53 C48 1.328 . S
N53 C52 1.315 . S
H54 C48 0.929 . S
H55 C52 0.930 . S
H56 C44 0.929 . S
H57 C46 0.929 . S
O58 Co33 2.351 1_565 S
O58 C61 1.244 1_565 S
O59 Co33 2.155 . S
O59 C61 1.240 . S
O60 Co33 2.096 . S
O60 C41 1.247 . S
C61 O58 1.244 1_545 S
C61 O59 1.240 . S
H62 C36 0.931 . S
H63 C45 0.931 . S
H64 C49 0.929 . S
H65 C51 0.930 . S
Co66 N70 2.148 . S
Co66 N76 2.128 . S
Co66 N86 2.194 . S
Co66 O91 2.351 . S
Co66 O92 2.155 . S
Co66 O93 2.096 . S
C67 N70 1.301 . S
C67 N71 1.328 . S
C67 H72 0.930 . S
C68 C69 1.333 . S
C68 N70 1.317 . S
C68 H73 0.930 . S
C69 C68 1.333 . S
C69 N71 1.350 . S
C69 H95 0.931 . S
N70 Co66 2.148 . S
N70 C67 1.301 . S
N70 C68 1.317 . S
N71 C67 1.328 . S
N71 C69 1.350 . S
H72 C67 0.930 . S
H73 C68 0.930 . S
C74 O75 1.224 . S
C74 O93 1.247 . S
O75 C74 1.224 . S
N76 Co66 2.128 . S
N76 C77 1.355 . S
N76 C79 1.311 . S
C77 N76 1.355 . S
C77 C78 1.363 . S
C77 H89 0.929 . S
C78 C77 1.363 . S
C78 N80 1.375 . S
C78 H96 0.931 . S
C79 N76 1.311 . S
C79 N80 1.347 . S
C79 H90 0.929 . S
N80 C78 1.375 . S
N80 C79 1.347 . S
C81 C84 1.365 . S
C81 N86 1.328 . S
C81 H87 0.929 . S
C82 C83 1.362 . S
C82 C85 1.378 . S
C82 H97 0.929 . S
C83 C82 1.362 . S
C83 C84 1.366 . S
C84 C81 1.365 . S
C84 C83 1.366 . S
C84 H98 0.930 . S
C85 C82 1.378 . S
C85 N86 1.315 . S
C85 H88 0.930 . S
N86 Co66 2.194 . S
N86 C81 1.328 . S
N86 C85 1.315 . S
H87 C81 0.929 . S
H88 C85 0.930 . S
H89 C77 0.929 . S
H90 C79 0.929 . S
O91 Co66 2.351 . S
O91 C94 1.244 . S
O92 Co66 2.155 . S
O92 C94 1.240 . S
O93 Co66 2.096 . S
O93 C74 1.247 . S
C94 O91 1.244 . S
C94 O92 1.240 . S
H95 C69 0.931 . S
H96 C78 0.931 . S
H97 C82 0.929 . S
H98 C84 0.930 . S
Co99 N103 2.148 . S
Co99 N109 2.128 . S
Co99 N119 2.194 . S
Co99 O124 2.351 . S
Co99 O125 2.155 . S
Co99 O126 2.096 . S
C100 N103 1.301 . S
C100 N104 1.328 . S
C100 H105 0.930 . S
C101 C102 1.333 . S
C101 N103 1.317 . S
C101 H106 0.930 . S
C102 C101 1.333 . S
C102 N104 1.350 . S
C102 H128 0.931 . S
N103 Co99 2.148 . S
N103 C100 1.301 . S
N103 C101 1.317 . S
N104 C100 1.328 . S
N104 C102 1.350 . S
H105 C100 0.930 . S
H106 C101 0.930 . S
C107 O108 1.224 . S
C107 O126 1.247 . S
O108 C107 1.224 . S
N109 Co99 2.128 . S
N109 C110 1.355 . S
N109 C112 1.311 . S
C110 N109 1.355 . S
C110 C111 1.363 . S
C110 H122 0.929 . S
C111 C110 1.363 . S
C111 N113 1.375 . S
C111 H129 0.931 . S
C112 N109 1.311 . S
C112 N113 1.347 . S
C112 H123 0.929 . S
N113 C111 1.375 . S
N113 C112 1.347 . S
C114 C117 1.365 . S
C114 N119 1.328 . S
C114 H120 0.929 . S
C115 C116 1.362 . S
C115 C118 1.378 . S
C115 H130 0.929 . S
C116 C115 1.362 . S
C116 C117 1.366 . S
C117 C114 1.365 . S
C117 C116 1.366 . S
C117 H131 0.930 . S
C118 C115 1.378 . S
C118 N119 1.315 . S
C118 H121 0.930 . S
N119 Co99 2.194 . S
N119 C114 1.328 . S
N119 C118 1.315 . S
H120 C114 0.929 . S
H121 C118 0.930 . S
H122 C110 0.929 . S
H123 C112 0.929 . S
O124 Co99 2.351 . S
O124 C127 1.244 . S
O125 Co99 2.155 . S
O125 C127 1.240 . S
O126 Co99 2.096 . S
O126 C107 1.247 . S
C127 O124 1.244 . S
C127 O125 1.240 . S
H128 C102 0.931 . S
H129 C111 0.931 . S
H130 C115 0.929 . S
H131 C117 0.930 . S
Co132 N136 2.148 . S
Co132 N142 2.128 1_455 S
Co132 N152 2.194 1_455 S
Co132 O157 2.351 1_455 S
Co132 O158 2.155 . S
Co132 O159 2.096 . S
C133 N136 1.301 . S
C133 N137 1.328 . S
C133 H138 0.930 . S
C134 C135 1.333 . S
C134 N136 1.317 . S
C134 H139 0.930 . S
C135 C134 1.333 . S
C135 N137 1.350 . S
C135 H161 0.931 . S
N136 Co132 2.148 . S
N136 C133 1.301 . S
N136 C134 1.317 . S
N137 C133 1.328 . S
N137 C135 1.350 . S
H138 C133 0.930 . S
H139 C134 0.930 . S
C140 O141 1.224 . S
C140 O159 1.247 . S
O141 C140 1.224 . S
N142 Co132 2.128 1_655 S
N142 C143 1.355 . S
N142 C145 1.311 . S
C143 N142 1.355 . S
C143 C144 1.363 . S
C143 H155 0.929 . S
C144 C143 1.363 . S
C144 N146 1.375 . S
C144 H162 0.931 . S
C145 N142 1.311 . S
C145 N146 1.347 . S
C145 H156 0.929 . S
N146 C144 1.375 . S
N146 C145 1.347 . S
C147 C150 1.365 . S
C147 N152 1.328 . S
C147 H153 0.929 . S
C148 C149 1.362 . S
C148 C151 1.378 . S
C148 H163 0.929 . S
C149 C148 1.362 . S
C149 C150 1.366 . S
C150 C147 1.365 . S
C150 C149 1.366 . S
C150 H164 0.930 . S
C151 C148 1.378 . S
C151 N152 1.315 . S
C151 H154 0.930 . S
N152 Co132 2.194 1_655 S
N152 C147 1.328 . S
N152 C151 1.315 . S
H153 C147 0.929 . S
H154 C151 0.930 . S
H155 C143 0.929 . S
H156 C145 0.929 . S
O157 Co132 2.351 1_655 S
O157 C160 1.244 1_655 S
O158 Co132 2.155 . S
O158 C160 1.240 . S
O159 Co132 2.096 . S
O159 C140 1.247 . S
C160 O157 1.244 1_455 S
C160 O158 1.240 . S
H161 C135 0.931 . S
H162 C144 0.931 . S
H163 C148 0.929 . S
H164 C150 0.930 . S
Co165 N169 2.148 . S
Co165 N175 2.128 1_545 S
Co165 N185 2.194 1_545 S
Co165 O190 2.351 1_545 S
Co165 O191 2.155 . S
Co165 O192 2.096 . S
C166 N169 1.301 . S
C166 N170 1.328 . S
C166 H171 0.930 . S
C167 C168 1.333 . S
C167 N169 1.317 . S
C167 H172 0.930 . S
C168 C167 1.333 . S
C168 N170 1.350 . S
C168 H194 0.931 . S
N169 Co165 2.148 . S
N169 C166 1.301 . S
N169 C167 1.317 . S
N170 C166 1.328 . S
N170 C168 1.350 . S
H171 C166 0.930 . S
H172 C167 0.930 . S
C173 O174 1.224 . S
C173 O192 1.247 . S
O174 C173 1.224 . S
N175 Co165 2.128 1_565 S
N175 C176 1.355 . S
N175 C178 1.311 . S
C176 N175 1.355 . S
C176 C177 1.363 . S
C176 H188 0.929 . S
C177 C176 1.363 . S
C177 N179 1.375 . S
C177 H195 0.931 . S
C178 N175 1.311 . S
C178 N179 1.347 . S
C178 H189 0.929 . S
N179 C177 1.375 . S
N179 C178 1.347 . S
C180 C183 1.365 . S
C180 N185 1.328 . S
C180 H186 0.929 . S
C181 C182 1.362 . S
C181 C184 1.378 . S
C181 H196 0.929 . S
C182 C181 1.362 . S
C182 C183 1.366 . S
C183 C180 1.365 . S
C183 C182 1.366 . S
C183 H197 0.930 . S
C184 C181 1.378 . S
C184 N185 1.315 . S
C184 H187 0.930 . S
N185 Co165 2.194 1_565 S
N185 C180 1.328 . S
N185 C184 1.315 . S
H186 C180 0.929 . S
H187 C184 0.930 . S
H188 C176 0.929 . S
H189 C178 0.929 . S
O190 Co165 2.351 1_565 S
O190 C193 1.244 1_565 S
O191 Co165 2.155 . S
O191 C193 1.240 . S
O192 Co165 2.096 . S
O192 C173 1.247 . S
C193 O190 1.244 1_545 S
C193 O191 1.240 . S
H194 C168 0.931 . S
H195 C177 0.931 . S
H196 C181 0.929 . S
H197 C183 0.930 . S
Co198 N202 2.148 . S
Co198 N208 2.128 . S
Co198 N218 2.194 . S
Co198 O223 2.351 . S
Co198 O224 2.155 . S
Co198 O225 2.096 . S
C199 N202 1.301 . S
C199 N203 1.328 . S
C199 H204 0.930 . S
C200 C201 1.333 . S
C200 N202 1.317 . S
C200 H205 0.930 . S
C201 C200 1.333 . S
C201 N203 1.350 . S
C201 H227 0.931 . S
N202 Co198 2.148 . S
N202 C199 1.301 . S
N202 C200 1.317 . S
N203 C199 1.328 . S
N203 C201 1.350 . S
H204 C199 0.930 . S
H205 C200 0.930 . S
C206 O207 1.224 . S
C206 O225 1.247 . S
O207 C206 1.224 . S
N208 Co198 2.128 . S
N208 C209 1.355 . S
N208 C211 1.311 . S
C209 N208 1.355 . S
C209 C210 1.363 . S
C209 H221 0.929 . S
C210 C209 1.363 . S
C210 N212 1.375 . S
C210 H228 0.931 . S
C211 N208 1.311 . S
C211 N212 1.347 . S
C211 H222 0.929 . S
N212 C210 1.375 . S
N212 C211 1.347 . S
C213 C216 1.365 . S
C213 N218 1.328 . S
C213 H219 0.929 . S
C214 C215 1.362 . S
C214 C217 1.378 . S
C214 H229 0.929 . S
C215 C214 1.362 . S
C215 C216 1.366 . S
C216 C213 1.365 . S
C216 C215 1.366 . S
C216 H230 0.930 . S
C217 C214 1.378 . S
C217 N218 1.315 . S
C217 H220 0.930 . S
N218 Co198 2.194 . S
N218 C213 1.328 . S
N218 C217 1.315 . S
H219 C213 0.929 . S
H220 C217 0.930 . S
H221 C209 0.929 . S
H222 C211 0.929 . S
O223 Co198 2.351 . S
O223 C226 1.244 . S
O224 Co198 2.155 . S
O224 C226 1.240 . S
O225 Co198 2.096 . S
O225 C206 1.247 . S
C226 O223 1.244 . S
C226 O224 1.240 . S
H227 C201 0.931 . S
H228 C210 0.931 . S
H229 C214 0.929 . S
H230 C216 0.930 . S
Co231 N235 2.148 . S
Co231 N241 2.128 . S
Co231 N251 2.194 . S
Co231 O256 2.351 . S
Co231 O257 2.155 . S
Co231 O258 2.096 . S
C232 N235 1.301 . S
C232 N236 1.328 . S
C232 H237 0.930 . S
C233 C234 1.333 . S
C233 N235 1.317 . S
C233 H238 0.930 . S
C234 C233 1.333 . S
C234 N236 1.350 . S
C234 H260 0.931 . S
N235 Co231 2.148 . S
N235 C232 1.301 . S
N235 C233 1.317 . S
N236 C232 1.328 . S
N236 C234 1.350 . S
H237 C232 0.930 . S
H238 C233 0.930 . S
C239 O240 1.224 . S
C239 O258 1.247 . S
O240 C239 1.224 . S
N241 Co231 2.128 . S
N241 C242 1.355 . S
N241 C244 1.311 . S
C242 N241 1.355 . S
C242 C243 1.363 . S
C242 H254 0.929 . S
C243 C242 1.363 . S
C243 N245 1.375 . S
C243 H261 0.931 . S
C244 N241 1.311 . S
C244 N245 1.347 . S
C244 H255 0.929 . S
N245 C243 1.375 . S
N245 C244 1.347 . S
C246 C249 1.365 . S
C246 N251 1.328 . S
C246 H252 0.929 . S
C247 C248 1.362 . S
C247 C250 1.378 . S
C247 H262 0.929 . S
C248 C247 1.362 . S
C248 C249 1.366 . S
C249 C246 1.365 . S
C249 C248 1.366 . S
C249 H263 0.930 . S
C250 C247 1.378 . S
C250 N251 1.315 . S
C250 H253 0.930 . S
N251 Co231 2.194 . S
N251 C246 1.328 . S
N251 C250 1.315 . S
H252 C246 0.929 . S
H253 C250 0.930 . S
H254 C242 0.929 . S
H255 C244 0.929 . S
O256 Co231 2.351 . S
O256 C259 1.244 . S
O257 Co231 2.155 . S
O257 C259 1.240 . S
O258 Co231 2.096 . S
O258 C239 1.247 . S
C259 O256 1.244 . S
C259 O257 1.240 . S
H260 C234 0.931 . S
H261 C243 0.931 . S
H262 C247 0.929 . S
H263 C249 0.930 . S
Co264 N268 2.148 . S
Co264 N274 2.128 1_655 S
Co264 N284 2.194 1_655 S
Co264 O289 2.351 1_655 S
Co264 O290 2.155 . S
Co264 O291 2.096 . S
C265 N268 1.301 . S
C265 N269 1.328 . S
C265 H270 0.930 . S
C266 C267 1.333 . S
C266 N268 1.317 . S
C266 H271 0.930 . S
C267 C266 1.333 . S
C267 N269 1.350 . S
C267 H293 0.931 . S
N268 Co264 2.148 . S
N268 C265 1.301 . S
N268 C266 1.317 . S
N269 C265 1.328 . S
N269 C267 1.350 . S
H270 C265 0.930 . S
H271 C266 0.930 . S
C272 O273 1.224 . S
C272 O291 1.247 . S
O273 C272 1.224 . S
N274 Co264 2.128 1_455 S
N274 C275 1.355 . S
N274 C277 1.311 . S
C275 N274 1.355 . S
C275 C276 1.363 . S
C275 H287 0.929 . S
C276 C275 1.363 . S
C276 N278 1.375 . S
C276 H294 0.931 . S
C277 N274 1.311 . S
C277 N278 1.347 . S
C277 H288 0.929 . S
N278 C276 1.375 . S
N278 C277 1.347 . S
C279 C282 1.365 . S
C279 N284 1.328 . S
C279 H285 0.929 . S
C280 C281 1.362 . S
C280 C283 1.378 . S
C280 H295 0.929 . S
C281 C280 1.362 . S
C281 C282 1.366 . S
C282 C279 1.365 . S
C282 C281 1.366 . S
C282 H296 0.930 . S
C283 C280 1.378 . S
C283 N284 1.315 . S
C283 H286 0.930 . S
N284 Co264 2.194 1_455 S
N284 C279 1.328 . S
N284 C283 1.315 . S
H285 C279 0.929 . S
H286 C283 0.930 . S
H287 C275 0.929 . S
H288 C277 0.929 . S
O289 Co264 2.351 1_455 S
O289 C292 1.244 1_455 S
O290 Co264 2.155 . S
O290 C292 1.240 . S
O291 Co264 2.096 . S
O291 C272 1.247 . S
C292 O289 1.244 1_655 S
C292 O290 1.240 . S
H293 C267 0.931 . S
H294 C276 0.931 . S
H295 C280 0.929 . S
H296 C282 0.930 . S
Co297 N301 2.148 . S
Co297 N307 2.128 1_565 S
Co297 N317 2.194 1_565 S
Co297 O322 2.351 1_565 S
Co297 O323 2.155 . S
Co297 O324 2.096 . S
C298 N301 1.301 . S
C298 N302 1.328 . S
C298 H303 0.930 . S
C299 C300 1.333 . S
C299 N301 1.317 . S
C299 H304 0.930 . S
C300 C299 1.333 . S
C300 N302 1.350 . S
C300 H326 0.931 . S
N301 Co297 2.148 . S
N301 C298 1.301 . S
N301 C299 1.317 . S
N302 C298 1.328 . S
N302 C300 1.350 . S
H303 C298 0.930 . S
H304 C299 0.930 . S
C305 O306 1.224 . S
C305 O324 1.247 . S
O306 C305 1.224 . S
N307 Co297 2.128 1_545 S
N307 C308 1.355 . S
N307 C310 1.311 . S
C308 N307 1.355 . S
C308 C309 1.363 . S
C308 H320 0.929 . S
C309 C308 1.363 . S
C309 N311 1.375 . S
C309 H327 0.931 . S
C310 N307 1.311 . S
C310 N311 1.347 . S
C310 H321 0.929 . S
N311 C309 1.375 . S
N311 C310 1.347 . S
C312 C315 1.365 . S
C312 N317 1.328 . S
C312 H318 0.929 . S
C313 C314 1.362 . S
C313 C316 1.378 . S
C313 H328 0.929 . S
C314 C313 1.362 . S
C314 C315 1.366 . S
C315 C312 1.365 . S
C315 C314 1.366 . S
C315 H329 0.930 . S
C316 C313 1.378 . S
C316 N317 1.315 . S
C316 H319 0.930 . S
N317 Co297 2.194 1_545 S
N317 C312 1.328 . S
N317 C316 1.315 . S
H318 C312 0.929 . S
H319 C316 0.930 . S
H320 C308 0.929 . S
H321 C310 0.929 . S
O322 Co297 2.351 1_545 S
O322 C325 1.244 1_545 S
O323 Co297 2.155 . S
O323 C325 1.240 . S
O324 Co297 2.096 . S
O324 C305 1.247 . S
C325 O322 1.244 1_565 S
C325 O323 1.240 . S
H326 C300 0.931 . S
H327 C309 0.931 . S
H328 C313 0.929 . S
H329 C315 0.930 . S
Co330 N334 2.148 . S
Co330 N340 2.128 . S
Co330 N350 2.194 . S
Co330 O355 2.351 . S
Co330 O356 2.155 . S
Co330 O357 2.096 . S
C331 N334 1.301 . S
C331 N335 1.328 . S
C331 H336 0.930 . S
C332 C333 1.333 . S
C332 N334 1.317 . S
C332 H337 0.930 . S
C333 C332 1.333 . S
C333 N335 1.350 . S
C333 H359 0.931 . S
N334 Co330 2.148 . S
N334 C331 1.301 . S
N334 C332 1.317 . S
N335 C331 1.328 . S
N335 C333 1.350 . S
H336 C331 0.930 . S
H337 C332 0.930 . S
C338 O339 1.224 . S
C338 O357 1.247 . S
O339 C338 1.224 . S
N340 Co330 2.128 . S
N340 C341 1.355 . S
N340 C343 1.311 . S
C341 N340 1.355 . S
C341 C342 1.363 . S
C341 H353 0.929 . S
C342 C341 1.363 . S
C342 N344 1.375 . S
C342 H360 0.931 . S
C343 N340 1.311 . S
C343 N344 1.347 . S
C343 H354 0.929 . S
N344 C342 1.375 . S
N344 C343 1.347 . S
C345 C348 1.365 . S
C345 N350 1.328 . S
C345 H351 0.929 . S
C346 C347 1.362 . S
C346 C349 1.378 . S
C346 H361 0.929 . S
C347 C346 1.362 . S
C347 C348 1.366 . S
C348 C345 1.365 . S
C348 C347 1.366 . S
C348 H362 0.930 . S
C349 C346 1.378 . S
C349 N350 1.315 . S
C349 H352 0.930 . S
N350 Co330 2.194 . S
N350 C345 1.328 . S
N350 C349 1.315 . S
H351 C345 0.929 . S
H352 C349 0.930 . S
H353 C341 0.929 . S
H354 C343 0.929 . S
O355 Co330 2.351 . S
O355 C358 1.244 . S
O356 Co330 2.155 . S
O356 C358 1.240 . S
O357 Co330 2.096 . S
O357 C338 1.247 . S
C358 O355 1.244 . S
C358 O356 1.240 . S
H359 C333 0.931 . S
H360 C342 0.931 . S
H361 C346 0.929 . S
H362 C348 0.930 . S
Co363 N367 2.148 . S
Co363 N373 2.128 . S
Co363 N383 2.194 . S
Co363 O388 2.351 . S
Co363 O389 2.155 . S
Co363 O390 2.096 . S
C364 N367 1.301 . S
C364 N368 1.328 . S
C364 H369 0.930 . S
C365 C366 1.333 . S
C365 N367 1.317 . S
C365 H370 0.930 . S
C366 C365 1.333 . S
C366 N368 1.350 . S
C366 H392 0.931 . S
N367 Co363 2.148 . S
N367 C364 1.301 . S
N367 C365 1.317 . S
N368 C364 1.328 . S
N368 C366 1.350 . S
H369 C364 0.930 . S
H370 C365 0.930 . S
C371 O372 1.224 . S
C371 O390 1.247 . S
O372 C371 1.224 . S
N373 Co363 2.128 . S
N373 C374 1.355 . S
N373 C376 1.311 . S
C374 N373 1.355 . S
C374 C375 1.363 . S
C374 H386 0.929 . S
C375 C374 1.363 . S
C375 N377 1.375 . S
C375 H393 0.931 . S
C376 N373 1.311 . S
C376 N377 1.347 . S
C376 H387 0.929 . S
N377 C375 1.375 . S
N377 C376 1.347 . S
C378 C381 1.365 . S
C378 N383 1.328 . S
C378 H384 0.929 . S
C379 C380 1.362 . S
C379 C382 1.378 . S
C379 H394 0.929 . S
C380 C379 1.362 . S
C380 C381 1.366 . S
C381 C378 1.365 . S
C381 C380 1.366 . S
C381 H395 0.930 . S
C382 C379 1.378 . S
C382 N383 1.315 . S
C382 H385 0.930 . S
N383 Co363 2.194 . S
N383 C378 1.328 . S
N383 C382 1.315 . S
H384 C378 0.929 . S
H385 C382 0.930 . S
H386 C374 0.929 . S
H387 C376 0.929 . S
O388 Co363 2.351 . S
O388 C391 1.244 . S
O389 Co363 2.155 . S
O389 C391 1.240 . S
O390 Co363 2.096 . S
O390 C371 1.247 . S
C391 O388 1.244 . S
C391 O389 1.240 . S
H392 C366 0.931 . S
H393 C375 0.931 . S
H394 C379 0.929 . S
H395 C381 0.930 . S
Co396 N400 2.148 . S
Co396 N406 2.128 1_655 S
Co396 N416 2.194 1_655 S
Co396 O421 2.351 1_655 S
Co396 O422 2.155 . S
Co396 O423 2.096 . S
C397 N400 1.301 . S
C397 N401 1.328 . S
C397 H402 0.930 . S
C398 C399 1.333 . S
C398 N400 1.317 . S
C398 H403 0.930 . S
C399 C398 1.333 . S
C399 N401 1.350 . S
C399 H425 0.931 . S
N400 Co396 2.148 . S
N400 C397 1.301 . S
N400 C398 1.317 . S
N401 C397 1.328 . S
N401 C399 1.350 . S
H402 C397 0.930 . S
H403 C398 0.930 . S
C404 O405 1.224 . S
C404 O423 1.247 . S
O405 C404 1.224 . S
N406 Co396 2.128 1_455 S
N406 C407 1.355 . S
N406 C409 1.311 . S
C407 N406 1.355 . S
C407 C408 1.363 . S
C407 H419 0.929 . S
C408 C407 1.363 . S
C408 N410 1.375 . S
C408 H426 0.931 . S
C409 N406 1.311 . S
C409 N410 1.347 . S
C409 H420 0.929 . S
N410 C408 1.375 . S
N410 C409 1.347 . S
C411 C414 1.365 . S
C411 N416 1.328 . S
C411 H417 0.929 . S
C412 C413 1.362 . S
C412 C415 1.378 . S
C412 H427 0.929 . S
C413 C412 1.362 . S
C413 C414 1.366 . S
C414 C411 1.365 . S
C414 C413 1.366 . S
C414 H428 0.930 . S
C415 C412 1.378 . S
C415 N416 1.315 . S
C415 H418 0.930 . S
N416 Co396 2.194 1_455 S
N416 C411 1.328 . S
N416 C415 1.315 . S
H417 C411 0.929 . S
H418 C415 0.930 . S
H419 C407 0.929 . S
H420 C409 0.929 . S
O421 Co396 2.351 1_455 S
O421 C424 1.244 1_455 S
O422 Co396 2.155 . S
O422 C424 1.240 . S
O423 Co396 2.096 . S
O423 C404 1.247 . S
C424 O421 1.244 1_655 S
C424 O422 1.240 . S
H425 C399 0.931 . S
H426 C408 0.931 . S
H427 C412 0.929 . S
H428 C414 0.930 . S
Co429 N433 2.148 . S
Co429 N439 2.128 1_565 S
Co429 N449 2.194 1_565 S
Co429 O454 2.351 1_565 S
Co429 O455 2.155 . S
Co429 O456 2.096 . S
C430 N433 1.301 . S
C430 N434 1.328 . S
C430 H435 0.930 . S
C431 C432 1.333 . S
C431 N433 1.317 . S
C431 H436 0.930 . S
C432 C431 1.333 . S
C432 N434 1.350 . S
C432 H458 0.931 . S
N433 Co429 2.148 . S
N433 C430 1.301 . S
N433 C431 1.317 . S
N434 C430 1.328 . S
N434 C432 1.350 . S
H435 C430 0.930 . S
H436 C431 0.930 . S
C437 O438 1.224 . S
C437 O456 1.247 . S
O438 C437 1.224 . S
N439 Co429 2.128 1_545 S
N439 C440 1.355 . S
N439 C442 1.311 . S
C440 N439 1.355 . S
C440 C441 1.363 . S
C440 H452 0.929 . S
C441 C440 1.363 . S
C441 N443 1.375 . S
C441 H459 0.931 . S
C442 N439 1.311 . S
C442 N443 1.347 . S
C442 H453 0.929 . S
N443 C441 1.375 . S
N443 C442 1.347 . S
C444 C447 1.365 . S
C444 N449 1.328 . S
C444 H450 0.929 . S
C445 C446 1.362 . S
C445 C448 1.378 . S
C445 H460 0.929 . S
C446 C445 1.362 . S
C446 C447 1.366 . S
C447 C444 1.365 . S
C447 C446 1.366 . S
C447 H461 0.930 . S
C448 C445 1.378 . S
C448 N449 1.315 . S
C448 H451 0.930 . S
N449 Co429 2.194 1_545 S
N449 C444 1.328 . S
N449 C448 1.315 . S
H450 C444 0.929 . S
H451 C448 0.930 . S
H452 C440 0.929 . S
H453 C442 0.929 . S
O454 Co429 2.351 1_545 S
O454 C457 1.244 1_545 S
O455 Co429 2.155 . S
O455 C457 1.240 . S
O456 Co429 2.096 . S
O456 C437 1.247 . S
C457 O454 1.244 1_565 S
C457 O455 1.240 . S
H458 C432 0.931 . S
H459 C441 0.931 . S
H460 C445 0.929 . S
H461 C447 0.930 . S
Co462 N466 2.148 . S
Co462 N472 2.128 . S
Co462 N482 2.194 . S
Co462 O487 2.351 . S
Co462 O488 2.155 . S
Co462 O489 2.096 . S
C463 N466 1.301 . S
C463 N467 1.328 . S
C463 H468 0.930 . S
C464 C465 1.333 . S
C464 N466 1.317 . S
C464 H469 0.930 . S
C465 C464 1.333 . S
C465 N467 1.350 . S
C465 H491 0.931 . S
N466 Co462 2.148 . S
N466 C463 1.301 . S
N466 C464 1.317 . S
N467 C463 1.328 . S
N467 C465 1.350 . S
H468 C463 0.930 . S
H469 C464 0.930 . S
C470 O471 1.224 . S
C470 O489 1.247 . S
O471 C470 1.224 . S
N472 Co462 2.128 . S
N472 C473 1.355 . S
N472 C475 1.311 . S
C473 N472 1.355 . S
C473 C474 1.363 . S
C473 H485 0.929 . S
C474 C473 1.363 . S
C474 N476 1.375 . S
C474 H492 0.931 . S
C475 N472 1.311 . S
C475 N476 1.347 . S
C475 H486 0.929 . S
N476 C474 1.375 . S
N476 C475 1.347 . S
C477 C480 1.365 . S
C477 N482 1.328 . S
C477 H483 0.929 . S
C478 C479 1.362 . S
C478 C481 1.378 . S
C478 H493 0.929 . S
C479 C478 1.362 . S
C479 C480 1.366 . S
C480 C477 1.365 . S
C480 C479 1.366 . S
C480 H494 0.930 . S
C481 C478 1.378 . S
C481 N482 1.315 . S
C481 H484 0.930 . S
N482 Co462 2.194 . S
N482 C477 1.328 . S
N482 C481 1.315 . S
H483 C477 0.929 . S
H484 C481 0.930 . S
H485 C473 0.929 . S
H486 C475 0.929 . S
O487 Co462 2.351 . S
O487 C490 1.244 . S
O488 Co462 2.155 . S
O488 C490 1.240 . S
O489 Co462 2.096 . S
O489 C470 1.247 . S
C490 O487 1.244 . S
C490 O488 1.240 . S
H491 C465 0.931 . S
H492 C474 0.931 . S
H493 C478 0.929 . S
H494 C480 0.930 . S
Co495 N499 2.148 . S
Co495 N505 2.128 . S
Co495 N515 2.194 . S
Co495 O520 2.351 . S
Co495 O521 2.155 . S
Co495 O522 2.096 . S
C496 N499 1.301 . S
C496 N500 1.328 . S
C496 H501 0.930 . S
C497 C498 1.333 . S
C497 N499 1.317 . S
C497 H502 0.930 . S
C498 C497 1.333 . S
C498 N500 1.350 . S
C498 H524 0.931 . S
N499 Co495 2.148 . S
N499 C496 1.301 . S
N499 C497 1.317 . S
N500 C496 1.328 . S
N500 C498 1.350 . S
H501 C496 0.930 . S
H502 C497 0.930 . S
C503 O504 1.224 . S
C503 O522 1.247 . S
O504 C503 1.224 . S
N505 Co495 2.128 . S
N505 C506 1.355 . S
N505 C508 1.311 . S
C506 N505 1.355 . S
C506 C507 1.363 . S
C506 H518 0.929 . S
C507 C506 1.363 . S
C507 N509 1.375 . S
C507 H525 0.931 . S
C508 N505 1.311 . S
C508 N509 1.347 . S
C508 H519 0.929 . S
N509 C507 1.375 . S
N509 C508 1.347 . S
C510 C513 1.365 . S
C510 N515 1.328 . S
C510 H516 0.929 . S
C511 C512 1.362 . S
C511 C514 1.378 . S
C511 H526 0.929 . S
C512 C511 1.362 . S
C512 C513 1.366 . S
C513 C510 1.365 . S
C513 C512 1.366 . S
C513 H527 0.930 . S
C514 C511 1.378 . S
C514 N515 1.315 . S
C514 H517 0.930 . S
N515 Co495 2.194 . S
N515 C510 1.328 . S
N515 C514 1.315 . S
H516 C510 0.929 . S
H517 C514 0.930 . S
H518 C506 0.929 . S
H519 C508 0.929 . S
O520 Co495 2.351 . S
O520 C523 1.244 . S
O521 Co495 2.155 . S
O521 C523 1.240 . S
O522 Co495 2.096 . S
O522 C503 1.247 . S
C523 O520 1.244 . S
C523 O521 1.240 . S
H524 C498 0.931 . S
H525 C507 0.931 . S
H526 C511 0.929 . S
H527 C513 0.930 . S
C528 C529 1.387 . S
C528 H532 0.950 . S
C528 C537 1.390 . S
C529 C528 1.387 . S
C529 C531 1.387 . S
H530 C537 0.950 1_565 S
C531 C529 1.387 . S
C531 C533 1.390 . S
C531 H535 0.950 1_455 S
H532 C528 0.950 . S
C533 C531 1.390 . S
C533 C534 1.387 . S
C533 H536 0.950 . S
C534 C533 1.387 . S
C534 C537 1.387 . S
H535 C531 0.950 1_655 S
H536 C533 0.950 . S
C537 C528 1.390 . S
C537 H530 0.950 1_545 S
C537 C534 1.387 . S
C538 C539 1.387 . S
C538 H542 0.950 . S
C538 C547 1.390 . S
C539 C538 1.387 . S
C539 C541 1.387 . S
H540 C547 0.950 . S
C541 C539 1.387 . S
C541 C543 1.390 . S
C541 H545 0.952 . S
H542 C538 0.950 . S
C543 C541 1.390 . S
C543 C544 1.387 . S
C543 H546 0.950 . S
C544 C543 1.387 . S
C544 C547 1.387 . S
H545 C541 0.952 . S
H546 C543 0.950 . S
C547 C538 1.390 . S
C547 H540 0.950 . S
C547 C544 1.387 . S
C548 C549 1.387 . S
C548 H552 0.950 . S
C548 C557 1.390 . S
C549 C548 1.387 . S
C549 C551 1.387 . S
H550 C557 0.950 . S
C551 C549 1.387 . S
C551 C553 1.390 . S
C551 H555 0.950 . S
H552 C548 0.950 . S
C553 C551 1.390 . S
C553 C554 1.387 . S
C553 H556 0.950 . S
C554 C553 1.387 . S
C554 C557 1.387 . S
H555 C551 0.950 . S
H556 C553 0.950 . S
C557 C548 1.390 . S
C557 H550 0.950 . S
C557 C554 1.387 . S
C558 C559 1.387 . S
C558 H562 0.950 . S
C558 C567 1.390 . S
C559 C558 1.387 . S
C559 C561 1.387 . S
H560 C567 0.950 . S
C561 C559 1.387 . S
C561 C563 1.390 . S
C561 H565 0.950 . S
H562 C558 0.950 . S
C563 C561 1.390 . S
C563 C564 1.387 . S
C563 H566 0.950 . S
C564 C563 1.387 . S
C564 C567 1.387 . S
H565 C561 0.950 . S
H566 C563 0.950 . S
C567 C558 1.390 . S
C567 H560 0.950 . S
C567 C564 1.387 . S
C568 C569 1.387 . S
C568 H572 0.950 1_655 S
C568 C577 1.390 . S
C569 C568 1.387 . S
C569 C571 1.387 . S
H570 C577 0.950 . S
C571 C569 1.387 . S
C571 C573 1.390 . S
C571 H575 0.950 . S
H572 C568 0.950 1_455 S
C573 C571 1.390 . S
C573 C574 1.387 . S
C573 H576 0.950 1_565 S
C574 C573 1.387 . S
C574 C577 1.387 . S
H575 C571 0.950 . S
H576 C573 0.950 1_545 S
C577 C568 1.390 . S
C577 H570 0.950 . S
C577 C574 1.387 . S
C578 C579 1.387 . S
C578 H582 0.950 1_565 S
C578 C587 1.390 . S
C579 C578 1.387 . S
C579 C581 1.387 . S
H580 C587 0.950 . S
C581 C579 1.387 . S
C581 C583 1.390 . S
C581 H585 0.950 . S
H582 C578 0.950 1_545 S
C583 C581 1.390 . S
C583 C584 1.387 . S
C583 H586 0.950 . S
C584 C583 1.387 . S
C584 C587 1.387 . S
H585 C581 0.950 . S
H586 C583 0.950 . S
C587 C578 1.390 . S
C587 H580 0.950 . S
C587 C584 1.387 . S
C588 C589 1.387 . S
C588 H592 0.950 . S
C588 C597 1.390 . S
C589 C588 1.387 . S
C589 C591 1.387 . S
H590 C597 0.950 . S
C591 C589 1.387 . S
C591 C593 1.390 . S
C591 H595 0.950 . S
H592 C588 0.950 . S
C593 C591 1.390 . S
C593 C594 1.387 . S
C593 H596 0.950 . S
C594 C593 1.387 . S
C594 C597 1.387 . S
H595 C591 0.950 . S
H596 C593 0.950 . S
C597 C588 1.390 . S
C597 H590 0.950 . S
C597 C594 1.387 . S
C598 C599 1.387 . S
C598 H602 0.950 . S
C598 C607 1.390 . S
C599 C598 1.387 . S
C599 C601 1.387 . S
H600 C607 0.950 . S
C601 C599 1.387 . S
C601 C603 1.390 . S
C601 H605 0.950 . S
H602 C598 0.950 . S
C603 C601 1.390 . S
C603 C604 1.387 . S
C603 H606 0.950 . S
C604 C603 1.387 . S
C604 C607 1.387 . S
H605 C601 0.950 . S
H606 C603 0.950 . S
C607 C598 1.390 . S
C607 H600 0.950 . S
C607 C604 1.387 . S
C608 C609 1.387 1_545 S
C608 H612 0.950 . S
C608 C617 1.390 1_455 S
C609 C608 1.387 1_565 S
C609 C611 1.387 . S
H610 C617 0.950 . S
C611 C609 1.387 . S
C611 C613 1.390 1_455 S
C611 H615 0.950 . S
H612 C608 0.950 . S
C613 C611 1.390 1_655 S
C613 C614 1.387 1_565 S
C613 H616 0.950 . S
C614 C613 1.387 1_545 S
C614 C617 1.387 . S
H615 C611 0.950 . S
H616 C613 0.950 . S
C617 C608 1.390 1_655 S
C617 H610 0.950 . S
C617 C614 1.387 . S
C618 C619 1.387 . S
C618 H622 0.950 . S
C618 C627 1.404 . S
C619 C618 1.387 . S
C619 C621 1.369 1_545 S
H620 C627 0.950 . S
C621 C619 1.369 1_565 S
C621 C623 1.408 . S
C621 H625 0.950 . S
H622 C618 0.950 . S
C623 C621 1.408 . S
C623 C624 1.387 . S
C623 H626 0.950 . S
C624 C623 1.387 . S
C624 C627 1.374 1_565 S
H625 C621 0.950 . S
H626 C623 0.950 . S
C627 C618 1.404 . S
C627 H620 0.950 . S
C627 C624 1.374 1_545 S
C628 C629 1.387 . S
C628 H632 0.950 . S
C628 C637 1.390 . S
C629 C628 1.387 . S
C629 C631 1.387 . S
H630 C637 0.950 . S
C631 C629 1.387 . S
C631 C633 1.390 . S
C631 H635 0.950 . S
H632 C628 0.950 . S
C633 C631 1.390 . S
C633 C634 1.387 . S
C633 H636 0.950 . S
C634 C633 1.387 . S
C634 C637 1.387 . S
H635 C631 0.950 . S
H636 C633 0.950 . S
C637 C628 1.390 . S
C637 H630 0.950 . S
C637 C634 1.387 . S
C638 C639 1.387 . S
C638 H642 0.950 . S
C638 C647 1.390 1_655 S
C639 C638 1.387 . S
C639 C641 1.387 . S
H640 C647 0.950 . S
C641 C639 1.387 . S
C641 C643 1.390 1_655 S
C641 H645 0.950 . S
H642 C638 0.950 . S
C643 C641 1.390 1_455 S
C643 C644 1.387 . S
C643 H646 0.950 . S
C644 C643 1.387 . S
C644 C647 1.387 . S
H645 C641 0.950 . S
H646 C643 0.950 . S
C647 C638 1.390 1_455 S
C647 H640 0.950 . S
C647 C644 1.387 . S
C648 C649 1.387 1_554 S
C648 H652 0.950 . S
C648 C657 1.390 1_655 S
C649 C648 1.387 1_556 S
C649 C651 1.387 . S
H650 C657 0.950 . S
C651 C649 1.387 . S
C651 C653 1.390 1_655 S
C651 H655 0.950 . S
H652 C648 0.950 . S
C653 C651 1.390 1_455 S
C653 C654 1.387 1_556 S
C653 H656 0.950 . S
C654 C653 1.387 1_554 S
C654 C657 1.387 . S
H655 C651 0.950 . S
H656 C653 0.950 . S
C657 C648 1.390 1_455 S
C657 H650 0.950 . S
C657 C654 1.387 . S
C658 C659 1.387 1_545 S
C658 H662 0.950 . S
C658 C667 1.390 1_455 S
C659 C658 1.387 1_565 S
C659 C661 1.387 1_556 S
H660 C667 0.950 . S
C661 C659 1.387 1_554 S
C661 C663 1.390 1_455 S
C661 H665 0.950 . S
H662 C658 0.950 . S
C663 C661 1.390 1_655 S
C663 C664 1.387 1_565 S
C663 H666 0.950 . S
C664 C663 1.387 1_545 S
C664 C667 1.387 1_554 S
H665 C661 0.950 . S
H666 C663 0.950 . S
C667 C658 1.390 1_655 S
C667 H660 0.950 . S
C667 C664 1.387 1_556 S
C668 C669 1.387 1_554 S
C668 H672 0.950 . S
C668 C677 1.390 . S
C669 C668 1.387 1_556 S
C669 C671 1.387 1_545 S
H670 C677 0.950 . S
C671 C669 1.387 1_565 S
C671 C673 1.390 . S
C671 H675 0.950 . S
H672 C668 0.950 . S
C673 C671 1.390 . S
C673 C674 1.387 1_556 S
C673 H676 0.950 . S
C674 C673 1.387 1_554 S
C674 C677 1.387 1_565 S
H675 C671 0.950 . S
H676 C673 0.950 . S
C677 C668 1.390 . S
C677 H670 0.950 . S
C677 C674 1.387 1_545 S
C678 C679 1.387 . S
C678 H682 0.950 . S
C678 C687 1.390 . S
C679 C678 1.387 . S
C679 C681 1.387 1_556 S
H680 C687 0.950 . S
C681 C679 1.387 1_554 S
C681 C683 1.390 . S
C681 H685 0.950 . S
H682 C678 0.950 . S
C683 C681 1.390 . S
C683 C684 1.387 . S
C683 H686 0.950 . S
C684 C683 1.387 . S
C684 C687 1.387 1_554 S
H685 C681 0.950 . S
H686 C683 0.950 . S
C687 C678 1.390 . S
C687 H680 0.950 . S
C687 C684 1.387 1_556 S
C688 C689 1.387 . S
C688 H692 0.950 . S
C688 C697 1.390 . S
C689 C688 1.387 . S
C689 C691 1.387 . S
H690 C697 0.950 . S
C691 C689 1.387 . S
C691 C693 1.390 . S
C691 H695 0.950 . S
H692 C688 0.950 . S
C693 C691 1.390 . S
C693 C694 1.387 . S
C693 H696 0.950 . S
C694 C693 1.387 . S
C694 C697 1.387 . S
H695 C691 0.950 . S
H696 C693 0.950 . S
C697 C688 1.390 . S
C697 H690 0.950 . S
C697 C694 1.387 . S
C698 C699 1.387 . S
C698 H702 0.950 . S
C698 C707 1.390 . S
C699 C698 1.387 . S
C699 C701 1.387 . S
H700 C707 0.950 . S
C701 C699 1.387 . S
C701 C703 1.390 . S
C701 H705 0.950 . S
H702 C698 0.950 . S
C703 C701 1.390 . S
C703 C704 1.387 . S
C703 H706 0.950 . S
C704 C703 1.387 . S
C704 C707 1.387 . S
H705 C701 0.950 . S
H706 C703 0.950 . S
C707 C698 1.390 . S
C707 H700 0.950 . S
C707 C704 1.387 . S
C708 C709 1.387 . S
C708 H712 0.950 . S
C708 C717 1.390 . S
C709 C708 1.387 . S
C709 C711 1.387 . S
H710 C717 0.950 . S
C711 C709 1.387 . S
C711 C713 1.390 . S
C711 H715 0.950 . S
H712 C708 0.950 . S
C713 C711 1.390 . S
C713 C714 1.387 . S
C713 H716 0.950 . S
C714 C713 1.387 . S
C714 C717 1.387 . S
H715 C711 0.950 . S
H716 C713 0.950 . S
C717 C708 1.390 . S
C717 H710 0.950 . S
C717 C714 1.387 . S
C718 C719 1.387 . S
C718 H722 0.950 . S
C718 C727 1.390 . S
C719 C718 1.387 . S
C719 C721 1.387 . S
H720 C727 0.950 . S
C721 C719 1.387 . S
C721 C723 1.390 . S
C721 H725 0.950 . S
H722 C718 0.950 . S
C723 C721 1.390 . S
C723 C724 1.387 . S
C723 H726 0.950 . S
C724 C723 1.387 . S
C724 C727 1.387 . S
H725 C721 0.950 . S
H726 C723 0.950 . S
C727 C718 1.390 . S
C727 H720 0.950 . S
C727 C724 1.387 . S
C728 C729 1.387 . S
C728 H732 0.950 . S
C728 C737 1.390 . S
C729 C728 1.387 . S
C729 C731 1.387 . S
H730 C737 0.950 . S
C731 C729 1.387 . S
C731 C733 1.390 . S
C731 H735 0.950 . S
H732 C728 0.950 . S
C733 C731 1.390 . S
C733 C734 1.387 . S
C733 H736 0.950 . S
C734 C733 1.387 . S
C734 C737 1.387 . S
H735 C731 0.950 . S
H736 C733 0.950 . S
C737 C728 1.390 . S
C737 H730 0.950 . S
C737 C734 1.387 . S
C738 C739 1.387 . S
C738 H742 0.950 . S
C738 C747 1.390 . S
C739 C738 1.387 . S
C739 C741 1.387 . S
H740 C747 0.950 . S
C741 C739 1.387 . S
C741 C743 1.390 . S
C741 H745 0.950 . S
H742 C738 0.950 . S
C743 C741 1.390 . S
C743 C744 1.387 . S
C743 H746 0.950 . S
C744 C743 1.387 . S
C744 C747 1.387 . S
H745 C741 0.950 . S
H746 C743 0.950 . S
C747 C738 1.390 . S
C747 H740 0.950 . S
C747 C744 1.387 . S
C748 C749 1.387 . S
C748 H752 0.950 . S
C748 C757 1.390 . S
C749 C748 1.387 . S
C749 C751 1.387 . S
H750 C757 0.950 . S
C751 C749 1.387 . S
C751 C753 1.390 . S
C751 H755 0.950 . S
H752 C748 0.950 . S
C753 C751 1.390 . S
C753 C754 1.387 . S
C753 H756 0.950 . S
C754 C753 1.387 . S
C754 C757 1.387 . S
H755 C751 0.950 . S
H756 C753 0.950 . S
C757 C748 1.390 . S
C757 H750 0.950 . S
C757 C754 1.387 . S
C758 C759 1.387 . S
C758 H762 0.950 . S
C758 C767 1.390 . S
C759 C758 1.387 . S
C759 C761 1.387 . S
H760 C767 0.950 . S
C761 C759 1.387 . S
C761 C763 1.390 . S
C761 H765 0.950 . S
H762 C758 0.950 . S
C763 C761 1.390 . S
C763 C764 1.387 . S
C763 H766 0.950 . S
C764 C763 1.387 . S
C764 C767 1.387 . S
H765 C761 0.950 . S
H766 C763 0.950 . S
C767 C758 1.390 . S
C767 H760 0.950 . S
C767 C764 1.387 . S
C768 C769 1.405 . S
C768 H772 0.931 1_545 S
C768 C777 1.391 . S
C769 C768 1.405 . S
C769 C771 1.387 . S
H770 C777 0.950 1_565 S
C771 C769 1.387 . S
C771 C773 1.390 . S
C771 H775 0.950 . S
H772 C768 0.931 1_565 S
C773 C771 1.390 . S
C773 C774 1.387 . S
C773 H776 0.950 . S
C774 C773 1.387 . S
C774 C777 1.387 . S
H775 C771 0.950 . S
H776 C773 0.950 . S
C777 C768 1.391 . S
C777 H770 0.950 1_545 S
C777 C774 1.387 . S
C778 C779 1.387 . S
C778 H782 0.950 . S
C778 C787 1.390 . S
C779 C778 1.387 . S
C779 C781 1.387 . S
H780 C787 0.950 . S
C781 C779 1.387 . S
C781 C783 1.390 . S
C781 H785 0.950 . S
H782 C778 0.950 . S
C783 C781 1.390 . S
C783 C784 1.387 . S
C783 H786 0.950 . S
C784 C783 1.387 . S
C784 C787 1.387 . S
H785 C781 0.950 . S
H786 C783 0.950 . S
C787 C778 1.390 . S
C787 H780 0.950 . S
C787 C784 1.387 . S
C788 C789 1.387 . S
C788 H792 0.950 . S
C788 C797 1.390 . S
C789 C788 1.387 . S
C789 C791 1.387 . S
H790 C797 0.950 . S
C791 C789 1.387 . S
C791 C793 1.390 . S
C791 H795 0.950 . S
H792 C788 0.950 . S
C793 C791 1.390 . S
C793 C794 1.387 . S
C793 H796 0.950 . S
C794 C793 1.387 . S
C794 C797 1.387 . S
H795 C791 0.950 . S
H796 C793 0.950 . S
C797 C788 1.390 . S
C797 H790 0.950 . S
C797 C794 1.387 . S
C798 C799 1.387 . S
C798 H802 0.950 . S
C798 C807 1.390 . S
C799 C798 1.387 . S
C799 C801 1.387 . S
H800 C807 0.950 . S
C801 C799 1.387 . S
C801 C803 1.390 . S
C801 H805 0.950 . S
H802 C798 0.950 . S
C803 C801 1.390 . S
C803 C804 1.387 . S
C803 H806 0.950 1_455 S
C804 C803 1.387 . S
C804 C807 1.387 . S
H805 C801 0.950 . S
H806 C803 0.950 1_655 S
C807 C798 1.390 . S
C807 H800 0.950 . S
C807 C804 1.387 . S
C808 C809 1.387 . S
C808 H812 0.950 . S
C808 C817 1.390 . S
C809 C808 1.387 . S
C809 C811 1.387 . S
H810 C817 0.950 . S
C811 C809 1.387 . S
C811 C813 1.390 . S
C811 H815 0.950 . S
H812 C808 0.950 . S
C813 C811 1.390 . S
C813 C814 1.387 . S
C813 H816 0.950 . S
C814 C813 1.387 . S
C814 C817 1.387 . S
H815 C811 0.950 . S
H816 C813 0.950 . S
C817 C808 1.390 . S
C817 H810 0.950 . S
C817 C814 1.387 . S
C818 C819 1.387 . S
C818 H822 0.950 1_455 S
C818 C827 1.390 . S
C819 C818 1.387 . S
C819 C821 1.387 . S
H820 C827 0.950 1_655 S
C821 C819 1.387 . S
C821 C823 1.390 . S
C821 H825 0.950 . S
H822 C818 0.950 1_655 S
C823 C821 1.390 . S
C823 C824 1.387 . S
C823 H826 0.950 . S
C824 C823 1.387 . S
C824 C827 1.387 . S
H825 C821 0.950 . S
H826 C823 0.950 . S
C827 C818 1.390 . S
C827 H820 0.950 1_455 S
C827 C824 1.387 . S
C828 C829 1.387 . S
C828 H832 0.950 . S
C828 C837 1.390 . S
C829 C828 1.387 . S
C829 C831 1.387 . S
H830 C837 0.950 . S
C831 C829 1.387 . S
C831 C833 1.391 . S
C831 H835 0.950 1_545 S
H832 C828 0.950 . S
C833 C831 1.391 . S
C833 C834 1.405 . S
C833 H836 0.932 1_545 S
C834 C833 1.405 . S
C834 C837 1.387 . S
H835 C831 0.950 1_565 S
H836 C833 0.932 1_565 S
C837 C828 1.390 . S
C837 H830 0.950 . S
C837 C834 1.387 . S
C838 C839 1.387 . S
C838 H842 0.950 . S
C838 C847 1.390 . S
C839 C838 1.387 . S
C839 C841 1.387 . S
H840 C847 0.950 . S
C841 C839 1.387 . S
C841 C843 1.390 . S
C841 H845 0.950 . S
H842 C838 0.950 . S
C843 C841 1.390 . S
C843 C844 1.387 . S
C843 H846 0.950 . S
C844 C843 1.387 . S
C844 C847 1.387 . S
H845 C841 0.950 . S
H846 C843 0.950 . S
C847 C838 1.390 . S
C847 H840 0.950 . S
C847 C844 1.387 . S
C848 C849 1.387 . S
C848 H852 0.950 . S
C848 C857 1.390 . S
C849 C848 1.387 . S
C849 C851 1.387 . S
H850 C857 0.950 . S
C851 C849 1.387 . S
C851 C853 1.391 . S
C851 H855 0.950 1_565 S
H852 C848 0.950 . S
C853 C851 1.391 . S
C853 C854 1.403 . S
C853 H856 0.934 1_565 S
C854 C853 1.403 . S
C854 C857 1.387 . S
H855 C851 0.950 1_545 S
H856 C853 0.934 1_545 S
C857 C848 1.390 . S
C857 H850 0.950 . S
C857 C854 1.387 . S
C858 C859 1.387 . S
C858 H862 0.950 . S
C858 C867 1.390 . S
C859 C858 1.387 . S
C859 C861 1.387 . S
H860 C867 0.950 . S
C861 C859 1.387 . S
C861 C863 1.390 . S
C861 H865 0.950 . S
H862 C858 0.950 . S
C863 C861 1.390 . S
C863 C864 1.387 . S
C863 H866 0.950 . S
C864 C863 1.387 . S
C864 C867 1.387 . S
H865 C861 0.950 . S
H866 C863 0.950 . S
C867 C858 1.390 . S
C867 H860 0.950 . S
C867 C864 1.387 . S
C868 C869 1.387 . S
C868 H872 0.950 . S
C868 C877 1.390 . S
C869 C868 1.387 . S
C869 C871 1.387 . S
H870 C877 0.950 . S
C871 C869 1.387 . S
C871 C873 1.390 . S
C871 H875 0.950 . S
H872 C868 0.950 . S
C873 C871 1.390 . S
C873 C874 1.387 . S
C873 H876 0.950 . S
C874 C873 1.387 . S
C874 C877 1.387 . S
H875 C871 0.950 . S
H876 C873 0.950 . S
C877 C868 1.390 . S
C877 H870 0.950 . S
C877 C874 1.387 . S
C878 C879 1.387 . S
C878 H882 0.940 1_655 S
C878 C887 1.390 . S
C879 C878 1.387 . S
C879 C881 1.387 . S
H880 C887 0.950 1_455 S
C881 C879 1.387 . S
C881 C883 1.390 . S
C881 H885 0.950 . S
H882 C878 0.940 1_455 S
C883 C881 1.390 . S
C883 C884 1.387 . S
C883 H886 0.950 . S
C884 C883 1.387 . S
C884 C887 1.387 . S
H885 C881 0.950 . S
H886 C883 0.950 . S
C887 C878 1.390 . S
C887 H880 0.950 1_655 S
C887 C884 1.387 . S
C888 C889 1.387 . S
C888 H892 0.950 . S
C888 C897 1.390 . S
C889 C888 1.387 . S
C889 C891 1.387 . S
H890 C897 0.950 . S
C891 C889 1.387 . S
C891 C893 1.390 . S
C891 H895 0.950 . S
H892 C888 0.950 . S
C893 C891 1.390 . S
C893 C894 1.387 . S
C893 H896 0.950 . S
C894 C893 1.387 . S
C894 C897 1.387 . S
H895 C891 0.950 . S
H896 C893 0.950 . S
C897 C888 1.390 . S
C897 H890 0.950 . S
C897 C894 1.387 . S
C898 C899 1.387 . S
C898 H902 0.950 1_655 S
C898 C907 1.390 . S
C899 C898 1.387 . S
C899 C901 1.387 . S
H900 C907 0.950 1_455 S
C901 C899 1.387 . S
C901 C903 1.390 . S
C901 H905 0.950 . S
H902 C898 0.950 1_455 S
C903 C901 1.390 . S
C903 C904 1.387 . S
C903 H906 0.950 . S
C904 C903 1.387 . S
C904 C907 1.387 . S
H905 C901 0.950 . S
H906 C903 0.950 . S
C907 C898 1.390 . S
C907 H900 0.950 1_655 S
C907 C904 1.387 . S
C908 C909 1.387 . S
C908 H912 0.950 . S
C908 C917 1.390 . S
C909 C908 1.387 . S
C909 C911 1.387 . S
H910 C917 0.950 . S
C911 C909 1.387 . S
C911 C913 1.390 . S
C911 H915 0.950 1_565 S
H912 C908 0.950 . S
C913 C911 1.390 . S
C913 C914 1.387 . S
C913 H916 0.950 1_565 S
C914 C913 1.387 . S
C914 C917 1.387 . S
H915 C911 0.950 1_545 S
H916 C913 0.950 1_545 S
C917 C908 1.390 . S
C917 H910 0.950 . S
C917 C914 1.387 . S
C918 C919 1.387 . S
C918 H922 0.950 . S
C918 C927 1.390 . S
C919 C918 1.387 . S
C919 C921 1.387 . S
H920 C927 0.950 . S
C921 C919 1.387 . S
C921 C923 1.390 . S
C921 H925 0.950 . S
H922 C918 0.950 . S
C923 C921 1.390 . S
C923 C924 1.387 . S
C923 H926 0.950 . S
C924 C923 1.387 . S
C924 C927 1.387 . S
H925 C921 0.950 . S
H926 C923 0.950 . S
C927 C918 1.390 . S
C927 H920 0.950 . S
C927 C924 1.387 . S
C529 C28 0.466 . S
C534 C193 0.459 . S
C539 C61 0.476 . S
C544 C226 0.479 . S
C549 C259 0.502 . S
C554 C94 0.500 . S
C559 C160 0.476 . S
C564 C127 0.480 . S
C569 C292 0.467 . S
C574 C457 0.459 . S
C579 C325 0.482 . S
C584 C490 0.476 . S
C589 C358 0.500 . S
C594 C523 0.502 . S
C599 C391 0.479 . S
C604 C424 0.483 . S
C609 C281 2.071 . S
C614 C17 2.068 . S
C619 C314 2.039 . S
C624 C50 2.036 . S
C629 C83 2.102 . S
C634 C347 2.102 . S
C639 C380 2.129 . S
C644 C116 2.129 . S
C649 C149 2.039 . S
C654 C413 2.036 . S
C659 C182 2.069 . S
C664 C446 2.066 . S
C669 C215 2.130 . S
C674 C479 2.130 . S
C679 C248 2.102 . S
C684 C512 2.102 . S
C689 N14 1.973 . S
C694 N146 1.976 . S
C699 N47 1.979 . S
C704 N179 1.975 . S
C709 N212 2.020 . S
C714 N80 2.022 . S
C719 N113 2.020 . S
C724 N245 2.022 . S
C729 N410 1.978 . S
C734 N278 1.975 . S
C739 N443 1.973 . S
C744 N311 1.976 . S
C749 N344 2.019 . S
C754 N476 2.018 . S
C759 N509 2.020 . S
C764 N377 2.018 . S
C769 C41 1.593 . S
C774 N5 1.433 . S
C779 N38 1.444 . S
C784 C74 1.594 . S
C789 N71 1.461 . S
C794 C107 1.612 . S
C799 N104 1.451 . S
C804 C8 1.603 . S
C809 C239 1.597 . S
C814 N137 1.440 . S
C819 N170 1.438 . S
C824 C140 1.590 . S
C829 N203 1.453 . S
C834 C173 1.604 . S
C839 N236 1.463 . S
C844 C206 1.613 . S
C849 N269 1.438 . S
C854 C305 1.590 . S
C859 N302 1.444 . S
C864 C338 1.594 . S
C869 C371 1.613 . S
C874 N335 1.462 . S
C879 N368 1.451 . S
C884 C272 1.603 . S
C889 N401 1.443 . S
C894 C503 1.594 . S
C899 C404 1.593 . S
C904 N434 1.433 . S
C909 C437 1.604 . S
C914 N467 1.452 . S
C919 N500 1.463 . S
C924 C470 1.613 . S
