# Generated by pormake.
# Topology qtz-e, (6)-cn, num edge types: 1
# Building blocks:
#     Node 0, Type 0, BuildingBlock: BETFAJ_clean_sbu_0, # of connection points: 6
#     Node 1, Type 0, BuildingBlock: BETFAJ_clean_sbu_0, # of connection points: 6
#     Node 2, Type 0, BuildingBlock: BETFAJ_clean_sbu_0, # of connection points: 6
#     Node 3, Type 0, BuildingBlock: BETFAJ_clean_sbu_0, # of connection points: 6
#     Node 4, Type 0, BuildingBlock: BETFAJ_clean_sbu_0, # of connection points: 6
#     Node 5, Type 0, BuildingBlock: BETFAJ_clean_sbu_0, # of connection points: 6
#     Edge 6, Type (0, 0), BuildingBlock: XUDNAN_clean_linker_2, # of connection points: 2
#     Edge 7, Type (0, 0), BuildingBlock: XUDNAN_clean_linker_2, # of connection points: 2
#     Edge 8, Type (0, 0), BuildingBlock: XUDNAN_clean_linker_2, # of connection points: 2
#     Edge 9, Type (0, 0), BuildingBlock: XUDNAN_clean_linker_2, # of connection points: 2
#     Edge 10, Type (0, 0), BuildingBlock: XUDNAN_clean_linker_2, # of connection points: 2
#     Edge 11, Type (0, 0), BuildingBlock: XUDNAN_clean_linker_2, # of connection points: 2
#     Edge 12, Type (0, 0), BuildingBlock: XUDNAN_clean_linker_2, # of connection points: 2
#     Edge 13, Type (0, 0), BuildingBlock: XUDNAN_clean_linker_2, # of connection points: 2
#     Edge 14, Type (0, 0), BuildingBlock: XUDNAN_clean_linker_2, # of connection points: 2
#     Edge 15, Type (0, 0), BuildingBlock: XUDNAN_clean_linker_2, # of connection points: 2
#     Edge 16, Type (0, 0), BuildingBlock: XUDNAN_clean_linker_2, # of connection points: 2
#     Edge 17, Type (0, 0), BuildingBlock: XUDNAN_clean_linker_2, # of connection points: 2
#     Edge 18, Type (0, 0), BuildingBlock: XUDNAN_clean_linker_2, # of connection points: 2
#     Edge 19, Type (0, 0), BuildingBlock: XUDNAN_clean_linker_2, # of connection points: 2
#     Edge 20, Type (0, 0), BuildingBlock: XUDNAN_clean_linker_2, # of connection points: 2
#     Edge 21, Type (0, 0), BuildingBlock: XUDNAN_clean_linker_2, # of connection points: 2
#     Edge 22, Type (0, 0), BuildingBlock: XUDNAN_clean_linker_2, # of connection points: 2
#     Edge 23, Type (0, 0), BuildingBlock: XUDNAN_clean_linker_2, # of connection points: 2
# Relax obj value: 0.104
# Max RMSD: 0.184
# Mean RMSD: 0.184
data_MOF--net-qtz-e--node1-BETFAJ_clean_sbu_0--edge1-XUDNAN_clean_linker_2
_symmetry_space_group_name_H-M    P1
_symmetry_Int_Tables_number       1
_symmetry_cell_setting            triclinic
loop_
_symmetry_equiv_pos_as_xyz
'x, y, z'
_cell_length_a     25.810981
_cell_length_b     25.826865
_cell_length_c     52.207858
_cell_angle_alpha  89.884381
_cell_angle_beta   90.005301
_cell_angle_gamma 119.75822
loop_
_atom_site_label
_atom_site_type_symbol
_atom_site_fract_x
_atom_site_fract_y
_atom_site_fract_z
_atom_type_partial_charge
Sm0 Sm 0.19705 0.49939 0.05249 0.0
Sm1 Sm 0.18007 0.38137 0.0363 0.0
C2 C 0.18437 0.58728 0.07139 0.0
C3 C 0.19064 0.60641 0.09822 0.0
C4 C 0.20968 0.57921 0.11632 0.0
C5 C 0.2207 0.59934 0.14154 0.0
C6 C 0.21262 0.64693 0.14924 0.0
C7 C 0.19117 0.67264 0.13134 0.0
C8 C 0.18051 0.65263 0.10589 0.0
C9 C 0.28434 0.48065 0.07153 0.0
C10 C 0.11523 0.37946 0.08828 0.0
C11 C 0.18867 0.29297 1.01443 0.0
C12 C 0.19876 0.27731 0.98802 0.0
C13 C 0.25619 0.30389 0.97699 0.0
C14 C 0.26505 0.28706 0.95249 0.0
C15 C 0.2168 0.24313 0.93831 0.0
C16 C 0.15935 0.21746 0.94926 0.0
C17 C 0.15056 0.23404 0.97373 0.0
C18 C 0.09924 0.4124 1.01682 0.0
C19 C 0.26615 0.50084 1.00202 0.0
O20 O 0.13924 0.53435 0.06661 0.0
O21 O 0.23378 0.59564 0.06075 0.0
O22 O 0.23031 0.44004 0.07024 0.0
O23 O 0.29215 0.53195 0.06447 0.0
O24 O 0.12277 0.43066 0.07928 0.0
O25 O 0.14166 0.35278 0.07712 0.0
O26 O 0.23338 0.33814 0.02582 0.0
O27 O 0.1377 0.29069 1.01891 0.0
O28 O 0.15445 0.44424 1.01797 0.0
O29 O 0.08291 0.36125 0.02755 0.0
O30 O 0.2576 0.44914 1.01069 0.0
O31 O 0.2379 0.52635 1.01246 0.0
H32 H 0.21729 0.5431 0.11076 0.0
H33 H 0.23615 0.57798 0.155 0.0
H34 H 0.1846 0.70941 0.1368 0.0
H35 H 0.16559 0.6739 0.09214 0.0
H36 H 0.29457 0.3373 0.98737 0.0
H37 H 0.31002 0.30754 0.94495 0.0
H38 H 0.12077 0.18437 0.93889 0.0
H39 H 0.10577 0.21257 0.98155 0.0
Sm40 Sm 0.7189 0.22404 0.40487 0.0
Sm41 Sm 0.80549 0.20109 0.37245 0.0
C42 C 0.63408 0.21462 0.43576 0.0
C43 C 0.63268 0.20976 0.46368 0.0
C44 C 0.68497 0.22154 0.4767 0.0
C45 C 0.68493 0.21677 0.50326 0.0
C46 C 0.63237 0.19945 0.51722 0.0
C47 C 0.57956 0.1861 0.50404 0.0
C48 C 0.57976 0.19129 0.47736 0.0
C49 C 0.83528 0.30533 0.4132 0.0
C50 C 0.76539 0.13442 0.42751 0.0
C51 C 0.8908 0.2089 0.3411 0.0
C52 C 0.91068 0.22459 0.3139 0.0
C53 C 0.93118 0.28256 0.30434 0.0
C54 C 0.94971 0.29664 0.27879 0.0
C55 C 0.94781 0.25327 0.26198 0.0
C56 C 0.92915 0.19581 0.27162 0.0
C57 C 0.91079 0.18165 0.29731 0.0
C58 C 0.68568 0.12613 0.36413 0.0
C59 C 0.75815 0.2923 0.35146 0.0
O60 O 0.63173 0.16911 0.42384 0.0
O61 O 0.67527 0.26585 0.42656 0.0
O62 O 0.81659 0.25039 0.4097 0.0
O63 O 0.79211 0.31705 0.41456 0.0
O64 O 0.7225 0.14807 0.42648 0.0
O65 O 0.8091 0.15564 0.41031 0.0
O66 O 0.89723 0.25192 0.35632 0.0
O67 O 0.84095 0.1592 0.34533 0.0
O68 O 0.7112 0.18114 0.36722 0.0
O69 O 0.72369 0.10713 0.36381 0.0
O70 O 0.80225 0.2799 0.35208 0.0
O71 O 0.71274 0.26654 0.36752 0.0
H72 H 0.726 0.23468 0.46627 0.0
H73 H 0.72595 0.22644 0.51288 0.0
H74 H 0.53854 0.17319 0.51439 0.0
H75 H 0.53892 0.18128 0.46748 0.0
H76 H 0.93262 0.31716 0.31652 0.0
H77 H 0.96534 0.34166 0.27202 0.0
H78 H 0.92717 0.16143 0.25913 0.0
H79 H 0.89603 0.13683 0.30415 0.0
Sm80 Sm 0.47438 0.68094 0.72131 0.0
Sm81 Sm 0.59163 0.78024 0.69963 0.0
C82 C 0.39319 0.57979 0.74193 0.0
C83 C 0.38067 0.56181 0.76917 0.0
C84 C 0.4186 0.54815 0.78355 0.0
C85 C 0.41403 0.54415 0.81028 0.0
C86 C 0.37216 0.55456 0.82292 0.0
C87 C 0.33152 0.5637 0.80853 0.0
C88 C 0.33527 0.5666 0.7819 0.0
C89 C 0.49319 0.79041 0.73387 0.0
C90 C 0.59916 0.7336 0.75639 0.0
C91 C 0.67476 0.87435 0.67441 0.0
C92 C 0.68625 0.89538 0.64725 0.0
C93 C 0.71072 0.87227 0.6296 0.0
C94 C 0.72301 0.89353 0.60433 0.0
C95 C 0.71147 0.93871 0.59595 0.0
C96 C 0.68615 0.96119 0.61351 0.0
C97 C 0.6739 0.93994 0.63881 0.0
C98 C 0.55561 0.66546 0.68325 0.0
C99 C 0.46589 0.74054 0.66855 0.0
O100 O 0.44341 0.58689 0.73243 0.0
O101 O 0.38208 0.62206 0.73488 0.0
O102 O 0.53431 0.77705 0.73347 0.0
O103 O 0.44076 0.74461 0.73001 0.0
O104 O 0.5444 0.68931 0.75187 0.0
O105 O 0.62627 0.77864 0.7401 0.0
O106 O 0.62951 0.87389 0.68595 0.0
O107 O 0.68026 0.82805 0.68043 0.0
O108 O 0.52512 0.68996 0.68592 0.0
O109 O 0.6105 0.70194 0.6897 0.0
O110 O 0.5199 0.78418 0.67431 0.0
O111 O 0.44093 0.69011 0.68175 0.0
H112 H 0.4538 0.5437 0.77436 0.0
H113 H 0.4454 0.53653 0.82113 0.0
H114 H 0.29833 0.57099 0.818 0.0
H115 H 0.3049 0.57632 0.77137 0.0
H116 H 0.72078 0.83788 0.63528 0.0
H117 H 0.74156 0.87436 0.59132 0.0
H118 H 0.67713 -0.00366 0.60792 0.0
H119 H 0.65533 0.95899 0.65189 0.0
Sm120 Sm 0.76981 0.51868 0.06908 0.0
Sm121 Sm 0.77682 0.62937 0.04522 0.0
C122 C 0.78448 0.44338 0.09822 0.0
C123 C 0.77879 0.43767 0.12611 0.0
C124 C 0.80021 0.40551 0.13975 0.0
C125 C 0.7967 0.40306 0.16651 0.0
C126 C 0.77184 0.43292 0.17987 0.0
C127 C 0.75129 0.46579 0.16602 0.0
C128 C 0.75486 0.46823 0.13938 0.0
C129 C 0.66734 0.52337 0.07383 0.0
C130 C 0.82266 0.64346 0.10306 0.0
C131 C 0.74927 0.69636 1.01581 0.0
C132 C 0.73982 0.69992 0.98775 0.0
C133 C 0.78581 0.71406 0.9699 0.0
C134 C 0.7767 0.71866 0.94369 0.0
C135 C 0.72129 0.70906 0.93443 0.0
C136 C 0.67472 0.6931 0.95221 0.0
C137 C 0.68397 0.68885 0.97851 0.0
C138 C 0.87722 0.61922 0.03888 0.0
C139 C 0.72634 0.50429 1.01186 0.0
O140 O 0.82858 0.49406 0.09033 0.0
O141 O 0.73498 0.42807 0.08579 0.0
O142 O 0.71887 0.56775 0.07702 0.0
O143 O 0.66907 0.47536 0.06863 0.0
O144 O 0.82393 0.59398 0.09809 0.0
O145 O 0.79873 0.6648 0.08664 0.0
O146 O 0.70925 0.64861 0.02777 0.0
O147 O 0.80363 0.71363 0.02374 0.0
O148 O 0.82429 0.57798 0.03728 0.0
O149 O 0.87996 0.67052 0.04139 0.0
O150 O 0.72262 0.55233 1.01703 0.0
O151 O 0.75343 0.48552 0.0277 0.0
H152 H 0.8196 0.38246 0.12976 0.0
H153 H 0.8124 0.37692 0.1767 0.0
H154 H 0.7328 0.48992 0.1758 0.0
H155 H 0.73917 0.49429 0.12909 0.0
H156 H 0.82915 0.72198 0.97615 0.0
H157 H 0.81334 0.72973 0.93062 0.0
H158 H 0.63157 0.68564 0.94593 0.0
H159 H 0.6475 0.67752 0.99172 0.0
Sm160 Sm 0.27841 0.80264 0.38701 0.0
Sm161 Sm 0.16215 0.79514 0.3736 0.0
C162 C 0.3789 0.827 0.40989 0.0
C163 C 0.38369 0.81646 0.43721 0.0
C164 C 0.43875 0.83688 0.44945 0.0
C165 C 0.44054 0.82579 0.4757 0.0
C166 C 0.38723 0.79483 0.48997 0.0
C167 C 0.33258 0.77647 0.47751 0.0
C168 C 0.33087 0.78623 0.45145 0.0
C169 C 0.18549 0.68918 0.38917 0.0
C170 C 0.20246 0.82748 0.43207 0.0
C171 C 0.05559 0.76656 0.35433 0.0
C172 C 0.02874 0.76029 0.32869 0.0
C173 C 0.96935 0.74738 0.32626 0.0
C174 C 0.94357 0.74087 0.30195 0.0
C175 C 0.97649 0.7462 0.27964 0.0
C176 C 0.03594 0.75909 0.28221 0.0
C177 C 0.06198 0.76684 0.30648 0.0
C178 C 0.26151 0.90622 0.36881 0.0
C179 C 0.24247 0.77481 0.32856 0.0
O180 O 0.3633 0.8671 0.40527 0.0
O181 O 0.34812 0.77868 0.39633 0.0
O182 O 0.18282 0.73392 0.39751 0.0
O183 O 0.23767 0.70382 0.38024 0.0
O184 O 0.25503 0.8397 0.42302 0.0
O185 O 0.15456 0.80132 0.41737 0.0
O186 O 0.0715 0.72727 0.36041 0.0
O187 O 0.09508 0.82056 0.36132 0.0
O188 O 0.2563 0.8579 0.36161 0.0
O189 O 0.21243 0.89883 0.379 0.0
O190 O 0.18874 0.76217 0.33675 0.0
O191 O 0.28949 0.80155 0.3437 0.0
H192 H 0.48 0.86073 0.43874 0.0
H193 H 0.48346 0.84042 0.48462 0.0
H194 H 0.2907 0.75443 0.48785 0.0
H195 H 0.28784 0.76985 0.44236 0.0
H196 H 0.94289 0.74235 0.34317 0.0
H197 H 0.89762 0.73082 0.3006 0.0
H198 H 0.06252 0.76429 0.2654 0.0
H199 H 0.10819 0.77833 0.308 0.0
Sm200 Sm 0.47378 0.24814 0.73772 0.0
Sm201 Sm 0.37187 0.1324 0.71468 0.0
C202 C 0.53715 0.35482 0.75789 0.0
C203 C 0.546 0.36941 0.78513 0.0
C204 C 0.59117 0.42508 0.79357 0.0
C205 C 0.60537 0.43426 0.81966 0.0
C206 C 0.57488 0.38749 0.83734 0.0
C207 C 0.52767 0.33292 0.82882 0.0
C208 C 0.5134 0.32396 0.80294 0.0
C209 C 0.47391 0.15006 0.75623 0.0
C210 C 0.34411 0.17954 0.76766 0.0
C211 C 0.30268 0.02961 0.69066 0.0
C212 C 0.2878 0.00654 0.66403 0.0
C213 C 0.23786 0.95029 0.65964 0.0
C214 C 0.22206 0.92774 0.63469 0.0
C215 C 0.25584 0.96086 0.61337 0.0
C216 C 0.3064 0.0171 0.61786 0.0
C217 C 0.32221 0.03974 0.64291 0.0
C218 C 0.38785 0.23888 0.69498 0.0
C219 C 0.50715 0.19362 0.68971 0.0
O220 O 0.48266 0.33478 0.74947 0.0
O221 O 0.56086 0.3231 0.75007 0.0
O222 O 0.4265 0.15139 0.75121 0.0
O223 O 0.52097 0.20232 0.75476 0.0
O224 O 0.3911 0.23096 0.76139 0.0
O225 O 0.33021 0.13047 0.75441 0.0
O226 O 0.35659 0.04604 0.69877 0.0
O227 O 0.28393 0.0658 0.69817 0.0
O228 O 0.4268 0.22593 0.70051 0.0
O229 O 0.3353 0.19343 0.69892 0.0
O230 O 0.45692 0.14365 0.69462 0.0
O231 O 0.51949 0.24438 0.70083 0.0
H232 H 0.61698 0.46036 0.77996 0.0
H233 H 0.64214 0.47671 0.82578 0.0
H234 H 0.50288 0.29649 0.84208 0.0
H235 H 0.47869 0.28047 0.7967 0.0
H236 H 0.21075 0.9237 0.67557 0.0
H237 H 0.18327 0.88404 0.63212 0.0
H238 H 0.33282 0.04423 0.60192 0.0
H239 H 0.36092 0.08339 0.64577 0.0
H240 H 0.16468 0.74619 0.28803 0.0
H241 H 0.33784 0.76969 0.30875 0.0
H242 H 0.35008 0.74245 0.26478 0.0
H243 H 0.11636 0.62319 0.2479 0.0
H244 H 0.08259 0.6475 0.22404 0.0
H245 H 0.0878 0.67184 0.25668 0.0
H246 H 0.14727 0.78425 0.24269 0.0
H247 H 0.13633 0.75801 0.2101 0.0
H248 H 0.2104 0.80819 0.2218 0.0
H249 H 0.34159 0.70842 0.21936 0.0
H250 H 0.31449 0.67275 0.17493 0.0
H251 H 0.14816 0.67473 0.1831 0.0
C252 C 0.20538 0.74622 0.28334 0.0
C253 C 0.25026 0.76015 0.30192 0.0
C254 C 0.30288 0.7594 0.29487 0.0
C255 C 0.31026 0.74399 0.26993 0.0
C256 C 0.26506 0.73044 0.25213 0.0
C257 C 0.214 0.73221 0.25838 0.0
C258 C 0.17241 0.71609 0.23557 0.0
C259 C 0.11118 0.6614 0.24141 0.0
C260 C 0.16618 0.76976 0.22703 0.0
C261 C 0.20682 0.7022 0.21587 0.0
C262 C 0.26047 0.71149 0.22576 0.0
C263 C 0.29985 0.70123 0.21137 0.0
C264 C 0.28393 0.68073 0.18621 0.0
C265 C 0.22915 0.67074 0.17564 0.0
C266 C 0.19046 0.6823 0.19064 0.0
H267 H 0.47816 0.11017 0.65225 0.0
H268 H 0.62157 0.28007 0.67912 0.0
H269 H 0.6789 0.28944 0.63994 0.0
H270 H 0.57574 0.06332 0.6145 0.0
H271 H 0.52034 0.0318 0.5896 0.0
H272 H 0.49763 0.02982 0.62241 0.0
H273 H 0.43907 0.08258 0.60918 0.0
H274 H 0.4612 0.08477 0.57645 0.0
H275 H 0.47676 0.15288 0.59241 0.0
H276 H 0.71149 0.29024 0.59548 0.0
H277 H 0.71588 0.28395 0.54854 0.0
H278 H 0.55044 0.11468 0.54959 0.0
C279 C 0.52266 0.14815 0.65036 0.0
C280 C 0.54569 0.19426 0.66875 0.0
C281 C 0.60327 0.24416 0.66529 0.0
C282 C 0.63632 0.24963 0.64317 0.0
C283 C 0.61125 0.20467 0.62483 0.0
C284 C 0.55588 0.15453 0.62826 0.0
C285 C 0.53494 0.11745 0.60406 0.0
C286 C 0.53203 0.05703 0.60789 0.0
C287 C 0.47446 0.10904 0.59497 0.0
C288 C 0.58498 0.15692 0.586 0.0
C289 C 0.62953 0.20587 0.59858 0.0
C290 C 0.67771 0.25139 0.58552 0.0
C291 C 0.6798 0.24744 0.55886 0.0
C292 C 0.63352 0.19877 0.54552 0.0
C293 C 0.58638 0.15231 0.55937 0.0
H294 H 0.29315 0.44124 0.96602 0.0
H295 H 0.31356 0.61453 0.98368 0.0
H296 H 0.35832 0.65131 0.94105 0.0
H297 H 0.42908 0.49428 0.92373 0.0
H298 H 0.3893 0.43209 0.90234 0.0
H299 H 0.37128 0.42379 0.936 0.0
H300 H 0.26086 0.3875 0.92445 0.0
H301 H 0.2788 0.39744 0.8909 0.0
H302 H 0.24287 0.43466 0.90537 0.0
H303 H 0.38535 0.6646 0.89522 0.0
H304 H 0.39248 0.65351 0.84859 0.0
H305 H 0.35409 0.4716 0.85985 0.0
C306 C 0.30904 0.48757 0.96127 0.0
C307 C 0.30056 0.52538 0.97821 0.0
C308 C 0.32001 0.58505 0.97101 0.0
C309 C 0.34576 0.60637 0.94691 0.0
C310 C 0.35173 0.56742 0.93031 0.0
C311 C 0.33422 0.50931 0.93717 0.0
C312 C 0.33803 0.47434 0.91463 0.0
C313 C 0.38473 0.45501 0.91947 0.0
C314 C 0.2765 0.42032 0.90849 0.0
C315 C 0.3583 0.52131 0.8938 0.0
C316 C 0.36683 0.57492 0.9034 0.0
C317 C 0.38002 0.62334 0.88755 0.0
C318 C 0.38358 0.61656 0.86116 0.0
C319 C 0.37399 0.56185 0.85092 0.0
C320 C 0.36257 0.5141 0.86744 0.0
H321 H 0.84552 0.35736 0.3164 0.0
H322 H 0.66466 0.30867 0.33819 0.0
H323 H 0.65498 0.35637 0.29898 0.0
H324 H 0.88167 0.50279 0.28274 0.0
H325 H 0.92424 0.49057 0.25855 0.0
H326 H 0.92195 0.46456 0.29084 0.0
H327 H 0.88305 0.35671 0.27423 0.0
H328 H 0.88832 0.38408 0.24213 0.0
H329 H 0.8187 0.32302 0.25365 0.0
H330 H 0.65785 0.39115 0.25426 0.0
H331 H 0.67394 0.41198 0.20794 0.0
H332 H 0.85345 0.43997 0.21522 0.0
C333 C 0.80454 0.35837 0.31332 0.0
C334 C 0.75586 0.32923 0.33032 0.0
C335 C 0.70273 0.33095 0.32551 0.0
C336 C 0.69685 0.35819 0.30331 0.0
C337 C 0.74489 0.3845 0.28639 0.0
C338 C 0.79811 0.38573 0.29135 0.0
C339 C 0.84036 0.41068 0.2688 0.0
C340 C 0.89531 0.47073 0.27565 0.0
C341 C 0.85861 0.36588 0.25909 0.0
C342 C 0.80102 0.41886 0.24971 0.0
C343 C 0.74669 0.4051 0.26043 0.0
C344 C 0.70078 0.40359 0.24583 0.0
C345 C 0.71032 0.41541 0.21953 0.0
C346 C 0.76501 0.4277 0.20806 0.0
C347 C 0.81126 0.43077 0.22352 0.0
H348 H 0.51321 0.83033 0.63266 0.0
H349 H 0.35706 0.65881 0.64935 0.0
H350 H 0.31779 0.65799 0.60625 0.0
H351 H 0.43618 0.89039 0.59195 0.0
H352 H 0.49878 0.92622 0.57036 0.0
H353 H 0.51095 0.91729 0.60368 0.0
H354 H 0.56876 0.86368 0.59037 0.0
H355 H 0.55546 0.87068 0.55704 0.0
H356 H 0.53281 0.79823 0.57047 0.0
H357 H 0.30236 0.66827 0.5603 0.0
H358 H 0.30596 0.69305 0.51478 0.0
H359 H 0.46946 0.86098 0.52763 0.0
C360 C 0.46995 0.79332 0.62755 0.0
C361 C 0.43807 0.7446 0.64445 0.0
C362 C 0.38216 0.69666 0.63681 0.0
C363 C 0.3595 0.69578 0.61235 0.0
C364 C 0.39303 0.7434 0.59588 0.0
C365 C 0.44661 0.79178 0.6032 0.0
C366 C 0.47549 0.83523 0.58114 0.0
C367 C 0.4806 0.89585 0.58715 0.0
C368 C 0.53675 0.84235 0.57437 0.0
C369 C 0.43028 0.80287 0.56015 0.0
C370 C 0.38319 0.75009 0.56916 0.0
C371 C 0.33805 0.71027 0.55314 0.0
C372 C 0.34045 0.72506 0.52725 0.0
C373 C 0.38727 0.77974 0.51751 0.0
C374 C 0.43293 0.81896 0.53433 0.0
H375 H 0.69264 0.54796 0.97164 0.0
H376 H 0.70747 0.39484 0.99595 0.0
H377 H 0.66771 0.34712 0.95394 0.0
H378 H 0.55678 0.46911 0.93609 0.0
H379 H 0.58025 0.52461 0.91114 0.0
H380 H 0.60874 0.54625 0.94315 0.0
H381 H 0.71749 0.59389 0.92632 0.0
H382 H 0.6888 0.57409 0.89425 0.0
H383 H 0.73889 0.55036 0.90668 0.0
H384 H 0.62709 0.31706 0.9095 0.0
H385 H 0.59154 0.30739 0.86497 0.0
H386 H 0.60462 0.48125 0.87 0.0
C387 C 0.68719 0.50414 0.96831 0.0
C388 C 0.70268 0.47472 0.98711 0.0
C389 C 0.69573 0.41796 0.98179 0.0
C390 C 0.67311 0.39058 0.95806 0.0
C391 C 0.6582 0.42091 0.94 0.0
C392 C 0.66526 0.47657 0.9448 0.0
C393 C 0.64772 0.50067 0.92195 0.0
C394 C 0.59524 0.5107 0.92849 0.0
C395 C 0.70143 0.55814 0.91168 0.0
C396 C 0.62927 0.44954 0.90349 0.0
C397 C 0.63549 0.40395 0.9143 0.0
C398 C 0.62178 0.35227 0.90087 0.0
C399 C 0.60134 0.34711 0.87568 0.0
C400 C 0.59499 0.39344 0.86419 0.0
C401 C 0.60922 0.44528 0.87832 0.0
H402 H 0.32344 0.40247 0.06361 0.0
H403 H 0.35245 0.55461 0.10892 0.0
H404 H 0.45261 0.57328 0.1207 0.0
H405 H 0.42511 0.36103 0.10408 0.0
H406 H 0.4499 0.34225 0.07507 0.0
H407 H 0.37449 0.32875 0.0775 0.0
H408 H 0.39133 0.39054 0.03612 0.0
H409 H 0.46716 0.40632 0.03398 0.0
H410 H 0.4513 0.46683 0.03497 0.0
H411 H 0.55603 0.5934 0.11681 0.0
H412 H 0.65247 0.60278 0.10342 0.0
H413 H 0.55698 0.43773 0.06079 0.0
C414 C 0.34957 0.437 0.07738 0.0
C415 C 0.33076 0.47662 0.08572 0.0
C416 C 0.36651 0.52346 0.10271 0.0
C417 C 0.42338 0.53442 0.10946 0.0
C418 C 0.44325 0.49776 0.09915 0.0
C419 C 0.40687 0.4488 0.08406 0.0
C420 C 0.44189 0.42251 0.07203 0.0
C421 C 0.42165 0.35993 0.08283 0.0
C422 C 0.43765 0.42157 0.04255 0.0
C423 C 0.50392 0.46689 0.08111 0.0
C424 C 0.50382 0.50945 0.09704 0.0
C425 C 0.55668 0.55917 0.10513 0.0
C426 C 0.61108 0.56468 0.09717 0.0
C427 C 0.61155 0.52068 0.08134 0.0
C428 C 0.55747 0.47135 0.07333 0.0
H429 H 0.07596 0.64461 0.41203 0.0
H430 H 0.19746 0.59305 0.37845 0.0
H431 H 0.12595 0.48754 0.38734 0.0
H432 H 0.01403 0.52711 0.46215 0.0
H433 H 0.93984 0.51625 0.45853 0.0
H434 H 0.00386 0.58862 0.45263 0.0
H435 H 0.96451 0.59004 0.40701 0.0
H436 H 0.90023 0.5183 0.41294 0.0
H437 H 0.94703 0.5289 0.38555 0.0
H438 H 0.03824 0.38714 0.39647 0.0
H439 H 0.93662 0.29993 0.40163 0.0
H440 H 0.87351 0.41766 0.42854 0.0
C441 C 0.08769 0.61108 0.40694 0.0
C442 C 0.1421 0.62674 0.3948 0.0
C443 C 0.15588 0.58183 0.38796 0.0
C444 C 0.11585 0.52181 0.39309 0.0
C445 C 0.06243 0.50756 0.40514 0.0
C446 C 0.04813 0.55085 0.41187 0.0
C447 C -0.01449 0.52333 0.42228 0.0
C448 C -0.01413 0.53981 0.45058 0.0
C449 C 0.94708 0.54118 0.40596 0.0
C450 C 0.9662 0.45803 0.41933 0.0
C451 C 0.01147 0.4496 0.40998 0.0
C452 C 0.00248 0.39299 0.40406 0.0
C453 C 0.94486 0.34386 0.40693 0.0
C454 C 0.89762 0.35257 0.41507 0.0
C455 C 0.90905 0.40988 0.42223 0.0
H456 H 0.39333 0.03298 0.74615 0.0
H457 H 0.56676 0.14966 0.77964 0.0
H458 H 0.58749 0.06654 0.78155 0.0
H459 H 0.36581 0.89227 0.781 0.0
H460 H 0.33088 0.84744 0.75307 0.0
H461 H 0.3247 0.91281 0.75927 0.0
H462 H 0.36654 0.95177 0.71415 0.0
H463 H 0.37616 0.88879 0.70786 0.0
H464 H 0.43908 0.96323 0.70536 0.0
H465 H 0.59768 0.97771 0.77234 0.0
H466 H 0.59046 0.88344 0.75703 0.0
H467 H 0.41077 0.82486 0.73003 0.0
C468 C 0.4345 0.04015 0.75478 0.0
C469 C 0.47841 0.09728 0.76273 0.0
C470 C 0.53252 0.10587 0.77345 0.0
C471 C 0.54476 0.05901 0.77466 0.0
C472 C 0.50212 0.00383 0.76528 0.0
C473 C 0.44753 -0.00629 0.75603 0.0
C474 C 0.41208 0.93187 0.74485 0.0
C475 C 0.355 0.89384 0.76049 0.0
C476 C 0.39772 0.93414 0.71637 0.0
C477 C 0.4564 0.91026 0.74822 0.0
C478 C 0.50788 0.95207 0.76023 0.0
C479 C 0.55702 0.94382 0.76349 0.0
C480 C 0.55286 0.89068 0.75457 0.0
C481 C 0.49996 0.84716 0.74267 0.0
C482 C 0.45141 0.85721 0.73949 0.0
H483 H 0.60046 0.58838 0.68829 0.0
H484 H 0.44638 0.59962 0.6627 0.0
H485 H 0.38828 0.49097 0.65887 0.0
H486 H 0.56613 0.45488 0.64559 0.0
H487 H 0.59313 0.42371 0.66952 0.0
H488 H 0.62617 0.5035 0.66657 0.0
H489 H 0.60313 0.51135 0.71471 0.0
H490 H 0.57391 0.43248 0.71697 0.0
H491 H 0.52822 0.46415 0.72641 0.0
H492 H 0.34107 0.38182 0.66568 0.0
H493 H 0.31252 0.27784 0.67747 0.0
H494 H 0.49775 0.3364 0.69526 0.0
C495 C 0.55521 0.56787 0.68109 0.0
C496 C 0.52767 0.60215 0.67624 0.0
C497 C 0.46815 0.57404 0.667 0.0
C498 C 0.43467 0.51225 0.66457 0.0
C499 C 0.4618 0.47913 0.67076 0.0
C500 C 0.52116 0.5058 0.67811 0.0
C501 C 0.53818 0.45929 0.68484 0.0
C502 C 0.58359 0.46042 0.66547 0.0
C503 C 0.56213 0.46732 0.71239 0.0
C504 C 0.47814 0.40312 0.68202 0.0
C505 C 0.43478 0.41537 0.67353 0.0
C506 C 0.37483 0.37116 0.67167 0.0
C507 C 0.35887 0.31252 0.67855 0.0
C508 C 0.40288 0.2993 0.68707 0.0
C509 C 0.46317 0.3451 0.68849 0.0
H510 H 0.02264 0.41617 0.05142 0.0
H511 H 0.09887 0.47606 0.97595 0.0
H512 H 0.0561 0.54324 0.97406 0.0
H513 H 0.88609 0.42359 0.04182 0.0
H514 H 0.88931 0.44825 0.07433 0.0
H515 H 0.92103 0.40242 0.06648 0.0
H516 H 0.0222 0.48604 0.08661 0.0
H517 H -0.01339 0.52949 0.093 0.0
H518 H 0.05399 0.56119 0.07434 0.0
H519 H 0.00568 0.60508 0.98105 0.0
H520 H 0.94545 0.65055 0.9955 0.0
H521 H 0.91688 0.56132 0.06845 0.0
C522 C 0.02851 0.44205 0.03422 0.0
C523 C 0.06201 0.43986 1.01345 0.0
C524 C 0.07149 0.47618 0.99167 0.0
C525 C 0.04821 0.51495 0.9906 0.0
C526 C 0.01715 0.5179 1.01183 0.0
C527 C 0.00748 0.48253 0.03325 0.0
C528 C 0.97427 0.49532 0.05381 0.0
C529 C 0.91407 0.43911 0.05938 0.0
C530 C 0.01158 0.51937 0.07837 0.0
C531 C 0.96661 0.54324 0.04058 0.0
C532 C -0.00861 0.55567 1.01636 0.0
C533 C -0.01322 0.5963 1.00013 0.0
C534 C 0.95352 0.6227 1.00857 0.0
C535 C 0.92683 0.609 0.03308 0.0
C536 C 0.93585 0.57111 0.04953 0.0
H537 H 0.34596 0.96765 0.40471 0.0
H538 H 0.30457 0.96173 0.32408 0.0
H539 H 0.41163 0.02387 0.31408 0.0
H540 H 0.48822 0.12831 0.40119 0.0
H541 H 0.51902 0.10431 0.42654 0.0
H542 H 0.44009 0.07576 0.42502 0.0
H543 H 0.43126 0.96895 0.42634 0.0
H544 H 0.51101 0.00403 0.4257 0.0
H545 H 0.46889 0.95107 0.40129 0.0
H546 H 0.5213 0.0661 0.31178 0.0
H547 H 0.62922 0.10303 0.31842 0.0
H548 H 0.59939 0.07577 0.40005 0.0
C549 C 0.35956 0.9828 0.38522 0.0
C550 C 0.31747 0.96188 0.36516 0.0
C551 C 0.33638 0.9795 0.33967 0.0
C552 C 0.39708 0.01402 0.33381 0.0
C553 C 0.43803 0.03064 0.35376 0.0
C554 C 0.42026 0.01712 0.37908 0.0
C555 C 0.47377 0.03751 0.39662 0.0
C556 C 0.48082 0.08968 0.41325 0.0
C557 C 0.47066 -0.01287 0.41344 0.0
C558 C 0.52311 0.05765 0.37691 0.0
C559 C 0.50186 0.05509 0.35239 0.0
C560 C 0.53865 0.06906 0.33092 0.0
C561 C 0.59932 0.08844 0.33474 0.0
C562 C 0.62159 0.09133 0.35969 0.0
C563 C 0.58293 0.07449 0.38089 0.0
H564 H 0.3669 0.2725 0.80009 0.0
H565 H 0.24967 0.08189 0.79062 0.0
H566 H 0.20327 0.07808 0.8326 0.0
H567 H 0.39408 0.26989 0.86598 0.0
H568 H 0.3937 0.33765 0.87386 0.0
H569 H 0.41518 0.32783 0.84226 0.0
H570 H 0.33505 0.34607 0.82168 0.0
H571 H 0.31405 0.35808 0.85306 0.0
H572 H 0.25858 0.30296 0.83217 0.0
H573 H 0.17309 0.09446 0.8768 0.0
H574 H 0.15949 0.12922 0.91883 0.0
H575 H 0.29615 0.30977 0.89949 0.0
C576 C 0.33091 0.22989 0.80658 0.0
C577 C 0.3118 0.17735 0.79178 0.0
C578 C 0.26493 0.12274 0.80135 0.0
C579 C 0.2384 0.12018 0.82526 0.0
C580 C 0.25905 0.17261 0.83946 0.0
C581 C 0.30404 0.22655 0.83038 0.0
C582 C 0.31908 0.27622 0.84962 0.0
C583 C 0.38438 0.3045 0.85846 0.0
C584 C 0.30587 0.32361 0.83846 0.0
C585 C 0.27614 0.24164 0.87117 0.0
C586 C 0.24172 0.18204 0.86485 0.0
C587 C 0.19941 0.14115 0.88178 0.0
C588 C 0.19174 0.16156 0.90565 0.0
C589 C 0.22608 0.22258 0.91265 0.0
C590 C 0.2691 0.26288 0.895 0.0
H591 H 0.02949 0.24209 0.23092 0.0
H592 H 0.89542 0.29642 0.23018 0.0
H593 H 0.91957 0.32812 0.18511 0.0
H594 H 0.1368 0.36198 0.19277 0.0
H595 H 0.1618 0.31821 0.17536 0.0
H596 H 0.13173 0.29609 0.20717 0.0
H597 H 0.05364 0.19207 0.19016 0.0
H598 H 0.08351 0.21393 0.15827 0.0
H599 H 0.00536 0.18673 0.16413 0.0
H600 H 0.96197 0.3602 0.14151 0.0
H601 H 0.01971 0.39043 0.10139 0.0
H602 H 0.12631 0.31391 0.12821 0.0
C603 C 0.00481 0.25992 0.22107 0.0
C604 C 0.96095 0.26761 0.23418 0.0
C605 C 0.92993 0.29146 0.22071 0.0
C606 C 0.94302 0.30904 0.19502 0.0
C607 C -0.01284 0.30214 0.18277 0.0
C608 C 0.01752 0.27793 0.1952 0.0
C609 C 0.06459 0.27787 0.17758 0.0
C610 C 0.12745 0.3158 0.1889 0.0
C611 C 0.05095 0.21383 0.17222 0.0
C612 C 0.05646 0.30669 0.15356 0.0
C613 C 0.01124 0.31997 0.1571 0.0
C614 C -0.00301 0.34941 0.13841 0.0
C615 C 0.0302 0.36654 0.11565 0.0
C616 C 0.07718 0.35411 0.11147 0.0
C617 C 0.08985 0.3229 0.1306 0.0
H618 H 0.64931 0.97319 0.56329 0.0
H619 H 0.81124 0.96176 0.56824 0.0
H620 H 0.83974 0.00436 0.5248 0.0
H621 H 0.62183 0.93618 0.49544 0.0
H622 H 0.5946 -0.01275 0.48951 0.0
H623 H 0.58521 0.95351 0.52065 0.0
H624 H 0.63966 0.05785 0.54201 0.0
H625 H 0.64688 0.09085 0.51093 0.0
H626 H 0.71227 0.11284 0.53038 0.0
H627 H 0.85336 0.05318 0.48111 0.0
H628 H 0.85077 0.10481 0.44148 0.0
H629 H 0.68018 0.08407 0.46519 0.0
C630 C 0.69075 0.97953 0.55528 0.0
C631 C 0.72771 0.9635 0.56932 0.0
C632 C 0.78144 0.97248 0.55786 0.0
C633 C 0.79826 -0.00299 0.53316 0.0
C634 C 0.76088 0.01228 0.51991 0.0
C635 C 0.70812 0.00373 0.53056 0.0
C636 C 0.67636 0.02481 0.51245 0.0
C637 C 0.61594 0.97231 0.50401 0.0
C638 C 0.66843 0.07458 0.52469 0.0
C639 C 0.72044 0.04823 0.49032 0.0
C640 C 0.76861 0.04006 0.49483 0.0
C641 C 0.81564 0.05948 0.47731 0.0
C642 C 0.81379 0.08871 0.45479 0.0
C643 C 0.76537 0.09857 0.44999 0.0
C644 C 0.71791 0.0772 0.46802 0.0
H645 H 0.55261 0.65739 0.79837 0.0
H646 H 0.71291 0.81419 0.77123 0.0
H647 H 0.76102 0.82203 0.81289 0.0
H648 H 0.55668 0.70808 0.86233 0.0
H649 H 0.53059 0.636 0.87694 0.0
H650 H 0.51013 0.64121 0.84446 0.0
H651 H 0.554 0.57447 0.82958 0.0
H652 H 0.57418 0.5701 0.86224 0.0
H653 H 0.63013 0.59647 0.83744 0.0
H654 H 0.7912 0.81635 0.85776 0.0
H655 H 0.80185 0.79746 0.90311 0.0
H656 H 0.62303 0.64388 0.90254 0.0
C657 C 0.59811 0.69298 0.80106 0.0
C658 C 0.6289 0.73517 0.78125 0.0
C659 C 0.68818 0.78126 0.78586 0.0
C660 C 0.71603 0.7861 0.80954 0.0
C661 C 0.68435 0.74448 0.82866 0.0
C662 C 0.62678 0.69855 0.82474 0.0
C663 C 0.60249 0.66083 0.84895 0.0
C664 C 0.54668 0.6616 0.85876 0.0
C665 C 0.58942 0.59667 0.84427 0.0
C666 C 0.65499 0.69364 0.86715 0.0
C667 C 0.70182 0.74135 0.85486 0.0
C668 C 0.75501 0.77879 0.86751 0.0
C669 C 0.76076 0.76739 0.89334 0.0
C670 C 0.71364 0.71886 0.90661 0.0
C671 C 0.65991 0.68156 0.89315 0.0
H672 H 0.9772 0.67753 0.23959 0.0
H673 H 0.91465 0.79916 0.2612 0.0
H674 H 0.87172 0.7898 0.21788 0.0
H675 H 0.01622 0.72605 0.17439 0.0
H676 H -0.01015 0.652 0.16203 0.0
H677 H 0.01649 0.66939 0.19449 0.0
H678 H 0.91604 0.58231 0.2111 0.0
H679 H 0.88941 0.56461 0.17866 0.0
H680 H 0.84719 0.57932 0.20212 0.0
H681 H 0.83694 0.76808 0.17134 0.0
H682 H 0.8065 0.7295 0.12721 0.0
H683 H 0.88898 0.6196 0.13705 0.0
C684 C 0.95463 0.70234 0.23515 0.0
C685 C 0.94947 0.73933 0.25373 0.0
C686 C 0.91887 0.77039 0.2473 0.0
C687 C 0.89462 0.76557 0.2227 0.0
C688 C 0.90065 0.72889 0.20477 0.0
C689 C 0.92929 0.69723 0.21083 0.0
C690 C 0.92783 0.65914 0.18849 0.0
C691 C -0.00863 0.67778 0.17931 0.0
C692 C 0.89305 0.59242 0.19552 0.0
C693 C 0.89444 0.67474 0.16882 0.0
C694 C 0.87941 0.71532 0.17845 0.0
C695 C 0.84842 0.7362 0.16364 0.0
C696 C 0.83156 0.7143 0.13853 0.0
C697 C 0.8453 0.6716 0.12852 0.0
C698 C 0.87766 0.65225 0.14398 0.0
H699 H 0.32589 0.96382 0.57223 0.0
H700 H 0.14245 0.90475 0.59378 0.0
H701 H 0.10926 0.86449 0.55034 0.0
H702 H 0.31593 0.00822 0.5075 0.0
H703 H 0.3631 0.98222 0.49393 0.0
H704 H 0.37298 0.00644 0.5268 0.0
H705 H 0.3591 0.90427 0.54181 0.0
H706 H 0.35114 0.88168 0.50881 0.0
H707 H 0.2939 0.83659 0.53167 0.0
H708 H 0.09531 0.83105 0.50414 0.0
H709 H 0.10196 0.80577 0.45906 0.0
H710 H 0.29398 0.88513 0.46708 0.0
C711 C 0.27877 0.94268 0.56777 0.0
C712 C 0.23681 0.93736 0.58667 0.0
C713 C 0.1755 0.90879 0.57993 0.0
C714 C 0.15616 0.88596 0.55519 0.0
C715 C 0.19845 0.89156 0.53714 0.0
C716 C 0.25851 0.91904 0.54311 0.0
C717 C 0.29457 0.91871 0.52011 0.0
C718 C 0.33928 0.98271 0.51158 0.0
C719 C 0.3265 0.88315 0.52597 0.0
C720 C 0.24541 0.88701 0.50032 0.0
C721 C 0.19032 0.87186 0.51055 0.0
C722 C 0.13825 0.84266 0.49595 0.0
C723 C 0.14246 0.8285 0.47028 0.0
C724 C 0.19833 0.84332 0.45928 0.0
C725 C 0.2504 0.87302 0.47472 0.0
loop_
_geom_bond_atom_site_label_1
_geom_bond_atom_site_label_2
_geom_bond_distance
_geom_bond_site_symmetry_2
_ccdc_geom_bond_type
Sm0 C2 2.846 . S
Sm0 O20 2.543 . S
Sm0 O21 2.450 . S
Sm0 O22 2.681 . S
Sm0 O23 2.464 . S
Sm0 O24 2.396 . S
Sm0 O28 2.386 . S
Sm0 O31 2.408 . S
Sm1 C11 2.846 1_554 S
Sm1 O22 2.386 . S
Sm1 O25 2.408 . S
Sm1 O26 2.543 1_554 S
Sm1 O27 2.450 1_554 S
Sm1 O28 2.681 . S
Sm1 O29 2.464 . S
Sm1 O30 2.396 1_554 S
C2 Sm0 2.846 . S
C2 C3 1.506 . S
C2 O20 1.261 . S
C2 O21 1.242 . S
C3 C2 1.506 . S
C3 C4 1.358 . S
C3 C8 1.382 . S
C4 C3 1.358 . S
C4 C5 1.385 . S
C4 H32 0.930 . S
C5 C4 1.385 . S
C5 C6 1.395 . S
C5 H33 0.929 . S
C6 C5 1.395 . S
C6 C7 1.335 . S
C7 C6 1.335 . S
C7 C8 1.398 . S
C7 H34 0.930 . S
C8 C3 1.382 . S
C8 C7 1.398 . S
C8 H35 0.929 . S
C9 O22 1.271 . S
C9 O23 1.251 . S
C10 O24 1.252 . S
C10 O25 1.272 . S
C11 Sm1 2.846 1_556 S
C11 C12 1.506 . S
C11 O26 1.261 . S
C11 O27 1.242 . S
C12 C11 1.506 . S
C12 C13 1.358 . S
C12 C17 1.382 . S
C13 C12 1.358 . S
C13 C14 1.385 . S
C13 H36 0.930 . S
C14 C13 1.385 . S
C14 C15 1.395 . S
C14 H37 0.929 . S
C15 C14 1.395 . S
C15 C16 1.335 . S
C16 C15 1.335 . S
C16 C17 1.398 . S
C16 H38 0.930 . S
C17 C12 1.382 . S
C17 C16 1.398 . S
C17 H39 0.929 . S
C18 O28 1.271 . S
C18 O29 1.251 . S
C19 O30 1.252 . S
C19 O31 1.272 1_556 S
O20 Sm0 2.543 . S
O20 C2 1.261 . S
O21 Sm0 2.450 . S
O21 C2 1.242 . S
O22 Sm0 2.681 . S
O22 Sm1 2.386 . S
O22 C9 1.271 . S
O23 Sm0 2.464 . S
O23 C9 1.251 . S
O24 Sm0 2.396 . S
O24 C10 1.252 . S
O25 Sm1 2.408 . S
O25 C10 1.272 . S
O26 Sm1 2.543 1_556 S
O26 C11 1.261 . S
O27 Sm1 2.450 1_556 S
O27 C11 1.242 . S
O28 Sm0 2.386 . S
O28 Sm1 2.681 . S
O28 C18 1.271 . S
O29 Sm1 2.464 . S
O29 C18 1.251 . S
O30 Sm1 2.396 1_556 S
O30 C19 1.252 . S
O31 Sm0 2.408 . S
O31 C19 1.272 1_554 S
H32 C4 0.930 . S
H33 C5 0.929 . S
H34 C7 0.930 . S
H35 C8 0.929 . S
H36 C13 0.930 . S
H37 C14 0.929 . S
H38 C16 0.930 . S
H39 C17 0.929 . S
Sm40 C42 2.846 . S
Sm40 O60 2.543 . S
Sm40 O61 2.450 . S
Sm40 O62 2.681 . S
Sm40 O63 2.464 . S
Sm40 O64 2.396 . S
Sm40 O68 2.386 . S
Sm40 O71 2.408 . S
Sm41 C51 2.846 . S
Sm41 O62 2.386 . S
Sm41 O65 2.408 . S
Sm41 O66 2.543 . S
Sm41 O67 2.450 . S
Sm41 O68 2.681 . S
Sm41 O69 2.464 . S
Sm41 O70 2.396 . S
C42 Sm40 2.846 . S
C42 C43 1.506 . S
C42 O60 1.261 . S
C42 O61 1.242 . S
C43 C42 1.506 . S
C43 C44 1.358 . S
C43 C48 1.382 . S
C44 C43 1.358 . S
C44 C45 1.385 . S
C44 H72 0.930 . S
C45 C44 1.385 . S
C45 C46 1.395 . S
C45 H73 0.929 . S
C46 C45 1.395 . S
C46 C47 1.335 . S
C47 C46 1.335 . S
C47 C48 1.398 . S
C47 H74 0.930 . S
C48 C43 1.382 . S
C48 C47 1.398 . S
C48 H75 0.929 . S
C49 O62 1.271 . S
C49 O63 1.251 . S
C50 O64 1.252 . S
C50 O65 1.272 . S
C51 Sm41 2.846 . S
C51 C52 1.506 . S
C51 O66 1.261 . S
C51 O67 1.242 . S
C52 C51 1.506 . S
C52 C53 1.358 . S
C52 C57 1.382 . S
C53 C52 1.358 . S
C53 C54 1.385 . S
C53 H76 0.930 . S
C54 C53 1.385 . S
C54 C55 1.395 . S
C54 H77 0.929 1_655 S
C55 C54 1.395 . S
C55 C56 1.335 . S
C56 C55 1.335 . S
C56 C57 1.398 . S
C56 H78 0.930 . S
C57 C52 1.382 . S
C57 C56 1.398 . S
C57 H79 0.929 . S
C58 O68 1.271 . S
C58 O69 1.251 . S
C59 O70 1.252 . S
C59 O71 1.272 . S
O60 Sm40 2.543 . S
O60 C42 1.261 . S
O61 Sm40 2.450 . S
O61 C42 1.242 . S
O62 Sm40 2.681 . S
O62 Sm41 2.386 . S
O62 C49 1.271 . S
O63 Sm40 2.464 . S
O63 C49 1.251 . S
O64 Sm40 2.396 . S
O64 C50 1.252 . S
O65 Sm41 2.408 . S
O65 C50 1.272 . S
O66 Sm41 2.543 . S
O66 C51 1.261 . S
O67 Sm41 2.450 . S
O67 C51 1.242 . S
O68 Sm40 2.386 . S
O68 Sm41 2.681 . S
O68 C58 1.271 . S
O69 Sm41 2.464 . S
O69 C58 1.251 . S
O70 Sm41 2.396 . S
O70 C59 1.252 . S
O71 Sm40 2.408 . S
O71 C59 1.272 . S
H72 C44 0.930 . S
H73 C45 0.929 . S
H74 C47 0.930 . S
H75 C48 0.929 . S
H76 C53 0.930 . S
H77 C54 0.929 1_455 S
H78 C56 0.930 . S
H79 C57 0.929 . S
Sm80 C82 2.846 . S
Sm80 O100 2.543 . S
Sm80 O101 2.450 . S
Sm80 O102 2.681 . S
Sm80 O103 2.464 . S
Sm80 O104 2.396 . S
Sm80 O108 2.386 . S
Sm80 O111 2.408 . S
Sm81 C91 2.846 . S
Sm81 O102 2.386 . S
Sm81 O105 2.408 . S
Sm81 O106 2.543 . S
Sm81 O107 2.450 . S
Sm81 O108 2.681 . S
Sm81 O109 2.464 . S
Sm81 O110 2.396 . S
C82 Sm80 2.846 . S
C82 C83 1.506 . S
C82 O100 1.261 . S
C82 O101 1.242 . S
C83 C82 1.506 . S
C83 C84 1.358 . S
C83 C88 1.382 . S
C84 C83 1.358 . S
C84 C85 1.385 . S
C84 H112 0.930 . S
C85 C84 1.385 . S
C85 C86 1.395 . S
C85 H113 0.929 . S
C86 C85 1.395 . S
C86 C87 1.335 . S
C87 C86 1.335 . S
C87 C88 1.398 . S
C87 H114 0.930 . S
C88 C83 1.382 . S
C88 C87 1.398 . S
C88 H115 0.929 . S
C89 O102 1.271 . S
C89 O103 1.251 . S
C90 O104 1.252 . S
C90 O105 1.272 . S
C91 Sm81 2.846 . S
C91 C92 1.506 . S
C91 O106 1.261 . S
C91 O107 1.242 . S
C92 C91 1.506 . S
C92 C93 1.358 . S
C92 C97 1.382 . S
C93 C92 1.358 . S
C93 C94 1.385 . S
C93 H116 0.930 . S
C94 C93 1.385 . S
C94 C95 1.395 . S
C94 H117 0.929 1_565 S
C95 C94 1.395 . S
C95 C96 1.335 . S
C96 C95 1.335 . S
C96 C97 1.398 . S
C96 H118 0.930 . S
C97 C92 1.382 . S
C97 C96 1.398 . S
C97 H119 0.929 . S
C98 O108 1.271 . S
C98 O109 1.251 . S
C99 O110 1.252 . S
C99 O111 1.272 . S
O100 Sm80 2.543 . S
O100 C82 1.261 . S
O101 Sm80 2.450 . S
O101 C82 1.242 . S
O102 Sm80 2.681 . S
O102 Sm81 2.386 . S
O102 C89 1.271 . S
O103 Sm80 2.464 . S
O103 C89 1.251 . S
O104 Sm80 2.396 . S
O104 C90 1.252 . S
O105 Sm81 2.408 . S
O105 C90 1.272 . S
O106 Sm81 2.543 . S
O106 C91 1.261 . S
O107 Sm81 2.450 . S
O107 C91 1.242 . S
O108 Sm80 2.386 . S
O108 Sm81 2.681 . S
O108 C98 1.271 . S
O109 Sm81 2.464 . S
O109 C98 1.251 . S
O110 Sm81 2.396 . S
O110 C99 1.252 . S
O111 Sm80 2.408 . S
O111 C99 1.272 . S
H112 C84 0.930 . S
H113 C85 0.929 . S
H114 C87 0.930 . S
H115 C88 0.929 . S
H116 C93 0.930 . S
H117 C94 0.929 1_545 S
H118 C96 0.930 . S
H119 C97 0.929 . S
Sm120 C122 2.846 . S
Sm120 O140 2.543 . S
Sm120 O141 2.450 . S
Sm120 O142 2.681 . S
Sm120 O143 2.464 . S
Sm120 O144 2.396 . S
Sm120 O148 2.386 . S
Sm120 O151 2.408 . S
Sm121 C131 2.846 1_554 S
Sm121 O142 2.386 . S
Sm121 O145 2.408 . S
Sm121 O146 2.543 1_554 S
Sm121 O147 2.450 1_554 S
Sm121 O148 2.681 . S
Sm121 O149 2.464 . S
Sm121 O150 2.396 1_554 S
C122 Sm120 2.846 . S
C122 C123 1.506 . S
C122 O140 1.261 . S
C122 O141 1.242 . S
C123 C122 1.506 . S
C123 C124 1.358 . S
C123 C128 1.382 . S
C124 C123 1.358 . S
C124 C125 1.385 . S
C124 H152 0.930 . S
C125 C124 1.385 . S
C125 C126 1.395 . S
C125 H153 0.929 . S
C126 C125 1.395 . S
C126 C127 1.335 . S
C127 C126 1.335 . S
C127 C128 1.398 . S
C127 H154 0.930 . S
C128 C123 1.382 . S
C128 C127 1.398 . S
C128 H155 0.929 . S
C129 O142 1.271 . S
C129 O143 1.251 . S
C130 O144 1.252 . S
C130 O145 1.272 . S
C131 Sm121 2.846 1_556 S
C131 C132 1.506 . S
C131 O146 1.261 . S
C131 O147 1.242 . S
C132 C131 1.506 . S
C132 C133 1.358 . S
C132 C137 1.382 . S
C133 C132 1.358 . S
C133 C134 1.385 . S
C133 H156 0.930 . S
C134 C133 1.385 . S
C134 C135 1.395 . S
C134 H157 0.929 . S
C135 C134 1.395 . S
C135 C136 1.335 . S
C136 C135 1.335 . S
C136 C137 1.398 . S
C136 H158 0.930 . S
C137 C132 1.382 . S
C137 C136 1.398 . S
C137 H159 0.929 . S
C138 O148 1.271 . S
C138 O149 1.251 . S
C139 O150 1.252 . S
C139 O151 1.272 1_556 S
O140 Sm120 2.543 . S
O140 C122 1.261 . S
O141 Sm120 2.450 . S
O141 C122 1.242 . S
O142 Sm120 2.681 . S
O142 Sm121 2.386 . S
O142 C129 1.271 . S
O143 Sm120 2.464 . S
O143 C129 1.251 . S
O144 Sm120 2.396 . S
O144 C130 1.252 . S
O145 Sm121 2.408 . S
O145 C130 1.272 . S
O146 Sm121 2.543 1_556 S
O146 C131 1.261 . S
O147 Sm121 2.450 1_556 S
O147 C131 1.242 . S
O148 Sm120 2.386 . S
O148 Sm121 2.681 . S
O148 C138 1.271 . S
O149 Sm121 2.464 . S
O149 C138 1.251 . S
O150 Sm121 2.396 1_556 S
O150 C139 1.252 . S
O151 Sm120 2.408 . S
O151 C139 1.272 1_554 S
H152 C124 0.930 . S
H153 C125 0.929 . S
H154 C127 0.930 . S
H155 C128 0.929 . S
H156 C133 0.930 . S
H157 C134 0.929 . S
H158 C136 0.930 . S
H159 C137 0.929 . S
Sm160 C162 2.846 . S
Sm160 O180 2.543 . S
Sm160 O181 2.450 . S
Sm160 O182 2.681 . S
Sm160 O183 2.464 . S
Sm160 O184 2.396 . S
Sm160 O188 2.386 . S
Sm160 O191 2.408 . S
Sm161 C171 2.846 . S
Sm161 O182 2.386 . S
Sm161 O185 2.408 . S
Sm161 O186 2.543 . S
Sm161 O187 2.450 . S
Sm161 O188 2.681 . S
Sm161 O189 2.464 . S
Sm161 O190 2.396 . S
C162 Sm160 2.846 . S
C162 C163 1.506 . S
C162 O180 1.261 . S
C162 O181 1.242 . S
C163 C162 1.506 . S
C163 C164 1.358 . S
C163 C168 1.382 . S
C164 C163 1.358 . S
C164 C165 1.385 . S
C164 H192 0.930 . S
C165 C164 1.385 . S
C165 C166 1.395 . S
C165 H193 0.929 . S
C166 C165 1.395 . S
C166 C167 1.335 . S
C167 C166 1.335 . S
C167 C168 1.398 . S
C167 H194 0.930 . S
C168 C163 1.382 . S
C168 C167 1.398 . S
C168 H195 0.929 . S
C169 O182 1.271 . S
C169 O183 1.251 . S
C170 O184 1.252 . S
C170 O185 1.272 . S
C171 Sm161 2.846 . S
C171 C172 1.506 . S
C171 O186 1.261 . S
C171 O187 1.242 . S
C172 C171 1.506 . S
C172 C173 1.358 . S
C172 C177 1.382 . S
C173 C172 1.358 . S
C173 C174 1.385 . S
C173 H196 0.930 . S
C174 C173 1.385 . S
C174 C175 1.395 . S
C174 H197 0.929 1_455 S
C175 C174 1.395 . S
C175 C176 1.335 . S
C176 C175 1.335 . S
C176 C177 1.398 . S
C176 H198 0.930 . S
C177 C172 1.382 . S
C177 C176 1.398 . S
C177 H199 0.929 . S
C178 O188 1.271 . S
C178 O189 1.251 . S
C179 O190 1.252 . S
C179 O191 1.272 . S
O180 Sm160 2.543 . S
O180 C162 1.261 . S
O181 Sm160 2.450 . S
O181 C162 1.242 . S
O182 Sm160 2.681 . S
O182 Sm161 2.386 . S
O182 C169 1.271 . S
O183 Sm160 2.464 . S
O183 C169 1.251 . S
O184 Sm160 2.396 . S
O184 C170 1.252 . S
O185 Sm161 2.408 . S
O185 C170 1.272 . S
O186 Sm161 2.543 . S
O186 C171 1.261 . S
O187 Sm161 2.450 . S
O187 C171 1.242 . S
O188 Sm160 2.386 . S
O188 Sm161 2.681 . S
O188 C178 1.271 . S
O189 Sm161 2.464 . S
O189 C178 1.251 . S
O190 Sm161 2.396 . S
O190 C179 1.252 . S
O191 Sm160 2.408 . S
O191 C179 1.272 . S
H192 C164 0.930 . S
H193 C165 0.929 . S
H194 C167 0.930 . S
H195 C168 0.929 . S
H196 C173 0.930 . S
H197 C174 0.929 1_655 S
H198 C176 0.930 . S
H199 C177 0.929 . S
Sm200 C202 2.846 . S
Sm200 O220 2.543 . S
Sm200 O221 2.450 . S
Sm200 O222 2.681 . S
Sm200 O223 2.464 . S
Sm200 O224 2.396 . S
Sm200 O228 2.386 . S
Sm200 O231 2.408 . S
Sm201 C211 2.846 . S
Sm201 O222 2.386 . S
Sm201 O225 2.408 . S
Sm201 O226 2.543 . S
Sm201 O227 2.450 . S
Sm201 O228 2.681 . S
Sm201 O229 2.464 . S
Sm201 O230 2.396 . S
C202 Sm200 2.846 . S
C202 C203 1.506 . S
C202 O220 1.261 . S
C202 O221 1.242 . S
C203 C202 1.506 . S
C203 C204 1.358 . S
C203 C208 1.382 . S
C204 C203 1.358 . S
C204 C205 1.385 . S
C204 H232 0.930 . S
C205 C204 1.385 . S
C205 C206 1.395 . S
C205 H233 0.929 . S
C206 C205 1.395 . S
C206 C207 1.335 . S
C207 C206 1.335 . S
C207 C208 1.398 . S
C207 H234 0.930 . S
C208 C203 1.382 . S
C208 C207 1.398 . S
C208 H235 0.929 . S
C209 O222 1.271 . S
C209 O223 1.251 . S
C210 O224 1.252 . S
C210 O225 1.272 . S
C211 Sm201 2.846 . S
C211 C212 1.506 . S
C211 O226 1.261 . S
C211 O227 1.242 . S
C212 C211 1.506 . S
C212 C213 1.358 . S
C212 C217 1.382 . S
C213 C212 1.358 . S
C213 C214 1.385 . S
C213 H236 0.930 . S
C214 C213 1.385 . S
C214 C215 1.395 . S
C214 H237 0.929 1_545 S
C215 C214 1.395 . S
C215 C216 1.335 . S
C216 C215 1.335 . S
C216 C217 1.398 . S
C216 H238 0.930 . S
C217 C212 1.382 . S
C217 C216 1.398 . S
C217 H239 0.929 . S
C218 O228 1.271 . S
C218 O229 1.251 . S
C219 O230 1.252 . S
C219 O231 1.272 . S
O220 Sm200 2.543 . S
O220 C202 1.261 . S
O221 Sm200 2.450 . S
O221 C202 1.242 . S
O222 Sm200 2.681 . S
O222 Sm201 2.386 . S
O222 C209 1.271 . S
O223 Sm200 2.464 . S
O223 C209 1.251 . S
O224 Sm200 2.396 . S
O224 C210 1.252 . S
O225 Sm201 2.408 . S
O225 C210 1.272 . S
O226 Sm201 2.543 . S
O226 C211 1.261 . S
O227 Sm201 2.450 . S
O227 C211 1.242 . S
O228 Sm200 2.386 . S
O228 Sm201 2.681 . S
O228 C218 1.271 . S
O229 Sm201 2.464 . S
O229 C218 1.251 . S
O230 Sm201 2.396 . S
O230 C219 1.252 . S
O231 Sm200 2.408 . S
O231 C219 1.272 . S
H232 C204 0.930 . S
H233 C205 0.929 . S
H234 C207 0.930 . S
H235 C208 0.929 . S
H236 C213 0.930 . S
H237 C214 0.929 1_565 S
H238 C216 0.930 . S
H239 C217 0.929 . S
H240 C252 0.930 . S
H241 C254 0.930 . S
H242 C255 0.930 . S
H243 C259 0.959 . S
H244 C259 0.959 . S
H245 C259 0.961 . S
H246 C260 0.960 . S
H247 C260 0.961 . S
H248 C260 0.959 . S
H249 C263 0.929 . S
H250 C264 0.931 . S
H251 C266 0.930 . S
C252 H240 0.930 . S
C252 C253 1.399 . S
C252 C257 1.399 . S
C253 C252 1.399 . S
C253 C254 1.376 . S
C254 H241 0.930 . S
C254 C253 1.376 . S
C254 C255 1.388 . S
C255 H242 0.930 . S
C255 C254 1.388 . S
C255 C256 1.390 . S
C256 C255 1.390 . S
C256 C257 1.394 . S
C256 C262 1.465 . S
C257 C252 1.399 . S
C257 C256 1.394 . S
C257 C258 1.516 . S
C258 C257 1.516 . S
C258 C259 1.502 . S
C258 C260 1.561 . S
C258 C261 1.526 . S
C259 H243 0.959 . S
C259 H244 0.959 . S
C259 H245 0.961 . S
C259 C258 1.502 . S
C260 H246 0.960 . S
C260 H247 0.961 . S
C260 H248 0.959 . S
C260 C258 1.561 . S
C261 C258 1.526 . S
C261 C262 1.396 . S
C261 C266 1.390 . S
C262 C256 1.465 . S
C262 C261 1.396 . S
C262 C263 1.399 . S
C263 H249 0.929 . S
C263 C262 1.399 . S
C263 C264 1.385 . S
C264 H250 0.931 . S
C264 C263 1.385 . S
C264 C265 1.389 . S
C265 C264 1.389 . S
C265 C266 1.387 . S
C266 H251 0.930 . S
C266 C261 1.390 . S
C266 C265 1.387 . S
H267 C279 0.930 . S
H268 C281 0.930 . S
H269 C282 0.930 . S
H270 C286 0.959 . S
H271 C286 0.959 . S
H272 C286 0.961 . S
H273 C287 0.960 . S
H274 C287 0.961 . S
H275 C287 0.959 . S
H276 C290 0.929 . S
H277 C291 0.931 . S
H278 C293 0.930 . S
C279 H267 0.930 . S
C279 C280 1.399 . S
C279 C284 1.399 . S
C280 C279 1.399 . S
C280 C281 1.376 . S
C281 H268 0.930 . S
C281 C280 1.376 . S
C281 C282 1.388 . S
C282 H269 0.930 . S
C282 C281 1.388 . S
C282 C283 1.390 . S
C283 C282 1.390 . S
C283 C284 1.394 . S
C283 C289 1.465 . S
C284 C279 1.399 . S
C284 C283 1.394 . S
C284 C285 1.516 . S
C285 C284 1.516 . S
C285 C286 1.502 . S
C285 C287 1.561 . S
C285 C288 1.526 . S
C286 H270 0.959 . S
C286 H271 0.959 . S
C286 H272 0.961 . S
C286 C285 1.502 . S
C287 H273 0.960 . S
C287 H274 0.961 . S
C287 H275 0.959 . S
C287 C285 1.561 . S
C288 C285 1.526 . S
C288 C289 1.396 . S
C288 C293 1.390 . S
C289 C283 1.465 . S
C289 C288 1.396 . S
C289 C290 1.399 . S
C290 H276 0.929 . S
C290 C289 1.399 . S
C290 C291 1.385 . S
C291 H277 0.931 . S
C291 C290 1.385 . S
C291 C292 1.389 . S
C292 C291 1.389 . S
C292 C293 1.387 . S
C293 H278 0.930 . S
C293 C288 1.390 . S
C293 C292 1.387 . S
H294 C306 0.930 . S
H295 C308 0.930 . S
H296 C309 0.930 . S
H297 C313 0.959 . S
H298 C313 0.959 . S
H299 C313 0.961 . S
H300 C314 0.960 . S
H301 C314 0.961 . S
H302 C314 0.959 . S
H303 C317 0.929 . S
H304 C318 0.931 . S
H305 C320 0.930 . S
C306 H294 0.930 . S
C306 C307 1.399 . S
C306 C311 1.399 . S
C307 C306 1.399 . S
C307 C308 1.376 . S
C308 H295 0.930 . S
C308 C307 1.376 . S
C308 C309 1.388 . S
C309 H296 0.930 . S
C309 C308 1.388 . S
C309 C310 1.390 . S
C310 C309 1.390 . S
C310 C311 1.394 . S
C310 C316 1.465 . S
C311 C306 1.399 . S
C311 C310 1.394 . S
C311 C312 1.516 . S
C312 C311 1.516 . S
C312 C313 1.502 . S
C312 C314 1.561 . S
C312 C315 1.526 . S
C313 H297 0.959 . S
C313 H298 0.959 . S
C313 H299 0.961 . S
C313 C312 1.502 . S
C314 H300 0.960 . S
C314 H301 0.961 . S
C314 H302 0.959 . S
C314 C312 1.561 . S
C315 C312 1.526 . S
C315 C316 1.396 . S
C315 C320 1.390 . S
C316 C310 1.465 . S
C316 C315 1.396 . S
C316 C317 1.399 . S
C317 H303 0.929 . S
C317 C316 1.399 . S
C317 C318 1.385 . S
C318 H304 0.931 . S
C318 C317 1.385 . S
C318 C319 1.389 . S
C319 C318 1.389 . S
C319 C320 1.387 . S
C320 H305 0.930 . S
C320 C315 1.390 . S
C320 C319 1.387 . S
H321 C333 0.930 . S
H322 C335 0.930 . S
H323 C336 0.930 . S
H324 C340 0.959 . S
H325 C340 0.959 . S
H326 C340 0.961 . S
H327 C341 0.960 . S
H328 C341 0.961 . S
H329 C341 0.959 . S
H330 C344 0.929 . S
H331 C345 0.931 . S
H332 C347 0.930 . S
C333 H321 0.930 . S
C333 C334 1.399 . S
C333 C338 1.399 . S
C334 C333 1.399 . S
C334 C335 1.376 . S
C335 H322 0.930 . S
C335 C334 1.376 . S
C335 C336 1.388 . S
C336 H323 0.930 . S
C336 C335 1.388 . S
C336 C337 1.390 . S
C337 C336 1.390 . S
C337 C338 1.394 . S
C337 C343 1.465 . S
C338 C333 1.399 . S
C338 C337 1.394 . S
C338 C339 1.516 . S
C339 C338 1.516 . S
C339 C340 1.502 . S
C339 C341 1.561 . S
C339 C342 1.526 . S
C340 H324 0.959 . S
C340 H325 0.959 . S
C340 H326 0.961 . S
C340 C339 1.502 . S
C341 H327 0.960 . S
C341 H328 0.961 . S
C341 H329 0.959 . S
C341 C339 1.561 . S
C342 C339 1.526 . S
C342 C343 1.396 . S
C342 C347 1.390 . S
C343 C337 1.465 . S
C343 C342 1.396 . S
C343 C344 1.399 . S
C344 H330 0.929 . S
C344 C343 1.399 . S
C344 C345 1.385 . S
C345 H331 0.931 . S
C345 C344 1.385 . S
C345 C346 1.389 . S
C346 C345 1.389 . S
C346 C347 1.387 . S
C347 H332 0.930 . S
C347 C342 1.390 . S
C347 C346 1.387 . S
H348 C360 0.930 . S
H349 C362 0.930 . S
H350 C363 0.930 . S
H351 C367 0.959 . S
H352 C367 0.959 . S
H353 C367 0.961 . S
H354 C368 0.960 . S
H355 C368 0.961 . S
H356 C368 0.959 . S
H357 C371 0.929 . S
H358 C372 0.931 . S
H359 C374 0.930 . S
C360 H348 0.930 . S
C360 C361 1.399 . S
C360 C365 1.399 . S
C361 C360 1.399 . S
C361 C362 1.376 . S
C362 H349 0.930 . S
C362 C361 1.376 . S
C362 C363 1.388 . S
C363 H350 0.930 . S
C363 C362 1.388 . S
C363 C364 1.390 . S
C364 C363 1.390 . S
C364 C365 1.394 . S
C364 C370 1.465 . S
C365 C360 1.399 . S
C365 C364 1.394 . S
C365 C366 1.516 . S
C366 C365 1.516 . S
C366 C367 1.502 . S
C366 C368 1.561 . S
C366 C369 1.526 . S
C367 H351 0.959 . S
C367 H352 0.959 . S
C367 H353 0.961 . S
C367 C366 1.502 . S
C368 H354 0.960 . S
C368 H355 0.961 . S
C368 H356 0.959 . S
C368 C366 1.561 . S
C369 C366 1.526 . S
C369 C370 1.396 . S
C369 C374 1.390 . S
C370 C364 1.465 . S
C370 C369 1.396 . S
C370 C371 1.399 . S
C371 H357 0.929 . S
C371 C370 1.399 . S
C371 C372 1.385 . S
C372 H358 0.931 . S
C372 C371 1.385 . S
C372 C373 1.389 . S
C373 C372 1.389 . S
C373 C374 1.387 . S
C374 H359 0.930 . S
C374 C369 1.390 . S
C374 C373 1.387 . S
H375 C387 0.930 . S
H376 C389 0.930 . S
H377 C390 0.930 . S
H378 C394 0.959 . S
H379 C394 0.959 . S
H380 C394 0.961 . S
H381 C395 0.960 . S
H382 C395 0.961 . S
H383 C395 0.959 . S
H384 C398 0.929 . S
H385 C399 0.931 . S
H386 C401 0.930 . S
C387 H375 0.930 . S
C387 C388 1.399 . S
C387 C392 1.399 . S
C388 C387 1.399 . S
C388 C389 1.376 . S
C389 H376 0.930 . S
C389 C388 1.376 . S
C389 C390 1.388 . S
C390 H377 0.930 . S
C390 C389 1.388 . S
C390 C391 1.390 . S
C391 C390 1.390 . S
C391 C392 1.394 . S
C391 C397 1.465 . S
C392 C387 1.399 . S
C392 C391 1.394 . S
C392 C393 1.516 . S
C393 C392 1.516 . S
C393 C394 1.502 . S
C393 C395 1.561 . S
C393 C396 1.526 . S
C394 H378 0.959 . S
C394 H379 0.959 . S
C394 H380 0.961 . S
C394 C393 1.502 . S
C395 H381 0.960 . S
C395 H382 0.961 . S
C395 H383 0.959 . S
C395 C393 1.561 . S
C396 C393 1.526 . S
C396 C397 1.396 . S
C396 C401 1.390 . S
C397 C391 1.465 . S
C397 C396 1.396 . S
C397 C398 1.399 . S
C398 H384 0.929 . S
C398 C397 1.399 . S
C398 C399 1.385 . S
C399 H385 0.931 . S
C399 C398 1.385 . S
C399 C400 1.389 . S
C400 C399 1.389 . S
C400 C401 1.387 . S
C401 H386 0.930 . S
C401 C396 1.390 . S
C401 C400 1.387 . S
H402 C414 0.930 . S
H403 C416 0.930 . S
H404 C417 0.930 . S
H405 C421 0.959 . S
H406 C421 0.959 1_556 S
H407 C421 0.961 1_556 S
H408 C422 0.960 . S
H409 C422 0.961 . S
H410 C422 0.959 . S
H411 C425 0.929 . S
H412 C426 0.931 . S
H413 C428 0.930 . S
C414 H402 0.930 . S
C414 C415 1.399 . S
C414 C419 1.399 . S
C415 C414 1.399 . S
C415 C416 1.376 . S
C416 H403 0.930 . S
C416 C415 1.376 . S
C416 C417 1.388 . S
C417 H404 0.930 . S
C417 C416 1.388 . S
C417 C418 1.390 . S
C418 C417 1.390 . S
C418 C419 1.394 . S
C418 C424 1.465 . S
C419 C414 1.399 . S
C419 C418 1.394 . S
C419 C420 1.516 . S
C420 C419 1.516 . S
C420 C421 1.502 . S
C420 C422 1.561 1_554 S
C420 C423 1.526 . S
C421 H405 0.959 . S
C421 H406 0.959 1_554 S
C421 H407 0.961 1_554 S
C421 C420 1.502 . S
C422 H408 0.960 . S
C422 H409 0.961 . S
C422 H410 0.959 . S
C422 C420 1.561 1_556 S
C423 C420 1.526 . S
C423 C424 1.396 . S
C423 C428 1.390 . S
C424 C418 1.465 . S
C424 C423 1.396 . S
C424 C425 1.399 . S
C425 H411 0.929 . S
C425 C424 1.399 . S
C425 C426 1.385 . S
C426 H412 0.931 . S
C426 C425 1.385 . S
C426 C427 1.389 . S
C427 C426 1.389 . S
C427 C428 1.387 . S
C428 H413 0.930 . S
C428 C423 1.390 . S
C428 C427 1.387 . S
H429 C441 0.930 . S
H430 C443 0.930 . S
H431 C444 0.930 . S
H432 C448 0.959 1_455 S
H433 C448 0.959 . S
H434 C448 0.961 . S
H435 C449 0.960 . S
H436 C449 0.961 . S
H437 C449 0.959 . S
H438 C452 0.929 1_455 S
H439 C453 0.931 . S
H440 C455 0.930 . S
C441 H429 0.930 . S
C441 C442 1.399 . S
C441 C446 1.399 . S
C442 C441 1.399 . S
C442 C443 1.376 . S
C443 H430 0.930 . S
C443 C442 1.376 . S
C443 C444 1.388 . S
C444 H431 0.930 . S
C444 C443 1.388 . S
C444 C445 1.390 . S
C445 C444 1.390 . S
C445 C446 1.394 . S
C445 C451 1.465 1_455 S
C446 C441 1.399 . S
C446 C445 1.394 . S
C446 C447 1.516 1_455 S
C447 C446 1.516 1_655 S
C447 C448 1.502 . S
C447 C449 1.561 . S
C447 C450 1.526 . S
C448 H432 0.959 1_655 S
C448 H433 0.959 . S
C448 H434 0.961 . S
C448 C447 1.502 . S
C449 H435 0.960 . S
C449 H436 0.961 . S
C449 H437 0.959 . S
C449 C447 1.561 . S
C450 C447 1.526 . S
C450 C451 1.396 . S
C450 C455 1.390 . S
C451 C445 1.465 1_655 S
C451 C450 1.396 . S
C451 C452 1.399 . S
C452 H438 0.929 1_655 S
C452 C451 1.399 . S
C452 C453 1.385 . S
C453 H439 0.931 . S
C453 C452 1.385 . S
C453 C454 1.389 . S
C454 C453 1.389 . S
C454 C455 1.387 . S
C455 H440 0.930 . S
C455 C450 1.390 . S
C455 C454 1.387 . S
H456 C468 0.930 . S
H457 C470 0.930 . S
H458 C471 0.930 . S
H459 C475 0.959 . S
H460 C475 0.959 . S
H461 C475 0.961 . S
H462 C476 0.960 . S
H463 C476 0.961 1_565 S
H464 C476 0.959 . S
H465 C479 0.929 . S
H466 C480 0.931 . S
H467 C482 0.930 . S
C468 H456 0.930 . S
C468 C469 1.399 . S
C468 C473 1.399 . S
C469 C468 1.399 . S
C469 C470 1.376 . S
C470 H457 0.930 . S
C470 C469 1.376 . S
C470 C471 1.388 . S
C471 H458 0.930 . S
C471 C470 1.388 . S
C471 C472 1.390 . S
C472 C471 1.390 . S
C472 C473 1.394 . S
C472 C478 1.465 . S
C473 C468 1.399 . S
C473 C472 1.394 . S
C473 C474 1.516 1_545 S
C474 C473 1.516 1_565 S
C474 C475 1.502 . S
C474 C476 1.561 1_565 S
C474 C477 1.526 . S
C475 H459 0.959 . S
C475 H460 0.959 . S
C475 H461 0.961 . S
C475 C474 1.502 . S
C476 H462 0.960 . S
C476 H463 0.961 1_545 S
C476 H464 0.959 . S
C476 C474 1.561 1_545 S
C477 C474 1.526 . S
C477 C478 1.396 1_565 S
C477 C482 1.390 . S
C478 C472 1.465 . S
C478 C477 1.396 1_545 S
C478 C479 1.399 . S
C479 H465 0.929 . S
C479 C478 1.399 . S
C479 C480 1.385 1_545 S
C480 H466 0.931 . S
C480 C479 1.385 1_565 S
C480 C481 1.389 . S
C481 C480 1.389 . S
C481 C482 1.387 . S
C482 H467 0.930 . S
C482 C477 1.390 . S
C482 C481 1.387 . S
H483 C495 0.930 . S
H484 C497 0.930 . S
H485 C498 0.930 . S
H486 C502 0.959 . S
H487 C502 0.959 . S
H488 C502 0.961 . S
H489 C503 0.960 . S
H490 C503 0.961 . S
H491 C503 0.959 . S
H492 C506 0.929 . S
H493 C507 0.931 . S
H494 C509 0.930 . S
C495 H483 0.930 . S
C495 C496 1.399 . S
C495 C500 1.399 . S
C496 C495 1.399 . S
C496 C497 1.376 . S
C497 H484 0.930 . S
C497 C496 1.376 . S
C497 C498 1.388 . S
C498 H485 0.930 . S
C498 C497 1.388 . S
C498 C499 1.390 . S
C499 C498 1.390 . S
C499 C500 1.394 . S
C499 C505 1.465 . S
C500 C495 1.399 . S
C500 C499 1.394 . S
C500 C501 1.516 . S
C501 C500 1.516 . S
C501 C502 1.502 . S
C501 C503 1.561 . S
C501 C504 1.526 . S
C502 H486 0.959 . S
C502 H487 0.959 . S
C502 H488 0.961 . S
C502 C501 1.502 . S
C503 H489 0.960 . S
C503 H490 0.961 . S
C503 H491 0.959 . S
C503 C501 1.561 . S
C504 C501 1.526 . S
C504 C505 1.396 . S
C504 C509 1.390 . S
C505 C499 1.465 . S
C505 C504 1.396 . S
C505 C506 1.399 . S
C506 H492 0.929 . S
C506 C505 1.399 . S
C506 C507 1.385 . S
C507 H493 0.931 . S
C507 C506 1.385 . S
C507 C508 1.389 . S
C508 C507 1.389 . S
C508 C509 1.387 . S
C509 H494 0.930 . S
C509 C504 1.390 . S
C509 C508 1.387 . S
H510 C522 0.930 . S
H511 C524 0.930 1_556 S
H512 C525 0.930 . S
H513 C529 0.959 . S
H514 C529 0.959 . S
H515 C529 0.961 . S
H516 C530 0.960 . S
H517 C530 0.961 1_655 S
H518 C530 0.959 . S
H519 C533 0.929 . S
H520 C534 0.929 1_556 S
H521 C536 0.930 . S
C522 H510 0.930 . S
C522 C523 1.399 . S
C522 C527 1.399 . S
C523 C522 1.399 . S
C523 C524 1.376 . S
C524 H511 0.930 1_554 S
C524 C523 1.376 . S
C524 C525 1.388 1_554 S
C525 H512 0.930 . S
C525 C524 1.388 1_556 S
C525 C526 1.390 1_556 S
C526 C525 1.390 1_554 S
C526 C527 1.394 . S
C526 C532 1.465 . S
C527 C522 1.399 . S
C527 C526 1.394 . S
C527 C528 1.516 1_455 S
C528 C527 1.516 1_655 S
C528 C529 1.502 . S
C528 C530 1.561 1_655 S
C528 C531 1.526 . S
C529 H513 0.959 . S
C529 H514 0.959 . S
C529 H515 0.961 . S
C529 C528 1.502 . S
C530 H516 0.960 . S
C530 H517 0.961 1_455 S
C530 H518 0.959 . S
C530 C528 1.561 1_455 S
C531 C528 1.526 . S
C531 C532 1.396 1_655 S
C531 C536 1.390 . S
C532 C526 1.465 . S
C532 C531 1.396 1_455 S
C532 C533 1.399 1_554 S
C533 H519 0.929 . S
C533 C532 1.399 1_556 S
C533 C534 1.385 1_456 S
C534 H520 0.929 1_554 S
C534 C533 1.385 1_654 S
C534 C535 1.392 . S
C535 C534 1.392 . S
C535 C536 1.387 . S
C536 H521 0.930 . S
C536 C531 1.390 . S
C536 C535 1.387 . S
H537 C549 0.930 . S
H538 C551 0.930 . S
H539 C552 0.930 . S
H540 C556 0.959 . S
H541 C556 0.959 . S
H542 C556 0.961 . S
H543 C557 0.960 . S
H544 C557 0.961 . S
H545 C557 0.959 . S
H546 C560 0.929 . S
H547 C561 0.931 . S
H548 C563 0.930 . S
C549 H537 0.930 . S
C549 C550 1.399 . S
C549 C554 1.399 . S
C550 C549 1.399 . S
C550 C551 1.376 . S
C551 H538 0.930 . S
C551 C550 1.376 . S
C551 C552 1.388 . S
C552 H539 0.930 . S
C552 C551 1.388 . S
C552 C553 1.390 . S
C553 C552 1.390 . S
C553 C554 1.394 . S
C553 C559 1.465 1_565 S
C554 C549 1.399 . S
C554 C553 1.394 . S
C554 C555 1.516 1_565 S
C555 C554 1.516 1_545 S
C555 C556 1.518 . S
C555 C557 1.545 1_545 S
C555 C558 1.525 . S
C556 H540 0.959 . S
C556 H541 0.959 . S
C556 H542 0.961 . S
C556 C555 1.518 . S
C557 H543 0.960 . S
C557 H544 0.961 . S
C557 H545 0.959 . S
C557 C555 1.545 1_565 S
C558 C555 1.525 . S
C558 C559 1.396 . S
C558 C563 1.390 . S
C559 C553 1.465 1_545 S
C559 C558 1.396 . S
C559 C560 1.399 . S
C560 H546 0.929 . S
C560 C559 1.399 . S
C560 C561 1.385 . S
C561 H547 0.931 . S
C561 C560 1.385 . S
C561 C562 1.389 . S
C562 C561 1.389 . S
C562 C563 1.387 . S
C563 H548 0.930 . S
C563 C558 1.390 . S
C563 C562 1.387 . S
H564 C576 0.930 . S
H565 C578 0.930 . S
H566 C579 0.930 . S
H567 C583 0.959 . S
H568 C583 0.959 . S
H569 C583 0.961 . S
H570 C584 0.960 . S
H571 C584 0.961 . S
H572 C584 0.959 . S
H573 C587 0.929 . S
H574 C588 0.931 . S
H575 C590 0.930 . S
C576 H564 0.930 . S
C576 C577 1.399 . S
C576 C581 1.399 . S
C577 C576 1.399 . S
C577 C578 1.376 . S
C578 H565 0.930 . S
C578 C577 1.376 . S
C578 C579 1.388 . S
C579 H566 0.930 . S
C579 C578 1.388 . S
C579 C580 1.390 . S
C580 C579 1.390 . S
C580 C581 1.394 . S
C580 C586 1.465 . S
C581 C576 1.399 . S
C581 C580 1.394 . S
C581 C582 1.516 . S
C582 C581 1.516 . S
C582 C583 1.502 . S
C582 C584 1.561 . S
C582 C585 1.526 . S
C583 H567 0.959 . S
C583 H568 0.959 . S
C583 H569 0.961 . S
C583 C582 1.502 . S
C584 H570 0.960 . S
C584 H571 0.961 . S
C584 H572 0.959 . S
C584 C582 1.561 . S
C585 C582 1.526 . S
C585 C586 1.396 . S
C585 C590 1.390 . S
C586 C580 1.465 . S
C586 C585 1.396 . S
C586 C587 1.399 . S
C587 H573 0.929 . S
C587 C586 1.399 . S
C587 C588 1.385 . S
C588 H574 0.931 . S
C588 C587 1.385 . S
C588 C589 1.389 . S
C589 C588 1.389 . S
C589 C590 1.387 . S
C590 H575 0.930 . S
C590 C585 1.390 . S
C590 C589 1.387 . S
H591 C603 0.930 . S
H592 C605 0.930 . S
H593 C606 0.930 . S
H594 C610 0.959 . S
H595 C610 0.959 . S
H596 C610 0.961 . S
H597 C611 0.960 . S
H598 C611 0.961 . S
H599 C611 0.959 1_655 S
H600 C614 0.929 . S
H601 C615 0.931 . S
H602 C617 0.930 . S
C603 H591 0.930 . S
C603 C604 1.399 1_455 S
C603 C608 1.399 . S
C604 C603 1.399 1_655 S
C604 C605 1.376 . S
C605 H592 0.930 . S
C605 C604 1.376 . S
C605 C606 1.388 . S
C606 H593 0.930 . S
C606 C605 1.388 . S
C606 C607 1.390 1_655 S
C607 C606 1.390 1_455 S
C607 C608 1.394 . S
C607 C613 1.465 . S
C608 C603 1.399 . S
C608 C607 1.394 . S
C608 C609 1.516 . S
C609 C608 1.516 . S
C609 C610 1.502 . S
C609 C611 1.561 . S
C609 C612 1.526 . S
C610 H594 0.959 . S
C610 H595 0.959 . S
C610 H596 0.961 . S
C610 C609 1.502 . S
C611 H597 0.960 . S
C611 H598 0.961 . S
C611 H599 0.959 1_455 S
C611 C609 1.561 . S
C612 C609 1.526 . S
C612 C613 1.396 . S
C612 C617 1.390 . S
C613 C607 1.465 . S
C613 C612 1.396 . S
C613 C614 1.399 . S
C614 H600 0.929 . S
C614 C613 1.399 . S
C614 C615 1.385 . S
C615 H601 0.931 . S
C615 C614 1.385 . S
C615 C616 1.389 . S
C616 C615 1.389 . S
C616 C617 1.387 . S
C617 H602 0.930 . S
C617 C612 1.390 . S
C617 C616 1.387 . S
H618 C630 0.930 . S
H619 C632 0.930 . S
H620 C633 0.930 . S
H621 C637 0.959 . S
H622 C637 0.959 . S
H623 C637 0.961 . S
H624 C638 0.960 . S
H625 C638 0.961 . S
H626 C638 0.959 . S
H627 C641 0.929 . S
H628 C642 0.931 . S
H629 C644 0.930 . S
C630 H618 0.930 . S
C630 C631 1.399 . S
C630 C635 1.399 1_565 S
C631 C630 1.399 . S
C631 C632 1.376 1_565 S
C632 H619 0.930 . S
C632 C631 1.376 1_545 S
C632 C633 1.388 . S
C633 H620 0.930 . S
C633 C632 1.388 . S
C633 C634 1.390 . S
C634 C633 1.390 . S
C634 C635 1.394 . S
C634 C640 1.465 . S
C635 C630 1.399 1_545 S
C635 C634 1.394 . S
C635 C636 1.516 . S
C636 C635 1.516 . S
C636 C637 1.502 . S
C636 C638 1.561 1_545 S
C636 C639 1.526 . S
C637 H621 0.959 . S
C637 H622 0.959 . S
C637 H623 0.961 . S
C637 C636 1.502 . S
C638 H624 0.960 . S
C638 H625 0.961 . S
C638 H626 0.959 . S
C638 C636 1.561 1_565 S
C639 C636 1.526 . S
C639 C640 1.396 . S
C639 C644 1.390 . S
C640 C634 1.465 . S
C640 C639 1.396 . S
C640 C641 1.399 . S
C641 H627 0.929 . S
C641 C640 1.399 . S
C641 C642 1.385 . S
C642 H628 0.931 . S
C642 C641 1.385 . S
C642 C643 1.389 . S
C643 C642 1.389 . S
C643 C644 1.387 . S
C644 H629 0.930 . S
C644 C639 1.390 . S
C644 C643 1.387 . S
H645 C657 0.930 . S
H646 C659 0.930 . S
H647 C660 0.930 . S
H648 C664 0.959 . S
H649 C664 0.959 . S
H650 C664 0.961 . S
H651 C665 0.960 . S
H652 C665 0.961 . S
H653 C665 0.959 . S
H654 C668 0.929 . S
H655 C669 0.931 . S
H656 C671 0.930 . S
C657 H645 0.930 . S
C657 C658 1.399 . S
C657 C662 1.399 . S
C658 C657 1.399 . S
C658 C659 1.376 . S
C659 H646 0.930 . S
C659 C658 1.376 . S
C659 C660 1.388 . S
C660 H647 0.930 . S
C660 C659 1.388 . S
C660 C661 1.390 . S
C661 C660 1.390 . S
C661 C662 1.394 . S
C661 C667 1.465 . S
C662 C657 1.399 . S
C662 C661 1.394 . S
C662 C663 1.516 . S
C663 C662 1.516 . S
C663 C664 1.502 . S
C663 C665 1.561 . S
C663 C666 1.526 . S
C664 H648 0.959 . S
C664 H649 0.959 . S
C664 H650 0.961 . S
C664 C663 1.502 . S
C665 H651 0.960 . S
C665 H652 0.961 . S
C665 H653 0.959 . S
C665 C663 1.561 . S
C666 C663 1.526 . S
C666 C667 1.396 . S
C666 C671 1.390 . S
C667 C661 1.465 . S
C667 C666 1.396 . S
C667 C668 1.399 . S
C668 H654 0.929 . S
C668 C667 1.399 . S
C668 C669 1.385 . S
C669 H655 0.931 . S
C669 C668 1.385 . S
C669 C670 1.389 . S
C670 C669 1.389 . S
C670 C671 1.387 . S
C671 H656 0.930 . S
C671 C666 1.390 . S
C671 C670 1.387 . S
H672 C684 0.930 . S
H673 C686 0.930 . S
H674 C687 0.930 . S
H675 C691 0.959 1_655 S
H676 C691 0.959 . S
H677 C691 0.961 . S
H678 C692 0.960 . S
H679 C692 0.961 . S
H680 C692 0.959 . S
H681 C695 0.929 . S
H682 C696 0.931 . S
H683 C698 0.930 . S
C684 H672 0.930 . S
C684 C685 1.399 . S
C684 C689 1.399 1_455 S
C685 C684 1.399 . S
C685 C686 1.376 1_455 S
C686 H673 0.930 . S
C686 C685 1.376 1_655 S
C686 C687 1.388 . S
C687 H674 0.930 . S
C687 C686 1.388 . S
C687 C688 1.390 . S
C688 C687 1.390 . S
C688 C689 1.394 . S
C688 C694 1.465 . S
C689 C684 1.399 1_655 S
C689 C688 1.394 . S
C689 C690 1.518 . S
C690 C689 1.518 . S
C690 C691 1.509 1_655 S
C690 C692 1.541 1_655 S
C690 C693 1.537 . S
C691 H675 0.959 1_455 S
C691 H676 0.959 . S
C691 H677 0.961 . S
C691 C690 1.509 1_455 S
C692 H678 0.960 . S
C692 H679 0.961 . S
C692 H680 0.959 . S
C692 C690 1.541 1_455 S
C693 C690 1.537 . S
C693 C694 1.396 . S
C693 C698 1.390 . S
C694 C688 1.465 . S
C694 C693 1.396 . S
C694 C695 1.399 . S
C695 H681 0.929 . S
C695 C694 1.399 . S
C695 C696 1.385 . S
C696 H682 0.931 . S
C696 C695 1.385 . S
C696 C697 1.389 . S
C697 C696 1.389 . S
C697 C698 1.387 . S
C698 H683 0.930 . S
C698 C693 1.390 . S
C698 C697 1.387 . S
H699 C711 0.930 . S
H700 C713 0.930 . S
H701 C714 0.930 . S
H702 C718 0.959 1_565 S
H703 C718 0.959 . S
H704 C718 0.961 . S
H705 C719 0.960 . S
H706 C719 0.961 . S
H707 C719 0.959 . S
H708 C722 0.929 . S
H709 C723 0.931 . S
H710 C725 0.930 . S
C711 H699 0.930 . S
C711 C712 1.399 . S
C711 C716 1.399 1_545 S
C712 C711 1.399 . S
C712 C713 1.376 1_545 S
C713 H700 0.930 . S
C713 C712 1.376 1_565 S
C713 C714 1.388 . S
C714 H701 0.930 . S
C714 C713 1.388 . S
C714 C715 1.390 . S
C715 C714 1.390 . S
C715 C716 1.394 . S
C715 C721 1.465 . S
C716 C711 1.399 1_565 S
C716 C715 1.394 . S
C716 C717 1.516 . S
C717 C716 1.516 . S
C717 C718 1.502 1_565 S
C717 C719 1.561 1_565 S
C717 C720 1.526 . S
C718 H702 0.959 1_545 S
C718 H703 0.959 . S
C718 H704 0.961 . S
C718 C717 1.502 1_545 S
C719 H705 0.960 . S
C719 H706 0.961 . S
C719 H707 0.959 . S
C719 C717 1.561 1_545 S
C720 C717 1.526 . S
C720 C721 1.396 . S
C720 C725 1.390 . S
C721 C715 1.465 . S
C721 C720 1.396 . S
C721 C722 1.399 . S
C722 H708 0.929 . S
C722 C721 1.399 . S
C722 C723 1.385 . S
C723 H709 0.931 . S
C723 C722 1.385 . S
C723 C724 1.389 . S
C724 C723 1.389 . S
C724 C725 1.387 . S
C725 H710 0.930 . S
C725 C720 1.390 . S
C725 C724 1.387 . S
C253 C179 1.182 . S
C265 C6 1.175 . S
C280 C219 1.193 . S
C292 C46 1.178 . S
C307 C19 1.155 . S
C319 C86 1.177 . S
C334 C59 1.161 . S
C346 C126 1.183 . S
C361 C99 1.153 . S
C373 C166 1.181 . S
C388 C139 1.154 . S
C400 C206 1.181 . S
C415 C9 0.824 . S
C427 C129 0.947 . S
C442 C169 0.918 . S
C454 C49 0.950 . S
C469 C209 0.818 . S
C481 C89 0.953 . S
C496 C98 0.996 . S
C508 C218 1.008 . S
C523 C18 0.996 . S
C535 C138 1.013 . S
C550 C178 0.997 . S
C562 C58 1.007 . S
C577 C210 1.293 . S
C589 C15 1.309 . S
C604 C55 1.248 . S
C616 C10 1.309 . S
C631 C95 1.240 . S
C643 C50 1.301 . S
C658 C90 1.304 . S
C670 C135 1.241 . S
C685 C175 1.246 . S
C697 C130 1.297 . S
C712 C215 1.245 . S
C724 C170 1.297 . S
