# Generated by pormake.
# Topology wju, (5)-cn, num edge types: 1
# Building blocks:
#     Node 0, Type 0, BuildingBlock: BEQFEK_clean_sbu_0, # of connection points: 5
#     Node 1, Type 0, BuildingBlock: BEQFEK_clean_sbu_0, # of connection points: 5
#     Node 2, Type 0, BuildingBlock: BEQFEK_clean_sbu_0, # of connection points: 5
#     Node 3, Type 0, BuildingBlock: BEQFEK_clean_sbu_0, # of connection points: 5
#     Node 4, Type 0, BuildingBlock: BEQFEK_clean_sbu_0, # of connection points: 5
#     Node 5, Type 0, BuildingBlock: BEQFEK_clean_sbu_0, # of connection points: 5
#     Node 6, Type 0, BuildingBlock: BEQFEK_clean_sbu_0, # of connection points: 5
#     Node 7, Type 0, BuildingBlock: BEQFEK_clean_sbu_0, # of connection points: 5
#     Node 8, Type 0, BuildingBlock: BEQFEK_clean_sbu_0, # of connection points: 5
#     Node 9, Type 0, BuildingBlock: BEQFEK_clean_sbu_0, # of connection points: 5
#     Node 10, Type 0, BuildingBlock: BEQFEK_clean_sbu_0, # of connection points: 5
#     Node 11, Type 0, BuildingBlock: BEQFEK_clean_sbu_0, # of connection points: 5
#     Edge 12, Type (0, 0), BuildingBlock: XIVTED_clean_linker_0, # of connection points: 2
#     Edge 13, Type (0, 0), BuildingBlock: XIVTED_clean_linker_0, # of connection points: 2
#     Edge 14, Type (0, 0), BuildingBlock: XIVTED_clean_linker_0, # of connection points: 2
#     Edge 15, Type (0, 0), BuildingBlock: XIVTED_clean_linker_0, # of connection points: 2
#     Edge 16, Type (0, 0), BuildingBlock: XIVTED_clean_linker_0, # of connection points: 2
#     Edge 17, Type (0, 0), BuildingBlock: XIVTED_clean_linker_0, # of connection points: 2
#     Edge 18, Type (0, 0), BuildingBlock: XIVTED_clean_linker_0, # of connection points: 2
#     Edge 19, Type (0, 0), BuildingBlock: XIVTED_clean_linker_0, # of connection points: 2
#     Edge 20, Type (0, 0), BuildingBlock: XIVTED_clean_linker_0, # of connection points: 2
#     Edge 21, Type (0, 0), BuildingBlock: XIVTED_clean_linker_0, # of connection points: 2
#     Edge 22, Type (0, 0), BuildingBlock: XIVTED_clean_linker_0, # of connection points: 2
#     Edge 23, Type (0, 0), BuildingBlock: XIVTED_clean_linker_0, # of connection points: 2
#     Edge 24, Type (0, 0), BuildingBlock: XIVTED_clean_linker_0, # of connection points: 2
#     Edge 25, Type (0, 0), BuildingBlock: XIVTED_clean_linker_0, # of connection points: 2
#     Edge 26, Type (0, 0), BuildingBlock: XIVTED_clean_linker_0, # of connection points: 2
#     Edge 27, Type (0, 0), BuildingBlock: XIVTED_clean_linker_0, # of connection points: 2
#     Edge 28, Type (0, 0), BuildingBlock: XIVTED_clean_linker_0, # of connection points: 2
#     Edge 29, Type (0, 0), BuildingBlock: XIVTED_clean_linker_0, # of connection points: 2
#     Edge 30, Type (0, 0), BuildingBlock: XIVTED_clean_linker_0, # of connection points: 2
#     Edge 31, Type (0, 0), BuildingBlock: XIVTED_clean_linker_0, # of connection points: 2
#     Edge 32, Type (0, 0), BuildingBlock: XIVTED_clean_linker_0, # of connection points: 2
#     Edge 33, Type (0, 0), BuildingBlock: XIVTED_clean_linker_0, # of connection points: 2
#     Edge 34, Type (0, 0), BuildingBlock: XIVTED_clean_linker_0, # of connection points: 2
#     Edge 35, Type (0, 0), BuildingBlock: XIVTED_clean_linker_0, # of connection points: 2
#     Edge 36, Type (0, 0), BuildingBlock: XIVTED_clean_linker_0, # of connection points: 2
#     Edge 37, Type (0, 0), BuildingBlock: XIVTED_clean_linker_0, # of connection points: 2
#     Edge 38, Type (0, 0), BuildingBlock: XIVTED_clean_linker_0, # of connection points: 2
#     Edge 39, Type (0, 0), BuildingBlock: XIVTED_clean_linker_0, # of connection points: 2
#     Edge 40, Type (0, 0), BuildingBlock: XIVTED_clean_linker_0, # of connection points: 2
#     Edge 41, Type (0, 0), BuildingBlock: XIVTED_clean_linker_0, # of connection points: 2
# Relax obj value: 0.122
# Max RMSD: 0.141
# Mean RMSD: 0.141
data_MOF--net-wju--node1-BEQFEK_clean_sbu_0--edge1-XIVTED_clean_linker_0
_symmetry_space_group_name_H-M    P1
_symmetry_Int_Tables_number       1
_symmetry_cell_setting            triclinic
loop_
_symmetry_equiv_pos_as_xyz
'x, y, z'
_cell_length_a     27.317227
_cell_length_b     27.307338
_cell_length_c     111.93434
_cell_angle_alpha  89.939039
_cell_angle_beta   90.11692
_cell_angle_gamma 120.01796
loop_
_atom_site_label
_atom_site_type_symbol
_atom_site_fract_x
_atom_site_fract_y
_atom_site_fract_z
_atom_type_partial_charge
Co0 Co 0.29179 0.1742 0.11228 0.0
Co1 Co 0.2945 0.1664 0.0841 0.0
C2 C 0.18596 0.11285 0.09777 0.0
O3 O 0.21148 0.12985 0.10772 0.0
O4 O 0.21296 0.12485 0.08795 0.0
C5 C 0.25861 0.13225 0.13608 0.0
O6 O 0.21635 0.09025 0.13041 0.0
C7 C 0.2708 0.10858 0.06094 0.0
C8 C 0.33603 0.1738 0.04927 0.0
C9 C 0.29138 0.11858 0.04931 0.0
N10 N 0.30241 0.15543 0.06746 0.0
N11 N 0.3412 0.19431 0.06043 0.0
C12 C 0.2194 0.05755 0.06571 0.0
H13 H 0.18554 0.06819 0.0669 0.0
H14 H 0.22882 0.04632 0.07462 0.0
H15 H 0.20313 0.02075 0.05964 0.0
C16 C 0.36257 0.12121 0.1102 0.0
N17 N 0.33186 0.14208 0.10528 0.0
N18 N 0.33325 0.13869 0.09355 0.0
C19 C 0.36514 0.11559 0.09065 0.0
C20 C 0.38463 0.10383 0.1011 0.0
C21 C 0.37254 0.12043 0.12333 0.0
H22 H 0.38503 0.16242 0.12722 0.0
H23 H 0.33269 0.08863 0.12767 0.0
H24 H 0.40609 0.10991 0.12524 0.0
O25 O 0.32556 0.25334 0.10692 0.0
O26 O 0.32815 0.24857 0.08711 0.0
H27 H 0.39412 0.14215 0.07279 0.0
H28 H 0.40159 0.08325 0.07779 0.0
C29 C 0.37444 0.10268 0.07813 0.0
H30 H 0.33313 0.07278 0.07405 0.0
H31 H 0.37128 0.23485 0.06325 0.0
O32 O 0.29666 0.17316 0.13008 0.0
C33 C 0.33827 0.27716 0.09671 0.0
Co34 Co 0.11992 0.31033 0.44496 0.0
Co35 Co 0.12932 0.31323 0.4168 0.0
C36 C 0.05681 0.20561 0.42995 0.0
O37 O 0.0696 0.23098 0.43998 0.0
O38 O 0.07643 0.23247 0.42021 0.0
C39 C 0.11683 0.26819 0.4686 0.0
O40 O 0.10309 0.22134 0.46277 0.0
C41 C 0.15407 0.28479 0.39304 0.0
C42 C 0.17588 0.3621 0.38275 0.0
C43 C 0.1722 0.30973 0.3819 0.0
N44 N 0.14754 0.32086 0.40014 0.0
N45 N 0.15988 0.36664 0.39387 0.0
C46 C 0.14923 0.2306 0.39732 0.0
H47 H 0.15561 0.23186 0.40713 0.0
H48 H 0.18069 0.22259 0.3928 0.0
H49 H 0.10633 0.19521 0.3952 0.0
C50 C 0.24356 0.36029 0.44277 0.0
N51 N 0.19163 0.33771 0.4379 0.0
N52 N 0.19589 0.33911 0.42617 0.0
C53 C 0.25088 0.36278 0.42321 0.0
C54 C 0.28272 0.37695 0.43361 0.0
C55 C 0.25532 0.36966 0.45588 0.0
H56 H 0.23304 0.39078 0.45962 0.0
H57 H 0.23858 0.32813 0.46039 0.0
H58 H 0.3012 0.3959 0.45778 0.0
O59 O 0.08915 0.35933 0.44011 0.0
O60 O 0.09476 0.36058 0.42029 0.0
H61 H 0.26095 0.39964 0.40587 0.0
H62 H 0.31899 0.38958 0.41033 0.0
C63 C 0.27252 0.3713 0.41066 0.0
H64 H 0.25264 0.33004 0.406 0.0
H65 H 0.15911 0.40178 0.3973 0.0
O66 O 0.12646 0.31214 0.46277 0.0
C67 C 0.08196 0.37606 0.42997 0.0
Co68 Co 0.80519 0.11899 0.77889 0.0
Co69 Co 0.81126 0.12627 0.75077 0.0
C70 C 0.86998 0.07744 0.76499 0.0
O71 O 0.85285 0.0861 0.77489 0.0
O72 O 0.85577 0.08981 0.7551 0.0
C73 C 0.84926 0.13918 0.80274 0.0
O74 O 0.89692 0.15338 0.79721 0.0
C75 C 0.87135 0.16559 0.72795 0.0
C76 C 0.80144 0.14078 0.71507 0.0
C77 C 0.85971 0.16593 0.71589 0.0
N78 N 0.82224 0.14183 0.734 0.0
N79 N 0.78063 0.12725 0.72625 0.0
C80 C 0.92748 0.18281 0.73357 0.0
H81 H 0.92403 0.18011 0.74344 0.0
H82 H 0.95893 0.22673 0.73104 0.0
H83 H 0.94312 0.15479 0.73027 0.0
C84 C 0.85619 0.24338 0.77605 0.0
N85 N 0.83473 0.19087 0.77152 0.0
N86 N 0.8366 0.19382 0.75975 0.0
C87 C 0.8589 0.24828 0.75646 0.0
C88 C 0.87259 0.28136 0.76663 0.0
C89 C 0.86435 0.25694 0.7891 0.0
H90 H 0.89888 0.25051 0.79248 0.0
H91 H 0.87589 0.30129 0.79094 0.0
H92 H 0.82507 0.22808 0.79401 0.0
O93 O 0.72608 0.0702 0.77357 0.0
O94 O 0.72954 0.07578 0.75375 0.0
H95 H 0.86894 0.3109 0.74338 0.0
H96 H 0.90399 0.2718 0.73994 0.0
C97 C 0.8652 0.26855 0.74382 0.0
H98 H 0.82822 0.23844 0.73844 0.0
H99 H 0.73793 0.10721 0.72856 0.0
O100 O 0.80465 0.12407 0.79663 0.0
C101 C 0.70163 0.05738 0.76341 0.0
Co102 Co 0.665 0.79896 0.11227 0.0
Co103 Co 0.65957 0.80591 0.08421 0.0
C104 C 0.76884 0.84648 0.09731 0.0
O105 O 0.74444 0.83301 0.10741 0.0
O106 O 0.74083 0.83743 0.08767 0.0
C107 C 0.69941 0.84274 0.13595 0.0
O108 O 0.73668 0.88821 0.13022 0.0
C109 C 0.68714 0.86614 0.06135 0.0
C110 C 0.62357 0.80259 0.04914 0.0
C111 C 0.669 0.8575 0.0495 0.0
N112 N 0.6541 0.81868 0.06757 0.0
N113 N 0.61636 0.78077 0.06022 0.0
C114 C 0.7323 0.91933 0.06702 0.0
H115 H 0.72519 0.9187 0.07679 0.0
H116 H 0.73311 0.95692 0.06301 0.0
H117 H 0.77397 0.92253 0.06558 0.0
C118 C 0.60928 0.86814 0.11053 0.0
N119 N 0.63305 0.84024 0.10553 0.0
N120 N 0.63027 0.84279 0.0938 0.0
C121 C 0.60448 0.87233 0.09099 0.0
C122 C 0.5909 0.88967 0.10147 0.0
C123 C 0.60602 0.87541 0.12371 0.0
H124 H 0.6491 0.90438 0.12716 0.0
H125 H 0.5791 0.89382 0.12593 0.0
H126 H 0.58939 0.834 0.12825 0.0
O127 O 0.62016 0.7196 0.10709 0.0
O128 O 0.61553 0.7234 0.08731 0.0
H129 H 0.55562 0.89186 0.07861 0.0
H130 H 0.627 0.91437 0.07409 0.0
C131 C 0.58911 0.88016 0.07857 0.0
H132 H 0.57388 0.8406 0.07339 0.0
H133 H 0.58544 0.7401 0.06277 0.0
O134 O 0.66389 0.79977 0.13004 0.0
C135 C 0.60288 0.69527 0.09701 0.0
Co136 Co 0.86726 0.68381 0.44448 0.0
Co137 Co 0.85818 0.67948 0.41643 0.0
C138 C 0.90696 0.78861 0.43 0.0
O139 O 0.89879 0.76389 0.44004 0.0
O140 O 0.89452 0.76098 0.42027 0.0
C141 C 0.84537 0.708 0.46811 0.0
O142 O 0.82653 0.73724 0.46235 0.0
C143 C 0.82169 0.70236 0.39359 0.0
C144 C 0.83232 0.64579 0.38112 0.0
C145 C 0.81562 0.68611 0.38165 0.0
N146 N 0.84125 0.67329 0.39972 0.0
N147 N 0.84774 0.63969 0.39221 0.0
C148 C 0.80546 0.74158 0.39938 0.0
H149 H 0.79655 0.7314 0.40901 0.0
H150 H 0.76769 0.73868 0.39496 0.0
H151 H 0.84107 0.78564 0.39861 0.0
C152 C 0.74285 0.6076 0.44204 0.0
N153 N 0.79493 0.6395 0.43738 0.0
N154 N 0.79119 0.638 0.42562 0.0
C155 C 0.73659 0.60528 0.42247 0.0
C156 C 0.70429 0.58545 0.43274 0.0
C157 C 0.73003 0.60128 0.45513 0.0
H158 H 0.73175 0.64029 0.45848 0.0
H159 H 0.68736 0.56521 0.45704 0.0
H160 H 0.76194 0.59513 0.45999 0.0
O161 O 0.91638 0.65369 0.43939 0.0
O162 O 0.90921 0.64878 0.41959 0.0
H163 H 0.67203 0.55468 0.4095 0.0
H164 H 0.71512 0.62852 0.40586 0.0
C165 C 0.71553 0.59161 0.40987 0.0
H166 H 0.74387 0.58208 0.40454 0.0
H167 H 0.86242 0.61241 0.39467 0.0
O168 O 0.86381 0.68079 0.46222 0.0
C169 C 0.9285 0.64075 0.42932 0.0
Co170 Co 0.18187 0.86626 0.77841 0.0
Co171 Co 0.17279 0.85799 0.75024 0.0
C172 C 0.13788 0.9288 0.76434 0.0
O173 O 0.14963 0.91441 0.77427 0.0
O174 O 0.14648 0.91127 0.75448 0.0
C175 C 0.13776 0.84878 0.80224 0.0
O176 O 0.09018 0.83512 0.79669 0.0
C177 C 0.11435 0.83137 0.72665 0.0
C178 C 0.17442 0.82006 0.71545 0.0
C179 C 0.12239 0.81731 0.71515 0.0
N180 N 0.15904 0.84068 0.73345 0.0
N181 N 0.19491 0.83428 0.72664 0.0
C182 C 0.06569 0.83725 0.731 0.0
H183 H 0.07839 0.86698 0.73857 0.0
H184 H 0.03135 0.7956 0.73413 0.0
H185 H 0.04892 0.85234 0.72371 0.0
C186 C 0.11137 0.74149 0.77593 0.0
N187 N 0.13836 0.79408 0.7713 0.0
N188 N 0.134 0.79071 0.75955 0.0
C189 C 0.10384 0.73582 0.75638 0.0
C190 C 0.08843 0.7031 0.76665 0.0
C191 C 0.11238 0.72782 0.78885 0.0
H192 H 0.15377 0.75805 0.79287 0.0
H193 H 0.07859 0.73104 0.79363 0.0
H194 H 0.10477 0.68417 0.79 0.0
O195 O 0.26072 0.89916 0.77299 0.0
O196 O 0.25536 0.89248 0.75318 0.0
H197 H 0.12984 0.72993 0.73867 0.0
H198 H 0.0644 0.66847 0.74322 0.0
C199 C 0.09011 0.71517 0.74376 0.0
H200 H 0.06572 0.7329 0.73955 0.0
H201 H 0.23314 0.83892 0.72967 0.0
O202 O 0.18199 0.86236 0.79615 0.0
C203 C 0.28416 0.90614 0.76282 0.0
Co204 Co 0.7997 0.67776 0.58129 0.0
Co205 Co 0.80769 0.67467 0.6094 0.0
C206 C 0.84394 0.78247 0.59585 0.0
O207 O 0.83175 0.7575 0.58579 0.0
O208 O 0.83528 0.75512 0.60555 0.0
C209 C 0.84211 0.71072 0.55754 0.0
O210 O 0.88731 0.74919 0.56317 0.0
C211 C 0.86992 0.70338 0.63234 0.0
C212 C 0.80548 0.64102 0.64456 0.0
C213 C 0.86092 0.68524 0.64418 0.0
N214 N 0.82223 0.67088 0.62607 0.0
N215 N 0.78395 0.63379 0.63346 0.0
C216 C 0.92186 0.75242 0.62715 0.0
H217 H 0.91261 0.76554 0.61849 0.0
H218 H 0.95422 0.74005 0.62551 0.0
H219 H 0.93978 0.78865 0.63345 0.0
C220 C 0.87205 0.62547 0.58327 0.0
N221 N 0.84324 0.64855 0.58815 0.0
N222 N 0.84597 0.64654 0.5999 0.0
C223 C 0.87625 0.62164 0.60282 0.0
C224 C 0.89423 0.60824 0.59241 0.0
C225 C 0.87901 0.62119 0.57011 0.0
H226 H 0.90699 0.66413 0.56649 0.0
H227 H 0.89838 0.59497 0.56804 0.0
H228 H 0.83733 0.60313 0.56561 0.0
O229 O 0.72069 0.63138 0.58666 0.0
O230 O 0.72512 0.62776 0.60646 0.0
H231 H 0.89444 0.57188 0.61521 0.0
H232 H 0.91741 0.64317 0.61983 0.0
C233 C 0.88317 0.60568 0.61525 0.0
H234 H 0.84341 0.59057 0.62033 0.0
H235 H 0.74298 0.60352 0.63091 0.0
O236 O 0.79973 0.67497 0.56355 0.0
C237 C 0.69674 0.61397 0.59677 0.0
Co238 Co 0.12021 0.80003 0.91542 0.0
Co239 Co 0.12845 0.81064 0.94351 0.0
C240 C 0.05868 0.84642 0.92959 0.0
O241 O 0.07277 0.83338 0.91978 0.0
O242 O 0.07591 0.83837 0.93958 0.0
C243 C 0.14119 0.84646 0.89175 0.0
O244 O 0.15897 0.89446 0.89746 0.0
C245 C 0.14646 0.85966 0.96782 0.0
C246 C 0.18716 0.81743 0.97691 0.0
C247 C 0.17172 0.85819 0.97851 0.0
N248 N 0.14839 0.82265 0.96017 0.0
N249 N 0.17202 0.79698 0.96574 0.0
C250 C 0.11843 0.89337 0.96499 0.0
H251 H 0.14222 0.92429 0.95782 0.0
H252 H 0.11485 0.91552 0.97294 0.0
H253 H 0.07524 0.8643 0.96164 0.0
C254 C 0.24512 0.8704 0.91792 0.0
N255 N 0.19248 0.84287 0.92249 0.0
N256 N 0.19518 0.85132 0.93411 0.0
C257 C 0.24929 0.88719 0.93719 0.0
C258 C 0.28293 0.89986 0.92708 0.0
C259 C 0.25932 0.86402 0.90532 0.0
H260 H 0.22685 0.82273 0.90161 0.0
H261 H 0.26088 0.89844 0.89977 0.0
H262 H 0.30127 0.8669 0.90487 0.0
O263 O 0.08683 0.7212 0.92068 0.0
O264 O 0.09359 0.72755 0.94045 0.0
H265 H 0.27096 0.88229 0.95536 0.0
H266 H 0.3089 0.95258 0.94908 0.0
C267 C 0.26754 0.9128 0.94936 0.0
H268 H 0.2359 0.92262 0.95306 0.0
H269 H 0.17939 0.76667 0.96178 0.0
O270 O 0.12391 0.80104 0.89768 0.0
C271 C 0.0798 0.69819 0.9309 0.0
Co272 Co 0.30388 0.12237 0.24926 0.0
Co273 Co 0.30661 0.13091 0.27743 0.0
C274 C 0.19911 0.05873 0.26418 0.0
O275 O 0.2246 0.07185 0.25418 0.0
O276 O 0.22584 0.07806 0.27394 0.0
C277 C 0.2615 0.12031 0.22572 0.0
O278 O 0.21516 0.10748 0.23165 0.0
C279 C 0.27773 0.15513 0.30117 0.0
C280 C 0.35451 0.17623 0.31161 0.0
C281 C 0.30224 0.17277 0.31237 0.0
N282 N 0.31394 0.14864 0.29412 0.0
N283 N 0.3594 0.16056 0.30047 0.0
C284 C 0.22387 0.15078 0.29679 0.0
H285 H 0.22562 0.15762 0.287 0.0
H286 H 0.21586 0.18217 0.30135 0.0
H287 H 0.18826 0.10784 0.29879 0.0
C288 C 0.35415 0.24601 0.25165 0.0
N289 N 0.33123 0.19391 0.25643 0.0
N290 N 0.33259 0.19783 0.26817 0.0
C291 C 0.35661 0.25278 0.27122 0.0
C292 C 0.37102 0.28495 0.26087 0.0
C293 C 0.36386 0.25812 0.23856 0.0
H294 H 0.38466 0.23558 0.2348 0.0
H295 H 0.32248 0.2419 0.23401 0.0
H296 H 0.3905 0.30404 0.23674 0.0
O297 O 0.3529 0.09153 0.25403 0.0
O298 O 0.35408 0.0965 0.27386 0.0
H299 H 0.3936 0.26201 0.28853 0.0
H300 H 0.38425 0.32066 0.28422 0.0
C301 C 0.36552 0.27412 0.28381 0.0
H302 H 0.32436 0.25449 0.28848 0.0
H303 H 0.39457 0.15973 0.29708 0.0
O304 O 0.30545 0.12919 0.23146 0.0
C305 C 0.36962 0.08405 0.26415 0.0
Co306 Co 0.17445 0.30418 0.58202 0.0
Co307 Co 0.16798 0.30834 0.61017 0.0
C308 C 0.11269 0.19905 0.59665 0.0
O309 O 0.12953 0.22391 0.58664 0.0
O310 O 0.12557 0.22671 0.60639 0.0
C311 C 0.13189 0.26998 0.55827 0.0
O312 O 0.09015 0.22787 0.564 0.0
C313 C 0.10963 0.28341 0.63317 0.0
C314 C 0.17531 0.34525 0.64529 0.0
C315 C 0.11972 0.30119 0.64502 0.0
N316 N 0.15701 0.31517 0.62683 0.0
N317 N 0.19619 0.35195 0.63413 0.0
C318 C 0.05498 0.2401 0.62764 0.0
H319 H 0.05428 0.24883 0.61797 0.0
H320 H 0.01864 0.23981 0.63212 0.0
H321 H 0.05065 0.19768 0.62859 0.0
C322 C 0.12159 0.37522 0.58407 0.0
N323 N 0.14295 0.345 0.58902 0.0
N324 N 0.14053 0.34742 0.60074 0.0
C325 C 0.11787 0.37974 0.60363 0.0
C326 C 0.10498 0.39813 0.59315 0.0
C327 C 0.1194 0.38373 0.57091 0.0
H328 H 0.16105 0.3961 0.56687 0.0
H329 H 0.0874 0.3433 0.56678 0.0
H330 H 0.10839 0.41687 0.56892 0.0
O331 O 0.2539 0.33773 0.58731 0.0
O332 O 0.25 0.34131 0.60711 0.0
H333 H 0.14611 0.40777 0.62148 0.0
H334 H 0.09024 0.4203 0.61655 0.0
C335 C 0.10664 0.39057 0.61616 0.0
H336 H 0.07481 0.35015 0.62026 0.0
H337 H 0.23712 0.38172 0.6315 0.0
O338 O 0.17288 0.3084 0.5642 0.0
C339 C 0.27817 0.3508 0.59748 0.0
Co340 Co 0.86682 0.17908 0.91603 0.0
Co341 Co 0.85362 0.1673 0.94401 0.0
C342 C 0.90495 0.11083 0.93015 0.0
O343 O 0.89768 0.12938 0.92027 0.0
O344 O 0.89125 0.12372 0.94001 0.0
C345 C 0.84042 0.1349 0.89229 0.0
O346 O 0.81516 0.08633 0.89799 0.0
C347 C 0.8173 0.1084 0.96717 0.0
C348 C 0.82539 0.17637 0.97914 0.0
C349 C 0.81063 0.11993 0.97893 0.0
N350 N 0.83468 0.15577 0.96067 0.0
N351 N 0.83943 0.19622 0.9679 0.0
C352 C 0.81141 0.05462 0.96233 0.0
H353 H 0.80515 0.05235 0.95251 0.0
H354 H 0.77564 0.01715 0.96655 0.0
H355 H 0.85059 0.05346 0.96435 0.0
C356 C 0.74319 0.13555 0.91782 0.0
N357 N 0.79385 0.15073 0.92274 0.0
N358 N 0.78779 0.14272 0.93438 0.0
C359 C 0.73273 0.12029 0.93717 0.0
C360 C 0.70265 0.11526 0.92676 0.0
C361 C 0.73444 0.14475 0.90499 0.0
H362 H 0.77227 0.18277 0.90147 0.0
H363 H 0.72715 0.10742 0.89968 0.0
H364 H 0.69703 0.15021 0.90394 0.0
O365 O 0.91558 0.25703 0.92175 0.0
O366 O 0.9047 0.25011 0.94146 0.0
H367 H 0.72486 0.13744 0.95551 0.0
H368 H 0.66268 0.07607 0.9496 0.0
C369 C 0.70944 0.10048 0.94945 0.0
H370 H 0.72473 0.07254 0.95288 0.0
H371 H 0.85277 0.23758 0.96517 0.0
O372 O 0.86473 0.18062 0.89827 0.0
C373 C 0.92577 0.27972 0.93206 0.0
Co374 Co 0.67772 0.86978 0.24912 0.0
Co375 Co 0.67308 0.86038 0.27718 0.0
C376 C 0.78233 0.90933 0.26366 0.0
O377 O 0.75778 0.90123 0.2536 0.0
O378 O 0.75455 0.89687 0.27336 0.0
C379 C 0.70178 0.8481 0.22542 0.0
O380 O 0.73131 0.82944 0.23112 0.0
C381 C 0.69183 0.81966 0.30005 0.0
C382 C 0.64649 0.84453 0.31279 0.0
C383 C 0.67956 0.8193 0.31209 0.0
N384 N 0.66675 0.84357 0.29391 0.0
N385 N 0.63949 0.85808 0.30158 0.0
C386 C 0.73097 0.80256 0.29455 0.0
H387 H 0.73147 0.80646 0.28469 0.0
H388 H 0.71754 0.75814 0.29684 0.0
H389 H 0.77427 0.82963 0.29815 0.0
C390 C 0.60104 0.74537 0.25146 0.0
N391 N 0.63327 0.79736 0.25617 0.0
N392 N 0.6314 0.79352 0.26793 0.0
C393 C 0.59789 0.73897 0.27103 0.0
C394 C 0.57812 0.70678 0.26073 0.0
C395 C 0.59497 0.73268 0.23836 0.0
H396 H 0.63424 0.73495 0.23503 0.0
H397 H 0.55925 0.68985 0.2364 0.0
H398 H 0.58849 0.76442 0.23352 0.0
O399 O 0.64759 0.91896 0.25424 0.0
O400 O 0.64258 0.91154 0.27403 0.0
H401 H 0.54426 0.67556 0.28386 0.0
H402 H 0.61822 0.71446 0.2876 0.0
C403 C 0.58294 0.7179 0.28359 0.0
H404 H 0.57576 0.74775 0.28897 0.0
H405 H 0.61712 0.87837 0.29919 0.0
O406 O 0.67457 0.86637 0.23136 0.0
C407 C 0.63462 0.93098 0.26431 0.0
H408 H 0.27529 0.14253 0.02653 0.0
H409 H 0.1698 0.82962 1.00191 0.0
H410 H 0.26683 0.00821 0.0483 0.0
H411 H 0.21024 0.97229 0.97912 0.0
H412 H 0.19794 0.89241 0.01931 0.0
H413 H 0.24455 0.07899 1.00924 0.0
C414 C 0.26642 0.09944 0.02768 0.0
C415 C 0.27178 0.07996 0.03892 0.0
C416 C 0.2001 0.90987 1.01051 0.0
C417 C 0.23715 0.0072 0.01921 0.0
C418 C 0.18394 0.87405 1.00059 0.0
C419 C 0.18593 0.89541 0.98909 0.0
C420 C 0.21883 0.96764 1.00891 0.0
C421 C 0.2056 0.95349 0.98785 0.0
C422 C 0.24892 0.06322 0.01782 0.0
C423 C 0.26078 0.02413 0.0399 0.0
N424 N 0.22109 0.98752 0.99763 0.0
N425 N 0.24374 0.98961 0.03018 0.0
H426 H 0.26422 0.37045 0.36784 0.0
H427 H 0.19491 0.12164 0.32168 0.0
H428 H 0.12122 0.20273 0.37234 0.0
H429 H 0.36243 0.26447 0.3266 0.0
H430 H 0.16193 0.15439 0.33863 0.0
H431 H 0.29556 0.3364 0.35092 0.0
C432 C 0.2394 0.32643 0.36524 0.0
C433 C 0.19051 0.28913 0.37157 0.0
C434 C 0.20588 0.17849 0.33599 0.0
C435 C 0.22572 0.25002 0.35218 0.0
C436 C 0.22459 0.16009 0.32628 0.0
C437 C 0.2813 0.19081 0.32268 0.0
C438 C 0.24406 0.22831 0.34201 0.0
C439 C 0.31834 0.23961 0.3291 0.0
C440 C 0.25744 0.30698 0.35564 0.0
C441 C 0.15979 0.23255 0.36783 0.0
N442 N 0.29899 0.25715 0.33839 0.0
N443 N 0.17777 0.21469 0.35833 0.0
H444 H 0.95665 0.26834 0.71332 0.0
H445 H 0.03422 0.19222 0.64972 0.0
H446 H 0.85132 0.11066 0.69511 0.0
H447 H 0.11881 0.36085 0.66446 0.0
H448 H 0.97084 0.15966 0.66686 0.0
H449 H 0.0211 0.30079 0.69623 0.0
C450 C 0.94775 0.24013 0.70582 0.0
C451 C 0.89949 0.18619 0.70573 0.0
C452 C 0.00295 0.20391 0.6663 0.0
C453 C 0.97206 0.22351 0.68602 0.0
C454 C 0.03883 0.22277 0.65641 0.0
C455 C 0.08087 0.27988 0.65542 0.0
C456 C 0.00962 0.24215 0.67539 0.0
C457 C 0.08664 0.31658 0.66478 0.0
C458 C 0.98411 0.25894 0.696 0.0
C459 C 0.88843 0.15239 0.69554 0.0
N460 N 0.05139 0.29716 0.67436 0.0
N461 N 0.9246 0.17144 0.68611 0.0
H462 H 0.86335 0.13521 1.0004 0.0
H463 H 0.60949 0.85798 0.02999 0.0
H464 H 0.71302 0.01851 0.98112 0.0
H465 H 0.77781 0.94505 0.04493 0.0
H466 H 0.64394 0.92123 1.01275 0.0
H467 H 0.8297 0.07149 0.01773 0.0
C468 C 0.82343 0.09592 0.99983 0.0
C469 C 0.79143 0.08126 0.98929 0.0
C470 C 0.67322 0.9267 0.01986 0.0
C471 C 0.75222 0.0089 1.00904 0.0
C472 C 0.65361 0.89061 0.02972 0.0
C473 C 0.69033 0.89692 0.03915 0.0
C474 C 0.7301 0.96966 0.01937 0.0
C475 C 0.74719 0.9398 0.0382 0.0
C476 C 0.80431 0.0596 1.00968 0.0
C477 C 0.73967 0.0304 0.98899 0.0
N478 N 0.76523 0.97467 0.02853 0.0
N479 N 0.72155 -0.00391 0.99873 0.0
H480 H 0.72473 0.87532 0.3329 0.0
H481 H 0.75752 0.62515 0.3621 0.0
H482 H 0.67764 0.7185 0.31484 0.0
H483 H 0.82928 0.79195 0.37745 0.0
H484 H 0.72412 0.6569 0.3451 0.0
H485 H 0.75801 0.84335 0.34992 0.0
C486 C 0.72176 0.83428 0.33251 0.0
C487 C 0.69986 0.80011 0.32234 0.0
C488 C 0.74684 0.68644 0.35224 0.0
C489 C 0.73717 0.76291 0.34179 0.0
C490 C 0.76596 0.66836 0.36195 0.0
C491 C 0.79497 0.70543 0.37141 0.0
C492 C 0.757 0.74219 0.35194 0.0
C493 C 0.80515 0.7611 0.37066 0.0
C494 C 0.74086 0.8161 0.3422 0.0
C495 C 0.69631 0.74707 0.32231 0.0
N496 N 0.78604 0.77769 0.36113 0.0
N497 N 0.71473 0.73006 0.33189 0.0
H498 H 0.15193 0.83741 0.69165 0.0
H499 H 0.83322 0.68642 0.6675 0.0
H500 H 0.00575 0.75557 0.71455 0.0
H501 H 0.97716 0.73106 0.64483 0.0
H502 H 0.89639 0.71991 0.68479 0.0
H503 H 0.08911 0.80709 0.67425 0.0
C504 C 0.10663 0.81357 0.69304 0.0
C505 C 0.08417 0.80051 0.70463 0.0
C506 C 0.91418 0.72282 0.67601 0.0
C507 C 0.01199 0.76539 0.68474 0.0
C508 C 0.87814 0.7037 0.66612 0.0
C509 C 0.89987 0.70719 0.65459 0.0
C510 C 0.97255 0.74552 0.6744 0.0
C511 C 0.95845 0.72959 0.6534 0.0
C512 C 0.07082 0.79626 0.6831 0.0
C513 C 0.02514 0.7689 0.70587 0.0
N514 N -0.00729 0.74801 0.66317 0.0
N515 N -0.00884 0.75261 0.69607 0.0
H516 H 0.49368 0.86195 0.11338 0.0
H517 H 0.48813 0.13808 0.0915 0.0
H518 H 0.62437 -0.00719 0.09186 0.0
H519 H 0.35859 0.00821 0.1134 0.0
H520 H 0.54189 0.08843 0.09252 0.0
H521 H 0.44618 0.91768 0.11453 0.0
C522 C 0.51254 0.90283 0.10902 0.0
C523 C 0.56292 0.92339 0.1026 0.0
C524 C 0.50186 0.07086 0.09716 0.0
C525 C 0.50889 0.98671 0.10367 0.0
C526 C 0.47131 0.09908 0.09655 0.0
C527 C 0.41898 0.07655 0.10228 0.0
C528 C 0.47963 0.01981 0.10353 0.0
C529 C 0.39891 0.02657 0.10885 0.0
C530 C 0.48545 0.93447 0.10963 0.0
C531 C 0.58542 0.97584 0.09689 0.0
N532 N 0.42915 -0.00047 0.10925 0.0
N533 N 0.55813 0.00578 0.09753 0.0
H534 H 0.3503 0.34551 0.44532 0.0
H535 H 0.63471 0.61938 0.42351 0.0
H536 H 0.35472 0.47957 0.42416 0.0
H537 H 0.63405 0.48413 0.4435 0.0
H538 H 0.53162 0.56995 0.42446 0.0
H539 H 0.45418 0.39724 0.44584 0.0
C540 C 0.37341 0.38604 0.44086 0.0
C541 C 0.34465 0.40842 0.4346 0.0
C542 C 0.55382 0.55099 0.42869 0.0
C543 C 0.46233 0.46738 0.43509 0.0
C544 C 0.61251 0.57913 0.42811 0.0
C545 C 0.6423 0.55562 0.43348 0.0
C546 C 0.52479 0.49884 0.43466 0.0
C547 C 0.61216 0.50365 0.43938 0.0
C548 C 0.43241 0.4154 0.44111 0.0
C549 C 0.37581 0.46087 0.42895 0.0
N550 N 0.55479 0.47678 0.43981 0.0
N551 N 0.43306 0.48853 0.42929 0.0
H552 H -0.00723 0.63634 0.77927 0.0
H553 H 0.97448 0.34967 0.7566 0.0
H554 H 0.11532 0.63018 0.75609 0.0
H555 H 0.84448 0.35301 0.77773 0.0
H556 H 0.02886 0.45286 0.75717 0.0
H557 H 0.94012 0.53257 0.77993 0.0
C558 C 0.00847 0.61286 0.77436 0.0
C559 C 0.05765 0.64112 0.76749 0.0
C560 C -0.01145 0.4312 0.76172 0.0
C561 C -0.0016 0.52346 0.76817 0.0
C562 C 0.95757 0.37246 0.76137 0.0
C563 C 0.90536 0.3434 0.76717 0.0
C564 C 0.96698 0.46099 0.76791 0.0
C565 C 0.88506 0.37431 0.77328 0.0
C566 C 0.97852 0.5539 0.7747 0.0
C567 C 0.07687 0.60948 0.76132 0.0
N568 N 0.91598 0.4317 0.77349 0.0
N569 N 0.04705 0.55221 0.76177 0.0
H570 H 0.00801 0.36909 0.5811 0.0
H571 H -0.0025 0.64359 0.60213 0.0
H572 H 0.13823 0.50257 0.60227 0.0
H573 H 0.86767 0.51026 0.58086 0.0
H574 H 0.05245 0.59514 0.60141 0.0
H575 H 0.95869 0.42306 0.5798 0.0
C576 C 0.02619 0.41003 0.58541 0.0
C577 C 0.07661 0.4315 0.5919 0.0
C578 C 0.01218 0.57664 0.59681 0.0
C579 C 0.02083 0.49313 0.59056 0.0
C580 C 0.98097 0.60421 0.59724 0.0
C581 C 0.92858 0.58082 0.59146 0.0
C582 C -0.0096 0.52514 0.59063 0.0
C583 C 0.90844 0.52982 0.58527 0.0
C584 C -0.00188 0.44072 0.58471 0.0
C585 C 0.09884 0.48451 0.59734 0.0
N586 N 0.93938 0.50347 0.58504 0.0
N587 N 0.07059 0.51353 0.5966 0.0
H588 H 0.63409 0.03931 0.90997 0.0
H589 H 0.36043 0.90212 0.9428 0.0
H590 H 0.6312 0.13512 0.94033 0.0
H591 H 0.34713 0.97622 0.90973 0.0
H592 H 0.46338 0.96264 0.94199 0.0
H593 H 0.53046 0.99194 0.90897 0.0
C594 C 0.61176 0.05096 0.91631 0.0
C595 C 0.64096 0.09049 0.92537 0.0
C596 C 0.43752 0.96541 0.93496 0.0
C597 C 0.52367 0.0357 0.92444 0.0
C598 C 0.37904 0.93136 0.93543 0.0
C599 C 0.34519 0.93476 0.9264 0.0
C600 C 0.46218 0.00158 0.92522 0.0
C601 C 0.37175 0.97192 0.91681 0.0
C602 C 0.55296 0.02387 0.91573 0.0
C603 C 0.61 0.10365 0.93343 0.0
N604 N 0.42908 0.00375 0.91638 0.0
N605 N 0.55266 0.07526 0.93296 0.0
H606 H 0.47398 0.35561 0.27036 0.0
H607 H 0.47709 0.63797 0.24967 0.0
H608 H 0.34089 0.35394 0.24933 0.0
H609 H 0.60938 0.63562 0.27025 0.0
H610 H 0.42709 0.53417 0.24881 0.0
H611 H 0.5255 0.45886 0.26978 0.0
C612 C 0.45581 0.37735 0.26561 0.0
C613 C 0.40321 0.34692 0.25998 0.0
C614 C 0.46716 0.55638 0.25347 0.0
C615 C 0.4615 0.46457 0.25922 0.0
C616 C 0.49562 0.61537 0.25392 0.0
C617 C 0.54728 0.64474 0.25997 0.0
C618 C 0.49072 0.52705 0.25917 0.0
C619 C 0.56944 0.61411 0.26552 0.0
C620 C 0.48511 0.43613 0.26526 0.0
C621 C 0.38145 0.37643 0.2538 0.0
N622 N 0.54102 0.55687 0.26499 0.0
N623 N 0.41062 0.4339 0.25363 0.0
H624 H 0.17045 0.07966 0.21079 0.0
H625 H 0.34867 0.19868 0.15073 0.0
H626 H 0.35288 0.16737 0.21057 0.0
H627 H 0.1744 0.0647 0.15151 0.0
H628 H 0.35074 0.19672 0.17265 0.0
H629 H 0.17071 0.08322 0.18901 0.0
C630 C 0.21063 0.09984 0.20616 0.0
C631 C 0.26174 0.12312 0.21252 0.0
C632 C 0.31217 0.16774 0.16799 0.0
C633 C 0.26229 0.12757 0.18753 0.0
C634 C 0.31087 0.16896 0.1555 0.0
C635 C 0.26125 0.13182 0.14928 0.0
C636 C 0.26328 0.12968 0.17428 0.0
C637 C 0.21361 0.094 0.15592 0.0
C638 C 0.21071 0.10164 0.19372 0.0
C639 C 0.3125 0.1486 0.20602 0.0
N640 N 0.21572 0.09414 0.16804 0.0
N641 N 0.31153 0.15038 0.19386 0.0
H642 H 0.07601 0.17786 0.48372 0.0
H643 H 0.19783 0.35933 0.54343 0.0
H644 H 0.165 0.36039 0.48357 0.0
H645 H 0.06393 0.18494 0.543 0.0
H646 H 0.19511 0.36025 0.5215 0.0
H647 H 0.0804 0.17926 0.5055 0.0
C648 C 0.09663 0.2183 0.48827 0.0
C649 C 0.12002 0.2691 0.48181 0.0
C650 C 0.16631 0.3219 0.52624 0.0
C651 C 0.12543 0.27097 0.5068 0.0
C652 C 0.16797 0.32126 0.53873 0.0
C653 C 0.13106 0.27196 0.54505 0.0
C654 C 0.12806 0.27266 0.52004 0.0
C655 C 0.09306 0.22394 0.53851 0.0
C656 C 0.09891 0.21904 0.50072 0.0
C657 C 0.14611 0.32023 0.48821 0.0
N658 N 0.09277 0.22542 0.52639 0.0
N659 N 0.14834 0.31989 0.50036 0.0
H660 H 0.93742 0.19967 0.81804 0.0
H661 H 0.7663 0.05289 0.87708 0.0
H662 H 0.7577 0.08269 0.81744 0.0
H663 H 0.91328 0.22003 0.87749 0.0
H664 H 0.76717 0.05543 0.85519 0.0
H665 H 0.93438 0.20036 0.83992 0.0
C666 C 0.89735 0.17412 0.82251 0.0
C667 C 0.84773 0.14103 0.81593 0.0
C668 C 0.79905 0.09158 0.86009 0.0
C669 C 0.84417 0.14112 0.8409 0.0
C670 C 0.79878 0.09007 0.87256 0.0
C671 C 0.83983 0.13631 0.8791 0.0
C672 C 0.8414 0.13914 0.85412 0.0
C673 C 0.88074 0.18356 0.87279 0.0
C674 C 0.89563 0.17476 0.83498 0.0
C675 C 0.79689 0.10896 0.82218 0.0
N676 N 0.88085 0.18356 0.86064 0.0
N677 N 0.79649 0.10934 0.83433 0.0
H678 H 0.66063 0.75135 0.15082 0.0
H679 H 0.68472 0.91757 0.21055 0.0
H680 H 0.73438 0.93276 0.15103 0.0
H681 H 0.71332 0.77586 0.21037 0.0
H682 H 0.68319 0.9161 0.18861 0.0
H683 H 0.66009 0.75184 0.17276 0.0
C684 C 0.67642 0.79119 0.15549 0.0
C685 C 0.69782 0.84215 0.14914 0.0
C686 C 0.68973 0.88537 0.19341 0.0
C687 C 0.69636 0.84277 0.17409 0.0
C688 C 0.69035 0.88599 0.20589 0.0
C689 C 0.69942 0.84692 0.21224 0.0
C690 C 0.69673 0.84448 0.18729 0.0
C691 C 0.70666 0.80698 0.20579 0.0
C692 C 0.67632 0.79143 0.16796 0.0
C693 C 0.71794 0.89263 0.15561 0.0
N694 N 0.70469 0.80644 0.19364 0.0
N695 N 0.71628 0.89165 0.16775 0.0
H696 H 0.91551 0.69226 0.48304 0.0
H697 H 0.75019 0.6695 0.54276 0.0
H698 H 0.77285 0.71931 0.48309 0.0
H699 H 0.93181 0.74588 0.54241 0.0
H700 H 0.75006 0.66748 0.52082 0.0
H701 H 0.91448 0.69177 0.50498 0.0
C702 C 0.8838 0.69774 0.48767 0.0
C703 C 0.84435 0.70611 0.48128 0.0
C704 C 0.78982 0.6846 0.52558 0.0
C705 C 0.84242 0.7046 0.50623 0.0
C706 C 0.78995 0.68555 0.53806 0.0
C707 C 0.84114 0.70814 0.54437 0.0
C708 C 0.84107 0.70499 0.51942 0.0
C709 C 0.8915 0.72854 0.53787 0.0
C710 C 0.88344 0.69773 0.50015 0.0
C711 C 0.80426 0.7132 0.4877 0.0
N712 N 0.8902 0.72605 0.52573 0.0
N713 N 0.80399 0.71182 0.49985 0.0
H714 H 0.07456 0.75787 0.87704 0.0
H715 H 0.22921 0.90876 0.81679 0.0
H716 H 0.20827 0.93223 0.87648 0.0
H717 H 0.05089 0.78645 0.81765 0.0
H718 H 0.231 0.90789 0.83871 0.0
H719 H 0.07401 0.75755 0.85512 0.0
C720 C 0.10399 0.79595 0.8723 0.0
C721 C 0.14138 0.84525 0.87856 0.0
C722 C 0.19158 0.88129 0.83406 0.0
C723 C 0.14146 0.8448 0.85359 0.0
C724 C 0.19054 0.88153 0.82159 0.0
C725 C 0.13975 0.84778 0.81542 0.0
C726 C 0.1418 0.84602 0.84038 0.0
C727 C 0.09082 0.81341 0.82207 0.0
C728 C 0.10343 0.79578 0.85983 0.0
C729 C 0.1785 0.8935 0.87198 0.0
N730 N 0.09311 0.81305 0.83421 0.0
N731 N 0.17793 0.89197 0.85984 0.0
H732 H 0.55967 0.6236 0.11604 0.0
H733 H 0.38142 0.345 0.07689 0.0
H734 H 0.55631 0.62611 0.07746 0.0
H735 H 0.36956 0.3518 0.11528 0.0
H736 H 0.44462 0.44755 0.07664 0.0
H737 H 0.49111 0.52308 0.11568 0.0
C738 C 0.5448 0.60299 0.10747 0.0
C739 C 0.56397 0.63346 0.09676 0.0
C740 C 0.42776 0.42654 0.0851 0.0
C741 C 0.48479 0.51791 0.0963 0.0
C742 C 0.39152 0.36803 0.08525 0.0
C743 C 0.37048 0.3396 0.09614 0.0
C744 C 0.4432 0.45664 0.09591 0.0
C745 C 0.385 0.37171 0.10668 0.0
C746 C 0.50529 0.54551 0.10728 0.0
C747 C 0.54282 0.60429 0.08594 0.0
N748 N 0.42077 0.42836 0.1063 0.0
N749 N 0.50436 0.54803 0.08598 0.0
H750 H 0.05791 0.41954 0.41012 0.0
H751 H 0.97576 0.61566 0.44823 0.0
H752 H 0.05956 0.42629 0.44868 0.0
H753 H 0.953 0.59472 0.41 0.0
H754 H 0.01641 0.55409 0.44819 0.0
H755 H 0.02701 0.48952 0.40962 0.0
C756 C 0.05162 0.43553 0.41848 0.0
C757 C 0.06111 0.41671 0.42946 0.0
C758 C 0.00286 0.5632 0.43979 0.0
C759 C 0.02634 0.49725 0.42893 0.0
C760 C 0.97984 0.59864 0.43979 0.0
C761 C 0.9604 0.61008 0.42911 0.0
C762 C 0.00653 0.53884 0.42904 0.0
C763 C 0.96717 0.58693 0.41846 0.0
C764 C 0.03414 0.47562 0.41818 0.0
C765 C 0.05252 0.43922 0.44 0.0
N766 N -0.0107 0.55206 0.41871 0.0
N767 N 0.03568 0.47827 0.43947 0.0
H768 H 0.3518 0.92863 0.74302 0.0
H769 H 0.62805 0.01049 0.78207 0.0
H770 H 0.35663 0.93028 0.78161 0.0
H771 H 0.63252 0.03293 0.7438 0.0
H772 H 0.52598 0.97039 0.78163 0.0
H773 H 0.45272 0.95894 0.74277 0.0
C774 C 0.37402 0.93557 0.75143 0.0
C775 C 0.34565 0.92713 0.76235 0.0
C776 C 0.54919 0.98377 0.77331 0.0
C777 C 0.46073 0.96105 0.76211 0.0
C778 C 0.60756 0.00647 0.77354 0.0
C779 C 0.63912 0.02569 0.76297 0.0
C780 C 0.52194 0.98024 0.76243 0.0
C781 C 0.60998 0.01895 0.75218 0.0
C782 C 0.43155 0.95267 0.75127 0.0
C783 C 0.3766 0.93647 0.77297 0.0
N784 N 0.55302 -0.00283 0.7522 0.0
N785 N 0.43232 0.95282 0.77257 0.0
H786 H 0.62496 0.56827 0.57779 0.0
H787 H 0.34683 0.39401 0.61721 0.0
H788 H 0.6279 0.5682 0.61638 0.0
H789 H 0.35219 0.38108 0.57882 0.0
H790 H 0.4495 0.4562 0.61735 0.0
H791 H 0.52444 0.49983 0.57824 0.0
C792 C 0.60446 0.55409 0.58638 0.0
C793 C 0.63505 0.57428 0.59707 0.0
C794 C 0.42816 0.43933 0.60892 0.0
C795 C 0.51942 0.49525 0.59764 0.0
C796 C 0.36956 0.40366 0.60883 0.0
C797 C 0.34068 0.38257 0.59797 0.0
C798 C 0.45797 0.45417 0.59809 0.0
C799 C 0.37245 0.39654 0.5874 0.0
C800 C 0.54696 0.51467 0.58663 0.0
C801 C 0.60601 0.55394 0.60792 0.0
N802 N 0.42923 0.43175 0.58773 0.0
N803 N 0.54971 0.51559 0.60793 0.0
H804 H 0.05874 0.62602 0.91226 0.0
H805 H 0.94362 0.34675 0.95184 0.0
H806 H 0.05326 0.62979 0.9508 0.0
H807 H 0.97929 0.35553 0.91407 0.0
H808 H 0.98428 0.44968 0.95207 0.0
H809 H 0.02786 0.52593 0.91309 0.0
C810 C 0.05078 0.60579 0.92093 0.0
C811 C 0.05847 0.63655 0.93148 0.0
C812 C 0.98365 0.42899 0.94378 0.0
C813 C 0.02314 0.52112 0.93249 0.0
C814 C 0.96068 0.37027 0.94364 0.0
C815 C 0.9575 0.34225 0.93289 0.0
C816 C 0.00325 0.4597 0.93308 0.0
C817 C 0.98026 0.37502 0.92255 0.0
C818 C 0.03343 0.54848 0.92139 0.0
C819 C 0.04775 0.60775 0.94243 0.0
N820 N 0.00163 0.43176 0.92289 0.0
N821 N 0.03041 0.55151 0.94266 0.0
H822 H 0.60863 0.97773 0.24544 0.0
H823 H 0.41368 0.06002 0.28391 0.0
H824 H 0.58947 0.95598 0.2837 0.0
H825 H 0.41949 0.06186 0.24534 0.0
H826 H 0.48377 0.02928 0.28427 0.0
H827 H 0.54702 0.01833 0.24559 0.0
C828 C 0.59201 0.98203 0.2539 0.0
C829 C 0.60394 0.96288 0.26456 0.0
C830 C 0.46964 0.03642 0.27574 0.0
C831 C 0.53266 0.00894 0.26476 0.0
C832 C 0.42948 0.05381 0.27552 0.0
C833 C 0.41036 0.0633 0.26457 0.0
C834 C 0.49103 0.02869 0.26495 0.0
C835 C 0.43265 0.05481 0.25399 0.0
C836 C 0.55654 0.00502 0.25397 0.0
C837 C 0.58128 0.9699 0.27525 0.0
N838 N 0.47176 0.03805 0.25445 0.0
N839 N 0.54637 0.99198 0.27507 0.0
H840 H 0.11671 0.06373 0.11697 0.0
H841 H 0.83708 0.89042 0.07766 0.0
H842 H 0.11425 0.07396 0.07848 0.0
H843 H 0.8427 0.87758 0.11606 0.0
H844 H 0.93918 0.95464 0.0776 0.0
H845 H 0.01618 -0.00537 0.11668 0.0
C846 C 0.09503 0.05172 0.10845 0.0
C847 C 0.12415 0.0745 0.09772 0.0
C848 C 0.91807 0.93742 0.08602 0.0
C849 C 0.00887 -0.00514 0.09733 0.0
C850 C 0.8598 0.90054 0.08606 0.0
C851 C 0.83117 0.8789 0.0969 0.0
C852 C 0.94782 0.95283 0.09689 0.0
C853 C 0.86288 0.89343 0.1075 0.0
C854 C 0.0376 0.01193 0.10829 0.0
C855 C 0.09369 0.05712 0.08696 0.0
N856 N 0.91942 0.9298 0.10723 0.0
N857 N 0.03766 0.01826 0.08703 0.0
H858 H 0.01096 0.13339 0.44893 0.0
H859 H 0.93203 0.85712 0.41035 0.0
H860 H 0.02966 0.13507 0.41059 0.0
H861 H 0.92766 0.85991 0.44892 0.0
H862 H 0.96108 0.95746 0.41007 0.0
H863 H 0.97105 0.03118 0.44882 0.0
C864 C 0.00612 0.11227 0.44046 0.0
C865 C 0.02441 0.14309 0.42976 0.0
C866 C 0.95378 0.93608 0.41859 0.0
C867 C 0.97918 0.02591 0.42961 0.0
C868 C 0.93736 0.87881 0.41876 0.0
C869 C 0.9276 0.85002 0.42968 0.0
C870 C 0.96036 0.96478 0.4294 0.0
C871 C 0.93502 0.88036 0.44029 0.0
C872 C 0.98353 0.05385 0.44042 0.0
C873 C 0.0166 0.11319 0.41906 0.0
N874 N 0.95093 0.93605 0.43988 0.0
N875 N -0.00498 0.0563 0.41927 0.0
H876 H 0.91319 0.05008 0.78431 0.0
H877 H 0.10532 0.96763 0.74502 0.0
H878 H 0.92035 0.05865 0.74575 0.0
H879 H 0.09944 0.96151 0.7836 0.0
H880 H 0.04232 0.00683 0.74514 0.0
H881 H 0.9842 0.02095 0.78421 0.0
C882 C 0.92941 0.04553 0.77581 0.0
C883 C 0.91047 0.05653 0.76501 0.0
C884 C 0.05518 -0.00269 0.75358 0.0
C885 C -0.00769 0.02368 0.76486 0.0
C886 C 0.09133 0.97508 0.75353 0.0
C887 C 0.10723 0.96062 0.76431 0.0
C888 C 0.03466 0.00501 0.76449 0.0
C889 C 0.0881 0.9717 0.77505 0.0
C890 C 0.97023 0.02917 0.77577 0.0
C891 C 0.9334 0.05029 0.75429 0.0
N892 N 0.05242 -0.00725 0.77486 0.0
N893 N 0.97309 0.03423 0.75449 0.0
H894 H 0.8733 0.85542 0.57695 0.0
H895 H 0.06849 0.13001 0.61621 0.0
H896 H 0.88732 0.85192 0.61536 0.0
H897 H 0.06615 0.12758 0.57761 0.0
H898 H -0.00248 0.02953 0.61626 0.0
H899 H 0.93708 0.95733 0.57728 0.0
C900 C 0.88919 0.87612 0.58548 0.0
C901 C 0.87526 0.84491 0.59614 0.0
C902 C 0.01264 0.05103 0.60779 0.0
C903 C 0.94901 0.96165 0.59655 0.0
C904 C 0.0533 0.10837 0.60774 0.0
C905 C 0.07335 0.13737 0.59689 0.0
C906 C -0.00822 0.02254 0.5969 0.0
C907 C 0.0521 0.10705 0.5862 0.0
C908 C 0.92592 0.93434 0.58565 0.0
C909 C 0.89707 0.87419 0.60692 0.0
N910 N 0.0124 0.05136 0.58649 0.0
N911 N 0.93325 0.93091 0.60684 0.0
H912 H 0.92411 0.06061 0.94939 0.0
H913 H 0.03117 0.88842 0.91005 0.0
H914 H 0.93392 0.06874 0.91087 0.0
H915 H 0.01453 0.87573 0.94845 0.0
H916 H -0.0091 0.95053 0.91004 0.0
H917 H 0.95497 0.99092 0.94914 0.0
C918 C 0.9329 0.04792 0.94087 0.0
C919 C 0.92649 0.07075 0.93014 0.0
C920 C -0.00423 0.93388 0.91846 0.0
C921 C 0.96166 0.99057 0.92978 0.0
C922 C 0.0185 0.89811 0.91848 0.0
C923 C 0.02705 0.87735 0.9293 0.0
C924 C 0.98156 0.94911 0.92934 0.0
C925 C 0.0097 0.8914 0.93992 0.0
C926 C 0.95035 0.0079 0.94073 0.0
C927 C 0.93847 0.05251 0.91937 0.0
N928 N 0.98821 0.92674 0.93968 0.0
N929 N 0.95552 0.01353 0.91947 0.0
H930 H 0.1273 0.01375 0.24509 0.0
H931 H 0.84973 0.93102 0.28341 0.0
H932 H 0.12816 0.0307 0.28347 0.0
H933 H 0.85457 0.93289 0.24482 0.0
H934 H 0.95005 0.9601 0.28378 0.0
H935 H 0.02516 0.97395 0.24509 0.0
C936 C 0.10602 0.00855 0.25354 0.0
C937 C 0.1366 0.02633 0.26429 0.0
C938 C 0.92913 0.9542 0.27524 0.0
C939 C 0.01947 0.98119 0.26431 0.0
C940 C 0.87189 0.93784 0.27501 0.0
C941 C 0.84369 0.92986 0.26406 0.0
C942 C 0.95837 0.96243 0.26445 0.0
C943 C 0.87456 0.93887 0.25348 0.0
C944 C 0.04763 0.98603 0.25352 0.0
C945 C 0.10647 0.01805 0.27496 0.0
N946 N 0.93019 0.95464 0.25394 0.0
N947 N 0.0496 -0.00349 0.27469 0.0
loop_
_geom_bond_atom_site_label_1
_geom_bond_atom_site_label_2
_geom_bond_distance
_geom_bond_site_symmetry_2
_ccdc_geom_bond_type
Co0 O3 1.970 . S
Co0 N17 1.989 . S
Co0 O25 1.967 . S
Co0 O32 1.920 . S
Co1 O4 1.966 . S
Co1 N10 2.022 . S
Co1 N18 1.993 . S
Co1 O26 1.941 . S
C2 O3 1.258 . S
C2 O4 1.263 . S
O3 Co0 1.970 . S
O3 C2 1.258 . S
O4 Co1 1.966 . S
O4 C2 1.263 . S
C5 O6 1.235 . S
C5 O32 1.289 . S
O6 C5 1.235 . S
C7 C9 1.400 . S
C7 N10 1.351 . S
C7 C12 1.501 . S
C8 C9 1.387 . S
C8 N11 1.341 . S
C9 C7 1.400 . S
C9 C8 1.387 . S
N10 Co1 2.022 . S
N10 C7 1.351 . S
N10 N11 1.365 . S
N11 C8 1.341 . S
N11 N10 1.365 . S
N11 H31 0.862 . S
C12 C7 1.501 . S
C12 H13 0.961 . S
C12 H14 0.961 . S
C12 H15 0.960 . S
H13 C12 0.961 . S
H14 C12 0.961 . S
H15 C12 0.960 . S
C16 N17 1.342 . S
C16 C20 1.401 . S
C16 C21 1.499 . S
N17 Co0 1.989 . S
N17 C16 1.342 . S
N17 N18 1.388 . S
N18 Co1 1.993 . S
N18 N17 1.388 . S
N18 C19 1.346 . S
C19 N18 1.346 . S
C19 C20 1.396 . S
C19 C29 1.510 . S
C20 C16 1.401 . S
C20 C19 1.396 . S
C21 C16 1.499 . S
C21 H22 0.959 . S
C21 H23 0.960 . S
C21 H24 0.961 . S
H22 C21 0.959 . S
H23 C21 0.960 . S
H24 C21 0.961 . S
O25 Co0 1.967 . S
O25 C33 1.258 . S
O26 Co1 1.941 . S
O26 C33 1.266 . S
H27 C29 0.959 . S
H28 C29 0.961 . S
C29 C19 1.510 . S
C29 H27 0.959 . S
C29 H28 0.961 . S
C29 H30 0.960 . S
H30 C29 0.960 . S
H31 N11 0.862 . S
O32 Co0 1.920 . S
O32 C5 1.289 . S
C33 O25 1.258 . S
C33 O26 1.266 . S
Co34 O37 1.970 . S
Co34 N51 1.989 . S
Co34 O59 1.967 . S
Co34 O66 1.920 . S
Co35 O38 1.966 . S
Co35 N44 2.022 . S
Co35 N52 1.993 . S
Co35 O60 1.941 . S
C36 O37 1.258 . S
C36 O38 1.263 . S
O37 Co34 1.970 . S
O37 C36 1.258 . S
O38 Co35 1.966 . S
O38 C36 1.263 . S
C39 O40 1.235 . S
C39 O66 1.289 . S
O40 C39 1.235 . S
C41 C43 1.400 . S
C41 N44 1.351 . S
C41 C46 1.501 . S
C42 C43 1.387 . S
C42 N45 1.341 . S
C43 C41 1.400 . S
C43 C42 1.387 . S
N44 Co35 2.022 . S
N44 C41 1.351 . S
N44 N45 1.365 . S
N45 C42 1.341 . S
N45 N44 1.365 . S
N45 H65 0.862 . S
C46 C41 1.501 . S
C46 H47 0.961 . S
C46 H48 0.961 . S
C46 H49 0.960 . S
H47 C46 0.961 . S
H48 C46 0.961 . S
H49 C46 0.960 . S
C50 N51 1.342 . S
C50 C54 1.401 . S
C50 C55 1.499 . S
N51 Co34 1.989 . S
N51 C50 1.342 . S
N51 N52 1.388 . S
N52 Co35 1.993 . S
N52 N51 1.388 . S
N52 C53 1.346 . S
C53 N52 1.346 . S
C53 C54 1.396 . S
C53 C63 1.510 . S
C54 C50 1.401 . S
C54 C53 1.396 . S
C55 C50 1.499 . S
C55 H56 0.959 . S
C55 H57 0.960 . S
C55 H58 0.961 . S
H56 C55 0.959 . S
H57 C55 0.960 . S
H58 C55 0.961 . S
O59 Co34 1.967 . S
O59 C67 1.258 . S
O60 Co35 1.941 . S
O60 C67 1.266 . S
H61 C63 0.959 . S
H62 C63 0.961 . S
C63 C53 1.510 . S
C63 H61 0.959 . S
C63 H62 0.961 . S
C63 H64 0.960 . S
H64 C63 0.960 . S
H65 N45 0.862 . S
O66 Co34 1.920 . S
O66 C39 1.289 . S
C67 O59 1.258 . S
C67 O60 1.266 . S
Co68 O71 1.970 . S
Co68 N85 1.989 . S
Co68 O93 1.967 . S
Co68 O100 1.920 . S
Co69 O72 1.966 . S
Co69 N78 2.022 . S
Co69 N86 1.993 . S
Co69 O94 1.941 . S
C70 O71 1.258 . S
C70 O72 1.263 . S
O71 Co68 1.970 . S
O71 C70 1.258 . S
O72 Co69 1.966 . S
O72 C70 1.263 . S
C73 O74 1.235 . S
C73 O100 1.289 . S
O74 C73 1.235 . S
C75 C77 1.400 . S
C75 N78 1.351 . S
C75 C80 1.501 . S
C76 C77 1.387 . S
C76 N79 1.341 . S
C77 C75 1.400 . S
C77 C76 1.387 . S
N78 Co69 2.022 . S
N78 C75 1.351 . S
N78 N79 1.365 . S
N79 C76 1.341 . S
N79 N78 1.365 . S
N79 H99 0.862 . S
C80 C75 1.501 . S
C80 H81 0.961 . S
C80 H82 0.961 . S
C80 H83 0.960 . S
H81 C80 0.961 . S
H82 C80 0.961 . S
H83 C80 0.960 . S
C84 N85 1.342 . S
C84 C88 1.401 . S
C84 C89 1.499 . S
N85 Co68 1.989 . S
N85 C84 1.342 . S
N85 N86 1.388 . S
N86 Co69 1.993 . S
N86 N85 1.388 . S
N86 C87 1.346 . S
C87 N86 1.346 . S
C87 C88 1.396 . S
C87 C97 1.510 . S
C88 C84 1.401 . S
C88 C87 1.396 . S
C89 C84 1.499 . S
C89 H90 0.959 . S
C89 H91 0.960 . S
C89 H92 0.961 . S
H90 C89 0.959 . S
H91 C89 0.960 . S
H92 C89 0.961 . S
O93 Co68 1.967 . S
O93 C101 1.258 . S
O94 Co69 1.941 . S
O94 C101 1.266 . S
H95 C97 0.959 . S
H96 C97 0.961 . S
C97 C87 1.510 . S
C97 H95 0.959 . S
C97 H96 0.961 . S
C97 H98 0.960 . S
H98 C97 0.960 . S
H99 N79 0.862 . S
O100 Co68 1.920 . S
O100 C73 1.289 . S
C101 O93 1.258 . S
C101 O94 1.266 . S
Co102 O105 1.970 . S
Co102 N119 1.989 . S
Co102 O127 1.967 . S
Co102 O134 1.920 . S
Co103 O106 1.966 . S
Co103 N112 2.022 . S
Co103 N120 1.993 . S
Co103 O128 1.941 . S
C104 O105 1.258 . S
C104 O106 1.263 . S
O105 Co102 1.970 . S
O105 C104 1.258 . S
O106 Co103 1.966 . S
O106 C104 1.263 . S
C107 O108 1.235 . S
C107 O134 1.289 . S
O108 C107 1.235 . S
C109 C111 1.400 . S
C109 N112 1.351 . S
C109 C114 1.501 . S
C110 C111 1.387 . S
C110 N113 1.341 . S
C111 C109 1.400 . S
C111 C110 1.387 . S
N112 Co103 2.022 . S
N112 C109 1.351 . S
N112 N113 1.365 . S
N113 C110 1.341 . S
N113 N112 1.365 . S
N113 H133 0.862 . S
C114 C109 1.501 . S
C114 H115 0.961 . S
C114 H116 0.961 . S
C114 H117 0.960 . S
H115 C114 0.961 . S
H116 C114 0.961 . S
H117 C114 0.960 . S
C118 N119 1.342 . S
C118 C122 1.401 . S
C118 C123 1.499 . S
N119 Co102 1.989 . S
N119 C118 1.342 . S
N119 N120 1.388 . S
N120 Co103 1.993 . S
N120 N119 1.388 . S
N120 C121 1.346 . S
C121 N120 1.346 . S
C121 C122 1.396 . S
C121 C131 1.510 . S
C122 C118 1.401 . S
C122 C121 1.396 . S
C123 C118 1.499 . S
C123 H124 0.959 . S
C123 H125 0.960 . S
C123 H126 0.961 . S
H124 C123 0.959 . S
H125 C123 0.960 . S
H126 C123 0.961 . S
O127 Co102 1.967 . S
O127 C135 1.258 . S
O128 Co103 1.941 . S
O128 C135 1.266 . S
H129 C131 0.959 . S
H130 C131 0.961 . S
C131 C121 1.510 . S
C131 H129 0.959 . S
C131 H130 0.961 . S
C131 H132 0.960 . S
H132 C131 0.960 . S
H133 N113 0.862 . S
O134 Co102 1.920 . S
O134 C107 1.289 . S
C135 O127 1.258 . S
C135 O128 1.266 . S
Co136 O139 1.970 . S
Co136 N153 1.989 . S
Co136 O161 1.967 . S
Co136 O168 1.920 . S
Co137 O140 1.966 . S
Co137 N146 2.022 . S
Co137 N154 1.993 . S
Co137 O162 1.941 . S
C138 O139 1.258 . S
C138 O140 1.263 . S
O139 Co136 1.970 . S
O139 C138 1.258 . S
O140 Co137 1.966 . S
O140 C138 1.263 . S
C141 O142 1.235 . S
C141 O168 1.289 . S
O142 C141 1.235 . S
C143 C145 1.400 . S
C143 N146 1.351 . S
C143 C148 1.501 . S
C144 C145 1.387 . S
C144 N147 1.341 . S
C145 C143 1.400 . S
C145 C144 1.387 . S
N146 Co137 2.022 . S
N146 C143 1.351 . S
N146 N147 1.365 . S
N147 C144 1.341 . S
N147 N146 1.365 . S
N147 H167 0.862 . S
C148 C143 1.501 . S
C148 H149 0.961 . S
C148 H150 0.961 . S
C148 H151 0.960 . S
H149 C148 0.961 . S
H150 C148 0.961 . S
H151 C148 0.960 . S
C152 N153 1.342 . S
C152 C156 1.401 . S
C152 C157 1.499 . S
N153 Co136 1.989 . S
N153 C152 1.342 . S
N153 N154 1.388 . S
N154 Co137 1.993 . S
N154 N153 1.388 . S
N154 C155 1.346 . S
C155 N154 1.346 . S
C155 C156 1.396 . S
C155 C165 1.510 . S
C156 C152 1.401 . S
C156 C155 1.396 . S
C157 C152 1.499 . S
C157 H158 0.959 . S
C157 H159 0.960 . S
C157 H160 0.961 . S
H158 C157 0.959 . S
H159 C157 0.960 . S
H160 C157 0.961 . S
O161 Co136 1.967 . S
O161 C169 1.258 . S
O162 Co137 1.941 . S
O162 C169 1.266 . S
H163 C165 0.959 . S
H164 C165 0.961 . S
C165 C155 1.510 . S
C165 H163 0.959 . S
C165 H164 0.961 . S
C165 H166 0.960 . S
H166 C165 0.960 . S
H167 N147 0.862 . S
O168 Co136 1.920 . S
O168 C141 1.289 . S
C169 O161 1.258 . S
C169 O162 1.266 . S
Co170 O173 1.970 . S
Co170 N187 1.989 . S
Co170 O195 1.967 . S
Co170 O202 1.920 . S
Co171 O174 1.966 . S
Co171 N180 2.022 . S
Co171 N188 1.993 . S
Co171 O196 1.941 . S
C172 O173 1.258 . S
C172 O174 1.263 . S
O173 Co170 1.970 . S
O173 C172 1.258 . S
O174 Co171 1.966 . S
O174 C172 1.263 . S
C175 O176 1.235 . S
C175 O202 1.289 . S
O176 C175 1.235 . S
C177 C179 1.400 . S
C177 N180 1.351 . S
C177 C182 1.501 . S
C178 C179 1.387 . S
C178 N181 1.341 . S
C179 C177 1.400 . S
C179 C178 1.387 . S
N180 Co171 2.022 . S
N180 C177 1.351 . S
N180 N181 1.365 . S
N181 C178 1.341 . S
N181 N180 1.365 . S
N181 H201 0.862 . S
C182 C177 1.501 . S
C182 H183 0.961 . S
C182 H184 0.961 . S
C182 H185 0.960 . S
H183 C182 0.961 . S
H184 C182 0.961 . S
H185 C182 0.960 . S
C186 N187 1.342 . S
C186 C190 1.401 . S
C186 C191 1.499 . S
N187 Co170 1.989 . S
N187 C186 1.342 . S
N187 N188 1.388 . S
N188 Co171 1.993 . S
N188 N187 1.388 . S
N188 C189 1.346 . S
C189 N188 1.346 . S
C189 C190 1.396 . S
C189 C199 1.510 . S
C190 C186 1.401 . S
C190 C189 1.396 . S
C191 C186 1.499 . S
C191 H192 0.959 . S
C191 H193 0.960 . S
C191 H194 0.961 . S
H192 C191 0.959 . S
H193 C191 0.960 . S
H194 C191 0.961 . S
O195 Co170 1.967 . S
O195 C203 1.258 . S
O196 Co171 1.941 . S
O196 C203 1.266 . S
H197 C199 0.959 . S
H198 C199 0.961 . S
C199 C189 1.510 . S
C199 H197 0.959 . S
C199 H198 0.961 . S
C199 H200 0.960 . S
H200 C199 0.960 . S
H201 N181 0.862 . S
O202 Co170 1.920 . S
O202 C175 1.289 . S
C203 O195 1.258 . S
C203 O196 1.266 . S
Co204 O207 1.970 . S
Co204 N221 1.989 . S
Co204 O229 1.967 . S
Co204 O236 1.920 . S
Co205 O208 1.966 . S
Co205 N214 2.022 . S
Co205 N222 1.993 . S
Co205 O230 1.941 . S
C206 O207 1.258 . S
C206 O208 1.263 . S
O207 Co204 1.970 . S
O207 C206 1.258 . S
O208 Co205 1.966 . S
O208 C206 1.263 . S
C209 O210 1.235 . S
C209 O236 1.289 . S
O210 C209 1.235 . S
C211 C213 1.400 . S
C211 N214 1.351 . S
C211 C216 1.501 . S
C212 C213 1.387 . S
C212 N215 1.341 . S
C213 C211 1.400 . S
C213 C212 1.387 . S
N214 Co205 2.022 . S
N214 C211 1.351 . S
N214 N215 1.365 . S
N215 C212 1.341 . S
N215 N214 1.365 . S
N215 H235 0.862 . S
C216 C211 1.501 . S
C216 H217 0.961 . S
C216 H218 0.961 . S
C216 H219 0.960 . S
H217 C216 0.961 . S
H218 C216 0.961 . S
H219 C216 0.960 . S
C220 N221 1.342 . S
C220 C224 1.401 . S
C220 C225 1.499 . S
N221 Co204 1.989 . S
N221 C220 1.342 . S
N221 N222 1.388 . S
N222 Co205 1.993 . S
N222 N221 1.388 . S
N222 C223 1.346 . S
C223 N222 1.346 . S
C223 C224 1.396 . S
C223 C233 1.510 . S
C224 C220 1.401 . S
C224 C223 1.396 . S
C225 C220 1.499 . S
C225 H226 0.959 . S
C225 H227 0.960 . S
C225 H228 0.961 . S
H226 C225 0.959 . S
H227 C225 0.960 . S
H228 C225 0.961 . S
O229 Co204 1.967 . S
O229 C237 1.258 . S
O230 Co205 1.941 . S
O230 C237 1.266 . S
H231 C233 0.959 . S
H232 C233 0.961 . S
C233 C223 1.510 . S
C233 H231 0.959 . S
C233 H232 0.961 . S
C233 H234 0.960 . S
H234 C233 0.960 . S
H235 N215 0.862 . S
O236 Co204 1.920 . S
O236 C209 1.289 . S
C237 O229 1.258 . S
C237 O230 1.266 . S
Co238 O241 1.970 . S
Co238 N255 1.989 . S
Co238 O263 1.967 . S
Co238 O270 1.920 . S
Co239 O242 1.966 . S
Co239 N248 2.022 . S
Co239 N256 1.993 . S
Co239 O264 1.941 . S
C240 O241 1.258 . S
C240 O242 1.263 . S
O241 Co238 1.970 . S
O241 C240 1.258 . S
O242 Co239 1.966 . S
O242 C240 1.263 . S
C243 O244 1.235 . S
C243 O270 1.289 . S
O244 C243 1.235 . S
C245 C247 1.400 . S
C245 N248 1.351 . S
C245 C250 1.501 . S
C246 C247 1.387 . S
C246 N249 1.341 . S
C247 C245 1.400 . S
C247 C246 1.387 . S
N248 Co239 2.022 . S
N248 C245 1.351 . S
N248 N249 1.365 . S
N249 C246 1.341 . S
N249 N248 1.365 . S
N249 H269 0.862 . S
C250 C245 1.501 . S
C250 H251 0.961 . S
C250 H252 0.961 . S
C250 H253 0.960 . S
H251 C250 0.961 . S
H252 C250 0.961 . S
H253 C250 0.960 . S
C254 N255 1.342 . S
C254 C258 1.401 . S
C254 C259 1.499 . S
N255 Co238 1.989 . S
N255 C254 1.342 . S
N255 N256 1.388 . S
N256 Co239 1.993 . S
N256 N255 1.388 . S
N256 C257 1.346 . S
C257 N256 1.346 . S
C257 C258 1.396 . S
C257 C267 1.510 . S
C258 C254 1.401 . S
C258 C257 1.396 . S
C259 C254 1.499 . S
C259 H260 0.959 . S
C259 H261 0.960 . S
C259 H262 0.961 . S
H260 C259 0.959 . S
H261 C259 0.960 . S
H262 C259 0.961 . S
O263 Co238 1.967 . S
O263 C271 1.258 . S
O264 Co239 1.941 . S
O264 C271 1.266 . S
H265 C267 0.959 . S
H266 C267 0.961 . S
C267 C257 1.510 . S
C267 H265 0.959 . S
C267 H266 0.961 . S
C267 H268 0.960 . S
H268 C267 0.960 . S
H269 N249 0.862 . S
O270 Co238 1.920 . S
O270 C243 1.289 . S
C271 O263 1.258 . S
C271 O264 1.266 . S
Co272 O275 1.970 . S
Co272 N289 1.989 . S
Co272 O297 1.967 . S
Co272 O304 1.920 . S
Co273 O276 1.966 . S
Co273 N282 2.022 . S
Co273 N290 1.993 . S
Co273 O298 1.941 . S
C274 O275 1.258 . S
C274 O276 1.263 . S
O275 Co272 1.970 . S
O275 C274 1.258 . S
O276 Co273 1.966 . S
O276 C274 1.263 . S
C277 O278 1.235 . S
C277 O304 1.289 . S
O278 C277 1.235 . S
C279 C281 1.400 . S
C279 N282 1.351 . S
C279 C284 1.501 . S
C280 C281 1.387 . S
C280 N283 1.341 . S
C281 C279 1.400 . S
C281 C280 1.387 . S
N282 Co273 2.022 . S
N282 C279 1.351 . S
N282 N283 1.365 . S
N283 C280 1.341 . S
N283 N282 1.365 . S
N283 H303 0.862 . S
C284 C279 1.501 . S
C284 H285 0.961 . S
C284 H286 0.961 . S
C284 H287 0.960 . S
H285 C284 0.961 . S
H286 C284 0.961 . S
H287 C284 0.960 . S
C288 N289 1.342 . S
C288 C292 1.401 . S
C288 C293 1.499 . S
N289 Co272 1.989 . S
N289 C288 1.342 . S
N289 N290 1.388 . S
N290 Co273 1.993 . S
N290 N289 1.388 . S
N290 C291 1.346 . S
C291 N290 1.346 . S
C291 C292 1.396 . S
C291 C301 1.510 . S
C292 C288 1.401 . S
C292 C291 1.396 . S
C293 C288 1.499 . S
C293 H294 0.959 . S
C293 H295 0.960 . S
C293 H296 0.961 . S
H294 C293 0.959 . S
H295 C293 0.960 . S
H296 C293 0.961 . S
O297 Co272 1.967 . S
O297 C305 1.258 . S
O298 Co273 1.941 . S
O298 C305 1.266 . S
H299 C301 0.959 . S
H300 C301 0.961 . S
C301 C291 1.510 . S
C301 H299 0.959 . S
C301 H300 0.961 . S
C301 H302 0.960 . S
H302 C301 0.960 . S
H303 N283 0.862 . S
O304 Co272 1.920 . S
O304 C277 1.289 . S
C305 O297 1.258 . S
C305 O298 1.266 . S
Co306 O309 1.970 . S
Co306 N323 1.989 . S
Co306 O331 1.967 . S
Co306 O338 1.920 . S
Co307 O310 1.966 . S
Co307 N316 2.022 . S
Co307 N324 1.993 . S
Co307 O332 1.941 . S
C308 O309 1.258 . S
C308 O310 1.263 . S
O309 Co306 1.970 . S
O309 C308 1.258 . S
O310 Co307 1.966 . S
O310 C308 1.263 . S
C311 O312 1.235 . S
C311 O338 1.289 . S
O312 C311 1.235 . S
C313 C315 1.400 . S
C313 N316 1.351 . S
C313 C318 1.501 . S
C314 C315 1.387 . S
C314 N317 1.341 . S
C315 C313 1.400 . S
C315 C314 1.387 . S
N316 Co307 2.022 . S
N316 C313 1.351 . S
N316 N317 1.365 . S
N317 C314 1.341 . S
N317 N316 1.365 . S
N317 H337 0.862 . S
C318 C313 1.501 . S
C318 H319 0.961 . S
C318 H320 0.961 . S
C318 H321 0.960 . S
H319 C318 0.961 . S
H320 C318 0.961 . S
H321 C318 0.960 . S
C322 N323 1.342 . S
C322 C326 1.401 . S
C322 C327 1.499 . S
N323 Co306 1.989 . S
N323 C322 1.342 . S
N323 N324 1.388 . S
N324 Co307 1.993 . S
N324 N323 1.388 . S
N324 C325 1.346 . S
C325 N324 1.346 . S
C325 C326 1.396 . S
C325 C335 1.510 . S
C326 C322 1.401 . S
C326 C325 1.396 . S
C327 C322 1.499 . S
C327 H328 0.959 . S
C327 H329 0.960 . S
C327 H330 0.961 . S
H328 C327 0.959 . S
H329 C327 0.960 . S
H330 C327 0.961 . S
O331 Co306 1.967 . S
O331 C339 1.258 . S
O332 Co307 1.941 . S
O332 C339 1.266 . S
H333 C335 0.959 . S
H334 C335 0.961 . S
C335 C325 1.510 . S
C335 H333 0.959 . S
C335 H334 0.961 . S
C335 H336 0.960 . S
H336 C335 0.960 . S
H337 N317 0.862 . S
O338 Co306 1.920 . S
O338 C311 1.289 . S
C339 O331 1.258 . S
C339 O332 1.266 . S
Co340 O343 1.970 . S
Co340 N357 1.989 . S
Co340 O365 1.967 . S
Co340 O372 1.920 . S
Co341 O344 1.966 . S
Co341 N350 2.022 . S
Co341 N358 1.993 . S
Co341 O366 1.941 . S
C342 O343 1.258 . S
C342 O344 1.263 . S
O343 Co340 1.970 . S
O343 C342 1.258 . S
O344 Co341 1.966 . S
O344 C342 1.263 . S
C345 O346 1.235 . S
C345 O372 1.289 . S
O346 C345 1.235 . S
C347 C349 1.400 . S
C347 N350 1.351 . S
C347 C352 1.501 . S
C348 C349 1.387 . S
C348 N351 1.341 . S
C349 C347 1.400 . S
C349 C348 1.387 . S
N350 Co341 2.022 . S
N350 C347 1.351 . S
N350 N351 1.365 . S
N351 C348 1.341 . S
N351 N350 1.365 . S
N351 H371 0.862 . S
C352 C347 1.501 . S
C352 H353 0.961 . S
C352 H354 0.961 . S
C352 H355 0.960 . S
H353 C352 0.961 . S
H354 C352 0.961 . S
H355 C352 0.960 . S
C356 N357 1.342 . S
C356 C360 1.401 . S
C356 C361 1.499 . S
N357 Co340 1.989 . S
N357 C356 1.342 . S
N357 N358 1.388 . S
N358 Co341 1.993 . S
N358 N357 1.388 . S
N358 C359 1.346 . S
C359 N358 1.346 . S
C359 C360 1.396 . S
C359 C369 1.510 . S
C360 C356 1.401 . S
C360 C359 1.396 . S
C361 C356 1.499 . S
C361 H362 0.959 . S
C361 H363 0.960 . S
C361 H364 0.961 . S
H362 C361 0.959 . S
H363 C361 0.960 . S
H364 C361 0.961 . S
O365 Co340 1.967 . S
O365 C373 1.258 . S
O366 Co341 1.941 . S
O366 C373 1.266 . S
H367 C369 0.959 . S
H368 C369 0.961 . S
C369 C359 1.510 . S
C369 H367 0.959 . S
C369 H368 0.961 . S
C369 H370 0.960 . S
H370 C369 0.960 . S
H371 N351 0.862 . S
O372 Co340 1.920 . S
O372 C345 1.289 . S
C373 O365 1.258 . S
C373 O366 1.266 . S
Co374 O377 1.970 . S
Co374 N391 1.989 . S
Co374 O399 1.967 . S
Co374 O406 1.920 . S
Co375 O378 1.966 . S
Co375 N384 2.022 . S
Co375 N392 1.993 . S
Co375 O400 1.941 . S
C376 O377 1.258 . S
C376 O378 1.263 . S
O377 Co374 1.970 . S
O377 C376 1.258 . S
O378 Co375 1.966 . S
O378 C376 1.263 . S
C379 O380 1.235 . S
C379 O406 1.289 . S
O380 C379 1.235 . S
C381 C383 1.400 . S
C381 N384 1.351 . S
C381 C386 1.501 . S
C382 C383 1.387 . S
C382 N385 1.341 . S
C383 C381 1.400 . S
C383 C382 1.387 . S
N384 Co375 2.022 . S
N384 C381 1.351 . S
N384 N385 1.365 . S
N385 C382 1.341 . S
N385 N384 1.365 . S
N385 H405 0.862 . S
C386 C381 1.501 . S
C386 H387 0.961 . S
C386 H388 0.961 . S
C386 H389 0.960 . S
H387 C386 0.961 . S
H388 C386 0.961 . S
H389 C386 0.960 . S
C390 N391 1.342 . S
C390 C394 1.401 . S
C390 C395 1.499 . S
N391 Co374 1.989 . S
N391 C390 1.342 . S
N391 N392 1.388 . S
N392 Co375 1.993 . S
N392 N391 1.388 . S
N392 C393 1.346 . S
C393 N392 1.346 . S
C393 C394 1.396 . S
C393 C403 1.510 . S
C394 C390 1.401 . S
C394 C393 1.396 . S
C395 C390 1.499 . S
C395 H396 0.959 . S
C395 H397 0.960 . S
C395 H398 0.961 . S
H396 C395 0.959 . S
H397 C395 0.960 . S
H398 C395 0.961 . S
O399 Co374 1.967 . S
O399 C407 1.258 . S
O400 Co375 1.941 . S
O400 C407 1.266 . S
H401 C403 0.959 . S
H402 C403 0.961 . S
C403 C393 1.510 . S
C403 H401 0.959 . S
C403 H402 0.961 . S
C403 H404 0.960 . S
H404 C403 0.960 . S
H405 N385 0.862 . S
O406 Co374 1.920 . S
O406 C379 1.289 . S
C407 O399 1.258 . S
C407 O400 1.266 . S
H408 C414 0.930 . S
H409 C418 0.930 . S
H410 C423 0.929 1_565 S
H411 C421 0.929 1_545 S
H412 C416 0.929 . S
H413 C422 0.929 . S
C414 H408 0.930 . S
C414 C415 1.367 . S
C414 C422 1.378 . S
C415 C414 1.367 . S
C415 C423 1.433 . S
C416 H412 0.929 . S
C416 C418 1.378 . S
C416 C420 1.350 . S
C417 C420 1.463 1_544 S
C417 C422 1.350 . S
C417 N425 1.427 1_545 S
C418 H409 0.930 . S
C418 C416 1.378 . S
C418 C419 1.367 . S
C419 C418 1.367 . S
C419 C421 1.433 . S
C420 C416 1.350 . S
C420 C417 1.463 1_566 S
C420 N424 1.427 1_565 S
C421 H411 0.929 1_565 S
C421 C419 1.433 . S
C421 N424 1.384 1_565 S
C422 H413 0.929 . S
C422 C414 1.378 . S
C422 C417 1.350 . S
C423 H410 0.929 1_545 S
C423 C415 1.433 . S
C423 N425 1.384 1_545 S
N424 C420 1.427 1_545 S
N424 C421 1.384 1_545 S
N425 C417 1.427 1_565 S
N425 C423 1.384 1_565 S
H426 C432 0.930 . S
H427 C436 0.930 . S
H428 C441 0.929 . S
H429 C439 0.929 . S
H430 C434 0.929 . S
H431 C440 0.929 . S
C432 H426 0.930 . S
C432 C433 1.367 . S
C432 C440 1.378 . S
C433 C432 1.367 . S
C433 C441 1.433 . S
C434 H430 0.929 . S
C434 C436 1.378 . S
C434 C438 1.350 . S
C435 C438 1.463 . S
C435 C440 1.350 . S
C435 N443 1.427 . S
C436 H427 0.930 . S
C436 C434 1.378 . S
C436 C437 1.367 . S
C437 C436 1.367 . S
C437 C439 1.433 . S
C438 C434 1.350 . S
C438 C435 1.463 . S
C438 N442 1.427 . S
C439 H429 0.929 . S
C439 C437 1.433 . S
C439 N442 1.384 . S
C440 H431 0.929 . S
C440 C432 1.378 . S
C440 C435 1.350 . S
C441 H428 0.929 . S
C441 C433 1.433 . S
C441 N443 1.384 . S
N442 C438 1.427 . S
N442 C439 1.384 . S
N443 C435 1.427 . S
N443 C441 1.384 . S
H444 C450 0.930 1_455 S
H445 C454 0.930 1_655 S
H446 C459 0.929 . S
H447 C457 0.929 . S
H448 C452 0.929 . S
H449 C458 0.929 . S
C450 H444 0.930 1_655 S
C450 C451 1.367 . S
C450 C458 1.378 1_655 S
C451 C450 1.367 . S
C451 C459 1.433 . S
C452 H448 0.929 . S
C452 C454 1.378 1_655 S
C452 C456 1.350 1_655 S
C453 C456 1.463 1_655 S
C453 C458 1.350 1_655 S
C453 N461 1.427 . S
C454 H445 0.930 1_455 S
C454 C452 1.378 1_455 S
C454 C455 1.367 . S
C455 C454 1.367 . S
C455 C457 1.433 . S
C456 C452 1.350 1_455 S
C456 C453 1.463 1_455 S
C456 N460 1.427 . S
C457 H447 0.929 . S
C457 C455 1.433 . S
C457 N460 1.384 . S
C458 H449 0.929 . S
C458 C450 1.378 1_455 S
C458 C453 1.350 1_455 S
C459 H446 0.929 . S
C459 C451 1.433 . S
C459 N461 1.384 . S
N460 C456 1.427 . S
N460 C457 1.384 . S
N461 C453 1.427 . S
N461 C459 1.384 . S
H462 C468 0.930 . S
H463 C472 0.930 . S
H464 C477 0.927 1_565 S
H465 C475 0.927 1_545 S
H466 C470 0.929 . S
H467 C476 0.929 . S
C468 H462 0.930 . S
C468 C469 1.367 . S
C468 C476 1.378 . S
C469 C468 1.367 . S
C469 C477 1.439 . S
C470 H466 0.929 . S
C470 C472 1.378 . S
C470 C474 1.350 . S
C471 C474 1.463 1_546 S
C471 C476 1.350 . S
C471 N479 1.427 1_545 S
C472 H463 0.930 . S
C472 C470 1.378 . S
C472 C473 1.367 . S
C473 C472 1.367 . S
C473 C475 1.439 . S
C474 C470 1.350 . S
C474 C471 1.463 1_564 S
C474 N478 1.427 1_565 S
C475 H465 0.927 1_565 S
C475 C473 1.439 . S
C475 N478 1.380 1_565 S
C476 H467 0.929 . S
C476 C468 1.378 . S
C476 C471 1.350 . S
C477 H464 0.927 1_545 S
C477 C469 1.439 . S
C477 N479 1.380 1_545 S
N478 C474 1.427 1_545 S
N478 C475 1.380 1_545 S
N479 C471 1.427 1_565 S
N479 C477 1.380 1_565 S
H480 C486 0.930 . S
H481 C490 0.930 . S
H482 C495 0.929 . S
H483 C493 0.929 . S
H484 C488 0.929 . S
H485 C494 0.929 . S
C486 H480 0.930 . S
C486 C487 1.367 . S
C486 C494 1.378 . S
C487 C486 1.367 . S
C487 C495 1.433 . S
C488 H484 0.929 . S
C488 C490 1.378 . S
C488 C492 1.350 . S
C489 C492 1.463 . S
C489 C494 1.350 . S
C489 N497 1.427 . S
C490 H481 0.930 . S
C490 C488 1.378 . S
C490 C491 1.367 . S
C491 C490 1.367 . S
C491 C493 1.433 . S
C492 C488 1.350 . S
C492 C489 1.463 . S
C492 N496 1.427 . S
C493 H483 0.929 . S
C493 C491 1.433 . S
C493 N496 1.384 . S
C494 H485 0.929 . S
C494 C486 1.378 . S
C494 C489 1.350 . S
C495 H482 0.929 . S
C495 C487 1.433 . S
C495 N497 1.384 . S
N496 C492 1.427 . S
N496 C493 1.384 . S
N497 C489 1.427 . S
N497 C495 1.384 . S
H498 C504 0.930 . S
H499 C508 0.930 . S
H500 C513 0.929 . S
H501 C511 0.929 . S
H502 C506 0.929 . S
H503 C512 0.929 . S
C504 H498 0.930 . S
C504 C505 1.367 . S
C504 C512 1.378 . S
C505 C504 1.367 . S
C505 C513 1.433 1_455 S
C506 H502 0.929 . S
C506 C508 1.378 . S
C506 C510 1.350 . S
C507 C510 1.463 1_455 S
C507 C512 1.350 . S
C507 N515 1.427 1_455 S
C508 H499 0.930 . S
C508 C506 1.378 . S
C508 C509 1.367 . S
C509 C508 1.367 . S
C509 C511 1.433 1_655 S
C510 C506 1.350 . S
C510 C507 1.463 1_655 S
C510 N514 1.427 1_655 S
C511 H501 0.929 . S
C511 C509 1.433 1_455 S
C511 N514 1.384 . S
C512 H503 0.929 . S
C512 C504 1.378 . S
C512 C507 1.350 . S
C513 H500 0.929 . S
C513 C505 1.433 1_655 S
C513 N515 1.384 . S
N514 C510 1.427 1_455 S
N514 C511 1.384 . S
N515 C507 1.427 1_655 S
N515 C513 1.384 . S
H516 C522 0.930 . S
H517 C526 0.930 . S
H518 C531 0.929 . S
H519 C529 0.929 . S
H520 C524 0.929 . S
H521 C530 0.929 . S
C522 H516 0.930 . S
C522 C523 1.367 . S
C522 C530 1.378 . S
C523 C522 1.367 . S
C523 C531 1.433 . S
C524 H520 0.929 . S
C524 C526 1.378 . S
C524 C528 1.350 . S
C525 C528 1.463 1_565 S
C525 C530 1.350 . S
C525 N533 1.427 . S
C526 H517 0.930 . S
C526 C524 1.378 . S
C526 C527 1.367 . S
C527 C526 1.367 . S
C527 C529 1.433 . S
C528 C524 1.350 . S
C528 C525 1.463 1_545 S
C528 N532 1.427 . S
C529 H519 0.929 . S
C529 C527 1.433 . S
C529 N532 1.384 . S
C530 H521 0.929 . S
C530 C522 1.378 . S
C530 C525 1.350 . S
C531 H518 0.929 . S
C531 C523 1.433 . S
C531 N533 1.384 . S
N532 C528 1.427 . S
N532 C529 1.384 . S
N533 C525 1.427 . S
N533 C531 1.384 . S
H534 C540 0.930 . S
H535 C544 0.930 . S
H536 C549 0.929 . S
H537 C547 0.929 . S
H538 C542 0.929 . S
H539 C548 0.929 . S
C540 H534 0.930 . S
C540 C541 1.367 . S
C540 C548 1.378 . S
C541 C540 1.367 . S
C541 C549 1.433 . S
C542 H538 0.929 . S
C542 C544 1.378 . S
C542 C546 1.350 . S
C543 C546 1.463 . S
C543 C548 1.350 . S
C543 N551 1.427 . S
C544 H535 0.930 . S
C544 C542 1.378 . S
C544 C545 1.367 . S
C545 C544 1.367 . S
C545 C547 1.433 . S
C546 C542 1.350 . S
C546 C543 1.463 . S
C546 N550 1.427 . S
C547 H537 0.929 . S
C547 C545 1.433 . S
C547 N550 1.384 . S
C548 H539 0.929 . S
C548 C540 1.378 . S
C548 C543 1.350 . S
C549 H536 0.929 . S
C549 C541 1.433 . S
C549 N551 1.384 . S
N550 C546 1.427 . S
N550 C547 1.384 . S
N551 C543 1.427 . S
N551 C549 1.384 . S
H552 C558 0.930 . S
H553 C562 0.930 . S
H554 C567 0.929 . S
H555 C565 0.929 . S
H556 C560 0.929 1_455 S
H557 C566 0.929 1_655 S
C558 H552 0.930 . S
C558 C559 1.367 . S
C558 C566 1.378 . S
C559 C558 1.367 . S
C559 C567 1.433 . S
C560 H556 0.929 1_655 S
C560 C562 1.378 . S
C560 C564 1.350 . S
C561 C564 1.463 1_455 S
C561 C566 1.350 . S
C561 N569 1.427 . S
C562 H553 0.930 . S
C562 C560 1.378 . S
C562 C563 1.367 . S
C563 C562 1.367 . S
C563 C565 1.433 . S
C564 C560 1.350 . S
C564 C561 1.463 1_655 S
C564 N568 1.427 . S
C565 H555 0.929 . S
C565 C563 1.433 . S
C565 N568 1.384 . S
C566 H557 0.929 1_455 S
C566 C558 1.378 . S
C566 C561 1.350 . S
C567 H554 0.929 . S
C567 C559 1.433 . S
C567 N569 1.384 . S
N568 C564 1.427 . S
N568 C565 1.384 . S
N569 C561 1.427 . S
N569 C567 1.384 . S
H570 C576 0.930 . S
H571 C580 0.930 . S
H572 C585 0.929 . S
H573 C583 0.929 . S
H574 C578 0.929 1_455 S
H575 C584 0.929 1_655 S
C576 H570 0.930 . S
C576 C577 1.367 . S
C576 C584 1.378 . S
C577 C576 1.367 . S
C577 C585 1.433 . S
C578 H574 0.929 1_655 S
C578 C580 1.378 . S
C578 C582 1.350 . S
C579 C582 1.463 1_455 S
C579 C584 1.350 . S
C579 N587 1.427 . S
C580 H571 0.930 . S
C580 C578 1.378 . S
C580 C581 1.367 . S
C581 C580 1.367 . S
C581 C583 1.433 . S
C582 C578 1.350 . S
C582 C579 1.463 1_655 S
C582 N586 1.427 . S
C583 H573 0.929 . S
C583 C581 1.433 . S
C583 N586 1.384 . S
C584 H575 0.929 1_455 S
C584 C576 1.378 . S
C584 C579 1.350 . S
C585 H572 0.929 . S
C585 C577 1.433 . S
C585 N587 1.384 . S
N586 C582 1.427 . S
N586 C583 1.384 . S
N587 C579 1.427 . S
N587 C585 1.384 . S
H588 C594 0.930 . S
H589 C598 0.930 . S
H590 C603 0.929 . S
H591 C601 0.929 . S
H592 C596 0.929 . S
H593 C602 0.929 . S
C594 H588 0.930 . S
C594 C595 1.367 . S
C594 C602 1.378 . S
C595 C594 1.367 . S
C595 C603 1.433 . S
C596 H592 0.929 . S
C596 C598 1.378 . S
C596 C600 1.350 . S
C597 C600 1.463 1_545 S
C597 C602 1.350 . S
C597 N605 1.427 . S
C598 H589 0.930 . S
C598 C596 1.378 . S
C598 C599 1.367 . S
C599 C598 1.367 . S
C599 C601 1.433 . S
C600 C596 1.350 . S
C600 C597 1.463 1_565 S
C600 N604 1.427 . S
C601 H591 0.929 . S
C601 C599 1.433 . S
C601 N604 1.384 . S
C602 H593 0.929 . S
C602 C594 1.378 . S
C602 C597 1.350 . S
C603 H590 0.929 . S
C603 C595 1.433 . S
C603 N605 1.384 . S
N604 C600 1.427 . S
N604 C601 1.384 . S
N605 C597 1.427 . S
N605 C603 1.384 . S
H606 C612 0.930 . S
H607 C616 0.930 . S
H608 C621 0.929 . S
H609 C619 0.929 . S
H610 C614 0.929 . S
H611 C620 0.929 . S
C612 H606 0.930 . S
C612 C613 1.367 . S
C612 C620 1.378 . S
C613 C612 1.367 . S
C613 C621 1.433 . S
C614 H610 0.929 . S
C614 C616 1.378 . S
C614 C618 1.350 . S
C615 C618 1.463 . S
C615 C620 1.350 . S
C615 N623 1.427 . S
C616 H607 0.930 . S
C616 C614 1.378 . S
C616 C617 1.367 . S
C617 C616 1.367 . S
C617 C619 1.433 . S
C618 C614 1.350 . S
C618 C615 1.463 . S
C618 N622 1.427 . S
C619 H609 0.929 . S
C619 C617 1.433 . S
C619 N622 1.384 . S
C620 H611 0.929 . S
C620 C612 1.378 . S
C620 C615 1.350 . S
C621 H608 0.929 . S
C621 C613 1.433 . S
C621 N623 1.384 . S
N622 C618 1.427 . S
N622 C619 1.384 . S
N623 C615 1.427 . S
N623 C621 1.384 . S
H624 C630 0.930 . S
H625 C634 0.930 . S
H626 C639 0.929 . S
H627 C637 0.929 . S
H628 C632 0.929 . S
H629 C638 0.929 . S
C630 H624 0.930 . S
C630 C631 1.367 . S
C630 C638 1.378 . S
C631 C630 1.367 . S
C631 C639 1.433 . S
C632 H628 0.929 . S
C632 C634 1.378 . S
C632 C636 1.350 . S
C633 C636 1.463 . S
C633 C638 1.350 . S
C633 N641 1.427 . S
C634 H625 0.930 . S
C634 C632 1.378 . S
C634 C635 1.367 . S
C635 C634 1.367 . S
C635 C637 1.433 . S
C636 C632 1.350 . S
C636 C633 1.463 . S
C636 N640 1.427 . S
C637 H627 0.929 . S
C637 C635 1.433 . S
C637 N640 1.384 . S
C638 H629 0.929 . S
C638 C630 1.378 . S
C638 C633 1.350 . S
C639 H626 0.929 . S
C639 C631 1.433 . S
C639 N641 1.384 . S
N640 C636 1.427 . S
N640 C637 1.384 . S
N641 C633 1.427 . S
N641 C639 1.384 . S
H642 C648 0.930 . S
H643 C652 0.930 . S
H644 C657 0.929 . S
H645 C655 0.929 . S
H646 C650 0.929 . S
H647 C656 0.929 . S
C648 H642 0.930 . S
C648 C649 1.367 . S
C648 C656 1.378 . S
C649 C648 1.367 . S
C649 C657 1.433 . S
C650 H646 0.929 . S
C650 C652 1.378 . S
C650 C654 1.350 . S
C651 C654 1.463 . S
C651 C656 1.350 . S
C651 N659 1.427 . S
C652 H643 0.930 . S
C652 C650 1.378 . S
C652 C653 1.367 . S
C653 C652 1.367 . S
C653 C655 1.433 . S
C654 C650 1.350 . S
C654 C651 1.463 . S
C654 N658 1.427 . S
C655 H645 0.929 . S
C655 C653 1.433 . S
C655 N658 1.384 . S
C656 H647 0.929 . S
C656 C648 1.378 . S
C656 C651 1.350 . S
C657 H644 0.929 . S
C657 C649 1.433 . S
C657 N659 1.384 . S
N658 C654 1.427 . S
N658 C655 1.384 . S
N659 C651 1.427 . S
N659 C657 1.384 . S
H660 C666 0.930 . S
H661 C670 0.930 . S
H662 C675 0.929 . S
H663 C673 0.929 . S
H664 C668 0.929 . S
H665 C674 0.929 . S
C666 H660 0.930 . S
C666 C667 1.367 . S
C666 C674 1.378 . S
C667 C666 1.367 . S
C667 C675 1.433 . S
C668 H664 0.929 . S
C668 C670 1.378 . S
C668 C672 1.350 . S
C669 C672 1.463 . S
C669 C674 1.350 . S
C669 N677 1.427 . S
C670 H661 0.930 . S
C670 C668 1.378 . S
C670 C671 1.367 . S
C671 C670 1.367 . S
C671 C673 1.433 . S
C672 C668 1.350 . S
C672 C669 1.463 . S
C672 N676 1.427 . S
C673 H663 0.929 . S
C673 C671 1.433 . S
C673 N676 1.384 . S
C674 H665 0.929 . S
C674 C666 1.378 . S
C674 C669 1.350 . S
C675 H662 0.929 . S
C675 C667 1.433 . S
C675 N677 1.384 . S
N676 C672 1.427 . S
N676 C673 1.384 . S
N677 C669 1.427 . S
N677 C675 1.384 . S
H678 C684 0.930 . S
H679 C688 0.930 . S
H680 C693 0.929 . S
H681 C691 0.929 . S
H682 C686 0.929 . S
H683 C692 0.929 . S
C684 H678 0.930 . S
C684 C685 1.367 . S
C684 C692 1.378 . S
C685 C684 1.367 . S
C685 C693 1.433 . S
C686 H682 0.929 . S
C686 C688 1.378 . S
C686 C690 1.350 . S
C687 C690 1.463 . S
C687 C692 1.350 . S
C687 N695 1.427 . S
C688 H679 0.930 . S
C688 C686 1.378 . S
C688 C689 1.367 . S
C689 C688 1.367 . S
C689 C691 1.433 . S
C690 C686 1.350 . S
C690 C687 1.463 . S
C690 N694 1.427 . S
C691 H681 0.929 . S
C691 C689 1.433 . S
C691 N694 1.384 . S
C692 H683 0.929 . S
C692 C684 1.378 . S
C692 C687 1.350 . S
C693 H680 0.929 . S
C693 C685 1.433 . S
C693 N695 1.384 . S
N694 C690 1.427 . S
N694 C691 1.384 . S
N695 C687 1.427 . S
N695 C693 1.384 . S
H696 C702 0.930 . S
H697 C706 0.930 . S
H698 C711 0.929 . S
H699 C709 0.929 . S
H700 C704 0.929 . S
H701 C710 0.929 . S
C702 H696 0.930 . S
C702 C703 1.367 . S
C702 C710 1.378 . S
C703 C702 1.367 . S
C703 C711 1.433 . S
C704 H700 0.929 . S
C704 C706 1.378 . S
C704 C708 1.350 . S
C705 C708 1.463 . S
C705 C710 1.350 . S
C705 N713 1.427 . S
C706 H697 0.930 . S
C706 C704 1.378 . S
C706 C707 1.367 . S
C707 C706 1.367 . S
C707 C709 1.433 . S
C708 C704 1.350 . S
C708 C705 1.463 . S
C708 N712 1.427 . S
C709 H699 0.929 . S
C709 C707 1.433 . S
C709 N712 1.384 . S
C710 H701 0.929 . S
C710 C702 1.378 . S
C710 C705 1.350 . S
C711 H698 0.929 . S
C711 C703 1.433 . S
C711 N713 1.384 . S
N712 C708 1.427 . S
N712 C709 1.384 . S
N713 C705 1.427 . S
N713 C711 1.384 . S
H714 C720 0.930 . S
H715 C724 0.930 . S
H716 C729 0.929 . S
H717 C727 0.929 . S
H718 C722 0.929 . S
H719 C728 0.929 . S
C720 H714 0.930 . S
C720 C721 1.367 . S
C720 C728 1.378 . S
C721 C720 1.367 . S
C721 C729 1.433 . S
C722 H718 0.929 . S
C722 C724 1.378 . S
C722 C726 1.350 . S
C723 C726 1.463 . S
C723 C728 1.350 . S
C723 N731 1.427 . S
C724 H715 0.930 . S
C724 C722 1.378 . S
C724 C725 1.367 . S
C725 C724 1.367 . S
C725 C727 1.433 . S
C726 C722 1.350 . S
C726 C723 1.463 . S
C726 N730 1.427 . S
C727 H717 0.929 . S
C727 C725 1.433 . S
C727 N730 1.384 . S
C728 H719 0.929 . S
C728 C720 1.378 . S
C728 C723 1.350 . S
C729 H716 0.929 . S
C729 C721 1.433 . S
C729 N731 1.384 . S
N730 C726 1.427 . S
N730 C727 1.384 . S
N731 C723 1.427 . S
N731 C729 1.384 . S
H732 C738 0.930 . S
H733 C742 0.930 . S
H734 C747 0.929 . S
H735 C745 0.929 . S
H736 C740 0.929 . S
H737 C746 0.929 . S
C738 H732 0.930 . S
C738 C739 1.367 . S
C738 C746 1.378 . S
C739 C738 1.367 . S
C739 C747 1.433 . S
C740 H736 0.929 . S
C740 C742 1.378 . S
C740 C744 1.350 . S
C741 C744 1.463 . S
C741 C746 1.350 . S
C741 N749 1.427 . S
C742 H733 0.930 . S
C742 C740 1.378 . S
C742 C743 1.367 . S
C743 C742 1.367 . S
C743 C745 1.433 . S
C744 C740 1.350 . S
C744 C741 1.463 . S
C744 N748 1.427 . S
C745 H735 0.929 . S
C745 C743 1.433 . S
C745 N748 1.384 . S
C746 H737 0.929 . S
C746 C738 1.378 . S
C746 C741 1.350 . S
C747 H734 0.929 . S
C747 C739 1.433 . S
C747 N749 1.384 . S
N748 C744 1.427 . S
N748 C745 1.384 . S
N749 C741 1.427 . S
N749 C747 1.384 . S
H750 C756 0.930 . S
H751 C760 0.930 . S
H752 C765 0.929 . S
H753 C763 0.929 . S
H754 C758 0.929 . S
H755 C764 0.929 . S
C756 H750 0.930 . S
C756 C757 1.367 1_655 S
C756 C764 1.378 . S
C757 C756 1.367 1_455 S
C757 C765 1.433 . S
C758 H754 0.929 . S
C758 C760 1.378 . S
C758 C762 1.350 1_455 S
C759 C762 1.463 1_455 S
C759 C764 1.350 1_455 S
C759 N767 1.427 . S
C760 H751 0.930 . S
C760 C758 1.378 . S
C760 C761 1.367 1_455 S
C761 C760 1.367 1_655 S
C761 C763 1.433 . S
C762 C758 1.350 1_655 S
C762 C759 1.463 1_655 S
C762 N766 1.427 . S
C763 H753 0.929 . S
C763 C761 1.433 . S
C763 N766 1.384 . S
C764 H755 0.929 . S
C764 C756 1.378 . S
C764 C759 1.350 1_655 S
C765 H752 0.929 . S
C765 C757 1.433 . S
C765 N767 1.384 . S
N766 C762 1.427 . S
N766 C763 1.384 . S
N767 C759 1.427 . S
N767 C765 1.384 . S
H768 C774 0.924 1_545 S
H769 C778 0.924 1_565 S
H770 C783 0.929 . S
H771 C781 0.929 . S
H772 C776 0.929 . S
H773 C782 0.929 . S
C774 H768 0.924 1_565 S
C774 C775 1.367 . S
C774 C782 1.378 1_565 S
C775 C774 1.367 . S
C775 C783 1.433 . S
C776 H772 0.929 . S
C776 C778 1.378 1_565 S
C776 C780 1.350 1_565 S
C777 C780 1.463 1_565 S
C777 C782 1.350 1_565 S
C777 N785 1.427 . S
C778 H769 0.924 1_545 S
C778 C776 1.378 1_545 S
C778 C779 1.367 . S
C779 C778 1.367 . S
C779 C781 1.433 . S
C780 C776 1.350 1_545 S
C780 C777 1.463 1_545 S
C780 N784 1.427 . S
C781 H771 0.929 . S
C781 C779 1.433 . S
C781 N784 1.384 . S
C782 H773 0.929 . S
C782 C774 1.378 1_545 S
C782 C777 1.350 1_545 S
C783 H770 0.929 . S
C783 C775 1.433 . S
C783 N785 1.384 . S
N784 C780 1.427 . S
N784 C781 1.384 . S
N785 C777 1.427 . S
N785 C783 1.384 . S
H786 C792 0.930 . S
H787 C796 0.930 . S
H788 C801 0.929 . S
H789 C799 0.929 . S
H790 C794 0.929 . S
H791 C800 0.929 . S
C792 H786 0.930 . S
C792 C793 1.367 . S
C792 C800 1.378 . S
C793 C792 1.367 . S
C793 C801 1.433 . S
C794 H790 0.929 . S
C794 C796 1.378 . S
C794 C798 1.350 . S
C795 C798 1.463 . S
C795 C800 1.350 . S
C795 N803 1.427 . S
C796 H787 0.930 . S
C796 C794 1.378 . S
C796 C797 1.367 . S
C797 C796 1.367 . S
C797 C799 1.433 . S
C798 C794 1.350 . S
C798 C795 1.463 . S
C798 N802 1.427 . S
C799 H789 0.929 . S
C799 C797 1.433 . S
C799 N802 1.384 . S
C800 H791 0.929 . S
C800 C792 1.378 . S
C800 C795 1.350 . S
C801 H788 0.929 . S
C801 C793 1.433 . S
C801 N803 1.384 . S
N802 C798 1.427 . S
N802 C799 1.384 . S
N803 C795 1.427 . S
N803 C801 1.384 . S
H804 C810 0.930 . S
H805 C814 0.930 . S
H806 C819 0.929 . S
H807 C817 0.929 . S
H808 C812 0.929 . S
H809 C818 0.929 . S
C810 H804 0.930 . S
C810 C811 1.367 . S
C810 C818 1.378 . S
C811 C810 1.367 . S
C811 C819 1.433 . S
C812 H808 0.929 . S
C812 C814 1.378 . S
C812 C816 1.350 . S
C813 C816 1.463 1_455 S
C813 C818 1.350 . S
C813 N821 1.427 1_455 S
C814 H805 0.930 . S
C814 C812 1.378 . S
C814 C815 1.367 . S
C815 C814 1.367 . S
C815 C817 1.433 . S
C816 C812 1.350 . S
C816 C813 1.463 1_655 S
C816 N820 1.427 1_655 S
C817 H807 0.929 . S
C817 C815 1.433 . S
C817 N820 1.384 1_655 S
C818 H809 0.929 . S
C818 C810 1.378 . S
C818 C813 1.350 . S
C819 H806 0.929 . S
C819 C811 1.433 . S
C819 N821 1.384 1_455 S
N820 C816 1.427 1_455 S
N820 C817 1.384 1_455 S
N821 C813 1.427 1_655 S
N821 C819 1.384 1_655 S
H822 C828 0.930 . S
H823 C832 0.930 . S
H824 C837 0.929 . S
H825 C835 0.929 . S
H826 C830 0.929 . S
H827 C836 0.929 . S
C828 H822 0.930 . S
C828 C829 1.367 1_545 S
C828 C836 1.378 . S
C829 C828 1.367 1_565 S
C829 C837 1.433 . S
C830 H826 0.929 . S
C830 C832 1.378 . S
C830 C834 1.350 1_565 S
C831 C834 1.463 1_565 S
C831 C836 1.350 1_565 S
C831 N839 1.427 . S
C832 H823 0.930 . S
C832 C830 1.378 . S
C832 C833 1.367 1_565 S
C833 C832 1.367 1_545 S
C833 C835 1.433 . S
C834 C830 1.350 1_545 S
C834 C831 1.463 1_545 S
C834 N838 1.427 . S
C835 H825 0.929 . S
C835 C833 1.433 . S
C835 N838 1.384 . S
C836 H827 0.929 . S
C836 C828 1.378 . S
C836 C831 1.350 1_545 S
C837 H824 0.929 . S
C837 C829 1.433 . S
C837 N839 1.384 . S
N838 C834 1.427 . S
N838 C835 1.384 . S
N839 C831 1.427 . S
N839 C837 1.384 . S
H840 C846 0.930 . S
H841 C850 0.930 . S
H842 C855 0.929 . S
H843 C853 0.929 . S
H844 C848 0.929 . S
H845 C854 0.929 . S
C846 H840 0.930 . S
C846 C847 1.367 . S
C846 C854 1.378 . S
C847 C846 1.367 . S
C847 C855 1.433 . S
C848 H844 0.929 . S
C848 C850 1.378 . S
C848 C852 1.350 . S
C849 C852 1.463 1_445 S
C849 C854 1.350 . S
C849 N857 1.427 . S
C850 H841 0.930 . S
C850 C848 1.378 . S
C850 C851 1.367 . S
C851 C850 1.367 . S
C851 C853 1.433 . S
C852 C848 1.350 . S
C852 C849 1.463 1_665 S
C852 N856 1.427 . S
C853 H843 0.929 . S
C853 C851 1.433 . S
C853 N856 1.384 . S
C854 H845 0.929 . S
C854 C846 1.378 . S
C854 C849 1.350 . S
C855 H842 0.929 . S
C855 C847 1.433 . S
C855 N857 1.384 . S
N856 C852 1.427 . S
N856 C853 1.384 . S
N857 C849 1.427 . S
N857 C855 1.384 . S
H858 C864 0.930 1_655 S
H859 C868 0.930 1_455 S
H860 C873 0.929 . S
H861 C871 0.929 . S
H862 C866 0.929 . S
H863 C872 0.929 . S
C864 H858 0.930 1_455 S
C864 C865 1.367 . S
C864 C872 1.378 1_455 S
C865 C864 1.367 . S
C865 C873 1.433 . S
C866 H862 0.929 . S
C866 C868 1.378 1_455 S
C866 C870 1.350 1_455 S
C867 C870 1.463 1_445 S
C867 C872 1.350 1_455 S
C867 N875 1.427 . S
C868 H859 0.930 1_655 S
C868 C866 1.378 1_655 S
C868 C869 1.367 . S
C869 C868 1.367 . S
C869 C871 1.433 . S
C870 C866 1.350 1_655 S
C870 C867 1.463 1_665 S
C870 N874 1.427 . S
C871 H861 0.929 . S
C871 C869 1.433 . S
C871 N874 1.384 . S
C872 H863 0.929 . S
C872 C864 1.378 1_655 S
C872 C867 1.350 1_655 S
C873 H860 0.929 . S
C873 C865 1.433 . S
C873 N875 1.384 . S
N874 C870 1.427 . S
N874 C871 1.384 . S
N875 C867 1.427 . S
N875 C873 1.384 . S
H876 C882 0.930 1_565 S
H877 C886 0.930 1_545 S
H878 C891 0.929 . S
H879 C889 0.929 . S
H880 C884 0.929 . S
H881 C890 0.929 . S
C882 H876 0.930 1_545 S
C882 C883 1.367 . S
C882 C890 1.378 1_545 S
C883 C882 1.367 . S
C883 C891 1.433 . S
C884 H880 0.929 . S
C884 C886 1.378 1_545 S
C884 C888 1.350 1_545 S
C885 C888 1.463 1_645 S
C885 C890 1.350 1_545 S
C885 N893 1.427 . S
C886 H877 0.930 1_565 S
C886 C884 1.378 1_565 S
C886 C887 1.367 . S
C887 C886 1.367 . S
C887 C889 1.433 . S
C888 C884 1.350 1_565 S
C888 C885 1.463 1_465 S
C888 N892 1.427 . S
C889 H879 0.929 . S
C889 C887 1.433 . S
C889 N892 1.384 . S
C890 H881 0.929 . S
C890 C882 1.378 1_565 S
C890 C885 1.350 1_565 S
C891 H878 0.929 . S
C891 C883 1.433 . S
C891 N893 1.384 . S
N892 C888 1.427 . S
N892 C889 1.384 . S
N893 C885 1.427 . S
N893 C891 1.384 . S
H894 C900 0.930 . S
H895 C904 0.930 . S
H896 C909 0.929 . S
H897 C907 0.929 . S
H898 C902 0.929 . S
H899 C908 0.929 . S
C900 H894 0.930 . S
C900 C901 1.367 . S
C900 C908 1.378 . S
C901 C900 1.367 . S
C901 C909 1.433 . S
C902 H898 0.929 . S
C902 C904 1.378 . S
C902 C906 1.350 . S
C903 C906 1.463 1_665 S
C903 C908 1.350 . S
C903 N911 1.427 . S
C904 H895 0.930 . S
C904 C902 1.378 . S
C904 C905 1.367 . S
C905 C904 1.367 . S
C905 C907 1.433 . S
C906 C902 1.350 . S
C906 C903 1.463 1_445 S
C906 N910 1.427 . S
C907 H897 0.929 . S
C907 C905 1.433 . S
C907 N910 1.384 . S
C908 H899 0.929 . S
C908 C900 1.378 . S
C908 C903 1.350 . S
C909 H896 0.929 . S
C909 C901 1.433 . S
C909 N911 1.384 . S
N910 C906 1.427 . S
N910 C907 1.384 . S
N911 C903 1.427 . S
N911 C909 1.384 . S
H912 C918 0.930 . S
H913 C922 0.930 . S
H914 C927 0.929 1_455 S
H915 C925 0.929 1_655 S
H916 C920 0.929 . S
H917 C926 0.929 . S
C918 H912 0.930 . S
C918 C919 1.367 . S
C918 C926 1.378 1_545 S
C919 C918 1.367 . S
C919 C927 1.433 . S
C920 H916 0.929 . S
C920 C922 1.378 1_545 S
C920 C924 1.350 1_545 S
C921 C924 1.463 1_645 S
C921 C926 1.350 1_545 S
C921 N929 1.427 1_655 S
C922 H913 0.930 . S
C922 C920 1.378 1_565 S
C922 C923 1.367 . S
C923 C922 1.367 . S
C923 C925 1.433 . S
C924 C920 1.350 1_565 S
C924 C921 1.463 1_465 S
C924 N928 1.427 1_455 S
C925 H915 0.929 1_455 S
C925 C923 1.433 . S
C925 N928 1.384 1_455 S
C926 H917 0.929 . S
C926 C918 1.378 1_565 S
C926 C921 1.350 1_565 S
C927 H914 0.929 1_655 S
C927 C919 1.433 . S
C927 N929 1.384 1_655 S
N928 C924 1.427 1_655 S
N928 C925 1.384 1_655 S
N929 C921 1.427 1_455 S
N929 C927 1.384 1_455 S
H930 C936 0.930 . S
H931 C940 0.930 . S
H932 C945 0.929 . S
H933 C943 0.929 . S
H934 C938 0.929 . S
H935 C944 0.929 . S
C936 H930 0.930 . S
C936 C937 1.367 . S
C936 C944 1.378 . S
C937 C936 1.367 . S
C937 C945 1.433 . S
C938 H934 0.929 . S
C938 C940 1.378 . S
C938 C942 1.350 . S
C939 C942 1.463 1_445 S
C939 C944 1.350 . S
C939 N947 1.427 . S
C940 H931 0.930 . S
C940 C938 1.378 . S
C940 C941 1.367 . S
C941 C940 1.367 . S
C941 C943 1.433 . S
C942 C938 1.350 . S
C942 C939 1.463 1_665 S
C942 N946 1.427 . S
C943 H933 0.929 . S
C943 C941 1.433 . S
C943 N946 1.384 . S
C944 H935 0.929 . S
C944 C936 1.378 . S
C944 C939 1.350 . S
C945 H932 0.929 . S
C945 C937 1.433 . S
C945 N947 1.384 . S
N946 C942 1.427 . S
N946 C943 1.384 . S
N947 C939 1.427 . S
N947 C945 1.384 . S
C415 C9 1.453 . S
C419 C247 1.456 . S
C433 C43 1.457 . S
C437 C281 1.462 . S
C451 C77 1.461 . S
C455 C315 1.465 . S
C469 C349 1.456 . S
C473 C111 1.453 . S
C487 C383 1.456 . S
C491 C145 1.453 . S
C505 C179 1.454 . S
C509 C213 1.452 . S
C523 C122 0.565 . S
C527 C20 0.565 . S
C541 C54 0.558 . S
C545 C156 0.559 . S
C559 C190 0.558 . S
C563 C88 0.559 . S
C577 C326 0.559 . S
C581 C224 0.559 . S
C595 C360 0.559 . S
C599 C258 0.560 . S
C613 C292 0.564 . S
C617 C394 0.564 . S
C631 C277 1.495 . S
C635 C5 1.499 . S
C649 C39 1.494 . S
C653 C311 1.499 . S
C667 C73 1.494 . S
C671 C345 1.496 . S
C685 C107 1.499 . S
C689 C379 1.497 . S
C703 C141 1.497 . S
C707 C209 1.499 . S
C721 C243 1.498 . S
C725 C175 1.498 . S
C739 C135 2.239 . S
C743 C33 2.238 . S
C757 C67 2.242 . S
C761 C169 2.242 . S
C775 C203 2.241 . S
C779 C101 2.241 . S
C793 C237 2.238 . S
C797 C339 2.238 . S
C811 C271 2.238 . S
C815 C373 2.238 . S
C829 C407 2.242 . S
C833 C305 2.242 . S
C847 C2 1.475 . S
C851 C104 1.476 . S
C865 C36 1.477 . S
C869 C138 1.477 . S
C883 C70 1.476 . S
C887 C172 1.477 . S
C901 C206 1.475 . S
C905 C308 1.476 . S
C919 C342 1.468 . S
C923 C240 1.468 . S
C937 C274 1.470 . S
C941 C376 1.471 . S
