# Generated by pormake.
# Topology msw, (6)-cn, num edge types: 1
# Building blocks:
#     Node 0, Type 0, BuildingBlock: VOLQOD_clean_sbu_1, # of connection points: 6
#     Node 1, Type 0, BuildingBlock: VOLQOD_clean_sbu_1, # of connection points: 6
#     Edge 2, Type (0, 0), BuildingBlock: MIFKUJ_clean_linker_0, # of connection points: 2
#     Edge 3, Type (0, 0), BuildingBlock: MIFKUJ_clean_linker_0, # of connection points: 2
#     Edge 4, Type (0, 0), BuildingBlock: MIFKUJ_clean_linker_0, # of connection points: 2
#     Edge 5, Type (0, 0), BuildingBlock: MIFKUJ_clean_linker_0, # of connection points: 2
#     Edge 6, Type (0, 0), BuildingBlock: MIFKUJ_clean_linker_0, # of connection points: 2
#     Edge 7, Type (0, 0), BuildingBlock: MIFKUJ_clean_linker_0, # of connection points: 2
# Relax obj value: 0.242
# Max RMSD: 0.190
# Mean RMSD: 0.190
data_MOF--net-msw--node1-VOLQOD_clean_sbu_1--edge1-MIFKUJ_clean_linker_0
_symmetry_space_group_name_H-M    P1
_symmetry_Int_Tables_number       1
_symmetry_cell_setting            triclinic
loop_
_symmetry_equiv_pos_as_xyz
'x, y, z'
_cell_length_a     25.548439
_cell_length_b     26.932722
_cell_length_c     19.477978
_cell_angle_alpha  92.146737
_cell_angle_beta   89.724857
_cell_angle_gamma 89.068278
loop_
_atom_site_label
_atom_site_type_symbol
_atom_site_fract_x
_atom_site_fract_y
_atom_site_fract_z
_atom_type_partial_charge
O0 O 0.84911 0.25218 0.32186 0.0
Zn1 Zn 0.86251 0.27644 0.23008 0.0
O2 O 0.79637 0.30043 0.2016 0.0
Zn3 Zn 0.76839 0.25217 0.13887 0.0
Zn4 Zn 0.7474 0.3161 0.27314 0.0
Zn5 Zn 0.81176 0.3592 0.15614 0.0
O6 O 0.75404 0.28961 0.05465 0.0
O7 O 0.82738 0.33261 0.06158 0.0
O8 O 0.89578 0.22515 0.16215 0.0
O9 O 0.82383 0.20371 0.10627 0.0
O10 O 0.70903 0.21439 0.18233 0.0
O11 O 0.69498 0.26118 0.27733 0.0
O12 O 0.70618 0.38127 0.25229 0.0
O13 O 0.9105 0.33261 0.25072 0.0
O14 O 0.74708 0.39998 0.15551 0.0
O15 O 0.87033 0.39708 0.20585 0.0
C16 C 0.82506 0.27603 0.37066 0.0
C17 C 0.79596 0.30501 0.02714 0.0
C18 C 0.68481 0.22318 0.23911 0.0
C19 C 0.87279 0.19874 0.11604 0.0
C20 C 0.70946 0.40665 0.19804 0.0
C21 C 0.90705 0.37911 0.24211 0.0
O22 O 0.78955 0.30922 0.36035 0.0
O23 O 0.35556 0.72997 0.5793 0.0
Zn24 Zn 0.33016 0.72201 0.67371 0.0
O25 O 0.30379 0.78532 0.7009 0.0
Zn26 Zn 0.35866 0.81916 0.74668 0.0
Zn27 Zn 0.28113 0.82218 0.62468 0.0
Zn28 Zn 0.24819 0.7747 0.76256 0.0
O29 O 0.32439 0.85475 0.8255 0.0
O30 O 0.27814 0.78969 0.85688 0.0
O31 O 0.38387 0.69787 0.74153 0.0
O32 O 0.40599 0.76955 0.79254 0.0
O33 O 0.39713 0.86483 0.68221 0.0
O34 O 0.33668 0.87136 0.6013 0.0
O35 O 0.21119 0.86056 0.64881 0.0
O36 O 0.27115 0.67512 0.66666 0.0
O37 O 0.19565 0.82704 0.74925 0.0
O38 O 0.21176 0.70844 0.73869 0.0
C39 C 0.32753 0.74675 0.53106 0.0
C40 C 0.30438 0.82879 0.872 0.0
C41 C 0.38128 0.88267 0.62589 0.0
C42 C 0.40983 0.72233 0.7868 0.0
C43 C 0.18386 0.85796 0.70397 0.0
C44 C 0.22631 0.67415 0.69517 0.0
O45 O 0.28593 0.77313 0.54297 0.0
H46 H 0.74092 0.26457 0.9206 0.0
H47 H 0.77613 0.22105 0.81861 0.0
H48 H 0.93241 0.2336 0.90036 0.0
H49 H 0.89754 0.27981 0.00027 0.0
H50 H 0.93194 0.27189 0.78786 0.0
H51 H 0.89854 0.09447 0.79558 0.0
H52 H 0.85441 1.01796 0.82916 0.0
H53 H 0.70641 0.07906 0.76776 0.0
H54 H 0.74991 0.15527 0.73235 0.0
H55 H 0.92019 0.24425 0.41305 0.0
H56 H 0.9444 0.22002 0.52872 0.0
H57 H 0.78775 0.25648 0.60007 0.0
H58 H 0.76332 0.28128 0.48476 0.0
H59 H 0.8329 0.15722 0.63394 0.0
H60 H 0.87688 0.33699 0.62588 0.0
H61 H 0.9297 0.40509 0.58228 0.0
H62 H 0.07062 0.32964 0.64217 0.0
H63 H 1.01861 0.26078 0.68538 0.0
C64 C 0.78273 0.25757 0.91677 0.0
C65 C 0.81666 0.27713 -0.03337 0.0
C66 C 0.80287 0.23119 0.85944 0.0
C67 C 0.85716 0.22266 0.85201 0.0
C68 C 0.89055 0.23915 0.90475 0.0
C69 C 0.8706 0.26663 -0.03887 0.0
C70 C 0.87855 0.21019 0.78278 0.0
C71 C 0.91197 0.24521 0.75459 0.0
C72 C 0.85433 0.17484 0.7385 0.0
C73 C 0.82713 0.13115 0.76401 0.0
C74 C 0.85644 0.09183 0.79048 0.0
C75 C 0.83167 0.04836 0.80915 0.0
C76 C 0.77757 0.04397 0.80161 0.0
C77 C 0.74822 0.08274 0.77441 0.0
C78 C 0.77293 0.12598 0.75485 0.0
C79 C 0.89098 0.2471 0.45359 0.0
C80 C 0.83985 0.26445 0.44058 0.0
C81 C 0.90492 0.23325 0.51916 0.0
C82 C 0.86764 0.23619 0.57182 0.0
C83 C 0.81672 0.25379 0.55919 0.0
C84 C 0.80295 0.26831 0.4939 0.0
C85 C 0.88102 0.22206 0.64124 0.0
C86 C 0.85505 0.18175 0.66795 0.0
C87 C 0.91308 0.25192 0.68388 0.0
C88 C 0.94398 0.29328 0.65745 0.0
C89 C 0.91916 0.33462 0.62891 0.0
C90 C 0.94893 0.37343 0.6045 0.0
C91 C 1.00349 0.37146 0.60894 0.0
C92 C 1.02838 0.33093 0.63836 0.0
C93 C 0.99879 0.29202 0.66276 0.0
H94 H 1.02653 0.40133 0.58976 0.0
H95 H 0.75848 1.01034 0.81622 0.0
H96 H 0.27568 0.73189 0.41084 0.0
H97 H 0.31045 0.74598 0.29582 0.0
H98 H 0.46213 0.77656 0.38227 0.0
H99 H 0.4285 0.75993 0.49659 0.0
H100 H 0.37703 0.85637 0.30732 0.0
H101 H 0.49629 0.71966 0.29089 0.0
H102 H 0.52738 0.63294 0.29713 0.0
H103 H 0.4191 0.58814 0.13977 0.0
H104 H 0.38626 0.67437 0.13376 0.0
H105 H 0.39939 0.86308 0.91003 0.0
H106 H 0.43831 0.86019 0.02429 0.0
H107 H 0.29204 0.80982 0.10583 0.0
H108 H 0.25336 0.81037 -0.00905 0.0
H109 H 0.42267 0.75429 0.098 0.0
H110 H 0.29611 0.89803 0.2606 0.0
H111 H 0.26484 0.98475 0.25342 0.0
H112 H 0.39157 1.01519 0.11649 0.0
H113 H 0.42405 0.92892 0.12361 0.0
C114 C 0.31689 0.7396 0.40463 0.0
C115 C 0.34953 0.74488 0.46178 0.0
C116 C 0.33678 0.74725 0.33931 0.0
C117 C 0.38894 0.76155 0.3311 0.0
C118 C 0.42226 0.76434 0.38771 0.0
C119 C 0.40286 0.75507 0.45277 0.0
C120 C 0.40332 0.78459 0.26713 0.0
C121 C 0.38802 0.83448 0.26144 0.0
C122 C 0.41947 0.75598 0.20852 0.0
C123 C 0.43807 0.70362 0.2129 0.0
C124 C 0.47817 0.69125 0.25875 0.0
C125 C 0.49636 0.64215 0.26193 0.0
C126 C 0.47491 0.60502 0.21929 0.0
C127 C 0.43546 0.61693 0.17304 0.0
C128 C 0.41708 0.66596 0.1697 0.0
C129 C 0.37504 0.85278 0.95274 0.0
C130 C 0.32333 0.8369 0.94219 0.0
C131 C 0.39743 0.85115 0.01763 0.0
C132 C 0.36769 0.83535 0.07273 0.0
C133 C 0.31509 0.82268 0.06334 0.0
C134 C 0.29312 0.82288 -0.00188 0.0
C135 C 0.39235 0.82449 0.13811 0.0
C136 C 0.41417 0.77679 0.1441 0.0
C137 C 0.38205 0.8549 0.19706 0.0
C138 C 0.3623 0.90678 0.19222 0.0
C139 C 0.31744 0.92324 0.22912 0.0
C140 C 0.29947 0.97234 0.22505 0.0
C141 C 0.32611 1.00543 0.18438 0.0
C142 C 0.37081 0.98948 0.14773 0.0
C143 C 0.38892 0.94042 0.1516 0.0
H144 H 0.31217 0.04344 0.18136 0.0
H145 H 0.48905 0.56707 0.22188 0.0
H146 H 0.42953 0.7532 0.9191 0.0
H147 H 0.46747 0.70467 0.01045 0.0
H148 H 0.4942 0.58145 0.86588 0.0
H149 H 0.45363 0.62899 0.77514 0.0
H150 H 0.45594 0.54813 -0.02265 0.0
H151 H 0.59507 0.66852 0.93468 0.0
H152 H 0.62653 0.75449 0.92931 0.0
H153 H 0.58014 0.78336 0.13949 0.0
H154 H 0.54865 0.69755 0.14585 0.0
H155 H 0.66836 0.40811 0.07226 0.0
H156 H 0.60483 0.46622 0.02726 0.0
H157 H 0.58932 0.53926 0.22743 0.0
H158 H 0.65384 0.4797 0.27364 0.0
H159 H 0.60547 0.60546 0.1194 0.0
H160 H 0.48664 0.48005 0.16987 0.0
H161 H 0.45299 0.39525 0.17786 0.0
H162 H 0.45657 0.37662 -0.042 0.0
H163 H 0.49098 0.46108 0.94862 0.0
C164 C 0.44425 0.71602 0.90651 0.0
C165 C 0.43913 0.6951 0.83957 0.0
C166 C 0.46592 0.68824 -0.04101 0.0
C167 C 0.48441 0.63944 0.94533 0.0
C168 C 0.48015 0.61893 0.87809 0.0
C169 C 0.45735 0.64625 0.82598 0.0
C170 C 0.50741 0.60896 0.00054 0.0
C171 C 0.48888 0.56063 0.00797 0.0
C172 C 0.54825 0.62607 0.04404 0.0
C173 C 0.56903 0.67691 0.04058 0.0
C174 C 0.59161 0.69327 -0.02034 0.0
C175 C 0.60948 0.74193 -0.02355 0.0
C176 C 0.60523 0.77442 0.03396 0.0
C177 C 0.58341 0.75821 0.09495 0.0
C178 C 0.56565 0.70955 0.09844 0.0
C179 C 0.651 0.43609 0.10718 0.0
C180 C 0.66606 0.43945 0.17644 0.0
C181 C 0.61443 0.46921 0.08138 0.0
C182 C 0.5919 0.5069 0.12394 0.0
C183 C 0.60604 0.5102 0.19378 0.0
C184 C 0.64253 0.47614 0.2202 0.0
C185 C 0.55624 0.54369 0.09231 0.0
C186 C 0.57197 0.59327 0.0896 0.0
C187 C 0.51248 0.52792 0.05347 0.0
C188 C 0.49154 0.47702 0.0586 0.0
C189 C 0.48055 0.45783 0.1232 0.0
C190 C 0.46129 0.40979 0.12798 0.0
C191 C 0.45266 0.38056 0.06848 0.0
C192 C 0.46322 0.39933 0.00406 0.0
C193 C 0.4825 0.44735 -0.00102 0.0
H194 H 0.43777 0.34336 0.07229 0.0
H195 H 0.61892 0.81211 0.03129 0.0
H196 H 0.91131 0.48176 0.24673 0.0
H197 H 0.96053 0.53442 0.32871 0.0
H198 H 1.02773 0.40361 0.41673 0.0
H199 H 0.98001 0.35117 0.33536 0.0
H200 H 0.98678 0.47025 0.5156 0.0
H201 H 0.10016 0.46961 0.31515 0.0
H202 H 0.12091 0.48432 0.19388 0.0
H203 H 0.08111 0.63903 0.22562 0.0
H204 H 1.05945 0.62505 0.34696 0.0
H205 H 0.24904 0.59054 0.61733 0.0
H206 H 0.18897 0.54176 0.5468 0.0
H207 H 1.05798 0.62426 0.636 0.0
H208 H 0.11839 0.67457 0.70658 0.0
H209 H 0.12321 0.58854 0.4497 0.0
H210 H 0.95257 0.52883 0.62239 0.0
H211 H 0.93497 0.50592 0.74166 0.0
H212 H 0.09627 0.46299 0.76529 0.0
H213 H 0.11464 0.48486 0.64592 0.0
C214 C 0.93728 0.46428 0.28274 0.0
C215 C 0.94167 0.41214 0.28402 0.0
C216 C 0.96513 0.4944 0.32982 0.0
C217 C 0.99744 0.47287 0.37926 0.0
C218 C 1.00272 0.42104 0.3795 0.0
C219 C 0.97559 0.39109 0.33228 0.0
C220 C 1.026 0.50367 0.43132 0.0
C221 C 1.01629 0.49651 0.50132 0.0
C222 C 1.06455 0.53777 0.41264 0.0
C223 C 0.07757 0.54617 0.33982 0.0
C224 C 0.09538 0.50667 0.29609 0.0
C225 C 0.1074 0.51489 0.22739 0.0
C226 C 0.10216 0.56255 0.202 0.0
C227 C 0.08504 0.60211 0.24532 0.0
C228 C 0.0729 0.59407 0.31405 0.0
C229 C 0.20742 0.59788 0.6233 0.0
C230 C 0.18869 0.63698 0.66729 0.0
C231 C 0.17312 0.56999 0.58254 0.0
C232 C 0.11913 0.57984 0.58535 0.0
C233 C 0.09962 0.61617 0.63294 0.0
C234 C 0.13417 0.64464 0.67361 0.0
C235 C 0.08456 0.5546 0.53422 0.0
C236 C 0.09302 0.56301 0.46425 0.0
C237 C 1.04525 0.52128 0.55304 0.0
C238 C 1.03517 0.50954 0.62563 0.0
C239 C 0.98433 0.51474 0.65318 0.0
C240 C 0.97419 0.50178 0.72073 0.0
C241 C 1.01455 0.48331 0.76117 0.0
C242 C 1.06513 0.47768 0.73409 0.0
C243 C 0.07547 0.49055 0.66655 0.0
H244 H 1.00659 0.47318 0.8134 0.0
H245 H 0.11151 0.56884 0.1488 0.0
H246 H 0.10891 0.84606 0.79984 0.0
H247 H 1.05193 0.90839 0.85263 0.0
H248 H 0.09967 1.01361 0.70355 0.0
H249 H 0.16144 0.95104 0.65294 0.0
H250 H 0.09745 0.06029 0.81633 0.0
H251 H 0.96728 0.96391 0.7137 0.0
H252 H 0.91812 0.89039 0.67378 0.0
H253 H 0.89079 0.8519 0.88269 0.0
H254 H 0.94039 0.92479 0.92393 0.0
H255 H 0.83436 0.1441 0.00821 0.0
H256 H 0.88139 0.09366 0.92366 0.0
H257 H 1.02689 0.12467 0.0268 0.0
H258 H 0.97936 0.17756 0.11219 0.0
H259 H 0.92638 1.01714 0.91709 0.0
H260 H 0.12794 0.11163 0.93637 0.0
H261 H 0.16408 0.19606 0.94796 0.0
H262 H 1.02563 0.25641 0.85603 0.0
H263 H 0.98894 0.17219 0.84388 0.0
C264 C 0.10707 0.88215 0.7771 0.0
C265 C 0.14031 0.89347 0.72218 0.0
C266 C 0.07359 0.91795 0.80722 0.0
C267 C 0.07032 0.96595 0.78189 0.0
C268 C 0.10128 0.97688 0.72433 0.0
C269 C 0.13611 0.94093 0.69473 0.0
C270 C 1.03773 1.00472 0.82 0.0
C271 C 1.05963 0.05103 0.8374 0.0
C272 C 0.98738 0.99409 0.84612 0.0
C273 C 0.95791 0.94972 0.82187 0.0
C274 C 0.95115 0.93956 0.75114 0.0
C275 C 0.92312 0.89803 0.72828 0.0
C276 C 0.90142 0.86646 0.77566 0.0
C277 C 0.90763 0.87639 0.84604 0.0
C278 C 0.93563 0.91787 0.86919 0.0
C279 C 0.87643 0.14048 0.01344 0.0
C280 C 0.90291 0.16503 0.06758 0.0
C281 C 0.90362 0.1116 -0.03599 0.0
C282 C 0.95826 0.10584 -0.03339 0.0
C283 C 0.98499 0.12954 0.02155 0.0
C284 C 0.95766 0.1592 0.07122 0.0
C285 C 0.986 0.07276 0.91398 0.0
C286 C 0.96347 1.02709 0.89465 0.0
C287 C 1.03361 0.08567 0.88207 0.0
C288 C 1.05535 0.13604 0.8905 0.0
C289 C 0.10523 0.14301 0.91894 0.0
C290 C 0.12578 0.19076 0.9256 0.0
C291 C 0.097 0.23162 0.90322 0.0
C292 C 1.04766 0.22481 0.87397 0.0
C293 C 1.02688 0.17718 0.86753 0.0
H294 H 0.11303 0.26852 0.90823 0.0
H295 H 0.87973 0.83432 0.75785 0.0
H296 H 0.36514 0.91528 0.49619 0.0
H297 H 0.42143 0.9669 0.42837 0.0
H298 H 0.53293 0.97409 0.5939 0.0
H299 H 0.47628 0.92254 0.66275 0.0
H300 H 0.52263 0.06104 0.54833 0.0
H301 H 0.55586 0.90602 0.44748 0.0
H302 H 0.55176 0.82346 0.38952 0.0
H303 H 0.48876 0.8887 0.2095 0.0
H304 H 0.48924 0.97147 0.26762 0.0
H305 H 0.69557 0.12242 0.22696 0.0
H306 H 0.64888 0.06107 0.29219 0.0
H307 H 0.54726 0.17733 0.3782 0.0
H308 H 0.59657 0.23902 0.31682 0.0
H309 H 0.56381 1.02305 0.30281 0.0
H310 H 0.50655 0.15698 0.5361 0.0
H311 H 0.54293 0.23001 0.59826 0.0
H312 H 0.69718 0.18909 0.52556 0.0
H313 H 0.66185 0.1155 0.46372 0.0
C314 C 0.40154 0.92787 0.51856 0.0
C315 C 0.41585 0.91493 0.58546 0.0
C316 C 0.43404 0.95711 0.47921 0.0
C317 C 0.48181 0.97424 0.5055 0.0
C318 C 0.49628 0.96145 0.5723 0.0
C319 C 0.46382 0.93193 0.61171 0.0
C320 C 0.51514 1.00732 0.46432 0.0
C321 C 0.53154 0.05259 0.49462 0.0
C322 C 0.52904 0.99566 0.39486 0.0
C323 C 0.52203 0.94523 0.36255 0.0
C324 C 0.53952 0.90278 0.39635 0.0
C325 C 0.53793 0.85585 0.36332 0.0
C326 C 0.51967 0.85081 0.29601 0.0
C327 C 0.50227 0.89262 0.26193 0.0
C328 C 0.50285 0.93954 0.2951 0.0
C329 C 0.66273 0.1347 0.259 0.0
C330 C 0.64975 0.18549 0.26694 0.0
C331 C 0.63606 0.09959 0.2966 0.0
C332 C 0.59515 0.11439 0.34193 0.0
C333 C 0.5798 0.16485 0.3458 0.0
C334 C 0.60749 0.20012 0.30988 0.0
C335 C 0.56936 0.07742 0.38602 0.0
C336 C 0.55447 1.03147 0.35637 0.0
C337 C 0.55985 0.08694 0.45717 0.0
C338 C 0.5814 0.131 0.4947 0.0
C339 C 0.54824 0.16347 0.53359 0.0
C340 C 0.56869 0.20498 0.56873 0.0
C341 C 0.6223 0.21426 0.56567 0.0
C342 C 0.65564 0.18196 0.52767 0.0
C343 C 0.63541 0.14038 0.49251 0.0
H344 H 0.63803 0.24643 0.59287 0.0
H345 H 0.51924 0.81455 0.27012 0.0
loop_
_geom_bond_atom_site_label_1
_geom_bond_atom_site_label_2
_geom_bond_distance
_geom_bond_site_symmetry_2
_ccdc_geom_bond_type
O0 Zn1 1.953 . S
O0 C16 1.225 . S
Zn1 O0 1.953 . S
Zn1 O2 1.949 . S
Zn1 O8 1.919 . S
Zn1 O13 1.924 . S
O2 Zn1 1.949 . S
O2 Zn3 1.923 . S
O2 Zn4 1.950 . S
O2 Zn5 1.945 . S
Zn3 O2 1.923 . S
Zn3 O6 1.933 . S
Zn3 O9 1.941 . S
Zn3 O10 1.965 . S
Zn4 O2 1.950 . S
Zn4 O11 1.938 . S
Zn4 O12 1.906 . S
Zn4 O22 1.953 . S
Zn5 O2 1.945 . S
Zn5 O7 1.932 . S
Zn5 O14 1.977 . S
Zn5 O15 1.910 . S
O6 Zn3 1.933 . S
O6 C17 1.226 . S
O7 Zn5 1.932 . S
O7 C17 1.307 . S
O8 Zn1 1.919 . S
O8 C19 1.253 . S
O9 Zn3 1.941 . S
O9 C19 1.283 . S
O10 Zn3 1.965 . S
O10 C18 1.303 . S
O11 Zn4 1.938 . S
O11 C18 1.247 . S
O12 Zn4 1.906 . S
O12 C20 1.304 . S
O13 Zn1 1.924 . S
O13 C21 1.311 . S
O14 Zn5 1.977 . S
O14 C20 1.272 . S
O15 Zn5 1.910 . S
O15 C21 1.231 . S
C16 O0 1.225 . S
C16 O22 1.298 . S
C17 O6 1.226 . S
C17 O7 1.307 . S
C18 O10 1.303 . S
C18 O11 1.247 . S
C19 O8 1.253 . S
C19 O9 1.283 . S
C20 O12 1.304 . S
C20 O14 1.272 . S
C21 O13 1.311 . S
C21 O15 1.231 . S
O22 Zn4 1.953 . S
O22 C16 1.298 . S
O23 Zn24 1.953 . S
O23 C39 1.225 . S
Zn24 O23 1.953 . S
Zn24 O25 1.949 . S
Zn24 O31 1.919 . S
Zn24 O36 1.924 . S
O25 Zn24 1.949 . S
O25 Zn26 1.923 . S
O25 Zn27 1.950 . S
O25 Zn28 1.945 . S
Zn26 O25 1.923 . S
Zn26 O29 1.933 . S
Zn26 O32 1.941 . S
Zn26 O33 1.965 . S
Zn27 O25 1.950 . S
Zn27 O34 1.938 . S
Zn27 O35 1.906 . S
Zn27 O45 1.953 . S
Zn28 O25 1.945 . S
Zn28 O30 1.932 . S
Zn28 O37 1.977 . S
Zn28 O38 1.910 . S
O29 Zn26 1.933 . S
O29 C40 1.226 . S
O30 Zn28 1.932 . S
O30 C40 1.307 . S
O31 Zn24 1.919 . S
O31 C42 1.253 . S
O32 Zn26 1.941 . S
O32 C42 1.283 . S
O33 Zn26 1.965 . S
O33 C41 1.303 . S
O34 Zn27 1.938 . S
O34 C41 1.247 . S
O35 Zn27 1.906 . S
O35 C43 1.304 . S
O36 Zn24 1.924 . S
O36 C44 1.311 . S
O37 Zn28 1.977 . S
O37 C43 1.272 . S
O38 Zn28 1.910 . S
O38 C44 1.231 . S
C39 O23 1.225 . S
C39 O45 1.298 . S
C40 O29 1.226 . S
C40 O30 1.307 . S
C41 O33 1.303 . S
C41 O34 1.247 . S
C42 O31 1.253 . S
C42 O32 1.283 . S
C43 O35 1.304 . S
C43 O37 1.272 . S
C44 O36 1.311 . S
C44 O38 1.231 . S
O45 Zn27 1.953 . S
O45 C39 1.298 . S
H46 C64 0.951 . S
H47 C66 0.951 . S
H48 C68 0.950 . S
H49 C69 0.950 . S
H50 C71 0.950 . S
H51 C74 0.950 . S
H52 C75 0.950 . S
H53 C77 0.950 . S
H54 C78 0.950 . S
H55 C79 0.951 . S
H56 C81 0.951 . S
H57 C83 0.950 . S
H58 C84 0.950 . S
H59 C86 0.950 . S
H60 C89 0.950 . S
H61 C90 0.950 . S
H62 C92 0.950 . S
H63 C93 0.950 . S
C64 H46 0.951 . S
C64 C65 1.366 . S
C64 C66 1.388 1_554 S
C65 C64 1.366 . S
C65 C69 1.385 . S
C66 H47 0.951 . S
C66 C64 1.388 1_556 S
C66 C67 1.366 . S
C67 C66 1.366 . S
C67 C68 1.414 . S
C67 C70 1.499 . S
C68 H48 0.950 . S
C68 C67 1.414 . S
C68 C69 1.374 1_556 S
C69 H49 0.950 . S
C69 C65 1.385 . S
C69 C68 1.374 1_554 S
C70 C67 1.499 . S
C70 C71 1.373 . S
C70 C72 1.389 . S
C71 H50 0.950 . S
C71 C70 1.373 . S
C71 C87 1.377 . S
C72 C70 1.389 . S
C72 C73 1.524 . S
C72 C86 1.377 . S
C73 C72 1.524 . S
C73 C74 1.397 . S
C73 C78 1.363 . S
C74 H51 0.950 . S
C74 C73 1.397 . S
C74 C75 1.334 . S
C75 H52 0.950 . S
C75 C74 1.334 . S
C75 C76 1.287 . S
C76 C75 1.287 . S
C76 C77 1.524 . S
C76 H95 0.913 . S
C77 H53 0.950 . S
C77 C76 1.524 . S
C77 C78 1.415 . S
C78 H54 0.950 . S
C78 C73 1.363 . S
C78 C77 1.415 . S
C79 H55 0.951 . S
C79 C80 1.366 . S
C79 C81 1.388 . S
C80 C79 1.366 . S
C80 C84 1.385 . S
C81 H56 0.951 . S
C81 C79 1.388 . S
C81 C82 1.366 . S
C82 C81 1.366 . S
C82 C83 1.414 . S
C82 C85 1.499 . S
C83 H57 0.950 . S
C83 C82 1.414 . S
C83 C84 1.374 . S
C84 H58 0.950 . S
C84 C80 1.385 . S
C84 C83 1.374 . S
C85 C82 1.499 . S
C85 C86 1.373 . S
C85 C87 1.389 . S
C86 H59 0.950 . S
C86 C72 1.377 . S
C86 C85 1.373 . S
C87 C71 1.377 . S
C87 C85 1.389 . S
C87 C88 1.524 . S
C88 C87 1.524 . S
C88 C89 1.397 . S
C88 C93 1.363 . S
C89 H60 0.950 . S
C89 C88 1.397 . S
C89 C90 1.334 . S
C90 H61 0.950 . S
C90 C89 1.334 . S
C90 C91 1.287 . S
C91 C90 1.287 . S
C91 C92 1.524 . S
C91 H94 0.999 . S
C92 H62 0.950 . S
C92 C91 1.524 . S
C92 C93 1.415 . S
C93 H63 0.950 . S
C93 C88 1.363 . S
C93 C92 1.415 . S
H94 C91 0.999 . S
H95 C76 0.913 . S
H96 C114 0.951 . S
H97 C116 0.951 . S
H98 C118 0.950 . S
H99 C119 0.950 . S
H100 C121 0.950 . S
H101 C124 0.950 . S
H102 C125 0.950 . S
H103 C127 0.950 . S
H104 C128 0.950 . S
H105 C129 0.951 . S
H106 C131 0.951 . S
H107 C133 0.950 . S
H108 C134 0.950 . S
H109 C136 0.950 . S
H110 C139 0.950 . S
H111 C140 0.950 . S
H112 C142 0.950 . S
H113 C143 0.950 . S
C114 H96 0.951 . S
C114 C115 1.366 . S
C114 C116 1.388 . S
C115 C114 1.366 . S
C115 C119 1.385 . S
C116 H97 0.951 . S
C116 C114 1.388 . S
C116 C117 1.366 . S
C117 C116 1.366 . S
C117 C118 1.414 . S
C117 C120 1.499 . S
C118 H98 0.950 . S
C118 C117 1.414 . S
C118 C119 1.374 . S
C119 H99 0.950 . S
C119 C115 1.385 . S
C119 C118 1.374 . S
C120 C117 1.499 . S
C120 C121 1.373 . S
C120 C122 1.389 . S
C121 H100 0.950 . S
C121 C120 1.373 . S
C121 C137 1.377 . S
C122 C120 1.389 . S
C122 C123 1.524 . S
C122 C136 1.377 . S
C123 C122 1.524 . S
C123 C124 1.397 . S
C123 C128 1.363 . S
C124 H101 0.950 . S
C124 C123 1.397 . S
C124 C125 1.334 . S
C125 H102 0.950 . S
C125 C124 1.334 . S
C125 C126 1.287 . S
C126 C125 1.287 . S
C126 C127 1.524 . S
C126 H145 0.913 . S
C127 H103 0.950 . S
C127 C126 1.524 . S
C127 C128 1.415 . S
C128 H104 0.950 . S
C128 C123 1.363 . S
C128 C127 1.415 . S
C129 H105 0.951 . S
C129 C130 1.366 . S
C129 C131 1.388 1_556 S
C130 C129 1.366 . S
C130 C134 1.385 . S
C131 H106 0.951 . S
C131 C129 1.388 1_554 S
C131 C132 1.366 . S
C132 C131 1.366 . S
C132 C133 1.414 . S
C132 C135 1.499 . S
C133 H107 0.950 . S
C133 C132 1.414 . S
C133 C134 1.374 1_554 S
C134 H108 0.950 . S
C134 C130 1.385 . S
C134 C133 1.374 1_556 S
C135 C132 1.499 . S
C135 C136 1.373 . S
C135 C137 1.389 . S
C136 H109 0.950 . S
C136 C122 1.377 . S
C136 C135 1.373 . S
C137 C121 1.377 . S
C137 C135 1.389 . S
C137 C138 1.524 . S
C138 C137 1.524 . S
C138 C139 1.397 . S
C138 C143 1.363 . S
C139 H110 0.950 . S
C139 C138 1.397 . S
C139 C140 1.334 . S
C140 H111 0.950 . S
C140 C139 1.334 . S
C140 C141 1.287 . S
C141 C140 1.287 . S
C141 C142 1.524 . S
C141 H144 0.999 . S
C142 H112 0.950 . S
C142 C141 1.524 . S
C142 C143 1.415 . S
C143 H113 0.950 . S
C143 C138 1.363 . S
C143 C142 1.415 . S
H144 C141 0.999 . S
H145 C126 0.913 . S
H146 C164 0.951 . S
H147 C166 0.951 . S
H148 C168 0.950 . S
H149 C169 0.950 . S
H150 C171 0.950 . S
H151 C174 0.950 . S
H152 C175 0.950 . S
H153 C177 0.950 1_554 S
H154 C178 0.950 . S
H155 C179 0.951 . S
H156 C181 0.951 . S
H157 C183 0.950 . S
H158 C184 0.950 . S
H159 C186 0.950 . S
H160 C189 0.950 . S
H161 C190 0.950 . S
H162 C192 0.950 1_556 S
H163 C193 0.950 . S
C164 H146 0.951 . S
C164 C165 1.366 . S
C164 C166 1.388 . S
C165 C164 1.366 . S
C165 C169 1.385 . S
C166 H147 0.951 . S
C166 C164 1.388 . S
C166 C167 1.366 . S
C167 C166 1.366 . S
C167 C168 1.414 . S
C167 C170 1.499 . S
C168 H148 0.950 . S
C168 C167 1.414 . S
C168 C169 1.374 . S
C169 H149 0.950 . S
C169 C165 1.385 . S
C169 C168 1.374 . S
C170 C167 1.499 . S
C170 C171 1.373 . S
C170 C172 1.389 . S
C171 H150 0.950 . S
C171 C170 1.373 . S
C171 C187 1.377 1_556 S
C172 C170 1.389 . S
C172 C173 1.524 . S
C172 C186 1.377 1_556 S
C173 C172 1.524 . S
C173 C174 1.397 . S
C173 C178 1.363 1_556 S
C174 H151 0.950 . S
C174 C173 1.397 . S
C174 C175 1.334 . S
C175 H152 0.950 . S
C175 C174 1.334 . S
C175 C176 1.287 . S
C176 C175 1.287 . S
C176 C177 1.524 . S
C176 H195 0.913 . S
C177 H153 0.950 1_556 S
C177 C176 1.524 . S
C177 C178 1.415 1_556 S
C178 H154 0.950 . S
C178 C173 1.363 1_554 S
C178 C177 1.415 1_554 S
C179 H155 0.951 . S
C179 C180 1.366 . S
C179 C181 1.388 . S
C180 C179 1.366 . S
C180 C184 1.385 . S
C181 H156 0.951 . S
C181 C179 1.388 . S
C181 C182 1.366 . S
C182 C181 1.366 . S
C182 C183 1.414 . S
C182 C185 1.499 . S
C183 H157 0.950 . S
C183 C182 1.414 . S
C183 C184 1.374 . S
C184 H158 0.950 . S
C184 C180 1.385 . S
C184 C183 1.374 . S
C185 C182 1.499 . S
C185 C186 1.373 . S
C185 C187 1.389 . S
C186 H159 0.950 . S
C186 C172 1.377 1_554 S
C186 C185 1.373 . S
C187 C171 1.377 1_554 S
C187 C185 1.389 . S
C187 C188 1.524 . S
C188 C187 1.524 . S
C188 C189 1.397 . S
C188 C193 1.363 1_554 S
C189 H160 0.950 . S
C189 C188 1.397 . S
C189 C190 1.334 . S
C190 H161 0.950 . S
C190 C189 1.334 . S
C190 C191 1.287 . S
C191 C190 1.287 . S
C191 C192 1.524 . S
C191 H194 0.999 . S
C192 H162 0.950 1_554 S
C192 C191 1.524 . S
C192 C193 1.415 1_554 S
C193 H163 0.950 . S
C193 C188 1.363 1_556 S
C193 C192 1.415 1_556 S
H194 C191 0.999 . S
H195 C176 0.913 . S
H196 C214 0.951 . S
H197 C216 0.951 . S
H198 C218 0.950 . S
H199 C219 0.950 . S
H200 C221 0.950 . S
H201 C224 0.950 . S
H202 C225 0.950 . S
H203 C227 0.950 . S
H204 C228 0.950 . S
H205 C229 0.951 . S
H206 C231 0.951 . S
H207 C233 0.950 . S
H208 C234 0.950 . S
H209 C236 0.950 . S
H210 C239 0.950 . S
H211 C240 0.950 . S
H212 C242 0.950 . S
H213 C243 0.950 . S
C214 H196 0.951 . S
C214 C215 1.366 . S
C214 C216 1.388 . S
C215 C214 1.366 . S
C215 C219 1.385 . S
C216 H197 0.951 . S
C216 C214 1.388 . S
C216 C217 1.366 . S
C217 C216 1.366 . S
C217 C218 1.414 . S
C217 C220 1.499 . S
C218 H198 0.950 . S
C218 C217 1.414 . S
C218 C219 1.374 . S
C219 H199 0.950 . S
C219 C215 1.385 . S
C219 C218 1.374 . S
C220 C217 1.499 . S
C220 C221 1.373 . S
C220 C222 1.389 1_655 S
C221 H200 0.950 . S
C221 C220 1.373 . S
C221 C237 1.377 . S
C222 C220 1.389 1_455 S
C222 C223 1.524 . S
C222 C236 1.377 . S
C223 C222 1.524 . S
C223 C224 1.397 . S
C223 C228 1.363 . S
C224 H201 0.950 . S
C224 C223 1.397 . S
C224 C225 1.334 . S
C225 H202 0.950 . S
C225 C224 1.334 . S
C225 C226 1.287 . S
C226 C225 1.287 . S
C226 C227 1.524 . S
C226 H245 0.913 . S
C227 H203 0.950 . S
C227 C226 1.524 . S
C227 C228 1.415 . S
C228 H204 0.950 . S
C228 C223 1.363 . S
C228 C227 1.415 . S
C229 H205 0.951 . S
C229 C230 1.366 . S
C229 C231 1.388 . S
C230 C229 1.366 . S
C230 C234 1.385 . S
C231 H206 0.951 . S
C231 C229 1.388 . S
C231 C232 1.366 . S
C232 C231 1.366 . S
C232 C233 1.414 . S
C232 C235 1.499 . S
C233 H207 0.950 . S
C233 C232 1.414 . S
C233 C234 1.374 . S
C234 H208 0.950 . S
C234 C230 1.385 . S
C234 C233 1.374 . S
C235 C232 1.499 . S
C235 C236 1.373 . S
C235 C237 1.389 1_455 S
C236 H209 0.950 . S
C236 C222 1.377 . S
C236 C235 1.373 . S
C237 C221 1.377 . S
C237 C235 1.389 1_655 S
C237 C238 1.524 . S
C238 C237 1.524 . S
C238 C239 1.397 . S
C238 C243 1.363 . S
C239 H210 0.950 . S
C239 C238 1.397 . S
C239 C240 1.334 . S
C240 H211 0.950 . S
C240 C239 1.334 . S
C240 C241 1.287 . S
C241 C240 1.287 . S
C241 C242 1.524 . S
C241 H244 0.999 . S
C242 H212 0.950 . S
C242 C241 1.524 . S
C242 C243 1.415 . S
C243 H213 0.950 . S
C243 C238 1.363 . S
C243 C242 1.415 . S
H244 C241 0.999 . S
H245 C226 0.913 . S
H246 C264 0.951 . S
H247 C266 0.951 1_554 S
H248 C268 0.950 . S
H249 C269 0.950 . S
H250 C271 0.950 . S
H251 C274 0.950 . S
H252 C275 0.950 1_556 S
H253 C277 0.950 . S
H254 C278 0.950 . S
H255 C279 0.951 . S
H256 C281 0.951 1_556 S
H257 C283 0.950 . S
H258 C284 0.950 . S
H259 C286 0.950 . S
H260 C289 0.950 . S
H261 C290 0.950 1_554 S
H262 C292 0.950 . S
H263 C293 0.950 . S
C264 H246 0.951 . S
C264 C265 1.366 . S
C264 C266 1.388 . S
C265 C264 1.366 . S
C265 C269 1.385 . S
C266 H247 0.951 1_556 S
C266 C264 1.388 . S
C266 C267 1.366 . S
C267 C266 1.366 . S
C267 C268 1.414 . S
C267 C270 1.499 . S
C268 H248 0.950 . S
C268 C267 1.414 . S
C268 C269 1.374 . S
C269 H249 0.950 . S
C269 C265 1.385 . S
C269 C268 1.374 . S
C270 C267 1.499 . S
C270 C271 1.373 1_565 S
C270 C272 1.400 1_556 S
C271 H250 0.950 . S
C271 C270 1.373 1_545 S
C271 C287 1.377 1_455 S
C272 C270 1.400 1_554 S
C272 C273 1.524 . S
C272 C286 1.364 1_455 S
C273 C272 1.524 . S
C273 C274 1.394 1_454 S
C273 C278 1.364 . S
C274 H251 0.950 . S
C274 C273 1.394 1_656 S
C274 C275 1.334 1_556 S
C275 H252 0.950 1_554 S
C275 C274 1.334 1_554 S
C275 C276 1.287 . S
C276 C275 1.287 . S
C276 C277 1.524 1_655 S
C276 H295 0.913 . S
C277 H253 0.950 . S
C277 C276 1.524 1_455 S
C277 C278 1.415 . S
C278 H254 0.950 . S
C278 C273 1.364 . S
C278 C277 1.415 . S
C279 H255 0.951 . S
C279 C280 1.366 . S
C279 C281 1.388 . S
C280 C279 1.366 . S
C280 C284 1.385 . S
C281 H256 0.951 1_554 S
C281 C279 1.388 . S
C281 C282 1.366 . S
C282 C281 1.366 . S
C282 C283 1.414 . S
C282 C285 1.499 . S
C283 H257 0.950 . S
C283 C282 1.414 . S
C283 C284 1.374 . S
C284 H258 0.950 . S
C284 C280 1.385 . S
C284 C283 1.374 . S
C285 C282 1.499 . S
C285 C286 1.373 1_545 S
C285 C287 1.389 1_554 S
C286 H259 0.950 . S
C286 C272 1.364 1_655 S
C286 C285 1.373 1_565 S
C287 C271 1.377 1_655 S
C287 C285 1.389 1_556 S
C287 C288 1.524 . S
C288 C287 1.524 . S
C288 C289 1.397 1_656 S
C288 C293 1.363 . S
C289 H260 0.950 . S
C289 C288 1.397 1_454 S
C289 C290 1.334 1_554 S
C290 H261 0.950 1_556 S
C290 C289 1.334 1_556 S
C290 C291 1.287 . S
C291 C290 1.287 . S
C291 C292 1.524 1_455 S
C291 H294 0.999 . S
C292 H262 0.950 . S
C292 C291 1.524 1_655 S
C292 C293 1.415 . S
C293 H263 0.950 . S
C293 C288 1.363 . S
C293 C292 1.415 . S
H294 C291 0.999 . S
H295 C276 0.913 . S
H296 C314 0.951 . S
H297 C316 0.951 . S
H298 C318 0.950 . S
H299 C319 0.950 . S
H300 C321 0.950 . S
H301 C324 0.950 . S
H302 C325 0.950 . S
H303 C327 0.950 . S
H304 C328 0.950 . S
H305 C329 0.951 . S
H306 C331 0.951 . S
H307 C333 0.950 . S
H308 C334 0.950 . S
H309 C336 0.951 . S
H310 C339 0.950 . S
H311 C340 0.950 . S
H312 C342 0.950 . S
H313 C343 0.950 . S
C314 H296 0.951 . S
C314 C315 1.366 . S
C314 C316 1.388 . S
C315 C314 1.366 . S
C315 C319 1.385 . S
C316 H297 0.951 . S
C316 C314 1.388 . S
C316 C317 1.366 . S
C317 C316 1.366 . S
C317 C318 1.414 . S
C317 C320 1.499 . S
C318 H298 0.950 . S
C318 C317 1.414 . S
C318 C319 1.374 . S
C319 H299 0.950 . S
C319 C315 1.385 . S
C319 C318 1.374 . S
C320 C317 1.499 . S
C320 C321 1.373 . S
C320 C322 1.389 . S
C321 H300 0.950 . S
C321 C320 1.373 . S
C321 C337 1.377 1_565 S
C322 C320 1.389 . S
C322 C323 1.524 . S
C322 C336 1.370 1_565 S
C323 C322 1.524 . S
C323 C324 1.397 . S
C323 C328 1.363 . S
C324 H301 0.950 . S
C324 C323 1.397 . S
C324 C325 1.334 . S
C325 H302 0.950 . S
C325 C324 1.334 . S
C325 C326 1.287 . S
C326 C325 1.287 . S
C326 C327 1.524 . S
C326 H345 0.913 . S
C327 H303 0.950 . S
C327 C326 1.524 . S
C327 C328 1.415 . S
C328 H304 0.950 . S
C328 C323 1.363 . S
C328 C327 1.415 . S
C329 H305 0.951 . S
C329 C330 1.366 . S
C329 C331 1.388 . S
C330 C329 1.366 . S
C330 C334 1.385 . S
C331 H306 0.951 . S
C331 C329 1.388 . S
C331 C332 1.366 . S
C332 C331 1.366 . S
C332 C333 1.414 . S
C332 C335 1.499 . S
C333 H307 0.950 . S
C333 C332 1.414 . S
C333 C334 1.374 . S
C334 H308 0.950 . S
C334 C330 1.385 . S
C334 C333 1.374 . S
C335 C332 1.499 . S
C335 C336 1.380 . S
C335 C337 1.389 . S
C336 H309 0.951 . S
C336 C322 1.370 1_545 S
C336 C335 1.380 . S
C337 C321 1.377 1_545 S
C337 C335 1.389 . S
C337 C338 1.524 . S
C338 C337 1.524 . S
C338 C339 1.397 . S
C338 C343 1.363 . S
C339 H310 0.950 . S
C339 C338 1.397 . S
C339 C340 1.334 . S
C340 H311 0.950 . S
C340 C339 1.334 . S
C340 C341 1.287 . S
C341 C340 1.287 . S
C341 C342 1.524 . S
C341 H344 0.999 . S
C342 H312 0.950 . S
C342 C341 1.524 . S
C342 C343 1.415 . S
C343 H313 0.950 . S
C343 C338 1.363 . S
C343 C342 1.415 . S
H344 C341 0.999 . S
H345 C326 0.913 . S
C65 C17 0.441 . S
C80 C16 0.436 . S
C115 C39 0.436 . S
C130 C40 0.441 . S
C165 C42 2.162 . S
C180 C20 2.152 . S
C215 C21 2.111 . S
C230 C44 2.111 . S
C265 C43 2.152 . S
C280 C19 2.162 . S
C315 C41 2.201 . S
C330 C18 2.201 . S
