# Generated by pormake.
# Topology umu, (4)-cn, num edge types: 1
# Building blocks:
#     Node 0, Type 0, BuildingBlock: NAHDIM_clean_sbu_0, # of connection points: 4
#     Node 1, Type 0, BuildingBlock: NAHDIM_clean_sbu_0, # of connection points: 4
#     Node 2, Type 0, BuildingBlock: NAHDIM_clean_sbu_0, # of connection points: 4
#     Node 3, Type 0, BuildingBlock: NAHDIM_clean_sbu_0, # of connection points: 4
#     Node 4, Type 0, BuildingBlock: NAHDIM_clean_sbu_0, # of connection points: 4
#     Node 5, Type 0, BuildingBlock: NAHDIM_clean_sbu_0, # of connection points: 4
#     Node 6, Type 0, BuildingBlock: NAHDIM_clean_sbu_0, # of connection points: 4
#     Node 7, Type 0, BuildingBlock: NAHDIM_clean_sbu_0, # of connection points: 4
#     Node 8, Type 0, BuildingBlock: NAHDIM_clean_sbu_0, # of connection points: 4
#     Node 9, Type 0, BuildingBlock: NAHDIM_clean_sbu_0, # of connection points: 4
#     Node 10, Type 0, BuildingBlock: NAHDIM_clean_sbu_0, # of connection points: 4
#     Node 11, Type 0, BuildingBlock: NAHDIM_clean_sbu_0, # of connection points: 4
#     Node 12, Type 0, BuildingBlock: NAHDIM_clean_sbu_0, # of connection points: 4
#     Node 13, Type 0, BuildingBlock: NAHDIM_clean_sbu_0, # of connection points: 4
#     Node 14, Type 0, BuildingBlock: NAHDIM_clean_sbu_0, # of connection points: 4
#     Node 15, Type 0, BuildingBlock: NAHDIM_clean_sbu_0, # of connection points: 4
#     Node 16, Type 0, BuildingBlock: NAHDIM_clean_sbu_0, # of connection points: 4
#     Node 17, Type 0, BuildingBlock: NAHDIM_clean_sbu_0, # of connection points: 4
#     Node 18, Type 0, BuildingBlock: NAHDIM_clean_sbu_0, # of connection points: 4
#     Node 19, Type 0, BuildingBlock: NAHDIM_clean_sbu_0, # of connection points: 4
#     Node 20, Type 0, BuildingBlock: NAHDIM_clean_sbu_0, # of connection points: 4
#     Node 21, Type 0, BuildingBlock: NAHDIM_clean_sbu_0, # of connection points: 4
#     Node 22, Type 0, BuildingBlock: NAHDIM_clean_sbu_0, # of connection points: 4
#     Node 23, Type 0, BuildingBlock: NAHDIM_clean_sbu_0, # of connection points: 4
#     Node 24, Type 0, BuildingBlock: NAHDIM_clean_sbu_0, # of connection points: 4
#     Node 25, Type 0, BuildingBlock: NAHDIM_clean_sbu_0, # of connection points: 4
#     Node 26, Type 0, BuildingBlock: NAHDIM_clean_sbu_0, # of connection points: 4
#     Node 27, Type 0, BuildingBlock: NAHDIM_clean_sbu_0, # of connection points: 4
#     Node 28, Type 0, BuildingBlock: NAHDIM_clean_sbu_0, # of connection points: 4
#     Node 29, Type 0, BuildingBlock: NAHDIM_clean_sbu_0, # of connection points: 4
#     Node 30, Type 0, BuildingBlock: NAHDIM_clean_sbu_0, # of connection points: 4
#     Node 31, Type 0, BuildingBlock: NAHDIM_clean_sbu_0, # of connection points: 4
#     Edge 32, Type (0, 0), BuildingBlock: OJICUG_clean_linker_0, # of connection points: 2
#     Edge 33, Type (0, 0), BuildingBlock: OJICUG_clean_linker_0, # of connection points: 2
#     Edge 34, Type (0, 0), BuildingBlock: OJICUG_clean_linker_0, # of connection points: 2
#     Edge 35, Type (0, 0), BuildingBlock: OJICUG_clean_linker_0, # of connection points: 2
#     Edge 36, Type (0, 0), BuildingBlock: OJICUG_clean_linker_0, # of connection points: 2
#     Edge 37, Type (0, 0), BuildingBlock: OJICUG_clean_linker_0, # of connection points: 2
#     Edge 38, Type (0, 0), BuildingBlock: OJICUG_clean_linker_0, # of connection points: 2
#     Edge 39, Type (0, 0), BuildingBlock: OJICUG_clean_linker_0, # of connection points: 2
#     Edge 40, Type (0, 0), BuildingBlock: OJICUG_clean_linker_0, # of connection points: 2
#     Edge 41, Type (0, 0), BuildingBlock: OJICUG_clean_linker_0, # of connection points: 2
#     Edge 42, Type (0, 0), BuildingBlock: OJICUG_clean_linker_0, # of connection points: 2
#     Edge 43, Type (0, 0), BuildingBlock: OJICUG_clean_linker_0, # of connection points: 2
#     Edge 44, Type (0, 0), BuildingBlock: OJICUG_clean_linker_0, # of connection points: 2
#     Edge 45, Type (0, 0), BuildingBlock: OJICUG_clean_linker_0, # of connection points: 2
#     Edge 46, Type (0, 0), BuildingBlock: OJICUG_clean_linker_0, # of connection points: 2
#     Edge 47, Type (0, 0), BuildingBlock: OJICUG_clean_linker_0, # of connection points: 2
#     Edge 48, Type (0, 0), BuildingBlock: OJICUG_clean_linker_0, # of connection points: 2
#     Edge 49, Type (0, 0), BuildingBlock: OJICUG_clean_linker_0, # of connection points: 2
#     Edge 50, Type (0, 0), BuildingBlock: OJICUG_clean_linker_0, # of connection points: 2
#     Edge 51, Type (0, 0), BuildingBlock: OJICUG_clean_linker_0, # of connection points: 2
#     Edge 52, Type (0, 0), BuildingBlock: OJICUG_clean_linker_0, # of connection points: 2
#     Edge 53, Type (0, 0), BuildingBlock: OJICUG_clean_linker_0, # of connection points: 2
#     Edge 54, Type (0, 0), BuildingBlock: OJICUG_clean_linker_0, # of connection points: 2
#     Edge 55, Type (0, 0), BuildingBlock: OJICUG_clean_linker_0, # of connection points: 2
#     Edge 56, Type (0, 0), BuildingBlock: OJICUG_clean_linker_0, # of connection points: 2
#     Edge 57, Type (0, 0), BuildingBlock: OJICUG_clean_linker_0, # of connection points: 2
#     Edge 58, Type (0, 0), BuildingBlock: OJICUG_clean_linker_0, # of connection points: 2
#     Edge 59, Type (0, 0), BuildingBlock: OJICUG_clean_linker_0, # of connection points: 2
#     Edge 60, Type (0, 0), BuildingBlock: OJICUG_clean_linker_0, # of connection points: 2
#     Edge 61, Type (0, 0), BuildingBlock: OJICUG_clean_linker_0, # of connection points: 2
#     Edge 62, Type (0, 0), BuildingBlock: OJICUG_clean_linker_0, # of connection points: 2
#     Edge 63, Type (0, 0), BuildingBlock: OJICUG_clean_linker_0, # of connection points: 2
#     Edge 64, Type (0, 0), BuildingBlock: OJICUG_clean_linker_0, # of connection points: 2
#     Edge 65, Type (0, 0), BuildingBlock: OJICUG_clean_linker_0, # of connection points: 2
#     Edge 66, Type (0, 0), BuildingBlock: OJICUG_clean_linker_0, # of connection points: 2
#     Edge 67, Type (0, 0), BuildingBlock: OJICUG_clean_linker_0, # of connection points: 2
#     Edge 68, Type (0, 0), BuildingBlock: OJICUG_clean_linker_0, # of connection points: 2
#     Edge 69, Type (0, 0), BuildingBlock: OJICUG_clean_linker_0, # of connection points: 2
#     Edge 70, Type (0, 0), BuildingBlock: OJICUG_clean_linker_0, # of connection points: 2
#     Edge 71, Type (0, 0), BuildingBlock: OJICUG_clean_linker_0, # of connection points: 2
#     Edge 72, Type (0, 0), BuildingBlock: OJICUG_clean_linker_0, # of connection points: 2
#     Edge 73, Type (0, 0), BuildingBlock: OJICUG_clean_linker_0, # of connection points: 2
#     Edge 74, Type (0, 0), BuildingBlock: OJICUG_clean_linker_0, # of connection points: 2
#     Edge 75, Type (0, 0), BuildingBlock: OJICUG_clean_linker_0, # of connection points: 2
#     Edge 76, Type (0, 0), BuildingBlock: OJICUG_clean_linker_0, # of connection points: 2
#     Edge 77, Type (0, 0), BuildingBlock: OJICUG_clean_linker_0, # of connection points: 2
#     Edge 78, Type (0, 0), BuildingBlock: OJICUG_clean_linker_0, # of connection points: 2
#     Edge 79, Type (0, 0), BuildingBlock: OJICUG_clean_linker_0, # of connection points: 2
#     Edge 80, Type (0, 0), BuildingBlock: OJICUG_clean_linker_0, # of connection points: 2
#     Edge 81, Type (0, 0), BuildingBlock: OJICUG_clean_linker_0, # of connection points: 2
#     Edge 82, Type (0, 0), BuildingBlock: OJICUG_clean_linker_0, # of connection points: 2
#     Edge 83, Type (0, 0), BuildingBlock: OJICUG_clean_linker_0, # of connection points: 2
#     Edge 84, Type (0, 0), BuildingBlock: OJICUG_clean_linker_0, # of connection points: 2
#     Edge 85, Type (0, 0), BuildingBlock: OJICUG_clean_linker_0, # of connection points: 2
#     Edge 86, Type (0, 0), BuildingBlock: OJICUG_clean_linker_0, # of connection points: 2
#     Edge 87, Type (0, 0), BuildingBlock: OJICUG_clean_linker_0, # of connection points: 2
#     Edge 88, Type (0, 0), BuildingBlock: OJICUG_clean_linker_0, # of connection points: 2
#     Edge 89, Type (0, 0), BuildingBlock: OJICUG_clean_linker_0, # of connection points: 2
#     Edge 90, Type (0, 0), BuildingBlock: OJICUG_clean_linker_0, # of connection points: 2
#     Edge 91, Type (0, 0), BuildingBlock: OJICUG_clean_linker_0, # of connection points: 2
#     Edge 92, Type (0, 0), BuildingBlock: OJICUG_clean_linker_0, # of connection points: 2
#     Edge 93, Type (0, 0), BuildingBlock: OJICUG_clean_linker_0, # of connection points: 2
#     Edge 94, Type (0, 0), BuildingBlock: OJICUG_clean_linker_0, # of connection points: 2
#     Edge 95, Type (0, 0), BuildingBlock: OJICUG_clean_linker_0, # of connection points: 2
# Relax obj value: 0.139
# Max RMSD: 0.103
# Mean RMSD: 0.103
data_MOF--net-umu--node1-NAHDIM_clean_sbu_0--edge1-OJICUG_clean_linker_0
_symmetry_space_group_name_H-M    P1
_symmetry_Int_Tables_number       1
_symmetry_cell_setting            triclinic
loop_
_symmetry_equiv_pos_as_xyz
'x, y, z'
_cell_length_a     64.276356
_cell_length_b     64.230798
_cell_length_c     17.062813
_cell_angle_alpha  89.986605
_cell_angle_beta   89.999439
_cell_angle_gamma 90.00844
loop_
_atom_site_label
_atom_site_type_symbol
_atom_site_fract_x
_atom_site_fract_y
_atom_site_fract_z
_atom_type_partial_charge
C0 C 0.18104 0.13305 0.99856 0.0
O1 O 0.20104 0.1288 0.99901 0.0
O2 O 0.21594 0.16439 0.13923 0.0
Zn3 Zn 0.19761 0.17178 0.04704 0.0
O4 O 0.21654 0.17214 0.95427 0.0
C5 C 0.18545 0.2102 0.12548 0.0
O6 O 0.19015 0.19984 0.18948 0.0
O7 O 0.17505 0.15086 0.0221 0.0
C8 C 0.21201 0.18179 0.89161 0.0
O9 O 0.19436 0.19204 0.8872 0.0
C10 C 0.21292 0.15124 0.19368 0.0
O11 O 0.19561 0.14036 0.19471 0.0
O12 O 0.18652 0.201 0.05963 0.0
C13 C 0.12603 0.93298 0.24468 0.0
O14 O 0.13004 0.95303 0.24176 0.0
O15 O 0.09435 0.9678 0.38872 0.0
Zn16 Zn 0.08729 0.94913 0.29722 0.0
O17 O 0.08597 0.9679 0.20405 0.0
C18 C 0.0493 0.9362 0.37724 0.0
O19 O 0.05945 0.94156 0.44096 0.0
O20 O 0.10859 0.92699 0.27182 0.0
C21 C 0.07566 0.96326 0.14303 0.0
O22 O 0.06547 0.94554 0.14043 0.0
C23 C 0.10677 0.96474 0.44548 0.0
O24 O 0.11722 0.9472 0.44939 0.0
O25 O 0.0585 0.9372 0.31138 0.0
C26 C 0.32487 0.87299 0.491 0.0
O27 O 0.30494 0.87728 0.48541 0.0
O28 O 0.29117 0.84441 0.6508 0.0
Zn29 Zn 0.30735 0.83586 0.55362 0.0
O30 O 0.2873 0.83512 0.46419 0.0
C31 C 0.31731 0.79654 0.63046 0.0
O32 O 0.31165 0.80654 0.69414 0.0
O33 O 0.33035 0.8559 0.52264 0.0
C34 C 0.27124 0.82361 0.46615 0.0
O35 O 0.26779 0.81194 0.52807 0.0
C36 C 0.27488 0.85565 0.64707 0.0
O37 O 0.26936 0.86362 0.5793 0.0
O38 O 0.31774 0.80627 0.56554 0.0
C39 C 0.37964 0.07048 0.74664 0.0
O40 O 0.37551 0.05047 0.74371 0.0
O41 O 0.40999 0.03755 0.90352 0.0
Zn42 Zn 0.41766 0.05398 0.80587 0.0
O43 O 0.41896 0.03392 0.71651 0.0
C44 C 0.45669 0.06567 0.88125 0.0
O45 O 0.44703 0.06003 0.9457 0.0
O46 O 0.39693 0.07638 0.77541 0.0
C47 C 0.43146 0.01861 0.71819 0.0
O48 O 0.44354 0.01603 0.77956 0.0
C49 C 0.39956 0.02071 0.90012 0.0
O50 O 0.39176 0.01479 0.83256 0.0
O51 O 0.44683 0.06541 0.81663 0.0
C52 C 0.1839 0.87499 0.10317 0.0
O53 O 0.20394 0.87897 0.10629 0.0
O54 O 0.2186 0.84297 0.95917 0.0
Zn55 Zn 0.19996 0.83615 0.05103 0.0
O56 O 0.21874 0.83495 0.14413 0.0
C57 C 0.18664 0.79812 0.97212 0.0
O58 O 0.19178 0.80821 0.90801 0.0
O59 O 0.1779 0.85755 0.07604 0.0
C60 C 0.21392 0.82497 0.20575 0.0
O61 O 0.19604 0.81509 0.20892 0.0
C62 C 0.21586 0.85575 0.90329 0.0
O63 O 0.19867 0.86679 0.9005 0.0
O64 O 0.18794 0.80735 0.03782 0.0
C65 C 0.38433 0.9298 0.35157 0.0
O66 O 0.38005 0.9498 0.35109 0.0
O67 O 0.41556 0.96489 0.21152 0.0
Zn68 Zn 0.42303 0.94648 0.30346 0.0
O69 O 0.42339 0.96537 0.39641 0.0
C70 C 0.46145 0.93466 0.22448 0.0
O71 O 0.45107 0.93949 0.16069 0.0
O72 O 0.40216 0.92383 0.32826 0.0
C73 C 0.43359 0.96117 0.45813 0.0
O74 O 0.44442 0.94385 0.46161 0.0
C75 C 0.40274 0.96166 0.15615 0.0
O76 O 0.3923 0.94409 0.154 0.0
O77 O 0.45226 0.93549 0.29039 0.0
C78 C 0.3216 0.12823 0.60441 0.0
O79 O 0.30161 0.12406 0.60788 0.0
O80 O 0.28865 0.15843 0.44664 0.0
Zn81 Zn 0.30497 0.16613 0.54443 0.0
O82 O 0.28485 0.16737 0.63362 0.0
C83 C 0.31657 0.20519 0.46901 0.0
O84 O 0.3111 0.19546 0.40452 0.0
O85 O 0.32742 0.14548 0.57502 0.0
C86 C 0.26933 0.17958 0.63127 0.0
O87 O 0.26654 0.19139 0.56927 0.0
C88 C 0.27192 0.14782 0.44963 0.0
O89 O 0.26606 0.1398 0.5169 0.0
O90 O 0.31626 0.19536 0.53371 0.0
C91 C 0.12437 0.07378 0.85753 0.0
O92 O 0.12857 0.05382 0.86311 0.0
O93 O 0.0958 0.04022 0.69748 0.0
Zn94 Zn 0.08722 0.05649 0.7944 0.0
O95 O 0.08621 0.03648 0.88398 0.0
C96 C 0.04813 0.06679 0.71684 0.0
O97 O 0.05809 0.06093 0.65337 0.0
O98 O 0.10736 0.07935 0.82564 0.0
C99 C 0.07449 0.02057 0.88242 0.0
O100 O 0.06271 0.01723 0.82074 0.0
C101 C 0.10682 0.02377 0.70164 0.0
O102 O 0.11453 0.01815 0.76971 0.0
O103 O 0.0578 0.06718 0.78186 0.0
C104 C 0.82336 0.87399 0.10974 0.0
O105 O 0.80339 0.87806 0.11552 0.0
O106 O 0.79029 0.84406 0.94972 0.0
Zn107 Zn 0.80654 0.83635 0.04759 0.0
O108 O 0.7864 0.83514 0.13666 0.0
C109 C 0.81811 0.79724 0.97246 0.0
O110 O 0.81263 0.80693 0.90788 0.0
O111 O 0.82903 0.85696 0.07816 0.0
C112 C 0.77078 0.82306 0.13412 0.0
O113 O 0.76787 0.81136 0.07191 0.0
C114 C 0.77369 0.85486 0.95252 0.0
O115 O 0.76795 0.86307 0.01961 0.0
O116 O 0.81781 0.8071 0.03706 0.0
C117 C 0.88151 0.07096 0.85354 0.0
O118 O 0.87748 0.05091 0.85444 0.0
O119 O 0.91149 0.038 0.69962 0.0
Zn120 Zn 0.91969 0.05479 0.79586 0.0
O121 O 0.92124 0.03508 0.88626 0.0
C122 C 0.95843 0.06594 0.71753 0.0
O123 O 0.94854 0.05972 0.65437 0.0
O124 O 0.89891 0.07711 0.82647 0.0
C125 C 0.9344 0.02034 0.88739 0.0
O126 O 0.9473 0.01812 0.82822 0.0
C127 C 0.9016 0.02087 0.70502 0.0
O128 O 0.89488 0.01476 0.77398 0.0
O129 O 0.94882 0.06624 0.78267 0.0
C130 C 0.68126 0.12972 0.6084 0.0
O131 O 0.70127 0.12559 0.61111 0.0
O132 O 0.71649 0.16099 0.46553 0.0
Zn133 Zn 0.69794 0.16829 0.55722 0.0
O134 O 0.71672 0.16892 0.65042 0.0
C135 C 0.6857 0.20649 0.47746 0.0
O136 O 0.69052 0.196 0.41391 0.0
O137 O 0.6754 0.14729 0.58192 0.0
C138 C 0.71206 0.17865 0.71274 0.0
O139 O 0.69435 0.1888 0.71662 0.0
C140 C 0.71372 0.14781 0.411 0.0
O141 O 0.69655 0.13671 0.4096 0.0
O142 O 0.68671 0.19744 0.54365 0.0
C143 C 0.62739 0.92968 0.3586 0.0
O144 O 0.63155 0.94963 0.36517 0.0
O145 O 0.59794 0.96292 0.19631 0.0
Zn146 Zn 0.59013 0.9468 0.29445 0.0
O147 O 0.589 0.96706 0.38323 0.0
C148 C 0.55108 0.93514 0.2192 0.0
O149 O 0.5608 0.94049 0.15452 0.0
O150 O 0.6105 0.92416 0.32565 0.0
C151 C 0.57705 0.98278 0.38053 0.0
O152 O 0.56538 0.98574 0.31827 0.0
C153 C 0.60889 0.97943 0.19883 0.0
O154 O 0.61722 0.98513 0.26576 0.0
O155 O 0.56089 0.93562 0.28389 0.0
C156 C 0.8225 0.12733 0.99774 0.0
O157 O 0.80257 0.12301 0.99297 0.0
O158 O 0.78924 0.15678 0.1579 0.0
Zn159 Zn 0.80533 0.16473 0.05983 0.0
O160 O 0.78511 0.16566 0.97094 0.0
C161 C 0.81654 0.20404 0.13447 0.0
O162 O 0.81109 0.19441 0.19923 0.0
O163 O 0.82807 0.14445 0.02881 0.0
C164 C 0.76935 0.17756 0.97329 0.0
O165 O 0.76634 0.18934 0.03523 0.0
C166 C 0.77279 0.14575 0.15504 0.0
O167 O 0.76713 0.13754 0.08784 0.0
O168 O 0.8163 0.19409 0.07006 0.0
C169 C 0.62321 0.0712 0.74617 0.0
O170 O 0.62753 0.05121 0.74374 0.0
O171 O 0.59227 0.03577 0.88923 0.0
Zn172 Zn 0.58481 0.05416 0.79717 0.0
O173 O 0.5845 0.03529 0.70417 0.0
C174 C 0.54633 0.06598 0.87587 0.0
O175 O 0.55672 0.06123 0.93973 0.0
O176 O 0.60558 0.07692 0.77241 0.0
C177 C 0.57501 0.03998 0.64134 0.0
O178 O 0.56492 0.05773 0.63696 0.0
C179 C 0.60565 0.03857 0.943 0.0
O180 O 0.61684 0.05569 0.94341 0.0
O181 O 0.55553 0.06508 0.80997 0.0
C182 C 0.68315 0.86988 0.50168 0.0
O183 O 0.70318 0.87397 0.50312 0.0
O184 O 0.7176 0.83832 0.64242 0.0
Zn185 Zn 0.69927 0.83096 0.55022 0.0
O186 O 0.71825 0.83042 0.45765 0.0
C187 C 0.68702 0.79258 0.62884 0.0
O188 O 0.69186 0.80292 0.69271 0.0
O189 O 0.67694 0.85209 0.52467 0.0
C190 C 0.71357 0.82096 0.39477 0.0
O191 O 0.69575 0.811 0.39011 0.0
C192 C 0.71462 0.8515 0.69679 0.0
O193 O 0.69736 0.86243 0.69774 0.0
O194 O 0.688 0.80179 0.56297 0.0
C195 C 0.88256 0.93091 0.24986 0.0
O196 O 0.87833 0.95092 0.25034 0.0
O197 O 0.91413 0.96582 0.38967 0.0
Zn198 Zn 0.9215 0.94721 0.29835 0.0
O199 O 0.92257 0.96601 0.20504 0.0
C200 C 0.95981 0.93514 0.37844 0.0
O201 O 0.94974 0.94067 0.44211 0.0
O202 O 0.90036 0.92489 0.27322 0.0
C203 C 0.93457 0.96275 0.14718 0.0
O204 O 0.94679 0.94636 0.14753 0.0
C205 C 0.90261 0.96199 0.44842 0.0
O206 O 0.89356 0.94372 0.45436 0.0
O207 O 0.95044 0.93565 0.31285 0.0
C208 C 0.68171 0.62623 0.49667 0.0
O209 O 0.70165 0.62201 0.49114 0.0
O210 O 0.7148 0.65603 0.65747 0.0
Zn211 Zn 0.69867 0.66377 0.55933 0.0
O212 O 0.7189 0.66488 0.47052 0.0
C213 C 0.68698 0.70288 0.63426 0.0
O214 O 0.69226 0.69316 0.69902 0.0
O215 O 0.67612 0.64327 0.52836 0.0
C216 C 0.73456 0.67691 0.47312 0.0
O217 O 0.73747 0.68864 0.53527 0.0
C218 C 0.73133 0.64511 0.65494 0.0
O219 O 0.73704 0.6368 0.588 0.0
O220 O 0.68748 0.69304 0.56962 0.0
C221 C 0.62108 0.43011 0.74879 0.0
O222 O 0.62532 0.45011 0.74762 0.0
O223 O 0.59157 0.46345 0.90261 0.0
Zn224 Zn 0.58313 0.44677 0.8064 0.0
O225 O 0.58186 0.46648 0.71594 0.0
C226 C 0.5441 0.43632 0.88417 0.0
O227 O 0.55394 0.44259 0.94739 0.0
O228 O 0.60362 0.42417 0.77597 0.0
C229 C 0.56887 0.48136 0.71464 0.0
O230 O 0.55596 0.48375 0.77369 0.0
C231 C 0.60171 0.48043 0.89706 0.0
O232 O 0.60847 0.48644 0.82802 0.0
O233 O 0.55385 0.43572 0.81935 0.0
C234 C 0.82013 0.37082 0.9986 0.0
O235 O 0.8001 0.37495 0.99921 0.0
O236 O 0.78536 0.33916 0.13869 0.0
Zn237 Zn 0.80389 0.33188 0.04699 0.0
O238 O 0.78507 0.33117 0.95395 0.0
C239 C 0.81622 0.29372 0.12675 0.0
O240 O 0.81133 0.30418 0.19027 0.0
O241 O 0.82625 0.35303 0.02198 0.0
C242 C 0.78967 0.32135 0.89177 0.0
O243 O 0.80736 0.31115 0.88793 0.0
C244 C 0.78831 0.35212 0.19383 0.0
O245 O 0.80565 0.36293 0.19588 0.0
O246 O 0.81525 0.30277 0.06058 0.0
C247 C 0.88058 0.57196 0.24562 0.0
O248 O 0.87627 0.55197 0.24287 0.0
O249 O 0.91157 0.53656 0.38905 0.0
Zn250 Zn 0.91896 0.55494 0.29689 0.0
O251 O 0.91929 0.53606 0.20393 0.0
C252 C 0.95742 0.56696 0.37536 0.0
O253 O 0.94709 0.56222 0.43935 0.0
O254 O 0.89817 0.57767 0.27217 0.0
C255 C 0.9289 0.54068 0.14129 0.0
O256 O 0.93909 0.55837 0.13705 0.0
C257 C 0.89823 0.53937 0.44297 0.0
O258 O 0.88706 0.5565 0.44348 0.0
O259 O 0.9482 0.56596 0.30953 0.0
C260 C 0.67957 0.37299 0.60585 0.0
O261 O 0.69954 0.37717 0.61036 0.0
O262 O 0.7127 0.34336 0.44658 0.0
Zn263 Zn 0.6965 0.33544 0.54444 0.0
O264 O 0.71666 0.33442 0.63352 0.0
C265 C 0.68532 0.29616 0.46964 0.0
O266 O 0.69091 0.30577 0.40501 0.0
O267 O 0.67387 0.35585 0.57522 0.0
C268 C 0.73235 0.32242 0.63133 0.0
O269 O 0.73532 0.31061 0.56947 0.0
C270 C 0.72923 0.35427 0.44972 0.0
O271 O 0.73494 0.36234 0.51708 0.0
O272 O 0.68545 0.30613 0.53402 0.0
C273 C 0.87644 0.43045 0.8574 0.0
O274 O 0.87228 0.45041 0.86357 0.0
O275 O 0.90604 0.46372 0.69623 0.0
Zn276 Zn 0.91384 0.44753 0.79424 0.0
O277 O 0.91495 0.46774 0.88317 0.0
C278 C 0.95288 0.43594 0.71883 0.0
O279 O 0.94311 0.44124 0.65423 0.0
O280 O 0.89341 0.4249 0.82514 0.0
C281 C 0.92697 0.48342 0.88065 0.0
O282 O 0.93871 0.48633 0.81855 0.0
C283 C 0.89514 0.48026 0.69889 0.0
O284 O 0.88687 0.48596 0.76591 0.0
O285 O 0.94311 0.43639 0.7836 0.0
C286 C 0.82267 0.63056 0.10755 0.0
O287 O 0.80267 0.62638 0.10967 0.0
O288 O 0.78758 0.66172 0.96457 0.0
Zn289 Zn 0.80596 0.66909 0.05667 0.0
O290 O 0.78707 0.66949 0.14956 0.0
C291 C 0.818 0.70754 0.978 0.0
O292 O 0.81323 0.69716 0.91413 0.0
O293 O 0.82855 0.64818 0.08154 0.0
C294 C 0.79175 0.67899 0.21237 0.0
O295 O 0.8095 0.68906 0.2168 0.0
C296 C 0.79036 0.6483 0.91088 0.0
O297 O 0.80743 0.63705 0.91062 0.0
O298 O 0.81704 0.69834 0.0439 0.0
C299 C 0.62226 0.57005 0.35384 0.0
O300 O 0.62622 0.54998 0.35361 0.0
O301 O 0.59044 0.53556 0.21281 0.0
Zn302 Zn 0.58319 0.5543 0.3039 0.0
O303 O 0.58166 0.53551 0.39713 0.0
C304 C 0.54529 0.56698 0.22258 0.0
O305 O 0.55543 0.56131 0.15926 0.0
O306 O 0.60461 0.5763 0.3297 0.0
C307 C 0.56962 0.53891 0.45473 0.0
O308 O 0.55761 0.55546 0.45419 0.0
C309 C 0.60186 0.5393 0.1537 0.0
O310 O 0.61096 0.55754 0.14726 0.0
O311 O 0.55447 0.5663 0.28851 0.0
C312 C 0.32102 0.37204 0.60098 0.0
O313 O 0.30103 0.37635 0.6012 0.0
O314 O 0.28595 0.34077 0.45974 0.0
Zn315 Zn 0.30429 0.33338 0.55198 0.0
O316 O 0.28538 0.33308 0.64483 0.0
C317 C 0.31635 0.2949 0.47372 0.0
O318 O 0.31163 0.30524 0.40971 0.0
O319 O 0.32691 0.35426 0.57683 0.0
C320 C 0.29007 0.32368 0.70785 0.0
O321 O 0.30785 0.31367 0.7125 0.0
C322 C 0.28876 0.35417 0.40597 0.0
O323 O 0.30587 0.36537 0.40565 0.0
O324 O 0.31532 0.30412 0.53954 0.0
C325 C 0.37879 0.57218 0.35046 0.0
O326 O 0.3744 0.5522 0.35151 0.0
O327 O 0.41004 0.53682 0.20911 0.0
Zn328 Zn 0.41744 0.5554 0.30059 0.0
O329 O 0.41835 0.53662 0.39398 0.0
C330 C 0.4558 0.56745 0.22087 0.0
O331 O 0.44572 0.56204 0.15707 0.0
O332 O 0.39653 0.57795 0.32555 0.0
C333 C 0.42971 0.54037 0.45321 0.0
O334 O 0.44131 0.55721 0.45406 0.0
C335 C 0.39814 0.54039 0.1512 0.0
O336 O 0.3886 0.55842 0.14605 0.0
O337 O 0.44644 0.56681 0.28646 0.0
C338 C 0.18042 0.63124 0.09906 0.0
O339 O 0.20042 0.627 0.09884 0.0
O340 O 0.21535 0.66287 0.95859 0.0
Zn341 Zn 0.19682 0.6701 0.05032 0.0
O342 O 0.21563 0.67088 0.14341 0.0
C343 C 0.1848 0.70855 0.97154 0.0
O344 O 0.18994 0.6984 0.90756 0.0
O345 O 0.17442 0.64902 0.07526 0.0
C346 C 0.21113 0.68111 0.2048 0.0
O347 O 0.19356 0.69152 0.20777 0.0
C348 C 0.21218 0.65034 0.90225 0.0
O349 O 0.19459 0.63995 0.89895 0.0
O350 O 0.1855 0.69918 0.03711 0.0
C351 C 0.11985 0.43216 0.84981 0.0
O352 O 0.12392 0.45221 0.84852 0.0
O353 O 0.08824 0.46666 0.70952 0.0
Zn354 Zn 0.08092 0.44827 0.80165 0.0
O355 O 0.08036 0.46721 0.89433 0.0
C356 C 0.04253 0.43609 0.72316 0.0
O357 O 0.0528 0.44106 0.65927 0.0
O358 O 0.10206 0.42594 0.82694 0.0
C359 C 0.07078 0.46256 0.95701 0.0
O360 O 0.06075 0.44477 0.96144 0.0
C361 C 0.10138 0.46365 0.65503 0.0
O362 O 0.11226 0.44634 0.65394 0.0
O363 O 0.05178 0.43696 0.78893 0.0
C364 C 0.32071 0.63013 0.49105 0.0
O365 O 0.30069 0.62622 0.48625 0.0
O366 O 0.28779 0.65976 0.64992 0.0
Zn367 Zn 0.30421 0.66787 0.55279 0.0
O368 O 0.28422 0.66918 0.46327 0.0
C369 C 0.31558 0.70676 0.6299 0.0
O370 O 0.30972 0.69688 0.69361 0.0
O371 O 0.32661 0.64718 0.52186 0.0
C372 C 0.2685 0.68114 0.46506 0.0
O373 O 0.26537 0.69293 0.52688 0.0
C374 C 0.27117 0.64901 0.64605 0.0
O375 O 0.26542 0.64126 0.57819 0.0
O376 O 0.31553 0.69711 0.56482 0.0
C377 C 0.12358 0.57231 0.24121 0.0
O378 O 0.12759 0.55231 0.2356 0.0
O379 O 0.09386 0.53935 0.40202 0.0
Zn380 Zn 0.08606 0.55559 0.3042 0.0
O381 O 0.08477 0.53542 0.21523 0.0
C382 C 0.04706 0.56716 0.37987 0.0
O383 O 0.0568 0.56167 0.44431 0.0
O384 O 0.10663 0.57805 0.27309 0.0
C385 C 0.0727 0.51978 0.21772 0.0
O386 O 0.061 0.51684 0.27991 0.0
C387 C 0.10462 0.52272 0.39912 0.0
O388 O 0.11274 0.51694 0.33191 0.0
O389 O 0.05685 0.56687 0.31513 0.0
C390 C 0.17979 0.37628 0.99137 0.0
O391 O 0.19971 0.38049 0.9848 0.0
O392 O 0.21312 0.34671 0.15291 0.0
Zn393 Zn 0.19698 0.33895 0.05483 0.0
O394 O 0.21719 0.33786 0.9659 0.0
C395 C 0.18531 0.29988 0.13016 0.0
O396 O 0.1905 0.30967 0.19487 0.0
O397 O 0.17432 0.35932 0.02402 0.0
C398 C 0.23289 0.32588 0.96863 0.0
O399 O 0.23583 0.31421 0.03093 0.0
C400 C 0.22963 0.35765 0.15039 0.0
O401 O 0.23531 0.36602 0.0835 0.0
O402 O 0.18586 0.30966 0.06539 0.0
C403 C 0.37818 0.43093 0.74165 0.0
O404 O 0.37407 0.45092 0.73659 0.0
O405 O 0.40734 0.46444 0.90007 0.0
Zn406 Zn 0.41568 0.44787 0.80354 0.0
O407 O 0.41703 0.4677 0.71341 0.0
C408 C 0.45442 0.43684 0.88216 0.0
O409 O 0.44437 0.44274 0.94543 0.0
O410 O 0.39524 0.42522 0.7728 0.0
C411 C 0.42966 0.4829 0.71347 0.0
O412 O 0.44212 0.48554 0.77372 0.0
C413 C 0.39693 0.48127 0.89526 0.0
O414 O 0.38967 0.48713 0.82676 0.0
O415 O 0.44491 0.43673 0.81678 0.0
C416 C 0.13247 0.10987 0.90622 0.0
C417 C 0.13877 0.08922 0.89254 0.0
H418 H 0.14074 0.13987 0.95191 0.0
C419 C 0.15885 0.0831 0.91558 0.0
H420 H 0.11704 0.11503 0.88968 0.0
C421 C 0.1724 0.09729 0.95081 0.0
C422 C 0.16613 0.11791 0.96479 0.0
H423 H 0.1642 0.06731 0.90606 0.0
H424 H 0.18783 0.09206 0.96713 0.0
C425 C 0.14598 0.12404 0.94248 0.0
C426 C 0.13462 0.89747 0.19209 0.0
C427 C 0.14087 0.91789 0.21026 0.0
H428 H 0.14315 0.86801 0.14257 0.0
C429 C 0.16124 0.92413 0.19163 0.0
H430 H 0.11897 0.89223 0.2051 0.0
C431 C 0.17509 0.91025 0.15615 0.0
C432 C 0.16883 0.88988 0.13749 0.0
H433 H 0.16654 0.93976 0.20464 0.0
H434 H 0.19072 0.91553 0.14319 0.0
C435 C 0.14841 0.88365 0.1556 0.0
C436 C 0.37523 0.89464 0.40703 0.0
C437 C 0.36916 0.91485 0.38498 0.0
H438 H 0.36613 0.86562 0.45922 0.0
C439 C 0.34855 0.92113 0.39882 0.0
H440 H 0.39105 0.88938 0.3977 0.0
C441 C 0.33431 0.90755 0.43365 0.0
C442 C 0.34037 0.88741 0.45642 0.0
H443 H 0.34335 0.93659 0.3827 0.0
H444 H 0.31853 0.91291 0.44306 0.0
C445 C 0.36101 0.88109 0.44288 0.0
C446 C 0.34448 0.07933 0.69362 0.0
C447 C 0.36486 0.0856 0.71189 0.0
H448 H 0.31496 0.08782 0.6455 0.0
C449 C 0.37108 0.10602 0.69345 0.0
H450 H 0.33919 0.06372 0.70691 0.0
C451 C 0.35722 0.1198 0.65693 0.0
C452 C 0.33679 0.11352 0.6392 0.0
H453 H 0.38673 0.11127 0.70625 0.0
H454 H 0.36242 0.13544 0.64354 0.0
C455 C 0.33058 0.09316 0.65822 0.0
C456 C 0.83261 0.90861 0.16715 0.0
C457 C 0.83876 0.88849 0.14441 0.0
H458 H 0.84156 0.93767 0.21825 0.0
C459 C 0.8594 0.88223 0.15813 0.0
H460 H 0.81682 0.91392 0.1576 0.0
C461 C 0.87355 0.8958 0.19414 0.0
C462 C 0.86741 0.91598 0.21619 0.0
H463 H 0.86458 0.86678 0.14183 0.0
H464 H 0.88938 0.89057 0.20363 0.0
C465 C 0.8468 0.92222 0.20214 0.0
C466 C 0.87249 0.10609 0.9094 0.0
C467 C 0.86649 0.08576 0.8887 0.0
H468 H 0.86342 0.1351 0.96158 0.0
C469 C 0.84608 0.07924 0.90518 0.0
H470 H 0.88815 0.11152 0.89801 0.0
C471 C 0.83195 0.09271 0.94109 0.0
C472 C 0.83793 0.11298 0.9624 0.0
H473 H 0.84095 0.06368 0.89012 0.0
H474 H 0.81632 0.08718 0.95241 0.0
C475 C 0.85838 0.11952 0.94641 0.0
C476 C 0.64561 0.12088 0.65936 0.0
C477 C 0.6661 0.11476 0.64185 0.0
H478 H 0.61606 0.11205 0.70745 0.0
C479 C 0.67238 0.09437 0.66016 0.0
H480 H 0.64034 0.13653 0.64655 0.0
C481 C 0.65849 0.08037 0.69471 0.0
C482 C 0.63804 0.08648 0.71271 0.0
H483 H 0.68806 0.08916 0.64764 0.0
H484 H 0.66383 0.06474 0.70748 0.0
C485 C 0.63176 0.10691 0.69489 0.0
C486 C 0.6616 0.92011 0.41848 0.0
C487 C 0.64159 0.91412 0.39407 0.0
H488 H 0.6903 0.9109 0.47159 0.0
C489 C 0.63513 0.89348 0.40693 0.0
H490 H 0.66706 0.93589 0.40965 0.0
C491 C 0.64839 0.87918 0.4437 0.0
C492 C 0.66848 0.88517 0.46738 0.0
H493 H 0.61974 0.88843 0.38935 0.0
H494 H 0.64302 0.86336 0.45246 0.0
C495 C 0.67492 0.90578 0.45422 0.0
C496 C 0.67222 0.59173 0.43867 0.0
C497 C 0.66624 0.6119 0.46138 0.0
H498 H 0.66309 0.5628 0.38694 0.0
C499 C 0.6457 0.61839 0.44697 0.0
H500 H 0.68793 0.58625 0.44876 0.0
C501 C 0.6315 0.60501 0.41027 0.0
C502 C 0.63748 0.58478 0.38823 0.0
H503 H 0.64065 0.63389 0.46322 0.0
H504 H 0.61576 0.61042 0.40024 0.0
C505 C 0.65799 0.5783 0.40302 0.0
C506 C 0.65642 0.42143 0.69727 0.0
C507 C 0.63596 0.41512 0.71393 0.0
H508 H 0.6861 0.41315 0.6502 0.0
C509 C 0.62977 0.39481 0.6937 0.0
H510 H 0.66169 0.43697 0.71196 0.0
C511 C 0.64376 0.38118 0.65701 0.0
C512 C 0.66426 0.38752 0.64086 0.0
H513 H 0.61406 0.38953 0.70525 0.0
H514 H 0.63858 0.36562 0.64222 0.0
C515 C 0.67042 0.40777 0.66167 0.0
C516 C 0.86849 0.3943 0.90574 0.0
C517 C 0.8621 0.41494 0.89242 0.0
H518 H 0.86039 0.36422 0.95118 0.0
C519 C 0.84203 0.42097 0.91587 0.0
H520 H 0.88392 0.38921 0.88889 0.0
C521 C 0.82857 0.40668 0.95114 0.0
C522 C 0.83493 0.38607 0.96477 0.0
H523 H 0.83662 0.43675 0.90666 0.0
H524 H 0.81314 0.41183 0.96778 0.0
C525 C 0.85508 0.38004 0.94205 0.0
C526 C 0.83152 0.59517 0.15893 0.0
C527 C 0.8378 0.61558 0.14109 0.0
H528 H 0.84002 0.56549 0.20595 0.0
C529 C 0.85825 0.62171 0.15916 0.0
H530 H 0.81586 0.58995 0.14598 0.0
C531 C 0.87207 0.60772 0.19475 0.0
C532 C 0.86577 0.58726 0.2121 0.0
H533 H 0.86352 0.63738 0.14672 0.0
H534 H 0.88774 0.61287 0.20773 0.0
C535 C 0.84536 0.58115 0.19356 0.0
C536 C 0.35622 0.38087 0.65625 0.0
C537 C 0.33603 0.38709 0.63468 0.0
H538 H 0.38529 0.38971 0.70836 0.0
C539 C 0.32986 0.40771 0.64936 0.0
H540 H 0.3614 0.36504 0.64629 0.0
C541 C 0.34353 0.42181 0.6845 0.0
C542 C 0.36364 0.41559 0.70678 0.0
H543 H 0.31441 0.41301 0.63363 0.0
H544 H 0.33825 0.4376 0.69454 0.0
C545 C 0.36985 0.39494 0.69242 0.0
C546 C 0.35649 0.6214 0.44106 0.0
C547 C 0.33584 0.61538 0.45628 0.0
H548 H 0.38619 0.61261 0.39423 0.0
C549 C 0.32942 0.59524 0.43493 0.0
H550 H 0.36187 0.63686 0.45628 0.0
C551 C 0.34333 0.58137 0.39982 0.0
C552 C 0.36393 0.58737 0.38423 0.0
H553 H 0.31362 0.59011 0.44567 0.0
H554 H 0.33788 0.56591 0.38481 0.0
C555 C 0.37036 0.60757 0.40491 0.0
C556 C 0.15812 0.58142 0.18297 0.0
C557 C 0.13806 0.58764 0.20597 0.0
H558 H 0.18712 0.59024 0.13118 0.0
C559 C 0.13183 0.60829 0.19195 0.0
H560 H 0.1634 0.56562 0.19274 0.0
C561 C 0.14537 0.62238 0.1554 0.0
C562 C 0.1655 0.61616 0.13312 0.0
H563 H 0.11642 0.61353 0.20843 0.0
H564 H 0.14017 0.63821 0.14572 0.0
C565 C 0.17171 0.59553 0.14746 0.0
C566 C 0.12924 0.39732 0.90712 0.0
C567 C 0.13517 0.41747 0.88376 0.0
H568 H 0.13856 0.36859 0.96085 0.0
C569 C 0.15577 0.42393 0.89684 0.0
H570 H 0.11344 0.39193 0.89841 0.0
C571 C 0.17013 0.41058 0.9322 0.0
C572 C 0.1642 0.39051 0.95629 0.0
H573 H 0.16085 0.43935 0.8797 0.0
H574 H 0.1859 0.41606 0.94099 0.0
C575 C 0.14358 0.38402 0.94351 0.0
C576 C 0.24453 0.16894 0.828 0.0
C577 C 0.22654 0.18132 0.8246 0.0
H578 H 0.27207 0.15864 0.76973 0.0
C579 C 0.22267 0.19317 0.7569 0.0
H580 H 0.24796 0.15959 0.87923 0.0
C581 C 0.23658 0.19267 0.69394 0.0
C582 C 0.25456 0.18026 0.69748 0.0
H583 H 0.20894 0.20287 0.75257 0.0
H584 H 0.23321 0.20198 0.64254 0.0
C585 C 0.25836 0.16838 0.76511 0.0
C586 C 0.08716 0.99611 0.078 0.0
C587 C 0.0752 0.9778 0.07602 0.0
H588 H 0.09631 0.02389 0.01862 0.0
C589 C 0.06289 0.97365 0.00979 0.0
H590 H 0.09684 0.99977 0.1281 0.0
C591 C 0.06254 0.98758 0.94679 0.0
C592 C 0.07455 0.00585 0.94888 0.0
H593 H 0.05348 0.95969 0.0066 0.0
H594 H 0.05291 0.98398 0.89648 0.0
C595 C 0.08686 0.00995 0.01514 0.0
C596 C 0.24691 0.83621 0.27028 0.0
C597 C 0.22844 0.82451 0.27278 0.0
H598 H 0.27482 0.8451 0.3292 0.0
C599 C 0.22413 0.81244 0.33951 0.0
H600 H 0.25069 0.8457 0.21979 0.0
C601 C 0.23805 0.81204 0.40246 0.0
C602 C 0.25649 0.82377 0.39982 0.0
H603 H 0.21003 0.80324 0.34312 0.0
H604 H 0.23433 0.8026 0.45314 0.0
C605 C 0.26075 0.83586 0.33311 0.0
C606 C 0.41976 0.00727 0.58541 0.0
C607 C 0.43213 0.00382 0.65201 0.0
H608 H 0.41054 0.99656 0.47219 0.0
C609 C 0.44502 0.98617 0.65459 0.0
H610 H 0.40964 0.02072 0.58155 0.0
C611 C 0.4455 0.97222 0.59171 0.0
C612 C 0.43315 0.97573 0.52506 0.0
H613 H 0.45472 0.98308 0.70518 0.0
H614 H 0.45559 0.95875 0.59529 0.0
C615 C 0.42029 0.99341 0.52261 0.0
C616 C 0.76001 0.83408 0.26836 0.0
C617 C 0.75604 0.82239 0.20042 0.0
H618 H 0.74978 0.84275 0.38279 0.0
C619 C 0.73792 0.81018 0.19668 0.0
H620 H 0.77383 0.84366 0.27315 0.0
C621 C 0.72403 0.80971 0.25973 0.0
C622 C 0.72808 0.82137 0.32772 0.0
H623 H 0.73442 0.80102 0.14504 0.0
H624 H 0.71019 0.80017 0.25523 0.0
C625 C 0.74621 0.83354 0.33133 0.0
C626 C 0.92072 0.00815 0.01635 0.0
C627 C 0.93471 0.00562 0.95382 0.0
H628 H 0.9097 0.99663 0.12612 0.0
C629 C 0.94875 0.98885 0.9553 0.0
H630 H 0.90968 0.02089 0.01701 0.0
C631 C 0.94873 0.97486 0.01807 0.0
C632 C 0.9347 0.97741 0.08051 0.0
H633 H 0.95972 0.98649 0.90795 0.0
H634 H 0.95972 0.96208 0.01766 0.0
C635 C 0.92073 0.99422 0.07898 0.0
C636 C 0.73643 0.19013 0.91029 0.0
C637 C 0.75457 0.17794 0.90709 0.0
H638 H 0.70868 0.1999 0.85132 0.0
C639 C 0.75852 0.16599 0.83978 0.0
H640 H 0.73294 0.19948 0.96144 0.0
C641 C 0.7447 0.16627 0.77686 0.0
C642 C 0.72656 0.17845 0.77988 0.0
H643 H 0.77234 0.15642 0.83542 0.0
H644 H 0.74825 0.15688 0.72587 0.0
C645 C 0.72252 0.19035 0.84728 0.0
C646 C 0.58767 0.00738 0.5776 0.0
C647 C 0.57546 0.0255 0.57415 0.0
H648 H 0.59777 0.97977 0.5193 0.0
C649 C 0.56377 0.02955 0.50624 0.0
H650 H 0.5969 0.00382 0.629 0.0
C651 C 0.56422 0.01566 0.44315 0.0
C652 C 0.57645 0.99755 0.44678 0.0
H653 H 0.5542 0.04338 0.50185 0.0
H654 H 0.55503 0.01915 0.39161 0.0
C655 C 0.58818 0.99359 0.5146 0.0
C656 C 0.76741 0.68979 0.41047 0.0
C657 C 0.74932 0.67753 0.40687 0.0
H658 H 0.79509 0.69986 0.35176 0.0
C659 C 0.74539 0.66577 0.33908 0.0
H660 H 0.77088 0.69901 0.46199 0.0
C661 C 0.75918 0.6663 0.27609 0.0
C662 C 0.77727 0.67854 0.27953 0.0
H663 H 0.7316 0.65615 0.33441 0.0
H664 H 0.75564 0.65704 0.22473 0.0
C665 C 0.78129 0.69026 0.34739 0.0
C666 C 0.58298 0.50726 0.52307 0.0
C667 C 0.56923 0.52425 0.5214 0.0
H668 H 0.59364 0.48045 0.58518 0.0
C669 C 0.5552 0.527 0.5837 0.0
H670 H 0.594 0.50469 0.47603 0.0
C671 C 0.55496 0.51302 0.64651 0.0
C672 C 0.56878 0.49607 0.64814 0.0
H673 H 0.54438 0.53993 0.584 0.0
H674 H 0.54399 0.51553 0.69377 0.0
C675 C 0.58277 0.49334 0.58573 0.0
C676 C 0.74321 0.33402 0.76478 0.0
C677 C 0.74713 0.32202 0.69756 0.0
H678 H 0.75352 0.34318 0.87857 0.0
C679 C 0.76523 0.30978 0.69445 0.0
H680 H 0.72942 0.34364 0.76907 0.0
C681 C 0.77914 0.30956 0.75743 0.0
C682 C 0.77515 0.32152 0.82471 0.0
H683 H 0.76868 0.30038 0.64337 0.0
H684 H 0.79296 0.29997 0.75344 0.0
C685 C 0.75704 0.33374 0.82767 0.0
C686 C 0.94029 0.53015 0.00648 0.0
C687 C 0.92848 0.52618 0.07415 0.0
H688 H 0.94915 0.51969 0.89208 0.0
C689 C 0.91618 0.50812 0.07743 0.0
H690 H 0.94993 0.54394 0.00224 0.0
C691 C 0.91569 0.4943 0.01448 0.0
C692 C 0.92755 0.49819 0.94689 0.0
H693 H 0.90685 0.50462 0.12863 0.0
H694 H 0.90603 0.48054 0.01902 0.0
C695 C 0.93986 0.51625 0.94345 0.0
C696 C 0.25746 0.33634 0.77135 0.0
C697 C 0.27559 0.32417 0.77501 0.0
H698 H 0.22984 0.34647 0.82951 0.0
C699 C 0.27965 0.31255 0.84311 0.0
H700 H 0.25389 0.34552 0.71981 0.0
C701 C 0.26577 0.31305 0.90618 0.0
C702 C 0.24764 0.32524 0.90237 0.0
H703 H 0.29349 0.30302 0.84765 0.0
H704 H 0.26928 0.30391 0.95788 0.0
C705 C 0.24367 0.33691 0.83435 0.0
C706 C 0.41651 0.50843 0.5202 0.0
C707 C 0.42984 0.52576 0.52008 0.0
H708 H 0.40599 0.48138 0.58116 0.0
C709 C 0.44324 0.52889 0.5841 0.0
H710 H 0.40597 0.50557 0.47183 0.0
C711 C 0.44329 0.51493 0.64699 0.0
C712 C 0.4299 0.49763 0.64702 0.0
H713 H 0.45373 0.54209 0.58564 0.0
H714 H 0.45377 0.51773 0.69554 0.0
C715 C 0.41652 0.49454 0.58296 0.0
C716 C 0.23565 0.69358 0.40121 0.0
C717 C 0.25376 0.68134 0.39873 0.0
H718 H 0.20788 0.70309 0.34179 0.0
C719 C 0.25767 0.66907 0.33219 0.0
H720 H 0.2322 0.70317 0.45175 0.0
C721 C 0.24381 0.66904 0.26941 0.0
C722 C 0.22568 0.68124 0.27176 0.0
H723 H 0.27148 0.65945 0.32841 0.0
H724 H 0.24733 0.65939 0.21906 0.0
C725 C 0.22171 0.6935 0.3383 0.0
C726 C 0.08382 0.509 0.08362 0.0
C727 C 0.07207 0.50504 0.1514 0.0
H728 H 0.09259 0.49876 0.96931 0.0
C729 C 0.05984 0.48692 0.15497 0.0
H730 H 0.09341 0.52282 0.07896 0.0
C731 C 0.05941 0.47303 0.09191 0.0
C732 C 0.07114 0.47707 0.02408 0.0
H733 H 0.05063 0.48343 0.20649 0.0
H734 H 0.04986 0.45919 0.09627 0.0
C735 C 0.08333 0.4952 0.02064 0.0
C736 C 0.18399 0.24388 0.19966 0.0
C737 C 0.18213 0.23302 0.12846 0.0
H738 H 0.18627 0.27353 0.25623 0.0
C739 C 0.17897 0.2444 0.05908 0.0
H740 H 0.18632 0.2356 0.25426 0.0
C741 C 0.17892 0.26616 0.06022 0.0
C742 C 0.18205 0.27704 0.13076 0.0
H743 H 0.17735 0.23654 0.00325 0.0
H744 H 0.17728 0.27443 0.00523 0.0
C745 C 0.18396 0.26565 0.20079 0.0
C746 C 0.01545 0.92839 0.31076 0.0
C747 C 0.02658 0.93238 0.38008 0.0
H748 H 0.98564 0.9259 0.25598 0.0
C749 C 0.01552 0.9347 0.45063 0.0
H750 H 0.02347 0.92637 0.25546 0.0
C751 C 0.99375 0.93443 0.45093 0.0
C752 C 0.98262 0.93183 0.38069 0.0
H753 H 0.02362 0.93766 0.50517 0.0
H754 H 0.9857 0.9372 0.50569 0.0
C755 C 0.99371 0.92812 0.31107 0.0
C756 C 0.32341 0.76245 0.5624 0.0
C757 C 0.32002 0.77361 0.63213 0.0
H758 H 0.32484 0.73259 0.50699 0.0
C759 C 0.31738 0.76249 0.70241 0.0
H760 H 0.32559 0.77051 0.50724 0.0
C761 C 0.31696 0.74072 0.70227 0.0
C762 C 0.31915 0.72957 0.63184 0.0
H763 H 0.31485 0.77058 0.75727 0.0
H764 H 0.31411 0.73267 0.75702 0.0
C765 C 0.32298 0.74067 0.56225 0.0
C766 C 0.49093 0.06706 0.95157 0.0
C767 C 0.47951 0.06904 0.88169 0.0
H768 H 0.521 0.06474 0.00475 0.0
C769 C 0.49033 0.07235 0.81114 0.0
H770 H 0.4831 0.06461 0.00702 0.0
C771 C 0.51207 0.07241 0.80983 0.0
C772 C 0.5235 0.06917 0.87905 0.0
H773 H 0.48203 0.07406 0.75626 0.0
H774 H 0.5199 0.07416 0.75398 0.0
C775 C 0.51269 0.06714 0.95027 0.0
C776 C 0.18457 0.76429 0.89908 0.0
C777 C 0.18266 0.7754 0.96969 0.0
H778 H 0.18655 0.73441 0.84404 0.0
C779 C 0.1789 0.76432 0.03934 0.0
H780 H 0.18735 0.77235 0.8443 0.0
C781 C 0.17843 0.74257 0.03918 0.0
C782 C 0.18172 0.73141 0.96939 0.0
H783 H 0.1772 0.77238 0.09471 0.0
H784 H 0.17639 0.73452 0.09445 0.0
C785 C 0.18411 0.74251 0.89893 0.0
C786 C 0.49509 0.93356 0.15007 0.0
C787 C 0.48428 0.9315 0.22129 0.0
H788 H 0.52468 0.93616 0.09336 0.0
C789 C 0.49571 0.9283 0.29053 0.0
H790 H 0.48677 0.93594 0.09558 0.0
C791 C 0.51745 0.92842 0.28924 0.0
C792 C 0.52827 0.93175 0.2187 0.0
H793 H 0.48789 0.92653 0.34636 0.0
H794 H 0.52575 0.92673 0.34414 0.0
C795 C 0.51685 0.93369 0.14879 0.0
C796 C 0.31784 0.23943 0.39844 0.0
C797 C 0.31981 0.22805 0.46844 0.0
H798 H 0.31541 0.26949 0.345 0.0
C799 C 0.32297 0.23892 0.53896 0.0
H800 H 0.31551 0.23155 0.34301 0.0
C801 C 0.32289 0.26069 0.54011 0.0
C802 C 0.31967 0.27207 0.47075 0.0
H803 H 0.32466 0.23066 0.59393 0.0
H804 H 0.32454 0.26855 0.59592 0.0
C805 C 0.31779 0.26121 0.39958 0.0
C806 C 0.99237 0.07341 0.78461 0.0
C807 C 0.98124 0.06939 0.71527 0.0
H808 H 0.0222 0.07593 0.83948 0.0
C809 C 0.99235 0.06681 0.64496 0.0
H810 H 0.98431 0.07558 0.83976 0.0
C811 C 0.01412 0.06701 0.6448 0.0
C812 C 0.02525 0.06979 0.71494 0.0
H813 H 0.98429 0.06381 0.59039 0.0
H814 H 0.02218 0.06416 0.59011 0.0
C815 C 0.01413 0.07361 0.78445 0.0
C816 C 0.81938 0.74119 0.90354 0.0
C817 C 0.8213 0.73037 0.97481 0.0
H818 H 0.81704 0.77081 0.84671 0.0
C819 C 0.82453 0.74179 0.04405 0.0
H820 H 0.81699 0.73288 0.84905 0.0
C821 C 0.82458 0.76356 0.04269 0.0
C822 C 0.82138 0.77439 0.97209 0.0
H823 H 0.8262 0.73396 0.09993 0.0
H824 H 0.82627 0.77185 0.09758 0.0
C825 C 0.81941 0.76296 0.9022 0.0
C826 C 0.68434 0.23999 0.40208 0.0
C827 C 0.68231 0.22929 0.47357 0.0
H828 H 0.68671 0.26952 0.34456 0.0
C829 C 0.67892 0.24083 0.54242 0.0
H830 H 0.68686 0.23159 0.34787 0.0
C831 C 0.67881 0.26259 0.54051 0.0
C832 C 0.68212 0.27331 0.46972 0.0
H833 H 0.67716 0.23309 0.59845 0.0
H834 H 0.67698 0.27098 0.59513 0.0
C835 C 0.68426 0.26176 0.40018 0.0
C836 C 0.82295 0.25937 0.0617 0.0
C837 C 0.81961 0.27091 0.13059 0.0
H838 H 0.82482 0.22923 0.00893 0.0
C839 C 0.81761 0.26021 0.20209 0.0
H840 H 0.82468 0.26711 0.00567 0.0
C841 C 0.81766 0.23843 0.20396 0.0
C842 C 0.81975 0.2269 0.13438 0.0
H843 H 0.81513 0.2686 0.25633 0.0
H844 H 0.81524 0.23068 0.25959 0.0
C845 C 0.82303 0.23762 0.06358 0.0
C846 C 0.68556 0.73715 0.70455 0.0
C847 C 0.68369 0.72573 0.63462 0.0
H848 H 0.68788 0.76723 0.75779 0.0
C849 C 0.68056 0.73657 0.56398 0.0
H850 H 0.68787 0.7293 0.76007 0.0
C851 C 0.68057 0.75833 0.56266 0.0
C852 C 0.68371 0.76975 0.63196 0.0
H853 H 0.67893 0.72827 0.50905 0.0
H854 H 0.67895 0.76616 0.50677 0.0
C855 C 0.68556 0.75892 0.70325 0.0
C856 C 0.5102 0.42929 0.8162 0.0
C857 C 0.52124 0.4332 0.88583 0.0
H858 H 0.48045 0.42719 0.76045 0.0
C859 C 0.51002 0.43601 0.95576 0.0
H860 H 0.51834 0.42695 0.76132 0.0
C861 C 0.48826 0.43614 0.95526 0.0
C862 C 0.47723 0.43348 0.88481 0.0
H863 H 0.51802 0.43894 0.01053 0.0
H864 H 0.48013 0.43917 0.00967 0.0
C865 C 0.48844 0.42943 0.8157 0.0
C866 C 0.9911 0.56834 0.44946 0.0
C867 C 0.98023 0.57028 0.37833 0.0
H868 H 0.02074 0.56601 0.50594 0.0
C869 C 0.99159 0.57356 0.30898 0.0
H870 H 0.98284 0.56591 0.50403 0.0
C871 C 0.01334 0.57364 0.31009 0.0
C872 C 0.02422 0.57042 0.38055 0.0
H873 H 0.98372 0.57526 0.25321 0.0
H874 H 0.02159 0.57538 0.25512 0.0
C875 C 0.01286 0.56839 0.45056 0.0
C876 C 0.98707 0.43464 0.6481 0.0
C877 C 0.97572 0.43268 0.71815 0.0
H878 H 0.01709 0.43706 0.59453 0.0
C879 C 0.98661 0.42947 0.78861 0.0
H880 H 0.97918 0.43701 0.59272 0.0
C881 C 0.00836 0.42951 0.78965 0.0
C882 C 0.01971 0.43274 0.72026 0.0
H883 H 0.97837 0.42777 0.84361 0.0
H884 H 0.01623 0.42784 0.84543 0.0
C885 C 0.00884 0.43467 0.64914 0.0
C886 C 0.48963 0.57481 0.28823 0.0
C887 C 0.47858 0.57088 0.21865 0.0
H888 H 0.51935 0.5769 0.34393 0.0
C889 C 0.48976 0.56824 0.14853 0.0
H890 H 0.48151 0.57708 0.34321 0.0
C891 C 0.51153 0.56813 0.14895 0.0
C892 C 0.52255 0.57067 0.21948 0.0
H893 H 0.48174 0.56531 0.09381 0.0
H894 H 0.51966 0.56512 0.09453 0.0
C895 C 0.51136 0.57471 0.28864 0.0
C896 C 0.22461 0.13668 0.32323 0.0
C897 C 0.22864 0.14897 0.25681 0.0
H898 H 0.23516 0.12655 0.43602 0.0
C899 C 0.2477 0.15968 0.2521 0.0
H900 H 0.21013 0.12817 0.32863 0.0
C901 C 0.26211 0.15865 0.31334 0.0
C902 C 0.25777 0.14696 0.38103 0.0
H903 H 0.2514 0.16918 0.20154 0.0
H904 H 0.27639 0.1675 0.30845 0.0
C905 C 0.23899 0.13573 0.38476 0.0
C906 C 0.11981 0.97656 0.5771 0.0
C907 C 0.10834 0.98054 0.50863 0.0
H908 H 0.12847 0.98715 0.69155 0.0
C909 C 0.09762 0.99957 0.50209 0.0
H910 H 0.1283 0.96211 0.58396 0.0
C911 C 0.09778 0.01396 0.56353 0.0
C912 C 0.10861 0.00966 0.63319 0.0
H913 H 0.08872 0.00323 0.44997 0.0
H914 H 0.08891 0.0282 0.55716 0.0
C915 C 0.11992 0.99095 0.63876 0.0
C916 C 0.25043 0.84602 0.84594 0.0
C917 C 0.23166 0.8572 0.8401 0.0
H918 H 0.27886 0.83696 0.79035 0.0
C919 C 0.22794 0.86907 0.77236 0.0
H920 H 0.25389 0.83681 0.89749 0.0
C921 C 0.24233 0.86914 0.71071 0.0
C922 C 0.26078 0.85742 0.71559 0.0
H923 H 0.21369 0.87791 0.76605 0.0
H924 H 0.23873 0.87802 0.65847 0.0
C925 C 0.26483 0.84616 0.78453 0.0
C926 C 0.38767 0.98759 0.96428 0.0
C927 C 0.39862 0.00654 0.96868 0.0
H928 H 0.38029 0.95859 0.01991 0.0
C929 C 0.40993 0.01103 0.03707 0.0
H930 H 0.37877 0.98364 0.91248 0.0
C931 C 0.41089 0.99663 0.09838 0.0
C932 C 0.40049 0.97739 0.09301 0.0
H933 H 0.41856 0.02545 0.04249 0.0
H934 H 0.42012 1.00045 0.1495 0.0
C935 C 0.38856 0.9732 0.02585 0.0
C936 C 0.7408 0.86705 0.88762 0.0
C937 C 0.75952 0.85572 0.88399 0.0
H938 H 0.71196 0.87469 0.83145 0.0
C939 C 0.76378 0.84395 0.81646 0.0
H940 H 0.73703 0.87629 0.93875 0.0
C941 C 0.74936 0.84294 0.75528 0.0
C942 C 0.73035 0.85374 0.75988 0.0
H943 H 0.77802 0.83503 0.81165 0.0
H944 H 0.75301 0.83337 0.70485 0.0
C945 C 0.7264 0.86611 0.82614 0.0
C946 C 0.88991 0.98733 0.64369 0.0
C947 C 0.89998 0.0067 0.63666 0.0
H948 H 0.88274 0.95804 0.58989 0.0
C949 C 0.90977 0.01169 0.56547 0.0
H950 H 0.88218 0.98298 0.69767 0.0
C951 C 0.91014 0.99736 0.50384 0.0
C952 C 0.9007 0.9777 0.51178 0.0
H953 H 0.91766 0.02646 0.55797 0.0
H954 H 0.91824 0.00157 0.45046 0.0
C955 C 0.89024 0.973 0.58189 0.0
C956 C 0.76277 0.15627 0.29144 0.0
C957 C 0.75867 0.14455 0.22367 0.0
H958 H 0.75185 0.16651 0.40334 0.0
C959 C 0.74013 0.13292 0.21989 0.0
H960 H 0.77686 0.16543 0.29638 0.0
C961 C 0.72573 0.13353 0.28144 0.0
C962 C 0.7295 0.14586 0.34796 0.0
H963 H 0.73649 0.1237 0.16857 0.0
H964 H 0.71143 0.12473 0.27598 0.0
C965 C 0.74835 0.15696 0.35273 0.0
C966 C 0.62131 0.01221 0.13345 0.0
C967 C 0.60978 0.9936 0.1302 0.0
H968 H 0.62914 0.04098 0.07699 0.0
C969 C 0.59784 0.98945 0.06301 0.0
H970 H 0.63069 0.01589 0.18433 0.0
C971 C 0.59685 0.00389 0.00181 0.0
C972 C 0.60786 0.0228 0.00605 0.0
H973 H 0.58875 0.9753 0.05848 0.0
H974 H 0.58715 1.00034 0.95167 0.0
C975 C 0.6204 0.02663 0.07196 0.0
C976 C 0.77844 0.63355 0.78193 0.0
C977 C 0.77462 0.64611 0.84779 0.0
H978 H 0.76772 0.62325 0.66957 0.0
C979 C 0.75574 0.65716 0.85195 0.0
H980 H 0.79277 0.62478 0.77697 0.0
C981 C 0.74132 0.65618 0.79073 0.0
C982 C 0.74546 0.64422 0.72359 0.0
H983 H 0.7522 0.66688 0.90206 0.0
H984 H 0.7272 0.6653 0.79519 0.0
C985 C 0.76404 0.63265 0.72041 0.0
C986 C 0.61387 0.52815 0.01993 0.0
C987 C 0.60351 0.52356 0.09035 0.0
H988 H 0.62156 0.5181 0.90389 0.0
C989 C 0.59388 0.504 0.09856 0.0
H990 H 0.62151 0.54303 0.01171 0.0
C991 C 0.59395 0.48967 0.03689 0.0
C992 C 0.60363 0.49457 0.9654 0.0
H993 H 0.58585 0.49987 0.15218 0.0
H994 H 0.58591 0.47499 0.04461 0.0
C995 C 0.61391 0.51383 0.95811 0.0
C996 C 0.76204 0.36687 0.38533 0.0
C997 C 0.74337 0.35546 0.38115 0.0
H998 H 0.79084 0.37486 0.32957 0.0
C999 C 0.73915 0.34394 0.31298 0.0
H1000 H 0.76578 0.37594 0.43696 0.0
C1001 C 0.75356 0.34324 0.2517 0.0
C1002 C 0.77253 0.35411 0.25688 0.0
H1003 H 0.72495 0.33496 0.30773 0.0
H1004 H 0.74996 0.33385 0.20077 0.0
C1005 C 0.77644 0.36624 0.3238 0.0
C1006 C 0.88272 0.51305 0.63366 0.0
C1007 C 0.89422 0.49442 0.63027 0.0
H1008 H 0.87487 0.54182 0.57726 0.0
C1009 C 0.9061 0.49026 0.56294 0.0
H1010 H 0.87338 0.51674 0.68464 0.0
C1011 C 0.90705 0.5047 0.50173 0.0
C1012 C 0.89606 0.52361 0.50608 0.0
H1013 H 0.91517 0.4761 0.55832 0.0
H1014 H 0.91671 0.50114 0.45147 0.0
C1015 C 0.88359 0.52746 0.57213 0.0
C1016 C 0.23966 0.34647 0.28604 0.0
C1017 C 0.2438 0.35847 0.21896 0.0
H1018 H 0.25056 0.33567 0.39722 0.0
C1019 C 0.26241 0.36998 0.21573 0.0
H1020 H 0.22551 0.33739 0.29054 0.0
C1021 C 0.27684 0.36901 0.27716 0.0
C1022 C 0.27301 0.35642 0.34295 0.0
H1023 H 0.26609 0.37941 0.16494 0.0
H1024 H 0.29119 0.37775 0.27216 0.0
C1025 C 0.2541 0.34542 0.34716 0.0
C1026 C 0.40567 0.49076 0.03402 0.0
C1027 C 0.39539 0.49548 0.96356 0.0
H1028 H 0.41458 0.50115 0.14821 0.0
C1029 C 0.3849 0.51464 0.95711 0.0
H1030 H 0.4139 0.47616 0.04108 0.0
C1031 C 0.38529 0.52904 0.01872 0.0
C1032 C 0.39623 0.52462 0.08804 0.0
H1033 H 0.37679 0.51878 0.90369 0.0
H1034 H 0.37746 0.54383 0.01116 0.0
C1035 C 0.40611 0.50516 0.09544 0.0
C1036 C 0.24705 0.65906 0.84515 0.0
C1037 C 0.22793 0.64849 0.83906 0.0
H1038 H 0.27575 0.66733 0.78972 0.0
C1039 C 0.22384 0.63685 0.77108 0.0
H1040 H 0.25079 0.66808 0.89689 0.0
C1041 C 0.23822 0.63643 0.70943 0.0
C1042 C 0.25702 0.64757 0.71454 0.0
H1043 H 0.20932 0.62847 0.76458 0.0
H1044 H 0.23434 0.62775 0.657 0.0
C1045 C 0.26143 0.65858 0.78372 0.0
C1046 C 0.09386 0.51286 0.5354 0.0
C1047 C 0.10554 0.50856 0.46771 0.0
H1048 H 0.08336 0.50212 0.64719 0.0
C1049 C 0.11681 0.4898 0.46397 0.0
H1050 H 0.08497 0.52713 0.5403 0.0
C1051 C 0.1159 0.4754 0.5255 0.0
C1052 C 0.10361 0.47939 0.59192 0.0
H1053 H 0.12599 0.486 0.4127 0.0
H1054 H 0.12443 0.46093 0.5201 0.0
C1055 C 0.09287 0.49844 0.59664 0.0
loop_
_geom_bond_atom_site_label_1
_geom_bond_atom_site_label_2
_geom_bond_distance
_geom_bond_site_symmetry_2
_ccdc_geom_bond_type
C0 O1 1.160 . S
C0 O7 1.185 . S
O1 C0 1.160 . S
O2 Zn3 1.899 . S
O2 C10 1.284 . S
Zn3 O2 1.899 . S
Zn3 O4 2.032 1_554 S
Zn3 O7 2.086 . S
Zn3 O12 1.977 . S
O4 Zn3 2.032 1_556 S
O4 C8 1.278 . S
C5 O6 1.203 . S
C5 O12 1.267 . S
O6 C5 1.203 . S
O7 C0 1.185 . S
O7 Zn3 2.086 . S
C8 O4 1.278 . S
C8 O9 1.211 . S
O9 C8 1.211 . S
C10 O2 1.284 . S
C10 O11 1.273 . S
O11 C10 1.273 . S
O12 Zn3 1.977 . S
O12 C5 1.267 . S
C13 O14 1.160 . S
C13 O20 1.185 . S
O14 C13 1.160 . S
O15 Zn16 1.899 . S
O15 C23 1.284 . S
Zn16 O15 1.899 . S
Zn16 O17 2.032 . S
Zn16 O20 2.086 . S
Zn16 O25 1.977 . S
O17 Zn16 2.032 . S
O17 C21 1.278 . S
C18 O19 1.203 . S
C18 O25 1.267 . S
O19 C18 1.203 . S
O20 C13 1.185 . S
O20 Zn16 2.086 . S
C21 O17 1.278 . S
C21 O22 1.211 . S
O22 C21 1.211 . S
C23 O15 1.284 . S
C23 O24 1.273 . S
O24 C23 1.273 . S
O25 Zn16 1.977 . S
O25 C18 1.267 . S
C26 O27 1.160 . S
C26 O33 1.185 . S
O27 C26 1.160 . S
O28 Zn29 1.899 . S
O28 C36 1.284 . S
Zn29 O28 1.899 . S
Zn29 O30 2.032 . S
Zn29 O33 2.086 . S
Zn29 O38 1.977 . S
O30 Zn29 2.032 . S
O30 C34 1.278 . S
C31 O32 1.203 . S
C31 O38 1.267 . S
O32 C31 1.203 . S
O33 C26 1.185 . S
O33 Zn29 2.086 . S
C34 O30 1.278 . S
C34 O35 1.211 . S
O35 C34 1.211 . S
C36 O28 1.284 . S
C36 O37 1.273 . S
O37 C36 1.273 . S
O38 Zn29 1.977 . S
O38 C31 1.267 . S
C39 O40 1.160 . S
C39 O46 1.185 . S
O40 C39 1.160 . S
O41 Zn42 1.899 . S
O41 C49 1.284 . S
Zn42 O41 1.899 . S
Zn42 O43 2.032 . S
Zn42 O46 2.086 . S
Zn42 O51 1.977 . S
O43 Zn42 2.032 . S
O43 C47 1.278 . S
C44 O45 1.203 . S
C44 O51 1.267 . S
O45 C44 1.203 . S
O46 C39 1.185 . S
O46 Zn42 2.086 . S
C47 O43 1.278 . S
C47 O48 1.211 . S
O48 C47 1.211 . S
C49 O41 1.284 . S
C49 O50 1.273 . S
O50 C49 1.273 . S
O51 Zn42 1.977 . S
O51 C44 1.267 . S
C52 O53 1.160 . S
C52 O59 1.185 . S
O53 C52 1.160 . S
O54 Zn55 1.899 1_556 S
O54 C62 1.284 . S
Zn55 O54 1.899 1_554 S
Zn55 O56 2.032 . S
Zn55 O59 2.086 . S
Zn55 O64 1.977 . S
O56 Zn55 2.032 . S
O56 C60 1.278 . S
C57 O58 1.203 . S
C57 O64 1.267 . S
O58 C57 1.203 . S
O59 C52 1.185 . S
O59 Zn55 2.086 . S
C60 O56 1.278 . S
C60 O61 1.211 . S
O61 C60 1.211 . S
C62 O54 1.284 . S
C62 O63 1.273 . S
O63 C62 1.273 . S
O64 Zn55 1.977 . S
O64 C57 1.267 . S
C65 O66 1.160 . S
C65 O72 1.185 . S
O66 C65 1.160 . S
O67 Zn68 1.899 . S
O67 C75 1.284 . S
Zn68 O67 1.899 . S
Zn68 O69 2.032 . S
Zn68 O72 2.086 . S
Zn68 O77 1.977 . S
O69 Zn68 2.032 . S
O69 C73 1.278 . S
C70 O71 1.203 . S
C70 O77 1.267 . S
O71 C70 1.203 . S
O72 C65 1.185 . S
O72 Zn68 2.086 . S
C73 O69 1.278 . S
C73 O74 1.211 . S
O74 C73 1.211 . S
C75 O67 1.284 . S
C75 O76 1.273 . S
O76 C75 1.273 . S
O77 Zn68 1.977 . S
O77 C70 1.267 . S
C78 O79 1.160 . S
C78 O85 1.185 . S
O79 C78 1.160 . S
O80 Zn81 1.899 . S
O80 C88 1.284 . S
Zn81 O80 1.899 . S
Zn81 O82 2.032 . S
Zn81 O85 2.086 . S
Zn81 O90 1.977 . S
O82 Zn81 2.032 . S
O82 C86 1.278 . S
C83 O84 1.203 . S
C83 O90 1.267 . S
O84 C83 1.203 . S
O85 C78 1.185 . S
O85 Zn81 2.086 . S
C86 O82 1.278 . S
C86 O87 1.211 . S
O87 C86 1.211 . S
C88 O80 1.284 . S
C88 O89 1.273 . S
O89 C88 1.273 . S
O90 Zn81 1.977 . S
O90 C83 1.267 . S
C91 O92 1.160 . S
C91 O98 1.185 . S
O92 C91 1.160 . S
O93 Zn94 1.899 . S
O93 C101 1.284 . S
Zn94 O93 1.899 . S
Zn94 O95 2.032 . S
Zn94 O98 2.086 . S
Zn94 O103 1.977 . S
O95 Zn94 2.032 . S
O95 C99 1.278 . S
C96 O97 1.203 . S
C96 O103 1.267 . S
O97 C96 1.203 . S
O98 C91 1.185 . S
O98 Zn94 2.086 . S
C99 O95 1.278 . S
C99 O100 1.211 . S
O100 C99 1.211 . S
C101 O93 1.284 . S
C101 O102 1.273 . S
O102 C101 1.273 . S
O103 Zn94 1.977 . S
O103 C96 1.267 . S
C104 O105 1.160 . S
C104 O111 1.185 . S
O105 C104 1.160 . S
O106 Zn107 1.899 1_556 S
O106 C114 1.284 . S
Zn107 O106 1.899 1_554 S
Zn107 O108 2.032 . S
Zn107 O111 2.086 . S
Zn107 O116 1.977 . S
O108 Zn107 2.032 . S
O108 C112 1.278 . S
C109 O110 1.203 . S
C109 O116 1.267 . S
O110 C109 1.203 . S
O111 C104 1.185 . S
O111 Zn107 2.086 . S
C112 O108 1.278 . S
C112 O113 1.211 . S
O113 C112 1.211 . S
C114 O106 1.284 . S
C114 O115 1.273 . S
O115 C114 1.273 . S
O116 Zn107 1.977 . S
O116 C109 1.267 . S
C117 O118 1.160 . S
C117 O124 1.185 . S
O118 C117 1.160 . S
O119 Zn120 1.899 . S
O119 C127 1.284 . S
Zn120 O119 1.899 . S
Zn120 O121 2.032 . S
Zn120 O124 2.086 . S
Zn120 O129 1.977 . S
O121 Zn120 2.032 . S
O121 C125 1.278 . S
C122 O123 1.203 . S
C122 O129 1.267 . S
O123 C122 1.203 . S
O124 C117 1.185 . S
O124 Zn120 2.086 . S
C125 O121 1.278 . S
C125 O126 1.211 . S
O126 C125 1.211 . S
C127 O119 1.284 . S
C127 O128 1.273 . S
O128 C127 1.273 . S
O129 Zn120 1.977 . S
O129 C122 1.267 . S
C130 O131 1.160 . S
C130 O137 1.185 . S
O131 C130 1.160 . S
O132 Zn133 1.899 . S
O132 C140 1.284 . S
Zn133 O132 1.899 . S
Zn133 O134 2.032 . S
Zn133 O137 2.086 . S
Zn133 O142 1.977 . S
O134 Zn133 2.032 . S
O134 C138 1.278 . S
C135 O136 1.203 . S
C135 O142 1.267 . S
O136 C135 1.203 . S
O137 C130 1.185 . S
O137 Zn133 2.086 . S
C138 O134 1.278 . S
C138 O139 1.211 . S
O139 C138 1.211 . S
C140 O132 1.284 . S
C140 O141 1.273 . S
O141 C140 1.273 . S
O142 Zn133 1.977 . S
O142 C135 1.267 . S
C143 O144 1.160 . S
C143 O150 1.185 . S
O144 C143 1.160 . S
O145 Zn146 1.899 . S
O145 C153 1.284 . S
Zn146 O145 1.899 . S
Zn146 O147 2.032 . S
Zn146 O150 2.086 . S
Zn146 O155 1.977 . S
O147 Zn146 2.032 . S
O147 C151 1.278 . S
C148 O149 1.203 . S
C148 O155 1.267 . S
O149 C148 1.203 . S
O150 C143 1.185 . S
O150 Zn146 2.086 . S
C151 O147 1.278 . S
C151 O152 1.211 . S
O152 C151 1.211 . S
C153 O145 1.284 . S
C153 O154 1.273 . S
O154 C153 1.273 . S
O155 Zn146 1.977 . S
O155 C148 1.267 . S
C156 O157 1.160 . S
C156 O163 1.185 . S
O157 C156 1.160 . S
O158 Zn159 1.899 . S
O158 C166 1.284 . S
Zn159 O158 1.899 . S
Zn159 O160 2.032 1_554 S
Zn159 O163 2.086 . S
Zn159 O168 1.977 . S
O160 Zn159 2.032 1_556 S
O160 C164 1.278 . S
C161 O162 1.203 . S
C161 O168 1.267 . S
O162 C161 1.203 . S
O163 C156 1.185 . S
O163 Zn159 2.086 . S
C164 O160 1.278 . S
C164 O165 1.211 . S
O165 C164 1.211 . S
C166 O158 1.284 . S
C166 O167 1.273 . S
O167 C166 1.273 . S
O168 Zn159 1.977 . S
O168 C161 1.267 . S
C169 O170 1.160 . S
C169 O176 1.185 . S
O170 C169 1.160 . S
O171 Zn172 1.899 . S
O171 C179 1.284 . S
Zn172 O171 1.899 . S
Zn172 O173 2.032 . S
Zn172 O176 2.086 . S
Zn172 O181 1.977 . S
O173 Zn172 2.032 . S
O173 C177 1.278 . S
C174 O175 1.203 . S
C174 O181 1.267 . S
O175 C174 1.203 . S
O176 C169 1.185 . S
O176 Zn172 2.086 . S
C177 O173 1.278 . S
C177 O178 1.211 . S
O178 C177 1.211 . S
C179 O171 1.284 . S
C179 O180 1.273 . S
O180 C179 1.273 . S
O181 Zn172 1.977 . S
O181 C174 1.267 . S
C182 O183 1.160 . S
C182 O189 1.185 . S
O183 C182 1.160 . S
O184 Zn185 1.899 . S
O184 C192 1.284 . S
Zn185 O184 1.899 . S
Zn185 O186 2.032 . S
Zn185 O189 2.086 . S
Zn185 O194 1.977 . S
O186 Zn185 2.032 . S
O186 C190 1.278 . S
C187 O188 1.203 . S
C187 O194 1.267 . S
O188 C187 1.203 . S
O189 C182 1.185 . S
O189 Zn185 2.086 . S
C190 O186 1.278 . S
C190 O191 1.211 . S
O191 C190 1.211 . S
C192 O184 1.284 . S
C192 O193 1.273 . S
O193 C192 1.273 . S
O194 Zn185 1.977 . S
O194 C187 1.267 . S
C195 O196 1.160 . S
C195 O202 1.185 . S
O196 C195 1.160 . S
O197 Zn198 1.899 . S
O197 C205 1.284 . S
Zn198 O197 1.899 . S
Zn198 O199 2.032 . S
Zn198 O202 2.086 . S
Zn198 O207 1.977 . S
O199 Zn198 2.032 . S
O199 C203 1.278 . S
C200 O201 1.203 . S
C200 O207 1.267 . S
O201 C200 1.203 . S
O202 C195 1.185 . S
O202 Zn198 2.086 . S
C203 O199 1.278 . S
C203 O204 1.211 . S
O204 C203 1.211 . S
C205 O197 1.284 . S
C205 O206 1.273 . S
O206 C205 1.273 . S
O207 Zn198 1.977 . S
O207 C200 1.267 . S
C208 O209 1.160 . S
C208 O215 1.185 . S
O209 C208 1.160 . S
O210 Zn211 1.899 . S
O210 C218 1.284 . S
Zn211 O210 1.899 . S
Zn211 O212 2.032 . S
Zn211 O215 2.086 . S
Zn211 O220 1.977 . S
O212 Zn211 2.032 . S
O212 C216 1.278 . S
C213 O214 1.203 . S
C213 O220 1.267 . S
O214 C213 1.203 . S
O215 C208 1.185 . S
O215 Zn211 2.086 . S
C216 O212 1.278 . S
C216 O217 1.211 . S
O217 C216 1.211 . S
C218 O210 1.284 . S
C218 O219 1.273 . S
O219 C218 1.273 . S
O220 Zn211 1.977 . S
O220 C213 1.267 . S
C221 O222 1.160 . S
C221 O228 1.185 . S
O222 C221 1.160 . S
O223 Zn224 1.899 . S
O223 C231 1.284 . S
Zn224 O223 1.899 . S
Zn224 O225 2.032 . S
Zn224 O228 2.086 . S
Zn224 O233 1.977 . S
O225 Zn224 2.032 . S
O225 C229 1.278 . S
C226 O227 1.203 . S
C226 O233 1.267 . S
O227 C226 1.203 . S
O228 C221 1.185 . S
O228 Zn224 2.086 . S
C229 O225 1.278 . S
C229 O230 1.211 . S
O230 C229 1.211 . S
C231 O223 1.284 . S
C231 O232 1.273 . S
O232 C231 1.273 . S
O233 Zn224 1.977 . S
O233 C226 1.267 . S
C234 O235 1.160 . S
C234 O241 1.185 . S
O235 C234 1.160 . S
O236 Zn237 1.899 . S
O236 C244 1.284 . S
Zn237 O236 1.899 . S
Zn237 O238 2.032 1_554 S
Zn237 O241 2.086 . S
Zn237 O246 1.977 . S
O238 Zn237 2.032 1_556 S
O238 C242 1.278 . S
C239 O240 1.203 . S
C239 O246 1.267 . S
O240 C239 1.203 . S
O241 C234 1.185 . S
O241 Zn237 2.086 . S
C242 O238 1.278 . S
C242 O243 1.211 . S
O243 C242 1.211 . S
C244 O236 1.284 . S
C244 O245 1.273 . S
O245 C244 1.273 . S
O246 Zn237 1.977 . S
O246 C239 1.267 . S
C247 O248 1.160 . S
C247 O254 1.185 . S
O248 C247 1.160 . S
O249 Zn250 1.899 . S
O249 C257 1.284 . S
Zn250 O249 1.899 . S
Zn250 O251 2.032 . S
Zn250 O254 2.086 . S
Zn250 O259 1.977 . S
O251 Zn250 2.032 . S
O251 C255 1.278 . S
C252 O253 1.203 . S
C252 O259 1.267 . S
O253 C252 1.203 . S
O254 C247 1.185 . S
O254 Zn250 2.086 . S
C255 O251 1.278 . S
C255 O256 1.211 . S
O256 C255 1.211 . S
C257 O249 1.284 . S
C257 O258 1.273 . S
O258 C257 1.273 . S
O259 Zn250 1.977 . S
O259 C252 1.267 . S
C260 O261 1.160 . S
C260 O267 1.185 . S
O261 C260 1.160 . S
O262 Zn263 1.899 . S
O262 C270 1.284 . S
Zn263 O262 1.899 . S
Zn263 O264 2.032 . S
Zn263 O267 2.086 . S
Zn263 O272 1.977 . S
O264 Zn263 2.032 . S
O264 C268 1.278 . S
C265 O266 1.203 . S
C265 O272 1.267 . S
O266 C265 1.203 . S
O267 C260 1.185 . S
O267 Zn263 2.086 . S
C268 O264 1.278 . S
C268 O269 1.211 . S
O269 C268 1.211 . S
C270 O262 1.284 . S
C270 O271 1.273 . S
O271 C270 1.273 . S
O272 Zn263 1.977 . S
O272 C265 1.267 . S
C273 O274 1.160 . S
C273 O280 1.185 . S
O274 C273 1.160 . S
O275 Zn276 1.899 . S
O275 C283 1.284 . S
Zn276 O275 1.899 . S
Zn276 O277 2.032 . S
Zn276 O280 2.086 . S
Zn276 O285 1.977 . S
O277 Zn276 2.032 . S
O277 C281 1.278 . S
C278 O279 1.203 . S
C278 O285 1.267 . S
O279 C278 1.203 . S
O280 C273 1.185 . S
O280 Zn276 2.086 . S
C281 O277 1.278 . S
C281 O282 1.211 . S
O282 C281 1.211 . S
C283 O275 1.284 . S
C283 O284 1.273 . S
O284 C283 1.273 . S
O285 Zn276 1.977 . S
O285 C278 1.267 . S
C286 O287 1.160 . S
C286 O293 1.185 . S
O287 C286 1.160 . S
O288 Zn289 1.899 1_556 S
O288 C296 1.284 . S
Zn289 O288 1.899 1_554 S
Zn289 O290 2.032 . S
Zn289 O293 2.086 . S
Zn289 O298 1.977 . S
O290 Zn289 2.032 . S
O290 C294 1.278 . S
C291 O292 1.203 . S
C291 O298 1.267 . S
O292 C291 1.203 . S
O293 C286 1.185 . S
O293 Zn289 2.086 . S
C294 O290 1.278 . S
C294 O295 1.211 . S
O295 C294 1.211 . S
C296 O288 1.284 . S
C296 O297 1.273 . S
O297 C296 1.273 . S
O298 Zn289 1.977 . S
O298 C291 1.267 . S
C299 O300 1.160 . S
C299 O306 1.185 . S
O300 C299 1.160 . S
O301 Zn302 1.899 . S
O301 C309 1.284 . S
Zn302 O301 1.899 . S
Zn302 O303 2.032 . S
Zn302 O306 2.086 . S
Zn302 O311 1.977 . S
O303 Zn302 2.032 . S
O303 C307 1.278 . S
C304 O305 1.203 . S
C304 O311 1.267 . S
O305 C304 1.203 . S
O306 C299 1.185 . S
O306 Zn302 2.086 . S
C307 O303 1.278 . S
C307 O308 1.211 . S
O308 C307 1.211 . S
C309 O301 1.284 . S
C309 O310 1.273 . S
O310 C309 1.273 . S
O311 Zn302 1.977 . S
O311 C304 1.267 . S
C312 O313 1.160 . S
C312 O319 1.185 . S
O313 C312 1.160 . S
O314 Zn315 1.899 . S
O314 C322 1.284 . S
Zn315 O314 1.899 . S
Zn315 O316 2.032 . S
Zn315 O319 2.086 . S
Zn315 O324 1.977 . S
O316 Zn315 2.032 . S
O316 C320 1.278 . S
C317 O318 1.203 . S
C317 O324 1.267 . S
O318 C317 1.203 . S
O319 C312 1.185 . S
O319 Zn315 2.086 . S
C320 O316 1.278 . S
C320 O321 1.211 . S
O321 C320 1.211 . S
C322 O314 1.284 . S
C322 O323 1.273 . S
O323 C322 1.273 . S
O324 Zn315 1.977 . S
O324 C317 1.267 . S
C325 O326 1.160 . S
C325 O332 1.185 . S
O326 C325 1.160 . S
O327 Zn328 1.899 . S
O327 C335 1.284 . S
Zn328 O327 1.899 . S
Zn328 O329 2.032 . S
Zn328 O332 2.086 . S
Zn328 O337 1.977 . S
O329 Zn328 2.032 . S
O329 C333 1.278 . S
C330 O331 1.203 . S
C330 O337 1.267 . S
O331 C330 1.203 . S
O332 C325 1.185 . S
O332 Zn328 2.086 . S
C333 O329 1.278 . S
C333 O334 1.211 . S
O334 C333 1.211 . S
C335 O327 1.284 . S
C335 O336 1.273 . S
O336 C335 1.273 . S
O337 Zn328 1.977 . S
O337 C330 1.267 . S
C338 O339 1.160 . S
C338 O345 1.185 . S
O339 C338 1.160 . S
O340 Zn341 1.899 1_556 S
O340 C348 1.284 . S
Zn341 O340 1.899 1_554 S
Zn341 O342 2.032 . S
Zn341 O345 2.086 . S
Zn341 O350 1.977 . S
O342 Zn341 2.032 . S
O342 C346 1.278 . S
C343 O344 1.203 . S
C343 O350 1.267 . S
O344 C343 1.203 . S
O345 C338 1.185 . S
O345 Zn341 2.086 . S
C346 O342 1.278 . S
C346 O347 1.211 . S
O347 C346 1.211 . S
C348 O340 1.284 . S
C348 O349 1.273 . S
O349 C348 1.273 . S
O350 Zn341 1.977 . S
O350 C343 1.267 . S
C351 O352 1.160 . S
C351 O358 1.185 . S
O352 C351 1.160 . S
O353 Zn354 1.899 . S
O353 C361 1.284 . S
Zn354 O353 1.899 . S
Zn354 O355 2.032 . S
Zn354 O358 2.086 . S
Zn354 O363 1.977 . S
O355 Zn354 2.032 . S
O355 C359 1.278 . S
C356 O357 1.203 . S
C356 O363 1.267 . S
O357 C356 1.203 . S
O358 C351 1.185 . S
O358 Zn354 2.086 . S
C359 O355 1.278 . S
C359 O360 1.211 . S
O360 C359 1.211 . S
C361 O353 1.284 . S
C361 O362 1.273 . S
O362 C361 1.273 . S
O363 Zn354 1.977 . S
O363 C356 1.267 . S
C364 O365 1.160 . S
C364 O371 1.185 . S
O365 C364 1.160 . S
O366 Zn367 1.899 . S
O366 C374 1.284 . S
Zn367 O366 1.899 . S
Zn367 O368 2.032 . S
Zn367 O371 2.086 . S
Zn367 O376 1.977 . S
O368 Zn367 2.032 . S
O368 C372 1.278 . S
C369 O370 1.203 . S
C369 O376 1.267 . S
O370 C369 1.203 . S
O371 C364 1.185 . S
O371 Zn367 2.086 . S
C372 O368 1.278 . S
C372 O373 1.211 . S
O373 C372 1.211 . S
C374 O366 1.284 . S
C374 O375 1.273 . S
O375 C374 1.273 . S
O376 Zn367 1.977 . S
O376 C369 1.267 . S
C377 O378 1.160 . S
C377 O384 1.185 . S
O378 C377 1.160 . S
O379 Zn380 1.899 . S
O379 C387 1.284 . S
Zn380 O379 1.899 . S
Zn380 O381 2.032 . S
Zn380 O384 2.086 . S
Zn380 O389 1.977 . S
O381 Zn380 2.032 . S
O381 C385 1.278 . S
C382 O383 1.203 . S
C382 O389 1.267 . S
O383 C382 1.203 . S
O384 C377 1.185 . S
O384 Zn380 2.086 . S
C385 O381 1.278 . S
C385 O386 1.211 . S
O386 C385 1.211 . S
C387 O379 1.284 . S
C387 O388 1.273 . S
O388 C387 1.273 . S
O389 Zn380 1.977 . S
O389 C382 1.267 . S
C390 O391 1.160 . S
C390 O397 1.185 . S
O391 C390 1.160 . S
O392 Zn393 1.899 . S
O392 C400 1.284 . S
Zn393 O392 1.899 . S
Zn393 O394 2.032 1_554 S
Zn393 O397 2.086 . S
Zn393 O402 1.977 . S
O394 Zn393 2.032 1_556 S
O394 C398 1.278 . S
C395 O396 1.203 . S
C395 O402 1.267 . S
O396 C395 1.203 . S
O397 C390 1.185 . S
O397 Zn393 2.086 . S
C398 O394 1.278 . S
C398 O399 1.211 . S
O399 C398 1.211 . S
C400 O392 1.284 . S
C400 O401 1.273 . S
O401 C400 1.273 . S
O402 Zn393 1.977 . S
O402 C395 1.267 . S
C403 O404 1.160 . S
C403 O410 1.185 . S
O404 C403 1.160 . S
O405 Zn406 1.899 . S
O405 C413 1.284 . S
Zn406 O405 1.899 . S
Zn406 O407 2.032 . S
Zn406 O410 2.086 . S
Zn406 O415 1.977 . S
O407 Zn406 2.032 . S
O407 C411 1.278 . S
C408 O409 1.203 . S
C408 O415 1.267 . S
O409 C408 1.203 . S
O410 C403 1.185 . S
O410 Zn406 2.086 . S
C411 O407 1.278 . S
C411 O412 1.211 . S
O412 C411 1.211 . S
C413 O405 1.284 . S
C413 O414 1.273 . S
O414 C413 1.273 . S
O415 Zn406 1.977 . S
O415 C408 1.267 . S
C416 C417 1.387 . S
C416 H420 0.950 . S
C416 C425 1.390 . S
C417 C416 1.387 . S
C417 C419 1.387 . S
H418 C425 0.950 1_554 S
C419 C417 1.387 . S
C419 C421 1.390 . S
C419 H423 0.950 . S
H420 C416 0.950 . S
C421 C419 1.390 . S
C421 C422 1.387 . S
C421 H424 0.950 . S
C422 C421 1.387 . S
C422 C425 1.387 . S
H423 C419 0.950 . S
H424 C421 0.950 . S
C425 C416 1.390 . S
C425 H418 0.950 1_556 S
C425 C422 1.387 . S
C426 C427 1.387 . S
C426 H430 0.950 . S
C426 C435 1.390 . S
C427 C426 1.387 . S
C427 C429 1.387 . S
H428 C435 0.950 . S
C429 C427 1.387 . S
C429 C431 1.390 . S
C429 H433 0.950 . S
H430 C426 0.950 . S
C431 C429 1.390 . S
C431 C432 1.387 . S
C431 H434 0.950 . S
C432 C431 1.387 . S
C432 C435 1.387 . S
H433 C429 0.950 . S
H434 C431 0.950 . S
C435 C426 1.390 . S
C435 H428 0.950 . S
C435 C432 1.387 . S
C436 C437 1.387 . S
C436 H440 0.950 . S
C436 C445 1.390 . S
C437 C436 1.387 . S
C437 C439 1.387 . S
H438 C445 0.950 . S
C439 C437 1.387 . S
C439 C441 1.390 . S
C439 H443 0.950 . S
H440 C436 0.950 . S
C441 C439 1.390 . S
C441 C442 1.387 . S
C441 H444 0.950 . S
C442 C441 1.387 . S
C442 C445 1.387 . S
H443 C439 0.950 . S
H444 C441 0.950 . S
C445 C436 1.390 . S
C445 H438 0.950 . S
C445 C442 1.387 . S
C446 C447 1.387 . S
C446 H450 0.950 . S
C446 C455 1.390 . S
C447 C446 1.387 . S
C447 C449 1.387 . S
H448 C455 0.950 . S
C449 C447 1.387 . S
C449 C451 1.390 . S
C449 H453 0.950 . S
H450 C446 0.950 . S
C451 C449 1.390 . S
C451 C452 1.387 . S
C451 H454 0.950 . S
C452 C451 1.387 . S
C452 C455 1.387 . S
H453 C449 0.950 . S
H454 C451 0.950 . S
C455 C446 1.390 . S
C455 H448 0.950 . S
C455 C452 1.387 . S
C456 C457 1.387 . S
C456 H460 0.950 . S
C456 C465 1.390 . S
C457 C456 1.387 . S
C457 C459 1.387 . S
H458 C465 0.950 . S
C459 C457 1.387 . S
C459 C461 1.390 . S
C459 H463 0.950 . S
H460 C456 0.950 . S
C461 C459 1.390 . S
C461 C462 1.387 . S
C461 H464 0.950 . S
C462 C461 1.387 . S
C462 C465 1.387 . S
H463 C459 0.950 . S
H464 C461 0.950 . S
C465 C456 1.390 . S
C465 H458 0.950 . S
C465 C462 1.387 . S
C466 C467 1.387 . S
C466 H470 0.950 . S
C466 C475 1.390 . S
C467 C466 1.387 . S
C467 C469 1.387 . S
H468 C475 0.950 . S
C469 C467 1.387 . S
C469 C471 1.390 1_556 S
C469 H473 0.950 . S
H470 C466 0.950 . S
C471 C469 1.390 1_554 S
C471 C472 1.387 1_554 S
C471 H474 0.950 . S
C472 C471 1.387 1_556 S
C472 C475 1.387 . S
H473 C469 0.950 . S
H474 C471 0.950 . S
C475 C466 1.390 . S
C475 H468 0.950 . S
C475 C472 1.387 . S
C476 C477 1.387 . S
C476 H480 0.950 . S
C476 C485 1.390 . S
C477 C476 1.387 . S
C477 C479 1.387 . S
H478 C485 0.950 . S
C479 C477 1.387 . S
C479 C481 1.390 . S
C479 H483 0.950 . S
H480 C476 0.950 . S
C481 C479 1.390 . S
C481 C482 1.387 . S
C481 H484 0.950 . S
C482 C481 1.387 . S
C482 C485 1.387 . S
H483 C479 0.950 . S
H484 C481 0.950 . S
C485 C476 1.390 . S
C485 H478 0.950 . S
C485 C482 1.387 . S
C486 C487 1.387 . S
C486 H490 0.950 . S
C486 C495 1.390 . S
C487 C486 1.387 . S
C487 C489 1.387 . S
H488 C495 0.950 . S
C489 C487 1.387 . S
C489 C491 1.390 . S
C489 H493 0.950 . S
H490 C486 0.950 . S
C491 C489 1.390 . S
C491 C492 1.387 . S
C491 H494 0.950 . S
C492 C491 1.387 . S
C492 C495 1.387 . S
H493 C489 0.950 . S
H494 C491 0.950 . S
C495 C486 1.390 . S
C495 H488 0.950 . S
C495 C492 1.387 . S
C496 C497 1.387 . S
C496 H500 0.950 . S
C496 C505 1.390 . S
C497 C496 1.387 . S
C497 C499 1.387 . S
H498 C505 0.950 . S
C499 C497 1.387 . S
C499 C501 1.390 . S
C499 H503 0.950 . S
H500 C496 0.950 . S
C501 C499 1.390 . S
C501 C502 1.387 . S
C501 H504 0.950 . S
C502 C501 1.387 . S
C502 C505 1.387 . S
H503 C499 0.950 . S
H504 C501 0.950 . S
C505 C496 1.390 . S
C505 H498 0.950 . S
C505 C502 1.387 . S
C506 C507 1.387 . S
C506 H510 0.950 . S
C506 C515 1.390 . S
C507 C506 1.387 . S
C507 C509 1.387 . S
H508 C515 0.950 . S
C509 C507 1.387 . S
C509 C511 1.390 . S
C509 H513 0.950 . S
H510 C506 0.950 . S
C511 C509 1.390 . S
C511 C512 1.387 . S
C511 H514 0.950 . S
C512 C511 1.387 . S
C512 C515 1.387 . S
H513 C509 0.950 . S
H514 C511 0.950 . S
C515 C506 1.390 . S
C515 H508 0.950 . S
C515 C512 1.387 . S
C516 C517 1.387 . S
C516 H520 0.950 . S
C516 C525 1.390 . S
C517 C516 1.387 . S
C517 C519 1.387 . S
H518 C525 0.950 . S
C519 C517 1.387 . S
C519 C521 1.390 . S
C519 H523 0.950 . S
H520 C516 0.950 . S
C521 C519 1.390 . S
C521 C522 1.387 . S
C521 H524 0.950 1_556 S
C522 C521 1.387 . S
C522 C525 1.387 . S
H523 C519 0.950 . S
H524 C521 0.950 1_554 S
C525 C516 1.390 . S
C525 H518 0.950 . S
C525 C522 1.387 . S
C526 C527 1.387 . S
C526 H530 0.950 . S
C526 C535 1.390 . S
C527 C526 1.387 . S
C527 C529 1.387 . S
H528 C535 0.950 . S
C529 C527 1.387 . S
C529 C531 1.390 . S
C529 H533 0.950 . S
H530 C526 0.950 . S
C531 C529 1.390 . S
C531 C532 1.387 . S
C531 H534 0.950 . S
C532 C531 1.387 . S
C532 C535 1.387 . S
H533 C529 0.950 . S
H534 C531 0.950 . S
C535 C526 1.390 . S
C535 H528 0.950 . S
C535 C532 1.387 . S
C536 C537 1.387 . S
C536 H540 0.950 . S
C536 C545 1.390 . S
C537 C536 1.387 . S
C537 C539 1.387 . S
H538 C545 0.950 . S
C539 C537 1.387 . S
C539 C541 1.390 . S
C539 H543 0.950 . S
H540 C536 0.950 . S
C541 C539 1.390 . S
C541 C542 1.387 . S
C541 H544 0.950 . S
C542 C541 1.387 . S
C542 C545 1.387 . S
H543 C539 0.950 . S
H544 C541 0.950 . S
C545 C536 1.390 . S
C545 H538 0.950 . S
C545 C542 1.387 . S
C546 C547 1.387 . S
C546 H550 0.950 . S
C546 C555 1.390 . S
C547 C546 1.387 . S
C547 C549 1.387 . S
H548 C555 0.950 . S
C549 C547 1.387 . S
C549 C551 1.390 . S
C549 H553 0.950 . S
H550 C546 0.950 . S
C551 C549 1.390 . S
C551 C552 1.387 . S
C551 H554 0.950 . S
C552 C551 1.387 . S
C552 C555 1.387 . S
H553 C549 0.950 . S
H554 C551 0.950 . S
C555 C546 1.390 . S
C555 H548 0.950 . S
C555 C552 1.387 . S
C556 C557 1.387 . S
C556 H560 0.950 . S
C556 C565 1.390 . S
C557 C556 1.387 . S
C557 C559 1.387 . S
H558 C565 0.950 . S
C559 C557 1.387 . S
C559 C561 1.390 . S
C559 H563 0.950 . S
H560 C556 0.950 . S
C561 C559 1.390 . S
C561 C562 1.387 . S
C561 H564 0.950 . S
C562 C561 1.387 . S
C562 C565 1.387 . S
H563 C559 0.950 . S
H564 C561 0.950 . S
C565 C556 1.390 . S
C565 H558 0.950 . S
C565 C562 1.387 . S
C566 C567 1.387 . S
C566 H570 0.950 . S
C566 C575 1.390 . S
C567 C566 1.387 . S
C567 C569 1.387 . S
H568 C575 0.950 . S
C569 C567 1.387 . S
C569 C571 1.390 1_556 S
C569 H573 0.950 . S
H570 C566 0.950 . S
C571 C569 1.390 1_554 S
C571 C572 1.387 1_554 S
C571 H574 0.950 . S
C572 C571 1.387 1_556 S
C572 C575 1.387 . S
H573 C569 0.950 . S
H574 C571 0.950 . S
C575 C566 1.390 . S
C575 H568 0.950 . S
C575 C572 1.387 . S
C576 C577 1.387 . S
C576 H580 0.950 . S
C576 C585 1.390 . S
C577 C576 1.387 . S
C577 C579 1.387 . S
H578 C585 0.950 . S
C579 C577 1.387 . S
C579 C581 1.390 . S
C579 H583 0.950 . S
H580 C576 0.950 . S
C581 C579 1.390 . S
C581 C582 1.387 . S
C581 H584 0.950 . S
C582 C581 1.387 . S
C582 C585 1.387 . S
H583 C579 0.950 . S
H584 C581 0.950 . S
C585 C576 1.390 . S
C585 H578 0.950 . S
C585 C582 1.387 . S
C586 C587 1.387 . S
C586 H590 0.950 . S
C586 C595 1.390 1_565 S
C587 C586 1.387 . S
C587 C589 1.387 . S
H588 C595 0.950 1_556 S
C589 C587 1.387 . S
C589 C591 1.390 1_565 S
C589 H593 0.950 . S
H590 C586 0.950 . S
C591 C589 1.390 1_545 S
C591 C592 1.387 1_554 S
C591 H594 0.950 1_554 S
C592 C591 1.387 1_556 S
C592 C595 1.387 1_556 S
H593 C589 0.950 . S
H594 C591 0.950 1_556 S
C595 C586 1.390 1_545 S
C595 H588 0.950 1_554 S
C595 C592 1.387 1_554 S
C596 C597 1.387 . S
C596 H600 0.950 . S
C596 C605 1.390 . S
C597 C596 1.387 . S
C597 C599 1.387 . S
H598 C605 0.950 . S
C599 C597 1.387 . S
C599 C601 1.390 . S
C599 H603 0.950 . S
H600 C596 0.950 . S
C601 C599 1.390 . S
C601 C602 1.387 . S
C601 H604 0.950 . S
C602 C601 1.387 . S
C602 C605 1.387 . S
H603 C599 0.950 . S
H604 C601 0.950 . S
C605 C596 1.390 . S
C605 H598 0.950 . S
C605 C602 1.387 . S
C606 C607 1.387 . S
C606 H610 0.950 . S
C606 C615 1.390 1_545 S
C607 C606 1.387 . S
C607 C609 1.387 . S
H608 C615 0.950 . S
C609 C607 1.387 . S
C609 C611 1.390 1_545 S
C609 H613 0.950 . S
H610 C606 0.950 . S
C611 C609 1.390 1_565 S
C611 C612 1.387 . S
C611 H614 0.950 . S
C612 C611 1.387 . S
C612 C615 1.387 . S
H613 C609 0.950 . S
H614 C611 0.950 . S
C615 C606 1.390 1_565 S
C615 H608 0.950 . S
C615 C612 1.387 . S
C616 C617 1.387 . S
C616 H620 0.950 . S
C616 C625 1.390 . S
C617 C616 1.387 . S
C617 C619 1.387 . S
H618 C625 0.950 . S
C619 C617 1.387 . S
C619 C621 1.390 . S
C619 H623 0.950 . S
H620 C616 0.950 . S
C621 C619 1.390 . S
C621 C622 1.387 . S
C621 H624 0.950 . S
C622 C621 1.387 . S
C622 C625 1.387 . S
H623 C619 0.950 . S
H624 C621 0.950 . S
C625 C616 1.390 . S
C625 H618 0.950 . S
C625 C622 1.387 . S
C626 C627 1.387 1_554 S
C626 H630 0.950 1_554 S
C626 C635 1.390 1_545 S
C627 C626 1.387 1_556 S
C627 C629 1.387 1_556 S
H628 C635 0.950 . S
C629 C627 1.387 1_554 S
C629 C631 1.390 1_545 S
C629 H633 0.950 1_554 S
H630 C626 0.950 1_556 S
C631 C629 1.390 1_565 S
C631 C632 1.387 . S
C631 H634 0.950 . S
C632 C631 1.387 . S
C632 C635 1.387 . S
H633 C629 0.950 1_556 S
H634 C631 0.950 . S
C635 C626 1.390 1_565 S
C635 H628 0.950 . S
C635 C632 1.387 . S
C636 C637 1.387 . S
C636 H640 0.950 . S
C636 C645 1.390 . S
C637 C636 1.387 . S
C637 C639 1.387 . S
H638 C645 0.950 . S
C639 C637 1.387 . S
C639 C641 1.390 . S
C639 H643 0.950 . S
H640 C636 0.950 . S
C641 C639 1.390 . S
C641 C642 1.387 . S
C641 H644 0.950 . S
C642 C641 1.387 . S
C642 C645 1.387 . S
H643 C639 0.950 . S
H644 C641 0.950 . S
C645 C636 1.390 . S
C645 H638 0.950 . S
C645 C642 1.387 . S
C646 C647 1.387 . S
C646 H650 0.950 . S
C646 C655 1.390 1_545 S
C647 C646 1.387 . S
C647 C649 1.387 . S
H648 C655 0.950 . S
C649 C647 1.387 . S
C649 C651 1.390 1_545 S
C649 H653 0.950 . S
H650 C646 0.950 . S
C651 C649 1.390 1_565 S
C651 C652 1.387 . S
C651 H654 0.950 . S
C652 C651 1.387 . S
C652 C655 1.387 . S
H653 C649 0.950 . S
H654 C651 0.950 . S
C655 C646 1.390 1_565 S
C655 H648 0.950 . S
C655 C652 1.387 . S
C656 C657 1.387 . S
C656 H660 0.950 . S
C656 C665 1.390 . S
C657 C656 1.387 . S
C657 C659 1.387 . S
H658 C665 0.950 . S
C659 C657 1.387 . S
C659 C661 1.390 . S
C659 H663 0.950 . S
H660 C656 0.950 . S
C661 C659 1.390 . S
C661 C662 1.387 . S
C661 H664 0.950 . S
C662 C661 1.387 . S
C662 C665 1.387 . S
H663 C659 0.950 . S
H664 C661 0.950 . S
C665 C656 1.390 . S
C665 H658 0.950 . S
C665 C662 1.387 . S
C666 C667 1.387 . S
C666 H670 0.950 . S
C666 C675 1.390 . S
C667 C666 1.387 . S
C667 C669 1.387 . S
H668 C675 0.950 . S
C669 C667 1.387 . S
C669 C671 1.390 . S
C669 H673 0.950 . S
H670 C666 0.950 . S
C671 C669 1.390 . S
C671 C672 1.387 . S
C671 H674 0.950 . S
C672 C671 1.387 . S
C672 C675 1.387 . S
H673 C669 0.950 . S
H674 C671 0.950 . S
C675 C666 1.390 . S
C675 H668 0.950 . S
C675 C672 1.387 . S
C676 C677 1.387 . S
C676 H680 0.950 . S
C676 C685 1.390 . S
C677 C676 1.387 . S
C677 C679 1.387 . S
H678 C685 0.950 . S
C679 C677 1.387 . S
C679 C681 1.390 . S
C679 H683 0.950 . S
H680 C676 0.950 . S
C681 C679 1.390 . S
C681 C682 1.387 . S
C681 H684 0.950 . S
C682 C681 1.387 . S
C682 C685 1.387 . S
H683 C679 0.950 . S
H684 C681 0.950 . S
C685 C676 1.390 . S
C685 H678 0.950 . S
C685 C682 1.387 . S
C686 C687 1.387 . S
C686 H690 0.950 . S
C686 C695 1.390 . S
C687 C686 1.387 . S
C687 C689 1.387 . S
H688 C695 0.950 1_556 S
C689 C687 1.387 . S
C689 C691 1.390 . S
C689 H693 0.950 . S
H690 C686 0.950 . S
C691 C689 1.390 . S
C691 C692 1.387 1_554 S
C691 H694 0.950 1_554 S
C692 C691 1.387 1_556 S
C692 C695 1.387 1_556 S
H693 C689 0.950 . S
H694 C691 0.950 1_556 S
C695 C686 1.390 . S
C695 H688 0.950 1_554 S
C695 C692 1.387 1_554 S
C696 C697 1.387 . S
C696 H700 0.950 . S
C696 C705 1.390 . S
C697 C696 1.387 . S
C697 C699 1.387 . S
H698 C705 0.950 . S
C699 C697 1.387 . S
C699 C701 1.390 . S
C699 H703 0.950 . S
H700 C696 0.950 . S
C701 C699 1.390 . S
C701 C702 1.387 . S
C701 H704 0.950 . S
C702 C701 1.387 . S
C702 C705 1.387 . S
H703 C699 0.950 . S
H704 C701 0.950 . S
C705 C696 1.390 . S
C705 H698 0.950 . S
C705 C702 1.387 . S
C706 C707 1.387 . S
C706 H710 0.950 . S
C706 C715 1.390 . S
C707 C706 1.387 . S
C707 C709 1.387 . S
H708 C715 0.950 . S
C709 C707 1.387 . S
C709 C711 1.390 . S
C709 H713 0.950 . S
H710 C706 0.950 . S
C711 C709 1.390 . S
C711 C712 1.387 . S
C711 H714 0.950 . S
C712 C711 1.387 . S
C712 C715 1.387 . S
H713 C709 0.950 . S
H714 C711 0.950 . S
C715 C706 1.390 . S
C715 H708 0.950 . S
C715 C712 1.387 . S
C716 C717 1.387 . S
C716 H720 0.950 . S
C716 C725 1.390 . S
C717 C716 1.387 . S
C717 C719 1.387 . S
H718 C725 0.950 . S
C719 C717 1.387 . S
C719 C721 1.390 . S
C719 H723 0.950 . S
H720 C716 0.950 . S
C721 C719 1.390 . S
C721 C722 1.387 . S
C721 H724 0.950 . S
C722 C721 1.387 . S
C722 C725 1.387 . S
H723 C719 0.950 . S
H724 C721 0.950 . S
C725 C716 1.390 . S
C725 H718 0.950 . S
C725 C722 1.387 . S
C726 C727 1.387 . S
C726 H730 0.950 . S
C726 C735 1.390 . S
C727 C726 1.387 . S
C727 C729 1.387 . S
H728 C735 0.950 1_556 S
C729 C727 1.387 . S
C729 C731 1.390 . S
C729 H733 0.950 . S
H730 C726 0.950 . S
C731 C729 1.390 . S
C731 C732 1.387 1_554 S
C731 H734 0.950 1_554 S
C732 C731 1.387 1_556 S
C732 C735 1.387 1_556 S
H733 C729 0.950 . S
H734 C731 0.950 1_556 S
C735 C726 1.390 . S
C735 H728 0.950 1_554 S
C735 C732 1.387 1_554 S
C736 C737 1.387 . S
C736 H740 0.950 . S
C736 C745 1.390 . S
C737 C736 1.387 . S
C737 C739 1.387 1_554 S
H738 C745 0.950 . S
C739 C737 1.387 1_556 S
C739 C741 1.390 . S
C739 H743 0.950 . S
H740 C736 0.950 . S
C741 C739 1.390 . S
C741 C742 1.387 1_556 S
C741 H744 0.950 . S
C742 C741 1.387 1_554 S
C742 C745 1.387 . S
H743 C739 0.950 . S
H744 C741 0.950 . S
C745 C736 1.390 . S
C745 H738 0.950 . S
C745 C742 1.387 . S
C746 C747 1.387 . S
C746 H750 0.950 . S
C746 C755 1.390 1_455 S
C747 C746 1.387 . S
C747 C749 1.387 . S
H748 C755 0.950 . S
C749 C747 1.387 . S
C749 C751 1.390 1_455 S
C749 H753 0.950 . S
H750 C746 0.950 . S
C751 C749 1.390 1_655 S
C751 C752 1.387 . S
C751 H754 0.950 . S
C752 C751 1.387 . S
C752 C755 1.387 . S
H753 C749 0.950 . S
H754 C751 0.950 . S
C755 C746 1.390 1_655 S
C755 H748 0.950 . S
C755 C752 1.387 . S
C756 C757 1.387 . S
C756 H760 0.950 . S
C756 C765 1.390 . S
C757 C756 1.387 . S
C757 C759 1.387 . S
H758 C765 0.950 . S
C759 C757 1.387 . S
C759 C761 1.390 . S
C759 H763 0.950 . S
H760 C756 0.950 . S
C761 C759 1.390 . S
C761 C762 1.387 . S
C761 H764 0.950 . S
C762 C761 1.387 . S
C762 C765 1.387 . S
H763 C759 0.950 . S
H764 C761 0.950 . S
C765 C756 1.390 . S
C765 H758 0.950 . S
C765 C762 1.387 . S
C766 C767 1.387 . S
C766 H770 0.950 . S
C766 C775 1.390 . S
C767 C766 1.387 . S
C767 C769 1.387 . S
H768 C775 0.950 . S
C769 C767 1.387 . S
C769 C771 1.390 . S
C769 H773 0.950 . S
H770 C766 0.950 . S
C771 C769 1.390 . S
C771 C772 1.387 . S
C771 H774 0.950 . S
C772 C771 1.387 . S
C772 C775 1.387 . S
H773 C769 0.950 . S
H774 C771 0.950 . S
C775 C766 1.390 . S
C775 H768 0.950 . S
C775 C772 1.387 . S
C776 C777 1.387 1_556 S
C776 H780 0.950 . S
C776 C785 1.390 . S
C777 C776 1.387 1_554 S
C777 C779 1.387 . S
H778 C785 0.950 . S
C779 C777 1.387 . S
C779 C781 1.390 . S
C779 H783 0.950 . S
H780 C776 0.950 . S
C781 C779 1.390 . S
C781 C782 1.387 . S
C781 H784 0.950 . S
C782 C781 1.387 . S
C782 C785 1.387 1_554 S
H783 C779 0.950 . S
H784 C781 0.950 . S
C785 C776 1.390 . S
C785 H778 0.950 . S
C785 C782 1.387 1_556 S
C786 C787 1.387 . S
C786 H790 0.950 . S
C786 C795 1.390 . S
C787 C786 1.387 . S
C787 C789 1.387 . S
H788 C795 0.950 . S
C789 C787 1.387 . S
C789 C791 1.390 . S
C789 H793 0.950 . S
H790 C786 0.950 . S
C791 C789 1.390 . S
C791 C792 1.387 . S
C791 H794 0.950 . S
C792 C791 1.387 . S
C792 C795 1.387 . S
H793 C789 0.950 . S
H794 C791 0.950 . S
C795 C786 1.390 . S
C795 H788 0.950 . S
C795 C792 1.387 . S
C796 C797 1.387 . S
C796 H800 0.950 . S
C796 C805 1.390 . S
C797 C796 1.387 . S
C797 C799 1.387 . S
H798 C805 0.950 . S
C799 C797 1.387 . S
C799 C801 1.390 . S
C799 H803 0.950 . S
H800 C796 0.950 . S
C801 C799 1.390 . S
C801 C802 1.387 . S
C801 H804 0.950 . S
C802 C801 1.387 . S
C802 C805 1.387 . S
H803 C799 0.950 . S
H804 C801 0.950 . S
C805 C796 1.390 . S
C805 H798 0.950 . S
C805 C802 1.387 . S
C806 C807 1.387 . S
C806 H810 0.950 . S
C806 C815 1.390 1_655 S
C807 C806 1.387 . S
C807 C809 1.387 . S
H808 C815 0.950 . S
C809 C807 1.387 . S
C809 C811 1.390 1_655 S
C809 H813 0.950 . S
H810 C806 0.950 . S
C811 C809 1.390 1_455 S
C811 C812 1.387 . S
C811 H814 0.950 . S
C812 C811 1.387 . S
C812 C815 1.387 . S
H813 C809 0.950 . S
H814 C811 0.950 . S
C815 C806 1.390 1_455 S
C815 H808 0.950 . S
C815 C812 1.387 . S
C816 C817 1.387 1_556 S
C816 H820 0.950 . S
C816 C825 1.390 . S
C817 C816 1.387 1_554 S
C817 C819 1.387 . S
H818 C825 0.950 . S
C819 C817 1.387 . S
C819 C821 1.390 . S
C819 H823 0.950 . S
H820 C816 0.950 . S
C821 C819 1.390 . S
C821 C822 1.387 . S
C821 H824 0.950 . S
C822 C821 1.387 . S
C822 C825 1.387 1_554 S
H823 C819 0.950 . S
H824 C821 0.950 . S
C825 C816 1.390 . S
C825 H818 0.950 . S
C825 C822 1.387 1_556 S
C826 C827 1.387 . S
C826 H830 0.950 . S
C826 C835 1.390 . S
C827 C826 1.387 . S
C827 C829 1.387 . S
H828 C835 0.950 . S
C829 C827 1.387 . S
C829 C831 1.390 . S
C829 H833 0.950 . S
H830 C826 0.950 . S
C831 C829 1.390 . S
C831 C832 1.387 . S
C831 H834 0.950 . S
C832 C831 1.387 . S
C832 C835 1.387 . S
H833 C829 0.950 . S
H834 C831 0.950 . S
C835 C826 1.390 . S
C835 H828 0.950 . S
C835 C832 1.387 . S
C836 C837 1.387 1_556 S
C836 H840 0.950 . S
C836 C845 1.390 . S
C837 C836 1.387 1_554 S
C837 C839 1.387 . S
H838 C845 0.950 . S
C839 C837 1.387 . S
C839 C841 1.390 . S
C839 H843 0.950 . S
H840 C836 0.950 . S
C841 C839 1.390 . S
C841 C842 1.387 . S
C841 H844 0.950 . S
C842 C841 1.387 . S
C842 C845 1.387 1_554 S
H843 C839 0.950 . S
H844 C841 0.950 . S
C845 C836 1.390 . S
C845 H838 0.950 . S
C845 C842 1.387 1_556 S
C846 C847 1.387 . S
C846 H850 0.950 . S
C846 C855 1.390 . S
C847 C846 1.387 . S
C847 C849 1.387 . S
H848 C855 0.950 . S
C849 C847 1.387 . S
C849 C851 1.390 . S
C849 H853 0.950 . S
H850 C846 0.950 . S
C851 C849 1.390 . S
C851 C852 1.387 . S
C851 H854 0.950 . S
C852 C851 1.387 . S
C852 C855 1.387 . S
H853 C849 0.950 . S
H854 C851 0.950 . S
C855 C846 1.390 . S
C855 H848 0.950 . S
C855 C852 1.387 . S
C856 C857 1.387 . S
C856 H860 0.950 . S
C856 C865 1.390 . S
C857 C856 1.387 . S
C857 C859 1.387 . S
H858 C865 0.950 . S
C859 C857 1.387 . S
C859 C861 1.390 . S
C859 H863 0.950 . S
H860 C856 0.950 . S
C861 C859 1.390 . S
C861 C862 1.387 . S
C861 H864 0.950 . S
C862 C861 1.387 . S
C862 C865 1.387 . S
H863 C859 0.950 . S
H864 C861 0.950 . S
C865 C856 1.390 . S
C865 H858 0.950 . S
C865 C862 1.387 . S
C866 C867 1.387 . S
C866 H870 0.950 . S
C866 C875 1.390 1_655 S
C867 C866 1.387 . S
C867 C869 1.387 . S
H868 C875 0.950 . S
C869 C867 1.387 . S
C869 C871 1.390 1_655 S
C869 H873 0.950 . S
H870 C866 0.950 . S
C871 C869 1.390 1_455 S
C871 C872 1.387 . S
C871 H874 0.950 . S
C872 C871 1.387 . S
C872 C875 1.387 . S
H873 C869 0.950 . S
H874 C871 0.950 . S
C875 C866 1.390 1_455 S
C875 H868 0.950 . S
C875 C872 1.387 . S
C876 C877 1.387 . S
C876 H880 0.950 . S
C876 C885 1.390 1_655 S
C877 C876 1.387 . S
C877 C879 1.387 . S
H878 C885 0.950 . S
C879 C877 1.387 . S
C879 C881 1.390 1_655 S
C879 H883 0.950 . S
H880 C876 0.950 . S
C881 C879 1.390 1_455 S
C881 C882 1.387 . S
C881 H884 0.950 . S
C882 C881 1.387 . S
C882 C885 1.387 . S
H883 C879 0.950 . S
H884 C881 0.950 . S
C885 C876 1.390 1_455 S
C885 H878 0.950 . S
C885 C882 1.387 . S
C886 C887 1.387 . S
C886 H890 0.950 . S
C886 C895 1.390 . S
C887 C886 1.387 . S
C887 C889 1.387 . S
H888 C895 0.950 . S
C889 C887 1.387 . S
C889 C891 1.390 . S
C889 H893 0.950 . S
H890 C886 0.950 . S
C891 C889 1.390 . S
C891 C892 1.387 . S
C891 H894 0.950 . S
C892 C891 1.387 . S
C892 C895 1.387 . S
H893 C889 0.950 . S
H894 C891 0.950 . S
C895 C886 1.390 . S
C895 H888 0.950 . S
C895 C892 1.387 . S
C896 C897 1.387 . S
C896 H900 0.950 . S
C896 C905 1.390 . S
C897 C896 1.387 . S
C897 C899 1.387 . S
H898 C905 0.950 . S
C899 C897 1.387 . S
C899 C901 1.390 . S
C899 H903 0.950 . S
H900 C896 0.950 . S
C901 C899 1.390 . S
C901 C902 1.387 . S
C901 H904 0.950 . S
C902 C901 1.387 . S
C902 C905 1.387 . S
H903 C899 0.950 . S
H904 C901 0.950 . S
C905 C896 1.390 . S
C905 H898 0.950 . S
C905 C902 1.387 . S
C906 C907 1.387 . S
C906 H910 0.950 . S
C906 C915 1.390 1_565 S
C907 C906 1.387 . S
C907 C909 1.387 . S
H908 C915 0.950 . S
C909 C907 1.387 . S
C909 C911 1.390 1_565 S
C909 H913 0.950 . S
H910 C906 0.950 . S
C911 C909 1.390 1_545 S
C911 C912 1.387 . S
C911 H914 0.950 . S
C912 C911 1.387 . S
C912 C915 1.387 . S
H913 C909 0.950 . S
H914 C911 0.950 . S
C915 C906 1.390 1_545 S
C915 H908 0.950 . S
C915 C912 1.387 . S
C916 C917 1.387 . S
C916 H920 0.950 . S
C916 C925 1.390 . S
C917 C916 1.387 . S
C917 C919 1.387 . S
H918 C925 0.950 . S
C919 C917 1.387 . S
C919 C921 1.390 . S
C919 H923 0.950 . S
H920 C916 0.950 . S
C921 C919 1.390 . S
C921 C922 1.387 . S
C921 H924 0.950 . S
C922 C921 1.387 . S
C922 C925 1.387 . S
H923 C919 0.950 . S
H924 C921 0.950 . S
C925 C916 1.390 . S
C925 H918 0.950 . S
C925 C922 1.387 . S
C926 C927 1.387 1_554 S
C926 H930 0.949 1_554 S
C926 C935 1.390 1_545 S
C927 C926 1.387 1_556 S
C927 C929 1.387 1_556 S
H928 C935 0.950 . S
C929 C927 1.387 1_554 S
C929 C931 1.390 1_545 S
C929 H933 0.950 1_554 S
H930 C926 0.949 1_556 S
C931 C929 1.390 1_565 S
C931 C932 1.387 . S
C931 H934 0.950 . S
C932 C931 1.387 . S
C932 C935 1.387 . S
H933 C929 0.950 1_556 S
H934 C931 0.950 . S
C935 C926 1.390 1_565 S
C935 H928 0.950 . S
C935 C932 1.387 . S
C936 C937 1.387 . S
C936 H940 0.950 . S
C936 C945 1.390 . S
C937 C936 1.387 . S
C937 C939 1.387 . S
H938 C945 0.950 . S
C939 C937 1.387 . S
C939 C941 1.390 . S
C939 H943 0.950 . S
H940 C936 0.950 . S
C941 C939 1.390 . S
C941 C942 1.387 . S
C941 H944 0.950 . S
C942 C941 1.387 . S
C942 C945 1.387 . S
H943 C939 0.950 . S
H944 C941 0.950 . S
C945 C936 1.390 . S
C945 H938 0.950 . S
C945 C942 1.387 . S
C946 C947 1.387 . S
C946 H950 0.950 . S
C946 C955 1.390 1_545 S
C947 C946 1.387 . S
C947 C949 1.387 . S
H948 C955 0.950 . S
C949 C947 1.387 . S
C949 C951 1.390 1_545 S
C949 H953 0.950 . S
H950 C946 0.950 . S
C951 C949 1.390 1_565 S
C951 C952 1.387 . S
C951 H954 0.950 . S
C952 C951 1.387 . S
C952 C955 1.387 . S
H953 C949 0.950 . S
H954 C951 0.950 . S
C955 C946 1.390 1_565 S
C955 H948 0.950 . S
C955 C952 1.387 . S
C956 C957 1.387 . S
C956 H960 0.950 . S
C956 C965 1.390 . S
C957 C956 1.387 . S
C957 C959 1.387 . S
H958 C965 0.950 . S
C959 C957 1.387 . S
C959 C961 1.390 . S
C959 H963 0.950 . S
H960 C956 0.950 . S
C961 C959 1.390 . S
C961 C962 1.387 . S
C961 H964 0.950 . S
C962 C961 1.387 . S
C962 C965 1.387 . S
H963 C959 0.950 . S
H964 C961 0.950 . S
C965 C956 1.390 . S
C965 H958 0.950 . S
C965 C962 1.387 . S
C966 C967 1.387 . S
C966 H970 0.950 . S
C966 C975 1.390 1_565 S
C967 C966 1.387 . S
C967 C969 1.387 . S
H968 C975 0.950 1_556 S
C969 C967 1.387 . S
C969 C971 1.390 1_565 S
C969 H973 0.950 . S
H970 C966 0.950 . S
C971 C969 1.390 1_545 S
C971 C972 1.387 1_554 S
C971 H974 0.950 1_554 S
C972 C971 1.387 1_556 S
C972 C975 1.387 1_556 S
H973 C969 0.950 . S
H974 C971 0.950 1_556 S
C975 C966 1.390 1_545 S
C975 H968 0.950 1_554 S
C975 C972 1.387 1_554 S
C976 C977 1.387 . S
C976 H980 0.950 . S
C976 C985 1.390 . S
C977 C976 1.387 . S
C977 C979 1.387 . S
H978 C985 0.950 . S
C979 C977 1.387 . S
C979 C981 1.390 . S
C979 H983 0.950 . S
H980 C976 0.950 . S
C981 C979 1.390 . S
C981 C982 1.387 . S
C981 H984 0.950 . S
C982 C981 1.387 . S
C982 C985 1.387 . S
H983 C979 0.950 . S
H984 C981 0.950 . S
C985 C976 1.390 . S
C985 H978 0.950 . S
C985 C982 1.387 . S
C986 C987 1.387 . S
C986 H990 0.950 . S
C986 C995 1.390 . S
C987 C986 1.387 . S
C987 C989 1.387 . S
H988 C995 0.950 1_556 S
C989 C987 1.387 . S
C989 C991 1.390 . S
C989 H993 0.950 . S
H990 C986 0.950 . S
C991 C989 1.390 . S
C991 C992 1.387 1_554 S
C991 H994 0.950 1_554 S
C992 C991 1.387 1_556 S
C992 C995 1.387 1_556 S
H993 C989 0.950 . S
H994 C991 0.950 1_556 S
C995 C986 1.390 . S
C995 H988 0.950 1_554 S
C995 C992 1.387 1_554 S
C996 C997 1.387 . S
C996 H1000 0.950 . S
C996 C1005 1.390 . S
C997 C996 1.387 . S
C997 C999 1.387 . S
H998 C1005 0.950 . S
C999 C997 1.387 . S
C999 C1001 1.390 . S
C999 H1003 0.950 . S
H1000 C996 0.950 . S
C1001 C999 1.390 . S
C1001 C1002 1.387 . S
C1001 H1004 0.950 . S
C1002 C1001 1.387 . S
C1002 C1005 1.387 . S
H1003 C999 0.950 . S
H1004 C1001 0.950 . S
C1005 C996 1.390 . S
C1005 H998 0.950 . S
C1005 C1002 1.387 . S
C1006 C1007 1.387 . S
C1006 H1010 0.950 . S
C1006 C1015 1.390 . S
C1007 C1006 1.387 . S
C1007 C1009 1.387 . S
H1008 C1015 0.950 . S
C1009 C1007 1.387 . S
C1009 C1011 1.390 . S
C1009 H1013 0.950 . S
H1010 C1006 0.950 . S
C1011 C1009 1.390 . S
C1011 C1012 1.387 . S
C1011 H1014 0.950 . S
C1012 C1011 1.387 . S
C1012 C1015 1.387 . S
H1013 C1009 0.950 . S
H1014 C1011 0.950 . S
C1015 C1006 1.390 . S
C1015 H1008 0.950 . S
C1015 C1012 1.387 . S
C1016 C1017 1.387 . S
C1016 H1020 0.950 . S
C1016 C1025 1.390 . S
C1017 C1016 1.387 . S
C1017 C1019 1.387 . S
H1018 C1025 0.950 . S
C1019 C1017 1.387 . S
C1019 C1021 1.390 . S
C1019 H1023 0.950 . S
H1020 C1016 0.950 . S
C1021 C1019 1.390 . S
C1021 C1022 1.387 . S
C1021 H1024 0.950 . S
C1022 C1021 1.387 . S
C1022 C1025 1.387 . S
H1023 C1019 0.950 . S
H1024 C1021 0.950 . S
C1025 C1016 1.390 . S
C1025 H1018 0.950 . S
C1025 C1022 1.387 . S
C1026 C1027 1.387 1_554 S
C1026 H1030 0.950 1_554 S
C1026 C1035 1.390 . S
C1027 C1026 1.387 1_556 S
C1027 C1029 1.387 1_556 S
H1028 C1035 0.950 . S
C1029 C1027 1.387 1_554 S
C1029 C1031 1.390 . S
C1029 H1033 0.950 1_554 S
H1030 C1026 0.950 1_556 S
C1031 C1029 1.390 . S
C1031 C1032 1.387 . S
C1031 H1034 0.950 . S
C1032 C1031 1.387 . S
C1032 C1035 1.387 . S
H1033 C1029 0.950 1_556 S
H1034 C1031 0.950 . S
C1035 C1026 1.390 . S
C1035 H1028 0.950 . S
C1035 C1032 1.387 . S
C1036 C1037 1.387 . S
C1036 H1040 0.950 . S
C1036 C1045 1.390 . S
C1037 C1036 1.387 . S
C1037 C1039 1.387 . S
H1038 C1045 0.950 . S
C1039 C1037 1.387 . S
C1039 C1041 1.390 . S
C1039 H1043 0.950 . S
H1040 C1036 0.950 . S
C1041 C1039 1.390 . S
C1041 C1042 1.387 . S
C1041 H1044 0.950 . S
C1042 C1041 1.387 . S
C1042 C1045 1.387 . S
H1043 C1039 0.950 . S
H1044 C1041 0.950 . S
C1045 C1036 1.390 . S
C1045 H1038 0.950 . S
C1045 C1042 1.387 . S
C1046 C1047 1.387 . S
C1046 H1050 0.950 . S
C1046 C1055 1.390 . S
C1047 C1046 1.387 . S
C1047 C1049 1.387 . S
H1048 C1055 0.950 . S
C1049 C1047 1.387 . S
C1049 C1051 1.390 . S
C1049 H1053 0.950 . S
H1050 C1046 0.950 . S
C1051 C1049 1.390 . S
C1051 C1052 1.387 . S
C1051 H1054 0.950 . S
C1052 C1051 1.387 . S
C1052 C1055 1.387 . S
H1053 C1049 0.950 . S
H1054 C1051 0.950 . S
C1055 C1046 1.390 . S
C1055 H1048 0.950 . S
C1055 C1052 1.387 . S
C417 C91 1.432 . S
C422 C0 1.431 1_556 S
C427 C13 1.431 . S
C432 C52 1.432 . S
C437 C65 1.431 . S
C442 C26 1.432 . S
C447 C39 1.432 . S
C452 C78 1.430 . S
C457 C104 1.432 . S
C462 C195 1.431 . S
C467 C117 1.431 . S
C472 C156 1.430 1_556 S
C477 C130 1.430 . S
C482 C169 1.431 . S
C487 C143 1.432 . S
C492 C182 1.431 . S
C497 C208 1.431 . S
C502 C299 1.432 . S
C507 C221 1.431 . S
C512 C260 1.430 . S
C517 C273 1.431 . S
C522 C234 1.432 1_556 S
C527 C286 1.430 . S
C532 C247 1.431 . S
C537 C312 1.430 . S
C542 C403 1.431 . S
C547 C364 1.431 . S
C552 C325 1.431 . S
C557 C377 1.432 . S
C562 C338 1.431 . S
C567 C351 1.431 . S
C572 C390 1.430 1_556 S
C577 C8 1.087 . S
C582 C86 1.087 . S
C587 C21 1.087 . S
C592 C99 1.087 . S
C597 C60 1.087 . S
C602 C34 1.087 . S
C607 C47 1.087 . S
C612 C73 1.087 . S
C617 C112 1.087 . S
C622 C190 1.087 . S
C627 C125 1.086 . S
C632 C203 1.086 . S
C637 C164 1.087 . S
C642 C138 1.087 . S
C647 C177 1.086 . S
C652 C151 1.086 . S
C657 C216 1.087 . S
C662 C294 1.087 . S
C667 C307 1.087 . S
C672 C229 1.087 . S
C677 C268 1.087 . S
C682 C242 1.087 . S
C687 C255 1.086 . S
C692 C281 1.086 . S
C697 C320 1.087 . S
C702 C398 1.087 . S
C707 C333 1.086 . S
C712 C411 1.086 . S
C717 C372 1.087 . S
C722 C346 1.087 . S
C727 C385 1.086 . S
C732 C359 1.086 . S
C737 C5 1.389 . S
C742 C395 1.386 . S
C747 C18 1.386 . S
C752 C200 1.389 . S
C757 C31 1.386 . S
C762 C369 1.389 . S
C767 C44 1.389 . S
C772 C174 1.387 . S
C777 C57 1.389 . S
C782 C343 1.387 . S
C787 C70 1.388 . S
C792 C148 1.387 . S
C797 C83 1.389 . S
C802 C317 1.387 . S
C807 C122 1.389 . S
C812 C96 1.386 . S
C817 C291 1.389 . S
C822 C109 1.386 . S
C827 C135 1.386 . S
C832 C265 1.389 . S
C837 C239 1.386 . S
C842 C161 1.389 . S
C847 C213 1.389 . S
C852 C187 1.386 . S
C857 C226 1.386 . S
C862 C408 1.389 . S
C867 C252 1.389 . S
C872 C382 1.387 . S
C877 C278 1.388 . S
C882 C356 1.388 . S
C887 C330 1.390 . S
C892 C304 1.386 . S
C897 C10 1.558 . S
C902 C88 1.558 . S
C907 C23 1.558 . S
C912 C101 1.558 . S
C917 C62 1.555 . S
C922 C36 1.555 . S
C927 C49 1.558 . S
C932 C75 1.558 . S
C937 C114 1.555 . S
C942 C192 1.555 . S
C947 C127 1.556 . S
C952 C205 1.555 . S
C957 C166 1.558 . S
C962 C140 1.558 . S
C967 C153 1.556 . S
C972 C179 1.556 . S
C977 C296 1.558 . S
C982 C218 1.558 . S
C987 C309 1.558 . S
C992 C231 1.558 . S
C997 C270 1.558 . S
C1002 C244 1.558 . S
C1007 C283 1.558 . S
C1012 C257 1.558 . S
C1017 C400 1.558 . S
C1022 C322 1.558 . S
C1027 C413 1.558 . S
C1032 C335 1.558 . S
C1037 C348 1.558 . S
C1042 C374 1.558 . S
C1047 C387 1.558 . S
C1052 C361 1.558 . S
