# Generated by pormake.
# Topology umm, (4)-cn, num edge types: 1
# Building blocks:
#     Node 0, Type 0, BuildingBlock: ESEHIV_clean_sbu_0, # of connection points: 4
#     Node 1, Type 0, BuildingBlock: ESEHIV_clean_sbu_0, # of connection points: 4
#     Node 2, Type 0, BuildingBlock: ESEHIV_clean_sbu_0, # of connection points: 4
#     Node 3, Type 0, BuildingBlock: ESEHIV_clean_sbu_0, # of connection points: 4
#     Node 4, Type 0, BuildingBlock: ESEHIV_clean_sbu_0, # of connection points: 4
#     Node 5, Type 0, BuildingBlock: ESEHIV_clean_sbu_0, # of connection points: 4
#     Node 6, Type 0, BuildingBlock: ESEHIV_clean_sbu_0, # of connection points: 4
#     Node 7, Type 0, BuildingBlock: ESEHIV_clean_sbu_0, # of connection points: 4
#     Node 8, Type 0, BuildingBlock: ESEHIV_clean_sbu_0, # of connection points: 4
#     Node 9, Type 0, BuildingBlock: ESEHIV_clean_sbu_0, # of connection points: 4
#     Node 10, Type 0, BuildingBlock: ESEHIV_clean_sbu_0, # of connection points: 4
#     Node 11, Type 0, BuildingBlock: ESEHIV_clean_sbu_0, # of connection points: 4
#     Edge 12, Type (0, 0), BuildingBlock: TEMPAE_clean_linker_10, # of connection points: 2
#     Edge 13, Type (0, 0), BuildingBlock: TEMPAE_clean_linker_10, # of connection points: 2
#     Edge 14, Type (0, 0), BuildingBlock: TEMPAE_clean_linker_10, # of connection points: 2
#     Edge 15, Type (0, 0), BuildingBlock: TEMPAE_clean_linker_10, # of connection points: 2
#     Edge 16, Type (0, 0), BuildingBlock: TEMPAE_clean_linker_10, # of connection points: 2
#     Edge 17, Type (0, 0), BuildingBlock: TEMPAE_clean_linker_10, # of connection points: 2
#     Edge 18, Type (0, 0), BuildingBlock: TEMPAE_clean_linker_10, # of connection points: 2
#     Edge 19, Type (0, 0), BuildingBlock: TEMPAE_clean_linker_10, # of connection points: 2
#     Edge 20, Type (0, 0), BuildingBlock: TEMPAE_clean_linker_10, # of connection points: 2
#     Edge 21, Type (0, 0), BuildingBlock: TEMPAE_clean_linker_10, # of connection points: 2
#     Edge 22, Type (0, 0), BuildingBlock: TEMPAE_clean_linker_10, # of connection points: 2
#     Edge 23, Type (0, 0), BuildingBlock: TEMPAE_clean_linker_10, # of connection points: 2
#     Edge 24, Type (0, 0), BuildingBlock: TEMPAE_clean_linker_10, # of connection points: 2
#     Edge 25, Type (0, 0), BuildingBlock: TEMPAE_clean_linker_10, # of connection points: 2
#     Edge 26, Type (0, 0), BuildingBlock: TEMPAE_clean_linker_10, # of connection points: 2
#     Edge 27, Type (0, 0), BuildingBlock: TEMPAE_clean_linker_10, # of connection points: 2
#     Edge 28, Type (0, 0), BuildingBlock: TEMPAE_clean_linker_10, # of connection points: 2
#     Edge 29, Type (0, 0), BuildingBlock: TEMPAE_clean_linker_10, # of connection points: 2
#     Edge 30, Type (0, 0), BuildingBlock: TEMPAE_clean_linker_10, # of connection points: 2
#     Edge 31, Type (0, 0), BuildingBlock: TEMPAE_clean_linker_10, # of connection points: 2
#     Edge 32, Type (0, 0), BuildingBlock: TEMPAE_clean_linker_10, # of connection points: 2
#     Edge 33, Type (0, 0), BuildingBlock: TEMPAE_clean_linker_10, # of connection points: 2
#     Edge 34, Type (0, 0), BuildingBlock: TEMPAE_clean_linker_10, # of connection points: 2
#     Edge 35, Type (0, 0), BuildingBlock: TEMPAE_clean_linker_10, # of connection points: 2
# Relax obj value: 0.042
# Max RMSD: 0.104
# Mean RMSD: 0.104
data_MOF--net-umm--node1-ESEHIV_clean_sbu_0--edge1-TEMPAE_clean_linker_10
_symmetry_space_group_name_H-M    P1
_symmetry_Int_Tables_number       1
_symmetry_cell_setting            triclinic
loop_
_symmetry_equiv_pos_as_xyz
'x, y, z'
_cell_length_a     66.999683
_cell_length_b     67.162499
_cell_length_c     28.98002
_cell_angle_alpha  89.929145
_cell_angle_beta   89.948152
_cell_angle_gamma 120.09478
loop_
_atom_site_label
_atom_site_type_symbol
_atom_site_fract_x
_atom_site_fract_y
_atom_site_fract_z
_atom_type_partial_charge
Cu0 Cu 0.4155 0.56658 0.09978 0.0
N1 N 0.42375 0.54388 0.10895 0.0
N2 N 0.44728 0.52902 0.11193 0.0
C3 C 0.4429 0.54466 0.0918 0.0
C4 C 0.42988 0.51778 0.14253 0.0
C5 C 0.41557 0.52704 0.14082 0.0
O6 O 0.42633 0.58683 0.15382 0.0
C7 C 0.43006 0.59844 1.02212 0.0
O8 O 0.42618 0.61232 0.04755 0.0
H9 H 0.45409 0.55744 0.06694 0.0
H10 H 0.4012 0.5229 0.16357 0.0
N11 N 0.38342 0.55451 0.09551 0.0
N12 N 0.34974 0.55324 0.08254 0.0
C13 C 0.37302 0.56633 0.0819 0.0
C14 C 0.36611 0.53314 0.10502 0.0
C15 C 0.34536 0.53232 0.0972 0.0
C16 C 0.44457 0.59094 0.17547 0.0
O17 O 0.45849 0.58477 0.15668 0.0
H18 H 0.38238 0.58432 0.07238 0.0
H19 H 0.36835 0.51909 0.11663 0.0
O20 O 0.42811 0.5802 0.03984 0.0
H21 H 0.4284 0.50487 0.16685 0.0
H22 H 0.32838 0.51736 0.10132 0.0
Cu23 Cu 0.88203 0.39403 0.43232 0.0
N24 N 0.91149 0.39783 0.42216 0.0
N25 N 0.94969 0.41283 0.41399 0.0
C26 C 0.93259 0.41652 0.42861 0.0
C27 C 0.93887 0.39102 0.39804 0.0
C28 C 0.91545 0.3819 0.40307 0.0
O29 O 0.88171 0.40983 0.4899 0.0
C30 C 0.8857 0.423 0.35501 0.0
O31 O 0.9044 0.43894 0.37549 0.0
H32 H 0.93528 0.43263 0.4425 0.0
H33 H 0.90213 0.36487 0.39282 0.0
N34 N 0.86093 0.36236 0.43934 0.0
N35 N 0.83054 0.32676 0.42977 0.0
C36 C 0.84084 0.3492 0.41677 0.0
C37 C 0.86345 0.34781 0.46734 0.0
C38 C 0.84488 0.32599 0.46158 0.0
C39 C 0.8917 0.40791 0.52588 0.0
O40 O 0.90261 0.39628 0.52249 0.0
H41 H 0.834 0.35599 0.39137 0.0
H42 H 0.87807 0.35265 0.48975 0.0
O43 O 0.87334 0.40375 0.37534 0.0
H44 H 0.94727 0.38223 0.38375 0.0
H45 H 0.84255 0.31064 0.47872 0.0
Cu46 Cu 0.45669 0.86806 0.78683 0.0
N47 N 0.47748 0.89945 0.77778 0.0
N48 N 0.49373 0.93787 0.77563 0.0
C49 C 0.47688 0.91793 0.79426 0.0
C50 C 0.5053 0.93144 0.74664 0.0
C51 C 0.49527 0.90789 0.74807 0.0
O52 O 0.44306 0.86265 0.84844 0.0
C53 C 0.42778 0.87013 0.71745 0.0
O54 O 0.43311 0.88982 0.73698 0.0
H55 H 0.46395 0.91663 0.81838 0.0
H56 H 0.50006 0.89749 0.72752 0.0
N57 N 0.47344 0.8526 0.78325 0.0
N58 N 0.48518 0.82759 0.76528 0.0
C59 C 0.46856 0.8333 0.75981 0.0
C60 C 0.49376 0.85936 0.80403 0.0
C61 C 0.50105 0.84409 0.79305 0.0
C62 C 0.42747 0.86686 0.86209 0.0
O63 O 0.41847 0.87504 0.83266 0.0
H64 H 0.45308 0.82362 0.7395 0.0
H65 H 0.50277 0.87454 0.82532 0.0
O66 O 0.43468 0.85743 0.73599 0.0
H67 H 0.51937 0.94277 0.72417 0.0
H68 H 0.51709 0.8454 0.80403 0.0
Cu69 Cu 0.6307 0.4887 0.09321 0.0
N70 N 0.61911 0.50865 0.10436 0.0
N71 N 0.59363 0.52096 0.11144 0.0
C72 C 0.59833 0.50553 0.09144 0.0
C73 C 0.61234 0.53439 0.13752 0.0
C74 C 0.62788 0.52672 0.13327 0.0
O75 O 0.62424 0.46983 0.14911 0.0
C76 C 0.6192 0.45705 1.01633 0.0
O77 O 0.62831 0.44689 0.03996 0.0
H78 H 0.58631 0.49132 0.07016 0.0
H79 H 0.64401 0.53322 0.15163 0.0
N80 N 0.66288 0.50505 0.08399 0.0
N81 N 0.69869 0.51247 0.06652 0.0
C82 C 0.67664 0.49604 0.07586 0.0
C83 C 0.67672 0.52795 0.07982 0.0
C84 C 0.69872 0.53257 0.06921 0.0
C85 C 0.60538 0.46236 0.17145 0.0
O86 O 0.58843 0.46387 0.15229 0.0
H87 H 0.67037 0.47775 0.07508 0.0
H88 H 0.67112 0.54044 0.08301 0.0
O89 O 0.61722 0.47315 0.03494 0.0
H90 H 0.61447 0.54846 0.15911 0.0
H91 H 0.71353 0.54948 0.06347 0.0
Cu92 Cu 0.17272 0.58659 0.42665 0.0
N93 N 0.15484 0.55461 0.4191 0.0
N94 N 0.12148 0.52109 0.41507 0.0
C95 C 0.13169 0.54422 0.41624 0.0
C96 C 0.13899 0.51662 0.41777 0.0
C97 C 0.1596 0.53737 0.42024 0.0
O98 O 0.17177 0.59146 0.49251 0.0
C99 C 0.16391 0.6082 0.35141 0.0
O100 O 0.18589 0.6238 0.35006 0.0
H101 H 0.12241 0.55355 0.41713 0.0
H102 H 0.17664 0.53959 0.4241 0.0
N103 N 0.2038 0.60009 0.40693 0.0
N104 N 0.24027 0.62713 0.38995 0.0
C105 C 0.21986 0.62275 0.40818 0.0
C106 C 0.21461 0.58981 0.38774 0.0
C107 C 0.23707 0.60639 0.37745 0.0
C108 C 0.18081 0.58245 0.51751 0.0
O109 O 0.19126 0.57275 0.49697 0.0
H110 H 0.21649 0.63586 0.42138 0.0
H111 H 0.20663 0.57161 0.38071 0.0
O112 O 0.15562 0.59676 0.38842 0.0
H113 H 0.13706 0.49963 0.41835 0.0
H114 H 0.24981 0.60352 0.36046 0.0
Cu115 Cu 0.5606 0.16739 0.78178 0.0
N116 N 0.53727 0.13665 0.77526 0.0
N117 N 0.51872 0.09816 0.7734 0.0
C118 C 0.53737 0.1175 0.78899 0.0
C119 C 0.50635 0.10545 0.74931 0.0
C120 C 0.51781 0.12915 0.75059 0.0
O121 O 0.57473 0.17141 0.84344 0.0
C122 C 0.5854 0.16217 0.70552 0.0
O123 O 0.58159 0.14318 0.72626 0.0
H124 H 0.55139 0.11772 0.80788 0.0
H125 H 0.51273 0.14022 0.73339 0.0
N126 N 0.54691 0.18587 0.78089 0.0
N127 N 0.53875 0.21359 0.76334 0.0
C128 C 0.55201 0.20413 0.75354 0.0
C129 C 0.52996 0.18371 0.80894 0.0
C130 C 0.52488 0.20069 0.79826 0.0
C131 C 0.58641 0.16265 0.85925 0.0
O132 O 0.59257 0.15134 0.83118 0.0
H133 H 0.56507 0.21021 0.72682 0.0
H134 H 0.52198 0.17077 0.8356 0.0
O135 O 0.57997 0.1756 0.72604 0.0
H136 H 0.49039 0.09446 0.7313 0.0
H137 H 0.51223 0.20353 0.81564 0.0
Cu138 Cu 0.4889 0.63543 0.60264 0.0
N139 N 0.51091 0.62599 0.60049 0.0
N140 N 0.52422 0.6013 0.59949 0.0
C141 C 0.50682 0.60497 0.58747 0.0
C142 C 0.5399 0.62085 0.62063 0.0
C143 C 0.53162 0.63595 0.62138 0.0
O144 O 0.47129 0.62565 0.54478 0.0
C145 C 0.45451 0.62133 0.6766 0.0
O146 O 0.44232 0.62748 0.65103 0.0
H147 H 0.49062 0.59198 0.57278 0.0
H148 H 0.53944 0.65238 0.63881 0.0
N149 N 0.50256 0.66752 0.60999 0.0
N150 N 0.5067 0.7018 0.62904 0.0
C151 C 0.49217 0.67879 0.6268 0.0
C152 C 0.52443 0.68397 0.60113 0.0
C153 C 0.52704 0.70506 0.61279 0.0
C154 C 0.48059 0.6383 0.50931 0.0
O155 O 0.50051 0.65732 0.51418 0.0
H156 H 0.47423 0.67024 0.63689 0.0
H157 H 0.53761 0.68088 0.58721 0.0
O158 O 0.47233 0.62189 0.6598 0.0
H159 H 0.55579 0.62367 0.63619 0.0
H160 H 0.54289 0.72143 0.61032 0.0
Cu161 Cu 0.88167 0.47918 0.93575 0.0
N162 N 0.90932 0.50753 0.93909 0.0
N163 N 0.94707 0.53348 0.94381 0.0
C164 C 0.93099 0.511 0.93854 0.0
C165 C 0.93493 0.5445 0.94776 0.0
C166 C 0.91173 0.52849 0.94483 0.0
O167 O 0.88261 0.46308 0.87896 0.0
C168 C 0.86252 0.45182 1.01958 0.0
O169 O 0.84228 0.44755 1.00453 0.0
H170 H 0.93481 0.4972 0.9354 0.0
H171 H 0.89757 0.53185 0.94714 0.0
N172 N 0.8564 0.48423 0.9298 0.0
N173 N 0.82595 0.48911 0.94224 0.0
C174 C 0.84397 0.48824 0.96159 0.0
C175 C 0.84618 0.4831 0.88922 0.0
C176 C 0.82762 0.48612 0.89664 0.0
C177 C 0.8911 0.47476 0.84189 0.0
O178 O 0.89961 0.49713 0.84344 0.0
H179 H 0.84759 0.48973 0.9982 0.0
H180 H 0.85161 0.47989 0.85631 0.0
O181 O 0.88027 0.46314 0.994 0.0
H182 H 0.94228 0.56286 0.95221 0.0
H183 H 0.8162 0.48604 0.87018 0.0
Cu184 Cu 0.41416 0.84665 0.28573 0.0
N185 N 0.44623 0.86681 0.28032 0.0
N186 N 0.47936 0.90072 0.27681 0.0
C187 C 0.45661 0.88976 0.28729 0.0
C188 C 0.48342 0.88389 0.26275 0.0
C189 C 0.463 0.86305 0.26494 0.0
O190 O 0.40203 0.85306 0.22969 0.0
C191 C 0.41761 0.85337 0.37788 0.0
O192 O 0.43366 0.84815 0.3687 0.0
H193 H 0.44739 0.89833 0.29824 0.0
H194 H 0.46054 0.84646 0.25504 0.0
N195 N 0.40477 0.81505 0.28847 0.0
N196 N 0.38103 0.77728 0.30145 0.0
C197 C 0.38613 0.79897 0.31189 0.0
C198 C 0.41183 0.80311 0.26259 0.0
C199 C 0.39726 0.77988 0.27051 0.0
C200 C 0.38911 0.8376 0.20084 0.0
O201 O 0.37862 0.81592 0.21361 0.0
H202 H 0.37562 0.80308 0.33386 0.0
H203 H 0.42571 0.81063 0.23769 0.0
O204 O 0.40533 0.85388 0.34481 0.0
H205 H 0.49994 0.88644 0.25146 0.0
H206 H 0.39815 0.76596 0.25369 0.0
Cu207 Cu 0.56016 0.41683 0.5946 0.0
N208 N 0.53936 0.42778 0.58801 0.0
N209 N 0.52611 0.45252 0.58603 0.0
C210 C 0.54473 0.44997 0.59145 0.0
C211 C 0.50821 0.43104 0.57957 0.0
C212 C 0.51643 0.41584 0.58079 0.0
O213 O 0.57914 0.42487 0.5383 0.0
C214 C 0.5927 0.42918 0.67183 0.0
O215 O 0.60542 0.42351 0.64676 0.0
H216 H 0.56189 0.46396 0.59897 0.0
H217 H 0.50629 0.39737 0.57704 0.0
N218 N 0.54463 0.38456 0.59855 0.0
N219 N 0.53696 0.34886 0.61656 0.0
C220 C 0.54952 0.37156 0.62685 0.0
C221 C 0.5285 0.3696 0.56935 0.0
C222 C 0.52364 0.34766 0.58048 0.0
C223 C 0.58824 0.44425 0.51761 0.0
O224 O 0.58867 0.4618 0.53841 0.0
H225 H 0.56278 0.37872 0.65303 0.0
H226 H 0.52138 0.3744 0.54084 0.0
O227 O 0.57505 0.42864 0.65413 0.0
H228 H 0.4905 0.42665 0.57391 0.0
H229 H 0.51144 0.33206 0.56282 0.0
Cu230 Cu 0.16598 0.5777 0.95626 0.0
N231 N 0.15046 0.59449 0.95613 0.0
N232 N 0.11871 0.59769 0.95534 0.0
C233 C 0.1276 0.584 0.96432 0.0
C234 C 0.1368 0.61779 0.94079 0.0
C235 C 0.15642 0.61579 0.94141 0.0
O236 O 0.16411 0.56735 0.89281 0.0
C237 C 0.15309 0.56561 0.0428 0.0
O238 O 0.16638 0.58808 0.04356 0.0
H239 H 0.11737 0.56603 0.97386 0.0
H240 H 0.17348 0.62854 0.92985 0.0
N241 N 0.19734 0.59341 0.97357 0.0
N242 N 0.23137 0.59752 0.99526 0.0
C243 C 0.20994 0.583 0.97915 0.0
C244 C 0.21127 0.61541 0.98642 0.0
C245 C 0.23225 0.61797 0.99989 0.0
C246 C 0.17704 0.58382 0.86566 0.0
O247 O 0.19028 0.60432 0.88345 0.0
H248 H 0.20313 0.56482 0.97306 0.0
H249 H 0.20636 0.62848 0.98698 0.0
O250 O 0.14992 0.55502 1.00461 0.0
H251 H 0.13582 0.63262 0.92932 0.0
H252 H 0.24696 0.63367 1.0123 0.0
Cu253 Cu 0.62211 0.13959 0.28582 0.0
N254 N 0.61568 0.10887 0.28774 0.0
N255 N 0.59713 0.07018 0.28956 0.0
C256 C 0.59512 0.08917 0.28389 0.0
C257 C 0.61984 0.07839 0.29695 0.0
C258 C 0.63114 0.10209 0.29585 0.0
O259 O 0.60927 0.14355 0.22718 0.0
C260 C 0.61454 0.16377 0.36113 0.0
O261 O 0.62704 0.18268 0.3372 0.0
H262 H 0.57897 0.08879 0.27821 0.0
H263 H 0.6494 0.11362 0.30112 0.0
N264 N 0.65451 0.15921 0.2849 0.0
N265 N 0.69066 0.18745 0.30012 0.0
C266 C 0.66847 0.17583 0.31488 0.0
C267 C 0.66847 0.16018 0.25051 0.0
C268 C 0.69065 0.17748 0.2597 0.0
C269 C 0.6193 0.16197 0.20299 0.0
O270 O 0.63724 0.18016 0.22051 0.0
H271 H 0.66262 0.17936 0.34694 0.0
H272 H 0.66274 0.14941 0.22011 0.0
O273 O 0.60934 0.14438 0.34336 0.0
H274 H 0.62782 0.06802 0.30254 0.0
H275 H 0.70547 0.18283 0.23743 0.0
C276 C 0.46743 0.60134 0.24878 0.0
C277 C 0.44849 0.59934 0.22409 0.0
C278 C 0.47055 0.60723 0.29579 0.0
C279 C 0.45442 0.61143 0.31905 0.0
C280 C 0.4354 0.60977 0.29429 0.0
C281 C 0.43263 0.60371 0.24717 0.0
C282 C 0.49111 0.60884 0.32066 0.0
C283 C 0.41792 0.6143 0.31764 0.0
C284 C 0.45575 0.60823 0.45069 0.0
C285 C 0.47081 0.63134 0.4621 0.0
C286 C 0.44941 0.60154 0.40441 0.0
C287 C 0.45815 0.61837 0.36882 0.0
C288 C 0.47228 0.64183 0.38063 0.0
C289 C 0.47849 0.64798 0.42691 0.0
C290 C 0.43433 0.57633 0.39335 0.0
C291 C 0.48181 0.66041 0.34411 0.0
H292 H 0.47977 0.59793 0.23155 0.0
H293 H 0.41786 0.6021 0.2286 0.0
H294 H 0.50212 0.62651 0.33424 0.0
H295 H 0.48524 0.59693 0.35063 0.0
H296 H 0.50181 0.60459 0.29793 0.0
H297 H 0.4041 0.61231 0.29369 0.0
H298 H 0.40986 0.60227 0.34705 0.0
H299 H 0.4266 0.632 0.3319 0.0
H300 H 0.4498 0.59526 0.47759 0.0
H301 H 0.48996 0.66593 0.43538 0.0
H302 H 0.4446 0.57017 0.37439 0.0
H303 H 0.41989 0.57365 0.37059 0.0
H304 H 0.42711 0.56567 0.42493 0.0
H305 H 0.49439 0.65854 0.3223 0.0
H306 H 0.49063 0.67796 0.35926 0.0
H307 H 0.46779 0.6587 0.32118 0.0
C308 C 0.87553 0.42579 0.5809 0.0
C309 C 0.89089 0.41778 0.57178 0.0
C310 C 0.87437 0.43413 0.62509 0.0
C311 C 0.88909 0.43479 0.66107 0.0
C312 C 0.9047 0.42686 0.65183 0.0
C313 C 0.90531 0.41842 0.60771 0.0
C314 C 0.85736 0.44225 0.63331 0.0
C315 C 0.92102 0.42753 0.68852 0.0
C316 C 0.90426 0.47781 0.75972 0.0
C317 C 0.89073 0.46388 0.79651 0.0
C318 C 0.90375 0.46861 0.71581 0.0
C319 C 0.88912 0.44477 0.70767 0.0
C320 C 0.87534 0.43054 0.74459 0.0
C321 C 0.87641 0.44021 0.78856 0.0
C322 C 0.91907 0.48447 0.6781 0.0
C323 C 0.85937 0.4051 0.73754 0.0
H324 H 0.86419 0.42526 0.55369 0.0
H325 H 0.91734 0.41238 0.60133 0.0
H326 H 0.84596 0.43275 0.66284 0.0
H327 H 0.86671 0.46077 0.64254 0.0
H328 H 0.84649 0.43983 0.60256 0.0
H329 H 0.9319 0.42044 0.67617 0.0
H330 H 0.9325 0.44554 0.6999 0.0
H331 H 0.91115 0.41755 0.71921 0.0
H332 H 0.91548 0.4961 0.76524 0.0
H333 H 0.86574 0.42929 0.81645 0.0
H334 H 0.90847 0.48379 0.64812 0.0
H335 H 0.93108 0.47874 0.66589 0.0
H336 H 0.92938 0.50261 0.68978 0.0
H337 H 0.84721 0.40226 0.70897 0.0
H338 H 0.84927 0.39645 0.76908 0.0
H339 H 0.86947 0.39682 0.72741 0.0
C340 C 0.40185 0.86617 0.92652 0.0
C341 C 0.42005 0.86311 0.91135 0.0
C342 C 0.3949 0.86283 0.97314 0.0
C343 C 0.40649 0.85639 1.00551 0.0
C344 C 0.42492 0.85336 0.99042 0.0
C345 C 0.43141 0.85669 0.94367 0.0
C346 C 0.37512 0.86613 0.98773 0.0
C347 C 0.43781 0.84656 0.02372 0.0
C348 C 0.40547 0.86582 0.13499 0.0
C349 C 0.39037 0.84338 0.15085 0.0
C350 C 0.41004 0.87054 0.08758 0.0
C351 C 0.39928 0.85243 0.05512 0.0
C352 C 0.38302 0.83005 0.07071 0.0
C353 C 0.37873 0.82582 0.11825 0.0
C354 C 0.42736 0.89469 0.07248 0.0
C355 C 0.37108 0.81023 0.03739 0.0
H356 H 0.39293 0.87112 0.90193 0.0
H357 H 0.44554 0.85435 0.9325 0.0
H358 H 0.36107 0.84991 1.00269 0.0
H359 H 0.38089 0.87945 1.01502 0.0
H360 H 0.36802 0.87136 0.95851 0.0
H361 H 0.45191 0.84516 1.00665 0.0
H362 H 0.44536 0.85943 0.05184 0.0
H363 H 0.42573 0.82976 0.03991 0.0
H364 H 0.41457 0.87955 0.15972 0.0
H365 H 0.36698 0.80843 0.12993 0.0
H366 H 0.42029 0.90025 0.04384 0.0
H367 H 0.44311 0.89508 0.05935 0.0
H368 H 0.43237 0.90726 0.10115 0.0
H369 H 0.36334 0.81493 1.00856 0.0
H370 H 0.35732 0.79444 0.05436 0.0
H371 H 0.38389 0.80626 1.0222 0.0
C372 C 0.62315 0.45879 0.2457 0.0
C373 C 0.60374 0.45581 0.22121 0.0
C374 C 0.62238 0.45567 0.29399 0.0
C375 C 0.60174 0.44946 0.31857 0.0
C376 C 0.58186 0.44547 0.29373 0.0
C377 C 0.5831 0.44866 0.2456 0.0
C378 C 0.64393 0.45994 0.31893 0.0
C379 C 0.55945 0.43876 0.31825 0.0
C380 C 0.59092 0.42664 0.44252 0.0
C381 C 0.59476 0.4461 0.46776 0.0
C382 C 0.59405 0.42765 0.39424 0.0
C383 C 0.60114 0.4486 0.37037 0.0
C384 C 0.60602 0.46852 0.39594 0.0
C385 C 0.60281 0.46704 0.4441 0.0
C386 C 0.58881 0.40603 0.36854 0.0
C387 C 0.61366 0.49125 0.37216 0.0
H388 H 0.63921 0.46434 0.22741 0.0
H389 H 0.56795 0.44622 0.22724 0.0
H390 H 0.65037 0.47556 0.34065 0.0
H391 H 0.64008 0.44533 0.34229 0.0
H392 H 0.65786 0.46242 0.2947 0.0
H393 H 0.5452 0.43491 0.29383 0.0
H394 H 0.5543 0.42341 0.34027 0.0
H395 H 0.56177 0.45296 0.34125 0.0
H396 H 0.5847 0.41035 0.46024 0.0
H397 H 0.60591 0.48223 0.46303 0.0
H398 H 0.6032 0.40944 0.34484 0.0
H399 H 0.57316 0.40032 0.3471 0.0
H400 H 0.58581 0.39179 0.39227 0.0
H401 H 0.62877 0.49583 0.34968 0.0
H402 H 0.6183 0.50547 0.39708 0.0
H403 H 0.59957 0.48979 0.34972 0.0
C404 C 0.16619 0.59 0.59178 0.0
C405 C 0.17865 0.58139 0.56857 0.0
C406 C 0.16407 0.58865 0.64018 0.0
C407 C 0.1747 0.57852 0.66588 0.0
C408 C 0.18692 0.56945 0.64252 0.0
C409 C 0.18875 0.571 0.5943 0.0
C410 C 0.15091 0.59853 0.6639 0.0
C411 C 0.19865 0.55866 0.66856 0.0
C412 C 0.19365 0.5992 0.7882 0.0
C413 C 0.17658 0.58122 0.8148 0.0
C414 C 0.19309 0.5985 0.73992 0.0
C415 C 0.17498 0.57931 0.71729 0.0
C416 C 0.15779 0.56089 0.74377 0.0
C417 C 0.15882 0.56203 0.79235 0.0
C418 C 0.21192 0.61841 0.71314 0.0
C419 C 0.13823 0.54015 0.72074 0.0
H420 H 0.15819 0.59787 0.57218 0.0
H421 H 0.19832 0.56417 0.57678 0.0
H422 H 0.13772 0.58556 0.68744 0.0
H423 H 0.16289 0.61349 0.68529 0.0
H424 H 0.14222 0.60426 0.63894 0.0
H425 H 0.20614 0.55103 0.64514 0.0
H426 H 0.21269 0.57186 0.69022 0.0
H427 H 0.18621 0.54501 0.69208 0.0
H428 H 0.20753 0.61408 0.80516 0.0
H429 H 0.1455 0.54815 0.81266 0.0
H430 H 0.20427 0.62607 0.69026 0.0
H431 H 0.22112 0.61221 0.69078 0.0
H432 H 0.22472 0.63212 0.73603 0.0
H433 H 0.12835 0.54559 0.69849 0.0
H434 H 0.12623 0.5273 0.74613 0.0
H435 H 0.14518 0.53174 0.69808 0.0
C436 C 0.59415 0.14318 0.13287 0.0
C437 C 0.61274 0.16243 0.15367 0.0
C438 C 0.58912 0.1432 0.08549 0.0
C439 C 0.60309 0.16285 0.05782 0.0
C440 C 0.62164 0.18242 0.07883 0.0
C441 C 0.62615 0.18201 0.12622 0.0
C442 C 0.56903 0.12203 0.06483 0.0
C443 C 0.63714 0.2037 0.05097 0.0
C444 C 0.60557 0.15542 0.92714 0.0
C445 C 0.59132 0.16351 0.90993 0.0
C446 C 0.6095 0.1551 0.97491 0.0
C447 C 0.59877 0.16283 1.00678 0.0
C448 C 0.58437 0.17103 0.98965 0.0
C449 C 0.58092 0.17137 0.94165 0.0
C450 C 0.6252 0.14649 0.9913 0.0
C451 C 0.57245 0.1793 1.02211 0.0
H452 H 0.58366 0.12794 0.15348 0.0
H453 H 0.64061 0.19701 0.14154 0.0
H454 H 0.55715 0.12666 0.04752 0.0
H455 H 0.57535 0.11469 0.03813 0.0
H456 H 0.55918 0.10856 0.09114 0.0
H457 H 0.65054 0.21768 0.07249 0.0
H458 H 0.64584 0.19938 1.0234 0.0
H459 H 0.62676 0.21024 0.03381 0.0
H460 H 0.6137 0.14927 0.90321 0.0
H461 H 0.56974 0.1775 0.92903 0.0
H462 H 0.61566 0.1316 1.01484 0.0
H463 H 0.63978 0.16016 1.01118 0.0
H464 H 0.63232 0.14114 0.9623 0.0
H465 H 0.56146 0.1654 0.04674 0.0
H466 H 0.56151 0.1848 1.00356 0.0
H467 H 0.58544 0.19401 0.04272 0.0
C468 C 0.33853 0.57744 0.03707 0.0
C469 C 0.33309 0.5601 0.07005 0.0
C470 C 0.3224 0.58406 0.02421 0.0
C471 C 0.30026 0.57327 0.04506 0.0
C472 C 0.29473 0.55588 0.07864 0.0
C473 C 0.31111 0.54946 0.09053 0.0
C474 C 0.329 0.60248 0.98793 0.0
C475 C 0.27146 0.54405 0.10212 0.0
C476 C 0.26501 0.60377 0.0422 0.0
C477 C 0.24902 0.59191 1.00697 0.0
C478 C 0.28177 0.59796 0.05484 0.0
C479 C 0.2828 0.57996 0.03148 0.0
C480 C 0.26691 0.56813 0.99548 0.0
C481 C 0.25022 0.57417 0.98384 0.0
C482 C 0.29819 0.6109 0.09369 0.0
C483 C 0.26748 0.54901 0.96928 0.0
H484 H 0.35531 0.58557 1.02058 0.0
H485 H 0.30681 0.53628 0.11644 0.0
H486 H 0.31698 0.59546 0.95828 0.0
H487 H 0.32748 0.61698 1.0022 0.0
H488 H 0.34689 0.60927 0.9751 0.0
H489 H 0.26993 0.53114 0.128 0.0
H490 H 0.26841 0.55697 0.11965 0.0
H491 H 0.25763 0.53527 0.07607 0.0
H492 H 0.2641 0.61729 0.06069 0.0
H493 H 0.23819 0.5651 0.95619 0.0
H494 H 0.31628 0.61888 0.08133 0.0
H495 H 0.2961 0.59878 0.12184 0.0
H496 H 0.29535 0.6246 0.10809 0.0
H497 H 0.28476 0.55544 0.95357 0.0
H498 H 0.25429 0.54183 0.94155 0.0
H499 H 0.26446 0.53489 0.99331 0.0
C500 C 0.7974 0.28705 0.43874 0.0
C501 C 0.80927 0.3074 0.41263 0.0
C502 C 0.7775 0.26762 0.42176 0.0
C503 C 0.76891 0.26842 0.3776 0.0
C504 C 0.78037 0.28906 0.3515 0.0
C505 C 0.80038 0.30822 0.36919 0.0
C506 C 0.76591 0.24604 0.45084 0.0
C507 C 0.77175 0.29074 0.30437 0.0
C508 C 0.7327 0.21185 0.31331 0.0
C509 C 0.7101 0.20732 0.32098 0.0
C510 C 0.75188 0.23156 0.33155 0.0
C511 C 0.74854 0.24737 0.35805 0.0
C512 C 0.72576 0.24286 0.36624 0.0
C513 C 0.70686 0.22289 0.3478 0.0
C514 C 0.77577 0.23545 0.32245 0.0
C515 C 0.72137 0.25927 0.39404 0.0
H516 H 0.80365 0.28621 0.47268 0.0
H517 H 0.80935 0.32364 0.3484 0.0
H518 H 0.74753 0.24072 0.4565 0.0
H519 H 0.76631 0.23176 0.43245 0.0
H520 H 0.77435 0.24835 0.48495 0.0
H521 H 0.78176 0.30833 0.2895 0.0
H522 H 0.77294 0.27848 0.28048 0.0
H523 H 0.75332 0.28589 0.30634 0.0
H524 H 0.73541 0.19982 0.29322 0.0
H525 H 0.68954 0.21975 0.35348 0.0
H526 H 0.78452 0.23654 0.35561 0.0
H527 H 0.7863 0.25206 0.30419 0.0
H528 H 0.77548 0.22151 0.30134 0.0
H529 H 0.72897 0.26151 0.42896 0.0
H530 H 0.70268 0.25322 0.39771 0.0
H531 H 0.72991 0.27645 0.37724 0.0
C532 C 0.49994 0.80035 0.76624 0.0
C533 C 0.48631 0.80834 0.74551 0.0
C534 C 0.50222 0.78247 0.74658 0.0
C535 C 0.49041 0.772 0.7052 0.0
C536 C 0.47617 0.77955 0.68456 0.0
C537 C 0.47433 0.79763 0.70485 0.0
C538 C 0.51758 0.77501 0.76984 0.0
C539 C 0.46316 0.76875 0.64061 0.0
C540 C 0.51558 0.74234 0.63321 0.0
C541 C 0.50183 0.71918 0.64639 0.0
C542 C 0.51172 0.75957 0.65126 0.0
C543 C 0.49355 0.7536 0.68318 0.0
C544 C 0.47923 0.73022 0.69581 0.0
C545 C 0.48357 0.71335 0.67744 0.0
C546 C 0.52746 0.78426 0.63688 0.0
C547 C 0.45962 0.72307 0.7296 0.0
H548 H 0.5089 0.80804 0.79809 0.0
H549 H 0.46389 0.80368 0.68824 0.0
H550 H 0.50757 0.75638 0.77809 0.0
H551 H 0.53171 0.77765 0.74609 0.0
H552 H 0.52533 0.78466 0.8022 0.0
H553 H 0.452 0.77581 0.62999 0.0
H554 H 0.47552 0.77175 0.61231 0.0
H555 H 0.45224 0.74986 0.64508 0.0
H556 H 0.52945 0.7471 0.6087 0.0
H557 H 0.47294 0.69565 0.68841 0.0
H558 H 0.53688 0.79469 0.66741 0.0
H559 H 0.51717 0.79164 0.62276 0.0
H560 H 0.54026 0.78599 0.61047 0.0
H561 H 0.46657 0.73074 0.76389 0.0
H562 H 0.44914 0.70408 0.73358 0.0
H563 H 0.44817 0.72963 0.71816 0.0
C564 C 0.71864 0.48966 0.06716 0.0
C565 C 0.71778 0.50925 0.05313 0.0
C566 C 0.73677 0.48609 0.05312 0.0
C567 C 0.75448 0.50239 0.02402 0.0
C568 C 0.75391 0.52237 1.01042 0.0
C569 C 0.73568 0.52556 0.02512 0.0
C570 C 0.73672 0.46462 0.06872 0.0
C571 C 0.77223 0.54011 0.97906 0.0
C572 C 0.81148 0.50283 1.00707 0.0
C573 C 0.80783 0.49149 0.96457 0.0
C574 C 0.79416 0.50608 0.02746 0.0
C575 C 0.77264 0.49783 1.00488 0.0
C576 C 0.7687 0.48589 0.96262 0.0
C577 C 0.78619 0.4828 0.94324 0.0
C578 C 0.79906 0.51878 0.07269 0.0
C579 C 0.74608 0.47671 0.93726 0.0
H580 H 0.70514 0.4771 0.08926 0.0
H581 H 0.73514 0.54059 1.01345 0.0
H582 H 0.73459 0.45363 0.03846 0.0
H583 H 0.75348 0.46921 0.08496 0.0
H584 H 0.72265 0.4544 0.09374 0.0
H585 H 0.7701 0.55532 0.97374 0.0
H586 H 0.78962 0.54602 0.99363 0.0
H587 H 0.77152 0.53229 0.94496 0.0
H588 H 0.82806 0.50966 0.02389 0.0
H589 H 0.7828 0.47347 0.91111 0.0
H590 H 0.78534 0.50838 0.09815 0.0
H591 H 0.79895 0.5351 0.06759 0.0
H592 H 0.816 0.52286 0.08734 0.0
H593 H 0.73157 0.46491 0.95994 0.0
H594 H 0.7455 0.46732 0.9053 0.0
H595 H 0.74326 0.49113 0.9278 0.0
C596 C 0.2827 0.65246 0.38724 0.0
C597 C 0.26053 0.64933 0.3813 0.0
C598 C 0.30259 0.67365 0.37692 0.0
C599 C 0.30035 0.69208 0.35886 0.0
C600 C 0.27795 0.689 0.353 0.0
C601 C 0.25837 0.66781 0.36483 0.0
C602 C 0.32604 0.67625 0.38492 0.0
C603 C 0.27462 0.70787 0.33286 0.0
C604 C 0.35175 0.7537 0.36062 0.0
C605 C 0.36102 0.75593 0.31618 0.0
C606 C 0.33225 0.73303 0.3752 0.0
C607 C 0.32135 0.71417 0.34433 0.0
C608 C 0.33054 0.71644 0.29928 0.0
C609 C 0.3503 0.73713 0.28596 0.0
C610 C 0.32339 0.7313 0.42379 0.0
C611 C 0.31933 0.69705 0.26483 0.0
H612 H 0.28444 0.63827 0.40026 0.0
H613 H 0.24128 0.66539 0.35962 0.0
H614 H 0.33514 0.67894 0.3515 0.0
H615 H 0.33672 0.69162 0.40654 0.0
H616 H 0.32491 0.66093 0.40213 0.0
H617 H 0.25614 0.70294 0.33114 0.0
H618 H 0.28398 0.72374 0.3538 0.0
H619 H 0.28198 0.71209 0.2975 0.0
H620 H 0.36002 0.76807 0.38428 0.0
H621 H 0.35708 0.73877 0.25136 0.0
H622 H 0.32324 0.71668 0.442 0.0
H623 H 0.30536 0.72779 0.42307 0.0
H624 H 0.33404 0.74727 0.44391 0.0
H625 H 0.31934 0.68159 0.27828 0.0
H626 H 0.32826 0.70167 0.23088 0.0
H627 H 0.30106 0.69229 0.2596 0.0
C628 C 0.51966 0.2359 0.74301 0.0
C629 C 0.53923 0.23333 0.74179 0.0
C630 C 0.51986 0.2551 0.72309 0.0
C631 C 0.54009 0.2723 0.70106 0.0
C632 C 0.5599 0.26985 0.6995 0.0
C633 C 0.55923 0.25044 0.71981 0.0
C634 C 0.49829 0.2569 0.72537 0.0
C635 C 0.58183 0.28776 0.67637 0.0
C636 C 0.53245 0.30993 0.61229 0.0
C637 C 0.53838 0.32999 0.63754 0.0
C638 C 0.53329 0.29126 0.63227 0.0
C639 C 0.54024 0.29254 0.67882 0.0
C640 C 0.54657 0.31283 0.7044 0.0
C641 C 0.54559 0.33128 0.68349 0.0
C642 C 0.52651 0.27006 0.60359 0.0
C643 C 0.55401 0.31491 0.75414 0.0
H644 H 0.50398 0.22271 0.75911 0.0
H645 H 0.57454 0.24887 0.71904 0.0
H646 H 0.50211 0.27322 0.74242 0.0
H647 H 0.49219 0.25725 0.68997 0.0
H648 H 0.48412 0.24233 0.74456 0.0
H649 H 0.59577 0.28342 0.67824 0.0
H650 H 0.57843 0.28953 0.63957 0.0
H651 H 0.58799 0.30476 0.69286 0.0
H652 H 0.52729 0.30882 0.57658 0.0
H653 H 0.55004 0.34656 0.70348 0.0
H654 H 0.51142 0.25497 0.61945 0.0
H655 H 0.54083 0.26627 0.60273 0.0
H656 H 0.52205 0.27197 0.56757 0.0
H657 H 0.53966 0.30163 0.77524 0.0
H658 H 0.55922 0.33212 0.76878 0.0
H659 H 0.56871 0.31177 0.75722 0.0
C660 C 0.46756 0.50678 0.1212 0.0
C661 C 0.46776 0.52692 0.10706 0.0
C662 C 0.48768 0.50507 0.11989 0.0
C663 C 0.50865 0.52387 0.10368 0.0
C664 C 0.50887 0.54398 0.08802 0.0
C665 C 0.48854 0.54529 0.09003 0.0
C666 C 0.48659 0.4833 0.13695 0.0
C667 C 0.53078 0.56442 0.07029 0.0
C668 C 0.56538 0.53008 0.1465 0.0
C669 C 0.57234 0.52163 0.10919 0.0
C670 C 0.54475 0.5308 0.14514 0.0
C671 C 0.53059 0.52299 0.10538 0.0
C672 C 0.53746 0.51442 0.06755 0.0
C673 C 0.55816 0.51375 0.06998 0.0
C674 C 0.53806 0.53986 0.18649 0.0
C675 C 0.52302 0.50608 0.02436 0.0
H676 H 0.45166 0.4923 0.13369 0.0
H677 H 0.48922 0.56106 0.07943 0.0
H678 H 0.49304 0.47623 0.10996 0.0
H679 H 0.49793 0.4872 0.16749 0.0
H680 H 0.46881 0.46987 0.14673 0.0
H681 H 0.52781 0.57815 0.05645 0.0
H682 H 0.54359 0.57177 0.09861 0.0
H683 H 0.53848 0.55897 0.04267 0.0
H684 H 0.57589 0.53582 0.17731 0.0
H685 H 0.56342 0.50737 0.04084 0.0
H686 H 0.52103 0.52644 0.19986 0.0
H687 H 0.53634 0.55485 0.17627 0.0
H688 H 0.55088 0.54521 0.21484 0.0
H689 H 0.50544 0.49187 0.03293 0.0
H690 H 0.53066 0.49987 0.99801 0.0
H691 H 0.52111 0.5202 1.00914 0.0
C692 C 0.98835 0.42723 0.3795 0.0
C693 C 0.97432 0.42874 0.41378 0.0
C694 C 1.01238 0.44208 0.37922 0.0
C695 C 0.02285 0.45885 0.41428 0.0
C696 C 1.00881 0.46055 0.44893 0.0
C697 C 0.98473 0.44558 0.44811 0.0
C698 C 0.02657 0.43986 0.3412 0.0
C699 C 1.01926 0.47807 0.4871 0.0
C700 C 0.08731 0.48363 0.43601 0.0
C701 C 0.09692 0.50502 0.41363 0.0
C702 C 0.06326 0.46852 0.43683 0.0
C703 C 0.04843 0.47478 0.4142 0.0
C704 C 0.05811 0.49618 0.39085 0.0
C705 C 0.08213 0.51103 0.39111 0.0
C706 C 0.05368 0.44595 0.46236 0.0
C707 C 0.04308 0.50342 0.36556 0.0
H708 H 0.98046 0.41456 0.35239 0.0
H709 H 0.97407 0.44672 0.47492 0.0
H710 H 0.03612 0.45635 0.32206 0.0
H711 H 0.03958 0.43612 0.35618 0.0
H712 H 1.01581 0.42601 0.31633 0.0
H713 H 1.00606 0.47705 0.51174 0.0
H714 H 0.03205 0.47544 0.50641 0.0
H715 H 0.0286 0.49567 0.47226 0.0
H716 H 0.09856 0.47897 0.4539 0.0
H717 H 0.08941 0.5274 0.37334 0.0
H718 H 0.0437 0.43143 0.43836 0.0
H719 H 0.04162 0.44496 0.48973 0.0
H720 H 0.06745 0.44368 0.47849 0.0
H721 H 0.03274 0.49048 0.3389 0.0
H722 H 0.05331 0.52047 0.34853 0.0
H723 H 0.03076 0.50427 0.38997 0.0
C724 C 0.50374 0.05924 0.74109 0.0
C725 C 0.51422 0.07484 0.77745 0.0
C726 C 0.50007 0.03676 0.74358 0.0
C727 C 0.50675 0.02952 0.7837 0.0
C728 C 0.51691 0.04504 0.82096 0.0
C729 C 0.52071 0.06757 0.81721 0.0
C730 C 0.48956 0.02094 0.70271 0.0
C731 C 0.52394 0.03789 0.86461 0.0
C732 C 0.47993 0.96464 0.79828 0.0
C733 C 0.4975 0.96095 0.78147 0.0
C734 C 0.48297 0.98693 0.8008 0.0
C735 C 0.50396 1.00603 0.78558 0.0
C736 C 0.52196 1.00255 0.76976 0.0
C737 C 0.51861 0.98017 0.76836 0.0
C738 C 0.46347 0.98996 0.81855 0.0
C739 C 0.54457 0.0224 0.75291 0.0
H740 H 0.499 0.06484 0.71002 0.0
H741 H 0.52861 0.07951 0.84554 0.0
H742 H 0.50193 0.01599 0.68898 0.0
H743 H 0.47384 1.00488 0.71353 0.0
H744 H 0.48489 0.02903 0.67446 0.0
H745 H 0.53051 0.05158 0.89131 0.0
H746 H 0.50903 0.02213 0.87904 0.0
H747 H 0.5376 0.03367 0.85679 0.0
H748 H 0.46351 0.9501 0.80833 0.0
H749 H 0.53256 0.97779 0.7564 0.0
H750 H 0.45666 0.99592 0.79012 0.0
H751 H 0.46982 1.00334 0.84581 0.0
H752 H 0.44907 0.97373 0.83285 0.0
H753 H 0.54146 0.03058 0.72259 0.0
H754 H 0.55709 0.0169 0.74285 0.0
H755 H 0.55249 0.03571 0.78011 0.0
C756 C 0.5146 0.56526 0.55844 0.0
C757 C 0.52453 0.57997 0.59631 0.0
C758 C 0.51472 0.54439 0.55517 0.0
C759 C 0.52461 0.53781 0.59109 0.0
C760 C 0.53445 0.55252 0.62961 0.0
C761 C 0.53446 0.57344 0.63156 0.0
C762 C 0.50439 0.52945 0.51314 0.0
C763 C 0.5448 0.54604 0.66908 0.0
C764 C 0.50642 0.47438 0.60476 0.0
C765 C 0.52555 0.47377 0.58672 0.0
C766 C 0.50585 0.49504 0.60629 0.0
C767 C 0.52468 0.51558 0.58859 0.0
C768 C 0.54387 0.51496 0.56961 0.0
C769 C 0.54416 0.49415 0.56929 0.0
C770 C 0.48524 0.49496 0.6276 0.0
C771 C 0.56414 0.53632 0.54964 0.0
H772 H 0.50705 0.57029 0.53101 0.0
H773 H 0.5418 0.58451 0.66129 0.0
H774 H 0.51755 0.5266 0.49587 0.0
H775 H 0.49 0.51232 0.52357 0.0
H776 H 0.49778 0.53718 0.48785 0.0
H777 H 0.55144 0.55918 0.69688 0.0
H778 H 0.53164 0.52932 0.68406 0.0
H779 H 0.55919 0.54384 0.65634 0.0
H780 H 0.4921 0.45874 0.61865 0.0
H781 H 0.55884 0.49373 0.55473 0.0
H782 H 0.47724 0.50122 0.60224 0.0
H783 H 0.49084 0.50689 0.65744 0.0
H784 H 0.47194 0.47756 0.63958 0.0
H785 H 0.55814 0.54374 0.52244 0.0
H786 H 0.5773 0.53279 0.5345 0.0
H787 H 0.57246 0.54955 0.5769 0.0
C788 C 0.08507 0.59887 0.92293 0.0
C789 C 0.09448 0.59076 0.9562 0.0
C790 C 0.06112 0.59039 0.92085 0.0
C791 C 0.04621 0.57357 0.95311 0.0
C792 C 0.05575 0.56593 0.98773 0.0
C793 C 0.07968 0.57452 0.98869 0.0
C794 C 0.05169 0.59894 0.88327 0.0
C795 C 0.04064 0.54832 1.02328 0.0
C796 C 0.98546 0.56375 0.97135 0.0
C797 C 0.9719 0.54361 0.94582 0.0
C798 C 1.00959 0.57373 0.97386 0.0
C799 C 1.0206 0.56347 0.95002 0.0
C800 C 1.00704 0.54322 0.92393 0.0
C801 C 0.98292 0.53351 0.9223 0.0
C802 C 0.02329 0.59514 1.00251 0.0
C803 C 1.01804 0.53178 0.8977 0.0
H804 H 0.09634 0.61122 0.89745 0.0
H805 H 0.08687 0.56841 1.01484 0.0
H806 H 0.04018 0.58443 0.86043 0.0
H807 H 0.04117 0.60579 0.89854 0.0
H808 H 0.06558 0.61263 0.8619 0.0
H809 H 0.05084 0.54509 0.04936 0.0
H810 H 0.02987 0.55414 0.04135 0.0
H811 H 0.02874 0.53182 1.00599 0.0
H812 H 0.97714 0.57153 0.99016 0.0
H813 H 0.97268 0.51815 0.90204 0.0
H814 H 0.03653 0.60917 0.9808 0.0
H815 H 0.03253 0.5917 0.03033 0.0
H816 H 1.01222 0.60121 1.01847 0.0
H817 H 0.03105 0.54419 0.87309 0.0
H818 H 1.0052 0.51645 0.87819 0.0
H819 H 0.02722 0.52636 0.92198 0.0
C820 C 0.49281 0.93936 0.31059 0.0
C821 C 0.49557 0.92528 0.27843 0.0
C822 C 0.50855 0.96321 0.3128 0.0
C823 C 0.52749 0.97343 0.28183 0.0
C824 C 0.5302 0.95936 0.24889 0.0
C825 C 0.51433 0.93554 0.24775 0.0
C826 C 0.50509 0.97742 0.34885 0.0
C827 C 0.54997 0.96948 0.21492 0.0
C828 C 0.55923 0.03866 0.26185 0.0
C829 C 0.57912 0.04616 0.28886 0.0
C830 C 0.54222 0.01514 0.25945 0.0
C831 C 0.54499 0.99864 0.28497 0.0
C832 C 0.5648 1.00619 0.313 0.0
C833 C 0.58155 0.02972 0.3145 0.0
C834 C 0.52147 1.00789 0.22893 0.0
C835 C 0.56843 0.98935 0.34122 0.0
H836 H 0.47855 0.93162 0.33475 0.0
H837 H 0.51647 0.92494 0.22233 0.0
H838 H 0.52013 0.98526 0.37248 0.0
H839 H 0.50401 0.99171 0.33215 0.0
H840 H 0.48922 0.96704 0.36963 0.0
H841 H 0.54923 0.95642 0.1904 0.0
H842 H 0.54983 0.98351 0.19494 0.0
H843 H 0.56661 0.97714 0.23372 0.0
H844 H 0.55723 0.05112 0.24165 0.0
H845 H 0.59659 0.03528 0.33615 0.0
H846 H 0.50539 0.9983 0.24943 0.0
H847 H 0.52105 0.99609 0.2017 0.0
H848 H 0.52153 0.0228 0.21213 0.0
H849 H 0.55351 0.97948 0.36462 0.0
H850 H 0.5844 0.99801 0.36228 0.0
H851 H 0.56951 0.97677 0.31809 0.0
C852 C 0.46738 0.61895 0.75638 0.0
C853 C 0.44986 0.617 0.72689 0.0
C854 C 0.46419 0.61655 0.80437 0.0
C855 C 0.44275 0.61156 0.82362 0.0
C856 C 0.42483 0.60921 0.79408 0.0
C857 C 0.42868 0.61222 0.7461 0.0
C858 C 0.4839 0.61958 0.83454 0.0
C859 C 0.40155 0.6034 0.81316 0.0
C860 C 0.42946 0.58371 0.94254 0.0
C861 C 0.43388 0.60222 0.97154 0.0
C862 C 0.43171 0.58641 0.89442 0.0
C863 C 0.43906 0.60829 0.87458 0.0
C864 C 0.44376 0.62712 0.90363 0.0
C865 C 0.44086 0.62381 0.95172 0.0
C866 C 0.42614 0.56578 0.86477 0.0
C867 C 0.45212 0.65083 0.88394 0.0
H868 H 0.48393 0.62293 0.74206 0.0
H869 H 0.41507 0.61071 0.72362 0.0
H870 H 0.48801 0.63327 0.86042 0.0
H871 H 0.47887 0.60346 0.85379 0.0
H872 H 0.49975 0.62421 0.81433 0.0
H873 H 0.38931 0.60182 0.78563 0.0
H874 H 0.39397 0.58694 0.83257 0.0
H875 H 0.40349 0.61689 0.83777 0.0
H876 H 0.42376 0.56688 0.9574 0.0
H877 H 0.44427 0.63817 0.97385 0.0
H878 H 0.4418 0.56873 0.84588 0.0
H879 H 0.41301 0.56328 0.83858 0.0
H880 H 0.41953 0.54972 0.88535 0.0
H881 H 0.46855 0.65671 0.86498 0.0
H882 H 0.45497 0.66366 0.91108 0.0
H883 H 0.43941 0.65034 0.8588 0.0
C884 C 0.88984 0.44886 0.28831 0.0
C885 C 0.88054 0.42656 0.30655 0.0
C886 C 0.88635 0.45251 0.24181 0.0
C887 C 0.87375 0.43343 0.21216 0.0
C888 C 0.86429 0.41087 0.23042 0.0
C889 C 0.86754 0.40771 0.27738 0.0
C890 C 0.89624 0.47686 0.22436 0.0
C891 C 0.85115 0.39001 0.20006 0.0
C892 C 0.84806 0.44204 0.1012 0.0
C893 C 0.86496 0.4458 0.06813 0.0
C894 C 0.85069 0.43801 0.14794 0.0
C895 C 0.87046 0.43713 0.16217 0.0
C896 C 0.88732 0.44031 0.12873 0.0
C897 C 0.88453 0.4449 0.08235 0.0
C898 C 0.83254 0.43529 0.18232 0.0
C899 C 0.90841 0.43901 0.14201 0.0
H900 H 0.89986 0.46353 0.31051 0.0
H901 H 0.8605 0.39041 0.29091 0.0
H902 H 0.9091 0.48034 0.19684 0.0
H903 H 0.88237 0.47915 0.20892 0.0
H904 H 0.90472 0.4898 0.25215 0.0
H905 H 0.84503 0.37364 0.21931 0.0
H906 H 0.83603 0.39003 0.1846 0.0
H907 H 0.86234 0.39061 0.1712 0.0
H908 H 0.83299 0.44293 0.09083 0.0
H909 H 0.89767 0.44774 0.05716 0.0
H910 H 0.84045 0.4489 0.20902 0.0
H911 H 0.82533 0.41848 0.20028 0.0
H912 H 0.81815 0.43636 0.16582 0.0
H913 H 0.91907 0.453 0.16658 0.0
H914 H 0.91922 0.44052 0.11165 0.0
H915 H 0.90318 0.42245 0.15977 0.0
C916 C 0.41516 0.84566 0.6462 0.0
C917 C 0.41816 0.86517 0.66993 0.0
C918 C 0.4106 0.84316 0.5986 0.0
C919 C 0.40908 0.86062 0.57404 0.0
C920 C 0.4101 0.87933 0.59852 0.0
C921 C 0.41459 0.88137 0.64617 0.0
C922 C 0.4093 0.82275 0.57398 0.0
C923 C 0.40843 0.89825 0.57385 0.0
C924 C 0.43438 0.86985 0.45385 0.0
C925 C 0.41468 0.85834 0.42622 0.0
C926 C 0.43265 0.87164 0.50161 0.0
C927 C 0.41059 0.86129 0.52263 0.0
C928 C 0.39055 0.85055 0.49464 0.0
C929 C 0.39283 0.84932 0.44648 0.0
C930 C 0.45453 0.88367 0.5298 0.0
C931 C 0.36675 0.83927 0.51571 0.0
H932 H 0.41762 0.83291 0.66426 0.0
H933 H 0.41661 0.8964 0.66418 0.0
H934 H 0.3946 0.81521 0.54953 0.0
H935 H 0.42531 0.82846 0.55362 0.0
H936 H 0.40739 0.80915 0.59845 0.0
H937 H 0.40543 0.90924 0.59822 0.0
H938 H 0.42478 0.9093 0.555 0.0
H939 H 0.39432 0.89099 0.54806 0.0
H940 H 0.4513 0.87695 0.4381 0.0
H941 H 0.37759 0.84019 0.42514 0.0
H942 H 0.4558 0.87102 0.55246 0.0
H943 H 0.45423 0.89685 0.55239 0.0
H944 H 0.47023 0.8922 0.50784 0.0
H945 H 0.36328 0.82324 0.53364 0.0
H946 H 0.35316 0.83481 0.48927 0.0
H947 H 0.36553 0.85067 0.54185 0.0
C948 C 0.61893 0.44146 0.7411 0.0
C949 C 0.59696 0.43353 0.72221 0.0
C950 C 0.62276 0.44525 0.78895 0.0
C951 C 0.60404 0.44034 0.81883 0.0
C952 C 0.58176 0.43195 0.79991 0.0
C953 C 0.57856 0.42896 0.75195 0.0
C954 C 0.64689 0.45477 0.8075 0.0
C955 C 0.56119 0.42593 0.8304 0.0
C956 C 0.61019 0.43127 0.94718 0.0
C957 C 0.61421 0.45215 0.96626 0.0
C958 C 0.60661 0.42707 0.89941 0.0
C959 C 0.60774 0.44442 0.86973 0.0
C960 C 0.61196 0.46559 0.88884 0.0
C961 C 0.61483 0.46906 0.93679 0.0
C962 C 0.6015 0.40402 0.88071 0.0
C963 C 0.61381 0.48475 0.85853 0.0
H964 H 0.63321 0.44504 0.71837 0.0
H965 H 0.56144 0.4225 0.73779 0.0
H966 H 0.65223 0.4711 0.82613 0.0
H967 H 0.64734 0.44255 0.83267 0.0
H968 H 0.65965 0.45808 0.77975 0.0
H969 H 0.54484 0.41865 0.81055 0.0
H970 H 0.55943 0.41323 0.85696 0.0
H971 H 0.56374 0.44149 0.84885 0.0
H972 H 0.60969 0.41812 0.96969 0.0
H973 H 0.61823 0.48538 0.95106 0.0
H974 H 0.61506 0.40636 0.85574 0.0
H975 H 0.58486 0.39586 0.86182 0.0
H976 H 0.60055 0.39212 0.9084 0.0
H977 H 0.6274 0.48928 0.83202 0.0
H978 H 0.61798 0.50047 0.87852 0.0
H979 H 0.59733 0.47898 0.84001 0.0
C980 C 0.15222 0.5504 0.11997 0.0
C981 C 0.14043 0.55476 0.08528 0.0
C982 C 0.14881 0.55361 0.16656 0.0
C983 C 0.13357 0.56172 0.17809 0.0
C984 C 0.11892 0.56236 0.14374 0.0
C985 C 0.12255 0.55885 0.09745 0.0
C986 C 0.16386 0.55148 0.20261 0.0
C987 C 0.10168 0.56984 0.15487 0.0
C988 C 0.13315 0.57551 0.30527 0.0
C989 C 0.15199 0.59811 0.30709 0.0
C990 C 0.12576 0.56362 0.26317 0.0
C991 C 0.13734 0.57472 0.22192 0.0
C992 C 0.15477 0.59826 0.22314 0.0
C993 C 0.16188 0.60962 0.26565 0.0
C994 C 0.10675 0.53878 0.26406 0.0
C995 C 0.16718 0.61109 0.17983 0.0
H996 H 0.16618 0.54742 0.11053 0.0
H997 H 0.11353 0.56239 0.0705 0.0
H998 H 0.17801 0.56891 0.21207 0.0
H999 H 0.15374 0.54322 0.23431 0.0
H1000 H 0.17165 0.5413 0.18988 0.0
H1001 H 0.08856 0.56486 0.1272 0.0
H1002 H 0.09282 0.56223 0.18806 0.0
H1003 H 0.11084 0.58885 0.1585 0.0
H1004 H 0.12504 0.56649 0.33691 0.0
H1005 H 0.17616 0.62718 0.26658 0.0
H1006 H 0.11391 0.52799 0.27654 0.0
H1007 H 0.09886 0.5324 0.2297 0.0
H1008 H 0.093 0.53645 0.28861 0.0
H1009 H 0.17761 0.60379 0.16602 0.0
H1010 H 0.17886 0.62975 0.18617 0.0
H1011 H 0.15457 0.60909 0.15287 0.0
C1012 C 0.58414 0.17674 0.62615 0.0
C1013 C 0.59213 0.16568 0.65579 0.0
C1014 C 0.58759 0.17734 0.57802 0.0
C1015 C 0.59993 0.16724 0.55892 0.0
C1016 C 0.60888 0.15694 0.58898 0.0
C1017 C 0.60456 0.15595 0.63679 0.0
C1018 C 0.57723 0.188 0.54743 0.0
C1019 C 0.62275 0.14659 0.57054 0.0
C1020 C 0.59101 0.14676 0.43339 0.0
C1021 C 0.60971 0.16521 0.41092 0.0
C1022 C 0.58723 0.14751 0.48111 0.0
C1023 C 0.60295 0.16685 0.50755 0.0
C1024 C 0.62187 0.18552 0.48496 0.0
C1025 C 0.62481 0.18462 0.43697 0.0
C1026 C 0.56648 0.12748 0.50333 0.0
C1027 C 0.63947 0.20618 0.51171 0.0
H1028 H 0.57422 0.18401 0.64037 0.0
H1029 H 0.61079 0.14738 0.65938 0.0
H1030 H 0.59078 0.20167 0.52559 0.0
H1031 H 0.56443 0.17473 0.52387 0.0
H1032 H 0.56852 0.19555 0.56756 0.0
H1033 H 0.63007 0.14091 0.59859 0.0
H1034 H 0.61166 0.13152 0.54857 0.0
H1035 H 0.63709 0.15929 0.54858 0.0
H1036 H 0.57926 0.13172 0.41358 0.0
H1037 H 0.63952 0.19883 0.42011 0.0
H1038 H 0.55634 0.13369 0.52262 0.0
H1039 H 0.57218 0.11892 0.52855 0.0
H1040 H 0.55504 0.11451 0.47763 0.0
H1041 H 0.63093 0.2143 0.53035 0.0
H1042 H 0.65315 0.21932 0.48911 0.0
H1043 H 0.64771 0.20064 0.53804 0.0
loop_
_geom_bond_atom_site_label_1
_geom_bond_atom_site_label_2
_geom_bond_distance
_geom_bond_site_symmetry_2
_ccdc_geom_bond_type
Cu0 N1 1.999 . S
Cu0 O6 1.974 . S
Cu0 N11 1.985 . S
Cu0 O20 1.959 . S
N1 Cu0 1.999 . S
N1 C3 1.263 . S
N1 C5 1.389 . S
N2 C3 1.358 . S
N2 C4 1.400 . S
C3 N1 1.263 . S
C3 N2 1.358 . S
C3 H9 0.930 . S
C4 N2 1.400 . S
C4 C5 1.351 . S
C4 H21 0.930 . S
C5 N1 1.389 . S
C5 C4 1.351 . S
C5 H10 0.930 . S
O6 Cu0 1.974 . S
O6 C16 1.282 . S
C7 O8 1.261 1_556 S
C7 O20 1.251 1_556 S
O8 C7 1.261 1_554 S
H9 C3 0.930 . S
H10 C5 0.930 . S
N11 Cu0 1.985 . S
N11 C13 1.335 . S
N11 C14 1.390 . S
N12 C13 1.345 . S
N12 C15 1.336 . S
C13 N11 1.335 . S
C13 N12 1.345 . S
C13 H18 0.930 . S
C14 N11 1.390 . S
C14 C15 1.346 . S
C14 H19 0.930 . S
C15 N12 1.336 . S
C15 C14 1.346 . S
C15 H22 0.929 . S
C16 O6 1.282 . S
C16 O17 1.216 . S
O17 C16 1.216 . S
H18 C13 0.930 . S
H19 C14 0.930 . S
O20 Cu0 1.959 . S
O20 C7 1.251 1_554 S
H21 C4 0.930 . S
H22 C15 0.929 . S
Cu23 N24 1.999 . S
Cu23 O29 1.974 . S
Cu23 N34 1.985 . S
Cu23 O43 1.959 . S
N24 Cu23 1.999 . S
N24 C26 1.263 . S
N24 C28 1.389 . S
N25 C26 1.358 . S
N25 C27 1.400 . S
C26 N24 1.263 . S
C26 N25 1.358 . S
C26 H32 0.930 . S
C27 N25 1.400 . S
C27 C28 1.351 . S
C27 H44 0.930 . S
C28 N24 1.389 . S
C28 C27 1.351 . S
C28 H33 0.930 . S
O29 Cu23 1.974 . S
O29 C39 1.282 . S
C30 O31 1.261 . S
C30 O43 1.251 . S
O31 C30 1.261 . S
H32 C26 0.930 . S
H33 C28 0.930 . S
N34 Cu23 1.985 . S
N34 C36 1.335 . S
N34 C37 1.390 . S
N35 C36 1.345 . S
N35 C38 1.336 . S
C36 N34 1.335 . S
C36 N35 1.345 . S
C36 H41 0.930 . S
C37 N34 1.390 . S
C37 C38 1.346 . S
C37 H42 0.930 . S
C38 N35 1.336 . S
C38 C37 1.346 . S
C38 H45 0.929 . S
C39 O29 1.282 . S
C39 O40 1.216 . S
O40 C39 1.216 . S
H41 C36 0.930 . S
H42 C37 0.930 . S
O43 Cu23 1.959 . S
O43 C30 1.251 . S
H44 C27 0.930 . S
H45 C38 0.929 . S
Cu46 N47 1.999 . S
Cu46 O52 1.974 . S
Cu46 N57 1.985 . S
Cu46 O66 1.959 . S
N47 Cu46 1.999 . S
N47 C49 1.263 . S
N47 C51 1.389 . S
N48 C49 1.358 . S
N48 C50 1.400 . S
C49 N47 1.263 . S
C49 N48 1.358 . S
C49 H55 0.930 . S
C50 N48 1.400 . S
C50 C51 1.351 . S
C50 H67 0.930 . S
C51 N47 1.389 . S
C51 C50 1.351 . S
C51 H56 0.930 . S
O52 Cu46 1.974 . S
O52 C62 1.282 . S
C53 O54 1.261 . S
C53 O66 1.251 . S
O54 C53 1.261 . S
H55 C49 0.930 . S
H56 C51 0.930 . S
N57 Cu46 1.985 . S
N57 C59 1.335 . S
N57 C60 1.390 . S
N58 C59 1.345 . S
N58 C61 1.336 . S
C59 N57 1.335 . S
C59 N58 1.345 . S
C59 H64 0.930 . S
C60 N57 1.390 . S
C60 C61 1.346 . S
C60 H65 0.930 . S
C61 N58 1.336 . S
C61 C60 1.346 . S
C61 H68 0.929 . S
C62 O52 1.282 . S
C62 O63 1.216 . S
O63 C62 1.216 . S
H64 C59 0.930 . S
H65 C60 0.930 . S
O66 Cu46 1.959 . S
O66 C53 1.251 . S
H67 C50 0.930 . S
H68 C61 0.929 . S
Cu69 N70 1.999 . S
Cu69 O75 1.974 . S
Cu69 N80 1.985 . S
Cu69 O89 1.959 . S
N70 Cu69 1.999 . S
N70 C72 1.263 . S
N70 C74 1.389 . S
N71 C72 1.358 . S
N71 C73 1.400 . S
C72 N70 1.263 . S
C72 N71 1.358 . S
C72 H78 0.930 . S
C73 N71 1.400 . S
C73 C74 1.351 . S
C73 H90 0.930 . S
C74 N70 1.389 . S
C74 C73 1.351 . S
C74 H79 0.930 . S
O75 Cu69 1.974 . S
O75 C85 1.282 . S
C76 O77 1.261 1_556 S
C76 O89 1.251 1_556 S
O77 C76 1.261 1_554 S
H78 C72 0.930 . S
H79 C74 0.930 . S
N80 Cu69 1.985 . S
N80 C82 1.335 . S
N80 C83 1.390 . S
N81 C82 1.345 . S
N81 C84 1.336 . S
C82 N80 1.335 . S
C82 N81 1.345 . S
C82 H87 0.930 . S
C83 N80 1.390 . S
C83 C84 1.346 . S
C83 H88 0.930 . S
C84 N81 1.336 . S
C84 C83 1.346 . S
C84 H91 0.929 . S
C85 O75 1.282 . S
C85 O86 1.216 . S
O86 C85 1.216 . S
H87 C82 0.930 . S
H88 C83 0.930 . S
O89 Cu69 1.959 . S
O89 C76 1.251 1_554 S
H90 C73 0.930 . S
H91 C84 0.929 . S
Cu92 N93 1.999 . S
Cu92 O98 1.974 . S
Cu92 N103 1.985 . S
Cu92 O112 1.959 . S
N93 Cu92 1.999 . S
N93 C95 1.263 . S
N93 C97 1.389 . S
N94 C95 1.358 . S
N94 C96 1.400 . S
C95 N93 1.263 . S
C95 N94 1.358 . S
C95 H101 0.930 . S
C96 N94 1.400 . S
C96 C97 1.351 . S
C96 H113 0.930 . S
C97 N93 1.389 . S
C97 C96 1.351 . S
C97 H102 0.930 . S
O98 Cu92 1.974 . S
O98 C108 1.282 . S
C99 O100 1.261 . S
C99 O112 1.251 . S
O100 C99 1.261 . S
H101 C95 0.930 . S
H102 C97 0.930 . S
N103 Cu92 1.985 . S
N103 C105 1.335 . S
N103 C106 1.390 . S
N104 C105 1.345 . S
N104 C107 1.336 . S
C105 N103 1.335 . S
C105 N104 1.345 . S
C105 H110 0.930 . S
C106 N103 1.390 . S
C106 C107 1.346 . S
C106 H111 0.930 . S
C107 N104 1.336 . S
C107 C106 1.346 . S
C107 H114 0.929 . S
C108 O98 1.282 . S
C108 O109 1.216 . S
O109 C108 1.216 . S
H110 C105 0.930 . S
H111 C106 0.930 . S
O112 Cu92 1.959 . S
O112 C99 1.251 . S
H113 C96 0.930 . S
H114 C107 0.929 . S
Cu115 N116 1.999 . S
Cu115 O121 1.974 . S
Cu115 N126 1.985 . S
Cu115 O135 1.959 . S
N116 Cu115 1.999 . S
N116 C118 1.263 . S
N116 C120 1.389 . S
N117 C118 1.358 . S
N117 C119 1.400 . S
C118 N116 1.263 . S
C118 N117 1.358 . S
C118 H124 0.930 . S
C119 N117 1.400 . S
C119 C120 1.351 . S
C119 H136 0.930 . S
C120 N116 1.389 . S
C120 C119 1.351 . S
C120 H125 0.930 . S
O121 Cu115 1.974 . S
O121 C131 1.282 . S
C122 O123 1.261 . S
C122 O135 1.251 . S
O123 C122 1.261 . S
H124 C118 0.930 . S
H125 C120 0.930 . S
N126 Cu115 1.985 . S
N126 C128 1.335 . S
N126 C129 1.390 . S
N127 C128 1.345 . S
N127 C130 1.336 . S
C128 N126 1.335 . S
C128 N127 1.345 . S
C128 H133 0.930 . S
C129 N126 1.390 . S
C129 C130 1.346 . S
C129 H134 0.930 . S
C130 N127 1.336 . S
C130 C129 1.346 . S
C130 H137 0.929 . S
C131 O121 1.282 . S
C131 O132 1.216 . S
O132 C131 1.216 . S
H133 C128 0.930 . S
H134 C129 0.930 . S
O135 Cu115 1.959 . S
O135 C122 1.251 . S
H136 C119 0.930 . S
H137 C130 0.929 . S
Cu138 N139 1.999 . S
Cu138 O144 1.974 . S
Cu138 N149 1.985 . S
Cu138 O158 1.959 . S
N139 Cu138 1.999 . S
N139 C141 1.263 . S
N139 C143 1.389 . S
N140 C141 1.358 . S
N140 C142 1.400 . S
C141 N139 1.263 . S
C141 N140 1.358 . S
C141 H147 0.930 . S
C142 N140 1.400 . S
C142 C143 1.351 . S
C142 H159 0.930 . S
C143 N139 1.389 . S
C143 C142 1.351 . S
C143 H148 0.930 . S
O144 Cu138 1.974 . S
O144 C154 1.282 . S
C145 O146 1.261 . S
C145 O158 1.251 . S
O146 C145 1.261 . S
H147 C141 0.930 . S
H148 C143 0.930 . S
N149 Cu138 1.985 . S
N149 C151 1.335 . S
N149 C152 1.390 . S
N150 C151 1.345 . S
N150 C153 1.336 . S
C151 N149 1.335 . S
C151 N150 1.345 . S
C151 H156 0.930 . S
C152 N149 1.390 . S
C152 C153 1.346 . S
C152 H157 0.930 . S
C153 N150 1.336 . S
C153 C152 1.346 . S
C153 H160 0.929 . S
C154 O144 1.282 . S
C154 O155 1.216 . S
O155 C154 1.216 . S
H156 C151 0.930 . S
H157 C152 0.930 . S
O158 Cu138 1.959 . S
O158 C145 1.251 . S
H159 C142 0.930 . S
H160 C153 0.929 . S
Cu161 N162 1.999 . S
Cu161 O167 1.974 . S
Cu161 N172 1.985 . S
Cu161 O181 1.959 . S
N162 Cu161 1.999 . S
N162 C164 1.263 . S
N162 C166 1.389 . S
N163 C164 1.358 . S
N163 C165 1.400 . S
C164 N162 1.263 . S
C164 N163 1.358 . S
C164 H170 0.930 . S
C165 N163 1.400 . S
C165 C166 1.351 . S
C165 H182 0.930 . S
C166 N162 1.389 . S
C166 C165 1.351 . S
C166 H171 0.930 . S
O167 Cu161 1.974 . S
O167 C177 1.282 . S
C168 O169 1.261 1_554 S
C168 O181 1.251 1_554 S
O169 C168 1.261 1_556 S
H170 C164 0.930 . S
H171 C166 0.930 . S
N172 Cu161 1.985 . S
N172 C174 1.335 . S
N172 C175 1.390 . S
N173 C174 1.345 . S
N173 C176 1.336 . S
C174 N172 1.335 . S
C174 N173 1.345 . S
C174 H179 0.930 . S
C175 N172 1.390 . S
C175 C176 1.346 . S
C175 H180 0.930 . S
C176 N173 1.336 . S
C176 C175 1.346 . S
C176 H183 0.929 . S
C177 O167 1.282 . S
C177 O178 1.216 . S
O178 C177 1.216 . S
H179 C174 0.930 . S
H180 C175 0.930 . S
O181 Cu161 1.959 . S
O181 C168 1.251 1_556 S
H182 C165 0.930 . S
H183 C176 0.929 . S
Cu184 N185 1.999 . S
Cu184 O190 1.974 . S
Cu184 N195 1.985 . S
Cu184 O204 1.959 . S
N185 Cu184 1.999 . S
N185 C187 1.263 . S
N185 C189 1.389 . S
N186 C187 1.358 . S
N186 C188 1.400 . S
C187 N185 1.263 . S
C187 N186 1.358 . S
C187 H193 0.930 . S
C188 N186 1.400 . S
C188 C189 1.351 . S
C188 H205 0.930 . S
C189 N185 1.389 . S
C189 C188 1.351 . S
C189 H194 0.930 . S
O190 Cu184 1.974 . S
O190 C200 1.282 . S
C191 O192 1.261 . S
C191 O204 1.251 . S
O192 C191 1.261 . S
H193 C187 0.930 . S
H194 C189 0.930 . S
N195 Cu184 1.985 . S
N195 C197 1.335 . S
N195 C198 1.390 . S
N196 C197 1.345 . S
N196 C199 1.336 . S
C197 N195 1.335 . S
C197 N196 1.345 . S
C197 H202 0.930 . S
C198 N195 1.390 . S
C198 C199 1.346 . S
C198 H203 0.930 . S
C199 N196 1.336 . S
C199 C198 1.346 . S
C199 H206 0.929 . S
C200 O190 1.282 . S
C200 O201 1.216 . S
O201 C200 1.216 . S
H202 C197 0.930 . S
H203 C198 0.930 . S
O204 Cu184 1.959 . S
O204 C191 1.251 . S
H205 C188 0.930 . S
H206 C199 0.929 . S
Cu207 N208 1.999 . S
Cu207 O213 1.974 . S
Cu207 N218 1.985 . S
Cu207 O227 1.959 . S
N208 Cu207 1.999 . S
N208 C210 1.263 . S
N208 C212 1.389 . S
N209 C210 1.358 . S
N209 C211 1.400 . S
C210 N208 1.263 . S
C210 N209 1.358 . S
C210 H216 0.930 . S
C211 N209 1.400 . S
C211 C212 1.351 . S
C211 H228 0.930 . S
C212 N208 1.389 . S
C212 C211 1.351 . S
C212 H217 0.930 . S
O213 Cu207 1.974 . S
O213 C223 1.282 . S
C214 O215 1.261 . S
C214 O227 1.251 . S
O215 C214 1.261 . S
H216 C210 0.930 . S
H217 C212 0.930 . S
N218 Cu207 1.985 . S
N218 C220 1.335 . S
N218 C221 1.390 . S
N219 C220 1.345 . S
N219 C222 1.336 . S
C220 N218 1.335 . S
C220 N219 1.345 . S
C220 H225 0.930 . S
C221 N218 1.390 . S
C221 C222 1.346 . S
C221 H226 0.930 . S
C222 N219 1.336 . S
C222 C221 1.346 . S
C222 H229 0.929 . S
C223 O213 1.282 . S
C223 O224 1.216 . S
O224 C223 1.216 . S
H225 C220 0.930 . S
H226 C221 0.930 . S
O227 Cu207 1.959 . S
O227 C214 1.251 . S
H228 C211 0.930 . S
H229 C222 0.929 . S
Cu230 N231 1.999 . S
Cu230 O236 1.974 . S
Cu230 N241 1.985 . S
Cu230 O250 1.959 . S
N231 Cu230 1.999 . S
N231 C233 1.263 . S
N231 C235 1.389 . S
N232 C233 1.358 . S
N232 C234 1.400 . S
C233 N231 1.263 . S
C233 N232 1.358 . S
C233 H239 0.930 . S
C234 N232 1.400 . S
C234 C235 1.351 . S
C234 H251 0.930 . S
C235 N231 1.389 . S
C235 C234 1.351 . S
C235 H240 0.930 . S
O236 Cu230 1.974 . S
O236 C246 1.282 . S
C237 O238 1.261 1_554 S
C237 O250 1.251 1_554 S
O238 C237 1.261 1_556 S
H239 C233 0.930 . S
H240 C235 0.930 . S
N241 Cu230 1.985 . S
N241 C243 1.335 . S
N241 C244 1.390 . S
N242 C243 1.345 . S
N242 C245 1.336 . S
C243 N241 1.335 . S
C243 N242 1.345 . S
C243 H248 0.930 . S
C244 N241 1.390 . S
C244 C245 1.346 . S
C244 H249 0.930 . S
C245 N242 1.336 . S
C245 C244 1.346 . S
C245 H252 0.929 . S
C246 O236 1.282 . S
C246 O247 1.216 . S
O247 C246 1.216 . S
H248 C243 0.930 . S
H249 C244 0.930 . S
O250 Cu230 1.959 . S
O250 C237 1.251 1_556 S
H251 C234 0.930 . S
H252 C245 0.929 . S
Cu253 N254 1.999 . S
Cu253 O259 1.974 . S
Cu253 N264 1.985 . S
Cu253 O273 1.959 . S
N254 Cu253 1.999 . S
N254 C256 1.263 . S
N254 C258 1.389 . S
N255 C256 1.358 . S
N255 C257 1.400 . S
C256 N254 1.263 . S
C256 N255 1.358 . S
C256 H262 0.930 . S
C257 N255 1.400 . S
C257 C258 1.351 . S
C257 H274 0.930 . S
C258 N254 1.389 . S
C258 C257 1.351 . S
C258 H263 0.930 . S
O259 Cu253 1.974 . S
O259 C269 1.282 . S
C260 O261 1.261 . S
C260 O273 1.251 . S
O261 C260 1.261 . S
H262 C256 0.930 . S
H263 C258 0.930 . S
N264 Cu253 1.985 . S
N264 C266 1.335 . S
N264 C267 1.390 . S
N265 C266 1.345 . S
N265 C268 1.336 . S
C266 N264 1.335 . S
C266 N265 1.345 . S
C266 H271 0.930 . S
C267 N264 1.390 . S
C267 C268 1.346 . S
C267 H272 0.930 . S
C268 N265 1.336 . S
C268 C267 1.346 . S
C268 H275 0.929 . S
C269 O259 1.282 . S
C269 O270 1.216 . S
O270 C269 1.216 . S
H271 C266 0.930 . S
H272 C267 0.930 . S
O273 Cu253 1.959 . S
O273 C260 1.251 . S
H274 C257 0.930 . S
H275 C268 0.929 . S
C276 C277 1.391 . S
C276 C278 1.394 . S
C276 H292 0.931 . S
C277 C276 1.391 . S
C277 C281 1.376 . S
C278 C276 1.394 . S
C278 C279 1.369 . S
C278 C282 1.531 . S
C279 C278 1.369 . S
C279 C280 1.410 . S
C279 C287 1.503 . S
C280 C279 1.410 . S
C280 C281 1.392 . S
C280 C283 1.511 . S
C281 C277 1.376 . S
C281 C280 1.392 . S
C281 H293 0.929 . S
C282 C278 1.531 . S
C282 H294 0.960 . S
C282 H295 0.962 . S
C282 H296 0.960 . S
C283 C280 1.511 . S
C283 H297 0.961 . S
C283 H298 0.961 . S
C283 H299 0.961 . S
C284 C285 1.370 . S
C284 C286 1.363 . S
C284 H300 0.931 . S
C285 C284 1.370 . S
C285 C289 1.408 . S
C286 C284 1.363 . S
C286 C287 1.370 . S
C286 C290 1.524 . S
C287 C279 1.503 . S
C287 C286 1.370 . S
C287 C288 1.403 . S
C288 C287 1.403 . S
C288 C289 1.404 . S
C288 C291 1.539 . S
C289 C285 1.408 . S
C289 C288 1.404 . S
C289 H301 0.930 . S
C290 C286 1.524 . S
C290 H302 0.956 . S
C290 H303 0.961 . S
C290 H304 0.961 . S
C291 C288 1.539 . S
C291 H305 0.958 . S
C291 H306 0.961 . S
C291 H307 0.960 . S
H292 C276 0.931 . S
H293 C281 0.929 . S
H294 C282 0.960 . S
H295 C282 0.962 . S
H296 C282 0.960 . S
H297 C283 0.961 . S
H298 C283 0.961 . S
H299 C283 0.961 . S
H300 C284 0.931 . S
H301 C289 0.930 . S
H302 C290 0.956 . S
H303 C290 0.961 . S
H304 C290 0.961 . S
H305 C291 0.958 . S
H306 C291 0.961 . S
H307 C291 0.960 . S
C308 C309 1.391 . S
C308 C310 1.394 . S
C308 H324 0.931 . S
C309 C308 1.391 . S
C309 C313 1.376 . S
C310 C308 1.394 . S
C310 C311 1.369 . S
C310 C314 1.531 . S
C311 C310 1.369 . S
C311 C312 1.410 . S
C311 C319 1.503 . S
C312 C311 1.410 . S
C312 C313 1.392 . S
C312 C315 1.511 . S
C313 C309 1.376 . S
C313 C312 1.392 . S
C313 H325 0.929 . S
C314 C310 1.531 . S
C314 H326 0.960 . S
C314 H327 0.962 . S
C314 H328 0.960 . S
C315 C312 1.511 . S
C315 H329 0.961 . S
C315 H330 0.961 . S
C315 H331 0.961 . S
C316 C317 1.370 . S
C316 C318 1.363 . S
C316 H332 0.931 . S
C317 C316 1.370 . S
C317 C321 1.408 . S
C318 C316 1.363 . S
C318 C319 1.370 . S
C318 C322 1.524 . S
C319 C311 1.503 . S
C319 C318 1.370 . S
C319 C320 1.403 . S
C320 C319 1.403 . S
C320 C321 1.404 . S
C320 C323 1.539 . S
C321 C317 1.408 . S
C321 C320 1.404 . S
C321 H333 0.930 . S
C322 C318 1.524 . S
C322 H334 0.956 . S
C322 H335 0.961 . S
C322 H336 0.961 . S
C323 C320 1.539 . S
C323 H337 0.958 . S
C323 H338 0.961 . S
C323 H339 0.960 . S
H324 C308 0.931 . S
H325 C313 0.929 . S
H326 C314 0.960 . S
H327 C314 0.962 . S
H328 C314 0.960 . S
H329 C315 0.961 . S
H330 C315 0.961 . S
H331 C315 0.961 . S
H332 C316 0.931 . S
H333 C321 0.930 . S
H334 C322 0.956 . S
H335 C322 0.961 . S
H336 C322 0.961 . S
H337 C323 0.958 . S
H338 C323 0.961 . S
H339 C323 0.960 . S
C340 C341 1.391 . S
C340 C342 1.394 . S
C340 H356 0.931 . S
C341 C340 1.391 . S
C341 C345 1.376 . S
C342 C340 1.394 . S
C342 C343 1.369 . S
C342 C346 1.531 . S
C343 C342 1.369 . S
C343 C344 1.410 . S
C343 C351 1.503 1_556 S
C344 C343 1.410 . S
C344 C345 1.392 . S
C344 C347 1.511 . S
C345 C341 1.376 . S
C345 C344 1.392 . S
C345 H357 0.929 . S
C346 C342 1.531 . S
C346 H358 0.960 . S
C346 H359 0.962 . S
C346 H360 0.960 . S
C347 C344 1.511 . S
C347 H361 0.961 . S
C347 H362 0.961 1_556 S
C347 H363 0.961 . S
C348 C349 1.370 . S
C348 C350 1.363 . S
C348 H364 0.931 . S
C349 C348 1.370 . S
C349 C353 1.408 . S
C350 C348 1.363 . S
C350 C351 1.370 . S
C350 C354 1.524 . S
C351 C343 1.503 1_554 S
C351 C350 1.370 . S
C351 C352 1.403 . S
C352 C351 1.403 . S
C352 C353 1.404 . S
C352 C355 1.539 . S
C353 C349 1.408 . S
C353 C352 1.404 . S
C353 H365 0.930 . S
C354 C350 1.524 . S
C354 H366 0.956 1_554 S
C354 H367 0.961 1_554 S
C354 H368 0.961 . S
C355 C352 1.539 . S
C355 H369 0.958 . S
C355 H370 0.961 . S
C355 H371 0.960 . S
H356 C340 0.931 . S
H357 C345 0.929 . S
H358 C346 0.960 . S
H359 C346 0.962 . S
H360 C346 0.960 . S
H361 C347 0.961 . S
H362 C347 0.961 1_554 S
H363 C347 0.961 . S
H364 C348 0.931 . S
H365 C353 0.930 . S
H366 C354 0.956 1_556 S
H367 C354 0.961 1_556 S
H368 C354 0.961 . S
H369 C355 0.958 . S
H370 C355 0.961 . S
H371 C355 0.960 . S
C372 C373 1.391 . S
C372 C374 1.394 . S
C372 H388 0.931 . S
C373 C372 1.391 . S
C373 C377 1.376 . S
C374 C372 1.394 . S
C374 C375 1.369 . S
C374 C378 1.531 . S
C375 C374 1.369 . S
C375 C376 1.410 . S
C375 C383 1.503 . S
C376 C375 1.410 . S
C376 C377 1.392 . S
C376 C379 1.511 . S
C377 C373 1.376 . S
C377 C376 1.392 . S
C377 H389 0.929 . S
C378 C374 1.531 . S
C378 H390 0.960 . S
C378 H391 0.962 . S
C378 H392 0.960 . S
C379 C376 1.511 . S
C379 H393 0.961 . S
C379 H394 0.961 . S
C379 H395 0.961 . S
C380 C381 1.370 . S
C380 C382 1.363 . S
C380 H396 0.931 . S
C381 C380 1.370 . S
C381 C385 1.408 . S
C382 C380 1.363 . S
C382 C383 1.370 . S
C382 C386 1.524 . S
C383 C375 1.503 . S
C383 C382 1.370 . S
C383 C384 1.403 . S
C384 C383 1.403 . S
C384 C385 1.404 . S
C384 C387 1.539 . S
C385 C381 1.408 . S
C385 C384 1.404 . S
C385 H397 0.930 . S
C386 C382 1.524 . S
C386 H398 0.956 . S
C386 H399 0.961 . S
C386 H400 0.961 . S
C387 C384 1.539 . S
C387 H401 0.958 . S
C387 H402 0.961 . S
C387 H403 0.960 . S
H388 C372 0.931 . S
H389 C377 0.929 . S
H390 C378 0.960 . S
H391 C378 0.962 . S
H392 C378 0.960 . S
H393 C379 0.961 . S
H394 C379 0.961 . S
H395 C379 0.961 . S
H396 C380 0.931 . S
H397 C385 0.930 . S
H398 C386 0.956 . S
H399 C386 0.961 . S
H400 C386 0.961 . S
H401 C387 0.958 . S
H402 C387 0.961 . S
H403 C387 0.960 . S
C404 C405 1.391 . S
C404 C406 1.394 . S
C404 H420 0.931 . S
C405 C404 1.391 . S
C405 C409 1.376 . S
C406 C404 1.394 . S
C406 C407 1.369 . S
C406 C410 1.531 . S
C407 C406 1.369 . S
C407 C408 1.410 . S
C407 C415 1.503 . S
C408 C407 1.410 . S
C408 C409 1.392 . S
C408 C411 1.511 . S
C409 C405 1.376 . S
C409 C408 1.392 . S
C409 H421 0.929 . S
C410 C406 1.531 . S
C410 H422 0.960 . S
C410 H423 0.962 . S
C410 H424 0.960 . S
C411 C408 1.511 . S
C411 H425 0.961 . S
C411 H426 0.961 . S
C411 H427 0.961 . S
C412 C413 1.370 . S
C412 C414 1.363 . S
C412 H428 0.931 . S
C413 C412 1.370 . S
C413 C417 1.408 . S
C414 C412 1.363 . S
C414 C415 1.370 . S
C414 C418 1.524 . S
C415 C407 1.503 . S
C415 C414 1.370 . S
C415 C416 1.403 . S
C416 C415 1.403 . S
C416 C417 1.404 . S
C416 C419 1.539 . S
C417 C413 1.408 . S
C417 C416 1.404 . S
C417 H429 0.930 . S
C418 C414 1.524 . S
C418 H430 0.956 . S
C418 H431 0.961 . S
C418 H432 0.961 . S
C419 C416 1.539 . S
C419 H433 0.958 . S
C419 H434 0.961 . S
C419 H435 0.960 . S
H420 C404 0.931 . S
H421 C409 0.929 . S
H422 C410 0.960 . S
H423 C410 0.962 . S
H424 C410 0.960 . S
H425 C411 0.961 . S
H426 C411 0.961 . S
H427 C411 0.961 . S
H428 C412 0.931 . S
H429 C417 0.930 . S
H430 C418 0.956 . S
H431 C418 0.961 . S
H432 C418 0.961 . S
H433 C419 0.958 . S
H434 C419 0.961 . S
H435 C419 0.960 . S
C436 C437 1.391 . S
C436 C438 1.394 . S
C436 H452 0.931 . S
C437 C436 1.391 . S
C437 C441 1.376 . S
C438 C436 1.394 . S
C438 C439 1.369 . S
C438 C442 1.531 . S
C439 C438 1.369 . S
C439 C440 1.410 . S
C439 C447 1.503 1_554 S
C440 C439 1.410 . S
C440 C441 1.392 . S
C440 C443 1.511 . S
C441 C437 1.376 . S
C441 C440 1.392 . S
C441 H453 0.929 . S
C442 C438 1.531 . S
C442 H454 0.960 1_554 S
C442 H455 0.962 . S
C442 H456 0.960 . S
C443 C440 1.511 . S
C443 H457 0.961 . S
C443 H458 0.979 . S
C443 H459 0.961 . S
C444 C445 1.370 . S
C444 C446 1.363 . S
C444 H460 0.931 . S
C445 C444 1.370 . S
C445 C449 1.408 . S
C446 C444 1.363 . S
C446 C447 1.370 . S
C446 C450 1.524 . S
C447 C439 1.503 1_556 S
C447 C446 1.370 . S
C447 C448 1.403 . S
C448 C447 1.403 . S
C448 C449 1.404 . S
C448 C451 1.539 . S
C449 C445 1.408 . S
C449 C448 1.404 . S
C449 H461 0.930 . S
C450 C446 1.524 . S
C450 H462 0.956 . S
C450 H463 0.961 . S
C450 H464 0.961 . S
C451 C448 1.539 . S
C451 H465 0.958 . S
C451 H466 0.961 . S
C451 H467 0.960 1_556 S
H452 C436 0.931 . S
H453 C441 0.929 . S
H454 C442 0.960 1_556 S
H455 C442 0.962 . S
H456 C442 0.960 . S
H457 C443 0.961 . S
H458 C443 0.979 . S
H459 C443 0.961 . S
H460 C444 0.931 . S
H461 C449 0.930 . S
H462 C450 0.956 . S
H463 C450 0.961 . S
H464 C450 0.961 . S
H465 C451 0.958 . S
H466 C451 0.961 . S
H467 C451 0.960 1_554 S
C468 C469 1.391 . S
C468 C470 1.394 1_554 S
C468 H484 0.929 1_554 S
C469 C468 1.391 . S
C469 C473 1.376 . S
C470 C468 1.394 1_556 S
C470 C471 1.373 . S
C470 C474 1.531 . S
C471 C470 1.373 . S
C471 C472 1.397 1_556 S
C471 C479 1.509 . S
C472 C471 1.397 1_554 S
C472 C473 1.392 . S
C472 C475 1.511 . S
C473 C469 1.376 . S
C473 C472 1.392 . S
C473 H485 0.929 . S
C474 C470 1.531 . S
C474 H486 0.960 . S
C474 H487 0.962 . S
C474 H488 0.960 . S
C475 C472 1.511 . S
C475 H489 0.961 . S
C475 H490 0.961 . S
C475 H491 0.961 . S
C476 C477 1.377 . S
C476 C478 1.361 1_556 S
C476 H492 0.926 1_556 S
C477 C476 1.377 . S
C477 C481 1.408 . S
C478 C476 1.361 1_554 S
C478 C479 1.370 1_554 S
C478 C482 1.524 . S
C479 C471 1.509 . S
C479 C478 1.370 1_556 S
C479 C480 1.403 . S
C480 C479 1.403 . S
C480 C481 1.404 . S
C480 C483 1.539 . S
C481 C477 1.408 . S
C481 C480 1.404 . S
C481 H493 0.930 . S
C482 C478 1.524 . S
C482 H494 0.956 . S
C482 H495 0.961 . S
C482 H496 0.961 . S
C483 C480 1.539 . S
C483 H497 0.958 . S
C483 H498 0.961 . S
C483 H499 0.960 . S
H484 C468 0.929 1_556 S
H485 C473 0.929 . S
H486 C474 0.960 . S
H487 C474 0.962 . S
H488 C474 0.960 . S
H489 C475 0.961 . S
H490 C475 0.961 . S
H491 C475 0.961 . S
H492 C476 0.926 1_554 S
H493 C481 0.930 . S
H494 C482 0.956 . S
H495 C482 0.961 . S
H496 C482 0.961 . S
H497 C483 0.958 . S
H498 C483 0.961 . S
H499 C483 0.960 . S
C500 C501 1.391 . S
C500 C502 1.394 . S
C500 H516 0.931 . S
C501 C500 1.391 . S
C501 C505 1.376 . S
C502 C500 1.394 . S
C502 C503 1.369 . S
C502 C506 1.531 . S
C503 C502 1.369 . S
C503 C504 1.410 . S
C503 C511 1.503 . S
C504 C503 1.410 . S
C504 C505 1.392 . S
C504 C507 1.511 . S
C505 C501 1.376 . S
C505 C504 1.392 . S
C505 H517 0.929 . S
C506 C502 1.531 . S
C506 H518 0.960 . S
C506 H519 0.962 . S
C506 H520 0.960 . S
C507 C504 1.511 . S
C507 H521 0.961 . S
C507 H522 0.961 . S
C507 H523 0.961 . S
C508 C509 1.370 . S
C508 C510 1.363 . S
C508 H524 0.931 . S
C509 C508 1.370 . S
C509 C513 1.408 . S
C510 C508 1.363 . S
C510 C511 1.370 . S
C510 C514 1.524 . S
C511 C503 1.503 . S
C511 C510 1.370 . S
C511 C512 1.403 . S
C512 C511 1.403 . S
C512 C513 1.404 . S
C512 C515 1.539 . S
C513 C509 1.408 . S
C513 C512 1.404 . S
C513 H525 0.930 . S
C514 C510 1.524 . S
C514 H526 0.956 . S
C514 H527 0.961 . S
C514 H528 0.961 . S
C515 C512 1.539 . S
C515 H529 0.958 . S
C515 H530 0.961 . S
C515 H531 0.960 . S
H516 C500 0.931 . S
H517 C505 0.929 . S
H518 C506 0.960 . S
H519 C506 0.962 . S
H520 C506 0.960 . S
H521 C507 0.961 . S
H522 C507 0.961 . S
H523 C507 0.961 . S
H524 C508 0.931 . S
H525 C513 0.930 . S
H526 C514 0.956 . S
H527 C514 0.961 . S
H528 C514 0.961 . S
H529 C515 0.958 . S
H530 C515 0.961 . S
H531 C515 0.960 . S
C532 C533 1.391 . S
C532 C534 1.394 . S
C532 H548 0.931 . S
C533 C532 1.391 . S
C533 C537 1.376 . S
C534 C532 1.394 . S
C534 C535 1.369 . S
C534 C538 1.531 . S
C535 C534 1.369 . S
C535 C536 1.410 . S
C535 C543 1.503 . S
C536 C535 1.410 . S
C536 C537 1.392 . S
C536 C539 1.511 . S
C537 C533 1.376 . S
C537 C536 1.392 . S
C537 H549 0.929 . S
C538 C534 1.531 . S
C538 H550 0.960 . S
C538 H551 0.962 . S
C538 H552 0.960 . S
C539 C536 1.511 . S
C539 H553 0.961 . S
C539 H554 0.961 . S
C539 H555 0.961 . S
C540 C541 1.370 . S
C540 C542 1.363 . S
C540 H556 0.931 . S
C541 C540 1.370 . S
C541 C545 1.408 . S
C542 C540 1.363 . S
C542 C543 1.370 . S
C542 C546 1.524 . S
C543 C535 1.503 . S
C543 C542 1.370 . S
C543 C544 1.403 . S
C544 C543 1.403 . S
C544 C545 1.404 . S
C544 C547 1.539 . S
C545 C541 1.408 . S
C545 C544 1.404 . S
C545 H557 0.930 . S
C546 C542 1.524 . S
C546 H558 0.956 . S
C546 H559 0.961 . S
C546 H560 0.961 . S
C547 C544 1.539 . S
C547 H561 0.958 . S
C547 H562 0.961 . S
C547 H563 0.960 . S
H548 C532 0.931 . S
H549 C537 0.929 . S
H550 C538 0.960 . S
H551 C538 0.962 . S
H552 C538 0.960 . S
H553 C539 0.961 . S
H554 C539 0.961 . S
H555 C539 0.961 . S
H556 C540 0.931 . S
H557 C545 0.930 . S
H558 C546 0.956 . S
H559 C546 0.961 . S
H560 C546 0.961 . S
H561 C547 0.958 . S
H562 C547 0.961 . S
H563 C547 0.960 . S
C564 C565 1.391 . S
C564 C566 1.394 . S
C564 H580 0.931 . S
C565 C564 1.391 . S
C565 C569 1.376 . S
C566 C564 1.394 . S
C566 C567 1.374 . S
C566 C570 1.531 . S
C567 C566 1.374 . S
C567 C568 1.407 1_554 S
C567 C575 1.501 1_554 S
C568 C567 1.407 1_556 S
C568 C569 1.392 1_556 S
C568 C571 1.511 . S
C569 C565 1.376 . S
C569 C568 1.392 1_554 S
C569 H581 0.929 1_554 S
C570 C566 1.531 . S
C570 H582 0.960 . S
C570 H583 0.962 . S
C570 H584 0.960 . S
C571 C568 1.511 . S
C571 H585 0.961 . S
C571 H586 0.961 . S
C571 H587 0.961 . S
C572 C573 1.370 . S
C572 C574 1.363 1_556 S
C572 H588 0.931 1_556 S
C573 C572 1.370 . S
C573 C577 1.408 . S
C574 C572 1.363 1_554 S
C574 C575 1.370 1_554 S
C574 C578 1.524 . S
C575 C567 1.501 1_556 S
C575 C574 1.370 1_556 S
C575 C576 1.403 . S
C576 C575 1.403 . S
C576 C577 1.404 . S
C576 C579 1.539 . S
C577 C573 1.408 . S
C577 C576 1.404 . S
C577 H589 0.930 . S
C578 C574 1.524 . S
C578 H590 0.956 . S
C578 H591 0.961 . S
C578 H592 0.961 . S
C579 C576 1.539 . S
C579 H593 0.958 . S
C579 H594 0.961 . S
C579 H595 0.960 . S
H580 C564 0.931 . S
H581 C569 0.929 1_556 S
H582 C570 0.960 . S
H583 C570 0.962 . S
H584 C570 0.960 . S
H585 C571 0.961 . S
H586 C571 0.961 . S
H587 C571 0.961 . S
H588 C572 0.931 1_554 S
H589 C577 0.930 . S
H590 C578 0.956 . S
H591 C578 0.961 . S
H592 C578 0.961 . S
H593 C579 0.958 . S
H594 C579 0.961 . S
H595 C579 0.960 . S
C596 C597 1.391 . S
C596 C598 1.394 . S
C596 H612 0.931 . S
C597 C596 1.391 . S
C597 C601 1.376 . S
C598 C596 1.394 . S
C598 C599 1.369 . S
C598 C602 1.531 . S
C599 C598 1.369 . S
C599 C600 1.410 . S
C599 C607 1.503 . S
C600 C599 1.410 . S
C600 C601 1.392 . S
C600 C603 1.511 . S
C601 C597 1.376 . S
C601 C600 1.392 . S
C601 H613 0.929 . S
C602 C598 1.531 . S
C602 H614 0.960 . S
C602 H615 0.962 . S
C602 H616 0.960 . S
C603 C600 1.511 . S
C603 H617 0.961 . S
C603 H618 0.961 . S
C603 H619 0.961 . S
C604 C605 1.370 . S
C604 C606 1.363 . S
C604 H620 0.931 . S
C605 C604 1.370 . S
C605 C609 1.408 . S
C606 C604 1.363 . S
C606 C607 1.370 . S
C606 C610 1.524 . S
C607 C599 1.503 . S
C607 C606 1.370 . S
C607 C608 1.403 . S
C608 C607 1.403 . S
C608 C609 1.404 . S
C608 C611 1.539 . S
C609 C605 1.408 . S
C609 C608 1.404 . S
C609 H621 0.930 . S
C610 C606 1.524 . S
C610 H622 0.956 . S
C610 H623 0.961 . S
C610 H624 0.961 . S
C611 C608 1.539 . S
C611 H625 0.958 . S
C611 H626 0.961 . S
C611 H627 0.960 . S
H612 C596 0.931 . S
H613 C601 0.929 . S
H614 C602 0.960 . S
H615 C602 0.962 . S
H616 C602 0.960 . S
H617 C603 0.961 . S
H618 C603 0.961 . S
H619 C603 0.961 . S
H620 C604 0.931 . S
H621 C609 0.930 . S
H622 C610 0.956 . S
H623 C610 0.961 . S
H624 C610 0.961 . S
H625 C611 0.958 . S
H626 C611 0.961 . S
H627 C611 0.960 . S
C628 C629 1.391 . S
C628 C630 1.394 . S
C628 H644 0.931 . S
C629 C628 1.391 . S
C629 C633 1.376 . S
C630 C628 1.394 . S
C630 C631 1.369 . S
C630 C634 1.531 . S
C631 C630 1.369 . S
C631 C632 1.410 . S
C631 C639 1.503 . S
C632 C631 1.410 . S
C632 C633 1.392 . S
C632 C635 1.511 . S
C633 C629 1.376 . S
C633 C632 1.392 . S
C633 H645 0.929 . S
C634 C630 1.531 . S
C634 H646 0.960 . S
C634 H647 0.962 . S
C634 H648 0.960 . S
C635 C632 1.511 . S
C635 H649 0.961 . S
C635 H650 0.961 . S
C635 H651 0.961 . S
C636 C637 1.370 . S
C636 C638 1.363 . S
C636 H652 0.931 . S
C637 C636 1.370 . S
C637 C641 1.408 . S
C638 C636 1.363 . S
C638 C639 1.370 . S
C638 C642 1.524 . S
C639 C631 1.503 . S
C639 C638 1.370 . S
C639 C640 1.403 . S
C640 C639 1.403 . S
C640 C641 1.404 . S
C640 C643 1.539 . S
C641 C637 1.408 . S
C641 C640 1.404 . S
C641 H653 0.930 . S
C642 C638 1.524 . S
C642 H654 0.956 . S
C642 H655 0.961 . S
C642 H656 0.961 . S
C643 C640 1.539 . S
C643 H657 0.958 . S
C643 H658 0.961 . S
C643 H659 0.960 . S
H644 C628 0.931 . S
H645 C633 0.929 . S
H646 C634 0.960 . S
H647 C634 0.962 . S
H648 C634 0.960 . S
H649 C635 0.961 . S
H650 C635 0.961 . S
H651 C635 0.961 . S
H652 C636 0.931 . S
H653 C641 0.930 . S
H654 C642 0.956 . S
H655 C642 0.961 . S
H656 C642 0.961 . S
H657 C643 0.958 . S
H658 C643 0.961 . S
H659 C643 0.960 . S
C660 C661 1.391 . S
C660 C662 1.394 . S
C660 H676 0.931 . S
C661 C660 1.391 . S
C661 C665 1.376 . S
C662 C660 1.394 . S
C662 C663 1.369 . S
C662 C666 1.531 . S
C663 C662 1.369 . S
C663 C664 1.410 . S
C663 C671 1.503 . S
C664 C663 1.410 . S
C664 C665 1.392 . S
C664 C667 1.511 . S
C665 C661 1.376 . S
C665 C664 1.392 . S
C665 H677 0.929 . S
C666 C662 1.531 . S
C666 H678 0.960 . S
C666 H679 0.962 . S
C666 H680 0.960 . S
C667 C664 1.511 . S
C667 H681 0.961 . S
C667 H682 0.961 . S
C667 H683 0.961 . S
C668 C669 1.370 . S
C668 C670 1.363 . S
C668 H684 0.931 . S
C669 C668 1.370 . S
C669 C673 1.408 . S
C670 C668 1.363 . S
C670 C671 1.370 . S
C670 C674 1.524 . S
C671 C663 1.503 . S
C671 C670 1.370 . S
C671 C672 1.403 . S
C672 C671 1.403 . S
C672 C673 1.404 . S
C672 C675 1.539 . S
C673 C669 1.408 . S
C673 C672 1.404 . S
C673 H685 0.930 . S
C674 C670 1.524 . S
C674 H686 0.956 . S
C674 H687 0.961 . S
C674 H688 0.961 . S
C675 C672 1.539 . S
C675 H689 0.958 . S
C675 H690 0.961 . S
C675 H691 0.960 . S
H676 C660 0.931 . S
H677 C665 0.929 . S
H678 C666 0.960 . S
H679 C666 0.962 . S
H680 C666 0.960 . S
H681 C667 0.961 . S
H682 C667 0.961 . S
H683 C667 0.961 . S
H684 C668 0.931 . S
H685 C673 0.930 . S
H686 C674 0.956 . S
H687 C674 0.961 . S
H688 C674 0.961 . S
H689 C675 0.958 . S
H690 C675 0.961 . S
H691 C675 0.960 . S
C692 C693 1.391 . S
C692 C694 1.394 . S
C692 H708 0.931 . S
C693 C692 1.391 . S
C693 C697 1.376 . S
C694 C692 1.394 . S
C694 C695 1.369 . S
C694 C698 1.531 . S
C695 C694 1.369 . S
C695 C696 1.410 . S
C695 C703 1.503 1_655 S
C696 C695 1.410 . S
C696 C697 1.392 . S
C696 C699 1.511 . S
C697 C693 1.376 . S
C697 C696 1.392 . S
C697 H709 0.929 . S
C698 C694 1.531 . S
C698 H710 0.960 1_655 S
C698 H711 0.962 . S
C698 H712 0.960 . S
C699 C696 1.511 . S
C699 H713 0.961 . S
C699 H714 0.961 1_655 S
C699 H715 0.961 . S
C700 C701 1.370 . S
C700 C702 1.363 . S
C700 H716 0.931 . S
C701 C700 1.370 . S
C701 C705 1.408 . S
C702 C700 1.363 . S
C702 C703 1.370 . S
C702 C706 1.524 . S
C703 C695 1.503 1_455 S
C703 C702 1.370 . S
C703 C704 1.403 . S
C704 C703 1.403 . S
C704 C705 1.404 . S
C704 C707 1.539 . S
C705 C701 1.408 . S
C705 C704 1.404 . S
C705 H717 0.930 . S
C706 C702 1.524 . S
C706 H718 0.943 1_455 S
C706 H719 0.961 1_455 S
C706 H720 0.961 . S
C707 C704 1.539 . S
C707 H721 0.958 . S
C707 H722 0.961 . S
C707 H723 0.960 . S
H708 C692 0.931 . S
H709 C697 0.929 . S
H710 C698 0.960 1_455 S
H711 C698 0.962 . S
H712 C698 0.960 . S
H713 C699 0.961 . S
H714 C699 0.961 1_455 S
H715 C699 0.961 . S
H716 C700 0.931 . S
H717 C705 0.930 . S
H718 C706 0.943 1_655 S
H719 C706 0.961 1_655 S
H720 C706 0.961 . S
H721 C707 0.958 . S
H722 C707 0.961 . S
H723 C707 0.960 . S
C724 C725 1.391 . S
C724 C726 1.394 . S
C724 H740 0.931 . S
C725 C724 1.391 . S
C725 C729 1.376 . S
C726 C724 1.394 . S
C726 C727 1.369 . S
C726 C730 1.531 . S
C727 C726 1.369 . S
C727 C728 1.410 . S
C727 C735 1.503 1_545 S
C728 C727 1.410 . S
C728 C729 1.392 . S
C728 C731 1.511 . S
C729 C725 1.376 . S
C729 C728 1.392 . S
C729 H741 0.929 . S
C730 C726 1.531 . S
C730 H742 0.960 1_545 S
C730 H743 0.962 . S
C730 H744 0.960 . S
C731 C728 1.511 . S
C731 H745 0.961 . S
C731 H746 0.961 1_545 S
C731 H747 0.961 . S
C732 C733 1.370 . S
C732 C734 1.363 . S
C732 H748 0.931 . S
C733 C732 1.370 . S
C733 C737 1.408 . S
C734 C732 1.363 . S
C734 C735 1.370 . S
C734 C738 1.524 . S
C735 C727 1.503 1_565 S
C735 C734 1.370 . S
C735 C736 1.403 . S
C736 C735 1.403 . S
C736 C737 1.404 . S
C736 C739 1.539 . S
C737 C733 1.408 . S
C737 C736 1.404 . S
C737 H749 0.930 . S
C738 C734 1.524 . S
C738 H750 0.951 1_565 S
C738 H751 0.961 1_565 S
C738 H752 0.961 . S
C739 C736 1.539 . S
C739 H753 0.958 . S
C739 H754 0.961 . S
C739 H755 0.960 . S
H740 C724 0.931 . S
H741 C729 0.929 . S
H742 C730 0.960 1_565 S
H743 C730 0.962 . S
H744 C730 0.960 . S
H745 C731 0.961 . S
H746 C731 0.961 1_565 S
H747 C731 0.961 . S
H748 C732 0.931 . S
H749 C737 0.930 . S
H750 C738 0.951 1_545 S
H751 C738 0.961 1_545 S
H752 C738 0.961 . S
H753 C739 0.958 . S
H754 C739 0.961 . S
H755 C739 0.960 . S
C756 C757 1.391 . S
C756 C758 1.394 . S
C756 H772 0.931 . S
C757 C756 1.391 . S
C757 C761 1.376 . S
C758 C756 1.394 . S
C758 C759 1.369 . S
C758 C762 1.531 . S
C759 C758 1.369 . S
C759 C760 1.410 . S
C759 C767 1.503 . S
C760 C759 1.410 . S
C760 C761 1.392 . S
C760 C763 1.511 . S
C761 C757 1.376 . S
C761 C760 1.392 . S
C761 H773 0.929 . S
C762 C758 1.531 . S
C762 H774 0.960 . S
C762 H775 0.962 . S
C762 H776 0.960 . S
C763 C760 1.511 . S
C763 H777 0.961 . S
C763 H778 0.961 . S
C763 H779 0.961 . S
C764 C765 1.370 . S
C764 C766 1.363 . S
C764 H780 0.931 . S
C765 C764 1.370 . S
C765 C769 1.408 . S
C766 C764 1.363 . S
C766 C767 1.370 . S
C766 C770 1.524 . S
C767 C759 1.503 . S
C767 C766 1.370 . S
C767 C768 1.403 . S
C768 C767 1.403 . S
C768 C769 1.404 . S
C768 C771 1.539 . S
C769 C765 1.408 . S
C769 C768 1.404 . S
C769 H781 0.930 . S
C770 C766 1.524 . S
C770 H782 0.956 . S
C770 H783 0.961 . S
C770 H784 0.961 . S
C771 C768 1.539 . S
C771 H785 0.958 . S
C771 H786 0.961 . S
C771 H787 0.960 . S
H772 C756 0.931 . S
H773 C761 0.929 . S
H774 C762 0.960 . S
H775 C762 0.962 . S
H776 C762 0.960 . S
H777 C763 0.961 . S
H778 C763 0.961 . S
H779 C763 0.961 . S
H780 C764 0.931 . S
H781 C769 0.930 . S
H782 C770 0.956 . S
H783 C770 0.961 . S
H784 C770 0.961 . S
H785 C771 0.958 . S
H786 C771 0.961 . S
H787 C771 0.960 . S
C788 C789 1.391 . S
C788 C790 1.394 . S
C788 H804 0.931 . S
C789 C788 1.391 . S
C789 C793 1.376 . S
C790 C788 1.394 . S
C790 C791 1.369 . S
C790 C794 1.531 . S
C791 C790 1.369 . S
C791 C792 1.410 . S
C791 C799 1.503 1_455 S
C792 C791 1.410 . S
C792 C793 1.392 . S
C792 C795 1.511 . S
C793 C789 1.376 . S
C793 C792 1.392 . S
C793 H805 0.929 . S
C794 C790 1.531 . S
C794 H806 0.960 1_455 S
C794 H807 0.962 . S
C794 H808 0.960 . S
C795 C792 1.511 . S
C795 H809 0.961 . S
C795 H810 0.938 1_455 S
C795 H811 0.961 . S
C796 C797 1.370 . S
C796 C798 1.363 . S
C796 H812 0.931 . S
C797 C796 1.370 . S
C797 C801 1.408 . S
C798 C796 1.363 . S
C798 C799 1.370 . S
C798 C802 1.524 . S
C799 C791 1.503 1_655 S
C799 C798 1.370 . S
C799 C800 1.403 . S
C800 C799 1.403 . S
C800 C801 1.404 . S
C800 C803 1.539 . S
C801 C797 1.408 . S
C801 C800 1.404 . S
C801 H813 0.930 . S
C802 C798 1.524 . S
C802 H814 0.956 . S
C802 H815 0.961 1_655 S
C802 H816 0.961 . S
C803 C800 1.539 . S
C803 H817 0.958 . S
C803 H818 0.961 . S
C803 H819 0.934 1_655 S
H804 C788 0.931 . S
H805 C793 0.929 . S
H806 C794 0.960 1_655 S
H807 C794 0.962 . S
H808 C794 0.960 . S
H809 C795 0.961 . S
H810 C795 0.938 1_655 S
H811 C795 0.961 . S
H812 C796 0.931 . S
H813 C801 0.930 . S
H814 C802 0.956 . S
H815 C802 0.961 1_455 S
H816 C802 0.961 . S
H817 C803 0.958 . S
H818 C803 0.961 . S
H819 C803 0.934 1_455 S
C820 C821 1.391 . S
C820 C822 1.394 . S
C820 H836 0.931 . S
C821 C820 1.391 . S
C821 C825 1.376 . S
C822 C820 1.394 . S
C822 C823 1.369 . S
C822 C826 1.531 . S
C823 C822 1.369 . S
C823 C824 1.410 . S
C823 C831 1.503 1_565 S
C824 C823 1.410 . S
C824 C825 1.392 . S
C824 C827 1.511 . S
C825 C821 1.376 . S
C825 C824 1.392 . S
C825 H837 0.929 . S
C826 C822 1.531 . S
C826 H838 0.953 1_565 S
C826 H839 0.962 . S
C826 H840 0.960 . S
C827 C824 1.511 . S
C827 H841 0.961 . S
C827 H842 0.961 1_565 S
C827 H843 0.961 . S
C828 C829 1.370 . S
C828 C830 1.363 . S
C828 H844 0.931 . S
C829 C828 1.370 . S
C829 C833 1.408 . S
C830 C828 1.363 . S
C830 C831 1.370 . S
C830 C834 1.524 . S
C831 C823 1.503 1_545 S
C831 C830 1.370 . S
C831 C832 1.403 . S
C832 C831 1.403 . S
C832 C833 1.404 . S
C832 C835 1.539 . S
C833 C829 1.408 . S
C833 C832 1.404 . S
C833 H845 0.930 . S
C834 C830 1.524 . S
C834 H846 0.956 . S
C834 H847 0.961 1_545 S
C834 H848 0.961 . S
C835 C832 1.539 . S
C835 H849 0.958 . S
C835 H850 0.961 . S
C835 H851 0.960 . S
H836 C820 0.931 . S
H837 C825 0.929 . S
H838 C826 0.953 1_545 S
H839 C826 0.962 . S
H840 C826 0.960 . S
H841 C827 0.961 . S
H842 C827 0.961 1_545 S
H843 C827 0.961 . S
H844 C828 0.931 . S
H845 C833 0.930 . S
H846 C834 0.956 . S
H847 C834 0.961 1_565 S
H848 C834 0.961 . S
H849 C835 0.958 . S
H850 C835 0.961 . S
H851 C835 0.960 . S
C852 C853 1.391 . S
C852 C854 1.394 . S
C852 H868 0.931 . S
C853 C852 1.391 . S
C853 C857 1.376 . S
C854 C852 1.394 . S
C854 C855 1.369 . S
C854 C858 1.531 . S
C855 C854 1.369 . S
C855 C856 1.410 . S
C855 C863 1.503 . S
C856 C855 1.410 . S
C856 C857 1.392 . S
C856 C859 1.511 . S
C857 C853 1.376 . S
C857 C856 1.392 . S
C857 H869 0.929 . S
C858 C854 1.531 . S
C858 H870 0.960 . S
C858 H871 0.962 . S
C858 H872 0.960 . S
C859 C856 1.511 . S
C859 H873 0.961 . S
C859 H874 0.961 . S
C859 H875 0.961 . S
C860 C861 1.370 . S
C860 C862 1.363 . S
C860 H876 0.931 . S
C861 C860 1.370 . S
C861 C865 1.408 . S
C862 C860 1.363 . S
C862 C863 1.370 . S
C862 C866 1.524 . S
C863 C855 1.503 . S
C863 C862 1.370 . S
C863 C864 1.403 . S
C864 C863 1.403 . S
C864 C865 1.404 . S
C864 C867 1.539 . S
C865 C861 1.408 . S
C865 C864 1.404 . S
C865 H877 0.930 . S
C866 C862 1.524 . S
C866 H878 0.956 . S
C866 H879 0.961 . S
C866 H880 0.961 . S
C867 C864 1.539 . S
C867 H881 0.958 . S
C867 H882 0.961 . S
C867 H883 0.960 . S
H868 C852 0.931 . S
H869 C857 0.929 . S
H870 C858 0.960 . S
H871 C858 0.962 . S
H872 C858 0.960 . S
H873 C859 0.961 . S
H874 C859 0.961 . S
H875 C859 0.961 . S
H876 C860 0.931 . S
H877 C865 0.930 . S
H878 C866 0.956 . S
H879 C866 0.961 . S
H880 C866 0.961 . S
H881 C867 0.958 . S
H882 C867 0.961 . S
H883 C867 0.960 . S
C884 C885 1.391 . S
C884 C886 1.394 . S
C884 H900 0.931 . S
C885 C884 1.391 . S
C885 C889 1.376 . S
C886 C884 1.394 . S
C886 C887 1.369 . S
C886 C890 1.531 . S
C887 C886 1.369 . S
C887 C888 1.410 . S
C887 C895 1.503 . S
C888 C887 1.410 . S
C888 C889 1.392 . S
C888 C891 1.511 . S
C889 C885 1.376 . S
C889 C888 1.392 . S
C889 H901 0.929 . S
C890 C886 1.531 . S
C890 H902 0.960 . S
C890 H903 0.962 . S
C890 H904 0.960 . S
C891 C888 1.511 . S
C891 H905 0.961 . S
C891 H906 0.961 . S
C891 H907 0.961 . S
C892 C893 1.370 . S
C892 C894 1.363 . S
C892 H908 0.931 . S
C893 C892 1.370 . S
C893 C897 1.408 . S
C894 C892 1.363 . S
C894 C895 1.370 . S
C894 C898 1.524 . S
C895 C887 1.503 . S
C895 C894 1.370 . S
C895 C896 1.403 . S
C896 C895 1.403 . S
C896 C897 1.404 . S
C896 C899 1.539 . S
C897 C893 1.408 . S
C897 C896 1.404 . S
C897 H909 0.930 . S
C898 C894 1.524 . S
C898 H910 0.956 . S
C898 H911 0.961 . S
C898 H912 0.961 . S
C899 C896 1.539 . S
C899 H913 0.958 . S
C899 H914 0.961 . S
C899 H915 0.960 . S
H900 C884 0.931 . S
H901 C889 0.929 . S
H902 C890 0.960 . S
H903 C890 0.962 . S
H904 C890 0.960 . S
H905 C891 0.961 . S
H906 C891 0.961 . S
H907 C891 0.961 . S
H908 C892 0.931 . S
H909 C897 0.930 . S
H910 C898 0.956 . S
H911 C898 0.961 . S
H912 C898 0.961 . S
H913 C899 0.958 . S
H914 C899 0.961 . S
H915 C899 0.960 . S
C916 C917 1.391 . S
C916 C918 1.394 . S
C916 H932 0.931 . S
C917 C916 1.391 . S
C917 C921 1.376 . S
C918 C916 1.394 . S
C918 C919 1.369 . S
C918 C922 1.531 . S
C919 C918 1.369 . S
C919 C920 1.410 . S
C919 C927 1.503 . S
C920 C919 1.410 . S
C920 C921 1.392 . S
C920 C923 1.511 . S
C921 C917 1.376 . S
C921 C920 1.392 . S
C921 H933 0.929 . S
C922 C918 1.531 . S
C922 H934 0.960 . S
C922 H935 0.962 . S
C922 H936 0.960 . S
C923 C920 1.511 . S
C923 H937 0.961 . S
C923 H938 0.961 . S
C923 H939 0.961 . S
C924 C925 1.370 . S
C924 C926 1.363 . S
C924 H940 0.931 . S
C925 C924 1.370 . S
C925 C929 1.408 . S
C926 C924 1.363 . S
C926 C927 1.370 . S
C926 C930 1.524 . S
C927 C919 1.503 . S
C927 C926 1.370 . S
C927 C928 1.403 . S
C928 C927 1.403 . S
C928 C929 1.404 . S
C928 C931 1.539 . S
C929 C925 1.408 . S
C929 C928 1.404 . S
C929 H941 0.930 . S
C930 C926 1.524 . S
C930 H942 0.956 . S
C930 H943 0.961 . S
C930 H944 0.961 . S
C931 C928 1.539 . S
C931 H945 0.958 . S
C931 H946 0.961 . S
C931 H947 0.960 . S
H932 C916 0.931 . S
H933 C921 0.929 . S
H934 C922 0.960 . S
H935 C922 0.962 . S
H936 C922 0.960 . S
H937 C923 0.961 . S
H938 C923 0.961 . S
H939 C923 0.961 . S
H940 C924 0.931 . S
H941 C929 0.930 . S
H942 C930 0.956 . S
H943 C930 0.961 . S
H944 C930 0.961 . S
H945 C931 0.958 . S
H946 C931 0.961 . S
H947 C931 0.960 . S
C948 C949 1.391 . S
C948 C950 1.394 . S
C948 H964 0.931 . S
C949 C948 1.391 . S
C949 C953 1.376 . S
C950 C948 1.394 . S
C950 C951 1.369 . S
C950 C954 1.531 . S
C951 C950 1.369 . S
C951 C952 1.410 . S
C951 C959 1.503 . S
C952 C951 1.410 . S
C952 C953 1.392 . S
C952 C955 1.511 . S
C953 C949 1.376 . S
C953 C952 1.392 . S
C953 H965 0.929 . S
C954 C950 1.531 . S
C954 H966 0.960 . S
C954 H967 0.962 . S
C954 H968 0.960 . S
C955 C952 1.511 . S
C955 H969 0.961 . S
C955 H970 0.961 . S
C955 H971 0.961 . S
C956 C957 1.370 . S
C956 C958 1.363 . S
C956 H972 0.931 . S
C957 C956 1.370 . S
C957 C961 1.408 . S
C958 C956 1.363 . S
C958 C959 1.370 . S
C958 C962 1.524 . S
C959 C951 1.503 . S
C959 C958 1.370 . S
C959 C960 1.403 . S
C960 C959 1.403 . S
C960 C961 1.404 . S
C960 C963 1.539 . S
C961 C957 1.408 . S
C961 C960 1.404 . S
C961 H973 0.930 . S
C962 C958 1.524 . S
C962 H974 0.956 . S
C962 H975 0.961 . S
C962 H976 0.961 . S
C963 C960 1.539 . S
C963 H977 0.958 . S
C963 H978 0.961 . S
C963 H979 0.960 . S
H964 C948 0.931 . S
H965 C953 0.929 . S
H966 C954 0.960 . S
H967 C954 0.962 . S
H968 C954 0.960 . S
H969 C955 0.961 . S
H970 C955 0.961 . S
H971 C955 0.961 . S
H972 C956 0.931 . S
H973 C961 0.930 . S
H974 C962 0.956 . S
H975 C962 0.961 . S
H976 C962 0.961 . S
H977 C963 0.958 . S
H978 C963 0.961 . S
H979 C963 0.960 . S
C980 C981 1.391 . S
C980 C982 1.394 . S
C980 H996 0.931 . S
C981 C980 1.391 . S
C981 C985 1.376 . S
C982 C980 1.394 . S
C982 C983 1.369 . S
C982 C986 1.531 . S
C983 C982 1.369 . S
C983 C984 1.410 . S
C983 C991 1.503 . S
C984 C983 1.410 . S
C984 C985 1.392 . S
C984 C987 1.511 . S
C985 C981 1.376 . S
C985 C984 1.392 . S
C985 H997 0.929 . S
C986 C982 1.531 . S
C986 H998 0.960 . S
C986 H999 0.962 . S
C986 H1000 0.960 . S
C987 C984 1.511 . S
C987 H1001 0.961 . S
C987 H1002 0.961 . S
C987 H1003 0.961 . S
C988 C989 1.370 . S
C988 C990 1.363 . S
C988 H1004 0.931 . S
C989 C988 1.370 . S
C989 C993 1.408 . S
C990 C988 1.363 . S
C990 C991 1.370 . S
C990 C994 1.524 . S
C991 C983 1.503 . S
C991 C990 1.370 . S
C991 C992 1.403 . S
C992 C991 1.403 . S
C992 C993 1.404 . S
C992 C995 1.539 . S
C993 C989 1.408 . S
C993 C992 1.404 . S
C993 H1005 0.930 . S
C994 C990 1.524 . S
C994 H1006 0.956 . S
C994 H1007 0.961 . S
C994 H1008 0.961 . S
C995 C992 1.539 . S
C995 H1009 0.958 . S
C995 H1010 0.961 . S
C995 H1011 0.960 . S
H996 C980 0.931 . S
H997 C985 0.929 . S
H998 C986 0.960 . S
H999 C986 0.962 . S
H1000 C986 0.960 . S
H1001 C987 0.961 . S
H1002 C987 0.961 . S
H1003 C987 0.961 . S
H1004 C988 0.931 . S
H1005 C993 0.930 . S
H1006 C994 0.956 . S
H1007 C994 0.961 . S
H1008 C994 0.961 . S
H1009 C995 0.958 . S
H1010 C995 0.961 . S
H1011 C995 0.960 . S
C1012 C1013 1.391 . S
C1012 C1014 1.394 . S
C1012 H1028 0.931 . S
C1013 C1012 1.391 . S
C1013 C1017 1.376 . S
C1014 C1012 1.394 . S
C1014 C1015 1.369 . S
C1014 C1018 1.531 . S
C1015 C1014 1.369 . S
C1015 C1016 1.410 . S
C1015 C1023 1.503 . S
C1016 C1015 1.410 . S
C1016 C1017 1.392 . S
C1016 C1019 1.511 . S
C1017 C1013 1.376 . S
C1017 C1016 1.392 . S
C1017 H1029 0.929 . S
C1018 C1014 1.531 . S
C1018 H1030 0.960 . S
C1018 H1031 0.962 . S
C1018 H1032 0.960 . S
C1019 C1016 1.511 . S
C1019 H1033 0.961 . S
C1019 H1034 0.961 . S
C1019 H1035 0.961 . S
C1020 C1021 1.370 . S
C1020 C1022 1.363 . S
C1020 H1036 0.931 . S
C1021 C1020 1.370 . S
C1021 C1025 1.408 . S
C1022 C1020 1.363 . S
C1022 C1023 1.370 . S
C1022 C1026 1.524 . S
C1023 C1015 1.503 . S
C1023 C1022 1.370 . S
C1023 C1024 1.403 . S
C1024 C1023 1.403 . S
C1024 C1025 1.404 . S
C1024 C1027 1.539 . S
C1025 C1021 1.408 . S
C1025 C1024 1.404 . S
C1025 H1037 0.930 . S
C1026 C1022 1.524 . S
C1026 H1038 0.956 . S
C1026 H1039 0.961 . S
C1026 H1040 0.961 . S
C1027 C1024 1.539 . S
C1027 H1041 0.958 . S
C1027 H1042 0.961 . S
C1027 H1043 0.960 . S
H1028 C1012 0.931 . S
H1029 C1017 0.929 . S
H1030 C1018 0.960 . S
H1031 C1018 0.962 . S
H1032 C1018 0.960 . S
H1033 C1019 0.961 . S
H1034 C1019 0.961 . S
H1035 C1019 0.961 . S
H1036 C1020 0.931 . S
H1037 C1025 0.930 . S
H1038 C1026 0.956 . S
H1039 C1026 0.961 . S
H1040 C1026 0.961 . S
H1041 C1027 0.958 . S
H1042 C1027 0.961 . S
H1043 C1027 0.960 . S
C277 C16 1.469 . S
C285 C154 1.481 . S
C309 C39 1.469 . S
C317 C177 1.492 . S
C341 C62 1.480 . S
C349 C200 1.479 . S
C373 C85 1.502 . S
C381 C223 1.489 . S
C405 C108 1.480 . S
C413 C246 1.495 . S
C437 C269 1.480 . S
C445 C131 1.495 . S
C469 N12 1.717 . S
C477 N242 1.705 . S
C501 N35 1.702 . S
C509 N265 1.714 . S
C533 N58 1.699 . S
C541 N150 1.716 . S
C565 N81 1.720 . S
C573 N173 1.706 . S
C597 N104 1.719 . S
C605 N196 1.705 . S
C629 N127 1.693 . S
C637 N219 1.717 . S
C661 N2 1.625 . S
C669 N71 1.668 . S
C693 N25 1.685 . S
C701 N94 1.654 . S
C725 N117 1.703 . S
C733 N48 1.665 . S
C757 N140 1.643 . S
C765 N209 1.683 . S
C789 N232 1.684 . S
C797 N163 1.683 . S
C821 N186 1.646 . S
C829 N255 1.655 . S
C853 C145 1.477 . S
C861 C7 1.471 . S
C885 C30 1.456 . S
C893 C168 1.466 . S
C917 C53 1.468 . S
C925 C191 1.474 . S
C949 C214 1.455 . S
C957 C76 1.469 . S
C981 C237 1.458 . S
C989 C99 1.472 . S
C1013 C122 1.471 . S
C1021 C260 1.474 . S
