# Generated by pormake.
# Topology unw, (4)-cn, num edge types: 1
# Building blocks:
#     Node 0, Type 0, BuildingBlock: GALJAG_clean_sbu_0, # of connection points: 4
#     Node 1, Type 0, BuildingBlock: GALJAG_clean_sbu_0, # of connection points: 4
#     Node 2, Type 0, BuildingBlock: GALJAG_clean_sbu_0, # of connection points: 4
#     Node 3, Type 0, BuildingBlock: GALJAG_clean_sbu_0, # of connection points: 4
#     Node 4, Type 0, BuildingBlock: GALJAG_clean_sbu_0, # of connection points: 4
#     Node 5, Type 0, BuildingBlock: GALJAG_clean_sbu_0, # of connection points: 4
#     Node 6, Type 0, BuildingBlock: GALJAG_clean_sbu_0, # of connection points: 4
#     Node 7, Type 0, BuildingBlock: GALJAG_clean_sbu_0, # of connection points: 4
#     Node 8, Type 0, BuildingBlock: GALJAG_clean_sbu_0, # of connection points: 4
#     Node 9, Type 0, BuildingBlock: GALJAG_clean_sbu_0, # of connection points: 4
#     Node 10, Type 0, BuildingBlock: GALJAG_clean_sbu_0, # of connection points: 4
#     Node 11, Type 0, BuildingBlock: GALJAG_clean_sbu_0, # of connection points: 4
#     Node 12, Type 0, BuildingBlock: GALJAG_clean_sbu_0, # of connection points: 4
#     Node 13, Type 0, BuildingBlock: GALJAG_clean_sbu_0, # of connection points: 4
#     Node 14, Type 0, BuildingBlock: GALJAG_clean_sbu_0, # of connection points: 4
#     Node 15, Type 0, BuildingBlock: GALJAG_clean_sbu_0, # of connection points: 4
#     Node 16, Type 0, BuildingBlock: GALJAG_clean_sbu_0, # of connection points: 4
#     Node 17, Type 0, BuildingBlock: GALJAG_clean_sbu_0, # of connection points: 4
#     Node 18, Type 0, BuildingBlock: GALJAG_clean_sbu_0, # of connection points: 4
#     Node 19, Type 0, BuildingBlock: GALJAG_clean_sbu_0, # of connection points: 4
#     Node 20, Type 0, BuildingBlock: GALJAG_clean_sbu_0, # of connection points: 4
#     Node 21, Type 0, BuildingBlock: GALJAG_clean_sbu_0, # of connection points: 4
#     Node 22, Type 0, BuildingBlock: GALJAG_clean_sbu_0, # of connection points: 4
#     Node 23, Type 0, BuildingBlock: GALJAG_clean_sbu_0, # of connection points: 4
#     Edge 24, Type (0, 0), BuildingBlock: XIVTED_clean_linker_0, # of connection points: 2
#     Edge 25, Type (0, 0), BuildingBlock: XIVTED_clean_linker_0, # of connection points: 2
#     Edge 26, Type (0, 0), BuildingBlock: XIVTED_clean_linker_0, # of connection points: 2
#     Edge 27, Type (0, 0), BuildingBlock: XIVTED_clean_linker_0, # of connection points: 2
#     Edge 28, Type (0, 0), BuildingBlock: XIVTED_clean_linker_0, # of connection points: 2
#     Edge 29, Type (0, 0), BuildingBlock: XIVTED_clean_linker_0, # of connection points: 2
#     Edge 30, Type (0, 0), BuildingBlock: XIVTED_clean_linker_0, # of connection points: 2
#     Edge 31, Type (0, 0), BuildingBlock: XIVTED_clean_linker_0, # of connection points: 2
#     Edge 32, Type (0, 0), BuildingBlock: XIVTED_clean_linker_0, # of connection points: 2
#     Edge 33, Type (0, 0), BuildingBlock: XIVTED_clean_linker_0, # of connection points: 2
#     Edge 34, Type (0, 0), BuildingBlock: XIVTED_clean_linker_0, # of connection points: 2
#     Edge 35, Type (0, 0), BuildingBlock: XIVTED_clean_linker_0, # of connection points: 2
#     Edge 36, Type (0, 0), BuildingBlock: XIVTED_clean_linker_0, # of connection points: 2
#     Edge 37, Type (0, 0), BuildingBlock: XIVTED_clean_linker_0, # of connection points: 2
#     Edge 38, Type (0, 0), BuildingBlock: XIVTED_clean_linker_0, # of connection points: 2
#     Edge 39, Type (0, 0), BuildingBlock: XIVTED_clean_linker_0, # of connection points: 2
#     Edge 40, Type (0, 0), BuildingBlock: XIVTED_clean_linker_0, # of connection points: 2
#     Edge 41, Type (0, 0), BuildingBlock: XIVTED_clean_linker_0, # of connection points: 2
#     Edge 42, Type (0, 0), BuildingBlock: XIVTED_clean_linker_0, # of connection points: 2
#     Edge 43, Type (0, 0), BuildingBlock: XIVTED_clean_linker_0, # of connection points: 2
#     Edge 44, Type (0, 0), BuildingBlock: XIVTED_clean_linker_0, # of connection points: 2
#     Edge 45, Type (0, 0), BuildingBlock: XIVTED_clean_linker_0, # of connection points: 2
#     Edge 46, Type (0, 0), BuildingBlock: XIVTED_clean_linker_0, # of connection points: 2
#     Edge 47, Type (0, 0), BuildingBlock: XIVTED_clean_linker_0, # of connection points: 2
#     Edge 48, Type (0, 0), BuildingBlock: XIVTED_clean_linker_0, # of connection points: 2
#     Edge 49, Type (0, 0), BuildingBlock: XIVTED_clean_linker_0, # of connection points: 2
#     Edge 50, Type (0, 0), BuildingBlock: XIVTED_clean_linker_0, # of connection points: 2
#     Edge 51, Type (0, 0), BuildingBlock: XIVTED_clean_linker_0, # of connection points: 2
#     Edge 52, Type (0, 0), BuildingBlock: XIVTED_clean_linker_0, # of connection points: 2
#     Edge 53, Type (0, 0), BuildingBlock: XIVTED_clean_linker_0, # of connection points: 2
#     Edge 54, Type (0, 0), BuildingBlock: XIVTED_clean_linker_0, # of connection points: 2
#     Edge 55, Type (0, 0), BuildingBlock: XIVTED_clean_linker_0, # of connection points: 2
#     Edge 56, Type (0, 0), BuildingBlock: XIVTED_clean_linker_0, # of connection points: 2
#     Edge 57, Type (0, 0), BuildingBlock: XIVTED_clean_linker_0, # of connection points: 2
#     Edge 58, Type (0, 0), BuildingBlock: XIVTED_clean_linker_0, # of connection points: 2
#     Edge 59, Type (0, 0), BuildingBlock: XIVTED_clean_linker_0, # of connection points: 2
#     Edge 60, Type (0, 0), BuildingBlock: XIVTED_clean_linker_0, # of connection points: 2
#     Edge 61, Type (0, 0), BuildingBlock: XIVTED_clean_linker_0, # of connection points: 2
#     Edge 62, Type (0, 0), BuildingBlock: XIVTED_clean_linker_0, # of connection points: 2
#     Edge 63, Type (0, 0), BuildingBlock: XIVTED_clean_linker_0, # of connection points: 2
#     Edge 64, Type (0, 0), BuildingBlock: XIVTED_clean_linker_0, # of connection points: 2
#     Edge 65, Type (0, 0), BuildingBlock: XIVTED_clean_linker_0, # of connection points: 2
#     Edge 66, Type (0, 0), BuildingBlock: XIVTED_clean_linker_0, # of connection points: 2
#     Edge 67, Type (0, 0), BuildingBlock: XIVTED_clean_linker_0, # of connection points: 2
#     Edge 68, Type (0, 0), BuildingBlock: XIVTED_clean_linker_0, # of connection points: 2
#     Edge 69, Type (0, 0), BuildingBlock: XIVTED_clean_linker_0, # of connection points: 2
#     Edge 70, Type (0, 0), BuildingBlock: XIVTED_clean_linker_0, # of connection points: 2
#     Edge 71, Type (0, 0), BuildingBlock: XIVTED_clean_linker_0, # of connection points: 2
# Relax obj value: 0.374
# Max RMSD: 0.256
# Mean RMSD: 0.255
data_MOF--net-unw--node1-GALJAG_clean_sbu_0--edge1-XIVTED_clean_linker_0
_symmetry_space_group_name_H-M    P1
_symmetry_Int_Tables_number       1
_symmetry_cell_setting            triclinic
loop_
_symmetry_equiv_pos_as_xyz
'x, y, z'
_cell_length_a     48.00071
_cell_length_b     48.020915
_cell_length_c     48.016824
_cell_angle_alpha  90.092662
_cell_angle_beta   90.006282
_cell_angle_gamma 90.149697
loop_
_atom_site_label
_atom_site_type_symbol
_atom_site_fract_x
_atom_site_fract_y
_atom_site_fract_z
_atom_type_partial_charge
In0 In 0.11782 0.36612 0.24202 0.0
O1 O 0.07531 0.34926 0.23031 0.0
O2 O 0.07968 0.37358 0.26764 0.0
C3 C 0.16009 0.35514 0.20821 0.0
C4 C 0.12912 0.32486 0.27684 0.0
C5 C 0.12463 0.41962 0.23058 0.0
O6 O 0.13509 0.35075 0.20046 0.0
O7 O 0.16311 0.36401 0.23283 0.0
O8 O 0.13317 0.40926 0.25338 0.0
O9 O 0.1099 0.40359 0.21559 0.0
C10 C 0.06433 0.358 0.25277 0.0
O11 O 0.13301 0.35009 0.28411 0.0
O12 O 0.12062 0.32115 0.25219 0.0
In13 In 0.61608 0.11334 0.23837 0.0
O14 O 0.63414 0.12876 0.19708 0.0
O15 O 0.6177 0.15799 0.22675 0.0
C16 C 0.62319 0.06051 0.25231 0.0
C17 C 0.56282 0.11948 0.22554 0.0
C18 C 0.65687 0.12734 0.27296 0.0
O19 O 0.63189 0.06994 0.22915 0.0
O20 O 0.60827 0.07704 0.26648 0.0
O21 O 0.63159 0.13233 0.2792 0.0
O22 O 0.66088 0.11598 0.24955 0.0
C23 C 0.62878 0.154 0.20322 0.0
O24 O 0.57272 0.1285 0.24841 0.0
O25 O 0.57921 0.10471 0.21106 0.0
In26 In 0.87035 0.61927 0.24568 0.0
O27 O 0.85479 0.63464 0.28794 0.0
O28 O 0.86905 0.66398 0.25725 0.0
C29 C 0.86311 0.56621 0.23232 0.0
C30 C 0.92403 0.6262 0.25636 0.0
C31 C 0.82782 0.63211 0.21289 0.0
O32 O 0.85493 0.57581 0.25562 0.0
O33 O 0.87761 0.58272 0.21767 0.0
O34 O 0.85277 0.63674 0.20514 0.0
O35 O 0.82499 0.62191 0.23698 0.0
C36 C 0.8597 0.65991 0.28151 0.0
O37 O 0.91312 0.63533 0.23404 0.0
O38 O 0.90842 0.6109 0.2712 0.0
In39 In 0.36985 0.87109 0.24365 0.0
O40 O 0.35356 0.91355 0.23165 0.0
O41 O 0.37917 0.9097 0.26812 0.0
C42 C 0.3556 0.8281 0.21188 0.0
C43 C 0.33018 0.86117 0.28077 0.0
C44 C 0.4225 0.86343 0.22911 0.0
O45 O 0.35134 0.85295 0.20374 0.0
O46 O 0.36618 0.82562 0.23586 0.0
O47 O 0.41348 0.85585 0.25282 0.0
O48 O 0.40567 0.87756 0.21455 0.0
C49 C 0.3634 0.92494 0.25347 0.0
O50 O 0.3556 0.85638 0.2866 0.0
O51 O 0.32548 0.87009 0.25647 0.0
In52 In 0.1162 0.61623 0.74117 0.0
O53 O 0.13275 0.63118 0.69914 0.0
O54 O 0.11843 0.66083 0.72952 0.0
C55 C 0.12246 0.56324 0.75487 0.0
C56 C 0.06281 0.62371 0.72971 0.0
C57 C 0.15844 0.62909 0.77445 0.0
O58 O 0.13101 0.57257 0.73161 0.0
O59 O 0.10805 0.58 0.76928 0.0
O60 O 0.13346 0.63418 0.78175 0.0
O61 O 0.16145 0.61832 0.75061 0.0
C62 C 0.12819 0.65654 0.70546 0.0
O63 O 0.07351 0.63266 0.75225 0.0
O64 O 0.07841 0.60829 0.71502 0.0
In65 In 0.37 0.11745 0.74579 0.0
O66 O 0.35279 0.13356 0.70456 0.0
O67 O 0.32479 0.11883 0.73632 0.0
C68 C 0.42327 0.12477 0.75805 0.0
C69 C 0.36328 0.06414 0.73346 0.0
C70 C 0.35809 0.15955 0.77943 0.0
O71 O 0.41315 0.13314 0.73506 0.0
O72 O 0.40714 0.10999 0.77287 0.0
O73 O 0.35369 0.13451 0.78704 0.0
O74 O 0.36763 0.16265 0.75509 0.0
C75 C 0.32781 0.12852 0.71203 0.0
O76 O 0.35475 0.07416 0.75646 0.0
O77 O 0.37798 0.0804 0.7187 0.0
In78 In 0.87024 0.37017 0.74298 0.0
O79 O 0.85451 0.41302 0.73148 0.0
O80 O 0.87832 0.40805 0.76899 0.0
C81 C 0.85853 0.3286 0.70842 0.0
C82 C 0.82843 0.35887 0.77732 0.0
C83 C 0.92369 0.36226 0.73199 0.0
O84 O 0.85451 0.35376 0.70113 0.0
O85 O 0.86745 0.32512 0.73293 0.0
O86 O 0.91285 0.35384 0.75463 0.0
O87 O 0.90823 0.37745 0.71698 0.0
C88 C 0.86329 0.42374 0.75406 0.0
O89 O 0.85353 0.35462 0.78471 0.0
O90 O 0.8251 0.36785 0.75282 0.0
In91 In 0.61734 0.87053 0.74421 0.0
O92 O 0.63457 0.8542 0.70304 0.0
O93 O 0.66261 0.86863 0.73493 0.0
C94 C 0.56394 0.86308 0.75577 0.0
C95 C 0.62413 0.92387 0.73213 0.0
C96 C 0.62857 0.82874 0.77836 0.0
O97 O 0.57439 0.85464 0.73293 0.0
O98 O 0.5798 0.87807 0.77072 0.0
O99 O 0.63311 0.85381 0.78581 0.0
O100 O 0.61936 0.82545 0.7539 0.0
C101 C 0.65958 0.85892 0.71062 0.0
O102 O 0.63268 0.91379 0.75507 0.0
O103 O 0.60946 0.90763 0.71728 0.0
In104 In 0.24367 0.11719 0.37158 0.0
O105 O 0.25495 0.13317 0.41444 0.0
O106 O 0.21853 0.10752 0.40961 0.0
C107 C 0.27613 0.13166 0.32927 0.0
C108 C 0.20683 0.15687 0.36111 0.0
C109 C 0.25812 0.06461 0.36352 0.0
O110 O 0.28383 0.13607 0.35427 0.0
O111 O 0.2523 0.1208 0.32632 0.0
O112 O 0.23454 0.07373 0.35569 0.0
O113 O 0.27257 0.08129 0.37808 0.0
C114 C 0.23294 0.12318 0.42531 0.0
O115 O 0.20105 0.13146 0.35605 0.0
O116 O 0.23094 0.16155 0.37066 0.0
In117 In 0.86964 0.24417 0.3681 0.0
O118 O 0.85626 0.28812 0.35552 0.0
O119 O 0.86903 0.25868 0.32431 0.0
C120 C 0.86182 0.22946 0.42072 0.0
C121 C 0.92383 0.25158 0.36066 0.0
C122 C 0.82605 0.21342 0.35313 0.0
O123 O 0.85472 0.25337 0.41193 0.0
O124 O 0.87551 0.21471 0.40368 0.0
O125 O 0.85077 0.20481 0.34911 0.0
O126 O 0.82395 0.23737 0.36383 0.0
C127 C 0.86096 0.28306 0.32991 0.0
O128 O 0.91115 0.23067 0.35044 0.0
O129 O 0.90968 0.26641 0.37729 0.0
In130 In 0.74058 0.86883 0.37108 0.0
O131 O 0.78264 0.85262 0.35604 0.0
O132 O 0.75108 0.82387 0.36978 0.0
C133 C 0.72821 0.92197 0.36371 0.0
C134 C 0.75157 0.86219 0.42463 0.0
C135 C 0.70766 0.85642 0.32847 0.0
O136 O 0.75128 0.91195 0.35546 0.0
O137 O 0.71331 0.90583 0.37838 0.0
O138 O 0.69962 0.85222 0.35339 0.0
O139 O 0.73209 0.86592 0.32573 0.0
C140 C 0.7756 0.82748 0.36084 0.0
O141 O 0.72906 0.8531 0.41394 0.0
O142 O 0.76636 0.87742 0.40891 0.0
In143 In 0.12071 0.74335 0.37051 0.0
O144 O 0.13708 0.70218 0.35327 0.0
O145 O 0.12373 0.73435 0.32523 0.0
C146 C 0.12753 0.75414 0.42418 0.0
C147 C 0.06744 0.73091 0.36307 0.0
C148 C 0.16187 0.77875 0.36003 0.0
O149 O 0.13685 0.73189 0.41326 0.0
O150 O 0.11214 0.76882 0.4086 0.0
O151 O 0.13665 0.78564 0.35561 0.0
O152 O 0.16564 0.75422 0.36872 0.0
C153 C 0.13301 0.70993 0.32825 0.0
O154 O 0.07761 0.75386 0.35458 0.0
O155 O 0.08351 0.7162 0.37791 0.0
In156 In 0.24587 0.86916 0.61888 0.0
O157 O 0.2346 0.91215 0.6345 0.0
O158 O 0.27208 0.90683 0.61062 0.0
C159 C 0.21214 0.82691 0.63027 0.0
C160 C 0.27983 0.85839 0.66102 0.0
C161 C 0.23411 0.86148 0.56557 0.0
O162 O 0.20433 0.85192 0.63438 0.0
O163 O 0.23678 0.82391 0.62145 0.0
O164 O 0.25702 0.8532 0.57594 0.0
O165 O 0.21917 0.87638 0.58144 0.0
C166 C 0.25723 0.92271 0.6256 0.0
O167 O 0.28748 0.85396 0.636 0.0
O168 O 0.25526 0.86732 0.6641 0.0
In169 In 0.11591 0.24133 0.61828 0.0
O170 O 0.13268 0.20027 0.63534 0.0
O171 O 0.16104 0.23168 0.62057 0.0
C172 C 0.06241 0.25274 0.62511 0.0
C173 C 0.12342 0.22875 0.56513 0.0
C174 C 0.12759 0.27665 0.65918 0.0
O175 O 0.07297 0.23034 0.63439 0.0
O176 O 0.07823 0.26723 0.6097 0.0
O177 O 0.13208 0.28332 0.63392 0.0
O178 O 0.11811 0.2524 0.66311 0.0
C179 C 0.15776 0.20757 0.63057 0.0
O180 O 0.13155 0.25191 0.57515 0.0
O181 O 0.10869 0.21389 0.58125 0.0
In182 In 0.74346 0.11783 0.61641 0.0
O183 O 0.7026 0.13547 0.6332 0.0
O184 O 0.73404 0.12103 0.66156 0.0
C185 C 0.75467 0.12394 0.56278 0.0
C186 C 0.73022 0.06483 0.62408 0.0
C187 C 0.77917 0.15864 0.62733 0.0
O188 O 0.73235 0.1334 0.5734 0.0
O189 O 0.76929 0.1088 0.57867 0.0
O190 O 0.78562 0.13341 0.63221 0.0
O191 O 0.75496 0.16259 0.61779 0.0
C192 C 0.71 0.13119 0.65829 0.0
O193 O 0.75336 0.0747 0.63248 0.0
O194 O 0.71568 0.08103 0.60922 0.0
In195 In 0.86904 0.74265 0.61554 0.0
O196 O 0.85295 0.7322 0.57249 0.0
O197 O 0.87696 0.76955 0.57834 0.0
C198 C 0.85648 0.7077 0.65643 0.0
C199 C 0.82805 0.77749 0.62793 0.0
C200 C 0.92238 0.73054 0.62244 0.0
O201 O 0.85193 0.70105 0.63115 0.0
O202 O 0.86653 0.73173 0.66037 0.0
O203 O 0.91215 0.75321 0.63148 0.0
O204 O 0.90632 0.71599 0.6073 0.0
C205 C 0.86174 0.75502 0.56233 0.0
O206 O 0.85329 0.78412 0.63278 0.0
O207 O 0.82418 0.7535 0.61776 0.0
In208 In 0.3693 0.24253 0.11372 0.0
O209 O 0.3524 0.23135 0.0712 0.0
O210 O 0.37815 0.26775 0.07559 0.0
C211 C 0.35546 0.2105 0.15651 0.0
C212 C 0.32977 0.27933 0.12478 0.0
C213 C 0.42197 0.22769 0.12019 0.0
O214 O 0.35062 0.20265 0.13163 0.0
O215 O 0.36654 0.23427 0.15914 0.0
O216 O 0.41329 0.2514 0.12818 0.0
O217 O 0.40471 0.21326 0.1063 0.0
C218 C 0.36213 0.2534 0.0602 0.0
O219 O 0.35522 0.2851 0.12966 0.0
O220 O 0.32499 0.25526 0.11518 0.0
In221 In 0.37137 0.74264 0.8704 0.0
O222 O 0.35551 0.78513 0.85608 0.0
O223 O 0.36956 0.75504 0.826 0.0
C224 C 0.36494 0.72799 0.92316 0.0
C225 C 0.42486 0.75399 0.86316 0.0
C226 C 0.32874 0.71007 0.85689 0.0
O227 O 0.35661 0.75148 0.91427 0.0
O228 O 0.37914 0.71373 0.90607 0.0
O229 O 0.35365 0.70253 0.85186 0.0
O230 O 0.32599 0.73382 0.86794 0.0
C231 C 0.36019 0.77918 0.83065 0.0
O232 O 0.41398 0.73178 0.85358 0.0
O233 O 0.40938 0.76829 0.87907 0.0
In234 In 0.24232 0.37112 0.86991 0.0
O235 O 0.23114 0.35476 0.91264 0.0
O236 O 0.26864 0.3787 0.90764 0.0
C237 C 0.2078 0.35887 0.82848 0.0
C238 C 0.27732 0.33018 0.85786 0.0
C239 C 0.23043 0.42448 0.86297 0.0
O240 O 0.20077 0.35445 0.85365 0.0
O241 O 0.23202 0.36859 0.82489 0.0
O242 O 0.25323 0.41422 0.8543 0.0
O243 O 0.21566 0.40846 0.87788 0.0
C244 C 0.25385 0.36337 0.92325 0.0
O245 O 0.28414 0.35544 0.85349 0.0
O246 O 0.25306 0.32628 0.86733 0.0
In247 In 0.61785 0.24518 0.87157 0.0
O248 O 0.57438 0.2551 0.85631 0.0
O249 O 0.58109 0.21757 0.8796 0.0
C250 C 0.65848 0.28072 0.85967 0.0
C251 C 0.63044 0.21149 0.82958 0.0
C252 C 0.62551 0.25666 0.925 0.0
O253 O 0.63316 0.2872 0.85523 0.0
O254 O 0.66259 0.25657 0.86922 0.0
O255 O 0.63431 0.23411 0.91428 0.0
O256 O 0.61017 0.27138 0.90939 0.0
C257 C 0.56462 0.23204 0.86496 0.0
O258 O 0.63516 0.20425 0.85463 0.0
O259 O 0.62019 0.23549 0.82639 0.0
In260 In 0.74021 0.61553 0.86788 0.0
O261 O 0.75119 0.63091 0.91102 0.0
O262 O 0.71375 0.60693 0.90528 0.0
C263 C 0.77399 0.62817 0.82608 0.0
C264 C 0.70567 0.65707 0.85696 0.0
C265 C 0.75303 0.5625 0.86025 0.0
O266 O 0.78143 0.6324 0.85119 0.0
O267 O 0.74971 0.61847 0.82274 0.0
O268 O 0.72999 0.57238 0.85175 0.0
O269 O 0.76756 0.57868 0.87529 0.0
C270 C 0.72852 0.62187 0.92136 0.0
O271 O 0.69854 0.63198 0.85199 0.0
O272 O 0.72998 0.66051 0.86653 0.0
In273 In 0.61601 0.74386 0.11548 0.0
O274 O 0.63143 0.75339 0.07202 0.0
O275 O 0.60857 0.71554 0.0792 0.0
C276 C 0.62751 0.779 0.15655 0.0
C277 C 0.65798 0.71061 0.12864 0.0
C278 C 0.56259 0.75584 0.12173 0.0
O279 O 0.63259 0.7856 0.13137 0.0
O280 O 0.61743 0.75495 0.1603 0.0
O281 O 0.5728 0.73323 0.13093 0.0
O282 O 0.57877 0.77038 0.10672 0.0
C283 C 0.62312 0.73003 0.06259 0.0
O284 O 0.63292 0.70333 0.13353 0.0
O285 O 0.66119 0.73442 0.11788 0.0
In286 In 0.2444 0.61371 0.11721 0.0
O287 O 0.20267 0.63065 0.13254 0.0
O288 O 0.23282 0.61546 0.16191 0.0
C289 C 0.25804 0.62078 0.06425 0.0
C290 C 0.2322 0.56034 0.12385 0.0
C291 C 0.27799 0.65553 0.13067 0.0
O292 O 0.23472 0.62896 0.07374 0.0
O293 O 0.27263 0.60637 0.08083 0.0
O294 O 0.2851 0.63045 0.13542 0.0
O295 O 0.25422 0.65881 0.11986 0.0
C296 C 0.20895 0.62572 0.15783 0.0
O297 O 0.25483 0.57066 0.13307 0.0
O298 O 0.21779 0.57633 0.10862 0.0
In299 In 0.74501 0.37037 0.1203 0.0
O300 O 0.73305 0.41306 0.13616 0.0
O301 O 0.77034 0.40854 0.11177 0.0
C302 C 0.71317 0.32684 0.13224 0.0
C303 C 0.77996 0.36115 0.16193 0.0
C304 C 0.73194 0.3633 0.06722 0.0
O305 O 0.7045 0.35154 0.13649 0.0
O306 O 0.73774 0.32476 0.12297 0.0
O307 O 0.75518 0.35506 0.07687 0.0
O308 O 0.71721 0.3777 0.08372 0.0
C309 C 0.75538 0.42408 0.12701 0.0
O310 O 0.78738 0.3567 0.13683 0.0
O311 O 0.75511 0.36915 0.16535 0.0
H312 H 0.18556 0.53293 0.1065 0.0
H313 H 0.16998 0.44875 0.24938 0.0
H314 H 0.24868 0.53218 0.17048 0.0
H315 H 0.10941 0.44637 0.18299 0.0
H316 H 0.19801 0.48137 0.22203 0.0
H317 H 0.15776 0.50051 0.13404 0.0
C318 C 0.19388 0.52538 0.12605 0.0
C319 C 0.21945 0.53528 0.13623 0.0
C320 C 0.17842 0.47396 0.2136 0.0
C321 C 0.18733 0.49887 0.16833 0.0
C322 C 0.16219 0.45569 0.22939 0.0
C323 C 0.13735 0.4448 0.2184 0.0
C324 C 0.1697 0.48136 0.18668 0.0
C325 C 0.12845 0.45423 0.19224 0.0
C326 C 0.17784 0.50715 0.14195 0.0
C327 C 0.22915 0.52496 0.16177 0.0
N328 N 0.14473 0.47176 0.17717 0.0
N329 N 0.21291 0.50756 0.17713 0.0
H330 H 0.5361 0.10256 0.17832 0.0
H331 H 0.45343 0.24617 0.16399 0.0
H332 H 0.53381 0.16526 0.24276 0.0
H333 H 0.44572 0.17835 0.10539 0.0
H334 H 0.48598 0.21822 0.19131 0.0
H335 H 0.50338 0.1301 0.15094 0.0
C336 C 0.52816 0.1218 0.18701 0.0
C337 C 0.5377 0.13165 0.21283 0.0
C338 C 0.47738 0.20958 0.17232 0.0
C339 C 0.501 0.16373 0.18123 0.0
C340 C 0.45916 0.22569 0.15647 0.0
C341 C 0.44684 0.21453 0.13241 0.0
C342 C 0.48337 0.18218 0.16395 0.0
C343 C 0.45473 0.18774 0.12384 0.0
C344 C 0.50973 0.13768 0.17123 0.0
C345 C 0.52689 0.15681 0.22301 0.0
N346 N 0.47233 0.1724 0.13971 0.0
N347 N 0.50937 0.17218 0.20701 0.0
H348 H 0.7375 0.45221 0.17327 0.0
H349 H 0.87903 0.53997 0.18462 0.0
H350 H 0.80167 0.45242 0.11033 0.0
H351 H 0.81735 0.53706 0.24993 0.0
H352 H 0.85106 0.50734 0.15742 0.0
H353 H 0.76503 0.48538 0.20059 0.0
C354 C 0.757 0.45984 0.16481 0.0
C355 C 0.76735 0.44951 0.1395 0.0
C356 C 0.84375 0.51355 0.17783 0.0
C357 C 0.79931 0.48671 0.17102 0.0
C358 C 0.8599 0.53192 0.19353 0.0
C359 C 0.8505 0.54123 0.21957 0.0
C360 C 0.81789 0.50454 0.18816 0.0
C361 C 0.82546 0.53028 0.23001 0.0
C362 C 0.77291 0.47843 0.18064 0.0
C363 C 0.79292 0.45981 0.12975 0.0
N364 N 0.80984 0.51273 0.21412 0.0
N365 N 0.80813 0.47763 0.14564 0.0
H366 H 0.53493 0.80198 0.10392 0.0
H367 H 0.45296 0.81921 0.24795 0.0
H368 H 0.53436 0.73948 0.16838 0.0
H369 H 0.44672 0.87721 0.17969 0.0
H370 H 0.48514 0.79106 0.22027 0.0
H371 H 0.50225 0.82967 0.13123 0.0
C372 C 0.52736 0.79376 0.12352 0.0
C373 C 0.53738 0.76841 0.13391 0.0
C374 C 0.47694 0.8101 0.21146 0.0
C375 C 0.50072 0.80042 0.16573 0.0
C376 C 0.45893 0.82642 0.22743 0.0
C377 C 0.44715 0.85058 0.21608 0.0
C378 C 0.48322 0.81809 0.18402 0.0
C379 C 0.45532 0.85872 0.18924 0.0
C380 C 0.50897 0.80974 0.13927 0.0
C381 C 0.52704 0.75884 0.15951 0.0
N382 N 0.47268 0.8424 0.17405 0.0
N383 N 0.50954 0.77504 0.17474 0.0
H384 H 0.24873 0.45331 0.81738 0.0
H385 H 0.10588 0.53747 0.80259 0.0
H386 H 0.18274 0.45103 0.87837 0.0
H387 H 0.16834 0.53407 0.73806 0.0
H388 H 0.1337 0.50557 0.83057 0.0
H389 H 0.22098 0.48544 0.78936 0.0
C390 C 0.22875 0.46018 0.82527 0.0
C391 C 0.21798 0.44944 0.85022 0.0
C392 C 0.14119 0.5115 0.81015 0.0
C393 C 0.18581 0.48546 0.81789 0.0
C394 C 0.12514 0.52944 0.79401 0.0
C395 C 0.13482 0.53843 0.76797 0.0
C396 C 0.16725 0.50265 0.80027 0.0
C397 C 0.16001 0.52754 0.75796 0.0
C398 C 0.21272 0.47816 0.80904 0.0
C399 C 0.19182 0.45877 0.85924 0.0
N400 N 0.17555 0.51046 0.77429 0.0
N401 N 0.17652 0.47604 0.84297 0.0
H402 H 0.53788 0.18493 0.88193 0.0
H403 H 0.45255 0.17006 0.73949 0.0
H404 H 0.53573 0.24879 0.81886 0.0
H405 H 0.44969 0.10969 0.80591 0.0
H406 H 0.4853 0.19795 0.76692 0.0
H407 H 0.5052 0.15726 0.85446 0.0
C408 C 0.52999 0.19343 0.8626 0.0
C409 C 0.53953 0.21919 0.85266 0.0
C410 C 0.47775 0.17844 0.77535 0.0
C411 C 0.50282 0.18722 0.82062 0.0
C412 C 0.45939 0.16228 0.75951 0.0
C413 C 0.44835 0.13753 0.77047 0.0
C414 C 0.48511 0.16971 0.80228 0.0
C415 C 0.45767 0.12866 0.79668 0.0
C416 C 0.51158 0.17747 0.84674 0.0
C417 C 0.52877 0.22911 0.82739 0.0
N418 N 0.47531 0.14485 0.81179 0.0
N419 N 0.51123 0.21294 0.81205 0.0
H420 H 0.73542 0.53359 0.8143 0.0
H421 H 0.88004 0.45221 0.80025 0.0
H422 H 0.80097 0.53659 0.87575 0.0
H423 H 0.81636 0.45091 0.73682 0.0
H424 H 0.85173 0.48437 0.82747 0.0
H425 H 0.76372 0.50173 0.78638 0.0
C426 C 0.75542 0.52694 0.82229 0.0
C427 C 0.76589 0.53777 0.84737 0.0
C428 C 0.84405 0.47736 0.80744 0.0
C429 C 0.79869 0.5021 0.81516 0.0
C430 C 0.86039 0.45927 0.79172 0.0
C431 C 0.85052 0.44885 0.76626 0.0
C432 C 0.81754 0.48495 0.79774 0.0
C433 C 0.82483 0.45856 0.75628 0.0
C434 C 0.77176 0.50911 0.80613 0.0
C435 C 0.79211 0.52876 0.85653 0.0
N436 N 0.80904 0.47582 0.77223 0.0
N437 N 0.8077 0.51166 0.84032 0.0
H438 H 0.53519 0.81751 0.73688 0.0
H439 H 0.45328 0.79984 0.88097 0.0
H440 H 0.53729 0.87772 0.80367 0.0
H441 H 0.45176 0.73823 0.81547 0.0
H442 H 0.48531 0.82791 0.85327 0.0
H443 H 0.50306 0.78896 0.76429 0.0
C444 C 0.52829 0.82511 0.75697 0.0
C445 C 0.53897 0.85 0.76805 0.0
C446 C 0.47826 0.8081 0.84504 0.0
C447 C 0.50299 0.81706 0.79984 0.0
C448 C 0.46026 0.79189 0.86103 0.0
C449 C 0.44983 0.76668 0.8505 0.0
C450 C 0.48579 0.79915 0.81823 0.0
C451 C 0.45942 0.75747 0.82446 0.0
C452 C 0.51029 0.80858 0.7728 0.0
C453 C 0.5296 0.85865 0.79434 0.0
N454 N 0.47662 0.77387 0.80904 0.0
N455 N 0.51237 0.84208 0.80944 0.0
H456 H 0.16817 0.24825 0.53566 0.0
H457 H 0.18772 0.10427 0.45396 0.0
H458 H 0.10982 0.17984 0.53961 0.0
H459 H 0.24852 0.17061 0.45285 0.0
H460 H 0.15959 0.13126 0.48651 0.0
H461 H 0.19699 0.22107 0.50365 0.0
C462 C 0.16103 0.22781 0.52921 0.0
C463 C 0.13658 0.21626 0.54034 0.0
C464 C 0.17925 0.1398 0.47945 0.0
C465 C 0.16984 0.18476 0.50448 0.0
C466 C 0.1955 0.12423 0.46114 0.0
C467 C 0.22046 0.13524 0.45064 0.0
C468 C 0.18791 0.16669 0.48717 0.0
C469 C 0.22946 0.16127 0.46052 0.0
C470 C 0.17772 0.21213 0.51129 0.0
C471 C 0.12853 0.18955 0.53154 0.0
N472 N 0.213 0.1763 0.47797 0.0
N473 N 0.14524 0.17462 0.51433 0.0
H474 H 0.79996 0.10537 0.53411 0.0
H475 H 0.81823 0.24899 0.45182 0.0
H476 H 0.73859 0.17086 0.53497 0.0
H477 H 0.87501 0.17982 0.44462 0.0
H478 H 0.79008 0.2218 0.48448 0.0
H479 H 0.82749 0.13217 0.50086 0.0
C480 C 0.79194 0.12509 0.52674 0.0
C481 C 0.76697 0.13591 0.53732 0.0
C482 C 0.80886 0.21269 0.47596 0.0
C483 C 0.79883 0.16717 0.49999 0.0
C484 C 0.82517 0.22836 0.45766 0.0
C485 C 0.84899 0.21662 0.44549 0.0
C486 C 0.81649 0.18514 0.48213 0.0
C487 C 0.85679 0.18967 0.45352 0.0
C488 C 0.80783 0.14056 0.50801 0.0
C489 C 0.75765 0.16167 0.52722 0.0
N490 N 0.84048 0.17477 0.47116 0.0
N491 N 0.77378 0.17661 0.50936 0.0
H492 H 0.73393 0.81579 0.45264 0.0
H493 H 0.87793 0.80228 0.53545 0.0
H494 H 0.79855 0.87843 0.45209 0.0
H495 H 0.815 0.73795 0.53448 0.0
H496 H 0.84939 0.82995 0.50395 0.0
H497 H 0.7621 0.78788 0.48451 0.0
C498 C 0.75367 0.82406 0.45986 0.0
C499 C 0.76396 0.84945 0.44965 0.0
C500 C 0.84192 0.80964 0.51033 0.0
C501 C 0.79664 0.81725 0.48534 0.0
C502 C 0.8584 0.79367 0.52804 0.0
C503 C 0.84881 0.76779 0.53762 0.0
C504 C 0.81556 0.79975 0.50227 0.0
C505 C 0.82326 0.75773 0.52748 0.0
C506 C 0.76995 0.8079 0.47769 0.0
C507 C 0.78984 0.85895 0.45941 0.0
N508 N 0.80734 0.77389 0.51059 0.0
N509 N 0.80541 0.84273 0.47648 0.0
H510 H 0.10955 0.79946 0.45312 0.0
H511 H 0.25293 0.81605 0.53669 0.0
H512 H 0.17481 0.73787 0.45143 0.0
H513 H 0.18626 0.87613 0.53892 0.0
H514 H 0.22563 0.78779 0.50412 0.0
H515 H 0.13695 0.82696 0.48596 0.0
C516 C 0.12937 0.79139 0.46022 0.0
C517 C 0.13993 0.76637 0.44951 0.0
C518 C 0.21712 0.80732 0.5115 0.0
C519 C 0.17188 0.79819 0.48641 0.0
C520 C 0.23289 0.82368 0.52974 0.0
C521 C 0.22182 0.84847 0.54055 0.0
C522 C 0.19015 0.81585 0.50406 0.0
C523 C 0.19558 0.85714 0.53113 0.0
C524 C 0.14519 0.80728 0.4787 0.0
C525 C 0.16581 0.75697 0.4593 0.0
N526 N 0.18055 0.84074 0.51363 0.0
N527 N 0.18108 0.77307 0.47696 0.0
H528 H 0.66949 0.95328 0.75046 0.0
H529 H 0.68304 0.03784 0.60761 0.0
H530 H 0.60839 0.95038 0.68458 0.0
H531 H 0.74723 0.03665 0.67051 0.0
H532 H 0.6556 0.00542 0.63549 0.0
H533 H 0.69704 0.98611 0.72287 0.0
C534 C 0.66148 0.96014 0.73054 0.0
C535 C 0.63664 0.94905 0.71976 0.0
C536 C 0.67583 0.01196 0.64309 0.0
C537 C 0.66842 0.98587 0.68776 0.0
C538 C 0.69165 0.03022 0.627 0.0
C539 C 0.71744 0.03994 0.63676 0.0
C540 C 0.68575 0.00352 0.66926 0.0
C541 C 0.72752 0.02953 0.66212 0.0
C542 C 0.67744 0.97853 0.7146 0.0
C543 C 0.62745 0.95839 0.69367 0.0
N544 N 0.71149 0.01211 0.67768 0.0
N545 N 0.64346 0.97605 0.67846 0.0
H546 H 0.94974 0.68397 0.60524 0.0
H547 H 0.03434 0.6695 0.74807 0.0
H548 H 0.95065 0.74739 0.669 0.0
H549 H 0.03575 0.60823 0.68224 0.0
H550 H 0.0019 0.69741 0.72056 0.0
H551 H 0.98221 0.65648 0.63286 0.0
C552 C 0.95733 0.69242 0.62476 0.0
C553 C 0.94746 0.71798 0.63486 0.0
C554 C 0.00906 0.6777 0.71228 0.0
C555 C 0.98393 0.68621 0.66705 0.0
C556 C 0.02724 0.66154 0.72817 0.0
C557 C 0.0378 0.63652 0.71739 0.0
C558 C 0.00143 0.66872 0.68547 0.0
C559 C 0.02816 0.6274 0.69133 0.0
C560 C 0.9756 0.67655 0.6407 0.0
C561 C 0.95785 0.72785 0.66037 0.0
N562 N 0.01073 0.64362 0.67617 0.0
N563 N 0.97528 0.71178 0.67577 0.0
H564 H 0.31812 0.03454 0.75191 0.0
H565 H 0.30322 0.95111 0.60824 0.0
H566 H 0.37845 0.03809 0.68537 0.0
H567 H 0.24034 0.9504 0.67244 0.0
H568 H 0.33052 0.98392 0.63592 0.0
H569 H 0.2903 0.00192 0.72423 0.0
C570 C 0.32591 0.02787 0.73181 0.0
C571 C 0.35063 0.03907 0.7209 0.0
C572 C 0.31059 0.97689 0.64385 0.0
C573 C 0.31851 0.00249 0.6888 0.0
C574 C 0.29483 0.95842 0.62787 0.0
C575 C 0.26949 0.94801 0.63806 0.0
C576 C 0.30107 0.98485 0.67034 0.0
C577 C 0.2597 0.95804 0.66372 0.0
C578 C 0.30979 0.00959 0.71583 0.0
C579 C 0.35951 0.02998 0.69458 0.0
N580 N 0.27568 0.97566 0.67916 0.0
N581 N 0.34335 0.01243 0.67934 0.0
H582 H 0.03427 0.29849 0.60724 0.0
H583 H 0.95142 0.31621 0.75077 0.0
H584 H 0.03508 0.23685 0.67252 0.0
H585 H 0.95116 0.37689 0.68458 0.0
H586 H 0.98335 0.28744 0.72343 0.0
H587 H 0.00225 0.32657 0.63485 0.0
C588 C 0.02713 0.29053 0.6271 0.0
C589 C 0.03737 0.26533 0.63761 0.0
C590 C 0.97657 0.30721 0.71505 0.0
C591 C 0.00143 0.2978 0.6698 0.0
C592 C 0.95869 0.32386 0.73084 0.0
C593 C 0.94858 0.34896 0.71989 0.0
C594 C 0.98432 0.31578 0.68817 0.0
C595 C 0.9584 0.35766 0.6938 0.0
C596 C 0.00914 0.30675 0.64305 0.0
C597 C 0.02757 0.2561 0.66355 0.0
N598 N 0.9755 0.34098 0.67873 0.0
N599 N 0.01038 0.27251 0.67894 0.0
H600 H 0.68118 0.94929 0.37971 0.0
H601 H 0.66853 0.0307 0.23502 0.0
H602 H 0.74586 0.94983 0.31731 0.0
H603 H 0.60746 0.03561 0.30079 0.0
H604 H 0.69593 -0.00122 0.26363 0.0
H605 H 0.65409 0.98136 0.35122 0.0
C606 C 0.68999 0.95673 0.36031 0.0
C607 C 0.71579 0.94688 0.35085 0.0
C608 C 0.67638 0.00661 0.27167 0.0
C609 C 0.6845 0.98286 0.31767 0.0
C610 C 0.6605 0.02447 0.25516 0.0
C611 C 0.6357 0.03585 0.26558 0.0
C612 C 0.66732 7e-05 0.29871 0.0
C613 C 0.62648 0.02735 0.29197 0.0
C614 C 0.67436 0.97477 0.34388 0.0
C615 C 0.72613 0.95704 0.32547 0.0
N616 N 0.64241 0.01016 0.30771 0.0
N617 N 0.71028 0.97423 0.30957 0.0
H618 H 0.95279 0.67195 0.23809 0.0
H619 H 0.03999 0.68412 0.37968 0.0
H620 H 0.95182 0.60993 0.30303 0.0
H621 H 0.03902 0.74826 0.31686 0.0
H622 H 0.00693 0.6571 0.35205 0.0
H623 H 0.98623 0.69923 0.26534 0.0
C624 C 0.96019 0.66369 0.25772 0.0
C625 C 0.94947 0.63865 0.26835 0.0
C626 C 0.01367 0.67722 0.34441 0.0
C627 C 0.987 0.67012 0.29997 0.0
C628 C 0.03229 0.69282 0.36036 0.0
C629 C 0.04226 0.71846 0.35055 0.0
C630 C 0.00507 0.68724 0.31834 0.0
C631 C 0.03172 0.72865 0.32529 0.0
C632 C 0.97894 0.67949 0.27346 0.0
C633 C 0.95952 0.62914 0.29406 0.0
N634 N 0.01391 0.71286 0.30987 0.0
N635 N 0.9775 0.645 0.3091 0.0
H636 H 0.31663 0.95253 0.23639 0.0
H637 H 0.30687 0.03972 0.37818 0.0
H638 H 0.38094 0.95373 0.2992 0.0
H639 H 0.24021 0.03523 0.31803 0.0
H640 H 0.33419 0.00798 0.34948 0.0
H641 H 0.28953 0.98528 0.26441 0.0
C642 C 0.32542 0.9603 0.25568 0.0
C643 C 0.35104 0.95033 0.26554 0.0
C644 C 0.31347 0.01366 0.34267 0.0
C645 C 0.31979 0.98705 0.29807 0.0
C646 C 0.29772 0.03152 0.35923 0.0
C647 C 0.27123 0.04011 0.35048 0.0
C648 C 0.30275 0.00445 0.31704 0.0
C649 C 0.26048 0.02899 0.32565 0.0
C650 C 0.30973 0.97865 0.27189 0.0
C651 C 0.36125 0.96084 0.29085 0.0
N652 N 0.27641 0.01195 0.30962 0.0
N653 N 0.34547 0.9784 0.30637 0.0
H654 H 0.03637 0.31171 0.23431 0.0
H655 H 0.95551 0.29498 0.37907 0.0
H656 H 0.03696 0.37307 0.30007 0.0
H657 H 0.94883 0.23534 0.31207 0.0
H658 H 0.98825 0.32201 0.35121 0.0
H659 H 0.00422 0.28325 0.26186 0.0
C660 C 0.02913 0.31957 0.25418 0.0
C661 C 0.03939 0.34478 0.26495 0.0
C662 C 0.9799 0.30285 0.34267 0.0
C663 C 0.00345 0.31195 0.29691 0.0
C664 C 0.9615 0.28719 0.35875 0.0
C665 C 0.94935 0.26294 0.34784 0.0
C666 C 0.98613 0.29427 0.3154 0.0
C667 C 0.95779 0.25388 0.32133 0.0
C668 C 0.01113 0.30311 0.27008 0.0
C669 C 0.02962 0.35375 0.29098 0.0
N670 N 0.97542 0.26976 0.30584 0.0
N671 N 0.01244 0.33723 0.30617 0.0
H672 H 0.68206 0.60465 0.9491 0.0
H673 H 0.66781 0.74839 0.03231 0.0
H674 H 0.74572 0.66826 0.94968 0.0
H675 H 0.6081 0.68126 0.03763 0.0
H676 H 0.69535 0.72054 -0.00024 0.0
H677 H 0.65487 0.63226 0.98196 0.0
C678 C 0.69064 0.62412 0.9567 0.0
C679 C 0.71617 0.63419 0.94664 0.0
C680 C 0.67607 0.71203 0.00782 0.0
C681 C 0.68474 0.66636 0.98352 0.0
C682 C 0.6601 0.7281 0.02606 0.0
C683 C 0.63564 0.71709 0.03771 0.0
C684 C 0.66744 0.68483 0.00119 0.0
C685 C 0.62685 0.69054 0.02916 0.0
C686 C 0.67495 0.64005 0.9752 0.0
C687 C 0.7262 0.65964 0.95703 0.0
N688 N 0.64285 0.67523 0.0116 0.0
N689 N 0.71029 0.67505 0.97465 0.0
H690 H 0.23935 0.66516 0.03397 0.0
H691 H 0.38152 0.67999 0.94835 0.0
H692 H 0.30674 0.60607 0.03904 0.0
H693 H 0.31956 0.74477 0.95313 0.0
H694 H 0.35419 0.65216 0.98098 0.0
H695 H 0.26686 0.69278 0.00117 0.0
C696 C 0.25963 0.6576 0.02762 0.0
C697 C 0.27081 0.6333 0.03927 0.0
C698 C 0.34672 0.67261 0.97519 0.0
C699 C 0.30267 0.66518 0.00243 0.0
C700 C 0.36248 0.68864 0.9568 0.0
C701 C 0.3528 0.71473 0.94805 0.0
C702 C 0.32094 0.68262 0.98466 0.0
C703 C 0.32789 0.72483 0.95948 0.0
C704 C 0.2755 0.67362 0.00924 0.0
C705 C 0.29733 0.62469 0.03057 0.0
N706 N 0.31262 0.7086 0.97696 0.0
N707 N 0.31245 0.64072 0.01284 0.0
H708 H 0.23517 0.31745 0.9514 0.0
H709 H 0.38008 0.29897 0.03159 0.0
H710 H 0.3019 0.37782 0.94985 0.0
H711 H 0.31417 0.23773 0.03362 0.0
H712 H 0.3522 0.32719 1e-05 0.0
H713 H 0.26287 0.28855 0.98282 0.0
C714 C 0.25531 0.325 0.95828 0.0
C715 C 0.26629 0.35005 0.94795 0.0
C716 C 0.34392 0.30742 0.00706 0.0
C717 C 0.29841 0.31671 0.98309 0.0
C718 C 0.36001 0.29112 0.02481 0.0
C719 C 0.34941 0.266 0.03529 0.0
C720 C 0.31693 0.29864 -0.00014 0.0
C721 C 0.3232 0.25691 0.02593 0.0
C722 C 0.2713 0.30828 0.97586 0.0
C723 C 0.29265 0.35864 0.95728 0.0
N724 N 0.30769 0.2734 0.009 0.0
N725 N 0.30791 0.34187 0.97409 0.0
H726 H 0.68501 0.38013 0.0403 0.0
H727 H 0.67125 0.2383 0.95358 0.0
H728 H 0.74896 0.31718 0.0384 0.0
H729 H 0.61004 0.30395 0.95228 0.0
H730 H 0.69898 0.2656 0.98658 0.0
H731 H 0.65764 0.35266 0.00739 0.0
C732 C 0.69359 0.36082 0.03241 0.0
C733 C 0.71929 0.35092 0.04208 0.0
C734 C 0.67933 0.27388 0.97931 0.0
C735 C 0.68766 0.31888 0.00508 0.0
C736 C 0.66327 0.25811 0.96081 0.0
C737 C 0.63831 0.2689 0.95015 0.0
C738 C 0.67031 0.30057 0.98718 0.0
C739 C 0.62917 0.29485 0.95996 0.0
C740 C 0.6778 0.34496 0.01388 0.0
C741 C 0.72933 0.32567 0.03133 0.0
N742 N 0.64527 0.30989 0.97772 0.0
N743 N 0.71333 0.31033 0.01363 0.0
H744 H 0.15671 0.32366 0.32699 0.0
H745 H 0.1605 0.15733 0.32754 0.0
H746 H 0.11298 0.27146 0.26813 0.0
H747 H 0.21062 0.20949 0.3811 0.0
H748 H 0.13499 0.19878 0.31229 0.0
H749 H 0.16912 0.28193 0.35361 0.0
C750 C 0.14949 0.30348 0.31989 0.0
C751 C 0.13436 0.30087 0.29509 0.0
C752 C 0.15132 0.20107 0.32769 0.0
C753 C 0.14831 0.25328 0.32519 0.0
C754 C 0.16576 0.17742 0.33642 0.0
C755 C 0.188 0.18018 0.35508 0.0
C756 C 0.15929 0.22746 0.33777 0.0
C757 C 0.19395 0.2066 0.36617 0.0
C758 C 0.15653 0.27969 0.33502 0.0
C759 C 0.12521 0.27431 0.28688 0.0
N760 N 0.17992 0.22928 0.35708 0.0
N761 N 0.13257 0.25152 0.30172 0.0
H762 H 0.7725 0.2259 0.36617 0.0
H763 H 0.70921 0.10676 0.27004 0.0
H764 H 0.82249 0.16418 0.32414 0.0
H765 H 0.6588 0.16554 0.31556 0.0
H766 H 0.75044 0.124 0.29408 0.0
H767 H 0.73056 0.20108 0.35197 0.0
C768 C 0.77465 0.207 0.35401 0.0
C769 C 0.80098 0.19723 0.34595 0.0
C770 C 0.73038 0.13297 0.2991 0.0
C771 C 0.75297 0.16872 0.32964 0.0
C772 C 0.70682 0.12317 0.28536 0.0
C773 C 0.68069 0.13509 0.29058 0.0
C774 C 0.72786 0.15512 0.31797 0.0
C775 C 0.67864 0.15594 0.31087 0.0
C776 C 0.75066 0.19279 0.34602 0.0
C777 C 0.80256 0.17251 0.33056 0.0
N778 N 0.70206 0.16561 0.3236 0.0
N779 N 0.7788 0.15921 0.32264 0.0
H780 H 0.88087 0.71202 0.27719 0.0
H781 H 0.76875 0.77509 0.38058 0.0
H782 H 0.82574 0.66194 0.32752 0.0
H783 H 0.82381 0.82512 0.3301 0.0
H784 H 0.79501 0.73373 0.36775 0.0
H785 H 0.8662 0.75333 0.30265 0.0
C786 C 0.86585 0.70971 0.29387 0.0
C787 C 0.85402 0.68367 0.29996 0.0
C788 C 0.80161 0.75374 0.35969 0.0
C789 C 0.83697 0.73093 0.32901 0.0
C790 C 0.78658 0.77738 0.36693 0.0
C791 C 0.79384 0.80344 0.35588 0.0
C792 C 0.82392 0.75611 0.34101 0.0
C793 C 0.81739 0.80533 0.33879 0.0
C794 C 0.85753 0.73331 0.30842 0.0
C795 C 0.83511 0.68172 0.32205 0.0
N796 N 0.83138 0.78184 0.33151 0.0
N797 N 0.82679 0.70519 0.33553 0.0
H798 H 0.32957 0.82872 0.32784 0.0
H799 H 0.16325 0.8284 0.33164 0.0
H800 H 0.27771 0.88131 0.27685 0.0
H801 H 0.21505 0.77096 0.37718 0.0
H802 H 0.20511 0.85489 0.31893 0.0
H803 H 0.28804 0.81432 0.35394 0.0
C804 C 0.30954 0.83757 0.3225 0.0
C805 C 0.30687 0.85568 0.29986 0.0
C806 C 0.20723 0.83666 0.332 0.0
C807 C 0.2595 0.83935 0.32924 0.0
C808 C 0.18337 0.82161 0.33923 0.0
C809 C 0.18584 0.7972 0.35491 0.0
C810 C 0.23358 0.82712 0.34058 0.0
C811 C 0.21231 0.78938 0.36451 0.0
C812 C 0.28585 0.82933 0.33728 0.0
C813 C 0.28052 0.86676 0.29382 0.0
N814 N 0.23519 0.8041 0.35692 0.0
N815 N 0.2578 0.85815 0.30819 0.0
H816 H 0.1631 0.65794 0.66013 0.0
H817 H 0.16165 0.82443 0.65714 0.0
H818 H 0.10806 0.70894 0.70952 0.0
H819 H 0.22249 0.7736 0.61486 0.0
H820 H 0.13564 0.78209 0.66913 0.0
H821 H 0.17882 0.6999 0.63555 0.0
C822 C 0.15401 0.67788 0.66542 0.0
C823 C 0.13475 0.68017 0.68717 0.0
C824 C 0.15455 0.78028 0.65697 0.0
C825 C 0.15255 0.728 0.65952 0.0
C826 C 0.16934 0.80442 0.65018 0.0
C827 C 0.19446 0.8024 0.63552 0.0
C828 C 0.16504 0.75411 0.64899 0.0
C829 C 0.20345 0.77602 0.62669 0.0
C830 C 0.16301 0.70181 0.65152 0.0
C831 C 0.12343 0.70642 0.69321 0.0
N832 N 0.1889 0.75289 0.6338 0.0
N833 N 0.13273 0.72936 0.67969 0.0
H834 H 0.27535 0.10905 0.71975 0.0
H835 H 0.21008 0.21411 0.61054 0.0
H836 H 0.32446 0.16048 0.66474 0.0
H837 H 0.16087 0.16149 0.66429 0.0
H838 H 0.25187 0.18947 0.62497 0.0
H839 H 0.23344 0.12264 0.69475 0.0
C840 C 0.27732 0.12308 0.7022 0.0
C841 C 0.30331 0.13412 0.69456 0.0
C842 C 0.23196 0.18305 0.63343 0.0
C843 C 0.25535 0.14985 0.66594 0.0
C844 C 0.20807 0.19715 0.62526 0.0
C845 C 0.1821 0.1901 0.63669 0.0
C846 C 0.22993 0.16192 0.65343 0.0
C847 C 0.18058 0.16769 0.65523 0.0
C848 C 0.25336 0.13076 0.6879 0.0
C849 C 0.30475 0.15174 0.67142 0.0
N850 N 0.2043 0.15462 0.66337 0.0
N851 N 0.28097 0.15941 0.65813 0.0
H852 H 0.8265 0.16019 0.65949 0.0
H853 H 0.82896 0.32668 0.65943 0.0
H854 H 0.77339 0.21138 0.60833 0.0
H855 H 0.8755 0.2755 0.71664 0.0
H856 H 0.81554 0.28455 0.6337 0.0
H857 H 0.85202 0.20216 0.67385 0.0
C858 C 0.82052 0.18019 0.65099 0.0
C859 C 0.79754 0.18249 0.63322 0.0
C860 C 0.82896 0.28262 0.65172 0.0
C861 C 0.8263 0.23034 0.64947 0.0
C862 C 0.8366 0.30664 0.66633 0.0
C863 C 0.85282 0.30443 0.69044 0.0
C864 C 0.8377 0.25639 0.66138 0.0
C865 C 0.86245 0.27804 0.69844 0.0
C866 C 0.83499 0.20412 0.65919 0.0
C867 C 0.79069 0.20881 0.62257 0.0
N868 N 0.8545 0.25503 0.68412 0.0
N869 N 0.8048 0.23175 0.63111 0.0
H870 H 0.77569 0.77259 0.60755 0.0
H871 H 0.7125 0.87686 0.71907 0.0
H872 H 0.82596 0.82307 0.66254 0.0
H873 H 0.66243 0.82766 0.66275 0.0
H874 H 0.75418 0.86279 0.69391 0.0
H875 H 0.73442 0.79785 0.6225 0.0
C876 C 0.77805 0.78923 0.62264 0.0
C877 C 0.80415 0.79548 0.63426 0.0
C878 C 0.7341 0.85527 0.68681 0.0
C879 C 0.75692 0.82434 0.65162 0.0
C880 C 0.71028 0.86322 0.70121 0.0
C881 C 0.68406 0.85296 0.69322 0.0
C882 C 0.73175 0.83668 0.6644 0.0
C883 C 0.68231 0.83579 0.6697 0.0
C884 C 0.75446 0.80368 0.63112 0.0
C885 C 0.80614 0.81749 0.6533 0.0
N886 N 0.70594 0.82785 0.6563 0.0
N887 N 0.78269 0.83091 0.66174 0.0
H888 H 0.32292 0.16467 0.3265 0.0
H889 H 0.32334 0.16318 0.15964 0.0
H890 H 0.26739 0.11484 0.27611 0.0
H891 H 0.37154 0.22037 0.20976 0.0
H892 H 0.30844 0.13942 0.2023 0.0
H893 H 0.34695 0.17967 0.28395 0.0
C894 C 0.31602 0.15669 0.30654 0.0
C895 C 0.29293 0.13892 0.3047 0.0
C896 C 0.32249 0.15703 0.2039 0.0
C897 C 0.32007 0.15581 0.25621 0.0
C898 C 0.33098 0.17052 0.17957 0.0
C899 C 0.34828 0.19397 0.18128 0.0
C900 C 0.33146 0.16713 0.22995 0.0
C901 C 0.35779 0.20259 0.20758 0.0
C902 C 0.32965 0.16524 0.28229 0.0
C903 C 0.28486 0.12898 0.27839 0.0
N904 N 0.34908 0.18932 0.23089 0.0
N905 N 0.29827 0.13773 0.25517 0.0
H906 H 0.82741 0.32935 0.32986 0.0
H907 H 0.83092 0.33524 0.16393 0.0
H908 H 0.88373 0.28187 0.27845 0.0
H909 H 0.77051 0.37781 0.21505 0.0
H910 H 0.85736 0.32382 0.20607 0.0
H911 H 0.81343 0.35597 0.28859 0.0
C912 C 0.83722 0.32497 0.31001 0.0
C913 C 0.85618 0.30305 0.30729 0.0
C914 C 0.83849 0.33597 0.20799 0.0
C915 C 0.84031 0.33296 0.26024 0.0
C916 C 0.82344 0.34245 0.18396 0.0
C917 C 0.79823 0.35687 0.18615 0.0
C918 C 0.82811 0.34399 0.23423 0.0
C919 C 0.78957 0.36606 0.21253 0.0
C920 C 0.8292 0.34003 0.28646 0.0
C921 C 0.86848 0.29823 0.28123 0.0
N922 N 0.80429 0.35917 0.23557 0.0
N923 N 0.86005 0.31278 0.25862 0.0
H924 H 0.66147 0.82511 0.15878 0.0
H925 H 0.65827 0.82748 0.32539 0.0
H926 H 0.60761 0.77352 0.20901 0.0
H927 H 0.71812 0.8722 0.27531 0.0
H928 H 0.63335 0.81434 0.28272 0.0
H929 H 0.67627 0.84974 0.2011 0.0
C930 C 0.65247 0.8193 0.17864 0.0
C931 C 0.63376 0.79698 0.18058 0.0
C932 C 0.6518 0.82727 0.28114 0.0
C933 C 0.65052 0.82473 0.22882 0.0
C934 C 0.66596 0.83474 0.30547 0.0
C935 C 0.6905 0.85045 0.30376 0.0
C936 C 0.66233 0.83567 0.2551 0.0
C937 C 0.69952 0.85959 0.27749 0.0
C938 C 0.66095 0.83324 0.20277 0.0
C939 C 0.62255 0.7903 0.20673 0.0
N940 N 0.68559 0.85185 0.25418 0.0
N941 N 0.63132 0.80391 0.22987 0.0
H942 H 0.16371 0.66062 0.15932 0.0
H943 H 0.16073 0.65997 0.32593 0.0
H944 H 0.2135 0.60623 0.2105 0.0
H945 H 0.11797 0.72012 0.27482 0.0
H946 H 0.17331 0.63414 0.28367 0.0
H947 H 0.13937 0.67661 0.20131 0.0
C948 C 0.16916 0.65174 0.17932 0.0
C949 C 0.19092 0.63254 0.18161 0.0
C950 C 0.16094 0.65286 0.28178 0.0
C951 C 0.16353 0.65067 0.22949 0.0
C952 C 0.1538 0.66755 0.30587 0.0
C953 C 0.13878 0.69241 0.30376 0.0
C954 C 0.15292 0.66318 0.25556 0.0
C955 C 0.13004 0.70127 0.27732 0.0
C956 C 0.15539 0.6609 0.20326 0.0
C957 C 0.19716 0.62152 0.20794 0.0
N958 N 0.13744 0.68681 0.25424 0.0
N959 N 0.18375 0.63096 0.23089 0.0
H960 H 0.32644 0.82533 0.82974 0.0
H961 H 0.32973 0.83058 0.6634 0.0
H962 H 0.38087 0.77563 0.77837 0.0
H963 H 0.26995 0.87428 0.71431 0.0
H964 H 0.35515 0.81766 0.70573 0.0
H965 H 0.31201 0.85113 0.78809 0.0
C966 C 0.33566 0.8202 0.80979 0.0
C967 C 0.35436 0.79803 0.80728 0.0
C968 C 0.33662 0.83035 0.70757 0.0
C969 C 0.33804 0.82708 0.75982 0.0
C970 C 0.32217 0.8377 0.68343 0.0
C971 C 0.29747 0.85298 0.68548 0.0
C972 C 0.32618 0.83839 0.73377 0.0
C973 C 0.28865 0.86197 0.71188 0.0
C974 C 0.32741 0.83481 0.78604 0.0
C975 C 0.36589 0.79225 0.78106 0.0
N976 N 0.30283 0.85428 0.73502 0.0
N977 N 0.35731 0.80645 0.75829 0.0
H978 H 0.15966 0.32782 0.82693 0.0
H979 H 0.15902 0.32456 0.6604 0.0
H980 H 0.21548 0.37575 0.77521 0.0
H981 H 0.10963 0.27017 0.71224 0.0
H982 H 0.17319 0.35044 0.70217 0.0
H983 H 0.1343 0.31328 0.78499 0.0
C984 C 0.16632 0.33554 0.80681 0.0
C985 C 0.18994 0.35251 0.8044 0.0
C986 C 0.15898 0.33303 0.70431 0.0
C987 C 0.16132 0.33607 0.75657 0.0
C988 C 0.15089 0.31834 0.6805 0.0
C989 C 0.13363 0.29494 0.68303 0.0
C990 C 0.14965 0.32416 0.73065 0.0
C991 C 0.12346 0.28781 0.70948 0.0
C992 C 0.15193 0.32724 0.7829 0.0
C993 C 0.19765 0.36216 0.77791 0.0
N994 N 0.13185 0.30217 0.7323 0.0
N995 N 0.18355 0.35358 0.75499 0.0
H996 H 0.66261 0.16314 0.66052 0.0
H997 H 0.66206 0.16393 0.82727 0.0
H998 H 0.71816 0.11438 0.71149 0.0
H999 H 0.61347 0.21969 0.7764 0.0
H1000 H 0.67654 0.13918 0.78497 0.0
H1001 H 0.63797 0.17787 0.7028 0.0
C1002 C 0.66937 0.15531 0.68055 0.0
C1003 C 0.69268 0.13798 0.68264 0.0
C1004 C 0.66247 0.15668 0.78314 0.0
C1005 C 0.66486 0.1546 0.73084 0.0
C1006 C 0.65421 0.17072 0.80725 0.0
C1007 C 0.63701 0.19411 0.8052 0.0
C1008 C 0.65336 0.16617 0.75696 0.0
C1009 C 0.6272 0.20201 0.77883 0.0
C1010 C 0.65539 0.16371 0.70465 0.0
C1011 C 0.70055 0.12821 0.70903 0.0
N1012 N 0.63572 0.18823 0.75572 0.0
N1013 N 0.68683 0.13685 0.73211 0.0
H1014 H 0.82329 0.66101 0.65767 0.0
H1015 H 0.82292 0.65795 0.82429 0.0
H1016 H 0.8747 0.71371 0.70947 0.0
H1017 H 0.76501 0.61233 0.77262 0.0
H1018 H 0.84844 0.67182 0.78226 0.0
H1019 H 0.80802 0.63595 0.69948 0.0
C1020 C 0.83163 0.66701 0.67777 0.0
C1021 C 0.8498 0.68972 0.68027 0.0
C1022 C 0.83029 0.65853 0.7802 0.0
C1023 C 0.83254 0.66145 0.72795 0.0
C1024 C 0.8158 0.65063 0.80415 0.0
C1025 C 0.79161 0.63446 0.80181 0.0
C1026 C 0.82045 0.6501 0.75387 0.0
C1027 C 0.78332 0.62528 0.77529 0.0
C1028 C 0.82291 0.6528 0.70161 0.0
C1029 C 0.8602 0.69661 0.70673 0.0
N1030 N 0.79755 0.63344 0.75233 0.0
N1031 N 0.8512 0.68273 0.72957 0.0
H1032 H 0.16246 0.32871 0.15747 0.0
H1033 H 0.32886 0.3245 0.15996 0.0
H1034 H 0.21344 0.37059 0.2187 0.0
H1035 H 0.27764 0.27661 0.10356 0.0
H1036 H 0.28713 0.34957 0.17543 0.0
H1037 H 0.20476 0.31696 0.13138 0.0
C1038 C 0.18251 0.33564 0.16523 0.0
C1039 C 0.18458 0.35009 0.19049 0.0
C1040 C 0.28513 0.33384 0.15937 0.0
C1041 C 0.23283 0.33689 0.16098 0.0
C1042 C 0.30893 0.31967 0.1505 0.0
C1043 C 0.30647 0.29815 0.13096 0.0
C1044 C 0.2589 0.32632 0.1485 0.0
C1045 C 0.28027 0.2927 0.11917 0.0
C1046 C 0.20662 0.32899 0.15039 0.0
C1047 C 0.21098 0.3589 0.19955 0.0
N1048 N 0.25744 0.30644 0.12837 0.0
N1049 N 0.2341 0.35191 0.18497 0.0
H1050 H 0.27585 0.71824 0.87485 0.0
H1051 H 0.21114 0.6104 0.76707 0.0
H1052 H 0.32537 0.66383 0.82328 0.0
H1053 H 0.16158 0.66279 0.82065 0.0
H1054 H 0.25292 0.62533 0.79168 0.0
H1055 H 0.23395 0.69398 0.85964 0.0
C1056 C 0.2779 0.701 0.86042 0.0
C1057 C 0.30405 0.69326 0.84991 0.0
C1058 C 0.23293 0.63339 0.79829 0.0
C1059 C 0.25608 0.66547 0.83233 0.0
C1060 C 0.20905 0.62493 0.78422 0.0
C1061 C 0.18295 0.63577 0.79161 0.0
C1062 C 0.23077 0.65305 0.81978 0.0
C1063 C 0.18136 0.65415 0.8142 0.0
C1064 C 0.25395 0.68712 0.85181 0.0
C1065 C 0.30557 0.67055 0.83167 0.0
N1066 N 0.20506 0.66252 0.8273 0.0
N1067 N 0.2818 0.65763 0.82315 0.0
H1068 H 0.32468 0.32857 0.82572 0.0
H1069 H 0.32789 0.16202 0.82798 0.0
H1070 H 0.27106 0.27744 0.87667 0.0
H1071 H 0.37463 0.21276 0.77032 0.0
H1072 H 0.31378 0.20442 0.85271 0.0
H1073 H 0.35025 0.2866 0.81178 0.0
C1074 C 0.31858 0.30859 0.83423 0.0
C1075 C 0.29547 0.30629 0.85187 0.0
C1076 C 0.32738 0.20621 0.83481 0.0
C1077 C 0.32432 0.25847 0.83614 0.0
C1078 C 0.33543 0.18203 0.82077 0.0
C1079 C 0.35195 0.18401 0.79683 0.0
C1080 C 0.336 0.23237 0.82475 0.0
C1081 C 0.36139 0.21038 0.78842 0.0
C1082 C 0.33307 0.28466 0.82627 0.0
C1083 C 0.28846 0.28 0.86253 0.0
N1084 N 0.35305 0.23356 0.80219 0.0
N1085 N 0.30263 0.25707 0.85429 0.0
H1086 H 0.65983 0.32724 0.82642 0.0
H1087 H 0.82642 0.33026 0.8268 0.0
H1088 H 0.71125 0.27557 0.87879 0.0
H1089 H 0.77518 0.37518 0.76833 0.0
H1090 H 0.78427 0.31723 0.85259 0.0
H1091 H 0.70175 0.35245 0.81144 0.0
C1092 C 0.67986 0.32153 0.83506 0.0
C1093 C 0.68226 0.29902 0.85336 0.0
C1094 C 0.78233 0.3302 0.83427 0.0
C1095 C 0.73004 0.32743 0.83642 0.0
C1096 C 0.80636 0.33762 0.81962 0.0
C1097 C 0.80415 0.3533 0.79517 0.0
C1098 C 0.75607 0.3386 0.82431 0.0
C1099 C 0.77773 0.36257 0.78682 0.0
C1100 C 0.70377 0.33581 0.82649 0.0
C1101 C 0.70861 0.29249 0.86415 0.0
N1102 N 0.75469 0.35484 0.8012 0.0
N1103 N 0.73152 0.30641 0.85529 0.0
H1104 H 0.65803 0.65959 0.82532 0.0
H1105 H 0.65899 0.82612 0.82679 0.0
H1106 H 0.71303 0.7097 0.87599 0.0
H1107 H 0.61029 0.77598 0.77007 0.0
H1108 H 0.67207 0.78364 0.85187 0.0
H1109 H 0.63323 0.70203 0.81164 0.0
C1110 C 0.66459 0.67945 0.83384 0.0
C1111 C 0.68788 0.6813 0.8513 0.0
C1112 C 0.65826 0.78202 0.83411 0.0
C1113 C 0.65992 0.72969 0.83583 0.0
C1114 C 0.6508 0.80624 0.81988 0.0
C1115 C 0.63406 0.8044 0.79607 0.0
C1116 C 0.64882 0.75597 0.82438 0.0
C1117 C 0.62375 0.77821 0.78804 0.0
C1118 C 0.65053 0.70365 0.82603 0.0
C1119 C 0.69548 0.70746 0.86199 0.0
N1120 N 0.63153 0.75499 0.80198 0.0
N1121 N 0.68174 0.73067 0.85384 0.0
H1122 H 0.71066 0.71716 0.10948 0.0
H1123 H 0.77485 0.6146 0.22183 0.0
H1124 H 0.66086 0.66551 0.16363 0.0
H1125 H 0.82466 0.6636 0.16525 0.0
H1126 H 0.73309 0.62845 0.19677 0.0
H1127 H 0.75237 0.69324 0.12534 0.0
C1128 C 0.70851 0.70056 0.12458 0.0
C1129 C 0.68237 0.69355 0.13566 0.0
C1130 C 0.75312 0.636 0.18962 0.0
C1131 C 0.7301 0.66621 0.15403 0.0
C1132 C 0.777 0.62818 0.20396 0.0
C1133 C 0.80318 0.63838 0.19582 0.0
C1134 C 0.75536 0.65439 0.16709 0.0
C1135 C 0.80481 0.6555 0.17231 0.0
C1136 C 0.73235 0.68688 0.13358 0.0
C1137 C 0.68068 0.67164 0.15478 0.0
N1138 N 0.78112 0.66328 0.15893 0.0
N1139 N 0.70435 0.65896 0.16369 0.0
H1140 H 0.32559 0.82489 0.16324 0.0
H1141 H 0.32355 0.65809 0.16525 0.0
H1142 H 0.37022 0.77474 0.22287 0.0
H1143 H 0.27125 0.7084 0.11241 0.0
H1144 H 0.34735 0.70056 0.18102 0.0
H1145 H 0.31159 0.78219 0.13881 0.0
C1146 C 0.33261 0.80494 0.17101 0.0
C1147 C 0.34866 0.80325 0.19529 0.0
C1148 C 0.33085 0.70222 0.16574 0.0
C1149 C 0.33291 0.75456 0.16765 0.0
C1150 C 0.31737 0.67801 0.15672 0.0
C1151 C 0.29517 0.67988 0.13792 0.0
C1152 C 0.32201 0.72829 0.15575 0.0
C1153 C 0.28799 0.70613 0.12734 0.0
C1154 C 0.32465 0.7806 0.15713 0.0
C1155 C 0.35743 0.77693 0.20443 0.0
N1156 N 0.3012 0.72934 0.13659 0.0
N1157 N 0.34927 0.75361 0.19074 0.0
H1158 H 0.66196 0.32292 0.15751 0.0
H1159 H 0.66664 0.15636 0.16037 0.0
H1160 H 0.72619 0.27359 0.1186 0.0
H1161 H 0.60751 0.20601 0.20626 0.0
H1162 H 0.68341 0.19881 0.13735 0.0
H1163 H 0.63666 0.27994 0.16865 0.0
C1164 C 0.6706 0.30309 0.15117 0.0
C1165 C 0.69636 0.30173 0.13758 0.0
C1166 C 0.6665 0.20032 0.1522 0.0
C1167 C 0.66771 0.25268 0.15006 0.0
C1168 C 0.65689 0.1761 0.16518 0.0
C1169 C 0.63609 0.17787 0.18552 0.0
C1170 C 0.6551 0.22626 0.15969 0.0
C1171 C 0.62401 0.20389 0.19103 0.0
C1172 C 0.65619 0.27858 0.15746 0.0
C1173 C 0.70657 0.27554 0.12954 0.0
N1174 N 0.63389 0.22711 0.17842 0.0
N1175 N 0.69233 0.25204 0.1361 0.0
loop_
_geom_bond_atom_site_label_1
_geom_bond_atom_site_label_2
_geom_bond_distance
_geom_bond_site_symmetry_2
_ccdc_geom_bond_type
In0 O1 2.294 . S
In0 O2 2.326 . S
In0 O6 2.266 . S
In0 O7 2.326 . S
In0 O8 2.266 . S
In0 O9 2.326 . S
In0 O11 2.294 . S
In0 O12 2.326 . S
O1 In0 2.294 . S
O1 C10 1.240 . S
O2 In0 2.326 . S
O2 C10 1.252 . S
C3 O6 1.252 . S
C3 O7 1.260 . S
C4 O11 1.240 . S
C4 O12 1.252 . S
C5 O8 1.252 . S
C5 O9 1.260 . S
O6 In0 2.266 . S
O6 C3 1.252 . S
O7 In0 2.326 . S
O7 C3 1.260 . S
O8 In0 2.266 . S
O8 C5 1.252 . S
O9 In0 2.326 . S
O9 C5 1.260 . S
C10 O1 1.240 . S
C10 O2 1.252 . S
O11 In0 2.294 . S
O11 C4 1.240 . S
O12 In0 2.326 . S
O12 C4 1.252 . S
In13 O14 2.294 . S
In13 O15 2.326 . S
In13 O19 2.266 . S
In13 O20 2.326 . S
In13 O21 2.266 . S
In13 O22 2.326 . S
In13 O24 2.294 . S
In13 O25 2.326 . S
O14 In13 2.294 . S
O14 C23 1.240 . S
O15 In13 2.326 . S
O15 C23 1.252 . S
C16 O19 1.252 . S
C16 O20 1.260 . S
C17 O24 1.240 . S
C17 O25 1.252 . S
C18 O21 1.252 . S
C18 O22 1.260 . S
O19 In13 2.266 . S
O19 C16 1.252 . S
O20 In13 2.326 . S
O20 C16 1.260 . S
O21 In13 2.266 . S
O21 C18 1.252 . S
O22 In13 2.326 . S
O22 C18 1.260 . S
C23 O14 1.240 . S
C23 O15 1.252 . S
O24 In13 2.294 . S
O24 C17 1.240 . S
O25 In13 2.326 . S
O25 C17 1.252 . S
In26 O27 2.294 . S
In26 O28 2.326 . S
In26 O32 2.266 . S
In26 O33 2.326 . S
In26 O34 2.266 . S
In26 O35 2.326 . S
In26 O37 2.294 . S
In26 O38 2.326 . S
O27 In26 2.294 . S
O27 C36 1.240 . S
O28 In26 2.326 . S
O28 C36 1.252 . S
C29 O32 1.252 . S
C29 O33 1.260 . S
C30 O37 1.240 . S
C30 O38 1.252 . S
C31 O34 1.252 . S
C31 O35 1.260 . S
O32 In26 2.266 . S
O32 C29 1.252 . S
O33 In26 2.326 . S
O33 C29 1.260 . S
O34 In26 2.266 . S
O34 C31 1.252 . S
O35 In26 2.326 . S
O35 C31 1.260 . S
C36 O27 1.240 . S
C36 O28 1.252 . S
O37 In26 2.294 . S
O37 C30 1.240 . S
O38 In26 2.326 . S
O38 C30 1.252 . S
In39 O40 2.294 . S
In39 O41 2.326 . S
In39 O45 2.266 . S
In39 O46 2.326 . S
In39 O47 2.266 . S
In39 O48 2.326 . S
In39 O50 2.294 . S
In39 O51 2.326 . S
O40 In39 2.294 . S
O40 C49 1.240 . S
O41 In39 2.326 . S
O41 C49 1.252 . S
C42 O45 1.252 . S
C42 O46 1.260 . S
C43 O50 1.240 . S
C43 O51 1.252 . S
C44 O47 1.252 . S
C44 O48 1.260 . S
O45 In39 2.266 . S
O45 C42 1.252 . S
O46 In39 2.326 . S
O46 C42 1.260 . S
O47 In39 2.266 . S
O47 C44 1.252 . S
O48 In39 2.326 . S
O48 C44 1.260 . S
C49 O40 1.240 . S
C49 O41 1.252 . S
O50 In39 2.294 . S
O50 C43 1.240 . S
O51 In39 2.326 . S
O51 C43 1.252 . S
In52 O53 2.294 . S
In52 O54 2.326 . S
In52 O58 2.266 . S
In52 O59 2.326 . S
In52 O60 2.266 . S
In52 O61 2.326 . S
In52 O63 2.294 . S
In52 O64 2.326 . S
O53 In52 2.294 . S
O53 C62 1.240 . S
O54 In52 2.326 . S
O54 C62 1.252 . S
C55 O58 1.252 . S
C55 O59 1.260 . S
C56 O63 1.240 . S
C56 O64 1.252 . S
C57 O60 1.252 . S
C57 O61 1.260 . S
O58 In52 2.266 . S
O58 C55 1.252 . S
O59 In52 2.326 . S
O59 C55 1.260 . S
O60 In52 2.266 . S
O60 C57 1.252 . S
O61 In52 2.326 . S
O61 C57 1.260 . S
C62 O53 1.240 . S
C62 O54 1.252 . S
O63 In52 2.294 . S
O63 C56 1.240 . S
O64 In52 2.326 . S
O64 C56 1.252 . S
In65 O66 2.294 . S
In65 O67 2.326 . S
In65 O71 2.266 . S
In65 O72 2.326 . S
In65 O73 2.266 . S
In65 O74 2.326 . S
In65 O76 2.294 . S
In65 O77 2.326 . S
O66 In65 2.294 . S
O66 C75 1.240 . S
O67 In65 2.326 . S
O67 C75 1.252 . S
C68 O71 1.252 . S
C68 O72 1.260 . S
C69 O76 1.240 . S
C69 O77 1.252 . S
C70 O73 1.252 . S
C70 O74 1.260 . S
O71 In65 2.266 . S
O71 C68 1.252 . S
O72 In65 2.326 . S
O72 C68 1.260 . S
O73 In65 2.266 . S
O73 C70 1.252 . S
O74 In65 2.326 . S
O74 C70 1.260 . S
C75 O66 1.240 . S
C75 O67 1.252 . S
O76 In65 2.294 . S
O76 C69 1.240 . S
O77 In65 2.326 . S
O77 C69 1.252 . S
In78 O79 2.294 . S
In78 O80 2.326 . S
In78 O84 2.266 . S
In78 O85 2.326 . S
In78 O86 2.266 . S
In78 O87 2.326 . S
In78 O89 2.294 . S
In78 O90 2.326 . S
O79 In78 2.294 . S
O79 C88 1.240 . S
O80 In78 2.326 . S
O80 C88 1.252 . S
C81 O84 1.252 . S
C81 O85 1.260 . S
C82 O89 1.240 . S
C82 O90 1.252 . S
C83 O86 1.252 . S
C83 O87 1.260 . S
O84 In78 2.266 . S
O84 C81 1.252 . S
O85 In78 2.326 . S
O85 C81 1.260 . S
O86 In78 2.266 . S
O86 C83 1.252 . S
O87 In78 2.326 . S
O87 C83 1.260 . S
C88 O79 1.240 . S
C88 O80 1.252 . S
O89 In78 2.294 . S
O89 C82 1.240 . S
O90 In78 2.326 . S
O90 C82 1.252 . S
In91 O92 2.294 . S
In91 O93 2.326 . S
In91 O97 2.266 . S
In91 O98 2.326 . S
In91 O99 2.266 . S
In91 O100 2.326 . S
In91 O102 2.294 . S
In91 O103 2.326 . S
O92 In91 2.294 . S
O92 C101 1.240 . S
O93 In91 2.326 . S
O93 C101 1.252 . S
C94 O97 1.252 . S
C94 O98 1.260 . S
C95 O102 1.240 . S
C95 O103 1.252 . S
C96 O99 1.252 . S
C96 O100 1.260 . S
O97 In91 2.266 . S
O97 C94 1.252 . S
O98 In91 2.326 . S
O98 C94 1.260 . S
O99 In91 2.266 . S
O99 C96 1.252 . S
O100 In91 2.326 . S
O100 C96 1.260 . S
C101 O92 1.240 . S
C101 O93 1.252 . S
O102 In91 2.294 . S
O102 C95 1.240 . S
O103 In91 2.326 . S
O103 C95 1.252 . S
In104 O105 2.294 . S
In104 O106 2.326 . S
In104 O110 2.266 . S
In104 O111 2.326 . S
In104 O112 2.266 . S
In104 O113 2.326 . S
In104 O115 2.294 . S
In104 O116 2.326 . S
O105 In104 2.294 . S
O105 C114 1.240 . S
O106 In104 2.326 . S
O106 C114 1.252 . S
C107 O110 1.252 . S
C107 O111 1.260 . S
C108 O115 1.240 . S
C108 O116 1.252 . S
C109 O112 1.252 . S
C109 O113 1.260 . S
O110 In104 2.266 . S
O110 C107 1.252 . S
O111 In104 2.326 . S
O111 C107 1.260 . S
O112 In104 2.266 . S
O112 C109 1.252 . S
O113 In104 2.326 . S
O113 C109 1.260 . S
C114 O105 1.240 . S
C114 O106 1.252 . S
O115 In104 2.294 . S
O115 C108 1.240 . S
O116 In104 2.326 . S
O116 C108 1.252 . S
In117 O118 2.294 . S
In117 O119 2.326 . S
In117 O123 2.266 . S
In117 O124 2.326 . S
In117 O125 2.266 . S
In117 O126 2.326 . S
In117 O128 2.294 . S
In117 O129 2.326 . S
O118 In117 2.294 . S
O118 C127 1.240 . S
O119 In117 2.326 . S
O119 C127 1.252 . S
C120 O123 1.252 . S
C120 O124 1.260 . S
C121 O128 1.240 . S
C121 O129 1.252 . S
C122 O125 1.252 . S
C122 O126 1.260 . S
O123 In117 2.266 . S
O123 C120 1.252 . S
O124 In117 2.326 . S
O124 C120 1.260 . S
O125 In117 2.266 . S
O125 C122 1.252 . S
O126 In117 2.326 . S
O126 C122 1.260 . S
C127 O118 1.240 . S
C127 O119 1.252 . S
O128 In117 2.294 . S
O128 C121 1.240 . S
O129 In117 2.326 . S
O129 C121 1.252 . S
In130 O131 2.294 . S
In130 O132 2.326 . S
In130 O136 2.266 . S
In130 O137 2.326 . S
In130 O138 2.266 . S
In130 O139 2.326 . S
In130 O141 2.294 . S
In130 O142 2.326 . S
O131 In130 2.294 . S
O131 C140 1.240 . S
O132 In130 2.326 . S
O132 C140 1.252 . S
C133 O136 1.252 . S
C133 O137 1.260 . S
C134 O141 1.240 . S
C134 O142 1.252 . S
C135 O138 1.252 . S
C135 O139 1.260 . S
O136 In130 2.266 . S
O136 C133 1.252 . S
O137 In130 2.326 . S
O137 C133 1.260 . S
O138 In130 2.266 . S
O138 C135 1.252 . S
O139 In130 2.326 . S
O139 C135 1.260 . S
C140 O131 1.240 . S
C140 O132 1.252 . S
O141 In130 2.294 . S
O141 C134 1.240 . S
O142 In130 2.326 . S
O142 C134 1.252 . S
In143 O144 2.294 . S
In143 O145 2.326 . S
In143 O149 2.266 . S
In143 O150 2.326 . S
In143 O151 2.266 . S
In143 O152 2.326 . S
In143 O154 2.294 . S
In143 O155 2.326 . S
O144 In143 2.294 . S
O144 C153 1.240 . S
O145 In143 2.326 . S
O145 C153 1.252 . S
C146 O149 1.252 . S
C146 O150 1.260 . S
C147 O154 1.240 . S
C147 O155 1.252 . S
C148 O151 1.252 . S
C148 O152 1.260 . S
O149 In143 2.266 . S
O149 C146 1.252 . S
O150 In143 2.326 . S
O150 C146 1.260 . S
O151 In143 2.266 . S
O151 C148 1.252 . S
O152 In143 2.326 . S
O152 C148 1.260 . S
C153 O144 1.240 . S
C153 O145 1.252 . S
O154 In143 2.294 . S
O154 C147 1.240 . S
O155 In143 2.326 . S
O155 C147 1.252 . S
In156 O157 2.294 . S
In156 O158 2.326 . S
In156 O162 2.266 . S
In156 O163 2.326 . S
In156 O164 2.266 . S
In156 O165 2.326 . S
In156 O167 2.294 . S
In156 O168 2.326 . S
O157 In156 2.294 . S
O157 C166 1.240 . S
O158 In156 2.326 . S
O158 C166 1.252 . S
C159 O162 1.252 . S
C159 O163 1.260 . S
C160 O167 1.240 . S
C160 O168 1.252 . S
C161 O164 1.252 . S
C161 O165 1.260 . S
O162 In156 2.266 . S
O162 C159 1.252 . S
O163 In156 2.326 . S
O163 C159 1.260 . S
O164 In156 2.266 . S
O164 C161 1.252 . S
O165 In156 2.326 . S
O165 C161 1.260 . S
C166 O157 1.240 . S
C166 O158 1.252 . S
O167 In156 2.294 . S
O167 C160 1.240 . S
O168 In156 2.326 . S
O168 C160 1.252 . S
In169 O170 2.294 . S
In169 O171 2.326 . S
In169 O175 2.266 . S
In169 O176 2.326 . S
In169 O177 2.266 . S
In169 O178 2.326 . S
In169 O180 2.294 . S
In169 O181 2.326 . S
O170 In169 2.294 . S
O170 C179 1.240 . S
O171 In169 2.326 . S
O171 C179 1.252 . S
C172 O175 1.252 . S
C172 O176 1.260 . S
C173 O180 1.240 . S
C173 O181 1.252 . S
C174 O177 1.252 . S
C174 O178 1.260 . S
O175 In169 2.266 . S
O175 C172 1.252 . S
O176 In169 2.326 . S
O176 C172 1.260 . S
O177 In169 2.266 . S
O177 C174 1.252 . S
O178 In169 2.326 . S
O178 C174 1.260 . S
C179 O170 1.240 . S
C179 O171 1.252 . S
O180 In169 2.294 . S
O180 C173 1.240 . S
O181 In169 2.326 . S
O181 C173 1.252 . S
In182 O183 2.294 . S
In182 O184 2.326 . S
In182 O188 2.266 . S
In182 O189 2.326 . S
In182 O190 2.266 . S
In182 O191 2.326 . S
In182 O193 2.294 . S
In182 O194 2.326 . S
O183 In182 2.294 . S
O183 C192 1.240 . S
O184 In182 2.326 . S
O184 C192 1.252 . S
C185 O188 1.252 . S
C185 O189 1.260 . S
C186 O193 1.240 . S
C186 O194 1.252 . S
C187 O190 1.252 . S
C187 O191 1.260 . S
O188 In182 2.266 . S
O188 C185 1.252 . S
O189 In182 2.326 . S
O189 C185 1.260 . S
O190 In182 2.266 . S
O190 C187 1.252 . S
O191 In182 2.326 . S
O191 C187 1.260 . S
C192 O183 1.240 . S
C192 O184 1.252 . S
O193 In182 2.294 . S
O193 C186 1.240 . S
O194 In182 2.326 . S
O194 C186 1.252 . S
In195 O196 2.294 . S
In195 O197 2.326 . S
In195 O201 2.266 . S
In195 O202 2.326 . S
In195 O203 2.266 . S
In195 O204 2.326 . S
In195 O206 2.294 . S
In195 O207 2.326 . S
O196 In195 2.294 . S
O196 C205 1.240 . S
O197 In195 2.326 . S
O197 C205 1.252 . S
C198 O201 1.252 . S
C198 O202 1.260 . S
C199 O206 1.240 . S
C199 O207 1.252 . S
C200 O203 1.252 . S
C200 O204 1.260 . S
O201 In195 2.266 . S
O201 C198 1.252 . S
O202 In195 2.326 . S
O202 C198 1.260 . S
O203 In195 2.266 . S
O203 C200 1.252 . S
O204 In195 2.326 . S
O204 C200 1.260 . S
C205 O196 1.240 . S
C205 O197 1.252 . S
O206 In195 2.294 . S
O206 C199 1.240 . S
O207 In195 2.326 . S
O207 C199 1.252 . S
In208 O209 2.294 . S
In208 O210 2.326 . S
In208 O214 2.266 . S
In208 O215 2.326 . S
In208 O216 2.266 . S
In208 O217 2.326 . S
In208 O219 2.294 . S
In208 O220 2.326 . S
O209 In208 2.294 . S
O209 C218 1.240 . S
O210 In208 2.326 . S
O210 C218 1.252 . S
C211 O214 1.252 . S
C211 O215 1.260 . S
C212 O219 1.240 . S
C212 O220 1.252 . S
C213 O216 1.252 . S
C213 O217 1.260 . S
O214 In208 2.266 . S
O214 C211 1.252 . S
O215 In208 2.326 . S
O215 C211 1.260 . S
O216 In208 2.266 . S
O216 C213 1.252 . S
O217 In208 2.326 . S
O217 C213 1.260 . S
C218 O209 1.240 . S
C218 O210 1.252 . S
O219 In208 2.294 . S
O219 C212 1.240 . S
O220 In208 2.326 . S
O220 C212 1.252 . S
In221 O222 2.294 . S
In221 O223 2.326 . S
In221 O227 2.266 . S
In221 O228 2.326 . S
In221 O229 2.266 . S
In221 O230 2.326 . S
In221 O232 2.294 . S
In221 O233 2.326 . S
O222 In221 2.294 . S
O222 C231 1.240 . S
O223 In221 2.326 . S
O223 C231 1.252 . S
C224 O227 1.252 . S
C224 O228 1.260 . S
C225 O232 1.240 . S
C225 O233 1.252 . S
C226 O229 1.252 . S
C226 O230 1.260 . S
O227 In221 2.266 . S
O227 C224 1.252 . S
O228 In221 2.326 . S
O228 C224 1.260 . S
O229 In221 2.266 . S
O229 C226 1.252 . S
O230 In221 2.326 . S
O230 C226 1.260 . S
C231 O222 1.240 . S
C231 O223 1.252 . S
O232 In221 2.294 . S
O232 C225 1.240 . S
O233 In221 2.326 . S
O233 C225 1.252 . S
In234 O235 2.294 . S
In234 O236 2.326 . S
In234 O240 2.266 . S
In234 O241 2.326 . S
In234 O242 2.266 . S
In234 O243 2.326 . S
In234 O245 2.294 . S
In234 O246 2.326 . S
O235 In234 2.294 . S
O235 C244 1.240 . S
O236 In234 2.326 . S
O236 C244 1.252 . S
C237 O240 1.252 . S
C237 O241 1.260 . S
C238 O245 1.240 . S
C238 O246 1.252 . S
C239 O242 1.252 . S
C239 O243 1.260 . S
O240 In234 2.266 . S
O240 C237 1.252 . S
O241 In234 2.326 . S
O241 C237 1.260 . S
O242 In234 2.266 . S
O242 C239 1.252 . S
O243 In234 2.326 . S
O243 C239 1.260 . S
C244 O235 1.240 . S
C244 O236 1.252 . S
O245 In234 2.294 . S
O245 C238 1.240 . S
O246 In234 2.326 . S
O246 C238 1.252 . S
In247 O248 2.294 . S
In247 O249 2.326 . S
In247 O253 2.266 . S
In247 O254 2.326 . S
In247 O255 2.266 . S
In247 O256 2.326 . S
In247 O258 2.294 . S
In247 O259 2.326 . S
O248 In247 2.294 . S
O248 C257 1.240 . S
O249 In247 2.326 . S
O249 C257 1.252 . S
C250 O253 1.252 . S
C250 O254 1.260 . S
C251 O258 1.240 . S
C251 O259 1.252 . S
C252 O255 1.252 . S
C252 O256 1.260 . S
O253 In247 2.266 . S
O253 C250 1.252 . S
O254 In247 2.326 . S
O254 C250 1.260 . S
O255 In247 2.266 . S
O255 C252 1.252 . S
O256 In247 2.326 . S
O256 C252 1.260 . S
C257 O248 1.240 . S
C257 O249 1.252 . S
O258 In247 2.294 . S
O258 C251 1.240 . S
O259 In247 2.326 . S
O259 C251 1.252 . S
In260 O261 2.294 . S
In260 O262 2.326 . S
In260 O266 2.266 . S
In260 O267 2.326 . S
In260 O268 2.266 . S
In260 O269 2.326 . S
In260 O271 2.294 . S
In260 O272 2.326 . S
O261 In260 2.294 . S
O261 C270 1.240 . S
O262 In260 2.326 . S
O262 C270 1.252 . S
C263 O266 1.252 . S
C263 O267 1.260 . S
C264 O271 1.240 . S
C264 O272 1.252 . S
C265 O268 1.252 . S
C265 O269 1.260 . S
O266 In260 2.266 . S
O266 C263 1.252 . S
O267 In260 2.326 . S
O267 C263 1.260 . S
O268 In260 2.266 . S
O268 C265 1.252 . S
O269 In260 2.326 . S
O269 C265 1.260 . S
C270 O261 1.240 . S
C270 O262 1.252 . S
O271 In260 2.294 . S
O271 C264 1.240 . S
O272 In260 2.326 . S
O272 C264 1.252 . S
In273 O274 2.294 . S
In273 O275 2.326 . S
In273 O279 2.266 . S
In273 O280 2.326 . S
In273 O281 2.266 . S
In273 O282 2.326 . S
In273 O284 2.294 . S
In273 O285 2.326 . S
O274 In273 2.294 . S
O274 C283 1.240 . S
O275 In273 2.326 . S
O275 C283 1.252 . S
C276 O279 1.252 . S
C276 O280 1.260 . S
C277 O284 1.240 . S
C277 O285 1.252 . S
C278 O281 1.252 . S
C278 O282 1.260 . S
O279 In273 2.266 . S
O279 C276 1.252 . S
O280 In273 2.326 . S
O280 C276 1.260 . S
O281 In273 2.266 . S
O281 C278 1.252 . S
O282 In273 2.326 . S
O282 C278 1.260 . S
C283 O274 1.240 . S
C283 O275 1.252 . S
O284 In273 2.294 . S
O284 C277 1.240 . S
O285 In273 2.326 . S
O285 C277 1.252 . S
In286 O287 2.294 . S
In286 O288 2.326 . S
In286 O292 2.266 . S
In286 O293 2.326 . S
In286 O294 2.266 . S
In286 O295 2.326 . S
In286 O297 2.294 . S
In286 O298 2.326 . S
O287 In286 2.294 . S
O287 C296 1.240 . S
O288 In286 2.326 . S
O288 C296 1.252 . S
C289 O292 1.252 . S
C289 O293 1.260 . S
C290 O297 1.240 . S
C290 O298 1.252 . S
C291 O294 1.252 . S
C291 O295 1.260 . S
O292 In286 2.266 . S
O292 C289 1.252 . S
O293 In286 2.326 . S
O293 C289 1.260 . S
O294 In286 2.266 . S
O294 C291 1.252 . S
O295 In286 2.326 . S
O295 C291 1.260 . S
C296 O287 1.240 . S
C296 O288 1.252 . S
O297 In286 2.294 . S
O297 C290 1.240 . S
O298 In286 2.326 . S
O298 C290 1.252 . S
In299 O300 2.294 . S
In299 O301 2.326 . S
In299 O305 2.266 . S
In299 O306 2.326 . S
In299 O307 2.266 . S
In299 O308 2.326 . S
In299 O310 2.294 . S
In299 O311 2.326 . S
O300 In299 2.294 . S
O300 C309 1.240 . S
O301 In299 2.326 . S
O301 C309 1.252 . S
C302 O305 1.252 . S
C302 O306 1.260 . S
C303 O310 1.240 . S
C303 O311 1.252 . S
C304 O307 1.252 . S
C304 O308 1.260 . S
O305 In299 2.266 . S
O305 C302 1.252 . S
O306 In299 2.326 . S
O306 C302 1.260 . S
O307 In299 2.266 . S
O307 C304 1.252 . S
O308 In299 2.326 . S
O308 C304 1.260 . S
C309 O300 1.240 . S
C309 O301 1.252 . S
O310 In299 2.294 . S
O310 C303 1.240 . S
O311 In299 2.326 . S
O311 C303 1.252 . S
H312 C318 0.930 . S
H313 C322 0.930 . S
H314 C327 0.929 . S
H315 C325 0.929 . S
H316 C320 0.929 . S
H317 C326 0.929 . S
C318 H312 0.930 . S
C318 C319 1.367 . S
C318 C326 1.378 . S
C319 C318 1.367 . S
C319 C327 1.433 . S
C320 H316 0.929 . S
C320 C322 1.378 . S
C320 C324 1.350 . S
C321 C324 1.463 . S
C321 C326 1.350 . S
C321 N329 1.427 . S
C322 H313 0.930 . S
C322 C320 1.378 . S
C322 C323 1.367 . S
C323 C322 1.367 . S
C323 C325 1.433 . S
C324 C320 1.350 . S
C324 C321 1.463 . S
C324 N328 1.427 . S
C325 H315 0.929 . S
C325 C323 1.433 . S
C325 N328 1.384 . S
C326 H317 0.929 . S
C326 C318 1.378 . S
C326 C321 1.350 . S
C327 H314 0.929 . S
C327 C319 1.433 . S
C327 N329 1.384 . S
N328 C324 1.427 . S
N328 C325 1.384 . S
N329 C321 1.427 . S
N329 C327 1.384 . S
H330 C336 0.930 . S
H331 C340 0.930 . S
H332 C345 0.929 . S
H333 C343 0.929 . S
H334 C338 0.929 . S
H335 C344 0.929 . S
C336 H330 0.930 . S
C336 C337 1.367 . S
C336 C344 1.378 . S
C337 C336 1.367 . S
C337 C345 1.433 . S
C338 H334 0.929 . S
C338 C340 1.378 . S
C338 C342 1.350 . S
C339 C342 1.463 . S
C339 C344 1.350 . S
C339 N347 1.427 . S
C340 H331 0.930 . S
C340 C338 1.378 . S
C340 C341 1.367 . S
C341 C340 1.367 . S
C341 C343 1.433 . S
C342 C338 1.350 . S
C342 C339 1.463 . S
C342 N346 1.427 . S
C343 H333 0.929 . S
C343 C341 1.433 . S
C343 N346 1.384 . S
C344 H335 0.929 . S
C344 C336 1.378 . S
C344 C339 1.350 . S
C345 H332 0.929 . S
C345 C337 1.433 . S
C345 N347 1.384 . S
N346 C342 1.427 . S
N346 C343 1.384 . S
N347 C339 1.427 . S
N347 C345 1.384 . S
H348 C354 0.930 . S
H349 C358 0.930 . S
H350 C363 0.929 . S
H351 C361 0.929 . S
H352 C356 0.929 . S
H353 C362 0.929 . S
C354 H348 0.930 . S
C354 C355 1.367 . S
C354 C362 1.378 . S
C355 C354 1.367 . S
C355 C363 1.433 . S
C356 H352 0.929 . S
C356 C358 1.378 . S
C356 C360 1.350 . S
C357 C360 1.463 . S
C357 C362 1.350 . S
C357 N365 1.427 . S
C358 H349 0.930 . S
C358 C356 1.378 . S
C358 C359 1.367 . S
C359 C358 1.367 . S
C359 C361 1.433 . S
C360 C356 1.350 . S
C360 C357 1.463 . S
C360 N364 1.427 . S
C361 H351 0.929 . S
C361 C359 1.433 . S
C361 N364 1.384 . S
C362 H353 0.929 . S
C362 C354 1.378 . S
C362 C357 1.350 . S
C363 H350 0.929 . S
C363 C355 1.433 . S
C363 N365 1.384 . S
N364 C360 1.427 . S
N364 C361 1.384 . S
N365 C357 1.427 . S
N365 C363 1.384 . S
H366 C372 0.930 . S
H367 C376 0.930 . S
H368 C381 0.929 . S
H369 C379 0.929 . S
H370 C374 0.929 . S
H371 C380 0.929 . S
C372 H366 0.930 . S
C372 C373 1.367 . S
C372 C380 1.378 . S
C373 C372 1.367 . S
C373 C381 1.433 . S
C374 H370 0.929 . S
C374 C376 1.378 . S
C374 C378 1.350 . S
C375 C378 1.463 . S
C375 C380 1.350 . S
C375 N383 1.427 . S
C376 H367 0.930 . S
C376 C374 1.378 . S
C376 C377 1.367 . S
C377 C376 1.367 . S
C377 C379 1.433 . S
C378 C374 1.350 . S
C378 C375 1.463 . S
C378 N382 1.427 . S
C379 H369 0.929 . S
C379 C377 1.433 . S
C379 N382 1.384 . S
C380 H371 0.929 . S
C380 C372 1.378 . S
C380 C375 1.350 . S
C381 H368 0.929 . S
C381 C373 1.433 . S
C381 N383 1.384 . S
N382 C378 1.427 . S
N382 C379 1.384 . S
N383 C375 1.427 . S
N383 C381 1.384 . S
H384 C390 0.930 . S
H385 C394 0.930 . S
H386 C399 0.929 . S
H387 C397 0.929 . S
H388 C392 0.929 . S
H389 C398 0.929 . S
C390 H384 0.930 . S
C390 C391 1.367 . S
C390 C398 1.378 . S
C391 C390 1.367 . S
C391 C399 1.433 . S
C392 H388 0.929 . S
C392 C394 1.378 . S
C392 C396 1.350 . S
C393 C396 1.463 . S
C393 C398 1.350 . S
C393 N401 1.427 . S
C394 H385 0.930 . S
C394 C392 1.378 . S
C394 C395 1.367 . S
C395 C394 1.367 . S
C395 C397 1.433 . S
C396 C392 1.350 . S
C396 C393 1.463 . S
C396 N400 1.427 . S
C397 H387 0.929 . S
C397 C395 1.433 . S
C397 N400 1.384 . S
C398 H389 0.929 . S
C398 C390 1.378 . S
C398 C393 1.350 . S
C399 H386 0.929 . S
C399 C391 1.433 . S
C399 N401 1.384 . S
N400 C396 1.427 . S
N400 C397 1.384 . S
N401 C393 1.427 . S
N401 C399 1.384 . S
H402 C408 0.930 . S
H403 C412 0.930 . S
H404 C417 0.929 . S
H405 C415 0.929 . S
H406 C410 0.929 . S
H407 C416 0.929 . S
C408 H402 0.930 . S
C408 C409 1.367 . S
C408 C416 1.378 . S
C409 C408 1.367 . S
C409 C417 1.433 . S
C410 H406 0.929 . S
C410 C412 1.378 . S
C410 C414 1.350 . S
C411 C414 1.463 . S
C411 C416 1.350 . S
C411 N419 1.427 . S
C412 H403 0.930 . S
C412 C410 1.378 . S
C412 C413 1.367 . S
C413 C412 1.367 . S
C413 C415 1.433 . S
C414 C410 1.350 . S
C414 C411 1.463 . S
C414 N418 1.427 . S
C415 H405 0.929 . S
C415 C413 1.433 . S
C415 N418 1.384 . S
C416 H407 0.929 . S
C416 C408 1.378 . S
C416 C411 1.350 . S
C417 H404 0.929 . S
C417 C409 1.433 . S
C417 N419 1.384 . S
N418 C414 1.427 . S
N418 C415 1.384 . S
N419 C411 1.427 . S
N419 C417 1.384 . S
H420 C426 0.930 . S
H421 C430 0.930 . S
H422 C435 0.929 . S
H423 C433 0.929 . S
H424 C428 0.929 . S
H425 C434 0.929 . S
C426 H420 0.930 . S
C426 C427 1.367 . S
C426 C434 1.378 . S
C427 C426 1.367 . S
C427 C435 1.433 . S
C428 H424 0.929 . S
C428 C430 1.378 . S
C428 C432 1.350 . S
C429 C432 1.463 . S
C429 C434 1.350 . S
C429 N437 1.427 . S
C430 H421 0.930 . S
C430 C428 1.378 . S
C430 C431 1.367 . S
C431 C430 1.367 . S
C431 C433 1.433 . S
C432 C428 1.350 . S
C432 C429 1.463 . S
C432 N436 1.427 . S
C433 H423 0.929 . S
C433 C431 1.433 . S
C433 N436 1.384 . S
C434 H425 0.929 . S
C434 C426 1.378 . S
C434 C429 1.350 . S
C435 H422 0.929 . S
C435 C427 1.433 . S
C435 N437 1.384 . S
N436 C432 1.427 . S
N436 C433 1.384 . S
N437 C429 1.427 . S
N437 C435 1.384 . S
H438 C444 0.930 . S
H439 C448 0.930 . S
H440 C453 0.929 . S
H441 C451 0.929 . S
H442 C446 0.929 . S
H443 C452 0.929 . S
C444 H438 0.930 . S
C444 C445 1.367 . S
C444 C452 1.378 . S
C445 C444 1.367 . S
C445 C453 1.433 . S
C446 H442 0.929 . S
C446 C448 1.378 . S
C446 C450 1.350 . S
C447 C450 1.463 . S
C447 C452 1.350 . S
C447 N455 1.427 . S
C448 H439 0.930 . S
C448 C446 1.378 . S
C448 C449 1.367 . S
C449 C448 1.367 . S
C449 C451 1.433 . S
C450 C446 1.350 . S
C450 C447 1.463 . S
C450 N454 1.427 . S
C451 H441 0.929 . S
C451 C449 1.433 . S
C451 N454 1.384 . S
C452 H443 0.929 . S
C452 C444 1.378 . S
C452 C447 1.350 . S
C453 H440 0.929 . S
C453 C445 1.433 . S
C453 N455 1.384 . S
N454 C450 1.427 . S
N454 C451 1.384 . S
N455 C447 1.427 . S
N455 C453 1.384 . S
H456 C462 0.930 . S
H457 C466 0.930 . S
H458 C471 0.929 . S
H459 C469 0.929 . S
H460 C464 0.929 . S
H461 C470 0.929 . S
C462 H456 0.930 . S
C462 C463 1.367 . S
C462 C470 1.378 . S
C463 C462 1.367 . S
C463 C471 1.433 . S
C464 H460 0.929 . S
C464 C466 1.378 . S
C464 C468 1.350 . S
C465 C468 1.463 . S
C465 C470 1.350 . S
C465 N473 1.427 . S
C466 H457 0.930 . S
C466 C464 1.378 . S
C466 C467 1.367 . S
C467 C466 1.367 . S
C467 C469 1.433 . S
C468 C464 1.350 . S
C468 C465 1.463 . S
C468 N472 1.427 . S
C469 H459 0.929 . S
C469 C467 1.433 . S
C469 N472 1.384 . S
C470 H461 0.929 . S
C470 C462 1.378 . S
C470 C465 1.350 . S
C471 H458 0.929 . S
C471 C463 1.433 . S
C471 N473 1.384 . S
N472 C468 1.427 . S
N472 C469 1.384 . S
N473 C465 1.427 . S
N473 C471 1.384 . S
H474 C480 0.930 . S
H475 C484 0.930 . S
H476 C489 0.929 . S
H477 C487 0.929 . S
H478 C482 0.929 . S
H479 C488 0.929 . S
C480 H474 0.930 . S
C480 C481 1.367 . S
C480 C488 1.378 . S
C481 C480 1.367 . S
C481 C489 1.433 . S
C482 H478 0.929 . S
C482 C484 1.378 . S
C482 C486 1.350 . S
C483 C486 1.463 . S
C483 C488 1.350 . S
C483 N491 1.427 . S
C484 H475 0.930 . S
C484 C482 1.378 . S
C484 C485 1.367 . S
C485 C484 1.367 . S
C485 C487 1.433 . S
C486 C482 1.350 . S
C486 C483 1.463 . S
C486 N490 1.427 . S
C487 H477 0.929 . S
C487 C485 1.433 . S
C487 N490 1.384 . S
C488 H479 0.929 . S
C488 C480 1.378 . S
C488 C483 1.350 . S
C489 H476 0.929 . S
C489 C481 1.433 . S
C489 N491 1.384 . S
N490 C486 1.427 . S
N490 C487 1.384 . S
N491 C483 1.427 . S
N491 C489 1.384 . S
H492 C498 0.930 . S
H493 C502 0.930 . S
H494 C507 0.929 . S
H495 C505 0.929 . S
H496 C500 0.929 . S
H497 C506 0.929 . S
C498 H492 0.930 . S
C498 C499 1.367 . S
C498 C506 1.378 . S
C499 C498 1.367 . S
C499 C507 1.433 . S
C500 H496 0.929 . S
C500 C502 1.378 . S
C500 C504 1.350 . S
C501 C504 1.463 . S
C501 C506 1.350 . S
C501 N509 1.427 . S
C502 H493 0.930 . S
C502 C500 1.378 . S
C502 C503 1.367 . S
C503 C502 1.367 . S
C503 C505 1.433 . S
C504 C500 1.350 . S
C504 C501 1.463 . S
C504 N508 1.427 . S
C505 H495 0.929 . S
C505 C503 1.433 . S
C505 N508 1.384 . S
C506 H497 0.929 . S
C506 C498 1.378 . S
C506 C501 1.350 . S
C507 H494 0.929 . S
C507 C499 1.433 . S
C507 N509 1.384 . S
N508 C504 1.427 . S
N508 C505 1.384 . S
N509 C501 1.427 . S
N509 C507 1.384 . S
H510 C516 0.930 . S
H511 C520 0.930 . S
H512 C525 0.929 . S
H513 C523 0.929 . S
H514 C518 0.929 . S
H515 C524 0.929 . S
C516 H510 0.930 . S
C516 C517 1.367 . S
C516 C524 1.378 . S
C517 C516 1.367 . S
C517 C525 1.433 . S
C518 H514 0.929 . S
C518 C520 1.378 . S
C518 C522 1.350 . S
C519 C522 1.463 . S
C519 C524 1.350 . S
C519 N527 1.427 . S
C520 H511 0.930 . S
C520 C518 1.378 . S
C520 C521 1.367 . S
C521 C520 1.367 . S
C521 C523 1.433 . S
C522 C518 1.350 . S
C522 C519 1.463 . S
C522 N526 1.427 . S
C523 H513 0.929 . S
C523 C521 1.433 . S
C523 N526 1.384 . S
C524 H515 0.929 . S
C524 C516 1.378 . S
C524 C519 1.350 . S
C525 H512 0.929 . S
C525 C517 1.433 . S
C525 N527 1.384 . S
N526 C522 1.427 . S
N526 C523 1.384 . S
N527 C519 1.427 . S
N527 C525 1.384 . S
H528 C534 0.930 . S
H529 C538 0.930 . S
H530 C543 0.929 . S
H531 C541 0.929 . S
H532 C536 0.929 . S
H533 C542 0.929 . S
C534 H528 0.930 . S
C534 C535 1.367 . S
C534 C542 1.378 . S
C535 C534 1.367 . S
C535 C543 1.433 . S
C536 H532 0.929 . S
C536 C538 1.378 . S
C536 C540 1.350 . S
C537 C540 1.463 1_565 S
C537 C542 1.350 . S
C537 N545 1.427 . S
C538 H529 0.930 . S
C538 C536 1.378 . S
C538 C539 1.367 . S
C539 C538 1.367 . S
C539 C541 1.433 . S
C540 C536 1.350 . S
C540 C537 1.463 1_545 S
C540 N544 1.427 . S
C541 H531 0.929 . S
C541 C539 1.433 . S
C541 N544 1.384 . S
C542 H533 0.929 . S
C542 C534 1.378 . S
C542 C537 1.350 . S
C543 H530 0.929 . S
C543 C535 1.433 . S
C543 N545 1.384 . S
N544 C540 1.427 . S
N544 C541 1.384 . S
N545 C537 1.427 . S
N545 C543 1.384 . S
H546 C552 0.930 . S
H547 C556 0.930 . S
H548 C561 0.929 . S
H549 C559 0.929 . S
H550 C554 0.929 . S
H551 C560 0.929 . S
C552 H546 0.930 . S
C552 C553 1.367 . S
C552 C560 1.378 . S
C553 C552 1.367 . S
C553 C561 1.433 . S
C554 H550 0.929 . S
C554 C556 1.378 . S
C554 C558 1.350 . S
C555 C558 1.463 1_655 S
C555 C560 1.350 . S
C555 N563 1.427 . S
C556 H547 0.930 . S
C556 C554 1.378 . S
C556 C557 1.367 . S
C557 C556 1.367 . S
C557 C559 1.433 . S
C558 C554 1.350 . S
C558 C555 1.463 1_455 S
C558 N562 1.427 . S
C559 H549 0.929 . S
C559 C557 1.433 . S
C559 N562 1.384 . S
C560 H551 0.929 . S
C560 C552 1.378 . S
C560 C555 1.350 . S
C561 H548 0.929 . S
C561 C553 1.433 . S
C561 N563 1.384 . S
N562 C558 1.427 . S
N562 C559 1.384 . S
N563 C555 1.427 . S
N563 C561 1.384 . S
H564 C570 0.930 . S
H565 C574 0.930 . S
H566 C579 0.929 . S
H567 C577 0.929 . S
H568 C572 0.929 . S
H569 C578 0.929 . S
C570 H564 0.930 . S
C570 C571 1.367 . S
C570 C578 1.378 . S
C571 C570 1.367 . S
C571 C579 1.433 . S
C572 H568 0.929 . S
C572 C574 1.378 . S
C572 C576 1.350 . S
C573 C576 1.463 1_545 S
C573 C578 1.350 . S
C573 N581 1.427 . S
C574 H565 0.930 . S
C574 C572 1.378 . S
C574 C575 1.367 . S
C575 C574 1.367 . S
C575 C577 1.433 . S
C576 C572 1.350 . S
C576 C573 1.463 1_565 S
C576 N580 1.427 . S
C577 H567 0.929 . S
C577 C575 1.433 . S
C577 N580 1.384 . S
C578 H569 0.929 . S
C578 C570 1.378 . S
C578 C573 1.350 . S
C579 H566 0.929 . S
C579 C571 1.433 . S
C579 N581 1.384 . S
N580 C576 1.427 . S
N580 C577 1.384 . S
N581 C573 1.427 . S
N581 C579 1.384 . S
H582 C588 0.930 . S
H583 C592 0.930 . S
H584 C597 0.929 . S
H585 C595 0.929 . S
H586 C590 0.929 1_455 S
H587 C596 0.929 1_655 S
C588 H582 0.930 . S
C588 C589 1.367 . S
C588 C596 1.378 . S
C589 C588 1.367 . S
C589 C597 1.433 . S
C590 H586 0.929 1_655 S
C590 C592 1.378 . S
C590 C594 1.350 . S
C591 C594 1.463 1_455 S
C591 C596 1.350 . S
C591 N599 1.427 . S
C592 H583 0.930 . S
C592 C590 1.378 . S
C592 C593 1.367 . S
C593 C592 1.367 . S
C593 C595 1.433 . S
C594 C590 1.350 . S
C594 C591 1.463 1_655 S
C594 N598 1.427 . S
C595 H585 0.929 . S
C595 C593 1.433 . S
C595 N598 1.384 . S
C596 H587 0.929 1_455 S
C596 C588 1.378 . S
C596 C591 1.350 . S
C597 H584 0.929 . S
C597 C589 1.433 . S
C597 N599 1.384 . S
N598 C594 1.427 . S
N598 C595 1.384 . S
N599 C591 1.427 . S
N599 C597 1.384 . S
H600 C606 0.930 . S
H601 C610 0.930 . S
H602 C615 0.929 . S
H603 C613 0.929 . S
H604 C608 0.929 . S
H605 C614 0.929 . S
C606 H600 0.930 . S
C606 C607 1.367 . S
C606 C614 1.378 . S
C607 C606 1.367 . S
C607 C615 1.433 . S
C608 H604 0.929 . S
C608 C610 1.378 . S
C608 C612 1.350 . S
C609 C612 1.463 1_565 S
C609 C614 1.350 . S
C609 N617 1.427 . S
C610 H601 0.930 . S
C610 C608 1.378 . S
C610 C611 1.367 . S
C611 C610 1.367 . S
C611 C613 1.433 . S
C612 C608 1.350 . S
C612 C609 1.463 1_545 S
C612 N616 1.427 . S
C613 H603 0.929 . S
C613 C611 1.433 . S
C613 N616 1.384 . S
C614 H605 0.929 . S
C614 C606 1.378 . S
C614 C609 1.350 . S
C615 H602 0.929 . S
C615 C607 1.433 . S
C615 N617 1.384 . S
N616 C612 1.427 . S
N616 C613 1.384 . S
N617 C609 1.427 . S
N617 C615 1.384 . S
H618 C624 0.930 . S
H619 C628 0.930 . S
H620 C633 0.929 . S
H621 C631 0.929 . S
H622 C626 0.929 . S
H623 C632 0.929 . S
C624 H618 0.930 . S
C624 C625 1.367 . S
C624 C632 1.378 . S
C625 C624 1.367 . S
C625 C633 1.433 . S
C626 H622 0.929 . S
C626 C628 1.378 . S
C626 C630 1.350 . S
C627 C630 1.463 1_655 S
C627 C632 1.350 . S
C627 N635 1.427 . S
C628 H619 0.930 . S
C628 C626 1.378 . S
C628 C629 1.367 . S
C629 C628 1.367 . S
C629 C631 1.433 . S
C630 C626 1.350 . S
C630 C627 1.463 1_455 S
C630 N634 1.427 . S
C631 H621 0.929 . S
C631 C629 1.433 . S
C631 N634 1.384 . S
C632 H623 0.929 . S
C632 C624 1.378 . S
C632 C627 1.350 . S
C633 H620 0.929 . S
C633 C625 1.433 . S
C633 N635 1.384 . S
N634 C630 1.427 . S
N634 C631 1.384 . S
N635 C627 1.427 . S
N635 C633 1.384 . S
H636 C642 0.930 . S
H637 C646 0.930 . S
H638 C651 0.929 . S
H639 C649 0.929 . S
H640 C644 0.929 . S
H641 C650 0.929 . S
C642 H636 0.930 . S
C642 C643 1.367 . S
C642 C650 1.378 . S
C643 C642 1.367 . S
C643 C651 1.433 . S
C644 H640 0.929 . S
C644 C646 1.378 . S
C644 C648 1.350 . S
C645 C648 1.463 1_565 S
C645 C650 1.350 . S
C645 N653 1.427 . S
C646 H637 0.930 . S
C646 C644 1.378 . S
C646 C647 1.367 . S
C647 C646 1.367 . S
C647 C649 1.433 . S
C648 C644 1.350 . S
C648 C645 1.463 1_545 S
C648 N652 1.427 . S
C649 H639 0.929 . S
C649 C647 1.433 . S
C649 N652 1.384 . S
C650 H641 0.929 . S
C650 C642 1.378 . S
C650 C645 1.350 . S
C651 H638 0.929 . S
C651 C643 1.433 . S
C651 N653 1.384 . S
N652 C648 1.427 . S
N652 C649 1.384 . S
N653 C645 1.427 . S
N653 C651 1.384 . S
H654 C660 0.930 . S
H655 C664 0.930 . S
H656 C669 0.929 . S
H657 C667 0.929 . S
H658 C662 0.929 . S
H659 C668 0.929 . S
C660 H654 0.930 . S
C660 C661 1.367 . S
C660 C668 1.378 . S
C661 C660 1.367 . S
C661 C669 1.433 . S
C662 H658 0.929 . S
C662 C664 1.378 . S
C662 C666 1.350 . S
C663 C666 1.463 1_455 S
C663 C668 1.350 . S
C663 N671 1.427 . S
C664 H655 0.930 . S
C664 C662 1.378 . S
C664 C665 1.367 . S
C665 C664 1.367 . S
C665 C667 1.433 . S
C666 C662 1.350 . S
C666 C663 1.463 1_655 S
C666 N670 1.427 . S
C667 H657 0.929 . S
C667 C665 1.433 . S
C667 N670 1.384 . S
C668 H659 0.929 . S
C668 C660 1.378 . S
C668 C663 1.350 . S
C669 H656 0.929 . S
C669 C661 1.433 . S
C669 N671 1.384 . S
N670 C666 1.427 . S
N670 C667 1.384 . S
N671 C663 1.427 . S
N671 C669 1.384 . S
H672 C678 0.930 . S
H673 C682 0.930 . S
H674 C687 0.929 . S
H675 C685 0.929 . S
H676 C680 0.929 . S
H677 C686 0.929 . S
C678 H672 0.930 . S
C678 C679 1.367 . S
C678 C686 1.378 . S
C679 C678 1.367 . S
C679 C687 1.433 . S
C680 H676 0.929 . S
C680 C682 1.378 . S
C680 C684 1.350 . S
C681 C684 1.463 1_556 S
C681 C686 1.350 . S
C681 N689 1.427 . S
C682 H673 0.930 . S
C682 C680 1.378 . S
C682 C683 1.367 . S
C683 C682 1.367 . S
C683 C685 1.433 . S
C684 C680 1.350 . S
C684 C681 1.463 1_554 S
C684 N688 1.427 . S
C685 H675 0.929 . S
C685 C683 1.433 . S
C685 N688 1.384 . S
C686 H677 0.929 . S
C686 C678 1.378 . S
C686 C681 1.350 . S
C687 H674 0.929 . S
C687 C679 1.433 . S
C687 N689 1.384 . S
N688 C684 1.427 . S
N688 C685 1.384 . S
N689 C681 1.427 . S
N689 C687 1.384 . S
H690 C696 0.930 . S
H691 C700 0.930 . S
H692 C705 0.929 . S
H693 C703 0.929 . S
H694 C698 0.929 . S
H695 C704 0.929 . S
C696 H690 0.930 . S
C696 C697 1.367 . S
C696 C704 1.378 . S
C697 C696 1.367 . S
C697 C705 1.433 . S
C698 H694 0.929 . S
C698 C700 1.378 . S
C698 C702 1.350 . S
C699 C702 1.463 1_554 S
C699 C704 1.350 . S
C699 N707 1.427 . S
C700 H691 0.930 . S
C700 C698 1.378 . S
C700 C701 1.367 . S
C701 C700 1.367 . S
C701 C703 1.433 . S
C702 C698 1.350 . S
C702 C699 1.463 1_556 S
C702 N706 1.427 . S
C703 H693 0.929 . S
C703 C701 1.433 . S
C703 N706 1.384 . S
C704 H695 0.929 . S
C704 C696 1.378 . S
C704 C699 1.350 . S
C705 H692 0.929 . S
C705 C697 1.433 . S
C705 N707 1.384 . S
N706 C702 1.427 . S
N706 C703 1.384 . S
N707 C699 1.427 . S
N707 C705 1.384 . S
H708 C714 0.930 . S
H709 C718 0.930 . S
H710 C723 0.929 . S
H711 C721 0.929 . S
H712 C716 0.929 1_556 S
H713 C722 0.929 1_554 S
C714 H708 0.930 . S
C714 C715 1.367 . S
C714 C722 1.378 . S
C715 C714 1.367 . S
C715 C723 1.433 . S
C716 H712 0.929 1_554 S
C716 C718 1.378 . S
C716 C720 1.350 . S
C717 C720 1.463 1_556 S
C717 C722 1.350 . S
C717 N725 1.427 . S
C718 H709 0.930 . S
C718 C716 1.378 . S
C718 C719 1.367 . S
C719 C718 1.367 . S
C719 C721 1.433 . S
C720 C716 1.350 . S
C720 C717 1.463 1_554 S
C720 N724 1.427 . S
C721 H711 0.929 . S
C721 C719 1.433 . S
C721 N724 1.384 . S
C722 H713 0.929 1_556 S
C722 C714 1.378 . S
C722 C717 1.350 . S
C723 H710 0.929 . S
C723 C715 1.433 . S
C723 N725 1.384 . S
N724 C720 1.427 . S
N724 C721 1.384 . S
N725 C717 1.427 . S
N725 C723 1.384 . S
H726 C732 0.930 . S
H727 C736 0.930 . S
H728 C741 0.929 . S
H729 C739 0.929 . S
H730 C734 0.929 1_554 S
H731 C740 0.929 1_556 S
C732 H726 0.930 . S
C732 C733 1.367 . S
C732 C740 1.378 . S
C733 C732 1.367 . S
C733 C741 1.433 . S
C734 H730 0.929 1_556 S
C734 C736 1.378 . S
C734 C738 1.350 . S
C735 C738 1.463 1_554 S
C735 C740 1.350 . S
C735 N743 1.427 . S
C736 H727 0.930 . S
C736 C734 1.378 . S
C736 C737 1.367 . S
C737 C736 1.367 . S
C737 C739 1.433 . S
C738 C734 1.350 . S
C738 C735 1.463 1_556 S
C738 N742 1.427 . S
C739 H729 0.929 . S
C739 C737 1.433 . S
C739 N742 1.384 . S
C740 H731 0.929 1_554 S
C740 C732 1.378 . S
C740 C735 1.350 . S
C741 H728 0.929 . S
C741 C733 1.433 . S
C741 N743 1.384 . S
N742 C738 1.427 . S
N742 C739 1.384 . S
N743 C735 1.427 . S
N743 C741 1.384 . S
H744 C750 0.930 . S
H745 C754 0.930 . S
H746 C759 0.929 . S
H747 C757 0.929 . S
H748 C752 0.929 . S
H749 C758 0.929 . S
C750 H744 0.930 . S
C750 C751 1.367 . S
C750 C758 1.378 . S
C751 C750 1.367 . S
C751 C759 1.433 . S
C752 H748 0.929 . S
C752 C754 1.378 . S
C752 C756 1.350 . S
C753 C756 1.463 . S
C753 C758 1.350 . S
C753 N761 1.427 . S
C754 H745 0.930 . S
C754 C752 1.378 . S
C754 C755 1.367 . S
C755 C754 1.367 . S
C755 C757 1.433 . S
C756 C752 1.350 . S
C756 C753 1.463 . S
C756 N760 1.427 . S
C757 H747 0.929 . S
C757 C755 1.433 . S
C757 N760 1.384 . S
C758 H749 0.929 . S
C758 C750 1.378 . S
C758 C753 1.350 . S
C759 H746 0.929 . S
C759 C751 1.433 . S
C759 N761 1.384 . S
N760 C756 1.427 . S
N760 C757 1.384 . S
N761 C753 1.427 . S
N761 C759 1.384 . S
H762 C768 0.930 . S
H763 C772 0.930 . S
H764 C777 0.929 . S
H765 C775 0.929 . S
H766 C770 0.929 . S
H767 C776 0.929 . S
C768 H762 0.930 . S
C768 C769 1.367 . S
C768 C776 1.378 . S
C769 C768 1.367 . S
C769 C777 1.433 . S
C770 H766 0.929 . S
C770 C772 1.378 . S
C770 C774 1.350 . S
C771 C774 1.463 . S
C771 C776 1.350 . S
C771 N779 1.427 . S
C772 H763 0.930 . S
C772 C770 1.378 . S
C772 C773 1.367 . S
C773 C772 1.367 . S
C773 C775 1.433 . S
C774 C770 1.350 . S
C774 C771 1.463 . S
C774 N778 1.427 . S
C775 H765 0.929 . S
C775 C773 1.433 . S
C775 N778 1.384 . S
C776 H767 0.929 . S
C776 C768 1.378 . S
C776 C771 1.350 . S
C777 H764 0.929 . S
C777 C769 1.433 . S
C777 N779 1.384 . S
N778 C774 1.427 . S
N778 C775 1.384 . S
N779 C771 1.427 . S
N779 C777 1.384 . S
H780 C786 0.930 . S
H781 C790 0.930 . S
H782 C795 0.929 . S
H783 C793 0.929 . S
H784 C788 0.929 . S
H785 C794 0.929 . S
C786 H780 0.930 . S
C786 C787 1.367 . S
C786 C794 1.378 . S
C787 C786 1.367 . S
C787 C795 1.433 . S
C788 H784 0.929 . S
C788 C790 1.378 . S
C788 C792 1.350 . S
C789 C792 1.463 . S
C789 C794 1.350 . S
C789 N797 1.427 . S
C790 H781 0.930 . S
C790 C788 1.378 . S
C790 C791 1.367 . S
C791 C790 1.367 . S
C791 C793 1.433 . S
C792 C788 1.350 . S
C792 C789 1.463 . S
C792 N796 1.427 . S
C793 H783 0.929 . S
C793 C791 1.433 . S
C793 N796 1.384 . S
C794 H785 0.929 . S
C794 C786 1.378 . S
C794 C789 1.350 . S
C795 H782 0.929 . S
C795 C787 1.433 . S
C795 N797 1.384 . S
N796 C792 1.427 . S
N796 C793 1.384 . S
N797 C789 1.427 . S
N797 C795 1.384 . S
H798 C804 0.930 . S
H799 C808 0.930 . S
H800 C813 0.929 . S
H801 C811 0.929 . S
H802 C806 0.929 . S
H803 C812 0.929 . S
C804 H798 0.930 . S
C804 C805 1.367 . S
C804 C812 1.378 . S
C805 C804 1.367 . S
C805 C813 1.433 . S
C806 H802 0.929 . S
C806 C808 1.378 . S
C806 C810 1.350 . S
C807 C810 1.463 . S
C807 C812 1.350 . S
C807 N815 1.427 . S
C808 H799 0.930 . S
C808 C806 1.378 . S
C808 C809 1.367 . S
C809 C808 1.367 . S
C809 C811 1.433 . S
C810 C806 1.350 . S
C810 C807 1.463 . S
C810 N814 1.427 . S
C811 H801 0.929 . S
C811 C809 1.433 . S
C811 N814 1.384 . S
C812 H803 0.929 . S
C812 C804 1.378 . S
C812 C807 1.350 . S
C813 H800 0.929 . S
C813 C805 1.433 . S
C813 N815 1.384 . S
N814 C810 1.427 . S
N814 C811 1.384 . S
N815 C807 1.427 . S
N815 C813 1.384 . S
H816 C822 0.930 . S
H817 C826 0.930 . S
H818 C831 0.929 . S
H819 C829 0.929 . S
H820 C824 0.929 . S
H821 C830 0.929 . S
C822 H816 0.930 . S
C822 C823 1.367 . S
C822 C830 1.378 . S
C823 C822 1.367 . S
C823 C831 1.433 . S
C824 H820 0.929 . S
C824 C826 1.378 . S
C824 C828 1.350 . S
C825 C828 1.463 . S
C825 C830 1.350 . S
C825 N833 1.427 . S
C826 H817 0.930 . S
C826 C824 1.378 . S
C826 C827 1.367 . S
C827 C826 1.367 . S
C827 C829 1.433 . S
C828 C824 1.350 . S
C828 C825 1.463 . S
C828 N832 1.427 . S
C829 H819 0.929 . S
C829 C827 1.433 . S
C829 N832 1.384 . S
C830 H821 0.929 . S
C830 C822 1.378 . S
C830 C825 1.350 . S
C831 H818 0.929 . S
C831 C823 1.433 . S
C831 N833 1.384 . S
N832 C828 1.427 . S
N832 C829 1.384 . S
N833 C825 1.427 . S
N833 C831 1.384 . S
H834 C840 0.930 . S
H835 C844 0.930 . S
H836 C849 0.929 . S
H837 C847 0.929 . S
H838 C842 0.929 . S
H839 C848 0.929 . S
C840 H834 0.930 . S
C840 C841 1.367 . S
C840 C848 1.378 . S
C841 C840 1.367 . S
C841 C849 1.433 . S
C842 H838 0.929 . S
C842 C844 1.378 . S
C842 C846 1.350 . S
C843 C846 1.463 . S
C843 C848 1.350 . S
C843 N851 1.427 . S
C844 H835 0.930 . S
C844 C842 1.378 . S
C844 C845 1.367 . S
C845 C844 1.367 . S
C845 C847 1.433 . S
C846 C842 1.350 . S
C846 C843 1.463 . S
C846 N850 1.427 . S
C847 H837 0.929 . S
C847 C845 1.433 . S
C847 N850 1.384 . S
C848 H839 0.929 . S
C848 C840 1.378 . S
C848 C843 1.350 . S
C849 H836 0.929 . S
C849 C841 1.433 . S
C849 N851 1.384 . S
N850 C846 1.427 . S
N850 C847 1.384 . S
N851 C843 1.427 . S
N851 C849 1.384 . S
H852 C858 0.930 . S
H853 C862 0.930 . S
H854 C867 0.929 . S
H855 C865 0.929 . S
H856 C860 0.929 . S
H857 C866 0.929 . S
C858 H852 0.930 . S
C858 C859 1.367 . S
C858 C866 1.378 . S
C859 C858 1.367 . S
C859 C867 1.433 . S
C860 H856 0.929 . S
C860 C862 1.378 . S
C860 C864 1.350 . S
C861 C864 1.463 . S
C861 C866 1.350 . S
C861 N869 1.427 . S
C862 H853 0.930 . S
C862 C860 1.378 . S
C862 C863 1.367 . S
C863 C862 1.367 . S
C863 C865 1.433 . S
C864 C860 1.350 . S
C864 C861 1.463 . S
C864 N868 1.427 . S
C865 H855 0.929 . S
C865 C863 1.433 . S
C865 N868 1.384 . S
C866 H857 0.929 . S
C866 C858 1.378 . S
C866 C861 1.350 . S
C867 H854 0.929 . S
C867 C859 1.433 . S
C867 N869 1.384 . S
N868 C864 1.427 . S
N868 C865 1.384 . S
N869 C861 1.427 . S
N869 C867 1.384 . S
H870 C876 0.930 . S
H871 C880 0.930 . S
H872 C885 0.929 . S
H873 C883 0.929 . S
H874 C878 0.929 . S
H875 C884 0.929 . S
C876 H870 0.930 . S
C876 C877 1.367 . S
C876 C884 1.378 . S
C877 C876 1.367 . S
C877 C885 1.433 . S
C878 H874 0.929 . S
C878 C880 1.378 . S
C878 C882 1.350 . S
C879 C882 1.463 . S
C879 C884 1.350 . S
C879 N887 1.427 . S
C880 H871 0.930 . S
C880 C878 1.378 . S
C880 C881 1.367 . S
C881 C880 1.367 . S
C881 C883 1.433 . S
C882 C878 1.350 . S
C882 C879 1.463 . S
C882 N886 1.427 . S
C883 H873 0.929 . S
C883 C881 1.433 . S
C883 N886 1.384 . S
C884 H875 0.929 . S
C884 C876 1.378 . S
C884 C879 1.350 . S
C885 H872 0.929 . S
C885 C877 1.433 . S
C885 N887 1.384 . S
N886 C882 1.427 . S
N886 C883 1.384 . S
N887 C879 1.427 . S
N887 C885 1.384 . S
H888 C894 0.930 . S
H889 C898 0.930 . S
H890 C903 0.929 . S
H891 C901 0.929 . S
H892 C896 0.929 . S
H893 C902 0.929 . S
C894 H888 0.930 . S
C894 C895 1.367 . S
C894 C902 1.378 . S
C895 C894 1.367 . S
C895 C903 1.433 . S
C896 H892 0.929 . S
C896 C898 1.378 . S
C896 C900 1.350 . S
C897 C900 1.463 . S
C897 C902 1.350 . S
C897 N905 1.427 . S
C898 H889 0.930 . S
C898 C896 1.378 . S
C898 C899 1.367 . S
C899 C898 1.367 . S
C899 C901 1.433 . S
C900 C896 1.350 . S
C900 C897 1.463 . S
C900 N904 1.427 . S
C901 H891 0.929 . S
C901 C899 1.433 . S
C901 N904 1.384 . S
C902 H893 0.929 . S
C902 C894 1.378 . S
C902 C897 1.350 . S
C903 H890 0.929 . S
C903 C895 1.433 . S
C903 N905 1.384 . S
N904 C900 1.427 . S
N904 C901 1.384 . S
N905 C897 1.427 . S
N905 C903 1.384 . S
H906 C912 0.930 . S
H907 C916 0.930 . S
H908 C921 0.929 . S
H909 C919 0.929 . S
H910 C914 0.929 . S
H911 C920 0.929 . S
C912 H906 0.930 . S
C912 C913 1.367 . S
C912 C920 1.378 . S
C913 C912 1.367 . S
C913 C921 1.433 . S
C914 H910 0.929 . S
C914 C916 1.378 . S
C914 C918 1.350 . S
C915 C918 1.463 . S
C915 C920 1.350 . S
C915 N923 1.427 . S
C916 H907 0.930 . S
C916 C914 1.378 . S
C916 C917 1.367 . S
C917 C916 1.367 . S
C917 C919 1.433 . S
C918 C914 1.350 . S
C918 C915 1.463 . S
C918 N922 1.427 . S
C919 H909 0.929 . S
C919 C917 1.433 . S
C919 N922 1.384 . S
C920 H911 0.929 . S
C920 C912 1.378 . S
C920 C915 1.350 . S
C921 H908 0.929 . S
C921 C913 1.433 . S
C921 N923 1.384 . S
N922 C918 1.427 . S
N922 C919 1.384 . S
N923 C915 1.427 . S
N923 C921 1.384 . S
H924 C930 0.930 . S
H925 C934 0.930 . S
H926 C939 0.929 . S
H927 C937 0.929 . S
H928 C932 0.929 . S
H929 C938 0.929 . S
C930 H924 0.930 . S
C930 C931 1.367 . S
C930 C938 1.378 . S
C931 C930 1.367 . S
C931 C939 1.433 . S
C932 H928 0.929 . S
C932 C934 1.378 . S
C932 C936 1.350 . S
C933 C936 1.463 . S
C933 C938 1.350 . S
C933 N941 1.427 . S
C934 H925 0.930 . S
C934 C932 1.378 . S
C934 C935 1.367 . S
C935 C934 1.367 . S
C935 C937 1.433 . S
C936 C932 1.350 . S
C936 C933 1.463 . S
C936 N940 1.427 . S
C937 H927 0.929 . S
C937 C935 1.433 . S
C937 N940 1.384 . S
C938 H929 0.929 . S
C938 C930 1.378 . S
C938 C933 1.350 . S
C939 H926 0.929 . S
C939 C931 1.433 . S
C939 N941 1.384 . S
N940 C936 1.427 . S
N940 C937 1.384 . S
N941 C933 1.427 . S
N941 C939 1.384 . S
H942 C948 0.930 . S
H943 C952 0.930 . S
H944 C957 0.929 . S
H945 C955 0.929 . S
H946 C950 0.929 . S
H947 C956 0.929 . S
C948 H942 0.930 . S
C948 C949 1.367 . S
C948 C956 1.378 . S
C949 C948 1.367 . S
C949 C957 1.433 . S
C950 H946 0.929 . S
C950 C952 1.378 . S
C950 C954 1.350 . S
C951 C954 1.463 . S
C951 C956 1.350 . S
C951 N959 1.427 . S
C952 H943 0.930 . S
C952 C950 1.378 . S
C952 C953 1.367 . S
C953 C952 1.367 . S
C953 C955 1.433 . S
C954 C950 1.350 . S
C954 C951 1.463 . S
C954 N958 1.427 . S
C955 H945 0.929 . S
C955 C953 1.433 . S
C955 N958 1.384 . S
C956 H947 0.929 . S
C956 C948 1.378 . S
C956 C951 1.350 . S
C957 H944 0.929 . S
C957 C949 1.433 . S
C957 N959 1.384 . S
N958 C954 1.427 . S
N958 C955 1.384 . S
N959 C951 1.427 . S
N959 C957 1.384 . S
H960 C966 0.930 . S
H961 C970 0.930 . S
H962 C975 0.929 . S
H963 C973 0.929 . S
H964 C968 0.929 . S
H965 C974 0.929 . S
C966 H960 0.930 . S
C966 C967 1.367 . S
C966 C974 1.378 . S
C967 C966 1.367 . S
C967 C975 1.433 . S
C968 H964 0.929 . S
C968 C970 1.378 . S
C968 C972 1.350 . S
C969 C972 1.463 . S
C969 C974 1.350 . S
C969 N977 1.427 . S
C970 H961 0.930 . S
C970 C968 1.378 . S
C970 C971 1.367 . S
C971 C970 1.367 . S
C971 C973 1.433 . S
C972 C968 1.350 . S
C972 C969 1.463 . S
C972 N976 1.427 . S
C973 H963 0.929 . S
C973 C971 1.433 . S
C973 N976 1.384 . S
C974 H965 0.929 . S
C974 C966 1.378 . S
C974 C969 1.350 . S
C975 H962 0.929 . S
C975 C967 1.433 . S
C975 N977 1.384 . S
N976 C972 1.427 . S
N976 C973 1.384 . S
N977 C969 1.427 . S
N977 C975 1.384 . S
H978 C984 0.930 . S
H979 C988 0.930 . S
H980 C993 0.929 . S
H981 C991 0.929 . S
H982 C986 0.929 . S
H983 C992 0.929 . S
C984 H978 0.930 . S
C984 C985 1.367 . S
C984 C992 1.378 . S
C985 C984 1.367 . S
C985 C993 1.433 . S
C986 H982 0.929 . S
C986 C988 1.378 . S
C986 C990 1.350 . S
C987 C990 1.463 . S
C987 C992 1.350 . S
C987 N995 1.427 . S
C988 H979 0.930 . S
C988 C986 1.378 . S
C988 C989 1.367 . S
C989 C988 1.367 . S
C989 C991 1.433 . S
C990 C986 1.350 . S
C990 C987 1.463 . S
C990 N994 1.427 . S
C991 H981 0.929 . S
C991 C989 1.433 . S
C991 N994 1.384 . S
C992 H983 0.929 . S
C992 C984 1.378 . S
C992 C987 1.350 . S
C993 H980 0.929 . S
C993 C985 1.433 . S
C993 N995 1.384 . S
N994 C990 1.427 . S
N994 C991 1.384 . S
N995 C987 1.427 . S
N995 C993 1.384 . S
H996 C1002 0.930 . S
H997 C1006 0.930 . S
H998 C1011 0.929 . S
H999 C1009 0.929 . S
H1000 C1004 0.929 . S
H1001 C1010 0.929 . S
C1002 H996 0.930 . S
C1002 C1003 1.367 . S
C1002 C1010 1.378 . S
C1003 C1002 1.367 . S
C1003 C1011 1.433 . S
C1004 H1000 0.929 . S
C1004 C1006 1.378 . S
C1004 C1008 1.350 . S
C1005 C1008 1.463 . S
C1005 C1010 1.350 . S
C1005 N1013 1.427 . S
C1006 H997 0.930 . S
C1006 C1004 1.378 . S
C1006 C1007 1.367 . S
C1007 C1006 1.367 . S
C1007 C1009 1.433 . S
C1008 C1004 1.350 . S
C1008 C1005 1.463 . S
C1008 N1012 1.427 . S
C1009 H999 0.929 . S
C1009 C1007 1.433 . S
C1009 N1012 1.384 . S
C1010 H1001 0.929 . S
C1010 C1002 1.378 . S
C1010 C1005 1.350 . S
C1011 H998 0.929 . S
C1011 C1003 1.433 . S
C1011 N1013 1.384 . S
N1012 C1008 1.427 . S
N1012 C1009 1.384 . S
N1013 C1005 1.427 . S
N1013 C1011 1.384 . S
H1014 C1020 0.930 . S
H1015 C1024 0.930 . S
H1016 C1029 0.929 . S
H1017 C1027 0.929 . S
H1018 C1022 0.929 . S
H1019 C1028 0.929 . S
C1020 H1014 0.930 . S
C1020 C1021 1.367 . S
C1020 C1028 1.378 . S
C1021 C1020 1.367 . S
C1021 C1029 1.433 . S
C1022 H1018 0.929 . S
C1022 C1024 1.378 . S
C1022 C1026 1.350 . S
C1023 C1026 1.463 . S
C1023 C1028 1.350 . S
C1023 N1031 1.427 . S
C1024 H1015 0.930 . S
C1024 C1022 1.378 . S
C1024 C1025 1.367 . S
C1025 C1024 1.367 . S
C1025 C1027 1.433 . S
C1026 C1022 1.350 . S
C1026 C1023 1.463 . S
C1026 N1030 1.427 . S
C1027 H1017 0.929 . S
C1027 C1025 1.433 . S
C1027 N1030 1.384 . S
C1028 H1019 0.929 . S
C1028 C1020 1.378 . S
C1028 C1023 1.350 . S
C1029 H1016 0.929 . S
C1029 C1021 1.433 . S
C1029 N1031 1.384 . S
N1030 C1026 1.427 . S
N1030 C1027 1.384 . S
N1031 C1023 1.427 . S
N1031 C1029 1.384 . S
H1032 C1038 0.930 . S
H1033 C1042 0.930 . S
H1034 C1047 0.929 . S
H1035 C1045 0.929 . S
H1036 C1040 0.929 . S
H1037 C1046 0.929 . S
C1038 H1032 0.930 . S
C1038 C1039 1.367 . S
C1038 C1046 1.378 . S
C1039 C1038 1.367 . S
C1039 C1047 1.433 . S
C1040 H1036 0.929 . S
C1040 C1042 1.378 . S
C1040 C1044 1.350 . S
C1041 C1044 1.463 . S
C1041 C1046 1.350 . S
C1041 N1049 1.427 . S
C1042 H1033 0.930 . S
C1042 C1040 1.378 . S
C1042 C1043 1.367 . S
C1043 C1042 1.367 . S
C1043 C1045 1.433 . S
C1044 C1040 1.350 . S
C1044 C1041 1.463 . S
C1044 N1048 1.427 . S
C1045 H1035 0.929 . S
C1045 C1043 1.433 . S
C1045 N1048 1.384 . S
C1046 H1037 0.929 . S
C1046 C1038 1.378 . S
C1046 C1041 1.350 . S
C1047 H1034 0.929 . S
C1047 C1039 1.433 . S
C1047 N1049 1.384 . S
N1048 C1044 1.427 . S
N1048 C1045 1.384 . S
N1049 C1041 1.427 . S
N1049 C1047 1.384 . S
H1050 C1056 0.930 . S
H1051 C1060 0.930 . S
H1052 C1065 0.929 . S
H1053 C1063 0.929 . S
H1054 C1058 0.929 . S
H1055 C1064 0.929 . S
C1056 H1050 0.930 . S
C1056 C1057 1.367 . S
C1056 C1064 1.378 . S
C1057 C1056 1.367 . S
C1057 C1065 1.433 . S
C1058 H1054 0.929 . S
C1058 C1060 1.378 . S
C1058 C1062 1.350 . S
C1059 C1062 1.463 . S
C1059 C1064 1.350 . S
C1059 N1067 1.427 . S
C1060 H1051 0.930 . S
C1060 C1058 1.378 . S
C1060 C1061 1.367 . S
C1061 C1060 1.367 . S
C1061 C1063 1.433 . S
C1062 C1058 1.350 . S
C1062 C1059 1.463 . S
C1062 N1066 1.427 . S
C1063 H1053 0.929 . S
C1063 C1061 1.433 . S
C1063 N1066 1.384 . S
C1064 H1055 0.929 . S
C1064 C1056 1.378 . S
C1064 C1059 1.350 . S
C1065 H1052 0.929 . S
C1065 C1057 1.433 . S
C1065 N1067 1.384 . S
N1066 C1062 1.427 . S
N1066 C1063 1.384 . S
N1067 C1059 1.427 . S
N1067 C1065 1.384 . S
H1068 C1074 0.930 . S
H1069 C1078 0.930 . S
H1070 C1083 0.929 . S
H1071 C1081 0.929 . S
H1072 C1076 0.929 . S
H1073 C1082 0.929 . S
C1074 H1068 0.930 . S
C1074 C1075 1.367 . S
C1074 C1082 1.378 . S
C1075 C1074 1.367 . S
C1075 C1083 1.433 . S
C1076 H1072 0.929 . S
C1076 C1078 1.378 . S
C1076 C1080 1.350 . S
C1077 C1080 1.463 . S
C1077 C1082 1.350 . S
C1077 N1085 1.427 . S
C1078 H1069 0.930 . S
C1078 C1076 1.378 . S
C1078 C1079 1.367 . S
C1079 C1078 1.367 . S
C1079 C1081 1.433 . S
C1080 C1076 1.350 . S
C1080 C1077 1.463 . S
C1080 N1084 1.427 . S
C1081 H1071 0.929 . S
C1081 C1079 1.433 . S
C1081 N1084 1.384 . S
C1082 H1073 0.929 . S
C1082 C1074 1.378 . S
C1082 C1077 1.350 . S
C1083 H1070 0.929 . S
C1083 C1075 1.433 . S
C1083 N1085 1.384 . S
N1084 C1080 1.427 . S
N1084 C1081 1.384 . S
N1085 C1077 1.427 . S
N1085 C1083 1.384 . S
H1086 C1092 0.930 . S
H1087 C1096 0.930 . S
H1088 C1101 0.929 . S
H1089 C1099 0.929 . S
H1090 C1094 0.929 . S
H1091 C1100 0.929 . S
C1092 H1086 0.930 . S
C1092 C1093 1.367 . S
C1092 C1100 1.378 . S
C1093 C1092 1.367 . S
C1093 C1101 1.433 . S
C1094 H1090 0.929 . S
C1094 C1096 1.378 . S
C1094 C1098 1.350 . S
C1095 C1098 1.463 . S
C1095 C1100 1.350 . S
C1095 N1103 1.427 . S
C1096 H1087 0.930 . S
C1096 C1094 1.378 . S
C1096 C1097 1.367 . S
C1097 C1096 1.367 . S
C1097 C1099 1.433 . S
C1098 C1094 1.350 . S
C1098 C1095 1.463 . S
C1098 N1102 1.427 . S
C1099 H1089 0.929 . S
C1099 C1097 1.433 . S
C1099 N1102 1.384 . S
C1100 H1091 0.929 . S
C1100 C1092 1.378 . S
C1100 C1095 1.350 . S
C1101 H1088 0.929 . S
C1101 C1093 1.433 . S
C1101 N1103 1.384 . S
N1102 C1098 1.427 . S
N1102 C1099 1.384 . S
N1103 C1095 1.427 . S
N1103 C1101 1.384 . S
H1104 C1110 0.930 . S
H1105 C1114 0.930 . S
H1106 C1119 0.929 . S
H1107 C1117 0.929 . S
H1108 C1112 0.929 . S
H1109 C1118 0.929 . S
C1110 H1104 0.930 . S
C1110 C1111 1.367 . S
C1110 C1118 1.378 . S
C1111 C1110 1.367 . S
C1111 C1119 1.433 . S
C1112 H1108 0.929 . S
C1112 C1114 1.378 . S
C1112 C1116 1.350 . S
C1113 C1116 1.463 . S
C1113 C1118 1.350 . S
C1113 N1121 1.427 . S
C1114 H1105 0.930 . S
C1114 C1112 1.378 . S
C1114 C1115 1.367 . S
C1115 C1114 1.367 . S
C1115 C1117 1.433 . S
C1116 C1112 1.350 . S
C1116 C1113 1.463 . S
C1116 N1120 1.427 . S
C1117 H1107 0.929 . S
C1117 C1115 1.433 . S
C1117 N1120 1.384 . S
C1118 H1109 0.929 . S
C1118 C1110 1.378 . S
C1118 C1113 1.350 . S
C1119 H1106 0.929 . S
C1119 C1111 1.433 . S
C1119 N1121 1.384 . S
N1120 C1116 1.427 . S
N1120 C1117 1.384 . S
N1121 C1113 1.427 . S
N1121 C1119 1.384 . S
H1122 C1128 0.930 . S
H1123 C1132 0.930 . S
H1124 C1137 0.929 . S
H1125 C1135 0.929 . S
H1126 C1130 0.929 . S
H1127 C1136 0.929 . S
C1128 H1122 0.930 . S
C1128 C1129 1.367 . S
C1128 C1136 1.378 . S
C1129 C1128 1.367 . S
C1129 C1137 1.433 . S
C1130 H1126 0.929 . S
C1130 C1132 1.378 . S
C1130 C1134 1.350 . S
C1131 C1134 1.463 . S
C1131 C1136 1.350 . S
C1131 N1139 1.427 . S
C1132 H1123 0.930 . S
C1132 C1130 1.378 . S
C1132 C1133 1.367 . S
C1133 C1132 1.367 . S
C1133 C1135 1.433 . S
C1134 C1130 1.350 . S
C1134 C1131 1.463 . S
C1134 N1138 1.427 . S
C1135 H1125 0.929 . S
C1135 C1133 1.433 . S
C1135 N1138 1.384 . S
C1136 H1127 0.929 . S
C1136 C1128 1.378 . S
C1136 C1131 1.350 . S
C1137 H1124 0.929 . S
C1137 C1129 1.433 . S
C1137 N1139 1.384 . S
N1138 C1134 1.427 . S
N1138 C1135 1.384 . S
N1139 C1131 1.427 . S
N1139 C1137 1.384 . S
H1140 C1146 0.930 . S
H1141 C1150 0.930 . S
H1142 C1155 0.929 . S
H1143 C1153 0.929 . S
H1144 C1148 0.929 . S
H1145 C1154 0.929 . S
C1146 H1140 0.930 . S
C1146 C1147 1.367 . S
C1146 C1154 1.378 . S
C1147 C1146 1.367 . S
C1147 C1155 1.433 . S
C1148 H1144 0.929 . S
C1148 C1150 1.378 . S
C1148 C1152 1.350 . S
C1149 C1152 1.463 . S
C1149 C1154 1.350 . S
C1149 N1157 1.427 . S
C1150 H1141 0.930 . S
C1150 C1148 1.378 . S
C1150 C1151 1.367 . S
C1151 C1150 1.367 . S
C1151 C1153 1.433 . S
C1152 C1148 1.350 . S
C1152 C1149 1.463 . S
C1152 N1156 1.427 . S
C1153 H1143 0.929 . S
C1153 C1151 1.433 . S
C1153 N1156 1.384 . S
C1154 H1145 0.929 . S
C1154 C1146 1.378 . S
C1154 C1149 1.350 . S
C1155 H1142 0.929 . S
C1155 C1147 1.433 . S
C1155 N1157 1.384 . S
N1156 C1152 1.427 . S
N1156 C1153 1.384 . S
N1157 C1149 1.427 . S
N1157 C1155 1.384 . S
H1158 C1164 0.930 . S
H1159 C1168 0.930 . S
H1160 C1173 0.929 . S
H1161 C1171 0.929 . S
H1162 C1166 0.929 . S
H1163 C1172 0.929 . S
C1164 H1158 0.930 . S
C1164 C1165 1.367 . S
C1164 C1172 1.378 . S
C1165 C1164 1.367 . S
C1165 C1173 1.433 . S
C1166 H1162 0.929 . S
C1166 C1168 1.378 . S
C1166 C1170 1.350 . S
C1167 C1170 1.463 . S
C1167 C1172 1.350 . S
C1167 N1175 1.427 . S
C1168 H1159 0.930 . S
C1168 C1166 1.378 . S
C1168 C1169 1.367 . S
C1169 C1168 1.367 . S
C1169 C1171 1.433 . S
C1170 C1166 1.350 . S
C1170 C1167 1.463 . S
C1170 N1174 1.427 . S
C1171 H1161 0.929 . S
C1171 C1169 1.433 . S
C1171 N1174 1.384 . S
C1172 H1163 0.929 . S
C1172 C1164 1.378 . S
C1172 C1167 1.350 . S
C1173 H1160 0.929 . S
C1173 C1165 1.433 . S
C1173 N1175 1.384 . S
N1174 C1170 1.427 . S
N1174 C1171 1.384 . S
N1175 C1167 1.427 . S
N1175 C1173 1.384 . S
C319 C290 1.589 . S
C323 C5 1.598 . S
C337 C17 1.586 . S
C341 C213 1.594 . S
C355 C309 1.593 . S
C359 C29 1.602 . S
C373 C278 1.600 . S
C377 C44 1.600 . S
C391 C239 1.601 . S
C395 C55 1.601 . S
C409 C257 1.596 . S
C413 C68 1.604 . S
C427 C265 1.594 . S
C431 C88 1.586 . S
C445 C94 1.599 . S
C449 C225 1.591 . S
C463 C173 1.598 . S
C467 C114 1.599 . S
C481 C185 1.603 . S
C485 C120 1.603 . S
C499 C134 1.595 . S
C503 C205 1.595 . S
C517 C146 1.593 . S
C521 C161 1.593 . S
C535 C95 1.588 . S
C539 C186 1.588 . S
C553 C200 1.598 . S
C557 C56 1.589 . S
C571 C69 1.588 . S
C575 C166 1.589 . S
C589 C172 1.606 . S
C593 C83 1.606 . S
C607 C133 1.595 . S
C611 C16 1.595 . S
C625 C30 1.580 . S
C629 C147 1.581 . S
C643 C49 1.591 . S
C647 C109 1.600 . S
C661 C10 1.584 . S
C665 C121 1.585 . S
C679 C270 1.580 . S
C683 C283 1.580 . S
C697 C289 1.595 . S
C701 C224 1.595 . S
C715 C244 1.593 . S
C719 C218 1.594 . S
C733 C304 1.605 . S
C737 C252 1.605 . S
C751 C4 0.878 . S
C755 C108 0.867 . S
C769 C122 0.874 . S
C773 C18 0.891 . S
C787 C36 0.862 . S
C791 C140 0.859 . S
C805 C43 0.877 . S
C809 C148 0.889 . S
C823 C62 0.871 . S
C827 C159 0.886 . S
C841 C75 0.857 . S
C845 C179 0.866 . S
C859 C187 0.894 . S
C863 C81 0.896 . S
C877 C199 0.856 . S
C881 C101 0.858 . S
C895 C107 0.891 . S
C899 C211 0.891 . S
C913 C127 0.867 . S
C917 C303 0.883 . S
C931 C276 0.884 . S
C935 C135 0.897 . S
C949 C296 0.879 . S
C953 C153 0.883 . S
C967 C231 0.875 . S
C971 C160 0.884 . S
C985 C237 0.893 . S
C989 C174 0.893 . S
C1003 C192 0.875 . S
C1007 C251 0.884 . S
C1021 C198 0.876 . S
C1025 C263 0.893 . S
C1039 C3 0.882 . S
C1043 C212 0.873 . S
C1057 C226 0.885 . S
C1061 C57 0.881 . S
C1075 C238 0.878 . S
C1079 C70 0.885 . S
C1093 C250 0.881 . S
C1097 C82 0.896 . S
C1111 C264 0.879 . S
C1115 C96 0.880 . S
C1129 C277 0.870 . S
C1133 C31 0.860 . S
C1147 C42 0.902 . S
C1151 C291 0.883 . S
C1165 C302 0.893 . S
C1169 C23 0.880 . S
