# Generated by pormake.
# Topology wse, (4)-cn, num edge types: 1
# Building blocks:
#     Node 0, Type 0, BuildingBlock: CEKHIL_clean_sbu_0, # of connection points: 4
#     Node 1, Type 0, BuildingBlock: CEKHIL_clean_sbu_0, # of connection points: 4
#     Node 2, Type 0, BuildingBlock: CEKHIL_clean_sbu_0, # of connection points: 4
#     Node 3, Type 0, BuildingBlock: CEKHIL_clean_sbu_0, # of connection points: 4
#     Node 4, Type 0, BuildingBlock: CEKHIL_clean_sbu_0, # of connection points: 4
#     Node 5, Type 0, BuildingBlock: CEKHIL_clean_sbu_0, # of connection points: 4
#     Node 6, Type 0, BuildingBlock: CEKHIL_clean_sbu_0, # of connection points: 4
#     Node 7, Type 0, BuildingBlock: CEKHIL_clean_sbu_0, # of connection points: 4
#     Node 8, Type 0, BuildingBlock: CEKHIL_clean_sbu_0, # of connection points: 4
#     Node 9, Type 0, BuildingBlock: CEKHIL_clean_sbu_0, # of connection points: 4
#     Node 10, Type 0, BuildingBlock: CEKHIL_clean_sbu_0, # of connection points: 4
#     Node 11, Type 0, BuildingBlock: CEKHIL_clean_sbu_0, # of connection points: 4
#     Node 12, Type 0, BuildingBlock: CEKHIL_clean_sbu_0, # of connection points: 4
#     Node 13, Type 0, BuildingBlock: CEKHIL_clean_sbu_0, # of connection points: 4
#     Node 14, Type 0, BuildingBlock: CEKHIL_clean_sbu_0, # of connection points: 4
#     Node 15, Type 0, BuildingBlock: CEKHIL_clean_sbu_0, # of connection points: 4
#     Node 16, Type 0, BuildingBlock: CEKHIL_clean_sbu_0, # of connection points: 4
#     Node 17, Type 0, BuildingBlock: CEKHIL_clean_sbu_0, # of connection points: 4
#     Node 18, Type 0, BuildingBlock: CEKHIL_clean_sbu_0, # of connection points: 4
#     Node 19, Type 0, BuildingBlock: CEKHIL_clean_sbu_0, # of connection points: 4
#     Node 20, Type 0, BuildingBlock: CEKHIL_clean_sbu_0, # of connection points: 4
#     Node 21, Type 0, BuildingBlock: CEKHIL_clean_sbu_0, # of connection points: 4
#     Node 22, Type 0, BuildingBlock: CEKHIL_clean_sbu_0, # of connection points: 4
#     Node 23, Type 0, BuildingBlock: CEKHIL_clean_sbu_0, # of connection points: 4
#     Node 24, Type 0, BuildingBlock: CEKHIL_clean_sbu_0, # of connection points: 4
#     Node 25, Type 0, BuildingBlock: CEKHIL_clean_sbu_0, # of connection points: 4
#     Node 26, Type 0, BuildingBlock: CEKHIL_clean_sbu_0, # of connection points: 4
#     Node 27, Type 0, BuildingBlock: CEKHIL_clean_sbu_0, # of connection points: 4
#     Node 28, Type 0, BuildingBlock: CEKHIL_clean_sbu_0, # of connection points: 4
#     Node 29, Type 0, BuildingBlock: CEKHIL_clean_sbu_0, # of connection points: 4
#     Node 30, Type 0, BuildingBlock: CEKHIL_clean_sbu_0, # of connection points: 4
#     Node 31, Type 0, BuildingBlock: CEKHIL_clean_sbu_0, # of connection points: 4
#     Node 32, Type 0, BuildingBlock: CEKHIL_clean_sbu_0, # of connection points: 4
#     Node 33, Type 0, BuildingBlock: CEKHIL_clean_sbu_0, # of connection points: 4
#     Node 34, Type 0, BuildingBlock: CEKHIL_clean_sbu_0, # of connection points: 4
#     Node 35, Type 0, BuildingBlock: CEKHIL_clean_sbu_0, # of connection points: 4
#     Node 36, Type 0, BuildingBlock: CEKHIL_clean_sbu_0, # of connection points: 4
#     Node 37, Type 0, BuildingBlock: CEKHIL_clean_sbu_0, # of connection points: 4
#     Node 38, Type 0, BuildingBlock: CEKHIL_clean_sbu_0, # of connection points: 4
#     Node 39, Type 0, BuildingBlock: CEKHIL_clean_sbu_0, # of connection points: 4
#     Node 40, Type 0, BuildingBlock: CEKHIL_clean_sbu_0, # of connection points: 4
#     Node 41, Type 0, BuildingBlock: CEKHIL_clean_sbu_0, # of connection points: 4
#     Node 42, Type 0, BuildingBlock: CEKHIL_clean_sbu_0, # of connection points: 4
#     Node 43, Type 0, BuildingBlock: CEKHIL_clean_sbu_0, # of connection points: 4
#     Node 44, Type 0, BuildingBlock: CEKHIL_clean_sbu_0, # of connection points: 4
#     Node 45, Type 0, BuildingBlock: CEKHIL_clean_sbu_0, # of connection points: 4
#     Node 46, Type 0, BuildingBlock: CEKHIL_clean_sbu_0, # of connection points: 4
#     Node 47, Type 0, BuildingBlock: CEKHIL_clean_sbu_0, # of connection points: 4
#     Node 48, Type 0, BuildingBlock: CEKHIL_clean_sbu_0, # of connection points: 4
#     Node 49, Type 0, BuildingBlock: CEKHIL_clean_sbu_0, # of connection points: 4
#     Node 50, Type 0, BuildingBlock: CEKHIL_clean_sbu_0, # of connection points: 4
#     Node 51, Type 0, BuildingBlock: CEKHIL_clean_sbu_0, # of connection points: 4
#     Node 52, Type 0, BuildingBlock: CEKHIL_clean_sbu_0, # of connection points: 4
#     Node 53, Type 0, BuildingBlock: CEKHIL_clean_sbu_0, # of connection points: 4
#     Node 54, Type 0, BuildingBlock: CEKHIL_clean_sbu_0, # of connection points: 4
#     Node 55, Type 0, BuildingBlock: CEKHIL_clean_sbu_0, # of connection points: 4
#     Node 56, Type 0, BuildingBlock: CEKHIL_clean_sbu_0, # of connection points: 4
#     Node 57, Type 0, BuildingBlock: CEKHIL_clean_sbu_0, # of connection points: 4
#     Node 58, Type 0, BuildingBlock: CEKHIL_clean_sbu_0, # of connection points: 4
#     Node 59, Type 0, BuildingBlock: CEKHIL_clean_sbu_0, # of connection points: 4
#     Node 60, Type 0, BuildingBlock: CEKHIL_clean_sbu_0, # of connection points: 4
#     Node 61, Type 0, BuildingBlock: CEKHIL_clean_sbu_0, # of connection points: 4
#     Node 62, Type 0, BuildingBlock: CEKHIL_clean_sbu_0, # of connection points: 4
#     Node 63, Type 0, BuildingBlock: CEKHIL_clean_sbu_0, # of connection points: 4
#     Node 64, Type 0, BuildingBlock: CEKHIL_clean_sbu_0, # of connection points: 4
#     Node 65, Type 0, BuildingBlock: CEKHIL_clean_sbu_0, # of connection points: 4
#     Node 66, Type 0, BuildingBlock: CEKHIL_clean_sbu_0, # of connection points: 4
#     Node 67, Type 0, BuildingBlock: CEKHIL_clean_sbu_0, # of connection points: 4
#     Node 68, Type 0, BuildingBlock: CEKHIL_clean_sbu_0, # of connection points: 4
#     Node 69, Type 0, BuildingBlock: CEKHIL_clean_sbu_0, # of connection points: 4
#     Node 70, Type 0, BuildingBlock: CEKHIL_clean_sbu_0, # of connection points: 4
#     Node 71, Type 0, BuildingBlock: CEKHIL_clean_sbu_0, # of connection points: 4
#     Node 72, Type 0, BuildingBlock: CEKHIL_clean_sbu_0, # of connection points: 4
#     Node 73, Type 0, BuildingBlock: CEKHIL_clean_sbu_0, # of connection points: 4
#     Node 74, Type 0, BuildingBlock: CEKHIL_clean_sbu_0, # of connection points: 4
#     Node 75, Type 0, BuildingBlock: CEKHIL_clean_sbu_0, # of connection points: 4
#     Node 76, Type 0, BuildingBlock: CEKHIL_clean_sbu_0, # of connection points: 4
#     Node 77, Type 0, BuildingBlock: CEKHIL_clean_sbu_0, # of connection points: 4
#     Node 78, Type 0, BuildingBlock: CEKHIL_clean_sbu_0, # of connection points: 4
#     Node 79, Type 0, BuildingBlock: CEKHIL_clean_sbu_0, # of connection points: 4
#     Node 80, Type 0, BuildingBlock: CEKHIL_clean_sbu_0, # of connection points: 4
#     Node 81, Type 0, BuildingBlock: CEKHIL_clean_sbu_0, # of connection points: 4
#     Node 82, Type 0, BuildingBlock: CEKHIL_clean_sbu_0, # of connection points: 4
#     Node 83, Type 0, BuildingBlock: CEKHIL_clean_sbu_0, # of connection points: 4
#     Node 84, Type 0, BuildingBlock: CEKHIL_clean_sbu_0, # of connection points: 4
#     Node 85, Type 0, BuildingBlock: CEKHIL_clean_sbu_0, # of connection points: 4
#     Node 86, Type 0, BuildingBlock: CEKHIL_clean_sbu_0, # of connection points: 4
#     Node 87, Type 0, BuildingBlock: CEKHIL_clean_sbu_0, # of connection points: 4
#     Node 88, Type 0, BuildingBlock: CEKHIL_clean_sbu_0, # of connection points: 4
#     Node 89, Type 0, BuildingBlock: CEKHIL_clean_sbu_0, # of connection points: 4
#     Node 90, Type 0, BuildingBlock: CEKHIL_clean_sbu_0, # of connection points: 4
#     Node 91, Type 0, BuildingBlock: CEKHIL_clean_sbu_0, # of connection points: 4
#     Node 92, Type 0, BuildingBlock: CEKHIL_clean_sbu_0, # of connection points: 4
#     Node 93, Type 0, BuildingBlock: CEKHIL_clean_sbu_0, # of connection points: 4
#     Node 94, Type 0, BuildingBlock: CEKHIL_clean_sbu_0, # of connection points: 4
#     Node 95, Type 0, BuildingBlock: CEKHIL_clean_sbu_0, # of connection points: 4
#     Edge 96, Type (0, 0), BuildingBlock: AJUNOK_clean_linker_0, # of connection points: 2
#     Edge 97, Type (0, 0), BuildingBlock: AJUNOK_clean_linker_0, # of connection points: 2
#     Edge 98, Type (0, 0), BuildingBlock: AJUNOK_clean_linker_0, # of connection points: 2
#     Edge 99, Type (0, 0), BuildingBlock: AJUNOK_clean_linker_0, # of connection points: 2
#     Edge 100, Type (0, 0), BuildingBlock: AJUNOK_clean_linker_0, # of connection points: 2
#     Edge 101, Type (0, 0), BuildingBlock: AJUNOK_clean_linker_0, # of connection points: 2
#     Edge 102, Type (0, 0), BuildingBlock: AJUNOK_clean_linker_0, # of connection points: 2
#     Edge 103, Type (0, 0), BuildingBlock: AJUNOK_clean_linker_0, # of connection points: 2
#     Edge 104, Type (0, 0), BuildingBlock: AJUNOK_clean_linker_0, # of connection points: 2
#     Edge 105, Type (0, 0), BuildingBlock: AJUNOK_clean_linker_0, # of connection points: 2
#     Edge 106, Type (0, 0), BuildingBlock: AJUNOK_clean_linker_0, # of connection points: 2
#     Edge 107, Type (0, 0), BuildingBlock: AJUNOK_clean_linker_0, # of connection points: 2
#     Edge 108, Type (0, 0), BuildingBlock: AJUNOK_clean_linker_0, # of connection points: 2
#     Edge 109, Type (0, 0), BuildingBlock: AJUNOK_clean_linker_0, # of connection points: 2
#     Edge 110, Type (0, 0), BuildingBlock: AJUNOK_clean_linker_0, # of connection points: 2
#     Edge 111, Type (0, 0), BuildingBlock: AJUNOK_clean_linker_0, # of connection points: 2
#     Edge 112, Type (0, 0), BuildingBlock: AJUNOK_clean_linker_0, # of connection points: 2
#     Edge 113, Type (0, 0), BuildingBlock: AJUNOK_clean_linker_0, # of connection points: 2
#     Edge 114, Type (0, 0), BuildingBlock: AJUNOK_clean_linker_0, # of connection points: 2
#     Edge 115, Type (0, 0), BuildingBlock: AJUNOK_clean_linker_0, # of connection points: 2
#     Edge 116, Type (0, 0), BuildingBlock: AJUNOK_clean_linker_0, # of connection points: 2
#     Edge 117, Type (0, 0), BuildingBlock: AJUNOK_clean_linker_0, # of connection points: 2
#     Edge 118, Type (0, 0), BuildingBlock: AJUNOK_clean_linker_0, # of connection points: 2
#     Edge 119, Type (0, 0), BuildingBlock: AJUNOK_clean_linker_0, # of connection points: 2
#     Edge 120, Type (0, 0), BuildingBlock: AJUNOK_clean_linker_0, # of connection points: 2
#     Edge 121, Type (0, 0), BuildingBlock: AJUNOK_clean_linker_0, # of connection points: 2
#     Edge 122, Type (0, 0), BuildingBlock: AJUNOK_clean_linker_0, # of connection points: 2
#     Edge 123, Type (0, 0), BuildingBlock: AJUNOK_clean_linker_0, # of connection points: 2
#     Edge 124, Type (0, 0), BuildingBlock: AJUNOK_clean_linker_0, # of connection points: 2
#     Edge 125, Type (0, 0), BuildingBlock: AJUNOK_clean_linker_0, # of connection points: 2
#     Edge 126, Type (0, 0), BuildingBlock: AJUNOK_clean_linker_0, # of connection points: 2
#     Edge 127, Type (0, 0), BuildingBlock: AJUNOK_clean_linker_0, # of connection points: 2
#     Edge 128, Type (0, 0), BuildingBlock: AJUNOK_clean_linker_0, # of connection points: 2
#     Edge 129, Type (0, 0), BuildingBlock: AJUNOK_clean_linker_0, # of connection points: 2
#     Edge 130, Type (0, 0), BuildingBlock: AJUNOK_clean_linker_0, # of connection points: 2
#     Edge 131, Type (0, 0), BuildingBlock: AJUNOK_clean_linker_0, # of connection points: 2
#     Edge 132, Type (0, 0), BuildingBlock: AJUNOK_clean_linker_0, # of connection points: 2
#     Edge 133, Type (0, 0), BuildingBlock: AJUNOK_clean_linker_0, # of connection points: 2
#     Edge 134, Type (0, 0), BuildingBlock: AJUNOK_clean_linker_0, # of connection points: 2
#     Edge 135, Type (0, 0), BuildingBlock: AJUNOK_clean_linker_0, # of connection points: 2
#     Edge 136, Type (0, 0), BuildingBlock: AJUNOK_clean_linker_0, # of connection points: 2
#     Edge 137, Type (0, 0), BuildingBlock: AJUNOK_clean_linker_0, # of connection points: 2
#     Edge 138, Type (0, 0), BuildingBlock: AJUNOK_clean_linker_0, # of connection points: 2
#     Edge 139, Type (0, 0), BuildingBlock: AJUNOK_clean_linker_0, # of connection points: 2
#     Edge 140, Type (0, 0), BuildingBlock: AJUNOK_clean_linker_0, # of connection points: 2
#     Edge 141, Type (0, 0), BuildingBlock: AJUNOK_clean_linker_0, # of connection points: 2
#     Edge 142, Type (0, 0), BuildingBlock: AJUNOK_clean_linker_0, # of connection points: 2
#     Edge 143, Type (0, 0), BuildingBlock: AJUNOK_clean_linker_0, # of connection points: 2
#     Edge 144, Type (0, 0), BuildingBlock: AJUNOK_clean_linker_0, # of connection points: 2
#     Edge 145, Type (0, 0), BuildingBlock: AJUNOK_clean_linker_0, # of connection points: 2
#     Edge 146, Type (0, 0), BuildingBlock: AJUNOK_clean_linker_0, # of connection points: 2
#     Edge 147, Type (0, 0), BuildingBlock: AJUNOK_clean_linker_0, # of connection points: 2
#     Edge 148, Type (0, 0), BuildingBlock: AJUNOK_clean_linker_0, # of connection points: 2
#     Edge 149, Type (0, 0), BuildingBlock: AJUNOK_clean_linker_0, # of connection points: 2
#     Edge 150, Type (0, 0), BuildingBlock: AJUNOK_clean_linker_0, # of connection points: 2
#     Edge 151, Type (0, 0), BuildingBlock: AJUNOK_clean_linker_0, # of connection points: 2
#     Edge 152, Type (0, 0), BuildingBlock: AJUNOK_clean_linker_0, # of connection points: 2
#     Edge 153, Type (0, 0), BuildingBlock: AJUNOK_clean_linker_0, # of connection points: 2
#     Edge 154, Type (0, 0), BuildingBlock: AJUNOK_clean_linker_0, # of connection points: 2
#     Edge 155, Type (0, 0), BuildingBlock: AJUNOK_clean_linker_0, # of connection points: 2
#     Edge 156, Type (0, 0), BuildingBlock: AJUNOK_clean_linker_0, # of connection points: 2
#     Edge 157, Type (0, 0), BuildingBlock: AJUNOK_clean_linker_0, # of connection points: 2
#     Edge 158, Type (0, 0), BuildingBlock: AJUNOK_clean_linker_0, # of connection points: 2
#     Edge 159, Type (0, 0), BuildingBlock: AJUNOK_clean_linker_0, # of connection points: 2
#     Edge 160, Type (0, 0), BuildingBlock: AJUNOK_clean_linker_0, # of connection points: 2
#     Edge 161, Type (0, 0), BuildingBlock: AJUNOK_clean_linker_0, # of connection points: 2
#     Edge 162, Type (0, 0), BuildingBlock: AJUNOK_clean_linker_0, # of connection points: 2
#     Edge 163, Type (0, 0), BuildingBlock: AJUNOK_clean_linker_0, # of connection points: 2
#     Edge 164, Type (0, 0), BuildingBlock: AJUNOK_clean_linker_0, # of connection points: 2
#     Edge 165, Type (0, 0), BuildingBlock: AJUNOK_clean_linker_0, # of connection points: 2
#     Edge 166, Type (0, 0), BuildingBlock: AJUNOK_clean_linker_0, # of connection points: 2
#     Edge 167, Type (0, 0), BuildingBlock: AJUNOK_clean_linker_0, # of connection points: 2
#     Edge 168, Type (0, 0), BuildingBlock: AJUNOK_clean_linker_0, # of connection points: 2
#     Edge 169, Type (0, 0), BuildingBlock: AJUNOK_clean_linker_0, # of connection points: 2
#     Edge 170, Type (0, 0), BuildingBlock: AJUNOK_clean_linker_0, # of connection points: 2
#     Edge 171, Type (0, 0), BuildingBlock: AJUNOK_clean_linker_0, # of connection points: 2
#     Edge 172, Type (0, 0), BuildingBlock: AJUNOK_clean_linker_0, # of connection points: 2
#     Edge 173, Type (0, 0), BuildingBlock: AJUNOK_clean_linker_0, # of connection points: 2
#     Edge 174, Type (0, 0), BuildingBlock: AJUNOK_clean_linker_0, # of connection points: 2
#     Edge 175, Type (0, 0), BuildingBlock: AJUNOK_clean_linker_0, # of connection points: 2
#     Edge 176, Type (0, 0), BuildingBlock: AJUNOK_clean_linker_0, # of connection points: 2
#     Edge 177, Type (0, 0), BuildingBlock: AJUNOK_clean_linker_0, # of connection points: 2
#     Edge 178, Type (0, 0), BuildingBlock: AJUNOK_clean_linker_0, # of connection points: 2
#     Edge 179, Type (0, 0), BuildingBlock: AJUNOK_clean_linker_0, # of connection points: 2
#     Edge 180, Type (0, 0), BuildingBlock: AJUNOK_clean_linker_0, # of connection points: 2
#     Edge 181, Type (0, 0), BuildingBlock: AJUNOK_clean_linker_0, # of connection points: 2
#     Edge 182, Type (0, 0), BuildingBlock: AJUNOK_clean_linker_0, # of connection points: 2
#     Edge 183, Type (0, 0), BuildingBlock: AJUNOK_clean_linker_0, # of connection points: 2
#     Edge 184, Type (0, 0), BuildingBlock: AJUNOK_clean_linker_0, # of connection points: 2
#     Edge 185, Type (0, 0), BuildingBlock: AJUNOK_clean_linker_0, # of connection points: 2
#     Edge 186, Type (0, 0), BuildingBlock: AJUNOK_clean_linker_0, # of connection points: 2
#     Edge 187, Type (0, 0), BuildingBlock: AJUNOK_clean_linker_0, # of connection points: 2
#     Edge 188, Type (0, 0), BuildingBlock: AJUNOK_clean_linker_0, # of connection points: 2
#     Edge 189, Type (0, 0), BuildingBlock: AJUNOK_clean_linker_0, # of connection points: 2
#     Edge 190, Type (0, 0), BuildingBlock: AJUNOK_clean_linker_0, # of connection points: 2
#     Edge 191, Type (0, 0), BuildingBlock: AJUNOK_clean_linker_0, # of connection points: 2
#     Edge 192, Type (0, 0), BuildingBlock: AJUNOK_clean_linker_0, # of connection points: 2
#     Edge 193, Type (0, 0), BuildingBlock: AJUNOK_clean_linker_0, # of connection points: 2
#     Edge 194, Type (0, 0), BuildingBlock: AJUNOK_clean_linker_0, # of connection points: 2
#     Edge 195, Type (0, 0), BuildingBlock: AJUNOK_clean_linker_0, # of connection points: 2
#     Edge 196, Type (0, 0), BuildingBlock: AJUNOK_clean_linker_0, # of connection points: 2
#     Edge 197, Type (0, 0), BuildingBlock: AJUNOK_clean_linker_0, # of connection points: 2
#     Edge 198, Type (0, 0), BuildingBlock: AJUNOK_clean_linker_0, # of connection points: 2
#     Edge 199, Type (0, 0), BuildingBlock: AJUNOK_clean_linker_0, # of connection points: 2
#     Edge 200, Type (0, 0), BuildingBlock: AJUNOK_clean_linker_0, # of connection points: 2
#     Edge 201, Type (0, 0), BuildingBlock: AJUNOK_clean_linker_0, # of connection points: 2
#     Edge 202, Type (0, 0), BuildingBlock: AJUNOK_clean_linker_0, # of connection points: 2
#     Edge 203, Type (0, 0), BuildingBlock: AJUNOK_clean_linker_0, # of connection points: 2
#     Edge 204, Type (0, 0), BuildingBlock: AJUNOK_clean_linker_0, # of connection points: 2
#     Edge 205, Type (0, 0), BuildingBlock: AJUNOK_clean_linker_0, # of connection points: 2
#     Edge 206, Type (0, 0), BuildingBlock: AJUNOK_clean_linker_0, # of connection points: 2
#     Edge 207, Type (0, 0), BuildingBlock: AJUNOK_clean_linker_0, # of connection points: 2
#     Edge 208, Type (0, 0), BuildingBlock: AJUNOK_clean_linker_0, # of connection points: 2
#     Edge 209, Type (0, 0), BuildingBlock: AJUNOK_clean_linker_0, # of connection points: 2
#     Edge 210, Type (0, 0), BuildingBlock: AJUNOK_clean_linker_0, # of connection points: 2
#     Edge 211, Type (0, 0), BuildingBlock: AJUNOK_clean_linker_0, # of connection points: 2
#     Edge 212, Type (0, 0), BuildingBlock: AJUNOK_clean_linker_0, # of connection points: 2
#     Edge 213, Type (0, 0), BuildingBlock: AJUNOK_clean_linker_0, # of connection points: 2
#     Edge 214, Type (0, 0), BuildingBlock: AJUNOK_clean_linker_0, # of connection points: 2
#     Edge 215, Type (0, 0), BuildingBlock: AJUNOK_clean_linker_0, # of connection points: 2
#     Edge 216, Type (0, 0), BuildingBlock: AJUNOK_clean_linker_0, # of connection points: 2
#     Edge 217, Type (0, 0), BuildingBlock: AJUNOK_clean_linker_0, # of connection points: 2
#     Edge 218, Type (0, 0), BuildingBlock: AJUNOK_clean_linker_0, # of connection points: 2
#     Edge 219, Type (0, 0), BuildingBlock: AJUNOK_clean_linker_0, # of connection points: 2
#     Edge 220, Type (0, 0), BuildingBlock: AJUNOK_clean_linker_0, # of connection points: 2
#     Edge 221, Type (0, 0), BuildingBlock: AJUNOK_clean_linker_0, # of connection points: 2
#     Edge 222, Type (0, 0), BuildingBlock: AJUNOK_clean_linker_0, # of connection points: 2
#     Edge 223, Type (0, 0), BuildingBlock: AJUNOK_clean_linker_0, # of connection points: 2
#     Edge 224, Type (0, 0), BuildingBlock: AJUNOK_clean_linker_0, # of connection points: 2
#     Edge 225, Type (0, 0), BuildingBlock: AJUNOK_clean_linker_0, # of connection points: 2
#     Edge 226, Type (0, 0), BuildingBlock: AJUNOK_clean_linker_0, # of connection points: 2
#     Edge 227, Type (0, 0), BuildingBlock: AJUNOK_clean_linker_0, # of connection points: 2
#     Edge 228, Type (0, 0), BuildingBlock: AJUNOK_clean_linker_0, # of connection points: 2
#     Edge 229, Type (0, 0), BuildingBlock: AJUNOK_clean_linker_0, # of connection points: 2
#     Edge 230, Type (0, 0), BuildingBlock: AJUNOK_clean_linker_0, # of connection points: 2
#     Edge 231, Type (0, 0), BuildingBlock: AJUNOK_clean_linker_0, # of connection points: 2
#     Edge 232, Type (0, 0), BuildingBlock: AJUNOK_clean_linker_0, # of connection points: 2
#     Edge 233, Type (0, 0), BuildingBlock: AJUNOK_clean_linker_0, # of connection points: 2
#     Edge 234, Type (0, 0), BuildingBlock: AJUNOK_clean_linker_0, # of connection points: 2
#     Edge 235, Type (0, 0), BuildingBlock: AJUNOK_clean_linker_0, # of connection points: 2
#     Edge 236, Type (0, 0), BuildingBlock: AJUNOK_clean_linker_0, # of connection points: 2
#     Edge 237, Type (0, 0), BuildingBlock: AJUNOK_clean_linker_0, # of connection points: 2
#     Edge 238, Type (0, 0), BuildingBlock: AJUNOK_clean_linker_0, # of connection points: 2
#     Edge 239, Type (0, 0), BuildingBlock: AJUNOK_clean_linker_0, # of connection points: 2
#     Edge 240, Type (0, 0), BuildingBlock: AJUNOK_clean_linker_0, # of connection points: 2
#     Edge 241, Type (0, 0), BuildingBlock: AJUNOK_clean_linker_0, # of connection points: 2
#     Edge 242, Type (0, 0), BuildingBlock: AJUNOK_clean_linker_0, # of connection points: 2
#     Edge 243, Type (0, 0), BuildingBlock: AJUNOK_clean_linker_0, # of connection points: 2
#     Edge 244, Type (0, 0), BuildingBlock: AJUNOK_clean_linker_0, # of connection points: 2
#     Edge 245, Type (0, 0), BuildingBlock: AJUNOK_clean_linker_0, # of connection points: 2
#     Edge 246, Type (0, 0), BuildingBlock: AJUNOK_clean_linker_0, # of connection points: 2
#     Edge 247, Type (0, 0), BuildingBlock: AJUNOK_clean_linker_0, # of connection points: 2
#     Edge 248, Type (0, 0), BuildingBlock: AJUNOK_clean_linker_0, # of connection points: 2
#     Edge 249, Type (0, 0), BuildingBlock: AJUNOK_clean_linker_0, # of connection points: 2
#     Edge 250, Type (0, 0), BuildingBlock: AJUNOK_clean_linker_0, # of connection points: 2
#     Edge 251, Type (0, 0), BuildingBlock: AJUNOK_clean_linker_0, # of connection points: 2
#     Edge 252, Type (0, 0), BuildingBlock: AJUNOK_clean_linker_0, # of connection points: 2
#     Edge 253, Type (0, 0), BuildingBlock: AJUNOK_clean_linker_0, # of connection points: 2
#     Edge 254, Type (0, 0), BuildingBlock: AJUNOK_clean_linker_0, # of connection points: 2
#     Edge 255, Type (0, 0), BuildingBlock: AJUNOK_clean_linker_0, # of connection points: 2
#     Edge 256, Type (0, 0), BuildingBlock: AJUNOK_clean_linker_0, # of connection points: 2
#     Edge 257, Type (0, 0), BuildingBlock: AJUNOK_clean_linker_0, # of connection points: 2
#     Edge 258, Type (0, 0), BuildingBlock: AJUNOK_clean_linker_0, # of connection points: 2
#     Edge 259, Type (0, 0), BuildingBlock: AJUNOK_clean_linker_0, # of connection points: 2
#     Edge 260, Type (0, 0), BuildingBlock: AJUNOK_clean_linker_0, # of connection points: 2
#     Edge 261, Type (0, 0), BuildingBlock: AJUNOK_clean_linker_0, # of connection points: 2
#     Edge 262, Type (0, 0), BuildingBlock: AJUNOK_clean_linker_0, # of connection points: 2
#     Edge 263, Type (0, 0), BuildingBlock: AJUNOK_clean_linker_0, # of connection points: 2
#     Edge 264, Type (0, 0), BuildingBlock: AJUNOK_clean_linker_0, # of connection points: 2
#     Edge 265, Type (0, 0), BuildingBlock: AJUNOK_clean_linker_0, # of connection points: 2
#     Edge 266, Type (0, 0), BuildingBlock: AJUNOK_clean_linker_0, # of connection points: 2
#     Edge 267, Type (0, 0), BuildingBlock: AJUNOK_clean_linker_0, # of connection points: 2
#     Edge 268, Type (0, 0), BuildingBlock: AJUNOK_clean_linker_0, # of connection points: 2
#     Edge 269, Type (0, 0), BuildingBlock: AJUNOK_clean_linker_0, # of connection points: 2
#     Edge 270, Type (0, 0), BuildingBlock: AJUNOK_clean_linker_0, # of connection points: 2
#     Edge 271, Type (0, 0), BuildingBlock: AJUNOK_clean_linker_0, # of connection points: 2
#     Edge 272, Type (0, 0), BuildingBlock: AJUNOK_clean_linker_0, # of connection points: 2
#     Edge 273, Type (0, 0), BuildingBlock: AJUNOK_clean_linker_0, # of connection points: 2
#     Edge 274, Type (0, 0), BuildingBlock: AJUNOK_clean_linker_0, # of connection points: 2
#     Edge 275, Type (0, 0), BuildingBlock: AJUNOK_clean_linker_0, # of connection points: 2
#     Edge 276, Type (0, 0), BuildingBlock: AJUNOK_clean_linker_0, # of connection points: 2
#     Edge 277, Type (0, 0), BuildingBlock: AJUNOK_clean_linker_0, # of connection points: 2
#     Edge 278, Type (0, 0), BuildingBlock: AJUNOK_clean_linker_0, # of connection points: 2
#     Edge 279, Type (0, 0), BuildingBlock: AJUNOK_clean_linker_0, # of connection points: 2
#     Edge 280, Type (0, 0), BuildingBlock: AJUNOK_clean_linker_0, # of connection points: 2
#     Edge 281, Type (0, 0), BuildingBlock: AJUNOK_clean_linker_0, # of connection points: 2
#     Edge 282, Type (0, 0), BuildingBlock: AJUNOK_clean_linker_0, # of connection points: 2
#     Edge 283, Type (0, 0), BuildingBlock: AJUNOK_clean_linker_0, # of connection points: 2
#     Edge 284, Type (0, 0), BuildingBlock: AJUNOK_clean_linker_0, # of connection points: 2
#     Edge 285, Type (0, 0), BuildingBlock: AJUNOK_clean_linker_0, # of connection points: 2
#     Edge 286, Type (0, 0), BuildingBlock: AJUNOK_clean_linker_0, # of connection points: 2
#     Edge 287, Type (0, 0), BuildingBlock: AJUNOK_clean_linker_0, # of connection points: 2
# Relax obj value: 0.320
# Max RMSD: 0.157
# Mean RMSD: 0.152
data_MOF--net-wse--node1-CEKHIL_clean_sbu_0--edge1-AJUNOK_clean_linker_0
_symmetry_space_group_name_H-M    P1
_symmetry_Int_Tables_number       1
_symmetry_cell_setting            triclinic
loop_
_symmetry_equiv_pos_as_xyz
'x, y, z'
_cell_length_a     71.184406
_cell_length_b     71.26203
_cell_length_c     71.227419
_cell_angle_alpha  90.017883
_cell_angle_beta   89.977141
_cell_angle_gamma 89.995391
loop_
_atom_site_label
_atom_site_type_symbol
_atom_site_fract_x
_atom_site_fract_y
_atom_site_fract_z
_atom_type_partial_charge
Co0 Co 0.10444 0.19474 0.43312 0.0
O1 O 0.13032 0.18551 0.43424 0.0
O2 O 0.10669 0.1699 0.42201 0.0
C3 C 0.11153 0.225 0.42433 0.0
O4 O 0.07593 0.19817 0.42896 0.0
Co5 Co 0.08837 0.22747 0.45701 0.0
O6 O 0.06416 0.22343 0.44363 0.0
C7 C 0.09965 0.19152 0.47447 0.0
C8 C 0.12431 0.16997 0.42672 0.0
C9 C 0.06202 0.20907 0.43319 0.0
O10 O 0.09952 0.18322 0.45844 0.0
O11 O 0.09791 0.20931 0.47637 0.0
O12 O 0.11041 0.21175 0.41172 0.0
O13 O 0.10898 0.21948 0.44125 0.0
Co14 Co 0.8363 0.10361 0.43329 0.0
O15 O 0.84552 0.12945 0.43448 0.0
O16 O 0.86138 0.10581 0.42259 0.0
C17 C 0.80626 0.11079 0.42392 0.0
O18 O 0.83284 0.07511 0.42908 0.0
Co19 Co 0.80296 0.08774 0.45651 0.0
O20 O 0.80683 0.06373 0.44276 0.0
C21 C 0.83864 0.09891 0.47471 0.0
C22 C 0.86119 0.12345 0.42719 0.0
C23 C 0.82146 0.06143 0.4327 0.0
O24 O 0.84731 0.09876 0.45886 0.0
O25 O 0.8208 0.09718 0.47622 0.0
O26 O 0.81973 0.10954 0.41154 0.0
O27 O 0.81144 0.10827 0.44096 0.0
Co28 Co 0.92722 0.83596 0.43237 0.0
O29 O 0.9013 0.84507 0.43346 0.0
O30 O 0.92496 0.86098 0.42167 0.0
C31 C 0.92026 0.8059 0.42298 0.0
O32 O 0.95578 0.83263 0.42829 0.0
Co33 Co 0.94316 0.80286 0.45577 0.0
O34 O 0.96742 0.80708 0.44251 0.0
C35 C 0.93128 0.83835 0.47377 0.0
C36 C 0.90729 0.86074 0.42622 0.0
C37 C 0.96964 0.82162 0.43233 0.0
O38 O 0.93189 0.847 0.45795 0.0
O39 O 0.93305 0.82053 0.47531 0.0
O40 O 0.92147 0.81935 0.4106 0.0
O41 O 0.92266 0.8111 0.44003 0.0
Co42 Co 0.1952 0.92647 0.43259 0.0
O43 O 0.18678 0.90043 0.4338 0.0
O44 O 0.17004 0.92355 0.42209 0.0
C45 C 0.22532 0.92006 0.42294 0.0
O46 O 0.19808 0.95507 0.42844 0.0
Co47 Co 0.22828 0.94277 0.45589 0.0
O48 O 0.2241 0.96663 0.44198 0.0
C49 C 0.1929 0.93069 0.47406 0.0
C50 C 0.17091 0.90589 0.4266 0.0
C51 C 0.20941 0.96882 0.43199 0.0
O52 O 0.18421 0.93099 0.45824 0.0
O53 O 0.21071 0.93277 0.47559 0.0
O54 O 0.21172 0.92099 0.41069 0.0
O55 O 0.22022 0.92232 0.44004 0.0
Co56 Co 0.10512 0.83503 0.5975 0.0
O57 O 0.13119 0.84346 0.59616 0.0
O58 O 0.10809 0.86006 0.60817 0.0
C59 C 0.11163 0.80486 0.60682 0.0
O60 O 0.07655 0.83233 0.6018 0.0
Co61 Co 0.0883 0.8022 0.57429 0.0
O62 O 0.06434 0.80681 0.58794 0.0
C63 C 0.10026 0.8376 0.5561 0.0
C64 C 0.12573 0.85927 0.6035 0.0
C65 C 0.06248 0.82149 0.598 0.0
O66 O 0.10044 0.84619 0.57198 0.0
O67 O 0.09805 0.81983 0.55453 0.0
O68 O 0.11076 0.81833 0.61921 0.0
O69 O 0.10911 0.81008 0.5898 0.0
Co70 Co 0.19478 0.10329 0.59764 0.0
O71 O 0.1857 0.1292 0.59628 0.0
O72 O 0.17002 0.10585 0.60894 0.0
C73 C 0.2252 0.11036 0.60603 0.0
O74 O 0.19807 0.07484 0.60215 0.0
Co75 Co 0.22727 0.08672 0.5737 0.0
O76 O 0.22318 0.06274 0.58743 0.0
C77 C 0.19138 0.09859 0.55642 0.0
C78 C 0.17017 0.1234 0.60401 0.0
C79 C 0.20887 0.06083 0.59803 0.0
O80 O 0.18306 0.0982 0.57244 0.0
O81 O 0.20917 0.09671 0.55449 0.0
O82 O 0.21207 0.10947 0.6188 0.0
O83 O 0.21947 0.10755 0.58922 0.0
Co84 Co 0.9265 0.19454 0.59835 0.0
O85 O 0.90058 0.18539 0.59721 0.0
O86 O 0.92426 0.16959 0.60914 0.0
C87 C 0.91956 0.22465 0.60763 0.0
O88 O 0.95501 0.19778 0.60251 0.0
Co89 Co 0.94274 0.2275 0.57501 0.0
O90 O 0.96697 0.22318 0.58829 0.0
C91 C 0.9313 0.19189 0.55695 0.0
C92 C 0.90661 0.16976 0.60453 0.0
C93 C 0.969 0.20863 0.59849 0.0
O94 O 0.93131 0.18335 0.57285 0.0
O95 O 0.9332 0.20969 0.55533 0.0
O96 O 0.92065 0.2112 0.62002 0.0
O97 O 0.92201 0.21942 0.59059 0.0
Co98 Co 0.83674 0.92598 0.59815 0.0
O99 O 0.84513 0.89994 0.59667 0.0
O100 O 0.8619 0.92296 0.60857 0.0
C101 C 0.80666 0.91953 0.60779 0.0
O102 O 0.834 0.95452 0.60256 0.0
Co103 Co 0.80366 0.9427 0.57517 0.0
O104 O 0.80828 0.96658 0.58891 0.0
C105 C 0.83892 0.93061 0.55674 0.0
C106 C 0.86103 0.90535 0.60388 0.0
C107 C 0.82301 0.9685 0.59889 0.0
O108 O 0.84768 0.93071 0.57252 0.0
O109 O 0.82112 0.93278 0.55532 0.0
O110 O 0.82027 0.92035 0.62003 0.0
O111 O 0.8117 0.92199 0.5907 0.0
Co112 Co 0.43311 0.10427 0.19487 0.0
O113 O 0.43438 0.13035 0.18655 0.0
O114 O 0.42298 0.10724 0.16959 0.0
C115 C 0.42292 0.1105 0.22481 0.0
O116 O 0.42898 0.07566 0.19755 0.0
Co117 Co 0.45585 0.08786 0.22829 0.0
O118 O 0.44199 0.06402 0.22379 0.0
C119 C 0.47466 0.09989 0.19321 0.0
C120 C 0.42742 0.12491 0.17057 0.0
C121 C 0.43231 0.06187 0.20889 0.0
O122 O 0.45896 0.09982 0.18429 0.0
O123 O 0.4759 0.09769 0.21102 0.0
O124 O 0.41091 0.10959 0.21101 0.0
O125 O 0.44013 0.10833 0.22003 0.0
Co126 Co 0.92639 0.43312 0.19528 0.0
O127 O 0.90033 0.43452 0.18683 0.0
O128 O 0.9233 0.422 0.17043 0.0
C129 C 0.91975 0.42451 0.22571 0.0
O130 O 0.95497 0.42869 0.19815 0.0
Co131 Co 0.94316 0.45707 0.22765 0.0
O132 O 0.96712 0.44337 0.22325 0.0
C133 C 0.93091 0.47437 0.19194 0.0
C134 C 0.90571 0.42687 0.17113 0.0
C135 C 0.96902 0.43285 0.2089 0.0
O136 O 0.93125 0.45836 0.18362 0.0
O137 O 0.93295 0.4763 0.2097 0.0
O138 O 0.92053 0.41183 0.2125 0.0
O139 O 0.92242 0.44136 0.22006 0.0
Co140 Co 0.59904 0.92631 0.19425 0.0
O141 O 0.59808 0.90043 0.18506 0.0
O142 O 0.60934 0.92424 0.16901 0.0
C143 C 0.60917 0.91955 0.22409 0.0
O144 O 0.60295 0.95482 0.19764 0.0
Co145 Co 0.5761 0.94188 0.22792 0.0
O146 O 0.58983 0.96593 0.22405 0.0
C147 C 0.55745 0.93061 0.19251 0.0
C148 C 0.60504 0.90653 0.16929 0.0
C149 C 0.59954 0.96838 0.20922 0.0
O150 O 0.57321 0.93083 0.18367 0.0
O151 O 0.55612 0.93246 0.21035 0.0
O152 O 0.62121 0.92083 0.21033 0.0
O153 O 0.59195 0.92162 0.2193 0.0
Co154 Co 0.10502 0.59763 0.19428 0.0
O155 O 0.13092 0.59654 0.18506 0.0
O156 O 0.10718 0.60837 0.16929 0.0
C157 C 0.11192 0.607 0.22439 0.0
O158 O 0.07652 0.60174 0.19759 0.0
Co159 Co 0.08892 0.57432 0.22736 0.0
O160 O 0.06468 0.58763 0.22312 0.0
C161 C 0.10016 0.55621 0.19168 0.0
C162 C 0.12484 0.60382 0.16943 0.0
C163 C 0.0626 0.59777 0.20854 0.0
O164 O 0.10023 0.57211 0.18314 0.0
O165 O 0.09829 0.55459 0.20949 0.0
O166 O 0.11081 0.61934 0.21089 0.0
O167 O 0.10956 0.58995 0.21919 0.0
Co168 Co 0.43436 0.92658 0.8355 0.0
O169 O 0.436 0.90058 0.84404 0.0
O170 O 0.42316 0.92344 0.86032 0.0
C171 C 0.42595 0.9197 0.80506 0.0
O172 O 0.42961 0.95506 0.83252 0.0
Co173 Co 0.45818 0.94353 0.80309 0.0
O174 O 0.44376 0.96712 0.80706 0.0
C175 C 0.47561 0.93185 0.83898 0.0
C176 C 0.4282 0.90592 0.85967 0.0
C177 C 0.43328 0.96898 0.82144 0.0
O178 O 0.45954 0.93173 0.84725 0.0
O179 O 0.47755 0.93393 0.82122 0.0
O180 O 0.41319 0.9204 0.81822 0.0
O181 O 0.44275 0.92263 0.81078 0.0
Co182 Co 0.10415 0.43232 0.83577 0.0
O183 O 0.13018 0.43355 0.84425 0.0
O184 O 0.10698 0.42187 0.86095 0.0
C185 C 0.11065 0.42259 0.80574 0.0
O186 O 0.07553 0.4282 0.8328 0.0
Co187 Co 0.08804 0.45561 0.80262 0.0
O188 O 0.06411 0.44177 0.80675 0.0
C189 C 0.09999 0.47377 0.83802 0.0
C190 C 0.12465 0.4264 0.86012 0.0
C191 C 0.06182 0.4318 0.82142 0.0
O192 O 0.09961 0.45797 0.8467 0.0
O193 O 0.098 0.4753 0.82022 0.0
O194 O 0.10965 0.41039 0.81936 0.0
O195 O 0.10842 0.43971 0.81077 0.0
Co196 Co 0.59756 0.10422 0.83613 0.0
O197 O 0.59628 0.13004 0.84544 0.0
O198 O 0.6087 0.10649 0.861 0.0
C199 C 0.60627 0.11155 0.8059 0.0
O200 O 0.60192 0.07575 0.83242 0.0
Co201 Co 0.57357 0.08844 0.80328 0.0
O202 O 0.58751 0.06447 0.80676 0.0
C203 C 0.55622 0.09968 0.83933 0.0
C204 C 0.60388 0.12408 0.86095 0.0
C205 C 0.59801 0.06213 0.82106 0.0
O206 O 0.57224 0.09913 0.84765 0.0
O207 O 0.55431 0.09809 0.82152 0.0
O208 O 0.61893 0.11041 0.81911 0.0
O209 O 0.58937 0.10888 0.81148 0.0
Co210 Co 0.92677 0.59725 0.83545 0.0
O211 O 0.9007 0.59596 0.84394 0.0
O212 O 0.92387 0.60783 0.86054 0.0
C213 C 0.92035 0.60674 0.80529 0.0
O214 O 0.95534 0.60153 0.83265 0.0
Co215 Co 0.94341 0.574 0.80256 0.0
O216 O 0.96741 0.58761 0.8071 0.0
C217 C 0.93123 0.55584 0.83788 0.0
C218 C 0.90622 0.60322 0.85978 0.0
C219 C 0.96935 0.59771 0.82174 0.0
O220 O 0.9314 0.57168 0.84653 0.0
O221 O 0.93341 0.55428 0.8201 0.0
O222 O 0.92118 0.61903 0.81885 0.0
O223 O 0.92271 0.58968 0.81044 0.0
Co224 Co 0.19469 0.43285 0.1033 0.0
O225 O 0.18545 0.43408 0.12916 0.0
O226 O 0.16974 0.42191 0.10555 0.0
C227 C 0.22484 0.42384 0.11053 0.0
O228 O 0.1982 0.42853 0.07483 0.0
Co229 Co 0.22775 0.45634 0.08729 0.0
O230 O 0.22403 0.44244 0.06333 0.0
C231 C 0.19186 0.47419 0.09842 0.0
C232 C 0.16987 0.42662 0.12317 0.0
C233 C 0.20952 0.43221 0.06111 0.0
O234 O 0.18338 0.45825 0.09834 0.0
O235 O 0.20969 0.47589 0.09666 0.0
O236 O 0.21151 0.41133 0.10935 0.0
O237 O 0.21948 0.4408 0.10792 0.0
Co238 Co 0.1954 0.59726 0.92617 0.0
O239 O 0.18616 0.59609 0.90032 0.0
O240 O 0.17047 0.60828 0.92394 0.0
C241 C 0.2256 0.6062 0.91897 0.0
O242 O 0.19895 0.60151 0.95466 0.0
Co243 Co 0.22833 0.57349 0.94202 0.0
O244 O 0.22465 0.58729 0.96606 0.0
C245 C 0.19243 0.55592 0.93062 0.0
C246 C 0.17059 0.60359 0.90631 0.0
C247 C 0.21024 0.59765 0.96835 0.0
O248 O 0.18401 0.57188 0.9311 0.0
O249 O 0.21025 0.55411 0.93231 0.0
O250 O 0.21229 0.61875 0.92015 0.0
O251 O 0.22016 0.58925 0.92153 0.0
Co252 Co 0.43245 0.19463 0.92693 0.0
O253 O 0.43354 0.18544 0.90103 0.0
O254 O 0.42189 0.16955 0.92477 0.0
C255 C 0.42285 0.22461 0.91996 0.0
O256 O 0.42836 0.19792 0.95544 0.0
Co257 Co 0.45553 0.22791 0.94295 0.0
O258 O 0.44232 0.22355 0.96721 0.0
C259 C 0.4739 0.19257 0.93113 0.0
C260 C 0.42638 0.16975 0.9071 0.0
C261 C 0.43228 0.20891 0.96934 0.0
O262 O 0.45813 0.18377 0.93159 0.0
O263 O 0.47529 0.21039 0.93298 0.0
O264 O 0.41056 0.21107 0.9212 0.0
O265 O 0.43996 0.21955 0.92235 0.0
Co266 Co 0.83621 0.4321 0.92713 0.0
O267 O 0.84468 0.4334 0.90108 0.0
O268 O 0.86147 0.42181 0.92423 0.0
C269 C 0.80622 0.4222 0.9206 0.0
O270 O 0.83332 0.42792 0.95574 0.0
Co271 Co 0.80284 0.45504 0.94341 0.0
O272 O 0.80712 0.44116 0.96727 0.0
C273 C 0.8382 0.4736 0.93179 0.0
C274 C 0.86061 0.42632 0.90656 0.0
C275 C 0.82193 0.43135 0.96948 0.0
O276 O 0.84697 0.45782 0.9317 0.0
O277 O 0.82037 0.47498 0.93386 0.0
O278 O 0.81991 0.41007 0.92159 0.0
O279 O 0.81113 0.43933 0.92293 0.0
Co280 Co 0.59909 0.83636 0.92629 0.0
O281 O 0.59812 0.84569 0.90047 0.0
O282 O 0.60956 0.86153 0.92434 0.0
C283 C 0.60892 0.80651 0.91916 0.0
O284 O 0.60303 0.83276 0.95482 0.0
Co285 Co 0.57595 0.80277 0.94167 0.0
O286 O 0.58952 0.80652 0.96582 0.0
C287 C 0.55753 0.83836 0.93069 0.0
C288 C 0.60518 0.86137 0.90663 0.0
C289 C 0.59941 0.82121 0.96835 0.0
O290 O 0.57334 0.8471 0.93092 0.0
O291 O 0.55612 0.82051 0.93232 0.0
O292 O 0.62112 0.8201 0.92058 0.0
O293 O 0.59176 0.81145 0.92142 0.0
Co294 Co 0.83693 0.59767 0.10373 0.0
O295 O 0.84538 0.59646 0.12976 0.0
O296 O 0.86215 0.60803 0.10658 0.0
C297 C 0.80692 0.60753 0.11016 0.0
O298 O 0.83403 0.60179 0.07513 0.0
Co299 Co 0.80364 0.57458 0.08753 0.0
O300 O 0.80782 0.58852 0.06367 0.0
C301 C 0.83894 0.55621 0.09956 0.0
C302 C 0.86128 0.60356 0.12425 0.0
C303 C 0.82261 0.59836 0.06142 0.0
O304 O 0.84774 0.57196 0.09924 0.0
O305 O 0.82112 0.55479 0.09749 0.0
O306 O 0.8206 0.61968 0.10917 0.0
O307 O 0.81188 0.59039 0.10794 0.0
Co308 Co 0.43364 0.83631 0.10346 0.0
O309 O 0.4349 0.84484 0.12949 0.0
O310 O 0.42326 0.86152 0.10629 0.0
C311 C 0.4238 0.80632 0.10995 0.0
O312 O 0.42948 0.83336 0.07486 0.0
Co313 Co 0.45674 0.80304 0.08726 0.0
O314 O 0.44277 0.80717 0.06341 0.0
C315 C 0.47517 0.83847 0.09877 0.0
C316 C 0.42779 0.86072 0.12396 0.0
C317 C 0.43292 0.82194 0.06116 0.0
O318 O 0.45934 0.84715 0.09887 0.0
O319 O 0.47664 0.82067 0.09673 0.0
O320 O 0.41163 0.81998 0.10898 0.0
O321 O 0.44095 0.81128 0.1077 0.0
Co322 Co 0.59847 0.19415 0.10474 0.0
O323 O 0.59747 0.18514 0.1307 0.0
O324 O 0.60897 0.16905 0.10702 0.0
C325 C 0.60825 0.22412 0.11136 0.0
O326 O 0.60245 0.19729 0.07619 0.0
Co327 Co 0.57537 0.22742 0.0887 0.0
O328 O 0.58865 0.22304 0.06448 0.0
C329 C 0.55697 0.19212 0.10058 0.0
C330 C 0.60458 0.1694 0.12472 0.0
C331 C 0.59861 0.20833 0.06231 0.0
O332 O 0.57274 0.18333 0.10023 0.0
O333 O 0.55557 0.20993 0.09865 0.0
O334 O 0.62045 0.21049 0.11022 0.0
O335 O 0.5911 0.21914 0.1092 0.0
Co336 Co 0.95494 0.84285 0.5872 0.0
O337 O 0.94544 0.86701 0.59606 0.0
O338 O 0.92904 0.84083 0.59569 0.0
C339 C 0.9841 0.8432 0.60071 0.0
O340 O 0.95901 0.81537 0.57968 0.0
Co341 Co 0.98978 0.83981 0.5609 0.0
O342 O 0.98582 0.81223 0.56336 0.0
C343 C 0.95416 0.85428 0.54612 0.0
C344 C 0.92928 0.85884 0.59865 0.0
C345 C 0.97125 0.80516 0.57107 0.0
O346 O 0.94567 0.84886 0.56113 0.0
O347 O 0.97206 0.85413 0.54444 0.0
O348 O 0.96948 0.83814 0.61054 0.0
O349 O 0.98027 0.84958 0.5843 0.0
Co350 Co 0.18783 0.95353 0.58767 0.0
O351 O 0.16371 0.94386 0.59649 0.0
O352 O 0.18997 0.92759 0.59589 0.0
C353 C 0.18747 0.98254 0.60145 0.0
O354 O 0.2153 0.95775 0.58013 0.0
Co355 Co 0.19068 0.98856 0.56167 0.0
O356 O 0.2183 0.98463 0.56397 0.0
C357 C 0.17643 0.95302 0.54655 0.0
C358 C 0.17196 0.92772 0.59889 0.0
C359 C 0.22545 0.97006 0.57157 0.0
O360 O 0.18182 0.94447 0.56152 0.0
O361 O 0.17649 0.97092 0.545 0.0
O362 O 0.19257 0.96785 0.61113 0.0
O363 O 0.18103 0.97885 0.58504 0.0
Co364 Co 0.0764 0.1862 0.58732 0.0
O365 O 0.08536 0.16195 0.59631 0.0
O366 O 0.10248 0.18764 0.59565 0.0
C367 C 0.04731 0.18655 0.60101 0.0
O368 O 0.07272 0.21371 0.57961 0.0
Co369 Co 0.04143 0.18936 0.56115 0.0
O370 O 0.04585 0.21689 0.56335 0.0
C371 C 0.0767 0.17405 0.54642 0.0
C372 C 0.10172 0.16968 0.59884 0.0
C373 C 0.06049 0.22391 0.57097 0.0
O374 O 0.08538 0.17978 0.56121 0.0
O375 O 0.05879 0.17436 0.54489 0.0
O376 O 0.06207 0.1914 0.61072 0.0
O377 O 0.05094 0.17993 0.58466 0.0
Co378 Co 0.84402 0.07585 0.58818 0.0
O379 O 0.86839 0.08497 0.59662 0.0
O380 O 0.84252 0.10188 0.59657 0.0
C381 C 0.84434 0.04682 0.60191 0.0
O382 O 0.81633 0.07184 0.5811 0.0
Co383 Co 0.84079 0.04078 0.56214 0.0
O384 O 0.8133 0.04432 0.56595 0.0
C385 C 0.8554 0.07619 0.54707 0.0
C386 C 0.86057 0.10124 0.5994 0.0
C387 C 0.80614 0.05897 0.57342 0.0
O388 O 0.8498 0.08485 0.56193 0.0
O389 O 0.85521 0.0583 0.54554 0.0
O390 O 0.83949 0.06151 0.6117 0.0
O391 O 0.85055 0.0505 0.58541 0.0
Co392 Co 0.95425 0.1872 0.44386 0.0
O393 O 0.94575 0.16275 0.43493 0.0
O394 O 0.92826 0.18821 0.43526 0.0
C395 C 0.9835 0.18785 0.43048 0.0
O396 O 0.95734 0.21481 0.4515 0.0
Co397 Co 0.98887 0.19084 0.47048 0.0
O398 O 0.98304 0.21817 0.46964 0.0
C399 C 0.95376 0.17489 0.48466 0.0
C400 C 0.92929 0.17023 0.43222 0.0
C401 C 0.9687 0.22495 0.46131 0.0
O402 O 0.94511 0.1808 0.46993 0.0
O403 O 0.97166 0.17516 0.48622 0.0
O404 O 0.96878 0.19245 0.42058 0.0
O405 O 0.97977 0.18132 0.44684 0.0
Co406 Co 0.84405 0.95412 0.4432 0.0
O407 O 0.86843 0.94532 0.43433 0.0
O408 O 0.84276 0.92812 0.43467 0.0
C409 C 0.84366 0.98326 0.42967 0.0
O410 O 0.81645 0.95765 0.45077 0.0
Co411 Co 0.84062 0.98887 0.46958 0.0
O412 O 0.8131 0.98448 0.467 0.0
C413 C 0.85534 0.95342 0.48439 0.0
C414 C 0.86076 0.92896 0.43162 0.0
C415 C 0.80614 0.96983 0.45936 0.0
O416 O 0.85023 0.94495 0.46927 0.0
O417 O 0.85494 0.97129 0.48617 0.0
O418 O 0.83897 0.96853 0.41986 0.0
O419 O 0.85022 0.97958 0.44604 0.0
Co420 Co 0.07744 0.84271 0.44297 0.0
O421 O 0.0867 0.8669 0.43394 0.0
O422 O 0.10338 0.84092 0.43453 0.0
C423 C 0.04827 0.8426 0.42945 0.0
O424 O 0.07364 0.81525 0.45076 0.0
Co425 Co 0.0426 0.84001 0.46942 0.0
O426 O 0.04773 0.81254 0.4687 0.0
C427 C 0.07805 0.85505 0.4838 0.0
C428 C 0.10296 0.8589 0.43144 0.0
C429 C 0.06202 0.8054 0.46055 0.0
O430 O 0.08661 0.84903 0.46905 0.0
O431 O 0.06014 0.85514 0.48534 0.0
O432 O 0.06295 0.83763 0.41966 0.0
O433 O 0.05203 0.84922 0.44576 0.0
Co434 Co 0.18694 0.07603 0.44307 0.0
O435 O 0.16262 0.085 0.4342 0.0
O436 O 0.18834 0.1021 0.43485 0.0
C437 C 0.18731 0.047 0.42925 0.0
O438 O 0.21452 0.07241 0.45068 0.0
Co439 Co 0.19038 0.04102 0.46906 0.0
O440 O 0.21792 0.04541 0.46659 0.0
C441 C 0.17523 0.07619 0.48413 0.0
C442 C 0.17036 0.10136 0.43172 0.0
C443 C 0.22485 0.06015 0.45911 0.0
O444 O 0.18059 0.08489 0.46922 0.0
O445 O 0.17566 0.0583 0.48564 0.0
O446 O 0.19209 0.06181 0.4196 0.0
O447 O 0.18072 0.05054 0.44564 0.0
Co448 Co 0.58831 0.95465 0.84345 0.0
O449 O 0.59762 0.94607 0.86773 0.0
O450 O 0.59682 0.92866 0.84223 0.0
C451 C 0.60176 0.98384 0.84255 0.0
O452 O 0.58022 0.95785 0.81597 0.0
Co453 Co 0.56168 0.98927 0.84039 0.0
O454 O 0.56213 0.98361 0.813 0.0
C455 C 0.54764 0.95415 0.85636 0.0
C456 C 0.60013 0.92963 0.86017 0.0
C457 C 0.57028 0.96926 0.80602 0.0
O458 O 0.56234 0.94555 0.85026 0.0
O459 O 0.54606 0.97203 0.85616 0.0
O460 O 0.61154 0.96909 0.8378 0.0
O461 O 0.58552 0.98016 0.84944 0.0
Co462 Co 0.07688 0.58723 0.84341 0.0
O463 O 0.0858 0.59602 0.86776 0.0
O464 O 0.10291 0.59571 0.84201 0.0
C465 C 0.04772 0.60078 0.84331 0.0
O466 O 0.07323 0.57972 0.81583 0.0
Co467 Co 0.04202 0.56094 0.84006 0.0
O468 O 0.04637 0.56349 0.81255 0.0
C469 C 0.07753 0.5461 0.85472 0.0
C470 C 0.10215 0.59871 0.86002 0.0
C471 C 0.06101 0.57113 0.80556 0.0
O472 O 0.08605 0.56115 0.8495 0.0
O473 O 0.05963 0.54441 0.85444 0.0
O474 O 0.06243 0.61059 0.8385 0.0
O475 O 0.05144 0.58438 0.84973 0.0
Co476 Co 0.44303 0.076 0.84439 0.0
O477 O 0.4341 0.08491 0.86869 0.0
O478 O 0.43465 0.10202 0.84298 0.0
C479 C 0.42939 0.0469 0.84401 0.0
O480 O 0.45068 0.07241 0.81684 0.0
Co481 Co 0.46929 0.04115 0.84101 0.0
O482 O 0.46679 0.04551 0.81349 0.0
C483 C 0.48416 0.07649 0.85596 0.0
C484 C 0.43153 0.10126 0.86096 0.0
C485 C 0.45922 0.06019 0.80654 0.0
O486 O 0.46913 0.08505 0.8507 0.0
O487 O 0.48584 0.05862 0.85555 0.0
O488 O 0.41965 0.06166 0.83925 0.0
O489 O 0.44576 0.05054 0.85061 0.0
Co490 Co 0.95426 0.44245 0.84343 0.0
O491 O 0.94494 0.43347 0.86763 0.0
O492 O 0.92831 0.43407 0.84161 0.0
C493 C 0.98343 0.42888 0.84326 0.0
O494 O 0.95811 0.45021 0.81596 0.0
Co495 Co 0.98911 0.46884 0.84078 0.0
O496 O 0.98401 0.46814 0.81329 0.0
C497 C 0.9535 0.48351 0.85518 0.0
C498 C 0.92868 0.43102 0.85961 0.0
C499 C 0.96974 0.46001 0.80612 0.0
O500 O 0.94507 0.46851 0.84966 0.0
O501 O 0.97139 0.48516 0.85527 0.0
O502 O 0.96871 0.41913 0.83836 0.0
O503 O 0.9797 0.44517 0.84996 0.0
Co504 Co 0.58846 0.07589 0.18792 0.0
O505 O 0.59701 0.08492 0.16356 0.0
O506 O 0.59697 0.10191 0.18936 0.0
C507 C 0.60204 0.04677 0.1878 0.0
O508 O 0.58121 0.0719 0.21556 0.0
Co509 Co 0.56211 0.04103 0.19082 0.0
O510 O 0.56576 0.04453 0.21832 0.0
C511 C 0.54712 0.07674 0.17696 0.0
C512 C 0.5998 0.10121 0.17131 0.0
C513 C 0.57328 0.05907 0.22561 0.0
O514 O 0.56228 0.08512 0.18213 0.0
O515 O 0.54533 0.05887 0.17704 0.0
O516 O 0.6119 0.06144 0.19256 0.0
O517 O 0.58562 0.05054 0.18141 0.0
Co518 Co 0.955 0.5872 0.18696 0.0
O519 O 0.94562 0.59619 0.16281 0.0
O520 O 0.92912 0.59572 0.18894 0.0
C521 C 0.98418 0.60061 0.18686 0.0
O522 O 0.95898 0.57952 0.21442 0.0
Co523 Co 0.98971 0.56072 0.18983 0.0
O524 O 0.9855 0.56269 0.21742 0.0
C525 C 0.95407 0.54622 0.1752 0.0
C526 C 0.92942 0.59874 0.17094 0.0
C527 C 0.97106 0.5706 0.22454 0.0
O528 O 0.94567 0.56121 0.18077 0.0
O529 O 0.97196 0.54447 0.17528 0.0
O530 O 0.96957 0.61046 0.19189 0.0
O531 O 0.98035 0.58428 0.18031 0.0
Co532 Co 0.44364 0.95465 0.18673 0.0
O533 O 0.43508 0.94514 0.16245 0.0
O534 O 0.43531 0.92871 0.18859 0.0
C535 C 0.42991 0.98371 0.1865 0.0
O536 O 0.45086 0.95872 0.2143 0.0
Co537 Co 0.46973 0.98959 0.19 0.0
O538 O 0.46698 0.98562 0.21756 0.0
C539 C 0.48502 0.95402 0.17601 0.0
C540 C 0.43251 0.92896 0.17055 0.0
C541 C 0.45929 0.97103 0.22457 0.0
O542 O 0.46986 0.94553 0.181 0.0
O543 O 0.4867 0.9719 0.17623 0.0
O544 O 0.42014 0.96898 0.19131 0.0
O545 O 0.44637 0.98004 0.18013 0.0
Co546 Co 0.07665 0.44322 0.18672 0.0
O547 O 0.08521 0.4343 0.16228 0.0
O548 O 0.10264 0.43463 0.18779 0.0
C549 C 0.04742 0.42981 0.18734 0.0
O550 O 0.0735 0.45084 0.21433 0.0
Co551 Co 0.04201 0.46981 0.19033 0.0
O552 O 0.04782 0.46901 0.21768 0.0
C553 C 0.07719 0.48408 0.17456 0.0
C554 C 0.10165 0.43159 0.16981 0.0
C555 C 0.06216 0.46067 0.22447 0.0
O556 O 0.0858 0.46928 0.18035 0.0
O557 O 0.05929 0.48569 0.17486 0.0
O558 O 0.06214 0.41994 0.19195 0.0
O559 O 0.05112 0.44617 0.18081 0.0
Co560 Co 0.84402 0.58717 0.95407 0.0
O561 O 0.8682 0.59586 0.94442 0.0
O562 O 0.84197 0.59538 0.9281 0.0
C563 C 0.84431 0.60101 0.98309 0.0
O564 O 0.8165 0.57979 0.95828 0.0
Co565 Co 0.84095 0.56127 0.98916 0.0
O566 O 0.81334 0.56355 0.98511 0.0
C567 C 0.85554 0.54614 0.95377 0.0
C568 C 0.85999 0.59833 0.92826 0.0
C569 C 0.80628 0.57124 0.97054 0.0
O570 O 0.84992 0.56096 0.94509 0.0
O571 O 0.85545 0.54469 0.97167 0.0
O572 O 0.83935 0.61067 0.96834 0.0
O573 O 0.85074 0.58458 0.97945 0.0
Co574 Co 0.84352 0.44257 0.07682 0.0
O575 O 0.86765 0.43372 0.0865 0.0
O576 O 0.84141 0.43442 0.10281 0.0
C577 C 0.84377 0.42874 0.0478 0.0
O578 O 0.81604 0.45017 0.07261 0.0
Co579 Co 0.84068 0.4685 0.04175 0.0
O580 O 0.81305 0.46633 0.04572 0.0
C581 C 0.85501 0.48365 0.07724 0.0
C582 C 0.85942 0.43138 0.10267 0.0
C583 C 0.8059 0.45876 0.06031 0.0
O584 O 0.84961 0.46871 0.08583 0.0
O585 O 0.85492 0.48517 0.05934 0.0
O586 O 0.83872 0.41911 0.06255 0.0
O587 O 0.8503 0.44512 0.05145 0.0
Co588 Co 0.58849 0.84331 0.07585 0.0
O589 O 0.59739 0.86765 0.08463 0.0
O590 O 0.59693 0.84204 0.10188 0.0
C591 C 0.6021 0.84283 0.04673 0.0
O592 O 0.58088 0.81575 0.07235 0.0
Co593 Co 0.56214 0.8399 0.04106 0.0
O594 O 0.56402 0.81242 0.04586 0.0
C595 C 0.54756 0.85535 0.07627 0.0
C596 C 0.60002 0.86002 0.10102 0.0
C597 C 0.57192 0.80551 0.06038 0.0
O598 O 0.56238 0.84962 0.08491 0.0
O599 O 0.54598 0.85504 0.05839 0.0
O600 O 0.61188 0.83815 0.06149 0.0
O601 O 0.58573 0.84942 0.05037 0.0
Co602 Co 0.18745 0.58719 0.07556 0.0
O603 O 0.16316 0.59623 0.08445 0.0
O604 O 0.18885 0.5955 0.10161 0.0
C605 C 0.18805 0.60088 0.0465 0.0
O606 O 0.21498 0.57945 0.07202 0.0
Co607 Co 0.19077 0.56097 0.04069 0.0
O608 O 0.21829 0.56266 0.04549 0.0
C609 C 0.17511 0.54638 0.07579 0.0
C610 C 0.17089 0.59872 0.10083 0.0
C611 C 0.22522 0.57051 0.06004 0.0
O612 O 0.18094 0.56111 0.0845 0.0
O613 O 0.17545 0.54486 0.0579 0.0
O614 O 0.19279 0.61057 0.06132 0.0
O615 O 0.18132 0.58457 0.05006 0.0
Co616 Co 0.44329 0.18774 0.07672 0.0
O617 O 0.43462 0.16359 0.08635 0.0
O618 O 0.43504 0.18977 0.10272 0.0
C619 C 0.42949 0.18729 0.04772 0.0
O620 O 0.45069 0.21524 0.0723 0.0
Co621 Co 0.46935 0.19018 0.04161 0.0
O622 O 0.46605 0.21775 0.04485 0.0
C623 C 0.48451 0.17641 0.07731 0.0
C624 C 0.43213 0.17175 0.10252 0.0
C625 C 0.45863 0.22517 0.05938 0.0
O626 O 0.46949 0.18184 0.08579 0.0
O627 O 0.48613 0.17636 0.05942 0.0
O628 O 0.41978 0.19236 0.06241 0.0
O629 O 0.44591 0.18085 0.05142 0.0
Co630 Co 0.18729 0.44267 0.95399 0.0
O631 O 0.16312 0.43378 0.94452 0.0
O632 O 0.18925 0.43445 0.92802 0.0
C633 C 0.18731 0.42888 0.98299 0.0
O634 O 0.21479 0.45026 0.95801 0.0
Co635 Co 0.19029 0.46868 0.98901 0.0
O636 O 0.21789 0.46641 0.98491 0.0
C637 C 0.17577 0.48377 0.95358 0.0
C638 C 0.17125 0.43138 0.92831 0.0
C639 C 0.22498 0.45882 0.97029 0.0
O640 O 0.18112 0.4688 0.94499 0.0
O641 O 0.17597 0.48534 0.97148 0.0
O642 O 0.19225 0.41923 0.96822 0.0
O643 O 0.1807 0.44524 0.97939 0.0
Co644 Co 0.58778 0.18716 0.95471 0.0
O645 O 0.59615 0.16271 0.94568 0.0
O646 O 0.59632 0.18848 0.92868 0.0
C647 C 0.60136 0.18692 0.98385 0.0
O648 O 0.58081 0.21487 0.95862 0.0
Co649 Co 0.56151 0.19054 0.98964 0.0
O650 O 0.56549 0.21797 0.98606 0.0
C651 C 0.54641 0.17645 0.95402 0.0
C652 C 0.59902 0.17043 0.92938 0.0
C653 C 0.57307 0.22508 0.97146 0.0
O654 O 0.56155 0.18154 0.94554 0.0
O655 O 0.54469 0.17666 0.97191 0.0
O656 O 0.61127 0.1916 0.96917 0.0
O657 O 0.58486 0.18075 0.98009 0.0
Co658 Co 0.444 0.84346 0.95373 0.0
O659 O 0.43524 0.86764 0.94418 0.0
O660 O 0.43571 0.84149 0.92777 0.0
C661 C 0.43026 0.84364 0.98281 0.0
O662 O 0.45142 0.81595 0.95783 0.0
Co663 Co 0.47012 0.84045 0.98869 0.0
O664 O 0.46813 0.81288 0.98442 0.0
C665 C 0.48501 0.85521 0.9533 0.0
C666 C 0.43276 0.8595 0.928 0.0
C667 C 0.46024 0.80581 0.96997 0.0
O668 O 0.4702 0.84944 0.94467 0.0
O669 O 0.48651 0.85515 0.9712 0.0
O670 O 0.42053 0.83873 0.96808 0.0
O671 O 0.44668 0.85011 0.97912 0.0
Co672 Co 0.60502 0.69519 0.93267 0.0
O673 O 0.63103 0.68659 0.93398 0.0
O674 O 0.60785 0.67018 0.92186 0.0
C675 C 0.6117 0.7254 0.9235 0.0
O676 O 0.57645 0.69826 0.92837 0.0
Co677 Co 0.58869 0.72801 0.95631 0.0
O678 O 0.56482 0.72402 0.94232 0.0
C679 C 0.60054 0.69239 0.97407 0.0
C680 C 0.62549 0.67085 0.92654 0.0
C681 C 0.56267 0.70951 0.93208 0.0
O682 O 0.60024 0.68391 0.95813 0.0
O683 O 0.59855 0.71017 0.97582 0.0
O684 O 0.61081 0.71198 0.91106 0.0
O685 O 0.60925 0.72006 0.9405 0.0
Co686 Co 0.33683 0.60416 0.93194 0.0
O687 O 0.34595 0.63007 0.93285 0.0
O688 O 0.36198 0.6063 0.92145 0.0
C689 C 0.30684 0.61085 0.92213 0.0
O690 O 0.33356 0.57563 0.92807 0.0
Co691 Co 0.3035 0.58841 0.95518 0.0
O692 O 0.3078 0.5641 0.94205 0.0
C693 C 0.33889 0.60025 0.97344 0.0
C694 C 0.3617 0.62399 0.9258 0.0
C695 C 0.32247 0.56182 0.93204 0.0
O696 O 0.34766 0.59972 0.95766 0.0
O697 O 0.32105 0.59842 0.97489 0.0
O698 O 0.32049 0.60962 0.90995 0.0
O699 O 0.31182 0.60876 0.93929 0.0
Co700 Co 0.42696 0.33584 0.93312 0.0
O701 O 0.4011 0.34512 0.93417 0.0
O702 O 0.42484 0.36083 0.92228 0.0
C703 C 0.41986 0.30575 0.92386 0.0
O704 O 0.45549 0.33223 0.92902 0.0
Co705 Co 0.44255 0.30277 0.95681 0.0
O706 O 0.46668 0.30639 0.94312 0.0
C707 C 0.4311 0.33854 0.97455 0.0
C708 C 0.40717 0.36071 0.92683 0.0
C709 C 0.46911 0.32083 0.93286 0.0
O710 O 0.43171 0.34703 0.95864 0.0
O711 O 0.43277 0.32072 0.97627 0.0
O712 O 0.42109 0.31917 0.91144 0.0
O713 O 0.4222 0.31104 0.94089 0.0
Co714 Co 0.69457 0.42688 0.93273 0.0
O715 O 0.68547 0.40099 0.93394 0.0
O716 O 0.66978 0.42445 0.92148 0.0
C717 C 0.72493 0.41989 0.92414 0.0
O718 O 0.69792 0.45535 0.92836 0.0
Co719 Co 0.72709 0.44322 0.9567 0.0
O720 O 0.7231 0.46728 0.94306 0.0
C721 C 0.69121 0.43139 0.97401 0.0
C722 C 0.66994 0.40686 0.92627 0.0
C723 C 0.70879 0.46929 0.9325 0.0
O724 O 0.6829 0.43186 0.95799 0.0
O725 O 0.70901 0.43323 0.97593 0.0
O726 O 0.71174 0.42083 0.91146 0.0
O727 O 0.71929 0.4225 0.94103 0.0
Co728 Co 0.60405 0.33545 0.09703 0.0
O729 O 0.63005 0.34406 0.09561 0.0
O730 O 0.60695 0.36046 0.10787 0.0
C731 C 0.6109 0.30524 0.10608 0.0
O732 O 0.57549 0.33237 0.10146 0.0
Co733 Co 0.58765 0.30262 0.07346 0.0
O734 O 0.56384 0.30661 0.08753 0.0
C735 C 0.59926 0.33832 0.05565 0.0
C736 C 0.62456 0.35979 0.10308 0.0
C737 C 0.5617 0.32111 0.09778 0.0
O738 O 0.59919 0.34677 0.07161 0.0
O739 O 0.5973 0.32054 0.05391 0.0
O740 O 0.60997 0.3186 0.11858 0.0
O741 O 0.60827 0.31062 0.08913 0.0
Co742 Co 0.69541 0.60332 0.09704 0.0
O743 O 0.68695 0.62933 0.09555 0.0
O744 O 0.67048 0.60641 0.10803 0.0
C745 C 0.72574 0.6101 0.10581 0.0
O746 O 0.69835 0.57478 0.10155 0.0
Co747 Co 0.72806 0.58658 0.07339 0.0
O748 O 0.724 0.56288 0.08757 0.0
C749 C 0.69235 0.59853 0.05574 0.0
C750 C 0.67123 0.62398 0.10316 0.0
C751 C 0.7095 0.5609 0.09789 0.0
O752 O 0.68391 0.59843 0.07171 0.0
O753 O 0.71014 0.59647 0.05397 0.0
O754 O 0.71246 0.60927 0.11843 0.0
O755 O 0.72021 0.60735 0.08893 0.0
Co756 Co 0.4273 0.69476 0.09714 0.0
O757 O 0.40121 0.68643 0.09554 0.0
O758 O 0.42403 0.66991 0.10815 0.0
C759 C 0.42073 0.72514 0.10585 0.0
O760 O 0.45584 0.69746 0.10179 0.0
Co761 Co 0.4445 0.72714 0.07355 0.0
O762 O 0.46827 0.72263 0.08751 0.0
C763 C 0.43221 0.69159 0.0559 0.0
C764 C 0.40648 0.6707 0.10318 0.0
C765 C 0.46998 0.70818 0.09791 0.0
O766 O 0.43229 0.68318 0.07186 0.0
O767 O 0.43444 0.70934 0.0541 0.0
O768 O 0.42137 0.71189 0.11848 0.0
O769 O 0.42351 0.71958 0.08898 0.0
Co770 Co 0.3363 0.42666 0.09793 0.0
O771 O 0.34463 0.40058 0.09667 0.0
O772 O 0.36138 0.42363 0.10853 0.0
C773 C 0.3061 0.42037 0.10742 0.0
O774 O 0.33368 0.45523 0.10213 0.0
Co775 Co 0.30343 0.44344 0.07474 0.0
O776 O 0.30808 0.46739 0.08836 0.0
C777 C 0.33886 0.43151 0.05651 0.0
C778 C 0.3605 0.406 0.10394 0.0
C779 C 0.32281 0.46928 0.09834 0.0
O780 O 0.34745 0.43123 0.07238 0.0
O781 O 0.32108 0.43377 0.05494 0.0
O782 O 0.31966 0.4212 0.11973 0.0
O783 O 0.31126 0.42271 0.09035 0.0
Co784 Co 0.93324 0.60389 0.69416 0.0
O785 O 0.93443 0.6297 0.68482 0.0
O786 O 0.92261 0.60597 0.66906 0.0
C787 C 0.92372 0.6111 0.72413 0.0
O788 O 0.92903 0.57543 0.69774 0.0
Co789 Co 0.95642 0.5882 0.72757 0.0
O790 O 0.94251 0.56423 0.72392 0.0
C791 C 0.97472 0.59901 0.69183 0.0
C792 C 0.9272 0.62361 0.66918 0.0
C793 C 0.93254 0.56185 0.70926 0.0
O794 O 0.95885 0.599 0.6832 0.0
O795 O 0.97625 0.59731 0.70967 0.0
O796 O 0.91141 0.60983 0.71062 0.0
O797 O 0.94081 0.60865 0.71903 0.0
Co798 Co 0.4275 0.93205 0.69399 0.0
O799 O 0.40159 0.93301 0.68486 0.0
O800 O 0.42541 0.92173 0.66878 0.0
C801 C 0.42073 0.92202 0.72386 0.0
O802 O 0.45606 0.92815 0.69734 0.0
Co803 Co 0.44313 0.95503 0.72758 0.0
O804 O 0.46722 0.94136 0.72368 0.0
C805 C 0.43157 0.97355 0.69221 0.0
C806 C 0.40768 0.92605 0.66909 0.0
C807 C 0.46965 0.9316 0.70887 0.0
O808 O 0.43198 0.95783 0.68336 0.0
O809 O 0.43343 0.9749 0.71005 0.0
O810 O 0.42202 0.90995 0.71014 0.0
O811 O 0.42283 0.93921 0.71902 0.0
Co812 Co 0.0976 0.42587 0.6945 0.0
O813 O 0.09621 0.3999 0.68588 0.0
O814 O 0.10829 0.42303 0.66941 0.0
C815 C 0.10686 0.41906 0.72463 0.0
O816 O 0.10198 0.4544 0.69759 0.0
Co817 Co 0.07422 0.4422 0.72754 0.0
O818 O 0.08827 0.466 0.72351 0.0
C819 C 0.05621 0.43035 0.69201 0.0
C820 C 0.10358 0.40542 0.67011 0.0
C821 C 0.09841 0.46815 0.70891 0.0
O822 O 0.07207 0.43069 0.68338 0.0
O823 O 0.05462 0.4323 0.70982 0.0
O824 O 0.11929 0.42002 0.71119 0.0
O825 O 0.08985 0.42164 0.71937 0.0
Co826 Co 0.60434 0.0981 0.69494 0.0
O827 O 0.63022 0.09725 0.68568 0.0
O828 O 0.60628 0.10836 0.66969 0.0
C829 C 0.6112 0.10826 0.72474 0.0
O830 O 0.57577 0.10189 0.69842 0.0
Co831 Co 0.58895 0.07519 0.72868 0.0
O832 O 0.56475 0.08868 0.72481 0.0
C833 C 0.60004 0.05652 0.69323 0.0
C834 C 0.62403 0.10415 0.66992 0.0
C835 C 0.56222 0.09838 0.71 0.0
O836 O 0.59991 0.07226 0.68439 0.0
O837 O 0.59828 0.05522 0.71108 0.0
O838 O 0.6098 0.12028 0.711 0.0
O839 O 0.60916 0.09105 0.71996 0.0
Co840 Co 0.93273 0.42654 0.33677 0.0
O841 O 0.93366 0.40067 0.34599 0.0
O842 O 0.92242 0.42452 0.36202 0.0
C843 C 0.92266 0.41969 0.30693 0.0
O844 O 0.92889 0.45509 0.33333 0.0
Co845 Co 0.95575 0.44195 0.30309 0.0
O846 O 0.94224 0.46611 0.307 0.0
C847 C 0.97429 0.43053 0.33848 0.0
C848 C 0.92672 0.4068 0.36176 0.0
C849 C 0.93246 0.46863 0.32178 0.0
O850 O 0.95856 0.43102 0.34735 0.0
O851 O 0.97562 0.43225 0.32063 0.0
O852 O 0.91058 0.42104 0.32065 0.0
O853 O 0.93986 0.42177 0.31176 0.0
Co854 Co 0.60479 0.93348 0.33568 0.0
O855 O 0.63066 0.93472 0.34494 0.0
O856 O 0.6071 0.92215 0.36042 0.0
C857 C 0.612 0.92506 0.30531 0.0
O858 O 0.57633 0.92906 0.33219 0.0
Co859 Co 0.58851 0.95751 0.30317 0.0
O860 O 0.56441 0.9439 0.30711 0.0
C861 C 0.60016 0.97471 0.33915 0.0
C862 C 0.62469 0.927 0.3604 0.0
C863 C 0.56239 0.93326 0.32134 0.0
O864 O 0.5997 0.95867 0.34741 0.0
O865 O 0.59839 0.97668 0.32136 0.0
O866 O 0.61099 0.9123 0.31843 0.0
O867 O 0.60925 0.94188 0.31104 0.0
Co868 Co 0.09887 0.60453 0.33562 0.0
O869 O 0.09774 0.63045 0.34473 0.0
O870 O 0.1095 0.60682 0.36067 0.0
C871 C 0.10842 0.61137 0.30558 0.0
O872 O 0.10298 0.57603 0.33244 0.0
Co873 Co 0.07574 0.58834 0.30244 0.0
O874 O 0.08903 0.56415 0.30684 0.0
C875 C 0.05739 0.59963 0.338 0.0
C876 C 0.10496 0.62447 0.36042 0.0
C877 C 0.09907 0.56209 0.3215 0.0
O878 O 0.07326 0.59979 0.34663 0.0
O879 O 0.05588 0.59771 0.32018 0.0
O880 O 0.12071 0.61023 0.31912 0.0
O881 O 0.09131 0.60899 0.31066 0.0
Co882 Co 0.42713 0.0973 0.33634 0.0
O883 O 0.40127 0.0961 0.34559 0.0
O884 O 0.42479 0.10862 0.36113 0.0
C885 C 0.41986 0.10573 0.30602 0.0
O886 O 0.45564 0.1016 0.3327 0.0
Co887 Co 0.44305 0.0731 0.3037 0.0
O888 O 0.46705 0.08699 0.3072 0.0
C889 C 0.43152 0.05606 0.3398 0.0
C890 C 0.40719 0.1038 0.36107 0.0
C891 C 0.46933 0.09758 0.32144 0.0
O892 O 0.43216 0.0721 0.34804 0.0
O893 O 0.43315 0.05404 0.322 0.0
O894 O 0.42096 0.11849 0.31912 0.0
O895 O 0.42255 0.08891 0.31174 0.0
Co896 Co 0.69526 0.93315 0.60419 0.0
O897 O 0.68685 0.93449 0.63025 0.0
O898 O 0.6702 0.92244 0.60723 0.0
C899 C 0.72549 0.92385 0.61067 0.0
O900 O 0.69815 0.92884 0.57559 0.0
Co901 Co 0.7281 0.95665 0.5877 0.0
O902 O 0.72399 0.94262 0.56389 0.0
C903 C 0.69256 0.97453 0.59976 0.0
C904 C 0.67104 0.92711 0.62486 0.0
C905 C 0.70941 0.93247 0.56178 0.0
O906 O 0.68401 0.95864 0.59952 0.0
O907 O 0.71035 0.97622 0.59764 0.0
O908 O 0.712 0.91147 0.60984 0.0
O909 O 0.7202 0.94087 0.60826 0.0
Co910 Co 0.69504 0.09788 0.42707 0.0
O911 O 0.68577 0.09696 0.40123 0.0
O912 O 0.66995 0.10858 0.42505 0.0
C913 C 0.72506 0.1074 0.42007 0.0
O914 O 0.69863 0.10179 0.45561 0.0
Co915 Co 0.72832 0.0743 0.44244 0.0
O916 O 0.72467 0.08788 0.46661 0.0
C917 C 0.69258 0.0564 0.43109 0.0
C918 C 0.67012 0.10418 0.40735 0.0
C919 C 0.71013 0.09799 0.46915 0.0
O920 O 0.684 0.07227 0.43167 0.0
O921 O 0.71042 0.05476 0.43275 0.0
O922 O 0.71153 0.1197 0.4214 0.0
O923 O 0.71992 0.09031 0.42224 0.0
Co924 Co 0.93364 0.6947 0.42588 0.0
O925 O 0.93492 0.68607 0.39989 0.0
O926 O 0.92311 0.66957 0.42314 0.0
C927 C 0.92405 0.72478 0.41927 0.0
O928 O 0.92942 0.69776 0.45444 0.0
Co929 Co 0.95696 0.72782 0.44204 0.0
O930 O 0.94306 0.72373 0.46596 0.0
C931 C 0.97512 0.69233 0.43036 0.0
C932 C 0.9277 0.67026 0.40549 0.0
C933 C 0.93302 0.70909 0.46818 0.0
O934 O 0.95926 0.68371 0.43056 0.0
O935 O 0.9767 0.71013 0.43233 0.0
O936 O 0.91178 0.7112 0.42025 0.0
O937 O 0.94115 0.71967 0.42159 0.0
Co938 Co 0.33657 0.93297 0.42632 0.0
O939 O 0.34582 0.93406 0.40047 0.0
O940 O 0.36159 0.92216 0.42416 0.0
C941 C 0.30651 0.92371 0.41915 0.0
O942 O 0.33304 0.92885 0.45481 0.0
Co943 Co 0.30335 0.95641 0.44209 0.0
O944 O 0.30711 0.94272 0.46615 0.0
C945 C 0.33919 0.97438 0.43101 0.0
C946 C 0.36144 0.92672 0.40651 0.0
C947 C 0.32168 0.93259 0.46848 0.0
O948 O 0.34772 0.95847 0.43114 0.0
O949 O 0.32135 0.97602 0.43273 0.0
O950 O 0.31992 0.91129 0.42043 0.0
O951 O 0.31174 0.94073 0.42161 0.0
Co952 Co 0.09811 0.3361 0.42594 0.0
O953 O 0.0972 0.34517 0.39998 0.0
O954 O 0.10847 0.36126 0.42376 0.0
C955 C 0.10811 0.30617 0.41932 0.0
O956 O 0.10191 0.33302 0.45449 0.0
Co957 Co 0.07524 0.30265 0.44195 0.0
O958 O 0.08842 0.30711 0.46622 0.0
C959 C 0.05656 0.33804 0.43068 0.0
C960 C 0.10417 0.36094 0.40605 0.0
C961 C 0.09813 0.32197 0.46838 0.0
O962 O 0.07234 0.34681 0.43043 0.0
O963 O 0.0552 0.32022 0.43268 0.0
O964 O 0.12021 0.31988 0.42053 0.0
O965 O 0.09091 0.31104 0.42144 0.0
Co966 Co 0.33648 0.09779 0.60418 0.0
O967 O 0.34565 0.09678 0.63007 0.0
O968 O 0.36166 0.10823 0.60631 0.0
C969 C 0.30653 0.10767 0.61099 0.0
O970 O 0.33306 0.10175 0.57564 0.0
Co971 Co 0.30299 0.07462 0.58859 0.0
O972 O 0.30683 0.08829 0.56451 0.0
C973 C 0.33866 0.05626 0.59952 0.0
C974 C 0.3614 0.10383 0.62401 0.0
C975 C 0.32154 0.09818 0.56206 0.0
O976 O 0.3473 0.07211 0.59956 0.0
O977 O 0.32082 0.05475 0.59773 0.0
O978 O 0.32021 0.1198 0.60975 0.0
O979 O 0.31146 0.09051 0.60887 0.0
Co980 Co 0.93205 0.33576 0.60534 0.0
O981 O 0.93306 0.34482 0.63129 0.0
O982 O 0.92151 0.36084 0.6076 0.0
C983 C 0.92237 0.30578 0.6121 0.0
O984 O 0.92808 0.33267 0.57679 0.0
Co985 Co 0.95509 0.30253 0.58915 0.0
O986 O 0.94198 0.30705 0.56488 0.0
C987 C 0.97354 0.33789 0.60082 0.0
C988 C 0.92595 0.36055 0.62527 0.0
C989 C 0.93201 0.32176 0.56283 0.0
O990 O 0.95773 0.34663 0.60078 0.0
O991 O 0.97494 0.32008 0.59887 0.0
O992 O 0.91011 0.31935 0.61091 0.0
O993 O 0.93949 0.31079 0.60979 0.0
Co994 Co 0.09872 0.69374 0.60387 0.0
O995 O 0.09759 0.68451 0.62971 0.0
O996 O 0.10941 0.6687 0.60599 0.0
C997 C 0.10821 0.72374 0.61089 0.0
O998 O 0.10287 0.69725 0.57539 0.0
Co999 Co 0.07535 0.72698 0.58815 0.0
O1000 O 0.08923 0.72331 0.56414 0.0
C1001 C 0.05726 0.69129 0.59932 0.0
C1002 C 0.10485 0.66887 0.62365 0.0
C1003 C 0.09928 0.7087 0.56177 0.0
O1004 O 0.07314 0.68271 0.59905 0.0
O1005 O 0.05564 0.7091 0.59754 0.0
O1006 O 0.12053 0.71022 0.60969 0.0
O1007 O 0.09111 0.71862 0.60857 0.0
Co1008 Co 0.45428 0.34326 0.08779 0.0
O1009 O 0.44491 0.36739 0.09687 0.0
O1010 O 0.42834 0.34134 0.09615 0.0
C1011 C 0.48343 0.34308 0.10134 0.0
O1012 O 0.45812 0.31583 0.07996 0.0
Co1013 Co 0.48908 0.34057 0.06135 0.0
O1014 O 0.48389 0.3131 0.06183 0.0
C1015 C 0.45359 0.35535 0.04685 0.0
C1016 C 0.42867 0.35931 0.09927 0.0
C1017 C 0.46967 0.30598 0.07008 0.0
O1018 O 0.44511 0.3496 0.06174 0.0
O1019 O 0.47149 0.35545 0.04526 0.0
O1020 O 0.46872 0.33814 0.11109 0.0
O1021 O 0.4797 0.3498 0.08505 0.0
Co1022 Co 0.68699 0.45392 0.08731 0.0
O1023 O 0.66281 0.4444 0.09623 0.0
O1024 O 0.68894 0.42793 0.09541 0.0
C1025 C 0.68707 0.4829 0.1012 0.0
O1026 O 0.71449 0.4579 0.07969 0.0
Co1027 Co 0.69011 0.48896 0.06139 0.0
O1028 O 0.7177 0.4845 0.06306 0.0
C1029 C 0.67509 0.45375 0.04635 0.0
C1030 C 0.67094 0.42818 0.09851 0.0
C1031 C 0.7247 0.46996 0.07085 0.0
O1032 O 0.6807 0.44506 0.06115 0.0
O1033 O 0.67527 0.47165 0.04494 0.0
O1034 O 0.692 0.4681 0.1108 0.0
O1035 O 0.68045 0.47935 0.08482 0.0
Co1036 Co 0.5773 0.6867 0.08748 0.0
O1037 O 0.58681 0.66249 0.09617 0.0
O1038 O 0.60327 0.68863 0.09578 0.0
C1039 C 0.54823 0.6864 0.1012 0.0
O1040 O 0.57326 0.71423 0.08009 0.0
Co1041 Co 0.54231 0.68989 0.06143 0.0
O1042 O 0.54639 0.71745 0.0639 0.0
C1043 C 0.57783 0.67551 0.0463 0.0
C1044 C 0.60301 0.67061 0.09867 0.0
C1045 C 0.56101 0.72448 0.07156 0.0
O1046 O 0.5864 0.68078 0.06131 0.0
O1047 O 0.55992 0.67569 0.04473 0.0
O1048 O 0.56293 0.69138 0.11094 0.0
O1049 O 0.55193 0.68006 0.08475 0.0
Co1050 Co 0.34407 0.57669 0.08702 0.0
O1051 O 0.36823 0.58632 0.09577 0.0
O1052 O 0.34196 0.6026 0.09542 0.0
C1053 C 0.34455 0.54761 0.10063 0.0
O1054 O 0.31656 0.57247 0.0796 0.0
Co1055 Co 0.34114 0.54178 0.06085 0.0
O1056 O 0.31353 0.54557 0.06345 0.0
C1057 C 0.35525 0.57742 0.04584 0.0
C1058 C 0.36 0.60245 0.09832 0.0
C1059 C 0.30639 0.56013 0.0711 0.0
O1060 O 0.34995 0.5859 0.0609 0.0
O1061 O 0.35517 0.55954 0.04418 0.0
O1062 O 0.33946 0.56223 0.11043 0.0
O1063 O 0.3509 0.5514 0.08421 0.0
Co1064 Co 0.45534 0.68691 0.94265 0.0
O1065 O 0.4465 0.66262 0.93364 0.0
O1066 O 0.42929 0.68826 0.93427 0.0
C1067 C 0.48446 0.68738 0.92899 0.0
O1068 O 0.45887 0.71443 0.9504 0.0
Co1069 Co 0.49021 0.69025 0.96888 0.0
O1070 O 0.48571 0.71776 0.96664 0.0
C1071 C 0.45486 0.6752 0.9837 0.0
C1072 C 0.43011 0.6703 0.93109 0.0
C1073 C 0.47102 0.72471 0.95906 0.0
O1074 O 0.44629 0.6805 0.96871 0.0
O1075 O 0.47276 0.67562 0.98536 0.0
O1076 O 0.46968 0.69215 0.91928 0.0
O1077 O 0.48085 0.68073 0.94533 0.0
Co1078 Co 0.34407 0.45428 0.94329 0.0
O1079 O 0.36847 0.44545 0.93447 0.0
O1080 O 0.3428 0.42825 0.93488 0.0
C1081 C 0.34374 0.48336 0.92965 0.0
O1082 O 0.31646 0.45781 0.95081 0.0
Co1083 Co 0.34055 0.48915 0.96953 0.0
O1084 O 0.31305 0.48441 0.96746 0.0
C1085 C 0.35596 0.45397 0.98423 0.0
C1086 C 0.3608 0.42908 0.93183 0.0
C1087 C 0.30616 0.46984 0.95963 0.0
O1088 O 0.35029 0.44528 0.96943 0.0
O1089 O 0.35563 0.47186 0.98578 0.0
O1090 O 0.33902 0.46861 0.91988 0.0
O1091 O 0.35022 0.47974 0.94605 0.0
Co1092 Co 0.57676 0.34335 0.94269 0.0
O1093 O 0.58532 0.36771 0.93358 0.0
O1094 O 0.60275 0.34222 0.93412 0.0
C1095 C 0.5475 0.34252 0.92934 0.0
O1096 O 0.57362 0.31582 0.95052 0.0
Co1097 Co 0.54217 0.34001 0.96939 0.0
O1098 O 0.548 0.31267 0.96883 0.0
C1099 C 0.57733 0.3559 0.98344 0.0
C1100 C 0.60177 0.36017 0.93097 0.0
C1101 C 0.5623 0.30579 0.96048 0.0
O1102 O 0.58593 0.34991 0.9687 0.0
O1103 O 0.55944 0.35571 0.98504 0.0
O1104 O 0.56224 0.3379 0.91946 0.0
O1105 O 0.55122 0.34927 0.94561 0.0
Co1106 Co 0.68762 0.57669 0.94265 0.0
O1107 O 0.66354 0.58625 0.93358 0.0
O1108 O 0.68971 0.60264 0.93444 0.0
C1109 C 0.68758 0.54766 0.9289 0.0
O1110 O 0.71504 0.57261 0.95047 0.0
Co1111 Co 0.69037 0.5417 0.96873 0.0
O1112 O 0.718 0.546 0.96711 0.0
C1113 C 0.67516 0.57699 0.98339 0.0
C1114 C 0.67173 0.60242 0.93124 0.0
C1115 C 0.72513 0.5605 0.95937 0.0
O1116 O 0.68122 0.58568 0.96875 0.0
O1117 O 0.67521 0.5591 0.98481 0.0
O1118 O 0.6927 0.56236 0.91925 0.0
O1119 O 0.68094 0.55133 0.94524 0.0
Co1120 Co 0.08806 0.45465 0.34304 0.0
O1121 O 0.0965 0.4456 0.36743 0.0
O1122 O 0.09657 0.42863 0.34162 0.0
C1123 C 0.10162 0.48377 0.34329 0.0
O1124 O 0.08098 0.45861 0.31536 0.0
Co1125 Co 0.06176 0.48954 0.33988 0.0
O1126 O 0.06572 0.48608 0.31241 0.0
C1127 C 0.04676 0.45393 0.35403 0.0
C1128 C 0.09932 0.42931 0.35968 0.0
C1129 C 0.07325 0.4715 0.30522 0.0
O1130 O 0.06185 0.44547 0.34877 0.0
O1131 O 0.04504 0.47181 0.35387 0.0
O1132 O 0.11152 0.46911 0.33851 0.0
O1133 O 0.08515 0.47999 0.34953 0.0
Co1134 Co 0.57686 0.08767 0.34398 0.0
O1135 O 0.58543 0.0968 0.36833 0.0
O1136 O 0.60286 0.09618 0.34282 0.0
C1137 C 0.54764 0.10111 0.34317 0.0
O1138 O 0.57369 0.07979 0.31645 0.0
Co1139 Co 0.54221 0.06108 0.34071 0.0
O1140 O 0.54793 0.0617 0.31334 0.0
C1141 C 0.5775 0.04674 0.35612 0.0
C1142 C 0.60188 0.09937 0.36077 0.0
C1143 C 0.5623 0.0699 0.30643 0.0
O1144 O 0.58601 0.06168 0.35056 0.0
O1145 O 0.55961 0.04506 0.35587 0.0
O1146 O 0.56241 0.11091 0.33851 0.0
O1147 O 0.55131 0.08484 0.34994 0.0
Co1148 Co 0.94407 0.57605 0.34332 0.0
O1149 O 0.93519 0.58563 0.36747 0.0
O1150 O 0.93585 0.60201 0.34131 0.0
C1151 C 0.93023 0.54705 0.34339 0.0
O1152 O 0.95164 0.57194 0.31585 0.0
Co1153 Co 0.97007 0.54102 0.34032 0.0
O1154 O 0.96784 0.54508 0.31272 0.0
C1155 C 0.98512 0.57638 0.35502 0.0
C1156 C 0.93276 0.6018 0.3593 0.0
C1157 C 0.96021 0.55967 0.30565 0.0
O1158 O 0.97026 0.58503 0.34943 0.0
O1159 O 0.98666 0.55849 0.35481 0.0
O1160 O 0.92058 0.5618 0.33844 0.0
O1161 O 0.94663 0.55066 0.34995 0.0
Co1162 Co 0.45492 0.94319 0.3434 0.0
O1163 O 0.44619 0.9341 0.3677 0.0
O1164 O 0.4289 0.93477 0.34211 0.0
C1165 C 0.48405 0.92964 0.3428 0.0
O1166 O 0.45833 0.95102 0.31589 0.0
Co1167 Co 0.48969 0.96957 0.34004 0.0
O1168 O 0.48485 0.96783 0.31255 0.0
C1169 C 0.45446 0.98404 0.35564 0.0
C1170 C 0.42978 0.93157 0.36007 0.0
C1171 C 0.47027 0.96001 0.30564 0.0
O1172 O 0.44586 0.96919 0.35 0.0
O1173 O 0.47236 0.98566 0.35526 0.0
O1174 O 0.4693 0.91989 0.33802 0.0
O1175 O 0.48041 0.94596 0.34948 0.0
Co1176 Co 0.08801 0.57539 0.68657 0.0
O1177 O 0.09684 0.58421 0.66221 0.0
O1178 O 0.0965 0.60138 0.6879 0.0
C1179 C 0.10158 0.54628 0.68691 0.0
O1180 O 0.08052 0.57187 0.71417 0.0
Co1181 Co 0.06164 0.54065 0.69007 0.0
O1182 O 0.06377 0.54533 0.71756 0.0
C1183 C 0.04698 0.57589 0.67481 0.0
C1184 C 0.09955 0.60055 0.66991 0.0
C1185 C 0.07167 0.55986 0.72446 0.0
O1186 O 0.06187 0.5845 0.6804 0.0
O1187 O 0.04534 0.55802 0.67515 0.0
O1188 O 0.11139 0.56102 0.69159 0.0
O1189 O 0.08518 0.54993 0.6804 0.0
Co1190 Co 0.45471 0.08721 0.68754 0.0
O1191 O 0.44601 0.09597 0.66311 0.0
O1192 O 0.42867 0.09569 0.68869 0.0
C1193 C 0.48387 0.10075 0.68803 0.0
O1194 O 0.45815 0.07974 0.71515 0.0
Co1195 Co 0.4895 0.06083 0.69106 0.0
O1196 O 0.48465 0.06286 0.71853 0.0
C1197 C 0.45414 0.04607 0.67611 0.0
C1198 C 0.42959 0.09867 0.67069 0.0
C1199 C 0.47012 0.0708 0.72542 0.0
O1200 O 0.4456 0.0611 0.68137 0.0
O1201 O 0.47203 0.04438 0.67643 0.0
O1202 O 0.46909 0.11057 0.69262 0.0
O1203 O 0.48023 0.08438 0.68148 0.0
Co1204 Co 0.94287 0.45434 0.6878 0.0
O1205 O 0.93392 0.44527 0.66361 0.0
O1206 O 0.93438 0.42834 0.68944 0.0
C1207 C 0.92933 0.48348 0.68787 0.0
O1208 O 0.95055 0.45834 0.71532 0.0
Co1209 Co 0.96929 0.48917 0.69032 0.0
O1210 O 0.96621 0.4856 0.71789 0.0
C1211 C 0.98396 0.4535 0.67601 0.0
C1212 C 0.93126 0.42899 0.67145 0.0
C1213 C 0.95874 0.47109 0.72527 0.0
O1214 O 0.96893 0.44511 0.68155 0.0
O1215 O 0.98572 0.47137 0.67606 0.0
O1216 O 0.91952 0.46882 0.69282 0.0
O1217 O 0.94564 0.47968 0.68122 0.0
Co1218 Co 0.57707 0.94295 0.68768 0.0
O1219 O 0.58674 0.93429 0.66352 0.0
O1220 O 0.60312 0.93478 0.6897 0.0
C1221 C 0.54809 0.92906 0.68731 0.0
O1222 O 0.5726 0.95033 0.7152 0.0
Co1223 Co 0.54185 0.96885 0.69004 0.0
O1224 O 0.54512 0.96566 0.71764 0.0
C1225 C 0.57746 0.98402 0.67607 0.0
C1226 C 0.60292 0.93183 0.67168 0.0
C1227 C 0.55966 0.95829 0.7251 0.0
O1228 O 0.58605 0.96919 0.6818 0.0
O1229 O 0.55955 0.98552 0.67594 0.0
O1230 O 0.56283 0.91941 0.69232 0.0
O1231 O 0.55175 0.94544 0.68079 0.0
Co1232 Co 0.34391 0.08738 0.45454 0.0
O1233 O 0.36829 0.0963 0.44577 0.0
O1234 O 0.34267 0.09585 0.42852 0.0
C1235 C 0.34337 0.1009 0.4837 0.0
O1236 O 0.31631 0.07977 0.45801 0.0
Co1237 Co 0.34048 0.06097 0.48927 0.0
O1238 O 0.31297 0.0629 0.48449 0.0
C1239 C 0.35601 0.04649 0.45405 0.0
C1240 C 0.36066 0.09893 0.42938 0.0
C1241 C 0.30605 0.07083 0.46998 0.0
O1242 O 0.35026 0.06131 0.44544 0.0
O1243 O 0.35567 0.04487 0.47193 0.0
O1244 O 0.33871 0.11071 0.46895 0.0
O1245 O 0.35 0.08456 0.48003 0.0
Co1246 Co 0.34445 0.94317 0.57578 0.0
O1247 O 0.36883 0.93428 0.58452 0.0
O1248 O 0.34318 0.93465 0.60177 0.0
C1249 C 0.34395 0.92965 0.54664 0.0
O1250 O 0.31687 0.95073 0.5723 0.0
Co1251 Co 0.34102 0.96959 0.54106 0.0
O1252 O 0.31351 0.96759 0.54582 0.0
C1253 C 0.35622 0.98417 0.57638 0.0
C1254 C 0.36118 0.93157 0.60089 0.0
C1255 C 0.3066 0.95966 0.56034 0.0
O1256 O 0.35068 0.96925 0.58493 0.0
O1257 O 0.35589 0.98586 0.5585 0.0
O1258 O 0.33931 0.91984 0.56139 0.0
O1259 O 0.35056 0.946 0.55029 0.0
Co1260 Co 0.08675 0.34289 0.57632 0.0
O1261 O 0.09549 0.36712 0.58572 0.0
O1262 O 0.09557 0.34096 0.6021 0.0
C1263 C 0.0999 0.34334 0.547 0.0
O1264 O 0.07945 0.31533 0.5723 0.0
Co1265 Co 0.06002 0.33969 0.54182 0.0
O1266 O 0.06273 0.31214 0.54575 0.0
C1267 C 0.04575 0.35448 0.57749 0.0
C1268 C 0.09836 0.35899 0.60184 0.0
C1269 C 0.07076 0.30509 0.56015 0.0
O1270 O 0.06068 0.34869 0.58588 0.0
O1271 O 0.04395 0.3544 0.55962 0.0
O1272 O 0.10997 0.33838 0.56147 0.0
O1273 O 0.08349 0.34958 0.55105 0.0
Co1274 Co 0.68772 0.08774 0.5768 0.0
O1275 O 0.66327 0.09673 0.5853 0.0
O1276 O 0.68876 0.09635 0.60276 0.0
C1277 C 0.68852 0.10105 0.54755 0.0
O1278 O 0.71531 0.08 0.5737 0.0
Co1279 Co 0.69121 0.06101 0.54227 0.0
O1280 O 0.71856 0.06164 0.54815 0.0
C1281 C 0.67574 0.04678 0.57755 0.0
C1282 C 0.67077 0.0994 0.60175 0.0
C1283 C 0.72539 0.07002 0.56243 0.0
O1284 O 0.68128 0.06174 0.58602 0.0
O1285 O 0.67597 0.04507 0.55967 0.0
O1286 O 0.69308 0.11095 0.56228 0.0
O1287 O 0.68183 0.08476 0.55127 0.0
Co1288 Co 0.94386 0.68636 0.57543 0.0
O1289 O 0.93496 0.66204 0.5843 0.0
O1290 O 0.93545 0.68771 0.60146 0.0
C1291 C 0.93024 0.6868 0.54633 0.0
O1292 O 0.95148 0.7139 0.57187 0.0
Co1293 Co 0.97019 0.68971 0.54061 0.0
O1294 O 0.96822 0.71721 0.5453 0.0
C1295 C 0.98503 0.67484 0.57597 0.0
C1296 C 0.93236 0.66974 0.60067 0.0
C1297 C 0.96038 0.72413 0.55986 0.0
O1298 O 0.96997 0.68009 0.5845 0.0
O1299 O 0.98673 0.67519 0.55809 0.0
O1300 O 0.92048 0.6915 0.56111 0.0
O1301 O 0.94661 0.68019 0.54994 0.0
Co1302 Co 0.68713 0.94299 0.45445 0.0
O1303 O 0.66279 0.93424 0.44542 0.0
O1304 O 0.68861 0.9346 0.42843 0.0
C1305 C 0.68731 0.92939 0.48358 0.0
O1306 O 0.71472 0.95041 0.45815 0.0
Co1307 Co 0.69046 0.96927 0.48929 0.0
O1308 O 0.71799 0.96722 0.48468 0.0
C1309 C 0.67578 0.98415 0.45388 0.0
C1310 C 0.67059 0.93162 0.4291 0.0
C1311 C 0.72495 0.95929 0.47018 0.0
O1312 O 0.68106 0.96912 0.44535 0.0
O1313 O 0.676 0.9858 0.47177 0.0
O1314 O 0.69204 0.9196 0.46883 0.0
O1315 O 0.68081 0.94578 0.47992 0.0
Co1316 Co 0.08855 0.68707 0.45437 0.0
O1317 O 0.09735 0.66285 0.44521 0.0
O1318 O 0.09691 0.68868 0.4283 0.0
C1319 C 0.10225 0.68707 0.48344 0.0
O1320 O 0.081 0.7146 0.45848 0.0
Co1321 Co 0.0623 0.68955 0.48936 0.0
O1322 O 0.06551 0.7171 0.48587 0.0
C1323 C 0.04732 0.67562 0.45367 0.0
C1324 C 0.09995 0.67068 0.42892 0.0
C1325 C 0.07293 0.72452 0.47134 0.0
O1326 O 0.0624 0.68099 0.44525 0.0
O1327 O 0.04561 0.67563 0.47155 0.0
O1328 O 0.11199 0.69197 0.46872 0.0
O1329 O 0.0859 0.68047 0.47973 0.0
Co1330 Co 0.94318 0.34361 0.45534 0.0
O1331 O 0.93477 0.36805 0.44638 0.0
O1332 O 0.93459 0.34231 0.42932 0.0
C1333 C 0.92965 0.34381 0.4845 0.0
O1334 O 0.95018 0.3159 0.45923 0.0
Co1335 Co 0.96952 0.34031 0.49019 0.0
O1336 O 0.96547 0.31288 0.48668 0.0
C1337 C 0.9844 0.35476 0.45464 0.0
C1338 C 0.93187 0.36035 0.43007 0.0
C1339 C 0.95789 0.30572 0.4721 0.0
O1340 O 0.96941 0.34929 0.44613 0.0
O1341 O 0.98611 0.35454 0.47252 0.0
O1342 O 0.91972 0.33911 0.46984 0.0
O1343 O 0.94613 0.35002 0.48071 0.0
C1344 C 0.15557 0.15319 0.43027 0.0
C1345 C 0.13631 0.15255 0.42565 0.0
C1346 C 0.16662 0.13674 0.43131 0.0
C1347 C 0.15892 0.11877 0.428 0.0
H1348 H 0.16213 0.1665 0.43356 0.0
H1349 H 0.18119 0.1381 0.43544 0.0
S1350 S 0.10947 0.1092 0.41438 0.0
N1351 N 0.1103 0.13222 0.41681 0.0
N1352 N 0.13086 0.10157 0.41902 0.0
C1353 C 0.13982 0.11797 0.42282 0.0
C1354 C 0.12861 0.13473 0.42157 0.0
C1355 C 0.87762 0.15488 0.43026 0.0
C1356 C 0.87853 0.13554 0.42613 0.0
C1357 C 0.89395 0.16612 0.43128 0.0
C1358 C 0.91206 0.15854 0.42844 0.0
H1359 H 0.86418 0.16138 0.43318 0.0
H1360 H 0.89236 0.18076 0.43504 0.0
S1361 S 0.92236 0.10892 0.41615 0.0
N1362 N 0.89927 0.10957 0.41821 0.0
N1363 N 0.92971 0.13048 0.42039 0.0
C1364 C 0.91314 0.13935 0.42372 0.0
C1365 C 0.89651 0.12795 0.42249 0.0
C1366 C 0.86474 0.89363 0.43096 0.0
C1367 C 0.87231 0.91166 0.42776 0.0
C1368 C 0.87591 0.87726 0.42983 0.0
C1369 C 0.89518 0.87808 0.42523 0.0
H1370 H 0.85017 0.89213 0.43509 0.0
H1371 H 0.86944 0.86389 0.43305 0.0
S1372 S 0.92168 0.92167 0.41413 0.0
N1373 N 0.90023 0.92912 0.41884 0.0
N1374 N 0.92102 0.89863 0.41646 0.0
C1375 C 0.90273 0.89597 0.42123 0.0
C1376 C 0.8914 0.91263 0.42257 0.0
C1377 C 0.11955 0.88956 0.42422 0.0
C1378 C 0.12055 0.87011 0.42779 0.0
C1379 C 0.13586 0.9008 0.42302 0.0
C1380 C 0.15401 0.89322 0.42556 0.0
H1381 H 0.106 0.89631 0.42279 0.0
H1382 H 0.13414 0.91573 0.42076 0.0
S1383 S 0.16471 0.84291 0.43408 0.0
N1384 N 0.14156 0.84364 0.43283 0.0
N1385 N 0.17192 0.86469 0.43085 0.0
C1386 C 0.15526 0.8737 0.42853 0.0
C1387 C 0.13867 0.86221 0.42955 0.0
C1388 C 0.14164 0.91067 0.6065 0.0
C1389 C 0.16101 0.90995 0.60237 0.0
C1390 C 0.13059 0.89424 0.60766 0.0
C1391 C 0.1383 0.87625 0.6045 0.0
H1392 H 0.13478 0.9241 0.60845 0.0
H1393 H 0.1157 0.89576 0.6104 0.0
S1394 S 0.18847 0.86631 0.59411 0.0
N1395 N 0.18754 0.88939 0.59596 0.0
N1396 N 0.16686 0.85879 0.59787 0.0
C1397 C 0.15775 0.87527 0.60091 0.0
C1398 C 0.16904 0.89199 0.59992 0.0
C1399 C 0.13712 0.16579 0.59912 0.0
C1400 C 0.11912 0.15825 0.60266 0.0
C1401 C 0.15354 0.15467 0.60019 0.0
C1402 C 0.15282 0.1355 0.6051 0.0
H1403 H 0.13854 0.18028 0.59475 0.0
H1404 H 0.16687 0.1611 0.59669 0.0
S1405 S 0.10937 0.10915 0.61721 0.0
N1406 N 0.10182 0.13048 0.61226 0.0
N1407 N 0.1324 0.1098 0.61456 0.0
C1408 C 0.13498 0.128 0.60946 0.0
C1409 C 0.11826 0.13927 0.60817 0.0
C1410 C 0.87531 0.15306 0.60112 0.0
C1411 C 0.89461 0.15237 0.60556 0.0
C1412 C 0.86424 0.13662 0.60005 0.0
C1413 C 0.87198 0.11864 0.60316 0.0
H1414 H 0.86872 0.1664 0.59798 0.0
H1415 H 0.84963 0.13801 0.59606 0.0
S1416 S 0.92153 0.10895 0.61634 0.0
N1417 N 0.92068 0.13199 0.61406 0.0
N1418 N 0.9001 0.10136 0.61181 0.0
C1419 C 0.89111 0.11779 0.60819 0.0
C1420 C 0.90233 0.13453 0.60946 0.0
C1421 C 0.91243 0.88921 0.60643 0.0
C1422 C 0.91158 0.86986 0.60229 0.0
C1423 C 0.89604 0.90032 0.60774 0.0
C1424 C 0.87797 0.89272 0.60473 0.0
H1425 H 0.92592 0.89598 0.60826 0.0
H1426 H 0.89765 0.91518 0.61048 0.0
S1427 S 0.86769 0.84266 0.59439 0.0
N1428 N 0.89081 0.84347 0.59604 0.0
N1429 N 0.8603 0.86428 0.59823 0.0
C1430 C 0.87687 0.87329 0.60113 0.0
C1431 C 0.89354 0.86193 0.59999 0.0
C1432 C 0.42343 0.1301 0.13561 0.0
C1433 C 0.42649 0.13763 0.15369 0.0
C1434 C 0.42459 0.1413 0.11929 0.0
C1435 C 0.42865 0.16066 0.1202 0.0
H1436 H 0.42074 0.11523 0.13393 0.0
H1437 H 0.42272 0.13457 0.10578 0.0
S1438 S 0.43665 0.18769 0.16414 0.0
N1439 N 0.43294 0.16602 0.17145 0.0
N1440 N 0.43489 0.18698 0.14104 0.0
C1441 C 0.43101 0.16852 0.13825 0.0
C1442 C 0.43 0.15707 0.15486 0.0
C1443 C 0.90077 0.42248 0.13617 0.0
C1444 C 0.89312 0.42581 0.15416 0.0
C1445 C 0.88972 0.42363 0.11973 0.0
C1446 C 0.87038 0.42793 0.12045 0.0
H1447 H 0.91564 0.41961 0.13465 0.0
H1448 H 0.89653 0.42155 0.1063 0.0
S1449 S 0.84305 0.43669 0.1641 0.0
N1450 N 0.86464 0.4328 0.17162 0.0
N1451 N 0.84394 0.43469 0.14103 0.0
C1452 C 0.86239 0.43055 0.13842 0.0
C1453 C 0.8737 0.42957 0.15514 0.0
C1454 C 0.60163 0.87517 0.15275 0.0
C1455 C 0.6061 0.89444 0.15194 0.0
C1456 C 0.6006 0.864 0.13638 0.0
C1457 C 0.60379 0.87157 0.11833 0.0
H1458 H 0.59843 0.86869 0.16612 0.0
H1459 H 0.59657 0.84942 0.13787 0.0
S1460 S 0.61719 0.92095 0.10834 0.0
N1461 N 0.61479 0.9203 0.13138 0.0
N1462 N 0.61262 0.8995 0.10088 0.0
C1463 C 0.60888 0.89067 0.11737 0.0
C1464 C 0.6101 0.90201 0.13404 0.0
C1465 C 0.15612 0.6004 0.15266 0.0
C1466 C 0.13682 0.60488 0.152 0.0
C1467 C 0.16717 0.59935 0.13621 0.0
C1468 C 0.15944 0.60251 0.11822 0.0
H1469 H 0.1627 0.59722 0.16599 0.0
H1470 H 0.18177 0.59532 0.13759 0.0
S1471 S 0.10991 0.6158 0.1086 0.0
N1472 N 0.11076 0.61348 0.13164 0.0
N1473 N 0.13134 0.61125 0.10098 0.0
C1474 C 0.14032 0.60758 0.1174 0.0
C1475 C 0.1291 0.60883 0.13416 0.0
C1476 C 0.42423 0.90104 0.89469 0.0
C1477 C 0.42712 0.89335 0.87664 0.0
C1478 C 0.42539 0.88995 0.91109 0.0
C1479 C 0.42925 0.87054 0.91028 0.0
H1480 H 0.42172 0.91595 0.89626 0.0
H1481 H 0.42368 0.89678 0.92456 0.0
S1482 S 0.43655 0.8431 0.86645 0.0
N1483 N 0.4331 0.86477 0.85903 0.0
N1484 N 0.43497 0.84399 0.88956 0.0
C1485 C 0.43137 0.86252 0.89226 0.0
C1486 C 0.4304 0.87387 0.87558 0.0
C1487 C 0.12965 0.4225 0.89513 0.0
C1488 C 0.13727 0.42545 0.87707 0.0
C1489 C 0.14079 0.42374 0.9115 0.0
C1490 C 0.16017 0.42779 0.91063 0.0
H1491 H 0.11476 0.41984 0.89675 0.0
H1492 H 0.134 0.42196 0.92499 0.0
S1493 S 0.18744 0.4355 0.86676 0.0
N1494 N 0.16578 0.43177 0.85939 0.0
N1495 N 0.18662 0.43387 0.88986 0.0
C1496 C 0.16813 0.43003 0.8926 0.0
C1497 C 0.15674 0.42894 0.87595 0.0
C1498 C 0.60046 0.1554 0.8776 0.0
C1499 C 0.605 0.13613 0.87833 0.0
C1500 C 0.59946 0.16653 0.894 0.0
C1501 C 0.60271 0.15892 0.91201 0.0
H1502 H 0.59722 0.1619 0.86425 0.0
H1503 H 0.5954 0.18111 0.89256 0.0
S1504 S 0.61613 0.10951 0.92183 0.0
N1505 N 0.61372 0.11022 0.89879 0.0
N1506 N 0.61157 0.13094 0.92936 0.0
C1507 C 0.60781 0.13982 0.9129 0.0
C1508 C 0.60903 0.12852 0.89619 0.0
C1509 C 0.89042 0.60569 0.91126 0.0
C1510 C 0.87098 0.60189 0.91052 0.0
C1511 C 0.90146 0.60691 0.89482 0.0
C1512 C 0.89369 0.60418 0.87679 0.0
H1513 H 0.89732 0.60729 0.92472 0.0
H1514 H 0.9164 0.60937 0.89636 0.0
S1515 S 0.84332 0.59496 0.86676 0.0
N1516 N 0.84431 0.59638 0.88988 0.0
N1517 N 0.865 0.5984 0.85926 0.0
C1518 C 0.87417 0.60096 0.87579 0.0
C1519 C 0.86288 0.5999 0.89252 0.0
C1520 C 0.15336 0.42972 0.15458 0.0
C1521 C 0.15251 0.42551 0.13524 0.0
C1522 C 0.137 0.43073 0.16577 0.0
C1523 C 0.11891 0.42781 0.15816 0.0
H1524 H 0.16677 0.43271 0.1611 0.0
H1525 H 0.13854 0.43454 0.18041 0.0
S1526 S 0.10878 0.41532 0.10855 0.0
N1527 N 0.13187 0.41745 0.10924 0.0
N1528 N 0.10136 0.41961 0.13009 0.0
C1529 C 0.1179 0.42302 0.13898 0.0
C1530 C 0.13457 0.4218 0.12762 0.0
C1531 C 0.13753 0.59902 0.86389 0.0
C1532 C 0.11953 0.60245 0.87149 0.0
C1533 C 0.15394 0.60002 0.87502 0.0
C1534 C 0.15322 0.60473 0.89425 0.0
H1535 H 0.13895 0.5948 0.84935 0.0
H1536 H 0.16728 0.59662 0.86854 0.0
S1537 S 0.10976 0.61647 0.92077 0.0
N1538 N 0.1022 0.61173 0.89938 0.0
N1539 N 0.13279 0.61388 0.92008 0.0
C1540 C 0.13537 0.60897 0.90182 0.0
C1541 C 0.11865 0.60776 0.89054 0.0
C1542 C 0.43106 0.13662 0.86475 0.0
C1543 C 0.42775 0.11863 0.87241 0.0
C1544 C 0.42999 0.15304 0.87583 0.0
C1545 C 0.42536 0.15236 0.89508 0.0
H1546 H 0.43521 0.13801 0.85019 0.0
H1547 H 0.43328 0.16637 0.8693 0.0
S1548 S 0.41402 0.10896 0.92179 0.0
N1549 N 0.41872 0.10137 0.90039 0.0
N1550 N 0.41646 0.13198 0.92101 0.0
C1551 C 0.42127 0.13452 0.90273 0.0
C1552 C 0.42254 0.11779 0.89148 0.0
C1553 C 0.89565 0.42254 0.90145 0.0
C1554 C 0.87753 0.42534 0.89388 0.0
C1555 C 0.91198 0.4237 0.89022 0.0
C1556 C 0.91104 0.42749 0.8708 0.0
H1557 H 0.89734 0.42007 0.91636 0.0
H1558 H 0.92552 0.42204 0.89696 0.0
S1559 S 0.86699 0.43468 0.84367 0.0
N1560 N 0.85971 0.43123 0.8654 0.0
N1561 N 0.89012 0.43315 0.84439 0.0
C1562 C 0.89295 0.42957 0.86292 0.0
C1563 C 0.87634 0.42857 0.87439 0.0
C1564 C 0.60107 0.8943 0.86411 0.0
C1565 C 0.60395 0.91236 0.87176 0.0
C1566 C 0.6021 0.87794 0.87527 0.0
C1567 C 0.60626 0.87876 0.89462 0.0
H1568 H 0.59729 0.89278 0.84946 0.0
H1569 H 0.59916 0.86455 0.8687 0.0
S1570 S 0.61635 0.9224 0.92143 0.0
N1571 N 0.61208 0.92985 0.8999 0.0
N1572 N 0.61424 0.89934 0.92068 0.0
C1573 C 0.60993 0.89667 0.90229 0.0
C1574 C 0.60871 0.91334 0.89096 0.0
C1575 C 0.91265 0.6063 0.14047 0.0
C1576 C 0.91176 0.60234 0.15985 0.0
C1577 C 0.89629 0.60749 0.1293 0.0
C1578 C 0.87821 0.60455 0.1369 0.0
H1579 H 0.92616 0.60806 0.1337 0.0
H1580 H 0.89794 0.61009 0.11441 0.0
S1581 S 0.86781 0.59472 0.18706 0.0
N1582 N 0.89093 0.59636 0.18628 0.0
N1583 N 0.86047 0.59835 0.16538 0.0
C1584 C 0.87706 0.60116 0.15637 0.0
C1585 C 0.8937 0.60013 0.16778 0.0
C1586 C 0.424 0.89574 0.1289 0.0
C1587 C 0.42683 0.87769 0.13656 0.0
C1588 C 0.42518 0.91212 0.14004 0.0
C1589 C 0.42903 0.91128 0.15945 0.0
H1590 H 0.42147 0.89735 0.11399 0.0
H1591 H 0.42348 0.9256 0.13323 0.0
S1592 S 0.43641 0.86743 0.18679 0.0
N1593 N 0.43287 0.86004 0.16511 0.0
N1594 N 0.43484 0.89053 0.18594 0.0
C1595 C 0.43117 0.89325 0.16742 0.0
C1596 C 0.43015 0.8766 0.15604 0.0
C1597 C 0.6011 0.15292 0.15614 0.0
C1598 C 0.60568 0.15211 0.13687 0.0
C1599 C 0.60013 0.13657 0.16734 0.0
C1600 C 0.6035 0.11855 0.1598 0.0
H1601 H 0.59776 0.16628 0.16258 0.0
H1602 H 0.596 0.13805 0.1819 0.0
S1603 S 0.61719 0.10856 0.11046 0.0
N1604 N 0.61463 0.13157 0.11107 0.0
N1605 N 0.61257 0.10112 0.13192 0.0
C1606 C 0.60868 0.11759 0.14072 0.0
C1607 C 0.60984 0.13424 0.12935 0.0
C1608 C 0.64131 0.6194 0.92382 0.0
C1609 C 0.66075 0.62015 0.92765 0.0
C1610 C 0.63026 0.63583 0.92264 0.0
C1611 C 0.63802 0.65385 0.92547 0.0
H1612 H 0.63442 0.60595 0.92217 0.0
H1613 H 0.61532 0.6343 0.92017 0.0
S1614 S 0.68837 0.66389 0.93477 0.0
N1615 N 0.6874 0.64079 0.93327 0.0
N1616 N 0.66669 0.67137 0.93133 0.0
C1617 C 0.65753 0.65485 0.92871 0.0
C1618 C 0.66883 0.63814 0.92971 0.0
C1619 C 0.39473 0.66642 0.93053 0.0
C1620 C 0.41276 0.65882 0.92726 0.0
C1621 C 0.37832 0.6553 0.92942 0.0
C1622 C 0.37908 0.63606 0.92479 0.0
H1623 H 0.39327 0.68096 0.93468 0.0
H1624 H 0.36495 0.66179 0.93268 0.0
S1625 S 0.42264 0.6095 0.91352 0.0
N1626 N 0.43015 0.6309 0.91824 0.0
N1627 N 0.39958 0.6102 0.91592 0.0
C1628 C 0.39697 0.62847 0.92074 0.0
C1629 C 0.41368 0.63976 0.92204 0.0
C1630 C 0.37584 0.37734 0.93025 0.0
C1631 C 0.39512 0.37809 0.92572 0.0
C1632 C 0.3647 0.39373 0.93128 0.0
C1633 C 0.37233 0.41174 0.92806 0.0
H1634 H 0.36932 0.364 0.93348 0.0
H1635 H 0.35011 0.39228 0.93535 0.0
S1636 S 0.42177 0.42157 0.91455 0.0
N1637 N 0.42105 0.39854 0.91696 0.0
N1638 N 0.40032 0.4291 0.91917 0.0
C1639 C 0.39144 0.41264 0.92293 0.0
C1640 C 0.40274 0.39594 0.92169 0.0
C1641 C 0.63712 0.36425 0.93042 0.0
C1642 C 0.61905 0.37179 0.92722 0.0
C1643 C 0.65347 0.37546 0.92948 0.0
C1644 C 0.65263 0.39474 0.92507 0.0
H1645 H 0.63865 0.34967 0.93441 0.0
H1646 H 0.66686 0.369 0.93269 0.0
S1647 S 0.60896 0.42122 0.91408 0.0
N1648 N 0.60154 0.39973 0.91852 0.0
N1649 N 0.63202 0.4206 0.91648 0.0
C1650 C 0.63471 0.40228 0.92106 0.0
C1651 C 0.61805 0.3909 0.92221 0.0
C1652 C 0.62943 0.39479 0.10718 0.0
C1653 C 0.63712 0.37678 0.10411 0.0
C1654 C 0.64051 0.41121 0.10603 0.0
C1655 C 0.6599 0.41046 0.10197 0.0
H1656 H 0.61453 0.39634 0.10986 0.0
H1657 H 0.63368 0.42466 0.10791 0.0
S1658 S 0.68732 0.36674 0.09396 0.0
N1659 N 0.66568 0.35927 0.09765 0.0
N1660 N 0.68642 0.38982 0.09574 0.0
C1661 C 0.66791 0.39247 0.0996 0.0
C1662 C 0.65658 0.37577 0.10059 0.0
C1663 C 0.63625 0.62904 0.10739 0.0
C1664 C 0.6543 0.63662 0.10424 0.0
C1665 C 0.61987 0.64019 0.10624 0.0
C1666 C 0.62071 0.65954 0.10214 0.0
H1667 H 0.63464 0.61417 0.1101 0.0
H1668 H 0.60637 0.63343 0.10817 0.0
S1669 S 0.66458 0.68668 0.09393 0.0
N1670 N 0.67196 0.66504 0.09766 0.0
N1671 N 0.64147 0.68591 0.09578 0.0
C1672 C 0.63875 0.66745 0.09971 0.0
C1673 C 0.6554 0.65605 0.10068 0.0
C1674 C 0.3903 0.61939 0.10622 0.0
C1675 C 0.37098 0.62018 0.10186 0.0
C1676 C 0.4014 0.63578 0.10746 0.0
C1677 C 0.39382 0.65379 0.10414 0.0
H1678 H 0.39706 0.60594 0.10829 0.0
H1679 H 0.41625 0.63421 0.11038 0.0
S1680 S 0.34383 0.6639 0.09312 0.0
N1681 N 0.34463 0.64083 0.09507 0.0
N1682 N 0.36542 0.67135 0.09711 0.0
C1683 C 0.37441 0.65484 0.10032 0.0
C1684 C 0.36305 0.63817 0.09926 0.0
C1685 C 0.41186 0.38978 0.10679 0.0
C1686 C 0.41099 0.37041 0.10282 0.0
C1687 C 0.3955 0.40095 0.10795 0.0
C1688 C 0.37742 0.39335 0.10497 0.0
H1689 H 0.42537 0.39655 0.10858 0.0
H1690 H 0.39713 0.41583 0.11055 0.0
S1691 S 0.36706 0.34322 0.09512 0.0
N1692 N 0.39017 0.344 0.0968 0.0
N1693 N 0.3597 0.36489 0.09872 0.0
C1694 C 0.37629 0.3739 0.10156 0.0
C1695 C 0.39293 0.36248 0.10057 0.0
C1696 C 0.9318 0.66593 0.63604 0.0
C1697 C 0.92859 0.65827 0.61804 0.0
C1698 C 0.93073 0.65486 0.65247 0.0
C1699 C 0.92619 0.6356 0.65176 0.0
H1700 H 0.93588 0.6805 0.63746 0.0
H1701 H 0.93395 0.6614 0.66581 0.0
S1702 S 0.91511 0.60885 0.60829 0.0
N1703 N 0.91973 0.63026 0.60073 0.0
N1704 N 0.91747 0.60964 0.63134 0.0
C1705 C 0.92219 0.62794 0.6339 0.0
C1706 C 0.92346 0.63918 0.61717 0.0
C1707 C 0.36513 0.93075 0.63623 0.0
C1708 C 0.37272 0.92766 0.61817 0.0
C1709 C 0.3763 0.92959 0.65259 0.0
C1710 C 0.39559 0.92508 0.65174 0.0
H1711 H 0.35055 0.93481 0.63775 0.0
H1712 H 0.36982 0.93272 0.66598 0.0
S1713 S 0.42213 0.91421 0.60808 0.0
N1714 N 0.40066 0.91889 0.60065 0.0
N1715 N 0.42146 0.91646 0.63114 0.0
C1716 C 0.40316 0.92118 0.63383 0.0
C1717 C 0.39182 0.92253 0.61717 0.0
C1718 C 0.1069 0.40064 0.63501 0.0
C1719 C 0.10455 0.39289 0.6531 0.0
C1720 C 0.10559 0.38954 0.61862 0.0
C1721 C 0.10211 0.37006 0.61949 0.0
H1722 H 0.10907 0.4156 0.63341 0.0
H1723 H 0.10685 0.39642 0.60513 0.0
S1724 S 0.09639 0.34245 0.66343 0.0
N1725 N 0.09957 0.36418 0.6708 0.0
N1726 N 0.09741 0.34339 0.64029 0.0
C1727 C 0.10056 0.36199 0.63754 0.0
C1728 C 0.10169 0.37334 0.65421 0.0
C1729 C 0.65549 0.10122 0.65343 0.0
C1730 C 0.6361 0.10525 0.65256 0.0
C1731 C 0.66671 0.10027 0.63708 0.0
C1732 C 0.65908 0.10311 0.619 0.0
H1733 H 0.66203 0.09832 0.66684 0.0
H1734 H 0.68138 0.09659 0.63864 0.0
S1735 S 0.60933 0.11515 0.60883 0.0
N1736 N 0.61003 0.11305 0.6319 0.0
N1737 N 0.63093 0.11103 0.60143 0.0
C1738 C 0.63985 0.10773 0.61797 0.0
C1739 C 0.62845 0.10886 0.63462 0.0
C1740 C 0.93107 0.36426 0.39469 0.0
C1741 C 0.9281 0.37189 0.41275 0.0
C1742 C 0.93001 0.37542 0.37831 0.0
C1743 C 0.92571 0.39474 0.37913 0.0
H1744 H 0.93496 0.34965 0.39319 0.0
H1745 H 0.93304 0.3689 0.36492 0.0
S1746 S 0.91524 0.42143 0.42279 0.0
N1747 N 0.91968 0.39994 0.43023 0.0
N1748 N 0.91744 0.42071 0.39973 0.0
C1749 C 0.92193 0.40237 0.39705 0.0
C1750 C 0.92319 0.39104 0.41372 0.0
C1751 C 0.66692 0.93147 0.39372 0.0
C1752 C 0.65921 0.92796 0.41165 0.0
C1753 C 0.6559 0.93053 0.37724 0.0
C1754 C 0.63666 0.92581 0.37782 0.0
H1755 H 0.68148 0.93569 0.3924 0.0
H1756 H 0.66247 0.93398 0.36396 0.0
S1757 S 0.60983 0.91396 0.42105 0.0
N1758 N 0.63119 0.91866 0.42875 0.0
N1759 N 0.61068 0.91661 0.39804 0.0
C1760 C 0.62897 0.92151 0.3956 0.0
C1761 C 0.64015 0.92267 0.41238 0.0
C1762 C 0.10029 0.66688 0.39351 0.0
C1763 C 0.1037 0.65927 0.41149 0.0
C1764 C 0.10132 0.65578 0.37708 0.0
C1765 C 0.106 0.63655 0.37778 0.0
H1766 H 0.09609 0.68142 0.39212 0.0
H1767 H 0.09795 0.66226 0.36375 0.0
S1768 S 0.11761 0.60997 0.4212 0.0
N1769 N 0.1129 0.63136 0.42877 0.0
N1770 N 0.11506 0.61069 0.39818 0.0
C1771 C 0.11019 0.62896 0.39562 0.0
C1772 C 0.10898 0.64022 0.41234 0.0
C1773 C 0.37582 0.10041 0.37765 0.0
C1774 C 0.39509 0.10498 0.37842 0.0
C1775 C 0.36465 0.09941 0.39403 0.0
C1776 C 0.37222 0.1027 0.41205 0.0
H1777 H 0.36935 0.09711 0.36429 0.0
H1778 H 0.35007 0.0953 0.39255 0.0
S1779 S 0.42161 0.1163 0.42195 0.0
N1780 N 0.42095 0.11384 0.39892 0.0
N1781 N 0.40016 0.11168 0.42945 0.0
C1782 C 0.39132 0.10787 0.41298 0.0
C1783 C 0.40265 0.10909 0.39629 0.0
C1784 C 0.61969 0.92439 0.64117 0.0
C1785 C 0.6206 0.92828 0.66058 0.0
C1786 C 0.63604 0.9232 0.62997 0.0
C1787 C 0.65413 0.92607 0.63755 0.0
H1788 H 0.60618 0.92269 0.63441 0.0
H1789 H 0.63437 0.92068 0.61507 0.0
S1790 S 0.6646 0.93556 0.68776 0.0
N1791 N 0.64147 0.93402 0.687 0.0
N1792 N 0.67191 0.93206 0.66604 0.0
C1793 C 0.6553 0.92937 0.65703 0.0
C1794 C 0.63867 0.93039 0.66849 0.0
C1795 C 0.65359 0.10098 0.37598 0.0
C1796 C 0.65276 0.10534 0.39528 0.0
C1797 C 0.63723 0.1 0.36479 0.0
C1798 C 0.61917 0.10313 0.37238 0.0
H1799 H 0.66698 0.09783 0.36948 0.0
H1800 H 0.63875 0.09605 0.35019 0.0
S1801 S 0.60911 0.11615 0.42188 0.0
N1802 N 0.63217 0.11381 0.42122 0.0
N1803 N 0.60167 0.11172 0.40038 0.0
C1804 C 0.61818 0.10809 0.39152 0.0
C1805 C 0.63485 0.10927 0.40288 0.0
C1806 C 0.92543 0.61876 0.38975 0.0
C1807 C 0.92913 0.61952 0.3703 0.0
C1808 C 0.92416 0.63519 0.40079 0.0
C1809 C 0.92675 0.65322 0.393 0.0
H1810 H 0.92395 0.60531 0.39666 0.0
H1811 H 0.92179 0.63366 0.41573 0.0
S1812 S 0.93562 0.66328 0.3426 0.0
N1813 N 0.93436 0.64017 0.3436 0.0
N1814 N 0.93225 0.67076 0.36427 0.0
C1815 C 0.92985 0.65423 0.37347 0.0
C1816 C 0.93095 0.63751 0.36219 0.0
C1817 C 0.39442 0.93106 0.36401 0.0
C1818 C 0.41245 0.92781 0.37161 0.0
C1819 C 0.37803 0.93007 0.37517 0.0
C1820 C 0.3788 0.92557 0.39444 0.0
H1821 H 0.39295 0.93512 0.34944 0.0
H1822 H 0.36466 0.93332 0.36868 0.0
S1823 S 0.42236 0.91441 0.42102 0.0
N1824 N 0.42986 0.91895 0.39956 0.0
N1825 N 0.3993 0.91685 0.42034 0.0
C1826 C 0.39668 0.92152 0.40203 0.0
C1827 C 0.41338 0.92271 0.39071 0.0
C1828 C 0.09986 0.39393 0.36352 0.0
C1829 C 0.10299 0.41194 0.37117 0.0
C1830 C 0.10085 0.37753 0.37466 0.0
C1831 C 0.10522 0.3783 0.39397 0.0
H1832 H 0.09591 0.39247 0.34891 0.0
H1833 H 0.09771 0.36417 0.36813 0.0
S1834 S 0.11599 0.42184 0.42071 0.0
N1835 N 0.11157 0.42933 0.39923 0.0
N1836 N 0.11366 0.3988 0.41996 0.0
C1837 C 0.10912 0.39618 0.40162 0.0
C1838 C 0.10794 0.41286 0.39032 0.0
C1839 C 0.37787 0.10048 0.65542 0.0
C1840 C 0.37875 0.10483 0.63612 0.0
C1841 C 0.39422 0.09941 0.66663 0.0
C1842 C 0.41231 0.10244 0.65907 0.0
H1843 H 0.36445 0.09741 0.66191 0.0
H1844 H 0.39267 0.09548 0.68124 0.0
S1845 S 0.4225 0.11536 0.60957 0.0
N1846 N 0.39942 0.11315 0.61022 0.0
N1847 N 0.42989 0.11091 0.63108 0.0
C1848 C 0.41334 0.10737 0.63993 0.0
C1849 C 0.39669 0.10864 0.62855 0.0
C1850 C 0.92961 0.37719 0.65659 0.0
C1851 C 0.92495 0.37791 0.63735 0.0
C1852 C 0.93071 0.39361 0.66769 0.0
C1853 C 0.92741 0.4116 0.66005 0.0
H1854 H 0.9329 0.36385 0.66309 0.0
H1855 H 0.9349 0.3922 0.68223 0.0
S1856 S 0.91359 0.42135 0.61072 0.0
N1857 N 0.91602 0.39832 0.61146 0.0
N1858 N 0.91832 0.4289 0.63211 0.0
C1859 C 0.92215 0.41246 0.64099 0.0
C1860 C 0.92085 0.39575 0.62974 0.0
C1861 C 0.10022 0.63588 0.66606 0.0
C1862 C 0.1034 0.61787 0.65842 0.0
C1863 C 0.10133 0.65227 0.65494 0.0
C1864 C 0.10589 0.65151 0.63568 0.0
H1865 H 0.09612 0.63734 0.68063 0.0
H1866 H 0.09812 0.66562 0.66146 0.0
S1867 S 0.117 0.608 0.60904 0.0
N1868 N 0.11231 0.60048 0.63046 0.0
N1869 N 0.11465 0.63103 0.60977 0.0
C1870 C 0.10989 0.63364 0.62806 0.0
C1871 C 0.10858 0.61695 0.63934 0.0
C1872 C 0.10382 0.25452 0.40616 0.0
C1873 C 0.11405 0.24547 0.4204 0.0
C1874 C 0.10302 0.27431 0.40518 0.0
C1875 C 0.11289 0.28583 0.41798 0.0
H1876 H 0.09535 0.24633 0.39655 0.0
H1877 H 0.09394 0.28069 0.39478 0.0
S1878 S 0.14269 0.26907 0.4571 0.0
N1879 N 0.1349 0.24964 0.44714 0.0
N1880 N 0.13382 0.28658 0.44477 0.0
C1881 C 0.12402 0.27694 0.43155 0.0
C1882 C 0.12448 0.25685 0.43287 0.0
C1883 C 0.77661 0.10141 0.40694 0.0
C1884 C 0.78587 0.11328 0.41968 0.0
C1885 C 0.7568 0.10052 0.40638 0.0
C1886 C 0.74546 0.11183 0.41813 0.0
H1887 H 0.78466 0.09178 0.39834 0.0
H1888 H 0.75028 0.09029 0.39721 0.0
S1889 S 0.76287 0.1461 0.45309 0.0
N1890 N 0.78216 0.13713 0.44381 0.0
N1891 N 0.74513 0.13586 0.44219 0.0
C1892 C 0.75456 0.12454 0.43008 0.0
C1893 C 0.77469 0.12513 0.43099 0.0
C1894 C 0.93013 0.77629 0.40626 0.0
C1895 C 0.91792 0.78552 0.41871 0.0
C1896 C 0.93111 0.7565 0.40575 0.0
C1897 C 0.91959 0.74515 0.41726 0.0
H1898 H 0.93991 0.78435 0.39786 0.0
H1899 H 0.94158 0.75001 0.39681 0.0
S1900 S 0.88441 0.76248 0.4514 0.0
N1901 N 0.89353 0.78177 0.44231 0.0
N1902 N 0.89498 0.74478 0.44077 0.0
C1903 C 0.90656 0.75422 0.42891 0.0
C1904 C 0.90586 0.77433 0.42978 0.0
C1905 C 0.25706 0.90649 0.42993 0.0
C1906 C 0.2457 0.91805 0.41847 0.0
C1907 C 0.27686 0.907 0.42895 0.0
C1908 C 0.2861 0.91949 0.41681 0.0
H1909 H 0.25056 0.89752 0.44035 0.0
H1910 H 0.28493 0.89856 0.43869 0.0
S1911 S 0.26306 0.95231 0.38347 0.0
N1912 N 0.24533 0.94164 0.39398 0.0
N1913 N 0.28237 0.94317 0.39254 0.0
C1914 C 0.27491 0.93061 0.4048 0.0
C1915 C 0.25478 0.92974 0.4055 0.0
C1916 C 0.10134 0.75548 0.62449 0.0
C1917 C 0.11264 0.74412 0.61277 0.0
C1918 C 0.10222 0.77527 0.62386 0.0
C1919 C 0.11406 0.78448 0.61105 0.0
H1920 H 0.09113 0.74899 0.63372 0.0
H1921 H 0.09261 0.78334 0.63247 0.0
S1922 S 0.14685 0.7614 0.57765 0.0
N1923 N 0.13664 0.74372 0.58864 0.0
N1924 N 0.13787 0.7807 0.58687 0.0
C1925 C 0.1259 0.77328 0.59974 0.0
C1926 C 0.12533 0.75318 0.60074 0.0
C1927 C 0.25489 0.10405 0.62462 0.0
C1928 C 0.24575 0.11308 0.60964 0.0
C1929 C 0.27472 0.10346 0.62564 0.0
C1930 C 0.28616 0.11242 0.61212 0.0
H1931 H 0.24676 0.09632 0.63489 0.0
H1932 H 0.28118 0.09525 0.63669 0.0
S1933 S 0.2692 0.13888 0.57077 0.0
N1934 N 0.2498 0.1318 0.58135 0.0
N1935 N 0.28677 0.13112 0.58376 0.0
C1936 C 0.27718 0.12236 0.59772 0.0
C1937 C 0.25707 0.12259 0.59639 0.0
C1938 C 0.90699 0.27618 0.60047 0.0
C1939 C 0.91787 0.28543 0.61407 0.0
C1940 C 0.90682 0.25641 0.59929 0.0
C1941 C 0.91715 0.24506 0.61189 0.0
H1942 H 0.89967 0.28424 0.58986 0.0
H1943 H 0.89912 0.24994 0.58788 0.0
S1944 S 0.94687 0.26248 0.65081 0.0
N1945 N 0.93865 0.28175 0.64086 0.0
N1946 N 0.93771 0.24474 0.639 0.0
C1947 C 0.92714 0.25414 0.62623 0.0
C1948 C 0.92767 0.27426 0.62718 0.0
C1949 C 0.77703 0.93109 0.62317 0.0
C1950 C 0.7863 0.91753 0.61228 0.0
C1951 C 0.75725 0.93224 0.62336 0.0
C1952 C 0.74591 0.91964 0.61303 0.0
H1953 H 0.78509 0.9417 0.6305 0.0
H1954 H 0.75076 0.94363 0.63109 0.0
S1955 S 0.76338 0.88081 0.58321 0.0
N1956 N 0.78266 0.89078 0.59144 0.0
N1957 N 0.74561 0.89257 0.59241 0.0
C1958 C 0.75501 0.90534 0.603 0.0
C1959 C 0.77515 0.90442 0.60245 0.0
C1960 C 0.42638 0.12423 0.27636 0.0
C1961 C 0.41718 0.10935 0.28549 0.0
C1962 C 0.42704 0.1252 0.25655 0.0
C1963 C 0.41802 0.11173 0.24512 0.0
H1964 H 0.43419 0.13443 0.2845 0.0
H1965 H 0.43539 0.13615 0.2501 0.0
S1966 S 0.39108 0.07067 0.26205 0.0
N1967 N 0.39818 0.08123 0.28144 0.0
N1968 N 0.39904 0.08355 0.24449 0.0
C1969 C 0.4079 0.09745 0.25408 0.0
C1970 C 0.40758 0.09616 0.27417 0.0
C1971 C 0.92669 0.40616 0.25535 0.0
C1972 C 0.91708 0.42077 0.24621 0.0
C1973 C 0.92731 0.40519 0.27516 0.0
C1974 C 0.91786 0.41838 0.28659 0.0
H1975 H 0.93482 0.39621 0.24722 0.0
H1976 H 0.93596 0.39447 0.28162 0.0
S1977 S 0.88975 0.45862 0.2696 0.0
N1978 N 0.89725 0.4483 0.25022 0.0
N1979 N 0.89802 0.44598 0.28719 0.0
C1980 C 0.90734 0.43235 0.27761 0.0
C1981 C 0.90705 0.43365 0.25752 0.0
C1982 C 0.60591 0.9062 0.27576 0.0
C1983 C 0.6147 0.92139 0.28478 0.0
C1984 C 0.60533 0.90502 0.25595 0.0
C1985 C 0.61405 0.91859 0.24441 0.0
H1986 H 0.59836 0.89586 0.28397 0.0
H1987 H 0.59728 0.8938 0.24958 0.0
S1988 S 0.63987 0.96049 0.26104 0.0
N1989 N 0.63298 0.94994 0.28051 0.0
N1990 N 0.6323 0.94725 0.24358 0.0
C1991 C 0.62376 0.93322 0.25327 0.0
C1992 C 0.62399 0.93471 0.27336 0.0
C1993 C 0.12475 0.5991 0.25623 0.0
C1994 C 0.11407 0.61133 0.24481 0.0
C1995 C 0.12435 0.60025 0.27602 0.0
C1996 C 0.11287 0.6134 0.2852 0.0
H1997 H 0.13293 0.588 0.24981 0.0
H1998 H 0.13202 0.58992 0.28413 0.0
S1999 S 0.08271 0.64905 0.26203 0.0
N2000 N 0.09248 0.63763 0.24435 0.0
N2001 N 0.09112 0.63939 0.28136 0.0
C2002 C 0.10268 0.62614 0.27396 0.0
C2003 C 0.10345 0.62525 0.25383 0.0
C2004 C 0.40713 0.92553 0.77544 0.0
C2005 C 0.42234 0.91686 0.78456 0.0
C2006 C 0.40601 0.92597 0.75563 0.0
C2007 C 0.41967 0.91722 0.74419 0.0
H2008 H 0.39674 0.9331 0.78357 0.0
H2009 H 0.39479 0.93395 0.74917 0.0
S2010 S 0.46165 0.89168 0.76109 0.0
N2011 N 0.45099 0.89865 0.78049 0.0
N2012 N 0.44843 0.89909 0.74355 0.0
C2013 C 0.43432 0.90763 0.75315 0.0
C2014 C 0.43574 0.90754 0.77324 0.0
C2015 C 0.1246 0.42904 0.77405 0.0
C2016 C 0.11257 0.41804 0.78539 0.0
C2017 C 0.12403 0.42813 0.75426 0.0
C2018 C 0.111 0.41656 0.74502 0.0
H2019 H 0.13401 0.43906 0.78057 0.0
H2020 H 0.13288 0.43752 0.7462 0.0
S2021 S 0.07675 0.38463 0.76804 0.0
N2022 N 0.0879 0.39463 0.78575 0.0
N2023 N 0.08627 0.39333 0.74875 0.0
C2024 C 0.09939 0.40501 0.7562 0.0
C2025 C 0.10031 0.40562 0.77631 0.0
C2026 C 0.62563 0.10365 0.75653 0.0
C2027 C 0.61251 0.11314 0.74506 0.0
C2028 C 0.62465 0.1044 0.77634 0.0
C2029 C 0.6101 0.11418 0.78542 0.0
H2030 H 0.63629 0.09489 0.75012 0.0
H2031 H 0.63453 0.09622 0.7845 0.0
S2032 S 0.57244 0.14164 0.7619 0.0
N2033 N 0.58505 0.13318 0.74436 0.0
N2034 N 0.5827 0.13418 0.78132 0.0
C2035 C 0.5973 0.12423 0.77407 0.0
C2036 C 0.59861 0.12382 0.75398 0.0
C2037 C 0.90767 0.6002 0.7537 0.0
C2038 C 0.91931 0.61319 0.74451 0.0
C2039 C 0.90731 0.59905 0.77348 0.0
C2040 C 0.91819 0.61112 0.78489 0.0
H2041 H 0.89984 0.58999 0.74559 0.0
H2042 H 0.899 0.58805 0.77992 0.0
S2043 S 0.95007 0.64837 0.76766 0.0
N2044 N 0.94146 0.63885 0.74833 0.0
N2045 N 0.94017 0.63708 0.78534 0.0
C2046 C 0.92899 0.62489 0.77587 0.0
C2047 C 0.92972 0.62578 0.75574 0.0
C2048 C 0.25464 0.40692 0.10145 0.0
C2049 C 0.24527 0.4198 0.11309 0.0
C2050 C 0.27446 0.40644 0.10064 0.0
C2051 C 0.2857 0.41839 0.11182 0.0
H2052 H 0.24667 0.39813 0.09194 0.0
H2053 H 0.28108 0.39714 0.09058 0.0
S2054 S 0.26799 0.45379 0.1455 0.0
N2055 N 0.24877 0.44431 0.13658 0.0
N2056 N 0.28582 0.44281 0.13549 0.0
C2057 C 0.27649 0.4305 0.12431 0.0
C2058 C 0.25635 0.43135 0.12481 0.0
C2059 C 0.25521 0.62402 0.92709 0.0
C2060 C 0.24605 0.6102 0.9164 0.0
C2061 C 0.27502 0.62488 0.92785 0.0
C2062 C 0.28646 0.61237 0.91751 0.0
H2063 H 0.24708 0.63336 0.93594 0.0
H2064 H 0.28148 0.63494 0.93726 0.0
S2065 S 0.26939 0.57441 0.88642 0.0
N2066 N 0.25001 0.58419 0.89463 0.0
N2067 N 0.28701 0.58634 0.89564 0.0
C2068 C 0.27746 0.59926 0.90593 0.0
C2069 C 0.25734 0.59805 0.9055 0.0
C2070 C 0.40709 0.25428 0.93096 0.0
C2071 C 0.41842 0.24495 0.91778 0.0
C2072 C 0.40684 0.27406 0.932 0.0
C2073 C 0.41754 0.28534 0.91964 0.0
H2074 H 0.39944 0.24628 0.94139 0.0
H2075 H 0.39878 0.2806 0.94313 0.0
S2076 S 0.44857 0.26772 0.88181 0.0
N2077 N 0.44006 0.2485 0.89163 0.0
N2078 N 0.43899 0.28551 0.8932 0.0
C2079 C 0.42801 0.27618 0.90569 0.0
C2080 C 0.42862 0.25605 0.9049 0.0
C2081 C 0.77642 0.40809 0.93311 0.0
C2082 C 0.7859 0.41754 0.91865 0.0
C2083 C 0.75662 0.4081 0.93406 0.0
C2084 C 0.74546 0.41727 0.92043 0.0
H2085 H 0.78432 0.40178 0.94448 0.0
H2086 H 0.75 0.40148 0.94604 0.0
S2087 S 0.76357 0.44306 0.87908 0.0
N2088 N 0.78269 0.43574 0.89001 0.0
N2089 N 0.7456 0.43516 0.89148 0.0
C2090 C 0.75478 0.42581 0.90532 0.0
C2091 C 0.77495 0.42614 0.90457 0.0
C2092 C 0.62397 0.77693 0.93112 0.0
C2093 C 0.61351 0.78619 0.91722 0.0
C2094 C 0.62411 0.75716 0.93228 0.0
C2095 C 0.61413 0.74583 0.91938 0.0
H2096 H 0.63097 0.78498 0.94196 0.0
H2097 H 0.6315 0.75069 0.94389 0.0
S2098 S 0.58553 0.76329 0.87965 0.0
N2099 N 0.59348 0.78255 0.88986 0.0
N2100 N 0.59435 0.74553 0.89169 0.0
C2101 C 0.60456 0.75492 0.90477 0.0
C2102 C 0.60407 0.77504 0.90383 0.0
C2103 C 0.75545 0.60283 0.12385 0.0
C2104 C 0.74618 0.6129 0.10964 0.0
C2105 C 0.77527 0.60225 0.12467 0.0
C2106 C 0.78657 0.61217 0.11172 0.0
H2107 H 0.74741 0.59431 0.13354 0.0
H2108 H 0.78183 0.59327 0.13504 0.0
S2109 S 0.7692 0.64159 0.0726 0.0
N2110 N 0.74991 0.63366 0.08278 0.0
N2111 N 0.78692 0.63296 0.08484 0.0
C2112 C 0.77747 0.62315 0.09819 0.0
C2113 C 0.75735 0.62341 0.09704 0.0
C2114 C 0.4285 0.75486 0.12364 0.0
C2115 C 0.4181 0.74561 0.10965 0.0
C2116 C 0.42924 0.77466 0.12437 0.0
C2117 C 0.41914 0.78598 0.11157 0.0
H2118 H 0.43715 0.74682 0.13321 0.0
H2119 H 0.43844 0.7812 0.13456 0.0
S2120 S 0.38888 0.76864 0.07306 0.0
N2121 N 0.39688 0.74935 0.08316 0.0
N2122 N 0.39785 0.78633 0.08507 0.0
C2123 C 0.40785 0.77689 0.09827 0.0
C2124 C 0.40745 0.75679 0.0972 0.0
C2125 C 0.6028 0.25595 0.1254 0.0
C2126 C 0.61287 0.24449 0.1127 0.0
C2127 C 0.60339 0.27574 0.12435 0.0
C2128 C 0.61362 0.28483 0.11013 0.0
H2129 H 0.5937 0.24952 0.13576 0.0
H2130 H 0.59476 0.28388 0.13387 0.0
S2131 S 0.64276 0.2614 0.07369 0.0
N2132 N 0.63399 0.24385 0.08604 0.0
N2133 N 0.6347 0.28079 0.08355 0.0
C2134 C 0.62427 0.27352 0.09778 0.0
C2135 C 0.62401 0.25344 0.09917 0.0
C2136 C 0.97995 0.77387 0.55726 0.0
C2137 C 0.96809 0.78443 0.56909 0.0
C2138 C 0.97717 0.7546 0.55434 0.0
C2139 C 0.96249 0.74476 0.56324 0.0
H2140 H 0.9915 0.78052 0.54993 0.0
H2141 H 0.98682 0.74733 0.5451 0.0
S2142 S 0.92724 0.76555 0.59559 0.0
N2143 N 0.94085 0.78339 0.58976 0.0
N2144 N 0.93578 0.74713 0.5844 0.0
C2145 C 0.95053 0.75502 0.57522 0.0
C2146 C 0.95327 0.7748 0.57809 0.0
C2147 C 0.25676 0.97906 0.55792 0.0
C2148 C 0.24621 0.96701 0.56957 0.0
C2149 C 0.27606 0.97639 0.55501 0.0
C2150 C 0.28595 0.96166 0.56373 0.0
H2151 H 0.25006 0.99066 0.55075 0.0
H2152 H 0.28332 0.98618 0.54591 0.0
S2153 S 0.26523 0.92591 0.59551 0.0
N2154 N 0.24733 0.93952 0.58984 0.0
N2155 N 0.28365 0.93468 0.58448 0.0
C2156 C 0.2757 0.94951 0.57551 0.0
C2157 C 0.25589 0.95212 0.57838 0.0
C2158 C 0.05326 0.2547 0.55541 0.0
C2159 C 0.06367 0.24459 0.56887 0.0
C2160 C 0.05591 0.274 0.55263 0.0
C2161 C 0.069 0.28435 0.56326 0.0
H2162 H 0.04296 0.24764 0.54673 0.0
H2163 H 0.04737 0.28086 0.54209 0.0
S2164 S 0.09996 0.2648 0.60045 0.0
N2165 N 0.08777 0.24654 0.59301 0.0
N2166 N 0.09264 0.28286 0.58791 0.0
C2167 C 0.07955 0.27449 0.57683 0.0
C2168 C 0.07694 0.25468 0.57957 0.0
C2169 C 0.77696 0.07936 0.57427 0.0
C2170 C 0.78527 0.06146 0.57228 0.0
C2171 C 0.7575 0.0821 0.57157 0.0
C2172 C 0.74566 0.06708 0.56659 0.0
H2173 H 0.78561 0.09146 0.57743 0.0
H2174 H 0.7518 0.09614 0.57279 0.0
S2175 S 0.75959 0.01709 0.56239 0.0
N2176 N 0.77939 0.02818 0.56708 0.0
N2177 N 0.74322 0.03348 0.56167 0.0
C2178 C 0.75361 0.04907 0.56534 0.0
C2179 C 0.77327 0.04622 0.56828 0.0
C2180 C 0.95917 0.25695 0.44924 0.0
C2181 C 0.96452 0.24523 0.46421 0.0
C2182 C 0.95652 0.27641 0.45191 0.0
C2183 C 0.95892 0.28484 0.46971 0.0
H2184 H 0.95762 0.25116 0.43526 0.0
H2185 H 0.95307 0.28496 0.43982 0.0
S2186 S 0.96982 0.25948 0.51403 0.0
N2187 N 0.97019 0.24302 0.49773 0.0
N2188 N 0.96486 0.27918 0.50291 0.0
C2189 C 0.96326 0.27295 0.48494 0.0
C2190 C 0.96616 0.25329 0.48215 0.0
C2191 C 0.75536 0.97627 0.47534 0.0
C2192 C 0.74561 0.96131 0.46687 0.0
C2193 C 0.77467 0.97895 0.47253 0.0
C2194 C 0.78538 0.96669 0.46124 0.0
H2195 H 0.74799 0.98623 0.48417 0.0
H2196 H 0.78124 0.99075 0.4795 0.0
S2197 S 0.76672 0.92502 0.43595 0.0
N2198 N 0.74817 0.93394 0.44666 0.0
N2199 N 0.78453 0.93879 0.4415 0.0
C2200 C 0.77583 0.9516 0.45264 0.0
C2201 C 0.75599 0.94897 0.45539 0.0
C2202 C 0.07253 0.77352 0.44893 0.0
C2203 C 0.06577 0.78503 0.46352 0.0
C2204 C 0.0752 0.75407 0.4516 0.0
C2205 C 0.07144 0.74539 0.46904 0.0
H2206 H 0.07528 0.77949 0.43522 0.0
H2207 H 0.07988 0.74574 0.43977 0.0
S2208 S 0.05622 0.77009 0.51252 0.0
N2209 N 0.05713 0.78673 0.49645 0.0
N2210 N 0.06238 0.75059 0.50164 0.0
C2211 C 0.06552 0.75705 0.48395 0.0
C2212 C 0.06263 0.77672 0.48115 0.0
C2213 C 0.25634 0.05108 0.47227 0.0
C2214 C 0.24562 0.06332 0.461 0.0
C2215 C 0.27565 0.05378 0.47508 0.0
C2216 C 0.2854 0.06875 0.46661 0.0
H2217 H 0.24978 0.03927 0.47924 0.0
H2218 H 0.28303 0.04383 0.4839 0.0
S2219 S 0.26425 0.10501 0.43572 0.0
N2220 N 0.24645 0.09121 0.44127 0.0
N2221 N 0.28281 0.09612 0.44641 0.0
C2222 C 0.275 0.08107 0.45515 0.0
C2223 C 0.25517 0.07842 0.4524 0.0
C2224 C 0.57942 0.95626 0.75467 0.0
C2225 C 0.5619 0.95971 0.746 0.0
C2226 C 0.58204 0.95892 0.77413 0.0
C2227 C 0.56732 0.96532 0.78567 0.0
H2228 H 0.59135 0.95186 0.74631 0.0
H2229 H 0.59583 0.95647 0.78008 0.0
S2230 S 0.51813 0.97401 0.77075 0.0
N2231 N 0.52913 0.96813 0.75122 0.0
N2232 N 0.53422 0.97335 0.78741 0.0
C2233 C 0.54962 0.96815 0.77737 0.0
C2234 C 0.54687 0.96529 0.75768 0.0
C2235 C 0.05506 0.55432 0.75502 0.0
C2236 C 0.06967 0.56324 0.74511 0.0
C2237 C 0.05235 0.55724 0.7743 0.0
C2238 C 0.06421 0.56909 0.78483 0.0
H2239 H 0.0454 0.54506 0.7478 0.0
H2240 H 0.04083 0.5499 0.78099 0.0
S2241 S 0.10494 0.59563 0.76577 0.0
N2242 N 0.09636 0.58442 0.74738 0.0
N2243 N 0.09141 0.58978 0.78368 0.0
C2244 C 0.07898 0.5781 0.77514 0.0
C2245 C 0.08166 0.57523 0.75534 0.0
C2246 C 0.47499 0.05361 0.75573 0.0
C2247 C 0.46672 0.06872 0.74604 0.0
C2248 C 0.47217 0.05093 0.77503 0.0
C2249 C 0.46109 0.06333 0.78579 0.0
H2250 H 0.48366 0.04355 0.74832 0.0
H2251 H 0.47898 0.03901 0.78155 0.0
S2252 S 0.43635 0.1054 0.76728 0.0
N2253 N 0.44689 0.09637 0.7487 0.0
N2254 N 0.44173 0.0915 0.78504 0.0
C2255 C 0.45266 0.07855 0.77629 0.0
C2256 C 0.45542 0.08119 0.75647 0.0
C2257 C 0.95682 0.45113 0.7547 0.0
C2258 C 0.96029 0.46867 0.74614 0.0
C2259 C 0.95953 0.44839 0.77415 0.0
C2260 C 0.96601 0.46301 0.78576 0.0
H2261 H 0.95236 0.43928 0.74629 0.0
H2262 H 0.95702 0.4346 0.78004 0.0
S2263 S 0.9748 0.5122 0.7711 0.0
N2264 N 0.96884 0.50135 0.75153 0.0
N2265 N 0.97413 0.49604 0.78766 0.0
C2266 C 0.96888 0.48072 0.77754 0.0
C2267 C 0.96597 0.48359 0.75789 0.0
C2268 C 0.57498 0.07908 0.25503 0.0
C2269 C 0.572 0.06142 0.24649 0.0
C2270 C 0.5723 0.08176 0.27449 0.0
C2271 C 0.56634 0.06694 0.28613 0.0
H2272 H 0.57897 0.09106 0.24656 0.0
H2273 H 0.57434 0.09564 0.28035 0.0
S2274 S 0.55912 0.01747 0.27158 0.0
N2275 N 0.56461 0.02848 0.25195 0.0
N2276 N 0.55935 0.03367 0.28812 0.0
C2277 C 0.56404 0.04913 0.27796 0.0
C2278 C 0.56693 0.04633 0.25829 0.0
C2279 C 0.97756 0.55446 0.25521 0.0
C2280 C 0.96781 0.56847 0.24521 0.0
C2281 C 0.97474 0.55164 0.27449 0.0
C2282 C 0.96214 0.5628 0.28492 0.0
H2283 H 0.98744 0.54536 0.24806 0.0
H2284 H 0.98275 0.54065 0.28129 0.0
S2285 S 0.93294 0.6015 0.26562 0.0
N2286 N 0.94483 0.59365 0.24731 0.0
N2287 N 0.93964 0.58849 0.28359 0.0
C2288 C 0.95222 0.57689 0.27515 0.0
C2289 C 0.955 0.57967 0.25536 0.0
C2290 C 0.47301 0.97965 0.25592 0.0
C2291 C 0.46106 0.96795 0.24533 0.0
C2292 C 0.47586 0.97684 0.2752 0.0
C2293 C 0.46678 0.96228 0.28503 0.0
H2294 H 0.48052 0.99107 0.24927 0.0
H2295 H 0.48525 0.98634 0.28246 0.0
S2296 S 0.43374 0.9277 0.26424 0.0
N2297 N 0.43986 0.94116 0.24638 0.0
N2298 N 0.44509 0.93602 0.28266 0.0
C2299 C 0.45457 0.95056 0.27476 0.0
C2300 C 0.45177 0.95333 0.25497 0.0
C2301 C 0.07443 0.45129 0.27592 0.0
C2302 C 0.07212 0.46909 0.28434 0.0
C2303 C 0.0717 0.44861 0.25646 0.0
C2304 C 0.06634 0.46358 0.24474 0.0
H2305 H 0.07789 0.43921 0.28447 0.0
H2306 H 0.07321 0.43463 0.25068 0.0
S2307 S 0.06121 0.5134 0.25897 0.0
N2308 N 0.06622 0.50229 0.27867 0.0
N2309 N 0.06074 0.49709 0.24252 0.0
C2310 C 0.06477 0.48152 0.25279 0.0
C2311 C 0.06775 0.48432 0.27244 0.0
C2312 C 0.75583 0.55374 0.97542 0.0
C2313 C 0.74581 0.56375 0.9616 0.0
C2314 C 0.77513 0.55653 0.9783 0.0
C2315 C 0.78554 0.56936 0.96741 0.0
H2316 H 0.7487 0.54366 0.9843 0.0
H2317 H 0.78195 0.54831 0.98912 0.0
S2318 S 0.76617 0.59932 0.92933 0.0
N2319 N 0.74789 0.58724 0.9369 0.0
N2320 N 0.78417 0.59238 0.9422 0.0
C2321 C 0.77574 0.57954 0.95352 0.0
C2322 C 0.75595 0.57679 0.95067 0.0
C2323 C 0.77464 0.47272 0.05157 0.0
C2324 C 0.78513 0.46078 0.06337 0.0
C2325 C 0.75533 0.47564 0.05428 0.0
C2326 C 0.74538 0.46663 0.0688 0.0
H2327 H 0.78139 0.48013 0.04014 0.0
H2328 H 0.74812 0.48498 0.04469 0.0
S2329 S 0.76593 0.43388 0.10378 0.0
N2330 N 0.78388 0.43983 0.09035 0.0
N2331 N 0.74757 0.4452 0.09527 0.0
C2332 C 0.75557 0.45453 0.08068 0.0
C2333 C 0.77538 0.45165 0.07803 0.0
C2334 C 0.55215 0.75584 0.05803 0.0
C2335 C 0.56418 0.74521 0.06961 0.0
C2336 C 0.55493 0.77511 0.05513 0.0
C2337 C 0.56979 0.78489 0.06379 0.0
H2338 H 0.54046 0.74924 0.05089 0.0
H2339 H 0.54515 0.78243 0.04608 0.0
S2340 S 0.60556 0.76392 0.0954 0.0
N2341 N 0.5918 0.74613 0.08976 0.0
N2342 N 0.59686 0.7824 0.08443 0.0
C2343 C 0.58192 0.77456 0.07551 0.0
C2344 C 0.57919 0.75478 0.07837 0.0
C2345 C 0.27497 0.55086 0.05787 0.0
C2346 C 0.28561 0.56314 0.06919 0.0
C2347 C 0.25566 0.5535 0.05499 0.0
C2348 C 0.24585 0.56846 0.06343 0.0
H2349 H 0.28161 0.53907 0.05093 0.0
H2350 H 0.24833 0.54354 0.04614 0.0
S2351 S 0.26679 0.60489 0.09427 0.0
N2352 N 0.28464 0.59111 0.08884 0.0
N2353 N 0.2483 0.59591 0.08355 0.0
C2354 C 0.25618 0.58084 0.07489 0.0
C2355 C 0.27599 0.57824 0.07772 0.0
C2356 C 0.45733 0.25456 0.07941 0.0
C2357 C 0.46007 0.24603 0.06171 0.0
C2358 C 0.46007 0.274 0.08206 0.0
C2359 C 0.46587 0.28563 0.06718 0.0
H2360 H 0.45345 0.24612 0.09144 0.0
H2361 H 0.45814 0.27987 0.09596 0.0
S2362 S 0.47253 0.27108 0.0176 0.0
N2363 N 0.46708 0.25147 0.02867 0.0
N2364 N 0.47256 0.28761 0.03383 0.0
C2365 C 0.46801 0.27746 0.04934 0.0
C2366 C 0.46502 0.25781 0.04656 0.0
C2367 C 0.25622 0.47286 0.97882 0.0
C2368 C 0.24574 0.46073 0.96722 0.0
C2369 C 0.27553 0.4757 0.97609 0.0
C2370 C 0.2855 0.46643 0.96173 0.0
H2371 H 0.24946 0.4805 0.9901 0.0
H2372 H 0.28271 0.48522 0.98553 0.0
S2373 S 0.26499 0.43291 0.92745 0.0
N2374 N 0.24702 0.43918 0.94071 0.0
N2375 N 0.28335 0.4444 0.93573 0.0
C2376 C 0.27532 0.45407 0.95009 0.0
C2377 C 0.2555 0.45127 0.95277 0.0
C2378 C 0.57145 0.27371 0.94839 0.0
C2379 C 0.5664 0.28552 0.96341 0.0
C2380 C 0.57411 0.25426 0.95111 0.0
C2381 C 0.572 0.24593 0.96898 0.0
H2382 H 0.57277 0.27942 0.93436 0.0
H2383 H 0.57733 0.24563 0.939 0.0
S2384 S 0.56182 0.27153 1.01336 0.0
N2385 N 0.56123 0.28791 0.997 0.0
N2386 N 0.56658 0.25177 1.00226 0.0
C2387 C 0.56791 0.25791 0.98423 0.0
C2388 C 0.56501 0.27756 0.9814 0.0
C2389 C 0.47685 0.77529 0.97577 0.0
C2390 C 0.46224 0.78514 0.96678 0.0
C2391 C 0.4796 0.75601 0.97293 0.0
C2392 C 0.46777 0.74542 0.96108 0.0
H2393 H 0.48649 0.78257 0.98501 0.0
H2394 H 0.49112 0.74936 0.98029 0.0
S2395 S 0.4271 0.7643 0.93436 0.0
N2396 N 0.43562 0.78274 0.94553 0.0
N2397 N 0.44063 0.74645 0.94031 0.0
C2398 C 0.45301 0.75505 0.95201 0.0
C2399 C 0.4503 0.77484 0.9548 0.0
C2400 C 0.02795 0.21705 0.42654 0.0
C2401 C 0.04234 0.20344 0.42805 0.0
C2402 C 1.00881 0.21191 0.42528 0.0
C2403 C 1.00324 0.19296 0.4258 0.0
H2404 H 0.03145 0.23183 0.42716 0.0
H2405 H 0.99826 0.22287 0.42531 0.0
S2406 S 0.03499 0.15184 0.42898 0.0
N2407 N 0.04934 0.17005 0.42901 0.0
N2408 N 1.01358 0.1606 0.42732 0.0
C2409 C 0.01744 0.17926 0.42655 0.0
C2410 C 0.03689 0.18443 0.42744 0.0
C2411 C 0.84599 0.0364 0.42803 0.0
C2412 C 0.82693 0.04176 0.4275 0.0
C2413 C 0.85139 0.01738 0.42722 0.0
C2414 C 0.83808 1.00291 0.42514 0.0
H2415 H 0.85677 0.04684 0.43046 0.0
H2416 H 0.86608 1.01391 0.42916 0.0
S2417 S 0.78656 1.00929 0.42122 0.0
N2418 N 0.79477 0.03085 0.42369 0.0
N2419 N 0.80509 0.99533 0.4213 0.0
C2420 C 0.81912 1.0081 0.42325 0.0
C2421 C 0.81352 0.02743 0.42464 0.0
C2422 C 1.00372 0.81351 0.42585 0.0
C2423 C 0.98936 0.82717 0.42719 0.0
C2424 C 0.02287 0.81858 0.42455 0.0
C2425 C 0.0285 0.83751 0.42483 0.0
H2426 H 1.00019 0.79875 0.42664 0.0
H2427 H 0.03339 0.80758 0.42472 0.0
S2428 S 0.99686 0.87876 0.42725 0.0
N2429 N 0.98246 0.8606 0.42757 0.0
N2430 N 0.01826 0.86992 0.42581 0.0
C2431 C 1.01435 0.85126 0.42535 0.0
C2432 C 0.99486 0.84616 0.42629 0.0
C2433 C 0.18486 0.99387 0.42737 0.0
C2434 C 0.20391 0.98848 0.42676 0.0
C2435 C 0.17949 1.0129 0.42664 0.0
C2436 C 0.19282 0.02736 0.42454 0.0
H2437 H 0.17407 0.98343 0.42984 0.0
H2438 H 0.16482 0.0164 0.42866 0.0
S2439 S 0.24431 0.02088 0.42033 0.0
N2440 N 0.23606 0.99934 0.42276 0.0
N2441 N 0.22581 0.03488 0.42056 0.0
C2442 C 0.21176 0.02214 0.42253 0.0
C2443 C 0.21732 1.00279 0.42383 0.0
C2444 C 1.00942 0.81938 0.60701 0.0
C2445 C 1.00391 0.83828 0.60531 0.0
C2446 C 0.02852 0.81409 0.60574 0.0
C2447 C 0.04292 0.8275 0.60311 0.0
H2448 H 0.99884 0.8085 0.6079 0.0
H2449 H 0.03197 0.79928 0.60603 0.0
S2450 S 0.03576 0.87895 0.5989 0.0
N2451 N 1.01434 0.87043 0.6015 0.0
N2452 N 0.05004 0.86071 0.59983 0.0
C2453 C 0.03756 0.84653 0.60256 0.0
C2454 C 0.01814 0.85184 0.60343 0.0
C2455 C 0.2168 0.02687 0.60502 0.0
C2456 C 0.20321 0.04126 0.6035 0.0
C2457 C 0.21162 1.00778 0.60648 0.0
C2458 C 0.19264 1.00226 0.60612 0.0
H2459 H 0.2316 0.0303 0.60422 0.0
H2460 H 0.22257 0.99722 0.60644 0.0
S2461 S 0.15153 0.03407 0.60333 0.0
N2462 N 0.16979 0.04836 0.60297 0.0
N2463 N 0.16025 1.01266 0.60496 0.0
C2464 C 0.17895 0.01647 0.60547 0.0
C2465 C 0.18417 0.03589 0.6044 0.0
C2466 C 0.02221 0.21077 0.60668 0.0
C2467 C 0.02759 0.19179 0.60571 0.0
C2468 C 1.00313 0.21614 0.60543 0.0
C2469 C 0.98862 0.20272 0.60353 0.0
H2470 H 0.03287 0.22162 0.60698 0.0
H2471 H 0.99978 0.23096 0.60515 0.0
S2472 S 0.99544 0.15108 0.60143 0.0
N2473 N 0.01694 0.15958 0.60339 0.0
N2474 N 0.98129 0.16943 0.60176 0.0
C2475 C 0.99387 0.18364 0.60372 0.0
C2476 C 1.01327 0.17825 0.60458 0.0
C2477 C 0.82039 0.02153 0.60758 0.0
C2478 C 0.83934 0.02709 0.60668 0.0
C2479 C 0.81522 1.00243 0.60619 0.0
C2480 C 0.82879 0.98808 0.60419 0.0
H2481 H 0.80942 0.03206 0.60793 0.0
H2482 H 0.8004 0.99897 0.60583 0.0
S2483 S 0.88043 0.99539 0.60244 0.0
N2484 N 0.8717 0.01677 0.60446 0.0
N2485 N 0.8622 0.98107 0.60259 0.0
C2486 C 0.84784 0.99349 0.60453 0.0
C2487 C 0.85304 1.01292 0.60553 0.0
C2488 C 0.42846 0.03689 0.18417 0.0
C2489 C 0.42723 0.04224 0.20319 0.0
C2490 C 0.42784 0.01787 0.17873 0.0
C2491 C 0.42526 1.00339 0.19194 0.0
H2492 H 0.4313 0.04734 0.1735 0.0
H2493 H 0.4303 1.01441 0.16413 0.0
S2494 S 0.4194 1.00978 0.24326 0.0
N2495 N 0.42218 0.03133 0.23515 0.0
N2496 N 0.4202 0.99581 0.22475 0.0
C2497 C 0.42266 1.00858 0.21081 0.0
C2498 C 0.42385 0.02791 0.21646 0.0
C2499 C 0.02221 0.42493 0.21157 0.0
C2500 C 0.0277 0.42514 0.19259 0.0
C2501 C 1.00309 0.42622 0.21677 0.0
C2502 C 0.98864 0.42749 0.20321 0.0
H2503 H 0.03281 0.42517 0.22248 0.0
H2504 H 0.99968 0.4271 0.23156 0.0
S2505 S 0.99577 0.42732 0.15154 0.0
N2506 N 0.01723 0.42593 0.16023 0.0
N2507 N 0.98149 0.4277 0.16982 0.0
C2508 C 0.994 0.42649 0.18417 0.0
C2509 C 1.01345 0.42555 0.17893 0.0
C2510 C 0.60306 0.99367 0.18485 0.0
C2511 C 0.60455 0.98808 0.20378 0.0
C2512 C 0.60375 1.01273 0.17965 0.0
C2513 C 0.60664 0.02702 0.19299 0.0
H2514 H 0.59999 0.98337 0.17409 0.0
H2515 H 0.60108 0.01638 0.16513 0.0
S2516 S 0.61345 0.01993 0.2441 0.0
N2517 N 0.61027 0.99851 0.23578 0.0
N2518 N 0.6124 0.03415 0.22581 0.0
C2519 C 0.60952 0.02159 0.21175 0.0
C2520 C 0.60825 1.0022 0.21718 0.0
C2521 C 0.02855 0.60493 0.21618 0.0
C2522 C 0.04296 0.60281 0.20269 0.0
C2523 C 1.00945 0.60624 0.21091 0.0
C2524 C 1.00397 0.60513 0.19195 0.0
H2525 H 0.03197 0.60478 0.231 0.0
H2526 H 0.99884 0.60673 0.22181 0.0
S2527 S 0.03588 0.60023 0.15109 0.0
N2528 N 0.05013 0.60065 0.16937 0.0
N2529 N 1.01444 0.60242 0.15969 0.0
C2530 C 0.01821 0.60376 0.17834 0.0
C2531 C 0.03763 0.60283 0.18363 0.0
C2532 C 0.42802 0.99376 0.84611 0.0
C2533 C 0.42763 0.9885 0.82703 0.0
C2534 C 0.42702 1.01274 0.8516 0.0
C2535 C 0.42487 0.02726 0.83836 0.0
H2536 H 0.43055 0.98328 0.85683 0.0
H2537 H 0.42891 0.01616 0.8663 0.0
S2538 S 0.42118 0.02109 0.78682 0.0
N2539 N 0.42382 0.99953 0.79493 0.0
N2540 N 0.42106 0.03496 0.80542 0.0
C2541 C 0.42306 0.02215 0.81938 0.0
C2542 C 0.42466 1.00286 0.8137 0.0
C2543 C 0.03664 0.42709 0.84585 0.0
C2544 C 0.0421 0.4266 0.82683 0.0
C2545 C 0.01757 0.42634 0.85115 0.0
C2546 C 1.00314 0.42438 0.83777 0.0
H2547 H 0.04706 0.42944 0.85668 0.0
H2548 H 1.01402 0.42823 0.86583 0.0
S2549 S 1.00977 0.42061 0.7863 0.0
N2550 N 0.03132 0.42289 0.79462 0.0
N2551 N 0.9957 0.42075 0.80475 0.0
C2552 C 1.00842 0.42255 0.81884 0.0
C2553 C 0.02781 0.42383 0.81335 0.0
C2554 C 0.60392 0.03694 0.84517 0.0
C2555 C 0.60348 0.04242 0.82616 0.0
C2556 C 0.6049 0.01788 0.8504 0.0
C2557 C 0.60621 1.00348 0.83692 0.0
H2558 H 0.60209 0.04733 0.85613 0.0
H2559 H 0.60369 1.01432 0.86514 0.0
S2560 S 0.60751 1.01014 0.78534 0.0
N2561 N 0.60563 0.03166 0.79379 0.0
N2562 N 0.60826 0.99607 0.80376 0.0
C2563 C 0.60714 1.00877 0.81794 0.0
C2564 C 0.6056 0.02815 0.81254 0.0
C2565 C 0.02249 0.60612 0.81922 0.0
C2566 C 0.02798 0.60545 0.83818 0.0
C2567 C 1.00339 0.60475 0.81399 0.0
C2568 C 0.98896 0.60298 0.82753 0.0
H2569 H 0.03308 0.60628 0.80829 0.0
H2570 H 0.99997 0.60424 0.79918 0.0
S2571 S 0.99608 0.6019 0.87918 0.0
N2572 N 0.01752 0.60371 0.87051 0.0
N2573 N 0.98181 0.60185 0.8609 0.0
C2574 C 0.99431 0.60354 0.84658 0.0
C2575 C 1.01374 0.60453 0.85183 0.0
C2576 C 0.185 0.42729 0.03613 0.0
C2577 C 0.20407 0.42688 0.04147 0.0
C2578 C 0.17959 0.42639 0.01712 0.0
C2579 C 0.1929 0.42432 1.00263 0.0
H2580 H 0.17421 0.42972 0.04659 0.0
H2581 H 0.16489 0.42827 1.01366 0.0
S2582 S 0.24444 0.42062 1.00897 0.0
N2583 N 0.23623 0.42315 0.03054 0.0
N2584 N 0.2259 0.42056 0.99503 0.0
C2585 C 0.21187 0.42251 1.00781 0.0
C2586 C 0.21748 0.42401 0.02714 0.0
C2587 C 0.18581 0.60294 0.99337 0.0
C2588 C 0.20488 0.60297 0.98804 0.0
C2589 C 0.1804 0.60381 1.0124 0.0
C2590 C 0.19374 0.60547 0.0269 0.0
H2591 H 0.17498 0.60083 0.9829 0.0
H2592 H 0.16566 0.60222 0.01585 0.0
S2593 S 0.24536 0.60812 0.02059 0.0
N2594 N 0.23712 0.60594 0.999 0.0
N2595 N 0.2268 0.60845 0.03453 0.0
C2596 C 0.21275 0.60691 0.02173 0.0
C2597 C 0.21834 0.60545 1.00239 0.0
C2598 C 0.42415 0.21142 0.02252 0.0
C2599 C 0.42482 0.19245 0.02799 0.0
C2600 C 0.4255 0.21666 1.00343 0.0
C2601 C 0.42719 0.20314 0.98899 0.0
H2602 H 0.424 0.22233 0.03311 0.0
H2603 H 0.42602 0.23147 1.00002 0.0
S2604 S 0.42827 0.1515 0.99607 0.0
N2605 N 0.42653 0.16015 0.01752 0.0
N2606 N 0.42828 0.16977 0.98183 0.0
C2607 C 0.42665 0.18409 0.99433 0.0
C2608 C 0.42571 0.17882 1.01375 0.0
C2609 C 0.84645 0.42711 0.99462 0.0
C2610 C 0.82744 0.4262 0.98916 0.0
C2611 C 0.85176 0.42642 1.01368 0.0
C2612 C 0.8384 0.4241 0.0281 0.0
H2613 H 0.85724 0.42975 0.98422 0.0
H2614 H 0.86639 0.42865 0.01724 0.0
S2615 S 0.787 0.4192 0.02145 0.0
N2616 N 0.7953 0.42176 0.99992 0.0
N2617 N 0.80545 0.41966 0.03551 0.0
C2618 C 0.81952 0.42183 0.02281 0.0
C2619 C 0.81401 0.42308 1.00343 0.0
C2620 C 0.60489 0.85075 1.01267 0.0
C2621 C 0.60672 0.83734 0.02707 0.0
C2622 C 0.60414 0.84549 0.99361 0.0
C2623 C 0.60448 0.82648 0.98812 0.0
H2624 H 0.6031 0.86543 0.01624 0.0
H2625 H 0.60191 0.85637 0.98322 0.0
S2626 S 0.61008 0.78587 0.02039 0.0
N2627 N 0.6101 0.8043 0.03447 0.0
N2628 N 0.60788 0.79424 0.99886 0.0
C2629 C 0.6071 0.81296 1.00239 0.0
C2630 C 0.60841 0.81842 0.02177 0.0
C2631 C 0.84708 0.60262 0.03624 0.0
C2632 C 0.82808 0.60355 0.04174 0.0
C2633 C 0.85236 0.60333 0.01717 0.0
C2634 C 0.83898 0.60569 1.00279 0.0
H2635 H 0.85788 0.59994 0.04661 0.0
H2636 H 0.86698 0.60107 1.01358 0.0
S2637 S 0.78761 0.61078 1.0096 0.0
N2638 N 0.79594 0.60814 0.0311 0.0
N2639 N 0.80603 0.61026 0.99548 0.0
C2640 C 0.82011 0.60801 1.00813 0.0
C2641 C 0.81464 0.60675 0.02752 0.0
C2642 C 0.42798 0.85165 0.01691 0.0
C2643 C 0.42564 0.8383 1.00252 0.0
C2644 C 0.42868 0.84638 0.03598 0.0
C2645 C 0.42776 0.8274 0.04147 0.0
H2646 H 0.43023 0.86626 1.01334 0.0
H2647 H 0.43135 0.85718 0.04636 0.0
S2648 S 0.42065 0.78697 1.00927 0.0
N2649 N 0.42116 0.80537 0.99517 0.0
N2650 N 0.42325 0.79529 0.03078 0.0
C2651 C 0.4246 0.81397 0.02723 0.0
C2652 C 0.42336 0.81944 1.00784 0.0
C2653 C 0.60677 0.21096 1.00914 0.0
C2654 C 0.60606 0.19201 1.00359 0.0
C2655 C 0.60543 0.21615 0.02825 0.0
C2656 C 0.60369 0.20259 0.04264 0.0
H2657 H 0.60696 0.2219 0.99859 0.0
H2658 H 0.60496 0.23095 0.03171 0.0
S2659 S 0.60247 0.15098 0.03537 0.0
N2660 N 0.60425 0.15969 1.01396 0.0
N2661 N 0.60249 0.16921 0.04968 0.0
C2662 C 0.60418 0.18356 0.03723 0.0
C2663 C 0.60512 0.17835 0.01779 0.0
C2664 C 0.53765 0.68501 0.92715 0.0
C2665 C 0.54302 0.70405 0.92674 0.0
C2666 C 0.51861 0.67963 0.92635 0.0
C2667 C 0.50412 0.69295 0.92439 0.0
H2668 H 0.54811 0.67423 0.92952 0.0
H2669 H 0.51513 0.66495 0.92822 0.0
S2670 S 0.51052 0.74443 0.92073 0.0
N2671 N 0.5321 0.7362 0.9231 0.0
N2672 N 0.49654 0.72592 0.92074 0.0
C2673 C 0.50932 0.71189 0.92258 0.0
C2674 C 0.52868 0.71746 0.92396 0.0
C2675 C 0.31446 0.52772 0.92574 0.0
C2676 C 0.32809 0.5421 0.92703 0.0
C2677 C 0.3196 0.5086 0.92453 0.0
C2678 C 0.33857 0.50304 0.92486 0.0
H2679 H 0.29967 0.5312 0.92648 0.0
H2680 H 0.30863 0.49806 0.92473 0.0
S2681 S 0.37977 0.53478 0.92711 0.0
N2682 N 0.36154 0.54911 0.92736 0.0
N2683 N 0.37098 0.51337 0.92578 0.0
C2684 C 0.35229 0.51722 0.92531 0.0
C2685 C 0.34712 0.53667 0.92615 0.0
C2686 C 0.49432 0.34504 0.92736 0.0
C2687 C 0.48886 0.32602 0.92754 0.0
C2688 C 0.51339 0.35032 0.92641 0.0
C2689 C 0.52782 0.33688 0.9249 0.0
H2690 H 0.4839 0.35595 0.92932 0.0
H2691 H 0.51693 0.36504 0.9278 0.0
S2692 S 0.52122 0.28534 0.92294 0.0
N2693 N 0.49967 0.29373 0.92496 0.0
N2694 N 0.53528 0.30378 0.92242 0.0
C2695 C 0.52255 0.31791 0.92375 0.0
C2696 C 0.50316 0.31246 0.92524 0.0
C2697 C 0.71177 0.52239 0.92426 0.0
C2698 C 0.6928 0.52794 0.92428 0.0
C2699 C 0.71689 0.50328 0.92577 0.0
C2700 C 0.70325 0.48891 0.92704 0.0
H2701 H 0.72273 0.53293 0.92451 0.0
H2702 H 0.73167 0.49982 0.9268 0.0
S2703 S 0.65158 0.49621 0.92632 0.0
N2704 N 0.66038 0.51761 0.92486 0.0
N2705 N 0.66981 0.48189 0.92698 0.0
C2706 C 0.68424 0.49433 0.92581 0.0
C2707 C 0.67908 0.51376 0.92468 0.0
C2708 C 0.53664 0.34555 0.10295 0.0
C2709 C 0.54205 0.32652 0.10321 0.0
C2710 C 0.51759 0.35089 0.10386 0.0
C2711 C 0.50313 0.33753 0.10577 0.0
H2712 H 0.54708 0.35637 0.10063 0.0
H2713 H 0.51407 0.36558 0.10212 0.0
S2714 S 0.50962 0.28603 0.10893 0.0
N2715 N 0.53118 0.29432 0.10661 0.0
N2716 N 0.49561 0.30451 0.10909 0.0
C2717 C 0.50837 0.31858 0.10738 0.0
C2718 C 0.52773 0.31306 0.10592 0.0
C2719 C 0.68486 0.53604 0.10293 0.0
C2720 C 0.70394 0.54133 0.10335 0.0
C2721 C 0.67941 0.51704 0.10379 0.0
C2722 C 0.69268 0.50252 0.10582 0.0
H2723 H 0.67411 0.54652 0.10049 0.0
H2724 H 0.6647 0.51361 0.10189 0.0
S2725 S 0.74424 0.50873 0.10953 0.0
N2726 N 0.73608 0.53031 0.10708 0.0
N2727 N 0.72566 0.49484 0.10954 0.0
C2728 C 0.71166 0.50765 0.10765 0.0
C2729 C 0.71731 0.52696 0.10622 0.0
C2730 C 0.50395 0.71578 0.10531 0.0
C2731 C 0.4895 0.70231 0.10338 0.0
C2732 C 0.52304 0.7105 0.10672 0.0
C2733 C 0.52849 0.69153 0.1059 0.0
H2734 H 0.50057 0.73059 0.10487 0.0
H2735 H 0.53365 0.72139 0.10699 0.0
S2736 S 0.4965 0.65068 0.10191 0.0
N2737 N 0.48227 0.66898 0.10196 0.0
N2738 N 0.51796 0.65926 0.10387 0.0
C2739 C 0.51422 0.67794 0.10484 0.0
C2740 C 0.4948 0.68325 0.10382 0.0
C2741 C 0.31544 0.50323 0.10601 0.0
C2742 C 0.32885 0.48884 0.10334 0.0
C2743 C 0.32074 0.52231 0.10716 0.0
C2744 C 0.33965 0.52782 0.10531 0.0
H2745 H 0.30062 0.49978 0.10641 0.0
H2746 H 0.30985 0.53289 0.10809 0.0
S2747 S 0.38033 0.49598 0.09877 0.0
N2748 N 0.36208 0.48172 0.09988 0.0
N2749 N 0.37181 0.51738 0.10134 0.0
C2750 C 0.35321 0.5136 0.1034 0.0
C2751 C 0.3479 0.49419 0.10264 0.0
C2752 C 0.9283 0.53658 0.68495 0.0
C2753 C 0.92731 0.54216 0.70391 0.0
C2754 C 0.92744 0.51752 0.67975 0.0
C2755 C 0.92485 0.50323 0.69315 0.0
H2756 H 0.93114 0.54688 0.67412 0.0
H2757 H 0.92974 0.51386 0.66516 0.0
S2758 S 0.91947 0.51029 0.74444 0.0
N2759 N 0.92245 0.53171 0.73605 0.0
N2760 N 0.91997 0.49609 0.7261 0.0
C2761 C 0.92248 0.50866 0.71199 0.0
C2762 C 0.92393 0.52804 0.7174 0.0
C2763 C 0.514 0.92709 0.67923 0.0
C2764 C 0.52835 0.9244 0.69257 0.0
C2765 C 0.49493 0.9278 0.68447 0.0
C2766 C 0.48938 0.92656 0.70343 0.0
H2767 H 0.51763 0.92959 0.66467 0.0
H2768 H 0.48459 0.93072 0.6737 0.0
S2769 S 0.52136 0.9183 0.74379 0.0
N2770 N 0.53555 0.9191 0.72544 0.0
N2771 N 0.4999 0.92131 0.73548 0.0
C2772 C 0.50354 0.92306 0.71684 0.0
C2773 C 0.52295 0.92176 0.71138 0.0
C2774 C 0.10416 0.51219 0.67908 0.0
C2775 C 0.10618 0.52664 0.69242 0.0
C2776 C 0.10333 0.49316 0.68443 0.0
C2777 C 0.10377 0.48778 0.70347 0.0
H2778 H 0.10226 0.51569 0.6644 0.0
H2779 H 0.10092 0.48274 0.67363 0.0
S2780 S 0.10995 0.52018 0.74391 0.0
N2781 N 0.10992 0.53417 0.72541 0.0
N2782 N 0.10752 0.49864 0.73565 0.0
C2783 C 0.10662 0.50208 0.71691 0.0
C2784 C 0.10803 0.52142 0.71136 0.0
C2785 C 0.51798 0.10337 0.68023 0.0
C2786 C 0.50352 0.10537 0.69357 0.0
C2787 C 0.53703 0.1027 0.68557 0.0
C2788 C 0.54244 0.10331 0.7046 0.0
H2789 H 0.51448 0.10139 0.66556 0.0
H2790 H 0.54747 0.10034 0.67476 0.0
S2791 S 0.51 0.10946 0.74504 0.0
N2792 N 0.49598 0.10919 0.72656 0.0
N2793 N 0.53158 0.10716 0.73677 0.0
C2794 C 0.52812 0.10611 0.71805 0.0
C2795 C 0.50874 0.10732 0.7125 0.0
C2796 C 0.9283 0.49392 0.34614 0.0
C2797 C 0.9275 0.4884 0.32715 0.0
C2798 C 0.92769 0.51299 0.35139 0.0
C2799 C 0.92555 0.52737 0.338 0.0
H2800 H 0.93077 0.48355 0.35697 0.0
H2801 H 0.92982 0.51657 0.36602 0.0
S2802 S 0.9209 0.52056 0.28661 0.0
N2803 N 0.92331 0.49906 0.29497 0.0
N2804 N 0.92136 0.53469 0.30501 0.0
C2805 C 0.92339 0.52203 0.31912 0.0
C2806 C 0.92456 0.50264 0.31366 0.0
C2807 C 0.50921 0.92529 0.31845 0.0
C2808 C 0.50373 0.92501 0.33744 0.0
C2809 C 0.52832 0.92679 0.31328 0.0
C2810 C 0.54276 0.92778 0.32687 0.0
H2811 H 0.49861 0.92576 0.30755 0.0
H2812 H 0.53173 0.92805 0.29851 0.0
S2813 S 0.53564 0.92623 0.37853 0.0
N2814 N 0.51419 0.92501 0.3698 0.0
N2815 N 0.54992 0.92713 0.36026 0.0
C2816 C 0.53741 0.92626 0.34588 0.0
C2817 C 0.51797 0.92512 0.3511 0.0
C2818 C 0.10626 0.52805 0.31396 0.0
C2819 C 0.10405 0.54247 0.32741 0.0
C2820 C 0.10754 0.50898 0.31927 0.0
C2821 C 0.10628 0.50352 0.33822 0.0
H2822 H 0.1062 0.53145 0.29914 0.0
H2823 H 0.10812 0.49838 0.30837 0.0
S2824 S 0.10105 0.53544 0.379 0.0
N2825 N 0.10164 0.54966 0.36071 0.0
N2826 N 0.1033 0.51402 0.37045 0.0
C2827 C 0.10481 0.51776 0.3518 0.0
C2828 C 0.10393 0.53716 0.34648 0.0
C2829 C 0.51353 0.10425 0.35095 0.0
C2830 C 0.52799 0.1056 0.33751 0.0
C2831 C 0.49447 0.10333 0.34566 0.0
C2832 C 0.48905 0.10302 0.32662 0.0
H2833 H 0.51705 0.10294 0.36569 0.0
H2834 H 0.48404 0.10146 0.35657 0.0
S2835 S 0.52147 0.10722 0.28592 0.0
N2836 N 0.5355 0.10784 0.30438 0.0
N2837 N 0.4999 0.10532 0.2943 0.0
C2838 C 0.50337 0.10518 0.31306 0.0
C2839 C 0.52275 0.10666 0.31852 0.0
C2840 C 0.67949 0.92688 0.51772 0.0
C2841 C 0.69282 0.9248 0.50325 0.0
C2842 C 0.68486 0.92767 0.53676 0.0
C2843 C 0.70391 0.92713 0.54214 0.0
H2844 H 0.66481 0.92885 0.51423 0.0
H2845 H 0.67407 0.93013 0.5472 0.0
S2846 S 0.74433 0.92078 0.50969 0.0
N2847 N 0.72582 0.92091 0.4957 0.0
N2848 N 0.73608 0.92323 0.53125 0.0
C2849 C 0.71733 0.92423 0.52781 0.0
C2850 C 0.71176 0.92286 0.50846 0.0
C2851 C 0.68064 0.10402 0.51349 0.0
C2852 C 0.69411 0.10554 0.52789 0.0
C2853 C 0.6859 0.1032 0.49442 0.0
C2854 C 0.70493 0.10315 0.48893 0.0
H2855 H 0.66592 0.10255 0.51705 0.0
H2856 H 0.67497 0.10123 0.48402 0.0
S2857 S 0.74568 0.10783 0.5212 0.0
N2858 N 0.72724 0.10817 0.53529 0.0
N2859 N 0.73727 0.10587 0.49967 0.0
C2860 C 0.71852 0.10546 0.5032 0.0
C2861 C 0.71308 0.10683 0.52259 0.0
C2862 C 0.92834 0.68454 0.49317 0.0
C2863 C 0.92782 0.70359 0.48785 0.0
C2864 C 0.92761 0.67912 0.51219 0.0
C2865 C 0.92562 0.69241 0.5267 0.0
H2866 H 0.93072 0.67378 0.48269 0.0
H2867 H 0.92955 0.66444 0.51563 0.0
S2868 S 0.92169 0.74388 0.52043 0.0
N2869 N 0.92403 0.7357 0.49883 0.0
N2870 N 0.92185 0.72535 0.53436 0.0
C2871 C 0.92372 0.71135 0.52155 0.0
C2872 C 0.92501 0.71697 0.50221 0.0
C2873 C 0.34619 0.92778 0.49349 0.0
C2874 C 0.32711 0.92742 0.48817 0.0
C2875 C 0.35161 0.927 0.5125 0.0
C2876 C 0.3383 0.9251 0.52701 0.0
H2877 H 0.35698 0.93006 0.48301 0.0
H2878 H 0.36633 0.92881 0.51594 0.0
S2879 S 0.28673 0.92167 0.52077 0.0
N2880 N 0.29493 0.92396 0.49917 0.0
N2881 N 0.30529 0.92163 0.53469 0.0
C2882 C 0.31932 0.92338 0.52187 0.0
C2883 C 0.3137 0.92475 0.50254 0.0
C2884 C 0.10725 0.31997 0.52143 0.0
C2885 C 0.1044 0.3387 0.52708 0.0
C2886 C 0.10622 0.31471 0.5023 0.0
C2887 C 0.10271 0.32804 0.48803 0.0
H2888 H 0.10893 0.30911 0.53194 0.0
H2889 H 0.10746 0.29999 0.49873 0.0
S2890 S 0.09505 0.37904 0.49555 0.0
N2891 N 0.09836 0.37058 0.51688 0.0
N2892 N 0.09713 0.36098 0.48116 0.0
C2893 C 0.10089 0.34695 0.49353 0.0
C2894 C 0.10151 0.35218 0.51295 0.0
C2895 C 0.34594 0.10271 0.53685 0.0
C2896 C 0.32691 0.10326 0.54231 0.0
C2897 C 0.35124 0.10346 0.51779 0.0
C2898 C 0.33786 0.10547 0.50338 0.0
H2899 H 0.35678 0.10034 0.54725 0.0
H2900 H 0.36592 0.10152 0.51425 0.0
S2901 S 0.28637 0.1094 0.51002 0.0
N2902 N 0.29469 0.10705 0.53155 0.0
N2903 N 0.30483 0.10922 0.49595 0.0
C2904 C 0.31892 0.10736 0.50866 0.0
C2905 C 0.31342 0.10606 0.52804 0.0
C2906 C 0.92362 0.31975 0.50966 0.0
C2907 C 0.925 0.3387 0.50426 0.0
C2908 C 0.92486 0.31437 0.52873 0.0
C2909 C 0.92713 0.32776 0.5432 0.0
H2910 H 0.92298 0.3089 0.49902 0.0
H2911 H 0.92481 0.29955 0.53208 0.0
S2912 S 0.93048 0.37933 0.53633 0.0
N2913 N 0.9282 0.37086 0.51487 0.0
N2914 N 0.92977 0.361 0.5505 0.0
C2915 C 0.92739 0.34683 0.53794 0.0
C2916 C 0.92657 0.35222 0.51856 0.0
C2917 C 0.10429 0.67907 0.51751 0.0
C2918 C 0.10682 0.69242 0.50316 0.0
C2919 C 0.1035 0.68433 0.53657 0.0
C2920 C 0.10448 0.7033 0.54209 0.0
H2921 H 0.10199 0.66447 0.51391 0.0
H2922 H 0.10071 0.67354 0.54691 0.0
S2923 S 0.11223 0.7437 0.51005 0.0
N2924 N 0.11169 0.72532 0.4959 0.0
N2925 N 0.1093 0.73539 0.53152 0.0
C2926 C 0.10781 0.71673 0.52791 0.0
C2927 C 0.10921 0.71126 0.50853 0.0
C2928 C 0.10339 0.18271 0.52583 0.0
C2929 C 0.08745 0.17144 0.52885 0.0
C2930 C 0.10901 0.18735 0.5076 0.0
C2931 C 0.09918 0.18052 0.49191 0.0
H2932 H 0.11012 0.18988 0.53743 0.0
H2933 H 0.1199 0.19784 0.50581 0.0
S2934 S 0.06035 0.14599 0.49237 0.0
N2935 N 0.06473 0.15015 0.51477 0.0
N2936 N 0.07558 0.15877 0.48043 0.0
C2937 C 0.0853 0.16685 0.49472 0.0
C2938 C 0.07938 0.16229 0.51329 0.0
C2939 C 0.84186 0.10812 0.50801 0.0
C2940 C 0.84925 0.09852 0.49242 0.0
C2941 C 0.84628 0.10255 0.52631 0.0
C2942 C 0.85789 0.08692 0.5295 0.0
H2943 H 0.83116 0.11877 0.50605 0.0
H2944 H 0.83872 0.10906 0.5378 0.0
S2945 S 0.88469 0.06053 0.49345 0.0
N2946 N 0.87178 0.07548 0.4813 0.0
N2947 N 0.87997 0.06473 0.51577 0.0
C2948 C 0.8675 0.07908 0.51409 0.0
C2949 C 0.86318 0.08495 0.49545 0.0
C2950 C 0.95199 0.86558 0.51309 0.0
C2951 C 0.94325 0.85694 0.52863 0.0
C2952 C 0.94615 0.86167 0.49472 0.0
C2953 C 0.93148 0.84895 0.49144 0.0
H2954 H 0.96463 0.87383 0.515 0.0
H2955 H 0.95458 0.8668 0.48313 0.0
S2956 S 0.90057 0.82709 0.52708 0.0
N2957 N 0.9164 0.83868 0.53943 0.0
N2958 N 0.90576 0.83108 0.50483 0.0
C2959 C 0.92088 0.84258 0.50677 0.0
C2960 C 0.92665 0.84671 0.52546 0.0
C2961 C 0.16943 0.94534 0.49504 0.0
C2962 C 0.18227 0.93079 0.49172 0.0
C2963 C 0.16535 0.95102 0.51343 0.0
C2964 C 0.17395 0.94224 0.52895 0.0
H2965 H 0.16429 0.95379 0.48348 0.0
H2966 H 0.15699 0.96358 0.51538 0.0
S2967 S 0.20414 0.89981 0.52726 0.0
N2968 N 0.20027 0.90514 0.50503 0.0
N2969 N 0.19235 0.91546 0.53966 0.0
C2970 C 0.18434 0.92574 0.52572 0.0
C2971 C 0.18865 0.92014 0.50701 0.0
C2972 C 0.10429 0.84558 0.50457 0.0
C2973 C 0.08882 0.85742 0.50138 0.0
C2974 C 0.10968 0.84091 0.52287 0.0
C2975 C 0.10007 0.84829 0.53846 0.0
H2976 H 0.11078 0.83804 0.49306 0.0
H2977 H 0.12017 0.83005 0.52479 0.0
S2978 S 0.06249 0.88416 0.53753 0.0
N2979 N 0.0668 0.87963 0.51519 0.0
N2980 N 0.07722 0.87097 0.54965 0.0
C2981 C 0.0867 0.86241 0.53547 0.0
C2982 C 0.08101 0.86699 0.51684 0.0
C2983 C 0.16407 0.07778 0.51727 0.0
C2984 C 0.17236 0.08688 0.50175 0.0
C2985 C 0.16803 0.0835 0.53567 0.0
C2986 C 0.18042 0.09844 0.53898 0.0
H2987 H 0.15612 0.06496 0.5153 0.0
H2988 H 0.16326 0.07481 0.54721 0.0
S2989 S 0.20113 0.13027 0.50351 0.0
N2990 N 0.18982 0.1143 0.49108 0.0
N2991 N 0.19749 0.12473 0.52572 0.0
C2992 C 0.18635 0.10937 0.52372 0.0
C2993 C 0.18218 0.10371 0.505 0.0
C2994 C 0.92184 0.1883 0.52377 0.0
C2995 C 0.93162 0.18114 0.53933 0.0
C2996 C 0.9273 0.18374 0.50546 0.0
C2997 C 0.94302 0.17224 0.50223 0.0
H2998 H 0.91113 0.19894 0.52572 0.0
H2999 H 0.92064 0.19115 0.49397 0.0
S3000 S 0.96994 0.14605 0.53831 0.0
N3001 N 0.95496 0.15894 0.55047 0.0
N3002 N 0.9655 0.15049 0.51598 0.0
C3003 C 0.95104 0.16283 0.51766 0.0
C3004 C 0.94528 0.1673 0.53631 0.0
C3005 C 0.8665 0.95108 0.51746 0.0
C3006 C 0.85779 0.94248 0.50188 0.0
C3007 C 0.86243 0.94527 0.53581 0.0
C3008 C 0.84948 0.9308 0.53903 0.0
H3009 H 0.87495 0.96359 0.51557 0.0
H3010 H 0.86767 0.95358 0.54743 0.0
S3011 S 0.8271 0.90042 0.50329 0.0
N3012 N 0.83903 0.91603 0.491 0.0
N3013 N 0.83114 0.90548 0.52555 0.0
C3014 C 0.84294 0.92036 0.52367 0.0
C3015 C 0.84724 0.92608 0.505 0.0
C3016 C 0.4957 0.08524 0.16979 0.0
C3017 C 0.49249 0.09962 0.18284 0.0
C3018 C 0.51405 0.07934 0.16579 0.0
C3019 C 0.52964 0.08775 0.17466 0.0
H3020 H 0.48406 0.07707 0.16438 0.0
H3021 H 0.5159 0.06691 0.15722 0.0
S3022 S 0.52831 0.12955 0.20572 0.0
N3023 N 0.50603 0.12468 0.20149 0.0
N3024 N 0.54058 0.11394 0.19374 0.0
C3025 C 0.52656 0.10407 0.18536 0.0
C3026 C 0.50789 0.10988 0.18959 0.0
C3027 C 0.94591 0.49482 0.1683 0.0
C3028 C 0.93113 0.49177 0.18095 0.0
C3029 C 0.95183 0.51311 0.16416 0.0
C3030 C 0.94307 0.52878 0.17254 0.0
H3031 H 0.95437 0.48315 0.16343 0.0
H3032 H 0.96456 0.51486 0.156 0.0
S3033 S 0.90002 0.52775 0.20193 0.0
N3034 N 0.90523 0.50546 0.19834 0.0
N3035 N 0.916 0.5399 0.19033 0.0
C3036 C 0.92632 0.52581 0.18262 0.0
C3037 C 0.92047 0.5072 0.18697 0.0
C3038 C 0.51826 0.95171 0.16521 0.0
C3039 C 0.50259 0.94311 0.17375 0.0
C3040 C 0.53658 0.94576 0.16926 0.0
C3041 C 0.53968 0.93112 0.18205 0.0
H3042 H 0.51648 0.9643 0.15686 0.0
H3043 H 0.54826 0.95403 0.16411 0.0
S3044 S 0.50365 0.90071 0.20396 0.0
N3045 N 0.49148 0.91653 0.19219 0.0
N3046 N 0.52597 0.9057 0.20008 0.0
C3047 C 0.52422 0.92073 0.18847 0.0
C3048 C 0.50558 0.9266 0.18416 0.0
C3049 C 0.10935 0.52296 0.18804 0.0
C3050 C 0.09967 0.53861 0.18092 0.0
C3051 C 0.10375 0.50471 0.18347 0.0
C3052 C 0.08798 0.50161 0.17199 0.0
H3053 H 0.1201 0.52481 0.19866 0.0
H3054 H 0.11035 0.49316 0.19084 0.0
S3055 S 0.06124 0.53792 0.14595 0.0
N3056 N 0.07635 0.54994 0.1588 0.0
N3057 N 0.06553 0.51556 0.15034 0.0
C3058 C 0.08004 0.51712 0.16264 0.0
C3059 C 0.08595 0.53571 0.16712 0.0
C3060 C 0.50866 0.92215 0.84302 0.0
C3061 C 0.49305 0.93202 0.85 0.0
C3062 C 0.52695 0.9276 0.84767 0.0
C3063 C 0.53011 0.94338 0.8591 0.0
H3064 H 0.50677 0.91143 0.83239 0.0
H3065 H 0.53848 0.92089 0.84035 0.0
S3066 S 0.49387 0.97036 0.88504 0.0
N3067 N 0.48177 0.95539 0.8721 0.0
N3068 N 0.51624 0.96589 0.88075 0.0
C3069 C 0.51462 0.95142 0.86843 0.0
C3070 C 0.49598 0.94568 0.86385 0.0
C3071 C 0.0797 0.51301 0.86579 0.0
C3072 C 0.08841 0.52857 0.85717 0.0
C3073 C 0.0854 0.49466 0.86162 0.0
C3074 C 0.09988 0.49142 0.84866 0.0
H3075 H 0.06717 0.51492 0.87422 0.0
H3076 H 0.077 0.48307 0.86678 0.0
S3077 S 0.13067 0.52706 0.82668 0.0
N3078 N 0.11506 0.53939 0.83861 0.0
N3079 N 0.12542 0.50482 0.83054 0.0
C3080 C 0.11047 0.50674 0.84227 0.0
C3081 C 0.10486 0.52541 0.84667 0.0
C3082 C 0.51738 0.07843 0.86685 0.0
C3083 C 0.5017 0.08735 0.85865 0.0
C3084 C 0.5357 0.08435 0.86274 0.0
C3085 C 0.53877 0.09928 0.8503 0.0
H3086 H 0.5156 0.06562 0.87483 0.0
H3087 H 0.54737 0.0758 0.86747 0.0
S3088 S 0.5028 0.13069 0.82979 0.0
N3089 N 0.49062 0.11462 0.84122 0.0
N3090 N 0.52511 0.12539 0.83327 0.0
C3091 C 0.52334 0.11003 0.84445 0.0
C3092 C 0.50471 0.10419 0.84877 0.0
C3093 C 0.95122 0.51669 0.86602 0.0
C3094 C 0.9426 0.50108 0.8574 0.0
C3095 C 0.94561 0.53503 0.86168 0.0
C3096 C 0.93128 0.53821 0.84856 0.0
H3097 H 0.96364 0.51482 0.87462 0.0
H3098 H 0.95395 0.54664 0.86688 0.0
S3099 S 0.90074 0.50247 0.82639 0.0
N3100 N 0.91618 0.4902 0.83858 0.0
N3101 N 0.90598 0.52472 0.83018 0.0
C3102 C 0.92077 0.52286 0.8421 0.0
C3103 C 0.9263 0.50421 0.84667 0.0
C3104 C 0.18815 0.50734 0.10789 0.0
C3105 C 0.18105 0.49177 0.09806 0.0
C3106 C 0.1837 0.52563 0.10234 0.0
C3107 C 0.17236 0.52883 0.08651 0.0
H3108 H 0.1987 0.50539 0.11869 0.0
H3109 H 0.19108 0.53712 0.10905 0.0
S3110 S 0.14621 0.49277 0.05953 0.0
N3111 N 0.15896 0.48063 0.07462 0.0
N3112 N 0.15071 0.51509 0.06392 0.0
C3113 C 0.16295 0.51341 0.07846 0.0
C3114 C 0.16731 0.49478 0.0843 0.0
C3115 C 0.16495 0.51699 0.95174 0.0
C3116 C 0.17318 0.50135 0.94278 0.0
C3117 C 0.16906 0.53531 0.94589 0.0
C3118 C 0.18154 0.53843 0.93098 0.0
H3119 H 0.1569 0.51517 0.96452 0.0
H3120 H 0.16427 0.54694 0.95445 0.0
S3121 S 0.20216 0.50259 0.89948 0.0
N3122 N 0.1907 0.49037 0.9155 0.0
N3123 N 0.19867 0.52486 0.90486 0.0
C3124 C 0.18746 0.52305 0.9202 0.0
C3125 C 0.18313 0.50441 0.92598 0.0
C3126 C 0.49495 0.16921 0.94586 0.0
C3127 C 0.49167 0.18211 0.93136 0.0
C3128 C 0.51332 0.16527 0.9517 0.0
C3129 C 0.52888 0.17404 0.94311 0.0
H3130 H 0.48334 0.16392 0.95416 0.0
H3131 H 0.51523 0.15684 0.96421 0.0
S3132 S 0.52738 0.20461 0.90098 0.0
N3133 N 0.50512 0.20044 0.90601 0.0
N3134 N 0.53972 0.19281 0.91666 0.0
C3135 C 0.52573 0.18455 0.92669 0.0
C3136 C 0.50704 0.18871 0.92093 0.0
C3137 C 0.84577 0.52521 0.92777 0.0
C3138 C 0.85777 0.5285 0.94309 0.0
C3139 C 0.84114 0.50689 0.92245 0.0
C3140 C 0.84872 0.49136 0.93198 0.0
H3141 H 0.83811 0.53667 0.92134 0.0
H3142 H 0.83021 0.50489 0.91206 0.0
S3143 S 0.88498 0.4926 0.96919 0.0
N3144 N 0.88025 0.51489 0.96491 0.0
N3145 N 0.87172 0.48037 0.95461 0.0
C3146 C 0.86295 0.49446 0.94522 0.0
C3147 C 0.86747 0.51312 0.95085 0.0
C3148 C 0.50585 0.84587 0.92703 0.0
C3149 C 0.50261 0.85762 0.94256 0.0
C3150 C 0.52417 0.8414 0.92152 0.0
C3151 C 0.53975 0.84887 0.93107 0.0
H3152 H 0.49436 0.83827 0.92055 0.0
H3153 H 0.52615 0.83064 0.91095 0.0
S3154 S 0.53862 0.88461 0.96878 0.0
N3155 N 0.51629 0.87986 0.96458 0.0
N3156 N 0.55082 0.87159 0.95395 0.0
C3157 C 0.53668 0.8629 0.94453 0.0
C3158 C 0.51801 0.86728 0.95034 0.0
C3159 C 0.86625 0.5167 0.07921 0.0
C3160 C 0.85756 0.50124 0.08801 0.0
C3161 C 0.86228 0.53511 0.08489 0.0
C3162 C 0.84946 0.53849 0.09945 0.0
H3163 H 0.8746 0.5147 0.06664 0.0
H3164 H 0.86749 0.54663 0.07643 0.0
S3165 S 0.82737 0.5031 0.13045 0.0
N3166 N 0.83909 0.49064 0.1148 0.0
N3167 N 0.83137 0.5253 0.12512 0.0
C3168 C 0.84299 0.52325 0.1101 0.0
C3169 C 0.84719 0.50452 0.10451 0.0
C3170 C 0.50846 0.84169 0.10809 0.0
C3171 C 0.49288 0.84907 0.09847 0.0
C3172 C 0.52678 0.84621 0.10262 0.0
C3173 C 0.53001 0.85789 0.08705 0.0
H3174 H 0.50648 0.83094 0.11867 0.0
H3175 H 0.53827 0.83866 0.10914 0.0
S3176 S 0.49398 0.88463 0.06063 0.0
N3177 N 0.48179 0.87164 0.07548 0.0
N3178 N 0.51631 0.87999 0.0649 0.0
C3179 C 0.5146 0.86748 0.0792 0.0
C3180 C 0.49593 0.86306 0.08498 0.0
C3181 C 0.53596 0.16899 0.0855 0.0
C3182 C 0.53922 0.18165 0.10022 0.0
C3183 C 0.5176 0.16518 0.07954 0.0
C3184 C 0.50204 0.17386 0.08821 0.0
H3185 H 0.54759 0.16381 0.07714 0.0
H3186 H 0.51573 0.15694 0.06689 0.0
S3187 S 0.50347 0.20365 0.13093 0.0
N3188 N 0.52574 0.19957 0.12586 0.0
N3189 N 0.49116 0.19215 0.11501 0.0
C3190 C 0.50515 0.18407 0.10484 0.0
C3191 C 0.52384 0.18811 0.11072 0.0
C3192 C 0.58556 0.66889 0.99474 0.0
C3193 C 0.6003 0.68156 0.99159 0.0
C3194 C 0.57978 0.66471 1.01308 0.0
C3195 C 0.58865 0.67305 0.02871 0.0
H3196 H 0.57706 0.66399 0.98311 0.0
H3197 H 0.5671 0.65651 1.01492 0.0
S3198 S 0.63154 0.70261 0.0274 0.0
N3199 N 0.6262 0.69904 1.00513 0.0
N3200 N 0.61569 0.69094 0.03965 0.0
C3201 C 0.60531 0.68322 0.02562 0.0
C3202 C 0.61101 0.68762 1.00696 0.0
C3203 C 0.36634 0.57966 1.01273 0.0
C3204 C 0.35768 0.58831 0.0283 0.0
C3205 C 0.36231 0.58547 0.99437 0.0
C3206 C 0.34944 0.60002 0.99115 0.0
H3207 H 0.37473 0.56711 1.0146 0.0
H3208 H 0.36751 0.57712 0.98276 0.0
S3209 S 0.32736 0.63065 0.0269 0.0
N3210 N 0.33916 0.61494 0.03919 0.0
N3211 N 0.33132 0.62552 1.00464 0.0
C3212 C 0.34298 0.61052 1.00652 0.0
C3213 C 0.34725 0.60479 0.02519 0.0
C3214 C 0.45162 0.36629 1.01367 0.0
C3215 C 0.44275 0.35789 0.02927 0.0
C3216 C 0.44594 0.36208 0.99531 0.0
C3217 C 0.43128 0.34934 0.99211 0.0
H3218 H 0.46426 0.37455 0.01555 0.0
H3219 H 0.45446 0.36703 0.98371 0.0
S3220 S 0.39994 0.32821 0.02782 0.0
N3221 N 0.41571 0.33993 0.04012 0.0
N3222 N 0.40537 0.33179 1.00556 0.0
C3223 C 0.42052 0.34324 1.00745 0.0
C3224 C 0.42613 0.34767 0.02612 0.0
C3225 C 0.66398 0.45229 1.01319 0.0
C3226 C 0.6722 0.44311 0.0287 0.0
C3227 C 0.66794 0.44658 0.99478 0.0
C3228 C 0.68024 0.43158 0.99145 0.0
H3229 H 0.6561 0.46515 1.01517 0.0
H3230 H 0.66324 0.45532 0.98325 0.0
S3231 S 0.70059 0.39947 0.02688 0.0
N3232 N 0.68939 0.41551 0.03932 0.0
N3233 N 0.69707 0.40511 1.00467 0.0
C3234 C 0.68606 0.42056 1.0067 0.0
C3235 C 0.68189 0.42621 0.02542 0.0
C3236 C 0.60893 0.34192 0.02252 0.0
C3237 C 0.59917 0.34916 0.03809 0.0
C3238 C 0.60363 0.34665 1.00422 0.0
C3239 C 0.58811 0.35841 1.001 0.0
H3240 H 0.61945 0.3311 0.02446 0.0
H3241 H 0.61021 0.33917 0.99272 0.0
S3242 S 0.56153 0.38496 0.03708 0.0
N3243 N 0.57621 0.37176 0.04924 0.0
N3244 N 0.56597 0.38052 1.01475 0.0
C3245 C 0.5802 0.36791 0.01644 0.0
C3246 C 0.58579 0.36327 0.03509 0.0
C3247 C 0.68416 0.60322 1.00437 0.0
C3248 C 0.67253 0.58763 1.00101 0.0
C3249 C 0.68875 0.60846 0.02273 0.0
C3250 C 0.6815 0.59858 0.0382 0.0
H3251 H 0.69166 0.6099 0.99294 0.0
H3252 H 0.6995 0.61903 0.02478 0.0
S3253 S 0.64589 0.56078 0.03681 0.0
N3254 N 0.65044 0.56534 1.01452 0.0
N3255 N 0.65896 0.57547 0.04911 0.0
C3256 C 0.66747 0.58515 0.03505 0.0
C3257 C 0.66297 0.57961 0.01635 0.0
C3258 C 0.4471 0.6681 0.03517 0.0
C3259 C 0.43234 0.68072 0.0384 0.0
C3260 C 0.45288 0.66405 0.0168 0.0
C3261 C 0.44401 0.67249 1.00123 0.0
H3262 H 0.45563 0.66317 0.04676 0.0
H3263 H 0.4656 0.6559 1.0149 0.0
S3264 S 0.4011 0.70203 1.00276 0.0
N3265 N 0.40643 0.69828 0.02501 0.0
N3266 N 0.41695 0.69044 0.99042 0.0
C3267 C 0.42732 0.6826 1.0044 0.0
C3268 C 0.42161 0.68686 0.02308 0.0
C3269 C 0.34692 0.42759 1.005 0.0
C3270 C 0.3585 0.44326 1.00181 0.0
C3271 C 0.34235 0.42211 0.02329 0.0
C3272 C 0.34959 0.43181 0.03888 0.0
H3273 H 0.33947 0.421 0.99349 0.0
H3274 H 0.33166 0.41146 0.02523 0.0
S3275 S 0.38482 0.46998 0.03795 0.0
N3276 N 0.38034 0.46562 0.01561 0.0
N3277 N 0.3719 0.45502 0.05007 0.0
C3278 C 0.36349 0.44541 0.03589 0.0
C3279 C 0.36795 0.45121 0.01726 0.0
C3280 C 1.00808 0.60803 0.68843 0.0
C3281 C 0.99241 0.59847 0.68117 0.0
C3282 C 0.02635 0.60239 0.68391 0.0
C3283 C 0.02944 0.58671 0.67232 0.0
H3284 H 1.00622 0.61872 0.6991 0.0
H3285 H 0.03791 0.60889 0.69137 0.0
S3286 S 0.99314 0.56035 0.64587 0.0
N3287 N 0.98109 0.57539 0.65879 0.0
N3288 N 1.01551 0.5645 0.65042 0.0
C3289 C 1.01394 0.57889 0.66285 0.0
C3290 C 0.99533 0.58484 0.66727 0.0
C3291 C 0.45196 1.01303 0.66484 0.0
C3292 C 0.44326 0.02854 0.67358 0.0
C3293 C 0.44624 0.99465 0.66885 0.0
C3294 C 0.43175 0.99132 0.68177 0.0
H3295 H 0.46448 1.015 0.65642 0.0
H3296 H 0.45462 0.98309 0.66358 0.0
S3297 S 0.40107 0.02683 0.70415 0.0
N3298 N 0.41668 0.03923 0.6923 0.0
N3299 N 0.40627 1.00462 0.70007 0.0
C3300 C 0.4212 1.00661 0.68833 0.0
C3301 C 0.42684 0.02531 0.68409 0.0
C3302 C 0.03536 0.44523 0.66861 0.0
C3303 C 0.03856 0.43059 0.68136 0.0
C3304 C 0.017 0.45114 0.66467 0.0
C3305 C 1.00142 0.44251 0.67335 0.0
H3306 H 0.04699 0.45358 0.66346 0.0
H3307 H 1.01515 0.46375 0.65639 0.0
S3308 S 1.00278 0.39993 0.7033 0.0
N3309 N 0.02506 0.405 0.69929 0.0
N3310 N 0.99049 0.41577 0.69168 0.0
C3311 C 1.00451 0.42592 0.68361 0.0
C3312 C 0.02318 0.42008 0.68775 0.0
C3313 C 0.60358 1.00482 0.68587 0.0
C3314 C 0.58823 1.00162 0.67388 0.0
C3315 C 0.60907 0.02312 0.69042 0.0
C3316 C 0.59967 0.03871 0.68279 0.0
H3317 H 0.60993 0.99334 0.69356 0.0
H3318 H 0.61949 0.02507 0.70133 0.0
S3319 S 0.56245 0.03764 0.64652 0.0
N3320 N 0.56653 0.01533 0.65135 0.0
N3321 N 0.57712 0.0498 0.65974 0.0
C3322 C 0.58639 0.03566 0.66858 0.0
C3323 C 0.5806 0.01702 0.66413 0.0
C3324 C 1.01371 0.45164 0.36534 0.0
C3325 C 0.02926 0.443 0.35663 0.0
C3326 C 0.99534 0.44566 0.36156 0.0
C3327 C 0.99209 0.43095 0.34889 0.0
H3328 H 1.01558 0.46428 0.37359 0.0
H3329 H 0.98372 0.45399 0.36678 0.0
S3330 S 0.02783 0.40033 0.32678 0.0
N3331 N 0.04015 0.41626 0.33827 0.0
N3332 N 1.00557 0.40536 0.33092 0.0
C3333 C 1.00747 0.42048 0.34239 0.0
C3334 C 0.02615 0.42639 0.3464 0.0
C3335 C 0.57947 1.01357 0.36707 0.0
C3336 C 0.58838 0.02921 0.35878 0.0
C3337 C 0.58521 0.99524 0.36283 0.0
C3338 C 0.59998 0.99211 0.35018 0.0
H3339 H 0.56674 0.01541 0.37521 0.0
H3340 H 0.57665 0.98362 0.36763 0.0
S3341 S 0.63139 0.02791 0.32935 0.0
N3342 N 0.61552 0.04015 0.34103 0.0
N3343 N 0.626 1.00565 0.33285 0.0
C3344 C 0.61078 1.00748 0.34424 0.0
C3345 C 0.60509 0.02612 0.34868 0.0
C3346 C 1.00577 0.60289 0.34595 0.0
C3347 C 1.00271 0.58714 0.35745 0.0
C3348 C 0.02402 0.60859 0.34145 0.0
C3349 C 0.03972 0.59903 0.34866 0.0
H3350 H 0.99419 0.60942 0.33855 0.0
H3351 H 0.02586 0.61934 0.33084 0.0
S3352 S 0.03911 0.56065 0.38364 0.0
N3353 N 0.01672 0.56479 0.37915 0.0
N3354 N 0.05111 0.5758 0.37083 0.0
C3355 C 0.03684 0.5853 0.36245 0.0
C3356 C 0.01824 0.57928 0.36684 0.0
C3357 C 0.45273 0.01709 0.36697 0.0
C3358 C 0.44364 1.00154 0.35873 0.0
C3359 C 0.44686 0.03545 0.36307 0.0
C3360 C 0.43179 0.03868 0.35083 0.0
H3361 H 0.46565 1.0152 0.37477 0.0
H3362 H 0.45555 0.04703 0.36775 0.0
S3363 S 0.39983 1.00307 0.33055 0.0
N3364 N 0.41601 0.99073 0.34166 0.0
N3365 N 0.40531 0.0253 0.33411 0.0
C3366 C 0.42083 0.02337 0.34505 0.0
C3367 C 0.42665 1.0047 0.34915 0.0
C3368 C 0.66883 0.99533 0.58528 0.0
C3369 C 0.68177 0.99209 0.59976 0.0
C3370 C 0.66459 1.0137 0.57967 0.0
C3371 C 0.67316 0.02926 0.58844 0.0
H3372 H 0.66374 0.98376 0.57682 0.0
H3373 H 0.65619 0.01562 0.56713 0.0
S3374 S 0.70354 0.02769 0.63073 0.0
N3375 N 0.69978 1.00546 0.62537 0.0
N3376 N 0.6916 0.04003 0.61517 0.0
C3377 C 0.68362 0.02607 0.60489 0.0
C3378 C 0.68807 1.00739 0.61043 0.0
C3379 C 0.6649 0.01733 0.45182 0.0
C3380 C 0.67332 1.00171 0.44302 0.0
C3381 C 0.66907 0.03566 0.44604 0.0
C3382 C 0.68184 0.03881 0.43138 0.0
H3383 H 0.65662 0.01549 0.46446 0.0
H3384 H 0.66408 0.04729 0.45449 0.0
S3385 S 0.7032 1.003 0.40033 0.0
N3386 N 0.69145 0.99076 0.41613 0.0
N3387 N 0.69953 0.02526 0.40561 0.0
C3388 C 0.68801 0.02343 0.42073 0.0
C3389 C 0.68361 1.00479 0.42643 0.0
C3390 C 1.01412 0.66476 0.45135 0.0
C3391 C 0.02981 0.67322 0.4427 0.0
C3392 C 0.99581 0.66889 0.44542 0.0
C3393 C 0.99275 0.68164 0.43075 0.0
H3394 H 0.01587 0.65647 0.46398 0.0
H3395 H 0.98411 0.66386 0.45376 0.0
S3396 S 0.0288 0.70311 0.40005 0.0
N3397 N 0.04095 0.69138 0.41593 0.0
N3398 N 1.00648 0.69939 0.40514 0.0
C3399 C 1.00821 0.68787 0.42025 0.0
C3400 C 0.02684 0.68352 0.4261 0.0
C3401 C 0.34722 0.02588 0.42744 0.0
C3402 C 0.35867 0.02899 0.44322 0.0
C3403 C 0.34276 1.00762 0.4218 0.0
C3404 C 0.34994 0.99199 0.43147 0.0
H3405 H 0.3398 0.03741 0.42087 0.0
H3406 H 0.33215 1.00574 0.41105 0.0
S3407 S 0.385 0.99279 0.46981 0.0
N3408 N 0.38046 1.01514 0.46559 0.0
N3409 N 0.37218 0.98073 0.45471 0.0
C3410 C 0.36376 0.99493 0.44517 0.0
C3411 C 0.36813 1.01353 0.45111 0.0
C3412 C 1.00483 0.34557 0.42798 0.0
C3413 C 1.00188 0.35715 0.4437 0.0
C3414 C 0.02305 0.34117 0.42209 0.0
C3415 C 0.0388 0.34855 0.43143 0.0
H3416 H 0.99323 0.33807 0.42163 0.0
H3417 H 0.02484 0.33051 0.41138 0.0
S3418 S 0.03839 0.38371 0.46969 0.0
N3419 N 0.01599 0.37905 0.46581 0.0
N3420 N 0.0503 0.37091 0.45444 0.0
C3421 C 0.03598 0.36239 0.44514 0.0
C3422 C 0.01743 0.36668 0.45135 0.0
C3423 C 0.34205 0.0229 0.60844 0.0
C3424 C 0.34934 0.0386 0.59898 0.0
C3425 C 0.34675 1.00468 0.60283 0.0
C3426 C 0.35853 1.00168 0.58726 0.0
H3427 H 0.33126 0.02468 0.61903 0.0
H3428 H 0.33928 0.99308 0.60924 0.0
S3429 S 0.38505 0.03811 0.56119 0.0
N3430 N 0.37191 0.05006 0.57612 0.0
N3431 N 0.38057 0.01573 0.56526 0.0
C3432 C 0.368 0.01722 0.57955 0.0
C3433 C 0.3634 0.03578 0.58548 0.0
C3434 C 1.00696 0.34083 0.60975 0.0
C3435 C 0.9913 0.34841 0.60041 0.0
C3436 C 0.02524 0.34522 0.60403 0.0
C3437 C 0.02833 0.357 0.5885 0.0
H3438 H 1.00506 0.33002 0.62028 0.0
H3439 H 0.03676 0.33753 0.61032 0.0
S3440 S 0.99213 0.38427 0.56284 0.0
N3441 N 0.98006 0.37127 0.57778 0.0
N3442 N 1.01449 0.37939 0.56675 0.0
C3443 C 1.01289 0.36678 0.58096 0.0
C3444 C 0.99427 0.36249 0.58699 0.0
C3445 C 0.01825 0.66395 0.57803 0.0
C3446 C 1.00257 0.67226 0.58687 0.0
C3447 C 0.03657 0.66803 0.58396 0.0
C3448 C 0.03965 0.68056 0.59882 0.0
H3449 H 0.01647 0.65586 0.56528 0.0
H3450 H 0.04825 0.66315 0.5755 0.0
S3451 S 1.00366 0.70152 0.62996 0.0
N3452 N 0.99148 0.69 0.61395 0.0
N3453 N 0.02598 0.69791 0.62474 0.0
C3454 C 0.02421 0.68661 0.60947 0.0
C3455 C 1.00557 0.68231 0.60361 0.0
loop_
_geom_bond_atom_site_label_1
_geom_bond_atom_site_label_2
_geom_bond_distance
_geom_bond_site_symmetry_2
_ccdc_geom_bond_type
Co0 O1 2.216 . S
Co0 O2 2.091 . S
Co0 O4 2.004 . S
Co0 O10 2.021 . S
Co0 O12 2.137 . S
Co0 O13 2.244 . S
O1 Co0 2.216 . S
O1 C8 1.247 . S
O2 Co0 2.091 . S
O2 C8 1.261 . S
C3 O12 1.247 . S
C3 O13 1.272 . S
O4 Co0 2.004 . S
O4 C9 1.259 . S
Co5 O6 2.061 . S
Co5 O11 2.052 . S
Co5 O13 2.135 . S
O6 Co5 2.061 . S
O6 C9 1.235 . S
C7 O10 1.238 . S
C7 O11 1.241 . S
C8 O1 1.247 . S
C8 O2 1.261 . S
C9 O4 1.259 . S
C9 O6 1.235 . S
O10 Co0 2.021 . S
O10 C7 1.238 . S
O11 Co5 2.052 . S
O11 C7 1.241 . S
O12 Co0 2.137 . S
O12 C3 1.247 . S
O13 Co0 2.244 . S
O13 C3 1.272 . S
O13 Co5 2.135 . S
Co14 O15 2.216 . S
Co14 O16 2.091 . S
Co14 O18 2.004 . S
Co14 O24 2.021 . S
Co14 O26 2.137 . S
Co14 O27 2.244 . S
O15 Co14 2.216 . S
O15 C22 1.247 . S
O16 Co14 2.091 . S
O16 C22 1.261 . S
C17 O26 1.247 . S
C17 O27 1.272 . S
O18 Co14 2.004 . S
O18 C23 1.259 . S
Co19 O20 2.061 . S
Co19 O25 2.052 . S
Co19 O27 2.135 . S
O20 Co19 2.061 . S
O20 C23 1.235 . S
C21 O24 1.238 . S
C21 O25 1.241 . S
C22 O15 1.247 . S
C22 O16 1.261 . S
C23 O18 1.259 . S
C23 O20 1.235 . S
O24 Co14 2.021 . S
O24 C21 1.238 . S
O25 Co19 2.052 . S
O25 C21 1.241 . S
O26 Co14 2.137 . S
O26 C17 1.247 . S
O27 Co14 2.244 . S
O27 C17 1.272 . S
O27 Co19 2.135 . S
Co28 O29 2.216 . S
Co28 O30 2.091 . S
Co28 O32 2.004 . S
Co28 O38 2.021 . S
Co28 O40 2.137 . S
Co28 O41 2.244 . S
O29 Co28 2.216 . S
O29 C36 1.247 . S
O30 Co28 2.091 . S
O30 C36 1.261 . S
C31 O40 1.247 . S
C31 O41 1.272 . S
O32 Co28 2.004 . S
O32 C37 1.259 . S
Co33 O34 2.061 . S
Co33 O39 2.052 . S
Co33 O41 2.135 . S
O34 Co33 2.061 . S
O34 C37 1.235 . S
C35 O38 1.238 . S
C35 O39 1.241 . S
C36 O29 1.247 . S
C36 O30 1.261 . S
C37 O32 1.259 . S
C37 O34 1.235 . S
O38 Co28 2.021 . S
O38 C35 1.238 . S
O39 Co33 2.052 . S
O39 C35 1.241 . S
O40 Co28 2.137 . S
O40 C31 1.247 . S
O41 Co28 2.244 . S
O41 C31 1.272 . S
O41 Co33 2.135 . S
Co42 O43 2.216 . S
Co42 O44 2.091 . S
Co42 O46 2.004 . S
Co42 O52 2.021 . S
Co42 O54 2.137 . S
Co42 O55 2.244 . S
O43 Co42 2.216 . S
O43 C50 1.247 . S
O44 Co42 2.091 . S
O44 C50 1.261 . S
C45 O54 1.247 . S
C45 O55 1.272 . S
O46 Co42 2.004 . S
O46 C51 1.259 . S
Co47 O48 2.061 . S
Co47 O53 2.052 . S
Co47 O55 2.135 . S
O48 Co47 2.061 . S
O48 C51 1.235 . S
C49 O52 1.238 . S
C49 O53 1.241 . S
C50 O43 1.247 . S
C50 O44 1.261 . S
C51 O46 1.259 . S
C51 O48 1.235 . S
O52 Co42 2.021 . S
O52 C49 1.238 . S
O53 Co47 2.052 . S
O53 C49 1.241 . S
O54 Co42 2.137 . S
O54 C45 1.247 . S
O55 Co42 2.244 . S
O55 C45 1.272 . S
O55 Co47 2.135 . S
Co56 O57 2.216 . S
Co56 O58 2.091 . S
Co56 O60 2.004 . S
Co56 O66 2.021 . S
Co56 O68 2.137 . S
Co56 O69 2.244 . S
O57 Co56 2.216 . S
O57 C64 1.247 . S
O58 Co56 2.091 . S
O58 C64 1.261 . S
C59 O68 1.247 . S
C59 O69 1.272 . S
O60 Co56 2.004 . S
O60 C65 1.259 . S
Co61 O62 2.061 . S
Co61 O67 2.052 . S
Co61 O69 2.135 . S
O62 Co61 2.061 . S
O62 C65 1.235 . S
C63 O66 1.238 . S
C63 O67 1.241 . S
C64 O57 1.247 . S
C64 O58 1.261 . S
C65 O60 1.259 . S
C65 O62 1.235 . S
O66 Co56 2.021 . S
O66 C63 1.238 . S
O67 Co61 2.052 . S
O67 C63 1.241 . S
O68 Co56 2.137 . S
O68 C59 1.247 . S
O69 Co56 2.244 . S
O69 C59 1.272 . S
O69 Co61 2.135 . S
Co70 O71 2.216 . S
Co70 O72 2.091 . S
Co70 O74 2.004 . S
Co70 O80 2.021 . S
Co70 O82 2.137 . S
Co70 O83 2.244 . S
O71 Co70 2.216 . S
O71 C78 1.247 . S
O72 Co70 2.091 . S
O72 C78 1.261 . S
C73 O82 1.247 . S
C73 O83 1.272 . S
O74 Co70 2.004 . S
O74 C79 1.259 . S
Co75 O76 2.061 . S
Co75 O81 2.052 . S
Co75 O83 2.135 . S
O76 Co75 2.061 . S
O76 C79 1.235 . S
C77 O80 1.238 . S
C77 O81 1.241 . S
C78 O71 1.247 . S
C78 O72 1.261 . S
C79 O74 1.259 . S
C79 O76 1.235 . S
O80 Co70 2.021 . S
O80 C77 1.238 . S
O81 Co75 2.052 . S
O81 C77 1.241 . S
O82 Co70 2.137 . S
O82 C73 1.247 . S
O83 Co70 2.244 . S
O83 C73 1.272 . S
O83 Co75 2.135 . S
Co84 O85 2.216 . S
Co84 O86 2.091 . S
Co84 O88 2.004 . S
Co84 O94 2.021 . S
Co84 O96 2.137 . S
Co84 O97 2.244 . S
O85 Co84 2.216 . S
O85 C92 1.247 . S
O86 Co84 2.091 . S
O86 C92 1.261 . S
C87 O96 1.247 . S
C87 O97 1.272 . S
O88 Co84 2.004 . S
O88 C93 1.259 . S
Co89 O90 2.061 . S
Co89 O95 2.052 . S
Co89 O97 2.135 . S
O90 Co89 2.061 . S
O90 C93 1.235 . S
C91 O94 1.238 . S
C91 O95 1.241 . S
C92 O85 1.247 . S
C92 O86 1.261 . S
C93 O88 1.259 . S
C93 O90 1.235 . S
O94 Co84 2.021 . S
O94 C91 1.238 . S
O95 Co89 2.052 . S
O95 C91 1.241 . S
O96 Co84 2.137 . S
O96 C87 1.247 . S
O97 Co84 2.244 . S
O97 C87 1.272 . S
O97 Co89 2.135 . S
Co98 O99 2.216 . S
Co98 O100 2.091 . S
Co98 O102 2.004 . S
Co98 O108 2.021 . S
Co98 O110 2.137 . S
Co98 O111 2.244 . S
O99 Co98 2.216 . S
O99 C106 1.247 . S
O100 Co98 2.091 . S
O100 C106 1.261 . S
C101 O110 1.247 . S
C101 O111 1.272 . S
O102 Co98 2.004 . S
O102 C107 1.259 . S
Co103 O104 2.061 . S
Co103 O109 2.052 . S
Co103 O111 2.135 . S
O104 Co103 2.061 . S
O104 C107 1.235 . S
C105 O108 1.238 . S
C105 O109 1.241 . S
C106 O99 1.247 . S
C106 O100 1.261 . S
C107 O102 1.259 . S
C107 O104 1.235 . S
O108 Co98 2.021 . S
O108 C105 1.238 . S
O109 Co103 2.052 . S
O109 C105 1.241 . S
O110 Co98 2.137 . S
O110 C101 1.247 . S
O111 Co98 2.244 . S
O111 C101 1.272 . S
O111 Co103 2.135 . S
Co112 O113 2.216 . S
Co112 O114 2.091 . S
Co112 O116 2.004 . S
Co112 O122 2.021 . S
Co112 O124 2.137 . S
Co112 O125 2.244 . S
O113 Co112 2.216 . S
O113 C120 1.247 . S
O114 Co112 2.091 . S
O114 C120 1.261 . S
C115 O124 1.247 . S
C115 O125 1.272 . S
O116 Co112 2.004 . S
O116 C121 1.259 . S
Co117 O118 2.061 . S
Co117 O123 2.052 . S
Co117 O125 2.135 . S
O118 Co117 2.061 . S
O118 C121 1.235 . S
C119 O122 1.238 . S
C119 O123 1.241 . S
C120 O113 1.247 . S
C120 O114 1.261 . S
C121 O116 1.259 . S
C121 O118 1.235 . S
O122 Co112 2.021 . S
O122 C119 1.238 . S
O123 Co117 2.052 . S
O123 C119 1.241 . S
O124 Co112 2.137 . S
O124 C115 1.247 . S
O125 Co112 2.244 . S
O125 C115 1.272 . S
O125 Co117 2.135 . S
Co126 O127 2.216 . S
Co126 O128 2.091 . S
Co126 O130 2.004 . S
Co126 O136 2.021 . S
Co126 O138 2.137 . S
Co126 O139 2.244 . S
O127 Co126 2.216 . S
O127 C134 1.247 . S
O128 Co126 2.091 . S
O128 C134 1.261 . S
C129 O138 1.247 . S
C129 O139 1.272 . S
O130 Co126 2.004 . S
O130 C135 1.259 . S
Co131 O132 2.061 . S
Co131 O137 2.052 . S
Co131 O139 2.135 . S
O132 Co131 2.061 . S
O132 C135 1.235 . S
C133 O136 1.238 . S
C133 O137 1.241 . S
C134 O127 1.247 . S
C134 O128 1.261 . S
C135 O130 1.259 . S
C135 O132 1.235 . S
O136 Co126 2.021 . S
O136 C133 1.238 . S
O137 Co131 2.052 . S
O137 C133 1.241 . S
O138 Co126 2.137 . S
O138 C129 1.247 . S
O139 Co126 2.244 . S
O139 C129 1.272 . S
O139 Co131 2.135 . S
Co140 O141 2.216 . S
Co140 O142 2.091 . S
Co140 O144 2.004 . S
Co140 O150 2.021 . S
Co140 O152 2.137 . S
Co140 O153 2.244 . S
O141 Co140 2.216 . S
O141 C148 1.247 . S
O142 Co140 2.091 . S
O142 C148 1.261 . S
C143 O152 1.247 . S
C143 O153 1.272 . S
O144 Co140 2.004 . S
O144 C149 1.259 . S
Co145 O146 2.061 . S
Co145 O151 2.052 . S
Co145 O153 2.135 . S
O146 Co145 2.061 . S
O146 C149 1.235 . S
C147 O150 1.238 . S
C147 O151 1.241 . S
C148 O141 1.247 . S
C148 O142 1.261 . S
C149 O144 1.259 . S
C149 O146 1.235 . S
O150 Co140 2.021 . S
O150 C147 1.238 . S
O151 Co145 2.052 . S
O151 C147 1.241 . S
O152 Co140 2.137 . S
O152 C143 1.247 . S
O153 Co140 2.244 . S
O153 C143 1.272 . S
O153 Co145 2.135 . S
Co154 O155 2.216 . S
Co154 O156 2.091 . S
Co154 O158 2.004 . S
Co154 O164 2.021 . S
Co154 O166 2.137 . S
Co154 O167 2.244 . S
O155 Co154 2.216 . S
O155 C162 1.247 . S
O156 Co154 2.091 . S
O156 C162 1.261 . S
C157 O166 1.247 . S
C157 O167 1.272 . S
O158 Co154 2.004 . S
O158 C163 1.259 . S
Co159 O160 2.061 . S
Co159 O165 2.052 . S
Co159 O167 2.135 . S
O160 Co159 2.061 . S
O160 C163 1.235 . S
C161 O164 1.238 . S
C161 O165 1.241 . S
C162 O155 1.247 . S
C162 O156 1.261 . S
C163 O158 1.259 . S
C163 O160 1.235 . S
O164 Co154 2.021 . S
O164 C161 1.238 . S
O165 Co159 2.052 . S
O165 C161 1.241 . S
O166 Co154 2.137 . S
O166 C157 1.247 . S
O167 Co154 2.244 . S
O167 C157 1.272 . S
O167 Co159 2.135 . S
Co168 O169 2.216 . S
Co168 O170 2.091 . S
Co168 O172 2.004 . S
Co168 O178 2.021 . S
Co168 O180 2.137 . S
Co168 O181 2.244 . S
O169 Co168 2.216 . S
O169 C176 1.247 . S
O170 Co168 2.091 . S
O170 C176 1.261 . S
C171 O180 1.247 . S
C171 O181 1.272 . S
O172 Co168 2.004 . S
O172 C177 1.259 . S
Co173 O174 2.061 . S
Co173 O179 2.052 . S
Co173 O181 2.135 . S
O174 Co173 2.061 . S
O174 C177 1.235 . S
C175 O178 1.238 . S
C175 O179 1.241 . S
C176 O169 1.247 . S
C176 O170 1.261 . S
C177 O172 1.259 . S
C177 O174 1.235 . S
O178 Co168 2.021 . S
O178 C175 1.238 . S
O179 Co173 2.052 . S
O179 C175 1.241 . S
O180 Co168 2.137 . S
O180 C171 1.247 . S
O181 Co168 2.244 . S
O181 C171 1.272 . S
O181 Co173 2.135 . S
Co182 O183 2.216 . S
Co182 O184 2.091 . S
Co182 O186 2.004 . S
Co182 O192 2.021 . S
Co182 O194 2.137 . S
Co182 O195 2.244 . S
O183 Co182 2.216 . S
O183 C190 1.247 . S
O184 Co182 2.091 . S
O184 C190 1.261 . S
C185 O194 1.247 . S
C185 O195 1.272 . S
O186 Co182 2.004 . S
O186 C191 1.259 . S
Co187 O188 2.061 . S
Co187 O193 2.052 . S
Co187 O195 2.135 . S
O188 Co187 2.061 . S
O188 C191 1.235 . S
C189 O192 1.238 . S
C189 O193 1.241 . S
C190 O183 1.247 . S
C190 O184 1.261 . S
C191 O186 1.259 . S
C191 O188 1.235 . S
O192 Co182 2.021 . S
O192 C189 1.238 . S
O193 Co187 2.052 . S
O193 C189 1.241 . S
O194 Co182 2.137 . S
O194 C185 1.247 . S
O195 Co182 2.244 . S
O195 C185 1.272 . S
O195 Co187 2.135 . S
Co196 O197 2.216 . S
Co196 O198 2.091 . S
Co196 O200 2.004 . S
Co196 O206 2.021 . S
Co196 O208 2.137 . S
Co196 O209 2.244 . S
O197 Co196 2.216 . S
O197 C204 1.247 . S
O198 Co196 2.091 . S
O198 C204 1.261 . S
C199 O208 1.247 . S
C199 O209 1.272 . S
O200 Co196 2.004 . S
O200 C205 1.259 . S
Co201 O202 2.061 . S
Co201 O207 2.052 . S
Co201 O209 2.135 . S
O202 Co201 2.061 . S
O202 C205 1.235 . S
C203 O206 1.238 . S
C203 O207 1.241 . S
C204 O197 1.247 . S
C204 O198 1.261 . S
C205 O200 1.259 . S
C205 O202 1.235 . S
O206 Co196 2.021 . S
O206 C203 1.238 . S
O207 Co201 2.052 . S
O207 C203 1.241 . S
O208 Co196 2.137 . S
O208 C199 1.247 . S
O209 Co196 2.244 . S
O209 C199 1.272 . S
O209 Co201 2.135 . S
Co210 O211 2.216 . S
Co210 O212 2.091 . S
Co210 O214 2.004 . S
Co210 O220 2.021 . S
Co210 O222 2.137 . S
Co210 O223 2.244 . S
O211 Co210 2.216 . S
O211 C218 1.247 . S
O212 Co210 2.091 . S
O212 C218 1.261 . S
C213 O222 1.247 . S
C213 O223 1.272 . S
O214 Co210 2.004 . S
O214 C219 1.259 . S
Co215 O216 2.061 . S
Co215 O221 2.052 . S
Co215 O223 2.135 . S
O216 Co215 2.061 . S
O216 C219 1.235 . S
C217 O220 1.238 . S
C217 O221 1.241 . S
C218 O211 1.247 . S
C218 O212 1.261 . S
C219 O214 1.259 . S
C219 O216 1.235 . S
O220 Co210 2.021 . S
O220 C217 1.238 . S
O221 Co215 2.052 . S
O221 C217 1.241 . S
O222 Co210 2.137 . S
O222 C213 1.247 . S
O223 Co210 2.244 . S
O223 C213 1.272 . S
O223 Co215 2.135 . S
Co224 O225 2.216 . S
Co224 O226 2.091 . S
Co224 O228 2.004 . S
Co224 O234 2.021 . S
Co224 O236 2.137 . S
Co224 O237 2.244 . S
O225 Co224 2.216 . S
O225 C232 1.247 . S
O226 Co224 2.091 . S
O226 C232 1.261 . S
C227 O236 1.247 . S
C227 O237 1.272 . S
O228 Co224 2.004 . S
O228 C233 1.259 . S
Co229 O230 2.061 . S
Co229 O235 2.052 . S
Co229 O237 2.135 . S
O230 Co229 2.061 . S
O230 C233 1.235 . S
C231 O234 1.238 . S
C231 O235 1.241 . S
C232 O225 1.247 . S
C232 O226 1.261 . S
C233 O228 1.259 . S
C233 O230 1.235 . S
O234 Co224 2.021 . S
O234 C231 1.238 . S
O235 Co229 2.052 . S
O235 C231 1.241 . S
O236 Co224 2.137 . S
O236 C227 1.247 . S
O237 Co224 2.244 . S
O237 C227 1.272 . S
O237 Co229 2.135 . S
Co238 O239 2.216 . S
Co238 O240 2.091 . S
Co238 O242 2.004 . S
Co238 O248 2.021 . S
Co238 O250 2.137 . S
Co238 O251 2.244 . S
O239 Co238 2.216 . S
O239 C246 1.247 . S
O240 Co238 2.091 . S
O240 C246 1.261 . S
C241 O250 1.247 . S
C241 O251 1.272 . S
O242 Co238 2.004 . S
O242 C247 1.259 . S
Co243 O244 2.061 . S
Co243 O249 2.052 . S
Co243 O251 2.135 . S
O244 Co243 2.061 . S
O244 C247 1.235 . S
C245 O248 1.238 . S
C245 O249 1.241 . S
C246 O239 1.247 . S
C246 O240 1.261 . S
C247 O242 1.259 . S
C247 O244 1.235 . S
O248 Co238 2.021 . S
O248 C245 1.238 . S
O249 Co243 2.052 . S
O249 C245 1.241 . S
O250 Co238 2.137 . S
O250 C241 1.247 . S
O251 Co238 2.244 . S
O251 C241 1.272 . S
O251 Co243 2.135 . S
Co252 O253 2.216 . S
Co252 O254 2.091 . S
Co252 O256 2.004 . S
Co252 O262 2.021 . S
Co252 O264 2.137 . S
Co252 O265 2.244 . S
O253 Co252 2.216 . S
O253 C260 1.247 . S
O254 Co252 2.091 . S
O254 C260 1.261 . S
C255 O264 1.247 . S
C255 O265 1.272 . S
O256 Co252 2.004 . S
O256 C261 1.259 . S
Co257 O258 2.061 . S
Co257 O263 2.052 . S
Co257 O265 2.135 . S
O258 Co257 2.061 . S
O258 C261 1.235 . S
C259 O262 1.238 . S
C259 O263 1.241 . S
C260 O253 1.247 . S
C260 O254 1.261 . S
C261 O256 1.259 . S
C261 O258 1.235 . S
O262 Co252 2.021 . S
O262 C259 1.238 . S
O263 Co257 2.052 . S
O263 C259 1.241 . S
O264 Co252 2.137 . S
O264 C255 1.247 . S
O265 Co252 2.244 . S
O265 C255 1.272 . S
O265 Co257 2.135 . S
Co266 O267 2.216 . S
Co266 O268 2.091 . S
Co266 O270 2.004 . S
Co266 O276 2.021 . S
Co266 O278 2.137 . S
Co266 O279 2.244 . S
O267 Co266 2.216 . S
O267 C274 1.247 . S
O268 Co266 2.091 . S
O268 C274 1.261 . S
C269 O278 1.247 . S
C269 O279 1.272 . S
O270 Co266 2.004 . S
O270 C275 1.259 . S
Co271 O272 2.061 . S
Co271 O277 2.052 . S
Co271 O279 2.135 . S
O272 Co271 2.061 . S
O272 C275 1.235 . S
C273 O276 1.238 . S
C273 O277 1.241 . S
C274 O267 1.247 . S
C274 O268 1.261 . S
C275 O270 1.259 . S
C275 O272 1.235 . S
O276 Co266 2.021 . S
O276 C273 1.238 . S
O277 Co271 2.052 . S
O277 C273 1.241 . S
O278 Co266 2.137 . S
O278 C269 1.247 . S
O279 Co266 2.244 . S
O279 C269 1.272 . S
O279 Co271 2.135 . S
Co280 O281 2.216 . S
Co280 O282 2.091 . S
Co280 O284 2.004 . S
Co280 O290 2.021 . S
Co280 O292 2.137 . S
Co280 O293 2.244 . S
O281 Co280 2.216 . S
O281 C288 1.247 . S
O282 Co280 2.091 . S
O282 C288 1.261 . S
C283 O292 1.247 . S
C283 O293 1.272 . S
O284 Co280 2.004 . S
O284 C289 1.259 . S
Co285 O286 2.061 . S
Co285 O291 2.052 . S
Co285 O293 2.135 . S
O286 Co285 2.061 . S
O286 C289 1.235 . S
C287 O290 1.238 . S
C287 O291 1.241 . S
C288 O281 1.247 . S
C288 O282 1.261 . S
C289 O284 1.259 . S
C289 O286 1.235 . S
O290 Co280 2.021 . S
O290 C287 1.238 . S
O291 Co285 2.052 . S
O291 C287 1.241 . S
O292 Co280 2.137 . S
O292 C283 1.247 . S
O293 Co280 2.244 . S
O293 C283 1.272 . S
O293 Co285 2.135 . S
Co294 O295 2.216 . S
Co294 O296 2.091 . S
Co294 O298 2.004 . S
Co294 O304 2.021 . S
Co294 O306 2.137 . S
Co294 O307 2.244 . S
O295 Co294 2.216 . S
O295 C302 1.247 . S
O296 Co294 2.091 . S
O296 C302 1.261 . S
C297 O306 1.247 . S
C297 O307 1.272 . S
O298 Co294 2.004 . S
O298 C303 1.259 . S
Co299 O300 2.061 . S
Co299 O305 2.052 . S
Co299 O307 2.135 . S
O300 Co299 2.061 . S
O300 C303 1.235 . S
C301 O304 1.238 . S
C301 O305 1.241 . S
C302 O295 1.247 . S
C302 O296 1.261 . S
C303 O298 1.259 . S
C303 O300 1.235 . S
O304 Co294 2.021 . S
O304 C301 1.238 . S
O305 Co299 2.052 . S
O305 C301 1.241 . S
O306 Co294 2.137 . S
O306 C297 1.247 . S
O307 Co294 2.244 . S
O307 C297 1.272 . S
O307 Co299 2.135 . S
Co308 O309 2.216 . S
Co308 O310 2.091 . S
Co308 O312 2.004 . S
Co308 O318 2.021 . S
Co308 O320 2.137 . S
Co308 O321 2.244 . S
O309 Co308 2.216 . S
O309 C316 1.247 . S
O310 Co308 2.091 . S
O310 C316 1.261 . S
C311 O320 1.247 . S
C311 O321 1.272 . S
O312 Co308 2.004 . S
O312 C317 1.259 . S
Co313 O314 2.061 . S
Co313 O319 2.052 . S
Co313 O321 2.135 . S
O314 Co313 2.061 . S
O314 C317 1.235 . S
C315 O318 1.238 . S
C315 O319 1.241 . S
C316 O309 1.247 . S
C316 O310 1.261 . S
C317 O312 1.259 . S
C317 O314 1.235 . S
O318 Co308 2.021 . S
O318 C315 1.238 . S
O319 Co313 2.052 . S
O319 C315 1.241 . S
O320 Co308 2.137 . S
O320 C311 1.247 . S
O321 Co308 2.244 . S
O321 C311 1.272 . S
O321 Co313 2.135 . S
Co322 O323 2.216 . S
Co322 O324 2.091 . S
Co322 O326 2.004 . S
Co322 O332 2.021 . S
Co322 O334 2.137 . S
Co322 O335 2.244 . S
O323 Co322 2.216 . S
O323 C330 1.247 . S
O324 Co322 2.091 . S
O324 C330 1.261 . S
C325 O334 1.247 . S
C325 O335 1.272 . S
O326 Co322 2.004 . S
O326 C331 1.259 . S
Co327 O328 2.061 . S
Co327 O333 2.052 . S
Co327 O335 2.135 . S
O328 Co327 2.061 . S
O328 C331 1.235 . S
C329 O332 1.238 . S
C329 O333 1.241 . S
C330 O323 1.247 . S
C330 O324 1.261 . S
C331 O326 1.259 . S
C331 O328 1.235 . S
O332 Co322 2.021 . S
O332 C329 1.238 . S
O333 Co327 2.052 . S
O333 C329 1.241 . S
O334 Co322 2.137 . S
O334 C325 1.247 . S
O335 Co322 2.244 . S
O335 C325 1.272 . S
O335 Co327 2.135 . S
Co336 O337 2.216 . S
Co336 O338 2.091 . S
Co336 O340 2.004 . S
Co336 O346 2.021 . S
Co336 O348 2.137 . S
Co336 O349 2.244 . S
O337 Co336 2.216 . S
O337 C344 1.247 . S
O338 Co336 2.091 . S
O338 C344 1.261 . S
C339 O348 1.247 . S
C339 O349 1.272 . S
O340 Co336 2.004 . S
O340 C345 1.259 . S
Co341 O342 2.061 . S
Co341 O347 2.052 . S
Co341 O349 2.135 . S
O342 Co341 2.061 . S
O342 C345 1.235 . S
C343 O346 1.238 . S
C343 O347 1.241 . S
C344 O337 1.247 . S
C344 O338 1.261 . S
C345 O340 1.259 . S
C345 O342 1.235 . S
O346 Co336 2.021 . S
O346 C343 1.238 . S
O347 Co341 2.052 . S
O347 C343 1.241 . S
O348 Co336 2.137 . S
O348 C339 1.247 . S
O349 Co336 2.244 . S
O349 C339 1.272 . S
O349 Co341 2.135 . S
Co350 O351 2.216 . S
Co350 O352 2.091 . S
Co350 O354 2.004 . S
Co350 O360 2.021 . S
Co350 O362 2.137 . S
Co350 O363 2.244 . S
O351 Co350 2.216 . S
O351 C358 1.247 . S
O352 Co350 2.091 . S
O352 C358 1.261 . S
C353 O362 1.247 . S
C353 O363 1.272 . S
O354 Co350 2.004 . S
O354 C359 1.259 . S
Co355 O356 2.061 . S
Co355 O361 2.052 . S
Co355 O363 2.135 . S
O356 Co355 2.061 . S
O356 C359 1.235 . S
C357 O360 1.238 . S
C357 O361 1.241 . S
C358 O351 1.247 . S
C358 O352 1.261 . S
C359 O354 1.259 . S
C359 O356 1.235 . S
O360 Co350 2.021 . S
O360 C357 1.238 . S
O361 Co355 2.052 . S
O361 C357 1.241 . S
O362 Co350 2.137 . S
O362 C353 1.247 . S
O363 Co350 2.244 . S
O363 C353 1.272 . S
O363 Co355 2.135 . S
Co364 O365 2.216 . S
Co364 O366 2.091 . S
Co364 O368 2.004 . S
Co364 O374 2.021 . S
Co364 O376 2.137 . S
Co364 O377 2.244 . S
O365 Co364 2.216 . S
O365 C372 1.247 . S
O366 Co364 2.091 . S
O366 C372 1.261 . S
C367 O376 1.247 . S
C367 O377 1.272 . S
O368 Co364 2.004 . S
O368 C373 1.259 . S
Co369 O370 2.061 . S
Co369 O375 2.052 . S
Co369 O377 2.135 . S
O370 Co369 2.061 . S
O370 C373 1.235 . S
C371 O374 1.238 . S
C371 O375 1.241 . S
C372 O365 1.247 . S
C372 O366 1.261 . S
C373 O368 1.259 . S
C373 O370 1.235 . S
O374 Co364 2.021 . S
O374 C371 1.238 . S
O375 Co369 2.052 . S
O375 C371 1.241 . S
O376 Co364 2.137 . S
O376 C367 1.247 . S
O377 Co364 2.244 . S
O377 C367 1.272 . S
O377 Co369 2.135 . S
Co378 O379 2.216 . S
Co378 O380 2.091 . S
Co378 O382 2.004 . S
Co378 O388 2.021 . S
Co378 O390 2.137 . S
Co378 O391 2.244 . S
O379 Co378 2.216 . S
O379 C386 1.247 . S
O380 Co378 2.091 . S
O380 C386 1.261 . S
C381 O390 1.247 . S
C381 O391 1.272 . S
O382 Co378 2.004 . S
O382 C387 1.259 . S
Co383 O384 2.061 . S
Co383 O389 2.052 . S
Co383 O391 2.135 . S
O384 Co383 2.061 . S
O384 C387 1.235 . S
C385 O388 1.238 . S
C385 O389 1.241 . S
C386 O379 1.247 . S
C386 O380 1.261 . S
C387 O382 1.259 . S
C387 O384 1.235 . S
O388 Co378 2.021 . S
O388 C385 1.238 . S
O389 Co383 2.052 . S
O389 C385 1.241 . S
O390 Co378 2.137 . S
O390 C381 1.247 . S
O391 Co378 2.244 . S
O391 C381 1.272 . S
O391 Co383 2.135 . S
Co392 O393 2.216 . S
Co392 O394 2.091 . S
Co392 O396 2.004 . S
Co392 O402 2.021 . S
Co392 O404 2.137 . S
Co392 O405 2.244 . S
O393 Co392 2.216 . S
O393 C400 1.247 . S
O394 Co392 2.091 . S
O394 C400 1.261 . S
C395 O404 1.247 . S
C395 O405 1.272 . S
O396 Co392 2.004 . S
O396 C401 1.259 . S
Co397 O398 2.061 . S
Co397 O403 2.052 . S
Co397 O405 2.135 . S
O398 Co397 2.061 . S
O398 C401 1.235 . S
C399 O402 1.238 . S
C399 O403 1.241 . S
C400 O393 1.247 . S
C400 O394 1.261 . S
C401 O396 1.259 . S
C401 O398 1.235 . S
O402 Co392 2.021 . S
O402 C399 1.238 . S
O403 Co397 2.052 . S
O403 C399 1.241 . S
O404 Co392 2.137 . S
O404 C395 1.247 . S
O405 Co392 2.244 . S
O405 C395 1.272 . S
O405 Co397 2.135 . S
Co406 O407 2.216 . S
Co406 O408 2.091 . S
Co406 O410 2.004 . S
Co406 O416 2.021 . S
Co406 O418 2.137 . S
Co406 O419 2.244 . S
O407 Co406 2.216 . S
O407 C414 1.247 . S
O408 Co406 2.091 . S
O408 C414 1.261 . S
C409 O418 1.247 . S
C409 O419 1.272 . S
O410 Co406 2.004 . S
O410 C415 1.259 . S
Co411 O412 2.061 . S
Co411 O417 2.052 . S
Co411 O419 2.135 . S
O412 Co411 2.061 . S
O412 C415 1.235 . S
C413 O416 1.238 . S
C413 O417 1.241 . S
C414 O407 1.247 . S
C414 O408 1.261 . S
C415 O410 1.259 . S
C415 O412 1.235 . S
O416 Co406 2.021 . S
O416 C413 1.238 . S
O417 Co411 2.052 . S
O417 C413 1.241 . S
O418 Co406 2.137 . S
O418 C409 1.247 . S
O419 Co406 2.244 . S
O419 C409 1.272 . S
O419 Co411 2.135 . S
Co420 O421 2.216 . S
Co420 O422 2.091 . S
Co420 O424 2.004 . S
Co420 O430 2.021 . S
Co420 O432 2.137 . S
Co420 O433 2.244 . S
O421 Co420 2.216 . S
O421 C428 1.247 . S
O422 Co420 2.091 . S
O422 C428 1.261 . S
C423 O432 1.247 . S
C423 O433 1.272 . S
O424 Co420 2.004 . S
O424 C429 1.259 . S
Co425 O426 2.061 . S
Co425 O431 2.052 . S
Co425 O433 2.135 . S
O426 Co425 2.061 . S
O426 C429 1.235 . S
C427 O430 1.238 . S
C427 O431 1.241 . S
C428 O421 1.247 . S
C428 O422 1.261 . S
C429 O424 1.259 . S
C429 O426 1.235 . S
O430 Co420 2.021 . S
O430 C427 1.238 . S
O431 Co425 2.052 . S
O431 C427 1.241 . S
O432 Co420 2.137 . S
O432 C423 1.247 . S
O433 Co420 2.244 . S
O433 C423 1.272 . S
O433 Co425 2.135 . S
Co434 O435 2.216 . S
Co434 O436 2.091 . S
Co434 O438 2.004 . S
Co434 O444 2.021 . S
Co434 O446 2.137 . S
Co434 O447 2.244 . S
O435 Co434 2.216 . S
O435 C442 1.247 . S
O436 Co434 2.091 . S
O436 C442 1.261 . S
C437 O446 1.247 . S
C437 O447 1.272 . S
O438 Co434 2.004 . S
O438 C443 1.259 . S
Co439 O440 2.061 . S
Co439 O445 2.052 . S
Co439 O447 2.135 . S
O440 Co439 2.061 . S
O440 C443 1.235 . S
C441 O444 1.238 . S
C441 O445 1.241 . S
C442 O435 1.247 . S
C442 O436 1.261 . S
C443 O438 1.259 . S
C443 O440 1.235 . S
O444 Co434 2.021 . S
O444 C441 1.238 . S
O445 Co439 2.052 . S
O445 C441 1.241 . S
O446 Co434 2.137 . S
O446 C437 1.247 . S
O447 Co434 2.244 . S
O447 C437 1.272 . S
O447 Co439 2.135 . S
Co448 O449 2.216 . S
Co448 O450 2.091 . S
Co448 O452 2.004 . S
Co448 O458 2.021 . S
Co448 O460 2.137 . S
Co448 O461 2.244 . S
O449 Co448 2.216 . S
O449 C456 1.247 . S
O450 Co448 2.091 . S
O450 C456 1.261 . S
C451 O460 1.247 . S
C451 O461 1.272 . S
O452 Co448 2.004 . S
O452 C457 1.259 . S
Co453 O454 2.061 . S
Co453 O459 2.052 . S
Co453 O461 2.135 . S
O454 Co453 2.061 . S
O454 C457 1.235 . S
C455 O458 1.238 . S
C455 O459 1.241 . S
C456 O449 1.247 . S
C456 O450 1.261 . S
C457 O452 1.259 . S
C457 O454 1.235 . S
O458 Co448 2.021 . S
O458 C455 1.238 . S
O459 Co453 2.052 . S
O459 C455 1.241 . S
O460 Co448 2.137 . S
O460 C451 1.247 . S
O461 Co448 2.244 . S
O461 C451 1.272 . S
O461 Co453 2.135 . S
Co462 O463 2.216 . S
Co462 O464 2.091 . S
Co462 O466 2.004 . S
Co462 O472 2.021 . S
Co462 O474 2.137 . S
Co462 O475 2.244 . S
O463 Co462 2.216 . S
O463 C470 1.247 . S
O464 Co462 2.091 . S
O464 C470 1.261 . S
C465 O474 1.247 . S
C465 O475 1.272 . S
O466 Co462 2.004 . S
O466 C471 1.259 . S
Co467 O468 2.061 . S
Co467 O473 2.052 . S
Co467 O475 2.135 . S
O468 Co467 2.061 . S
O468 C471 1.235 . S
C469 O472 1.238 . S
C469 O473 1.241 . S
C470 O463 1.247 . S
C470 O464 1.261 . S
C471 O466 1.259 . S
C471 O468 1.235 . S
O472 Co462 2.021 . S
O472 C469 1.238 . S
O473 Co467 2.052 . S
O473 C469 1.241 . S
O474 Co462 2.137 . S
O474 C465 1.247 . S
O475 Co462 2.244 . S
O475 C465 1.272 . S
O475 Co467 2.135 . S
Co476 O477 2.216 . S
Co476 O478 2.091 . S
Co476 O480 2.004 . S
Co476 O486 2.021 . S
Co476 O488 2.137 . S
Co476 O489 2.244 . S
O477 Co476 2.216 . S
O477 C484 1.247 . S
O478 Co476 2.091 . S
O478 C484 1.261 . S
C479 O488 1.247 . S
C479 O489 1.272 . S
O480 Co476 2.004 . S
O480 C485 1.259 . S
Co481 O482 2.061 . S
Co481 O487 2.052 . S
Co481 O489 2.135 . S
O482 Co481 2.061 . S
O482 C485 1.235 . S
C483 O486 1.238 . S
C483 O487 1.241 . S
C484 O477 1.247 . S
C484 O478 1.261 . S
C485 O480 1.259 . S
C485 O482 1.235 . S
O486 Co476 2.021 . S
O486 C483 1.238 . S
O487 Co481 2.052 . S
O487 C483 1.241 . S
O488 Co476 2.137 . S
O488 C479 1.247 . S
O489 Co476 2.244 . S
O489 C479 1.272 . S
O489 Co481 2.135 . S
Co490 O491 2.216 . S
Co490 O492 2.091 . S
Co490 O494 2.004 . S
Co490 O500 2.021 . S
Co490 O502 2.137 . S
Co490 O503 2.244 . S
O491 Co490 2.216 . S
O491 C498 1.247 . S
O492 Co490 2.091 . S
O492 C498 1.261 . S
C493 O502 1.247 . S
C493 O503 1.272 . S
O494 Co490 2.004 . S
O494 C499 1.259 . S
Co495 O496 2.061 . S
Co495 O501 2.052 . S
Co495 O503 2.135 . S
O496 Co495 2.061 . S
O496 C499 1.235 . S
C497 O500 1.238 . S
C497 O501 1.241 . S
C498 O491 1.247 . S
C498 O492 1.261 . S
C499 O494 1.259 . S
C499 O496 1.235 . S
O500 Co490 2.021 . S
O500 C497 1.238 . S
O501 Co495 2.052 . S
O501 C497 1.241 . S
O502 Co490 2.137 . S
O502 C493 1.247 . S
O503 Co490 2.244 . S
O503 C493 1.272 . S
O503 Co495 2.135 . S
Co504 O505 2.216 . S
Co504 O506 2.091 . S
Co504 O508 2.004 . S
Co504 O514 2.021 . S
Co504 O516 2.137 . S
Co504 O517 2.244 . S
O505 Co504 2.216 . S
O505 C512 1.247 . S
O506 Co504 2.091 . S
O506 C512 1.261 . S
C507 O516 1.247 . S
C507 O517 1.272 . S
O508 Co504 2.004 . S
O508 C513 1.259 . S
Co509 O510 2.061 . S
Co509 O515 2.052 . S
Co509 O517 2.135 . S
O510 Co509 2.061 . S
O510 C513 1.235 . S
C511 O514 1.238 . S
C511 O515 1.241 . S
C512 O505 1.247 . S
C512 O506 1.261 . S
C513 O508 1.259 . S
C513 O510 1.235 . S
O514 Co504 2.021 . S
O514 C511 1.238 . S
O515 Co509 2.052 . S
O515 C511 1.241 . S
O516 Co504 2.137 . S
O516 C507 1.247 . S
O517 Co504 2.244 . S
O517 C507 1.272 . S
O517 Co509 2.135 . S
Co518 O519 2.216 . S
Co518 O520 2.091 . S
Co518 O522 2.004 . S
Co518 O528 2.021 . S
Co518 O530 2.137 . S
Co518 O531 2.244 . S
O519 Co518 2.216 . S
O519 C526 1.247 . S
O520 Co518 2.091 . S
O520 C526 1.261 . S
C521 O530 1.247 . S
C521 O531 1.272 . S
O522 Co518 2.004 . S
O522 C527 1.259 . S
Co523 O524 2.061 . S
Co523 O529 2.052 . S
Co523 O531 2.135 . S
O524 Co523 2.061 . S
O524 C527 1.235 . S
C525 O528 1.238 . S
C525 O529 1.241 . S
C526 O519 1.247 . S
C526 O520 1.261 . S
C527 O522 1.259 . S
C527 O524 1.235 . S
O528 Co518 2.021 . S
O528 C525 1.238 . S
O529 Co523 2.052 . S
O529 C525 1.241 . S
O530 Co518 2.137 . S
O530 C521 1.247 . S
O531 Co518 2.244 . S
O531 C521 1.272 . S
O531 Co523 2.135 . S
Co532 O533 2.216 . S
Co532 O534 2.091 . S
Co532 O536 2.004 . S
Co532 O542 2.021 . S
Co532 O544 2.137 . S
Co532 O545 2.244 . S
O533 Co532 2.216 . S
O533 C540 1.247 . S
O534 Co532 2.091 . S
O534 C540 1.261 . S
C535 O544 1.247 . S
C535 O545 1.272 . S
O536 Co532 2.004 . S
O536 C541 1.259 . S
Co537 O538 2.061 . S
Co537 O543 2.052 . S
Co537 O545 2.135 . S
O538 Co537 2.061 . S
O538 C541 1.235 . S
C539 O542 1.238 . S
C539 O543 1.241 . S
C540 O533 1.247 . S
C540 O534 1.261 . S
C541 O536 1.259 . S
C541 O538 1.235 . S
O542 Co532 2.021 . S
O542 C539 1.238 . S
O543 Co537 2.052 . S
O543 C539 1.241 . S
O544 Co532 2.137 . S
O544 C535 1.247 . S
O545 Co532 2.244 . S
O545 C535 1.272 . S
O545 Co537 2.135 . S
Co546 O547 2.216 . S
Co546 O548 2.091 . S
Co546 O550 2.004 . S
Co546 O556 2.021 . S
Co546 O558 2.137 . S
Co546 O559 2.244 . S
O547 Co546 2.216 . S
O547 C554 1.247 . S
O548 Co546 2.091 . S
O548 C554 1.261 . S
C549 O558 1.247 . S
C549 O559 1.272 . S
O550 Co546 2.004 . S
O550 C555 1.259 . S
Co551 O552 2.061 . S
Co551 O557 2.052 . S
Co551 O559 2.135 . S
O552 Co551 2.061 . S
O552 C555 1.235 . S
C553 O556 1.238 . S
C553 O557 1.241 . S
C554 O547 1.247 . S
C554 O548 1.261 . S
C555 O550 1.259 . S
C555 O552 1.235 . S
O556 Co546 2.021 . S
O556 C553 1.238 . S
O557 Co551 2.052 . S
O557 C553 1.241 . S
O558 Co546 2.137 . S
O558 C549 1.247 . S
O559 Co546 2.244 . S
O559 C549 1.272 . S
O559 Co551 2.135 . S
Co560 O561 2.216 . S
Co560 O562 2.091 . S
Co560 O564 2.004 . S
Co560 O570 2.021 . S
Co560 O572 2.137 . S
Co560 O573 2.244 . S
O561 Co560 2.216 . S
O561 C568 1.247 . S
O562 Co560 2.091 . S
O562 C568 1.261 . S
C563 O572 1.247 . S
C563 O573 1.272 . S
O564 Co560 2.004 . S
O564 C569 1.259 . S
Co565 O566 2.061 . S
Co565 O571 2.052 . S
Co565 O573 2.135 . S
O566 Co565 2.061 . S
O566 C569 1.235 . S
C567 O570 1.238 . S
C567 O571 1.241 . S
C568 O561 1.247 . S
C568 O562 1.261 . S
C569 O564 1.259 . S
C569 O566 1.235 . S
O570 Co560 2.021 . S
O570 C567 1.238 . S
O571 Co565 2.052 . S
O571 C567 1.241 . S
O572 Co560 2.137 . S
O572 C563 1.247 . S
O573 Co560 2.244 . S
O573 C563 1.272 . S
O573 Co565 2.135 . S
Co574 O575 2.216 . S
Co574 O576 2.091 . S
Co574 O578 2.004 . S
Co574 O584 2.021 . S
Co574 O586 2.137 . S
Co574 O587 2.244 . S
O575 Co574 2.216 . S
O575 C582 1.247 . S
O576 Co574 2.091 . S
O576 C582 1.261 . S
C577 O586 1.247 . S
C577 O587 1.272 . S
O578 Co574 2.004 . S
O578 C583 1.259 . S
Co579 O580 2.061 . S
Co579 O585 2.052 . S
Co579 O587 2.135 . S
O580 Co579 2.061 . S
O580 C583 1.235 . S
C581 O584 1.238 . S
C581 O585 1.241 . S
C582 O575 1.247 . S
C582 O576 1.261 . S
C583 O578 1.259 . S
C583 O580 1.235 . S
O584 Co574 2.021 . S
O584 C581 1.238 . S
O585 Co579 2.052 . S
O585 C581 1.241 . S
O586 Co574 2.137 . S
O586 C577 1.247 . S
O587 Co574 2.244 . S
O587 C577 1.272 . S
O587 Co579 2.135 . S
Co588 O589 2.216 . S
Co588 O590 2.091 . S
Co588 O592 2.004 . S
Co588 O598 2.021 . S
Co588 O600 2.137 . S
Co588 O601 2.244 . S
O589 Co588 2.216 . S
O589 C596 1.247 . S
O590 Co588 2.091 . S
O590 C596 1.261 . S
C591 O600 1.247 . S
C591 O601 1.272 . S
O592 Co588 2.004 . S
O592 C597 1.259 . S
Co593 O594 2.061 . S
Co593 O599 2.052 . S
Co593 O601 2.135 . S
O594 Co593 2.061 . S
O594 C597 1.235 . S
C595 O598 1.238 . S
C595 O599 1.241 . S
C596 O589 1.247 . S
C596 O590 1.261 . S
C597 O592 1.259 . S
C597 O594 1.235 . S
O598 Co588 2.021 . S
O598 C595 1.238 . S
O599 Co593 2.052 . S
O599 C595 1.241 . S
O600 Co588 2.137 . S
O600 C591 1.247 . S
O601 Co588 2.244 . S
O601 C591 1.272 . S
O601 Co593 2.135 . S
Co602 O603 2.216 . S
Co602 O604 2.091 . S
Co602 O606 2.004 . S
Co602 O612 2.021 . S
Co602 O614 2.137 . S
Co602 O615 2.244 . S
O603 Co602 2.216 . S
O603 C610 1.247 . S
O604 Co602 2.091 . S
O604 C610 1.261 . S
C605 O614 1.247 . S
C605 O615 1.272 . S
O606 Co602 2.004 . S
O606 C611 1.259 . S
Co607 O608 2.061 . S
Co607 O613 2.052 . S
Co607 O615 2.135 . S
O608 Co607 2.061 . S
O608 C611 1.235 . S
C609 O612 1.238 . S
C609 O613 1.241 . S
C610 O603 1.247 . S
C610 O604 1.261 . S
C611 O606 1.259 . S
C611 O608 1.235 . S
O612 Co602 2.021 . S
O612 C609 1.238 . S
O613 Co607 2.052 . S
O613 C609 1.241 . S
O614 Co602 2.137 . S
O614 C605 1.247 . S
O615 Co602 2.244 . S
O615 C605 1.272 . S
O615 Co607 2.135 . S
Co616 O617 2.216 . S
Co616 O618 2.091 . S
Co616 O620 2.004 . S
Co616 O626 2.021 . S
Co616 O628 2.137 . S
Co616 O629 2.244 . S
O617 Co616 2.216 . S
O617 C624 1.247 . S
O618 Co616 2.091 . S
O618 C624 1.261 . S
C619 O628 1.247 . S
C619 O629 1.272 . S
O620 Co616 2.004 . S
O620 C625 1.259 . S
Co621 O622 2.061 . S
Co621 O627 2.052 . S
Co621 O629 2.135 . S
O622 Co621 2.061 . S
O622 C625 1.235 . S
C623 O626 1.238 . S
C623 O627 1.241 . S
C624 O617 1.247 . S
C624 O618 1.261 . S
C625 O620 1.259 . S
C625 O622 1.235 . S
O626 Co616 2.021 . S
O626 C623 1.238 . S
O627 Co621 2.052 . S
O627 C623 1.241 . S
O628 Co616 2.137 . S
O628 C619 1.247 . S
O629 Co616 2.244 . S
O629 C619 1.272 . S
O629 Co621 2.135 . S
Co630 O631 2.216 . S
Co630 O632 2.091 . S
Co630 O634 2.004 . S
Co630 O640 2.021 . S
Co630 O642 2.137 . S
Co630 O643 2.244 . S
O631 Co630 2.216 . S
O631 C638 1.247 . S
O632 Co630 2.091 . S
O632 C638 1.261 . S
C633 O642 1.247 . S
C633 O643 1.272 . S
O634 Co630 2.004 . S
O634 C639 1.259 . S
Co635 O636 2.061 . S
Co635 O641 2.052 . S
Co635 O643 2.135 . S
O636 Co635 2.061 . S
O636 C639 1.235 . S
C637 O640 1.238 . S
C637 O641 1.241 . S
C638 O631 1.247 . S
C638 O632 1.261 . S
C639 O634 1.259 . S
C639 O636 1.235 . S
O640 Co630 2.021 . S
O640 C637 1.238 . S
O641 Co635 2.052 . S
O641 C637 1.241 . S
O642 Co630 2.137 . S
O642 C633 1.247 . S
O643 Co630 2.244 . S
O643 C633 1.272 . S
O643 Co635 2.135 . S
Co644 O645 2.216 . S
Co644 O646 2.091 . S
Co644 O648 2.004 . S
Co644 O654 2.021 . S
Co644 O656 2.137 . S
Co644 O657 2.244 . S
O645 Co644 2.216 . S
O645 C652 1.247 . S
O646 Co644 2.091 . S
O646 C652 1.261 . S
C647 O656 1.247 . S
C647 O657 1.272 . S
O648 Co644 2.004 . S
O648 C653 1.259 . S
Co649 O650 2.061 . S
Co649 O655 2.052 . S
Co649 O657 2.135 . S
O650 Co649 2.061 . S
O650 C653 1.235 . S
C651 O654 1.238 . S
C651 O655 1.241 . S
C652 O645 1.247 . S
C652 O646 1.261 . S
C653 O648 1.259 . S
C653 O650 1.235 . S
O654 Co644 2.021 . S
O654 C651 1.238 . S
O655 Co649 2.052 . S
O655 C651 1.241 . S
O656 Co644 2.137 . S
O656 C647 1.247 . S
O657 Co644 2.244 . S
O657 C647 1.272 . S
O657 Co649 2.135 . S
Co658 O659 2.216 . S
Co658 O660 2.091 . S
Co658 O662 2.004 . S
Co658 O668 2.021 . S
Co658 O670 2.137 . S
Co658 O671 2.244 . S
O659 Co658 2.216 . S
O659 C666 1.247 . S
O660 Co658 2.091 . S
O660 C666 1.261 . S
C661 O670 1.247 . S
C661 O671 1.272 . S
O662 Co658 2.004 . S
O662 C667 1.259 . S
Co663 O664 2.061 . S
Co663 O669 2.052 . S
Co663 O671 2.135 . S
O664 Co663 2.061 . S
O664 C667 1.235 . S
C665 O668 1.238 . S
C665 O669 1.241 . S
C666 O659 1.247 . S
C666 O660 1.261 . S
C667 O662 1.259 . S
C667 O664 1.235 . S
O668 Co658 2.021 . S
O668 C665 1.238 . S
O669 Co663 2.052 . S
O669 C665 1.241 . S
O670 Co658 2.137 . S
O670 C661 1.247 . S
O671 Co658 2.244 . S
O671 C661 1.272 . S
O671 Co663 2.135 . S
Co672 O673 2.216 . S
Co672 O674 2.091 . S
Co672 O676 2.004 . S
Co672 O682 2.021 . S
Co672 O684 2.137 . S
Co672 O685 2.244 . S
O673 Co672 2.216 . S
O673 C680 1.247 . S
O674 Co672 2.091 . S
O674 C680 1.261 . S
C675 O684 1.247 . S
C675 O685 1.272 . S
O676 Co672 2.004 . S
O676 C681 1.259 . S
Co677 O678 2.061 . S
Co677 O683 2.052 . S
Co677 O685 2.135 . S
O678 Co677 2.061 . S
O678 C681 1.235 . S
C679 O682 1.238 . S
C679 O683 1.241 . S
C680 O673 1.247 . S
C680 O674 1.261 . S
C681 O676 1.259 . S
C681 O678 1.235 . S
O682 Co672 2.021 . S
O682 C679 1.238 . S
O683 Co677 2.052 . S
O683 C679 1.241 . S
O684 Co672 2.137 . S
O684 C675 1.247 . S
O685 Co672 2.244 . S
O685 C675 1.272 . S
O685 Co677 2.135 . S
Co686 O687 2.216 . S
Co686 O688 2.091 . S
Co686 O690 2.004 . S
Co686 O696 2.021 . S
Co686 O698 2.137 . S
Co686 O699 2.244 . S
O687 Co686 2.216 . S
O687 C694 1.247 . S
O688 Co686 2.091 . S
O688 C694 1.261 . S
C689 O698 1.247 . S
C689 O699 1.272 . S
O690 Co686 2.004 . S
O690 C695 1.259 . S
Co691 O692 2.061 . S
Co691 O697 2.052 . S
Co691 O699 2.135 . S
O692 Co691 2.061 . S
O692 C695 1.235 . S
C693 O696 1.238 . S
C693 O697 1.241 . S
C694 O687 1.247 . S
C694 O688 1.261 . S
C695 O690 1.259 . S
C695 O692 1.235 . S
O696 Co686 2.021 . S
O696 C693 1.238 . S
O697 Co691 2.052 . S
O697 C693 1.241 . S
O698 Co686 2.137 . S
O698 C689 1.247 . S
O699 Co686 2.244 . S
O699 C689 1.272 . S
O699 Co691 2.135 . S
Co700 O701 2.216 . S
Co700 O702 2.091 . S
Co700 O704 2.004 . S
Co700 O710 2.021 . S
Co700 O712 2.137 . S
Co700 O713 2.244 . S
O701 Co700 2.216 . S
O701 C708 1.247 . S
O702 Co700 2.091 . S
O702 C708 1.261 . S
C703 O712 1.247 . S
C703 O713 1.272 . S
O704 Co700 2.004 . S
O704 C709 1.259 . S
Co705 O706 2.061 . S
Co705 O711 2.052 . S
Co705 O713 2.135 . S
O706 Co705 2.061 . S
O706 C709 1.235 . S
C707 O710 1.238 . S
C707 O711 1.241 . S
C708 O701 1.247 . S
C708 O702 1.261 . S
C709 O704 1.259 . S
C709 O706 1.235 . S
O710 Co700 2.021 . S
O710 C707 1.238 . S
O711 Co705 2.052 . S
O711 C707 1.241 . S
O712 Co700 2.137 . S
O712 C703 1.247 . S
O713 Co700 2.244 . S
O713 C703 1.272 . S
O713 Co705 2.135 . S
Co714 O715 2.216 . S
Co714 O716 2.091 . S
Co714 O718 2.004 . S
Co714 O724 2.021 . S
Co714 O726 2.137 . S
Co714 O727 2.244 . S
O715 Co714 2.216 . S
O715 C722 1.247 . S
O716 Co714 2.091 . S
O716 C722 1.261 . S
C717 O726 1.247 . S
C717 O727 1.272 . S
O718 Co714 2.004 . S
O718 C723 1.259 . S
Co719 O720 2.061 . S
Co719 O725 2.052 . S
Co719 O727 2.135 . S
O720 Co719 2.061 . S
O720 C723 1.235 . S
C721 O724 1.238 . S
C721 O725 1.241 . S
C722 O715 1.247 . S
C722 O716 1.261 . S
C723 O718 1.259 . S
C723 O720 1.235 . S
O724 Co714 2.021 . S
O724 C721 1.238 . S
O725 Co719 2.052 . S
O725 C721 1.241 . S
O726 Co714 2.137 . S
O726 C717 1.247 . S
O727 Co714 2.244 . S
O727 C717 1.272 . S
O727 Co719 2.135 . S
Co728 O729 2.216 . S
Co728 O730 2.091 . S
Co728 O732 2.004 . S
Co728 O738 2.021 . S
Co728 O740 2.137 . S
Co728 O741 2.244 . S
O729 Co728 2.216 . S
O729 C736 1.247 . S
O730 Co728 2.091 . S
O730 C736 1.261 . S
C731 O740 1.247 . S
C731 O741 1.272 . S
O732 Co728 2.004 . S
O732 C737 1.259 . S
Co733 O734 2.061 . S
Co733 O739 2.052 . S
Co733 O741 2.135 . S
O734 Co733 2.061 . S
O734 C737 1.235 . S
C735 O738 1.238 . S
C735 O739 1.241 . S
C736 O729 1.247 . S
C736 O730 1.261 . S
C737 O732 1.259 . S
C737 O734 1.235 . S
O738 Co728 2.021 . S
O738 C735 1.238 . S
O739 Co733 2.052 . S
O739 C735 1.241 . S
O740 Co728 2.137 . S
O740 C731 1.247 . S
O741 Co728 2.244 . S
O741 C731 1.272 . S
O741 Co733 2.135 . S
Co742 O743 2.216 . S
Co742 O744 2.091 . S
Co742 O746 2.004 . S
Co742 O752 2.021 . S
Co742 O754 2.137 . S
Co742 O755 2.244 . S
O743 Co742 2.216 . S
O743 C750 1.247 . S
O744 Co742 2.091 . S
O744 C750 1.261 . S
C745 O754 1.247 . S
C745 O755 1.272 . S
O746 Co742 2.004 . S
O746 C751 1.259 . S
Co747 O748 2.061 . S
Co747 O753 2.052 . S
Co747 O755 2.135 . S
O748 Co747 2.061 . S
O748 C751 1.235 . S
C749 O752 1.238 . S
C749 O753 1.241 . S
C750 O743 1.247 . S
C750 O744 1.261 . S
C751 O746 1.259 . S
C751 O748 1.235 . S
O752 Co742 2.021 . S
O752 C749 1.238 . S
O753 Co747 2.052 . S
O753 C749 1.241 . S
O754 Co742 2.137 . S
O754 C745 1.247 . S
O755 Co742 2.244 . S
O755 C745 1.272 . S
O755 Co747 2.135 . S
Co756 O757 2.216 . S
Co756 O758 2.091 . S
Co756 O760 2.004 . S
Co756 O766 2.021 . S
Co756 O768 2.137 . S
Co756 O769 2.244 . S
O757 Co756 2.216 . S
O757 C764 1.247 . S
O758 Co756 2.091 . S
O758 C764 1.261 . S
C759 O768 1.247 . S
C759 O769 1.272 . S
O760 Co756 2.004 . S
O760 C765 1.259 . S
Co761 O762 2.061 . S
Co761 O767 2.052 . S
Co761 O769 2.135 . S
O762 Co761 2.061 . S
O762 C765 1.235 . S
C763 O766 1.238 . S
C763 O767 1.241 . S
C764 O757 1.247 . S
C764 O758 1.261 . S
C765 O760 1.259 . S
C765 O762 1.235 . S
O766 Co756 2.021 . S
O766 C763 1.238 . S
O767 Co761 2.052 . S
O767 C763 1.241 . S
O768 Co756 2.137 . S
O768 C759 1.247 . S
O769 Co756 2.244 . S
O769 C759 1.272 . S
O769 Co761 2.135 . S
Co770 O771 2.216 . S
Co770 O772 2.091 . S
Co770 O774 2.004 . S
Co770 O780 2.021 . S
Co770 O782 2.137 . S
Co770 O783 2.244 . S
O771 Co770 2.216 . S
O771 C778 1.247 . S
O772 Co770 2.091 . S
O772 C778 1.261 . S
C773 O782 1.247 . S
C773 O783 1.272 . S
O774 Co770 2.004 . S
O774 C779 1.259 . S
Co775 O776 2.061 . S
Co775 O781 2.052 . S
Co775 O783 2.135 . S
O776 Co775 2.061 . S
O776 C779 1.235 . S
C777 O780 1.238 . S
C777 O781 1.241 . S
C778 O771 1.247 . S
C778 O772 1.261 . S
C779 O774 1.259 . S
C779 O776 1.235 . S
O780 Co770 2.021 . S
O780 C777 1.238 . S
O781 Co775 2.052 . S
O781 C777 1.241 . S
O782 Co770 2.137 . S
O782 C773 1.247 . S
O783 Co770 2.244 . S
O783 C773 1.272 . S
O783 Co775 2.135 . S
Co784 O785 2.216 . S
Co784 O786 2.091 . S
Co784 O788 2.004 . S
Co784 O794 2.021 . S
Co784 O796 2.137 . S
Co784 O797 2.244 . S
O785 Co784 2.216 . S
O785 C792 1.247 . S
O786 Co784 2.091 . S
O786 C792 1.261 . S
C787 O796 1.247 . S
C787 O797 1.272 . S
O788 Co784 2.004 . S
O788 C793 1.259 . S
Co789 O790 2.061 . S
Co789 O795 2.052 . S
Co789 O797 2.135 . S
O790 Co789 2.061 . S
O790 C793 1.235 . S
C791 O794 1.238 . S
C791 O795 1.241 . S
C792 O785 1.247 . S
C792 O786 1.261 . S
C793 O788 1.259 . S
C793 O790 1.235 . S
O794 Co784 2.021 . S
O794 C791 1.238 . S
O795 Co789 2.052 . S
O795 C791 1.241 . S
O796 Co784 2.137 . S
O796 C787 1.247 . S
O797 Co784 2.244 . S
O797 C787 1.272 . S
O797 Co789 2.135 . S
Co798 O799 2.216 . S
Co798 O800 2.091 . S
Co798 O802 2.004 . S
Co798 O808 2.021 . S
Co798 O810 2.137 . S
Co798 O811 2.244 . S
O799 Co798 2.216 . S
O799 C806 1.247 . S
O800 Co798 2.091 . S
O800 C806 1.261 . S
C801 O810 1.247 . S
C801 O811 1.272 . S
O802 Co798 2.004 . S
O802 C807 1.259 . S
Co803 O804 2.061 . S
Co803 O809 2.052 . S
Co803 O811 2.135 . S
O804 Co803 2.061 . S
O804 C807 1.235 . S
C805 O808 1.238 . S
C805 O809 1.241 . S
C806 O799 1.247 . S
C806 O800 1.261 . S
C807 O802 1.259 . S
C807 O804 1.235 . S
O808 Co798 2.021 . S
O808 C805 1.238 . S
O809 Co803 2.052 . S
O809 C805 1.241 . S
O810 Co798 2.137 . S
O810 C801 1.247 . S
O811 Co798 2.244 . S
O811 C801 1.272 . S
O811 Co803 2.135 . S
Co812 O813 2.216 . S
Co812 O814 2.091 . S
Co812 O816 2.004 . S
Co812 O822 2.021 . S
Co812 O824 2.137 . S
Co812 O825 2.244 . S
O813 Co812 2.216 . S
O813 C820 1.247 . S
O814 Co812 2.091 . S
O814 C820 1.261 . S
C815 O824 1.247 . S
C815 O825 1.272 . S
O816 Co812 2.004 . S
O816 C821 1.259 . S
Co817 O818 2.061 . S
Co817 O823 2.052 . S
Co817 O825 2.135 . S
O818 Co817 2.061 . S
O818 C821 1.235 . S
C819 O822 1.238 . S
C819 O823 1.241 . S
C820 O813 1.247 . S
C820 O814 1.261 . S
C821 O816 1.259 . S
C821 O818 1.235 . S
O822 Co812 2.021 . S
O822 C819 1.238 . S
O823 Co817 2.052 . S
O823 C819 1.241 . S
O824 Co812 2.137 . S
O824 C815 1.247 . S
O825 Co812 2.244 . S
O825 C815 1.272 . S
O825 Co817 2.135 . S
Co826 O827 2.216 . S
Co826 O828 2.091 . S
Co826 O830 2.004 . S
Co826 O836 2.021 . S
Co826 O838 2.137 . S
Co826 O839 2.244 . S
O827 Co826 2.216 . S
O827 C834 1.247 . S
O828 Co826 2.091 . S
O828 C834 1.261 . S
C829 O838 1.247 . S
C829 O839 1.272 . S
O830 Co826 2.004 . S
O830 C835 1.259 . S
Co831 O832 2.061 . S
Co831 O837 2.052 . S
Co831 O839 2.135 . S
O832 Co831 2.061 . S
O832 C835 1.235 . S
C833 O836 1.238 . S
C833 O837 1.241 . S
C834 O827 1.247 . S
C834 O828 1.261 . S
C835 O830 1.259 . S
C835 O832 1.235 . S
O836 Co826 2.021 . S
O836 C833 1.238 . S
O837 Co831 2.052 . S
O837 C833 1.241 . S
O838 Co826 2.137 . S
O838 C829 1.247 . S
O839 Co826 2.244 . S
O839 C829 1.272 . S
O839 Co831 2.135 . S
Co840 O841 2.216 . S
Co840 O842 2.091 . S
Co840 O844 2.004 . S
Co840 O850 2.021 . S
Co840 O852 2.137 . S
Co840 O853 2.244 . S
O841 Co840 2.216 . S
O841 C848 1.247 . S
O842 Co840 2.091 . S
O842 C848 1.261 . S
C843 O852 1.247 . S
C843 O853 1.272 . S
O844 Co840 2.004 . S
O844 C849 1.259 . S
Co845 O846 2.061 . S
Co845 O851 2.052 . S
Co845 O853 2.135 . S
O846 Co845 2.061 . S
O846 C849 1.235 . S
C847 O850 1.238 . S
C847 O851 1.241 . S
C848 O841 1.247 . S
C848 O842 1.261 . S
C849 O844 1.259 . S
C849 O846 1.235 . S
O850 Co840 2.021 . S
O850 C847 1.238 . S
O851 Co845 2.052 . S
O851 C847 1.241 . S
O852 Co840 2.137 . S
O852 C843 1.247 . S
O853 Co840 2.244 . S
O853 C843 1.272 . S
O853 Co845 2.135 . S
Co854 O855 2.216 . S
Co854 O856 2.091 . S
Co854 O858 2.004 . S
Co854 O864 2.021 . S
Co854 O866 2.137 . S
Co854 O867 2.244 . S
O855 Co854 2.216 . S
O855 C862 1.247 . S
O856 Co854 2.091 . S
O856 C862 1.261 . S
C857 O866 1.247 . S
C857 O867 1.272 . S
O858 Co854 2.004 . S
O858 C863 1.259 . S
Co859 O860 2.061 . S
Co859 O865 2.052 . S
Co859 O867 2.135 . S
O860 Co859 2.061 . S
O860 C863 1.235 . S
C861 O864 1.238 . S
C861 O865 1.241 . S
C862 O855 1.247 . S
C862 O856 1.261 . S
C863 O858 1.259 . S
C863 O860 1.235 . S
O864 Co854 2.021 . S
O864 C861 1.238 . S
O865 Co859 2.052 . S
O865 C861 1.241 . S
O866 Co854 2.137 . S
O866 C857 1.247 . S
O867 Co854 2.244 . S
O867 C857 1.272 . S
O867 Co859 2.135 . S
Co868 O869 2.216 . S
Co868 O870 2.091 . S
Co868 O872 2.004 . S
Co868 O878 2.021 . S
Co868 O880 2.137 . S
Co868 O881 2.244 . S
O869 Co868 2.216 . S
O869 C876 1.247 . S
O870 Co868 2.091 . S
O870 C876 1.261 . S
C871 O880 1.247 . S
C871 O881 1.272 . S
O872 Co868 2.004 . S
O872 C877 1.259 . S
Co873 O874 2.061 . S
Co873 O879 2.052 . S
Co873 O881 2.135 . S
O874 Co873 2.061 . S
O874 C877 1.235 . S
C875 O878 1.238 . S
C875 O879 1.241 . S
C876 O869 1.247 . S
C876 O870 1.261 . S
C877 O872 1.259 . S
C877 O874 1.235 . S
O878 Co868 2.021 . S
O878 C875 1.238 . S
O879 Co873 2.052 . S
O879 C875 1.241 . S
O880 Co868 2.137 . S
O880 C871 1.247 . S
O881 Co868 2.244 . S
O881 C871 1.272 . S
O881 Co873 2.135 . S
Co882 O883 2.216 . S
Co882 O884 2.091 . S
Co882 O886 2.004 . S
Co882 O892 2.021 . S
Co882 O894 2.137 . S
Co882 O895 2.244 . S
O883 Co882 2.216 . S
O883 C890 1.247 . S
O884 Co882 2.091 . S
O884 C890 1.261 . S
C885 O894 1.247 . S
C885 O895 1.272 . S
O886 Co882 2.004 . S
O886 C891 1.259 . S
Co887 O888 2.061 . S
Co887 O893 2.052 . S
Co887 O895 2.135 . S
O888 Co887 2.061 . S
O888 C891 1.235 . S
C889 O892 1.238 . S
C889 O893 1.241 . S
C890 O883 1.247 . S
C890 O884 1.261 . S
C891 O886 1.259 . S
C891 O888 1.235 . S
O892 Co882 2.021 . S
O892 C889 1.238 . S
O893 Co887 2.052 . S
O893 C889 1.241 . S
O894 Co882 2.137 . S
O894 C885 1.247 . S
O895 Co882 2.244 . S
O895 C885 1.272 . S
O895 Co887 2.135 . S
Co896 O897 2.216 . S
Co896 O898 2.091 . S
Co896 O900 2.004 . S
Co896 O906 2.021 . S
Co896 O908 2.137 . S
Co896 O909 2.244 . S
O897 Co896 2.216 . S
O897 C904 1.247 . S
O898 Co896 2.091 . S
O898 C904 1.261 . S
C899 O908 1.247 . S
C899 O909 1.272 . S
O900 Co896 2.004 . S
O900 C905 1.259 . S
Co901 O902 2.061 . S
Co901 O907 2.052 . S
Co901 O909 2.135 . S
O902 Co901 2.061 . S
O902 C905 1.235 . S
C903 O906 1.238 . S
C903 O907 1.241 . S
C904 O897 1.247 . S
C904 O898 1.261 . S
C905 O900 1.259 . S
C905 O902 1.235 . S
O906 Co896 2.021 . S
O906 C903 1.238 . S
O907 Co901 2.052 . S
O907 C903 1.241 . S
O908 Co896 2.137 . S
O908 C899 1.247 . S
O909 Co896 2.244 . S
O909 C899 1.272 . S
O909 Co901 2.135 . S
Co910 O911 2.216 . S
Co910 O912 2.091 . S
Co910 O914 2.004 . S
Co910 O920 2.021 . S
Co910 O922 2.137 . S
Co910 O923 2.244 . S
O911 Co910 2.216 . S
O911 C918 1.247 . S
O912 Co910 2.091 . S
O912 C918 1.261 . S
C913 O922 1.247 . S
C913 O923 1.272 . S
O914 Co910 2.004 . S
O914 C919 1.259 . S
Co915 O916 2.061 . S
Co915 O921 2.052 . S
Co915 O923 2.135 . S
O916 Co915 2.061 . S
O916 C919 1.235 . S
C917 O920 1.238 . S
C917 O921 1.241 . S
C918 O911 1.247 . S
C918 O912 1.261 . S
C919 O914 1.259 . S
C919 O916 1.235 . S
O920 Co910 2.021 . S
O920 C917 1.238 . S
O921 Co915 2.052 . S
O921 C917 1.241 . S
O922 Co910 2.137 . S
O922 C913 1.247 . S
O923 Co910 2.244 . S
O923 C913 1.272 . S
O923 Co915 2.135 . S
Co924 O925 2.216 . S
Co924 O926 2.091 . S
Co924 O928 2.004 . S
Co924 O934 2.021 . S
Co924 O936 2.137 . S
Co924 O937 2.244 . S
O925 Co924 2.216 . S
O925 C932 1.247 . S
O926 Co924 2.091 . S
O926 C932 1.261 . S
C927 O936 1.247 . S
C927 O937 1.272 . S
O928 Co924 2.004 . S
O928 C933 1.259 . S
Co929 O930 2.061 . S
Co929 O935 2.052 . S
Co929 O937 2.135 . S
O930 Co929 2.061 . S
O930 C933 1.235 . S
C931 O934 1.238 . S
C931 O935 1.241 . S
C932 O925 1.247 . S
C932 O926 1.261 . S
C933 O928 1.259 . S
C933 O930 1.235 . S
O934 Co924 2.021 . S
O934 C931 1.238 . S
O935 Co929 2.052 . S
O935 C931 1.241 . S
O936 Co924 2.137 . S
O936 C927 1.247 . S
O937 Co924 2.244 . S
O937 C927 1.272 . S
O937 Co929 2.135 . S
Co938 O939 2.216 . S
Co938 O940 2.091 . S
Co938 O942 2.004 . S
Co938 O948 2.021 . S
Co938 O950 2.137 . S
Co938 O951 2.244 . S
O939 Co938 2.216 . S
O939 C946 1.247 . S
O940 Co938 2.091 . S
O940 C946 1.261 . S
C941 O950 1.247 . S
C941 O951 1.272 . S
O942 Co938 2.004 . S
O942 C947 1.259 . S
Co943 O944 2.061 . S
Co943 O949 2.052 . S
Co943 O951 2.135 . S
O944 Co943 2.061 . S
O944 C947 1.235 . S
C945 O948 1.238 . S
C945 O949 1.241 . S
C946 O939 1.247 . S
C946 O940 1.261 . S
C947 O942 1.259 . S
C947 O944 1.235 . S
O948 Co938 2.021 . S
O948 C945 1.238 . S
O949 Co943 2.052 . S
O949 C945 1.241 . S
O950 Co938 2.137 . S
O950 C941 1.247 . S
O951 Co938 2.244 . S
O951 C941 1.272 . S
O951 Co943 2.135 . S
Co952 O953 2.216 . S
Co952 O954 2.091 . S
Co952 O956 2.004 . S
Co952 O962 2.021 . S
Co952 O964 2.137 . S
Co952 O965 2.244 . S
O953 Co952 2.216 . S
O953 C960 1.247 . S
O954 Co952 2.091 . S
O954 C960 1.261 . S
C955 O964 1.247 . S
C955 O965 1.272 . S
O956 Co952 2.004 . S
O956 C961 1.259 . S
Co957 O958 2.061 . S
Co957 O963 2.052 . S
Co957 O965 2.135 . S
O958 Co957 2.061 . S
O958 C961 1.235 . S
C959 O962 1.238 . S
C959 O963 1.241 . S
C960 O953 1.247 . S
C960 O954 1.261 . S
C961 O956 1.259 . S
C961 O958 1.235 . S
O962 Co952 2.021 . S
O962 C959 1.238 . S
O963 Co957 2.052 . S
O963 C959 1.241 . S
O964 Co952 2.137 . S
O964 C955 1.247 . S
O965 Co952 2.244 . S
O965 C955 1.272 . S
O965 Co957 2.135 . S
Co966 O967 2.216 . S
Co966 O968 2.091 . S
Co966 O970 2.004 . S
Co966 O976 2.021 . S
Co966 O978 2.137 . S
Co966 O979 2.244 . S
O967 Co966 2.216 . S
O967 C974 1.247 . S
O968 Co966 2.091 . S
O968 C974 1.261 . S
C969 O978 1.247 . S
C969 O979 1.272 . S
O970 Co966 2.004 . S
O970 C975 1.259 . S
Co971 O972 2.061 . S
Co971 O977 2.052 . S
Co971 O979 2.135 . S
O972 Co971 2.061 . S
O972 C975 1.235 . S
C973 O976 1.238 . S
C973 O977 1.241 . S
C974 O967 1.247 . S
C974 O968 1.261 . S
C975 O970 1.259 . S
C975 O972 1.235 . S
O976 Co966 2.021 . S
O976 C973 1.238 . S
O977 Co971 2.052 . S
O977 C973 1.241 . S
O978 Co966 2.137 . S
O978 C969 1.247 . S
O979 Co966 2.244 . S
O979 C969 1.272 . S
O979 Co971 2.135 . S
Co980 O981 2.216 . S
Co980 O982 2.091 . S
Co980 O984 2.004 . S
Co980 O990 2.021 . S
Co980 O992 2.137 . S
Co980 O993 2.244 . S
O981 Co980 2.216 . S
O981 C988 1.247 . S
O982 Co980 2.091 . S
O982 C988 1.261 . S
C983 O992 1.247 . S
C983 O993 1.272 . S
O984 Co980 2.004 . S
O984 C989 1.259 . S
Co985 O986 2.061 . S
Co985 O991 2.052 . S
Co985 O993 2.135 . S
O986 Co985 2.061 . S
O986 C989 1.235 . S
C987 O990 1.238 . S
C987 O991 1.241 . S
C988 O981 1.247 . S
C988 O982 1.261 . S
C989 O984 1.259 . S
C989 O986 1.235 . S
O990 Co980 2.021 . S
O990 C987 1.238 . S
O991 Co985 2.052 . S
O991 C987 1.241 . S
O992 Co980 2.137 . S
O992 C983 1.247 . S
O993 Co980 2.244 . S
O993 C983 1.272 . S
O993 Co985 2.135 . S
Co994 O995 2.216 . S
Co994 O996 2.091 . S
Co994 O998 2.004 . S
Co994 O1004 2.021 . S
Co994 O1006 2.137 . S
Co994 O1007 2.244 . S
O995 Co994 2.216 . S
O995 C1002 1.247 . S
O996 Co994 2.091 . S
O996 C1002 1.261 . S
C997 O1006 1.247 . S
C997 O1007 1.272 . S
O998 Co994 2.004 . S
O998 C1003 1.259 . S
Co999 O1000 2.061 . S
Co999 O1005 2.052 . S
Co999 O1007 2.135 . S
O1000 Co999 2.061 . S
O1000 C1003 1.235 . S
C1001 O1004 1.238 . S
C1001 O1005 1.241 . S
C1002 O995 1.247 . S
C1002 O996 1.261 . S
C1003 O998 1.259 . S
C1003 O1000 1.235 . S
O1004 Co994 2.021 . S
O1004 C1001 1.238 . S
O1005 Co999 2.052 . S
O1005 C1001 1.241 . S
O1006 Co994 2.137 . S
O1006 C997 1.247 . S
O1007 Co994 2.244 . S
O1007 C997 1.272 . S
O1007 Co999 2.135 . S
Co1008 O1009 2.216 . S
Co1008 O1010 2.091 . S
Co1008 O1012 2.004 . S
Co1008 O1018 2.021 . S
Co1008 O1020 2.137 . S
Co1008 O1021 2.244 . S
O1009 Co1008 2.216 . S
O1009 C1016 1.247 . S
O1010 Co1008 2.091 . S
O1010 C1016 1.261 . S
C1011 O1020 1.247 . S
C1011 O1021 1.272 . S
O1012 Co1008 2.004 . S
O1012 C1017 1.259 . S
Co1013 O1014 2.061 . S
Co1013 O1019 2.052 . S
Co1013 O1021 2.135 . S
O1014 Co1013 2.061 . S
O1014 C1017 1.235 . S
C1015 O1018 1.238 . S
C1015 O1019 1.241 . S
C1016 O1009 1.247 . S
C1016 O1010 1.261 . S
C1017 O1012 1.259 . S
C1017 O1014 1.235 . S
O1018 Co1008 2.021 . S
O1018 C1015 1.238 . S
O1019 Co1013 2.052 . S
O1019 C1015 1.241 . S
O1020 Co1008 2.137 . S
O1020 C1011 1.247 . S
O1021 Co1008 2.244 . S
O1021 C1011 1.272 . S
O1021 Co1013 2.135 . S
Co1022 O1023 2.216 . S
Co1022 O1024 2.091 . S
Co1022 O1026 2.004 . S
Co1022 O1032 2.021 . S
Co1022 O1034 2.137 . S
Co1022 O1035 2.244 . S
O1023 Co1022 2.216 . S
O1023 C1030 1.247 . S
O1024 Co1022 2.091 . S
O1024 C1030 1.261 . S
C1025 O1034 1.247 . S
C1025 O1035 1.272 . S
O1026 Co1022 2.004 . S
O1026 C1031 1.259 . S
Co1027 O1028 2.061 . S
Co1027 O1033 2.052 . S
Co1027 O1035 2.135 . S
O1028 Co1027 2.061 . S
O1028 C1031 1.235 . S
C1029 O1032 1.238 . S
C1029 O1033 1.241 . S
C1030 O1023 1.247 . S
C1030 O1024 1.261 . S
C1031 O1026 1.259 . S
C1031 O1028 1.235 . S
O1032 Co1022 2.021 . S
O1032 C1029 1.238 . S
O1033 Co1027 2.052 . S
O1033 C1029 1.241 . S
O1034 Co1022 2.137 . S
O1034 C1025 1.247 . S
O1035 Co1022 2.244 . S
O1035 C1025 1.272 . S
O1035 Co1027 2.135 . S
Co1036 O1037 2.216 . S
Co1036 O1038 2.091 . S
Co1036 O1040 2.004 . S
Co1036 O1046 2.021 . S
Co1036 O1048 2.137 . S
Co1036 O1049 2.244 . S
O1037 Co1036 2.216 . S
O1037 C1044 1.247 . S
O1038 Co1036 2.091 . S
O1038 C1044 1.261 . S
C1039 O1048 1.247 . S
C1039 O1049 1.272 . S
O1040 Co1036 2.004 . S
O1040 C1045 1.259 . S
Co1041 O1042 2.061 . S
Co1041 O1047 2.052 . S
Co1041 O1049 2.135 . S
O1042 Co1041 2.061 . S
O1042 C1045 1.235 . S
C1043 O1046 1.238 . S
C1043 O1047 1.241 . S
C1044 O1037 1.247 . S
C1044 O1038 1.261 . S
C1045 O1040 1.259 . S
C1045 O1042 1.235 . S
O1046 Co1036 2.021 . S
O1046 C1043 1.238 . S
O1047 Co1041 2.052 . S
O1047 C1043 1.241 . S
O1048 Co1036 2.137 . S
O1048 C1039 1.247 . S
O1049 Co1036 2.244 . S
O1049 C1039 1.272 . S
O1049 Co1041 2.135 . S
Co1050 O1051 2.216 . S
Co1050 O1052 2.091 . S
Co1050 O1054 2.004 . S
Co1050 O1060 2.021 . S
Co1050 O1062 2.137 . S
Co1050 O1063 2.244 . S
O1051 Co1050 2.216 . S
O1051 C1058 1.247 . S
O1052 Co1050 2.091 . S
O1052 C1058 1.261 . S
C1053 O1062 1.247 . S
C1053 O1063 1.272 . S
O1054 Co1050 2.004 . S
O1054 C1059 1.259 . S
Co1055 O1056 2.061 . S
Co1055 O1061 2.052 . S
Co1055 O1063 2.135 . S
O1056 Co1055 2.061 . S
O1056 C1059 1.235 . S
C1057 O1060 1.238 . S
C1057 O1061 1.241 . S
C1058 O1051 1.247 . S
C1058 O1052 1.261 . S
C1059 O1054 1.259 . S
C1059 O1056 1.235 . S
O1060 Co1050 2.021 . S
O1060 C1057 1.238 . S
O1061 Co1055 2.052 . S
O1061 C1057 1.241 . S
O1062 Co1050 2.137 . S
O1062 C1053 1.247 . S
O1063 Co1050 2.244 . S
O1063 C1053 1.272 . S
O1063 Co1055 2.135 . S
Co1064 O1065 2.216 . S
Co1064 O1066 2.091 . S
Co1064 O1068 2.004 . S
Co1064 O1074 2.021 . S
Co1064 O1076 2.137 . S
Co1064 O1077 2.244 . S
O1065 Co1064 2.216 . S
O1065 C1072 1.247 . S
O1066 Co1064 2.091 . S
O1066 C1072 1.261 . S
C1067 O1076 1.247 . S
C1067 O1077 1.272 . S
O1068 Co1064 2.004 . S
O1068 C1073 1.259 . S
Co1069 O1070 2.061 . S
Co1069 O1075 2.052 . S
Co1069 O1077 2.135 . S
O1070 Co1069 2.061 . S
O1070 C1073 1.235 . S
C1071 O1074 1.238 . S
C1071 O1075 1.241 . S
C1072 O1065 1.247 . S
C1072 O1066 1.261 . S
C1073 O1068 1.259 . S
C1073 O1070 1.235 . S
O1074 Co1064 2.021 . S
O1074 C1071 1.238 . S
O1075 Co1069 2.052 . S
O1075 C1071 1.241 . S
O1076 Co1064 2.137 . S
O1076 C1067 1.247 . S
O1077 Co1064 2.244 . S
O1077 C1067 1.272 . S
O1077 Co1069 2.135 . S
Co1078 O1079 2.216 . S
Co1078 O1080 2.091 . S
Co1078 O1082 2.004 . S
Co1078 O1088 2.021 . S
Co1078 O1090 2.137 . S
Co1078 O1091 2.244 . S
O1079 Co1078 2.216 . S
O1079 C1086 1.247 . S
O1080 Co1078 2.091 . S
O1080 C1086 1.261 . S
C1081 O1090 1.247 . S
C1081 O1091 1.272 . S
O1082 Co1078 2.004 . S
O1082 C1087 1.259 . S
Co1083 O1084 2.061 . S
Co1083 O1089 2.052 . S
Co1083 O1091 2.135 . S
O1084 Co1083 2.061 . S
O1084 C1087 1.235 . S
C1085 O1088 1.238 . S
C1085 O1089 1.241 . S
C1086 O1079 1.247 . S
C1086 O1080 1.261 . S
C1087 O1082 1.259 . S
C1087 O1084 1.235 . S
O1088 Co1078 2.021 . S
O1088 C1085 1.238 . S
O1089 Co1083 2.052 . S
O1089 C1085 1.241 . S
O1090 Co1078 2.137 . S
O1090 C1081 1.247 . S
O1091 Co1078 2.244 . S
O1091 C1081 1.272 . S
O1091 Co1083 2.135 . S
Co1092 O1093 2.216 . S
Co1092 O1094 2.091 . S
Co1092 O1096 2.004 . S
Co1092 O1102 2.021 . S
Co1092 O1104 2.137 . S
Co1092 O1105 2.244 . S
O1093 Co1092 2.216 . S
O1093 C1100 1.247 . S
O1094 Co1092 2.091 . S
O1094 C1100 1.261 . S
C1095 O1104 1.247 . S
C1095 O1105 1.272 . S
O1096 Co1092 2.004 . S
O1096 C1101 1.259 . S
Co1097 O1098 2.061 . S
Co1097 O1103 2.052 . S
Co1097 O1105 2.135 . S
O1098 Co1097 2.061 . S
O1098 C1101 1.235 . S
C1099 O1102 1.238 . S
C1099 O1103 1.241 . S
C1100 O1093 1.247 . S
C1100 O1094 1.261 . S
C1101 O1096 1.259 . S
C1101 O1098 1.235 . S
O1102 Co1092 2.021 . S
O1102 C1099 1.238 . S
O1103 Co1097 2.052 . S
O1103 C1099 1.241 . S
O1104 Co1092 2.137 . S
O1104 C1095 1.247 . S
O1105 Co1092 2.244 . S
O1105 C1095 1.272 . S
O1105 Co1097 2.135 . S
Co1106 O1107 2.216 . S
Co1106 O1108 2.091 . S
Co1106 O1110 2.004 . S
Co1106 O1116 2.021 . S
Co1106 O1118 2.137 . S
Co1106 O1119 2.244 . S
O1107 Co1106 2.216 . S
O1107 C1114 1.247 . S
O1108 Co1106 2.091 . S
O1108 C1114 1.261 . S
C1109 O1118 1.247 . S
C1109 O1119 1.272 . S
O1110 Co1106 2.004 . S
O1110 C1115 1.259 . S
Co1111 O1112 2.061 . S
Co1111 O1117 2.052 . S
Co1111 O1119 2.135 . S
O1112 Co1111 2.061 . S
O1112 C1115 1.235 . S
C1113 O1116 1.238 . S
C1113 O1117 1.241 . S
C1114 O1107 1.247 . S
C1114 O1108 1.261 . S
C1115 O1110 1.259 . S
C1115 O1112 1.235 . S
O1116 Co1106 2.021 . S
O1116 C1113 1.238 . S
O1117 Co1111 2.052 . S
O1117 C1113 1.241 . S
O1118 Co1106 2.137 . S
O1118 C1109 1.247 . S
O1119 Co1106 2.244 . S
O1119 C1109 1.272 . S
O1119 Co1111 2.135 . S
Co1120 O1121 2.216 . S
Co1120 O1122 2.091 . S
Co1120 O1124 2.004 . S
Co1120 O1130 2.021 . S
Co1120 O1132 2.137 . S
Co1120 O1133 2.244 . S
O1121 Co1120 2.216 . S
O1121 C1128 1.247 . S
O1122 Co1120 2.091 . S
O1122 C1128 1.261 . S
C1123 O1132 1.247 . S
C1123 O1133 1.272 . S
O1124 Co1120 2.004 . S
O1124 C1129 1.259 . S
Co1125 O1126 2.061 . S
Co1125 O1131 2.052 . S
Co1125 O1133 2.135 . S
O1126 Co1125 2.061 . S
O1126 C1129 1.235 . S
C1127 O1130 1.238 . S
C1127 O1131 1.241 . S
C1128 O1121 1.247 . S
C1128 O1122 1.261 . S
C1129 O1124 1.259 . S
C1129 O1126 1.235 . S
O1130 Co1120 2.021 . S
O1130 C1127 1.238 . S
O1131 Co1125 2.052 . S
O1131 C1127 1.241 . S
O1132 Co1120 2.137 . S
O1132 C1123 1.247 . S
O1133 Co1120 2.244 . S
O1133 C1123 1.272 . S
O1133 Co1125 2.135 . S
Co1134 O1135 2.216 . S
Co1134 O1136 2.091 . S
Co1134 O1138 2.004 . S
Co1134 O1144 2.021 . S
Co1134 O1146 2.137 . S
Co1134 O1147 2.244 . S
O1135 Co1134 2.216 . S
O1135 C1142 1.247 . S
O1136 Co1134 2.091 . S
O1136 C1142 1.261 . S
C1137 O1146 1.247 . S
C1137 O1147 1.272 . S
O1138 Co1134 2.004 . S
O1138 C1143 1.259 . S
Co1139 O1140 2.061 . S
Co1139 O1145 2.052 . S
Co1139 O1147 2.135 . S
O1140 Co1139 2.061 . S
O1140 C1143 1.235 . S
C1141 O1144 1.238 . S
C1141 O1145 1.241 . S
C1142 O1135 1.247 . S
C1142 O1136 1.261 . S
C1143 O1138 1.259 . S
C1143 O1140 1.235 . S
O1144 Co1134 2.021 . S
O1144 C1141 1.238 . S
O1145 Co1139 2.052 . S
O1145 C1141 1.241 . S
O1146 Co1134 2.137 . S
O1146 C1137 1.247 . S
O1147 Co1134 2.244 . S
O1147 C1137 1.272 . S
O1147 Co1139 2.135 . S
Co1148 O1149 2.216 . S
Co1148 O1150 2.091 . S
Co1148 O1152 2.004 . S
Co1148 O1158 2.021 . S
Co1148 O1160 2.137 . S
Co1148 O1161 2.244 . S
O1149 Co1148 2.216 . S
O1149 C1156 1.247 . S
O1150 Co1148 2.091 . S
O1150 C1156 1.261 . S
C1151 O1160 1.247 . S
C1151 O1161 1.272 . S
O1152 Co1148 2.004 . S
O1152 C1157 1.259 . S
Co1153 O1154 2.061 . S
Co1153 O1159 2.052 . S
Co1153 O1161 2.135 . S
O1154 Co1153 2.061 . S
O1154 C1157 1.235 . S
C1155 O1158 1.238 . S
C1155 O1159 1.241 . S
C1156 O1149 1.247 . S
C1156 O1150 1.261 . S
C1157 O1152 1.259 . S
C1157 O1154 1.235 . S
O1158 Co1148 2.021 . S
O1158 C1155 1.238 . S
O1159 Co1153 2.052 . S
O1159 C1155 1.241 . S
O1160 Co1148 2.137 . S
O1160 C1151 1.247 . S
O1161 Co1148 2.244 . S
O1161 C1151 1.272 . S
O1161 Co1153 2.135 . S
Co1162 O1163 2.216 . S
Co1162 O1164 2.091 . S
Co1162 O1166 2.004 . S
Co1162 O1172 2.021 . S
Co1162 O1174 2.137 . S
Co1162 O1175 2.244 . S
O1163 Co1162 2.216 . S
O1163 C1170 1.247 . S
O1164 Co1162 2.091 . S
O1164 C1170 1.261 . S
C1165 O1174 1.247 . S
C1165 O1175 1.272 . S
O1166 Co1162 2.004 . S
O1166 C1171 1.259 . S
Co1167 O1168 2.061 . S
Co1167 O1173 2.052 . S
Co1167 O1175 2.135 . S
O1168 Co1167 2.061 . S
O1168 C1171 1.235 . S
C1169 O1172 1.238 . S
C1169 O1173 1.241 . S
C1170 O1163 1.247 . S
C1170 O1164 1.261 . S
C1171 O1166 1.259 . S
C1171 O1168 1.235 . S
O1172 Co1162 2.021 . S
O1172 C1169 1.238 . S
O1173 Co1167 2.052 . S
O1173 C1169 1.241 . S
O1174 Co1162 2.137 . S
O1174 C1165 1.247 . S
O1175 Co1162 2.244 . S
O1175 C1165 1.272 . S
O1175 Co1167 2.135 . S
Co1176 O1177 2.216 . S
Co1176 O1178 2.091 . S
Co1176 O1180 2.004 . S
Co1176 O1186 2.021 . S
Co1176 O1188 2.137 . S
Co1176 O1189 2.244 . S
O1177 Co1176 2.216 . S
O1177 C1184 1.247 . S
O1178 Co1176 2.091 . S
O1178 C1184 1.261 . S
C1179 O1188 1.247 . S
C1179 O1189 1.272 . S
O1180 Co1176 2.004 . S
O1180 C1185 1.259 . S
Co1181 O1182 2.061 . S
Co1181 O1187 2.052 . S
Co1181 O1189 2.135 . S
O1182 Co1181 2.061 . S
O1182 C1185 1.235 . S
C1183 O1186 1.238 . S
C1183 O1187 1.241 . S
C1184 O1177 1.247 . S
C1184 O1178 1.261 . S
C1185 O1180 1.259 . S
C1185 O1182 1.235 . S
O1186 Co1176 2.021 . S
O1186 C1183 1.238 . S
O1187 Co1181 2.052 . S
O1187 C1183 1.241 . S
O1188 Co1176 2.137 . S
O1188 C1179 1.247 . S
O1189 Co1176 2.244 . S
O1189 C1179 1.272 . S
O1189 Co1181 2.135 . S
Co1190 O1191 2.216 . S
Co1190 O1192 2.091 . S
Co1190 O1194 2.004 . S
Co1190 O1200 2.021 . S
Co1190 O1202 2.137 . S
Co1190 O1203 2.244 . S
O1191 Co1190 2.216 . S
O1191 C1198 1.247 . S
O1192 Co1190 2.091 . S
O1192 C1198 1.261 . S
C1193 O1202 1.247 . S
C1193 O1203 1.272 . S
O1194 Co1190 2.004 . S
O1194 C1199 1.259 . S
Co1195 O1196 2.061 . S
Co1195 O1201 2.052 . S
Co1195 O1203 2.135 . S
O1196 Co1195 2.061 . S
O1196 C1199 1.235 . S
C1197 O1200 1.238 . S
C1197 O1201 1.241 . S
C1198 O1191 1.247 . S
C1198 O1192 1.261 . S
C1199 O1194 1.259 . S
C1199 O1196 1.235 . S
O1200 Co1190 2.021 . S
O1200 C1197 1.238 . S
O1201 Co1195 2.052 . S
O1201 C1197 1.241 . S
O1202 Co1190 2.137 . S
O1202 C1193 1.247 . S
O1203 Co1190 2.244 . S
O1203 C1193 1.272 . S
O1203 Co1195 2.135 . S
Co1204 O1205 2.216 . S
Co1204 O1206 2.091 . S
Co1204 O1208 2.004 . S
Co1204 O1214 2.021 . S
Co1204 O1216 2.137 . S
Co1204 O1217 2.244 . S
O1205 Co1204 2.216 . S
O1205 C1212 1.247 . S
O1206 Co1204 2.091 . S
O1206 C1212 1.261 . S
C1207 O1216 1.247 . S
C1207 O1217 1.272 . S
O1208 Co1204 2.004 . S
O1208 C1213 1.259 . S
Co1209 O1210 2.061 . S
Co1209 O1215 2.052 . S
Co1209 O1217 2.135 . S
O1210 Co1209 2.061 . S
O1210 C1213 1.235 . S
C1211 O1214 1.238 . S
C1211 O1215 1.241 . S
C1212 O1205 1.247 . S
C1212 O1206 1.261 . S
C1213 O1208 1.259 . S
C1213 O1210 1.235 . S
O1214 Co1204 2.021 . S
O1214 C1211 1.238 . S
O1215 Co1209 2.052 . S
O1215 C1211 1.241 . S
O1216 Co1204 2.137 . S
O1216 C1207 1.247 . S
O1217 Co1204 2.244 . S
O1217 C1207 1.272 . S
O1217 Co1209 2.135 . S
Co1218 O1219 2.216 . S
Co1218 O1220 2.091 . S
Co1218 O1222 2.004 . S
Co1218 O1228 2.021 . S
Co1218 O1230 2.137 . S
Co1218 O1231 2.244 . S
O1219 Co1218 2.216 . S
O1219 C1226 1.247 . S
O1220 Co1218 2.091 . S
O1220 C1226 1.261 . S
C1221 O1230 1.247 . S
C1221 O1231 1.272 . S
O1222 Co1218 2.004 . S
O1222 C1227 1.259 . S
Co1223 O1224 2.061 . S
Co1223 O1229 2.052 . S
Co1223 O1231 2.135 . S
O1224 Co1223 2.061 . S
O1224 C1227 1.235 . S
C1225 O1228 1.238 . S
C1225 O1229 1.241 . S
C1226 O1219 1.247 . S
C1226 O1220 1.261 . S
C1227 O1222 1.259 . S
C1227 O1224 1.235 . S
O1228 Co1218 2.021 . S
O1228 C1225 1.238 . S
O1229 Co1223 2.052 . S
O1229 C1225 1.241 . S
O1230 Co1218 2.137 . S
O1230 C1221 1.247 . S
O1231 Co1218 2.244 . S
O1231 C1221 1.272 . S
O1231 Co1223 2.135 . S
Co1232 O1233 2.216 . S
Co1232 O1234 2.091 . S
Co1232 O1236 2.004 . S
Co1232 O1242 2.021 . S
Co1232 O1244 2.137 . S
Co1232 O1245 2.244 . S
O1233 Co1232 2.216 . S
O1233 C1240 1.247 . S
O1234 Co1232 2.091 . S
O1234 C1240 1.261 . S
C1235 O1244 1.247 . S
C1235 O1245 1.272 . S
O1236 Co1232 2.004 . S
O1236 C1241 1.259 . S
Co1237 O1238 2.061 . S
Co1237 O1243 2.052 . S
Co1237 O1245 2.135 . S
O1238 Co1237 2.061 . S
O1238 C1241 1.235 . S
C1239 O1242 1.238 . S
C1239 O1243 1.241 . S
C1240 O1233 1.247 . S
C1240 O1234 1.261 . S
C1241 O1236 1.259 . S
C1241 O1238 1.235 . S
O1242 Co1232 2.021 . S
O1242 C1239 1.238 . S
O1243 Co1237 2.052 . S
O1243 C1239 1.241 . S
O1244 Co1232 2.137 . S
O1244 C1235 1.247 . S
O1245 Co1232 2.244 . S
O1245 C1235 1.272 . S
O1245 Co1237 2.135 . S
Co1246 O1247 2.216 . S
Co1246 O1248 2.091 . S
Co1246 O1250 2.004 . S
Co1246 O1256 2.021 . S
Co1246 O1258 2.137 . S
Co1246 O1259 2.244 . S
O1247 Co1246 2.216 . S
O1247 C1254 1.247 . S
O1248 Co1246 2.091 . S
O1248 C1254 1.261 . S
C1249 O1258 1.247 . S
C1249 O1259 1.272 . S
O1250 Co1246 2.004 . S
O1250 C1255 1.259 . S
Co1251 O1252 2.061 . S
Co1251 O1257 2.052 . S
Co1251 O1259 2.135 . S
O1252 Co1251 2.061 . S
O1252 C1255 1.235 . S
C1253 O1256 1.238 . S
C1253 O1257 1.241 . S
C1254 O1247 1.247 . S
C1254 O1248 1.261 . S
C1255 O1250 1.259 . S
C1255 O1252 1.235 . S
O1256 Co1246 2.021 . S
O1256 C1253 1.238 . S
O1257 Co1251 2.052 . S
O1257 C1253 1.241 . S
O1258 Co1246 2.137 . S
O1258 C1249 1.247 . S
O1259 Co1246 2.244 . S
O1259 C1249 1.272 . S
O1259 Co1251 2.135 . S
Co1260 O1261 2.216 . S
Co1260 O1262 2.091 . S
Co1260 O1264 2.004 . S
Co1260 O1270 2.021 . S
Co1260 O1272 2.137 . S
Co1260 O1273 2.244 . S
O1261 Co1260 2.216 . S
O1261 C1268 1.247 . S
O1262 Co1260 2.091 . S
O1262 C1268 1.261 . S
C1263 O1272 1.247 . S
C1263 O1273 1.272 . S
O1264 Co1260 2.004 . S
O1264 C1269 1.259 . S
Co1265 O1266 2.061 . S
Co1265 O1271 2.052 . S
Co1265 O1273 2.135 . S
O1266 Co1265 2.061 . S
O1266 C1269 1.235 . S
C1267 O1270 1.238 . S
C1267 O1271 1.241 . S
C1268 O1261 1.247 . S
C1268 O1262 1.261 . S
C1269 O1264 1.259 . S
C1269 O1266 1.235 . S
O1270 Co1260 2.021 . S
O1270 C1267 1.238 . S
O1271 Co1265 2.052 . S
O1271 C1267 1.241 . S
O1272 Co1260 2.137 . S
O1272 C1263 1.247 . S
O1273 Co1260 2.244 . S
O1273 C1263 1.272 . S
O1273 Co1265 2.135 . S
Co1274 O1275 2.216 . S
Co1274 O1276 2.091 . S
Co1274 O1278 2.004 . S
Co1274 O1284 2.021 . S
Co1274 O1286 2.137 . S
Co1274 O1287 2.244 . S
O1275 Co1274 2.216 . S
O1275 C1282 1.247 . S
O1276 Co1274 2.091 . S
O1276 C1282 1.261 . S
C1277 O1286 1.247 . S
C1277 O1287 1.272 . S
O1278 Co1274 2.004 . S
O1278 C1283 1.259 . S
Co1279 O1280 2.061 . S
Co1279 O1285 2.052 . S
Co1279 O1287 2.135 . S
O1280 Co1279 2.061 . S
O1280 C1283 1.235 . S
C1281 O1284 1.238 . S
C1281 O1285 1.241 . S
C1282 O1275 1.247 . S
C1282 O1276 1.261 . S
C1283 O1278 1.259 . S
C1283 O1280 1.235 . S
O1284 Co1274 2.021 . S
O1284 C1281 1.238 . S
O1285 Co1279 2.052 . S
O1285 C1281 1.241 . S
O1286 Co1274 2.137 . S
O1286 C1277 1.247 . S
O1287 Co1274 2.244 . S
O1287 C1277 1.272 . S
O1287 Co1279 2.135 . S
Co1288 O1289 2.216 . S
Co1288 O1290 2.091 . S
Co1288 O1292 2.004 . S
Co1288 O1298 2.021 . S
Co1288 O1300 2.137 . S
Co1288 O1301 2.244 . S
O1289 Co1288 2.216 . S
O1289 C1296 1.247 . S
O1290 Co1288 2.091 . S
O1290 C1296 1.261 . S
C1291 O1300 1.247 . S
C1291 O1301 1.272 . S
O1292 Co1288 2.004 . S
O1292 C1297 1.259 . S
Co1293 O1294 2.061 . S
Co1293 O1299 2.052 . S
Co1293 O1301 2.135 . S
O1294 Co1293 2.061 . S
O1294 C1297 1.235 . S
C1295 O1298 1.238 . S
C1295 O1299 1.241 . S
C1296 O1289 1.247 . S
C1296 O1290 1.261 . S
C1297 O1292 1.259 . S
C1297 O1294 1.235 . S
O1298 Co1288 2.021 . S
O1298 C1295 1.238 . S
O1299 Co1293 2.052 . S
O1299 C1295 1.241 . S
O1300 Co1288 2.137 . S
O1300 C1291 1.247 . S
O1301 Co1288 2.244 . S
O1301 C1291 1.272 . S
O1301 Co1293 2.135 . S
Co1302 O1303 2.216 . S
Co1302 O1304 2.091 . S
Co1302 O1306 2.004 . S
Co1302 O1312 2.021 . S
Co1302 O1314 2.137 . S
Co1302 O1315 2.244 . S
O1303 Co1302 2.216 . S
O1303 C1310 1.247 . S
O1304 Co1302 2.091 . S
O1304 C1310 1.261 . S
C1305 O1314 1.247 . S
C1305 O1315 1.272 . S
O1306 Co1302 2.004 . S
O1306 C1311 1.259 . S
Co1307 O1308 2.061 . S
Co1307 O1313 2.052 . S
Co1307 O1315 2.135 . S
O1308 Co1307 2.061 . S
O1308 C1311 1.235 . S
C1309 O1312 1.238 . S
C1309 O1313 1.241 . S
C1310 O1303 1.247 . S
C1310 O1304 1.261 . S
C1311 O1306 1.259 . S
C1311 O1308 1.235 . S
O1312 Co1302 2.021 . S
O1312 C1309 1.238 . S
O1313 Co1307 2.052 . S
O1313 C1309 1.241 . S
O1314 Co1302 2.137 . S
O1314 C1305 1.247 . S
O1315 Co1302 2.244 . S
O1315 C1305 1.272 . S
O1315 Co1307 2.135 . S
Co1316 O1317 2.216 . S
Co1316 O1318 2.091 . S
Co1316 O1320 2.004 . S
Co1316 O1326 2.021 . S
Co1316 O1328 2.137 . S
Co1316 O1329 2.244 . S
O1317 Co1316 2.216 . S
O1317 C1324 1.247 . S
O1318 Co1316 2.091 . S
O1318 C1324 1.261 . S
C1319 O1328 1.247 . S
C1319 O1329 1.272 . S
O1320 Co1316 2.004 . S
O1320 C1325 1.259 . S
Co1321 O1322 2.061 . S
Co1321 O1327 2.052 . S
Co1321 O1329 2.135 . S
O1322 Co1321 2.061 . S
O1322 C1325 1.235 . S
C1323 O1326 1.238 . S
C1323 O1327 1.241 . S
C1324 O1317 1.247 . S
C1324 O1318 1.261 . S
C1325 O1320 1.259 . S
C1325 O1322 1.235 . S
O1326 Co1316 2.021 . S
O1326 C1323 1.238 . S
O1327 Co1321 2.052 . S
O1327 C1323 1.241 . S
O1328 Co1316 2.137 . S
O1328 C1319 1.247 . S
O1329 Co1316 2.244 . S
O1329 C1319 1.272 . S
O1329 Co1321 2.135 . S
Co1330 O1331 2.216 . S
Co1330 O1332 2.091 . S
Co1330 O1334 2.004 . S
Co1330 O1340 2.021 . S
Co1330 O1342 2.137 . S
Co1330 O1343 2.244 . S
O1331 Co1330 2.216 . S
O1331 C1338 1.247 . S
O1332 Co1330 2.091 . S
O1332 C1338 1.261 . S
C1333 O1342 1.247 . S
C1333 O1343 1.272 . S
O1334 Co1330 2.004 . S
O1334 C1339 1.259 . S
Co1335 O1336 2.061 . S
Co1335 O1341 2.052 . S
Co1335 O1343 2.135 . S
O1336 Co1335 2.061 . S
O1336 C1339 1.235 . S
C1337 O1340 1.238 . S
C1337 O1341 1.241 . S
C1338 O1331 1.247 . S
C1338 O1332 1.261 . S
C1339 O1334 1.259 . S
C1339 O1336 1.235 . S
O1340 Co1330 2.021 . S
O1340 C1337 1.238 . S
O1341 Co1335 2.052 . S
O1341 C1337 1.241 . S
O1342 Co1330 2.137 . S
O1342 C1333 1.247 . S
O1343 Co1330 2.244 . S
O1343 C1333 1.272 . S
O1343 Co1335 2.135 . S
C1344 C1345 1.369 . S
C1344 C1346 1.419 . S
C1344 H1348 0.930 . S
C1345 C1344 1.369 . S
C1345 C1354 1.429 . S
C1346 C1344 1.419 . S
C1346 C1347 1.363 . S
C1346 H1349 0.929 . S
C1347 C1346 1.363 . S
C1347 C1353 1.428 . S
H1348 C1344 0.930 . S
H1349 C1346 0.929 . S
S1350 N1351 1.613 . S
S1350 N1352 1.610 . S
N1351 S1350 1.613 . S
N1351 C1354 1.350 . S
N1352 S1350 1.610 . S
N1352 C1353 1.351 . S
C1353 C1347 1.428 . S
C1353 N1352 1.351 . S
C1353 C1354 1.434 . S
C1354 C1345 1.429 . S
C1354 N1351 1.350 . S
C1354 C1353 1.434 . S
C1355 C1356 1.369 . S
C1355 C1357 1.419 . S
C1355 H1359 0.930 . S
C1356 C1355 1.369 . S
C1356 C1365 1.429 . S
C1357 C1355 1.419 . S
C1357 C1358 1.363 . S
C1357 H1360 0.929 . S
C1358 C1357 1.363 . S
C1358 C1364 1.428 . S
H1359 C1355 0.930 . S
H1360 C1357 0.929 . S
S1361 N1362 1.613 . S
S1361 N1363 1.610 . S
N1362 S1361 1.613 . S
N1362 C1365 1.350 . S
N1363 S1361 1.610 . S
N1363 C1364 1.351 . S
C1364 C1358 1.428 . S
C1364 N1363 1.351 . S
C1364 C1365 1.434 . S
C1365 C1356 1.429 . S
C1365 N1362 1.350 . S
C1365 C1364 1.434 . S
C1366 C1367 1.369 . S
C1366 C1368 1.419 . S
C1366 H1370 0.930 . S
C1367 C1366 1.369 . S
C1367 C1376 1.429 . S
C1368 C1366 1.419 . S
C1368 C1369 1.363 . S
C1368 H1371 0.929 . S
C1369 C1368 1.363 . S
C1369 C1375 1.428 . S
H1370 C1366 0.930 . S
H1371 C1368 0.929 . S
S1372 N1373 1.613 . S
S1372 N1374 1.610 . S
N1373 S1372 1.613 . S
N1373 C1376 1.350 . S
N1374 S1372 1.610 . S
N1374 C1375 1.351 . S
C1375 C1369 1.428 . S
C1375 N1374 1.351 . S
C1375 C1376 1.434 . S
C1376 C1367 1.429 . S
C1376 N1373 1.350 . S
C1376 C1375 1.434 . S
C1377 C1378 1.369 . S
C1377 C1379 1.419 . S
C1377 H1381 0.930 . S
C1378 C1377 1.369 . S
C1378 C1387 1.429 . S
C1379 C1377 1.419 . S
C1379 C1380 1.363 . S
C1379 H1382 0.929 . S
C1380 C1379 1.363 . S
C1380 C1386 1.428 . S
H1381 C1377 0.930 . S
H1382 C1379 0.929 . S
S1383 N1384 1.613 . S
S1383 N1385 1.610 . S
N1384 S1383 1.613 . S
N1384 C1387 1.350 . S
N1385 S1383 1.610 . S
N1385 C1386 1.351 . S
C1386 C1380 1.428 . S
C1386 N1385 1.351 . S
C1386 C1387 1.434 . S
C1387 C1378 1.429 . S
C1387 N1384 1.350 . S
C1387 C1386 1.434 . S
C1388 C1389 1.369 . S
C1388 C1390 1.419 . S
C1388 H1392 0.930 . S
C1389 C1388 1.369 . S
C1389 C1398 1.429 . S
C1390 C1388 1.419 . S
C1390 C1391 1.363 . S
C1390 H1393 0.929 . S
C1391 C1390 1.363 . S
C1391 C1397 1.428 . S
H1392 C1388 0.930 . S
H1393 C1390 0.929 . S
S1394 N1395 1.613 . S
S1394 N1396 1.610 . S
N1395 S1394 1.613 . S
N1395 C1398 1.350 . S
N1396 S1394 1.610 . S
N1396 C1397 1.351 . S
C1397 C1391 1.428 . S
C1397 N1396 1.351 . S
C1397 C1398 1.434 . S
C1398 C1389 1.429 . S
C1398 N1395 1.350 . S
C1398 C1397 1.434 . S
C1399 C1400 1.369 . S
C1399 C1401 1.419 . S
C1399 H1403 0.930 . S
C1400 C1399 1.369 . S
C1400 C1409 1.429 . S
C1401 C1399 1.419 . S
C1401 C1402 1.363 . S
C1401 H1404 0.929 . S
C1402 C1401 1.363 . S
C1402 C1408 1.428 . S
H1403 C1399 0.930 . S
H1404 C1401 0.929 . S
S1405 N1406 1.613 . S
S1405 N1407 1.610 . S
N1406 S1405 1.613 . S
N1406 C1409 1.350 . S
N1407 S1405 1.610 . S
N1407 C1408 1.351 . S
C1408 C1402 1.428 . S
C1408 N1407 1.351 . S
C1408 C1409 1.434 . S
C1409 C1400 1.429 . S
C1409 N1406 1.350 . S
C1409 C1408 1.434 . S
C1410 C1411 1.369 . S
C1410 C1412 1.419 . S
C1410 H1414 0.930 . S
C1411 C1410 1.369 . S
C1411 C1420 1.429 . S
C1412 C1410 1.419 . S
C1412 C1413 1.363 . S
C1412 H1415 0.929 . S
C1413 C1412 1.363 . S
C1413 C1419 1.428 . S
H1414 C1410 0.930 . S
H1415 C1412 0.929 . S
S1416 N1417 1.613 . S
S1416 N1418 1.610 . S
N1417 S1416 1.613 . S
N1417 C1420 1.350 . S
N1418 S1416 1.610 . S
N1418 C1419 1.351 . S
C1419 C1413 1.428 . S
C1419 N1418 1.351 . S
C1419 C1420 1.434 . S
C1420 C1411 1.429 . S
C1420 N1417 1.350 . S
C1420 C1419 1.434 . S
C1421 C1422 1.369 . S
C1421 C1423 1.419 . S
C1421 H1425 0.930 . S
C1422 C1421 1.369 . S
C1422 C1431 1.429 . S
C1423 C1421 1.419 . S
C1423 C1424 1.363 . S
C1423 H1426 0.929 . S
C1424 C1423 1.363 . S
C1424 C1430 1.428 . S
H1425 C1421 0.930 . S
H1426 C1423 0.929 . S
S1427 N1428 1.613 . S
S1427 N1429 1.610 . S
N1428 S1427 1.613 . S
N1428 C1431 1.350 . S
N1429 S1427 1.610 . S
N1429 C1430 1.351 . S
C1430 C1424 1.428 . S
C1430 N1429 1.351 . S
C1430 C1431 1.434 . S
C1431 C1422 1.429 . S
C1431 N1428 1.350 . S
C1431 C1430 1.434 . S
C1432 C1433 1.369 . S
C1432 C1434 1.419 . S
C1432 H1436 0.930 . S
C1433 C1432 1.369 . S
C1433 C1442 1.429 . S
C1434 C1432 1.419 . S
C1434 C1435 1.363 . S
C1434 H1437 0.929 . S
C1435 C1434 1.363 . S
C1435 C1441 1.428 . S
H1436 C1432 0.930 . S
H1437 C1434 0.929 . S
S1438 N1439 1.613 . S
S1438 N1440 1.610 . S
N1439 S1438 1.613 . S
N1439 C1442 1.350 . S
N1440 S1438 1.610 . S
N1440 C1441 1.351 . S
C1441 C1435 1.428 . S
C1441 N1440 1.351 . S
C1441 C1442 1.434 . S
C1442 C1433 1.429 . S
C1442 N1439 1.350 . S
C1442 C1441 1.434 . S
C1443 C1444 1.369 . S
C1443 C1445 1.419 . S
C1443 H1447 0.930 . S
C1444 C1443 1.369 . S
C1444 C1453 1.429 . S
C1445 C1443 1.419 . S
C1445 C1446 1.363 . S
C1445 H1448 0.929 . S
C1446 C1445 1.363 . S
C1446 C1452 1.428 . S
H1447 C1443 0.930 . S
H1448 C1445 0.929 . S
S1449 N1450 1.613 . S
S1449 N1451 1.610 . S
N1450 S1449 1.613 . S
N1450 C1453 1.350 . S
N1451 S1449 1.610 . S
N1451 C1452 1.351 . S
C1452 C1446 1.428 . S
C1452 N1451 1.351 . S
C1452 C1453 1.434 . S
C1453 C1444 1.429 . S
C1453 N1450 1.350 . S
C1453 C1452 1.434 . S
C1454 C1455 1.369 . S
C1454 C1456 1.419 . S
C1454 H1458 0.930 . S
C1455 C1454 1.369 . S
C1455 C1464 1.429 . S
C1456 C1454 1.419 . S
C1456 C1457 1.363 . S
C1456 H1459 0.929 . S
C1457 C1456 1.363 . S
C1457 C1463 1.428 . S
H1458 C1454 0.930 . S
H1459 C1456 0.929 . S
S1460 N1461 1.613 . S
S1460 N1462 1.610 . S
N1461 S1460 1.613 . S
N1461 C1464 1.350 . S
N1462 S1460 1.610 . S
N1462 C1463 1.351 . S
C1463 C1457 1.428 . S
C1463 N1462 1.351 . S
C1463 C1464 1.434 . S
C1464 C1455 1.429 . S
C1464 N1461 1.350 . S
C1464 C1463 1.434 . S
C1465 C1466 1.369 . S
C1465 C1467 1.419 . S
C1465 H1469 0.930 . S
C1466 C1465 1.369 . S
C1466 C1475 1.429 . S
C1467 C1465 1.419 . S
C1467 C1468 1.363 . S
C1467 H1470 0.929 . S
C1468 C1467 1.363 . S
C1468 C1474 1.428 . S
H1469 C1465 0.930 . S
H1470 C1467 0.929 . S
S1471 N1472 1.613 . S
S1471 N1473 1.610 . S
N1472 S1471 1.613 . S
N1472 C1475 1.350 . S
N1473 S1471 1.610 . S
N1473 C1474 1.351 . S
C1474 C1468 1.428 . S
C1474 N1473 1.351 . S
C1474 C1475 1.434 . S
C1475 C1466 1.429 . S
C1475 N1472 1.350 . S
C1475 C1474 1.434 . S
C1476 C1477 1.369 . S
C1476 C1478 1.419 . S
C1476 H1480 0.930 . S
C1477 C1476 1.369 . S
C1477 C1486 1.429 . S
C1478 C1476 1.419 . S
C1478 C1479 1.363 . S
C1478 H1481 0.929 . S
C1479 C1478 1.363 . S
C1479 C1485 1.428 . S
H1480 C1476 0.930 . S
H1481 C1478 0.929 . S
S1482 N1483 1.613 . S
S1482 N1484 1.610 . S
N1483 S1482 1.613 . S
N1483 C1486 1.350 . S
N1484 S1482 1.610 . S
N1484 C1485 1.351 . S
C1485 C1479 1.428 . S
C1485 N1484 1.351 . S
C1485 C1486 1.434 . S
C1486 C1477 1.429 . S
C1486 N1483 1.350 . S
C1486 C1485 1.434 . S
C1487 C1488 1.369 . S
C1487 C1489 1.419 . S
C1487 H1491 0.930 . S
C1488 C1487 1.369 . S
C1488 C1497 1.429 . S
C1489 C1487 1.419 . S
C1489 C1490 1.363 . S
C1489 H1492 0.929 . S
C1490 C1489 1.363 . S
C1490 C1496 1.428 . S
H1491 C1487 0.930 . S
H1492 C1489 0.929 . S
S1493 N1494 1.613 . S
S1493 N1495 1.610 . S
N1494 S1493 1.613 . S
N1494 C1497 1.350 . S
N1495 S1493 1.610 . S
N1495 C1496 1.351 . S
C1496 C1490 1.428 . S
C1496 N1495 1.351 . S
C1496 C1497 1.434 . S
C1497 C1488 1.429 . S
C1497 N1494 1.350 . S
C1497 C1496 1.434 . S
C1498 C1499 1.369 . S
C1498 C1500 1.419 . S
C1498 H1502 0.930 . S
C1499 C1498 1.369 . S
C1499 C1508 1.429 . S
C1500 C1498 1.419 . S
C1500 C1501 1.363 . S
C1500 H1503 0.929 . S
C1501 C1500 1.363 . S
C1501 C1507 1.428 . S
H1502 C1498 0.930 . S
H1503 C1500 0.929 . S
S1504 N1505 1.613 . S
S1504 N1506 1.610 . S
N1505 S1504 1.613 . S
N1505 C1508 1.350 . S
N1506 S1504 1.610 . S
N1506 C1507 1.351 . S
C1507 C1501 1.428 . S
C1507 N1506 1.351 . S
C1507 C1508 1.434 . S
C1508 C1499 1.429 . S
C1508 N1505 1.350 . S
C1508 C1507 1.434 . S
C1509 C1510 1.369 . S
C1509 C1511 1.419 . S
C1509 H1513 0.930 . S
C1510 C1509 1.369 . S
C1510 C1519 1.429 . S
C1511 C1509 1.419 . S
C1511 C1512 1.363 . S
C1511 H1514 0.929 . S
C1512 C1511 1.363 . S
C1512 C1518 1.428 . S
H1513 C1509 0.930 . S
H1514 C1511 0.929 . S
S1515 N1516 1.613 . S
S1515 N1517 1.610 . S
N1516 S1515 1.613 . S
N1516 C1519 1.350 . S
N1517 S1515 1.610 . S
N1517 C1518 1.351 . S
C1518 C1512 1.428 . S
C1518 N1517 1.351 . S
C1518 C1519 1.434 . S
C1519 C1510 1.429 . S
C1519 N1516 1.350 . S
C1519 C1518 1.434 . S
C1520 C1521 1.369 . S
C1520 C1522 1.419 . S
C1520 H1524 0.930 . S
C1521 C1520 1.369 . S
C1521 C1530 1.429 . S
C1522 C1520 1.419 . S
C1522 C1523 1.363 . S
C1522 H1525 0.929 . S
C1523 C1522 1.363 . S
C1523 C1529 1.428 . S
H1524 C1520 0.930 . S
H1525 C1522 0.929 . S
S1526 N1527 1.613 . S
S1526 N1528 1.610 . S
N1527 S1526 1.613 . S
N1527 C1530 1.350 . S
N1528 S1526 1.610 . S
N1528 C1529 1.351 . S
C1529 C1523 1.428 . S
C1529 N1528 1.351 . S
C1529 C1530 1.434 . S
C1530 C1521 1.429 . S
C1530 N1527 1.350 . S
C1530 C1529 1.434 . S
C1531 C1532 1.369 . S
C1531 C1533 1.419 . S
C1531 H1535 0.930 . S
C1532 C1531 1.369 . S
C1532 C1541 1.429 . S
C1533 C1531 1.419 . S
C1533 C1534 1.363 . S
C1533 H1536 0.929 . S
C1534 C1533 1.363 . S
C1534 C1540 1.428 . S
H1535 C1531 0.930 . S
H1536 C1533 0.929 . S
S1537 N1538 1.613 . S
S1537 N1539 1.610 . S
N1538 S1537 1.613 . S
N1538 C1541 1.350 . S
N1539 S1537 1.610 . S
N1539 C1540 1.351 . S
C1540 C1534 1.428 . S
C1540 N1539 1.351 . S
C1540 C1541 1.434 . S
C1541 C1532 1.429 . S
C1541 N1538 1.350 . S
C1541 C1540 1.434 . S
C1542 C1543 1.369 . S
C1542 C1544 1.419 . S
C1542 H1546 0.930 . S
C1543 C1542 1.369 . S
C1543 C1552 1.429 . S
C1544 C1542 1.419 . S
C1544 C1545 1.363 . S
C1544 H1547 0.929 . S
C1545 C1544 1.363 . S
C1545 C1551 1.428 . S
H1546 C1542 0.930 . S
H1547 C1544 0.929 . S
S1548 N1549 1.613 . S
S1548 N1550 1.610 . S
N1549 S1548 1.613 . S
N1549 C1552 1.350 . S
N1550 S1548 1.610 . S
N1550 C1551 1.351 . S
C1551 C1545 1.428 . S
C1551 N1550 1.351 . S
C1551 C1552 1.434 . S
C1552 C1543 1.429 . S
C1552 N1549 1.350 . S
C1552 C1551 1.434 . S
C1553 C1554 1.369 . S
C1553 C1555 1.419 . S
C1553 H1557 0.930 . S
C1554 C1553 1.369 . S
C1554 C1563 1.429 . S
C1555 C1553 1.419 . S
C1555 C1556 1.363 . S
C1555 H1558 0.929 . S
C1556 C1555 1.363 . S
C1556 C1562 1.428 . S
H1557 C1553 0.930 . S
H1558 C1555 0.929 . S
S1559 N1560 1.613 . S
S1559 N1561 1.610 . S
N1560 S1559 1.613 . S
N1560 C1563 1.350 . S
N1561 S1559 1.610 . S
N1561 C1562 1.351 . S
C1562 C1556 1.428 . S
C1562 N1561 1.351 . S
C1562 C1563 1.434 . S
C1563 C1554 1.429 . S
C1563 N1560 1.350 . S
C1563 C1562 1.434 . S
C1564 C1565 1.369 . S
C1564 C1566 1.419 . S
C1564 H1568 0.930 . S
C1565 C1564 1.369 . S
C1565 C1574 1.429 . S
C1566 C1564 1.419 . S
C1566 C1567 1.363 . S
C1566 H1569 0.929 . S
C1567 C1566 1.363 . S
C1567 C1573 1.428 . S
H1568 C1564 0.930 . S
H1569 C1566 0.929 . S
S1570 N1571 1.613 . S
S1570 N1572 1.610 . S
N1571 S1570 1.613 . S
N1571 C1574 1.350 . S
N1572 S1570 1.610 . S
N1572 C1573 1.351 . S
C1573 C1567 1.428 . S
C1573 N1572 1.351 . S
C1573 C1574 1.434 . S
C1574 C1565 1.429 . S
C1574 N1571 1.350 . S
C1574 C1573 1.434 . S
C1575 C1576 1.369 . S
C1575 C1577 1.419 . S
C1575 H1579 0.930 . S
C1576 C1575 1.369 . S
C1576 C1585 1.429 . S
C1577 C1575 1.419 . S
C1577 C1578 1.363 . S
C1577 H1580 0.929 . S
C1578 C1577 1.363 . S
C1578 C1584 1.428 . S
H1579 C1575 0.930 . S
H1580 C1577 0.929 . S
S1581 N1582 1.613 . S
S1581 N1583 1.610 . S
N1582 S1581 1.613 . S
N1582 C1585 1.350 . S
N1583 S1581 1.610 . S
N1583 C1584 1.351 . S
C1584 C1578 1.428 . S
C1584 N1583 1.351 . S
C1584 C1585 1.434 . S
C1585 C1576 1.429 . S
C1585 N1582 1.350 . S
C1585 C1584 1.434 . S
C1586 C1587 1.369 . S
C1586 C1588 1.419 . S
C1586 H1590 0.930 . S
C1587 C1586 1.369 . S
C1587 C1596 1.429 . S
C1588 C1586 1.419 . S
C1588 C1589 1.363 . S
C1588 H1591 0.929 . S
C1589 C1588 1.363 . S
C1589 C1595 1.428 . S
H1590 C1586 0.930 . S
H1591 C1588 0.929 . S
S1592 N1593 1.613 . S
S1592 N1594 1.610 . S
N1593 S1592 1.613 . S
N1593 C1596 1.350 . S
N1594 S1592 1.610 . S
N1594 C1595 1.351 . S
C1595 C1589 1.428 . S
C1595 N1594 1.351 . S
C1595 C1596 1.434 . S
C1596 C1587 1.429 . S
C1596 N1593 1.350 . S
C1596 C1595 1.434 . S
C1597 C1598 1.369 . S
C1597 C1599 1.419 . S
C1597 H1601 0.930 . S
C1598 C1597 1.369 . S
C1598 C1607 1.429 . S
C1599 C1597 1.419 . S
C1599 C1600 1.363 . S
C1599 H1602 0.929 . S
C1600 C1599 1.363 . S
C1600 C1606 1.428 . S
H1601 C1597 0.930 . S
H1602 C1599 0.929 . S
S1603 N1604 1.613 . S
S1603 N1605 1.610 . S
N1604 S1603 1.613 . S
N1604 C1607 1.350 . S
N1605 S1603 1.610 . S
N1605 C1606 1.351 . S
C1606 C1600 1.428 . S
C1606 N1605 1.351 . S
C1606 C1607 1.434 . S
C1607 C1598 1.429 . S
C1607 N1604 1.350 . S
C1607 C1606 1.434 . S
C1608 C1609 1.369 . S
C1608 C1610 1.419 . S
C1608 H1612 0.930 . S
C1609 C1608 1.369 . S
C1609 C1618 1.429 . S
C1610 C1608 1.419 . S
C1610 C1611 1.363 . S
C1610 H1613 0.929 . S
C1611 C1610 1.363 . S
C1611 C1617 1.428 . S
H1612 C1608 0.930 . S
H1613 C1610 0.929 . S
S1614 N1615 1.613 . S
S1614 N1616 1.610 . S
N1615 S1614 1.613 . S
N1615 C1618 1.350 . S
N1616 S1614 1.610 . S
N1616 C1617 1.351 . S
C1617 C1611 1.428 . S
C1617 N1616 1.351 . S
C1617 C1618 1.434 . S
C1618 C1609 1.429 . S
C1618 N1615 1.350 . S
C1618 C1617 1.434 . S
C1619 C1620 1.369 . S
C1619 C1621 1.419 . S
C1619 H1623 0.930 . S
C1620 C1619 1.369 . S
C1620 C1629 1.429 . S
C1621 C1619 1.419 . S
C1621 C1622 1.363 . S
C1621 H1624 0.929 . S
C1622 C1621 1.363 . S
C1622 C1628 1.428 . S
H1623 C1619 0.930 . S
H1624 C1621 0.929 . S
S1625 N1626 1.613 . S
S1625 N1627 1.610 . S
N1626 S1625 1.613 . S
N1626 C1629 1.350 . S
N1627 S1625 1.610 . S
N1627 C1628 1.351 . S
C1628 C1622 1.428 . S
C1628 N1627 1.351 . S
C1628 C1629 1.434 . S
C1629 C1620 1.429 . S
C1629 N1626 1.350 . S
C1629 C1628 1.434 . S
C1630 C1631 1.369 . S
C1630 C1632 1.419 . S
C1630 H1634 0.930 . S
C1631 C1630 1.369 . S
C1631 C1640 1.429 . S
C1632 C1630 1.419 . S
C1632 C1633 1.363 . S
C1632 H1635 0.929 . S
C1633 C1632 1.363 . S
C1633 C1639 1.428 . S
H1634 C1630 0.930 . S
H1635 C1632 0.929 . S
S1636 N1637 1.613 . S
S1636 N1638 1.610 . S
N1637 S1636 1.613 . S
N1637 C1640 1.350 . S
N1638 S1636 1.610 . S
N1638 C1639 1.351 . S
C1639 C1633 1.428 . S
C1639 N1638 1.351 . S
C1639 C1640 1.434 . S
C1640 C1631 1.429 . S
C1640 N1637 1.350 . S
C1640 C1639 1.434 . S
C1641 C1642 1.369 . S
C1641 C1643 1.419 . S
C1641 H1645 0.930 . S
C1642 C1641 1.369 . S
C1642 C1651 1.429 . S
C1643 C1641 1.419 . S
C1643 C1644 1.363 . S
C1643 H1646 0.929 . S
C1644 C1643 1.363 . S
C1644 C1650 1.428 . S
H1645 C1641 0.930 . S
H1646 C1643 0.929 . S
S1647 N1648 1.613 . S
S1647 N1649 1.610 . S
N1648 S1647 1.613 . S
N1648 C1651 1.350 . S
N1649 S1647 1.610 . S
N1649 C1650 1.351 . S
C1650 C1644 1.428 . S
C1650 N1649 1.351 . S
C1650 C1651 1.434 . S
C1651 C1642 1.429 . S
C1651 N1648 1.350 . S
C1651 C1650 1.434 . S
C1652 C1653 1.369 . S
C1652 C1654 1.419 . S
C1652 H1656 0.930 . S
C1653 C1652 1.369 . S
C1653 C1662 1.429 . S
C1654 C1652 1.419 . S
C1654 C1655 1.363 . S
C1654 H1657 0.929 . S
C1655 C1654 1.363 . S
C1655 C1661 1.428 . S
H1656 C1652 0.930 . S
H1657 C1654 0.929 . S
S1658 N1659 1.613 . S
S1658 N1660 1.610 . S
N1659 S1658 1.613 . S
N1659 C1662 1.350 . S
N1660 S1658 1.610 . S
N1660 C1661 1.351 . S
C1661 C1655 1.428 . S
C1661 N1660 1.351 . S
C1661 C1662 1.434 . S
C1662 C1653 1.429 . S
C1662 N1659 1.350 . S
C1662 C1661 1.434 . S
C1663 C1664 1.369 . S
C1663 C1665 1.419 . S
C1663 H1667 0.930 . S
C1664 C1663 1.369 . S
C1664 C1673 1.429 . S
C1665 C1663 1.419 . S
C1665 C1666 1.363 . S
C1665 H1668 0.929 . S
C1666 C1665 1.363 . S
C1666 C1672 1.428 . S
H1667 C1663 0.930 . S
H1668 C1665 0.929 . S
S1669 N1670 1.613 . S
S1669 N1671 1.610 . S
N1670 S1669 1.613 . S
N1670 C1673 1.350 . S
N1671 S1669 1.610 . S
N1671 C1672 1.351 . S
C1672 C1666 1.428 . S
C1672 N1671 1.351 . S
C1672 C1673 1.434 . S
C1673 C1664 1.429 . S
C1673 N1670 1.350 . S
C1673 C1672 1.434 . S
C1674 C1675 1.369 . S
C1674 C1676 1.419 . S
C1674 H1678 0.930 . S
C1675 C1674 1.369 . S
C1675 C1684 1.429 . S
C1676 C1674 1.419 . S
C1676 C1677 1.363 . S
C1676 H1679 0.929 . S
C1677 C1676 1.363 . S
C1677 C1683 1.428 . S
H1678 C1674 0.930 . S
H1679 C1676 0.929 . S
S1680 N1681 1.613 . S
S1680 N1682 1.610 . S
N1681 S1680 1.613 . S
N1681 C1684 1.350 . S
N1682 S1680 1.610 . S
N1682 C1683 1.351 . S
C1683 C1677 1.428 . S
C1683 N1682 1.351 . S
C1683 C1684 1.434 . S
C1684 C1675 1.429 . S
C1684 N1681 1.350 . S
C1684 C1683 1.434 . S
C1685 C1686 1.369 . S
C1685 C1687 1.419 . S
C1685 H1689 0.930 . S
C1686 C1685 1.369 . S
C1686 C1695 1.429 . S
C1687 C1685 1.419 . S
C1687 C1688 1.363 . S
C1687 H1690 0.929 . S
C1688 C1687 1.363 . S
C1688 C1694 1.428 . S
H1689 C1685 0.930 . S
H1690 C1687 0.929 . S
S1691 N1692 1.613 . S
S1691 N1693 1.610 . S
N1692 S1691 1.613 . S
N1692 C1695 1.350 . S
N1693 S1691 1.610 . S
N1693 C1694 1.351 . S
C1694 C1688 1.428 . S
C1694 N1693 1.351 . S
C1694 C1695 1.434 . S
C1695 C1686 1.429 . S
C1695 N1692 1.350 . S
C1695 C1694 1.434 . S
C1696 C1697 1.369 . S
C1696 C1698 1.419 . S
C1696 H1700 0.930 . S
C1697 C1696 1.369 . S
C1697 C1706 1.429 . S
C1698 C1696 1.419 . S
C1698 C1699 1.363 . S
C1698 H1701 0.929 . S
C1699 C1698 1.363 . S
C1699 C1705 1.428 . S
H1700 C1696 0.930 . S
H1701 C1698 0.929 . S
S1702 N1703 1.613 . S
S1702 N1704 1.610 . S
N1703 S1702 1.613 . S
N1703 C1706 1.350 . S
N1704 S1702 1.610 . S
N1704 C1705 1.351 . S
C1705 C1699 1.428 . S
C1705 N1704 1.351 . S
C1705 C1706 1.434 . S
C1706 C1697 1.429 . S
C1706 N1703 1.350 . S
C1706 C1705 1.434 . S
C1707 C1708 1.369 . S
C1707 C1709 1.419 . S
C1707 H1711 0.930 . S
C1708 C1707 1.369 . S
C1708 C1717 1.429 . S
C1709 C1707 1.419 . S
C1709 C1710 1.363 . S
C1709 H1712 0.929 . S
C1710 C1709 1.363 . S
C1710 C1716 1.428 . S
H1711 C1707 0.930 . S
H1712 C1709 0.929 . S
S1713 N1714 1.613 . S
S1713 N1715 1.610 . S
N1714 S1713 1.613 . S
N1714 C1717 1.350 . S
N1715 S1713 1.610 . S
N1715 C1716 1.351 . S
C1716 C1710 1.428 . S
C1716 N1715 1.351 . S
C1716 C1717 1.434 . S
C1717 C1708 1.429 . S
C1717 N1714 1.350 . S
C1717 C1716 1.434 . S
C1718 C1719 1.369 . S
C1718 C1720 1.419 . S
C1718 H1722 0.930 . S
C1719 C1718 1.369 . S
C1719 C1728 1.429 . S
C1720 C1718 1.419 . S
C1720 C1721 1.363 . S
C1720 H1723 0.929 . S
C1721 C1720 1.363 . S
C1721 C1727 1.428 . S
H1722 C1718 0.930 . S
H1723 C1720 0.929 . S
S1724 N1725 1.613 . S
S1724 N1726 1.610 . S
N1725 S1724 1.613 . S
N1725 C1728 1.350 . S
N1726 S1724 1.610 . S
N1726 C1727 1.351 . S
C1727 C1721 1.428 . S
C1727 N1726 1.351 . S
C1727 C1728 1.434 . S
C1728 C1719 1.429 . S
C1728 N1725 1.350 . S
C1728 C1727 1.434 . S
C1729 C1730 1.369 . S
C1729 C1731 1.419 . S
C1729 H1733 0.930 . S
C1730 C1729 1.369 . S
C1730 C1739 1.429 . S
C1731 C1729 1.419 . S
C1731 C1732 1.363 . S
C1731 H1734 0.929 . S
C1732 C1731 1.363 . S
C1732 C1738 1.428 . S
H1733 C1729 0.930 . S
H1734 C1731 0.929 . S
S1735 N1736 1.613 . S
S1735 N1737 1.610 . S
N1736 S1735 1.613 . S
N1736 C1739 1.350 . S
N1737 S1735 1.610 . S
N1737 C1738 1.351 . S
C1738 C1732 1.428 . S
C1738 N1737 1.351 . S
C1738 C1739 1.434 . S
C1739 C1730 1.429 . S
C1739 N1736 1.350 . S
C1739 C1738 1.434 . S
C1740 C1741 1.369 . S
C1740 C1742 1.419 . S
C1740 H1744 0.930 . S
C1741 C1740 1.369 . S
C1741 C1750 1.429 . S
C1742 C1740 1.419 . S
C1742 C1743 1.363 . S
C1742 H1745 0.929 . S
C1743 C1742 1.363 . S
C1743 C1749 1.428 . S
H1744 C1740 0.930 . S
H1745 C1742 0.929 . S
S1746 N1747 1.613 . S
S1746 N1748 1.610 . S
N1747 S1746 1.613 . S
N1747 C1750 1.350 . S
N1748 S1746 1.610 . S
N1748 C1749 1.351 . S
C1749 C1743 1.428 . S
C1749 N1748 1.351 . S
C1749 C1750 1.434 . S
C1750 C1741 1.429 . S
C1750 N1747 1.350 . S
C1750 C1749 1.434 . S
C1751 C1752 1.369 . S
C1751 C1753 1.419 . S
C1751 H1755 0.930 . S
C1752 C1751 1.369 . S
C1752 C1761 1.429 . S
C1753 C1751 1.419 . S
C1753 C1754 1.363 . S
C1753 H1756 0.929 . S
C1754 C1753 1.363 . S
C1754 C1760 1.428 . S
H1755 C1751 0.930 . S
H1756 C1753 0.929 . S
S1757 N1758 1.613 . S
S1757 N1759 1.610 . S
N1758 S1757 1.613 . S
N1758 C1761 1.350 . S
N1759 S1757 1.610 . S
N1759 C1760 1.351 . S
C1760 C1754 1.428 . S
C1760 N1759 1.351 . S
C1760 C1761 1.434 . S
C1761 C1752 1.429 . S
C1761 N1758 1.350 . S
C1761 C1760 1.434 . S
C1762 C1763 1.369 . S
C1762 C1764 1.419 . S
C1762 H1766 0.930 . S
C1763 C1762 1.369 . S
C1763 C1772 1.429 . S
C1764 C1762 1.419 . S
C1764 C1765 1.363 . S
C1764 H1767 0.929 . S
C1765 C1764 1.363 . S
C1765 C1771 1.428 . S
H1766 C1762 0.930 . S
H1767 C1764 0.929 . S
S1768 N1769 1.613 . S
S1768 N1770 1.610 . S
N1769 S1768 1.613 . S
N1769 C1772 1.350 . S
N1770 S1768 1.610 . S
N1770 C1771 1.351 . S
C1771 C1765 1.428 . S
C1771 N1770 1.351 . S
C1771 C1772 1.434 . S
C1772 C1763 1.429 . S
C1772 N1769 1.350 . S
C1772 C1771 1.434 . S
C1773 C1774 1.369 . S
C1773 C1775 1.419 . S
C1773 H1777 0.930 . S
C1774 C1773 1.369 . S
C1774 C1783 1.429 . S
C1775 C1773 1.419 . S
C1775 C1776 1.363 . S
C1775 H1778 0.929 . S
C1776 C1775 1.363 . S
C1776 C1782 1.428 . S
H1777 C1773 0.930 . S
H1778 C1775 0.929 . S
S1779 N1780 1.613 . S
S1779 N1781 1.610 . S
N1780 S1779 1.613 . S
N1780 C1783 1.350 . S
N1781 S1779 1.610 . S
N1781 C1782 1.351 . S
C1782 C1776 1.428 . S
C1782 N1781 1.351 . S
C1782 C1783 1.434 . S
C1783 C1774 1.429 . S
C1783 N1780 1.350 . S
C1783 C1782 1.434 . S
C1784 C1785 1.369 . S
C1784 C1786 1.419 . S
C1784 H1788 0.930 . S
C1785 C1784 1.369 . S
C1785 C1794 1.429 . S
C1786 C1784 1.419 . S
C1786 C1787 1.363 . S
C1786 H1789 0.929 . S
C1787 C1786 1.363 . S
C1787 C1793 1.428 . S
H1788 C1784 0.930 . S
H1789 C1786 0.929 . S
S1790 N1791 1.613 . S
S1790 N1792 1.610 . S
N1791 S1790 1.613 . S
N1791 C1794 1.350 . S
N1792 S1790 1.610 . S
N1792 C1793 1.351 . S
C1793 C1787 1.428 . S
C1793 N1792 1.351 . S
C1793 C1794 1.434 . S
C1794 C1785 1.429 . S
C1794 N1791 1.350 . S
C1794 C1793 1.434 . S
C1795 C1796 1.369 . S
C1795 C1797 1.419 . S
C1795 H1799 0.930 . S
C1796 C1795 1.369 . S
C1796 C1805 1.429 . S
C1797 C1795 1.419 . S
C1797 C1798 1.363 . S
C1797 H1800 0.929 . S
C1798 C1797 1.363 . S
C1798 C1804 1.428 . S
H1799 C1795 0.930 . S
H1800 C1797 0.929 . S
S1801 N1802 1.613 . S
S1801 N1803 1.610 . S
N1802 S1801 1.613 . S
N1802 C1805 1.350 . S
N1803 S1801 1.610 . S
N1803 C1804 1.351 . S
C1804 C1798 1.428 . S
C1804 N1803 1.351 . S
C1804 C1805 1.434 . S
C1805 C1796 1.429 . S
C1805 N1802 1.350 . S
C1805 C1804 1.434 . S
C1806 C1807 1.369 . S
C1806 C1808 1.419 . S
C1806 H1810 0.930 . S
C1807 C1806 1.369 . S
C1807 C1816 1.429 . S
C1808 C1806 1.419 . S
C1808 C1809 1.363 . S
C1808 H1811 0.929 . S
C1809 C1808 1.363 . S
C1809 C1815 1.428 . S
H1810 C1806 0.930 . S
H1811 C1808 0.929 . S
S1812 N1813 1.613 . S
S1812 N1814 1.610 . S
N1813 S1812 1.613 . S
N1813 C1816 1.350 . S
N1814 S1812 1.610 . S
N1814 C1815 1.351 . S
C1815 C1809 1.428 . S
C1815 N1814 1.351 . S
C1815 C1816 1.434 . S
C1816 C1807 1.429 . S
C1816 N1813 1.350 . S
C1816 C1815 1.434 . S
C1817 C1818 1.369 . S
C1817 C1819 1.419 . S
C1817 H1821 0.930 . S
C1818 C1817 1.369 . S
C1818 C1827 1.429 . S
C1819 C1817 1.419 . S
C1819 C1820 1.363 . S
C1819 H1822 0.929 . S
C1820 C1819 1.363 . S
C1820 C1826 1.428 . S
H1821 C1817 0.930 . S
H1822 C1819 0.929 . S
S1823 N1824 1.613 . S
S1823 N1825 1.610 . S
N1824 S1823 1.613 . S
N1824 C1827 1.350 . S
N1825 S1823 1.610 . S
N1825 C1826 1.351 . S
C1826 C1820 1.428 . S
C1826 N1825 1.351 . S
C1826 C1827 1.434 . S
C1827 C1818 1.429 . S
C1827 N1824 1.350 . S
C1827 C1826 1.434 . S
C1828 C1829 1.369 . S
C1828 C1830 1.419 . S
C1828 H1832 0.930 . S
C1829 C1828 1.369 . S
C1829 C1838 1.429 . S
C1830 C1828 1.419 . S
C1830 C1831 1.363 . S
C1830 H1833 0.929 . S
C1831 C1830 1.363 . S
C1831 C1837 1.428 . S
H1832 C1828 0.930 . S
H1833 C1830 0.929 . S
S1834 N1835 1.613 . S
S1834 N1836 1.610 . S
N1835 S1834 1.613 . S
N1835 C1838 1.350 . S
N1836 S1834 1.610 . S
N1836 C1837 1.351 . S
C1837 C1831 1.428 . S
C1837 N1836 1.351 . S
C1837 C1838 1.434 . S
C1838 C1829 1.429 . S
C1838 N1835 1.350 . S
C1838 C1837 1.434 . S
C1839 C1840 1.369 . S
C1839 C1841 1.419 . S
C1839 H1843 0.930 . S
C1840 C1839 1.369 . S
C1840 C1849 1.429 . S
C1841 C1839 1.419 . S
C1841 C1842 1.363 . S
C1841 H1844 0.929 . S
C1842 C1841 1.363 . S
C1842 C1848 1.428 . S
H1843 C1839 0.930 . S
H1844 C1841 0.929 . S
S1845 N1846 1.613 . S
S1845 N1847 1.610 . S
N1846 S1845 1.613 . S
N1846 C1849 1.350 . S
N1847 S1845 1.610 . S
N1847 C1848 1.351 . S
C1848 C1842 1.428 . S
C1848 N1847 1.351 . S
C1848 C1849 1.434 . S
C1849 C1840 1.429 . S
C1849 N1846 1.350 . S
C1849 C1848 1.434 . S
C1850 C1851 1.369 . S
C1850 C1852 1.419 . S
C1850 H1854 0.930 . S
C1851 C1850 1.369 . S
C1851 C1860 1.429 . S
C1852 C1850 1.419 . S
C1852 C1853 1.363 . S
C1852 H1855 0.929 . S
C1853 C1852 1.363 . S
C1853 C1859 1.428 . S
H1854 C1850 0.930 . S
H1855 C1852 0.929 . S
S1856 N1857 1.613 . S
S1856 N1858 1.610 . S
N1857 S1856 1.613 . S
N1857 C1860 1.350 . S
N1858 S1856 1.610 . S
N1858 C1859 1.351 . S
C1859 C1853 1.428 . S
C1859 N1858 1.351 . S
C1859 C1860 1.434 . S
C1860 C1851 1.429 . S
C1860 N1857 1.350 . S
C1860 C1859 1.434 . S
C1861 C1862 1.369 . S
C1861 C1863 1.419 . S
C1861 H1865 0.930 . S
C1862 C1861 1.369 . S
C1862 C1871 1.429 . S
C1863 C1861 1.419 . S
C1863 C1864 1.363 . S
C1863 H1866 0.929 . S
C1864 C1863 1.363 . S
C1864 C1870 1.428 . S
H1865 C1861 0.930 . S
H1866 C1863 0.929 . S
S1867 N1868 1.613 . S
S1867 N1869 1.610 . S
N1868 S1867 1.613 . S
N1868 C1871 1.350 . S
N1869 S1867 1.610 . S
N1869 C1870 1.351 . S
C1870 C1864 1.428 . S
C1870 N1869 1.351 . S
C1870 C1871 1.434 . S
C1871 C1862 1.429 . S
C1871 N1868 1.350 . S
C1871 C1870 1.434 . S
C1872 C1873 1.369 . S
C1872 C1874 1.419 . S
C1872 H1876 0.930 . S
C1873 C1872 1.369 . S
C1873 C1882 1.429 . S
C1874 C1872 1.419 . S
C1874 C1875 1.363 . S
C1874 H1877 0.929 . S
C1875 C1874 1.363 . S
C1875 C1881 1.428 . S
H1876 C1872 0.930 . S
H1877 C1874 0.929 . S
S1878 N1879 1.613 . S
S1878 N1880 1.610 . S
N1879 S1878 1.613 . S
N1879 C1882 1.350 . S
N1880 S1878 1.610 . S
N1880 C1881 1.351 . S
C1881 C1875 1.428 . S
C1881 N1880 1.351 . S
C1881 C1882 1.434 . S
C1882 C1873 1.429 . S
C1882 N1879 1.350 . S
C1882 C1881 1.434 . S
C1883 C1884 1.369 . S
C1883 C1885 1.419 . S
C1883 H1887 0.930 . S
C1884 C1883 1.369 . S
C1884 C1893 1.429 . S
C1885 C1883 1.419 . S
C1885 C1886 1.363 . S
C1885 H1888 0.929 . S
C1886 C1885 1.363 . S
C1886 C1892 1.428 . S
H1887 C1883 0.930 . S
H1888 C1885 0.929 . S
S1889 N1890 1.613 . S
S1889 N1891 1.610 . S
N1890 S1889 1.613 . S
N1890 C1893 1.350 . S
N1891 S1889 1.610 . S
N1891 C1892 1.351 . S
C1892 C1886 1.428 . S
C1892 N1891 1.351 . S
C1892 C1893 1.434 . S
C1893 C1884 1.429 . S
C1893 N1890 1.350 . S
C1893 C1892 1.434 . S
C1894 C1895 1.369 . S
C1894 C1896 1.419 . S
C1894 H1898 0.930 . S
C1895 C1894 1.369 . S
C1895 C1904 1.429 . S
C1896 C1894 1.419 . S
C1896 C1897 1.363 . S
C1896 H1899 0.929 . S
C1897 C1896 1.363 . S
C1897 C1903 1.428 . S
H1898 C1894 0.930 . S
H1899 C1896 0.929 . S
S1900 N1901 1.613 . S
S1900 N1902 1.610 . S
N1901 S1900 1.613 . S
N1901 C1904 1.350 . S
N1902 S1900 1.610 . S
N1902 C1903 1.351 . S
C1903 C1897 1.428 . S
C1903 N1902 1.351 . S
C1903 C1904 1.434 . S
C1904 C1895 1.429 . S
C1904 N1901 1.350 . S
C1904 C1903 1.434 . S
C1905 C1906 1.369 . S
C1905 C1907 1.419 . S
C1905 H1909 0.930 . S
C1906 C1905 1.369 . S
C1906 C1915 1.429 . S
C1907 C1905 1.419 . S
C1907 C1908 1.363 . S
C1907 H1910 0.929 . S
C1908 C1907 1.363 . S
C1908 C1914 1.428 . S
H1909 C1905 0.930 . S
H1910 C1907 0.929 . S
S1911 N1912 1.613 . S
S1911 N1913 1.610 . S
N1912 S1911 1.613 . S
N1912 C1915 1.350 . S
N1913 S1911 1.610 . S
N1913 C1914 1.351 . S
C1914 C1908 1.428 . S
C1914 N1913 1.351 . S
C1914 C1915 1.434 . S
C1915 C1906 1.429 . S
C1915 N1912 1.350 . S
C1915 C1914 1.434 . S
C1916 C1917 1.369 . S
C1916 C1918 1.419 . S
C1916 H1920 0.930 . S
C1917 C1916 1.369 . S
C1917 C1926 1.429 . S
C1918 C1916 1.419 . S
C1918 C1919 1.363 . S
C1918 H1921 0.929 . S
C1919 C1918 1.363 . S
C1919 C1925 1.428 . S
H1920 C1916 0.930 . S
H1921 C1918 0.929 . S
S1922 N1923 1.613 . S
S1922 N1924 1.610 . S
N1923 S1922 1.613 . S
N1923 C1926 1.350 . S
N1924 S1922 1.610 . S
N1924 C1925 1.351 . S
C1925 C1919 1.428 . S
C1925 N1924 1.351 . S
C1925 C1926 1.434 . S
C1926 C1917 1.429 . S
C1926 N1923 1.350 . S
C1926 C1925 1.434 . S
C1927 C1928 1.369 . S
C1927 C1929 1.419 . S
C1927 H1931 0.930 . S
C1928 C1927 1.369 . S
C1928 C1937 1.429 . S
C1929 C1927 1.419 . S
C1929 C1930 1.363 . S
C1929 H1932 0.929 . S
C1930 C1929 1.363 . S
C1930 C1936 1.428 . S
H1931 C1927 0.930 . S
H1932 C1929 0.929 . S
S1933 N1934 1.613 . S
S1933 N1935 1.610 . S
N1934 S1933 1.613 . S
N1934 C1937 1.350 . S
N1935 S1933 1.610 . S
N1935 C1936 1.351 . S
C1936 C1930 1.428 . S
C1936 N1935 1.351 . S
C1936 C1937 1.434 . S
C1937 C1928 1.429 . S
C1937 N1934 1.350 . S
C1937 C1936 1.434 . S
C1938 C1939 1.369 . S
C1938 C1940 1.419 . S
C1938 H1942 0.930 . S
C1939 C1938 1.369 . S
C1939 C1948 1.429 . S
C1940 C1938 1.419 . S
C1940 C1941 1.363 . S
C1940 H1943 0.929 . S
C1941 C1940 1.363 . S
C1941 C1947 1.428 . S
H1942 C1938 0.930 . S
H1943 C1940 0.929 . S
S1944 N1945 1.613 . S
S1944 N1946 1.610 . S
N1945 S1944 1.613 . S
N1945 C1948 1.350 . S
N1946 S1944 1.610 . S
N1946 C1947 1.351 . S
C1947 C1941 1.428 . S
C1947 N1946 1.351 . S
C1947 C1948 1.434 . S
C1948 C1939 1.429 . S
C1948 N1945 1.350 . S
C1948 C1947 1.434 . S
C1949 C1950 1.369 . S
C1949 C1951 1.419 . S
C1949 H1953 0.930 . S
C1950 C1949 1.369 . S
C1950 C1959 1.429 . S
C1951 C1949 1.419 . S
C1951 C1952 1.363 . S
C1951 H1954 0.929 . S
C1952 C1951 1.363 . S
C1952 C1958 1.428 . S
H1953 C1949 0.930 . S
H1954 C1951 0.929 . S
S1955 N1956 1.613 . S
S1955 N1957 1.610 . S
N1956 S1955 1.613 . S
N1956 C1959 1.350 . S
N1957 S1955 1.610 . S
N1957 C1958 1.351 . S
C1958 C1952 1.428 . S
C1958 N1957 1.351 . S
C1958 C1959 1.434 . S
C1959 C1950 1.429 . S
C1959 N1956 1.350 . S
C1959 C1958 1.434 . S
C1960 C1961 1.369 . S
C1960 C1962 1.419 . S
C1960 H1964 0.930 . S
C1961 C1960 1.369 . S
C1961 C1970 1.429 . S
C1962 C1960 1.419 . S
C1962 C1963 1.363 . S
C1962 H1965 0.929 . S
C1963 C1962 1.363 . S
C1963 C1969 1.428 . S
H1964 C1960 0.930 . S
H1965 C1962 0.929 . S
S1966 N1967 1.613 . S
S1966 N1968 1.610 . S
N1967 S1966 1.613 . S
N1967 C1970 1.350 . S
N1968 S1966 1.610 . S
N1968 C1969 1.351 . S
C1969 C1963 1.428 . S
C1969 N1968 1.351 . S
C1969 C1970 1.434 . S
C1970 C1961 1.429 . S
C1970 N1967 1.350 . S
C1970 C1969 1.434 . S
C1971 C1972 1.369 . S
C1971 C1973 1.419 . S
C1971 H1975 0.930 . S
C1972 C1971 1.369 . S
C1972 C1981 1.429 . S
C1973 C1971 1.419 . S
C1973 C1974 1.363 . S
C1973 H1976 0.929 . S
C1974 C1973 1.363 . S
C1974 C1980 1.428 . S
H1975 C1971 0.930 . S
H1976 C1973 0.929 . S
S1977 N1978 1.613 . S
S1977 N1979 1.610 . S
N1978 S1977 1.613 . S
N1978 C1981 1.350 . S
N1979 S1977 1.610 . S
N1979 C1980 1.351 . S
C1980 C1974 1.428 . S
C1980 N1979 1.351 . S
C1980 C1981 1.434 . S
C1981 C1972 1.429 . S
C1981 N1978 1.350 . S
C1981 C1980 1.434 . S
C1982 C1983 1.369 . S
C1982 C1984 1.419 . S
C1982 H1986 0.930 . S
C1983 C1982 1.369 . S
C1983 C1992 1.429 . S
C1984 C1982 1.419 . S
C1984 C1985 1.363 . S
C1984 H1987 0.929 . S
C1985 C1984 1.363 . S
C1985 C1991 1.428 . S
H1986 C1982 0.930 . S
H1987 C1984 0.929 . S
S1988 N1989 1.613 . S
S1988 N1990 1.610 . S
N1989 S1988 1.613 . S
N1989 C1992 1.350 . S
N1990 S1988 1.610 . S
N1990 C1991 1.351 . S
C1991 C1985 1.428 . S
C1991 N1990 1.351 . S
C1991 C1992 1.434 . S
C1992 C1983 1.429 . S
C1992 N1989 1.350 . S
C1992 C1991 1.434 . S
C1993 C1994 1.369 . S
C1993 C1995 1.419 . S
C1993 H1997 0.930 . S
C1994 C1993 1.369 . S
C1994 C2003 1.429 . S
C1995 C1993 1.419 . S
C1995 C1996 1.363 . S
C1995 H1998 0.929 . S
C1996 C1995 1.363 . S
C1996 C2002 1.428 . S
H1997 C1993 0.930 . S
H1998 C1995 0.929 . S
S1999 N2000 1.613 . S
S1999 N2001 1.610 . S
N2000 S1999 1.613 . S
N2000 C2003 1.350 . S
N2001 S1999 1.610 . S
N2001 C2002 1.351 . S
C2002 C1996 1.428 . S
C2002 N2001 1.351 . S
C2002 C2003 1.434 . S
C2003 C1994 1.429 . S
C2003 N2000 1.350 . S
C2003 C2002 1.434 . S
C2004 C2005 1.369 . S
C2004 C2006 1.419 . S
C2004 H2008 0.930 . S
C2005 C2004 1.369 . S
C2005 C2014 1.429 . S
C2006 C2004 1.419 . S
C2006 C2007 1.363 . S
C2006 H2009 0.929 . S
C2007 C2006 1.363 . S
C2007 C2013 1.428 . S
H2008 C2004 0.930 . S
H2009 C2006 0.929 . S
S2010 N2011 1.613 . S
S2010 N2012 1.610 . S
N2011 S2010 1.613 . S
N2011 C2014 1.350 . S
N2012 S2010 1.610 . S
N2012 C2013 1.351 . S
C2013 C2007 1.428 . S
C2013 N2012 1.351 . S
C2013 C2014 1.434 . S
C2014 C2005 1.429 . S
C2014 N2011 1.350 . S
C2014 C2013 1.434 . S
C2015 C2016 1.369 . S
C2015 C2017 1.419 . S
C2015 H2019 0.930 . S
C2016 C2015 1.369 . S
C2016 C2025 1.429 . S
C2017 C2015 1.419 . S
C2017 C2018 1.363 . S
C2017 H2020 0.929 . S
C2018 C2017 1.363 . S
C2018 C2024 1.428 . S
H2019 C2015 0.930 . S
H2020 C2017 0.929 . S
S2021 N2022 1.613 . S
S2021 N2023 1.610 . S
N2022 S2021 1.613 . S
N2022 C2025 1.350 . S
N2023 S2021 1.610 . S
N2023 C2024 1.351 . S
C2024 C2018 1.428 . S
C2024 N2023 1.351 . S
C2024 C2025 1.434 . S
C2025 C2016 1.429 . S
C2025 N2022 1.350 . S
C2025 C2024 1.434 . S
C2026 C2027 1.369 . S
C2026 C2028 1.419 . S
C2026 H2030 0.930 . S
C2027 C2026 1.369 . S
C2027 C2036 1.429 . S
C2028 C2026 1.419 . S
C2028 C2029 1.363 . S
C2028 H2031 0.929 . S
C2029 C2028 1.363 . S
C2029 C2035 1.428 . S
H2030 C2026 0.930 . S
H2031 C2028 0.929 . S
S2032 N2033 1.613 . S
S2032 N2034 1.610 . S
N2033 S2032 1.613 . S
N2033 C2036 1.350 . S
N2034 S2032 1.610 . S
N2034 C2035 1.351 . S
C2035 C2029 1.428 . S
C2035 N2034 1.351 . S
C2035 C2036 1.434 . S
C2036 C2027 1.429 . S
C2036 N2033 1.350 . S
C2036 C2035 1.434 . S
C2037 C2038 1.369 . S
C2037 C2039 1.419 . S
C2037 H2041 0.930 . S
C2038 C2037 1.369 . S
C2038 C2047 1.429 . S
C2039 C2037 1.419 . S
C2039 C2040 1.363 . S
C2039 H2042 0.929 . S
C2040 C2039 1.363 . S
C2040 C2046 1.428 . S
H2041 C2037 0.930 . S
H2042 C2039 0.929 . S
S2043 N2044 1.613 . S
S2043 N2045 1.610 . S
N2044 S2043 1.613 . S
N2044 C2047 1.350 . S
N2045 S2043 1.610 . S
N2045 C2046 1.351 . S
C2046 C2040 1.428 . S
C2046 N2045 1.351 . S
C2046 C2047 1.434 . S
C2047 C2038 1.429 . S
C2047 N2044 1.350 . S
C2047 C2046 1.434 . S
C2048 C2049 1.369 . S
C2048 C2050 1.419 . S
C2048 H2052 0.930 . S
C2049 C2048 1.369 . S
C2049 C2058 1.429 . S
C2050 C2048 1.419 . S
C2050 C2051 1.363 . S
C2050 H2053 0.929 . S
C2051 C2050 1.363 . S
C2051 C2057 1.428 . S
H2052 C2048 0.930 . S
H2053 C2050 0.929 . S
S2054 N2055 1.613 . S
S2054 N2056 1.610 . S
N2055 S2054 1.613 . S
N2055 C2058 1.350 . S
N2056 S2054 1.610 . S
N2056 C2057 1.351 . S
C2057 C2051 1.428 . S
C2057 N2056 1.351 . S
C2057 C2058 1.434 . S
C2058 C2049 1.429 . S
C2058 N2055 1.350 . S
C2058 C2057 1.434 . S
C2059 C2060 1.369 . S
C2059 C2061 1.419 . S
C2059 H2063 0.930 . S
C2060 C2059 1.369 . S
C2060 C2069 1.429 . S
C2061 C2059 1.419 . S
C2061 C2062 1.363 . S
C2061 H2064 0.929 . S
C2062 C2061 1.363 . S
C2062 C2068 1.428 . S
H2063 C2059 0.930 . S
H2064 C2061 0.929 . S
S2065 N2066 1.613 . S
S2065 N2067 1.610 . S
N2066 S2065 1.613 . S
N2066 C2069 1.350 . S
N2067 S2065 1.610 . S
N2067 C2068 1.351 . S
C2068 C2062 1.428 . S
C2068 N2067 1.351 . S
C2068 C2069 1.434 . S
C2069 C2060 1.429 . S
C2069 N2066 1.350 . S
C2069 C2068 1.434 . S
C2070 C2071 1.369 . S
C2070 C2072 1.419 . S
C2070 H2074 0.930 . S
C2071 C2070 1.369 . S
C2071 C2080 1.429 . S
C2072 C2070 1.419 . S
C2072 C2073 1.363 . S
C2072 H2075 0.929 . S
C2073 C2072 1.363 . S
C2073 C2079 1.428 . S
H2074 C2070 0.930 . S
H2075 C2072 0.929 . S
S2076 N2077 1.613 . S
S2076 N2078 1.610 . S
N2077 S2076 1.613 . S
N2077 C2080 1.350 . S
N2078 S2076 1.610 . S
N2078 C2079 1.351 . S
C2079 C2073 1.428 . S
C2079 N2078 1.351 . S
C2079 C2080 1.434 . S
C2080 C2071 1.429 . S
C2080 N2077 1.350 . S
C2080 C2079 1.434 . S
C2081 C2082 1.369 . S
C2081 C2083 1.419 . S
C2081 H2085 0.930 . S
C2082 C2081 1.369 . S
C2082 C2091 1.429 . S
C2083 C2081 1.419 . S
C2083 C2084 1.363 . S
C2083 H2086 0.929 . S
C2084 C2083 1.363 . S
C2084 C2090 1.428 . S
H2085 C2081 0.930 . S
H2086 C2083 0.929 . S
S2087 N2088 1.613 . S
S2087 N2089 1.610 . S
N2088 S2087 1.613 . S
N2088 C2091 1.350 . S
N2089 S2087 1.610 . S
N2089 C2090 1.351 . S
C2090 C2084 1.428 . S
C2090 N2089 1.351 . S
C2090 C2091 1.434 . S
C2091 C2082 1.429 . S
C2091 N2088 1.350 . S
C2091 C2090 1.434 . S
C2092 C2093 1.369 . S
C2092 C2094 1.419 . S
C2092 H2096 0.930 . S
C2093 C2092 1.369 . S
C2093 C2102 1.429 . S
C2094 C2092 1.419 . S
C2094 C2095 1.363 . S
C2094 H2097 0.929 . S
C2095 C2094 1.363 . S
C2095 C2101 1.428 . S
H2096 C2092 0.930 . S
H2097 C2094 0.929 . S
S2098 N2099 1.613 . S
S2098 N2100 1.610 . S
N2099 S2098 1.613 . S
N2099 C2102 1.350 . S
N2100 S2098 1.610 . S
N2100 C2101 1.351 . S
C2101 C2095 1.428 . S
C2101 N2100 1.351 . S
C2101 C2102 1.434 . S
C2102 C2093 1.429 . S
C2102 N2099 1.350 . S
C2102 C2101 1.434 . S
C2103 C2104 1.369 . S
C2103 C2105 1.419 . S
C2103 H2107 0.930 . S
C2104 C2103 1.369 . S
C2104 C2113 1.429 . S
C2105 C2103 1.419 . S
C2105 C2106 1.363 . S
C2105 H2108 0.929 . S
C2106 C2105 1.363 . S
C2106 C2112 1.428 . S
H2107 C2103 0.930 . S
H2108 C2105 0.929 . S
S2109 N2110 1.613 . S
S2109 N2111 1.610 . S
N2110 S2109 1.613 . S
N2110 C2113 1.350 . S
N2111 S2109 1.610 . S
N2111 C2112 1.351 . S
C2112 C2106 1.428 . S
C2112 N2111 1.351 . S
C2112 C2113 1.434 . S
C2113 C2104 1.429 . S
C2113 N2110 1.350 . S
C2113 C2112 1.434 . S
C2114 C2115 1.369 . S
C2114 C2116 1.419 . S
C2114 H2118 0.930 . S
C2115 C2114 1.369 . S
C2115 C2124 1.429 . S
C2116 C2114 1.419 . S
C2116 C2117 1.363 . S
C2116 H2119 0.929 . S
C2117 C2116 1.363 . S
C2117 C2123 1.428 . S
H2118 C2114 0.930 . S
H2119 C2116 0.929 . S
S2120 N2121 1.613 . S
S2120 N2122 1.610 . S
N2121 S2120 1.613 . S
N2121 C2124 1.350 . S
N2122 S2120 1.610 . S
N2122 C2123 1.351 . S
C2123 C2117 1.428 . S
C2123 N2122 1.351 . S
C2123 C2124 1.434 . S
C2124 C2115 1.429 . S
C2124 N2121 1.350 . S
C2124 C2123 1.434 . S
C2125 C2126 1.369 . S
C2125 C2127 1.419 . S
C2125 H2129 0.930 . S
C2126 C2125 1.369 . S
C2126 C2135 1.429 . S
C2127 C2125 1.419 . S
C2127 C2128 1.363 . S
C2127 H2130 0.929 . S
C2128 C2127 1.363 . S
C2128 C2134 1.428 . S
H2129 C2125 0.930 . S
H2130 C2127 0.929 . S
S2131 N2132 1.613 . S
S2131 N2133 1.610 . S
N2132 S2131 1.613 . S
N2132 C2135 1.350 . S
N2133 S2131 1.610 . S
N2133 C2134 1.351 . S
C2134 C2128 1.428 . S
C2134 N2133 1.351 . S
C2134 C2135 1.434 . S
C2135 C2126 1.429 . S
C2135 N2132 1.350 . S
C2135 C2134 1.434 . S
C2136 C2137 1.369 . S
C2136 C2138 1.419 . S
C2136 H2140 0.930 . S
C2137 C2136 1.369 . S
C2137 C2146 1.429 . S
C2138 C2136 1.419 . S
C2138 C2139 1.363 . S
C2138 H2141 0.929 . S
C2139 C2138 1.363 . S
C2139 C2145 1.428 . S
H2140 C2136 0.930 . S
H2141 C2138 0.929 . S
S2142 N2143 1.613 . S
S2142 N2144 1.610 . S
N2143 S2142 1.613 . S
N2143 C2146 1.350 . S
N2144 S2142 1.610 . S
N2144 C2145 1.351 . S
C2145 C2139 1.428 . S
C2145 N2144 1.351 . S
C2145 C2146 1.434 . S
C2146 C2137 1.429 . S
C2146 N2143 1.350 . S
C2146 C2145 1.434 . S
C2147 C2148 1.369 . S
C2147 C2149 1.419 . S
C2147 H2151 0.930 . S
C2148 C2147 1.369 . S
C2148 C2157 1.429 . S
C2149 C2147 1.419 . S
C2149 C2150 1.363 . S
C2149 H2152 0.929 . S
C2150 C2149 1.363 . S
C2150 C2156 1.428 . S
H2151 C2147 0.930 . S
H2152 C2149 0.929 . S
S2153 N2154 1.613 . S
S2153 N2155 1.610 . S
N2154 S2153 1.613 . S
N2154 C2157 1.350 . S
N2155 S2153 1.610 . S
N2155 C2156 1.351 . S
C2156 C2150 1.428 . S
C2156 N2155 1.351 . S
C2156 C2157 1.434 . S
C2157 C2148 1.429 . S
C2157 N2154 1.350 . S
C2157 C2156 1.434 . S
C2158 C2159 1.369 . S
C2158 C2160 1.419 . S
C2158 H2162 0.930 . S
C2159 C2158 1.369 . S
C2159 C2168 1.429 . S
C2160 C2158 1.419 . S
C2160 C2161 1.363 . S
C2160 H2163 0.929 . S
C2161 C2160 1.363 . S
C2161 C2167 1.428 . S
H2162 C2158 0.930 . S
H2163 C2160 0.929 . S
S2164 N2165 1.613 . S
S2164 N2166 1.610 . S
N2165 S2164 1.613 . S
N2165 C2168 1.350 . S
N2166 S2164 1.610 . S
N2166 C2167 1.351 . S
C2167 C2161 1.428 . S
C2167 N2166 1.351 . S
C2167 C2168 1.434 . S
C2168 C2159 1.429 . S
C2168 N2165 1.350 . S
C2168 C2167 1.434 . S
C2169 C2170 1.369 . S
C2169 C2171 1.419 . S
C2169 H2173 0.930 . S
C2170 C2169 1.369 . S
C2170 C2179 1.429 . S
C2171 C2169 1.419 . S
C2171 C2172 1.363 . S
C2171 H2174 0.929 . S
C2172 C2171 1.363 . S
C2172 C2178 1.428 . S
H2173 C2169 0.930 . S
H2174 C2171 0.929 . S
S2175 N2176 1.613 . S
S2175 N2177 1.610 . S
N2176 S2175 1.613 . S
N2176 C2179 1.350 . S
N2177 S2175 1.610 . S
N2177 C2178 1.351 . S
C2178 C2172 1.428 . S
C2178 N2177 1.351 . S
C2178 C2179 1.434 . S
C2179 C2170 1.429 . S
C2179 N2176 1.350 . S
C2179 C2178 1.434 . S
C2180 C2181 1.369 . S
C2180 C2182 1.419 . S
C2180 H2184 0.930 . S
C2181 C2180 1.369 . S
C2181 C2190 1.429 . S
C2182 C2180 1.419 . S
C2182 C2183 1.363 . S
C2182 H2185 0.929 . S
C2183 C2182 1.363 . S
C2183 C2189 1.428 . S
H2184 C2180 0.930 . S
H2185 C2182 0.929 . S
S2186 N2187 1.613 . S
S2186 N2188 1.610 . S
N2187 S2186 1.613 . S
N2187 C2190 1.350 . S
N2188 S2186 1.610 . S
N2188 C2189 1.351 . S
C2189 C2183 1.428 . S
C2189 N2188 1.351 . S
C2189 C2190 1.434 . S
C2190 C2181 1.429 . S
C2190 N2187 1.350 . S
C2190 C2189 1.434 . S
C2191 C2192 1.369 . S
C2191 C2193 1.419 . S
C2191 H2195 0.930 . S
C2192 C2191 1.369 . S
C2192 C2201 1.429 . S
C2193 C2191 1.419 . S
C2193 C2194 1.363 . S
C2193 H2196 0.929 . S
C2194 C2193 1.363 . S
C2194 C2200 1.428 . S
H2195 C2191 0.930 . S
H2196 C2193 0.929 . S
S2197 N2198 1.613 . S
S2197 N2199 1.610 . S
N2198 S2197 1.613 . S
N2198 C2201 1.350 . S
N2199 S2197 1.610 . S
N2199 C2200 1.351 . S
C2200 C2194 1.428 . S
C2200 N2199 1.351 . S
C2200 C2201 1.434 . S
C2201 C2192 1.429 . S
C2201 N2198 1.350 . S
C2201 C2200 1.434 . S
C2202 C2203 1.369 . S
C2202 C2204 1.419 . S
C2202 H2206 0.930 . S
C2203 C2202 1.369 . S
C2203 C2212 1.429 . S
C2204 C2202 1.419 . S
C2204 C2205 1.363 . S
C2204 H2207 0.929 . S
C2205 C2204 1.363 . S
C2205 C2211 1.428 . S
H2206 C2202 0.930 . S
H2207 C2204 0.929 . S
S2208 N2209 1.613 . S
S2208 N2210 1.610 . S
N2209 S2208 1.613 . S
N2209 C2212 1.350 . S
N2210 S2208 1.610 . S
N2210 C2211 1.351 . S
C2211 C2205 1.428 . S
C2211 N2210 1.351 . S
C2211 C2212 1.434 . S
C2212 C2203 1.429 . S
C2212 N2209 1.350 . S
C2212 C2211 1.434 . S
C2213 C2214 1.369 . S
C2213 C2215 1.419 . S
C2213 H2217 0.930 . S
C2214 C2213 1.369 . S
C2214 C2223 1.429 . S
C2215 C2213 1.419 . S
C2215 C2216 1.363 . S
C2215 H2218 0.929 . S
C2216 C2215 1.363 . S
C2216 C2222 1.428 . S
H2217 C2213 0.930 . S
H2218 C2215 0.929 . S
S2219 N2220 1.613 . S
S2219 N2221 1.610 . S
N2220 S2219 1.613 . S
N2220 C2223 1.350 . S
N2221 S2219 1.610 . S
N2221 C2222 1.351 . S
C2222 C2216 1.428 . S
C2222 N2221 1.351 . S
C2222 C2223 1.434 . S
C2223 C2214 1.429 . S
C2223 N2220 1.350 . S
C2223 C2222 1.434 . S
C2224 C2225 1.369 . S
C2224 C2226 1.419 . S
C2224 H2228 0.930 . S
C2225 C2224 1.369 . S
C2225 C2234 1.429 . S
C2226 C2224 1.419 . S
C2226 C2227 1.363 . S
C2226 H2229 0.929 . S
C2227 C2226 1.363 . S
C2227 C2233 1.428 . S
H2228 C2224 0.930 . S
H2229 C2226 0.929 . S
S2230 N2231 1.613 . S
S2230 N2232 1.610 . S
N2231 S2230 1.613 . S
N2231 C2234 1.350 . S
N2232 S2230 1.610 . S
N2232 C2233 1.351 . S
C2233 C2227 1.428 . S
C2233 N2232 1.351 . S
C2233 C2234 1.434 . S
C2234 C2225 1.429 . S
C2234 N2231 1.350 . S
C2234 C2233 1.434 . S
C2235 C2236 1.369 . S
C2235 C2237 1.419 . S
C2235 H2239 0.930 . S
C2236 C2235 1.369 . S
C2236 C2245 1.429 . S
C2237 C2235 1.419 . S
C2237 C2238 1.363 . S
C2237 H2240 0.929 . S
C2238 C2237 1.363 . S
C2238 C2244 1.428 . S
H2239 C2235 0.930 . S
H2240 C2237 0.929 . S
S2241 N2242 1.613 . S
S2241 N2243 1.610 . S
N2242 S2241 1.613 . S
N2242 C2245 1.350 . S
N2243 S2241 1.610 . S
N2243 C2244 1.351 . S
C2244 C2238 1.428 . S
C2244 N2243 1.351 . S
C2244 C2245 1.434 . S
C2245 C2236 1.429 . S
C2245 N2242 1.350 . S
C2245 C2244 1.434 . S
C2246 C2247 1.369 . S
C2246 C2248 1.419 . S
C2246 H2250 0.930 . S
C2247 C2246 1.369 . S
C2247 C2256 1.429 . S
C2248 C2246 1.419 . S
C2248 C2249 1.363 . S
C2248 H2251 0.929 . S
C2249 C2248 1.363 . S
C2249 C2255 1.428 . S
H2250 C2246 0.930 . S
H2251 C2248 0.929 . S
S2252 N2253 1.613 . S
S2252 N2254 1.610 . S
N2253 S2252 1.613 . S
N2253 C2256 1.350 . S
N2254 S2252 1.610 . S
N2254 C2255 1.351 . S
C2255 C2249 1.428 . S
C2255 N2254 1.351 . S
C2255 C2256 1.434 . S
C2256 C2247 1.429 . S
C2256 N2253 1.350 . S
C2256 C2255 1.434 . S
C2257 C2258 1.369 . S
C2257 C2259 1.419 . S
C2257 H2261 0.930 . S
C2258 C2257 1.369 . S
C2258 C2267 1.429 . S
C2259 C2257 1.419 . S
C2259 C2260 1.363 . S
C2259 H2262 0.929 . S
C2260 C2259 1.363 . S
C2260 C2266 1.428 . S
H2261 C2257 0.930 . S
H2262 C2259 0.929 . S
S2263 N2264 1.613 . S
S2263 N2265 1.610 . S
N2264 S2263 1.613 . S
N2264 C2267 1.350 . S
N2265 S2263 1.610 . S
N2265 C2266 1.351 . S
C2266 C2260 1.428 . S
C2266 N2265 1.351 . S
C2266 C2267 1.434 . S
C2267 C2258 1.429 . S
C2267 N2264 1.350 . S
C2267 C2266 1.434 . S
C2268 C2269 1.369 . S
C2268 C2270 1.419 . S
C2268 H2272 0.930 . S
C2269 C2268 1.369 . S
C2269 C2278 1.429 . S
C2270 C2268 1.419 . S
C2270 C2271 1.363 . S
C2270 H2273 0.929 . S
C2271 C2270 1.363 . S
C2271 C2277 1.428 . S
H2272 C2268 0.930 . S
H2273 C2270 0.929 . S
S2274 N2275 1.613 . S
S2274 N2276 1.610 . S
N2275 S2274 1.613 . S
N2275 C2278 1.350 . S
N2276 S2274 1.610 . S
N2276 C2277 1.351 . S
C2277 C2271 1.428 . S
C2277 N2276 1.351 . S
C2277 C2278 1.434 . S
C2278 C2269 1.429 . S
C2278 N2275 1.350 . S
C2278 C2277 1.434 . S
C2279 C2280 1.369 . S
C2279 C2281 1.419 . S
C2279 H2283 0.930 . S
C2280 C2279 1.369 . S
C2280 C2289 1.429 . S
C2281 C2279 1.419 . S
C2281 C2282 1.363 . S
C2281 H2284 0.929 . S
C2282 C2281 1.363 . S
C2282 C2288 1.428 . S
H2283 C2279 0.930 . S
H2284 C2281 0.929 . S
S2285 N2286 1.613 . S
S2285 N2287 1.610 . S
N2286 S2285 1.613 . S
N2286 C2289 1.350 . S
N2287 S2285 1.610 . S
N2287 C2288 1.351 . S
C2288 C2282 1.428 . S
C2288 N2287 1.351 . S
C2288 C2289 1.434 . S
C2289 C2280 1.429 . S
C2289 N2286 1.350 . S
C2289 C2288 1.434 . S
C2290 C2291 1.369 . S
C2290 C2292 1.419 . S
C2290 H2294 0.930 . S
C2291 C2290 1.369 . S
C2291 C2300 1.429 . S
C2292 C2290 1.419 . S
C2292 C2293 1.363 . S
C2292 H2295 0.929 . S
C2293 C2292 1.363 . S
C2293 C2299 1.428 . S
H2294 C2290 0.930 . S
H2295 C2292 0.929 . S
S2296 N2297 1.613 . S
S2296 N2298 1.610 . S
N2297 S2296 1.613 . S
N2297 C2300 1.350 . S
N2298 S2296 1.610 . S
N2298 C2299 1.351 . S
C2299 C2293 1.428 . S
C2299 N2298 1.351 . S
C2299 C2300 1.434 . S
C2300 C2291 1.429 . S
C2300 N2297 1.350 . S
C2300 C2299 1.434 . S
C2301 C2302 1.369 . S
C2301 C2303 1.419 . S
C2301 H2305 0.930 . S
C2302 C2301 1.369 . S
C2302 C2311 1.429 . S
C2303 C2301 1.419 . S
C2303 C2304 1.363 . S
C2303 H2306 0.929 . S
C2304 C2303 1.363 . S
C2304 C2310 1.428 . S
H2305 C2301 0.930 . S
H2306 C2303 0.929 . S
S2307 N2308 1.613 . S
S2307 N2309 1.610 . S
N2308 S2307 1.613 . S
N2308 C2311 1.350 . S
N2309 S2307 1.610 . S
N2309 C2310 1.351 . S
C2310 C2304 1.428 . S
C2310 N2309 1.351 . S
C2310 C2311 1.434 . S
C2311 C2302 1.429 . S
C2311 N2308 1.350 . S
C2311 C2310 1.434 . S
C2312 C2313 1.369 . S
C2312 C2314 1.419 . S
C2312 H2316 0.930 . S
C2313 C2312 1.369 . S
C2313 C2322 1.429 . S
C2314 C2312 1.419 . S
C2314 C2315 1.363 . S
C2314 H2317 0.929 . S
C2315 C2314 1.363 . S
C2315 C2321 1.428 . S
H2316 C2312 0.930 . S
H2317 C2314 0.929 . S
S2318 N2319 1.613 . S
S2318 N2320 1.610 . S
N2319 S2318 1.613 . S
N2319 C2322 1.350 . S
N2320 S2318 1.610 . S
N2320 C2321 1.351 . S
C2321 C2315 1.428 . S
C2321 N2320 1.351 . S
C2321 C2322 1.434 . S
C2322 C2313 1.429 . S
C2322 N2319 1.350 . S
C2322 C2321 1.434 . S
C2323 C2324 1.369 . S
C2323 C2325 1.419 . S
C2323 H2327 0.930 . S
C2324 C2323 1.369 . S
C2324 C2333 1.429 . S
C2325 C2323 1.419 . S
C2325 C2326 1.363 . S
C2325 H2328 0.929 . S
C2326 C2325 1.363 . S
C2326 C2332 1.428 . S
H2327 C2323 0.930 . S
H2328 C2325 0.929 . S
S2329 N2330 1.613 . S
S2329 N2331 1.610 . S
N2330 S2329 1.613 . S
N2330 C2333 1.350 . S
N2331 S2329 1.610 . S
N2331 C2332 1.351 . S
C2332 C2326 1.428 . S
C2332 N2331 1.351 . S
C2332 C2333 1.434 . S
C2333 C2324 1.429 . S
C2333 N2330 1.350 . S
C2333 C2332 1.434 . S
C2334 C2335 1.369 . S
C2334 C2336 1.419 . S
C2334 H2338 0.930 . S
C2335 C2334 1.369 . S
C2335 C2344 1.429 . S
C2336 C2334 1.419 . S
C2336 C2337 1.363 . S
C2336 H2339 0.929 . S
C2337 C2336 1.363 . S
C2337 C2343 1.428 . S
H2338 C2334 0.930 . S
H2339 C2336 0.929 . S
S2340 N2341 1.613 . S
S2340 N2342 1.610 . S
N2341 S2340 1.613 . S
N2341 C2344 1.350 . S
N2342 S2340 1.610 . S
N2342 C2343 1.351 . S
C2343 C2337 1.428 . S
C2343 N2342 1.351 . S
C2343 C2344 1.434 . S
C2344 C2335 1.429 . S
C2344 N2341 1.350 . S
C2344 C2343 1.434 . S
C2345 C2346 1.369 . S
C2345 C2347 1.419 . S
C2345 H2349 0.930 . S
C2346 C2345 1.369 . S
C2346 C2355 1.429 . S
C2347 C2345 1.419 . S
C2347 C2348 1.363 . S
C2347 H2350 0.929 . S
C2348 C2347 1.363 . S
C2348 C2354 1.428 . S
H2349 C2345 0.930 . S
H2350 C2347 0.929 . S
S2351 N2352 1.613 . S
S2351 N2353 1.610 . S
N2352 S2351 1.613 . S
N2352 C2355 1.350 . S
N2353 S2351 1.610 . S
N2353 C2354 1.351 . S
C2354 C2348 1.428 . S
C2354 N2353 1.351 . S
C2354 C2355 1.434 . S
C2355 C2346 1.429 . S
C2355 N2352 1.350 . S
C2355 C2354 1.434 . S
C2356 C2357 1.369 . S
C2356 C2358 1.419 . S
C2356 H2360 0.930 . S
C2357 C2356 1.369 . S
C2357 C2366 1.429 . S
C2358 C2356 1.419 . S
C2358 C2359 1.363 . S
C2358 H2361 0.929 . S
C2359 C2358 1.363 . S
C2359 C2365 1.428 . S
H2360 C2356 0.930 . S
H2361 C2358 0.929 . S
S2362 N2363 1.613 . S
S2362 N2364 1.610 . S
N2363 S2362 1.613 . S
N2363 C2366 1.350 . S
N2364 S2362 1.610 . S
N2364 C2365 1.351 . S
C2365 C2359 1.428 . S
C2365 N2364 1.351 . S
C2365 C2366 1.434 . S
C2366 C2357 1.429 . S
C2366 N2363 1.350 . S
C2366 C2365 1.434 . S
C2367 C2368 1.369 . S
C2367 C2369 1.419 . S
C2367 H2371 0.930 . S
C2368 C2367 1.369 . S
C2368 C2377 1.429 . S
C2369 C2367 1.419 . S
C2369 C2370 1.363 . S
C2369 H2372 0.929 . S
C2370 C2369 1.363 . S
C2370 C2376 1.428 . S
H2371 C2367 0.930 . S
H2372 C2369 0.929 . S
S2373 N2374 1.613 . S
S2373 N2375 1.610 . S
N2374 S2373 1.613 . S
N2374 C2377 1.350 . S
N2375 S2373 1.610 . S
N2375 C2376 1.351 . S
C2376 C2370 1.428 . S
C2376 N2375 1.351 . S
C2376 C2377 1.434 . S
C2377 C2368 1.429 . S
C2377 N2374 1.350 . S
C2377 C2376 1.434 . S
C2378 C2379 1.369 . S
C2378 C2380 1.419 . S
C2378 H2382 0.930 . S
C2379 C2378 1.369 . S
C2379 C2388 1.429 . S
C2380 C2378 1.419 . S
C2380 C2381 1.363 . S
C2380 H2383 0.929 . S
C2381 C2380 1.363 . S
C2381 C2387 1.428 . S
H2382 C2378 0.930 . S
H2383 C2380 0.929 . S
S2384 N2385 1.613 . S
S2384 N2386 1.610 . S
N2385 S2384 1.613 . S
N2385 C2388 1.350 . S
N2386 S2384 1.610 . S
N2386 C2387 1.351 . S
C2387 C2381 1.428 . S
C2387 N2386 1.351 . S
C2387 C2388 1.434 . S
C2388 C2379 1.429 . S
C2388 N2385 1.350 . S
C2388 C2387 1.434 . S
C2389 C2390 1.369 . S
C2389 C2391 1.419 . S
C2389 H2393 0.930 . S
C2390 C2389 1.369 . S
C2390 C2399 1.429 . S
C2391 C2389 1.419 . S
C2391 C2392 1.363 . S
C2391 H2394 0.929 . S
C2392 C2391 1.363 . S
C2392 C2398 1.428 . S
H2393 C2389 0.930 . S
H2394 C2391 0.929 . S
S2395 N2396 1.613 . S
S2395 N2397 1.610 . S
N2396 S2395 1.613 . S
N2396 C2399 1.350 . S
N2397 S2395 1.610 . S
N2397 C2398 1.351 . S
C2398 C2392 1.428 . S
C2398 N2397 1.351 . S
C2398 C2399 1.434 . S
C2399 C2390 1.429 . S
C2399 N2396 1.350 . S
C2399 C2398 1.434 . S
C2400 C2401 1.369 . S
C2400 C2402 1.419 1_455 S
C2400 H2404 0.930 . S
C2401 C2400 1.369 . S
C2401 C2410 1.429 . S
C2402 C2400 1.419 1_655 S
C2402 C2403 1.363 . S
C2402 H2405 0.929 . S
C2403 C2402 1.363 . S
C2403 C2409 1.428 . S
H2404 C2400 0.930 . S
H2405 C2402 0.929 . S
S2406 N2407 1.613 . S
S2406 N2408 1.610 1_455 S
N2407 S2406 1.613 . S
N2407 C2410 1.350 . S
N2408 S2406 1.610 1_655 S
N2408 C2409 1.351 . S
C2409 C2403 1.428 . S
C2409 N2408 1.351 . S
C2409 C2410 1.434 1_655 S
C2410 C2401 1.429 . S
C2410 N2407 1.350 . S
C2410 C2409 1.434 1_455 S
C2411 C2412 1.369 . S
C2411 C2413 1.419 1_545 S
C2411 H2415 0.930 . S
C2412 C2411 1.369 . S
C2412 C2421 1.429 . S
C2413 C2411 1.419 1_565 S
C2413 C2414 1.363 . S
C2413 H2416 0.929 . S
C2414 C2413 1.363 . S
C2414 C2420 1.428 . S
H2415 C2411 0.930 . S
H2416 C2413 0.929 . S
S2417 N2418 1.613 1_565 S
S2417 N2419 1.610 . S
N2418 S2417 1.613 1_545 S
N2418 C2421 1.350 . S
N2419 S2417 1.610 . S
N2419 C2420 1.351 . S
C2420 C2414 1.428 . S
C2420 N2419 1.351 . S
C2420 C2421 1.434 1_565 S
C2421 C2412 1.429 . S
C2421 N2418 1.350 . S
C2421 C2420 1.434 1_545 S
C2422 C2423 1.369 . S
C2422 C2424 1.419 1_655 S
C2422 H2426 0.930 . S
C2423 C2422 1.369 . S
C2423 C2432 1.429 . S
C2424 C2422 1.419 1_455 S
C2424 C2425 1.363 . S
C2424 H2427 0.929 . S
C2425 C2424 1.363 . S
C2425 C2431 1.428 . S
H2426 C2422 0.930 . S
H2427 C2424 0.929 . S
S2428 N2429 1.613 . S
S2428 N2430 1.610 1_655 S
N2429 S2428 1.613 . S
N2429 C2432 1.350 . S
N2430 S2428 1.610 1_455 S
N2430 C2431 1.351 . S
C2431 C2425 1.428 . S
C2431 N2430 1.351 . S
C2431 C2432 1.434 1_455 S
C2432 C2423 1.429 . S
C2432 N2429 1.350 . S
C2432 C2431 1.434 1_655 S
C2433 C2434 1.369 . S
C2433 C2435 1.419 1_565 S
C2433 H2437 0.930 . S
C2434 C2433 1.369 . S
C2434 C2443 1.429 . S
C2435 C2433 1.419 1_545 S
C2435 C2436 1.363 . S
C2435 H2438 0.929 . S
C2436 C2435 1.363 . S
C2436 C2442 1.428 . S
H2437 C2433 0.930 . S
H2438 C2435 0.929 . S
S2439 N2440 1.613 1_545 S
S2439 N2441 1.610 . S
N2440 S2439 1.613 1_565 S
N2440 C2443 1.350 . S
N2441 S2439 1.610 . S
N2441 C2442 1.351 . S
C2442 C2436 1.428 . S
C2442 N2441 1.351 . S
C2442 C2443 1.434 1_545 S
C2443 C2434 1.429 . S
C2443 N2440 1.350 . S
C2443 C2442 1.434 1_565 S
C2444 C2445 1.369 . S
C2444 C2446 1.419 1_655 S
C2444 H2448 0.930 . S
C2445 C2444 1.369 . S
C2445 C2454 1.429 . S
C2446 C2444 1.419 1_455 S
C2446 C2447 1.363 . S
C2446 H2449 0.929 . S
C2447 C2446 1.363 . S
C2447 C2453 1.428 . S
H2448 C2444 0.930 . S
H2449 C2446 0.929 . S
S2450 N2451 1.629 . S
S2450 N2452 1.596 1_655 S
N2451 S2450 1.629 . S
N2451 C2454 1.350 . S
N2452 S2450 1.596 1_455 S
N2452 C2453 1.351 . S
C2453 C2447 1.428 . S
C2453 N2452 1.351 . S
C2453 C2454 1.434 1_455 S
C2454 C2445 1.429 . S
C2454 N2451 1.350 . S
C2454 C2453 1.434 1_655 S
C2455 C2456 1.369 . S
C2455 C2457 1.419 1_545 S
C2455 H2459 0.930 . S
C2456 C2455 1.369 . S
C2456 C2465 1.429 . S
C2457 C2455 1.419 1_565 S
C2457 C2458 1.363 . S
C2457 H2460 0.929 . S
C2458 C2457 1.363 . S
C2458 C2464 1.428 . S
H2459 C2455 0.930 . S
H2460 C2457 0.929 . S
S2461 N2462 1.613 . S
S2461 N2463 1.610 1_545 S
N2462 S2461 1.613 . S
N2462 C2465 1.350 . S
N2463 S2461 1.610 1_565 S
N2463 C2464 1.351 . S
C2464 C2458 1.428 . S
C2464 N2463 1.351 . S
C2464 C2465 1.434 1_565 S
C2465 C2456 1.429 . S
C2465 N2462 1.350 . S
C2465 C2464 1.434 1_545 S
C2466 C2467 1.369 . S
C2466 C2468 1.419 1_455 S
C2466 H2470 0.930 . S
C2467 C2466 1.369 . S
C2467 C2476 1.429 . S
C2468 C2466 1.419 1_655 S
C2468 C2469 1.363 . S
C2468 H2471 0.929 . S
C2469 C2468 1.363 . S
C2469 C2475 1.428 . S
H2470 C2466 0.930 . S
H2471 C2468 0.929 . S
S2472 N2473 1.587 1_655 S
S2472 N2474 1.634 . S
N2473 S2472 1.587 1_455 S
N2473 C2476 1.350 . S
N2474 S2472 1.634 . S
N2474 C2475 1.351 . S
C2475 C2469 1.428 . S
C2475 N2474 1.351 . S
C2475 C2476 1.434 1_655 S
C2476 C2467 1.429 . S
C2476 N2473 1.350 . S
C2476 C2475 1.434 1_455 S
C2477 C2478 1.369 . S
C2477 C2479 1.419 1_545 S
C2477 H2481 0.930 . S
C2478 C2477 1.369 . S
C2478 C2487 1.429 . S
C2479 C2477 1.419 1_565 S
C2479 C2480 1.363 . S
C2479 H2482 0.929 . S
C2480 C2479 1.363 . S
C2480 C2486 1.428 . S
H2481 C2477 0.930 . S
H2482 C2479 0.929 . S
S2483 N2484 1.613 1_565 S
S2483 N2485 1.610 . S
N2484 S2483 1.613 1_545 S
N2484 C2487 1.350 . S
N2485 S2483 1.610 . S
N2485 C2486 1.351 . S
C2486 C2480 1.428 . S
C2486 N2485 1.351 . S
C2486 C2487 1.434 1_565 S
C2487 C2478 1.429 . S
C2487 N2484 1.350 . S
C2487 C2486 1.434 1_545 S
C2488 C2489 1.369 . S
C2488 C2490 1.419 1_545 S
C2488 H2492 0.930 . S
C2489 C2488 1.369 . S
C2489 C2498 1.429 . S
C2490 C2488 1.419 1_565 S
C2490 C2491 1.363 . S
C2490 H2493 0.929 . S
C2491 C2490 1.363 . S
C2491 C2497 1.428 . S
H2492 C2488 0.930 . S
H2493 C2490 0.929 . S
S2494 N2495 1.613 1_565 S
S2494 N2496 1.610 . S
N2495 S2494 1.613 1_545 S
N2495 C2498 1.350 . S
N2496 S2494 1.610 . S
N2496 C2497 1.351 . S
C2497 C2491 1.428 . S
C2497 N2496 1.351 . S
C2497 C2498 1.434 1_565 S
C2498 C2489 1.429 . S
C2498 N2495 1.350 . S
C2498 C2497 1.434 1_545 S
C2499 C2500 1.369 . S
C2499 C2501 1.419 1_455 S
C2499 H2503 0.930 . S
C2500 C2499 1.369 . S
C2500 C2509 1.429 . S
C2501 C2499 1.419 1_655 S
C2501 C2502 1.363 . S
C2501 H2504 0.929 . S
C2502 C2501 1.363 . S
C2502 C2508 1.428 . S
H2503 C2499 0.930 . S
H2504 C2501 0.929 . S
S2505 N2506 1.613 1_655 S
S2505 N2507 1.610 . S
N2506 S2505 1.613 1_455 S
N2506 C2509 1.350 . S
N2507 S2505 1.610 . S
N2507 C2508 1.351 . S
C2508 C2502 1.428 . S
C2508 N2507 1.351 . S
C2508 C2509 1.434 1_655 S
C2509 C2500 1.429 . S
C2509 N2506 1.350 . S
C2509 C2508 1.434 1_455 S
C2510 C2511 1.369 . S
C2510 C2512 1.419 1_565 S
C2510 H2514 0.930 . S
C2511 C2510 1.369 . S
C2511 C2520 1.429 . S
C2512 C2510 1.419 1_545 S
C2512 C2513 1.363 . S
C2512 H2515 0.929 . S
C2513 C2512 1.363 . S
C2513 C2519 1.428 . S
H2514 C2510 0.930 . S
H2515 C2512 0.929 . S
S2516 N2517 1.613 1_545 S
S2516 N2518 1.610 . S
N2517 S2516 1.613 1_565 S
N2517 C2520 1.350 . S
N2518 S2516 1.610 . S
N2518 C2519 1.351 . S
C2519 C2513 1.428 . S
C2519 N2518 1.351 . S
C2519 C2520 1.434 1_545 S
C2520 C2511 1.429 . S
C2520 N2517 1.350 . S
C2520 C2519 1.434 1_565 S
C2521 C2522 1.369 . S
C2521 C2523 1.419 1_455 S
C2521 H2525 0.930 . S
C2522 C2521 1.369 . S
C2522 C2531 1.429 . S
C2523 C2521 1.419 1_655 S
C2523 C2524 1.363 . S
C2523 H2526 0.929 . S
C2524 C2523 1.363 . S
C2524 C2530 1.428 . S
H2525 C2521 0.930 . S
H2526 C2523 0.929 . S
S2527 N2528 1.613 . S
S2527 N2529 1.610 1_455 S
N2528 S2527 1.613 . S
N2528 C2531 1.350 . S
N2529 S2527 1.610 1_655 S
N2529 C2530 1.351 . S
C2530 C2524 1.428 . S
C2530 N2529 1.351 . S
C2530 C2531 1.434 1_655 S
C2531 C2522 1.429 . S
C2531 N2528 1.350 . S
C2531 C2530 1.434 1_455 S
C2532 C2533 1.369 . S
C2532 C2534 1.419 1_565 S
C2532 H2536 0.930 . S
C2533 C2532 1.369 . S
C2533 C2542 1.429 . S
C2534 C2532 1.419 1_545 S
C2534 C2535 1.363 . S
C2534 H2537 0.929 . S
C2535 C2534 1.363 . S
C2535 C2541 1.428 . S
H2536 C2532 0.930 . S
H2537 C2534 0.929 . S
S2538 N2539 1.613 1_545 S
S2538 N2540 1.610 . S
N2539 S2538 1.613 1_565 S
N2539 C2542 1.350 . S
N2540 S2538 1.610 . S
N2540 C2541 1.351 . S
C2541 C2535 1.428 . S
C2541 N2540 1.351 . S
C2541 C2542 1.434 1_545 S
C2542 C2533 1.429 . S
C2542 N2539 1.350 . S
C2542 C2541 1.434 1_565 S
C2543 C2544 1.369 . S
C2543 C2545 1.419 1_455 S
C2543 H2547 0.930 . S
C2544 C2543 1.369 . S
C2544 C2553 1.429 . S
C2545 C2543 1.419 1_655 S
C2545 C2546 1.363 . S
C2545 H2548 0.929 . S
C2546 C2545 1.363 . S
C2546 C2552 1.428 . S
H2547 C2543 0.930 . S
H2548 C2545 0.929 . S
S2549 N2550 1.613 1_655 S
S2549 N2551 1.610 . S
N2550 S2549 1.613 1_455 S
N2550 C2553 1.350 . S
N2551 S2549 1.610 . S
N2551 C2552 1.351 . S
C2552 C2546 1.428 . S
C2552 N2551 1.351 . S
C2552 C2553 1.434 1_655 S
C2553 C2544 1.429 . S
C2553 N2550 1.350 . S
C2553 C2552 1.434 1_455 S
C2554 C2555 1.369 . S
C2554 C2556 1.419 1_545 S
C2554 H2558 0.930 . S
C2555 C2554 1.369 . S
C2555 C2564 1.429 . S
C2556 C2554 1.419 1_565 S
C2556 C2557 1.363 . S
C2556 H2559 0.929 . S
C2557 C2556 1.363 . S
C2557 C2563 1.428 . S
H2558 C2554 0.930 . S
H2559 C2556 0.929 . S
S2560 N2561 1.613 1_565 S
S2560 N2562 1.610 . S
N2561 S2560 1.613 1_545 S
N2561 C2564 1.350 . S
N2562 S2560 1.610 . S
N2562 C2563 1.351 . S
C2563 C2557 1.428 . S
C2563 N2562 1.351 . S
C2563 C2564 1.434 1_565 S
C2564 C2555 1.429 . S
C2564 N2561 1.350 . S
C2564 C2563 1.434 1_545 S
C2565 C2566 1.369 . S
C2565 C2567 1.419 1_455 S
C2565 H2569 0.930 . S
C2566 C2565 1.369 . S
C2566 C2575 1.429 . S
C2567 C2565 1.419 1_655 S
C2567 C2568 1.363 . S
C2567 H2570 0.929 . S
C2568 C2567 1.363 . S
C2568 C2574 1.428 . S
H2569 C2565 0.930 . S
H2570 C2567 0.929 . S
S2571 N2572 1.565 1_655 S
S2571 N2573 1.654 . S
N2572 S2571 1.565 1_455 S
N2572 C2575 1.350 . S
N2573 S2571 1.654 . S
N2573 C2574 1.351 . S
C2574 C2568 1.428 . S
C2574 N2573 1.351 . S
C2574 C2575 1.434 1_655 S
C2575 C2566 1.429 . S
C2575 N2572 1.350 . S
C2575 C2574 1.434 1_455 S
C2576 C2577 1.369 . S
C2576 C2578 1.419 1_554 S
C2576 H2580 0.930 . S
C2577 C2576 1.369 . S
C2577 C2586 1.429 . S
C2578 C2576 1.419 1_556 S
C2578 C2579 1.363 . S
C2578 H2581 0.929 . S
C2579 C2578 1.363 . S
C2579 C2585 1.428 . S
H2580 C2576 0.930 . S
H2581 C2578 0.929 . S
S2582 N2583 1.613 1_556 S
S2582 N2584 1.610 . S
N2583 S2582 1.613 1_554 S
N2583 C2586 1.350 . S
N2584 S2582 1.610 . S
N2584 C2585 1.351 . S
C2585 C2579 1.428 . S
C2585 N2584 1.351 . S
C2585 C2586 1.434 1_556 S
C2586 C2577 1.429 . S
C2586 N2583 1.350 . S
C2586 C2585 1.434 1_554 S
C2587 C2588 1.369 . S
C2587 C2589 1.419 1_556 S
C2587 H2591 0.930 . S
C2588 C2587 1.369 . S
C2588 C2597 1.429 . S
C2589 C2587 1.419 1_554 S
C2589 C2590 1.363 . S
C2589 H2592 0.929 . S
C2590 C2589 1.363 . S
C2590 C2596 1.428 . S
H2591 C2587 0.930 . S
H2592 C2589 0.929 . S
S2593 N2594 1.613 1_554 S
S2593 N2595 1.610 . S
N2594 S2593 1.613 1_556 S
N2594 C2597 1.350 . S
N2595 S2593 1.610 . S
N2595 C2596 1.351 . S
C2596 C2590 1.428 . S
C2596 N2595 1.351 . S
C2596 C2597 1.434 1_554 S
C2597 C2588 1.429 . S
C2597 N2594 1.350 . S
C2597 C2596 1.434 1_556 S
C2598 C2599 1.369 . S
C2598 C2600 1.419 1_554 S
C2598 H2602 0.930 . S
C2599 C2598 1.369 . S
C2599 C2608 1.429 . S
C2600 C2598 1.419 1_556 S
C2600 C2601 1.363 . S
C2600 H2603 0.929 . S
C2601 C2600 1.363 . S
C2601 C2607 1.428 . S
H2602 C2598 0.930 . S
H2603 C2600 0.929 . S
S2604 N2605 1.614 1_556 S
S2604 N2606 1.609 . S
N2605 S2604 1.614 1_554 S
N2605 C2608 1.350 . S
N2606 S2604 1.609 . S
N2606 C2607 1.351 . S
C2607 C2601 1.428 . S
C2607 N2606 1.351 . S
C2607 C2608 1.434 1_556 S
C2608 C2599 1.429 . S
C2608 N2605 1.350 . S
C2608 C2607 1.434 1_554 S
C2609 C2610 1.369 . S
C2609 C2611 1.419 1_556 S
C2609 H2613 0.930 . S
C2610 C2609 1.369 . S
C2610 C2619 1.429 . S
C2611 C2609 1.419 1_554 S
C2611 C2612 1.363 . S
C2611 H2614 0.929 . S
C2612 C2611 1.363 . S
C2612 C2618 1.428 . S
H2613 C2609 0.930 . S
H2614 C2611 0.929 . S
S2615 N2616 1.613 1_554 S
S2615 N2617 1.610 . S
N2616 S2615 1.613 1_556 S
N2616 C2619 1.350 . S
N2617 S2615 1.610 . S
N2617 C2618 1.351 . S
C2618 C2612 1.428 . S
C2618 N2617 1.351 . S
C2618 C2619 1.434 1_554 S
C2619 C2610 1.429 . S
C2619 N2616 1.350 . S
C2619 C2618 1.434 1_556 S
C2620 C2621 1.369 . S
C2620 C2622 1.419 1_554 S
C2620 H2624 0.930 . S
C2621 C2620 1.369 . S
C2621 C2630 1.429 . S
C2622 C2620 1.419 1_556 S
C2622 C2623 1.363 . S
C2622 H2625 0.929 . S
C2623 C2622 1.363 . S
C2623 C2629 1.428 . S
H2624 C2620 0.930 . S
H2625 C2622 0.929 . S
S2626 N2627 1.613 . S
S2626 N2628 1.610 1_554 S
N2627 S2626 1.613 . S
N2627 C2630 1.350 . S
N2628 S2626 1.610 1_556 S
N2628 C2629 1.351 . S
C2629 C2623 1.428 . S
C2629 N2628 1.351 . S
C2629 C2630 1.434 1_556 S
C2630 C2621 1.429 . S
C2630 N2627 1.350 . S
C2630 C2629 1.434 1_554 S
C2631 C2632 1.369 . S
C2631 C2633 1.419 1_554 S
C2631 H2635 0.930 . S
C2632 C2631 1.369 . S
C2632 C2641 1.429 . S
C2633 C2631 1.419 1_556 S
C2633 C2634 1.363 . S
C2633 H2636 0.929 . S
C2634 C2633 1.363 . S
C2634 C2640 1.428 . S
H2635 C2631 0.930 . S
H2636 C2633 0.929 . S
S2637 N2638 1.613 1_556 S
S2637 N2639 1.610 . S
N2638 S2637 1.613 1_554 S
N2638 C2641 1.350 . S
N2639 S2637 1.610 . S
N2639 C2640 1.351 . S
C2640 C2634 1.428 . S
C2640 N2639 1.351 . S
C2640 C2641 1.434 1_556 S
C2641 C2632 1.429 . S
C2641 N2638 1.350 . S
C2641 C2640 1.434 1_554 S
C2642 C2643 1.369 . S
C2642 C2644 1.419 1_556 S
C2642 H2646 0.930 . S
C2643 C2642 1.369 . S
C2643 C2652 1.429 . S
C2644 C2642 1.419 1_554 S
C2644 C2645 1.363 . S
C2644 H2647 0.929 . S
C2645 C2644 1.363 . S
C2645 C2651 1.428 . S
H2646 C2642 0.930 . S
H2647 C2644 0.929 . S
S2648 N2649 1.613 . S
S2648 N2650 1.610 1_556 S
N2649 S2648 1.613 . S
N2649 C2652 1.350 . S
N2650 S2648 1.610 1_554 S
N2650 C2651 1.351 . S
C2651 C2645 1.428 . S
C2651 N2650 1.351 . S
C2651 C2652 1.434 1_554 S
C2652 C2643 1.429 . S
C2652 N2649 1.350 . S
C2652 C2651 1.434 1_556 S
C2653 C2654 1.369 . S
C2653 C2655 1.419 1_556 S
C2653 H2657 0.930 . S
C2654 C2653 1.369 . S
C2654 C2663 1.429 . S
C2655 C2653 1.419 1_554 S
C2655 C2656 1.363 . S
C2655 H2658 0.929 . S
C2656 C2655 1.363 . S
C2656 C2662 1.428 . S
H2657 C2653 0.930 . S
H2658 C2655 0.929 . S
S2659 N2660 1.613 . S
S2659 N2661 1.610 1_556 S
N2660 S2659 1.613 . S
N2660 C2663 1.350 . S
N2661 S2659 1.610 1_554 S
N2661 C2662 1.351 . S
C2662 C2656 1.428 . S
C2662 N2661 1.351 . S
C2662 C2663 1.434 1_554 S
C2663 C2654 1.429 . S
C2663 N2660 1.350 . S
C2663 C2662 1.434 1_556 S
C2664 C2665 1.369 . S
C2664 C2666 1.419 . S
C2664 H2668 0.930 . S
C2665 C2664 1.369 . S
C2665 C2674 1.429 . S
C2666 C2664 1.419 . S
C2666 C2667 1.363 . S
C2666 H2669 0.929 . S
C2667 C2666 1.363 . S
C2667 C2673 1.428 . S
H2668 C2664 0.930 . S
H2669 C2666 0.929 . S
S2670 N2671 1.613 . S
S2670 N2672 1.610 . S
N2671 S2670 1.613 . S
N2671 C2674 1.350 . S
N2672 S2670 1.610 . S
N2672 C2673 1.351 . S
C2673 C2667 1.428 . S
C2673 N2672 1.351 . S
C2673 C2674 1.434 . S
C2674 C2665 1.429 . S
C2674 N2671 1.350 . S
C2674 C2673 1.434 . S
C2675 C2676 1.369 . S
C2675 C2677 1.419 . S
C2675 H2679 0.930 . S
C2676 C2675 1.369 . S
C2676 C2685 1.429 . S
C2677 C2675 1.419 . S
C2677 C2678 1.363 . S
C2677 H2680 0.929 . S
C2678 C2677 1.363 . S
C2678 C2684 1.428 . S
H2679 C2675 0.930 . S
H2680 C2677 0.929 . S
S2681 N2682 1.613 . S
S2681 N2683 1.610 . S
N2682 S2681 1.613 . S
N2682 C2685 1.350 . S
N2683 S2681 1.610 . S
N2683 C2684 1.351 . S
C2684 C2678 1.428 . S
C2684 N2683 1.351 . S
C2684 C2685 1.434 . S
C2685 C2676 1.429 . S
C2685 N2682 1.350 . S
C2685 C2684 1.434 . S
C2686 C2687 1.369 . S
C2686 C2688 1.419 . S
C2686 H2690 0.930 . S
C2687 C2686 1.369 . S
C2687 C2696 1.429 . S
C2688 C2686 1.419 . S
C2688 C2689 1.363 . S
C2688 H2691 0.929 . S
C2689 C2688 1.363 . S
C2689 C2695 1.428 . S
H2690 C2686 0.930 . S
H2691 C2688 0.929 . S
S2692 N2693 1.613 . S
S2692 N2694 1.610 . S
N2693 S2692 1.613 . S
N2693 C2696 1.350 . S
N2694 S2692 1.610 . S
N2694 C2695 1.351 . S
C2695 C2689 1.428 . S
C2695 N2694 1.351 . S
C2695 C2696 1.434 . S
C2696 C2687 1.429 . S
C2696 N2693 1.350 . S
C2696 C2695 1.434 . S
C2697 C2698 1.369 . S
C2697 C2699 1.419 . S
C2697 H2701 0.930 . S
C2698 C2697 1.369 . S
C2698 C2707 1.429 . S
C2699 C2697 1.419 . S
C2699 C2700 1.363 . S
C2699 H2702 0.929 . S
C2700 C2699 1.363 . S
C2700 C2706 1.428 . S
H2701 C2697 0.930 . S
H2702 C2699 0.929 . S
S2703 N2704 1.613 . S
S2703 N2705 1.610 . S
N2704 S2703 1.613 . S
N2704 C2707 1.350 . S
N2705 S2703 1.610 . S
N2705 C2706 1.351 . S
C2706 C2700 1.428 . S
C2706 N2705 1.351 . S
C2706 C2707 1.434 . S
C2707 C2698 1.429 . S
C2707 N2704 1.350 . S
C2707 C2706 1.434 . S
C2708 C2709 1.369 . S
C2708 C2710 1.419 . S
C2708 H2712 0.930 . S
C2709 C2708 1.369 . S
C2709 C2718 1.429 . S
C2710 C2708 1.419 . S
C2710 C2711 1.363 . S
C2710 H2713 0.929 . S
C2711 C2710 1.363 . S
C2711 C2717 1.428 . S
H2712 C2708 0.930 . S
H2713 C2710 0.929 . S
S2714 N2715 1.613 . S
S2714 N2716 1.610 . S
N2715 S2714 1.613 . S
N2715 C2718 1.350 . S
N2716 S2714 1.610 . S
N2716 C2717 1.351 . S
C2717 C2711 1.428 . S
C2717 N2716 1.351 . S
C2717 C2718 1.434 . S
C2718 C2709 1.429 . S
C2718 N2715 1.350 . S
C2718 C2717 1.434 . S
C2719 C2720 1.369 . S
C2719 C2721 1.419 . S
C2719 H2723 0.930 . S
C2720 C2719 1.369 . S
C2720 C2729 1.429 . S
C2721 C2719 1.419 . S
C2721 C2722 1.363 . S
C2721 H2724 0.929 . S
C2722 C2721 1.363 . S
C2722 C2728 1.428 . S
H2723 C2719 0.930 . S
H2724 C2721 0.929 . S
S2725 N2726 1.613 . S
S2725 N2727 1.610 . S
N2726 S2725 1.613 . S
N2726 C2729 1.350 . S
N2727 S2725 1.610 . S
N2727 C2728 1.351 . S
C2728 C2722 1.428 . S
C2728 N2727 1.351 . S
C2728 C2729 1.434 . S
C2729 C2720 1.429 . S
C2729 N2726 1.350 . S
C2729 C2728 1.434 . S
C2730 C2731 1.369 . S
C2730 C2732 1.419 . S
C2730 H2734 0.930 . S
C2731 C2730 1.369 . S
C2731 C2740 1.429 . S
C2732 C2730 1.419 . S
C2732 C2733 1.363 . S
C2732 H2735 0.929 . S
C2733 C2732 1.363 . S
C2733 C2739 1.428 . S
H2734 C2730 0.930 . S
H2735 C2732 0.929 . S
S2736 N2737 1.613 . S
S2736 N2738 1.610 . S
N2737 S2736 1.613 . S
N2737 C2740 1.350 . S
N2738 S2736 1.610 . S
N2738 C2739 1.351 . S
C2739 C2733 1.428 . S
C2739 N2738 1.351 . S
C2739 C2740 1.434 . S
C2740 C2731 1.429 . S
C2740 N2737 1.350 . S
C2740 C2739 1.434 . S
C2741 C2742 1.369 . S
C2741 C2743 1.419 . S
C2741 H2745 0.930 . S
C2742 C2741 1.369 . S
C2742 C2751 1.429 . S
C2743 C2741 1.419 . S
C2743 C2744 1.363 . S
C2743 H2746 0.929 . S
C2744 C2743 1.363 . S
C2744 C2750 1.428 . S
H2745 C2741 0.930 . S
H2746 C2743 0.929 . S
S2747 N2748 1.613 . S
S2747 N2749 1.610 . S
N2748 S2747 1.613 . S
N2748 C2751 1.350 . S
N2749 S2747 1.610 . S
N2749 C2750 1.351 . S
C2750 C2744 1.428 . S
C2750 N2749 1.351 . S
C2750 C2751 1.434 . S
C2751 C2742 1.429 . S
C2751 N2748 1.350 . S
C2751 C2750 1.434 . S
C2752 C2753 1.369 . S
C2752 C2754 1.419 . S
C2752 H2756 0.930 . S
C2753 C2752 1.369 . S
C2753 C2762 1.429 . S
C2754 C2752 1.419 . S
C2754 C2755 1.363 . S
C2754 H2757 0.929 . S
C2755 C2754 1.363 . S
C2755 C2761 1.428 . S
H2756 C2752 0.930 . S
H2757 C2754 0.929 . S
S2758 N2759 1.613 . S
S2758 N2760 1.610 . S
N2759 S2758 1.613 . S
N2759 C2762 1.350 . S
N2760 S2758 1.610 . S
N2760 C2761 1.351 . S
C2761 C2755 1.428 . S
C2761 N2760 1.351 . S
C2761 C2762 1.434 . S
C2762 C2753 1.429 . S
C2762 N2759 1.350 . S
C2762 C2761 1.434 . S
C2763 C2764 1.369 . S
C2763 C2765 1.419 . S
C2763 H2767 0.930 . S
C2764 C2763 1.369 . S
C2764 C2773 1.429 . S
C2765 C2763 1.419 . S
C2765 C2766 1.363 . S
C2765 H2768 0.929 . S
C2766 C2765 1.363 . S
C2766 C2772 1.428 . S
H2767 C2763 0.930 . S
H2768 C2765 0.929 . S
S2769 N2770 1.613 . S
S2769 N2771 1.610 . S
N2770 S2769 1.613 . S
N2770 C2773 1.350 . S
N2771 S2769 1.610 . S
N2771 C2772 1.351 . S
C2772 C2766 1.428 . S
C2772 N2771 1.351 . S
C2772 C2773 1.434 . S
C2773 C2764 1.429 . S
C2773 N2770 1.350 . S
C2773 C2772 1.434 . S
C2774 C2775 1.369 . S
C2774 C2776 1.419 . S
C2774 H2778 0.930 . S
C2775 C2774 1.369 . S
C2775 C2784 1.429 . S
C2776 C2774 1.419 . S
C2776 C2777 1.363 . S
C2776 H2779 0.929 . S
C2777 C2776 1.363 . S
C2777 C2783 1.428 . S
H2778 C2774 0.930 . S
H2779 C2776 0.929 . S
S2780 N2781 1.613 . S
S2780 N2782 1.610 . S
N2781 S2780 1.613 . S
N2781 C2784 1.350 . S
N2782 S2780 1.610 . S
N2782 C2783 1.351 . S
C2783 C2777 1.428 . S
C2783 N2782 1.351 . S
C2783 C2784 1.434 . S
C2784 C2775 1.429 . S
C2784 N2781 1.350 . S
C2784 C2783 1.434 . S
C2785 C2786 1.369 . S
C2785 C2787 1.419 . S
C2785 H2789 0.930 . S
C2786 C2785 1.369 . S
C2786 C2795 1.429 . S
C2787 C2785 1.419 . S
C2787 C2788 1.363 . S
C2787 H2790 0.929 . S
C2788 C2787 1.363 . S
C2788 C2794 1.428 . S
H2789 C2785 0.930 . S
H2790 C2787 0.929 . S
S2791 N2792 1.613 . S
S2791 N2793 1.610 . S
N2792 S2791 1.613 . S
N2792 C2795 1.350 . S
N2793 S2791 1.610 . S
N2793 C2794 1.351 . S
C2794 C2788 1.428 . S
C2794 N2793 1.351 . S
C2794 C2795 1.434 . S
C2795 C2786 1.429 . S
C2795 N2792 1.350 . S
C2795 C2794 1.434 . S
C2796 C2797 1.369 . S
C2796 C2798 1.419 . S
C2796 H2800 0.930 . S
C2797 C2796 1.369 . S
C2797 C2806 1.429 . S
C2798 C2796 1.419 . S
C2798 C2799 1.363 . S
C2798 H2801 0.929 . S
C2799 C2798 1.363 . S
C2799 C2805 1.428 . S
H2800 C2796 0.930 . S
H2801 C2798 0.929 . S
S2802 N2803 1.613 . S
S2802 N2804 1.610 . S
N2803 S2802 1.613 . S
N2803 C2806 1.350 . S
N2804 S2802 1.610 . S
N2804 C2805 1.351 . S
C2805 C2799 1.428 . S
C2805 N2804 1.351 . S
C2805 C2806 1.434 . S
C2806 C2797 1.429 . S
C2806 N2803 1.350 . S
C2806 C2805 1.434 . S
C2807 C2808 1.369 . S
C2807 C2809 1.419 . S
C2807 H2811 0.930 . S
C2808 C2807 1.369 . S
C2808 C2817 1.429 . S
C2809 C2807 1.419 . S
C2809 C2810 1.363 . S
C2809 H2812 0.929 . S
C2810 C2809 1.363 . S
C2810 C2816 1.428 . S
H2811 C2807 0.930 . S
H2812 C2809 0.929 . S
S2813 N2814 1.613 . S
S2813 N2815 1.610 . S
N2814 S2813 1.613 . S
N2814 C2817 1.350 . S
N2815 S2813 1.610 . S
N2815 C2816 1.351 . S
C2816 C2810 1.428 . S
C2816 N2815 1.351 . S
C2816 C2817 1.434 . S
C2817 C2808 1.429 . S
C2817 N2814 1.350 . S
C2817 C2816 1.434 . S
C2818 C2819 1.369 . S
C2818 C2820 1.419 . S
C2818 H2822 0.930 . S
C2819 C2818 1.369 . S
C2819 C2828 1.429 . S
C2820 C2818 1.419 . S
C2820 C2821 1.363 . S
C2820 H2823 0.929 . S
C2821 C2820 1.363 . S
C2821 C2827 1.428 . S
H2822 C2818 0.930 . S
H2823 C2820 0.929 . S
S2824 N2825 1.613 . S
S2824 N2826 1.610 . S
N2825 S2824 1.613 . S
N2825 C2828 1.350 . S
N2826 S2824 1.610 . S
N2826 C2827 1.351 . S
C2827 C2821 1.428 . S
C2827 N2826 1.351 . S
C2827 C2828 1.434 . S
C2828 C2819 1.429 . S
C2828 N2825 1.350 . S
C2828 C2827 1.434 . S
C2829 C2830 1.369 . S
C2829 C2831 1.419 . S
C2829 H2833 0.930 . S
C2830 C2829 1.369 . S
C2830 C2839 1.429 . S
C2831 C2829 1.419 . S
C2831 C2832 1.363 . S
C2831 H2834 0.929 . S
C2832 C2831 1.363 . S
C2832 C2838 1.428 . S
H2833 C2829 0.930 . S
H2834 C2831 0.929 . S
S2835 N2836 1.613 . S
S2835 N2837 1.610 . S
N2836 S2835 1.613 . S
N2836 C2839 1.350 . S
N2837 S2835 1.610 . S
N2837 C2838 1.351 . S
C2838 C2832 1.428 . S
C2838 N2837 1.351 . S
C2838 C2839 1.434 . S
C2839 C2830 1.429 . S
C2839 N2836 1.350 . S
C2839 C2838 1.434 . S
C2840 C2841 1.369 . S
C2840 C2842 1.419 . S
C2840 H2844 0.930 . S
C2841 C2840 1.369 . S
C2841 C2850 1.429 . S
C2842 C2840 1.419 . S
C2842 C2843 1.363 . S
C2842 H2845 0.929 . S
C2843 C2842 1.363 . S
C2843 C2849 1.428 . S
H2844 C2840 0.930 . S
H2845 C2842 0.929 . S
S2846 N2847 1.613 . S
S2846 N2848 1.610 . S
N2847 S2846 1.613 . S
N2847 C2850 1.350 . S
N2848 S2846 1.610 . S
N2848 C2849 1.351 . S
C2849 C2843 1.428 . S
C2849 N2848 1.351 . S
C2849 C2850 1.434 . S
C2850 C2841 1.429 . S
C2850 N2847 1.350 . S
C2850 C2849 1.434 . S
C2851 C2852 1.369 . S
C2851 C2853 1.419 . S
C2851 H2855 0.930 . S
C2852 C2851 1.369 . S
C2852 C2861 1.429 . S
C2853 C2851 1.419 . S
C2853 C2854 1.363 . S
C2853 H2856 0.929 . S
C2854 C2853 1.363 . S
C2854 C2860 1.428 . S
H2855 C2851 0.930 . S
H2856 C2853 0.929 . S
S2857 N2858 1.613 . S
S2857 N2859 1.610 . S
N2858 S2857 1.613 . S
N2858 C2861 1.350 . S
N2859 S2857 1.610 . S
N2859 C2860 1.351 . S
C2860 C2854 1.428 . S
C2860 N2859 1.351 . S
C2860 C2861 1.434 . S
C2861 C2852 1.429 . S
C2861 N2858 1.350 . S
C2861 C2860 1.434 . S
C2862 C2863 1.369 . S
C2862 C2864 1.419 . S
C2862 H2866 0.930 . S
C2863 C2862 1.369 . S
C2863 C2872 1.429 . S
C2864 C2862 1.419 . S
C2864 C2865 1.363 . S
C2864 H2867 0.929 . S
C2865 C2864 1.363 . S
C2865 C2871 1.428 . S
H2866 C2862 0.930 . S
H2867 C2864 0.929 . S
S2868 N2869 1.613 . S
S2868 N2870 1.610 . S
N2869 S2868 1.613 . S
N2869 C2872 1.350 . S
N2870 S2868 1.610 . S
N2870 C2871 1.351 . S
C2871 C2865 1.428 . S
C2871 N2870 1.351 . S
C2871 C2872 1.434 . S
C2872 C2863 1.429 . S
C2872 N2869 1.350 . S
C2872 C2871 1.434 . S
C2873 C2874 1.369 . S
C2873 C2875 1.419 . S
C2873 H2877 0.930 . S
C2874 C2873 1.369 . S
C2874 C2883 1.429 . S
C2875 C2873 1.419 . S
C2875 C2876 1.363 . S
C2875 H2878 0.929 . S
C2876 C2875 1.363 . S
C2876 C2882 1.428 . S
H2877 C2873 0.930 . S
H2878 C2875 0.929 . S
S2879 N2880 1.613 . S
S2879 N2881 1.610 . S
N2880 S2879 1.613 . S
N2880 C2883 1.350 . S
N2881 S2879 1.610 . S
N2881 C2882 1.351 . S
C2882 C2876 1.428 . S
C2882 N2881 1.351 . S
C2882 C2883 1.434 . S
C2883 C2874 1.429 . S
C2883 N2880 1.350 . S
C2883 C2882 1.434 . S
C2884 C2885 1.369 . S
C2884 C2886 1.419 . S
C2884 H2888 0.930 . S
C2885 C2884 1.369 . S
C2885 C2894 1.429 . S
C2886 C2884 1.419 . S
C2886 C2887 1.363 . S
C2886 H2889 0.929 . S
C2887 C2886 1.363 . S
C2887 C2893 1.428 . S
H2888 C2884 0.930 . S
H2889 C2886 0.929 . S
S2890 N2891 1.613 . S
S2890 N2892 1.610 . S
N2891 S2890 1.613 . S
N2891 C2894 1.350 . S
N2892 S2890 1.610 . S
N2892 C2893 1.351 . S
C2893 C2887 1.428 . S
C2893 N2892 1.351 . S
C2893 C2894 1.434 . S
C2894 C2885 1.429 . S
C2894 N2891 1.350 . S
C2894 C2893 1.434 . S
C2895 C2896 1.369 . S
C2895 C2897 1.419 . S
C2895 H2899 0.930 . S
C2896 C2895 1.369 . S
C2896 C2905 1.429 . S
C2897 C2895 1.419 . S
C2897 C2898 1.363 . S
C2897 H2900 0.929 . S
C2898 C2897 1.363 . S
C2898 C2904 1.428 . S
H2899 C2895 0.930 . S
H2900 C2897 0.929 . S
S2901 N2902 1.613 . S
S2901 N2903 1.610 . S
N2902 S2901 1.613 . S
N2902 C2905 1.350 . S
N2903 S2901 1.610 . S
N2903 C2904 1.351 . S
C2904 C2898 1.428 . S
C2904 N2903 1.351 . S
C2904 C2905 1.434 . S
C2905 C2896 1.429 . S
C2905 N2902 1.350 . S
C2905 C2904 1.434 . S
C2906 C2907 1.369 . S
C2906 C2908 1.419 . S
C2906 H2910 0.930 . S
C2907 C2906 1.369 . S
C2907 C2916 1.429 . S
C2908 C2906 1.419 . S
C2908 C2909 1.363 . S
C2908 H2911 0.929 . S
C2909 C2908 1.363 . S
C2909 C2915 1.428 . S
H2910 C2906 0.930 . S
H2911 C2908 0.929 . S
S2912 N2913 1.613 . S
S2912 N2914 1.610 . S
N2913 S2912 1.613 . S
N2913 C2916 1.350 . S
N2914 S2912 1.610 . S
N2914 C2915 1.351 . S
C2915 C2909 1.428 . S
C2915 N2914 1.351 . S
C2915 C2916 1.434 . S
C2916 C2907 1.429 . S
C2916 N2913 1.350 . S
C2916 C2915 1.434 . S
C2917 C2918 1.369 . S
C2917 C2919 1.419 . S
C2917 H2921 0.930 . S
C2918 C2917 1.369 . S
C2918 C2927 1.429 . S
C2919 C2917 1.419 . S
C2919 C2920 1.363 . S
C2919 H2922 0.929 . S
C2920 C2919 1.363 . S
C2920 C2926 1.428 . S
H2921 C2917 0.930 . S
H2922 C2919 0.929 . S
S2923 N2924 1.613 . S
S2923 N2925 1.610 . S
N2924 S2923 1.613 . S
N2924 C2927 1.350 . S
N2925 S2923 1.610 . S
N2925 C2926 1.351 . S
C2926 C2920 1.428 . S
C2926 N2925 1.351 . S
C2926 C2927 1.434 . S
C2927 C2918 1.429 . S
C2927 N2924 1.350 . S
C2927 C2926 1.434 . S
C2928 C2929 1.369 . S
C2928 C2930 1.419 . S
C2928 H2932 0.930 . S
C2929 C2928 1.369 . S
C2929 C2938 1.429 . S
C2930 C2928 1.419 . S
C2930 C2931 1.363 . S
C2930 H2933 0.929 . S
C2931 C2930 1.363 . S
C2931 C2937 1.428 . S
H2932 C2928 0.930 . S
H2933 C2930 0.929 . S
S2934 N2935 1.613 . S
S2934 N2936 1.610 . S
N2935 S2934 1.613 . S
N2935 C2938 1.350 . S
N2936 S2934 1.610 . S
N2936 C2937 1.351 . S
C2937 C2931 1.428 . S
C2937 N2936 1.351 . S
C2937 C2938 1.434 . S
C2938 C2929 1.429 . S
C2938 N2935 1.350 . S
C2938 C2937 1.434 . S
C2939 C2940 1.369 . S
C2939 C2941 1.419 . S
C2939 H2943 0.930 . S
C2940 C2939 1.369 . S
C2940 C2949 1.429 . S
C2941 C2939 1.419 . S
C2941 C2942 1.363 . S
C2941 H2944 0.929 . S
C2942 C2941 1.363 . S
C2942 C2948 1.428 . S
H2943 C2939 0.930 . S
H2944 C2941 0.929 . S
S2945 N2946 1.613 . S
S2945 N2947 1.610 . S
N2946 S2945 1.613 . S
N2946 C2949 1.350 . S
N2947 S2945 1.610 . S
N2947 C2948 1.351 . S
C2948 C2942 1.428 . S
C2948 N2947 1.351 . S
C2948 C2949 1.434 . S
C2949 C2940 1.429 . S
C2949 N2946 1.350 . S
C2949 C2948 1.434 . S
C2950 C2951 1.369 . S
C2950 C2952 1.419 . S
C2950 H2954 0.930 . S
C2951 C2950 1.369 . S
C2951 C2960 1.429 . S
C2952 C2950 1.419 . S
C2952 C2953 1.363 . S
C2952 H2955 0.929 . S
C2953 C2952 1.363 . S
C2953 C2959 1.428 . S
H2954 C2950 0.930 . S
H2955 C2952 0.929 . S
S2956 N2957 1.613 . S
S2956 N2958 1.610 . S
N2957 S2956 1.613 . S
N2957 C2960 1.350 . S
N2958 S2956 1.610 . S
N2958 C2959 1.351 . S
C2959 C2953 1.428 . S
C2959 N2958 1.351 . S
C2959 C2960 1.434 . S
C2960 C2951 1.429 . S
C2960 N2957 1.350 . S
C2960 C2959 1.434 . S
C2961 C2962 1.369 . S
C2961 C2963 1.419 . S
C2961 H2965 0.930 . S
C2962 C2961 1.369 . S
C2962 C2971 1.429 . S
C2963 C2961 1.419 . S
C2963 C2964 1.363 . S
C2963 H2966 0.929 . S
C2964 C2963 1.363 . S
C2964 C2970 1.428 . S
H2965 C2961 0.930 . S
H2966 C2963 0.929 . S
S2967 N2968 1.613 . S
S2967 N2969 1.610 . S
N2968 S2967 1.613 . S
N2968 C2971 1.350 . S
N2969 S2967 1.610 . S
N2969 C2970 1.351 . S
C2970 C2964 1.428 . S
C2970 N2969 1.351 . S
C2970 C2971 1.434 . S
C2971 C2962 1.429 . S
C2971 N2968 1.350 . S
C2971 C2970 1.434 . S
C2972 C2973 1.369 . S
C2972 C2974 1.419 . S
C2972 H2976 0.930 . S
C2973 C2972 1.369 . S
C2973 C2982 1.429 . S
C2974 C2972 1.419 . S
C2974 C2975 1.363 . S
C2974 H2977 0.929 . S
C2975 C2974 1.363 . S
C2975 C2981 1.428 . S
H2976 C2972 0.930 . S
H2977 C2974 0.929 . S
S2978 N2979 1.613 . S
S2978 N2980 1.610 . S
N2979 S2978 1.613 . S
N2979 C2982 1.350 . S
N2980 S2978 1.610 . S
N2980 C2981 1.351 . S
C2981 C2975 1.428 . S
C2981 N2980 1.351 . S
C2981 C2982 1.434 . S
C2982 C2973 1.429 . S
C2982 N2979 1.350 . S
C2982 C2981 1.434 . S
C2983 C2984 1.369 . S
C2983 C2985 1.419 . S
C2983 H2987 0.930 . S
C2984 C2983 1.369 . S
C2984 C2993 1.429 . S
C2985 C2983 1.419 . S
C2985 C2986 1.363 . S
C2985 H2988 0.929 . S
C2986 C2985 1.363 . S
C2986 C2992 1.428 . S
H2987 C2983 0.930 . S
H2988 C2985 0.929 . S
S2989 N2990 1.613 . S
S2989 N2991 1.610 . S
N2990 S2989 1.613 . S
N2990 C2993 1.350 . S
N2991 S2989 1.610 . S
N2991 C2992 1.351 . S
C2992 C2986 1.428 . S
C2992 N2991 1.351 . S
C2992 C2993 1.434 . S
C2993 C2984 1.429 . S
C2993 N2990 1.350 . S
C2993 C2992 1.434 . S
C2994 C2995 1.369 . S
C2994 C2996 1.419 . S
C2994 H2998 0.930 . S
C2995 C2994 1.369 . S
C2995 C3004 1.429 . S
C2996 C2994 1.419 . S
C2996 C2997 1.363 . S
C2996 H2999 0.929 . S
C2997 C2996 1.363 . S
C2997 C3003 1.428 . S
H2998 C2994 0.930 . S
H2999 C2996 0.929 . S
S3000 N3001 1.613 . S
S3000 N3002 1.610 . S
N3001 S3000 1.613 . S
N3001 C3004 1.350 . S
N3002 S3000 1.610 . S
N3002 C3003 1.351 . S
C3003 C2997 1.428 . S
C3003 N3002 1.351 . S
C3003 C3004 1.434 . S
C3004 C2995 1.429 . S
C3004 N3001 1.350 . S
C3004 C3003 1.434 . S
C3005 C3006 1.369 . S
C3005 C3007 1.419 . S
C3005 H3009 0.930 . S
C3006 C3005 1.369 . S
C3006 C3015 1.429 . S
C3007 C3005 1.419 . S
C3007 C3008 1.363 . S
C3007 H3010 0.929 . S
C3008 C3007 1.363 . S
C3008 C3014 1.428 . S
H3009 C3005 0.930 . S
H3010 C3007 0.929 . S
S3011 N3012 1.613 . S
S3011 N3013 1.610 . S
N3012 S3011 1.613 . S
N3012 C3015 1.350 . S
N3013 S3011 1.610 . S
N3013 C3014 1.351 . S
C3014 C3008 1.428 . S
C3014 N3013 1.351 . S
C3014 C3015 1.434 . S
C3015 C3006 1.429 . S
C3015 N3012 1.350 . S
C3015 C3014 1.434 . S
C3016 C3017 1.369 . S
C3016 C3018 1.419 . S
C3016 H3020 0.930 . S
C3017 C3016 1.369 . S
C3017 C3026 1.429 . S
C3018 C3016 1.419 . S
C3018 C3019 1.363 . S
C3018 H3021 0.929 . S
C3019 C3018 1.363 . S
C3019 C3025 1.428 . S
H3020 C3016 0.930 . S
H3021 C3018 0.929 . S
S3022 N3023 1.613 . S
S3022 N3024 1.610 . S
N3023 S3022 1.613 . S
N3023 C3026 1.350 . S
N3024 S3022 1.610 . S
N3024 C3025 1.351 . S
C3025 C3019 1.428 . S
C3025 N3024 1.351 . S
C3025 C3026 1.434 . S
C3026 C3017 1.429 . S
C3026 N3023 1.350 . S
C3026 C3025 1.434 . S
C3027 C3028 1.369 . S
C3027 C3029 1.419 . S
C3027 H3031 0.930 . S
C3028 C3027 1.369 . S
C3028 C3037 1.429 . S
C3029 C3027 1.419 . S
C3029 C3030 1.363 . S
C3029 H3032 0.929 . S
C3030 C3029 1.363 . S
C3030 C3036 1.428 . S
H3031 C3027 0.930 . S
H3032 C3029 0.929 . S
S3033 N3034 1.613 . S
S3033 N3035 1.610 . S
N3034 S3033 1.613 . S
N3034 C3037 1.350 . S
N3035 S3033 1.610 . S
N3035 C3036 1.351 . S
C3036 C3030 1.428 . S
C3036 N3035 1.351 . S
C3036 C3037 1.434 . S
C3037 C3028 1.429 . S
C3037 N3034 1.350 . S
C3037 C3036 1.434 . S
C3038 C3039 1.369 . S
C3038 C3040 1.419 . S
C3038 H3042 0.930 . S
C3039 C3038 1.369 . S
C3039 C3048 1.429 . S
C3040 C3038 1.419 . S
C3040 C3041 1.363 . S
C3040 H3043 0.929 . S
C3041 C3040 1.363 . S
C3041 C3047 1.428 . S
H3042 C3038 0.930 . S
H3043 C3040 0.929 . S
S3044 N3045 1.613 . S
S3044 N3046 1.610 . S
N3045 S3044 1.613 . S
N3045 C3048 1.350 . S
N3046 S3044 1.610 . S
N3046 C3047 1.351 . S
C3047 C3041 1.428 . S
C3047 N3046 1.351 . S
C3047 C3048 1.434 . S
C3048 C3039 1.429 . S
C3048 N3045 1.350 . S
C3048 C3047 1.434 . S
C3049 C3050 1.369 . S
C3049 C3051 1.419 . S
C3049 H3053 0.930 . S
C3050 C3049 1.369 . S
C3050 C3059 1.429 . S
C3051 C3049 1.419 . S
C3051 C3052 1.363 . S
C3051 H3054 0.929 . S
C3052 C3051 1.363 . S
C3052 C3058 1.428 . S
H3053 C3049 0.930 . S
H3054 C3051 0.929 . S
S3055 N3056 1.613 . S
S3055 N3057 1.610 . S
N3056 S3055 1.613 . S
N3056 C3059 1.350 . S
N3057 S3055 1.610 . S
N3057 C3058 1.351 . S
C3058 C3052 1.428 . S
C3058 N3057 1.351 . S
C3058 C3059 1.434 . S
C3059 C3050 1.429 . S
C3059 N3056 1.350 . S
C3059 C3058 1.434 . S
C3060 C3061 1.369 . S
C3060 C3062 1.419 . S
C3060 H3064 0.930 . S
C3061 C3060 1.369 . S
C3061 C3070 1.429 . S
C3062 C3060 1.419 . S
C3062 C3063 1.363 . S
C3062 H3065 0.929 . S
C3063 C3062 1.363 . S
C3063 C3069 1.428 . S
H3064 C3060 0.930 . S
H3065 C3062 0.929 . S
S3066 N3067 1.613 . S
S3066 N3068 1.610 . S
N3067 S3066 1.613 . S
N3067 C3070 1.350 . S
N3068 S3066 1.610 . S
N3068 C3069 1.351 . S
C3069 C3063 1.428 . S
C3069 N3068 1.351 . S
C3069 C3070 1.434 . S
C3070 C3061 1.429 . S
C3070 N3067 1.350 . S
C3070 C3069 1.434 . S
C3071 C3072 1.369 . S
C3071 C3073 1.419 . S
C3071 H3075 0.930 . S
C3072 C3071 1.369 . S
C3072 C3081 1.429 . S
C3073 C3071 1.419 . S
C3073 C3074 1.363 . S
C3073 H3076 0.929 . S
C3074 C3073 1.363 . S
C3074 C3080 1.428 . S
H3075 C3071 0.930 . S
H3076 C3073 0.929 . S
S3077 N3078 1.613 . S
S3077 N3079 1.610 . S
N3078 S3077 1.613 . S
N3078 C3081 1.350 . S
N3079 S3077 1.610 . S
N3079 C3080 1.351 . S
C3080 C3074 1.428 . S
C3080 N3079 1.351 . S
C3080 C3081 1.434 . S
C3081 C3072 1.429 . S
C3081 N3078 1.350 . S
C3081 C3080 1.434 . S
C3082 C3083 1.369 . S
C3082 C3084 1.419 . S
C3082 H3086 0.930 . S
C3083 C3082 1.369 . S
C3083 C3092 1.429 . S
C3084 C3082 1.419 . S
C3084 C3085 1.363 . S
C3084 H3087 0.929 . S
C3085 C3084 1.363 . S
C3085 C3091 1.428 . S
H3086 C3082 0.930 . S
H3087 C3084 0.929 . S
S3088 N3089 1.613 . S
S3088 N3090 1.610 . S
N3089 S3088 1.613 . S
N3089 C3092 1.350 . S
N3090 S3088 1.610 . S
N3090 C3091 1.351 . S
C3091 C3085 1.428 . S
C3091 N3090 1.351 . S
C3091 C3092 1.434 . S
C3092 C3083 1.429 . S
C3092 N3089 1.350 . S
C3092 C3091 1.434 . S
C3093 C3094 1.369 . S
C3093 C3095 1.419 . S
C3093 H3097 0.930 . S
C3094 C3093 1.369 . S
C3094 C3103 1.429 . S
C3095 C3093 1.419 . S
C3095 C3096 1.363 . S
C3095 H3098 0.929 . S
C3096 C3095 1.363 . S
C3096 C3102 1.428 . S
H3097 C3093 0.930 . S
H3098 C3095 0.929 . S
S3099 N3100 1.613 . S
S3099 N3101 1.610 . S
N3100 S3099 1.613 . S
N3100 C3103 1.350 . S
N3101 S3099 1.610 . S
N3101 C3102 1.351 . S
C3102 C3096 1.428 . S
C3102 N3101 1.351 . S
C3102 C3103 1.434 . S
C3103 C3094 1.429 . S
C3103 N3100 1.350 . S
C3103 C3102 1.434 . S
C3104 C3105 1.369 . S
C3104 C3106 1.419 . S
C3104 H3108 0.930 . S
C3105 C3104 1.369 . S
C3105 C3114 1.429 . S
C3106 C3104 1.419 . S
C3106 C3107 1.363 . S
C3106 H3109 0.929 . S
C3107 C3106 1.363 . S
C3107 C3113 1.428 . S
H3108 C3104 0.930 . S
H3109 C3106 0.929 . S
S3110 N3111 1.613 . S
S3110 N3112 1.610 . S
N3111 S3110 1.613 . S
N3111 C3114 1.350 . S
N3112 S3110 1.610 . S
N3112 C3113 1.351 . S
C3113 C3107 1.428 . S
C3113 N3112 1.351 . S
C3113 C3114 1.434 . S
C3114 C3105 1.429 . S
C3114 N3111 1.350 . S
C3114 C3113 1.434 . S
C3115 C3116 1.369 . S
C3115 C3117 1.419 . S
C3115 H3119 0.930 . S
C3116 C3115 1.369 . S
C3116 C3125 1.429 . S
C3117 C3115 1.419 . S
C3117 C3118 1.363 . S
C3117 H3120 0.929 . S
C3118 C3117 1.363 . S
C3118 C3124 1.428 . S
H3119 C3115 0.930 . S
H3120 C3117 0.929 . S
S3121 N3122 1.613 . S
S3121 N3123 1.610 . S
N3122 S3121 1.613 . S
N3122 C3125 1.350 . S
N3123 S3121 1.610 . S
N3123 C3124 1.351 . S
C3124 C3118 1.428 . S
C3124 N3123 1.351 . S
C3124 C3125 1.434 . S
C3125 C3116 1.429 . S
C3125 N3122 1.350 . S
C3125 C3124 1.434 . S
C3126 C3127 1.369 . S
C3126 C3128 1.419 . S
C3126 H3130 0.930 . S
C3127 C3126 1.369 . S
C3127 C3136 1.429 . S
C3128 C3126 1.419 . S
C3128 C3129 1.363 . S
C3128 H3131 0.929 . S
C3129 C3128 1.363 . S
C3129 C3135 1.428 . S
H3130 C3126 0.930 . S
H3131 C3128 0.929 . S
S3132 N3133 1.613 . S
S3132 N3134 1.610 . S
N3133 S3132 1.613 . S
N3133 C3136 1.350 . S
N3134 S3132 1.610 . S
N3134 C3135 1.351 . S
C3135 C3129 1.428 . S
C3135 N3134 1.351 . S
C3135 C3136 1.434 . S
C3136 C3127 1.429 . S
C3136 N3133 1.350 . S
C3136 C3135 1.434 . S
C3137 C3138 1.369 . S
C3137 C3139 1.419 . S
C3137 H3141 0.930 . S
C3138 C3137 1.369 . S
C3138 C3147 1.429 . S
C3139 C3137 1.419 . S
C3139 C3140 1.363 . S
C3139 H3142 0.929 . S
C3140 C3139 1.363 . S
C3140 C3146 1.428 . S
H3141 C3137 0.930 . S
H3142 C3139 0.929 . S
S3143 N3144 1.613 . S
S3143 N3145 1.610 . S
N3144 S3143 1.613 . S
N3144 C3147 1.350 . S
N3145 S3143 1.610 . S
N3145 C3146 1.351 . S
C3146 C3140 1.428 . S
C3146 N3145 1.351 . S
C3146 C3147 1.434 . S
C3147 C3138 1.429 . S
C3147 N3144 1.350 . S
C3147 C3146 1.434 . S
C3148 C3149 1.369 . S
C3148 C3150 1.419 . S
C3148 H3152 0.930 . S
C3149 C3148 1.369 . S
C3149 C3158 1.429 . S
C3150 C3148 1.419 . S
C3150 C3151 1.363 . S
C3150 H3153 0.929 . S
C3151 C3150 1.363 . S
C3151 C3157 1.428 . S
H3152 C3148 0.930 . S
H3153 C3150 0.929 . S
S3154 N3155 1.613 . S
S3154 N3156 1.610 . S
N3155 S3154 1.613 . S
N3155 C3158 1.350 . S
N3156 S3154 1.610 . S
N3156 C3157 1.351 . S
C3157 C3151 1.428 . S
C3157 N3156 1.351 . S
C3157 C3158 1.434 . S
C3158 C3149 1.429 . S
C3158 N3155 1.350 . S
C3158 C3157 1.434 . S
C3159 C3160 1.369 . S
C3159 C3161 1.419 . S
C3159 H3163 0.930 . S
C3160 C3159 1.369 . S
C3160 C3169 1.429 . S
C3161 C3159 1.419 . S
C3161 C3162 1.363 . S
C3161 H3164 0.929 . S
C3162 C3161 1.363 . S
C3162 C3168 1.428 . S
H3163 C3159 0.930 . S
H3164 C3161 0.929 . S
S3165 N3166 1.613 . S
S3165 N3167 1.610 . S
N3166 S3165 1.613 . S
N3166 C3169 1.350 . S
N3167 S3165 1.610 . S
N3167 C3168 1.351 . S
C3168 C3162 1.428 . S
C3168 N3167 1.351 . S
C3168 C3169 1.434 . S
C3169 C3160 1.429 . S
C3169 N3166 1.350 . S
C3169 C3168 1.434 . S
C3170 C3171 1.369 . S
C3170 C3172 1.419 . S
C3170 H3174 0.930 . S
C3171 C3170 1.369 . S
C3171 C3180 1.429 . S
C3172 C3170 1.419 . S
C3172 C3173 1.363 . S
C3172 H3175 0.929 . S
C3173 C3172 1.363 . S
C3173 C3179 1.428 . S
H3174 C3170 0.930 . S
H3175 C3172 0.929 . S
S3176 N3177 1.613 . S
S3176 N3178 1.610 . S
N3177 S3176 1.613 . S
N3177 C3180 1.350 . S
N3178 S3176 1.610 . S
N3178 C3179 1.351 . S
C3179 C3173 1.428 . S
C3179 N3178 1.351 . S
C3179 C3180 1.434 . S
C3180 C3171 1.429 . S
C3180 N3177 1.350 . S
C3180 C3179 1.434 . S
C3181 C3182 1.369 . S
C3181 C3183 1.419 . S
C3181 H3185 0.930 . S
C3182 C3181 1.369 . S
C3182 C3191 1.429 . S
C3183 C3181 1.419 . S
C3183 C3184 1.363 . S
C3183 H3186 0.929 . S
C3184 C3183 1.363 . S
C3184 C3190 1.428 . S
H3185 C3181 0.930 . S
H3186 C3183 0.929 . S
S3187 N3188 1.613 . S
S3187 N3189 1.610 . S
N3188 S3187 1.613 . S
N3188 C3191 1.350 . S
N3189 S3187 1.610 . S
N3189 C3190 1.351 . S
C3190 C3184 1.428 . S
C3190 N3189 1.351 . S
C3190 C3191 1.434 . S
C3191 C3182 1.429 . S
C3191 N3188 1.350 . S
C3191 C3190 1.434 . S
C3192 C3193 1.369 . S
C3192 C3194 1.375 1_556 S
C3192 H3196 0.930 . S
C3193 C3192 1.369 . S
C3193 C3202 1.429 . S
C3194 C3192 1.375 1_554 S
C3194 C3195 1.386 . S
C3194 H3197 0.953 . S
C3195 C3194 1.386 . S
C3195 C3201 1.396 1_554 S
H3196 C3192 0.930 . S
H3197 C3194 0.953 . S
S3198 N3199 1.613 . S
S3198 N3200 1.610 1_556 S
N3199 S3198 1.613 . S
N3199 C3202 1.350 . S
N3200 S3198 1.610 1_554 S
N3200 C3201 1.332 1_554 S
C3201 C3195 1.396 1_556 S
C3201 N3200 1.332 1_556 S
C3201 C3202 1.493 . S
C3202 C3193 1.429 . S
C3202 N3199 1.350 . S
C3202 C3201 1.493 . S
C3203 C3204 1.369 . S
C3203 C3205 1.419 1_554 S
C3203 H3207 0.930 . S
C3204 C3203 1.369 . S
C3204 C3213 1.429 1_554 S
C3205 C3203 1.419 1_556 S
C3205 C3206 1.363 . S
C3205 H3208 0.929 . S
C3206 C3205 1.363 . S
C3206 C3212 1.428 . S
H3207 C3203 0.930 . S
H3208 C3205 0.929 . S
S3209 N3210 1.613 1_556 S
S3209 N3211 1.610 . S
N3210 S3209 1.613 1_554 S
N3210 C3213 1.350 1_554 S
N3211 S3209 1.610 . S
N3211 C3212 1.351 . S
C3212 C3206 1.428 . S
C3212 N3211 1.351 . S
C3212 C3213 1.434 . S
C3213 C3204 1.429 1_556 S
C3213 N3210 1.350 1_556 S
C3213 C3212 1.434 . S
C3214 C3215 1.372 . S
C3214 C3216 1.414 1_554 S
C3214 H3218 0.933 . S
C3215 C3214 1.372 . S
C3215 C3224 1.412 1_554 S
C3216 C3214 1.414 1_556 S
C3216 C3217 1.363 . S
C3216 H3219 0.929 . S
C3217 C3216 1.363 . S
C3217 C3223 1.428 . S
H3218 C3214 0.933 . S
H3219 C3216 0.929 . S
S3220 N3221 1.613 1_556 S
S3220 N3222 1.610 . S
N3221 S3220 1.613 1_554 S
N3221 C3224 1.339 1_554 S
N3222 S3220 1.610 . S
N3222 C3223 1.351 . S
C3223 C3217 1.428 . S
C3223 N3222 1.351 . S
C3223 C3224 1.466 . S
C3224 C3215 1.412 1_556 S
C3224 N3221 1.339 1_556 S
C3224 C3223 1.466 . S
C3225 C3226 1.370 . S
C3225 C3227 1.417 1_554 S
C3225 H3229 0.931 . S
C3226 C3225 1.370 . S
C3226 C3235 1.414 1_554 S
C3227 C3225 1.417 1_556 S
C3227 C3228 1.363 . S
C3227 H3230 0.929 . S
C3228 C3227 1.363 . S
C3228 C3234 1.428 . S
H3229 C3225 0.931 . S
H3230 C3227 0.929 . S
S3231 N3232 1.613 1_556 S
S3231 N3233 1.610 . S
N3232 S3231 1.613 1_554 S
N3232 C3235 1.340 1_554 S
N3233 S3231 1.610 . S
N3233 C3234 1.351 . S
C3234 C3228 1.428 . S
C3234 N3233 1.351 . S
C3234 C3235 1.462 . S
C3235 C3226 1.414 1_556 S
C3235 N3232 1.340 1_556 S
C3235 C3234 1.462 . S
C3236 C3237 1.369 . S
C3236 C3238 1.419 . S
C3236 H3240 0.930 . S
C3237 C3236 1.369 . S
C3237 C3246 1.429 . S
C3238 C3236 1.419 . S
C3238 C3239 1.363 1_554 S
C3238 H3241 0.929 1_554 S
C3239 C3238 1.363 1_556 S
C3239 C3245 1.428 . S
H3240 C3236 0.930 . S
H3241 C3238 0.929 1_556 S
S3242 N3243 1.613 . S
S3242 N3244 1.610 1_554 S
N3243 S3242 1.613 . S
N3243 C3246 1.350 . S
N3244 S3242 1.610 1_556 S
N3244 C3245 1.351 . S
C3245 C3239 1.428 . S
C3245 N3244 1.351 . S
C3245 C3246 1.434 1_556 S
C3246 C3237 1.429 . S
C3246 N3243 1.350 . S
C3246 C3245 1.434 1_554 S
C3247 C3248 1.369 1_554 S
C3247 C3249 1.419 . S
C3247 H3251 0.930 1_554 S
C3248 C3247 1.369 1_556 S
C3248 C3257 1.429 . S
C3249 C3247 1.419 . S
C3249 C3250 1.363 . S
C3249 H3252 0.929 . S
C3250 C3249 1.363 . S
C3250 C3256 1.428 . S
H3251 C3247 0.930 1_556 S
H3252 C3249 0.929 . S
S3253 N3254 1.613 1_554 S
S3253 N3255 1.610 . S
N3254 S3253 1.613 1_556 S
N3254 C3257 1.350 . S
N3255 S3253 1.610 . S
N3255 C3256 1.351 . S
C3256 C3250 1.428 . S
C3256 N3255 1.351 . S
C3256 C3257 1.434 1_554 S
C3257 C3248 1.429 . S
C3257 N3254 1.350 . S
C3257 C3256 1.434 1_556 S
C3258 C3259 1.369 . S
C3258 C3260 1.419 1_554 S
C3258 H3262 0.930 . S
C3259 C3258 1.369 . S
C3259 C3268 1.429 . S
C3260 C3258 1.419 1_556 S
C3260 C3261 1.363 . S
C3260 H3263 0.929 . S
C3261 C3260 1.363 . S
C3261 C3267 1.428 1_556 S
H3262 C3258 0.930 . S
H3263 C3260 0.929 . S
S3264 N3265 1.613 . S
S3264 N3266 1.610 1_554 S
N3265 S3264 1.613 . S
N3265 C3268 1.350 . S
N3266 S3264 1.610 1_556 S
N3266 C3267 1.351 1_556 S
C3267 C3261 1.428 1_554 S
C3267 N3266 1.351 1_554 S
C3267 C3268 1.434 . S
C3268 C3259 1.429 . S
C3268 N3265 1.350 . S
C3268 C3267 1.434 . S
C3269 C3270 1.383 . S
C3269 C3271 1.391 1_556 S
C3269 H3273 0.944 . S
C3270 C3269 1.383 . S
C3270 C3279 1.404 1_556 S
C3271 C3269 1.391 1_554 S
C3271 C3272 1.363 . S
C3271 H3274 0.929 . S
C3272 C3271 1.363 . S
C3272 C3278 1.428 . S
H3273 C3269 0.944 . S
H3274 C3271 0.929 . S
S3275 N3276 1.613 1_554 S
S3275 N3277 1.610 . S
N3276 S3275 1.613 1_556 S
N3276 C3279 1.334 1_556 S
N3277 S3275 1.610 . S
N3277 C3278 1.351 . S
C3278 C3272 1.428 . S
C3278 N3277 1.351 . S
C3278 C3279 1.480 . S
C3279 C3270 1.404 1_554 S
C3279 N3276 1.334 1_554 S
C3279 C3278 1.480 . S
C3280 C3281 1.369 . S
C3280 C3282 1.419 . S
C3280 H3284 0.930 . S
C3281 C3280 1.369 . S
C3281 C3290 1.429 . S
C3282 C3280 1.419 . S
C3282 C3283 1.363 1_655 S
C3282 H3285 0.929 1_655 S
C3283 C3282 1.363 1_455 S
C3283 C3289 1.428 . S
H3284 C3280 0.930 . S
H3285 C3282 0.929 1_455 S
S3286 N3287 1.613 . S
S3286 N3288 1.610 1_655 S
N3287 S3286 1.613 . S
N3287 C3290 1.350 . S
N3288 S3286 1.610 1_455 S
N3288 C3289 1.351 . S
C3289 C3283 1.428 . S
C3289 N3288 1.351 . S
C3289 C3290 1.434 1_455 S
C3290 C3281 1.429 . S
C3290 N3287 1.350 . S
C3290 C3289 1.434 1_655 S
C3291 C3292 1.369 . S
C3291 C3293 1.419 1_545 S
C3291 H3295 0.930 . S
C3292 C3291 1.369 . S
C3292 C3301 1.429 1_545 S
C3293 C3291 1.419 1_565 S
C3293 C3294 1.363 . S
C3293 H3296 0.929 . S
C3294 C3293 1.363 . S
C3294 C3300 1.428 . S
H3295 C3291 0.930 . S
H3296 C3293 0.929 . S
S3297 N3298 1.556 1_565 S
S3297 N3299 1.610 . S
N3298 S3297 1.556 1_545 S
N3298 C3301 1.337 1_545 S
N3299 S3297 1.610 . S
N3299 C3300 1.351 . S
C3300 C3294 1.428 . S
C3300 N3299 1.351 . S
C3300 C3301 1.434 . S
C3301 C3292 1.429 1_565 S
C3301 N3298 1.337 1_565 S
C3301 C3300 1.434 . S
C3302 C3303 1.369 . S
C3302 C3304 1.402 1_455 S
C3302 H3306 0.930 . S
C3303 C3302 1.369 . S
C3303 C3312 1.429 . S
C3304 C3302 1.402 1_655 S
C3304 C3305 1.372 . S
C3304 H3307 0.938 . S
C3305 C3304 1.372 . S
C3305 C3311 1.413 1_655 S
H3306 C3302 0.930 . S
H3307 C3304 0.938 . S
S3308 N3309 1.613 . S
S3308 N3310 1.610 1_455 S
N3309 S3308 1.613 . S
N3309 C3312 1.350 . S
N3310 S3308 1.610 1_655 S
N3310 C3311 1.341 1_655 S
C3311 C3305 1.413 1_455 S
C3311 N3310 1.341 1_455 S
C3311 C3312 1.463 . S
C3312 C3303 1.429 . S
C3312 N3309 1.350 . S
C3312 C3311 1.463 . S
C3313 C3314 1.369 1_545 S
C3313 C3315 1.419 . S
C3313 H3317 0.930 1_545 S
C3314 C3313 1.369 1_565 S
C3314 C3323 1.429 . S
C3315 C3313 1.419 . S
C3315 C3316 1.363 . S
C3315 H3318 0.929 . S
C3316 C3315 1.363 . S
C3316 C3322 1.428 . S
H3317 C3313 0.930 1_565 S
H3318 C3315 0.929 . S
S3319 N3320 1.613 1_545 S
S3319 N3321 1.610 . S
N3320 S3319 1.613 1_565 S
N3320 C3323 1.350 . S
N3321 S3319 1.610 . S
N3321 C3322 1.351 . S
C3322 C3316 1.428 . S
C3322 N3321 1.351 . S
C3322 C3323 1.434 1_545 S
C3323 C3314 1.429 . S
C3323 N3320 1.350 . S
C3323 C3322 1.434 1_565 S
C3324 C3325 1.369 . S
C3324 C3326 1.419 1_455 S
C3324 H3328 0.930 . S
C3325 C3324 1.369 . S
C3325 C3334 1.429 1_455 S
C3326 C3324 1.419 1_655 S
C3326 C3327 1.363 . S
C3326 H3329 0.929 . S
C3327 C3326 1.363 . S
C3327 C3333 1.428 . S
H3328 C3324 0.930 . S
H3329 C3326 0.929 . S
S3330 N3331 1.613 1_655 S
S3330 N3332 1.610 . S
N3331 S3330 1.613 1_455 S
N3331 C3334 1.350 1_455 S
N3332 S3330 1.610 . S
N3332 C3333 1.351 . S
C3333 C3327 1.428 . S
C3333 N3332 1.351 . S
C3333 C3334 1.434 . S
C3334 C3325 1.429 1_655 S
C3334 N3331 1.350 1_655 S
C3334 C3333 1.434 . S
C3335 C3336 1.369 . S
C3335 C3337 1.419 1_545 S
C3335 H3339 0.930 . S
C3336 C3335 1.369 . S
C3336 C3345 1.429 1_545 S
C3337 C3335 1.419 1_565 S
C3337 C3338 1.363 . S
C3337 H3340 0.929 . S
C3338 C3337 1.363 . S
C3338 C3344 1.428 . S
H3339 C3335 0.930 . S
H3340 C3337 0.929 . S
S3341 N3342 1.613 1_565 S
S3341 N3343 1.610 . S
N3342 S3341 1.613 1_545 S
N3342 C3345 1.350 1_545 S
N3343 S3341 1.610 . S
N3343 C3344 1.351 . S
C3344 C3338 1.428 . S
C3344 N3343 1.351 . S
C3344 C3345 1.434 . S
C3345 C3336 1.429 1_565 S
C3345 N3342 1.350 1_565 S
C3345 C3344 1.434 . S
C3346 C3347 1.369 1_455 S
C3346 C3348 1.419 . S
C3346 H3350 0.930 1_455 S
C3347 C3346 1.369 1_655 S
C3347 C3356 1.429 . S
C3348 C3346 1.419 . S
C3348 C3349 1.363 . S
C3348 H3351 0.929 . S
C3349 C3348 1.363 . S
C3349 C3355 1.428 . S
H3350 C3346 0.930 1_655 S
H3351 C3348 0.929 . S
S3352 N3353 1.613 1_455 S
S3352 N3354 1.610 . S
N3353 S3352 1.613 1_655 S
N3353 C3356 1.350 . S
N3354 S3352 1.610 . S
N3354 C3355 1.351 . S
C3355 C3349 1.428 . S
C3355 N3354 1.351 . S
C3355 C3356 1.434 1_455 S
C3356 C3347 1.429 . S
C3356 N3353 1.350 . S
C3356 C3355 1.434 1_655 S
C3357 C3358 1.369 . S
C3357 C3359 1.419 1_565 S
C3357 H3361 0.930 . S
C3358 C3357 1.369 . S
C3358 C3367 1.429 1_565 S
C3359 C3357 1.419 1_545 S
C3359 C3360 1.363 . S
C3359 H3362 0.929 . S
C3360 C3359 1.363 . S
C3360 C3366 1.428 . S
H3361 C3357 0.930 . S
H3362 C3359 0.929 . S
S3363 N3364 1.613 1_545 S
S3363 N3365 1.610 . S
N3364 S3363 1.613 1_565 S
N3364 C3367 1.350 1_565 S
N3365 S3363 1.610 . S
N3365 C3366 1.351 . S
C3366 C3360 1.428 . S
C3366 N3365 1.351 . S
C3366 C3367 1.434 . S
C3367 C3358 1.429 1_545 S
C3367 N3364 1.350 1_545 S
C3367 C3366 1.434 . S
C3368 C3369 1.369 . S
C3368 C3370 1.419 1_565 S
C3368 H3372 0.930 . S
C3369 C3368 1.369 . S
C3369 C3378 1.429 . S
C3370 C3368 1.419 1_545 S
C3370 C3371 1.363 . S
C3370 H3373 0.929 . S
C3371 C3370 1.363 . S
C3371 C3377 1.428 1_545 S
H3372 C3368 0.930 . S
H3373 C3370 0.929 . S
S3374 N3375 1.613 . S
S3374 N3376 1.610 1_565 S
N3375 S3374 1.613 . S
N3375 C3378 1.350 . S
N3376 S3374 1.610 1_545 S
N3376 C3377 1.351 1_545 S
C3377 C3371 1.428 1_565 S
C3377 N3376 1.351 1_565 S
C3377 C3378 1.434 . S
C3378 C3369 1.429 . S
C3378 N3375 1.350 . S
C3378 C3377 1.434 . S
C3379 C3380 1.369 . S
C3379 C3381 1.419 1_565 S
C3379 H3383 0.930 . S
C3380 C3379 1.369 . S
C3380 C3389 1.429 1_565 S
C3381 C3379 1.419 1_545 S
C3381 C3382 1.363 . S
C3381 H3384 0.929 . S
C3382 C3381 1.363 . S
C3382 C3388 1.428 . S
H3383 C3379 0.930 . S
H3384 C3381 0.929 . S
S3385 N3386 1.561 1_545 S
S3385 N3387 1.610 . S
N3386 S3385 1.561 1_565 S
N3386 C3389 1.338 1_565 S
N3387 S3385 1.610 . S
N3387 C3388 1.351 . S
C3388 C3382 1.428 . S
C3388 N3387 1.351 . S
C3388 C3389 1.434 . S
C3389 C3380 1.429 1_545 S
C3389 N3386 1.338 1_545 S
C3389 C3388 1.434 . S
C3390 C3391 1.369 . S
C3390 C3392 1.419 1_455 S
C3390 H3394 0.930 . S
C3391 C3390 1.369 . S
C3391 C3400 1.429 1_455 S
C3392 C3390 1.419 1_655 S
C3392 C3393 1.363 . S
C3392 H3395 0.929 . S
C3393 C3392 1.363 . S
C3393 C3399 1.428 . S
H3394 C3390 0.930 . S
H3395 C3392 0.929 . S
S3396 N3397 1.613 1_655 S
S3396 N3398 1.610 . S
N3397 S3396 1.613 1_455 S
N3397 C3400 1.350 1_455 S
N3398 S3396 1.610 . S
N3398 C3399 1.351 . S
C3399 C3393 1.428 . S
C3399 N3398 1.351 . S
C3399 C3400 1.434 . S
C3400 C3391 1.429 1_655 S
C3400 N3397 1.350 1_655 S
C3400 C3399 1.434 . S
C3401 C3402 1.369 1_565 S
C3401 C3403 1.419 . S
C3401 H3405 0.914 1_565 S
C3402 C3401 1.369 1_545 S
C3402 C3411 1.429 . S
C3403 C3401 1.419 . S
C3403 C3404 1.363 . S
C3403 H3406 0.929 . S
C3404 C3403 1.363 . S
C3404 C3410 1.428 . S
H3405 C3401 0.914 1_545 S
H3406 C3403 0.929 . S
S3407 N3408 1.575 1_565 S
S3407 N3409 1.664 . S
N3408 S3407 1.575 1_545 S
N3408 C3411 1.350 . S
N3409 S3407 1.664 . S
N3409 C3410 1.351 . S
C3410 C3404 1.428 . S
C3410 N3409 1.351 . S
C3410 C3411 1.434 1_565 S
C3411 C3402 1.429 . S
C3411 N3408 1.350 . S
C3411 C3410 1.434 1_545 S
C3412 C3413 1.369 . S
C3412 C3414 1.418 1_655 S
C3412 H3416 0.930 . S
C3413 C3412 1.369 . S
C3413 C3422 1.420 1_655 S
C3414 C3412 1.418 1_455 S
C3414 C3415 1.363 . S
C3414 H3417 0.929 . S
C3415 C3414 1.363 . S
C3415 C3421 1.428 . S
H3416 C3412 0.930 . S
H3417 C3414 0.929 . S
S3418 N3419 1.613 1_455 S
S3418 N3420 1.610 . S
N3419 S3418 1.613 1_655 S
N3419 C3422 1.344 1_655 S
N3420 S3418 1.610 . S
N3420 C3421 1.351 . S
C3421 C3415 1.428 . S
C3421 N3420 1.351 . S
C3421 C3422 1.450 . S
C3422 C3413 1.420 1_455 S
C3422 N3419 1.344 1_455 S
C3422 C3421 1.450 . S
C3423 C3424 1.369 . S
C3423 C3425 1.419 . S
C3423 H3427 0.930 . S
C3424 C3423 1.369 . S
C3424 C3433 1.429 . S
C3425 C3423 1.419 . S
C3425 C3426 1.363 1_545 S
C3425 H3428 0.911 1_545 S
C3426 C3425 1.363 1_565 S
C3426 C3432 1.428 . S
H3427 C3423 0.930 . S
H3428 C3425 0.911 1_565 S
S3429 N3430 1.613 . S
S3429 N3431 1.610 1_545 S
N3430 S3429 1.613 . S
N3430 C3433 1.350 . S
N3431 S3429 1.610 1_565 S
N3431 C3432 1.351 . S
C3432 C3426 1.428 . S
C3432 N3431 1.351 . S
C3432 C3433 1.434 1_565 S
C3433 C3424 1.429 . S
C3433 N3430 1.350 . S
C3433 C3432 1.434 1_545 S
C3434 C3435 1.369 . S
C3434 C3436 1.419 . S
C3434 H3438 0.930 . S
C3435 C3434 1.369 . S
C3435 C3444 1.429 . S
C3436 C3434 1.419 . S
C3436 C3437 1.363 1_655 S
C3436 H3439 0.929 1_655 S
C3437 C3436 1.363 1_455 S
C3437 C3443 1.428 . S
H3438 C3434 0.930 . S
H3439 C3436 0.929 1_455 S
S3440 N3441 1.613 . S
S3440 N3442 1.610 1_655 S
N3441 S3440 1.613 . S
N3441 C3444 1.350 . S
N3442 S3440 1.610 1_455 S
N3442 C3443 1.351 . S
C3443 C3437 1.428 . S
C3443 N3442 1.351 . S
C3443 C3444 1.434 1_455 S
C3444 C3435 1.429 . S
C3444 N3441 1.350 . S
C3444 C3443 1.434 1_655 S
C3445 C3446 1.377 . S
C3445 C3447 1.404 1_655 S
C3445 H3449 0.937 . S
C3446 C3445 1.377 . S
C3446 C3455 1.406 1_655 S
C3447 C3445 1.404 1_455 S
C3447 C3448 1.363 . S
C3447 H3450 0.929 . S
C3448 C3447 1.363 . S
C3448 C3454 1.428 . S
H3449 C3445 0.937 . S
H3450 C3447 0.929 . S
S3451 N3452 1.613 1_455 S
S3451 N3453 1.610 . S
N3452 S3451 1.613 1_655 S
N3452 C3455 1.336 1_655 S
N3453 S3451 1.610 . S
N3453 C3454 1.351 . S
C3454 C3448 1.428 . S
C3454 N3453 1.351 . S
C3454 C3455 1.476 . S
C3455 C3446 1.406 1_455 S
C3455 N3452 1.336 1_455 S
C3455 C3454 1.476 . S
C1345 C8 1.398 . S
C1347 C442 1.443 . S
C1356 C22 1.390 . S
C1358 C400 1.443 . S
C1367 C414 1.446 . S
C1369 C36 1.390 . S
C1378 C428 1.440 . S
C1380 C50 1.395 . S
C1389 C358 1.440 . S
C1391 C64 1.395 . S
C1400 C372 1.446 . S
C1402 C78 1.391 . S
C1411 C92 1.389 . S
C1413 C386 1.444 . S
C1422 C344 1.440 . S
C1424 C106 1.395 . S
C1433 C120 1.399 . S
C1435 C624 1.440 . S
C1444 C134 1.399 . S
C1446 C582 1.440 . S
C1455 C148 1.391 . S
C1457 C596 1.445 . S
C1466 C162 1.389 . S
C1468 C610 1.445 . S
C1477 C176 1.399 . S
C1479 C666 1.441 . S
C1488 C190 1.398 . S
C1490 C638 1.442 . S
C1499 C204 1.392 . S
C1501 C652 1.445 . S
C1510 C568 1.440 . S
C1512 C218 1.395 . S
C1521 C232 1.390 . S
C1523 C554 1.445 . S
C1532 C470 1.441 . S
C1534 C246 1.398 . S
C1543 C484 1.446 . S
C1545 C260 1.391 . S
C1554 C274 1.400 . S
C1556 C498 1.440 . S
C1565 C456 1.442 . S
C1567 C288 1.398 . S
C1576 C526 1.440 . S
C1578 C302 1.399 . S
C1587 C316 1.397 . S
C1589 C540 1.440 . S
C1598 C330 1.390 . S
C1600 C512 1.445 . S
C1609 C1114 1.442 . S
C1611 C680 1.393 . S
C1620 C1072 1.443 . S
C1622 C694 1.397 . S
C1631 C708 1.398 . S
C1633 C1086 1.443 . S
C1642 C1100 1.442 . S
C1644 C722 1.397 . S
C1653 C736 1.392 . S
C1655 C1030 1.442 . S
C1664 C750 1.399 . S
C1666 C1044 1.441 . S
C1675 C1058 1.443 . S
C1677 C764 1.391 . S
C1686 C1016 1.440 . S
C1688 C778 1.399 . S
C1697 C1296 1.443 . S
C1699 C792 1.396 . S
C1708 C1254 1.441 . S
C1710 C806 1.398 . S
C1719 C820 1.397 . S
C1721 C1268 1.440 . S
C1730 C834 1.392 . S
C1732 C1282 1.445 . S
C1741 C1338 1.445 . S
C1743 C848 1.394 . S
C1752 C1310 1.444 . S
C1754 C862 1.396 . S
C1763 C1324 1.446 . S
C1765 C876 1.390 . S
C1774 C890 1.393 . S
C1776 C1240 1.445 . S
C1785 C1226 1.442 . S
C1787 C904 1.393 . S
C1796 C918 1.389 . S
C1798 C1142 1.445 . S
C1807 C1156 1.439 . S
C1809 C932 1.398 . S
C1818 C1170 1.446 . S
C1820 C946 1.390 . S
C1829 C1128 1.444 . S
C1831 C960 1.395 . S
C1840 C974 1.391 . S
C1842 C1198 1.443 . S
C1851 C988 1.393 . S
C1853 C1212 1.445 . S
C1862 C1184 1.445 . S
C1864 C1002 1.393 . S
C1873 C3 1.980 . S
C1875 C955 1.983 . S
C1884 C17 1.981 . S
C1886 C913 1.986 . S
C1895 C31 1.982 . S
C1897 C927 1.986 . S
C1906 C45 1.987 . S
C1908 C941 1.984 . S
C1917 C997 1.987 . S
C1919 C59 1.984 . S
C1928 C73 1.980 . S
C1930 C969 1.983 . S
C1939 C983 1.982 . S
C1941 C87 1.986 . S
C1950 C101 1.985 . S
C1952 C899 1.986 . S
C1961 C885 1.980 . S
C1963 C115 1.985 . S
C1972 C129 1.980 . S
C1974 C843 1.986 . S
C1983 C857 1.980 . S
C1985 C143 1.984 . S
C1994 C157 1.987 . S
C1996 C871 1.985 . S
C2005 C171 1.981 . S
C2007 C801 1.982 . S
C2016 C185 1.987 . S
C2018 C815 1.983 . S
C2027 C829 1.987 . S
C2029 C199 1.983 . S
C2038 C787 1.981 . S
C2040 C213 1.986 . S
C2049 C227 1.980 . S
C2051 C773 1.986 . S
C2060 C241 1.980 . S
C2062 C689 1.982 . S
C2071 C255 1.984 . S
C2073 C703 1.986 . S
C2082 C269 1.985 . S
C2084 C717 1.986 . S
C2093 C283 1.982 . S
C2095 C675 1.986 . S
C2104 C745 1.980 . S
C2106 C297 1.985 . S
C2115 C759 1.980 . S
C2117 C311 1.986 . S
C2126 C325 1.986 . S
C2128 C731 1.981 . S
C2137 C345 1.178 . S
C2139 C1297 1.176 . S
C2148 C359 1.177 . S
C2150 C1255 1.175 . S
C2159 C373 1.175 . S
C2161 C1269 1.175 . S
C2170 C387 1.170 . S
C2172 C1283 1.171 . S
C2181 C401 1.174 . S
C2183 C1339 1.173 . S
C2192 C1311 1.173 . S
C2194 C415 1.174 . S
C2203 C429 1.173 . S
C2205 C1325 1.172 . S
C2214 C443 1.177 . S
C2216 C1241 1.175 . S
C2225 C1227 1.170 . S
C2227 C457 1.170 . S
C2236 C1185 1.172 . S
C2238 C471 1.173 . S
C2247 C1199 1.175 . S
C2249 C485 1.175 . S
C2258 C1213 1.169 . S
C2260 C499 1.170 . S
C2269 C513 1.170 . S
C2271 C1143 1.172 . S
C2280 C527 1.171 . S
C2282 C1157 1.173 . S
C2291 C541 1.178 . S
C2293 C1171 1.177 . S
C2302 C1129 1.170 . S
C2304 C555 1.172 . S
C2313 C1115 1.176 . S
C2315 C569 1.176 . S
C2324 C583 1.178 . S
C2326 C1031 1.176 . S
C2335 C1045 1.176 . S
C2337 C597 1.175 . S
C2346 C1059 1.175 . S
C2348 C611 1.174 . S
C2357 C625 1.171 . S
C2359 C1017 1.172 . S
C2368 C639 1.176 . S
C2370 C1087 1.175 . S
C2379 C1101 1.170 . S
C2381 C653 1.170 . S
C2390 C667 1.172 . S
C2392 C1073 1.174 . S
C2401 C9 1.553 . S
C2403 C395 1.572 . S
C2412 C23 1.551 . S
C2414 C409 1.570 . S
C2423 C37 1.553 . S
C2425 C423 1.572 . S
C2434 C51 1.550 . S
C2436 C437 1.569 . S
C2445 C339 1.568 . S
C2447 C65 1.550 . S
C2456 C79 1.556 . S
C2458 C353 1.574 . S
C2467 C367 1.574 . S
C2469 C93 1.554 . S
C2478 C381 1.569 . S
C2480 C107 1.550 . S
C2489 C121 1.551 . S
C2491 C535 1.570 . S
C2500 C549 1.573 . S
C2502 C135 1.553 . S
C2511 C149 1.551 . S
C2513 C507 1.570 . S
C2522 C163 1.550 . S
C2524 C521 1.571 . S
C2533 C177 1.553 . S
C2535 C479 1.571 . S
C2544 C191 1.551 . S
C2546 C493 1.570 . S
C2555 C205 1.553 . S
C2557 C451 1.571 . S
C2566 C465 1.568 . S
C2568 C219 1.550 . S
C2577 C233 1.556 . S
C2579 C633 1.572 . S
C2588 C247 1.557 . S
C2590 C605 1.573 . S
C2599 C619 1.574 . S
C2601 C261 1.554 . S
C2610 C275 1.550 . S
C2612 C577 1.569 . S
C2621 C591 1.572 . S
C2623 C289 1.554 . S
C2632 C303 1.554 . S
C2634 C563 1.572 . S
C2643 C661 1.572 . S
C2645 C317 1.555 . S
C2654 C647 1.574 . S
C2656 C331 1.555 . S
C2665 C681 1.553 . S
C2667 C1067 1.571 . S
C2676 C695 1.557 . S
C2678 C1081 1.574 . S
C2687 C709 1.557 . S
C2689 C1095 1.573 . S
C2698 C1109 1.569 . S
C2700 C723 1.550 . S
C2709 C737 1.550 . S
C2711 C1011 1.569 . S
C2720 C751 1.552 . S
C2722 C1025 1.570 . S
C2731 C765 1.555 . S
C2733 C1039 1.573 . S
C2742 C779 1.556 . S
C2744 C1053 1.574 . S
C2753 C793 1.554 . S
C2755 C1207 1.571 . S
C2764 C1221 1.573 . S
C2766 C807 1.555 . S
C2775 C1179 1.569 . S
C2777 C821 1.551 . S
C2786 C1193 1.574 . S
C2788 C835 1.556 . S
C2797 C849 1.552 . S
C2799 C1151 1.570 . S
C2808 C1165 1.569 . S
C2810 C863 1.550 . S
C2819 C877 1.551 . S
C2821 C1123 1.571 . S
C2830 C1137 1.569 . S
C2832 C891 1.551 . S
C2841 C1305 1.572 . S
C2843 C905 1.555 . S
C2852 C1277 1.569 . S
C2854 C919 1.551 . S
C2863 C933 1.552 . S
C2865 C1291 1.570 . S
C2874 C947 1.557 . S
C2876 C1249 1.573 . S
C2885 C1263 1.569 . S
C2887 C961 1.551 . S
C2896 C975 1.549 . S
C2898 C1235 1.569 . S
C2907 C1333 1.574 . S
C2909 C989 1.555 . S
C2918 C1319 1.573 . S
C2920 C1003 1.556 . S
C2929 C371 1.448 . S
C2931 C7 1.448 . S
C2940 C21 1.445 . S
C2942 C385 1.443 . S
C2951 C343 1.442 . S
C2953 C35 1.440 . S
C2962 C49 1.446 . S
C2964 C357 1.450 . S
C2973 C427 1.450 . S
C2975 C63 1.448 . S
C2984 C441 1.451 . S
C2986 C77 1.447 . S
C2995 C91 1.442 . S
C2997 C399 1.442 . S
C3006 C413 1.441 . S
C3008 C105 1.441 . S
C3017 C119 1.439 . S
C3019 C511 1.444 . S
C3028 C133 1.448 . S
C3030 C525 1.450 . S
C3039 C539 1.447 . S
C3041 C147 1.441 . S
C3050 C161 1.442 . S
C3052 C553 1.442 . S
C3061 C175 1.440 . S
C3063 C455 1.442 . S
C3072 C469 1.448 . S
C3074 C189 1.441 . S
C3083 C483 1.451 . S
C3085 C203 1.446 . S
C3094 C497 1.444 . S
C3096 C217 1.440 . S
C3105 C231 1.444 . S
C3107 C609 1.442 . S
C3116 C637 1.446 . S
C3118 C245 1.440 . S
C3127 C259 1.439 . S
C3129 C651 1.444 . S
C3138 C567 1.451 . S
C3140 C273 1.447 . S
C3149 C665 1.445 . S
C3151 C287 1.447 . S
C3160 C581 1.451 . S
C3162 C301 1.446 . S
C3171 C315 1.443 . S
C3173 C595 1.442 . S
C3182 C329 1.439 . S
C3184 C623 1.445 . S
C3193 C679 1.449 . S
C3195 C1043 1.450 . S
C3204 C1057 1.449 . S
C3206 C693 1.442 . S
C3215 C1015 1.451 . S
C3217 C707 1.446 . S
C3226 C1029 1.451 . S
C3228 C721 1.446 . S
C3237 C735 1.449 . S
C3239 C1099 1.447 . S
C3248 C1113 1.449 . S
C3250 C749 1.448 . S
C3259 C763 1.439 . S
C3261 C1071 1.445 . S
C3270 C1085 1.441 . S
C3272 C777 1.441 . S
C3281 C791 1.447 . S
C3283 C1183 1.444 . S
C3292 C1197 1.448 . S
C3294 C805 1.441 . S
C3303 C819 1.449 . S
C3305 C1211 1.449 . S
C3314 C1225 1.451 . S
C3316 C833 1.448 . S
C3325 C1127 1.451 . S
C3327 C847 1.444 . S
C3336 C1141 1.448 . S
C3338 C861 1.442 . S
C3347 C1155 1.448 . S
C3349 C875 1.448 . S
C3358 C1169 1.448 . S
C3360 C889 1.441 . S
C3369 C903 1.441 . S
C3371 C1281 1.448 . S
C3380 C1309 1.446 . S
C3382 C917 1.440 . S
C3391 C1323 1.450 . S
C3393 C931 1.443 . S
C3402 C1239 1.445 . S
C3404 C945 1.448 . S
C3413 C1337 1.440 . S
C3415 C959 1.442 . S
C3424 C973 1.445 . S
C3426 C1253 1.442 . S
C3435 C987 1.450 . S
C3437 C1267 1.447 . S
C3446 C1295 1.451 . S
C3448 C1001 1.446 . S
