# Generated by pormake.
# Topology ato, (4)-cn, num edge types: 1
# Building blocks:
#     Node 0, Type 0, BuildingBlock: GALJAG_clean_sbu_0, # of connection points: 4
#     Node 1, Type 0, BuildingBlock: GALJAG_clean_sbu_0, # of connection points: 4
#     Node 2, Type 0, BuildingBlock: GALJAG_clean_sbu_0, # of connection points: 4
#     Node 3, Type 0, BuildingBlock: GALJAG_clean_sbu_0, # of connection points: 4
#     Node 4, Type 0, BuildingBlock: GALJAG_clean_sbu_0, # of connection points: 4
#     Node 5, Type 0, BuildingBlock: GALJAG_clean_sbu_0, # of connection points: 4
#     Node 6, Type 0, BuildingBlock: GALJAG_clean_sbu_0, # of connection points: 4
#     Node 7, Type 0, BuildingBlock: GALJAG_clean_sbu_0, # of connection points: 4
#     Node 8, Type 0, BuildingBlock: GALJAG_clean_sbu_0, # of connection points: 4
#     Node 9, Type 0, BuildingBlock: GALJAG_clean_sbu_0, # of connection points: 4
#     Node 10, Type 0, BuildingBlock: GALJAG_clean_sbu_0, # of connection points: 4
#     Node 11, Type 0, BuildingBlock: GALJAG_clean_sbu_0, # of connection points: 4
#     Node 12, Type 0, BuildingBlock: GALJAG_clean_sbu_0, # of connection points: 4
#     Node 13, Type 0, BuildingBlock: GALJAG_clean_sbu_0, # of connection points: 4
#     Node 14, Type 0, BuildingBlock: GALJAG_clean_sbu_0, # of connection points: 4
#     Node 15, Type 0, BuildingBlock: GALJAG_clean_sbu_0, # of connection points: 4
#     Node 16, Type 0, BuildingBlock: GALJAG_clean_sbu_0, # of connection points: 4
#     Node 17, Type 0, BuildingBlock: GALJAG_clean_sbu_0, # of connection points: 4
#     Node 18, Type 0, BuildingBlock: GALJAG_clean_sbu_0, # of connection points: 4
#     Node 19, Type 0, BuildingBlock: GALJAG_clean_sbu_0, # of connection points: 4
#     Node 20, Type 0, BuildingBlock: GALJAG_clean_sbu_0, # of connection points: 4
#     Node 21, Type 0, BuildingBlock: GALJAG_clean_sbu_0, # of connection points: 4
#     Node 22, Type 0, BuildingBlock: GALJAG_clean_sbu_0, # of connection points: 4
#     Node 23, Type 0, BuildingBlock: GALJAG_clean_sbu_0, # of connection points: 4
#     Node 24, Type 0, BuildingBlock: GALJAG_clean_sbu_0, # of connection points: 4
#     Node 25, Type 0, BuildingBlock: GALJAG_clean_sbu_0, # of connection points: 4
#     Node 26, Type 0, BuildingBlock: GALJAG_clean_sbu_0, # of connection points: 4
#     Node 27, Type 0, BuildingBlock: GALJAG_clean_sbu_0, # of connection points: 4
#     Node 28, Type 0, BuildingBlock: GALJAG_clean_sbu_0, # of connection points: 4
#     Node 29, Type 0, BuildingBlock: GALJAG_clean_sbu_0, # of connection points: 4
#     Node 30, Type 0, BuildingBlock: GALJAG_clean_sbu_0, # of connection points: 4
#     Node 31, Type 0, BuildingBlock: GALJAG_clean_sbu_0, # of connection points: 4
#     Node 32, Type 0, BuildingBlock: GALJAG_clean_sbu_0, # of connection points: 4
#     Node 33, Type 0, BuildingBlock: GALJAG_clean_sbu_0, # of connection points: 4
#     Node 34, Type 0, BuildingBlock: GALJAG_clean_sbu_0, # of connection points: 4
#     Node 35, Type 0, BuildingBlock: GALJAG_clean_sbu_0, # of connection points: 4
#     Edge 36, Type (0, 0), BuildingBlock: KIFKEQ_clean_linker_1, # of connection points: 2
#     Edge 37, Type (0, 0), BuildingBlock: KIFKEQ_clean_linker_1, # of connection points: 2
#     Edge 38, Type (0, 0), BuildingBlock: KIFKEQ_clean_linker_1, # of connection points: 2
#     Edge 39, Type (0, 0), BuildingBlock: KIFKEQ_clean_linker_1, # of connection points: 2
#     Edge 40, Type (0, 0), BuildingBlock: KIFKEQ_clean_linker_1, # of connection points: 2
#     Edge 41, Type (0, 0), BuildingBlock: KIFKEQ_clean_linker_1, # of connection points: 2
#     Edge 42, Type (0, 0), BuildingBlock: KIFKEQ_clean_linker_1, # of connection points: 2
#     Edge 43, Type (0, 0), BuildingBlock: KIFKEQ_clean_linker_1, # of connection points: 2
#     Edge 44, Type (0, 0), BuildingBlock: KIFKEQ_clean_linker_1, # of connection points: 2
#     Edge 45, Type (0, 0), BuildingBlock: KIFKEQ_clean_linker_1, # of connection points: 2
#     Edge 46, Type (0, 0), BuildingBlock: KIFKEQ_clean_linker_1, # of connection points: 2
#     Edge 47, Type (0, 0), BuildingBlock: KIFKEQ_clean_linker_1, # of connection points: 2
#     Edge 48, Type (0, 0), BuildingBlock: KIFKEQ_clean_linker_1, # of connection points: 2
#     Edge 49, Type (0, 0), BuildingBlock: KIFKEQ_clean_linker_1, # of connection points: 2
#     Edge 50, Type (0, 0), BuildingBlock: KIFKEQ_clean_linker_1, # of connection points: 2
#     Edge 51, Type (0, 0), BuildingBlock: KIFKEQ_clean_linker_1, # of connection points: 2
#     Edge 52, Type (0, 0), BuildingBlock: KIFKEQ_clean_linker_1, # of connection points: 2
#     Edge 53, Type (0, 0), BuildingBlock: KIFKEQ_clean_linker_1, # of connection points: 2
#     Edge 54, Type (0, 0), BuildingBlock: KIFKEQ_clean_linker_1, # of connection points: 2
#     Edge 55, Type (0, 0), BuildingBlock: KIFKEQ_clean_linker_1, # of connection points: 2
#     Edge 56, Type (0, 0), BuildingBlock: KIFKEQ_clean_linker_1, # of connection points: 2
#     Edge 57, Type (0, 0), BuildingBlock: KIFKEQ_clean_linker_1, # of connection points: 2
#     Edge 58, Type (0, 0), BuildingBlock: KIFKEQ_clean_linker_1, # of connection points: 2
#     Edge 59, Type (0, 0), BuildingBlock: KIFKEQ_clean_linker_1, # of connection points: 2
#     Edge 60, Type (0, 0), BuildingBlock: KIFKEQ_clean_linker_1, # of connection points: 2
#     Edge 61, Type (0, 0), BuildingBlock: KIFKEQ_clean_linker_1, # of connection points: 2
#     Edge 62, Type (0, 0), BuildingBlock: KIFKEQ_clean_linker_1, # of connection points: 2
#     Edge 63, Type (0, 0), BuildingBlock: KIFKEQ_clean_linker_1, # of connection points: 2
#     Edge 64, Type (0, 0), BuildingBlock: KIFKEQ_clean_linker_1, # of connection points: 2
#     Edge 65, Type (0, 0), BuildingBlock: KIFKEQ_clean_linker_1, # of connection points: 2
#     Edge 66, Type (0, 0), BuildingBlock: KIFKEQ_clean_linker_1, # of connection points: 2
#     Edge 67, Type (0, 0), BuildingBlock: KIFKEQ_clean_linker_1, # of connection points: 2
#     Edge 68, Type (0, 0), BuildingBlock: KIFKEQ_clean_linker_1, # of connection points: 2
#     Edge 69, Type (0, 0), BuildingBlock: KIFKEQ_clean_linker_1, # of connection points: 2
#     Edge 70, Type (0, 0), BuildingBlock: KIFKEQ_clean_linker_1, # of connection points: 2
#     Edge 71, Type (0, 0), BuildingBlock: KIFKEQ_clean_linker_1, # of connection points: 2
#     Edge 72, Type (0, 0), BuildingBlock: KIFKEQ_clean_linker_1, # of connection points: 2
#     Edge 73, Type (0, 0), BuildingBlock: KIFKEQ_clean_linker_1, # of connection points: 2
#     Edge 74, Type (0, 0), BuildingBlock: KIFKEQ_clean_linker_1, # of connection points: 2
#     Edge 75, Type (0, 0), BuildingBlock: KIFKEQ_clean_linker_1, # of connection points: 2
#     Edge 76, Type (0, 0), BuildingBlock: KIFKEQ_clean_linker_1, # of connection points: 2
#     Edge 77, Type (0, 0), BuildingBlock: KIFKEQ_clean_linker_1, # of connection points: 2
#     Edge 78, Type (0, 0), BuildingBlock: KIFKEQ_clean_linker_1, # of connection points: 2
#     Edge 79, Type (0, 0), BuildingBlock: KIFKEQ_clean_linker_1, # of connection points: 2
#     Edge 80, Type (0, 0), BuildingBlock: KIFKEQ_clean_linker_1, # of connection points: 2
#     Edge 81, Type (0, 0), BuildingBlock: KIFKEQ_clean_linker_1, # of connection points: 2
#     Edge 82, Type (0, 0), BuildingBlock: KIFKEQ_clean_linker_1, # of connection points: 2
#     Edge 83, Type (0, 0), BuildingBlock: KIFKEQ_clean_linker_1, # of connection points: 2
#     Edge 84, Type (0, 0), BuildingBlock: KIFKEQ_clean_linker_1, # of connection points: 2
#     Edge 85, Type (0, 0), BuildingBlock: KIFKEQ_clean_linker_1, # of connection points: 2
#     Edge 86, Type (0, 0), BuildingBlock: KIFKEQ_clean_linker_1, # of connection points: 2
#     Edge 87, Type (0, 0), BuildingBlock: KIFKEQ_clean_linker_1, # of connection points: 2
#     Edge 88, Type (0, 0), BuildingBlock: KIFKEQ_clean_linker_1, # of connection points: 2
#     Edge 89, Type (0, 0), BuildingBlock: KIFKEQ_clean_linker_1, # of connection points: 2
#     Edge 90, Type (0, 0), BuildingBlock: KIFKEQ_clean_linker_1, # of connection points: 2
#     Edge 91, Type (0, 0), BuildingBlock: KIFKEQ_clean_linker_1, # of connection points: 2
#     Edge 92, Type (0, 0), BuildingBlock: KIFKEQ_clean_linker_1, # of connection points: 2
#     Edge 93, Type (0, 0), BuildingBlock: KIFKEQ_clean_linker_1, # of connection points: 2
#     Edge 94, Type (0, 0), BuildingBlock: KIFKEQ_clean_linker_1, # of connection points: 2
#     Edge 95, Type (0, 0), BuildingBlock: KIFKEQ_clean_linker_1, # of connection points: 2
#     Edge 96, Type (0, 0), BuildingBlock: KIFKEQ_clean_linker_1, # of connection points: 2
#     Edge 97, Type (0, 0), BuildingBlock: KIFKEQ_clean_linker_1, # of connection points: 2
#     Edge 98, Type (0, 0), BuildingBlock: KIFKEQ_clean_linker_1, # of connection points: 2
#     Edge 99, Type (0, 0), BuildingBlock: KIFKEQ_clean_linker_1, # of connection points: 2
#     Edge 100, Type (0, 0), BuildingBlock: KIFKEQ_clean_linker_1, # of connection points: 2
#     Edge 101, Type (0, 0), BuildingBlock: KIFKEQ_clean_linker_1, # of connection points: 2
#     Edge 102, Type (0, 0), BuildingBlock: KIFKEQ_clean_linker_1, # of connection points: 2
#     Edge 103, Type (0, 0), BuildingBlock: KIFKEQ_clean_linker_1, # of connection points: 2
#     Edge 104, Type (0, 0), BuildingBlock: KIFKEQ_clean_linker_1, # of connection points: 2
#     Edge 105, Type (0, 0), BuildingBlock: KIFKEQ_clean_linker_1, # of connection points: 2
#     Edge 106, Type (0, 0), BuildingBlock: KIFKEQ_clean_linker_1, # of connection points: 2
#     Edge 107, Type (0, 0), BuildingBlock: KIFKEQ_clean_linker_1, # of connection points: 2
# Relax obj value: 0.074
# Max RMSD: 0.099
# Mean RMSD: 0.099
data_MOF--net-ato--node1-GALJAG_clean_sbu_0--edge1-KIFKEQ_clean_linker_1
_symmetry_space_group_name_H-M    P1
_symmetry_Int_Tables_number       1
_symmetry_cell_setting            triclinic
loop_
_symmetry_equiv_pos_as_xyz
'x, y, z'
_cell_length_a     109.8913
_cell_length_b     109.91079
_cell_length_c     21.750901
_cell_angle_alpha  90.005902
_cell_angle_beta   90.014068
_cell_angle_gamma 120.01279
loop_
_atom_site_label
_atom_site_type_symbol
_atom_site_fract_x
_atom_site_fract_y
_atom_site_fract_z
_atom_type_partial_charge
In0 In 0.25692 0.05915 0.25689 0.0
O1 O 0.25844 0.05033 0.35026 0.0
O2 O 0.23826 0.04212 0.31004 0.0
C3 C 0.28465 0.07385 0.23022 0.0
C4 C 0.24734 0.04096 0.16147 0.0
C5 C 0.25095 0.07992 0.27473 0.0
O6 O 0.27947 0.06353 0.26664 0.0
O7 O 0.27588 0.07679 0.20741 0.0
O8 O 0.24615 0.07148 0.23004 0.0
O9 O 0.25853 0.07769 0.31145 0.0
C10 C 0.24547 0.04158 0.35388 0.0
O11 O 0.24217 0.0486 0.17503 0.0
O12 O 0.25744 0.04274 0.19507 0.0
In13 In 0.94482 0.1984 0.25176 0.0
O14 O 0.95376 0.2069 0.34731 0.0
O15 O 0.96222 0.19616 0.29748 0.0
C16 C 0.93108 0.21252 0.22622 0.0
C17 C 0.96397 0.20823 0.16078 0.0
C18 C 0.924 0.17153 0.26848 0.0
O19 O 0.93843 0.21488 0.27406 0.0
O20 O 0.93064 0.20307 0.19198 0.0
O21 O 0.93195 0.1754 0.2221 0.0
O22 O 0.92676 0.18112 0.3071 0.0
C23 C 0.9627 0.20288 0.34534 0.0
O24 O 0.9537 0.19581 0.16091 0.0
O25 O 0.96442 0.21567 0.20586 0.0
In26 In 0.80511 0.74809 0.24387 0.0
O27 O 0.80822 0.76291 0.16425 0.0
O28 O 0.78743 0.74658 0.18434 0.0
C29 C 0.83224 0.75475 0.25866 0.0
C30 C 0.7988 0.76038 0.33653 0.0
C31 C 0.79195 0.72016 0.22088 0.0
O32 O 0.82754 0.75662 0.20886 0.0
O33 O 0.82335 0.74984 0.30159 0.0
O34 O 0.78896 0.72521 0.26681 0.0
O35 O 0.80159 0.72917 0.18727 0.0
C36 C 0.79529 0.75706 0.15134 0.0
O37 O 0.79627 0.74785 0.33973 0.0
O38 O 0.80493 0.76676 0.288 0.0
In39 In 0.05897 0.25443 0.74846 0.0
O40 O 0.04942 0.24243 0.83751 0.0
O41 O 0.03968 0.2528 0.79461 0.0
C42 C 0.07962 0.24807 0.73316 0.0
C43 C 0.04108 0.24133 0.65458 0.0
C44 C 0.07321 0.28229 0.7741 0.0
O45 O 0.07202 0.24469 0.78058 0.0
O46 O 0.07657 0.25433 0.6927 0.0
O47 O 0.06612 0.27746 0.7255 0.0
O48 O 0.07313 0.27312 0.80908 0.0
C49 C 0.03959 0.24524 0.83844 0.0
O50 O 0.05013 0.25427 0.65305 0.0
O51 O 0.04146 0.23496 0.70216 0.0
In52 In 0.74703 0.80492 0.74225 0.0
O53 O 0.74654 0.7958 0.64663 0.0
O54 O 0.76591 0.80578 0.69493 0.0
C55 C 0.71944 0.79177 0.77145 0.0
C56 C 0.75603 0.7951 0.83459 0.0
C57 C 0.75304 0.83177 0.72537 0.0
O58 O 0.72396 0.78871 0.72393 0.0
O59 O 0.72881 0.80145 0.80383 0.0
O60 O 0.75841 0.82823 0.76804 0.0
O61 O 0.74496 0.82186 0.69025 0.0
C62 C 0.75932 0.79912 0.64771 0.0
O63 O 0.76066 0.80808 0.82667 0.0
O64 O 0.74672 0.78716 0.79674 0.0
In65 In 0.1991 0.94405 0.75542 0.0
O66 O 0.21304 0.95565 0.67326 0.0
O67 O 0.19581 0.95872 0.69235 0.0
C68 C 0.21165 0.92889 0.78218 0.0
C69 C 0.20835 0.96444 0.84111 0.0
C70 C 0.17208 0.92315 0.74443 0.0
O71 O 0.20972 0.93146 0.7276 0.0
O72 O 0.20721 0.93388 0.82277 0.0
O73 O 0.17708 0.92968 0.79417 0.0
O74 O 0.18062 0.92733 0.70012 0.0
C75 C 0.20643 0.96191 0.65935 0.0
O76 O 0.19539 0.95623 0.83162 0.0
O77 O 0.21644 0.96217 0.8081 0.0
In78 In 0.74782 0.9447 0.75233 0.0
O79 O 0.76237 0.95485 0.8347 0.0
O80 O 0.75114 0.96451 0.80011 0.0
C81 C 0.75311 0.92328 0.73793 0.0
C82 C 0.75921 0.9624 0.65633 0.0
C83 C 0.72008 0.93098 0.78081 0.0
O84 O 0.75552 0.93013 0.78724 0.0
O85 O 0.74823 0.92736 0.69526 0.0
O86 O 0.7245 0.9348 0.72677 0.0
O87 O 0.72959 0.93402 0.82008 0.0
C88 C 0.75982 0.96482 0.83891 0.0
O89 O 0.74617 0.95584 0.66718 0.0
O90 O 0.76645 0.95958 0.69248 0.0
In91 In 0.05909 0.80521 0.74773 0.0
O92 O 0.04832 0.79299 0.66084 0.0
O93 O 0.04469 0.80954 0.68686 0.0
C94 C 0.07279 0.79116 0.77492 0.0
C95 C 0.03958 0.79622 0.83774 0.0
C96 C 0.08033 0.83193 0.73171 0.0
O97 O 0.06737 0.79043 0.72297 0.0
O98 O 0.07125 0.79891 0.81317 0.0
O99 O 0.07046 0.82876 0.76935 0.0
O100 O 0.07926 0.82171 0.70099 0.0
C101 C 0.04195 0.79963 0.64989 0.0
O102 O 0.05087 0.80788 0.8406 0.0
O103 O 0.03829 0.7891 0.79028 0.0
In104 In 0.1987 0.25561 0.746 0.0
O105 O 0.21163 0.25761 0.66048 0.0
O106 O 0.19539 0.23721 0.68516 0.0
C107 C 0.21137 0.28314 0.7758 0.0
C108 C 0.20798 0.24555 0.8367 0.0
C109 C 0.17197 0.24991 0.72857 0.0
O110 O 0.21272 0.27888 0.72375 0.0
O111 O 0.20357 0.27352 0.81275 0.0
O112 O 0.17528 0.24399 0.76965 0.0
O113 O 0.18207 0.25846 0.69549 0.0
C114 C 0.20538 0.24462 0.64909 0.0
O115 O 0.1951 0.24146 0.8293 0.0
O116 O 0.21608 0.25478 0.79904 0.0
In117 In 0.94438 0.74839 0.25056 0.0
O118 O 0.95287 0.75959 0.15846 0.0
O119 O 0.96523 0.75312 0.20875 0.0
C120 C 0.92327 0.754 0.26803 0.0
C121 C 0.96141 0.75956 0.349 0.0
C122 C 0.93058 0.72082 0.22012 0.0
O123 O 0.93323 0.76088 0.23097 0.0
O124 O 0.92415 0.74456 0.2972 0.0
O125 O 0.93567 0.72514 0.27294 0.0
O126 O 0.93249 0.73038 0.18276 0.0
C127 C 0.9641 0.75911 0.16152 0.0
O128 O 0.95511 0.74659 0.33694 0.0
O129 O 0.95865 0.76684 0.31285 0.0
In130 In 0.25632 0.19798 0.2478 0.0
O131 O 0.25835 0.21096 0.3331 0.0
O132 O 0.23786 0.19507 0.30656 0.0
C133 C 0.28404 0.2106 0.22146 0.0
C134 C 0.24582 0.20725 0.15901 0.0
C135 C 0.25062 0.17117 0.26226 0.0
O136 O 0.27955 0.21168 0.27343 0.0
O137 O 0.27459 0.20311 0.18332 0.0
O138 O 0.24858 0.17574 0.21244 0.0
O139 O 0.25527 0.18003 0.30538 0.0
C140 C 0.2453 0.20493 0.34323 0.0
O141 O 0.24032 0.19438 0.17239 0.0
O142 O 0.25662 0.21529 0.18981 0.0
In143 In 0.80544 0.05921 0.25373 0.0
O144 O 0.80846 0.05187 0.15915 0.0
O145 O 0.79102 0.03761 0.21325 0.0
C146 C 0.83189 0.08072 0.27306 0.0
C147 C 0.79942 0.04251 0.35334 0.0
C148 C 0.79052 0.07171 0.22151 0.0
O149 O 0.82929 0.07032 0.23968 0.0
O150 O 0.82122 0.08012 0.29763 0.0
O151 O 0.78984 0.06672 0.27446 0.0
O152 O 0.79868 0.07037 0.18499 0.0
C153 C 0.79779 0.03978 0.16389 0.0
O154 O 0.79251 0.04846 0.33919 0.0
O155 O 0.80975 0.04546 0.31864 0.0
In156 In 0.92286 0.39261 0.58561 0.0
O157 O 0.91135 0.38455 0.49352 0.0
O158 O 0.91846 0.37224 0.53963 0.0
C159 C 0.91676 0.41325 0.60474 0.0
C160 C 0.91107 0.37601 0.68452 0.0
C161 C 0.95067 0.40638 0.55802 0.0
O162 O 0.91225 0.40513 0.55892 0.0
O163 O 0.92403 0.41072 0.64199 0.0
O164 O 0.94524 0.3962 0.59501 0.0
O165 O 0.94215 0.40963 0.53532 0.0
C166 C 0.91213 0.37348 0.49395 0.0
O167 O 0.92418 0.38413 0.67956 0.0
O168 O 0.90389 0.37678 0.64096 0.0
In169 In 0.61196 0.53134 0.58667 0.0
O170 O 0.61952 0.52825 0.49283 0.0
O171 O 0.63326 0.54634 0.54499 0.0
C172 C 0.59074 0.50477 0.60634 0.0
C173 C 0.62899 0.53766 0.68541 0.0
C174 C 0.59856 0.54544 0.55488 0.0
O175 O 0.6009 0.50756 0.57094 0.0
O176 O 0.59149 0.51531 0.63291 0.0
O177 O 0.60362 0.54626 0.60781 0.0
O178 O 0.60033 0.5376 0.51807 0.0
C179 C 0.63134 0.53933 0.49654 0.0
O180 O 0.62298 0.54452 0.67129 0.0
O181 O 0.62594 0.52725 0.65112 0.0
In182 In 0.47211 0.0794 0.57932 0.0
O183 O 0.45607 0.07676 0.65202 0.0
O184 O 0.47568 0.09571 0.65368 0.0
C185 C 0.46024 0.05201 0.54769 0.0
C186 C 0.46382 0.09096 0.4913 0.0
C187 C 0.49891 0.08526 0.59445 0.0
O188 O 0.46128 0.05603 0.60277 0.0
O189 O 0.4653 0.0618 0.50861 0.0
O190 O 0.49536 0.09083 0.55259 0.0
O191 O 0.48902 0.077 0.62925 0.0
C192 C 0.46354 0.08864 0.67633 0.0
O193 O 0.47667 0.09541 0.50214 0.0
O194 O 0.45541 0.08071 0.52395 0.0
In195 In 0.72664 0.58912 0.08602 0.0
O196 O 0.71632 0.5745 0.16797 0.0
O197 O 0.70675 0.58578 0.13307 0.0
C198 C 0.74811 0.58377 0.07495 0.0
C199 C 0.70906 0.57785 0.9894 0.0
C200 C 0.74046 0.61693 0.11334 0.0
O201 O 0.74134 0.58187 0.12414 0.0
O202 O 0.74389 0.5881 0.03066 0.0
O203 O 0.73738 0.61242 0.05897 0.0
O204 O 0.73659 0.60746 0.15351 0.0
C205 C 0.70637 0.57707 0.17188 0.0
O206 O 0.71553 0.59086 0.00087 0.0
O207 O 0.71191 0.57058 0.02523 0.0
In208 In 0.41417 0.13697 0.07905 0.0
O209 O 0.41153 0.12147 0.00368 0.0
O210 O 0.43096 0.14058 0.00698 0.0
C211 C 0.38671 0.12495 0.10902 0.0
C212 C 0.42536 0.12887 0.17016 0.0
C213 C 0.41949 0.16348 0.06043 0.0
O214 O 0.39091 0.12219 0.05978 0.0
O215 O 0.39635 0.13393 0.14296 0.0
O216 O 0.42509 0.16025 0.10331 0.0
O217 O 0.41143 0.15339 0.02589 0.0
C218 C 0.42369 0.12876 0.9817 0.0
O219 O 0.43084 0.14152 0.15339 0.0
O220 O 0.41425 0.12057 0.14205 0.0
In221 In 0.86624 0.27822 0.08291 0.0
O222 O 0.86226 0.28747 0.16978 0.0
O223 O 0.8823 0.29879 0.127 0.0
C224 C 0.83966 0.25676 0.06584 0.0
C225 C 0.87238 0.29582 0.98661 0.0
C226 C 0.88029 0.26462 0.11289 0.0
O227 O 0.8433 0.26466 0.11236 0.0
O228 O 0.84934 0.25985 0.02727 0.0
O229 O 0.87985 0.26847 0.05876 0.0
O230 O 0.87366 0.26758 0.15163 0.0
C231 C 0.87436 0.29825 0.16997 0.0
O232 O 0.87947 0.29002 -0.00017 0.0
O233 O 0.8618 0.29229 0.02051 0.0
In234 In 0.41466 0.27664 0.08129 0.0
O235 O 0.41261 0.28754 0.99588 0.0
O236 O 0.43309 0.29197 0.02153 0.0
C237 C 0.38697 0.26182 0.10867 0.0
C238 C 0.42545 0.29654 0.16957 0.0
C239 C 0.4201 0.25533 0.06742 0.0
O240 O 0.39141 0.26712 0.05624 0.0
O241 O 0.39646 0.26393 0.14683 0.0
O242 O 0.42252 0.26223 0.11662 0.0
O243 O 0.41523 0.25936 0.02454 0.0
C244 C 0.42564 0.29444 0.98512 0.0
O245 O 0.43058 0.28879 0.1574 0.0
O246 O 0.41488 0.29412 0.13775 0.0
In247 In 0.72695 0.13814 0.07062 0.0
O248 O 0.71536 0.12474 0.98744 0.0
O249 O 0.71411 0.14317 0.00326 0.0
C250 C 0.73935 0.12307 0.10194 0.0
C251 C 0.7073 0.13053 0.15937 0.0
C252 C 0.74869 0.16458 0.05375 0.0
O253 O 0.73519 0.1232 0.048 0.0
O254 O 0.73724 0.13049 0.13985 0.0
O255 O 0.73823 0.16193 0.08686 0.0
O256 O 0.74802 0.15398 0.02811 0.0
C257 C 0.71025 0.13228 0.97105 0.0
O258 O 0.71949 0.14101 0.16525 0.0
O259 O 0.70515 0.12396 0.10948 0.0
In260 In 0.8668 0.59004 0.08546 0.0
O261 O 0.86222 0.57183 0.15122 0.0
O262 O 0.88159 0.59092 0.16005 0.0
C263 C 0.8401 0.58451 0.07077 0.0
C264 C 0.87634 0.58086 0.99162 0.0
C265 C 0.87874 0.61777 0.10933 0.0
O266 O 0.84378 0.57957 0.11477 0.0
O267 O 0.84981 0.59197 0.03348 0.0
O268 O 0.87982 0.61314 0.05764 0.0
O269 O 0.87149 0.60842 0.14837 0.0
C270 C 0.87387 0.57852 0.17869 0.0
O271 O 0.88414 0.59168 0.02263 0.0
O272 O 0.86352 0.57489 0.00608 0.0
In273 In 0.61261 0.08182 0.57333 0.0
O274 O 0.62112 0.08085 0.66785 0.0
O275 O 0.62902 0.10092 0.62634 0.0
C276 C 0.59872 0.05395 0.54724 0.0
C277 C 0.63189 0.09244 0.48243 0.0
C278 C 0.59156 0.08751 0.58903 0.0
O279 O 0.60844 0.05933 0.58652 0.0
O280 O 0.59597 0.06256 0.52158 0.0
O281 O 0.59883 0.09056 0.5406 0.0
O282 O 0.59514 0.08188 0.63057 0.0
C283 C 0.62963 0.09391 0.67099 0.0
O284 O 0.6223 0.0955 0.48788 0.0
O285 O 0.63155 0.08388 0.5218 0.0
In286 In 0.9243 0.53228 0.58533 0.0
O287 O 0.91009 0.52793 0.50083 0.0
O288 O 0.92012 0.54836 0.54015 0.0
C289 C 0.919 0.50578 0.60555 0.0
C290 C 0.91539 0.54015 0.68556 0.0
C291 C 0.95139 0.54523 0.54794 0.0
O292 O 0.91158 0.50849 0.56995 0.0
O293 O 0.92884 0.51637 0.63173 0.0
O294 O 0.94786 0.54565 0.60272 0.0
O295 O 0.94126 0.53815 0.5119 0.0
C296 C 0.91198 0.54025 0.4993 0.0
O297 O 0.92756 0.54737 0.66343 0.0
O298 O 0.90782 0.52855 0.65887 0.0
In299 In 0.47273 0.39202 0.58299 0.0
O300 O 0.45951 0.38083 0.66736 0.0
O301 O 0.47559 0.37644 0.6421 0.0
C302 C 0.4602 0.40726 0.55746 0.0
C303 C 0.46358 0.37248 0.49314 0.0
C304 C 0.4996 0.41303 0.59794 0.0
O305 O 0.45928 0.40175 0.60944 0.0
O306 O 0.46749 0.40515 0.51878 0.0
O307 O 0.49514 0.40618 0.54858 0.0
O308 O 0.49059 0.40909 0.64036 0.0
C309 C 0.46557 0.37387 0.67805 0.0
O310 O 0.47646 0.38003 0.50609 0.0
O311 O 0.45545 0.37492 0.52495 0.0
In312 In 0.5894 0.72602 0.92207 0.0
O313 O 0.57243 0.71366 0.84946 0.0
O314 O 0.58766 0.70763 0.86807 0.0
C315 C 0.58354 0.74705 0.93386 0.0
C316 C 0.5804 0.70866 0.02025 0.0
C317 C 0.61695 0.74114 0.89188 0.0
O318 O 0.58144 0.74017 0.88473 0.0
O319 O 0.58833 0.74313 0.97757 0.0
O320 O 0.61282 0.73791 0.94668 0.0
O321 O 0.60722 0.73689 0.85269 0.0
C322 C 0.57693 0.70534 0.83795 0.0
O323 O 0.59264 0.71383 0.99857 0.0
O324 O 0.57279 0.71272 0.99403 0.0
In325 In 0.2775 0.8635 0.91246 0.0
O326 O 0.28852 0.87712 0.99644 0.0
O327 O 0.29247 0.86054 0.97516 0.0
C328 C 0.2631 0.87697 0.88806 0.0
C329 C 0.29774 0.87184 0.82647 0.0
C330 C 0.25611 0.83656 0.91711 0.0
O331 O 0.26407 0.87317 0.94173 0.0
O332 O 0.26933 0.87399 0.8474 0.0
O333 O 0.26208 0.84255 0.86764 0.0
O334 O 0.26114 0.84404 0.96453 0.0
C335 C 0.29517 0.87085 0.00949 0.0
O336 O 0.28942 0.85899 0.83776 0.0
O337 O 0.29573 0.88028 0.85819 0.0
In338 In 0.13843 0.41308 0.9103 0.0
O339 O 0.12501 0.41109 0.99386 0.0
O340 O 0.14168 0.43145 0.97071 0.0
C341 C 0.12553 0.38534 0.88418 0.0
C342 C 0.12918 0.42379 0.82257 0.0
C343 C 0.16527 0.41872 0.92263 0.0
O344 O 0.1255 0.38988 0.9375 0.0
O345 O 0.13217 0.39476 0.84466 0.0
O346 O 0.16047 0.42055 0.873 0.0
O347 O 0.15662 0.41429 0.96656 0.0
C348 C 0.13139 0.42408 0.00553 0.0
O349 O 0.14209 0.42913 0.83506 0.0
O350 O 0.12112 0.41307 0.85371 0.0
In351 In 0.39276 0.92104 0.41252 0.0
O352 O 0.38109 0.90484 0.4883 0.0
O353 O 0.37465 0.91969 0.46741 0.0
C354 C 0.41386 0.91509 0.40601 0.0
C355 C 0.37479 0.91068 0.31648 0.0
C356 C 0.4075 0.94895 0.43655 0.0
O357 O 0.40803 0.9151 0.45593 0.0
O358 O 0.40886 0.9178 0.35919 0.0
O359 O 0.40647 0.94411 0.38296 0.0
O360 O 0.40115 0.93977 0.47727 0.0
C361 C 0.37276 0.90935 0.49963 0.0
O362 O 0.38151 0.92361 0.32932 0.0
O363 O 0.37757 0.90309 0.35052 0.0
In364 In 0.08051 0.47014 0.40824 0.0
O365 O 0.09499 0.47402 0.49061 0.0
O366 O 0.08083 0.45292 0.46475 0.0
C367 C 0.08626 0.49685 0.39162 0.0
C368 C 0.09196 0.46446 0.31005 0.0
C369 C 0.05293 0.45691 0.43802 0.0
O370 O 0.09141 0.49325 0.43504 0.0
O371 O 0.07842 0.48701 0.35553 0.0
O372 O 0.05773 0.45258 0.39593 0.0
O373 O 0.062 0.46793 0.46471 0.0
C374 C 0.09046 0.46115 0.50058 0.0
O375 O 0.07892 0.45974 0.31509 0.0
O376 O 0.09923 0.47248 0.35311 0.0
In377 In 0.53288 0.61069 0.42266 0.0
O378 O 0.52789 0.62356 0.49114 0.0
O379 O 0.54839 0.62618 0.49115 0.0
C380 C 0.50614 0.58945 0.40976 0.0
C381 C 0.54188 0.62937 0.329 0.0
C382 C 0.5452 0.59514 0.44496 0.0
O383 O 0.51078 0.59628 0.45914 0.0
O384 O 0.51492 0.59353 0.36625 0.0
O385 O 0.54539 0.60015 0.39247 0.0
O386 O 0.53866 0.59781 0.48543 0.0
C387 C 0.54011 0.62977 0.51381 0.0
O388 O 0.5496 0.62551 0.35536 0.0
O389 O 0.52937 0.62341 0.34819 0.0
In390 In 0.08167 0.61009 0.40852 0.0
O391 O 0.07875 0.62512 0.34578 0.0
O392 O 0.09594 0.62196 0.32756 0.0
C393 C 0.05344 0.5976 0.4227 0.0
C394 C 0.09626 0.6267 0.50425 0.0
C395 C 0.08712 0.58872 0.39977 0.0
O396 O 0.06195 0.60915 0.4474 0.0
O397 O 0.05912 0.59245 0.38926 0.0
O398 O 0.08778 0.59477 0.44997 0.0
O399 O 0.08393 0.59358 0.35392 0.0
C400 C 0.08943 0.62829 0.31324 0.0
O401 O 0.0843 0.61592 0.51018 0.0
O402 O 0.10116 0.62877 0.45043 0.0
In403 In 0.39345 0.47108 0.41742 0.0
O404 O 0.38254 0.45832 0.33144 0.0
O405 O 0.37834 0.47447 0.35714 0.0
C406 C 0.40831 0.45838 0.44671 0.0
C407 C 0.37396 0.46165 0.50752 0.0
C408 C 0.4147 0.49777 0.40158 0.0
O409 O 0.40265 0.45703 0.39474 0.0
O410 O 0.40652 0.46618 0.4838 0.0
O411 O 0.4058 0.49429 0.44425 0.0
O412 O 0.4127 0.48787 0.36605 0.0
C413 C 0.37578 0.46457 0.3206 0.0
O414 O 0.38229 0.47458 0.49854 0.0
O415 O 0.37563 0.45358 0.47172 0.0
In416 In 0.53293 0.92288 0.41947 0.0
O417 O 0.54035 0.92212 0.32172 0.0
O418 O 0.53122 0.90339 0.37501 0.0
C419 C 0.54703 0.95085 0.44213 0.0
C420 C 0.54279 0.91426 0.51317 0.0
C421 C 0.50593 0.91627 0.40315 0.0
O422 O 0.55112 0.94528 0.40255 0.0
O423 O 0.53589 0.94237 0.4697 0.0
O424 O 0.50971 0.9112 0.44623 0.0
O425 O 0.51569 0.92435 0.36738 0.0
C426 C 0.5371 0.90936 0.32541 0.0
O427 O 0.5305 0.91247 0.51338 0.0
O428 O 0.55007 0.92064 0.46681 0.0
In429 In 0.27817 0.41352 0.91921 0.0
O430 O 0.28923 0.41163 0.00452 0.0
O431 O 0.29316 0.43196 0.98012 0.0
C432 C 0.26311 0.38593 0.89059 0.0
C433 C 0.29769 0.42358 0.82925 0.0
C434 C 0.25695 0.41905 0.93386 0.0
O435 O 0.26865 0.39026 0.94274 0.0
O436 O 0.26512 0.39552 0.85303 0.0
O437 O 0.26573 0.42416 0.8906 0.0
O438 O 0.25907 0.41142 0.97062 0.0
C439 C 0.29587 0.42461 0.016 0.0
O440 O 0.28965 0.42847 0.83935 0.0
O441 O 0.29573 0.41356 0.86387 0.0
In442 In 0.58955 0.8655 0.92352 0.0
O443 O 0.57864 0.86335 0.83134 0.0
O444 O 0.58645 0.88256 0.88076 0.0
C445 C 0.58395 0.83876 0.93975 0.0
C446 C 0.57656 0.86993 0.01893 0.0
C447 C 0.6172 0.87984 0.89481 0.0
O448 O 0.5777 0.84203 0.90006 0.0
O449 O 0.59272 0.84889 0.97206 0.0
O450 O 0.61249 0.88183 0.94447 0.0
O451 O 0.60799 0.87067 0.86011 0.0
C452 C 0.58006 0.87548 0.8339 0.0
O453 O 0.58963 0.87444 0.01875 0.0
O454 O 0.57006 0.86271 0.97258 0.0
In455 In 0.13707 0.72418 0.90231 0.0
O456 O 0.12014 0.70971 0.96977 0.0
O457 O 0.14048 0.71238 0.98136 0.0
C458 C 0.12456 0.73937 0.87614 0.0
C459 C 0.13065 0.70449 0.81449 0.0
C460 C 0.16373 0.74564 0.91481 0.0
O461 O 0.12453 0.73478 0.92932 0.0
O462 O 0.131 0.73641 0.83618 0.0
O463 O 0.15966 0.73757 0.86877 0.0
O464 O 0.15442 0.74275 0.95513 0.0
C465 C 0.12788 0.70637 -0.00069 0.0
O466 O 0.14272 0.71117 0.83824 0.0
O467 O 0.12204 0.708 0.83396 0.0
H468 H 0.23013 0.97205 0.58924 0.0
H469 H 0.19416 0.97707 0.62333 0.0
H470 H 0.23933 0.99163 0.51688 0.0
H471 H 0.20345 0.99678 0.55161 0.0
H472 H 0.21794 0.02162 0.36918 0.0
H473 H 0.20816 0.00211 0.44191 0.0
H474 H 0.24944 0.01725 0.51987 0.0
H475 H 0.25926 0.03666 0.44647 0.0
C476 C 0.22415 0.97728 0.58098 0.0
C477 C 0.21142 0.97301 0.61189 0.0
C478 C 0.22948 0.98859 0.53999 0.0
C479 C 0.22218 0.99584 0.52889 0.0
C480 C 0.20929 0.99135 0.55883 0.0
C481 C 0.20398 0.98008 0.59998 0.0
C482 C 0.2249 0.02086 0.40226 0.0
C483 C 0.23937 0.03066 0.40209 0.0
C484 C 0.21929 0.0097 0.44401 0.0
C485 C 0.22803 0.00806 0.48635 0.0
C486 C 0.24246 0.01808 0.48714 0.0
C487 C 0.24806 0.02927 0.44551 0.0
H488 H 0.01572 0.21754 0.66746 0.0
H489 H 0.04131 0.24982 0.53632 0.0
H490 H 0.99641 0.20728 0.59308 0.0
H491 H 0.02208 0.23924 0.46128 0.0
H492 H 0.98791 0.20417 0.33174 0.0
H493 H 0.00722 0.21285 0.40605 0.0
H494 H 0.98182 0.21923 0.53903 0.0
H495 H 0.9626 0.21095 0.46407 0.0
C496 C 0.01729 0.2223 0.6224 0.0
C497 C 0.03001 0.23446 0.6075 0.0
C498 C 0.00623 0.21647 0.58014 0.0
C499 C 0.00782 0.2225 0.52177 0.0
C500 C 0.02067 0.23439 0.50606 0.0
C501 C 0.03163 0.24043 0.54887 0.0
C502 C 0.9864 0.2073 0.37704 0.0
C503 C 0.97376 0.20688 0.3923 0.0
C504 C 0.99746 0.21232 0.41926 0.0
C505 C 0.99595 0.21668 0.47794 0.0
C506 C 0.98317 0.21586 0.494 0.0
C507 C 0.97222 0.21115 0.45123 0.0
H508 H 0.79522 0.78295 0.32211 0.0
H509 H 0.79127 0.75211 0.45573 0.0
H510 H 0.78584 0.79279 0.39678 0.0
H511 H 0.78222 0.76226 0.53103 0.0
H512 H 0.78295 0.79726 0.65923 0.0
H513 H 0.79293 0.78808 0.5843 0.0
H514 H 0.76045 0.78147 0.45471 0.0
H515 H 0.75017 0.79031 0.53037 0.0
C516 C 0.7925 0.77838 0.36768 0.0
C517 C 0.79399 0.76678 0.38327 0.0
C518 C 0.78706 0.78396 0.41012 0.0
C519 C 0.78331 0.77824 0.46937 0.0
C520 C 0.7851 0.76686 0.48556 0.0
C521 C 0.79025 0.76106 0.4426 0.0
C522 C 0.77799 0.79394 0.6146 0.0
C523 C 0.7658 0.79452 0.60047 0.0
C524 C 0.78365 0.78861 0.57202 0.0
C525 C 0.77742 0.78407 0.51403 0.0
C526 C 0.76544 0.78496 0.49919 0.0
C527 C 0.75958 0.79 0.54235 0.0
H528 H 0.78712 0.98 0.63323 0.0
H529 H 0.74567 0.97007 0.57345 0.0
H530 H 0.79756 0.99991 0.56248 0.0
H531 H 0.75607 0.98973 0.5018 0.0
H532 H 0.77761 0.03453 0.43318 0.0
H533 H 0.76838 0.01508 0.50603 0.0
H534 H 0.80113 0.00622 0.45443 0.0
H535 H 0.81056 0.02591 0.38254 0.0
C536 C 0.78025 0.98195 0.60432 0.0
C537 C 0.76558 0.9735 0.60898 0.0
C538 C 0.78623 0.99335 0.56372 0.0
C539 C 0.77765 0.99652 0.52692 0.0
C540 C 0.76298 0.98778 0.53041 0.0
C541 C 0.75701 0.97642 0.57104 0.0
C542 C 0.78294 0.02853 0.43794 0.0
C543 C 0.79479 0.03173 0.40209 0.0
C544 C 0.77757 0.0173 0.47924 0.0
C545 C 0.7839 0.00896 0.4855 0.0
C546 C 0.79605 0.01246 0.45104 0.0
C547 C 0.80144 0.02374 0.40978 0.0
H548 H 0.02464 0.81027 0.62608 0.0
H549 H 0.03422 0.7785 0.56665 0.0
H550 H 0.00469 0.80087 0.55535 0.0
H551 H 0.01451 0.76929 0.49524 0.0
H552 H 0.9694 0.74597 0.43013 0.0
H553 H 0.98905 0.75637 0.50189 0.0
H554 H 0.99823 0.79787 0.44663 0.0
H555 H 0.97834 0.78743 0.37559 0.0
C556 C 0.02261 0.80142 0.59722 0.0
C557 C 0.03096 0.79509 0.60204 0.0
C558 C 0.01119 0.79604 0.55667 0.0
C559 C 0.00789 0.78422 0.52019 0.0
C560 C 0.01657 0.77822 0.52364 0.0
C561 C 0.02796 0.78358 0.56413 0.0
C562 C 0.9755 0.75731 0.43381 0.0
C563 C 0.97234 0.76588 0.39715 0.0
C564 C 0.98686 0.76328 0.4745 0.0
C565 C 0.99534 0.77796 0.47939 0.0
C566 C 0.99187 0.78653 0.4442 0.0
C567 C 0.98049 0.78055 0.40346 0.0
H568 H 0.2175 0.19467 0.36837 0.0
H569 H 0.25916 0.22639 0.42492 0.0
H570 H 0.20731 0.20409 0.44061 0.0
H571 H 0.24899 0.23564 0.49799 0.0
H572 H 0.227 0.25856 0.56841 0.0
H573 H 0.23631 0.24848 0.49524 0.0
H574 H 0.20437 0.20674 0.54987 0.0
H575 H 0.19489 0.21686 0.62225 0.0
C576 C 0.22448 0.20354 0.39681 0.0
C577 C 0.23913 0.20981 0.39091 0.0
C578 C 0.21864 0.20892 0.43829 0.0
C579 C 0.22733 0.2207 0.47471 0.0
C580 C 0.242 0.22673 0.46979 0.0
C581 C 0.24783 0.22135 0.42833 0.0
C582 C 0.22188 0.24724 0.56435 0.0
C583 C 0.21022 0.2385 0.60107 0.0
C584 C 0.2273 0.24145 0.52284 0.0
C585 C 0.22118 0.2268 0.51716 0.0
C586 C 0.20928 0.21806 0.5528 0.0
C587 C 0.20386 0.22386 0.59435 0.0
H588 H 0.92464 0.37093 0.77729 0.0
H589 H 0.88335 0.35659 0.70117 0.0
H590 H 0.91467 0.35144 0.85012 0.0
H591 H 0.87339 0.33697 0.77355 0.0
H592 H 0.85976 0.31093 0.954 0.0
H593 H 0.86877 0.33091 0.88356 0.0
H594 H 0.90449 0.3259 0.84298 0.0
H595 H 0.8956 0.30609 0.91375 0.0
C596 C 0.91341 0.3637 0.77656 0.0
C597 C 0.90478 0.36527 0.73342 0.0
C598 C 0.90771 0.35246 0.81788 0.0
C599 C 0.89326 0.34256 0.81708 0.0
C600 C 0.88455 0.34445 0.77552 0.0
C601 C 0.89026 0.35568 0.73402 0.0
C602 C 0.86946 0.31402 0.92953 0.0
C603 C 0.87699 0.30696 0.93946 0.0
C604 C 0.87462 0.32546 0.88919 0.0
C605 C 0.88743 0.33009 0.85823 0.0
C606 C 0.89473 0.32277 0.86706 0.0
C607 C 0.88957 0.31133 0.90716 0.0
H608 H 0.63712 0.55962 0.76462 0.0
H609 H 0.64566 0.52659 0.7146 0.0
H610 H 0.65657 0.56888 0.83748 0.0
H611 H 0.66537 0.53605 0.78646 0.0
H612 H 0.69148 0.54997 0.96552 0.0
H613 H 0.67165 0.5396 0.89429 0.0
H614 H 0.68189 0.58115 0.8344 0.0
H615 H 0.70146 0.59147 0.9066 0.0
C616 C 0.64311 0.55429 0.76948 0.0
C617 C 0.63987 0.54239 0.73386 0.0
C618 C 0.65435 0.55967 0.8108 0.0
C619 C 0.66266 0.55332 0.8173 0.0
C620 C 0.65914 0.54115 0.78293 0.0
C621 C 0.64786 0.53574 0.74167 0.0
C622 C 0.68956 0.55687 0.93668 0.0
C623 C 0.69801 0.57153 0.94175 0.0
C624 C 0.67821 0.55093 0.89579 0.0
C625 C 0.67507 0.55954 0.85904 0.0
C626 C 0.68381 0.57421 0.86293 0.0
C627 C 0.69512 0.58013 0.90389 0.0
H628 H 0.47823 0.11107 0.75319 0.0
H629 H 0.43616 0.07918 0.70331 0.0
H630 H 0.46867 0.12086 0.82688 0.0
H631 H 0.42654 0.08936 0.77352 0.0
H632 H 0.41276 0.10162 0.94617 0.0
H633 H 0.42273 0.09191 0.87541 0.0
H634 H 0.45714 0.13376 0.83785 0.0
H635 H 0.44746 0.14334 0.91207 0.0
C636 C 0.46694 0.10618 0.75799 0.0
C637 C 0.45794 0.09429 0.72307 0.0
C638 C 0.46142 0.11188 0.7997 0.0
C639 C 0.44678 0.10595 0.80646 0.0
C640 C 0.43785 0.09406 0.77098 0.0
C641 C 0.44336 0.08823 0.73037 0.0
C642 C 0.42241 0.10876 0.92249 0.0
C643 C 0.42931 0.12324 0.93444 0.0
C644 C 0.42813 0.1032 0.88152 0.0
C645 C 0.44077 0.11201 0.85036 0.0
C646 C 0.44754 0.12658 0.86166 0.0
C647 C 0.44193 0.13212 0.90367 0.0
H648 H 0.47581 0.35635 0.70407 0.0
H649 H 0.44394 0.36621 0.7587 0.0
H650 H 0.4663 0.33676 0.77652 0.0
H651 H 0.4346 0.34683 0.83195 0.0
H652 H 0.41171 0.30202 0.90381 0.0
H653 H 0.42181 0.32132 0.83014 0.0
H654 H 0.46354 0.3313 0.88584 0.0
H655 H 0.45341 0.3118 0.9587 0.0
C656 C 0.46688 0.35443 0.7321 0.0
C657 C 0.4606 0.3628 0.72564 0.0
C658 C 0.46144 0.34323 0.77371 0.0
C659 C 0.44961 0.34015 0.8097 0.0
C660 C 0.44355 0.34874 0.80412 0.0
C661 C 0.44898 0.35993 0.76255 0.0
C662 C 0.42304 0.30825 0.8999 0.0
C663 C 0.43177 0.3054 0.93705 0.0
C664 C 0.42883 0.3194 0.85809 0.0
C665 C 0.44349 0.32795 0.8525 0.0
C666 C 0.45222 0.32486 0.88864 0.0
C667 C 0.44641 0.31371 0.9305 0.0
H668 H 0.69625 0.1457 0.93353 0.0
H669 H 0.69923 0.10849 0.90148 0.0
H670 H 0.67626 0.13682 0.86322 0.0
H671 H 0.67941 0.09972 0.83067 0.0
H672 H 0.63432 0.08061 0.76617 0.0
H673 H 0.65405 0.09053 0.83778 0.0
H674 H 0.66977 0.13137 0.75442 0.0
H675 H 0.6499 0.12147 0.68335 0.0
C676 C 0.69277 0.13572 0.91077 0.0
C677 C 0.6993 0.12778 0.92308 0.0
C678 C 0.68132 0.13064 0.87051 0.0
C679 C 0.67614 0.11748 0.84193 0.0
C680 C 0.68296 0.10976 0.85291 0.0
C681 C 0.69441 0.11485 0.89299 0.0
C682 C 0.64188 0.09174 0.76368 0.0
C683 C 0.64057 0.10025 0.71906 0.0
C684 C 0.65327 0.0974 0.80429 0.0
C685 C 0.66359 0.11171 0.80125 0.0
C686 C 0.66198 0.12033 0.75813 0.0
C687 C 0.6506 0.11465 0.71739 0.0
H688 H 0.92775 0.56683 0.72946 0.0
H689 H 0.89077 0.52595 0.74999 0.0
H690 H 0.91813 0.57667 0.80152 0.0
H691 H 0.88134 0.53563 0.82496 0.0
H692 H 0.86181 0.5602 0.90667 0.0
H693 H 0.87131 0.55016 0.83391 0.0
H694 H 0.9131 0.57783 0.90439 0.0
H695 H 0.90365 0.58825 0.97436 0.0
C696 C 0.91766 0.55988 0.7504 0.0
C697 C 0.91003 0.54561 0.73421 0.0
C698 C 0.91214 0.56552 0.79203 0.0
C699 C 0.89892 0.55698 0.81936 0.0
C700 C 0.89143 0.54259 0.8041 0.0
C701 C 0.89689 0.537 0.76165 0.0
C702 C 0.87303 0.56419 0.90601 0.0
C703 C 0.882 0.57508 0.94577 0.0
C704 C 0.87849 0.55835 0.8648 0.0
C705 C 0.89301 0.56314 0.86311 0.0
C706 C 0.90192 0.57403 0.90328 0.0
C707 C 0.8965 0.57999 0.94368 0.0
H708 H 0.52702 0.63621 0.24899 0.0
H709 H 0.56923 0.6484 0.30601 0.0
H710 H 0.53636 0.6555 0.17504 0.0
H711 H 0.57857 0.6681 0.23518 0.0
H712 H 0.59228 0.69357 0.06004 0.0
H713 H 0.58275 0.6742 0.13253 0.0
H714 H 0.54704 0.67991 0.16372 0.0
H715 H 0.55632 0.69887 0.0881 0.0
C716 C 0.5383 0.64306 0.24579 0.0
C717 C 0.54741 0.64074 0.2828 0.0
C718 C 0.54367 0.65422 0.20388 0.0
C719 C 0.55826 0.66346 0.19887 0.0
C720 C 0.56731 0.6611 0.23648 0.0
C721 C 0.56196 0.64981 0.27743 0.0
C722 C 0.58244 0.69075 0.08272 0.0
C723 C 0.57506 0.69775 0.06854 0.0
C724 C 0.57697 0.67965 0.12464 0.0
C725 C 0.56408 0.67541 0.15442 0.0
C726 C 0.55685 0.68266 0.141 0.0
C727 C 0.56222 0.69363 0.09814 0.0
H728 H 0.36693 0.92482 0.23741 0.0
H729 H 0.35737 0.88302 0.28909 0.0
H730 H 0.34752 0.91486 0.16405 0.0
H731 H 0.33775 0.87304 0.21709 0.0
H732 H 0.31256 0.8606 0.03723 0.0
H733 H 0.33213 0.87023 0.10957 0.0
H734 H 0.3222 0.90216 0.16281 0.0
H735 H 0.30286 0.89273 0.08912 0.0
C736 C 0.36071 0.91351 0.23292 0.0
C737 C 0.36369 0.90471 0.2689 0.0
C738 C 0.3495 0.90779 0.19132 0.0
C739 C 0.34098 0.89313 0.18493 0.0
C740 C 0.34415 0.88436 0.22028 0.0
C741 C 0.35539 0.89008 0.2617 0.0
C742 C 0.31449 0.86961 0.06476 0.0
C743 C 0.30618 0.87591 0.05748 0.0
C744 C 0.32569 0.87511 0.10637 0.0
C745 C 0.32882 0.88703 0.14183 0.0
C746 C 0.32027 0.89314 0.13545 0.0
C747 C 0.3091 0.88765 0.09366 0.0
H748 H 0.11966 0.47304 0.29155 0.0
H749 H 0.07816 0.44519 0.21944 0.0
H750 H 0.12961 0.46352 0.21854 0.0
H751 H 0.08812 0.43579 0.14587 0.0
H752 H 0.1083 0.41053 0.07909 0.0
H753 H 0.09903 0.42098 0.15067 0.0
H754 H 0.13373 0.46224 0.10819 0.0
H755 H 0.1431 0.45175 0.03709 0.0
C756 C 0.11269 0.46502 0.25951 0.0
C757 C 0.09812 0.45983 0.2613 0.0
C758 C 0.11839 0.45959 0.21762 0.0
C759 C 0.10964 0.44881 0.17681 0.0
C760 C 0.09512 0.44392 0.17745 0.0
C761 C 0.08942 0.44939 0.21918 0.0
C762 C 0.11401 0.42181 0.08544 0.0
C763 C 0.12643 0.43032 0.05253 0.0
C764 C 0.10863 0.42782 0.12599 0.0
C765 C 0.11557 0.44245 0.13467 0.0
C766 C 0.12818 0.45093 0.10278 0.0
C767 C 0.13353 0.44492 0.06203 0.0
H768 H 0.07967 0.64616 0.28752 0.0
H769 H 0.11083 0.63541 0.23179 0.0
H770 H 0.08917 0.66547 0.21404 0.0
H771 H 0.12005 0.6544 0.15658 0.0
H772 H 0.14259 0.69828 0.07401 0.0
H773 H 0.13312 0.67943 0.15009 0.0
H774 H 0.09105 0.67062 0.10741 0.0
H775 H 0.10057 0.68975 0.03326 0.0
C776 C 0.08843 0.64782 0.25891 0.0
C777 C 0.09451 0.63928 0.26537 0.0
C778 C 0.09386 0.65887 0.2166 0.0
C779 C 0.10543 0.66156 0.17941 0.0
C780 C 0.11132 0.65282 0.18523 0.0
C781 C 0.10595 0.64184 0.22791 0.0
C782 C 0.13133 0.69238 0.0814 0.0
C783 C 0.12233 0.69551 0.04785 0.0
C784 C 0.12588 0.68149 0.12456 0.0
C785 C 0.1113 0.67342 0.13474 0.0
C786 C 0.10234 0.67671 0.10151 0.0
C787 C 0.10779 0.68765 0.05877 0.0
H788 H 0.36819 0.4432 0.23859 0.0
H789 H 0.35833 0.47495 0.29533 0.0
H790 H 0.3487 0.43393 0.16583 0.0
H791 H 0.33864 0.4655 0.22337 0.0
H792 H 0.31306 0.45242 0.04252 0.0
H793 H 0.33276 0.46268 0.11442 0.0
H794 H 0.32323 0.42104 0.16936 0.0
H795 H 0.30373 0.41082 0.09665 0.0
C796 C 0.3619 0.44825 0.23525 0.0
C797 C 0.36478 0.45979 0.2727 0.0
C798 C 0.35065 0.44285 0.19397 0.0
C799 C 0.342 0.44887 0.18926 0.0
C800 C 0.34514 0.46067 0.22556 0.0
C801 C 0.35641 0.46607 0.26687 0.0
C802 C 0.3151 0.44547 0.0704 0.0
C803 C 0.30687 0.43082 0.06386 0.0
C804 C 0.32638 0.45135 0.11167 0.0
C805 C 0.32966 0.44269 0.14723 0.0
C806 C 0.32116 0.42802 0.14179 0.0
C807 C 0.30991 0.42215 0.10055 0.0
H808 H 0.53978 0.88631 0.34132 0.0
H809 H 0.54411 0.91682 0.20504 0.0
H810 H 0.5488 0.87591 0.26776 0.0
H811 H 0.55275 0.90605 0.1308 0.0
H812 H 0.55201 0.87006 0.00747 0.0
H813 H 0.54156 0.87907 0.08098 0.0
H814 H 0.57493 0.88817 0.20962 0.0
H815 H 0.5857 0.87956 0.13533 0.0
C816 C 0.54244 0.89064 0.29533 0.0
C817 C 0.54123 0.90236 0.27874 0.0
C818 C 0.54767 0.88473 0.25353 0.0
C819 C 0.55146 0.89022 0.19397 0.0
C820 C 0.54983 0.90164 0.17657 0.0
C821 C 0.54491 0.90778 0.2189 0.0
C822 C 0.55704 0.87386 0.05168 0.0
C823 C 0.56964 0.87409 0.06589 0.0
C824 C 0.55111 0.87908 0.0934 0.0
C825 C 0.55748 0.8843 0.1506 0.0
C826 C 0.56983 0.88414 0.16572 0.0
C827 C 0.57597 0.87923 0.12336 0.0
H828 H 0.19338 0.9713 0.92067 0.0
H829 H 0.23567 0.9836 0.86398 0.0
H830 H 0.20276 0.99021 0.99696 0.0
H831 H 0.24499 0.00257 0.93883 0.0
H832 H 0.25684 0.02342 0.12706 0.0
H833 H 0.24709 0.00506 0.04934 0.0
H834 H 0.21535 0.01599 0.00632 0.0
H835 H 0.225 0.03428 0.08541 0.0
C836 C 0.20466 0.97807 0.92434 0.0
C837 C 0.2138 0.97592 0.88671 0.0
C838 C 0.21003 0.98895 0.96768 0.0
C839 C 0.22463 0.99785 0.97411 0.0
C840 C 0.23371 0.99577 0.93577 0.0
C841 C 0.22836 0.98492 0.89267 0.0
C842 C 0.24782 0.02196 0.10086 0.0
C843 C 0.2417 0.0303 0.11219 0.0
C844 C 0.24226 0.01147 0.05611 0.0
C845 C 0.23046 0.00908 0.02151 0.0
C846 C 0.22436 0.01748 0.03266 0.0
C847 C 0.22994 0.02801 0.07757 0.0
H848 H 0.96213 0.19807 0.0446 0.0
H849 H 0.99055 0.23036 0.16968 0.0
H850 H 0.98055 0.20706 0.9657 0.0
H851 H 0.00902 0.23905 0.09141 0.0
H852 H 0.04073 0.23584 0.95316 0.0
H853 H 0.02224 0.22677 0.03174 0.0
H854 H 0.99498 0.2328 0.90819 0.0
H855 H 0.01354 0.24222 0.83023 0.0
C856 C 0.97231 0.20704 0.05519 0.0
C857 C 0.97493 0.21357 0.113 0.0
C858 C 0.9828 0.21217 0.01017 0.0
C859 C 0.99614 0.22368 0.02289 0.0
C860 C 0.99881 0.23011 0.08085 0.0
C861 C 0.98824 0.22519 0.12533 0.0
C862 C 0.03079 0.23524 0.94295 0.0
C863 C 0.02855 0.23976 0.88588 0.0
C864 C 0.02028 0.2301 0.98779 0.0
C865 C 0.00725 0.22909 0.97561 0.0
C866 C 0.00494 0.23344 0.91832 0.0
C867 C 0.01556 0.23888 0.87403 0.0
H868 H 0.74789 0.76774 0.85747 0.0
H869 H 0.77665 0.80999 0.91902 0.0
H870 H 0.75759 0.75853 0.93292 0.0
H871 H 0.7862 0.80075 0.99555 0.0
H872 H 0.80988 0.77992 0.07701 0.0
H873 H 0.80031 0.78918 0.00065 0.0
H874 H 0.75834 0.75579 0.04334 0.0
H875 H 0.76791 0.74641 0.11859 0.0
C876 C 0.75622 0.77505 0.88751 0.0
C877 C 0.76151 0.78958 0.88242 0.0
C878 C 0.76173 0.76977 0.9309 0.0
C879 C 0.77267 0.7789 0.9702 0.0
C880 C 0.7779 0.79345 0.96538 0.0
C881 C 0.77236 0.79874 0.92192 0.0
C882 C 0.79862 0.77453 0.06976 0.0
C883 C 0.78964 0.76243 0.10359 0.0
C884 C 0.79313 0.77989 0.02642 0.0
C885 C 0.77856 0.77323 0.01604 0.0
C886 C 0.76962 0.76107 0.04969 0.0
C887 C 0.7751 0.75572 0.09296 0.0
H888 H 0.77317 0.96462 0.94442 0.0
H889 H 0.76145 0.99033 0.83779 0.0
H890 H 0.78345 0.98307 0.02292 0.0
H891 H 0.77195 0.00881 0.91565 0.0
H892 H 0.80551 0.04343 0.04291 0.0
H893 H 0.79721 0.02535 0.96256 0.0
H894 H 0.77208 0.9937 0.09663 0.0
H895 H 0.78012 0.01171 0.17653 0.0
C896 C 0.77289 0.97425 0.93761 0.0
C897 C 0.76646 0.97605 0.88532 0.0
C898 C 0.77874 0.98475 0.98245 0.0
C899 C 0.77849 0.99733 0.97505 0.0
C900 C 0.77236 0.99925 0.92208 0.0
C901 C 0.76628 0.98865 0.87785 0.0
C902 C 0.79827 0.0326 0.05512 0.0
C903 C 0.7934 0.02895 0.11574 0.0
C904 C 0.79351 0.0223 0.00926 0.0
C905 C 0.78405 0.00818 0.02366 0.0
C906 C 0.77946 0.0045 0.08456 0.0
C907 C 0.784 0.01481 0.13007 0.0
H908 H 0.01251 0.775 0.82828 0.0
H909 H 0.04179 0.8064 0.95431 0.0
H910 H 0.99417 0.7667 0.90673 0.0
H911 H 0.02342 0.79792 0.03319 0.0
H912 H 0.99107 0.76471 0.17163 0.0
H913 H 0.00945 0.77442 0.09328 0.0
H914 H 0.98052 0.77672 0.96601 0.0
H915 H 0.96211 0.76716 0.0448 0.0
C916 C 0.01502 0.78011 0.87279 0.0
C917 C 0.02857 0.79132 0.88537 0.0
C918 C 0.0045 0.77542 0.91745 0.0
C919 C 0.0074 0.7817 0.97583 0.0
C920 C 0.02096 0.79288 0.98853 0.0
C921 C 0.03143 0.79774 0.94347 0.0
C922 C 0.98864 0.76733 0.12698 0.0
C923 C 0.97517 0.76516 0.11414 0.0
C924 C 0.99918 0.77296 0.08237 0.0
C925 C 0.99637 0.77631 0.02377 0.0
C926 C 0.9829 0.77415 0.01084 0.0
C927 C 0.97241 0.76873 0.05586 0.0
H928 H 0.22247 0.19223 0.08745 0.0
H929 H 0.25607 0.23443 0.12457 0.0
H930 H 0.21305 0.20136 0.00961 0.0
H931 H 0.24656 0.24355 0.04791 0.0
H932 H 0.23516 0.25296 0.85948 0.0
H933 H 0.24403 0.24337 0.93688 0.0
H934 H 0.20165 0.21572 0.00024 0.0
H935 H 0.19272 0.22519 0.92172 0.0
C936 C 0.22781 0.20345 0.07905 0.0
C937 C 0.24003 0.21261 0.11184 0.0
C938 C 0.22237 0.20868 0.03482 0.0
C939 C 0.22908 0.22318 0.02251 0.0
C940 C 0.24127 0.23231 0.05564 0.0
C941 C 0.24668 0.22709 0.09977 0.0
C942 C 0.22772 0.24485 0.88998 0.0
C943 C 0.21325 0.23984 0.88467 0.0
C944 C 0.23282 0.2394 0.93453 0.0
C945 C 0.22355 0.22881 0.97484 0.0
C946 C 0.20904 0.22377 0.96944 0.0
C947 C 0.20394 0.22925 0.92481 0.0
H948 H 0.90593 0.34633 0.50229 0.0
H949 H 0.90415 0.37602 0.37779 0.0
H950 H 0.8957 0.32813 0.42324 0.0
H951 H 0.89416 0.3578 0.29806 0.0
H952 H 0.89616 0.32502 0.16146 0.0
H953 H 0.90441 0.34348 0.23951 0.0
H954 H 0.87147 0.31515 0.36198 0.0
H955 H 0.86299 0.2967 0.28332 0.0
C956 C 0.90337 0.34896 0.45797 0.0
C957 C 0.90586 0.36258 0.44597 0.0
C958 C 0.89744 0.33853 0.413 0.0
C959 C 0.89414 0.3416 0.35484 0.0
C960 C 0.89665 0.35522 0.34265 0.0
C961 C 0.90233 0.3656 0.38814 0.0
C962 C 0.89063 0.32276 0.20492 0.0
C963 C 0.87898 0.30944 0.21658 0.0
C964 C 0.8953 0.33334 0.24929 0.0
C965 C 0.88856 0.33069 0.30651 0.0
C966 C 0.87685 0.31739 0.31814 0.0
C967 C 0.872 0.30689 0.27323 0.0
H968 H 0.70666 0.56417 0.27858 0.0
H969 H 0.68072 0.57514 0.16937 0.0
H970 H 0.68822 0.55406 0.35711 0.0
H971 H 0.66221 0.56478 0.24723 0.0
H972 H 0.62787 0.53102 0.37633 0.0
H973 H 0.64596 0.53934 0.29604 0.0
H974 H 0.6773 0.56585 0.42864 0.0
H975 H 0.65926 0.55782 0.50843 0.0
C976 C 0.69698 0.56431 0.27119 0.0
C977 C 0.69512 0.57048 0.21818 0.0
C978 C 0.68648 0.55857 0.31605 0.0
C979 C 0.67384 0.55865 0.30792 0.0
C980 C 0.67184 0.56451 0.25422 0.0
C981 C 0.68244 0.5705 0.21 0.0
C982 C 0.63863 0.53858 0.38822 0.0
C983 C 0.64218 0.54383 0.44839 0.0
C984 C 0.64894 0.54335 0.3424 0.0
C985 C 0.66298 0.55318 0.35645 0.0
C986 C 0.66656 0.55818 0.41689 0.0
C987 C 0.65623 0.55365 0.46232 0.0
H988 H 0.4161 0.10191 0.20421 0.0
H989 H 0.44857 0.14458 0.2422 0.0
H990 H 0.42606 0.09332 0.28073 0.0
H991 H 0.45843 0.13595 0.32058 0.0
H992 H 0.47941 0.11256 0.41117 0.0
H993 H 0.47056 0.12231 0.33323 0.0
H994 H 0.42801 0.09335 0.39079 0.0
H995 H 0.43677 0.08349 0.46693 0.0
C996 C 0.42533 0.10948 0.22932 0.0
C997 C 0.43151 0.12393 0.21752 0.0
C998 C 0.43101 0.10455 0.27341 0.0
C999 C 0.44297 0.11395 0.30718 0.0
C1000 C 0.44927 0.12843 0.295 0.0
C1001 C 0.44358 0.13338 0.2505 0.0
C1002 C 0.46818 0.10831 0.40692 0.0
C1003 C 0.45878 0.09719 0.44473 0.0
C1004 C 0.46312 0.11394 0.36265 0.0
C1005 C 0.44858 0.10853 0.3555 0.0
C1006 C 0.43926 0.09758 0.39421 0.0
C1007 C 0.44429 0.09196 0.43811 0.0
H1008 H 0.44753 0.3033 0.24728 0.0
H1009 H 0.41672 0.31505 0.19787 0.0
H1010 H 0.45701 0.32172 0.32569 0.0
H1011 H 0.42635 0.3336 0.27483 0.0
H1012 H 0.43635 0.35448 0.46249 0.0
H1013 H 0.42741 0.33605 0.38498 0.0
H1014 H 0.46994 0.34723 0.33735 0.0
H1015 H 0.47888 0.36553 0.4163 0.0
C1016 C 0.44283 0.30985 0.25304 0.0
C1017 C 0.43135 0.3077 0.21672 0.0
C1018 C 0.44831 0.32045 0.29763 0.0
C1019 C 0.44241 0.3291 0.30667 0.0
C1020 C 0.43099 0.32698 0.26982 0.0
C1021 C 0.42552 0.31639 0.22547 0.0
C1022 C 0.4438 0.35302 0.43546 0.0
C1023 C 0.45831 0.36146 0.44533 0.0
C1024 C 0.43868 0.3425 0.39079 0.0
C1025 C 0.44796 0.3402 0.35474 0.0
C1026 C 0.4625 0.34863 0.36478 0.0
C1027 C 0.46763 0.35916 0.40967 0.0
H1028 H 0.67919 0.11346 0.14451 0.0
H1029 H 0.7107 0.13754 0.28122 0.0
H1030 H 0.66095 0.10518 0.22343 0.0
H1031 H 0.69239 0.129 0.36056 0.0
H1032 H 0.65691 0.09304 0.4815 0.0
H1033 H 0.67544 0.10349 0.40393 0.0
H1034 H 0.65041 0.11632 0.29912 0.0
H1035 H 0.63191 0.10608 0.37743 0.0
C1036 C 0.68219 0.117 0.19143 0.0
C1037 C 0.69634 0.1261 0.20693 0.0
C1038 C 0.67176 0.11233 0.2364 0.0
C1039 C 0.67531 0.11646 0.29786 0.0
C1040 C 0.68943 0.12564 0.3134 0.0
C1041 C 0.69986 0.13054 0.26812 0.0
C1042 C 0.65537 0.09811 0.44196 0.0
C1043 C 0.64297 0.09872 0.43523 0.0
C1044 C 0.66601 0.10417 0.39793 0.0
C1045 C 0.66432 0.11072 0.34585 0.0
C1046 C 0.65191 0.11129 0.33893 0.0
C1047 C 0.64137 0.10546 0.38362 0.0
H1048 H 0.91316 0.56546 0.4964 0.0
H1049 H 0.89568 0.52587 0.39995 0.0
H1050 H 0.90291 0.57401 0.42108 0.0
H1051 H 0.88561 0.53461 0.323 0.0
H1052 H 0.85957 0.55197 0.22783 0.0
H1053 H 0.86796 0.54201 0.30686 0.0
H1054 H 0.90734 0.58121 0.3152 0.0
H1055 H 0.89891 0.59116 0.23807 0.0
C1056 C 0.90715 0.55859 0.4589 0.0
C1057 C 0.90532 0.54504 0.45375 0.0
C1058 C 0.90131 0.56351 0.41554 0.0
C1059 C 0.89358 0.55505 0.36564 0.0
C1060 C 0.89145 0.54135 0.36115 0.0
C1061 C 0.89728 0.53638 0.4049 0.0
C1062 C 0.86997 0.55844 0.24698 0.0
C1063 C 0.87854 0.57236 0.22714 0.0
C1064 C 0.87481 0.55271 0.29183 0.0
C1065 C 0.88828 0.56084 0.31757 0.0
C1066 C 0.89681 0.57474 0.29726 0.0
C1067 C 0.892 0.58043 0.25277 0.0
H1068 H 0.5664 0.64555 0.55966 0.0
H1069 H 0.52422 0.63859 0.57646 0.0
H1070 H 0.57442 0.6636 0.63818 0.0
H1071 H 0.53221 0.65654 0.65714 0.0
H1072 H 0.55661 0.70047 0.75246 0.0
H1073 H 0.54691 0.68188 0.67449 0.0
H1074 H 0.57238 0.66534 0.74654 0.0
H1075 H 0.58231 0.68404 0.82241 0.0
C1076 C 0.5588 0.64781 0.58057 0.0
C1077 C 0.54466 0.6406 0.56217 0.0
C1078 C 0.56338 0.65812 0.62592 0.0
C1079 C 0.55393 0.66142 0.6545 0.0
C1080 C 0.53977 0.6543 0.63575 0.0
C1081 C 0.53518 0.64398 0.58989 0.0
C1082 C 0.56007 0.69281 0.75151 0.0
C1083 C 0.57033 0.69378 0.79291 0.0
C1084 C 0.55447 0.68213 0.70717 0.0
C1085 C 0.559 0.67222 0.70382 0.0
C1086 C 0.56891 0.67299 0.74681 0.0
C1087 C 0.57456 0.68367 0.79054 0.0
H1088 H 0.30419 0.85605 0.74987 0.0
H1089 H 0.31662 0.89888 0.7975 0.0
H1090 H 0.3224 0.86463 0.6703 0.0
H1091 H 0.33484 0.9074 0.71928 0.0
H1092 H 0.3539 0.91751 0.52894 0.0
H1093 H 0.33576 0.90784 0.60751 0.0
H1094 H 0.34838 0.87767 0.65679 0.0
H1095 H 0.36651 0.88726 0.57688 0.0
C1096 C 0.31085 0.86727 0.74353 0.0
C1097 C 0.30893 0.87679 0.77955 0.0
C1098 C 0.32131 0.87218 0.69828 0.0
C1099 C 0.32998 0.88669 0.68823 0.0
C1100 C 0.32817 0.89616 0.72512 0.0
C1101 C 0.31776 0.89127 0.77018 0.0
C1102 C 0.35282 0.9088 0.55643 0.0
C1103 C 0.36167 0.90319 0.54699 0.0
C1104 C 0.34246 0.90331 0.60169 0.0
C1105 C 0.34071 0.89207 0.63873 0.0
C1106 C 0.34942 0.88628 0.62869 0.0
C1107 C 0.35984 0.89181 0.58325 0.0
H1108 H 0.10191 0.41405 0.7915 0.0
H1109 H 0.14419 0.44673 0.74877 0.0
H1110 H 0.09269 0.42352 0.71529 0.0
H1111 H 0.13495 0.45611 0.67121 0.0
H1112 H 0.11142 0.47668 0.58284 0.0
H1113 H 0.12102 0.46795 0.66164 0.0
H1114 H 0.09224 0.42533 0.60436 0.0
H1115 H 0.08251 0.43401 0.52683 0.0
C1116 C 0.10924 0.42323 0.76557 0.0
C1117 C 0.12378 0.42962 0.77589 0.0
C1118 C 0.10396 0.42863 0.72169 0.0
C1119 C 0.11309 0.44052 0.687 0.0
C1120 C 0.12764 0.447 0.69764 0.0
C1121 C 0.13294 0.44159 0.7417 0.0
C1122 C 0.10713 0.46545 0.58738 0.0
C1123 C 0.09619 0.45602 0.54894 0.0
C1124 C 0.11269 0.46046 0.63214 0.0
C1125 C 0.10737 0.44595 0.63929 0.0
C1126 C 0.09643 0.43656 0.60067 0.0
C1127 C 0.09089 0.44153 0.55605 0.0
H1128 H 0.14759 0.69624 0.75759 0.0
H1129 H 0.10448 0.68673 0.77062 0.0
H1130 H 0.14042 0.67662 0.68574 0.0
H1131 H 0.09737 0.66726 0.69925 0.0
H1132 H 0.08651 0.62533 0.6206 0.0
H1133 H 0.09582 0.64386 0.69802 0.0
H1134 H 0.13051 0.67006 0.57815 0.0
H1135 H 0.12125 0.65145 0.50064 0.0
C1136 C 0.13661 0.68999 0.74502 0.0
C1137 C 0.12659 0.69301 0.76964 0.0
C1138 C 0.13252 0.67879 0.70392 0.0
C1139 C 0.11832 0.67034 0.68741 0.0
C1140 C 0.10835 0.67344 0.71194 0.0
C1141 C 0.11245 0.68467 0.75241 0.0
C1142 C 0.09626 0.63494 0.61116 0.0
C1143 C 0.1031 0.63698 0.55439 0.0
C1144 C 0.10153 0.64559 0.65531 0.0
C1145 C 0.11378 0.65847 0.64374 0.0
C1146 C 0.12107 0.66022 0.5884 0.0
C1147 C 0.11575 0.64958 0.54401 0.0
H1148 H 0.31573 0.4143 0.79979 0.0
H1149 H 0.3047 0.4457 0.75167 0.0
H1150 H 0.33432 0.4238 0.72287 0.0
H1151 H 0.32322 0.45511 0.67375 0.0
H1152 H 0.3676 0.47682 0.5878 0.0
H1153 H 0.34909 0.46774 0.66577 0.0
H1154 H 0.33673 0.42529 0.61131 0.0
H1155 H 0.3553 0.43434 0.53435 0.0
C1156 C 0.31724 0.4232 0.77252 0.0
C1157 C 0.30874 0.42924 0.78163 0.0
C1158 C 0.32785 0.4286 0.72826 0.0
C1159 C 0.33022 0.44019 0.69212 0.0
C1160 C 0.32174 0.44626 0.70133 0.0
C1161 C 0.31108 0.44083 0.74561 0.0
C1162 C 0.36094 0.46556 0.5927 0.0
C1163 C 0.36292 0.45629 0.55518 0.0
C1164 C 0.35029 0.46036 0.63702 0.0
C1165 C 0.34145 0.4458 0.64475 0.0
C1166 C 0.34347 0.43656 0.60709 0.0
C1167 C 0.35408 0.44175 0.5628 0.0
H1168 H 0.57502 0.89717 0.8459 0.0
H1169 H 0.5721 0.86599 0.71652 0.0
H1170 H 0.56542 0.90626 0.76874 0.0
H1171 H 0.56275 0.87532 0.63886 0.0
H1172 H 0.56508 0.91009 0.50525 0.0
H1173 H 0.57363 0.90017 0.58315 0.0
H1174 H 0.54115 0.89594 0.70761 0.0
H1175 H 0.53235 0.90563 0.62901 0.0
C1176 C 0.57237 0.8923 0.80089 0.0
C1177 C 0.57433 0.88091 0.78697 0.0
C1178 C 0.5668 0.89744 0.75702 0.0
C1179 C 0.56337 0.89146 0.69813 0.0
C1180 C 0.56538 0.88012 0.68402 0.0
C1181 C 0.57069 0.87478 0.72834 0.0
C1182 C 0.55977 0.90706 0.54927 0.0
C1183 C 0.54808 0.90865 0.56129 0.0
C1184 C 0.56461 0.90131 0.59355 0.0
C1185 C 0.55801 0.89728 0.65106 0.0
C1186 C 0.54642 0.89902 0.66352 0.0
C1187 C 0.54139 0.90453 0.61868 0.0
H1188 H 0.37406 0.13387 0.19118 0.0
H1189 H 0.36565 0.09993 0.06662 0.0
H1190 H 0.3492 0.12172 0.22123 0.0
H1191 H 0.34094 0.08766 0.09812 0.0
H1192 H 0.30365 0.06494 0.24118 0.0
H1193 H 0.32849 0.07759 0.2113 0.0
H1194 H 0.32455 0.11311 0.1551 0.0
H1195 H 0.29959 0.10033 0.18324 0.0
C1196 C 0.3669 0.12382 0.17037 0.0
C1197 C 0.37174 0.11784 0.12652 0.0
C1198 C 0.35273 0.11692 0.18744 0.0
C1199 C 0.34325 0.10378 0.16203 0.0
C1200 C 0.34809 0.09776 0.11847 0.0
C1201 C 0.36218 0.10481 0.10033 0.0
C1202 C 0.3081 0.07546 0.22256 0.0
C1203 C 0.29973 0.08166 0.21437 0.0
C1204 C 0.32226 0.08265 0.20533 0.0
C1205 C 0.32834 0.09628 0.181 0.0
C1206 C 0.32006 0.10261 0.17399 0.0
C1207 C 0.30582 0.0953 0.18986 0.0
H1208 H 0.88256 0.25544 0.22654 0.0
H1209 H 0.89532 0.25712 0.03749 0.0
H1210 H 0.8949 0.24295 0.25448 0.0
H1211 H 0.90789 0.24486 0.06557 0.0
H1212 H 0.91494 0.20896 0.12543 0.0
H1213 H 0.90279 0.22166 0.09863 0.0
H1214 H 0.91858 0.24647 0.26416 0.0
H1215 H 0.93055 0.23354 0.29156 0.0
C1216 C 0.88806 0.25319 0.191 0.0
C1217 C 0.88794 0.25722 0.12978 0.0
C1218 C 0.8952 0.24612 0.20708 0.0
C1219 C 0.90238 0.2429 0.16228 0.0
C1220 C 0.90231 0.24701 0.10106 0.0
C1221 C 0.89517 0.25409 0.085 0.0
C1222 C 0.91581 0.21712 0.15616 0.0
C1223 C 0.92369 0.22025 0.21063 0.0
C1224 C 0.90892 0.22446 0.14058 0.0
C1225 C 0.90975 0.23512 0.17911 0.0
C1226 C 0.9176 0.23822 0.23379 0.0
C1227 C 0.92452 0.23087 0.24936 0.0
H1228 H 0.74839 0.62869 0.22713 0.0
H1229 H 0.74947 0.63928 0.03524 0.0
H1230 H 0.76093 0.65358 0.2536 0.0
H1231 H 0.76177 0.66421 0.06179 0.0
H1232 H 0.79687 0.70731 0.12477 0.0
H1233 H 0.78448 0.68238 0.09913 0.0
H1234 H 0.75762 0.67382 0.2574 0.0
H1235 H 0.77024 0.69877 0.28372 0.0
C1236 C 0.75126 0.63635 0.19061 0.0
C1237 C 0.74796 0.63204 0.12908 0.0
C1238 C 0.75837 0.65061 0.20584 0.0
C1239 C 0.76235 0.6609 0.15986 0.0
C1240 C 0.75902 0.65657 0.09826 0.0
C1241 C 0.75191 0.64229 0.08304 0.0
C1242 C 0.78834 0.7001 0.15419 0.0
C1243 C 0.78453 0.70499 0.2063 0.0
C1244 C 0.78117 0.68582 0.13925 0.0
C1245 C 0.77002 0.6761 0.17606 0.0
C1246 C 0.76626 0.681 0.22844 0.0
C1247 C 0.77345 0.6953 0.24339 0.0
H1248 H 0.08885 0.29453 0.87652 0.0
H1249 H 0.07499 0.30417 0.70695 0.0
H1250 H 0.1016 0.3194 0.903 0.0
H1251 H 0.08757 0.3291 0.73397 0.0
H1252 H 0.12412 0.37351 0.77238 0.0
H1253 H 0.11153 0.34863 0.74555 0.0
H1254 H 0.09718 0.33816 0.93327 0.0
H1255 H 0.11001 0.36306 0.96032 0.0
C1256 C 0.08849 0.30197 0.84496 0.0
C1257 C 0.08093 0.29741 0.78961 0.0
C1258 C 0.09573 0.31622 0.86034 0.0
C1259 C 0.09558 0.32624 0.8207 0.0
C1260 C 0.08803 0.32166 0.7652 0.0
C1261 C 0.08076 0.30739 0.74984 0.0
C1262 C 0.11831 0.36589 0.80795 0.0
C1263 C 0.11807 0.37023 0.8685 0.0
C1264 C 0.11101 0.35164 0.79247 0.0
C1265 C 0.10332 0.3414 0.8372 0.0
C1266 C 0.10314 0.34576 0.89786 0.0
C1267 C 0.11043 0.36003 0.91334 0.0
H1268 H 0.70754 0.7971 0.87018 0.0
H1269 H 0.6974 0.77011 0.71144 0.0
H1270 H 0.6828 0.78518 0.89901 0.0
H1271 H 0.67264 0.75796 0.74096 0.0
H1272 H 0.62802 0.74927 0.77702 0.0
H1273 H 0.65275 0.76173 0.7477 0.0
H1274 H 0.66455 0.76275 0.93798 0.0
H1275 H 0.63979 0.75055 0.96739 0.0
C1276 C 0.70002 0.78859 0.84153 0.0
C1277 C 0.70441 0.78454 0.78851 0.0
C1278 C 0.68584 0.7817 0.85827 0.0
C1279 C 0.67572 0.77059 0.82238 0.0
C1280 C 0.68013 0.76658 0.76921 0.0
C1281 C 0.69432 0.77349 0.75244 0.0
C1282 C 0.6359 0.75221 0.81261 0.0
C1283 C 0.63197 0.74895 0.87452 0.0
C1284 C 0.65007 0.75926 0.79575 0.0
C1285 C 0.66064 0.76321 0.84044 0.0
C1286 C 0.65669 0.76002 0.90247 0.0
C1287 C 0.6425 0.75296 0.91932 0.0
H1288 H 0.22168 0.9269 0.89391 0.0
H1289 H 0.21769 0.9129 0.70575 0.0
H1290 H 0.23404 0.91438 0.91974 0.0
H1291 H 0.22947 0.89977 0.73192 0.0
H1292 H 0.26406 0.8904 0.78168 0.0
H1293 H 0.25158 0.90282 0.75665 0.0
H1294 H 0.2316 0.89212 0.9352 0.0
H1295 H 0.24467 0.88024 0.96106 0.0
C1296 C 0.22332 0.921 0.8582 0.0
C1297 C 0.21877 0.9209 0.79777 0.0
C1298 C 0.23033 0.91373 0.87308 0.0
C1299 C 0.23279 0.90602 0.82802 0.0
C1300 C 0.22802 0.90579 0.76766 0.0
C1301 C 0.22118 0.91324 0.75263 0.0
C1302 C 0.25701 0.89072 0.81559 0.0
C1303 C 0.25535 0.88438 0.87337 0.0
C1304 C 0.24975 0.89776 0.80108 0.0
C1305 C 0.24049 0.89846 0.8437 0.0
C1306 C 0.23879 0.89201 0.9015 0.0
C1307 C 0.24621 0.88512 0.9163 0.0
H1308 H 0.69768 0.924 0.70504 0.0
H1309 H 0.70844 0.92144 0.89373 0.0
H1310 H 0.67282 0.91205 0.73269 0.0
H1311 H 0.6836 0.90923 0.92119 0.0
H1312 H 0.63903 0.90044 0.96039 0.0
H1313 H 0.66388 0.91315 0.93232 0.0
H1314 H 0.6542 0.8891 0.76416 0.0
H1315 H 0.62938 0.87667 0.79162 0.0
C1316 C 0.69472 0.92083 0.75235 0.0
C1317 C 0.705 0.92365 0.79719 0.0
C1318 C 0.68048 0.91392 0.76818 0.0
C1319 C 0.67621 0.90967 0.82919 0.0
C1320 C 0.68653 0.91253 0.87398 0.0
C1321 C 0.70076 0.91944 0.85816 0.0
C1322 C 0.64223 0.8979 0.91741 0.0
C1323 C 0.63226 0.88757 0.87822 0.0
C1324 C 0.65647 0.90512 0.90145 0.0
C1325 C 0.66105 0.90214 0.84596 0.0
C1326 C 0.65103 0.89181 0.80679 0.0
C1327 C 0.63681 0.88461 0.82273 0.0
H1328 H 0.08688 0.79277 0.88061 0.0
H1329 H 0.07605 0.77268 0.7026 0.0
H1330 H 0.09979 0.78068 0.90476 0.0
H1331 H 0.08862 0.76025 0.7273 0.0
H1332 H 0.12422 0.75134 0.76664 0.0
H1333 H 0.11199 0.76414 0.74226 0.0
H1334 H 0.09596 0.75768 0.92801 0.0
H1335 H 0.10851 0.74524 0.95268 0.0
C1336 C 0.0872 0.7857 0.84677 0.0
C1337 C 0.08046 0.78367 0.78972 0.0
C1338 C 0.09453 0.7787 0.86073 0.0
C1339 C 0.09524 0.76947 0.81802 0.0
C1340 C 0.08847 0.76744 0.76093 0.0
C1341 C 0.08118 0.77449 0.74689 0.0
C1342 C 0.11812 0.75271 0.80227 0.0
C1343 C 0.11733 0.74731 0.86157 0.0
C1344 C 0.11103 0.75996 0.78821 0.0
C1345 C 0.10295 0.76192 0.83312 0.0
C1346 C 0.10224 0.75654 0.89253 0.0
C1347 C 0.10937 0.74934 0.90662 0.0
H1348 H 0.22916 0.30552 0.70492 0.0
H1349 H 0.20979 0.29474 0.88439 0.0
H1350 H 0.24144 0.33033 0.73314 0.0
H1351 H 0.22184 0.31958 0.91227 0.0
H1352 H 0.25805 0.36353 0.96255 0.0
H1353 H 0.24534 0.33869 0.93472 0.0
H1354 H 0.2371 0.34947 0.75442 0.0
H1355 H 0.25007 0.37431 0.78189 0.0
C1356 C 0.22746 0.30847 0.75028 0.0
C1357 C 0.21853 0.29819 0.79247 0.0
C1358 C 0.23443 0.32269 0.76635 0.0
C1359 C 0.23262 0.32695 0.82498 0.0
C1360 C 0.22361 0.31665 0.86703 0.0
C1361 C 0.21664 0.30242 0.85095 0.0
C1362 C 0.2535 0.36058 0.91703 0.0
C1363 C 0.25508 0.37086 0.87436 0.0
C1364 C 0.24615 0.34634 0.90117 0.0
C1365 C 0.24021 0.34208 0.84229 0.0
C1366 C 0.24171 0.35239 0.79984 0.0
C1367 C 0.24907 0.36662 0.81569 0.0
H1368 H 0.92581 0.69845 0.29172 0.0
H1369 H 0.91804 0.70919 0.11059 0.0
H1370 H 0.91318 0.67362 0.26393 0.0
H1371 H 0.90511 0.68434 0.08316 0.0
H1372 H 0.89621 0.63984 0.03583 0.0
H1373 H 0.90878 0.66477 0.06233 0.0
H1374 H 0.88963 0.65482 0.24244 0.0
H1375 H 0.87735 0.62991 0.21638 0.0
C1376 C 0.92135 0.69549 0.24605 0.0
C1377 C 0.92292 0.70576 0.20334 0.0
C1378 C 0.91403 0.68126 0.23021 0.0
C1379 C 0.90809 0.67697 0.17133 0.0
C1380 C 0.9097 0.68728 0.12862 0.0
C1381 C 0.91704 0.70151 0.14445 0.0
C1382 C 0.89466 0.643 0.08097 0.0
C1383 C 0.88582 0.63293 0.12406 0.0
C1384 C 0.90181 0.65729 0.0961 0.0
C1385 C 0.90026 0.6618 0.15462 0.0
C1386 C 0.89125 0.6517 0.19734 0.0
C1387 C 0.88413 0.63743 0.18225 0.0
H1388 H 0.37524 0.24907 0.21757 0.0
H1389 H 0.36464 0.25696 0.03634 0.0
H1390 H 0.3504 0.23638 0.245 0.0
H1391 H 0.33979 0.24454 0.06416 0.0
H1392 H 0.29584 0.20912 0.11359 0.0
H1393 H 0.32069 0.22117 0.08644 0.0
H1394 H 0.3312 0.24062 0.26596 0.0
H1395 H 0.30633 0.22829 0.29353 0.0
C1396 C 0.36759 0.24812 0.18363 0.0
C1397 C 0.37188 0.254 0.12477 0.0
C1398 C 0.35336 0.24092 0.19948 0.0
C1399 C 0.34309 0.23946 0.15686 0.0
C1400 C 0.34741 0.24531 0.09785 0.0
C1401 C 0.36165 0.25249 0.08198 0.0
C1402 C 0.30347 0.21594 0.14732 0.0
C1403 C 0.29915 0.21776 0.20571 0.0
C1404 C 0.3177 0.22292 0.13161 0.0
C1405 C 0.32795 0.2319 0.17392 0.0
C1406 C 0.32361 0.23365 0.23252 0.0
C1407 C 0.30936 0.22664 0.24825 0.0
H1408 H 0.75041 0.12258 0.21348 0.0
H1409 H 0.74409 0.10549 0.02989 0.0
H1410 H 0.76248 0.1099 0.242 0.0
H1411 H 0.75585 0.09247 0.0588 0.0
H1412 H 0.79158 0.08443 0.11242 0.0
H1413 H 0.77894 0.09653 0.08365 0.0
H1414 H 0.75851 0.08663 0.2611 0.0
H1415 H 0.77147 0.07484 0.29037 0.0
C1416 C 0.75152 0.11602 0.17933 0.0
C1417 C 0.74634 0.11505 0.1194 0.0
C1418 C 0.75836 0.10868 0.19579 0.0
C1419 C 0.76014 0.10014 0.15274 0.0
C1420 C 0.75484 0.09909 0.09287 0.0
C1421 C 0.74803 0.10649 0.07637 0.0
C1422 C 0.78438 0.08482 0.14524 0.0
C1423 C 0.78255 0.07872 0.20372 0.0
C1424 C 0.77705 0.09168 0.12861 0.0
C1425 C 0.76769 0.09256 0.17002 0.0
C1426 C 0.76578 0.08633 0.22838 0.0
C1427 C 0.77315 0.0795 0.24507 0.0
H1428 H 0.03918 0.46716 0.50573 0.0
H1429 H 0.0329 0.43001 0.41003 0.0
H1430 H 0.01437 0.45489 0.53543 0.0
H1431 H 0.00814 0.41769 0.4408 0.0
H1432 H 0.96967 0.39759 0.57599 0.0
H1433 H 0.99453 0.40982 0.54651 0.0
H1434 H 0.99051 0.44426 0.47491 0.0
H1435 H 0.96563 0.43197 0.50324 0.0
C1436 C 0.0325 0.45637 0.49118 0.0
C1437 C 0.03794 0.44953 0.45549 0.0
C1438 C 0.01833 0.44939 0.50801 0.0
C1439 C 0.00939 0.43536 0.49046 0.0
C1440 C 0.01485 0.42848 0.45522 0.0
C1441 C 0.02897 0.43555 0.43738 0.0
C1442 C 0.97411 0.40778 0.55403 0.0
C1443 C 0.96574 0.41384 0.54184 0.0
C1444 C 0.98829 0.41472 0.53694 0.0
C1445 C 0.99439 0.42796 0.50849 0.0
C1446 C 0.98606 0.4341 0.49711 0.0
C1447 C 0.97184 0.42705 0.51311 0.0
H1448 H 0.58562 0.544 0.44582 0.0
H1449 H 0.59423 0.56353 0.62495 0.0
H1450 H 0.57242 0.55562 0.41822 0.0
H1451 H 0.58135 0.57546 0.59693 0.0
H1452 H 0.54489 0.58242 0.5528 0.0
H1453 H 0.55767 0.57029 0.57821 0.0
H1454 H 0.57532 0.57842 0.39519 0.0
H1455 H 0.5622 0.59027 0.36933 0.0
C1456 C 0.58477 0.55086 0.47915 0.0
C1457 C 0.59092 0.55283 0.53762 0.0
C1458 C 0.57727 0.55758 0.46322 0.0
C1459 C 0.57578 0.56645 0.50538 0.0
C1460 C 0.58208 0.56852 0.56368 0.0
C1461 C 0.58955 0.56176 0.57964 0.0
C1462 C 0.55145 0.58156 0.51788 0.0
C1463 C 0.55255 0.5873 0.45907 0.0
C1464 C 0.55886 0.57469 0.5326 0.0
C1465 C 0.56762 0.57346 0.48893 0.0
C1466 C 0.56857 0.57905 0.42975 0.0
C1467 C 0.5611 0.58589 0.41496 0.0
H1468 H 0.45138 0.04064 0.43369 0.0
H1469 H 0.45336 0.02958 0.62235 0.0
H1470 H 0.43872 0.01583 0.40583 0.0
H1471 H 0.44135 0.00481 0.59434 0.0
H1472 H 0.40625 0.9616 0.54171 0.0
H1473 H 0.41915 0.98645 0.56712 0.0
H1474 H 0.44016 0.99539 0.39095 0.0
H1475 H 0.42663 0.97047 0.36456 0.0
C1476 C 0.44926 0.03288 0.46904 0.0
C1477 C 0.45328 0.03702 0.53024 0.0
C1478 C 0.44207 0.01865 0.45305 0.0
C1479 C 0.43891 0.00822 0.49779 0.0
C1480 C 0.44328 0.01247 0.5588 0.0
C1481 C 0.45027 0.02668 0.57489 0.0
C1482 C 0.41361 0.96888 0.50837 0.0
C1483 C 0.41544 0.9641 0.45116 0.0
C1484 C 0.42112 0.98315 0.52312 0.0
C1485 C 0.43083 0.99301 0.48138 0.0
C1486 C 0.43265 0.98818 0.42399 0.0
C1487 C 0.42496 0.97388 0.4089 0.0
H1488 H 0.60682 0.03467 0.57213 0.0
H1489 H 0.57375 0.03918 0.48727 0.0
H1490 H 0.59446 0.00968 0.54478 0.0
H1491 H 0.56131 0.01418 0.46112 0.0
H1492 H 0.53706 0.96583 0.50172 0.0
H1493 H 0.54972 0.99089 0.52645 0.0
H1494 H 0.58703 0.99517 0.44021 0.0
H1495 H 0.57428 0.97009 0.41426 0.0
C1496 C 0.5969 0.03031 0.54789 0.0
C1497 C 0.59123 0.03884 0.53184 0.0
C1498 C 0.58989 0.01606 0.53199 0.0
C1499 C 0.57696 0.01006 0.50088 0.0
C1500 C 0.57123 0.01856 0.48536 0.0
C1501 C 0.57837 0.03285 0.50018 0.0
C1502 C 0.54795 0.97213 0.48785 0.0
C1503 C 0.5547 0.96604 0.45599 0.0
C1504 C 0.55516 0.98645 0.50184 0.0
C1505 C 0.56933 0.99491 0.48527 0.0
C1506 C 0.57612 0.98883 0.45376 0.0
C1507 C 0.56882 0.97453 0.43867 0.0
H1508 H 0.97463 0.56151 0.61724 0.0
H1509 H 0.96163 0.54586 0.43265 0.0
H1510 H 0.99906 0.57421 0.58385 0.0
H1511 H 0.98612 0.55879 0.39886 0.0
H1512 H 0.03322 0.5717 0.38226 0.0
H1513 H 0.00839 0.55894 0.4109 0.0
H1514 H 0.01445 0.59434 0.52049 0.0
H1515 H 0.03926 0.60695 0.49281 0.0
C1516 C 0.977 0.5608 0.56947 0.0
C1517 C 0.96622 0.5527 0.52755 0.0
C1518 C 0.99099 0.56817 0.55021 0.0
C1519 C 0.99454 0.5676 0.48857 0.0
C1520 C 0.98375 0.55937 0.44674 0.0
C1521 C 0.96972 0.55201 0.46603 0.0
C1522 C 0.0292 0.57678 0.41204 0.0
C1523 C 0.03819 0.5903 0.43549 0.0
C1524 C 0.01497 0.56949 0.4283 0.0
C1525 C 0.00946 0.57557 0.46838 0.0
C1526 C 0.01841 0.58925 0.49042 0.0
C1527 C 0.03261 0.59652 0.4742 0.0
H1528 H 0.4216 0.45999 0.55501 0.0
H1529 H 0.41287 0.44061 0.37552 0.0
H1530 H 0.43457 0.44809 0.58228 0.0
H1531 H 0.42556 0.42847 0.40313 0.0
H1532 H 0.46128 0.42033 0.44948 0.0
H1533 H 0.44915 0.4331 0.42327 0.0
H1534 H 0.43058 0.42472 0.6045 0.0
H1535 H 0.44299 0.4122 0.63111 0.0
C1536 C 0.42243 0.45316 0.52145 0.0
C1537 C 0.41624 0.45124 0.46311 0.0
C1538 C 0.42979 0.44627 0.53719 0.0
C1539 C 0.43111 0.43732 0.49492 0.0
C1540 C 0.42492 0.43544 0.43649 0.0
C1541 C 0.41757 0.44233 0.42076 0.0
C1542 C 0.45464 0.42126 0.48379 0.0
C1543 C 0.45307 0.41526 0.54234 0.0
C1544 C 0.44762 0.42851 0.46864 0.0
C1545 C 0.43884 0.42989 0.51167 0.0
C1546 C 0.43739 0.42399 0.5705 0.0
C1547 C 0.44443 0.41675 0.58567 0.0
H1548 H 0.23248 0.08487 0.21113 0.0
H1549 H 0.26478 0.10263 0.35032 0.0
H1550 H 0.23051 0.10598 0.2131 0.0
H1551 H 0.26329 0.12401 0.35062 0.0
H1552 H 0.25196 0.15808 0.3668 0.0
H1553 H 0.25013 0.13507 0.37523 0.0
H1554 H 0.24364 0.12941 0.17881 0.0
H1555 H 0.24491 0.15208 0.1711 0.0
C1556 C 0.23912 0.09328 0.24236 0.0
C1557 C 0.24883 0.09213 0.28038 0.0
C1558 C 0.23808 0.10544 0.24318 0.0
C1559 C 0.24685 0.11682 0.2815 0.0
C1560 C 0.25623 0.11544 0.32103 0.0
C1561 C 0.25716 0.1032 0.32068 0.0
C1562 C 0.24998 0.15181 0.32563 0.0
C1563 C 0.2486 0.15688 0.26829 0.0
C1564 C 0.24903 0.13866 0.33034 0.0
C1565 C 0.24679 0.13034 0.2777 0.0
C1566 C 0.24513 0.13536 0.22057 0.0
C1567 C 0.24595 0.14843 0.216 0.0
H1568 H 0.83923 0.1054 0.33117 0.0
H1569 H 0.85667 0.08401 0.22907 0.0
H1570 H 0.86221 0.12655 0.33412 0.0
H1571 H 0.87987 0.10507 0.23375 0.0
H1572 H 0.9135 0.15054 0.18304 0.0
H1573 H 0.89187 0.12793 0.18906 0.0
H1574 H 0.88535 0.13744 0.3749 0.0
H1575 H 0.90675 0.16027 0.36782 0.0
C1576 C 0.84804 0.10516 0.31022 0.0
C1577 C 0.84613 0.09307 0.27963 0.0
C1578 C 0.86127 0.11727 0.31224 0.0
C1579 C 0.87295 0.11757 0.28407 0.0
C1580 C 0.87109 0.1053 0.25509 0.0
C1581 C 0.85782 0.0932 0.25274 0.0
C1582 C 0.90752 0.14773 0.22538 0.0
C1583 C 0.91176 0.15721 0.27479 0.0
C1584 C 0.89514 0.13472 0.22902 0.0
C1585 C 0.88677 0.13085 0.28236 0.0
C1586 C 0.89137 0.14016 0.33267 0.0
C1587 C 0.90369 0.15321 0.32882 0.0
H1588 H 0.89956 0.73861 0.33591 0.0
H1589 H 0.91925 0.77399 0.21207 0.0
H1590 H 0.8784 0.74046 0.33729 0.0
H1591 H 0.8982 0.77615 0.21483 0.0
H1592 H 0.84495 0.75219 0.36192 0.0
H1593 H 0.86793 0.75393 0.36952 0.0
H1594 H 0.87473 0.7636 0.1756 0.0
H1595 H 0.85199 0.76229 0.16865 0.0
C1596 C 0.89944 0.74694 0.30977 0.0
C1597 C 0.91103 0.7561 0.27361 0.0
C1598 C 0.88733 0.74807 0.31084 0.0
C1599 C 0.88654 0.75843 0.27598 0.0
C1600 C 0.89835 0.7679 0.24144 0.0
C1601 C 0.91045 0.76673 0.24016 0.0
C1602 C 0.85145 0.75487 0.32115 0.0
C1603 C 0.84665 0.75705 0.26465 0.0
C1604 C 0.86458 0.75577 0.32538 0.0
C1605 C 0.87317 0.7588 0.27309 0.0
C1606 C 0.86851 0.76142 0.21702 0.0
C1607 C 0.85542 0.76059 0.2129 0.0
H1608 H 0.0956 0.25165 0.63133 0.0
H1609 H 0.09136 0.23996 0.82291 0.0
H1610 H 0.11698 0.25017 0.62478 0.0
H1611 H 0.11301 0.23907 0.81741 0.0
H1612 H 0.14798 0.22995 0.7845 0.0
H1613 H 0.12467 0.22749 0.78023 0.0
H1614 H 0.14056 0.26311 0.65718 0.0
H1615 H 0.16362 0.26511 0.65953 0.0
C1616 C 0.09922 0.24871 0.67198 0.0
C1617 C 0.09184 0.24596 0.72766 0.0
C1618 C 0.11154 0.24796 0.66842 0.0
C1619 C 0.11685 0.24462 0.72069 0.0
C1620 C 0.10918 0.24147 0.77593 0.0
C1621 C 0.09679 0.24206 0.77925 0.0
C1622 C 0.14641 0.23713 0.75598 0.0
C1623 C 0.15762 0.24774 0.72248 0.0
C1624 C 0.13308 0.2358 0.75384 0.0
C1625 C 0.13069 0.24516 0.7187 0.0
C1626 C 0.14188 0.25556 0.68401 0.0
C1627 C 0.15516 0.25677 0.68563 0.0
H1628 H 0.73871 0.84043 0.65202 0.0
H1629 H 0.77178 0.85536 0.7877 0.0
H1630 H 0.7401 0.86323 0.6519 0.0
H1631 H 0.77364 0.87842 0.78588 0.0
H1632 H 0.75937 0.91024 0.82874 0.0
H1633 H 0.76071 0.88887 0.82126 0.0
H1634 H 0.75306 0.88731 0.62561 0.0
H1635 H 0.75115 0.90844 0.63388 0.0
C1636 C 0.74648 0.84869 0.68095 0.0
C1637 C 0.75507 0.84608 0.72017 0.0
C1638 C 0.74734 0.86182 0.68067 0.0
C1639 C 0.75693 0.87271 0.71918 0.0
C1640 C 0.76593 0.87022 0.75654 0.0
C1641 C 0.76495 0.85704 0.75728 0.0
C1642 C 0.75808 0.90539 0.78406 0.0
C1643 C 0.75508 0.91097 0.73196 0.0
C1644 C 0.75895 0.89316 0.77962 0.0
C1645 C 0.75698 0.88629 0.7228 0.0
C1646 C 0.75439 0.89215 0.67031 0.0
C1647 C 0.75339 0.90432 0.67491 0.0
H1648 H 0.15876 0.9085 0.64094 0.0
H1649 H 0.15292 0.91028 0.83636 0.0
H1650 H 0.13569 0.88741 0.63346 0.0
H1651 H 0.13003 0.88896 0.82939 0.0
H1652 H 0.08499 0.85562 0.79288 0.0
H1653 H 0.10632 0.87864 0.79222 0.0
H1654 H 0.12519 0.86322 0.66219 0.0
H1655 H 0.10376 0.84042 0.66163 0.0
C1656 C 0.15251 0.90441 0.68227 0.0
C1657 C 0.15767 0.91101 0.73928 0.0
C1658 C 0.13932 0.89227 0.67808 0.0
C1659 C 0.13101 0.8864 0.73087 0.0
C1660 C 0.13604 0.89326 0.78763 0.0
C1661 C 0.14921 0.90545 0.79174 0.0
C1662 C 0.09364 0.85723 0.76359 0.0
C1663 C 0.09272 0.84621 0.7274 0.0
C1664 C 0.10591 0.87039 0.76353 0.0
C1665 C 0.11753 0.87279 0.72742 0.0
C1666 C 0.1164 0.86184 0.68994 0.0
C1667 C 0.10413 0.84872 0.68985 0.0
H1668 H 0.92329 0.43082 0.70347 0.0
H1669 H 0.9059 0.42353 0.52026 0.0
H1670 H 0.92201 0.45232 0.71018 0.0
H1671 H 0.90515 0.44525 0.52567 0.0
H1672 H 0.89731 0.48099 0.56254 0.0
H1673 H 0.89486 0.45769 0.56898 0.0
H1674 H 0.93404 0.47527 0.66928 0.0
H1675 H 0.93612 0.49834 0.66488 0.0
C1676 C 0.91913 0.43379 0.66476 0.0
C1677 C 0.91474 0.42553 0.61128 0.0
C1678 C 0.91849 0.44616 0.66836 0.0
C1679 C 0.9136 0.45065 0.61826 0.0
C1680 C 0.9088 0.44209 0.56553 0.0
C1681 C 0.9093 0.42965 0.56223 0.0
C1682 C 0.90529 0.47981 0.58657 0.0
C1683 C 0.91693 0.49149 0.61304 0.0
C1684 C 0.90395 0.46647 0.58994 0.0
C1685 C 0.91429 0.46455 0.61936 0.0
C1686 C 0.92574 0.47624 0.64711 0.0
C1687 C 0.927 0.48953 0.64423 0.0
H1688 H 0.51969 0.42488 0.50911 0.0
H1689 H 0.51178 0.42893 0.70036 0.0
H1690 H 0.54241 0.44634 0.51616 0.0
H1691 H 0.53473 0.45022 0.7081 0.0
H1692 H 0.56673 0.49696 0.67114 0.0
H1693 H 0.54546 0.47402 0.67299 0.0
H1694 H 0.56569 0.45725 0.55811 0.0
H1695 H 0.58686 0.48038 0.55488 0.0
C1696 C 0.52292 0.43024 0.55296 0.0
C1697 C 0.51392 0.42527 0.60409 0.0
C1698 C 0.536 0.44251 0.55715 0.0
C1699 C 0.54042 0.45007 0.61267 0.0
C1700 C 0.53158 0.4448 0.66437 0.0
C1701 C 0.51846 0.43255 0.66007 0.0
C1702 C 0.56668 0.48834 0.64681 0.0
C1703 C 0.57843 0.49049 0.61259 0.0
C1704 C 0.55451 0.47515 0.64815 0.0
C1705 C 0.55381 0.46376 0.61549 0.0
C1706 C 0.56577 0.46583 0.58297 0.0
C1707 C 0.57794 0.47905 0.58144 0.0
H1708 H 0.57924 0.09469 0.49845 0.0
H1709 H 0.57581 0.08435 0.69149 0.0
H1710 H 0.55754 0.09544 0.50391 0.0
H1711 H 0.55434 0.08571 0.69795 0.0
H1712 H 0.50757 0.07063 0.66565 0.0
H1713 H 0.53063 0.07264 0.66774 0.0
H1714 H 0.546 0.10723 0.53916 0.0
H1715 H 0.52267 0.10473 0.53516 0.0
C1716 C 0.57397 0.09284 0.54241 0.0
C1717 C 0.57918 0.08938 0.59447 0.0
C1718 C 0.56154 0.09336 0.5457 0.0
C1719 C 0.55408 0.0906 0.60137 0.0
C1720 C 0.55962 0.08764 0.65401 0.0
C1721 C 0.57199 0.08696 0.6505 0.0
C1722 C 0.51592 0.07874 0.63822 0.0
C1723 C 0.51329 0.08746 0.59993 0.0
C1724 C 0.5292 0.07997 0.63971 0.0
C1725 C 0.54025 0.09007 0.60344 0.0
C1726 C 0.53771 0.09914 0.5668 0.0
C1727 C 0.52436 0.09779 0.56479 0.0
H1728 H 0.76294 0.58482 0.97219 0.0
H1729 H 0.7614 0.57871 0.16871 0.0
H1730 H 0.78427 0.58319 0.96686 0.0
H1731 H 0.78295 0.57765 0.16406 0.0
H1732 H 0.81675 0.56661 0.13662 0.0
H1733 H 0.79364 0.56463 0.13341 0.0
H1734 H 0.80836 0.5966 0.99234 0.0
H1735 H 0.83122 0.5981 0.99394 0.0
C1736 C 0.76716 0.5831 0.01422 0.0
C1737 C 0.76052 0.58191 0.07086 0.0
C1738 C 0.77944 0.58226 0.01129 0.0
C1739 C 0.78544 0.58035 0.06506 0.0
C1740 C 0.77857 0.57889 0.12151 0.0
C1741 C 0.76624 0.57959 0.1243 0.0
C1742 C 0.81497 0.57309 0.10446 0.0
C1743 C 0.8258 0.58254 0.06568 0.0
C1744 C 0.80175 0.57203 0.10288 0.0
C1745 C 0.7991 0.58053 0.06297 0.0
C1746 C 0.80989 0.58973 0.02308 0.0
C1747 C 0.82305 0.59067 0.02422 0.0
H1748 H 0.40458 0.1717 0.98816 0.0
H1749 H 0.4386 0.1874 0.11934 0.0
H1750 H 0.40603 0.19456 0.98645 0.0
H1751 H 0.44049 0.21044 0.11592 0.0
H1752 H 0.42676 0.24265 0.15842 0.0
H1753 H 0.4278 0.2211 0.15213 0.0
H1754 H 0.41899 0.21856 0.95731 0.0
H1755 H 0.41742 0.2399 0.9644 0.0
C1756 C 0.41255 0.18013 0.01576 0.0
C1757 C 0.42141 0.17774 0.0542 0.0
C1758 C 0.41344 0.19328 0.01457 0.0
C1759 C 0.42332 0.20438 0.05139 0.0
C1760 C 0.43255 0.20209 0.08794 0.0
C1761 C 0.43155 0.1889 0.08959 0.0
C1762 C 0.42516 0.23755 0.11415 0.0
C1763 C 0.42195 0.24294 0.06197 0.0
C1764 C 0.42585 0.22522 0.11038 0.0
C1765 C 0.42347 0.21802 0.05417 0.0
C1766 C 0.42065 0.22367 0.00156 0.0
C1767 C 0.41985 0.23596 0.00548 0.0
H1768 H 0.77354 0.17193 0.99715 0.0
H1769 H 0.7521 0.18927 0.09954 0.0
H1770 H 0.79485 0.19482 0.99649 0.0
H1771 H 0.7733 0.21238 0.09713 0.0
H1772 H 0.81852 0.24582 0.15052 0.0
H1773 H 0.796 0.22413 0.14309 0.0
H1774 H 0.80605 0.2181 0.95748 0.0
H1775 H 0.82881 0.23956 0.96599 0.0
C1776 C 0.77332 0.18071 0.01867 0.0
C1777 C 0.76117 0.17879 0.04863 0.0
C1778 C 0.78553 0.19388 0.01799 0.0
C1779 C 0.78585 0.2055 0.04689 0.0
C1780 C 0.77352 0.20364 0.07529 0.0
C1781 C 0.76133 0.19042 0.07632 0.0
C1782 C 0.81586 0.23991 0.10796 0.0
C1783 C 0.82547 0.24434 0.05899 0.0
C1784 C 0.8029 0.2275 0.1035 0.0
C1785 C 0.79919 0.21928 0.04975 0.0
C1786 C 0.80864 0.22401 -1e-05 0.0
C1787 C 0.82166 0.23636 0.00467 0.0
H1788 H 0.58549 0.76226 0.03646 0.0
H1789 H 0.57699 0.75958 0.84162 0.0
H1790 H 0.5837 0.78348 0.04255 0.0
H1791 H 0.5757 0.78103 0.84703 0.0
H1792 H 0.56484 0.81495 0.87942 0.0
H1793 H 0.56287 0.79183 0.88237 0.0
H1794 H 0.59712 0.80744 0.0128 0.0
H1795 H 0.59871 0.83032 0.01134 0.0
C1796 C 0.58319 0.76619 0.99498 0.0
C1797 C 0.58143 0.75929 0.93854 0.0
C1798 C 0.58225 0.77841 0.99834 0.0
C1799 C 0.57964 0.78406 0.94522 0.0
C1800 C 0.57752 0.7769 0.88908 0.0
C1801 C 0.57835 0.76464 0.88584 0.0
C1802 C 0.57182 0.81336 0.90926 0.0
C1803 C 0.58195 0.82445 0.94502 0.0
C1804 C 0.57076 0.80014 0.91065 0.0
C1805 C 0.57989 0.79774 0.94754 0.0
C1806 C 0.58977 0.80879 0.98451 0.0
C1807 C 0.59075 0.82196 0.98342 0.0
H1808 H 0.17353 0.76691 0.9989 0.0
H1809 H 0.18623 0.75222 0.84076 0.0
H1810 H 0.1965 0.78818 0.00115 0.0
H1811 H 0.20941 0.77324 0.84422 0.0
H1812 H 0.24153 0.82008 0.81978 0.0
H1813 H 0.21983 0.79753 0.82199 0.0
H1814 H 0.22094 0.79805 0.02072 0.0
H1815 H 0.24243 0.82092 0.01824 0.0
C1816 C 0.18133 0.76813 0.96521 0.0
C1817 C 0.17806 0.75794 0.91942 0.0
C1818 C 0.19454 0.7803 0.96668 0.0
C1819 C 0.20484 0.78251 0.92267 0.0
C1820 C 0.20167 0.77205 0.87811 0.0
C1821 C 0.18841 0.75994 0.87634 0.0
C1822 C 0.2372 0.81532 0.86393 0.0
C1823 C 0.24365 0.82229 0.91882 0.0
C1824 C 0.22478 0.80233 0.86526 0.0
C1825 C 0.21856 0.79593 0.92157 0.0
C1826 C 0.22528 0.80276 0.97652 0.0
C1827 C 0.23765 0.81582 0.97515 0.0
H1828 H 0.17885 0.41795 0.02653 0.0
H1829 H 0.18397 0.424 0.83011 0.0
H1830 H 0.20193 0.4199 0.03376 0.0
H1831 H 0.20673 0.42539 0.83669 0.0
H1832 H 0.25161 0.43697 0.86773 0.0
H1833 H 0.23036 0.43873 0.86924 0.0
H1834 H 0.21281 0.40658 0.00947 0.0
H1835 H 0.23429 0.40528 0.00952 0.0
C1836 C 0.18493 0.41972 0.98493 0.0
C1837 C 0.1796 0.42079 0.92776 0.0
C1838 C 0.19812 0.42075 0.98896 0.0
C1839 C 0.20622 0.42273 0.93579 0.0
C1840 C 0.20094 0.42409 0.87879 0.0
C1841 C 0.18783 0.4232 0.87489 0.0
C1842 C 0.24327 0.43042 0.89939 0.0
C1843 C 0.24459 0.42096 0.93837 0.0
C1844 C 0.23103 0.43134 0.89997 0.0
C1845 C 0.21976 0.42271 0.93909 0.0
C1846 C 0.2213 0.41353 0.9793 0.0
C1847 C 0.2336 0.41272 0.97913 0.0
H1848 H 0.42744 0.91361 0.3036 0.0
H1849 H 0.42809 0.912 0.50187 0.0
H1850 H 0.44872 0.91188 0.29915 0.0
H1851 H 0.44956 0.91071 0.49769 0.0
H1852 H 0.48305 0.89893 0.47298 0.0
H1853 H 0.4598 0.89668 0.47048 0.0
H1854 H 0.47319 0.92655 0.321 0.0
H1855 H 0.49623 0.92843 0.3224 0.0
C1856 C 0.4321 0.91282 0.34623 0.0
C1857 C 0.42612 0.91298 0.40309 0.0
C1858 C 0.44435 0.91192 0.34372 0.0
C1859 C 0.45093 0.91124 0.39806 0.0
C1860 C 0.4447 0.91102 0.45487 0.0
C1861 C 0.43242 0.91185 0.45733 0.0
C1862 C 0.48094 0.90486 0.43909 0.0
C1863 C 0.49147 0.91389 0.39802 0.0
C1864 C 0.46765 0.90366 0.43792 0.0
C1865 C 0.46462 0.9115 0.39584 0.0
C1866 C 0.47506 0.9202 0.35353 0.0
C1867 C 0.48831 0.92135 0.35452 0.0
H1868 H 0.09111 0.57469 0.49386 0.0
H1869 H 0.08733 0.57477 0.29626 0.0
H1870 H 0.09228 0.55318 0.48791 0.0
H1871 H 0.08895 0.55346 0.28993 0.0
H1872 H 0.07305 0.50605 0.31396 0.0
H1873 H 0.0747 0.529 0.31342 0.0
H1874 H 0.10614 0.54309 0.4567 0.0
H1875 H 0.10412 0.51997 0.45847 0.0
C1876 C 0.09075 0.57022 0.44905 0.0
C1877 C 0.08906 0.57637 0.39557 0.0
C1878 C 0.0915 0.55792 0.44554 0.0
C1879 C 0.09068 0.55153 0.38841 0.0
C1880 C 0.08939 0.55795 0.33475 0.0
C1881 C 0.08856 0.57022 0.33832 0.0
C1882 C 0.08042 0.51411 0.34485 0.0
C1883 C 0.08839 0.51119 0.38652 0.0
C1884 C 0.08143 0.5273 0.34437 0.0
C1885 C 0.0905 0.5379 0.38532 0.0
C1886 C 0.09885 0.53511 0.42536 0.0
C1887 C 0.09777 0.52188 0.4261 0.0
H1888 H 0.4929 0.57449 0.30645 0.0
H1889 H 0.48718 0.57647 0.50182 0.0
H1890 H 0.46989 0.55325 0.29964 0.0
H1891 H 0.4645 0.55501 0.49575 0.0
H1892 H 0.41978 0.52136 0.46442 0.0
H1893 H 0.44097 0.54443 0.46178 0.0
H1894 H 0.459 0.52919 0.32661 0.0
H1895 H 0.43759 0.50636 0.3276 0.0
C1896 C 0.4867 0.5704 0.3479 0.0
C1897 C 0.49185 0.57712 0.40467 0.0
C1898 C 0.47355 0.55816 0.34413 0.0
C1899 C 0.46531 0.55232 0.39718 0.0
C1900 C 0.47039 0.55928 0.45371 0.0
C1901 C 0.48347 0.57156 0.45733 0.0
C1902 C 0.42822 0.52302 0.43363 0.0
C1903 C 0.42705 0.51205 0.39638 0.0
C1904 C 0.44042 0.53621 0.4324 0.0
C1905 C 0.4518 0.5387 0.39438 0.0
C1906 C 0.45042 0.52778 0.35587 0.0
C1907 C 0.43816 0.51464 0.35667 0.0
loop_
_geom_bond_atom_site_label_1
_geom_bond_atom_site_label_2
_geom_bond_distance
_geom_bond_site_symmetry_2
_ccdc_geom_bond_type
In0 O1 2.294 . S
In0 O2 2.326 . S
In0 O6 2.266 . S
In0 O7 2.326 . S
In0 O8 2.266 . S
In0 O9 2.326 . S
In0 O11 2.294 . S
In0 O12 2.326 . S
O1 In0 2.294 . S
O1 C10 1.240 . S
O2 In0 2.326 . S
O2 C10 1.252 . S
C3 O6 1.252 . S
C3 O7 1.260 . S
C4 O11 1.240 . S
C4 O12 1.252 . S
C5 O8 1.252 . S
C5 O9 1.260 . S
O6 In0 2.266 . S
O6 C3 1.252 . S
O7 In0 2.326 . S
O7 C3 1.260 . S
O8 In0 2.266 . S
O8 C5 1.252 . S
O9 In0 2.326 . S
O9 C5 1.260 . S
C10 O1 1.240 . S
C10 O2 1.252 . S
O11 In0 2.294 . S
O11 C4 1.240 . S
O12 In0 2.326 . S
O12 C4 1.252 . S
In13 O14 2.294 . S
In13 O15 2.326 . S
In13 O19 2.266 . S
In13 O20 2.326 . S
In13 O21 2.266 . S
In13 O22 2.326 . S
In13 O24 2.294 . S
In13 O25 2.326 . S
O14 In13 2.294 . S
O14 C23 1.240 . S
O15 In13 2.326 . S
O15 C23 1.252 . S
C16 O19 1.252 . S
C16 O20 1.260 . S
C17 O24 1.240 . S
C17 O25 1.252 . S
C18 O21 1.252 . S
C18 O22 1.260 . S
O19 In13 2.266 . S
O19 C16 1.252 . S
O20 In13 2.326 . S
O20 C16 1.260 . S
O21 In13 2.266 . S
O21 C18 1.252 . S
O22 In13 2.326 . S
O22 C18 1.260 . S
C23 O14 1.240 . S
C23 O15 1.252 . S
O24 In13 2.294 . S
O24 C17 1.240 . S
O25 In13 2.326 . S
O25 C17 1.252 . S
In26 O27 2.294 . S
In26 O28 2.326 . S
In26 O32 2.266 . S
In26 O33 2.326 . S
In26 O34 2.266 . S
In26 O35 2.326 . S
In26 O37 2.294 . S
In26 O38 2.326 . S
O27 In26 2.294 . S
O27 C36 1.240 . S
O28 In26 2.326 . S
O28 C36 1.252 . S
C29 O32 1.252 . S
C29 O33 1.260 . S
C30 O37 1.240 . S
C30 O38 1.252 . S
C31 O34 1.252 . S
C31 O35 1.260 . S
O32 In26 2.266 . S
O32 C29 1.252 . S
O33 In26 2.326 . S
O33 C29 1.260 . S
O34 In26 2.266 . S
O34 C31 1.252 . S
O35 In26 2.326 . S
O35 C31 1.260 . S
C36 O27 1.240 . S
C36 O28 1.252 . S
O37 In26 2.294 . S
O37 C30 1.240 . S
O38 In26 2.326 . S
O38 C30 1.252 . S
In39 O40 2.294 . S
In39 O41 2.326 . S
In39 O45 2.266 . S
In39 O46 2.326 . S
In39 O47 2.266 . S
In39 O48 2.326 . S
In39 O50 2.294 . S
In39 O51 2.326 . S
O40 In39 2.294 . S
O40 C49 1.240 . S
O41 In39 2.326 . S
O41 C49 1.252 . S
C42 O45 1.252 . S
C42 O46 1.260 . S
C43 O50 1.240 . S
C43 O51 1.252 . S
C44 O47 1.252 . S
C44 O48 1.260 . S
O45 In39 2.266 . S
O45 C42 1.252 . S
O46 In39 2.326 . S
O46 C42 1.260 . S
O47 In39 2.266 . S
O47 C44 1.252 . S
O48 In39 2.326 . S
O48 C44 1.260 . S
C49 O40 1.240 . S
C49 O41 1.252 . S
O50 In39 2.294 . S
O50 C43 1.240 . S
O51 In39 2.326 . S
O51 C43 1.252 . S
In52 O53 2.294 . S
In52 O54 2.326 . S
In52 O58 2.266 . S
In52 O59 2.326 . S
In52 O60 2.266 . S
In52 O61 2.326 . S
In52 O63 2.294 . S
In52 O64 2.326 . S
O53 In52 2.294 . S
O53 C62 1.240 . S
O54 In52 2.326 . S
O54 C62 1.252 . S
C55 O58 1.252 . S
C55 O59 1.260 . S
C56 O63 1.240 . S
C56 O64 1.252 . S
C57 O60 1.252 . S
C57 O61 1.260 . S
O58 In52 2.266 . S
O58 C55 1.252 . S
O59 In52 2.326 . S
O59 C55 1.260 . S
O60 In52 2.266 . S
O60 C57 1.252 . S
O61 In52 2.326 . S
O61 C57 1.260 . S
C62 O53 1.240 . S
C62 O54 1.252 . S
O63 In52 2.294 . S
O63 C56 1.240 . S
O64 In52 2.326 . S
O64 C56 1.252 . S
In65 O66 2.294 . S
In65 O67 2.326 . S
In65 O71 2.266 . S
In65 O72 2.326 . S
In65 O73 2.266 . S
In65 O74 2.326 . S
In65 O76 2.294 . S
In65 O77 2.326 . S
O66 In65 2.294 . S
O66 C75 1.240 . S
O67 In65 2.326 . S
O67 C75 1.252 . S
C68 O71 1.252 . S
C68 O72 1.260 . S
C69 O76 1.240 . S
C69 O77 1.252 . S
C70 O73 1.252 . S
C70 O74 1.260 . S
O71 In65 2.266 . S
O71 C68 1.252 . S
O72 In65 2.326 . S
O72 C68 1.260 . S
O73 In65 2.266 . S
O73 C70 1.252 . S
O74 In65 2.326 . S
O74 C70 1.260 . S
C75 O66 1.240 . S
C75 O67 1.252 . S
O76 In65 2.294 . S
O76 C69 1.240 . S
O77 In65 2.326 . S
O77 C69 1.252 . S
In78 O79 2.294 . S
In78 O80 2.326 . S
In78 O84 2.266 . S
In78 O85 2.326 . S
In78 O86 2.266 . S
In78 O87 2.326 . S
In78 O89 2.294 . S
In78 O90 2.326 . S
O79 In78 2.294 . S
O79 C88 1.240 . S
O80 In78 2.326 . S
O80 C88 1.252 . S
C81 O84 1.252 . S
C81 O85 1.260 . S
C82 O89 1.240 . S
C82 O90 1.252 . S
C83 O86 1.252 . S
C83 O87 1.260 . S
O84 In78 2.266 . S
O84 C81 1.252 . S
O85 In78 2.326 . S
O85 C81 1.260 . S
O86 In78 2.266 . S
O86 C83 1.252 . S
O87 In78 2.326 . S
O87 C83 1.260 . S
C88 O79 1.240 . S
C88 O80 1.252 . S
O89 In78 2.294 . S
O89 C82 1.240 . S
O90 In78 2.326 . S
O90 C82 1.252 . S
In91 O92 2.294 . S
In91 O93 2.326 . S
In91 O97 2.266 . S
In91 O98 2.326 . S
In91 O99 2.266 . S
In91 O100 2.326 . S
In91 O102 2.294 . S
In91 O103 2.326 . S
O92 In91 2.294 . S
O92 C101 1.240 . S
O93 In91 2.326 . S
O93 C101 1.252 . S
C94 O97 1.252 . S
C94 O98 1.260 . S
C95 O102 1.240 . S
C95 O103 1.252 . S
C96 O99 1.252 . S
C96 O100 1.260 . S
O97 In91 2.266 . S
O97 C94 1.252 . S
O98 In91 2.326 . S
O98 C94 1.260 . S
O99 In91 2.266 . S
O99 C96 1.252 . S
O100 In91 2.326 . S
O100 C96 1.260 . S
C101 O92 1.240 . S
C101 O93 1.252 . S
O102 In91 2.294 . S
O102 C95 1.240 . S
O103 In91 2.326 . S
O103 C95 1.252 . S
In104 O105 2.294 . S
In104 O106 2.326 . S
In104 O110 2.266 . S
In104 O111 2.326 . S
In104 O112 2.266 . S
In104 O113 2.326 . S
In104 O115 2.294 . S
In104 O116 2.326 . S
O105 In104 2.294 . S
O105 C114 1.240 . S
O106 In104 2.326 . S
O106 C114 1.252 . S
C107 O110 1.252 . S
C107 O111 1.260 . S
C108 O115 1.240 . S
C108 O116 1.252 . S
C109 O112 1.252 . S
C109 O113 1.260 . S
O110 In104 2.266 . S
O110 C107 1.252 . S
O111 In104 2.326 . S
O111 C107 1.260 . S
O112 In104 2.266 . S
O112 C109 1.252 . S
O113 In104 2.326 . S
O113 C109 1.260 . S
C114 O105 1.240 . S
C114 O106 1.252 . S
O115 In104 2.294 . S
O115 C108 1.240 . S
O116 In104 2.326 . S
O116 C108 1.252 . S
In117 O118 2.294 . S
In117 O119 2.326 . S
In117 O123 2.266 . S
In117 O124 2.326 . S
In117 O125 2.266 . S
In117 O126 2.326 . S
In117 O128 2.294 . S
In117 O129 2.326 . S
O118 In117 2.294 . S
O118 C127 1.240 . S
O119 In117 2.326 . S
O119 C127 1.252 . S
C120 O123 1.252 . S
C120 O124 1.260 . S
C121 O128 1.240 . S
C121 O129 1.252 . S
C122 O125 1.252 . S
C122 O126 1.260 . S
O123 In117 2.266 . S
O123 C120 1.252 . S
O124 In117 2.326 . S
O124 C120 1.260 . S
O125 In117 2.266 . S
O125 C122 1.252 . S
O126 In117 2.326 . S
O126 C122 1.260 . S
C127 O118 1.240 . S
C127 O119 1.252 . S
O128 In117 2.294 . S
O128 C121 1.240 . S
O129 In117 2.326 . S
O129 C121 1.252 . S
In130 O131 2.294 . S
In130 O132 2.326 . S
In130 O136 2.266 . S
In130 O137 2.326 . S
In130 O138 2.266 . S
In130 O139 2.326 . S
In130 O141 2.294 . S
In130 O142 2.326 . S
O131 In130 2.294 . S
O131 C140 1.240 . S
O132 In130 2.326 . S
O132 C140 1.252 . S
C133 O136 1.252 . S
C133 O137 1.260 . S
C134 O141 1.240 . S
C134 O142 1.252 . S
C135 O138 1.252 . S
C135 O139 1.260 . S
O136 In130 2.266 . S
O136 C133 1.252 . S
O137 In130 2.326 . S
O137 C133 1.260 . S
O138 In130 2.266 . S
O138 C135 1.252 . S
O139 In130 2.326 . S
O139 C135 1.260 . S
C140 O131 1.240 . S
C140 O132 1.252 . S
O141 In130 2.294 . S
O141 C134 1.240 . S
O142 In130 2.326 . S
O142 C134 1.252 . S
In143 O144 2.294 . S
In143 O145 2.326 . S
In143 O149 2.266 . S
In143 O150 2.326 . S
In143 O151 2.266 . S
In143 O152 2.326 . S
In143 O154 2.294 . S
In143 O155 2.326 . S
O144 In143 2.294 . S
O144 C153 1.240 . S
O145 In143 2.326 . S
O145 C153 1.252 . S
C146 O149 1.252 . S
C146 O150 1.260 . S
C147 O154 1.240 . S
C147 O155 1.252 . S
C148 O151 1.252 . S
C148 O152 1.260 . S
O149 In143 2.266 . S
O149 C146 1.252 . S
O150 In143 2.326 . S
O150 C146 1.260 . S
O151 In143 2.266 . S
O151 C148 1.252 . S
O152 In143 2.326 . S
O152 C148 1.260 . S
C153 O144 1.240 . S
C153 O145 1.252 . S
O154 In143 2.294 . S
O154 C147 1.240 . S
O155 In143 2.326 . S
O155 C147 1.252 . S
In156 O157 2.294 . S
In156 O158 2.326 . S
In156 O162 2.266 . S
In156 O163 2.326 . S
In156 O164 2.266 . S
In156 O165 2.326 . S
In156 O167 2.294 . S
In156 O168 2.326 . S
O157 In156 2.294 . S
O157 C166 1.240 . S
O158 In156 2.326 . S
O158 C166 1.252 . S
C159 O162 1.252 . S
C159 O163 1.260 . S
C160 O167 1.240 . S
C160 O168 1.252 . S
C161 O164 1.252 . S
C161 O165 1.260 . S
O162 In156 2.266 . S
O162 C159 1.252 . S
O163 In156 2.326 . S
O163 C159 1.260 . S
O164 In156 2.266 . S
O164 C161 1.252 . S
O165 In156 2.326 . S
O165 C161 1.260 . S
C166 O157 1.240 . S
C166 O158 1.252 . S
O167 In156 2.294 . S
O167 C160 1.240 . S
O168 In156 2.326 . S
O168 C160 1.252 . S
In169 O170 2.294 . S
In169 O171 2.326 . S
In169 O175 2.266 . S
In169 O176 2.326 . S
In169 O177 2.266 . S
In169 O178 2.326 . S
In169 O180 2.294 . S
In169 O181 2.326 . S
O170 In169 2.294 . S
O170 C179 1.240 . S
O171 In169 2.326 . S
O171 C179 1.252 . S
C172 O175 1.252 . S
C172 O176 1.260 . S
C173 O180 1.240 . S
C173 O181 1.252 . S
C174 O177 1.252 . S
C174 O178 1.260 . S
O175 In169 2.266 . S
O175 C172 1.252 . S
O176 In169 2.326 . S
O176 C172 1.260 . S
O177 In169 2.266 . S
O177 C174 1.252 . S
O178 In169 2.326 . S
O178 C174 1.260 . S
C179 O170 1.240 . S
C179 O171 1.252 . S
O180 In169 2.294 . S
O180 C173 1.240 . S
O181 In169 2.326 . S
O181 C173 1.252 . S
In182 O183 2.294 . S
In182 O184 2.326 . S
In182 O188 2.266 . S
In182 O189 2.326 . S
In182 O190 2.266 . S
In182 O191 2.326 . S
In182 O193 2.294 . S
In182 O194 2.326 . S
O183 In182 2.294 . S
O183 C192 1.240 . S
O184 In182 2.326 . S
O184 C192 1.252 . S
C185 O188 1.252 . S
C185 O189 1.260 . S
C186 O193 1.240 . S
C186 O194 1.252 . S
C187 O190 1.252 . S
C187 O191 1.260 . S
O188 In182 2.266 . S
O188 C185 1.252 . S
O189 In182 2.326 . S
O189 C185 1.260 . S
O190 In182 2.266 . S
O190 C187 1.252 . S
O191 In182 2.326 . S
O191 C187 1.260 . S
C192 O183 1.240 . S
C192 O184 1.252 . S
O193 In182 2.294 . S
O193 C186 1.240 . S
O194 In182 2.326 . S
O194 C186 1.252 . S
In195 O196 2.294 . S
In195 O197 2.326 . S
In195 O201 2.266 . S
In195 O202 2.326 . S
In195 O203 2.266 . S
In195 O204 2.326 . S
In195 O206 2.294 . S
In195 O207 2.326 . S
O196 In195 2.294 . S
O196 C205 1.240 . S
O197 In195 2.326 . S
O197 C205 1.252 . S
C198 O201 1.252 . S
C198 O202 1.260 . S
C199 O206 1.240 1_556 S
C199 O207 1.252 1_556 S
C200 O203 1.252 . S
C200 O204 1.260 . S
O201 In195 2.266 . S
O201 C198 1.252 . S
O202 In195 2.326 . S
O202 C198 1.260 . S
O203 In195 2.266 . S
O203 C200 1.252 . S
O204 In195 2.326 . S
O204 C200 1.260 . S
C205 O196 1.240 . S
C205 O197 1.252 . S
O206 In195 2.294 . S
O206 C199 1.240 1_554 S
O207 In195 2.326 . S
O207 C199 1.252 1_554 S
In208 O209 2.294 . S
In208 O210 2.326 . S
In208 O214 2.266 . S
In208 O215 2.326 . S
In208 O216 2.266 . S
In208 O217 2.326 . S
In208 O219 2.294 . S
In208 O220 2.326 . S
O209 In208 2.294 . S
O209 C218 1.240 1_554 S
O210 In208 2.326 . S
O210 C218 1.252 1_554 S
C211 O214 1.252 . S
C211 O215 1.260 . S
C212 O219 1.240 . S
C212 O220 1.252 . S
C213 O216 1.252 . S
C213 O217 1.260 . S
O214 In208 2.266 . S
O214 C211 1.252 . S
O215 In208 2.326 . S
O215 C211 1.260 . S
O216 In208 2.266 . S
O216 C213 1.252 . S
O217 In208 2.326 . S
O217 C213 1.260 . S
C218 O209 1.240 1_556 S
C218 O210 1.252 1_556 S
O219 In208 2.294 . S
O219 C212 1.240 . S
O220 In208 2.326 . S
O220 C212 1.252 . S
In221 O222 2.294 . S
In221 O223 2.326 . S
In221 O227 2.266 . S
In221 O228 2.326 . S
In221 O229 2.266 . S
In221 O230 2.326 . S
In221 O232 2.294 . S
In221 O233 2.326 . S
O222 In221 2.294 . S
O222 C231 1.240 . S
O223 In221 2.326 . S
O223 C231 1.252 . S
C224 O227 1.252 . S
C224 O228 1.260 . S
C225 O232 1.240 1_556 S
C225 O233 1.252 1_556 S
C226 O229 1.252 . S
C226 O230 1.260 . S
O227 In221 2.266 . S
O227 C224 1.252 . S
O228 In221 2.326 . S
O228 C224 1.260 . S
O229 In221 2.266 . S
O229 C226 1.252 . S
O230 In221 2.326 . S
O230 C226 1.260 . S
C231 O222 1.240 . S
C231 O223 1.252 . S
O232 In221 2.294 . S
O232 C225 1.240 1_554 S
O233 In221 2.326 . S
O233 C225 1.252 1_554 S
In234 O235 2.294 . S
In234 O236 2.326 . S
In234 O240 2.266 . S
In234 O241 2.326 . S
In234 O242 2.266 . S
In234 O243 2.326 . S
In234 O245 2.294 . S
In234 O246 2.326 . S
O235 In234 2.294 . S
O235 C244 1.240 1_554 S
O236 In234 2.326 . S
O236 C244 1.252 1_554 S
C237 O240 1.252 . S
C237 O241 1.260 . S
C238 O245 1.240 . S
C238 O246 1.252 . S
C239 O242 1.252 . S
C239 O243 1.260 . S
O240 In234 2.266 . S
O240 C237 1.252 . S
O241 In234 2.326 . S
O241 C237 1.260 . S
O242 In234 2.266 . S
O242 C239 1.252 . S
O243 In234 2.326 . S
O243 C239 1.260 . S
C244 O235 1.240 1_556 S
C244 O236 1.252 1_556 S
O245 In234 2.294 . S
O245 C238 1.240 . S
O246 In234 2.326 . S
O246 C238 1.252 . S
In247 O248 2.294 . S
In247 O249 2.326 . S
In247 O253 2.266 . S
In247 O254 2.326 . S
In247 O255 2.266 . S
In247 O256 2.326 . S
In247 O258 2.294 . S
In247 O259 2.326 . S
O248 In247 2.294 . S
O248 C257 1.240 1_554 S
O249 In247 2.326 . S
O249 C257 1.252 1_554 S
C250 O253 1.252 . S
C250 O254 1.260 . S
C251 O258 1.240 . S
C251 O259 1.252 . S
C252 O255 1.252 . S
C252 O256 1.260 . S
O253 In247 2.266 . S
O253 C250 1.252 . S
O254 In247 2.326 . S
O254 C250 1.260 . S
O255 In247 2.266 . S
O255 C252 1.252 . S
O256 In247 2.326 . S
O256 C252 1.260 . S
C257 O248 1.240 1_556 S
C257 O249 1.252 1_556 S
O258 In247 2.294 . S
O258 C251 1.240 . S
O259 In247 2.326 . S
O259 C251 1.252 . S
In260 O261 2.294 . S
In260 O262 2.326 . S
In260 O266 2.266 . S
In260 O267 2.326 . S
In260 O268 2.266 . S
In260 O269 2.326 . S
In260 O271 2.294 . S
In260 O272 2.326 . S
O261 In260 2.294 . S
O261 C270 1.240 . S
O262 In260 2.326 . S
O262 C270 1.252 . S
C263 O266 1.252 . S
C263 O267 1.260 . S
C264 O271 1.240 1_556 S
C264 O272 1.252 1_556 S
C265 O268 1.252 . S
C265 O269 1.260 . S
O266 In260 2.266 . S
O266 C263 1.252 . S
O267 In260 2.326 . S
O267 C263 1.260 . S
O268 In260 2.266 . S
O268 C265 1.252 . S
O269 In260 2.326 . S
O269 C265 1.260 . S
C270 O261 1.240 . S
C270 O262 1.252 . S
O271 In260 2.294 . S
O271 C264 1.240 1_554 S
O272 In260 2.326 . S
O272 C264 1.252 1_554 S
In273 O274 2.294 . S
In273 O275 2.326 . S
In273 O279 2.266 . S
In273 O280 2.326 . S
In273 O281 2.266 . S
In273 O282 2.326 . S
In273 O284 2.294 . S
In273 O285 2.326 . S
O274 In273 2.294 . S
O274 C283 1.240 . S
O275 In273 2.326 . S
O275 C283 1.252 . S
C276 O279 1.252 . S
C276 O280 1.260 . S
C277 O284 1.240 . S
C277 O285 1.252 . S
C278 O281 1.252 . S
C278 O282 1.260 . S
O279 In273 2.266 . S
O279 C276 1.252 . S
O280 In273 2.326 . S
O280 C276 1.260 . S
O281 In273 2.266 . S
O281 C278 1.252 . S
O282 In273 2.326 . S
O282 C278 1.260 . S
C283 O274 1.240 . S
C283 O275 1.252 . S
O284 In273 2.294 . S
O284 C277 1.240 . S
O285 In273 2.326 . S
O285 C277 1.252 . S
In286 O287 2.294 . S
In286 O288 2.326 . S
In286 O292 2.266 . S
In286 O293 2.326 . S
In286 O294 2.266 . S
In286 O295 2.326 . S
In286 O297 2.294 . S
In286 O298 2.326 . S
O287 In286 2.294 . S
O287 C296 1.240 . S
O288 In286 2.326 . S
O288 C296 1.252 . S
C289 O292 1.252 . S
C289 O293 1.260 . S
C290 O297 1.240 . S
C290 O298 1.252 . S
C291 O294 1.252 . S
C291 O295 1.260 . S
O292 In286 2.266 . S
O292 C289 1.252 . S
O293 In286 2.326 . S
O293 C289 1.260 . S
O294 In286 2.266 . S
O294 C291 1.252 . S
O295 In286 2.326 . S
O295 C291 1.260 . S
C296 O287 1.240 . S
C296 O288 1.252 . S
O297 In286 2.294 . S
O297 C290 1.240 . S
O298 In286 2.326 . S
O298 C290 1.252 . S
In299 O300 2.294 . S
In299 O301 2.326 . S
In299 O305 2.266 . S
In299 O306 2.326 . S
In299 O307 2.266 . S
In299 O308 2.326 . S
In299 O310 2.294 . S
In299 O311 2.326 . S
O300 In299 2.294 . S
O300 C309 1.240 . S
O301 In299 2.326 . S
O301 C309 1.252 . S
C302 O305 1.252 . S
C302 O306 1.260 . S
C303 O310 1.240 . S
C303 O311 1.252 . S
C304 O307 1.252 . S
C304 O308 1.260 . S
O305 In299 2.266 . S
O305 C302 1.252 . S
O306 In299 2.326 . S
O306 C302 1.260 . S
O307 In299 2.266 . S
O307 C304 1.252 . S
O308 In299 2.326 . S
O308 C304 1.260 . S
C309 O300 1.240 . S
C309 O301 1.252 . S
O310 In299 2.294 . S
O310 C303 1.240 . S
O311 In299 2.326 . S
O311 C303 1.252 . S
In312 O313 2.294 . S
In312 O314 2.326 . S
In312 O318 2.266 . S
In312 O319 2.326 . S
In312 O320 2.266 . S
In312 O321 2.326 . S
In312 O323 2.294 . S
In312 O324 2.326 . S
O313 In312 2.294 . S
O313 C322 1.240 . S
O314 In312 2.326 . S
O314 C322 1.252 . S
C315 O318 1.252 . S
C315 O319 1.260 . S
C316 O323 1.240 1_554 S
C316 O324 1.252 1_554 S
C317 O320 1.252 . S
C317 O321 1.260 . S
O318 In312 2.266 . S
O318 C315 1.252 . S
O319 In312 2.326 . S
O319 C315 1.260 . S
O320 In312 2.266 . S
O320 C317 1.252 . S
O321 In312 2.326 . S
O321 C317 1.260 . S
C322 O313 1.240 . S
C322 O314 1.252 . S
O323 In312 2.294 . S
O323 C316 1.240 1_556 S
O324 In312 2.326 . S
O324 C316 1.252 1_556 S
In325 O326 2.294 . S
In325 O327 2.326 . S
In325 O331 2.266 . S
In325 O332 2.326 . S
In325 O333 2.266 . S
In325 O334 2.326 . S
In325 O336 2.294 . S
In325 O337 2.326 . S
O326 In325 2.294 . S
O326 C335 1.240 1_556 S
O327 In325 2.326 . S
O327 C335 1.252 1_556 S
C328 O331 1.252 . S
C328 O332 1.260 . S
C329 O336 1.240 . S
C329 O337 1.252 . S
C330 O333 1.252 . S
C330 O334 1.260 . S
O331 In325 2.266 . S
O331 C328 1.252 . S
O332 In325 2.326 . S
O332 C328 1.260 . S
O333 In325 2.266 . S
O333 C330 1.252 . S
O334 In325 2.326 . S
O334 C330 1.260 . S
C335 O326 1.240 1_554 S
C335 O327 1.252 1_554 S
O336 In325 2.294 . S
O336 C329 1.240 . S
O337 In325 2.326 . S
O337 C329 1.252 . S
In338 O339 2.294 . S
In338 O340 2.326 . S
In338 O344 2.266 . S
In338 O345 2.326 . S
In338 O346 2.266 . S
In338 O347 2.326 . S
In338 O349 2.294 . S
In338 O350 2.326 . S
O339 In338 2.294 . S
O339 C348 1.240 1_556 S
O340 In338 2.326 . S
O340 C348 1.252 1_556 S
C341 O344 1.252 . S
C341 O345 1.260 . S
C342 O349 1.240 . S
C342 O350 1.252 . S
C343 O346 1.252 . S
C343 O347 1.260 . S
O344 In338 2.266 . S
O344 C341 1.252 . S
O345 In338 2.326 . S
O345 C341 1.260 . S
O346 In338 2.266 . S
O346 C343 1.252 . S
O347 In338 2.326 . S
O347 C343 1.260 . S
C348 O339 1.240 1_554 S
C348 O340 1.252 1_554 S
O349 In338 2.294 . S
O349 C342 1.240 . S
O350 In338 2.326 . S
O350 C342 1.252 . S
In351 O352 2.294 . S
In351 O353 2.326 . S
In351 O357 2.266 . S
In351 O358 2.326 . S
In351 O359 2.266 . S
In351 O360 2.326 . S
In351 O362 2.294 . S
In351 O363 2.326 . S
O352 In351 2.294 . S
O352 C361 1.240 . S
O353 In351 2.326 . S
O353 C361 1.252 . S
C354 O357 1.252 . S
C354 O358 1.260 . S
C355 O362 1.240 . S
C355 O363 1.252 . S
C356 O359 1.252 . S
C356 O360 1.260 . S
O357 In351 2.266 . S
O357 C354 1.252 . S
O358 In351 2.326 . S
O358 C354 1.260 . S
O359 In351 2.266 . S
O359 C356 1.252 . S
O360 In351 2.326 . S
O360 C356 1.260 . S
C361 O352 1.240 . S
C361 O353 1.252 . S
O362 In351 2.294 . S
O362 C355 1.240 . S
O363 In351 2.326 . S
O363 C355 1.252 . S
In364 O365 2.294 . S
In364 O366 2.326 . S
In364 O370 2.266 . S
In364 O371 2.326 . S
In364 O372 2.266 . S
In364 O373 2.326 . S
In364 O375 2.294 . S
In364 O376 2.326 . S
O365 In364 2.294 . S
O365 C374 1.240 . S
O366 In364 2.326 . S
O366 C374 1.252 . S
C367 O370 1.252 . S
C367 O371 1.260 . S
C368 O375 1.240 . S
C368 O376 1.252 . S
C369 O372 1.252 . S
C369 O373 1.260 . S
O370 In364 2.266 . S
O370 C367 1.252 . S
O371 In364 2.326 . S
O371 C367 1.260 . S
O372 In364 2.266 . S
O372 C369 1.252 . S
O373 In364 2.326 . S
O373 C369 1.260 . S
C374 O365 1.240 . S
C374 O366 1.252 . S
O375 In364 2.294 . S
O375 C368 1.240 . S
O376 In364 2.326 . S
O376 C368 1.252 . S
In377 O378 2.294 . S
In377 O379 2.326 . S
In377 O383 2.266 . S
In377 O384 2.326 . S
In377 O385 2.266 . S
In377 O386 2.326 . S
In377 O388 2.294 . S
In377 O389 2.326 . S
O378 In377 2.294 . S
O378 C387 1.240 . S
O379 In377 2.326 . S
O379 C387 1.252 . S
C380 O383 1.252 . S
C380 O384 1.260 . S
C381 O388 1.240 . S
C381 O389 1.252 . S
C382 O385 1.252 . S
C382 O386 1.260 . S
O383 In377 2.266 . S
O383 C380 1.252 . S
O384 In377 2.326 . S
O384 C380 1.260 . S
O385 In377 2.266 . S
O385 C382 1.252 . S
O386 In377 2.326 . S
O386 C382 1.260 . S
C387 O378 1.240 . S
C387 O379 1.252 . S
O388 In377 2.294 . S
O388 C381 1.240 . S
O389 In377 2.326 . S
O389 C381 1.252 . S
In390 O391 2.294 . S
In390 O392 2.326 . S
In390 O396 2.266 . S
In390 O397 2.326 . S
In390 O398 2.266 . S
In390 O399 2.326 . S
In390 O401 2.294 . S
In390 O402 2.326 . S
O391 In390 2.294 . S
O391 C400 1.240 . S
O392 In390 2.326 . S
O392 C400 1.252 . S
C393 O396 1.252 . S
C393 O397 1.260 . S
C394 O401 1.240 . S
C394 O402 1.252 . S
C395 O398 1.252 . S
C395 O399 1.260 . S
O396 In390 2.266 . S
O396 C393 1.252 . S
O397 In390 2.326 . S
O397 C393 1.260 . S
O398 In390 2.266 . S
O398 C395 1.252 . S
O399 In390 2.326 . S
O399 C395 1.260 . S
C400 O391 1.240 . S
C400 O392 1.252 . S
O401 In390 2.294 . S
O401 C394 1.240 . S
O402 In390 2.326 . S
O402 C394 1.252 . S
In403 O404 2.294 . S
In403 O405 2.326 . S
In403 O409 2.266 . S
In403 O410 2.326 . S
In403 O411 2.266 . S
In403 O412 2.326 . S
In403 O414 2.294 . S
In403 O415 2.326 . S
O404 In403 2.294 . S
O404 C413 1.240 . S
O405 In403 2.326 . S
O405 C413 1.252 . S
C406 O409 1.252 . S
C406 O410 1.260 . S
C407 O414 1.240 . S
C407 O415 1.252 . S
C408 O411 1.252 . S
C408 O412 1.260 . S
O409 In403 2.266 . S
O409 C406 1.252 . S
O410 In403 2.326 . S
O410 C406 1.260 . S
O411 In403 2.266 . S
O411 C408 1.252 . S
O412 In403 2.326 . S
O412 C408 1.260 . S
C413 O404 1.240 . S
C413 O405 1.252 . S
O414 In403 2.294 . S
O414 C407 1.240 . S
O415 In403 2.326 . S
O415 C407 1.252 . S
In416 O417 2.294 . S
In416 O418 2.326 . S
In416 O422 2.266 . S
In416 O423 2.326 . S
In416 O424 2.266 . S
In416 O425 2.326 . S
In416 O427 2.294 . S
In416 O428 2.326 . S
O417 In416 2.294 . S
O417 C426 1.240 . S
O418 In416 2.326 . S
O418 C426 1.252 . S
C419 O422 1.252 . S
C419 O423 1.260 . S
C420 O427 1.240 . S
C420 O428 1.252 . S
C421 O424 1.252 . S
C421 O425 1.260 . S
O422 In416 2.266 . S
O422 C419 1.252 . S
O423 In416 2.326 . S
O423 C419 1.260 . S
O424 In416 2.266 . S
O424 C421 1.252 . S
O425 In416 2.326 . S
O425 C421 1.260 . S
C426 O417 1.240 . S
C426 O418 1.252 . S
O427 In416 2.294 . S
O427 C420 1.240 . S
O428 In416 2.326 . S
O428 C420 1.252 . S
In429 O430 2.294 . S
In429 O431 2.326 . S
In429 O435 2.266 . S
In429 O436 2.326 . S
In429 O437 2.266 . S
In429 O438 2.326 . S
In429 O440 2.294 . S
In429 O441 2.326 . S
O430 In429 2.294 . S
O430 C439 1.240 1_556 S
O431 In429 2.326 . S
O431 C439 1.252 1_556 S
C432 O435 1.252 . S
C432 O436 1.260 . S
C433 O440 1.240 . S
C433 O441 1.252 . S
C434 O437 1.252 . S
C434 O438 1.260 . S
O435 In429 2.266 . S
O435 C432 1.252 . S
O436 In429 2.326 . S
O436 C432 1.260 . S
O437 In429 2.266 . S
O437 C434 1.252 . S
O438 In429 2.326 . S
O438 C434 1.260 . S
C439 O430 1.240 1_554 S
C439 O431 1.252 1_554 S
O440 In429 2.294 . S
O440 C433 1.240 . S
O441 In429 2.326 . S
O441 C433 1.252 . S
In442 O443 2.294 . S
In442 O444 2.326 . S
In442 O448 2.266 . S
In442 O449 2.326 . S
In442 O450 2.266 . S
In442 O451 2.326 . S
In442 O453 2.294 . S
In442 O454 2.326 . S
O443 In442 2.294 . S
O443 C452 1.240 . S
O444 In442 2.326 . S
O444 C452 1.252 . S
C445 O448 1.252 . S
C445 O449 1.260 . S
C446 O453 1.240 1_554 S
C446 O454 1.252 1_554 S
C447 O450 1.252 . S
C447 O451 1.260 . S
O448 In442 2.266 . S
O448 C445 1.252 . S
O449 In442 2.326 . S
O449 C445 1.260 . S
O450 In442 2.266 . S
O450 C447 1.252 . S
O451 In442 2.326 . S
O451 C447 1.260 . S
C452 O443 1.240 . S
C452 O444 1.252 . S
O453 In442 2.294 . S
O453 C446 1.240 1_556 S
O454 In442 2.326 . S
O454 C446 1.252 1_556 S
In455 O456 2.294 . S
In455 O457 2.326 . S
In455 O461 2.266 . S
In455 O462 2.326 . S
In455 O463 2.266 . S
In455 O464 2.326 . S
In455 O466 2.294 . S
In455 O467 2.326 . S
O456 In455 2.294 . S
O456 C465 1.240 1_556 S
O457 In455 2.326 . S
O457 C465 1.252 1_556 S
C458 O461 1.252 . S
C458 O462 1.260 . S
C459 O466 1.240 . S
C459 O467 1.252 . S
C460 O463 1.252 . S
C460 O464 1.260 . S
O461 In455 2.266 . S
O461 C458 1.252 . S
O462 In455 2.326 . S
O462 C458 1.260 . S
O463 In455 2.266 . S
O463 C460 1.252 . S
O464 In455 2.326 . S
O464 C460 1.260 . S
C465 O456 1.240 1_554 S
C465 O457 1.252 1_554 S
O466 In455 2.294 . S
O466 C459 1.240 . S
O467 In455 2.326 . S
O467 C459 1.252 . S
H468 C476 0.950 . S
H469 C481 0.950 . S
H470 C478 0.950 . S
H471 C480 0.950 . S
H472 C482 0.950 . S
H473 C484 0.950 . S
H474 C486 0.950 . S
H475 C487 0.950 . S
C476 H468 0.950 . S
C476 C477 1.386 . S
C476 C478 1.391 . S
C477 C476 1.386 . S
C477 C481 1.393 . S
C478 H470 0.950 . S
C478 C476 1.391 . S
C478 C479 1.400 . S
C479 C478 1.400 . S
C479 C480 1.398 . S
C479 C485 1.491 1_565 S
C480 H471 0.950 . S
C480 C479 1.398 . S
C480 C481 1.391 . S
C481 H469 0.950 . S
C481 C477 1.393 . S
C481 C480 1.391 . S
C482 H472 0.950 . S
C482 C483 1.386 . S
C482 C484 1.391 . S
C483 C482 1.386 . S
C483 C487 1.393 . S
C484 H473 0.950 . S
C484 C482 1.391 . S
C484 C485 1.400 . S
C485 C479 1.491 1_545 S
C485 C484 1.400 . S
C485 C486 1.398 . S
C486 H474 0.950 . S
C486 C485 1.398 . S
C486 C487 1.391 . S
C487 H475 0.950 . S
C487 C483 1.393 . S
C487 C486 1.391 . S
H488 C496 0.950 . S
H489 C501 0.950 . S
H490 C498 0.950 1_655 S
H491 C500 0.950 . S
H492 C502 0.950 . S
H493 C504 0.950 1_455 S
H494 C506 0.950 . S
H495 C507 0.950 . S
C496 H488 0.950 . S
C496 C497 1.386 . S
C496 C498 1.391 . S
C497 C496 1.386 . S
C497 C501 1.393 . S
C498 H490 0.950 1_455 S
C498 C496 1.391 . S
C498 C499 1.400 . S
C499 C498 1.400 . S
C499 C500 1.398 . S
C499 C505 1.491 1_455 S
C500 H491 0.950 . S
C500 C499 1.398 . S
C500 C501 1.391 . S
C501 H489 0.950 . S
C501 C497 1.393 . S
C501 C500 1.391 . S
C502 H492 0.950 . S
C502 C503 1.386 . S
C502 C504 1.391 . S
C503 C502 1.386 . S
C503 C507 1.393 . S
C504 H493 0.950 1_655 S
C504 C502 1.391 . S
C504 C505 1.400 . S
C505 C499 1.491 1_655 S
C505 C504 1.400 . S
C505 C506 1.398 . S
C506 H494 0.950 . S
C506 C505 1.398 . S
C506 C507 1.391 . S
C507 H495 0.950 . S
C507 C503 1.393 . S
C507 C506 1.391 . S
H508 C516 0.950 . S
H509 C521 0.950 . S
H510 C518 0.950 . S
H511 C520 0.950 . S
H512 C522 0.950 . S
H513 C524 0.950 . S
H514 C526 0.950 . S
H515 C527 0.950 . S
C516 H508 0.950 . S
C516 C517 1.386 . S
C516 C518 1.391 . S
C517 C516 1.386 . S
C517 C521 1.393 . S
C518 H510 0.950 . S
C518 C516 1.391 . S
C518 C519 1.400 . S
C519 C518 1.400 . S
C519 C520 1.398 . S
C519 C525 1.491 . S
C520 H511 0.950 . S
C520 C519 1.398 . S
C520 C521 1.391 . S
C521 H509 0.950 . S
C521 C517 1.393 . S
C521 C520 1.391 . S
C522 H512 0.950 . S
C522 C523 1.386 . S
C522 C524 1.391 . S
C523 C522 1.386 . S
C523 C527 1.393 . S
C524 H513 0.950 . S
C524 C522 1.391 . S
C524 C525 1.400 . S
C525 C519 1.491 . S
C525 C524 1.400 . S
C525 C526 1.398 . S
C526 H514 0.950 . S
C526 C525 1.398 . S
C526 C527 1.391 . S
C527 H515 0.950 . S
C527 C523 1.393 . S
C527 C526 1.391 . S
H528 C536 0.950 . S
H529 C541 0.950 . S
H530 C538 0.950 . S
H531 C540 0.950 1_545 S
H532 C542 0.950 . S
H533 C544 0.950 . S
H534 C546 0.950 1_565 S
H535 C547 0.950 . S
C536 H528 0.950 . S
C536 C537 1.386 . S
C536 C538 1.391 . S
C537 C536 1.386 . S
C537 C541 1.393 . S
C538 H530 0.950 . S
C538 C536 1.391 . S
C538 C539 1.400 . S
C539 C538 1.400 . S
C539 C540 1.398 . S
C539 C545 1.491 1_565 S
C540 H531 0.950 1_565 S
C540 C539 1.398 . S
C540 C541 1.391 . S
C541 H529 0.950 . S
C541 C537 1.393 . S
C541 C540 1.391 . S
C542 H532 0.950 . S
C542 C543 1.386 . S
C542 C544 1.391 . S
C543 C542 1.386 . S
C543 C547 1.393 . S
C544 H533 0.950 . S
C544 C542 1.391 . S
C544 C545 1.400 . S
C545 C539 1.491 1_545 S
C545 C544 1.400 . S
C545 C546 1.398 . S
C546 H534 0.950 1_545 S
C546 C545 1.398 . S
C546 C547 1.391 . S
C547 H535 0.950 . S
C547 C543 1.393 . S
C547 C546 1.391 . S
H548 C556 0.950 . S
H549 C561 0.950 . S
H550 C558 0.950 . S
H551 C560 0.950 . S
H552 C562 0.950 . S
H553 C564 0.950 . S
H554 C566 0.950 . S
H555 C567 0.950 . S
C556 H548 0.950 . S
C556 C557 1.386 . S
C556 C558 1.391 . S
C557 C556 1.386 . S
C557 C561 1.393 . S
C558 H550 0.950 . S
C558 C556 1.391 . S
C558 C559 1.400 . S
C559 C558 1.400 . S
C559 C560 1.398 . S
C559 C565 1.491 1_455 S
C560 H551 0.950 . S
C560 C559 1.398 . S
C560 C561 1.391 . S
C561 H549 0.950 . S
C561 C557 1.393 . S
C561 C560 1.391 . S
C562 H552 0.950 . S
C562 C563 1.386 . S
C562 C564 1.391 . S
C563 C562 1.386 . S
C563 C567 1.393 . S
C564 H553 0.950 . S
C564 C562 1.391 . S
C564 C565 1.400 . S
C565 C559 1.491 1_655 S
C565 C564 1.400 . S
C565 C566 1.398 . S
C566 H554 0.950 . S
C566 C565 1.398 . S
C566 C567 1.391 . S
C567 H555 0.950 . S
C567 C563 1.393 . S
C567 C566 1.391 . S
H568 C576 0.950 . S
H569 C581 0.950 . S
H570 C578 0.950 . S
H571 C580 0.950 . S
H572 C582 0.950 . S
H573 C584 0.950 . S
H574 C586 0.950 . S
H575 C587 0.950 . S
C576 H568 0.950 . S
C576 C577 1.386 . S
C576 C578 1.391 . S
C577 C576 1.386 . S
C577 C581 1.393 . S
C578 H570 0.950 . S
C578 C576 1.391 . S
C578 C579 1.400 . S
C579 C578 1.400 . S
C579 C580 1.398 . S
C579 C585 1.491 . S
C580 H571 0.950 . S
C580 C579 1.398 . S
C580 C581 1.391 . S
C581 H569 0.950 . S
C581 C577 1.393 . S
C581 C580 1.391 . S
C582 H572 0.950 . S
C582 C583 1.386 . S
C582 C584 1.391 . S
C583 C582 1.386 . S
C583 C587 1.393 . S
C584 H573 0.950 . S
C584 C582 1.391 . S
C584 C585 1.400 . S
C585 C579 1.491 . S
C585 C584 1.400 . S
C585 C586 1.398 . S
C586 H574 0.950 . S
C586 C585 1.398 . S
C586 C587 1.391 . S
C587 H575 0.950 . S
C587 C583 1.393 . S
C587 C586 1.391 . S
H588 C596 0.950 . S
H589 C601 0.950 . S
H590 C598 0.950 . S
H591 C600 0.950 . S
H592 C602 0.950 . S
H593 C604 0.950 . S
H594 C606 0.950 . S
H595 C607 0.950 . S
C596 H588 0.950 . S
C596 C597 1.386 . S
C596 C598 1.391 . S
C597 C596 1.386 . S
C597 C601 1.393 . S
C598 H590 0.950 . S
C598 C596 1.391 . S
C598 C599 1.400 . S
C599 C598 1.400 . S
C599 C600 1.398 . S
C599 C605 1.491 . S
C600 H591 0.950 . S
C600 C599 1.398 . S
C600 C601 1.391 . S
C601 H589 0.950 . S
C601 C597 1.393 . S
C601 C600 1.391 . S
C602 H592 0.950 . S
C602 C603 1.386 . S
C602 C604 1.391 . S
C603 C602 1.386 . S
C603 C607 1.393 . S
C604 H593 0.950 . S
C604 C602 1.391 . S
C604 C605 1.400 . S
C605 C599 1.491 . S
C605 C604 1.400 . S
C605 C606 1.398 . S
C606 H594 0.950 . S
C606 C605 1.398 . S
C606 C607 1.391 . S
C607 H595 0.950 . S
C607 C603 1.393 . S
C607 C606 1.391 . S
H608 C616 0.950 . S
H609 C621 0.950 . S
H610 C618 0.950 . S
H611 C620 0.950 . S
H612 C622 0.950 . S
H613 C624 0.950 . S
H614 C626 0.950 . S
H615 C627 0.950 . S
C616 H608 0.950 . S
C616 C617 1.386 . S
C616 C618 1.391 . S
C617 C616 1.386 . S
C617 C621 1.393 . S
C618 H610 0.950 . S
C618 C616 1.391 . S
C618 C619 1.400 . S
C619 C618 1.400 . S
C619 C620 1.398 . S
C619 C625 1.491 . S
C620 H611 0.950 . S
C620 C619 1.398 . S
C620 C621 1.391 . S
C621 H609 0.950 . S
C621 C617 1.393 . S
C621 C620 1.391 . S
C622 H612 0.950 . S
C622 C623 1.386 . S
C622 C624 1.391 . S
C623 C622 1.386 . S
C623 C627 1.393 . S
C624 H613 0.950 . S
C624 C622 1.391 . S
C624 C625 1.400 . S
C625 C619 1.491 . S
C625 C624 1.400 . S
C625 C626 1.398 . S
C626 H614 0.950 . S
C626 C625 1.398 . S
C626 C627 1.391 . S
C627 H615 0.950 . S
C627 C623 1.393 . S
C627 C626 1.391 . S
H628 C636 0.950 . S
H629 C641 0.950 . S
H630 C638 0.950 . S
H631 C640 0.950 . S
H632 C642 0.950 . S
H633 C644 0.950 . S
H634 C646 0.950 . S
H635 C647 0.966 . S
C636 H628 0.950 . S
C636 C637 1.386 . S
C636 C638 1.391 . S
C637 C636 1.386 . S
C637 C641 1.393 . S
C638 H630 0.950 . S
C638 C636 1.391 . S
C638 C639 1.400 . S
C639 C638 1.400 . S
C639 C640 1.398 . S
C639 C645 1.491 . S
C640 H631 0.950 . S
C640 C639 1.398 . S
C640 C641 1.391 . S
C641 H629 0.950 . S
C641 C637 1.393 . S
C641 C640 1.391 . S
C642 H632 0.950 . S
C642 C643 1.386 . S
C642 C644 1.391 . S
C643 C642 1.386 . S
C643 C647 1.393 . S
C644 H633 0.950 . S
C644 C642 1.391 . S
C644 C645 1.400 . S
C645 C639 1.491 . S
C645 C644 1.400 . S
C645 C646 1.398 . S
C646 H634 0.950 . S
C646 C645 1.398 . S
C646 C647 1.391 . S
C647 H635 0.966 . S
C647 C643 1.393 . S
C647 C646 1.391 . S
H648 C656 0.950 . S
H649 C661 0.950 . S
H650 C658 0.950 . S
H651 C660 0.950 . S
H652 C662 0.950 . S
H653 C664 0.950 . S
H654 C666 0.950 . S
H655 C667 0.950 . S
C656 H648 0.950 . S
C656 C657 1.386 . S
C656 C658 1.391 . S
C657 C656 1.386 . S
C657 C661 1.393 . S
C658 H650 0.950 . S
C658 C656 1.391 . S
C658 C659 1.400 . S
C659 C658 1.400 . S
C659 C660 1.398 . S
C659 C665 1.491 . S
C660 H651 0.950 . S
C660 C659 1.398 . S
C660 C661 1.391 . S
C661 H649 0.950 . S
C661 C657 1.393 . S
C661 C660 1.391 . S
C662 H652 0.950 . S
C662 C663 1.386 . S
C662 C664 1.391 . S
C663 C662 1.386 . S
C663 C667 1.393 . S
C664 H653 0.950 . S
C664 C662 1.391 . S
C664 C665 1.400 . S
C665 C659 1.491 . S
C665 C664 1.400 . S
C665 C666 1.398 . S
C666 H654 0.950 . S
C666 C665 1.398 . S
C666 C667 1.391 . S
C667 H655 0.950 . S
C667 C663 1.393 . S
C667 C666 1.391 . S
H668 C676 0.950 . S
H669 C681 0.950 . S
H670 C678 0.950 . S
H671 C680 0.950 . S
H672 C682 0.950 . S
H673 C684 0.950 . S
H674 C686 0.950 . S
H675 C687 0.950 . S
C676 H668 0.950 . S
C676 C677 1.386 . S
C676 C678 1.391 . S
C677 C676 1.386 . S
C677 C681 1.393 . S
C678 H670 0.950 . S
C678 C676 1.391 . S
C678 C679 1.400 . S
C679 C678 1.400 . S
C679 C680 1.398 . S
C679 C685 1.491 . S
C680 H671 0.950 . S
C680 C679 1.398 . S
C680 C681 1.391 . S
C681 H669 0.950 . S
C681 C677 1.393 . S
C681 C680 1.391 . S
C682 H672 0.950 . S
C682 C683 1.386 . S
C682 C684 1.391 . S
C683 C682 1.386 . S
C683 C687 1.393 . S
C684 H673 0.950 . S
C684 C682 1.391 . S
C684 C685 1.400 . S
C685 C679 1.491 . S
C685 C684 1.400 . S
C685 C686 1.398 . S
C686 H674 0.950 . S
C686 C685 1.398 . S
C686 C687 1.391 . S
C687 H675 0.950 . S
C687 C683 1.393 . S
C687 C686 1.391 . S
H688 C696 0.950 . S
H689 C701 0.950 . S
H690 C698 0.950 . S
H691 C700 0.950 . S
H692 C702 0.950 . S
H693 C704 0.950 . S
H694 C706 0.950 . S
H695 C707 0.950 1_554 S
C696 H688 0.950 . S
C696 C697 1.386 . S
C696 C698 1.391 . S
C697 C696 1.386 . S
C697 C701 1.393 . S
C698 H690 0.950 . S
C698 C696 1.391 . S
C698 C699 1.400 . S
C699 C698 1.400 . S
C699 C700 1.398 . S
C699 C705 1.491 . S
C700 H691 0.950 . S
C700 C699 1.398 . S
C700 C701 1.391 . S
C701 H689 0.950 . S
C701 C697 1.393 . S
C701 C700 1.391 . S
C702 H692 0.950 . S
C702 C703 1.386 . S
C702 C704 1.391 . S
C703 C702 1.386 . S
C703 C707 1.393 . S
C704 H693 0.950 . S
C704 C702 1.391 . S
C704 C705 1.400 . S
C705 C699 1.491 . S
C705 C704 1.400 . S
C705 C706 1.398 . S
C706 H694 0.950 . S
C706 C705 1.398 . S
C706 C707 1.391 . S
C707 H695 0.950 1_556 S
C707 C703 1.393 . S
C707 C706 1.391 . S
H708 C716 0.950 . S
H709 C721 0.950 . S
H710 C718 0.950 . S
H711 C720 0.950 . S
H712 C722 0.950 . S
H713 C724 0.950 . S
H714 C726 0.950 . S
H715 C727 0.950 1_556 S
C716 H708 0.950 . S
C716 C717 1.386 . S
C716 C718 1.391 . S
C717 C716 1.386 . S
C717 C721 1.393 . S
C718 H710 0.950 . S
C718 C716 1.391 . S
C718 C719 1.400 . S
C719 C718 1.400 . S
C719 C720 1.398 . S
C719 C725 1.491 . S
C720 H711 0.950 . S
C720 C719 1.398 . S
C720 C721 1.391 . S
C721 H709 0.950 . S
C721 C717 1.393 . S
C721 C720 1.391 . S
C722 H712 0.950 . S
C722 C723 1.386 . S
C722 C724 1.391 . S
C723 C722 1.386 . S
C723 C727 1.393 . S
C724 H713 0.950 . S
C724 C722 1.391 . S
C724 C725 1.400 . S
C725 C719 1.491 . S
C725 C724 1.400 . S
C725 C726 1.398 . S
C726 H714 0.950 . S
C726 C725 1.398 . S
C726 C727 1.391 . S
C727 H715 0.950 1_554 S
C727 C723 1.393 . S
C727 C726 1.391 . S
H728 C736 0.950 . S
H729 C741 0.950 . S
H730 C738 0.950 . S
H731 C740 0.950 . S
H732 C742 0.950 . S
H733 C744 0.950 . S
H734 C746 0.950 . S
H735 C747 0.950 . S
C736 H728 0.950 . S
C736 C737 1.386 . S
C736 C738 1.391 . S
C737 C736 1.386 . S
C737 C741 1.393 . S
C738 H730 0.950 . S
C738 C736 1.391 . S
C738 C739 1.400 . S
C739 C738 1.400 . S
C739 C740 1.398 . S
C739 C745 1.491 . S
C740 H731 0.950 . S
C740 C739 1.398 . S
C740 C741 1.391 . S
C741 H729 0.950 . S
C741 C737 1.393 . S
C741 C740 1.391 . S
C742 H732 0.950 . S
C742 C743 1.386 . S
C742 C744 1.391 . S
C743 C742 1.386 . S
C743 C747 1.393 . S
C744 H733 0.950 . S
C744 C742 1.391 . S
C744 C745 1.400 . S
C745 C739 1.491 . S
C745 C744 1.400 . S
C745 C746 1.398 . S
C746 H734 0.950 . S
C746 C745 1.398 . S
C746 C747 1.391 . S
C747 H735 0.950 . S
C747 C743 1.393 . S
C747 C746 1.391 . S
H748 C756 0.950 . S
H749 C761 0.950 . S
H750 C758 0.950 . S
H751 C760 0.950 . S
H752 C762 0.950 . S
H753 C764 0.950 . S
H754 C766 0.950 . S
H755 C767 0.950 . S
C756 H748 0.950 . S
C756 C757 1.386 . S
C756 C758 1.391 . S
C757 C756 1.386 . S
C757 C761 1.393 . S
C758 H750 0.950 . S
C758 C756 1.391 . S
C758 C759 1.400 . S
C759 C758 1.400 . S
C759 C760 1.398 . S
C759 C765 1.491 . S
C760 H751 0.950 . S
C760 C759 1.398 . S
C760 C761 1.391 . S
C761 H749 0.950 . S
C761 C757 1.393 . S
C761 C760 1.391 . S
C762 H752 0.950 . S
C762 C763 1.386 . S
C762 C764 1.391 . S
C763 C762 1.386 . S
C763 C767 1.393 . S
C764 H753 0.950 . S
C764 C762 1.391 . S
C764 C765 1.400 . S
C765 C759 1.491 . S
C765 C764 1.400 . S
C765 C766 1.398 . S
C766 H754 0.950 . S
C766 C765 1.398 . S
C766 C767 1.391 . S
C767 H755 0.950 . S
C767 C763 1.393 . S
C767 C766 1.391 . S
H768 C776 0.950 . S
H769 C781 0.950 . S
H770 C778 0.950 . S
H771 C780 0.950 . S
H772 C782 0.950 . S
H773 C784 0.950 . S
H774 C786 0.950 . S
H775 C787 0.933 1_556 S
C776 H768 0.950 . S
C776 C777 1.386 . S
C776 C778 1.391 . S
C777 C776 1.386 . S
C777 C781 1.393 . S
C778 H770 0.950 . S
C778 C776 1.391 . S
C778 C779 1.400 . S
C779 C778 1.400 . S
C779 C780 1.398 . S
C779 C785 1.491 . S
C780 H771 0.950 . S
C780 C779 1.398 . S
C780 C781 1.391 . S
C781 H769 0.950 . S
C781 C777 1.393 . S
C781 C780 1.391 . S
C782 H772 0.950 . S
C782 C783 1.386 . S
C782 C784 1.391 . S
C783 C782 1.386 . S
C783 C787 1.393 . S
C784 H773 0.950 . S
C784 C782 1.391 . S
C784 C785 1.400 . S
C785 C779 1.491 . S
C785 C784 1.400 . S
C785 C786 1.398 . S
C786 H774 0.950 . S
C786 C785 1.398 . S
C786 C787 1.391 . S
C787 H775 0.933 1_554 S
C787 C783 1.393 . S
C787 C786 1.391 . S
H788 C796 0.950 . S
H789 C801 0.950 . S
H790 C798 0.950 . S
H791 C800 0.950 . S
H792 C802 0.950 . S
H793 C804 0.950 . S
H794 C806 0.950 . S
H795 C807 0.950 . S
C796 H788 0.950 . S
C796 C797 1.386 . S
C796 C798 1.391 . S
C797 C796 1.386 . S
C797 C801 1.393 . S
C798 H790 0.950 . S
C798 C796 1.391 . S
C798 C799 1.400 . S
C799 C798 1.400 . S
C799 C800 1.398 . S
C799 C805 1.491 . S
C800 H791 0.950 . S
C800 C799 1.398 . S
C800 C801 1.391 . S
C801 H789 0.950 . S
C801 C797 1.393 . S
C801 C800 1.391 . S
C802 H792 0.950 . S
C802 C803 1.386 . S
C802 C804 1.391 . S
C803 C802 1.386 . S
C803 C807 1.393 . S
C804 H793 0.950 . S
C804 C802 1.391 . S
C804 C805 1.400 . S
C805 C799 1.491 . S
C805 C804 1.400 . S
C805 C806 1.398 . S
C806 H794 0.950 . S
C806 C805 1.398 . S
C806 C807 1.391 . S
C807 H795 0.950 . S
C807 C803 1.393 . S
C807 C806 1.391 . S
H808 C816 0.950 . S
H809 C821 0.950 . S
H810 C818 0.950 . S
H811 C820 0.950 . S
H812 C822 0.950 1_556 S
H813 C824 0.950 . S
H814 C826 0.950 . S
H815 C827 0.950 . S
C816 H808 0.950 . S
C816 C817 1.386 . S
C816 C818 1.391 . S
C817 C816 1.386 . S
C817 C821 1.393 . S
C818 H810 0.950 . S
C818 C816 1.391 . S
C818 C819 1.400 . S
C819 C818 1.400 . S
C819 C820 1.398 . S
C819 C825 1.491 . S
C820 H811 0.950 . S
C820 C819 1.398 . S
C820 C821 1.391 . S
C821 H809 0.950 . S
C821 C817 1.393 . S
C821 C820 1.391 . S
C822 H812 0.950 1_554 S
C822 C823 1.386 . S
C822 C824 1.391 . S
C823 C822 1.386 . S
C823 C827 1.393 . S
C824 H813 0.950 . S
C824 C822 1.391 . S
C824 C825 1.400 . S
C825 C819 1.491 . S
C825 C824 1.400 . S
C825 C826 1.398 . S
C826 H814 0.950 . S
C826 C825 1.398 . S
C826 C827 1.391 . S
C827 H815 0.950 . S
C827 C823 1.393 . S
C827 C826 1.391 . S
H828 C836 0.950 . S
H829 C841 0.950 . S
H830 C838 0.950 . S
H831 C840 0.950 . S
H832 C842 0.950 . S
H833 C844 0.950 . S
H834 C846 0.950 . S
H835 C847 0.950 . S
C836 H828 0.950 . S
C836 C837 1.386 . S
C836 C838 1.391 . S
C837 C836 1.386 . S
C837 C841 1.393 . S
C838 H830 0.950 . S
C838 C836 1.391 . S
C838 C839 1.400 . S
C839 C838 1.400 . S
C839 C840 1.398 . S
C839 C845 1.491 1_566 S
C840 H831 0.950 . S
C840 C839 1.398 . S
C840 C841 1.391 . S
C841 H829 0.950 . S
C841 C837 1.393 . S
C841 C840 1.391 . S
C842 H832 0.950 . S
C842 C843 1.386 . S
C842 C844 1.391 . S
C843 C842 1.386 . S
C843 C847 1.393 . S
C844 H833 0.950 . S
C844 C842 1.391 . S
C844 C845 1.400 . S
C845 C839 1.491 1_544 S
C845 C844 1.400 . S
C845 C846 1.398 . S
C846 H834 0.950 . S
C846 C845 1.398 . S
C846 C847 1.391 . S
C847 H835 0.950 . S
C847 C843 1.393 . S
C847 C846 1.391 . S
H848 C856 0.950 . S
H849 C861 0.950 . S
H850 C858 0.950 1_556 S
H851 C860 0.950 1_455 S
H852 C862 0.950 . S
H853 C864 0.950 1_554 S
H854 C866 0.950 1_655 S
H855 C867 0.950 . S
C856 H848 0.950 . S
C856 C857 1.386 . S
C856 C858 1.391 . S
C857 C856 1.386 . S
C857 C861 1.393 . S
C858 H850 0.950 1_554 S
C858 C856 1.391 . S
C858 C859 1.400 . S
C859 C858 1.400 . S
C859 C860 1.398 . S
C859 C865 1.491 1_654 S
C860 H851 0.950 1_655 S
C860 C859 1.398 . S
C860 C861 1.391 . S
C861 H849 0.950 . S
C861 C857 1.393 . S
C861 C860 1.391 . S
C862 H852 0.950 . S
C862 C863 1.386 . S
C862 C864 1.391 . S
C863 C862 1.386 . S
C863 C867 1.393 . S
C864 H853 0.950 1_556 S
C864 C862 1.391 . S
C864 C865 1.400 . S
C865 C859 1.491 1_456 S
C865 C864 1.400 . S
C865 C866 1.398 . S
C866 H854 0.950 1_455 S
C866 C865 1.398 . S
C866 C867 1.391 . S
C867 H855 0.950 . S
C867 C863 1.393 . S
C867 C866 1.391 . S
H868 C876 0.950 . S
H869 C881 0.950 . S
H870 C878 0.950 . S
H871 C880 0.950 . S
H872 C882 0.950 . S
H873 C884 0.950 . S
H874 C886 0.950 . S
H875 C887 0.950 . S
C876 H868 0.950 . S
C876 C877 1.386 . S
C876 C878 1.391 . S
C877 C876 1.386 . S
C877 C881 1.393 . S
C878 H870 0.950 . S
C878 C876 1.391 . S
C878 C879 1.400 . S
C879 C878 1.400 . S
C879 C880 1.398 . S
C879 C885 1.491 1_556 S
C880 H871 0.950 . S
C880 C879 1.398 . S
C880 C881 1.391 . S
C881 H869 0.950 . S
C881 C877 1.393 . S
C881 C880 1.391 . S
C882 H872 0.950 . S
C882 C883 1.386 . S
C882 C884 1.391 . S
C883 C882 1.386 . S
C883 C887 1.393 . S
C884 H873 0.950 . S
C884 C882 1.391 . S
C884 C885 1.400 . S
C885 C879 1.491 1_554 S
C885 C884 1.400 . S
C885 C886 1.398 . S
C886 H874 0.950 . S
C886 C885 1.398 . S
C886 C887 1.391 . S
C887 H875 0.950 . S
C887 C883 1.393 . S
C887 C886 1.391 . S
H888 C896 0.950 . S
H889 C901 0.950 . S
H890 C898 0.950 1_554 S
H891 C900 0.950 1_545 S
H892 C902 0.950 . S
H893 C904 0.950 1_556 S
H894 C906 0.950 1_565 S
H895 C907 0.950 . S
C896 H888 0.950 . S
C896 C897 1.386 . S
C896 C898 1.391 . S
C897 C896 1.386 . S
C897 C901 1.393 . S
C898 H890 0.950 1_556 S
C898 C896 1.391 . S
C898 C899 1.400 . S
C899 C898 1.400 . S
C899 C900 1.398 . S
C899 C905 1.491 1_566 S
C900 H891 0.950 1_565 S
C900 C899 1.398 . S
C900 C901 1.391 . S
C901 H889 0.950 . S
C901 C897 1.393 . S
C901 C900 1.391 . S
C902 H892 0.950 . S
C902 C903 1.386 . S
C902 C904 1.391 . S
C903 C902 1.386 . S
C903 C907 1.393 . S
C904 H893 0.950 1_554 S
C904 C902 1.391 . S
C904 C905 1.400 . S
C905 C899 1.491 1_544 S
C905 C904 1.400 . S
C905 C906 1.398 . S
C906 H894 0.950 1_545 S
C906 C905 1.398 . S
C906 C907 1.391 . S
C907 H895 0.950 . S
C907 C903 1.393 . S
C907 C906 1.391 . S
H908 C916 0.950 . S
H909 C921 0.950 . S
H910 C918 0.950 1_655 S
H911 C920 0.950 1_554 S
H912 C922 0.950 . S
H913 C924 0.950 1_455 S
H914 C926 0.950 1_556 S
H915 C927 0.950 . S
C916 H908 0.950 . S
C916 C917 1.386 . S
C916 C918 1.391 . S
C917 C916 1.386 . S
C917 C921 1.393 . S
C918 H910 0.950 1_455 S
C918 C916 1.391 . S
C918 C919 1.400 . S
C919 C918 1.400 . S
C919 C920 1.398 . S
C919 C925 1.491 1_456 S
C920 H911 0.950 1_556 S
C920 C919 1.398 . S
C920 C921 1.391 . S
C921 H909 0.950 . S
C921 C917 1.393 . S
C921 C920 1.391 . S
C922 H912 0.950 . S
C922 C923 1.386 . S
C922 C924 1.391 . S
C923 C922 1.386 . S
C923 C927 1.393 . S
C924 H913 0.950 1_655 S
C924 C922 1.391 . S
C924 C925 1.400 . S
C925 C919 1.491 1_654 S
C925 C924 1.400 . S
C925 C926 1.398 . S
C926 H914 0.950 1_554 S
C926 C925 1.398 . S
C926 C927 1.391 . S
C927 H915 0.950 . S
C927 C923 1.393 . S
C927 C926 1.391 . S
H928 C936 0.950 . S
H929 C941 0.950 . S
H930 C938 0.950 . S
H931 C940 0.950 . S
H932 C942 0.950 . S
H933 C944 0.950 . S
H934 C946 0.950 . S
H935 C947 0.950 . S
C936 H928 0.950 . S
C936 C937 1.386 . S
C936 C938 1.391 . S
C937 C936 1.386 . S
C937 C941 1.393 . S
C938 H930 0.950 . S
C938 C936 1.391 . S
C938 C939 1.400 . S
C939 C938 1.400 . S
C939 C940 1.398 . S
C939 C945 1.491 1_554 S
C940 H931 0.950 . S
C940 C939 1.398 . S
C940 C941 1.391 . S
C941 H929 0.950 . S
C941 C937 1.393 . S
C941 C940 1.391 . S
C942 H932 0.950 . S
C942 C943 1.386 . S
C942 C944 1.391 . S
C943 C942 1.386 . S
C943 C947 1.393 . S
C944 H933 0.950 . S
C944 C942 1.391 . S
C944 C945 1.400 . S
C945 C939 1.491 1_556 S
C945 C944 1.400 . S
C945 C946 1.398 . S
C946 H934 0.950 . S
C946 C945 1.398 . S
C946 C947 1.391 . S
C947 H935 0.950 . S
C947 C943 1.393 . S
C947 C946 1.391 . S
H948 C956 0.950 . S
H949 C961 0.950 . S
H950 C958 0.950 . S
H951 C960 0.950 . S
H952 C962 0.950 . S
H953 C964 0.950 . S
H954 C966 0.950 . S
H955 C967 0.950 . S
C956 H948 0.950 . S
C956 C957 1.386 . S
C956 C958 1.391 . S
C957 C956 1.386 . S
C957 C961 1.393 . S
C958 H950 0.950 . S
C958 C956 1.391 . S
C958 C959 1.400 . S
C959 C958 1.400 . S
C959 C960 1.398 . S
C959 C965 1.491 . S
C960 H951 0.950 . S
C960 C959 1.398 . S
C960 C961 1.391 . S
C961 H949 0.950 . S
C961 C957 1.393 . S
C961 C960 1.391 . S
C962 H952 0.950 . S
C962 C963 1.386 . S
C962 C964 1.391 . S
C963 C962 1.386 . S
C963 C967 1.393 . S
C964 H953 0.950 . S
C964 C962 1.391 . S
C964 C965 1.400 . S
C965 C959 1.491 . S
C965 C964 1.400 . S
C965 C966 1.398 . S
C966 H954 0.950 . S
C966 C965 1.398 . S
C966 C967 1.391 . S
C967 H955 0.950 . S
C967 C963 1.393 . S
C967 C966 1.391 . S
H968 C976 0.950 . S
H969 C981 0.950 . S
H970 C978 0.950 . S
H971 C980 0.950 . S
H972 C982 0.950 . S
H973 C984 0.950 . S
H974 C986 0.950 . S
H975 C987 0.950 . S
C976 H968 0.950 . S
C976 C977 1.386 . S
C976 C978 1.391 . S
C977 C976 1.386 . S
C977 C981 1.393 . S
C978 H970 0.950 . S
C978 C976 1.391 . S
C978 C979 1.400 . S
C979 C978 1.400 . S
C979 C980 1.398 . S
C979 C985 1.491 . S
C980 H971 0.950 . S
C980 C979 1.398 . S
C980 C981 1.391 . S
C981 H969 0.950 . S
C981 C977 1.393 . S
C981 C980 1.391 . S
C982 H972 0.950 . S
C982 C983 1.386 . S
C982 C984 1.391 . S
C983 C982 1.386 . S
C983 C987 1.393 . S
C984 H973 0.950 . S
C984 C982 1.391 . S
C984 C985 1.400 . S
C985 C979 1.491 . S
C985 C984 1.400 . S
C985 C986 1.398 . S
C986 H974 0.950 . S
C986 C985 1.398 . S
C986 C987 1.391 . S
C987 H975 0.950 . S
C987 C983 1.393 . S
C987 C986 1.391 . S
H988 C996 0.950 . S
H989 C1001 0.950 . S
H990 C998 0.950 . S
H991 C1000 0.950 . S
H992 C1002 0.950 . S
H993 C1004 0.950 . S
H994 C1006 0.950 . S
H995 C1007 0.950 . S
C996 H988 0.950 . S
C996 C997 1.386 . S
C996 C998 1.391 . S
C997 C996 1.386 . S
C997 C1001 1.393 . S
C998 H990 0.950 . S
C998 C996 1.391 . S
C998 C999 1.400 . S
C999 C998 1.400 . S
C999 C1000 1.398 . S
C999 C1005 1.491 . S
C1000 H991 0.950 . S
C1000 C999 1.398 . S
C1000 C1001 1.391 . S
C1001 H989 0.950 . S
C1001 C997 1.393 . S
C1001 C1000 1.391 . S
C1002 H992 0.950 . S
C1002 C1003 1.386 . S
C1002 C1004 1.391 . S
C1003 C1002 1.386 . S
C1003 C1007 1.393 . S
C1004 H993 0.950 . S
C1004 C1002 1.391 . S
C1004 C1005 1.400 . S
C1005 C999 1.491 . S
C1005 C1004 1.400 . S
C1005 C1006 1.398 . S
C1006 H994 0.950 . S
C1006 C1005 1.398 . S
C1006 C1007 1.391 . S
C1007 H995 0.950 . S
C1007 C1003 1.393 . S
C1007 C1006 1.391 . S
H1008 C1016 0.950 . S
H1009 C1021 0.950 . S
H1010 C1018 0.950 . S
H1011 C1020 0.950 . S
H1012 C1022 0.950 . S
H1013 C1024 0.950 . S
H1014 C1026 0.950 . S
H1015 C1027 0.950 . S
C1016 H1008 0.950 . S
C1016 C1017 1.386 . S
C1016 C1018 1.391 . S
C1017 C1016 1.386 . S
C1017 C1021 1.393 . S
C1018 H1010 0.950 . S
C1018 C1016 1.391 . S
C1018 C1019 1.400 . S
C1019 C1018 1.400 . S
C1019 C1020 1.398 . S
C1019 C1025 1.491 . S
C1020 H1011 0.950 . S
C1020 C1019 1.398 . S
C1020 C1021 1.391 . S
C1021 H1009 0.950 . S
C1021 C1017 1.393 . S
C1021 C1020 1.391 . S
C1022 H1012 0.950 . S
C1022 C1023 1.386 . S
C1022 C1024 1.391 . S
C1023 C1022 1.386 . S
C1023 C1027 1.393 . S
C1024 H1013 0.950 . S
C1024 C1022 1.391 . S
C1024 C1025 1.400 . S
C1025 C1019 1.491 . S
C1025 C1024 1.400 . S
C1025 C1026 1.398 . S
C1026 H1014 0.950 . S
C1026 C1025 1.398 . S
C1026 C1027 1.391 . S
C1027 H1015 0.950 . S
C1027 C1023 1.393 . S
C1027 C1026 1.391 . S
H1028 C1036 0.950 . S
H1029 C1041 0.950 . S
H1030 C1038 0.950 . S
H1031 C1040 0.950 . S
H1032 C1042 0.950 . S
H1033 C1044 0.950 . S
H1034 C1046 0.950 . S
H1035 C1047 0.950 . S
C1036 H1028 0.950 . S
C1036 C1037 1.386 . S
C1036 C1038 1.391 . S
C1037 C1036 1.386 . S
C1037 C1041 1.393 . S
C1038 H1030 0.950 . S
C1038 C1036 1.391 . S
C1038 C1039 1.400 . S
C1039 C1038 1.400 . S
C1039 C1040 1.398 . S
C1039 C1045 1.491 . S
C1040 H1031 0.950 . S
C1040 C1039 1.398 . S
C1040 C1041 1.391 . S
C1041 H1029 0.950 . S
C1041 C1037 1.393 . S
C1041 C1040 1.391 . S
C1042 H1032 0.950 . S
C1042 C1043 1.386 . S
C1042 C1044 1.391 . S
C1043 C1042 1.386 . S
C1043 C1047 1.393 . S
C1044 H1033 0.950 . S
C1044 C1042 1.391 . S
C1044 C1045 1.400 . S
C1045 C1039 1.491 . S
C1045 C1044 1.400 . S
C1045 C1046 1.398 . S
C1046 H1034 0.950 . S
C1046 C1045 1.398 . S
C1046 C1047 1.391 . S
C1047 H1035 0.950 . S
C1047 C1043 1.393 . S
C1047 C1046 1.391 . S
H1048 C1056 0.950 . S
H1049 C1061 0.950 . S
H1050 C1058 0.950 . S
H1051 C1060 0.950 . S
H1052 C1062 0.950 . S
H1053 C1064 0.950 . S
H1054 C1066 0.950 . S
H1055 C1067 0.950 . S
C1056 H1048 0.950 . S
C1056 C1057 1.386 . S
C1056 C1058 1.391 . S
C1057 C1056 1.386 . S
C1057 C1061 1.393 . S
C1058 H1050 0.950 . S
C1058 C1056 1.391 . S
C1058 C1059 1.400 . S
C1059 C1058 1.400 . S
C1059 C1060 1.398 . S
C1059 C1065 1.491 . S
C1060 H1051 0.950 . S
C1060 C1059 1.398 . S
C1060 C1061 1.391 . S
C1061 H1049 0.950 . S
C1061 C1057 1.393 . S
C1061 C1060 1.391 . S
C1062 H1052 0.950 . S
C1062 C1063 1.386 . S
C1062 C1064 1.391 . S
C1063 C1062 1.386 . S
C1063 C1067 1.393 . S
C1064 H1053 0.950 . S
C1064 C1062 1.391 . S
C1064 C1065 1.400 . S
C1065 C1059 1.491 . S
C1065 C1064 1.400 . S
C1065 C1066 1.398 . S
C1066 H1054 0.950 . S
C1066 C1065 1.398 . S
C1066 C1067 1.391 . S
C1067 H1055 0.950 . S
C1067 C1063 1.393 . S
C1067 C1066 1.391 . S
H1068 C1076 0.950 . S
H1069 C1081 0.950 . S
H1070 C1078 0.950 . S
H1071 C1080 0.950 . S
H1072 C1082 0.950 . S
H1073 C1084 0.950 . S
H1074 C1086 0.950 . S
H1075 C1087 0.950 . S
C1076 H1068 0.950 . S
C1076 C1077 1.386 . S
C1076 C1078 1.391 . S
C1077 C1076 1.386 . S
C1077 C1081 1.393 . S
C1078 H1070 0.950 . S
C1078 C1076 1.391 . S
C1078 C1079 1.400 . S
C1079 C1078 1.400 . S
C1079 C1080 1.398 . S
C1079 C1085 1.491 . S
C1080 H1071 0.950 . S
C1080 C1079 1.398 . S
C1080 C1081 1.391 . S
C1081 H1069 0.950 . S
C1081 C1077 1.393 . S
C1081 C1080 1.391 . S
C1082 H1072 0.950 . S
C1082 C1083 1.386 . S
C1082 C1084 1.391 . S
C1083 C1082 1.386 . S
C1083 C1087 1.393 . S
C1084 H1073 0.950 . S
C1084 C1082 1.391 . S
C1084 C1085 1.400 . S
C1085 C1079 1.491 . S
C1085 C1084 1.400 . S
C1085 C1086 1.398 . S
C1086 H1074 0.950 . S
C1086 C1085 1.398 . S
C1086 C1087 1.391 . S
C1087 H1075 0.950 . S
C1087 C1083 1.393 . S
C1087 C1086 1.391 . S
H1088 C1096 0.950 . S
H1089 C1101 0.950 . S
H1090 C1098 0.950 . S
H1091 C1100 0.950 . S
H1092 C1102 0.950 . S
H1093 C1104 0.950 . S
H1094 C1106 0.950 . S
H1095 C1107 0.950 . S
C1096 H1088 0.950 . S
C1096 C1097 1.386 . S
C1096 C1098 1.391 . S
C1097 C1096 1.386 . S
C1097 C1101 1.393 . S
C1098 H1090 0.950 . S
C1098 C1096 1.391 . S
C1098 C1099 1.400 . S
C1099 C1098 1.400 . S
C1099 C1100 1.398 . S
C1099 C1105 1.491 . S
C1100 H1091 0.950 . S
C1100 C1099 1.398 . S
C1100 C1101 1.391 . S
C1101 H1089 0.950 . S
C1101 C1097 1.393 . S
C1101 C1100 1.391 . S
C1102 H1092 0.950 . S
C1102 C1103 1.386 . S
C1102 C1104 1.391 . S
C1103 C1102 1.386 . S
C1103 C1107 1.393 . S
C1104 H1093 0.950 . S
C1104 C1102 1.391 . S
C1104 C1105 1.400 . S
C1105 C1099 1.491 . S
C1105 C1104 1.400 . S
C1105 C1106 1.398 . S
C1106 H1094 0.950 . S
C1106 C1105 1.398 . S
C1106 C1107 1.391 . S
C1107 H1095 0.950 . S
C1107 C1103 1.393 . S
C1107 C1106 1.391 . S
H1108 C1116 0.950 . S
H1109 C1121 0.950 . S
H1110 C1118 0.950 . S
H1111 C1120 0.950 . S
H1112 C1122 0.950 . S
H1113 C1124 0.950 . S
H1114 C1126 0.950 . S
H1115 C1127 0.950 . S
C1116 H1108 0.950 . S
C1116 C1117 1.386 . S
C1116 C1118 1.391 . S
C1117 C1116 1.386 . S
C1117 C1121 1.393 . S
C1118 H1110 0.950 . S
C1118 C1116 1.391 . S
C1118 C1119 1.400 . S
C1119 C1118 1.400 . S
C1119 C1120 1.398 . S
C1119 C1125 1.491 . S
C1120 H1111 0.950 . S
C1120 C1119 1.398 . S
C1120 C1121 1.391 . S
C1121 H1109 0.950 . S
C1121 C1117 1.393 . S
C1121 C1120 1.391 . S
C1122 H1112 0.950 . S
C1122 C1123 1.386 . S
C1122 C1124 1.391 . S
C1123 C1122 1.386 . S
C1123 C1127 1.393 . S
C1124 H1113 0.950 . S
C1124 C1122 1.391 . S
C1124 C1125 1.400 . S
C1125 C1119 1.491 . S
C1125 C1124 1.400 . S
C1125 C1126 1.398 . S
C1126 H1114 0.950 . S
C1126 C1125 1.398 . S
C1126 C1127 1.391 . S
C1127 H1115 0.950 . S
C1127 C1123 1.393 . S
C1127 C1126 1.391 . S
H1128 C1136 0.950 . S
H1129 C1141 0.950 . S
H1130 C1138 0.950 . S
H1131 C1140 0.950 . S
H1132 C1142 0.950 . S
H1133 C1144 0.950 . S
H1134 C1146 0.950 . S
H1135 C1147 0.950 . S
C1136 H1128 0.950 . S
C1136 C1137 1.386 . S
C1136 C1138 1.391 . S
C1137 C1136 1.386 . S
C1137 C1141 1.393 . S
C1138 H1130 0.950 . S
C1138 C1136 1.391 . S
C1138 C1139 1.400 . S
C1139 C1138 1.400 . S
C1139 C1140 1.398 . S
C1139 C1145 1.491 . S
C1140 H1131 0.950 . S
C1140 C1139 1.398 . S
C1140 C1141 1.391 . S
C1141 H1129 0.950 . S
C1141 C1137 1.393 . S
C1141 C1140 1.391 . S
C1142 H1132 0.950 . S
C1142 C1143 1.386 . S
C1142 C1144 1.391 . S
C1143 C1142 1.386 . S
C1143 C1147 1.393 . S
C1144 H1133 0.950 . S
C1144 C1142 1.391 . S
C1144 C1145 1.400 . S
C1145 C1139 1.491 . S
C1145 C1144 1.400 . S
C1145 C1146 1.398 . S
C1146 H1134 0.950 . S
C1146 C1145 1.398 . S
C1146 C1147 1.391 . S
C1147 H1135 0.950 . S
C1147 C1143 1.393 . S
C1147 C1146 1.391 . S
H1148 C1156 0.950 . S
H1149 C1161 0.950 . S
H1150 C1158 0.950 . S
H1151 C1160 0.950 . S
H1152 C1162 0.950 . S
H1153 C1164 0.950 . S
H1154 C1166 0.950 . S
H1155 C1167 0.950 . S
C1156 H1148 0.950 . S
C1156 C1157 1.386 . S
C1156 C1158 1.391 . S
C1157 C1156 1.386 . S
C1157 C1161 1.393 . S
C1158 H1150 0.950 . S
C1158 C1156 1.391 . S
C1158 C1159 1.400 . S
C1159 C1158 1.400 . S
C1159 C1160 1.398 . S
C1159 C1165 1.491 . S
C1160 H1151 0.950 . S
C1160 C1159 1.398 . S
C1160 C1161 1.391 . S
C1161 H1149 0.950 . S
C1161 C1157 1.393 . S
C1161 C1160 1.391 . S
C1162 H1152 0.950 . S
C1162 C1163 1.386 . S
C1162 C1164 1.391 . S
C1163 C1162 1.386 . S
C1163 C1167 1.393 . S
C1164 H1153 0.950 . S
C1164 C1162 1.391 . S
C1164 C1165 1.400 . S
C1165 C1159 1.491 . S
C1165 C1164 1.400 . S
C1165 C1166 1.398 . S
C1166 H1154 0.950 . S
C1166 C1165 1.398 . S
C1166 C1167 1.391 . S
C1167 H1155 0.950 . S
C1167 C1163 1.393 . S
C1167 C1166 1.391 . S
H1168 C1176 0.950 . S
H1169 C1181 0.950 . S
H1170 C1178 0.950 . S
H1171 C1180 0.950 . S
H1172 C1182 0.950 . S
H1173 C1184 0.950 . S
H1174 C1186 0.950 . S
H1175 C1187 0.950 . S
C1176 H1168 0.950 . S
C1176 C1177 1.386 . S
C1176 C1178 1.391 . S
C1177 C1176 1.386 . S
C1177 C1181 1.393 . S
C1178 H1170 0.950 . S
C1178 C1176 1.391 . S
C1178 C1179 1.400 . S
C1179 C1178 1.400 . S
C1179 C1180 1.398 . S
C1179 C1185 1.491 . S
C1180 H1171 0.950 . S
C1180 C1179 1.398 . S
C1180 C1181 1.391 . S
C1181 H1169 0.950 . S
C1181 C1177 1.393 . S
C1181 C1180 1.391 . S
C1182 H1172 0.950 . S
C1182 C1183 1.386 . S
C1182 C1184 1.391 . S
C1183 C1182 1.386 . S
C1183 C1187 1.393 . S
C1184 H1173 0.950 . S
C1184 C1182 1.391 . S
C1184 C1185 1.400 . S
C1185 C1179 1.491 . S
C1185 C1184 1.400 . S
C1185 C1186 1.398 . S
C1186 H1174 0.950 . S
C1186 C1185 1.398 . S
C1186 C1187 1.391 . S
C1187 H1175 0.950 . S
C1187 C1183 1.393 . S
C1187 C1186 1.391 . S
H1188 C1196 0.950 . S
H1189 C1201 0.950 . S
H1190 C1198 0.950 . S
H1191 C1200 0.950 . S
H1192 C1202 0.950 . S
H1193 C1204 0.950 . S
H1194 C1206 0.950 . S
H1195 C1207 0.950 . S
C1196 H1188 0.950 . S
C1196 C1197 1.386 . S
C1196 C1198 1.391 . S
C1197 C1196 1.386 . S
C1197 C1201 1.393 . S
C1198 H1190 0.950 . S
C1198 C1196 1.391 . S
C1198 C1199 1.400 . S
C1199 C1198 1.400 . S
C1199 C1200 1.398 . S
C1199 C1205 1.491 . S
C1200 H1191 0.950 . S
C1200 C1199 1.398 . S
C1200 C1201 1.391 . S
C1201 H1189 0.950 . S
C1201 C1197 1.393 . S
C1201 C1200 1.391 . S
C1202 H1192 0.950 . S
C1202 C1203 1.386 . S
C1202 C1204 1.391 . S
C1203 C1202 1.386 . S
C1203 C1207 1.393 . S
C1204 H1193 0.950 . S
C1204 C1202 1.391 . S
C1204 C1205 1.400 . S
C1205 C1199 1.491 . S
C1205 C1204 1.400 . S
C1205 C1206 1.398 . S
C1206 H1194 0.950 . S
C1206 C1205 1.398 . S
C1206 C1207 1.391 . S
C1207 H1195 0.950 . S
C1207 C1203 1.393 . S
C1207 C1206 1.391 . S
H1208 C1216 0.950 . S
H1209 C1221 0.950 . S
H1210 C1218 0.950 . S
H1211 C1220 0.950 . S
H1212 C1222 0.950 . S
H1213 C1224 0.950 . S
H1214 C1226 0.950 . S
H1215 C1227 0.950 . S
C1216 H1208 0.950 . S
C1216 C1217 1.386 . S
C1216 C1218 1.391 . S
C1217 C1216 1.386 . S
C1217 C1221 1.393 . S
C1218 H1210 0.950 . S
C1218 C1216 1.391 . S
C1218 C1219 1.400 . S
C1219 C1218 1.400 . S
C1219 C1220 1.398 . S
C1219 C1225 1.491 . S
C1220 H1211 0.950 . S
C1220 C1219 1.398 . S
C1220 C1221 1.391 . S
C1221 H1209 0.950 . S
C1221 C1217 1.393 . S
C1221 C1220 1.391 . S
C1222 H1212 0.950 . S
C1222 C1223 1.386 . S
C1222 C1224 1.391 . S
C1223 C1222 1.386 . S
C1223 C1227 1.393 . S
C1224 H1213 0.950 . S
C1224 C1222 1.391 . S
C1224 C1225 1.400 . S
C1225 C1219 1.491 . S
C1225 C1224 1.400 . S
C1225 C1226 1.398 . S
C1226 H1214 0.950 . S
C1226 C1225 1.398 . S
C1226 C1227 1.391 . S
C1227 H1215 0.950 . S
C1227 C1223 1.393 . S
C1227 C1226 1.391 . S
H1228 C1236 0.950 . S
H1229 C1241 0.950 . S
H1230 C1238 0.950 . S
H1231 C1240 0.950 . S
H1232 C1242 0.950 . S
H1233 C1244 0.950 . S
H1234 C1246 0.950 . S
H1235 C1247 0.950 . S
C1236 H1228 0.950 . S
C1236 C1237 1.386 . S
C1236 C1238 1.391 . S
C1237 C1236 1.386 . S
C1237 C1241 1.393 . S
C1238 H1230 0.950 . S
C1238 C1236 1.391 . S
C1238 C1239 1.400 . S
C1239 C1238 1.400 . S
C1239 C1240 1.398 . S
C1239 C1245 1.491 . S
C1240 H1231 0.950 . S
C1240 C1239 1.398 . S
C1240 C1241 1.391 . S
C1241 H1229 0.950 . S
C1241 C1237 1.393 . S
C1241 C1240 1.391 . S
C1242 H1232 0.950 . S
C1242 C1243 1.386 . S
C1242 C1244 1.391 . S
C1243 C1242 1.386 . S
C1243 C1247 1.393 . S
C1244 H1233 0.950 . S
C1244 C1242 1.391 . S
C1244 C1245 1.400 . S
C1245 C1239 1.491 . S
C1245 C1244 1.400 . S
C1245 C1246 1.398 . S
C1246 H1234 0.950 . S
C1246 C1245 1.398 . S
C1246 C1247 1.391 . S
C1247 H1235 0.950 . S
C1247 C1243 1.393 . S
C1247 C1246 1.391 . S
H1248 C1256 0.950 . S
H1249 C1261 0.950 . S
H1250 C1258 0.950 . S
H1251 C1260 0.950 . S
H1252 C1262 0.950 . S
H1253 C1264 0.950 . S
H1254 C1266 0.950 . S
H1255 C1267 0.950 . S
C1256 H1248 0.950 . S
C1256 C1257 1.386 . S
C1256 C1258 1.391 . S
C1257 C1256 1.386 . S
C1257 C1261 1.393 . S
C1258 H1250 0.950 . S
C1258 C1256 1.391 . S
C1258 C1259 1.400 . S
C1259 C1258 1.400 . S
C1259 C1260 1.398 . S
C1259 C1265 1.491 . S
C1260 H1251 0.950 . S
C1260 C1259 1.398 . S
C1260 C1261 1.391 . S
C1261 H1249 0.950 . S
C1261 C1257 1.393 . S
C1261 C1260 1.391 . S
C1262 H1252 0.950 . S
C1262 C1263 1.386 . S
C1262 C1264 1.391 . S
C1263 C1262 1.386 . S
C1263 C1267 1.393 . S
C1264 H1253 0.950 . S
C1264 C1262 1.391 . S
C1264 C1265 1.400 . S
C1265 C1259 1.491 . S
C1265 C1264 1.400 . S
C1265 C1266 1.398 . S
C1266 H1254 0.950 . S
C1266 C1265 1.398 . S
C1266 C1267 1.391 . S
C1267 H1255 0.950 . S
C1267 C1263 1.393 . S
C1267 C1266 1.391 . S
H1268 C1276 0.950 . S
H1269 C1281 0.950 . S
H1270 C1278 0.950 . S
H1271 C1280 0.950 . S
H1272 C1282 0.950 . S
H1273 C1284 0.950 . S
H1274 C1286 0.950 . S
H1275 C1287 0.950 . S
C1276 H1268 0.950 . S
C1276 C1277 1.386 . S
C1276 C1278 1.391 . S
C1277 C1276 1.386 . S
C1277 C1281 1.393 . S
C1278 H1270 0.950 . S
C1278 C1276 1.391 . S
C1278 C1279 1.400 . S
C1279 C1278 1.400 . S
C1279 C1280 1.398 . S
C1279 C1285 1.491 . S
C1280 H1271 0.950 . S
C1280 C1279 1.398 . S
C1280 C1281 1.391 . S
C1281 H1269 0.950 . S
C1281 C1277 1.393 . S
C1281 C1280 1.391 . S
C1282 H1272 0.950 . S
C1282 C1283 1.386 . S
C1282 C1284 1.391 . S
C1283 C1282 1.386 . S
C1283 C1287 1.393 . S
C1284 H1273 0.950 . S
C1284 C1282 1.391 . S
C1284 C1285 1.400 . S
C1285 C1279 1.491 . S
C1285 C1284 1.400 . S
C1285 C1286 1.398 . S
C1286 H1274 0.950 . S
C1286 C1285 1.398 . S
C1286 C1287 1.391 . S
C1287 H1275 0.950 . S
C1287 C1283 1.393 . S
C1287 C1286 1.391 . S
H1288 C1296 0.950 . S
H1289 C1301 0.950 . S
H1290 C1298 0.950 . S
H1291 C1300 0.950 . S
H1292 C1302 0.950 . S
H1293 C1304 0.950 . S
H1294 C1306 0.950 . S
H1295 C1307 0.950 . S
C1296 H1288 0.950 . S
C1296 C1297 1.386 . S
C1296 C1298 1.391 . S
C1297 C1296 1.386 . S
C1297 C1301 1.393 . S
C1298 H1290 0.950 . S
C1298 C1296 1.391 . S
C1298 C1299 1.400 . S
C1299 C1298 1.400 . S
C1299 C1300 1.398 . S
C1299 C1305 1.491 . S
C1300 H1291 0.950 . S
C1300 C1299 1.398 . S
C1300 C1301 1.391 . S
C1301 H1289 0.950 . S
C1301 C1297 1.393 . S
C1301 C1300 1.391 . S
C1302 H1292 0.950 . S
C1302 C1303 1.386 . S
C1302 C1304 1.391 . S
C1303 C1302 1.386 . S
C1303 C1307 1.393 . S
C1304 H1293 0.950 . S
C1304 C1302 1.391 . S
C1304 C1305 1.400 . S
C1305 C1299 1.491 . S
C1305 C1304 1.400 . S
C1305 C1306 1.398 . S
C1306 H1294 0.950 . S
C1306 C1305 1.398 . S
C1306 C1307 1.391 . S
C1307 H1295 0.950 . S
C1307 C1303 1.393 . S
C1307 C1306 1.391 . S
H1308 C1316 0.950 . S
H1309 C1321 0.950 . S
H1310 C1318 0.950 . S
H1311 C1320 0.950 . S
H1312 C1322 0.950 . S
H1313 C1324 0.950 . S
H1314 C1326 0.950 . S
H1315 C1327 0.950 . S
C1316 H1308 0.950 . S
C1316 C1317 1.386 . S
C1316 C1318 1.391 . S
C1317 C1316 1.386 . S
C1317 C1321 1.393 . S
C1318 H1310 0.950 . S
C1318 C1316 1.391 . S
C1318 C1319 1.400 . S
C1319 C1318 1.400 . S
C1319 C1320 1.398 . S
C1319 C1325 1.491 . S
C1320 H1311 0.950 . S
C1320 C1319 1.398 . S
C1320 C1321 1.391 . S
C1321 H1309 0.950 . S
C1321 C1317 1.393 . S
C1321 C1320 1.391 . S
C1322 H1312 0.950 . S
C1322 C1323 1.386 . S
C1322 C1324 1.391 . S
C1323 C1322 1.386 . S
C1323 C1327 1.393 . S
C1324 H1313 0.950 . S
C1324 C1322 1.391 . S
C1324 C1325 1.400 . S
C1325 C1319 1.491 . S
C1325 C1324 1.400 . S
C1325 C1326 1.398 . S
C1326 H1314 0.950 . S
C1326 C1325 1.398 . S
C1326 C1327 1.391 . S
C1327 H1315 0.950 . S
C1327 C1323 1.393 . S
C1327 C1326 1.391 . S
H1328 C1336 0.950 . S
H1329 C1341 0.950 . S
H1330 C1338 0.950 . S
H1331 C1340 0.950 . S
H1332 C1342 0.950 . S
H1333 C1344 0.950 . S
H1334 C1346 0.950 . S
H1335 C1347 0.950 . S
C1336 H1328 0.950 . S
C1336 C1337 1.386 . S
C1336 C1338 1.391 . S
C1337 C1336 1.386 . S
C1337 C1341 1.393 . S
C1338 H1330 0.950 . S
C1338 C1336 1.391 . S
C1338 C1339 1.400 . S
C1339 C1338 1.400 . S
C1339 C1340 1.398 . S
C1339 C1345 1.491 . S
C1340 H1331 0.950 . S
C1340 C1339 1.398 . S
C1340 C1341 1.391 . S
C1341 H1329 0.950 . S
C1341 C1337 1.393 . S
C1341 C1340 1.391 . S
C1342 H1332 0.950 . S
C1342 C1343 1.386 . S
C1342 C1344 1.391 . S
C1343 C1342 1.386 . S
C1343 C1347 1.393 . S
C1344 H1333 0.950 . S
C1344 C1342 1.391 . S
C1344 C1345 1.400 . S
C1345 C1339 1.491 . S
C1345 C1344 1.400 . S
C1345 C1346 1.398 . S
C1346 H1334 0.950 . S
C1346 C1345 1.398 . S
C1346 C1347 1.391 . S
C1347 H1335 0.950 . S
C1347 C1343 1.393 . S
C1347 C1346 1.391 . S
H1348 C1356 0.950 . S
H1349 C1361 0.950 . S
H1350 C1358 0.950 . S
H1351 C1360 0.950 . S
H1352 C1362 0.950 . S
H1353 C1364 0.950 . S
H1354 C1366 0.950 . S
H1355 C1367 0.950 . S
C1356 H1348 0.950 . S
C1356 C1357 1.386 . S
C1356 C1358 1.391 . S
C1357 C1356 1.386 . S
C1357 C1361 1.393 . S
C1358 H1350 0.950 . S
C1358 C1356 1.391 . S
C1358 C1359 1.400 . S
C1359 C1358 1.400 . S
C1359 C1360 1.398 . S
C1359 C1365 1.491 . S
C1360 H1351 0.950 . S
C1360 C1359 1.398 . S
C1360 C1361 1.391 . S
C1361 H1349 0.950 . S
C1361 C1357 1.393 . S
C1361 C1360 1.391 . S
C1362 H1352 0.950 . S
C1362 C1363 1.386 . S
C1362 C1364 1.391 . S
C1363 C1362 1.386 . S
C1363 C1367 1.393 . S
C1364 H1353 0.950 . S
C1364 C1362 1.391 . S
C1364 C1365 1.400 . S
C1365 C1359 1.491 . S
C1365 C1364 1.400 . S
C1365 C1366 1.398 . S
C1366 H1354 0.950 . S
C1366 C1365 1.398 . S
C1366 C1367 1.391 . S
C1367 H1355 0.950 . S
C1367 C1363 1.393 . S
C1367 C1366 1.391 . S
H1368 C1376 0.950 . S
H1369 C1381 0.950 . S
H1370 C1378 0.950 . S
H1371 C1380 0.950 . S
H1372 C1382 0.950 . S
H1373 C1384 0.950 . S
H1374 C1386 0.950 . S
H1375 C1387 0.950 . S
C1376 H1368 0.950 . S
C1376 C1377 1.386 . S
C1376 C1378 1.391 . S
C1377 C1376 1.386 . S
C1377 C1381 1.393 . S
C1378 H1370 0.950 . S
C1378 C1376 1.391 . S
C1378 C1379 1.400 . S
C1379 C1378 1.400 . S
C1379 C1380 1.398 . S
C1379 C1385 1.491 . S
C1380 H1371 0.950 . S
C1380 C1379 1.398 . S
C1380 C1381 1.391 . S
C1381 H1369 0.950 . S
C1381 C1377 1.393 . S
C1381 C1380 1.391 . S
C1382 H1372 0.950 . S
C1382 C1383 1.386 . S
C1382 C1384 1.391 . S
C1383 C1382 1.386 . S
C1383 C1387 1.393 . S
C1384 H1373 0.950 . S
C1384 C1382 1.391 . S
C1384 C1385 1.400 . S
C1385 C1379 1.491 . S
C1385 C1384 1.400 . S
C1385 C1386 1.398 . S
C1386 H1374 0.950 . S
C1386 C1385 1.398 . S
C1386 C1387 1.391 . S
C1387 H1375 0.950 . S
C1387 C1383 1.393 . S
C1387 C1386 1.391 . S
H1388 C1396 0.950 . S
H1389 C1401 0.950 . S
H1390 C1398 0.950 . S
H1391 C1400 0.950 . S
H1392 C1402 0.950 . S
H1393 C1404 0.950 . S
H1394 C1406 0.950 . S
H1395 C1407 0.950 . S
C1396 H1388 0.950 . S
C1396 C1397 1.386 . S
C1396 C1398 1.391 . S
C1397 C1396 1.386 . S
C1397 C1401 1.393 . S
C1398 H1390 0.950 . S
C1398 C1396 1.391 . S
C1398 C1399 1.400 . S
C1399 C1398 1.400 . S
C1399 C1400 1.398 . S
C1399 C1405 1.491 . S
C1400 H1391 0.950 . S
C1400 C1399 1.398 . S
C1400 C1401 1.391 . S
C1401 H1389 0.950 . S
C1401 C1397 1.393 . S
C1401 C1400 1.391 . S
C1402 H1392 0.950 . S
C1402 C1403 1.386 . S
C1402 C1404 1.391 . S
C1403 C1402 1.386 . S
C1403 C1407 1.393 . S
C1404 H1393 0.950 . S
C1404 C1402 1.391 . S
C1404 C1405 1.400 . S
C1405 C1399 1.491 . S
C1405 C1404 1.400 . S
C1405 C1406 1.398 . S
C1406 H1394 0.950 . S
C1406 C1405 1.398 . S
C1406 C1407 1.391 . S
C1407 H1395 0.950 . S
C1407 C1403 1.393 . S
C1407 C1406 1.391 . S
H1408 C1416 0.950 . S
H1409 C1421 0.950 . S
H1410 C1418 0.950 . S
H1411 C1420 0.950 . S
H1412 C1422 0.950 . S
H1413 C1424 0.950 . S
H1414 C1426 0.950 . S
H1415 C1427 0.950 . S
C1416 H1408 0.950 . S
C1416 C1417 1.386 . S
C1416 C1418 1.391 . S
C1417 C1416 1.386 . S
C1417 C1421 1.393 . S
C1418 H1410 0.950 . S
C1418 C1416 1.391 . S
C1418 C1419 1.400 . S
C1419 C1418 1.400 . S
C1419 C1420 1.398 . S
C1419 C1425 1.491 . S
C1420 H1411 0.950 . S
C1420 C1419 1.398 . S
C1420 C1421 1.391 . S
C1421 H1409 0.950 . S
C1421 C1417 1.393 . S
C1421 C1420 1.391 . S
C1422 H1412 0.950 . S
C1422 C1423 1.386 . S
C1422 C1424 1.391 . S
C1423 C1422 1.386 . S
C1423 C1427 1.393 . S
C1424 H1413 0.950 . S
C1424 C1422 1.391 . S
C1424 C1425 1.400 . S
C1425 C1419 1.491 . S
C1425 C1424 1.400 . S
C1425 C1426 1.398 . S
C1426 H1414 0.950 . S
C1426 C1425 1.398 . S
C1426 C1427 1.391 . S
C1427 H1415 0.950 . S
C1427 C1423 1.393 . S
C1427 C1426 1.391 . S
H1428 C1436 0.950 . S
H1429 C1441 0.950 . S
H1430 C1438 0.950 . S
H1431 C1440 0.950 . S
H1432 C1442 0.950 . S
H1433 C1444 0.950 . S
H1434 C1446 0.950 . S
H1435 C1447 0.950 . S
C1436 H1428 0.950 . S
C1436 C1437 1.386 . S
C1436 C1438 1.391 . S
C1437 C1436 1.386 . S
C1437 C1441 1.393 . S
C1438 H1430 0.950 . S
C1438 C1436 1.391 . S
C1438 C1439 1.400 . S
C1439 C1438 1.400 . S
C1439 C1440 1.398 . S
C1439 C1445 1.491 1_455 S
C1440 H1431 0.950 . S
C1440 C1439 1.398 . S
C1440 C1441 1.391 . S
C1441 H1429 0.950 . S
C1441 C1437 1.393 . S
C1441 C1440 1.391 . S
C1442 H1432 0.950 . S
C1442 C1443 1.386 . S
C1442 C1444 1.391 . S
C1443 C1442 1.386 . S
C1443 C1447 1.393 . S
C1444 H1433 0.950 . S
C1444 C1442 1.391 . S
C1444 C1445 1.400 . S
C1445 C1439 1.491 1_655 S
C1445 C1444 1.400 . S
C1445 C1446 1.398 . S
C1446 H1434 0.950 . S
C1446 C1445 1.398 . S
C1446 C1447 1.391 . S
C1447 H1435 0.950 . S
C1447 C1443 1.393 . S
C1447 C1446 1.391 . S
H1448 C1456 0.950 . S
H1449 C1461 0.950 . S
H1450 C1458 0.950 . S
H1451 C1460 0.950 . S
H1452 C1462 0.950 . S
H1453 C1464 0.950 . S
H1454 C1466 0.950 . S
H1455 C1467 0.950 . S
C1456 H1448 0.950 . S
C1456 C1457 1.386 . S
C1456 C1458 1.391 . S
C1457 C1456 1.386 . S
C1457 C1461 1.393 . S
C1458 H1450 0.950 . S
C1458 C1456 1.391 . S
C1458 C1459 1.400 . S
C1459 C1458 1.400 . S
C1459 C1460 1.398 . S
C1459 C1465 1.491 . S
C1460 H1451 0.950 . S
C1460 C1459 1.398 . S
C1460 C1461 1.391 . S
C1461 H1449 0.950 . S
C1461 C1457 1.393 . S
C1461 C1460 1.391 . S
C1462 H1452 0.950 . S
C1462 C1463 1.386 . S
C1462 C1464 1.391 . S
C1463 C1462 1.386 . S
C1463 C1467 1.393 . S
C1464 H1453 0.950 . S
C1464 C1462 1.391 . S
C1464 C1465 1.400 . S
C1465 C1459 1.491 . S
C1465 C1464 1.400 . S
C1465 C1466 1.398 . S
C1466 H1454 0.950 . S
C1466 C1465 1.398 . S
C1466 C1467 1.391 . S
C1467 H1455 0.950 . S
C1467 C1463 1.393 . S
C1467 C1466 1.391 . S
H1468 C1476 0.950 . S
H1469 C1481 0.950 . S
H1470 C1478 0.950 . S
H1471 C1480 0.950 . S
H1472 C1482 0.950 . S
H1473 C1484 0.950 . S
H1474 C1486 0.950 . S
H1475 C1487 0.950 . S
C1476 H1468 0.950 . S
C1476 C1477 1.386 . S
C1476 C1478 1.391 . S
C1477 C1476 1.386 . S
C1477 C1481 1.393 . S
C1478 H1470 0.950 . S
C1478 C1476 1.391 . S
C1478 C1479 1.400 . S
C1479 C1478 1.400 . S
C1479 C1480 1.398 . S
C1479 C1485 1.491 1_545 S
C1480 H1471 0.950 . S
C1480 C1479 1.398 . S
C1480 C1481 1.391 . S
C1481 H1469 0.950 . S
C1481 C1477 1.393 . S
C1481 C1480 1.391 . S
C1482 H1472 0.950 . S
C1482 C1483 1.386 . S
C1482 C1484 1.391 . S
C1483 C1482 1.386 . S
C1483 C1487 1.393 . S
C1484 H1473 0.950 . S
C1484 C1482 1.391 . S
C1484 C1485 1.400 . S
C1485 C1479 1.491 1_565 S
C1485 C1484 1.400 . S
C1485 C1486 1.398 . S
C1486 H1474 0.950 . S
C1486 C1485 1.398 . S
C1486 C1487 1.391 . S
C1487 H1475 0.950 . S
C1487 C1483 1.393 . S
C1487 C1486 1.391 . S
H1488 C1496 0.950 . S
H1489 C1501 0.950 . S
H1490 C1498 0.950 . S
H1491 C1500 0.950 . S
H1492 C1502 0.950 . S
H1493 C1504 0.950 . S
H1494 C1506 0.950 . S
H1495 C1507 0.950 . S
C1496 H1488 0.950 . S
C1496 C1497 1.386 . S
C1496 C1498 1.391 . S
C1497 C1496 1.386 . S
C1497 C1501 1.393 . S
C1498 H1490 0.950 . S
C1498 C1496 1.391 . S
C1498 C1499 1.400 . S
C1499 C1498 1.400 . S
C1499 C1500 1.398 . S
C1499 C1505 1.491 1_545 S
C1500 H1491 0.950 . S
C1500 C1499 1.398 . S
C1500 C1501 1.391 . S
C1501 H1489 0.950 . S
C1501 C1497 1.393 . S
C1501 C1500 1.391 . S
C1502 H1492 0.950 . S
C1502 C1503 1.386 . S
C1502 C1504 1.391 . S
C1503 C1502 1.386 . S
C1503 C1507 1.393 . S
C1504 H1493 0.950 . S
C1504 C1502 1.391 . S
C1504 C1505 1.400 . S
C1505 C1499 1.491 1_565 S
C1505 C1504 1.400 . S
C1505 C1506 1.398 . S
C1506 H1494 0.950 . S
C1506 C1505 1.398 . S
C1506 C1507 1.391 . S
C1507 H1495 0.950 . S
C1507 C1503 1.393 . S
C1507 C1506 1.391 . S
H1508 C1516 0.950 . S
H1509 C1521 0.950 . S
H1510 C1518 0.950 . S
H1511 C1520 0.950 . S
H1512 C1522 0.950 . S
H1513 C1524 0.950 . S
H1514 C1526 0.950 . S
H1515 C1527 0.950 . S
C1516 H1508 0.950 . S
C1516 C1517 1.386 . S
C1516 C1518 1.391 . S
C1517 C1516 1.386 . S
C1517 C1521 1.393 . S
C1518 H1510 0.950 . S
C1518 C1516 1.391 . S
C1518 C1519 1.400 . S
C1519 C1518 1.400 . S
C1519 C1520 1.398 . S
C1519 C1525 1.491 1_655 S
C1520 H1511 0.950 . S
C1520 C1519 1.398 . S
C1520 C1521 1.391 . S
C1521 H1509 0.950 . S
C1521 C1517 1.393 . S
C1521 C1520 1.391 . S
C1522 H1512 0.950 . S
C1522 C1523 1.386 . S
C1522 C1524 1.391 . S
C1523 C1522 1.386 . S
C1523 C1527 1.393 . S
C1524 H1513 0.950 . S
C1524 C1522 1.391 . S
C1524 C1525 1.400 . S
C1525 C1519 1.491 1_455 S
C1525 C1524 1.400 . S
C1525 C1526 1.398 . S
C1526 H1514 0.950 . S
C1526 C1525 1.398 . S
C1526 C1527 1.391 . S
C1527 H1515 0.950 . S
C1527 C1523 1.393 . S
C1527 C1526 1.391 . S
H1528 C1536 0.950 . S
H1529 C1541 0.950 . S
H1530 C1538 0.950 . S
H1531 C1540 0.950 . S
H1532 C1542 0.950 . S
H1533 C1544 0.950 . S
H1534 C1546 0.950 . S
H1535 C1547 0.950 . S
C1536 H1528 0.950 . S
C1536 C1537 1.386 . S
C1536 C1538 1.391 . S
C1537 C1536 1.386 . S
C1537 C1541 1.393 . S
C1538 H1530 0.950 . S
C1538 C1536 1.391 . S
C1538 C1539 1.400 . S
C1539 C1538 1.400 . S
C1539 C1540 1.398 . S
C1539 C1545 1.491 . S
C1540 H1531 0.950 . S
C1540 C1539 1.398 . S
C1540 C1541 1.391 . S
C1541 H1529 0.950 . S
C1541 C1537 1.393 . S
C1541 C1540 1.391 . S
C1542 H1532 0.950 . S
C1542 C1543 1.386 . S
C1542 C1544 1.391 . S
C1543 C1542 1.386 . S
C1543 C1547 1.393 . S
C1544 H1533 0.950 . S
C1544 C1542 1.391 . S
C1544 C1545 1.400 . S
C1545 C1539 1.491 . S
C1545 C1544 1.400 . S
C1545 C1546 1.398 . S
C1546 H1534 0.950 . S
C1546 C1545 1.398 . S
C1546 C1547 1.391 . S
C1547 H1535 0.950 . S
C1547 C1543 1.393 . S
C1547 C1546 1.391 . S
H1548 C1556 0.950 . S
H1549 C1561 0.950 . S
H1550 C1558 0.950 . S
H1551 C1560 0.950 . S
H1552 C1562 0.950 . S
H1553 C1564 0.950 . S
H1554 C1566 0.950 . S
H1555 C1567 0.950 . S
C1556 H1548 0.950 . S
C1556 C1557 1.386 . S
C1556 C1558 1.391 . S
C1557 C1556 1.386 . S
C1557 C1561 1.393 . S
C1558 H1550 0.950 . S
C1558 C1556 1.391 . S
C1558 C1559 1.400 . S
C1559 C1558 1.400 . S
C1559 C1560 1.398 . S
C1559 C1565 1.491 . S
C1560 H1551 0.950 . S
C1560 C1559 1.398 . S
C1560 C1561 1.391 . S
C1561 H1549 0.950 . S
C1561 C1557 1.393 . S
C1561 C1560 1.391 . S
C1562 H1552 0.950 . S
C1562 C1563 1.386 . S
C1562 C1564 1.391 . S
C1563 C1562 1.386 . S
C1563 C1567 1.393 . S
C1564 H1553 0.950 . S
C1564 C1562 1.391 . S
C1564 C1565 1.400 . S
C1565 C1559 1.491 . S
C1565 C1564 1.400 . S
C1565 C1566 1.398 . S
C1566 H1554 0.950 . S
C1566 C1565 1.398 . S
C1566 C1567 1.391 . S
C1567 H1555 0.950 . S
C1567 C1563 1.393 . S
C1567 C1566 1.391 . S
H1568 C1576 0.950 . S
H1569 C1581 0.950 . S
H1570 C1578 0.950 . S
H1571 C1580 0.950 . S
H1572 C1582 0.950 . S
H1573 C1584 0.950 . S
H1574 C1586 0.950 . S
H1575 C1587 0.950 . S
C1576 H1568 0.950 . S
C1576 C1577 1.386 . S
C1576 C1578 1.391 . S
C1577 C1576 1.386 . S
C1577 C1581 1.393 . S
C1578 H1570 0.950 . S
C1578 C1576 1.391 . S
C1578 C1579 1.400 . S
C1579 C1578 1.400 . S
C1579 C1580 1.398 . S
C1579 C1585 1.491 . S
C1580 H1571 0.950 . S
C1580 C1579 1.398 . S
C1580 C1581 1.391 . S
C1581 H1569 0.950 . S
C1581 C1577 1.393 . S
C1581 C1580 1.391 . S
C1582 H1572 0.950 . S
C1582 C1583 1.386 . S
C1582 C1584 1.391 . S
C1583 C1582 1.386 . S
C1583 C1587 1.393 . S
C1584 H1573 0.950 . S
C1584 C1582 1.391 . S
C1584 C1585 1.400 . S
C1585 C1579 1.491 . S
C1585 C1584 1.400 . S
C1585 C1586 1.398 . S
C1586 H1574 0.950 . S
C1586 C1585 1.398 . S
C1586 C1587 1.391 . S
C1587 H1575 0.950 . S
C1587 C1583 1.393 . S
C1587 C1586 1.391 . S
H1588 C1596 0.950 . S
H1589 C1601 0.950 . S
H1590 C1598 0.950 . S
H1591 C1600 0.950 . S
H1592 C1602 0.950 . S
H1593 C1604 0.950 . S
H1594 C1606 0.950 . S
H1595 C1607 0.950 . S
C1596 H1588 0.950 . S
C1596 C1597 1.386 . S
C1596 C1598 1.391 . S
C1597 C1596 1.386 . S
C1597 C1601 1.393 . S
C1598 H1590 0.950 . S
C1598 C1596 1.391 . S
C1598 C1599 1.400 . S
C1599 C1598 1.400 . S
C1599 C1600 1.398 . S
C1599 C1605 1.491 . S
C1600 H1591 0.950 . S
C1600 C1599 1.398 . S
C1600 C1601 1.391 . S
C1601 H1589 0.950 . S
C1601 C1597 1.393 . S
C1601 C1600 1.391 . S
C1602 H1592 0.950 . S
C1602 C1603 1.386 . S
C1602 C1604 1.391 . S
C1603 C1602 1.386 . S
C1603 C1607 1.393 . S
C1604 H1593 0.950 . S
C1604 C1602 1.391 . S
C1604 C1605 1.400 . S
C1605 C1599 1.491 . S
C1605 C1604 1.400 . S
C1605 C1606 1.398 . S
C1606 H1594 0.950 . S
C1606 C1605 1.398 . S
C1606 C1607 1.391 . S
C1607 H1595 0.950 . S
C1607 C1603 1.393 . S
C1607 C1606 1.391 . S
H1608 C1616 0.950 . S
H1609 C1621 0.950 . S
H1610 C1618 0.950 . S
H1611 C1620 0.950 . S
H1612 C1622 0.950 . S
H1613 C1624 0.950 . S
H1614 C1626 0.950 . S
H1615 C1627 0.950 . S
C1616 H1608 0.950 . S
C1616 C1617 1.386 . S
C1616 C1618 1.391 . S
C1617 C1616 1.386 . S
C1617 C1621 1.393 . S
C1618 H1610 0.950 . S
C1618 C1616 1.391 . S
C1618 C1619 1.400 . S
C1619 C1618 1.400 . S
C1619 C1620 1.398 . S
C1619 C1625 1.491 . S
C1620 H1611 0.950 . S
C1620 C1619 1.398 . S
C1620 C1621 1.391 . S
C1621 H1609 0.950 . S
C1621 C1617 1.393 . S
C1621 C1620 1.391 . S
C1622 H1612 0.950 . S
C1622 C1623 1.386 . S
C1622 C1624 1.391 . S
C1623 C1622 1.386 . S
C1623 C1627 1.393 . S
C1624 H1613 0.950 . S
C1624 C1622 1.391 . S
C1624 C1625 1.400 . S
C1625 C1619 1.491 . S
C1625 C1624 1.400 . S
C1625 C1626 1.398 . S
C1626 H1614 0.950 . S
C1626 C1625 1.398 . S
C1626 C1627 1.391 . S
C1627 H1615 0.950 . S
C1627 C1623 1.393 . S
C1627 C1626 1.391 . S
H1628 C1636 0.950 . S
H1629 C1641 0.950 . S
H1630 C1638 0.950 . S
H1631 C1640 0.950 . S
H1632 C1642 0.950 . S
H1633 C1644 0.950 . S
H1634 C1646 0.950 . S
H1635 C1647 0.950 . S
C1636 H1628 0.950 . S
C1636 C1637 1.386 . S
C1636 C1638 1.391 . S
C1637 C1636 1.386 . S
C1637 C1641 1.393 . S
C1638 H1630 0.950 . S
C1638 C1636 1.391 . S
C1638 C1639 1.400 . S
C1639 C1638 1.400 . S
C1639 C1640 1.398 . S
C1639 C1645 1.491 . S
C1640 H1631 0.950 . S
C1640 C1639 1.398 . S
C1640 C1641 1.391 . S
C1641 H1629 0.950 . S
C1641 C1637 1.393 . S
C1641 C1640 1.391 . S
C1642 H1632 0.950 . S
C1642 C1643 1.386 . S
C1642 C1644 1.391 . S
C1643 C1642 1.386 . S
C1643 C1647 1.393 . S
C1644 H1633 0.950 . S
C1644 C1642 1.391 . S
C1644 C1645 1.400 . S
C1645 C1639 1.491 . S
C1645 C1644 1.400 . S
C1645 C1646 1.398 . S
C1646 H1634 0.950 . S
C1646 C1645 1.398 . S
C1646 C1647 1.391 . S
C1647 H1635 0.950 . S
C1647 C1643 1.393 . S
C1647 C1646 1.391 . S
H1648 C1656 0.950 . S
H1649 C1661 0.950 . S
H1650 C1658 0.950 . S
H1651 C1660 0.950 . S
H1652 C1662 0.950 . S
H1653 C1664 0.950 . S
H1654 C1666 0.950 . S
H1655 C1667 0.950 . S
C1656 H1648 0.950 . S
C1656 C1657 1.386 . S
C1656 C1658 1.391 . S
C1657 C1656 1.386 . S
C1657 C1661 1.393 . S
C1658 H1650 0.950 . S
C1658 C1656 1.391 . S
C1658 C1659 1.400 . S
C1659 C1658 1.400 . S
C1659 C1660 1.398 . S
C1659 C1665 1.491 . S
C1660 H1651 0.950 . S
C1660 C1659 1.398 . S
C1660 C1661 1.391 . S
C1661 H1649 0.950 . S
C1661 C1657 1.393 . S
C1661 C1660 1.391 . S
C1662 H1652 0.950 . S
C1662 C1663 1.386 . S
C1662 C1664 1.391 . S
C1663 C1662 1.386 . S
C1663 C1667 1.393 . S
C1664 H1653 0.950 . S
C1664 C1662 1.391 . S
C1664 C1665 1.400 . S
C1665 C1659 1.491 . S
C1665 C1664 1.400 . S
C1665 C1666 1.398 . S
C1666 H1654 0.950 . S
C1666 C1665 1.398 . S
C1666 C1667 1.391 . S
C1667 H1655 0.950 . S
C1667 C1663 1.393 . S
C1667 C1666 1.391 . S
H1668 C1676 0.950 . S
H1669 C1681 0.950 . S
H1670 C1678 0.950 . S
H1671 C1680 0.950 . S
H1672 C1682 0.950 . S
H1673 C1684 0.950 . S
H1674 C1686 0.950 . S
H1675 C1687 0.950 . S
C1676 H1668 0.950 . S
C1676 C1677 1.386 . S
C1676 C1678 1.391 . S
C1677 C1676 1.386 . S
C1677 C1681 1.393 . S
C1678 H1670 0.950 . S
C1678 C1676 1.391 . S
C1678 C1679 1.400 . S
C1679 C1678 1.400 . S
C1679 C1680 1.398 . S
C1679 C1685 1.491 . S
C1680 H1671 0.950 . S
C1680 C1679 1.398 . S
C1680 C1681 1.391 . S
C1681 H1669 0.950 . S
C1681 C1677 1.393 . S
C1681 C1680 1.391 . S
C1682 H1672 0.950 . S
C1682 C1683 1.386 . S
C1682 C1684 1.391 . S
C1683 C1682 1.386 . S
C1683 C1687 1.393 . S
C1684 H1673 0.950 . S
C1684 C1682 1.391 . S
C1684 C1685 1.400 . S
C1685 C1679 1.491 . S
C1685 C1684 1.400 . S
C1685 C1686 1.398 . S
C1686 H1674 0.950 . S
C1686 C1685 1.398 . S
C1686 C1687 1.391 . S
C1687 H1675 0.950 . S
C1687 C1683 1.393 . S
C1687 C1686 1.391 . S
H1688 C1696 0.950 . S
H1689 C1701 0.950 . S
H1690 C1698 0.950 . S
H1691 C1700 0.950 . S
H1692 C1702 0.950 . S
H1693 C1704 0.950 . S
H1694 C1706 0.950 . S
H1695 C1707 0.950 . S
C1696 H1688 0.950 . S
C1696 C1697 1.386 . S
C1696 C1698 1.391 . S
C1697 C1696 1.386 . S
C1697 C1701 1.393 . S
C1698 H1690 0.950 . S
C1698 C1696 1.391 . S
C1698 C1699 1.400 . S
C1699 C1698 1.400 . S
C1699 C1700 1.398 . S
C1699 C1705 1.491 . S
C1700 H1691 0.950 . S
C1700 C1699 1.398 . S
C1700 C1701 1.391 . S
C1701 H1689 0.950 . S
C1701 C1697 1.393 . S
C1701 C1700 1.391 . S
C1702 H1692 0.950 . S
C1702 C1703 1.386 . S
C1702 C1704 1.391 . S
C1703 C1702 1.386 . S
C1703 C1707 1.393 . S
C1704 H1693 0.950 . S
C1704 C1702 1.391 . S
C1704 C1705 1.400 . S
C1705 C1699 1.491 . S
C1705 C1704 1.400 . S
C1705 C1706 1.398 . S
C1706 H1694 0.950 . S
C1706 C1705 1.398 . S
C1706 C1707 1.391 . S
C1707 H1695 0.950 . S
C1707 C1703 1.393 . S
C1707 C1706 1.391 . S
H1708 C1716 0.950 . S
H1709 C1721 0.950 . S
H1710 C1718 0.950 . S
H1711 C1720 0.950 . S
H1712 C1722 0.950 . S
H1713 C1724 0.950 . S
H1714 C1726 0.950 . S
H1715 C1727 0.950 . S
C1716 H1708 0.950 . S
C1716 C1717 1.386 . S
C1716 C1718 1.391 . S
C1717 C1716 1.386 . S
C1717 C1721 1.393 . S
C1718 H1710 0.950 . S
C1718 C1716 1.391 . S
C1718 C1719 1.400 . S
C1719 C1718 1.400 . S
C1719 C1720 1.398 . S
C1719 C1725 1.491 . S
C1720 H1711 0.950 . S
C1720 C1719 1.398 . S
C1720 C1721 1.391 . S
C1721 H1709 0.950 . S
C1721 C1717 1.393 . S
C1721 C1720 1.391 . S
C1722 H1712 0.950 . S
C1722 C1723 1.386 . S
C1722 C1724 1.391 . S
C1723 C1722 1.386 . S
C1723 C1727 1.393 . S
C1724 H1713 0.950 . S
C1724 C1722 1.391 . S
C1724 C1725 1.400 . S
C1725 C1719 1.491 . S
C1725 C1724 1.400 . S
C1725 C1726 1.398 . S
C1726 H1714 0.950 . S
C1726 C1725 1.398 . S
C1726 C1727 1.391 . S
C1727 H1715 0.950 . S
C1727 C1723 1.393 . S
C1727 C1726 1.391 . S
H1728 C1736 0.950 1_556 S
H1729 C1741 0.950 . S
H1730 C1738 0.950 1_556 S
H1731 C1740 0.950 . S
H1732 C1742 0.950 . S
H1733 C1744 0.950 . S
H1734 C1746 0.950 1_556 S
H1735 C1747 0.950 1_556 S
C1736 H1728 0.950 1_554 S
C1736 C1737 1.386 . S
C1736 C1738 1.391 . S
C1737 C1736 1.386 . S
C1737 C1741 1.393 . S
C1738 H1730 0.950 1_554 S
C1738 C1736 1.391 . S
C1738 C1739 1.400 . S
C1739 C1738 1.400 . S
C1739 C1740 1.398 . S
C1739 C1745 1.491 . S
C1740 H1731 0.950 . S
C1740 C1739 1.398 . S
C1740 C1741 1.391 . S
C1741 H1729 0.950 . S
C1741 C1737 1.393 . S
C1741 C1740 1.391 . S
C1742 H1732 0.950 . S
C1742 C1743 1.386 . S
C1742 C1744 1.391 . S
C1743 C1742 1.386 . S
C1743 C1747 1.393 . S
C1744 H1733 0.950 . S
C1744 C1742 1.391 . S
C1744 C1745 1.400 . S
C1745 C1739 1.491 . S
C1745 C1744 1.400 . S
C1745 C1746 1.398 . S
C1746 H1734 0.950 1_554 S
C1746 C1745 1.398 . S
C1746 C1747 1.391 . S
C1747 H1735 0.950 1_554 S
C1747 C1743 1.393 . S
C1747 C1746 1.391 . S
H1748 C1756 0.950 . S
H1749 C1761 0.950 . S
H1750 C1758 0.950 . S
H1751 C1760 0.950 . S
H1752 C1762 0.950 . S
H1753 C1764 0.950 . S
H1754 C1766 0.950 . S
H1755 C1767 0.950 . S
C1756 H1748 0.950 . S
C1756 C1757 1.386 . S
C1756 C1758 1.391 . S
C1757 C1756 1.386 . S
C1757 C1761 1.393 . S
C1758 H1750 0.950 . S
C1758 C1756 1.391 . S
C1758 C1759 1.400 . S
C1759 C1758 1.400 . S
C1759 C1760 1.398 . S
C1759 C1765 1.491 . S
C1760 H1751 0.950 . S
C1760 C1759 1.398 . S
C1760 C1761 1.391 . S
C1761 H1749 0.950 . S
C1761 C1757 1.393 . S
C1761 C1760 1.391 . S
C1762 H1752 0.950 . S
C1762 C1763 1.386 . S
C1762 C1764 1.391 . S
C1763 C1762 1.386 . S
C1763 C1767 1.393 . S
C1764 H1753 0.950 . S
C1764 C1762 1.391 . S
C1764 C1765 1.400 . S
C1765 C1759 1.491 . S
C1765 C1764 1.400 . S
C1765 C1766 1.398 . S
C1766 H1754 0.950 . S
C1766 C1765 1.398 . S
C1766 C1767 1.391 . S
C1767 H1755 0.950 . S
C1767 C1763 1.393 . S
C1767 C1766 1.391 . S
H1768 C1776 0.950 1_556 S
H1769 C1781 0.950 . S
H1770 C1778 0.950 1_556 S
H1771 C1780 0.950 . S
H1772 C1782 0.950 . S
H1773 C1784 0.950 . S
H1774 C1786 0.950 1_556 S
H1775 C1787 0.950 1_556 S
C1776 H1768 0.950 1_554 S
C1776 C1777 1.386 . S
C1776 C1778 1.391 . S
C1777 C1776 1.386 . S
C1777 C1781 1.393 . S
C1778 H1770 0.950 1_554 S
C1778 C1776 1.391 . S
C1778 C1779 1.400 . S
C1779 C1778 1.400 . S
C1779 C1780 1.398 . S
C1779 C1785 1.491 . S
C1780 H1771 0.950 . S
C1780 C1779 1.398 . S
C1780 C1781 1.391 . S
C1781 H1769 0.950 . S
C1781 C1777 1.393 . S
C1781 C1780 1.391 . S
C1782 H1772 0.950 . S
C1782 C1783 1.386 . S
C1782 C1784 1.391 . S
C1783 C1782 1.386 . S
C1783 C1787 1.393 . S
C1784 H1773 0.950 . S
C1784 C1782 1.391 . S
C1784 C1785 1.400 . S
C1785 C1779 1.491 . S
C1785 C1784 1.400 . S
C1785 C1786 1.398 . S
C1786 H1774 0.950 1_554 S
C1786 C1785 1.398 . S
C1786 C1787 1.391 . S
C1787 H1775 0.950 1_554 S
C1787 C1783 1.393 . S
C1787 C1786 1.391 . S
H1788 C1796 0.950 1_554 S
H1789 C1801 0.950 . S
H1790 C1798 0.950 1_554 S
H1791 C1800 0.950 . S
H1792 C1802 0.950 . S
H1793 C1804 0.950 . S
H1794 C1806 0.950 1_554 S
H1795 C1807 0.950 1_554 S
C1796 H1788 0.950 1_556 S
C1796 C1797 1.386 . S
C1796 C1798 1.391 . S
C1797 C1796 1.386 . S
C1797 C1801 1.393 . S
C1798 H1790 0.950 1_556 S
C1798 C1796 1.391 . S
C1798 C1799 1.400 . S
C1799 C1798 1.400 . S
C1799 C1800 1.398 . S
C1799 C1805 1.491 . S
C1800 H1791 0.950 . S
C1800 C1799 1.398 . S
C1800 C1801 1.391 . S
C1801 H1789 0.950 . S
C1801 C1797 1.393 . S
C1801 C1800 1.391 . S
C1802 H1792 0.950 . S
C1802 C1803 1.386 . S
C1802 C1804 1.391 . S
C1803 C1802 1.386 . S
C1803 C1807 1.393 . S
C1804 H1793 0.950 . S
C1804 C1802 1.391 . S
C1804 C1805 1.400 . S
C1805 C1799 1.491 . S
C1805 C1804 1.400 . S
C1805 C1806 1.398 . S
C1806 H1794 0.950 1_556 S
C1806 C1805 1.398 . S
C1806 C1807 1.391 . S
C1807 H1795 0.950 1_556 S
C1807 C1803 1.393 . S
C1807 C1806 1.391 . S
H1808 C1816 0.950 1_554 S
H1809 C1821 0.950 . S
H1810 C1818 0.950 1_554 S
H1811 C1820 0.950 . S
H1812 C1822 0.950 . S
H1813 C1824 0.950 . S
H1814 C1826 0.950 1_554 S
H1815 C1827 0.950 1_554 S
C1816 H1808 0.950 1_556 S
C1816 C1817 1.386 . S
C1816 C1818 1.391 . S
C1817 C1816 1.386 . S
C1817 C1821 1.393 . S
C1818 H1810 0.950 1_556 S
C1818 C1816 1.391 . S
C1818 C1819 1.400 . S
C1819 C1818 1.400 . S
C1819 C1820 1.398 . S
C1819 C1825 1.491 . S
C1820 H1811 0.950 . S
C1820 C1819 1.398 . S
C1820 C1821 1.391 . S
C1821 H1809 0.950 . S
C1821 C1817 1.393 . S
C1821 C1820 1.391 . S
C1822 H1812 0.950 . S
C1822 C1823 1.386 . S
C1822 C1824 1.391 . S
C1823 C1822 1.386 . S
C1823 C1827 1.393 . S
C1824 H1813 0.950 . S
C1824 C1822 1.391 . S
C1824 C1825 1.400 . S
C1825 C1819 1.491 . S
C1825 C1824 1.400 . S
C1825 C1826 1.398 . S
C1826 H1814 0.950 1_556 S
C1826 C1825 1.398 . S
C1826 C1827 1.391 . S
C1827 H1815 0.950 1_556 S
C1827 C1823 1.393 . S
C1827 C1826 1.391 . S
H1828 C1836 0.950 1_554 S
H1829 C1841 0.950 . S
H1830 C1838 0.950 1_554 S
H1831 C1840 0.950 . S
H1832 C1842 0.950 . S
H1833 C1844 0.950 . S
H1834 C1846 0.950 1_554 S
H1835 C1847 0.950 1_554 S
C1836 H1828 0.950 1_556 S
C1836 C1837 1.386 . S
C1836 C1838 1.391 . S
C1837 C1836 1.386 . S
C1837 C1841 1.393 . S
C1838 H1830 0.950 1_556 S
C1838 C1836 1.391 . S
C1838 C1839 1.400 . S
C1839 C1838 1.400 . S
C1839 C1840 1.398 . S
C1839 C1845 1.491 . S
C1840 H1831 0.950 . S
C1840 C1839 1.398 . S
C1840 C1841 1.391 . S
C1841 H1829 0.950 . S
C1841 C1837 1.393 . S
C1841 C1840 1.391 . S
C1842 H1832 0.950 . S
C1842 C1843 1.386 . S
C1842 C1844 1.391 . S
C1843 C1842 1.386 . S
C1843 C1847 1.393 . S
C1844 H1833 0.950 . S
C1844 C1842 1.391 . S
C1844 C1845 1.400 . S
C1845 C1839 1.491 . S
C1845 C1844 1.400 . S
C1845 C1846 1.398 . S
C1846 H1834 0.950 1_556 S
C1846 C1845 1.398 . S
C1846 C1847 1.391 . S
C1847 H1835 0.950 1_556 S
C1847 C1843 1.393 . S
C1847 C1846 1.391 . S
H1848 C1856 0.950 . S
H1849 C1861 0.950 . S
H1850 C1858 0.950 . S
H1851 C1860 0.950 . S
H1852 C1862 0.950 . S
H1853 C1864 0.950 . S
H1854 C1866 0.950 . S
H1855 C1867 0.950 . S
C1856 H1848 0.950 . S
C1856 C1857 1.386 . S
C1856 C1858 1.391 . S
C1857 C1856 1.386 . S
C1857 C1861 1.393 . S
C1858 H1850 0.950 . S
C1858 C1856 1.391 . S
C1858 C1859 1.400 . S
C1859 C1858 1.400 . S
C1859 C1860 1.398 . S
C1859 C1865 1.491 . S
C1860 H1851 0.950 . S
C1860 C1859 1.398 . S
C1860 C1861 1.391 . S
C1861 H1849 0.950 . S
C1861 C1857 1.393 . S
C1861 C1860 1.391 . S
C1862 H1852 0.950 . S
C1862 C1863 1.386 . S
C1862 C1864 1.391 . S
C1863 C1862 1.386 . S
C1863 C1867 1.393 . S
C1864 H1853 0.950 . S
C1864 C1862 1.391 . S
C1864 C1865 1.400 . S
C1865 C1859 1.491 . S
C1865 C1864 1.400 . S
C1865 C1866 1.398 . S
C1866 H1854 0.950 . S
C1866 C1865 1.398 . S
C1866 C1867 1.391 . S
C1867 H1855 0.950 . S
C1867 C1863 1.393 . S
C1867 C1866 1.391 . S
H1868 C1876 0.950 . S
H1869 C1881 0.950 . S
H1870 C1878 0.950 . S
H1871 C1880 0.950 . S
H1872 C1882 0.950 . S
H1873 C1884 0.950 . S
H1874 C1886 0.950 . S
H1875 C1887 0.950 . S
C1876 H1868 0.950 . S
C1876 C1877 1.386 . S
C1876 C1878 1.391 . S
C1877 C1876 1.386 . S
C1877 C1881 1.393 . S
C1878 H1870 0.950 . S
C1878 C1876 1.391 . S
C1878 C1879 1.400 . S
C1879 C1878 1.400 . S
C1879 C1880 1.398 . S
C1879 C1885 1.491 . S
C1880 H1871 0.950 . S
C1880 C1879 1.398 . S
C1880 C1881 1.391 . S
C1881 H1869 0.950 . S
C1881 C1877 1.393 . S
C1881 C1880 1.391 . S
C1882 H1872 0.950 . S
C1882 C1883 1.386 . S
C1882 C1884 1.391 . S
C1883 C1882 1.386 . S
C1883 C1887 1.393 . S
C1884 H1873 0.950 . S
C1884 C1882 1.391 . S
C1884 C1885 1.400 . S
C1885 C1879 1.491 . S
C1885 C1884 1.400 . S
C1885 C1886 1.398 . S
C1886 H1874 0.950 . S
C1886 C1885 1.398 . S
C1886 C1887 1.391 . S
C1887 H1875 0.950 . S
C1887 C1883 1.393 . S
C1887 C1886 1.391 . S
H1888 C1896 0.950 . S
H1889 C1901 0.950 . S
H1890 C1898 0.950 . S
H1891 C1900 0.950 . S
H1892 C1902 0.950 . S
H1893 C1904 0.950 . S
H1894 C1906 0.950 . S
H1895 C1907 0.950 . S
C1896 H1888 0.950 . S
C1896 C1897 1.386 . S
C1896 C1898 1.391 . S
C1897 C1896 1.386 . S
C1897 C1901 1.393 . S
C1898 H1890 0.950 . S
C1898 C1896 1.391 . S
C1898 C1899 1.400 . S
C1899 C1898 1.400 . S
C1899 C1900 1.398 . S
C1899 C1905 1.491 . S
C1900 H1891 0.950 . S
C1900 C1899 1.398 . S
C1900 C1901 1.391 . S
C1901 H1889 0.950 . S
C1901 C1897 1.393 . S
C1901 C1900 1.391 . S
C1902 H1892 0.950 . S
C1902 C1903 1.386 . S
C1902 C1904 1.391 . S
C1903 C1902 1.386 . S
C1903 C1907 1.393 . S
C1904 H1893 0.950 . S
C1904 C1902 1.391 . S
C1904 C1905 1.400 . S
C1905 C1899 1.491 . S
C1905 C1904 1.400 . S
C1905 C1906 1.398 . S
C1906 H1894 0.950 . S
C1906 C1905 1.398 . S
C1906 C1907 1.391 . S
C1907 H1895 0.950 . S
C1907 C1903 1.393 . S
C1907 C1906 1.391 . S
C477 C75 1.648 . S
C483 C10 1.645 . S
C497 C43 1.640 . S
C503 C23 1.648 . S
C517 C30 1.640 . S
C523 C62 1.649 . S
C537 C82 1.641 . S
C543 C147 1.649 . S
C557 C101 1.644 . S
C563 C121 1.649 . S
C577 C140 1.643 . S
C583 C114 1.649 . S
C597 C160 1.648 . S
C603 C225 1.645 . S
C617 C173 1.643 . S
C623 C199 1.648 . S
C637 C192 1.645 . S
C643 C218 1.637 . S
C657 C309 1.649 . S
C663 C244 1.642 . S
C677 C257 1.643 . S
C683 C283 1.649 . S
C697 C290 1.637 . S
C703 C264 1.645 . S
C717 C381 1.645 . S
C723 C316 1.637 . S
C737 C355 1.644 . S
C743 C335 1.648 . S
C757 C368 1.638 . S
C763 C348 1.641 . S
C777 C400 1.637 . S
C783 C465 1.645 . S
C797 C413 1.638 . S
C803 C439 1.640 . S
C817 C426 1.647 . S
C823 C446 1.638 . S
C837 C69 1.499 . S
C843 C4 1.499 . S
C857 C17 1.501 . S
C863 C49 1.501 . S
C877 C56 1.502 . S
C883 C36 1.502 . S
C897 C88 1.502 . S
C903 C153 1.501 . S
C917 C95 1.500 . S
C923 C127 1.501 . S
C937 C134 1.502 . S
C943 C108 1.502 . S
C957 C166 1.501 . S
C963 C231 1.500 . S
C977 C205 1.501 . S
C983 C179 1.502 . S
C997 C212 1.502 . S
C1003 C186 1.502 . S
C1017 C238 1.502 . S
C1023 C303 1.501 . S
C1037 C251 1.500 . S
C1043 C277 1.501 . S
C1057 C296 1.499 . S
C1063 C270 1.499 . S
C1077 C387 1.501 . S
C1083 C322 1.502 . S
C1097 C329 1.499 . S
C1103 C361 1.499 . S
C1117 C342 1.502 . S
C1123 C374 1.502 . S
C1137 C459 1.502 . S
C1143 C394 1.501 . S
C1157 C433 1.500 . S
C1163 C407 1.499 . S
C1177 C452 1.500 . S
C1183 C420 1.501 . S
C1197 C211 1.739 . S
C1203 C3 1.740 . S
C1217 C226 1.742 . S
C1223 C16 1.738 . S
C1237 C200 1.742 . S
C1243 C31 1.738 . S
C1257 C44 1.742 . S
C1263 C341 1.740 . S
C1277 C55 1.741 . S
C1283 C317 1.738 . S
C1297 C68 1.740 . S
C1303 C328 1.739 . S
C1317 C83 1.742 . S
C1323 C447 1.739 . S
C1337 C94 1.739 . S
C1343 C458 1.742 . S
C1357 C107 1.742 . S
C1363 C432 1.738 . S
C1377 C122 1.742 . S
C1383 C265 1.738 . S
C1397 C237 1.739 . S
C1403 C133 1.742 . S
C1417 C250 1.739 . S
C1423 C148 1.742 . S
C1437 C369 1.739 . S
C1443 C161 1.740 . S
C1457 C174 1.742 . S
C1463 C382 1.739 . S
C1477 C185 1.740 . S
C1483 C356 1.739 . S
C1497 C276 1.740 . S
C1503 C419 1.739 . S
C1517 C291 1.740 . S
C1523 C393 1.739 . S
C1537 C406 1.739 . S
C1543 C302 1.741 . S
C1557 C5 1.329 . S
C1563 C135 1.320 . S
C1577 C146 1.328 . S
C1583 C18 1.320 . S
C1597 C120 1.327 . S
C1603 C29 1.322 . S
C1617 C42 1.320 . S
C1623 C109 1.329 . S
C1637 C57 1.322 . S
C1643 C81 1.327 . S
C1657 C70 1.324 . S
C1663 C96 1.324 . S
C1677 C159 1.321 . S
C1683 C289 1.328 . S
C1697 C304 1.320 . S
C1703 C172 1.329 . S
C1717 C278 1.320 . S
C1723 C187 1.329 . S
C1737 C198 1.320 . S
C1743 C263 1.329 . S
C1757 C213 1.322 . S
C1763 C239 1.327 . S
C1777 C252 1.328 . S
C1783 C224 1.320 . S
C1797 C315 1.320 . S
C1803 C445 1.329 . S
C1817 C460 1.325 . S
C1823 C330 1.323 . S
C1837 C343 1.322 . S
C1843 C434 1.327 . S
C1857 C354 1.320 . S
C1863 C421 1.329 . S
C1877 C395 1.320 . S
C1883 C367 1.329 . S
C1897 C380 1.324 . S
C1903 C408 1.325 . S
