# Generated by pormake.
# Topology kag, (6)-cn, num edge types: 1
# Building blocks:
#     Node 0, Type 0, BuildingBlock: KUMBOL_clean_sbu_1, # of connection points: 6
#     Node 1, Type 0, BuildingBlock: KUMBOL_clean_sbu_1, # of connection points: 6
#     Node 2, Type 0, BuildingBlock: KUMBOL_clean_sbu_1, # of connection points: 6
#     Edge 3, Type (0, 0), BuildingBlock: TEMPAE_clean_linker_10, # of connection points: 2
#     Edge 4, Type (0, 0), BuildingBlock: TEMPAE_clean_linker_10, # of connection points: 2
#     Edge 5, Type (0, 0), BuildingBlock: TEMPAE_clean_linker_10, # of connection points: 2
#     Edge 6, Type (0, 0), BuildingBlock: TEMPAE_clean_linker_10, # of connection points: 2
#     Edge 7, Type (0, 0), BuildingBlock: TEMPAE_clean_linker_10, # of connection points: 2
#     Edge 8, Type (0, 0), BuildingBlock: TEMPAE_clean_linker_10, # of connection points: 2
#     Edge 9, Type (0, 0), BuildingBlock: TEMPAE_clean_linker_10, # of connection points: 2
#     Edge 10, Type (0, 0), BuildingBlock: TEMPAE_clean_linker_10, # of connection points: 2
#     Edge 11, Type (0, 0), BuildingBlock: TEMPAE_clean_linker_10, # of connection points: 2
# Relax obj value: 0.093
# Max RMSD: 0.181
# Mean RMSD: 0.124
data_MOF--net-kag--node1-KUMBOL_clean_sbu_1--edge1-TEMPAE_clean_linker_10
_symmetry_space_group_name_H-M    P1
_symmetry_Int_Tables_number       1
_symmetry_cell_setting            triclinic
loop_
_symmetry_equiv_pos_as_xyz
'x, y, z'
_cell_length_a     31.153484
_cell_length_b     40.806448
_cell_length_c     15.018766
_cell_angle_alpha  108.04004
_cell_angle_beta   96.767137
_cell_angle_gamma 99.376536
loop_
_atom_site_label
_atom_site_type_symbol
_atom_site_fract_x
_atom_site_fract_y
_atom_site_fract_z
_atom_type_partial_charge
C0 C 0.08778 0.41253 0.78451 0.0
C1 C 0.14401 0.39261 0.86836 0.0
C2 C 0.1097 0.41128 0.86889 0.0
C3 C 0.15729 0.37655 0.78196 0.0
C4 C 0.10017 0.39561 0.69728 0.0
C5 C 0.1356 0.37823 0.6967 0.0
N6 N 0.0528 0.42859 0.78726 0.0
C7 C 1.0271 0.42678 0.70507 0.0
C8 C 0.07567 0.39574 0.61304 0.0
C9 C 1.03862 0.411 0.61695 0.0
Gd10 Gd 0.06212 0.56204 0.05426 0.0
Gd11 Gd 1.03685 0.45515 0.93874 0.0
N12 N 0.09654 0.42759 0.95152 0.0
C13 C 0.16383 0.39066 0.95475 0.0
C14 C 0.11411 0.42429 0.03522 0.0
C15 C 0.14853 0.4063 0.03837 0.0
H16 H 0.10191 0.43609 0.09953 0.0
H17 H 0.16311 0.40437 0.10514 0.0
H18 H 0.05486 0.57884 0.84323 0.0
H19 H 0.99756 0.43749 0.7075 0.0
H20 H 0.99881 0.59043 0.73479 0.0
H21 H 0.19049 0.37674 0.95744 0.0
H22 H 0.18402 0.3625 0.78021 0.0
H23 H 1.03037 0.58296 0.26493 0.0
H24 H 0.08422 0.38318 0.54456 0.0
H25 H 1.01855 0.4102 0.55213 0.0
H26 H 0.88253 0.6127 0.91242 0.0
H27 H 0.14579 0.36527 0.63043 0.0
H28 H 0.90955 0.61936 0.23871 0.0
H29 H 0.96979 0.60683 0.33786 0.0
N30 N 1.0046 0.58243 0.12708 0.0
C31 C 0.973 0.59063 0.07227 0.0
C32 C 1.00438 0.58876 0.22179 0.0
C33 C 0.93627 0.60931 0.20683 0.0
C34 C 0.97019 0.60223 0.26305 0.0
C35 C 0.93731 0.60348 0.11023 0.0
H36 H 0.87607 0.61967 0.07855 0.0
N37 N 1.01366 0.57704 0.94645 0.0
C38 C 0.97696 0.5868 0.97858 0.0
C39 C 0.95193 0.59518 0.83011 0.0
C40 C 0.94484 0.59566 0.92068 0.0
C41 C 1.02301 0.58092 0.86307 0.0
C42 C 0.99173 0.58868 0.80224 0.0
O43 O 0.11139 0.48088 0.97531 0.0
O44 O 0.12593 0.54249 0.0301 0.0
O45 O 0.09275 0.61428 0.05565 0.0
O46 O 0.09757 0.60217 0.1857 0.0
O47 O 1.04187 0.4776 0.09845 0.0
O48 O 0.08392 0.53495 0.1557 0.0
O49 O 0.99759 0.52768 0.06743 0.0
O50 O 0.98078 0.48353 0.92413 0.0
O51 O 1.001 0.42296 0.00921 0.0
O52 O 0.99139 0.40592 0.85578 0.0
O53 O 0.07877 0.53774 0.90903 0.0
O54 O 1.0213 0.49062 0.85691 0.0
C55 C 0.13907 0.51213 0.00431 0.0
C56 C 0.06588 0.50548 0.16761 0.0
C57 C 0.15932 0.64053 0.16812 0.0
C58 C 0.22185 0.68176 0.1516 0.0
C59 C 0.23361 0.64509 0.24873 0.0
C60 C 0.1885 0.63 0.22754 0.0
C61 C 0.2503 0.67068 0.21079 0.0
C62 C 0.17625 0.66665 0.13102 0.0
C63 C 0.11138 0.62462 0.1447 0.0
C64 C 0.90778 0.60632 0.95642 0.0
C65 C 0.90417 0.61043 0.05115 0.0
H66 H 0.92805 0.60174 0.78345 0.0
C67 C 0.96762 0.504 0.99754 0.0
C68 C 0.05379 0.51098 0.83956 0.0
C69 C 0.98783 0.36166 0.92636 0.0
C70 C 0.96117 0.30702 0.95569 0.0
C71 C 1.02759 0.31402 0.88773 0.0
C72 C 1.02254 0.34741 0.88893 0.0
C73 C 0.99721 0.29392 0.92119 0.0
C74 C 0.9568 0.34117 0.9589 0.0
C75 C 0.98341 0.39744 0.92974 0.0
H76 H 0.25579 0.63676 0.29435 0.0
H77 H 0.17665 0.60998 0.25742 0.0
H78 H 0.28544 0.68204 0.22846 0.0
H79 H 0.15401 0.67477 0.08479 0.0
H80 H 0.05465 0.30343 0.85902 0.0
H81 H 0.04531 0.36167 0.85888 0.0
H82 H 1.00101 0.26758 0.9169 0.0
H83 H 0.92925 0.3516 0.98585 0.0
C84 C 0.63339 0.98154 0.15853 0.0
C85 C 0.65978 0.93494 0.04883 0.0
C86 C 0.63588 0.96209 0.06608 0.0
C87 C 0.6803 0.9271 0.1259 0.0
C88 C 0.65469 0.97423 0.23619 0.0
C89 C 0.67767 0.94663 0.21932 0.0
N90 N 0.61119 0.0082 0.17259 0.0
C91 C 0.61096 0.02981 0.26229 0.0
C92 C 0.6529 0.99531 0.32852 0.0
C93 C 0.63133 0.02346 0.34155 0.0
Gd94 Gd 0.44319 0.99091 0.94782 0.0
Gd95 Gd 0.57697 0.01586 0.03513 0.0
N96 N 0.61475 0.96972 0.99285 0.0
C97 C 0.66251 0.91665 0.95461 0.0
C98 C 0.6189 0.95312 0.90113 0.0
C99 C 0.64237 0.92604 0.88056 0.0
H100 H 0.60356 0.96046 0.84392 0.0
H101 H 0.64497 0.91245 0.8077 0.0
H102 H 0.4085 0.99328 0.15743 0.0
H103 H 0.59523 0.05211 0.2727 0.0
H104 H 0.3922 0.03753 0.29533 0.0
H105 H 0.68058 0.89561 0.93839 0.0
H106 H 0.69854 0.90614 0.11408 0.0
H107 H 0.42307 0.01947 0.76323 0.0
H108 H 0.66884 0.99056 0.39011 0.0
H109 H 0.6307 0.04047 0.41253 0.0
H110 H 0.38877 0.1382 0.19623 0.0
H111 H 0.69403 0.94049 0.27808 0.0
H112 H 0.39739 0.12331 0.86994 0.0
H113 H 0.40728 0.07338 0.73544 0.0
N114 N 0.42204 0.03891 0.91154 0.0
C115 C 0.41386 0.06503 0.98486 0.0
C116 C 0.41759 0.04082 0.8216 0.0
C117 C 0.40369 0.09956 0.88212 0.0
C118 C 0.40912 0.0714 0.80595 0.0
C119 C 0.40521 0.09637 0.97258 0.0
H120 H 0.39164 0.14765 0.04275 0.0
N121 N 0.4196 0.0286 0.0791 0.0
C122 C 0.41322 0.05991 0.07165 0.0
C123 C 0.3968 0.07802 0.2308 0.0
C124 C 0.40257 0.08575 0.14798 0.0
C125 C 0.40902 0.0196 0.15557 0.0
C126 C 0.39887 0.04444 0.23357 0.0
O127 O 0.54757 0.9569 0.99292 0.0
O128 O 0.47014 0.94387 0.96058 0.0
O129 O 0.37705 0.96206 0.94393 0.0
O130 O 0.39823 0.96369 0.8142 0.0
O131 O 0.55298 0.00533 0.87765 0.0
O132 O 0.48252 0.96962 0.83382 0.0
O133 O 0.48881 0.03781 0.93233 0.0
O134 O 0.53553 0.05682 0.07284 0.0
O135 O 0.61308 0.04673 0.96253 0.0
O136 O 0.63766 0.05378 0.10966 0.0
O137 O 0.47055 0.98232 0.08407 0.0
O138 O 0.52991 0.02844 0.13804 0.0
C139 C 0.50877 0.93485 0.97252 0.0
C140 C 0.51865 0.98495 0.81272 0.0
C141 C 0.35516 0.90977 0.80759 0.0
C142 C 0.33047 0.85126 0.81896 0.0
C143 C 0.34784 0.85713 0.67011 0.0
C144 C 0.35778 0.8937 0.71148 0.0
C145 C 0.33463 0.83602 0.72336 0.0
C146 C 0.34093 0.88833 0.8607 0.0
C147 C 0.36887 0.94864 0.85153 0.0
C148 C 0.39621 0.11781 0.13781 0.0
C149 C 0.39765 0.12315 0.05031 0.0
H150 H 0.38859 0.09713 0.29103 0.0
C151 C 0.51457 0.06385 0.0027 0.0
C152 C 0.50299 0.00307 0.15221 0.0
C153 C 0.69018 0.06404 0.01588 0.0
C154 C 0.7575 0.09854 0.99539 0.0
C155 C 0.75339 0.03738 0.98495 0.0
C156 C 0.7102 0.03491 0.00251 0.0
C157 C 0.77701 0.06898 0.98138 0.0
C158 C 0.71385 0.09573 0.01224 0.0
C159 C 0.64504 0.06228 0.03542 0.0
H160 H 0.3507 0.84506 0.59654 0.0
H161 H 0.3682 0.90941 0.66838 0.0
H162 H 0.32811 0.80767 0.68965 0.0
H163 H 0.33776 0.90048 0.93408 0.0
H164 H 0.76875 0.01484 0.97487 0.0
H165 H 0.69274 0.01042 0.00631 0.0
H166 H 0.81076 0.07047 0.96935 0.0
H167 H 0.69815 0.11815 0.02216 0.0
C168 C 0.65652 0.5931 0.21168 0.0
C169 C 0.71724 0.60784 0.13431 0.0
C170 C 0.67232 0.59374 0.12994 0.0
C171 C 0.74693 0.61771 0.22067 0.0
C172 C 0.68556 0.60564 0.3001 0.0
C173 C 0.73113 0.61643 0.30347 0.0
N174 N 0.61215 0.584 0.20608 0.0
C175 C 0.59436 0.59086 0.2872 0.0
C176 C 0.66764 0.60886 0.38284 0.0
C177 C 0.62175 0.60224 0.3765 0.0
Gd178 Gd 0.53298 0.45221 0.96848 0.0
Gd179 Gd 0.56945 0.56007 0.05108 0.0
N180 N 0.64279 0.58382 0.04769 0.0
C181 C 0.73031 0.61355 0.05329 0.0
C182 C 0.65448 0.59178 0.97083 0.0
C183 C 0.69851 0.60649 0.9721 0.0
H184 H 0.62991 0.58599 0.90809 0.0
H185 H 0.70797 0.6119 0.91016 0.0
H186 H 0.52895 0.44213 0.18311 0.0
H187 H 0.5589 0.5867 0.28306 0.0
H188 H 0.47252 0.43102 0.27798 0.0
H189 H 0.76444 0.62464 0.05392 0.0
H190 H 0.78179 0.62785 0.22508 0.0
H191 H 0.47912 0.43387 0.74755 0.0
H192 H 0.68879 0.6182 0.45215 0.0
H193 H 0.60746 0.60617 0.44034 0.0
H194 H 0.33523 0.40485 0.06371 0.0
H195 H 0.75406 0.6256 0.3705 0.0
H196 H 0.34064 0.40223 0.7442 0.0
H197 H 0.40187 0.41406 0.65981 0.0
N198 N 0.46109 0.43456 0.87995 0.0
C199 C 0.42821 0.42669 0.92692 0.0
C200 C 0.45241 0.42902 0.78461 0.0
C201 C 0.37436 0.41101 0.78287 0.0
C202 C 0.40884 0.41773 0.73499 0.0
C203 C 0.38384 0.41507 0.87968 0.0
H204 H 0.31634 0.39799 0.89446 0.0
N205 N 0.48245 0.44107 0.06596 0.0
C206 C 0.43913 0.43062 0.02281 0.0
C207 C 0.41789 0.4239 0.16696 0.0
C208 C 0.40567 0.42221 0.07273 0.0
C209 C 0.4946 0.43905 0.15416 0.0
C210 C 0.46261 0.43159 0.20708 0.0
O211 O 0.62122 0.52851 0.99246 0.0
O212 O 0.60769 0.47492 0.01972 0.0
O213 O 0.52903 0.40107 0.98823 0.0
O214 O 0.54649 0.40735 0.85937 0.0
O215 O 0.54325 0.52895 0.89542 0.0
O216 O 0.55659 0.47199 0.85419 0.0
O217 O 0.48411 0.48741 0.94534 0.0
O218 O 0.50086 0.53841 0.07378 0.0
O219 O 0.54119 0.58809 0.96453 0.0
O220 O 0.56672 0.61554 0.11302 0.0
O221 O 0.5719 0.48193 0.1161 0.0
O222 O 0.54303 0.53139 0.14631 0.0
C223 C 0.63473 0.50071 0.0049 0.0
C224 C 0.55291 0.50106 0.83518 0.0
C225 C 0.57148 0.36172 0.90825 0.0
C226 C 0.58643 0.3056 0.923 0.0
C227 C 0.64124 0.34535 0.87935 0.0
C228 C 0.61348 0.36919 0.88541 0.0
C229 C 0.62781 0.31383 0.89652 0.0
C230 C 0.55826 0.33004 0.92804 0.0
C231 C 0.54054 0.38594 0.90792 0.0
C232 C 0.36133 0.41125 0.0263 0.0
C233 C 0.35052 0.40747 0.92996 0.0
H234 H 0.3932 0.41776 0.20778 0.0
C235 C 0.47127 0.5122 0.0105 0.0
C236 C 0.56301 0.50987 0.17618 0.0
C237 C 0.51173 0.63764 0.0393 0.0
C238 C 0.48468 0.69074 0.0348 0.0
C239 C 0.43619 0.64152 0.0569 0.0
C240 C 0.47015 0.6229 0.05265 0.0
C241 C 0.44329 0.67504 0.04823 0.0
C242 C 0.51886 0.67151 0.02995 0.0
C243 C 0.54773 0.61785 0.03405 0.0
H244 H 0.6733 0.35111 0.85996 0.0
H245 H 0.62469 0.39327 0.87084 0.0
H246 H 0.65001 0.29572 0.88732 0.0
H247 H 0.52614 0.32472 0.94755 0.0
H248 H 0.40408 0.62986 0.06676 0.0
H249 H 0.46395 0.59697 0.05952 0.0
H250 H 0.41602 0.6885 0.05085 0.0
H251 H 0.55111 0.68298 0.02015 0.0
C252 C 1.01999 0.50534 0.67538 0.0
C253 C 0.0575 0.50814 0.74068 0.0
C254 C 1.02326 0.50396 0.58194 0.0
C255 C 0.06483 0.50413 0.55234 0.0
C256 C 0.10258 0.50575 0.61757 0.0
C257 C 0.09859 0.50844 0.71171 0.0
C258 C 0.98244 0.50321 0.51566 0.0
C259 C 0.1471 0.50467 0.58796 0.0
C260 C 0.05967 0.47272 0.28389 0.0
C261 C 0.06961 0.50475 0.26653 0.0
C262 C 0.05996 0.47201 0.37697 0.0
C263 C 0.06893 0.50412 0.45435 0.0
C264 C 0.07976 0.53649 0.43747 0.0
C265 C 0.0808 0.53637 0.34417 0.0
C266 C 0.04958 0.43689 0.39209 0.0
C267 C 0.08859 0.57136 0.51757 0.0
H268 H 0.98826 0.50521 0.69837 0.0
H269 H 0.12744 0.51018 0.76239 0.0
H270 H 0.98805 0.52619 0.49062 0.0
H271 H 0.97544 0.47909 0.45195 0.0
H272 H 0.95283 0.50381 0.55031 0.0
H273 H 0.17244 0.50381 0.64534 0.0
H274 H 0.14431 0.48118 0.52402 0.0
H275 H 0.15869 0.52827 0.56844 0.0
H276 H 0.05136 0.44811 0.22464 0.0
H277 H 0.08892 0.56127 0.33195 0.0
H278 H 1.01639 0.43304 0.4118 0.0
H279 H 0.07386 0.43616 0.45141 0.0
H280 H 0.04976 0.41454 0.32717 0.0
H281 H 0.05907 0.57375 0.55198 0.0
H282 H 0.09667 0.5942 0.49261 0.0
H283 H 0.11643 0.57276 0.57284 0.0
C284 C 0.50958 0.02788 0.32928 0.0
C285 C 0.507 0.99896 0.2473 0.0
C286 C 0.51268 0.02406 0.41977 0.0
C287 C 0.51467 0.99071 0.42891 0.0
C288 C 0.51336 0.96164 0.34606 0.0
C289 C 0.50865 0.96599 0.25619 0.0
C290 C 0.51299 0.0556 0.50542 0.0
C291 C 0.51701 0.92595 0.35221 0.0
C292 C 0.55779 0.99247 0.68023 0.0
C293 C 0.51849 0.98258 0.71139 0.0
C294 C 0.55727 0.99373 0.58732 0.0
C295 C 0.51637 0.98609 0.52461 0.0
C296 C 0.4767 0.97546 0.55515 0.0
C297 C 0.4783 0.97326 0.64715 0.0
C298 C 0.60052 0.00413 0.55734 0.0
C299 C 0.43225 0.96778 0.49199 0.0
H300 H 0.50819 0.05336 0.32225 0.0
H301 H 0.50713 0.9437 0.19278 0.0
H302 H 0.48526 0.04957 0.54186 0.0
H303 H 0.5441 0.06175 0.55722 0.0
H304 H 0.50998 0.0794 0.48607 0.0
H305 H 0.51941 0.90699 0.28253 0.0
H306 H 0.54659 0.92854 0.40493 0.0
H307 H 0.48767 0.91487 0.37708 0.0
H308 H 0.58906 0.99959 0.72881 0.0
H309 H 0.44765 0.9656 0.66996 0.0
H310 H 0.6041 0.03135 0.55525 0.0
H311 H 0.60122 0.98642 0.48488 0.0
H312 H 0.62933 0.00333 0.60722 0.0
H313 H 0.42731 0.99166 0.47502 0.0
H314 H 0.40447 0.95951 0.52578 0.0
H315 H 0.43096 0.94665 0.42364 0.0
C316 C 0.56643 0.53467 0.72455 0.0
C317 C 0.5567 0.50205 0.73874 0.0
C318 C 0.57049 0.53668 0.63445 0.0
C319 C 0.56239 0.50526 0.55543 0.0
C320 C 0.55213 0.47216 0.56876 0.0
C321 C 0.55029 0.47094 0.66074 0.0
C322 C 0.58327 0.57245 0.62388 0.0
C323 C 0.54139 0.4381 0.48559 0.0
C324 C 0.52662 0.5152 0.31674 0.0
C325 C 0.56421 0.51117 0.27526 0.0
C326 C 0.52511 0.51215 0.40673 0.0
C327 C 0.56314 0.50728 0.45858 0.0
C328 C 0.60201 0.50507 0.41865 0.0
C329 C 0.60167 0.50609 0.32606 0.0
C330 C 0.48242 0.51307 0.44488 0.0
C331 C 0.64385 0.50164 0.47368 0.0
H332 H 0.57114 0.55885 0.78409 0.0
H333 H 0.54259 0.44564 0.67098 0.0
H334 H 0.61141 0.5731 0.58501 0.0
H335 H 0.55521 0.57768 0.58144 0.0
H336 H 0.59276 0.59405 0.69375 0.0
H337 H 0.53822 0.4146 0.50877 0.0
H338 H 0.50965 0.43649 0.44071 0.0
H339 H 0.56712 0.43722 0.44031 0.0
H340 H 0.49752 0.51872 0.27641 0.0
H341 H 0.63078 0.50332 0.29361 0.0
H342 H 0.4872 0.53609 0.51083 0.0
H343 H 0.47229 0.48903 0.46361 0.0
H344 H 0.4551 0.51466 0.39271 0.0
H345 H 0.6533 0.52336 0.5432 0.0
H346 H 0.67188 0.5023 0.43444 0.0
H347 H 0.63821 0.4765 0.48883 0.0
C348 C 0.22088 0.5438 0.05552 0.0
C349 C 0.18823 0.51327 0.00404 0.0
C350 C 0.26676 0.54469 0.05509 0.0
C351 C 0.28136 0.51412 0.00365 0.0
C352 C 0.24842 0.48365 0.94977 0.0
C353 C 0.20303 0.4839 0.95001 0.0
C354 C 0.29962 0.57858 0.11007 0.0
C355 C 0.26017 0.44987 0.89277 0.0
C356 C 0.39753 0.5187 0.93341 0.0
C357 C 0.42286 0.51266 0.00826 0.0
C358 C 0.35224 0.52023 0.93241 0.0
C359 C 0.33058 0.51406 0.00588 0.0
C360 C 0.35603 0.50703 0.08028 0.0
C361 C 0.40179 0.50747 0.08201 0.0
C362 C 0.32738 0.52833 0.85217 0.0
C363 C 0.33461 0.49805 0.15705 0.0
H364 H 0.21067 0.56717 0.09661 0.0
H365 H 0.17901 0.46096 0.90555 0.0
H366 H 0.31568 0.57661 0.17763 0.0
H367 H 0.32594 0.58352 0.06915 0.0
H368 H 0.28352 0.60155 0.1275 0.0
H369 H 0.23563 0.43637 0.82597 0.0
H370 H 0.29349 0.4539 0.87399 0.0
H371 H 0.25897 0.43195 0.93536 0.0
H372 H 0.41344 0.52297 0.87635 0.0
H373 H 0.42095 0.50272 0.14012 0.0
H374 H 0.31098 0.55056 0.8813 0.0
H375 H 0.30109 0.50508 0.8091 0.0
H376 H 0.34934 0.53528 0.80467 0.0
H377 H 0.32146 0.52065 0.19817 0.0
H378 H 0.35804 0.4913 0.20695 0.0
H379 H 0.30624 0.4753 0.12414 0.0
C380 C 0.80886 0.13252 0.92374 0.0
C381 C 0.7829 0.13234 0.99374 0.0
C382 C 0.83466 0.164 0.92363 0.0
C383 C 0.83454 0.19611 0.9954 0.0
C384 C 0.8075 0.19629 0.06482 0.0
C385 C 0.78197 0.16434 0.0632 0.0
C386 C 0.86281 0.16278 0.84781 0.0
C387 C 0.80656 0.23001 0.14233 0.0
C388 C 0.93962 0.26415 0.03836 0.0
C389 C 0.927 0.28362 0.98136 0.0
C390 C 0.90899 0.23695 0.04858 0.0
C391 C 0.86479 0.22895 1.00005 0.0
C392 C 0.85117 0.25012 0.94771 0.0
C393 C 0.88254 0.27735 0.93915 0.0
C394 C 0.92467 0.21529 0.10614 0.0
C395 C 0.8043 0.24245 0.89523 0.0
H396 H 0.80905 0.10793 0.86898 0.0
H397 H 0.76221 0.1643 0.11795 0.0
H398 H 0.85531 0.1812 0.81009 0.0
H399 H 0.8983 0.17143 0.88131 0.0
H400 H 0.85757 0.13593 0.79461 0.0
H401 H 0.78107 0.22608 0.18608 0.0
H402 H 0.83934 0.24039 0.18977 0.0
H403 H 0.79993 0.25041 0.11111 0.0
H404 H 0.97397 0.2693 0.07184 0.0
H405 H 0.87282 0.29227 0.89455 0.0
H406 H 0.92474 0.18853 0.05767 0.0
H407 H 0.90189 0.21216 0.15579 0.0
H408 H 0.95858 0.22734 0.14787 0.0
H409 H 0.79841 0.21782 0.83319 0.0
H410 H 0.79758 0.26409 0.86905 0.0
H411 H 0.78032 0.23824 0.94173 0.0
C412 C 0.47231 0.87035 0.92234 0.0
C413 C 0.50798 0.89829 0.97438 0.0
C414 C 0.46975 0.83633 0.92897 0.0
C415 C 0.5032 0.82998 0.99049 0.0
C416 C 0.53917 0.85814 0.0433 0.0
C417 C 0.54114 0.89171 0.03437 0.0
C418 C 0.43069 0.8073 0.87152 0.0
C419 C 0.57512 0.85308 0.11138 0.0
C420 C 0.47268 0.75324 0.08277 0.0
C421 C 0.49135 0.72687 0.02568 0.0
C422 C 0.47649 0.7867 0.07233 0.0
C423 C 0.49954 0.79443 0.00292 0.0
C424 C 0.5189 0.76816 0.94567 0.0
C425 C 0.51473 0.73486 0.95789 0.0
C426 C 0.45588 0.8139 0.13606 0.0
C427 C 0.54342 0.77504 0.87025 0.0
H428 H 0.44618 0.87512 0.87657 0.0
H429 H 0.56777 0.91323 0.07792 0.0
H430 H 0.44213 0.78354 0.83142 0.0
H431 H 0.40993 0.79965 0.91997 0.0
H432 H 0.40984 0.81541 0.82034 0.0
H433 H 0.60048 0.87769 0.14834 0.0
H434 H 0.56053 0.84403 0.1658 0.0
H435 H 0.59166 0.83236 0.07236 0.0
H436 H 0.45514 0.74778 0.13648 0.0
H437 H 0.52887 0.71475 0.91252 0.0
H438 H 0.43291 0.82341 0.09243 0.0
H439 H 0.482 0.83705 0.18048 0.0
H440 H 0.43745 0.8034 0.18379 0.0
H441 H 0.5209 0.78127 0.8177 0.0
H442 H 0.55692 0.75212 0.83199 0.0
H443 H 0.57111 0.79829 0.90297 0.0
C444 C 0.8862 0.47992 0.91941 0.0
C445 C 0.91834 0.50082 0.99987 0.0
C446 C 0.84013 0.47744 0.91947 0.0
C447 C 0.82479 0.49702 0.00109 0.0
C448 C 0.85703 0.51771 0.08292 0.0
C449 C 0.90278 0.51862 0.08192 0.0
C450 C 0.80774 0.45395 0.83127 0.0
C451 C 0.84336 0.53999 0.17112 0.0
C452 C 0.70975 0.51999 0.9631 0.0
C453 C 0.6829 0.49836 1.0009 0.0
C454 C 0.75538 0.52017 0.96395 0.0
C455 C 0.77549 0.49685 0.99967 0.0
C456 C 0.74814 0.47353 0.03363 0.0
C457 C 0.70276 0.47481 0.03485 0.0
C458 C 0.78236 0.54616 0.92854 0.0
C459 C 0.76688 0.44709 0.06898 0.0
H460 H 0.89702 0.46543 0.85551 0.0
H461 H 0.92652 0.53361 0.14589 0.0
H462 H 0.78259 0.43581 0.84997 0.0
H463 H 0.78994 0.47021 0.79943 0.0
H464 H 0.82425 0.43804 0.77681 0.0
H465 H 0.87121 0.55106 0.23256 0.0
H466 H 0.83107 0.56215 0.15621 0.0
H467 H 0.81595 0.52443 0.19139 0.0
H468 H 0.69493 0.53675 0.93147 0.0
H469 H 0.68287 0.45735 0.06298 0.0
H470 H 0.80247 0.53295 0.87797 0.0
H471 H 0.80563 0.56643 0.98977 0.0
H472 H 0.76139 0.55962 0.89283 0.0
H473 H 0.78309 0.43106 0.01419 0.0
H474 H 0.74109 0.42911 0.0867 0.0
H475 H 0.79258 0.46107 0.13346 0.0
C476 C 0.2186 0.73658 0.11116 0.0
C477 C 0.23982 0.70876 0.11054 0.0
C478 C 0.23459 0.76175 0.07044 0.0
C479 C 0.27242 0.75878 0.02712 0.0
C480 C 0.29449 0.73111 0.0278 0.0
C481 C 0.27802 0.70652 0.06991 0.0
C482 C 0.21052 0.79114 0.0722 0.0
C483 C 0.3349 0.72704 0.98219 0.0
C484 C 0.28238 0.79744 0.82928 0.0
C485 C 0.31514 0.82825 0.87405 0.0
C486 C 0.26853 0.7746 0.87822 0.0
C487 C 0.28707 0.78308 0.97524 0.0
C488 C 0.31954 0.81442 0.02172 0.0
C489 C 0.33347 0.83651 0.97038 0.0
C490 C 0.23424 0.74118 0.82569 0.0
C491 C 0.33926 0.82472 0.12574 0.0
H492 H 0.18949 0.73873 0.14384 0.0
H493 H 0.29441 0.68495 0.06881 0.0
H494 H 0.234 0.81704 0.10237 0.0
H495 H 0.1959 0.78834 0.99853 0.0
H496 H 0.18362 0.79123 0.11467 0.0
H497 H 0.34701 0.7032 0.98513 0.0
H498 H 0.32732 0.72528 0.90656 0.0
H499 H 0.36194 0.75053 0.01864 0.0
H500 H 0.26728 0.79113 0.75559 0.0
H501 H 0.35924 0.85994 0.0054 0.0
H502 H 0.20468 0.74106 0.86025 0.0
H503 H 0.2477 0.71793 0.82887 0.0
H504 H 0.22367 0.73814 0.74978 0.0
H505 H 0.31295 0.82907 0.16919 0.0
H506 H 0.36556 0.84912 0.15041 0.0
H507 H 0.35335 0.80308 0.13925 0.0
C508 C 0.52912 0.2532 0.92488 0.0
C509 C 0.57348 0.2714 0.94311 0.0
C510 C 0.51761 0.22029 0.93866 0.0
C511 C 0.55116 0.20428 0.9687 0.0
C512 C 0.59577 0.22258 0.9884 0.0
C513 C 0.60616 0.25593 0.97764 0.0
C514 C 0.46947 0.20237 0.91959 0.0
C515 C 0.63292 0.20655 0.01884 0.0
C516 C 0.52816 0.13001 0.07446 0.0
C517 C 0.52424 0.09978 0.995 0.0
C518 C 0.53517 0.16398 0.0663 0.0
C519 C 0.54008 0.16808 0.97723 0.0
C520 C 0.53636 0.13745 0.89695 0.0
C521 C 0.52771 0.1038 0.90649 0.0
C522 C 0.53695 0.19552 0.15297 0.0
C523 C 0.54244 0.14019 0.80109 0.0
H524 H 0.50319 0.26417 0.89777 0.0
H525 H 0.64042 0.26974 0.99609 0.0
H526 H 0.46261 0.1784 0.85546 0.0
H527 H 0.46144 0.19376 0.98004 0.0
H528 H 0.44715 0.21985 0.90793 0.0
H529 H 0.66602 0.22354 0.02854 0.0
H530 H 0.62912 0.20196 0.08676 0.0
H531 H 0.6316 0.18054 0.96474 0.0
H532 H 0.52456 0.12699 0.14259 0.0
H533 H 0.52455 0.0805 0.84469 0.0
H534 H 0.51292 0.21112 0.13689 0.0
H535 H 0.57028 0.21298 0.17274 0.0
H536 H 0.52943 0.18782 0.21513 0.0
H537 H 0.51761 0.15362 0.77667 0.0
H538 H 0.53919 0.11397 0.74609 0.0
H539 H 0.57561 0.1564 0.80707 0.0
loop_
_geom_bond_atom_site_label_1
_geom_bond_atom_site_label_2
_geom_bond_distance
_geom_bond_site_symmetry_2
_ccdc_geom_bond_type
C0 C2 1.422 . S
C0 C4 1.415 . S
C0 N6 1.369 . S
C1 C2 1.421 . S
C1 C3 1.417 . S
C1 C13 1.422 1_556 S
C2 C0 1.422 . S
C2 C1 1.421 . S
C2 N12 1.359 . S
C3 C1 1.417 . S
C3 C5 1.329 . S
C3 H22 0.930 . S
C4 C0 1.415 . S
C4 C5 1.437 . S
C4 C8 1.413 . S
C5 C3 1.329 . S
C5 C4 1.437 . S
C5 H27 0.929 . S
N6 C0 1.369 . S
N6 C7 1.338 1_455 S
N6 Gd11 2.622 1_455 S
C7 N6 1.338 1_655 S
C7 C9 1.378 1_655 S
C7 H19 0.929 . S
C8 C4 1.413 . S
C8 C9 1.348 . S
C8 H24 0.931 . S
C9 C7 1.378 1_455 S
C9 C8 1.348 . S
C9 H25 0.930 . S
Gd10 N30 2.622 1_455 S
Gd10 N37 2.570 1_455 S
Gd10 O44 2.353 . S
Gd10 O45 2.468 1_554 S
Gd10 O46 2.427 . S
Gd10 O48 2.388 . S
Gd10 O49 2.386 1_455 S
Gd10 O53 2.307 1_454 S
Gd10 C63 2.805 . S
Gd11 N6 2.622 1_655 S
Gd11 N12 2.570 1_655 S
Gd11 O43 2.386 1_655 S
Gd11 O47 2.307 1_656 S
Gd11 O50 2.353 . S
Gd11 O51 2.468 1_556 S
Gd11 O52 2.427 . S
Gd11 O54 2.388 . S
Gd11 C75 2.805 . S
N12 C2 1.359 . S
N12 Gd11 2.570 1_455 S
N12 C14 1.343 1_556 S
C13 C1 1.422 1_554 S
C13 C15 1.321 . S
C13 H21 0.931 . S
C14 N12 1.343 1_554 S
C14 C15 1.390 . S
C14 H16 0.931 . S
C15 C13 1.321 . S
C15 C14 1.390 . S
C15 H17 0.930 . S
H16 C14 0.931 . S
H17 C15 0.930 . S
H18 C41 0.931 . S
H19 C7 0.929 . S
H20 C42 0.930 . S
H21 C13 0.931 . S
H22 C3 0.930 . S
H23 C32 0.929 . S
H24 C8 0.931 . S
H25 C9 0.930 . S
H26 C64 0.930 . S
H27 C5 0.929 . S
H28 C33 0.931 . S
H29 C34 0.930 . S
N30 Gd10 2.622 1_655 S
N30 C31 1.369 . S
N30 C32 1.338 1_655 S
C31 N30 1.369 . S
C31 C35 1.415 . S
C31 C38 1.422 . S
C32 H23 0.929 . S
C32 N30 1.338 1_455 S
C32 C34 1.378 1_455 S
C33 H28 0.931 . S
C33 C34 1.348 . S
C33 C35 1.413 . S
C34 H29 0.930 . S
C34 C32 1.378 1_655 S
C34 C33 1.348 . S
C35 C31 1.415 . S
C35 C33 1.413 . S
C35 C65 1.437 . S
H36 C65 0.929 . S
N37 Gd10 2.570 1_655 S
N37 C38 1.359 . S
N37 C41 1.343 1_554 S
C38 C31 1.422 . S
C38 N37 1.359 . S
C38 C40 1.421 . S
C39 C40 1.422 1_556 S
C39 C42 1.321 . S
C39 H66 0.931 . S
C40 C38 1.421 . S
C40 C39 1.422 1_554 S
C40 C64 1.417 . S
C41 H18 0.931 . S
C41 N37 1.343 1_556 S
C41 C42 1.390 . S
C42 H20 0.930 . S
C42 C39 1.321 . S
C42 C41 1.390 . S
O43 Gd11 2.386 1_455 S
O43 C55 1.265 1_556 S
O44 Gd10 2.353 . S
O44 C55 1.242 . S
O45 Gd10 2.468 1_556 S
O45 C63 1.263 1_556 S
O46 Gd10 2.427 . S
O46 C63 1.252 . S
O47 Gd11 2.307 1_454 S
O47 C56 1.261 . S
O48 Gd10 2.388 . S
O48 C56 1.252 . S
O49 Gd10 2.386 1_655 S
O49 C67 1.265 1_554 S
O50 Gd11 2.353 . S
O50 C67 1.242 . S
O51 Gd11 2.468 1_554 S
O51 C75 1.263 1_554 S
O52 Gd11 2.427 . S
O52 C75 1.252 . S
O53 Gd10 2.307 1_656 S
O53 C68 1.261 . S
O54 Gd11 2.388 . S
O54 C68 1.252 . S
C55 O43 1.265 1_554 S
C55 O44 1.242 . S
C56 O47 1.261 . S
C56 O48 1.252 . S
C57 C60 1.394 . S
C57 C62 1.370 . S
C57 C63 1.500 . S
C58 C61 1.383 . S
C58 C62 1.395 . S
C59 C60 1.396 . S
C59 C61 1.365 . S
C59 H76 0.929 . S
C60 C57 1.394 . S
C60 C59 1.396 . S
C60 H77 0.930 . S
C61 C58 1.383 . S
C61 C59 1.365 . S
C61 H78 0.931 . S
C62 C57 1.370 . S
C62 C58 1.395 . S
C62 H79 0.930 1_554 S
C63 Gd10 2.805 . S
C63 O45 1.263 1_554 S
C63 O46 1.252 . S
C63 C57 1.500 . S
C64 H26 0.930 . S
C64 C40 1.417 . S
C64 C65 1.329 . S
C65 C35 1.437 . S
C65 H36 0.929 . S
C65 C64 1.329 . S
H66 C39 0.931 . S
C67 O49 1.265 1_556 S
C67 O50 1.242 . S
C68 O53 1.261 . S
C68 O54 1.252 . S
C69 C72 1.394 . S
C69 C74 1.370 . S
C69 C75 1.500 . S
C70 C73 1.383 . S
C70 C74 1.395 . S
C71 C72 1.396 . S
C71 C73 1.365 . S
C71 H80 0.929 . S
C72 C69 1.394 . S
C72 C71 1.396 . S
C72 H81 0.930 . S
C73 C70 1.383 . S
C73 C71 1.365 . S
C73 H82 0.931 . S
C74 C69 1.370 . S
C74 C70 1.395 . S
C74 H83 0.930 1_556 S
C75 Gd11 2.805 . S
C75 O51 1.263 1_556 S
C75 O52 1.252 . S
C75 C69 1.500 . S
H76 C59 0.929 . S
H77 C60 0.930 . S
H78 C61 0.931 . S
H79 C62 0.930 1_556 S
H80 C71 0.929 . S
H81 C72 0.930 . S
H82 C73 0.931 . S
H83 C74 0.930 1_554 S
C84 C86 1.422 . S
C84 C88 1.415 . S
C84 N90 1.369 1_565 S
C85 C86 1.421 1_556 S
C85 C87 1.417 1_556 S
C85 C97 1.422 . S
C86 C84 1.422 . S
C86 C85 1.421 1_554 S
C86 N96 1.359 1_554 S
C87 C85 1.417 1_554 S
C87 C89 1.329 . S
C87 H106 0.930 . S
C88 C84 1.415 . S
C88 C89 1.437 . S
C88 C92 1.413 . S
C89 C87 1.329 . S
C89 C88 1.437 . S
C89 H111 0.929 . S
N90 C84 1.369 1_545 S
N90 C91 1.338 . S
N90 Gd95 2.622 . S
C91 N90 1.338 . S
C91 C93 1.378 . S
C91 H103 0.929 . S
C92 C88 1.413 . S
C92 C93 1.348 1_565 S
C92 H108 0.931 . S
C93 C91 1.378 . S
C93 C92 1.348 1_545 S
C93 H109 0.930 . S
Gd94 N114 2.622 . S
Gd94 N121 2.570 1_566 S
Gd94 O128 2.353 . S
Gd94 O129 2.468 1_556 S
Gd94 O130 2.427 . S
Gd94 O132 2.388 . S
Gd94 O133 2.386 1_565 S
Gd94 O137 2.307 1_566 S
Gd94 C147 2.805 . S
Gd95 N90 2.622 . S
Gd95 N96 2.570 1_544 S
Gd95 O127 2.386 1_545 S
Gd95 O131 2.307 1_544 S
Gd95 O134 2.353 . S
Gd95 O135 2.468 1_554 S
Gd95 O136 2.427 . S
Gd95 O138 2.388 . S
Gd95 C159 2.805 . S
N96 C86 1.359 1_556 S
N96 Gd95 2.570 1_566 S
N96 C98 1.343 . S
C97 C85 1.422 . S
C97 C99 1.321 . S
C97 H105 0.931 . S
C98 N96 1.343 . S
C98 C99 1.390 . S
C98 H100 0.931 . S
C99 C97 1.321 . S
C99 C98 1.390 . S
C99 H101 0.930 . S
H100 C98 0.931 . S
H101 C99 0.930 . S
H102 C125 0.931 . S
H103 C91 0.929 . S
H104 C126 0.930 . S
H105 C97 0.931 . S
H106 C87 0.930 . S
H107 C116 0.929 . S
H108 C92 0.931 . S
H109 C93 0.930 . S
H110 C148 0.930 . S
H111 C89 0.929 . S
H112 C117 0.931 . S
H113 C118 0.930 . S
N114 Gd94 2.622 . S
N114 C115 1.369 1_565 S
N114 C116 1.338 . S
C115 N114 1.369 1_545 S
C115 C119 1.415 . S
C115 C122 1.422 . S
C116 H107 0.929 . S
C116 N114 1.338 . S
C116 C118 1.378 . S
C117 H112 0.931 . S
C117 C118 1.348 1_545 S
C117 C119 1.413 . S
C118 H113 0.930 . S
C118 C116 1.378 . S
C118 C117 1.348 1_565 S
C119 C115 1.415 . S
C119 C117 1.413 . S
C119 C149 1.437 . S
H120 C149 0.929 . S
N121 Gd94 2.570 1_544 S
N121 C122 1.359 1_554 S
N121 C125 1.343 . S
C122 C115 1.422 . S
C122 N121 1.359 1_556 S
C122 C124 1.421 1_556 S
C123 C124 1.422 . S
C123 C126 1.321 . S
C123 H150 0.931 . S
C124 C122 1.421 1_554 S
C124 C123 1.422 . S
C124 C148 1.417 1_554 S
C125 H102 0.931 . S
C125 N121 1.343 . S
C125 C126 1.390 . S
C126 H104 0.930 . S
C126 C123 1.321 . S
C126 C125 1.390 . S
O127 Gd95 2.386 1_565 S
O127 C139 1.265 1_554 S
O128 Gd94 2.353 . S
O128 C139 1.242 . S
O129 Gd94 2.468 1_554 S
O129 C147 1.263 1_554 S
O130 Gd94 2.427 . S
O130 C147 1.252 . S
O131 Gd95 2.307 1_566 S
O131 C140 1.261 . S
O132 Gd94 2.388 . S
O132 C140 1.252 . S
O133 Gd94 2.386 1_545 S
O133 C151 1.265 1_556 S
O134 Gd95 2.353 . S
O134 C151 1.242 . S
O135 Gd95 2.468 1_556 S
O135 C159 1.263 1_556 S
O136 Gd95 2.427 . S
O136 C159 1.252 . S
O137 Gd94 2.307 1_544 S
O137 C152 1.261 . S
O138 Gd95 2.388 . S
O138 C152 1.252 . S
C139 O127 1.265 1_556 S
C139 O128 1.242 . S
C140 O131 1.261 . S
C140 O132 1.252 . S
C141 C144 1.394 . S
C141 C146 1.370 1_556 S
C141 C147 1.500 . S
C142 C145 1.383 1_554 S
C142 C146 1.395 . S
C143 C144 1.396 . S
C143 C145 1.365 . S
C143 H160 0.929 . S
C144 C141 1.394 . S
C144 C143 1.396 . S
C144 H161 0.930 . S
C145 C142 1.383 1_556 S
C145 C143 1.365 . S
C145 H162 0.931 . S
C146 C141 1.370 1_554 S
C146 C142 1.395 . S
C146 H163 0.930 . S
C147 Gd94 2.805 . S
C147 O129 1.263 1_556 S
C147 O130 1.252 . S
C147 C141 1.500 . S
C148 H110 0.930 . S
C148 C124 1.417 1_556 S
C148 C149 1.329 . S
C149 C119 1.437 . S
C149 H120 0.929 . S
C149 C148 1.329 . S
H150 C123 0.931 . S
C151 O133 1.265 1_554 S
C151 O134 1.242 . S
C152 O137 1.261 . S
C152 O138 1.252 . S
C153 C156 1.394 . S
C153 C158 1.370 1_554 S
C153 C159 1.500 . S
C154 C157 1.383 1_556 S
C154 C158 1.395 . S
C155 C156 1.396 . S
C155 C157 1.365 . S
C155 H164 0.929 . S
C156 C153 1.394 . S
C156 C155 1.396 . S
C156 H165 0.930 . S
C157 C154 1.383 1_554 S
C157 C155 1.365 . S
C157 H166 0.931 . S
C158 C153 1.370 1_556 S
C158 C154 1.395 . S
C158 H167 0.930 . S
C159 Gd95 2.805 . S
C159 O135 1.263 1_554 S
C159 O136 1.252 . S
C159 C153 1.500 . S
H160 C143 0.929 . S
H161 C144 0.930 . S
H162 C145 0.931 . S
H163 C146 0.930 . S
H164 C155 0.929 . S
H165 C156 0.930 . S
H166 C157 0.931 . S
H167 C158 0.930 . S
C168 C170 1.422 . S
C168 C172 1.415 . S
C168 N174 1.369 . S
C169 C170 1.421 . S
C169 C171 1.417 . S
C169 C181 1.422 1_554 S
C170 C168 1.422 . S
C170 C169 1.421 . S
C170 N180 1.359 . S
C171 C169 1.417 . S
C171 C173 1.329 . S
C171 H190 0.930 . S
C172 C168 1.415 . S
C172 C173 1.437 . S
C172 C176 1.413 . S
C173 C171 1.329 . S
C173 C172 1.437 . S
C173 H195 0.929 . S
N174 C168 1.369 . S
N174 C175 1.338 . S
N174 Gd179 2.622 . S
C175 N174 1.338 . S
C175 C177 1.378 . S
C175 H187 0.929 . S
C176 C172 1.413 . S
C176 C177 1.348 . S
C176 H192 0.931 . S
C177 C175 1.378 . S
C177 C176 1.348 . S
C177 H193 0.930 . S
Gd178 N198 2.622 . S
Gd178 N205 2.570 . S
Gd178 O212 2.353 . S
Gd178 O213 2.468 1_556 S
Gd178 O214 2.427 . S
Gd178 O216 2.388 . S
Gd178 O217 2.386 . S
Gd178 O221 2.307 1_556 S
Gd178 C231 2.805 . S
Gd179 N174 2.622 . S
Gd179 N180 2.570 . S
Gd179 O211 2.386 . S
Gd179 O215 2.307 1_554 S
Gd179 O218 2.353 . S
Gd179 O219 2.468 1_554 S
Gd179 O220 2.427 . S
Gd179 O222 2.388 . S
Gd179 C243 2.805 . S
N180 C170 1.359 . S
N180 Gd179 2.570 . S
N180 C182 1.343 1_554 S
C181 C169 1.422 1_556 S
C181 C183 1.321 . S
C181 H189 0.931 . S
C182 N180 1.343 1_556 S
C182 C183 1.390 . S
C182 H184 0.931 . S
C183 C181 1.321 . S
C183 C182 1.390 . S
C183 H185 0.930 . S
H184 C182 0.931 . S
H185 C183 0.930 . S
H186 C209 0.931 . S
H187 C175 0.929 . S
H188 C210 0.930 . S
H189 C181 0.931 . S
H190 C171 0.930 . S
H191 C200 0.929 . S
H192 C176 0.931 . S
H193 C177 0.930 . S
H194 C232 0.930 . S
H195 C173 0.929 . S
H196 C201 0.931 . S
H197 C202 0.930 . S
N198 Gd178 2.622 . S
N198 C199 1.369 . S
N198 C200 1.338 . S
C199 N198 1.369 . S
C199 C203 1.415 . S
C199 C206 1.422 . S
C200 H191 0.929 . S
C200 N198 1.338 . S
C200 C202 1.378 . S
C201 H196 0.931 . S
C201 C202 1.348 . S
C201 C203 1.413 . S
C202 H197 0.930 . S
C202 C200 1.378 . S
C202 C201 1.348 . S
C203 C199 1.415 . S
C203 C201 1.413 . S
C203 C233 1.437 . S
H204 C233 0.929 . S
N205 Gd178 2.570 . S
N205 C206 1.359 . S
N205 C209 1.343 1_556 S
C206 C199 1.422 . S
C206 N205 1.359 . S
C206 C208 1.421 . S
C207 C208 1.422 1_554 S
C207 C210 1.321 . S
C207 H234 0.931 . S
C208 C206 1.421 . S
C208 C207 1.422 1_556 S
C208 C232 1.417 . S
C209 H186 0.931 . S
C209 N205 1.343 1_554 S
C209 C210 1.390 . S
C210 H188 0.930 . S
C210 C207 1.321 . S
C210 C209 1.390 . S
O211 Gd179 2.386 . S
O211 C223 1.265 . S
O212 Gd178 2.353 . S
O212 C223 1.242 1_556 S
O213 Gd178 2.468 1_554 S
O213 C231 1.263 1_554 S
O214 Gd178 2.427 . S
O214 C231 1.252 . S
O215 Gd179 2.307 1_556 S
O215 C224 1.261 . S
O216 Gd178 2.388 . S
O216 C224 1.252 . S
O217 Gd178 2.386 . S
O217 C235 1.265 . S
O218 Gd179 2.353 . S
O218 C235 1.242 1_554 S
O219 Gd179 2.468 1_556 S
O219 C243 1.263 1_556 S
O220 Gd179 2.427 . S
O220 C243 1.252 . S
O221 Gd178 2.307 1_554 S
O221 C236 1.261 . S
O222 Gd179 2.388 . S
O222 C236 1.252 . S
C223 O211 1.265 . S
C223 O212 1.242 1_554 S
C224 O215 1.261 . S
C224 O216 1.252 . S
C225 C228 1.394 . S
C225 C230 1.376 . S
C225 C231 1.500 . S
C226 C229 1.383 . S
C226 C230 1.394 . S
C227 C228 1.396 . S
C227 C229 1.365 . S
C227 H244 0.929 . S
C228 C225 1.394 . S
C228 C227 1.396 . S
C228 H245 0.930 . S
C229 C226 1.383 . S
C229 C227 1.365 . S
C229 H246 0.931 . S
C230 C225 1.376 . S
C230 C226 1.394 . S
C230 H247 0.926 1_556 S
C231 Gd178 2.805 . S
C231 O213 1.263 1_556 S
C231 O214 1.252 . S
C231 C225 1.500 . S
C232 H194 0.930 . S
C232 C208 1.417 . S
C232 C233 1.329 . S
C233 C203 1.437 . S
C233 H204 0.929 . S
C233 C232 1.329 . S
H234 C207 0.931 . S
C235 O217 1.265 . S
C235 O218 1.242 1_556 S
C236 O221 1.261 . S
C236 O222 1.252 . S
C237 C240 1.394 . S
C237 C242 1.378 . S
C237 C243 1.500 . S
C238 C241 1.383 . S
C238 C242 1.393 . S
C239 C240 1.396 . S
C239 C241 1.365 . S
C239 H248 0.929 . S
C240 C237 1.394 . S
C240 C239 1.396 . S
C240 H249 0.930 . S
C241 C238 1.383 . S
C241 C239 1.365 . S
C241 H250 0.931 . S
C242 C237 1.378 . S
C242 C238 1.393 . S
C242 H251 0.924 1_554 S
C243 Gd179 2.805 . S
C243 O219 1.263 1_554 S
C243 O220 1.252 . S
C243 C237 1.500 . S
H244 C227 0.929 . S
H245 C228 0.930 . S
H246 C229 0.931 . S
H247 C230 0.926 1_554 S
H248 C239 0.929 . S
H249 C240 0.930 . S
H250 C241 0.931 . S
H251 C242 0.924 1_556 S
C252 C253 1.391 1_655 S
C252 C254 1.394 . S
C252 H268 0.931 . S
C253 C252 1.391 1_455 S
C253 C257 1.376 . S
C254 C252 1.394 . S
C254 C255 1.369 1_655 S
C254 C258 1.531 . S
C255 C254 1.369 1_455 S
C255 C256 1.410 . S
C255 C263 1.503 . S
C256 C255 1.410 . S
C256 C257 1.392 . S
C256 C259 1.511 . S
C257 C253 1.376 . S
C257 C256 1.392 . S
C257 H269 0.929 . S
C258 C254 1.531 . S
C258 H270 0.960 . S
C258 H271 0.962 . S
C258 H272 0.960 . S
C259 C256 1.511 . S
C259 H273 0.961 . S
C259 H274 0.961 . S
C259 H275 0.961 . S
C260 C261 1.370 1_655 S
C260 C262 1.363 . S
C260 H276 0.931 . S
C261 C260 1.370 1_455 S
C261 C265 1.408 . S
C262 C260 1.363 . S
C262 C263 1.370 1_655 S
C262 C266 1.524 . S
C263 C255 1.503 . S
C263 C262 1.370 1_455 S
C263 C264 1.403 . S
C264 C263 1.403 . S
C264 C265 1.404 . S
C264 C267 1.539 . S
C265 C261 1.408 . S
C265 C264 1.404 . S
C265 H277 0.930 . S
C266 C262 1.524 . S
C266 H278 0.956 . S
C266 H279 0.961 . S
C266 H280 0.961 . S
C267 C264 1.539 . S
C267 H281 0.958 . S
C267 H282 0.961 . S
C267 H283 0.960 . S
H268 C252 0.931 . S
H269 C257 0.929 . S
H270 C258 0.960 . S
H271 C258 0.962 . S
H272 C258 0.960 . S
H273 C259 0.961 . S
H274 C259 0.961 . S
H275 C259 0.961 . S
H276 C260 0.931 . S
H277 C265 0.930 . S
H278 C266 0.956 . S
H279 C266 0.961 . S
H280 C266 0.961 . S
H281 C267 0.958 . S
H282 C267 0.961 . S
H283 C267 0.960 . S
C284 C285 1.393 . S
C284 C286 1.377 1_545 S
C284 H300 0.946 . S
C285 C284 1.393 . S
C285 C289 1.376 1_545 S
C286 C284 1.377 1_565 S
C286 C287 1.369 . S
C286 C290 1.531 . S
C287 C286 1.369 . S
C287 C288 1.410 . S
C287 C295 1.503 . S
C288 C287 1.410 . S
C288 C289 1.392 . S
C288 C291 1.511 . S
C289 C285 1.376 1_565 S
C289 C288 1.392 . S
C289 H301 0.930 . S
C290 C286 1.531 . S
C290 H302 0.960 . S
C290 H303 0.962 1_565 S
C290 H304 0.960 . S
C291 C288 1.511 . S
C291 H305 0.946 1_565 S
C291 H306 0.964 . S
C291 H307 0.961 . S
C292 C293 1.370 1_545 S
C292 C294 1.363 . S
C292 H308 0.931 . S
C293 C292 1.370 1_565 S
C293 C297 1.408 . S
C294 C292 1.363 . S
C294 C295 1.370 1_545 S
C294 C298 1.524 . S
C295 C287 1.503 . S
C295 C294 1.370 1_565 S
C295 C296 1.403 . S
C296 C295 1.403 . S
C296 C297 1.404 . S
C296 C299 1.539 . S
C297 C293 1.408 . S
C297 C296 1.404 . S
C297 H309 0.930 . S
C298 C294 1.524 . S
C298 H310 0.956 . S
C298 H311 0.961 . S
C298 H312 0.961 . S
C299 C296 1.539 . S
C299 H313 0.958 . S
C299 H314 0.961 . S
C299 H315 0.960 . S
H300 C284 0.946 . S
H301 C289 0.930 . S
H302 C290 0.960 . S
H303 C290 0.962 1_545 S
H304 C290 0.960 . S
H305 C291 0.946 1_545 S
H306 C291 0.964 . S
H307 C291 0.961 . S
H308 C292 0.931 . S
H309 C297 0.930 . S
H310 C298 0.956 . S
H311 C298 0.961 . S
H312 C298 0.961 . S
H313 C299 0.958 . S
H314 C299 0.961 . S
H315 C299 0.960 . S
C316 C317 1.391 . S
C316 C318 1.394 . S
C316 H332 0.931 . S
C317 C316 1.391 . S
C317 C321 1.376 . S
C318 C316 1.394 . S
C318 C319 1.369 . S
C318 C322 1.531 . S
C319 C318 1.369 . S
C319 C320 1.410 . S
C319 C327 1.503 . S
C320 C319 1.410 . S
C320 C321 1.392 . S
C320 C323 1.511 . S
C321 C317 1.376 . S
C321 C320 1.392 . S
C321 H333 0.929 . S
C322 C318 1.531 . S
C322 H334 0.960 . S
C322 H335 0.962 . S
C322 H336 0.960 . S
C323 C320 1.511 . S
C323 H337 0.961 . S
C323 H338 0.961 . S
C323 H339 0.961 . S
C324 C325 1.370 . S
C324 C326 1.363 . S
C324 H340 0.931 . S
C325 C324 1.370 . S
C325 C329 1.408 . S
C326 C324 1.363 . S
C326 C327 1.370 . S
C326 C330 1.524 . S
C327 C319 1.503 . S
C327 C326 1.370 . S
C327 C328 1.403 . S
C328 C327 1.403 . S
C328 C329 1.404 . S
C328 C331 1.539 . S
C329 C325 1.408 . S
C329 C328 1.404 . S
C329 H341 0.930 . S
C330 C326 1.524 . S
C330 H342 0.956 . S
C330 H343 0.961 . S
C330 H344 0.961 . S
C331 C328 1.539 . S
C331 H345 0.958 . S
C331 H346 0.961 . S
C331 H347 0.960 . S
H332 C316 0.931 . S
H333 C321 0.929 . S
H334 C322 0.960 . S
H335 C322 0.962 . S
H336 C322 0.960 . S
H337 C323 0.961 . S
H338 C323 0.961 . S
H339 C323 0.961 . S
H340 C324 0.931 . S
H341 C329 0.930 . S
H342 C330 0.956 . S
H343 C330 0.961 . S
H344 C330 0.961 . S
H345 C331 0.958 . S
H346 C331 0.961 . S
H347 C331 0.960 . S
C348 C349 1.391 . S
C348 C350 1.394 . S
C348 H364 0.931 . S
C349 C348 1.391 . S
C349 C353 1.376 1_554 S
C350 C348 1.394 . S
C350 C351 1.369 . S
C350 C354 1.531 . S
C351 C350 1.369 . S
C351 C352 1.410 1_554 S
C351 C359 1.503 . S
C352 C351 1.410 1_556 S
C352 C353 1.392 . S
C352 C355 1.511 . S
C353 C349 1.376 1_556 S
C353 C352 1.392 . S
C353 H365 0.929 . S
C354 C350 1.531 . S
C354 H366 0.960 . S
C354 H367 0.962 . S
C354 H368 0.960 . S
C355 C352 1.511 . S
C355 H369 0.961 . S
C355 H370 0.961 . S
C355 H371 0.961 . S
C356 C357 1.370 . S
C356 C358 1.363 . S
C356 H372 0.931 . S
C357 C356 1.370 . S
C357 C361 1.408 1_556 S
C358 C356 1.363 . S
C358 C359 1.370 1_556 S
C358 C362 1.524 . S
C359 C351 1.503 . S
C359 C358 1.370 1_554 S
C359 C360 1.403 . S
C360 C359 1.403 . S
C360 C361 1.404 . S
C360 C363 1.539 . S
C361 C357 1.408 1_554 S
C361 C360 1.404 . S
C361 H373 0.930 . S
C362 C358 1.524 . S
C362 H374 0.956 . S
C362 H375 0.961 . S
C362 H376 0.961 . S
C363 C360 1.539 . S
C363 H377 0.958 . S
C363 H378 0.961 . S
C363 H379 0.960 . S
H364 C348 0.931 . S
H365 C353 0.929 . S
H366 C354 0.960 . S
H367 C354 0.962 . S
H368 C354 0.960 . S
H369 C355 0.961 . S
H370 C355 0.961 . S
H371 C355 0.961 . S
H372 C356 0.931 . S
H373 C361 0.930 . S
H374 C362 0.956 . S
H375 C362 0.961 . S
H376 C362 0.961 . S
H377 C363 0.958 . S
H378 C363 0.961 . S
H379 C363 0.960 . S
C380 C381 1.391 . S
C380 C382 1.394 . S
C380 H396 0.931 . S
C381 C380 1.391 . S
C381 C385 1.376 . S
C382 C380 1.394 . S
C382 C383 1.369 . S
C382 C386 1.531 . S
C383 C382 1.369 . S
C383 C384 1.410 . S
C383 C391 1.503 . S
C384 C383 1.410 . S
C384 C385 1.392 . S
C384 C387 1.511 1_556 S
C385 C381 1.376 . S
C385 C384 1.392 . S
C385 H397 0.929 . S
C386 C382 1.531 . S
C386 H398 0.960 . S
C386 H399 0.962 . S
C386 H400 0.960 . S
C387 C384 1.511 1_554 S
C387 H401 0.961 . S
C387 H402 0.961 . S
C387 H403 0.961 1_554 S
C388 C389 1.370 . S
C388 C390 1.363 . S
C388 H404 0.931 . S
C389 C388 1.370 . S
C389 C393 1.408 1_554 S
C390 C388 1.363 . S
C390 C391 1.370 1_554 S
C390 C394 1.524 . S
C391 C383 1.503 . S
C391 C390 1.370 1_556 S
C391 C392 1.403 . S
C392 C391 1.403 . S
C392 C393 1.404 . S
C392 C395 1.539 . S
C393 C389 1.408 1_556 S
C393 C392 1.404 . S
C393 H405 0.930 . S
C394 C390 1.524 . S
C394 H406 0.956 . S
C394 H407 0.961 . S
C394 H408 0.961 . S
C395 C392 1.539 . S
C395 H409 0.958 . S
C395 H410 0.961 . S
C395 H411 0.960 . S
H396 C380 0.931 . S
H397 C385 0.929 . S
H398 C386 0.960 . S
H399 C386 0.962 . S
H400 C386 0.960 . S
H401 C387 0.961 . S
H402 C387 0.961 . S
H403 C387 0.961 1_556 S
H404 C388 0.931 . S
H405 C393 0.930 . S
H406 C394 0.956 . S
H407 C394 0.961 . S
H408 C394 0.961 . S
H409 C395 0.958 . S
H410 C395 0.961 . S
H411 C395 0.960 . S
C412 C413 1.391 . S
C412 C414 1.394 . S
C412 H428 0.931 . S
C413 C412 1.391 . S
C413 C417 1.376 . S
C414 C412 1.394 . S
C414 C415 1.369 . S
C414 C418 1.531 . S
C415 C414 1.369 . S
C415 C416 1.410 . S
C415 C423 1.503 . S
C416 C415 1.410 . S
C416 C417 1.392 . S
C416 C419 1.511 . S
C417 C413 1.376 . S
C417 C416 1.392 . S
C417 H429 0.929 . S
C418 C414 1.531 . S
C418 H430 0.960 . S
C418 H431 0.962 . S
C418 H432 0.960 . S
C419 C416 1.511 . S
C419 H433 0.961 . S
C419 H434 0.961 . S
C419 H435 0.961 . S
C420 C421 1.370 1_554 S
C420 C422 1.363 . S
C420 H436 0.931 . S
C421 C420 1.370 1_556 S
C421 C425 1.408 . S
C422 C420 1.363 . S
C422 C423 1.370 1_554 S
C422 C426 1.524 . S
C423 C415 1.503 . S
C423 C422 1.370 1_556 S
C423 C424 1.403 . S
C424 C423 1.403 . S
C424 C425 1.404 . S
C424 C427 1.539 . S
C425 C421 1.408 . S
C425 C424 1.404 . S
C425 H437 0.930 . S
C426 C422 1.524 . S
C426 H438 0.956 . S
C426 H439 0.961 . S
C426 H440 0.961 . S
C427 C424 1.539 . S
C427 H441 0.958 . S
C427 H442 0.961 . S
C427 H443 0.960 . S
H428 C412 0.931 . S
H429 C417 0.929 . S
H430 C418 0.960 . S
H431 C418 0.962 . S
H432 C418 0.960 . S
H433 C419 0.961 . S
H434 C419 0.961 . S
H435 C419 0.961 . S
H436 C420 0.931 . S
H437 C425 0.930 . S
H438 C426 0.956 . S
H439 C426 0.961 . S
H440 C426 0.961 . S
H441 C427 0.958 . S
H442 C427 0.961 . S
H443 C427 0.960 . S
C444 C445 1.391 . S
C444 C446 1.394 . S
C444 H460 0.931 . S
C445 C444 1.391 . S
C445 C449 1.376 1_556 S
C446 C444 1.394 . S
C446 C447 1.369 . S
C446 C450 1.531 . S
C447 C446 1.369 . S
C447 C448 1.410 1_556 S
C447 C455 1.503 . S
C448 C447 1.410 1_554 S
C448 C449 1.392 . S
C448 C451 1.511 . S
C449 C445 1.376 1_554 S
C449 C448 1.392 . S
C449 H461 0.929 . S
C450 C446 1.531 . S
C450 H462 0.960 . S
C450 H463 0.962 . S
C450 H464 0.960 . S
C451 C448 1.511 . S
C451 H465 0.961 . S
C451 H466 0.961 . S
C451 H467 0.961 . S
C452 C453 1.370 . S
C452 C454 1.363 . S
C452 H468 0.931 . S
C453 C452 1.370 . S
C453 C457 1.408 1_554 S
C454 C452 1.363 . S
C454 C455 1.370 1_554 S
C454 C458 1.524 . S
C455 C447 1.503 . S
C455 C454 1.370 1_556 S
C455 C456 1.403 . S
C456 C455 1.403 . S
C456 C457 1.404 . S
C456 C459 1.539 . S
C457 C453 1.408 1_556 S
C457 C456 1.404 . S
C457 H469 0.930 . S
C458 C454 1.524 . S
C458 H470 0.956 1_554 S
C458 H471 0.961 . S
C458 H472 0.961 . S
C459 C456 1.539 . S
C459 H473 0.958 . S
C459 H474 0.961 1_556 S
C459 H475 0.960 1_556 S
H460 C444 0.931 . S
H461 C449 0.929 . S
H462 C450 0.960 . S
H463 C450 0.962 . S
H464 C450 0.960 . S
H465 C451 0.961 . S
H466 C451 0.961 . S
H467 C451 0.961 . S
H468 C452 0.931 . S
H469 C457 0.930 . S
H470 C458 0.956 1_556 S
H471 C458 0.961 . S
H472 C458 0.961 . S
H473 C459 0.958 . S
H474 C459 0.961 1_554 S
H475 C459 0.960 1_554 S
C476 C477 1.391 1_554 S
C476 C478 1.394 . S
C476 H492 0.931 . S
C477 C476 1.391 1_556 S
C477 C481 1.376 . S
C478 C476 1.394 . S
C478 C479 1.369 . S
C478 C482 1.531 . S
C479 C478 1.369 . S
C479 C480 1.410 1_554 S
C479 C487 1.503 . S
C480 C479 1.410 1_556 S
C480 C481 1.392 . S
C480 C483 1.511 . S
C481 C477 1.376 . S
C481 C480 1.392 . S
C481 H493 0.929 . S
C482 C478 1.531 . S
C482 H494 0.960 . S
C482 H495 0.962 . S
C482 H496 0.960 . S
C483 C480 1.511 . S
C483 H497 0.961 . S
C483 H498 0.961 . S
C483 H499 0.961 . S
C484 C485 1.370 . S
C484 C486 1.363 1_554 S
C484 H500 0.931 1_554 S
C485 C484 1.370 . S
C485 C489 1.408 . S
C486 C484 1.363 1_556 S
C486 C487 1.370 1_556 S
C486 C490 1.524 . S
C487 C479 1.503 . S
C487 C486 1.370 1_554 S
C487 C488 1.403 . S
C488 C487 1.403 . S
C488 C489 1.404 . S
C488 C491 1.539 . S
C489 C485 1.408 . S
C489 C488 1.404 . S
C489 H501 0.930 . S
C490 C486 1.524 . S
C490 H502 0.956 . S
C490 H503 0.961 . S
C490 H504 0.961 . S
C491 C488 1.539 . S
C491 H505 0.958 . S
C491 H506 0.961 . S
C491 H507 0.960 . S
H492 C476 0.931 . S
H493 C481 0.929 . S
H494 C482 0.960 . S
H495 C482 0.962 . S
H496 C482 0.960 . S
H497 C483 0.961 . S
H498 C483 0.961 . S
H499 C483 0.961 . S
H500 C484 0.931 1_556 S
H501 C489 0.930 . S
H502 C490 0.956 . S
H503 C490 0.961 . S
H504 C490 0.961 . S
H505 C491 0.958 . S
H506 C491 0.961 . S
H507 C491 0.960 . S
C508 C509 1.391 1_556 S
C508 C510 1.394 . S
C508 H524 0.931 . S
C509 C508 1.391 1_554 S
C509 C513 1.376 . S
C510 C508 1.394 . S
C510 C511 1.369 1_556 S
C510 C514 1.531 . S
C511 C510 1.369 1_554 S
C511 C512 1.410 . S
C511 C519 1.503 . S
C512 C511 1.410 . S
C512 C513 1.392 . S
C512 C515 1.511 . S
C513 C509 1.376 . S
C513 C512 1.392 . S
C513 H525 0.929 . S
C514 C510 1.531 . S
C514 H526 0.960 . S
C514 H527 0.962 . S
C514 H528 0.960 . S
C515 C512 1.511 . S
C515 H529 0.961 . S
C515 H530 0.961 . S
C515 H531 0.961 . S
C516 C517 1.370 . S
C516 C518 1.363 . S
C516 H532 0.931 . S
C517 C516 1.370 . S
C517 C521 1.408 1_554 S
C518 C516 1.363 . S
C518 C519 1.370 . S
C518 C522 1.524 . S
C519 C511 1.503 . S
C519 C518 1.370 . S
C519 C520 1.403 1_554 S
C520 C519 1.403 1_556 S
C520 C521 1.404 . S
C520 C523 1.539 . S
C521 C517 1.408 1_556 S
C521 C520 1.404 . S
C521 H533 0.930 . S
C522 C518 1.524 . S
C522 H534 0.956 . S
C522 H535 0.961 . S
C522 H536 0.961 . S
C523 C520 1.539 . S
C523 H537 0.958 . S
C523 H538 0.961 . S
C523 H539 0.960 . S
H524 C508 0.931 . S
H525 C513 0.929 . S
H526 C514 0.960 . S
H527 C514 0.962 . S
H528 C514 0.960 . S
H529 C515 0.961 . S
H530 C515 0.961 . S
H531 C515 0.961 . S
H532 C516 0.931 . S
H533 C521 0.930 . S
H534 C522 0.956 . S
H535 C522 0.961 . S
H536 C522 0.961 . S
H537 C523 0.958 . S
H538 C523 0.961 . S
H539 C523 0.960 . S
C253 C68 1.500 1_455 S
C261 C56 1.476 . S
C285 C152 1.529 . S
C293 C140 1.520 . S
C317 C224 1.480 . S
C325 C236 1.476 . S
C349 C55 2.311 . S
C357 C235 2.316 . S
C381 C154 0.877 . S
C389 C70 0.747 1_554 S
C413 C139 1.632 . S
C421 C238 1.510 1_556 S
C445 C67 2.293 . S
C453 C223 2.326 . S
C477 C58 0.740 1_556 S
C485 C142 0.800 . S
C509 C226 1.464 1_554 S
C517 C151 1.604 . S
