# Generated by pormake.
# Topology kag, (6)-cn, num edge types: 1
# Building blocks:
#     Node 0, Type 0, BuildingBlock: PAMTOO_clean_sbu_0, # of connection points: 6
#     Node 1, Type 0, BuildingBlock: PAMTOO_clean_sbu_0, # of connection points: 6
#     Node 2, Type 0, BuildingBlock: PAMTOO_clean_sbu_0, # of connection points: 6
#     Edge 3, Type (0, 0), BuildingBlock: ZUJKAS_clean_linker_0, # of connection points: 2
#     Edge 4, Type (0, 0), BuildingBlock: ZUJKAS_clean_linker_0, # of connection points: 2
#     Edge 5, Type (0, 0), BuildingBlock: ZUJKAS_clean_linker_0, # of connection points: 2
#     Edge 6, Type (0, 0), BuildingBlock: ZUJKAS_clean_linker_0, # of connection points: 2
#     Edge 7, Type (0, 0), BuildingBlock: ZUJKAS_clean_linker_0, # of connection points: 2
#     Edge 8, Type (0, 0), BuildingBlock: ZUJKAS_clean_linker_0, # of connection points: 2
#     Edge 9, Type (0, 0), BuildingBlock: ZUJKAS_clean_linker_0, # of connection points: 2
#     Edge 10, Type (0, 0), BuildingBlock: ZUJKAS_clean_linker_0, # of connection points: 2
#     Edge 11, Type (0, 0), BuildingBlock: ZUJKAS_clean_linker_0, # of connection points: 2
# Relax obj value: 0.062
# Max RMSD: 0.133
# Mean RMSD: 0.101
data_MOF--net-kag--node1-PAMTOO_clean_sbu_0--edge1-ZUJKAS_clean_linker_0
_symmetry_space_group_name_H-M    P1
_symmetry_Int_Tables_number       1
_symmetry_cell_setting            triclinic
loop_
_symmetry_equiv_pos_as_xyz
'x, y, z'
_cell_length_a     40.008932
_cell_length_b     50.953213
_cell_length_c     19.748098
_cell_angle_alpha  99.250418
_cell_angle_beta   91.605619
_cell_angle_gamma 99.52905
loop_
_atom_site_label
_atom_site_type_symbol
_atom_site_fract_x
_atom_site_fract_y
_atom_site_fract_z
_atom_type_partial_charge
Dy0 Dy 0.0473 0.53521 0.01818 0.0
Dy1 Dy 1.035 0.46823 -0.00748 0.0
C2 C 0.04049 0.501 0.86838 0.0
O3 O 0.99135 0.52215 -0.0068 0.0
O4 O 0.984 0.47875 0.01654 0.0
O5 O 0.042 0.57287 0.98557 0.0
O6 O 0.06658 0.57299 0.08496 0.0
O7 O 0.05498 0.48436 0.10042 0.0
O8 O 1.02993 0.52158 0.11507 0.0
O9 O 0.08989 0.48035 0.97354 0.0
O10 O 0.09894 0.52428 0.03062 0.0
O11 O 1.02861 0.43205 0.03797 0.0
O12 O 1.02855 0.42899 0.92739 0.0
C13 C 0.97163 0.50004 0.00444 0.0
O14 O 0.05849 0.52154 0.90961 0.0
O15 O 1.0228 0.48078 0.89257 0.0
C16 C 0.0855 0.60998 0.02919 0.0
C17 C 0.1358 0.65395 0.01148 0.0
C18 C 0.13054 0.62989 0.9632 0.0
C19 C 0.1057 0.60803 0.97213 0.0
C20 C 0.09074 0.63388 0.07735 0.0
C21 C 0.11563 0.65562 0.06871 0.0
C22 C 0.05891 0.58752 0.04001 0.0
C23 C 0.04243 0.50289 0.14073 0.0
C24 C 0.11044 0.50271 0.00112 0.0
C25 C 0.99573 0.39272 0.97313 0.0
C26 C 0.94451 0.34644 0.96289 0.0
C27 C 0.9689 0.35319 0.01835 0.0
C28 C 0.99422 0.37595 0.0232 0.0
C29 C 0.9711 0.38638 0.9181 0.0
C30 C 0.94571 0.36347 0.9131 0.0
C31 C 1.02394 0.41593 0.97899 0.0
H32 H 0.14587 0.62786 0.91894 0.0
H33 H 0.10227 0.58966 0.93456 0.0
H34 H 0.07542 0.63577 0.1217 0.0
H35 H 0.11868 0.67394 0.10636 0.0
H36 H 0.96844 0.34089 0.05833 0.0
H37 H 1.01288 0.38038 0.06614 0.0
H38 H 0.97163 0.3989 0.87858 0.0
H39 H 0.9275 0.35877 0.86942 0.0
Dy40 Dy 0.49601 0.99281 0.98118 0.0
Dy41 Dy 0.57987 0.0101 -0.00605 0.0
C42 C 0.53769 0.00349 0.12422 0.0
O43 O 0.50557 0.03587 0.96515 0.0
O44 O 0.55883 0.04833 0.01912 0.0
O45 O 0.44847 0.98661 0.03031 0.0
O46 O 0.44882 0.97851 0.91969 0.0
O47 O 0.56234 0.01558 0.88992 0.0
O48 O 0.5154 0.98264 0.87687 0.0
O49 O 0.57042 0.96486 0.96587 0.0
O50 O 0.51542 0.95573 -0.00146 0.0
O51 O 0.62915 0.01123 0.9512 0.0
O52 O 0.6248 0.03071 0.05584 0.0
C53 C 0.53132 0.05454 -0.00783 0.0
O54 O 0.5122 0.00991 0.09091 0.0
O55 O 0.5639 0.9967 0.09177 0.0
C56 C 0.40925 0.94957 0.97216 0.0
C57 C 0.36737 0.89895 0.97024 0.0
C58 C 0.40043 0.90441 0.00134 0.0
C59 C 0.42116 0.92944 0.00219 0.0
C60 C 0.37644 0.9442 0.94071 0.0
C61 C 0.35568 0.91913 0.93968 0.0
C62 C 0.43091 0.97604 0.97305 0.0
C63 C 0.53874 0.99864 0.85045 0.0
C64 C 0.54404 0.94786 0.98033 0.0
C65 C 0.66732 0.0519 -0.00686 0.0
C66 C 0.71008 0.10022 0.97587 0.0
C67 C 0.68065 0.09001 0.93256 0.0
C68 C 0.65941 0.06616 0.9413 0.0
C69 C 0.69655 0.06195 0.03632 0.0
C70 C 0.71767 0.08584 0.02795 0.0
C71 C 0.64469 0.02733 0.00514 0.0
H72 H 0.41042 0.88923 0.02451 0.0
H73 H 0.44648 0.93311 0.02647 0.0
H74 H 0.36681 0.95946 0.91719 0.0
H75 H 0.33026 0.91572 0.91595 0.0
H76 H 0.67413 0.10032 0.89148 0.0
H77 H 0.63674 0.05894 0.90775 0.0
H78 H 0.70285 0.05144 0.07722 0.0
H79 H 0.73964 0.09328 0.06322 0.0
Dy80 Dy 0.5313 0.46887 -0.01014 0.0
Dy81 Dy 0.55116 0.5361 0.01545 0.0
C82 C 0.54145 0.50382 0.13776 0.0
O83 O 0.48248 0.48307 0.97034 0.0
O84 O 0.4947 0.52743 0.0245 0.0
O85 O 0.52546 0.43269 0.03453 0.0
O86 O 0.51161 0.43003 0.92623 0.0
O87 O 0.53271 0.5226 0.90587 0.0
O88 O 0.54842 0.48084 0.89061 0.0
O89 O 0.59983 0.52107 -0.00715 0.0
O90 O 0.58765 0.47723 0.01279 0.0
O91 O 0.57733 0.57256 0.98507 0.0
O92 O 0.55029 0.57482 0.07912 0.0
C93 C 0.47282 0.50589 -0.00364 0.0
O94 O 0.51988 0.48579 0.09634 0.0
O95 O 0.56271 0.52186 0.11313 0.0
C96 C 0.52442 0.38995 0.9636 0.0
C97 C 0.53389 0.33566 0.95509 0.0
C98 C 0.55519 0.35656 -0.00064 0.0
C99 C 0.55052 0.38342 0.00361 0.0
C100 C 0.50432 0.36932 0.9169 0.0
C101 C 0.50902 0.3425 0.9125 0.0
C102 C 0.51416 0.41684 0.97707 0.0
C103 C 0.54059 0.50162 0.86563 0.0
C104 C 0.60949 0.49846 0.00292 0.0
C105 C 0.55914 0.61446 0.02661 0.0
C106 C 0.5532 0.66792 0.01175 0.0
C107 C 0.55489 0.64825 0.95365 0.0
C108 C 0.55795 0.6218 0.96099 0.0
C109 C 0.55601 0.63379 0.08425 0.0
C110 C 0.55299 0.66015 0.07697 0.0
C111 C 0.56803 0.58828 0.03745 0.0
H112 H 0.57495 0.35208 0.03206 0.0
H113 H 0.56644 0.39888 0.0402 0.0
H114 H 0.48377 0.37376 0.88612 0.0
H115 H 0.49194 0.32696 0.8783 0.0
H116 H 0.55532 0.65355 0.90269 0.0
H117 H 0.56057 0.60743 0.91551 0.0
H118 H 0.55709 0.62876 0.13545 0.0
H119 H 0.55111 0.67462 0.12271 0.0
H120 H 1.00862 0.46119 0.7659 0.0
H121 H 1.00927 0.46069 0.64181 0.0
H122 H 0.072 0.53955 0.67672 0.0
H123 H 0.07194 0.54014 0.80056 0.0
H124 H 0.98716 0.49623 0.56439 0.0
H125 H 0.12483 0.49537 0.54054 0.0
H126 H 0.10317 0.48816 0.61614 0.0
H127 H 0.11561 0.52249 0.60326 0.0
C128 C 1.02265 0.47841 0.74723 0.0
C129 C 0.0404 0.50064 0.79323 0.0
C130 C 1.02296 0.47808 0.67631 0.0
C131 C 0.04112 0.49989 0.6501 0.0
C132 C 0.05844 0.52226 0.69583 0.0
H133 H 1.02015 0.53878 0.24048 0.0
H134 H 1.01936 0.53764 0.36377 0.0
C135 C 0.05821 0.5226 0.76668 0.0
C136 C 0.04147 0.49949 0.57493 0.0
H137 H 0.09427 0.50307 0.44263 0.0
C138 C 1.01054 0.49762 0.53764 0.0
C139 C 0.07198 0.50096 0.54012 0.0
C140 C 0.10577 0.5016 0.57686 0.0
C141 C 1.00936 0.49769 0.46655 0.0
C142 C 0.04 0.50014 0.4322 0.0
C143 C 0.07085 0.50149 0.46927 0.0
C144 C 0.04059 0.50098 0.35758 0.0
C145 C 0.9753 0.49475 0.42871 0.0
C146 C 0.05362 0.48115 0.31351 0.0
C147 C 0.05435 0.48184 0.24312 0.0
C148 C 0.0422 0.50248 0.21551 0.0
C149 C 1.02953 0.52252 0.25998 0.0
C150 C 1.02886 0.52182 0.33042 0.0
H151 H 0.95426 0.4861 0.45839 0.0
H152 H 0.97084 0.51493 0.42029 0.0
H153 H 0.9745 0.48166 0.37777 0.0
H154 H 0.06296 0.46497 0.33354 0.0
H155 H 0.06431 0.4661 0.21039 0.0
H156 H 0.58665 0.99261 0.20974 0.0
H157 H 0.58445 0.99115 0.33251 0.0
H158 H 0.4843 0.01197 0.33123 0.0
H159 H 0.48637 0.01383 0.20827 0.0
H160 H 0.52722 0.04146 0.44046 0.0
H161 H 0.52881 0.93184 0.42002 0.0
H162 H 0.56311 0.94946 0.37925 0.0
H163 H 0.52013 0.94722 0.34666 0.0
C164 C 0.5641 0.99687 0.2354 0.0
C165 C 0.53661 0.00324 0.19903 0.0
C166 C 0.56283 0.99585 0.30555 0.0
C167 C 0.53398 1.00097 0.34066 0.0
C168 C 0.50672 0.00778 0.3049 0.0
H169 H 0.49255 0.9676 0.75246 0.0
H170 H 0.49009 0.96841 0.62888 0.0
C171 C 0.50796 0.00883 0.23466 0.0
C172 C 0.53262 0.99973 0.41501 0.0
H173 H 0.53778 0.95796 0.5325 0.0
C174 C 0.52932 0.02318 0.46061 0.0
C175 C 0.53488 0.97574 0.44102 0.0
C176 C 0.5366 0.94955 0.3942 0.0
C177 C 0.52917 0.02348 0.53181 0.0
C178 C 0.53294 0.99981 0.55802 0.0
C179 C 0.53529 0.97616 0.51229 0.0
C180 C 0.53469 0.99922 0.63279 0.0
C181 C 0.52466 0.04907 0.57828 0.0
C182 C 0.56094 0.01593 0.6757 0.0
C183 C 0.56244 0.01554 0.74628 0.0
C184 C 0.5378 0.99827 0.77528 0.0
C185 C 0.51189 0.98117 0.73189 0.0
C186 C 0.51043 0.9816 0.66125 0.0
H187 H 0.51303 0.06271 0.54978 0.0
H188 H 0.50853 0.04453 0.62121 0.0
H189 H 0.54986 0.06003 0.60056 0.0
H190 H 0.58035 0.02925 0.65454 0.0
H191 H 0.58285 0.02887 0.77807 0.0
H192 H 0.55367 0.46158 0.76452 0.0
H193 H 0.55431 0.46206 0.64087 0.0
H194 H 0.5293 0.5421 0.67329 0.0
H195 H 0.52812 0.54174 0.79665 0.0
H196 H 0.49036 0.50758 0.56693 0.0
H197 H 0.62748 0.5044 0.54045 0.0
H198 H 0.60516 0.47775 0.5799 0.0
H199 H 0.60962 0.51215 0.62273 0.0
C200 C 0.54838 0.47932 0.74543 0.0
C201 C 0.54094 0.50165 0.79062 0.0
C202 C 0.54895 0.47961 0.67476 0.0
C203 C 0.54236 0.50228 0.64806 0.0
C204 C 0.53461 0.52446 0.6929 0.0
H205 H 0.58067 0.5393 0.23983 0.0
H206 H 0.58031 0.53918 0.3637 0.0
C207 C 0.53397 0.52419 0.76346 0.0
C208 C 0.54275 0.50275 0.57323 0.0
H209 H 0.59353 0.49931 0.43705 0.0
C210 C 0.51292 0.50582 0.5385 0.0
C211 C 0.57236 0.50082 0.53653 0.0
C212 C 0.60559 0.49885 0.57179 0.0
C213 C 0.51174 0.50665 0.4678 0.0
C214 C 0.54104 0.50388 0.43068 0.0
C215 C 0.57102 0.5012 0.46557 0.0
C216 C 0.54114 0.50386 0.35563 0.0
C217 C 0.4793 0.51095 0.43372 0.0
C218 C 0.51952 0.48385 0.31005 0.0
C219 C 0.51956 0.48389 0.23932 0.0
C220 C 0.54145 0.50386 0.21276 0.0
C221 C 0.56342 0.52369 0.25855 0.0
C222 C 0.5633 0.52364 0.32934 0.0
H223 H 0.46254 0.51976 0.47175 0.0
H224 H 0.48471 0.52446 0.39506 0.0
H225 H 0.46523 0.49122 0.40697 0.0
H226 H 0.50273 0.46806 0.32916 0.0
H227 H 0.50252 0.46819 0.20552 0.0
H228 H 0.16119 0.54554 0.04904 0.0
H229 H 0.22253 0.54716 0.04559 0.0
H230 H 0.2062 0.46389 0.94685 0.0
H231 H 0.1448 0.46213 0.94918 0.0
H232 H 0.26345 0.51714 0.10395 0.0
H233 H 0.27105 0.49997 0.82076 0.0
H234 H 0.23376 0.50865 0.8621 0.0
H235 H 0.24168 0.47454 0.85163 0.0
C236 C 0.17054 0.52754 0.02629 0.0
C237 C 0.14785 0.50371 -0.00087 0.0
C238 C 0.20571 0.52853 0.02442 0.0
C239 C 0.21909 0.50579 -0.00499 0.0
C240 C 0.19656 0.4819 0.96843 0.0
H241 H 0.42003 0.46533 0.94505 0.0
H242 H 0.35928 0.46644 0.9459 0.0
C243 C 0.16137 0.48088 0.97021 0.0
C244 C 0.25657 0.50689 -0.00617 0.0
H245 H 0.32095 0.49804 0.88668 0.0
C246 C 0.27606 0.51315 0.05641 0.0
C247 C 0.27308 0.50168 0.93181 0.0
C248 C 0.25391 0.49608 0.86269 0.0
C249 C 0.31137 0.51365 0.05883 0.0
C250 C 0.32785 0.50824 -0.00316 0.0
C251 C 0.30838 0.50218 0.93422 0.0
C252 C 0.36509 0.50806 -0.00413 0.0
C253 C 0.33053 0.51916 0.12795 0.0
C254 C 0.38882 0.53124 0.02272 0.0
C255 C 0.42377 0.53069 0.02247 0.0
C256 C 0.43578 0.50697 -0.00508 0.0
C257 C 0.41189 0.48396 0.96689 0.0
C258 C 0.37702 0.48454 0.96724 0.0
H259 H 0.31329 0.51609 0.17019 0.0
H260 H 0.3499 0.50592 0.12904 0.0
H261 H 0.34376 0.54045 0.1381 0.0
H262 H 0.38032 0.54983 0.04374 0.0
H263 H 0.44132 0.54885 0.04411 0.0
H264 H 0.692 0.14653 0.94215 0.0
H265 H 0.72938 0.18837 0.92923 0.0
H266 H 0.81651 0.15433 0.98126 0.0
H267 H 0.77965 0.11207 -0.00919 0.0
H268 H 0.77246 0.2232 0.02364 0.0
H269 H 0.84576 0.18272 0.80959 0.0
H270 H 0.80712 0.16367 0.83392 0.0
H271 H 0.8468 0.16493 0.8807 0.0
C272 C 0.71916 0.14771 0.94952 0.0
C273 C 0.73272 0.12575 0.96724 0.0
C274 C 0.74049 0.17177 0.94265 0.0
C275 C 0.77583 0.17439 0.95308 0.0
C276 C 0.78941 0.15263 0.9713 0.0
H277 H 0.95328 0.2969 -0.01029 0.0
H278 H 0.9105 0.25637 0.98467 0.0
C279 C 0.76818 0.12855 0.97778 0.0
C280 C 0.7985 0.20018 0.94771 0.0
H281 H 0.8693 0.22648 0.87198 0.0
C282 C 0.79339 0.22399 -0.01015 0.0
C283 C 0.82575 0.20126 0.90342 0.0
C284 C 0.83151 0.17682 0.85384 0.0
C285 C 0.81559 0.24857 -0.00894 0.0
C286 C 0.84342 0.24943 0.94832 0.0
C287 C 0.84804 0.22578 0.90494 0.0
C288 C 0.86907 0.27428 0.95034 0.0
C289 C 0.80982 0.27318 0.03997 0.0
C290 C 0.86012 0.2978 0.93182 0.0
C291 C 0.88457 0.32119 0.93518 0.0
C292 C 0.91846 0.32146 0.95696 0.0
C293 C 0.92735 0.29763 0.97403 0.0
C294 C 0.90296 0.27434 0.97067 0.0
H295 H 0.79176 0.26786 0.07936 0.0
H296 H 0.83411 0.28429 0.06647 0.0
H297 H 0.79908 0.28696 0.0106 0.0
H298 H 0.83424 0.29808 0.91479 0.0
H299 H 0.87679 0.33917 0.92186 0.0
H300 H 0.49286 0.90648 -0.00712 0.0
H301 H 0.49651 0.85938 -0.00526 0.0
H302 H 0.60387 0.87592 0.96574 0.0
H303 H 0.60044 0.9234 0.96294 0.0
H304 H 0.5705 0.82789 0.88441 0.0
H305 H 0.53731 0.83204 0.15612 0.0
H306 H 0.50679 0.84311 0.1038 0.0
H307 H 0.54924 0.86201 0.11845 0.0
C308 C 0.51735 0.90026 0.98697 0.0
C309 C 0.54646 0.91893 0.97849 0.0
C310 C 0.51938 0.87324 0.9883 0.0
C311 C 0.55057 0.8642 0.9818 0.0
C312 C 0.57956 0.88251 0.97136 0.0
H313 H 0.58863 0.71306 0.09307 0.0
H314 H 0.58907 0.76027 0.08322 0.0
C315 C 0.57755 0.90965 0.96981 0.0
C316 C 0.55271 0.83565 0.98635 0.0
H317 H 0.53698 0.78838 0.09137 0.0
C318 C 0.56335 0.81926 0.92976 0.0
C319 C 0.54378 0.82448 0.04587 0.0
C320 C 0.53396 0.84136 0.10979 0.0
C321 C 0.56456 0.79185 0.93053 0.0
C322 C 0.55436 0.78043 0.98909 0.0
C323 C 0.54442 0.79701 0.04616 0.0
C324 C 0.55446 0.75152 -0.00681 0.0
C325 C 0.57728 0.7755 0.86908 0.0
C326 C 0.53462 0.73076 0.94617 0.0
C327 C 0.53423 0.70362 0.9518 0.0
C328 C 0.55338 0.69671 0.00507 0.0
C329 C 0.57313 0.7176 0.05209 0.0
C330 C 0.57359 0.74464 0.04629 0.0
H331 H 0.59251 0.78862 0.83727 0.0
H332 H 0.59307 0.76135 0.8852 0.0
H333 H 0.55526 0.76346 0.83639 0.0
H334 H 0.51901 0.73553 0.90571 0.0
H335 H 0.51844 0.68808 0.91522 0.0
H336 H 0.92221 0.45771 0.02196 0.0
H337 H 0.86073 0.45604 0.01967 0.0
H338 H 0.87437 0.53834 0.98422 0.0
H339 H 0.93583 0.54013 0.98546 0.0
H340 H 0.82218 0.48697 0.10244 0.0
H341 H 0.80457 0.50011 0.83121 0.0
H342 H 0.84325 0.49203 0.86528 0.0
H343 H 0.83541 0.52619 0.88094 0.0
C344 C 0.91222 0.47547 0.01342 0.0
C345 C 0.93415 0.49903 0.00353 0.0
C346 C 0.87698 0.47447 0.01219 0.0
C347 C 0.86278 0.4969 0.00066 0.0
C348 C 0.88459 0.52055 -0.00836 0.0
H349 H 0.66192 0.53834 0.98535 0.0
H350 H 0.7225 0.53664 0.98586 0.0
C351 C 0.91983 0.52158 -0.00721 0.0
C352 C 0.82525 0.49575 -0.00046 0.0
H353 H 0.75724 0.50343 0.90034 0.0
C354 C 0.80793 0.49037 0.05807 0.0
C355 C 0.80659 0.50014 0.94162 0.0
C356 C 0.8233 0.50469 0.87594 0.0
C357 C 0.77274 0.49006 0.06101 0.0
C358 C 0.75416 0.49478 0.00337 0.0
C359 C 0.77143 0.49986 0.94458 0.0
C360 C 0.71701 0.49539 0.00359 0.0
C361 C 0.75597 0.48552 0.12662 0.0
C362 C 0.69348 0.47264 0.01269 0.0
C363 C 0.65859 0.47353 0.01256 0.0
C364 C 0.64646 0.49715 0.0029 0.0
C365 C 0.67016 0.51978 -0.0069 0.0
C366 C 0.70493 0.51886 -0.00673 0.0
H367 H 0.77478 0.48885 0.17094 0.0
H368 H 0.73716 0.49912 0.13873 0.0
H369 H 0.74238 0.46438 0.12034 0.0
H370 H 0.70206 0.4541 0.01933 0.0
H371 H 0.64117 0.45566 0.01985 0.0
H372 H 0.18063 0.68675 0.109 0.0
H373 H 0.22112 0.72692 0.09537 0.0
H374 H 0.19108 0.71431 0.87965 0.0
H375 H 0.15002 0.67432 0.89305 0.0
H376 H 0.27641 0.73215 0.00466 0.0
H377 H 0.17798 0.79289 0.95318 0.0
H378 H 0.16848 0.76261 -0.00935 0.0
H379 H 0.1743 0.76025 0.90019 0.0
C380 C 0.1825 0.69258 0.05869 0.0
C381 C 0.16186 0.67744 0.00222 0.0
C382 C 0.2058 0.71545 0.05092 0.0
C383 C 0.20878 0.7238 0.98673 0.0
C384 C 0.18885 0.70842 0.92986 0.0
H385 H 0.32492 0.86801 0.86527 0.0
H386 H 0.28775 0.8248 0.86658 0.0
C387 C 0.16562 0.68543 0.93749 0.0
C388 C 0.23248 0.74882 0.97981 0.0
H389 H 0.23509 0.813 0.94763 0.0
C390 C 0.26743 0.74984 -0.00789 0.0
C391 C 0.22068 0.77181 0.96321 0.0
C392 C 0.18331 0.77208 0.95151 0.0
C393 C 0.29095 0.77322 0.98788 0.0
C394 C 0.27911 0.79642 0.97255 0.0
C395 C 0.24416 0.79524 0.95941 0.0
C396 C 0.30239 0.82232 0.97137 0.0
C397 C 0.32829 0.77268 -0.0012 0.0
C398 C 0.32273 0.8355 0.03006 0.0
C399 C 0.34397 0.8602 0.02948 0.0
C400 C 0.34508 0.87244 0.97038 0.0
C401 C 0.32447 0.85929 0.91182 0.0
C402 C 0.30332 0.83452 0.91238 0.0
H403 H 0.33362 0.75171 -0.01066 0.0
H404 H 0.34362 0.7846 0.9646 0.0
H405 H 0.33666 0.78157 0.05286 0.0
H406 H 0.32178 0.8269 0.07681 0.0
H407 H 0.35901 0.86999 0.07587 0.0
H408 H 0.52829 0.29363 0.84655 0.0
H409 H 0.5269 0.24568 0.85121 0.0
H410 H 0.54277 0.26429 0.0717 0.0
H411 H 0.54332 0.31205 0.06778 0.0
H412 H 0.57577 0.21918 0.90437 0.0
H413 H 0.45667 0.20618 0.04198 0.0
H414 H 0.47015 0.23511 0.00109 0.0
H415 H 0.48884 0.23326 0.08366 0.0
C416 C 0.53138 0.28752 0.89608 0.0
C417 C 0.5358 0.30676 0.95681 0.0
C418 C 0.53073 0.26012 0.89861 0.0
C419 C 0.53416 0.25133 0.9619 0.0
C420 C 0.53948 0.27052 0.02239 0.0
H421 H 0.58044 0.09829 0.04017 0.0
H422 H 0.58038 0.14548 0.03123 0.0
C423 C 0.54023 0.29791 0.01993 0.0
C424 C 0.53218 0.22213 0.96476 0.0
H425 H 0.48743 0.16973 0.03065 0.0
C426 C 0.5564 0.20833 0.93175 0.0
C427 C 0.50658 0.20788 -0.00035 0.0
C428 C 0.47886 0.22124 0.0331 0.0
C429 C 0.5562 0.18087 0.93414 0.0
C430 C 0.53137 0.16689 0.97126 0.0
C431 C 0.50664 0.18051 0.00279 0.0
C432 C 0.5308 0.13819 0.97834 0.0
C433 C 0.58239 0.16699 0.89621 0.0
C434 C 0.50242 0.11841 0.9537 0.0
C435 C 0.50222 0.09129 0.95917 0.0
C436 C 0.53033 0.08344 -0.01013 0.0
C437 C 0.55835 0.10348 0.01599 0.0
C438 C 0.55852 0.13052 0.01046 0.0
H439 H 0.59329 0.1781 0.85568 0.0
H440 H 0.60346 0.16609 0.93306 0.0
H441 H 0.5713 0.14603 0.87205 0.0
H442 H 0.48063 0.1239 0.92916 0.0
H443 H 0.48021 0.07647 0.93852 0.0
loop_
_geom_bond_atom_site_label_1
_geom_bond_atom_site_label_2
_geom_bond_distance
_geom_bond_site_symmetry_2
_ccdc_geom_bond_type
Dy0 O3 2.307 1_455 S
Dy0 O5 2.395 1_554 S
Dy0 O6 2.379 . S
Dy0 O8 2.339 . S
Dy0 O10 2.298 . S
Dy0 O14 2.275 1_554 S
Dy0 C22 2.738 . S
Dy1 O4 2.298 . S
Dy1 O7 2.275 1_556 S
Dy1 O9 2.307 1_655 S
Dy1 O11 2.395 1_556 S
Dy1 O12 2.379 . S
Dy1 O15 2.339 . S
Dy1 C31 2.738 . S
C2 O14 1.254 . S
C2 O15 1.254 1_455 S
O3 Dy0 2.307 1_655 S
O3 C13 1.266 . S
O4 Dy1 2.298 . S
O4 C13 1.236 1_556 S
O5 Dy0 2.395 1_556 S
O5 C22 1.255 1_556 S
O6 Dy0 2.379 . S
O6 C22 1.249 . S
O7 Dy1 2.275 1_554 S
O7 C23 1.254 1_655 S
O8 Dy0 2.339 . S
O8 C23 1.257 . S
O9 Dy1 2.307 1_455 S
O9 C24 1.266 . S
O10 Dy0 2.298 . S
O10 C24 1.236 1_554 S
O11 Dy1 2.395 1_554 S
O11 C31 1.255 1_554 S
O12 Dy1 2.379 . S
O12 C31 1.249 . S
C13 O3 1.266 . S
C13 O4 1.236 1_554 S
O14 Dy0 2.275 1_556 S
O14 C2 1.254 . S
O15 Dy1 2.339 . S
O15 C2 1.254 1_655 S
C16 C19 1.344 1_554 S
C16 C20 1.328 . S
C16 C22 1.516 . S
C17 C18 1.304 1_554 S
C17 C21 1.323 . S
C18 C17 1.304 1_556 S
C18 C19 1.371 . S
C18 H32 0.930 . S
C19 C16 1.344 1_556 S
C19 C18 1.371 . S
C19 H33 0.931 . S
C20 C16 1.328 . S
C20 C21 1.433 . S
C20 H34 0.931 . S
C21 C17 1.323 . S
C21 C20 1.433 . S
C21 H35 0.933 . S
C22 Dy0 2.738 . S
C22 O5 1.255 1_554 S
C22 O6 1.249 . S
C22 C16 1.516 . S
C23 O7 1.254 1_455 S
C23 O8 1.257 . S
C24 O9 1.266 . S
C24 O10 1.236 1_556 S
C25 C28 1.344 1_556 S
C25 C29 1.328 . S
C25 C31 1.516 . S
C26 C27 1.304 1_556 S
C26 C30 1.323 . S
C27 C26 1.304 1_554 S
C27 C28 1.371 . S
C27 H36 0.930 . S
C28 C25 1.344 1_554 S
C28 C27 1.371 . S
C28 H37 0.931 . S
C29 C25 1.328 . S
C29 C30 1.433 . S
C29 H38 0.931 . S
C30 C26 1.323 . S
C30 C29 1.433 . S
C30 H39 0.933 . S
C31 Dy1 2.738 . S
C31 O11 1.255 1_556 S
C31 O12 1.249 . S
C31 C25 1.516 . S
H32 C18 0.930 . S
H33 C19 0.931 . S
H34 C20 0.931 . S
H35 C21 0.933 . S
H36 C27 0.930 . S
H37 C28 0.931 . S
H38 C29 0.931 . S
H39 C30 0.933 . S
Dy40 O43 2.307 1_565 S
Dy40 O45 2.395 1_556 S
Dy40 O46 2.379 . S
Dy40 O48 2.339 . S
Dy40 O50 2.298 . S
Dy40 O54 2.275 1_556 S
Dy40 C62 2.738 . S
Dy41 O44 2.298 . S
Dy41 O47 2.275 1_554 S
Dy41 O49 2.307 1_545 S
Dy41 O51 2.395 1_554 S
Dy41 O52 2.379 . S
Dy41 O55 2.339 . S
Dy41 C71 2.738 . S
C42 O54 1.254 1_545 S
C42 O55 1.257 . S
O43 Dy40 2.307 1_545 S
O43 C53 1.266 1_556 S
O44 Dy41 2.298 . S
O44 C53 1.236 . S
O45 Dy40 2.395 1_554 S
O45 C62 1.255 1_554 S
O46 Dy40 2.379 . S
O46 C62 1.249 . S
O47 Dy41 2.275 1_556 S
O47 C63 1.254 1_545 S
O48 Dy40 2.339 . S
O48 C63 1.257 . S
O49 Dy41 2.307 1_565 S
O49 C64 1.266 1_554 S
O50 Dy40 2.298 . S
O50 C64 1.236 . S
O51 Dy41 2.395 1_556 S
O51 C71 1.255 1_556 S
O52 Dy41 2.379 . S
O52 C71 1.249 . S
C53 O43 1.266 1_554 S
C53 O44 1.236 . S
O54 Dy40 2.275 1_554 S
O54 C42 1.254 1_565 S
O55 Dy41 2.339 . S
O55 C42 1.257 . S
C56 C59 1.344 1_556 S
C56 C60 1.328 . S
C56 C62 1.516 . S
C57 C58 1.304 . S
C57 C61 1.323 1_554 S
C58 C57 1.304 . S
C58 C59 1.371 . S
C58 H72 0.930 . S
C59 C56 1.344 1_554 S
C59 C58 1.371 . S
C59 H73 0.931 . S
C60 C56 1.328 . S
C60 C61 1.433 . S
C60 H74 0.931 . S
C61 C57 1.323 1_556 S
C61 C60 1.433 . S
C61 H75 0.933 . S
C62 Dy40 2.738 . S
C62 O45 1.255 1_556 S
C62 O46 1.249 . S
C62 C56 1.516 . S
C63 O47 1.254 1_565 S
C63 O48 1.257 . S
C64 O49 1.266 1_556 S
C64 O50 1.236 . S
C65 C68 1.344 1_554 S
C65 C69 1.328 . S
C65 C71 1.516 . S
C66 C67 1.304 . S
C66 C70 1.323 1_556 S
C67 C66 1.304 . S
C67 C68 1.371 . S
C67 H76 0.930 . S
C68 C65 1.344 1_556 S
C68 C67 1.371 . S
C68 H77 0.931 . S
C69 C65 1.328 . S
C69 C70 1.433 . S
C69 H78 0.931 . S
C70 C66 1.323 1_554 S
C70 C69 1.433 . S
C70 H79 0.933 . S
C71 Dy41 2.738 . S
C71 O51 1.255 1_554 S
C71 O52 1.249 . S
C71 C65 1.516 . S
H72 C58 0.930 . S
H73 C59 0.931 . S
H74 C60 0.931 . S
H75 C61 0.933 . S
H76 C67 0.930 . S
H77 C68 0.931 . S
H78 C69 0.931 . S
H79 C70 0.933 . S
Dy80 O83 2.307 . S
Dy80 O85 2.395 1_556 S
Dy80 O86 2.379 . S
Dy80 O88 2.339 . S
Dy80 O90 2.298 . S
Dy80 O94 2.275 1_556 S
Dy80 C102 2.738 . S
Dy81 O84 2.298 . S
Dy81 O87 2.275 1_554 S
Dy81 O89 2.307 . S
Dy81 O91 2.395 1_554 S
Dy81 O92 2.379 . S
Dy81 O95 2.339 . S
Dy81 C111 2.738 . S
C82 O94 1.254 . S
C82 O95 1.257 . S
O83 Dy80 2.307 . S
O83 C93 1.266 . S
O84 Dy81 2.298 . S
O84 C93 1.236 1_554 S
O85 Dy80 2.395 1_554 S
O85 C102 1.255 1_554 S
O86 Dy80 2.379 . S
O86 C102 1.249 . S
O87 Dy81 2.275 1_556 S
O87 C103 1.254 . S
O88 Dy80 2.339 . S
O88 C103 1.257 . S
O89 Dy81 2.307 . S
O89 C104 1.266 . S
O90 Dy80 2.298 . S
O90 C104 1.236 1_556 S
O91 Dy81 2.395 1_556 S
O91 C111 1.255 1_556 S
O92 Dy81 2.379 . S
O92 C111 1.249 . S
C93 O83 1.266 . S
C93 O84 1.236 1_556 S
O94 Dy80 2.275 1_554 S
O94 C82 1.254 . S
O95 Dy81 2.339 . S
O95 C82 1.257 . S
C96 C99 1.344 1_556 S
C96 C100 1.328 . S
C96 C102 1.516 . S
C97 C98 1.307 . S
C97 C101 1.320 1_554 S
C98 C97 1.307 . S
C98 C99 1.371 . S
C98 H112 0.930 . S
C99 C96 1.344 1_554 S
C99 C98 1.371 . S
C99 H113 0.931 . S
C100 C96 1.328 . S
C100 C101 1.433 . S
C100 H114 0.931 . S
C101 C97 1.320 1_556 S
C101 C100 1.433 . S
C101 H115 0.933 . S
C102 Dy80 2.738 . S
C102 O85 1.255 1_556 S
C102 O86 1.249 . S
C102 C96 1.516 . S
C103 O87 1.254 . S
C103 O88 1.257 . S
C104 O89 1.266 . S
C104 O90 1.236 1_554 S
C105 C108 1.344 1_554 S
C105 C109 1.328 . S
C105 C111 1.516 . S
C106 C107 1.301 1_554 S
C106 C110 1.328 . S
C107 C106 1.301 1_556 S
C107 C108 1.371 . S
C107 H116 0.930 . S
C108 C105 1.344 1_556 S
C108 C107 1.371 . S
C108 H117 0.931 . S
C109 C105 1.328 . S
C109 C110 1.433 . S
C109 H118 0.931 . S
C110 C106 1.328 . S
C110 C109 1.433 . S
C110 H119 0.933 . S
C111 Dy81 2.738 . S
C111 O91 1.255 1_554 S
C111 O92 1.249 . S
C111 C105 1.516 . S
H112 C98 0.930 . S
H113 C99 0.931 . S
H114 C100 0.931 . S
H115 C101 0.933 . S
H116 C107 0.930 . S
H117 C108 0.931 . S
H118 C109 0.931 . S
H119 C110 0.933 . S
H120 C128 0.929 . S
H121 C130 0.930 . S
H122 C132 0.930 . S
H123 C135 0.929 . S
H124 C138 0.930 . S
H125 C140 0.960 . S
H126 C140 0.960 . S
H127 C140 0.960 . S
C128 H120 0.929 . S
C128 C129 1.377 . S
C128 C130 1.384 . S
C129 C128 1.377 . S
C129 C135 1.390 1_455 S
C130 H121 0.930 . S
C130 C128 1.384 . S
C130 C131 1.372 . S
C131 C130 1.372 . S
C131 C132 1.400 1_455 S
C131 C136 1.490 . S
C132 H122 0.930 . S
C132 C131 1.400 1_655 S
C132 C135 1.386 . S
H133 C149 0.930 . S
H134 C150 0.931 . S
C135 H123 0.929 . S
C135 C129 1.390 1_655 S
C135 C132 1.386 . S
C136 C131 1.490 . S
C136 C138 1.395 1_455 S
C136 C139 1.403 . S
H137 C143 0.930 . S
C138 H124 0.930 . S
C138 C136 1.395 1_655 S
C138 C141 1.403 . S
C139 C136 1.403 . S
C139 C140 1.524 . S
C139 C143 1.400 . S
C140 H125 0.960 . S
C140 H126 0.960 . S
C140 H127 0.960 . S
C140 C139 1.524 . S
C141 C138 1.403 . S
C141 C142 1.392 . S
C141 C145 1.495 . S
C142 C141 1.392 . S
C142 C143 1.385 1_655 S
C142 C144 1.478 . S
C143 H137 0.930 . S
C143 C139 1.400 . S
C143 C142 1.385 1_455 S
C144 C142 1.478 . S
C144 C146 1.381 1_655 S
C144 C150 1.383 . S
C145 C141 1.495 . S
C145 H151 0.959 . S
C145 H152 0.961 . S
C145 H153 0.960 . S
C146 C144 1.381 1_455 S
C146 C147 1.394 . S
C146 H154 0.930 . S
C147 C146 1.394 . S
C147 C148 1.383 1_455 S
C147 H155 0.929 . S
C148 C147 1.383 1_655 S
C148 C149 1.377 . S
C149 H133 0.930 . S
C149 C148 1.377 . S
C149 C150 1.379 . S
C150 H134 0.931 . S
C150 C144 1.383 . S
C150 C149 1.379 . S
H151 C145 0.959 . S
H152 C145 0.961 . S
H153 C145 0.960 . S
H154 C146 0.930 . S
H155 C147 0.929 . S
H156 C164 0.929 . S
H157 C166 0.930 . S
H158 C168 0.930 . S
H159 C171 0.929 . S
H160 C174 0.930 . S
H161 C176 0.960 . S
H162 C176 0.960 1_545 S
H163 C176 0.960 . S
C164 H156 0.929 . S
C164 C165 1.402 . S
C164 C166 1.384 . S
C165 C164 1.402 . S
C165 C171 1.360 1_545 S
C166 H157 0.930 . S
C166 C164 1.384 . S
C166 C167 1.372 . S
C167 C166 1.372 . S
C167 C168 1.400 1_545 S
C167 C172 1.490 . S
C168 H158 0.930 . S
C168 C167 1.400 1_565 S
C168 C171 1.386 . S
H169 C185 0.930 . S
H170 C186 0.931 . S
C171 H159 0.929 . S
C171 C165 1.360 1_565 S
C171 C168 1.386 . S
C172 C167 1.490 . S
C172 C174 1.395 . S
C172 C175 1.403 1_545 S
H173 C179 0.930 . S
C174 H160 0.930 . S
C174 C172 1.395 . S
C174 C177 1.403 . S
C175 C172 1.403 1_565 S
C175 C176 1.524 . S
C175 C179 1.400 . S
C176 H161 0.960 . S
C176 H162 0.960 1_565 S
C176 H163 0.960 . S
C176 C175 1.524 . S
C177 C174 1.403 . S
C177 C178 1.392 . S
C177 C181 1.495 . S
C178 C177 1.392 . S
C178 C179 1.385 1_545 S
C178 C180 1.478 . S
C179 H173 0.930 . S
C179 C175 1.400 . S
C179 C178 1.385 1_565 S
C180 C178 1.478 . S
C180 C182 1.381 . S
C180 C186 1.383 1_545 S
C181 C177 1.495 . S
C181 H187 0.959 . S
C181 H188 0.977 . S
C181 H189 0.960 . S
C182 C180 1.381 . S
C182 C183 1.394 . S
C182 H190 0.930 . S
C183 C182 1.394 . S
C183 C184 1.395 . S
C183 H191 0.929 . S
C184 C183 1.395 . S
C184 C185 1.368 1_545 S
C185 H169 0.930 . S
C185 C184 1.368 1_565 S
C185 C186 1.379 . S
C186 H170 0.931 . S
C186 C180 1.383 1_565 S
C186 C185 1.379 . S
H187 C181 0.959 . S
H188 C181 0.977 . S
H189 C181 0.960 . S
H190 C182 0.930 . S
H191 C183 0.929 . S
H192 C200 0.929 . S
H193 C202 0.930 . S
H194 C204 0.930 . S
H195 C207 0.929 . S
H196 C210 0.930 . S
H197 C212 0.960 . S
H198 C212 0.960 . S
H199 C212 0.960 . S
C200 H192 0.929 . S
C200 C201 1.377 . S
C200 C202 1.384 . S
C201 C200 1.377 . S
C201 C207 1.390 . S
C202 H193 0.930 . S
C202 C200 1.384 . S
C202 C203 1.372 . S
C203 C202 1.372 . S
C203 C204 1.400 . S
C203 C208 1.490 . S
C204 H194 0.930 . S
C204 C203 1.400 . S
C204 C207 1.386 . S
H205 C221 0.930 . S
H206 C222 0.931 . S
C207 H195 0.929 . S
C207 C201 1.390 . S
C207 C204 1.386 . S
C208 C203 1.490 . S
C208 C210 1.395 . S
C208 C211 1.403 . S
H209 C215 0.930 . S
C210 H196 0.930 . S
C210 C208 1.395 . S
C210 C213 1.403 . S
C211 C208 1.403 . S
C211 C212 1.524 . S
C211 C215 1.400 . S
C212 H197 0.960 . S
C212 H198 0.960 . S
C212 H199 0.960 . S
C212 C211 1.524 . S
C213 C210 1.403 . S
C213 C214 1.392 . S
C213 C217 1.495 . S
C214 C213 1.392 . S
C214 C215 1.385 . S
C214 C216 1.478 . S
C215 H209 0.930 . S
C215 C211 1.400 . S
C215 C214 1.385 . S
C216 C214 1.478 . S
C216 C218 1.381 . S
C216 C222 1.383 . S
C217 C213 1.495 . S
C217 H223 0.959 . S
C217 H224 0.961 . S
C217 H225 0.960 . S
C218 C216 1.381 . S
C218 C219 1.394 . S
C218 H226 0.930 . S
C219 C218 1.394 . S
C219 C220 1.383 . S
C219 H227 0.929 . S
C220 C219 1.383 . S
C220 C221 1.377 . S
C221 H205 0.930 . S
C221 C220 1.377 . S
C221 C222 1.379 . S
C222 H206 0.931 . S
C222 C216 1.383 . S
C222 C221 1.379 . S
H223 C217 0.959 . S
H224 C217 0.961 . S
H225 C217 0.960 . S
H226 C218 0.930 . S
H227 C219 0.929 . S
H228 C236 0.929 . S
H229 C238 0.930 . S
H230 C240 0.930 . S
H231 C243 0.929 . S
H232 C246 0.930 . S
H233 C248 0.960 . S
H234 C248 0.960 . S
H235 C248 0.960 . S
C236 H228 0.929 . S
C236 C237 1.377 1_554 S
C236 C238 1.384 . S
C237 C236 1.377 1_556 S
C237 C243 1.390 . S
C238 H229 0.930 . S
C238 C236 1.384 . S
C238 C239 1.372 1_554 S
C239 C238 1.372 1_556 S
C239 C240 1.400 . S
C239 C244 1.490 . S
C240 H230 0.930 . S
C240 C239 1.400 . S
C240 C243 1.386 . S
H241 C257 0.930 . S
H242 C258 0.931 . S
C243 H231 0.929 . S
C243 C237 1.390 . S
C243 C240 1.386 . S
C244 C239 1.490 . S
C244 C246 1.395 1_556 S
C244 C247 1.403 . S
H245 C251 0.930 . S
C246 H232 0.930 . S
C246 C244 1.395 1_554 S
C246 C249 1.403 . S
C247 C244 1.403 . S
C247 C248 1.524 . S
C247 C251 1.400 . S
C248 H233 0.960 . S
C248 H234 0.960 . S
C248 H235 0.960 . S
C248 C247 1.524 . S
C249 C246 1.403 . S
C249 C250 1.394 . S
C249 C253 1.495 . S
C250 C249 1.394 . S
C250 C251 1.383 1_554 S
C250 C252 1.477 1_554 S
C251 H245 0.930 . S
C251 C247 1.400 . S
C251 C250 1.383 1_556 S
C252 C250 1.477 1_556 S
C252 C254 1.370 1_556 S
C252 C258 1.395 . S
C253 C249 1.495 . S
C253 H259 0.959 . S
C253 H260 0.961 . S
C253 H261 0.960 . S
C254 C252 1.370 1_554 S
C254 C255 1.394 . S
C254 H262 0.930 . S
C255 C254 1.394 . S
C255 C256 1.383 1_554 S
C255 H263 0.929 . S
C256 C255 1.383 1_556 S
C256 C257 1.377 . S
C257 H241 0.930 . S
C257 C256 1.377 . S
C257 C258 1.379 . S
C258 H242 0.931 . S
C258 C252 1.395 . S
C258 C257 1.379 . S
H259 C253 0.959 . S
H260 C253 0.961 . S
H261 C253 0.960 . S
H262 C254 0.930 . S
H263 C255 0.929 . S
H264 C272 0.929 . S
H265 C274 0.930 . S
H266 C276 0.930 . S
H267 C279 0.929 . S
H268 C282 0.930 . S
H269 C284 0.960 . S
H270 C284 0.960 . S
H271 C284 0.960 . S
C272 H264 0.929 . S
C272 C273 1.377 . S
C272 C274 1.384 . S
C273 C272 1.377 . S
C273 C279 1.390 1_556 S
C274 H265 0.930 . S
C274 C272 1.384 . S
C274 C275 1.372 . S
C275 C274 1.372 . S
C275 C276 1.400 1_556 S
C275 C280 1.490 . S
C276 H266 0.930 . S
C276 C275 1.400 1_554 S
C276 C279 1.386 . S
H277 C293 0.930 . S
H278 C294 0.931 . S
C279 H267 0.929 . S
C279 C273 1.390 1_554 S
C279 C276 1.386 . S
C280 C275 1.490 . S
C280 C282 1.395 1_556 S
C280 C283 1.403 . S
H281 C287 0.930 . S
C282 H268 0.930 . S
C282 C280 1.395 1_554 S
C282 C285 1.403 . S
C283 C280 1.403 . S
C283 C284 1.524 . S
C283 C287 1.400 . S
C284 H269 0.960 . S
C284 H270 0.960 . S
C284 H271 0.960 . S
C284 C283 1.524 . S
C285 C282 1.403 . S
C285 C286 1.392 1_554 S
C285 C289 1.495 . S
C286 C285 1.392 1_556 S
C286 C287 1.385 . S
C286 C288 1.478 . S
C287 H281 0.930 . S
C287 C283 1.400 . S
C287 C286 1.385 . S
C288 C286 1.478 . S
C288 C290 1.381 . S
C288 C294 1.383 1_556 S
C289 C285 1.495 . S
C289 H295 0.959 . S
C289 H296 0.961 . S
C289 H297 0.960 1_554 S
C290 C288 1.381 . S
C290 C291 1.394 . S
C290 H298 0.930 . S
C291 C290 1.394 . S
C291 C292 1.383 . S
C291 H299 0.929 . S
C292 C291 1.383 . S
C292 C293 1.377 1_556 S
C293 H277 0.930 . S
C293 C292 1.377 1_554 S
C293 C294 1.379 . S
C294 H278 0.931 . S
C294 C288 1.383 1_554 S
C294 C293 1.379 . S
H295 C289 0.959 . S
H296 C289 0.961 . S
H297 C289 0.960 1_556 S
H298 C290 0.930 . S
H299 C291 0.929 . S
H300 C308 0.929 . S
H301 C310 0.930 . S
H302 C312 0.930 . S
H303 C315 0.929 . S
H304 C318 0.930 . S
H305 C320 0.960 . S
H306 C320 0.960 . S
H307 C320 0.960 . S
C308 H300 0.929 . S
C308 C309 1.377 . S
C308 C310 1.384 . S
C309 C308 1.377 . S
C309 C315 1.390 1_556 S
C310 H301 0.930 . S
C310 C308 1.384 . S
C310 C311 1.372 . S
C311 C310 1.372 . S
C311 C312 1.400 1_556 S
C311 C316 1.490 . S
C312 H302 0.930 . S
C312 C311 1.400 1_554 S
C312 C315 1.386 . S
H313 C329 0.930 . S
H314 C330 0.931 . S
C315 H303 0.929 . S
C315 C309 1.390 1_554 S
C315 C312 1.386 . S
C316 C311 1.490 . S
C316 C318 1.395 . S
C316 C319 1.403 1_556 S
H317 C323 0.930 . S
C318 H304 0.930 . S
C318 C316 1.395 . S
C318 C321 1.403 . S
C319 C316 1.403 1_554 S
C319 C320 1.524 . S
C319 C323 1.400 . S
C320 H305 0.960 . S
C320 H306 0.960 . S
C320 H307 0.960 . S
C320 C319 1.524 . S
C321 C318 1.403 . S
C321 C322 1.392 . S
C321 C325 1.495 . S
C322 C321 1.392 . S
C322 C323 1.385 1_556 S
C322 C324 1.478 . S
C323 H317 0.930 . S
C323 C319 1.400 . S
C323 C322 1.385 1_554 S
C324 C322 1.478 . S
C324 C326 1.381 . S
C324 C330 1.383 1_556 S
C325 C321 1.495 . S
C325 H331 0.959 . S
C325 H332 0.961 . S
C325 H333 0.960 . S
C326 C324 1.381 . S
C326 C327 1.394 . S
C326 H334 0.930 . S
C327 C326 1.394 . S
C327 C328 1.383 . S
C327 H335 0.929 . S
C328 C327 1.383 . S
C328 C329 1.377 1_556 S
C329 H313 0.930 . S
C329 C328 1.377 1_554 S
C329 C330 1.379 . S
C330 H314 0.931 . S
C330 C324 1.383 1_554 S
C330 C329 1.379 . S
H331 C325 0.959 . S
H332 C325 0.961 . S
H333 C325 0.960 . S
H334 C326 0.930 . S
H335 C327 0.929 . S
H336 C344 0.929 . S
H337 C346 0.930 . S
H338 C348 0.930 . S
H339 C351 0.929 . S
H340 C354 0.930 . S
H341 C356 0.960 . S
H342 C356 0.960 1_556 S
H343 C356 0.960 . S
C344 H336 0.929 . S
C344 C345 1.377 1_556 S
C344 C346 1.384 . S
C345 C344 1.377 1_554 S
C345 C351 1.390 . S
C346 H337 0.930 . S
C346 C344 1.384 . S
C346 C347 1.372 1_556 S
C347 C346 1.372 1_554 S
C347 C348 1.400 . S
C347 C352 1.490 . S
C348 H338 0.930 . S
C348 C347 1.400 . S
C348 C351 1.386 . S
H349 C365 0.930 . S
H350 C366 0.931 . S
C351 H339 0.929 . S
C351 C345 1.390 . S
C351 C348 1.386 . S
C352 C347 1.490 . S
C352 C354 1.395 1_554 S
C352 C355 1.403 . S
H353 C359 0.930 . S
C354 H340 0.930 . S
C354 C352 1.395 1_556 S
C354 C357 1.403 . S
C355 C352 1.403 . S
C355 C356 1.524 . S
C355 C359 1.400 . S
C356 H341 0.960 . S
C356 H342 0.960 1_554 S
C356 H343 0.960 . S
C356 C355 1.524 . S
C357 C354 1.403 . S
C357 C358 1.392 1_556 S
C357 C361 1.495 . S
C358 C357 1.392 1_554 S
C358 C359 1.385 . S
C358 C360 1.478 . S
C359 H353 0.930 . S
C359 C355 1.400 . S
C359 C358 1.385 . S
C360 C358 1.478 . S
C360 C362 1.381 1_554 S
C360 C366 1.383 . S
C361 C357 1.495 . S
C361 H367 0.959 . S
C361 H368 0.961 1_556 S
C361 H369 0.960 . S
C362 C360 1.381 1_556 S
C362 C363 1.394 . S
C362 H370 0.930 . S
C363 C362 1.394 . S
C363 C364 1.383 1_556 S
C363 H371 0.929 . S
C364 C363 1.383 1_554 S
C364 C365 1.377 . S
C365 H349 0.930 . S
C365 C364 1.377 . S
C365 C366 1.379 . S
C366 H350 0.931 . S
C366 C360 1.383 . S
C366 C365 1.379 . S
H367 C361 0.959 . S
H368 C361 0.961 1_554 S
H369 C361 0.960 . S
H370 C362 0.930 . S
H371 C363 0.929 . S
H372 C380 0.929 . S
H373 C382 0.930 . S
H374 C384 0.930 . S
H375 C387 0.929 . S
H376 C390 0.930 . S
H377 C392 0.960 . S
H378 C392 0.960 1_554 S
H379 C392 0.960 . S
C380 H372 0.929 . S
C380 C381 1.377 . S
C380 C382 1.384 . S
C381 C380 1.377 . S
C381 C387 1.390 1_554 S
C382 H373 0.930 . S
C382 C380 1.384 . S
C382 C383 1.372 . S
C383 C382 1.372 . S
C383 C384 1.400 1_554 S
C383 C388 1.490 . S
C384 H374 0.930 . S
C384 C383 1.400 1_556 S
C384 C387 1.386 . S
H385 C401 0.930 . S
H386 C402 0.931 . S
C387 H375 0.929 . S
C387 C381 1.390 1_556 S
C387 C384 1.386 . S
C388 C383 1.490 . S
C388 C390 1.395 . S
C388 C391 1.407 . S
H389 C395 0.928 1_556 S
C390 H376 0.930 . S
C390 C388 1.395 . S
C390 C393 1.403 . S
C391 C388 1.407 . S
C391 C392 1.522 1_554 S
C391 C395 1.399 . S
C392 H377 0.960 . S
C392 H378 0.960 1_556 S
C392 H379 0.960 . S
C392 C391 1.522 1_556 S
C393 C390 1.403 . S
C393 C394 1.392 . S
C393 C397 1.495 . S
C394 C393 1.392 . S
C394 C395 1.386 . S
C394 C396 1.478 . S
C395 H389 0.928 1_554 S
C395 C391 1.399 . S
C395 C394 1.386 . S
C396 C394 1.478 . S
C396 C398 1.381 . S
C396 C402 1.383 1_554 S
C397 C393 1.495 . S
C397 H403 0.959 . S
C397 H404 0.961 1_554 S
C397 H405 0.960 . S
C398 C396 1.381 . S
C398 C399 1.394 . S
C398 H406 0.930 . S
C399 C398 1.394 . S
C399 C400 1.383 . S
C399 H407 0.929 . S
C400 C399 1.383 . S
C400 C401 1.377 1_554 S
C401 H385 0.930 . S
C401 C400 1.377 1_556 S
C401 C402 1.379 . S
C402 H386 0.931 . S
C402 C396 1.383 1_556 S
C402 C401 1.379 . S
H403 C397 0.959 . S
H404 C397 0.961 1_556 S
H405 C397 0.960 . S
H406 C398 0.930 . S
H407 C399 0.929 . S
H408 C416 0.929 . S
H409 C418 0.930 . S
H410 C420 0.930 . S
H411 C423 0.929 . S
H412 C426 0.930 . S
H413 C428 0.960 . S
H414 C428 0.960 . S
H415 C428 0.960 . S
C416 H408 0.929 . S
C416 C417 1.377 . S
C416 C418 1.384 . S
C417 C416 1.377 . S
C417 C423 1.390 1_556 S
C418 H409 0.930 . S
C418 C416 1.384 . S
C418 C419 1.372 . S
C419 C418 1.372 . S
C419 C420 1.400 1_556 S
C419 C424 1.490 . S
C420 H410 0.930 . S
C420 C419 1.400 1_554 S
C420 C423 1.386 . S
H421 C437 0.930 . S
H422 C438 0.931 . S
C423 H411 0.929 . S
C423 C417 1.390 1_554 S
C423 C420 1.386 . S
C424 C419 1.490 . S
C424 C426 1.395 . S
C424 C427 1.403 1_556 S
H425 C431 0.930 . S
C426 H412 0.930 . S
C426 C424 1.395 . S
C426 C429 1.403 . S
C427 C424 1.403 1_554 S
C427 C428 1.524 . S
C427 C431 1.400 . S
C428 H413 0.960 . S
C428 H414 0.960 . S
C428 H415 0.960 . S
C428 C427 1.524 . S
C429 C426 1.403 . S
C429 C430 1.392 . S
C429 C433 1.495 . S
C430 C429 1.392 . S
C430 C431 1.385 1_556 S
C430 C432 1.478 . S
C431 H425 0.930 . S
C431 C427 1.400 . S
C431 C430 1.385 1_554 S
C432 C430 1.478 . S
C432 C434 1.381 . S
C432 C438 1.383 1_556 S
C433 C429 1.495 . S
C433 H439 0.959 . S
C433 H440 0.961 . S
C433 H441 0.960 . S
C434 C432 1.381 . S
C434 C435 1.394 . S
C434 H442 0.930 . S
C435 C434 1.394 . S
C435 C436 1.383 1_556 S
C435 H443 0.929 . S
C436 C435 1.383 1_554 S
C436 C437 1.377 . S
C437 H421 0.930 . S
C437 C436 1.377 . S
C437 C438 1.379 . S
C438 H422 0.931 . S
C438 C432 1.383 1_554 S
C438 C437 1.379 . S
H439 C433 0.959 . S
H440 C433 0.961 . S
H441 C433 0.960 . S
H442 C434 0.930 . S
H443 C435 0.929 . S
C129 C2 1.478 . S
C148 C23 1.491 1_655 S
C165 C42 1.470 . S
C184 C63 1.444 1_545 S
C201 C103 1.472 . S
C220 C82 1.473 . S
C237 C24 2.480 . S
C256 C93 2.454 . S
C273 C66 0.696 . S
C292 C26 0.692 . S
C309 C64 1.678 . S
C328 C106 1.670 1_556 S
C345 C13 2.480 . S
C364 C104 2.469 . S
C381 C17 0.696 . S
C400 C57 0.666 . S
C417 C97 1.681 1_556 S
C436 C53 1.667 . S
