# Generated by pormake.
# Topology unv, (4)-cn, num edge types: 1
# Building blocks:
#     Node 0, Type 0, BuildingBlock: CEKHIL_clean_sbu_0, # of connection points: 4
#     Node 1, Type 0, BuildingBlock: CEKHIL_clean_sbu_0, # of connection points: 4
#     Node 2, Type 0, BuildingBlock: CEKHIL_clean_sbu_0, # of connection points: 4
#     Node 3, Type 0, BuildingBlock: CEKHIL_clean_sbu_0, # of connection points: 4
#     Node 4, Type 0, BuildingBlock: CEKHIL_clean_sbu_0, # of connection points: 4
#     Node 5, Type 0, BuildingBlock: CEKHIL_clean_sbu_0, # of connection points: 4
#     Node 6, Type 0, BuildingBlock: CEKHIL_clean_sbu_0, # of connection points: 4
#     Node 7, Type 0, BuildingBlock: CEKHIL_clean_sbu_0, # of connection points: 4
#     Node 8, Type 0, BuildingBlock: CEKHIL_clean_sbu_0, # of connection points: 4
#     Node 9, Type 0, BuildingBlock: CEKHIL_clean_sbu_0, # of connection points: 4
#     Node 10, Type 0, BuildingBlock: CEKHIL_clean_sbu_0, # of connection points: 4
#     Node 11, Type 0, BuildingBlock: CEKHIL_clean_sbu_0, # of connection points: 4
#     Node 12, Type 0, BuildingBlock: CEKHIL_clean_sbu_0, # of connection points: 4
#     Node 13, Type 0, BuildingBlock: CEKHIL_clean_sbu_0, # of connection points: 4
#     Node 14, Type 0, BuildingBlock: CEKHIL_clean_sbu_0, # of connection points: 4
#     Node 15, Type 0, BuildingBlock: CEKHIL_clean_sbu_0, # of connection points: 4
#     Node 16, Type 0, BuildingBlock: CEKHIL_clean_sbu_0, # of connection points: 4
#     Node 17, Type 0, BuildingBlock: CEKHIL_clean_sbu_0, # of connection points: 4
#     Node 18, Type 0, BuildingBlock: CEKHIL_clean_sbu_0, # of connection points: 4
#     Node 19, Type 0, BuildingBlock: CEKHIL_clean_sbu_0, # of connection points: 4
#     Node 20, Type 0, BuildingBlock: CEKHIL_clean_sbu_0, # of connection points: 4
#     Node 21, Type 0, BuildingBlock: CEKHIL_clean_sbu_0, # of connection points: 4
#     Node 22, Type 0, BuildingBlock: CEKHIL_clean_sbu_0, # of connection points: 4
#     Node 23, Type 0, BuildingBlock: CEKHIL_clean_sbu_0, # of connection points: 4
#     Edge 24, Type (0, 0), BuildingBlock: CIFDUS_clean_linker_0, # of connection points: 2
#     Edge 25, Type (0, 0), BuildingBlock: CIFDUS_clean_linker_0, # of connection points: 2
#     Edge 26, Type (0, 0), BuildingBlock: CIFDUS_clean_linker_0, # of connection points: 2
#     Edge 27, Type (0, 0), BuildingBlock: CIFDUS_clean_linker_0, # of connection points: 2
#     Edge 28, Type (0, 0), BuildingBlock: CIFDUS_clean_linker_0, # of connection points: 2
#     Edge 29, Type (0, 0), BuildingBlock: CIFDUS_clean_linker_0, # of connection points: 2
#     Edge 30, Type (0, 0), BuildingBlock: CIFDUS_clean_linker_0, # of connection points: 2
#     Edge 31, Type (0, 0), BuildingBlock: CIFDUS_clean_linker_0, # of connection points: 2
#     Edge 32, Type (0, 0), BuildingBlock: CIFDUS_clean_linker_0, # of connection points: 2
#     Edge 33, Type (0, 0), BuildingBlock: CIFDUS_clean_linker_0, # of connection points: 2
#     Edge 34, Type (0, 0), BuildingBlock: CIFDUS_clean_linker_0, # of connection points: 2
#     Edge 35, Type (0, 0), BuildingBlock: CIFDUS_clean_linker_0, # of connection points: 2
#     Edge 36, Type (0, 0), BuildingBlock: CIFDUS_clean_linker_0, # of connection points: 2
#     Edge 37, Type (0, 0), BuildingBlock: CIFDUS_clean_linker_0, # of connection points: 2
#     Edge 38, Type (0, 0), BuildingBlock: CIFDUS_clean_linker_0, # of connection points: 2
#     Edge 39, Type (0, 0), BuildingBlock: CIFDUS_clean_linker_0, # of connection points: 2
#     Edge 40, Type (0, 0), BuildingBlock: CIFDUS_clean_linker_0, # of connection points: 2
#     Edge 41, Type (0, 0), BuildingBlock: CIFDUS_clean_linker_0, # of connection points: 2
#     Edge 42, Type (0, 0), BuildingBlock: CIFDUS_clean_linker_0, # of connection points: 2
#     Edge 43, Type (0, 0), BuildingBlock: CIFDUS_clean_linker_0, # of connection points: 2
#     Edge 44, Type (0, 0), BuildingBlock: CIFDUS_clean_linker_0, # of connection points: 2
#     Edge 45, Type (0, 0), BuildingBlock: CIFDUS_clean_linker_0, # of connection points: 2
#     Edge 46, Type (0, 0), BuildingBlock: CIFDUS_clean_linker_0, # of connection points: 2
#     Edge 47, Type (0, 0), BuildingBlock: CIFDUS_clean_linker_0, # of connection points: 2
#     Edge 48, Type (0, 0), BuildingBlock: CIFDUS_clean_linker_0, # of connection points: 2
#     Edge 49, Type (0, 0), BuildingBlock: CIFDUS_clean_linker_0, # of connection points: 2
#     Edge 50, Type (0, 0), BuildingBlock: CIFDUS_clean_linker_0, # of connection points: 2
#     Edge 51, Type (0, 0), BuildingBlock: CIFDUS_clean_linker_0, # of connection points: 2
#     Edge 52, Type (0, 0), BuildingBlock: CIFDUS_clean_linker_0, # of connection points: 2
#     Edge 53, Type (0, 0), BuildingBlock: CIFDUS_clean_linker_0, # of connection points: 2
#     Edge 54, Type (0, 0), BuildingBlock: CIFDUS_clean_linker_0, # of connection points: 2
#     Edge 55, Type (0, 0), BuildingBlock: CIFDUS_clean_linker_0, # of connection points: 2
#     Edge 56, Type (0, 0), BuildingBlock: CIFDUS_clean_linker_0, # of connection points: 2
#     Edge 57, Type (0, 0), BuildingBlock: CIFDUS_clean_linker_0, # of connection points: 2
#     Edge 58, Type (0, 0), BuildingBlock: CIFDUS_clean_linker_0, # of connection points: 2
#     Edge 59, Type (0, 0), BuildingBlock: CIFDUS_clean_linker_0, # of connection points: 2
#     Edge 60, Type (0, 0), BuildingBlock: CIFDUS_clean_linker_0, # of connection points: 2
#     Edge 61, Type (0, 0), BuildingBlock: CIFDUS_clean_linker_0, # of connection points: 2
#     Edge 62, Type (0, 0), BuildingBlock: CIFDUS_clean_linker_0, # of connection points: 2
#     Edge 63, Type (0, 0), BuildingBlock: CIFDUS_clean_linker_0, # of connection points: 2
#     Edge 64, Type (0, 0), BuildingBlock: CIFDUS_clean_linker_0, # of connection points: 2
#     Edge 65, Type (0, 0), BuildingBlock: CIFDUS_clean_linker_0, # of connection points: 2
#     Edge 66, Type (0, 0), BuildingBlock: CIFDUS_clean_linker_0, # of connection points: 2
#     Edge 67, Type (0, 0), BuildingBlock: CIFDUS_clean_linker_0, # of connection points: 2
#     Edge 68, Type (0, 0), BuildingBlock: CIFDUS_clean_linker_0, # of connection points: 2
#     Edge 69, Type (0, 0), BuildingBlock: CIFDUS_clean_linker_0, # of connection points: 2
#     Edge 70, Type (0, 0), BuildingBlock: CIFDUS_clean_linker_0, # of connection points: 2
#     Edge 71, Type (0, 0), BuildingBlock: CIFDUS_clean_linker_0, # of connection points: 2
# Relax obj value: 0.325
# Max RMSD: 0.239
# Mean RMSD: 0.214
data_MOF--net-unv--node1-CEKHIL_clean_sbu_0--edge1-CIFDUS_clean_linker_0
_symmetry_space_group_name_H-M    P1
_symmetry_Int_Tables_number       1
_symmetry_cell_setting            triclinic
loop_
_symmetry_equiv_pos_as_xyz
'x, y, z'
_cell_length_a     42.029637
_cell_length_b     42.013015
_cell_length_c     41.977428
_cell_angle_alpha  89.979283
_cell_angle_beta   89.999138
_cell_angle_gamma 89.945945
loop_
_atom_site_label
_atom_site_type_symbol
_atom_site_fract_x
_atom_site_fract_y
_atom_site_fract_z
_atom_type_partial_charge
Co0 Co 0.0127 0.1123 0.37904 0.0
O1 O 0.03031 0.15085 0.36087 0.0
O2 O 0.97942 0.13784 0.35997 0.0
C3 C 0.03807 0.11524 0.42667 0.0
O4 O 0.98488 0.07661 0.39646 0.0
Co5 Co 0.05412 0.05458 0.40026 0.0
O6 O 0.01557 0.04331 0.42507 0.0
C7 C 0.03344 0.06007 0.33275 0.0
C8 C 0.00128 0.15887 0.35386 0.0
C9 C 0.98845 0.05387 0.41665 0.0
O10 O 0.01955 0.08706 0.33811 0.0
O11 O 0.04893 0.04458 0.35397 0.0
O12 O 0.01259 0.13191 0.42139 0.0
O13 O 0.04909 0.10019 0.40226 0.0
Co14 Co 0.97427 0.39394 0.37477 0.0
O15 O 0.95582 0.35542 0.35727 0.0
O16 O 0.00696 0.36738 0.3562 0.0
C17 C 0.94795 0.39161 0.42187 0.0
O18 O 0.00318 0.42914 0.39114 0.0
Co19 Co 0.93558 0.45317 0.39661 0.0
O20 O 0.97518 0.46459 0.4197 0.0
C21 C 0.9548 0.44626 0.32848 0.0
C22 C 0.98471 0.34668 0.3505 0.0
C23 C 0.00149 0.45282 0.4104 0.0
O24 O 0.96794 0.41883 0.3336 0.0
O25 O 0.94023 0.46223 0.35001 0.0
O26 O 0.97362 0.37496 0.41751 0.0
O27 O 0.93806 0.40736 0.39746 0.0
Co28 Co 0.01056 0.89332 0.13479 0.0
O29 O 0.02804 0.85594 0.15525 0.0
O30 O 0.97698 0.86827 0.15407 0.0
C31 C 0.03742 0.88771 0.08836 0.0
O32 O 0.98314 0.92811 0.11449 0.0
Co33 Co 0.05238 0.94996 0.11221 0.0
O34 O 0.01527 0.95835 0.08425 0.0
C35 C 0.03074 0.94722 0.17951 0.0
C36 C 0.99894 0.84774 0.16156 0.0
C37 C 0.98768 0.94883 0.09234 0.0
O38 O 0.01635 0.92042 0.17466 0.0
O39 O 0.04687 0.96173 0.15809 0.0
O40 O 0.01171 0.87147 0.09365 0.0
O41 O 0.0476 0.90427 0.11216 0.0
Co42 Co 0.98082 0.61404 0.13189 0.0
O43 O 0.96028 0.65095 0.15047 0.0
O44 O 0.01169 0.6405 0.15348 0.0
C45 C 0.95724 0.61779 0.08344 0.0
O46 O 0.01146 0.58052 0.11461 0.0
Co47 Co 0.94406 0.55512 0.10642 0.0
O48 O 0.98413 0.54759 0.08256 0.0
C49 C 0.95994 0.55943 0.1753 0.0
C50 C 0.98847 0.66017 0.15916 0.0
C51 C 0.01021 0.55896 0.09293 0.0
O52 O 0.97321 0.58698 0.17148 0.0
O53 O 0.94638 0.54407 0.15273 0.0
O54 O 0.98176 0.63527 0.0903 0.0
O55 O 0.94623 0.60099 0.10668 0.0
Co56 Co 0.37941 0.01815 0.1089 0.0
O57 O 0.35824 0.03345 0.14674 0.0
O58 O 0.35827 0.9834 0.13051 0.0
C59 C 0.42636 0.04288 0.11748 0.0
O60 O 0.39984 0.99281 0.07272 0.0
Co61 Co 0.40477 0.06342 0.05602 0.0
O62 O 0.4314 0.026 0.04505 0.0
C63 C 0.33696 0.04447 0.05604 0.0
C64 C 0.35045 0.00405 0.15223 0.0
C65 C 0.42235 0.99809 0.0526 0.0
O66 O 0.34073 0.02743 0.08139 0.0
O67 O 0.35903 0.06097 0.04312 0.0
O68 O 0.41988 0.01631 0.1319 0.0
O69 O 0.40326 0.05505 0.10127 0.0
Co70 Co 0.62551 0.47545 0.10815 0.0
O71 O 0.6415 0.45174 0.14398 0.0
O72 O 0.65 0.50303 0.13602 0.0
C73 C 0.57521 0.45689 0.11125 0.0
O74 O 0.61166 0.50809 0.07476 0.0
Co75 Co 0.59749 0.44119 0.04861 0.0
O76 O 0.57838 0.48364 0.04065 0.0
C77 C 0.66729 0.45054 0.05412 0.0
C78 C 0.65324 0.47829 0.15445 0.0
C79 C 0.59085 0.50871 0.05224 0.0
O80 O 0.66421 0.46446 0.08142 0.0
O81 O 0.64396 0.43878 0.03847 0.0
O82 O 0.58418 0.48036 0.12921 0.0
O83 O 0.59731 0.44384 0.09443 0.0
Co84 Co 0.36823 0.97589 0.38318 0.0
O85 O 0.35114 0.95592 0.34539 0.0
O86 O 0.34382 0.00628 0.35874 0.0
C87 C 0.41838 0.957 0.37763 0.0
O88 O 0.38294 0.00579 0.4183 0.0
Co89 Co 0.39798 0.93823 0.43964 0.0
O90 O 0.41728 0.98003 0.45023 0.0
C91 C 0.32804 0.94942 0.43751 0.0
C92 C 0.34016 0.98382 0.33775 0.0
C93 C 0.40418 0.00551 0.44031 0.0
O94 O 0.33002 0.96364 0.41023 0.0
O95 O 0.35195 0.93705 0.45185 0.0
O96 O 0.40914 0.98179 0.36164 0.0
O97 O 0.39652 0.94296 0.39397 0.0
Co98 Co 0.63039 0.5243 0.38264 0.0
O99 O 0.64831 0.54766 0.34747 0.0
O100 O 0.65347 0.49579 0.35456 0.0
C101 C 0.58118 0.5459 0.37931 0.0
O102 O 0.6141 0.49182 0.4149 0.0
Co103 Co 0.60285 0.55888 0.44239 0.0
O104 O 0.58185 0.51723 0.44938 0.0
C105 C 0.67208 0.54474 0.43847 0.0
C106 C 0.65823 0.52054 0.33651 0.0
C107 C 0.59302 0.49184 0.43714 0.0
O108 O 0.66922 0.53219 0.41047 0.0
O109 O 0.64897 0.55745 0.45375 0.0
O110 O 0.58914 0.52244 0.36085 0.0
O111 O 0.60381 0.55725 0.3966 0.0
Co112 Co 0.10647 0.37461 0.02312 0.0
O113 O 0.14235 0.34925 0.03718 0.0
O114 O 0.1284 0.35633 0.98696 0.0
C115 C 0.11727 0.41741 0.05417 0.0
O116 O 0.07312 0.39995 0.99861 0.0
Co117 Co 0.05342 0.40029 0.0681 0.0
O118 O 0.04455 0.42995 0.03241 0.0
C119 C 0.04783 0.33555 0.03968 0.0
C120 C 0.1489 0.34501 0.00723 0.0
C121 C 0.05309 0.4224 0.00432 0.0
O122 O 0.07549 0.33745 0.02622 0.0
O123 O 0.03592 0.35739 0.05728 0.0
O124 O 0.13212 0.41335 0.02736 0.0
O125 O 0.09857 0.39455 0.06241 0.0
Co126 Co 0.1152 0.62653 0.50026 0.0
O127 O 0.15338 0.64523 0.48288 0.0
O128 O 0.13959 0.64668 0.5337 0.0
C129 C 0.1197 0.57877 0.47571 0.0
O130 O 0.07928 0.60894 0.52758 0.0
Co131 Co 0.05906 0.60313 0.45774 0.0
O132 O 0.0473 0.57913 0.4967 0.0
C133 C 0.06268 0.67105 0.47731 0.0
C134 C 0.16069 0.65297 0.51193 0.0
C135 C 0.05702 0.58831 0.5239 0.0
O136 O 0.0893 0.66663 0.49215 0.0
O137 O 0.04819 0.64925 0.46173 0.0
O138 O 0.1357 0.5846 0.50152 0.0
O139 O 0.10446 0.60272 0.46405 0.0
Co140 Co 0.8908 0.86449 0.48651 0.0
O141 O 0.85389 0.84219 0.47072 0.0
O142 O 0.86627 0.84746 0.52161 0.0
C143 C 0.88422 0.90822 0.45582 0.0
O144 O 0.92538 0.88696 0.51222 0.0
Co145 Co 0.94695 0.88536 0.44299 0.0
O146 O 0.956 0.91507 0.47855 0.0
C147 C 0.94548 0.81985 0.46992 0.0
C148 C 0.84596 0.83785 0.5003 0.0
C149 C 0.94654 0.90836 0.50657 0.0
O150 O 0.91847 0.82494 0.48376 0.0
O151 O 0.95956 0.84035 0.45229 0.0
O152 O 0.86833 0.90509 0.48214 0.0
O153 O 0.90134 0.88405 0.44774 0.0
Co154 Co 0.39433 0.63025 0.53143 0.0
O155 O 0.35657 0.64648 0.55226 0.0
O156 O 0.36763 0.6521 0.50108 0.0
C157 C 0.39196 0.58104 0.55335 0.0
O158 O 0.42874 0.6163 0.50046 0.0
Co159 Co 0.45398 0.60461 0.56699 0.0
O160 O 0.46479 0.58548 0.5251 0.0
C161 C 0.44719 0.67414 0.5542 0.0
C162 C 0.34753 0.65614 0.52426 0.0
C163 C 0.45248 0.59708 0.49995 0.0
O164 O 0.41967 0.67029 0.54091 0.0
O165 O 0.46319 0.65139 0.56672 0.0
O166 O 0.37486 0.5879 0.52852 0.0
O167 O 0.40813 0.60425 0.56515 0.0
Co168 Co 0.51023 0.61254 0.86612 0.0
O169 O 0.53093 0.65048 0.85029 0.0
O170 O 0.48037 0.63857 0.84244 0.0
C171 C 0.52933 0.6162 0.91644 0.0
O172 O 0.47992 0.57704 0.87967 0.0
Co173 Co 0.54761 0.5548 0.89381 0.0
O174 O 0.50579 0.54391 0.91284 0.0
C175 C 0.5369 0.55989 0.82386 0.0
C176 C 0.50337 0.65904 0.83926 0.0
C177 C 0.48028 0.55422 0.90014 0.0
O178 O 0.52237 0.58689 0.82686 0.0
O179 O 0.54924 0.54468 0.84725 0.0
O180 O 0.5046 0.63263 0.90789 0.0
O181 O 0.54306 0.60042 0.89398 0.0
Co182 Co 0.48745 0.89324 0.86274 0.0
O183 O 0.4682 0.85536 0.84511 0.0
O184 O 0.51923 0.86729 0.84159 0.0
C185 C 0.46365 0.88866 0.91084 0.0
O186 O 0.5166 0.92873 0.8788 0.0
Co187 Co 0.44833 0.95075 0.88834 0.0
O188 O 0.48874 0.9622 0.9099 0.0
C189 C 0.46337 0.94576 0.81905 0.0
C190 C 0.49661 0.84676 0.83656 0.0
C191 C 0.515 0.95179 0.89895 0.0
O192 O 0.47832 0.91909 0.82285 0.0
O193 O 0.44922 0.96055 0.84168 0.0
O194 O 0.48945 0.87281 0.90472 0.0
O195 O 0.45229 0.9051 0.88757 0.0
Co196 Co 0.53608 0.38985 0.6281 0.0
O197 O 0.55696 0.35493 0.64937 0.0
O198 O 0.50488 0.36158 0.64718 0.0
C199 C 0.56482 0.38594 0.58275 0.0
O200 O 0.50584 0.42179 0.60707 0.0
Co201 Co 0.57285 0.44981 0.60506 0.0
O202 O 0.53516 0.45504 0.5771 0.0
C203 C 0.55058 0.44572 0.67221 0.0
C204 C 0.52884 0.34373 0.65543 0.0
C205 C 0.50849 0.44322 0.58526 0.0
O206 O 0.53848 0.4178 0.66757 0.0
O207 O 0.56583 0.46121 0.65083 0.0
O208 O 0.54031 0.36772 0.58725 0.0
O209 O 0.57241 0.40397 0.60639 0.0
Co210 Co 0.48123 0.11484 0.62478 0.0
O211 O 0.4575 0.15066 0.64078 0.0
O212 O 0.50897 0.14331 0.64844 0.0
C213 C 0.46164 0.11733 0.57468 0.0
O214 O 0.51385 0.08157 0.61075 0.0
Co215 Co 0.44696 0.0549 0.59752 0.0
O216 O 0.48925 0.04689 0.57817 0.0
C217 C 0.45871 0.06034 0.66717 0.0
C218 C 0.48417 0.16163 0.65174 0.0
C219 C 0.51437 0.05871 0.59032 0.0
O220 O 0.47142 0.08819 0.66397 0.0
O221 O 0.44681 0.04448 0.64401 0.0
O222 O 0.48512 0.13551 0.58307 0.0
O223 O 0.4492 0.10063 0.59722 0.0
Co224 Co 0.86087 0.52881 0.6155 0.0
O225 O 0.83871 0.54916 0.65012 0.0
O226 O 0.84044 0.49721 0.64247 0.0
C227 C 0.90625 0.55677 0.62209 0.0
O228 O 0.8827 0.4992 0.58338 0.0
Co229 Co 0.88671 0.56737 0.55765 0.0
O230 O 0.914 0.52929 0.55202 0.0
C231 C 0.81919 0.54612 0.55862 0.0
C232 C 0.83206 0.52092 0.66062 0.0
C233 C 0.90516 0.50234 0.56268 0.0
O234 O 0.82258 0.53273 0.58618 0.0
O235 O 0.8413 0.5617 0.54458 0.0
O236 O 0.90083 0.53172 0.63931 0.0
O237 O 0.88348 0.56524 0.60335 0.0
Co238 Co 0.13816 0.96733 0.61276 0.0
O239 O 0.15517 0.94385 0.64847 0.0
O240 O 0.16078 0.99561 0.64164 0.0
C241 C 0.08913 0.94526 0.61593 0.0
O242 O 0.12298 1.00007 0.57997 0.0
Co243 Co 0.11064 0.93351 0.55257 0.0
O244 O 0.09153 0.97581 0.54403 0.0
C245 C 0.18032 0.94617 0.55763 0.0
C246 C 0.16484 0.97085 0.65987 0.0
C247 C 0.10315 1.0008 0.55658 0.0
O248 O 0.17742 0.95897 0.58555 0.0
O249 O 0.15709 0.9338 0.54225 0.0
O250 O 0.09648 0.9693 0.63384 0.0
O251 O 0.11174 0.93437 0.59834 0.0
Co252 Co 0.86475 0.47513 0.89032 0.0
O253 O 0.84996 0.45095 0.85427 0.0
O254 O 0.84101 0.50227 0.86117 0.0
C255 C 0.91499 0.45594 0.88847 0.0
O256 O 0.8773 0.50822 0.92386 0.0
Co257 Co 0.89155 0.44135 0.95093 0.0
O258 O 0.90802 0.48439 0.96085 0.0
C259 C 0.82174 0.45035 0.94328 0.0
C260 C 0.83848 0.47729 0.84298 0.0
C261 C 0.89609 0.50919 0.94811 0.0
O262 O 0.8253 0.46436 0.91607 0.0
O263 O 0.84479 0.43853 0.95935 0.0
O264 O 0.9068 0.47963 0.87041 0.0
O265 O 0.8925 0.44354 0.90516 0.0
Co266 Co 0.13946 0.01856 0.89182 0.0
O267 O 0.15359 0.04089 0.8543 0.0
O268 O 0.16124 0.98961 0.86273 0.0
C269 C 0.08931 0.03829 0.89192 0.0
O270 O 0.12701 0.9875 0.92718 0.0
Co271 Co 0.11641 0.05679 0.95157 0.0
O272 O 0.09857 0.0148 0.96369 0.0
C273 C 0.18546 0.04483 0.94176 0.0
C274 C 0.16381 0.01385 0.84353 0.0
C275 C 0.10892 0.98882 0.95193 0.0
O276 O 0.18024 0.02883 0.91593 0.0
O277 O 0.16351 0.05926 0.95723 0.0
O278 O 0.09653 0.01429 0.87386 0.0
O279 O 0.11296 0.05137 0.90633 0.0
Co280 Co 0.61357 0.86733 0.51734 0.0
O281 O 0.65112 0.85149 0.53864 0.0
O282 O 0.63889 0.84202 0.48833 0.0
C283 C 0.61821 0.91816 0.53449 0.0
O284 O 0.57845 0.88053 0.48649 0.0
Co285 Co 0.55635 0.89701 0.55372 0.0
O286 O 0.54612 0.91521 0.51129 0.0
C287 C 0.56033 0.82682 0.5456 0.0
C288 C 0.65931 0.83923 0.51146 0.0
C289 C 0.55623 0.90161 0.48615 0.0
O290 O 0.58727 0.82911 0.53087 0.0
O291 O 0.54538 0.85074 0.55717 0.0
O292 O 0.6345 0.90833 0.51014 0.0
O293 O 0.60201 0.89658 0.54913 0.0
Co294 Co 0.61581 0.14164 0.97723 0.0
O295 O 0.65422 0.15843 0.95783 0.0
O296 O 0.64023 0.1657 0.00798 0.0
C297 C 0.62098 0.09127 0.95825 0.0
O298 O 0.58027 0.1273 0.0068 0.0
Co299 Co 0.55967 0.11192 0.93878 0.0
O300 O 0.54766 0.09381 0.9808 0.0
C301 C 0.56157 0.18191 0.95053 0.0
C302 C 0.66164 0.16918 0.9859 0.0
C303 C 0.55768 0.10675 0.00632 0.0
O304 O 0.5889 0.18018 0.96477 0.0
O305 O 0.54762 0.15793 0.93793 0.0
O306 O 0.63677 0.10029 0.98323 0.0
O307 O 0.60513 0.1134 0.9441 0.0
Co308 Co 0.37997 0.36415 0.97468 0.0
O309 O 0.34194 0.3466 0.95547 0.0
O310 O 0.35602 0.33994 0.0057 0.0
C311 C 0.3738 0.41424 0.95546 0.0
O312 O 0.41538 0.37942 0.00391 0.0
Co313 Co 0.43543 0.39423 0.93572 0.0
O314 O 0.44677 0.41361 0.97733 0.0
C315 C 0.43489 0.32444 0.94857 0.0
C316 C 0.33465 0.33605 0.98364 0.0
C317 C 0.43738 0.40062 0.00307 0.0
O318 O 0.40744 0.32598 0.96257 0.0
O319 O 0.4486 0.34846 0.93576 0.0
O320 O 0.35821 0.40501 0.98049 0.0
O321 O 0.38999 0.39233 0.94131 0.0
Co322 Co 0.89138 0.13666 0.02345 0.0
O323 O 0.85371 0.1585 0.03866 0.0
O324 O 0.8702 0.15857 0.98875 0.0
C325 C 0.8804 0.08987 0.04828 0.0
O326 O 0.92737 0.11651 0.99804 0.0
Co327 Co 0.9424 0.1061 0.06819 0.0
O328 O 0.95753 0.08471 0.02879 0.0
C329 C 0.94709 0.17476 0.04918 0.0
C330 C 0.84816 0.16608 0.00918 0.0
C331 C 0.94965 0.09584 1.0017 0.0
O332 O 0.92089 0.17405 0.03286 0.0
O333 O 0.95724 0.15119 0.06569 0.0
O334 O 0.86726 0.09667 0.02115 0.0
O335 O 0.8978 0.11199 0.06029 0.0
H336 H 0.04744 0.03259 0.54926 0.0
H337 H 0.14674 0.03454 0.52404 0.0
H338 H 0.13607 0.07469 0.48314 0.0
H339 H 0.09689 0.10183 0.44883 0.0
H340 H 0.99808 0.10287 0.47609 0.0
H341 H 0.01003 0.06947 0.52234 0.0
C342 C 0.06678 0.04272 0.5355 0.0
C343 C 0.09777 0.0308 0.53941 0.0
C344 C 0.06046 0.06599 0.51223 0.0
C345 C 0.12277 0.04376 0.5215 0.0
C346 C 0.11662 0.06645 0.49795 0.0
C347 C 0.07823 0.09564 0.46558 0.0
C348 C 0.04665 0.10435 0.45897 0.0
C349 C 0.08537 0.07674 0.49226 0.0
C350 C 0.0226 0.09644 0.4808 0.0
C351 C 0.02937 0.07708 0.50707 0.0
H352 H 0.98207 0.41408 0.47149 0.0
H353 H 0.88691 0.39047 0.44189 0.0
H354 H 0.86503 0.4177 0.48856 0.0
H355 H 0.87266 0.45648 0.53179 0.0
H356 H 0.96734 0.48715 0.55567 0.0
H357 H 0.98995 0.44899 0.51789 0.0
C358 C 0.95665 0.41399 0.47602 0.0
C359 C 0.93604 0.40007 0.45372 0.0
C360 C 0.94423 0.43152 0.50172 0.0
C361 C 0.90311 0.40081 0.45909 0.0
C362 C 0.89063 0.4166 0.48559 0.0
C363 C 0.89824 0.45384 0.52947 0.0
C364 C 0.91845 0.47413 0.54667 0.0
C365 C 0.91087 0.43323 0.50628 0.0
C366 C 0.95151 0.4714 0.54287 0.0
C367 C 0.96437 0.44978 0.5211 0.0
H368 H 0.09733 0.89935 0.06838 0.0
H369 H 1.00013 0.89526 0.03599 0.0
H370 H 0.01476 0.92305 0.98695 0.0
H371 H 0.05357 0.9568 0.95835 0.0
H372 H 0.15114 0.95876 0.98953 0.0
H373 H 0.13835 0.92291 0.03369 0.0
C374 C 0.07964 0.90365 0.05005 0.0
C375 C 0.04773 0.89569 0.05578 0.0
C376 C 0.08829 0.91944 0.02187 0.0
C377 C 0.02491 0.9011 0.03194 0.0
C378 C 0.0332 0.91726 0.00404 0.0
C379 C 0.07216 0.94825 0.97411 0.0
C380 C 0.10321 0.96008 0.97088 0.0
C381 C 0.06456 0.92771 0.99941 0.0
C382 C 0.12719 0.94944 0.99152 0.0
C383 C 0.11979 0.92928 0.01692 0.0
H384 H 0.89901 0.60554 0.0595 0.0
H385 H 0.9983 0.60843 0.03424 0.0
H386 H 0.98738 0.57775 0.9859 0.0
H387 H 0.95076 0.54219 0.95649 0.0
H388 H 0.85118 0.54142 0.98055 0.0
H389 H 0.86065 0.57997 0.02321 0.0
C390 C 0.91799 0.60041 0.04275 0.0
C391 C 0.9494 0.6088 0.05043 0.0
C392 C 0.91146 0.58298 0.01497 0.0
C393 C 0.97391 0.60224 0.02867 0.0
C394 C 0.96771 0.58444 1.0012 0.0
C395 C 0.93108 0.55142 0.9704 0.0
C396 C 0.90038 0.53912 0.96565 0.0
C397 C 0.93678 0.57353 0.99488 0.0
C398 C 0.87492 0.55096 0.98371 0.0
C399 C 0.88041 0.57269 0.00829 0.0
H400 H 0.44801 0.10176 0.10506 0.0
H401 H 0.47765 0.00368 0.11035 0.0
H402 H 0.52483 0.01579 0.07851 0.0
H403 H 0.55078 0.05209 0.03989 0.0
H404 H 0.52213 0.15051 0.03647 0.0
H405 H 0.48127 0.14059 0.07678 0.0
C406 C 0.46546 0.08334 0.10019 0.0
C407 C 0.45923 0.05187 0.10946 0.0
C408 C 0.49215 0.09038 0.08149 0.0
C409 C 0.48202 0.02814 0.10345 0.0
C410 C 0.50874 0.03495 0.08482 0.0
C411 C 0.53614 0.07142 0.04878 0.0
C412 C 0.53891 0.10183 0.03528 0.0
C413 C 0.513 0.06559 0.07221 0.0
C414 C 0.52015 0.12693 0.04676 0.0
C415 C 0.49678 0.12124 0.06964 0.0
H416 H 0.54524 0.40102 0.10411 0.0
H417 H 0.5317 0.50233 0.09627 0.0
H418 H 0.48428 0.49396 0.06343 0.0
H419 H 0.45298 0.45745 0.0293 0.0
H420 H 0.46465 0.35611 0.04031 0.0
H421 H 0.50624 0.36464 0.08012 0.0
C422 C 0.5311 0.42116 0.09622 0.0
C423 C 0.54187 0.45215 0.1021 0.0
C424 C 0.50392 0.4161 0.07759 0.0
C425 C 0.52358 0.47824 0.09202 0.0
C426 C 0.49674 0.47345 0.07294 0.0
C427 C 0.4641 0.43737 0.04117 0.0
C428 C 0.45633 0.40626 0.03184 0.0
C429 C 0.48763 0.44248 0.06436 0.0
C430 C 0.47044 0.38025 0.04733 0.0
C431 C 0.49429 0.38511 0.06989 0.0
H432 H 0.54126 0.95794 0.45862 0.0
H433 H 0.52952 0.85652 0.44898 0.0
H434 H 0.48788 0.86472 0.40907 0.0
H435 H 0.44858 0.90099 0.38496 0.0
H436 H 0.46215 0.00237 0.39195 0.0
H437 H 0.50987 0.99414 0.42428 0.0
C438 C 0.53019 0.93774 0.44697 0.0
C439 C 0.53794 0.90673 0.45678 0.0
C440 C 0.50655 0.94266 0.42384 0.0
C441 C 0.52381 0.88058 0.4416 0.0
C442 C 0.49989 0.88527 0.41899 0.0
C443 C 0.46278 0.92117 0.39255 0.0
C444 C 0.45187 0.95216 0.38653 0.0
C445 C 0.49016 0.91621 0.411 0.0
C446 C 0.4703 0.97827 0.39623 0.0
C447 C 0.49734 0.97357 0.41506 0.0
H448 H 0.46354 0.5425 0.46696 0.0
H449 H 0.48091 0.64356 0.46678 0.0
H450 H 0.51928 0.63746 0.42344 0.0
H451 H 0.55428 0.60212 0.39284 0.0
H452 H 0.53532 0.50145 0.39016 0.0
H453 H 0.49035 0.50855 0.42658 0.0
C454 C 0.47523 0.56313 0.45675 0.0
C455 C 0.47004 0.59333 0.47004 0.0
C456 C 0.49684 0.55948 0.43145 0.0
C457 C 0.48483 0.62012 0.45674 0.0
C458 C 0.50676 0.61663 0.43209 0.0
C459 C 0.5394 0.58199 0.3992 0.0
C460 C 0.54816 0.55134 0.38939 0.0
C461 C 0.51383 0.58629 0.42017 0.0
C462 C 0.52883 0.52532 0.39747 0.0
C463 C 0.50344 0.52931 0.41867 0.0
H464 H 0.10674 0.47227 0.02224 0.0
H465 H 0.11312 0.43243 0.11658 0.0
H466 H 0.08547 0.47866 0.13858 0.0
H467 H 0.04917 0.52351 0.12901 0.0
H468 H 0.03539 0.558 0.03343 0.0
H469 H 0.07672 0.52181 0.01384 0.0
C470 C 0.10329 0.4745 0.04776 0.0
C471 C 0.11188 0.44918 0.06787 0.0
C472 C 0.08531 0.50001 0.05984 0.0
C473 C 0.10672 0.45181 0.10079 0.0
C474 C 0.09059 0.47804 0.11328 0.0
C475 C 0.05604 0.52364 0.10409 0.0
C476 C 0.03962 0.54323 0.0826 0.0
C477 C 0.07814 0.50127 0.09278 0.0
C478 C 0.04798 0.54304 0.05027 0.0
C479 C 0.07139 0.52222 0.0391 0.0
H480 H 0.03205 0.46056 0.46699 0.0
H481 H 0.03493 0.4863 0.36767 0.0
H482 H 0.07721 0.52482 0.37829 0.0
H483 H 0.10687 0.55665 0.41718 0.0
H484 H 0.10653 0.52968 0.51617 0.0
H485 H 0.07063 0.48535 0.50438 0.0
C486 C 0.04261 0.47414 0.44772 0.0
C487 C 0.03048 0.47111 0.41671 0.0
C488 C 0.06729 0.49586 0.45395 0.0
C489 C 0.04413 0.48849 0.3917 0.0
C490 C 0.06817 0.51049 0.39777 0.0
C491 C 0.09989 0.54027 0.4359 0.0
C492 C 0.10893 0.54648 0.46745 0.0
C493 C 0.07914 0.51512 0.42895 0.0
C494 C 0.09996 0.52517 0.49163 0.0
C495 C 0.07903 0.50014 0.48497 0.0
H496 H 0.89571 0.96283 0.4877 0.0
H497 H 0.89114 0.92246 0.39348 0.0
H498 H 0.91832 0.96901 0.37158 0.0
H499 H 0.95226 0.01558 0.38102 0.0
H500 H 0.96395 0.05126 0.47641 0.0
H501 H 0.92463 0.01301 0.49617 0.0
C502 C 0.89959 0.96493 0.46223 0.0
C503 C 0.8914 0.93955 0.44208 0.0
C504 C 0.91708 0.99075 0.45022 0.0
C505 C 0.8972 0.94194 0.40926 0.0
C506 C 0.91298 0.96837 0.39683 0.0
C507 C 0.9454 0.01541 0.40595 0.0
C508 C 0.9605 0.03606 0.42732 0.0
C509 C 0.9244 0.99209 0.41731 0.0
C510 C 0.95228 0.03551 0.45967 0.0
C511 C 0.93003 0.01354 0.47093 0.0
H512 H 0.41685 0.53617 0.51474 0.0
H513 H 0.38875 0.55419 0.61169 0.0
H514 H 0.41768 0.50684 0.6295 0.0
H515 H 0.45949 0.46733 0.61888 0.0
H516 H 0.49502 0.45592 0.52338 0.0
H517 H 0.45486 0.49308 0.50333 0.0
C518 C 0.41621 0.52894 0.53954 0.0
C519 C 0.40057 0.54823 0.56192 0.0
C520 C 0.43488 0.50313 0.54985 0.0
C521 C 0.40043 0.53932 0.59412 0.0
C522 C 0.41723 0.51249 0.60431 0.0
C523 C 0.45759 0.47221 0.59356 0.0
C524 C 0.47982 0.45883 0.5725 0.0
C525 C 0.43581 0.49516 0.58262 0.0
C526 C 0.47788 0.46587 0.53986 0.0
C527 C 0.45509 0.48727 0.52848 0.0
H528 H 0.53339 0.5345 0.03905 0.0
H529 H 0.6341 0.54853 0.0262 0.0
H530 H 0.6237 0.58831 0.98487 0.0
H531 H 0.58597 0.61081 0.94589 0.0
H532 H 0.4852 0.59915 0.96048 0.0
H533 H 0.49538 0.56714 0.00813 0.0
C534 C 0.55294 0.54717 0.02793 0.0
C535 C 0.58442 0.53862 0.03527 0.0
C536 C 0.54673 0.57007 0.00435 0.0
C537 C 0.6097 0.555 0.02092 0.0
C538 C 0.60375 0.57748 0.99711 0.0
C539 C 0.56631 0.60226 0.96029 0.0
C540 C 0.53497 0.60693 0.94974 0.0
C541 C 0.57239 0.58408 0.98767 0.0
C542 C 0.50953 0.59593 0.96839 0.0
C543 C 0.51536 0.57734 0.9954 0.0
H544 H 0.39095 0.95028 0.02344 0.0
H545 H 0.48482 0.98747 0.04074 0.0
H546 H 0.50753 0.94941 0.00307 0.0
H547 H 0.49925 0.91276 0.95827 0.0
H548 H 0.4042 0.883 0.93445 0.0
H549 H 0.38331 0.90991 0.98176 0.0
C550 C 0.41645 0.94932 0.01951 0.0
C551 C 0.4363 0.97138 0.03478 0.0
C552 C 0.42901 0.92874 0.99633 0.0
C553 C 0.46921 0.97058 0.02918 0.0
C554 C 0.48215 0.94894 0.00754 0.0
C555 C 0.47417 0.91128 0.96423 0.0
C556 C 0.45322 0.8958 0.94338 0.0
C557 C 0.46212 0.92885 0.99 0.0
C558 C 0.42066 0.89459 0.95058 0.0
C559 C 0.40872 0.91025 0.97737 0.0
H560 H 0.53044 0.39522 0.52923 0.0
H561 H 0.6261 0.39534 0.56605 0.0
H562 H 0.64503 0.42249 0.51813 0.0
H563 H 0.63223 0.4558 0.47191 0.0
H564 H 0.53515 0.46338 0.44015 0.0
H565 H 0.51879 0.42311 0.47901 0.0
C566 C 0.55559 0.40013 0.52606 0.0
C567 C 0.57699 0.39331 0.55081 0.0
C568 C 0.56583 0.41763 0.49946 0.0
C569 C 0.60937 0.40038 0.54706 0.0
C570 C 0.6201 0.4161 0.51983 0.0
C571 C 0.60775 0.44764 0.47285 0.0
C572 C 0.5849 0.462 0.45323 0.0
C573 C 0.59828 0.42627 0.4967 0.0
C574 C 0.55306 0.45222 0.45497 0.0
C575 C 0.54371 0.42949 0.47738 0.0
H576 H 0.40543 0.1094 0.54552 0.0
H577 H 0.50655 0.10175 0.53082 0.0
H578 H 0.49773 0.06764 0.48438 0.0
H579 H 0.46102 0.03242 0.45455 0.0
H580 H 0.35982 0.04316 0.46727 0.0
H581 H 0.36868 0.08416 0.50762 0.0
C582 C 0.42541 0.10127 0.53129 0.0
C583 C 0.4565 0.1076 0.54152 0.0
C584 C 0.4201 0.08187 0.50468 0.0
C585 C 0.48238 0.09719 0.52311 0.0
C586 C 0.47734 0.07737 0.49685 0.0
C587 C 0.44102 0.04446 0.46562 0.0
C588 C 0.40988 0.03472 0.45854 0.0
C589 C 0.44631 0.06834 0.48841 0.0
C590 C 0.38398 0.05045 0.47255 0.0
C591 C 0.38903 0.07371 0.49569 0.0
H592 H 0.0201 0.62585 0.55944 0.0
H593 H 0.05095 0.52877 0.54831 0.0
H594 H 0.01041 0.51099 0.58629 0.0
H595 H 0.95945 0.52205 0.61302 0.0
H596 H 0.92389 0.6182 0.61623 0.0
H597 H 0.97282 0.63769 0.59149 0.0
C598 C 0.01838 0.60097 0.56618 0.0
C599 C 0.03827 0.57856 0.55155 0.0
C600 C 0.99369 0.59082 0.58616 0.0
C601 C 0.03574 0.54628 0.55958 0.0
C602 C 0.01244 0.53616 0.58102 0.0
C603 C 0.96309 0.54736 0.60938 0.0
C604 C 0.93847 0.56881 0.61643 0.0
C605 C 0.99028 0.55802 0.59317 0.0
C606 C 0.94281 0.60144 0.611 0.0
C607 C 0.97059 0.6125 0.59663 0.0
H608 H 0.97295 0.87721 0.556 0.0
H609 H 0.96143 0.97053 0.51522 0.0
H610 H 1.00011 0.99236 0.55287 0.0
H611 H 0.04381 0.98273 0.59059 0.0
H612 H 0.06236 0.88734 0.62309 0.0
H613 H 0.01399 0.8684 0.59672 0.0
C614 C 0.97826 0.90249 0.55616 0.0
C615 C 0.9643 0.92243 0.53325 0.0
C616 C 0.00204 0.91432 0.57643 0.0
C617 C 0.97183 0.95495 0.53291 0.0
C618 C 0.99405 0.96733 0.55429 0.0
C619 C 0.03656 0.95805 0.59264 0.0
C620 C 0.05616 0.9364 0.60884 0.0
C621 C 0.01026 0.94698 0.57526 0.0
C622 C 0.0472 0.90434 0.61097 0.0
C623 C 0.0198 0.89351 0.59562 0.0
H624 H 0.03145 0.39233 0.95199 0.0
H625 H 0.03397 0.48394 0.99793 0.0
H626 H 0.9968 0.50531 0.9586 0.0
H627 H 0.95651 0.49504 0.91738 0.0
H628 H 0.94599 0.40033 0.87985 0.0
H629 H 0.99385 0.38311 0.90832 0.0
C630 C 0.0245 0.4172 0.95275 0.0
C631 C 0.03555 0.43671 0.97754 0.0
C632 C 0.00143 0.42859 0.93143 0.0
C633 C 0.02588 0.46866 0.97887 0.0
C634 C 0.00448 0.48078 0.95649 0.0
C635 C 0.96537 0.47093 0.91484 0.0
C636 C 0.94816 0.44892 0.8966 0.0
C637 C 0.9911 0.46061 0.9335 0.0
C638 C 0.9593 0.41762 0.89358 0.0
C639 C 0.98637 0.40774 0.91015 0.0
H640 H 0.06223 0.09474 0.90457 0.0
H641 H 0.04498 0.99377 0.90773 0.0
H642 H 0.99809 0.00243 0.94138 0.0
H643 H 0.9663 0.03885 0.97552 0.0
H644 H 0.98188 0.13998 0.96883 0.0
H645 H 0.02499 0.13138 0.93073 0.0
C646 C 0.04753 0.07478 0.91181 0.0
C647 C 0.05687 0.04374 0.90388 0.0
C648 C 0.02061 0.08001 0.93083 0.0
C649 C 0.0379 0.01792 0.91335 0.0
C650 C 0.01135 0.02285 0.93288 0.0
C651 C 0.97875 0.05887 0.96506 0.0
C652 C 0.97122 0.08994 0.97483 0.0
C653 C 0.00311 0.05375 0.94263 0.0
C654 C 0.98727 0.1159 0.96129 0.0
C655 C 0.01198 0.11099 0.93969 0.0
H656 H 0.53995 0.04299 0.53334 0.0
H657 H 0.55389 0.03402 0.63464 0.0
H658 H 0.59252 0.9913 0.62599 0.0
H659 H 0.61365 0.95004 0.58993 0.0
H660 H 0.60224 0.96072 0.48851 0.0
H661 H 0.57169 0.00965 0.49664 0.0
C662 C 0.55241 0.03242 0.55336 0.0
C663 C 0.5441 0.04125 0.58455 0.0
C664 C 0.57463 0.00798 0.54816 0.0
C665 C 0.5602 0.0276 0.61044 0.0
C666 C 0.582 0.00298 0.60551 0.0
C667 C 0.60548 0.96384 0.56966 0.0
C668 C 0.60973 0.95184 0.53876 0.0
C669 C 0.5882 0.992 0.57455 0.0
C670 C 0.59928 0.96972 0.51251 0.0
C671 C 0.58154 0.99749 0.51718 0.0
H672 H 0.61508 0.06088 0.90207 0.0
H673 H 0.60396 0.04792 0.00325 0.0
H674 H 0.57163 1.00037 0.99402 0.0
H675 H 0.53931 0.96822 0.95654 0.0
H676 H 0.55367 0.97902 0.85552 0.0
H677 H 0.5925 0.02131 0.8651 0.0
C678 C 0.60657 0.04687 0.92205 0.0
C679 C 0.61156 0.05787 0.95322 0.0
C680 C 0.58828 0.01947 0.91651 0.0
C681 C 0.60054 0.03969 0.97903 0.0
C682 C 0.58174 0.01273 0.97374 0.0
C683 C 0.55172 0.97926 0.93679 0.0
C684 C 0.54362 0.97089 0.90541 0.0
C685 C 0.57434 0.00323 0.94254 0.0
C686 C 0.55976 0.9851 0.87985 0.0
C687 C 0.58175 0.0094 0.88532 0.0
H688 H 0.45338 0.53836 0.9566 0.0
H689 H 0.44351 0.52696 0.85508 0.0
H690 H 0.40461 0.48442 0.8632 0.0
H691 H 0.38119 0.44459 0.89939 0.0
H692 H 0.38816 0.45799 1.0009 0.0
H693 H 0.41984 0.50612 0.99278 0.0
C694 C 0.44186 0.52717 0.93636 0.0
C695 C 0.4513 0.53537 0.90533 0.0
C696 C 0.41927 0.50302 0.94125 0.0
C697 C 0.43636 0.52098 0.87915 0.0
C698 C 0.41435 0.49653 0.8838 0.0
C699 C 0.38865 0.45881 0.91963 0.0
C700 C 0.38274 0.44777 0.95063 0.0
C701 C 0.40666 0.4865 0.91474 0.0
C702 C 0.39232 0.46624 0.9768 0.0
C703 C 0.41077 0.49353 0.97216 0.0
H704 H 0.90278 0.04109 0.01325 0.0
H705 H 0.87254 0.06673 0.1078 0.0
H706 H 0.89851 0.01935 0.12961 0.0
H707 H 0.93912 0.97765 0.123 0.0
H708 H 0.97661 0.95826 0.02951 0.0
H709 H 0.93859 0.99549 0.00587 0.0
C710 C 0.90081 0.03545 0.0384 0.0
C711 C 0.8856 0.05697 0.05894 0.0
C712 C 0.91791 0.00959 0.05099 0.0
C713 C 0.88387 0.05013 0.09161 0.0
C714 C 0.89906 0.0233 0.1041 0.0
C715 C 0.93815 0.98093 0.09738 0.0
C716 C 0.96036 0.96532 0.07791 0.0
C717 C 0.91758 0.00385 0.08424 0.0
C718 C 0.95957 0.97011 0.04483 0.0
C719 C 0.93799 0.99151 0.03136 0.0
H720 H 0.04167 0.20841 0.34224 0.0
H721 H 0.94197 0.18419 0.34531 0.0
H722 H 0.9278 0.24037 0.34056 0.0
H723 H 0.94376 0.29679 0.34255 0.0
H724 H 0.04351 0.32092 0.34029 0.0
H725 H 0.05746 0.26461 0.33724 0.0
C726 C 0.01682 0.21533 0.34122 0.0
C727 C 0.99296 0.19201 0.34449 0.0
C728 C 0.00879 0.24783 0.33893 0.0
C729 C 0.96089 0.20153 0.34298 0.0
C730 C 0.95273 0.23375 0.34042 0.0
C731 C 0.96853 0.28979 0.34071 0.0
C732 C 0.99253 0.31317 0.34201 0.0
C733 C 0.97648 0.2572 0.33943 0.0
C734 C 0.0245 0.30355 0.3395 0.0
C735 C 0.03255 0.27126 0.33791 0.0
H736 H 0.94539 0.70832 0.16704 0.0
H737 H 0.04563 0.68717 0.17416 0.0
H738 H 0.0574 0.74372 0.18017 0.0
H739 H 0.04002 0.79947 0.17565 0.0
H740 H 0.93994 0.82081 0.16721 0.0
H741 H 0.92738 0.76412 0.17006 0.0
C742 C 0.96976 0.71599 0.17061 0.0
C743 C 0.99461 0.69343 0.16972 0.0
C744 C 0.97646 0.74874 0.17351 0.0
C745 C 0.02602 0.70391 0.17453 0.0
C746 C 0.03281 0.73634 0.17783 0.0
C747 C 0.01539 0.79181 0.17515 0.0
C748 C 0.99101 0.81447 0.17081 0.0
C749 C 0.00835 0.75905 0.17618 0.0
C750 C 0.95924 0.804 0.1704 0.0
C751 C 0.95202 0.77149 0.17183 0.0
H752 H 0.33067 0.04202 0.20093 0.0
H753 H 0.34441 0.94352 0.1753 0.0
H754 H 0.33728 0.92775 0.23084 0.0
H755 H 0.33582 0.94288 0.2875 0.0
H756 H 0.32329 0.04158 0.31309 0.0
H757 H 0.32064 0.05615 0.25688 0.0
C758 C 0.33138 0.01702 0.20736 0.0
C759 C 0.33857 0.99406 0.18401 0.0
C760 C 0.32779 0.00815 0.23949 0.0
C761 C 0.33909 0.96175 0.19275 0.0
C762 C 0.3352 0.9527 0.22461 0.0
C763 C 0.33169 0.96748 0.28083 0.0
C764 C 0.33027 0.99115 0.30457 0.0
C765 C 0.33084 0.97583 0.24835 0.0
C766 C 0.32471 0.02287 0.2954 0.0
C767 C 0.32339 0.03128 0.26319 0.0
H768 H 0.66741 0.53213 0.18811 0.0
H769 H 0.66393 0.4298 0.19617 0.0
H770 H 0.67039 0.43362 0.25374 0.0
H771 H 0.66834 0.46618 0.30237 0.0
H772 H 0.67019 0.56856 0.29447 0.0
H773 H 0.67369 0.56449 0.23662 0.0
C774 C 0.66889 0.51064 0.20236 0.0
C775 C 0.6647 0.48077 0.18782 0.0
C776 C 0.67196 0.513 0.23571 0.0
C777 C 0.66675 0.45316 0.20671 0.0
C778 C 0.67033 0.4553 0.23974 0.0
C779 C 0.67037 0.48759 0.28807 0.0
C780 C 0.66852 0.51761 0.30279 0.0
C781 C 0.67165 0.48512 0.25463 0.0
C782 C 0.67126 0.5451 0.28382 0.0
C783 C 0.6731 0.54283 0.25063 0.0
H784 H 0.28348 0.33221 0.94372 0.0
H785 H 0.31093 0.31939 0.04194 0.0
H786 H 0.25506 0.31642 0.05754 0.0
H787 H 0.19867 0.3257 0.04441 0.0
H788 H 0.17133 0.33988 0.94634 0.0
H789 H 0.22661 0.33357 0.92965 0.0
C790 C 0.2773 0.32798 0.96845 0.0
C791 C 0.30151 0.32644 0.99165 0.0
C792 C 0.24498 0.32693 0.9774 0.0
C793 C 0.29292 0.32084 0.02355 0.0
C794 C 0.26088 0.31933 0.03255 0.0
C795 C 0.20465 0.32666 0.0193 0.0
C796 C 0.1808 0.33368 0.99674 0.0
C797 C 0.23671 0.3236 0.00986 0.0
C798 C 0.18911 0.33469 0.96429 0.0
C799 C 0.22083 0.33126 0.95471 0.0
H800 H 0.20866 0.66902 0.47146 0.0
H801 H 0.18667 0.65876 0.57133 0.0
H802 H 0.24306 0.66334 0.58458 0.0
H803 H 0.29902 0.66217 0.56708 0.0
H804 H 0.32081 0.67147 0.46704 0.0
H805 H 0.26426 0.67584 0.45472 0.0
C806 C 0.21611 0.66848 0.49619 0.0
C807 C 0.19347 0.66309 0.5203 0.0
C808 C 0.24868 0.67061 0.50362 0.0
C809 C 0.20355 0.66273 0.55224 0.0
C810 C 0.23588 0.66515 0.55985 0.0
C811 C 0.29145 0.66588 0.54266 0.0
C812 C 0.31418 0.66601 0.518 0.0
C813 C 0.25875 0.66787 0.53564 0.0
C814 C 0.3039 0.67104 0.48651 0.0
C815 C 0.27149 0.67339 0.47939 0.0
H816 H 0.70729 0.83374 0.55477 0.0
H817 H 0.68588 0.82015 0.45516 0.0
H818 H 0.74243 0.81354 0.44357 0.0
H819 H 0.7981 0.81994 0.46043 0.0
H820 H 0.81954 0.83529 0.55977 0.0
H821 H 0.76299 0.83229 0.57277 0.0
C822 C 0.7149 0.82862 0.53062 0.0
C823 C 0.69233 0.82792 0.50581 0.0
C824 C 0.74759 0.82548 0.524 0.0
C825 C 0.70267 0.82102 0.47471 0.0
C826 C 0.73509 0.81741 0.46802 0.0
C827 C 0.7905 0.82189 0.48504 0.0
C828 C 0.81307 0.82829 0.50901 0.0
C829 C 0.75782 0.82085 0.49227 0.0
C830 C 0.80275 0.83053 0.54079 0.0
C831 C 0.77033 0.82902 0.54824 0.0
H832 H 0.45401 0.79939 0.82432 0.0
H833 H 0.55475 0.81848 0.82902 0.0
H834 H 0.56602 0.76152 0.82604 0.0
H835 H 0.54699 0.70619 0.82994 0.0
H836 H 0.4462 0.68715 0.82597 0.0
H837 H 0.43534 0.74399 0.82036 0.0
C838 C 0.47847 0.79117 0.82399 0.0
C839 C 0.50347 0.81327 0.82732 0.0
C840 C 0.48479 0.75825 0.82276 0.0
C841 C 0.53501 0.8021 0.82661 0.0
C842 C 0.54149 0.76944 0.82511 0.0
C843 C 0.52267 0.71439 0.82717 0.0
C844 C 0.49744 0.69236 0.82881 0.0
C845 C 0.51653 0.74725 0.82438 0.0
C846 C 0.4661 0.70347 0.82494 0.0
C847 C 0.45984 0.73607 0.8219 0.0
H848 H 0.47348 0.31022 0.66211 0.0
H849 H 0.5754 0.30103 0.6704 0.0
H850 H 0.57039 0.24336 0.67439 0.0
H851 H 0.53778 0.19513 0.66738 0.0
H852 H 0.43591 0.20442 0.65854 0.0
H853 H 0.44021 0.26204 0.66342 0.0
C854 C 0.49454 0.29569 0.66558 0.0
C855 C 0.52479 0.31003 0.66547 0.0
C856 C 0.49156 0.26232 0.66737 0.0
C857 C 0.55179 0.29072 0.67013 0.0
C858 C 0.54899 0.25762 0.67226 0.0
C859 C 0.51646 0.20968 0.6673 0.0
C860 C 0.48664 0.19538 0.66211 0.0
C861 C 0.5191 0.24305 0.66966 0.0
C862 C 0.45925 0.2147 0.6622 0.0
C863 C 0.46166 0.24778 0.66486 0.0
H864 H 0.82026 0.53005 0.80916 0.0
H865 H 0.83383 0.4286 0.80043 0.0
H866 H 0.8282 0.43233 0.7428 0.0
H867 H 0.82758 0.46536 0.69434 0.0
H868 H 0.81446 0.56686 0.70295 0.0
H869 H 0.8111 0.56199 0.76071 0.0
C870 C 0.82124 0.50866 0.79473 0.0
C871 C 0.82798 0.47919 0.8092 0.0
C872 C 0.81836 0.51098 0.76133 0.0
C873 C 0.82899 0.4517 0.79003 0.0
C874 C 0.82587 0.45379 0.75694 0.0
C875 C 0.82312 0.48631 0.70876 0.0
C876 C 0.82177 0.51647 0.69422 0.0
C877 C 0.82176 0.48345 0.7422 0.0
C878 C 0.81589 0.54333 0.71341 0.0
C879 C 0.81414 0.54062 0.74657 0.0
H880 H 0.17537 0.02501 0.6945 0.0
H881 H 0.17434 0.92265 0.70243 0.0
H882 H 0.17792 0.92662 0.76029 0.0
H883 H 0.17393 0.95922 0.80911 0.0
H884 H 0.17397 0.06159 0.80091 0.0
H885 H 0.1786 0.05749 0.7432 0.0
C886 C 0.1767 0.00356 0.70881 0.0
C887 C 0.17424 0.9736 0.69399 0.0
C888 C 0.17819 0.00598 0.7423 0.0
C889 C 0.17599 0.94607 0.71307 0.0
C890 C 0.17788 0.9483 0.74629 0.0
C891 C 0.17569 0.98062 0.79476 0.0
C892 C 0.17323 0.01066 0.80946 0.0
C893 C 0.17787 0.97813 0.76128 0.0
C894 C 0.17553 0.03812 0.79036 0.0
C895 C 0.17809 0.03583 0.75722 0.0
H896 H 0.79767 0.18318 0.04644 0.0
H897 H 0.82545 0.1707 0.9483 0.0
H898 H 0.7699 0.17466 0.9317 0.0
H899 H 0.71288 0.17384 0.94586 0.0
H900 H 0.68526 0.18593 0.04412 0.0
H901 H 0.74101 0.19043 0.05963 0.0
C902 C 0.79169 0.18208 0.02133 0.0
C903 C 0.81582 0.17628 0.99873 0.0
C904 C 0.75952 0.18394 0.01193 0.0
C905 C 0.80751 0.17509 0.96628 0.0
C906 C 0.77562 0.17713 0.95675 0.0
C907 C 0.71899 0.1782 0.97057 0.0
C908 C 0.69475 0.17912 0.9938 0.0
C909 C 0.75131 0.18037 0.97947 0.0
C910 C 0.70327 0.18492 0.0257 0.0
C911 C 0.73526 0.18734 0.03466 0.0
H912 H 0.03019 0.01072 0.19054 0.0
H913 H 0.02517 0.92016 0.23878 0.0
H914 H 0.02498 0.94754 0.29038 0.0
H915 H 0.02862 0.99701 0.32152 0.0
H916 H 0.03081 0.08773 0.27342 0.0
H917 H 0.02954 0.06043 0.22171 0.0
C918 C 0.02902 0.99694 0.21237 0.0
C919 C 0.02817 0.96336 0.21087 0.0
C920 C 0.02847 0.01287 0.2418 0.0
C921 C 0.02594 0.94593 0.23929 0.0
C922 C 0.02594 0.9616 0.26875 0.0
C923 C 0.02882 0.01085 0.29969 0.0
C924 C 0.03035 0.04438 0.30124 0.0
C925 C 0.02761 0.99501 0.27025 0.0
C926 C 0.02978 0.06197 0.27284 0.0
C927 C 0.02916 0.04634 0.24334 0.0
H928 H 0.95847 0.50943 0.31726 0.0
H929 H 0.95867 0.41872 0.26909 0.0
H930 H 0.96065 0.44615 0.21746 0.0
H931 H 0.96042 0.49589 0.18637 0.0
H932 H 0.96271 0.58646 0.23482 0.0
H933 H 0.96177 0.55895 0.28635 0.0
C934 C 0.95886 0.49558 0.29546 0.0
C935 C 0.95787 0.46201 0.29697 0.0
C936 C 0.96042 0.5115 0.26608 0.0
C937 C 0.95924 0.44449 0.26856 0.0
C938 C 0.96029 0.46021 0.2391 0.0
C939 C 0.96064 0.50968 0.20821 0.0
C940 C 0.96113 0.54328 0.20676 0.0
C941 C 0.96053 0.49369 0.23762 0.0
C942 C 0.9622 0.56068 0.23526 0.0
C943 C 0.96158 0.54494 0.26468 0.0
H944 H 0.20207 0.07118 0.99841 0.0
H945 H 0.24044 0.01528 0.92099 0.0
H946 H 0.29048 0.00923 0.95037 0.0
H947 H 0.32303 0.01945 0.99863 0.0
H948 H 0.28264 0.0724 0.07665 0.0
H949 H 0.23322 0.07975 0.04647 0.0
C950 C 0.22132 0.05781 0.9876 0.0
C951 C 0.21737 0.04391 0.95721 0.0
C952 C 0.24946 0.05355 0.00501 0.0
C953 C 0.24279 0.02657 0.94405 0.0
C954 C 0.27134 0.02288 0.96098 0.0
C955 C 0.3031 0.03214 0.00906 0.0
C956 C 0.30596 0.04498 0.03989 0.0
C957 C 0.2748 0.03603 0.9916 0.0
C958 C 0.28046 0.06177 0.05324 0.0
C959 C 0.25245 0.0662 0.03586 0.0
H960 H 0.67913 0.4493 0.99077 0.0
H961 H 0.72621 0.45095 0.08215 0.0
H962 H 0.77805 0.45007 0.05546 0.0
H963 H 0.80961 0.44924 0.00642 0.0
H964 H 0.76277 0.45106 0.91492 0.0
H965 H 0.71082 0.45023 0.94156 0.0
C966 C 0.70074 0.44919 0.00491 0.0
C967 C 0.69885 0.44975 0.03847 0.0
C968 C 0.73031 0.44938 0.9894 0.0
C969 C 0.72704 0.45038 0.05636 0.0
C970 C 0.75662 0.44986 0.0411 0.0
C971 C 0.78805 0.44916 0.99221 0.0
C972 C 0.79003 0.44972 0.95866 0.0
C973 C 0.75849 0.44935 0.00767 0.0
C974 C 0.76187 0.45046 0.94071 0.0
C975 C 0.73224 0.44996 0.95595 0.0
H976 H 0.31992 0.94751 0.50149 0.0
H977 H 0.2674 0.95155 0.41319 0.0
H978 H 0.21728 0.95076 0.44306 0.0
H979 H 0.18877 0.94849 0.49393 0.0
H980 H 0.24102 0.94734 0.58244 0.0
H981 H 0.29128 0.94763 0.55261 0.0
C982 C 0.29751 0.94797 0.48869 0.0
C983 C 0.29738 0.94905 0.45504 0.0
C984 C 0.26893 0.94813 0.50603 0.0
C985 C 0.26816 0.9505 0.43896 0.0
C986 C 0.23955 0.95004 0.45606 0.0
C987 C 0.21115 0.94809 0.50681 0.0
C988 C 0.21116 0.94735 0.54045 0.0
C989 C 0.23972 0.94874 0.48954 0.0
C990 C 0.24035 0.94774 0.55665 0.0
C991 C 0.26903 0.94783 0.53957 0.0
H992 H 0.81138 0.54598 0.49466 0.0
H993 H 0.75899 0.53855 0.58279 0.0
H994 H 0.70894 0.53687 0.55284 0.0
H995 H 0.68035 0.53978 0.50197 0.0
H996 H 0.73264 0.54505 0.41366 0.0
H997 H 0.78287 0.54516 0.4435 0.0
C998 C 0.78899 0.54403 0.50737 0.0
C999 C 0.78882 0.54291 0.54099 0.0
C1000 C 0.7605 0.54276 0.49 0.0
C1001 C 0.75973 0.53959 0.55702 0.0
C1002 C 0.73117 0.53873 0.53989 0.0
C1003 C 0.70275 0.54105 0.48919 0.0
C1004 C 0.70282 0.54302 0.45562 0.0
C1005 C 0.73131 0.54072 0.50645 0.0
C1006 C 0.73199 0.54374 0.43942 0.0
C1007 C 0.76063 0.54387 0.4565 0.0
H1008 H 0.06129 0.27296 0.04936 0.0
H1009 H 0.98706 0.33682 0.0191 0.0
H1010 H 0.94879 0.29298 0.01796 0.0
H1011 H 0.93547 0.2366 0.02922 0.0
H1012 H 0.01012 0.17425 0.06285 0.0
H1013 H 0.04847 0.21687 0.05917 0.0
C1014 C 0.03691 0.277 0.04186 0.0
C1015 C 0.02703 0.30783 0.03403 0.0
C1016 C 0.01471 0.25191 0.04245 0.0
C1017 C 0.99518 0.31306 0.02505 0.0
C1018 C 0.97323 0.28806 0.02458 0.0
C1019 C 0.96009 0.2324 0.03574 0.0
C1020 C 0.96942 0.20221 0.0468 0.0
C1021 C 0.98251 0.25741 0.03393 0.0
C1022 C 0.0017 0.19729 0.05489 0.0
C1023 C 0.02399 0.22166 0.05258 0.0
H1024 H 0.99951 0.68036 0.48173 0.0
H1025 H 0.08864 0.73103 0.47802 0.0
H1026 H 0.05973 0.78184 0.47646 0.0
H1027 H 0.0091 0.8112 0.47294 0.0
H1028 H 0.92008 0.76047 0.47901 0.0
H1029 H 0.94909 0.70994 0.48307 0.0
C1030 C 0.01263 0.70257 0.48063 0.0
C1031 C 0.04616 0.70205 0.47938 0.0
C1032 C 0.99588 0.73144 0.48008 0.0
C1033 C 0.06288 0.7309 0.47882 0.0
C1034 C 0.04634 0.75985 0.47781 0.0
C1035 C 0.99603 0.78906 0.4752 0.0
C1036 C 0.96246 0.78942 0.4751 0.0
C1037 C 0.01286 0.76031 0.47788 0.0
C1038 C 0.94586 0.76072 0.47886 0.0
C1039 C 0.96244 0.7319 0.48107 0.0
H1040 H 0.49688 0.81603 0.54875 0.0
H1041 H 0.58732 0.76733 0.54613 0.0
H1042 H 0.55988 0.71599 0.5494 0.0
H1043 H 0.51043 0.68528 0.55281 0.0
H1044 H 0.41978 0.7336 0.55196 0.0
H1045 H 0.44721 0.78512 0.55015 0.0
C1046 C 0.51066 0.79419 0.54916 0.0
C1047 C 0.5442 0.79551 0.54768 0.0
C1048 C 0.49469 0.76487 0.55035 0.0
C1049 C 0.56158 0.76698 0.54742 0.0
C1050 C 0.54588 0.73767 0.5493 0.0
C1051 C 0.49659 0.70709 0.55252 0.0
C1052 C 0.46303 0.70564 0.55305 0.0
C1053 C 0.51249 0.73638 0.55082 0.0
C1054 C 0.44554 0.73408 0.55176 0.0
C1055 C 0.46124 0.76347 0.55076 0.0
H1056 H 0.53694 0.49654 0.81309 0.0
H1057 H 0.53859 0.58689 0.76419 0.0
H1058 H 0.54267 0.55912 0.71291 0.0
H1059 H 0.54733 0.50926 0.6825 0.0
H1060 H 0.54296 0.41897 0.73137 0.0
H1061 H 0.5382 0.44677 0.78249 0.0
C1062 C 0.53833 0.51023 0.79122 0.0
C1063 C 0.53804 0.5438 0.79245 0.0
C1064 C 0.54015 0.49411 0.762 0.0
C1065 C 0.53897 0.56111 0.76387 0.0
C1066 C 0.54136 0.54522 0.73462 0.0
C1067 C 0.54542 0.49561 0.70435 0.0
C1068 C 0.546 0.46202 0.70321 0.0
C1069 C 0.54226 0.51175 0.73348 0.0
C1070 C 0.54271 0.44475 0.73163 0.0
C1071 C 0.54008 0.46066 0.76081 0.0
H1072 H 0.46082 0.00911 0.80853 0.0
H1073 H 0.46741 0.91916 0.75934 0.0
H1074 H 0.46604 0.94711 0.70801 0.0
H1075 H 0.46214 0.99694 0.67756 0.0
H1076 H 0.45852 0.08699 0.72689 0.0
H1077 H 0.45956 0.05899 0.77816 0.0
C1078 C 0.46179 0.99553 0.78658 0.0
C1079 C 0.46371 0.962 0.78771 0.0
C1080 C 0.46149 0.01177 0.75739 0.0
C1081 C 0.46579 0.94489 0.75909 0.0
C1082 C 0.46493 0.96088 0.72982 0.0
C1083 C 0.46135 0.01049 0.69953 0.0
C1084 C 0.4597 0.04405 0.69846 0.0
C1085 C 0.46257 0.99428 0.72874 0.0
C1086 C 0.45958 0.06123 0.7271 0.0
C1087 C 0.46015 0.04521 0.75634 0.0
H1088 H 0.49906 0.31896 0.94842 0.0
H1089 H 0.41325 0.26265 0.95126 0.0
H1090 H 0.44539 0.21386 0.95183 0.0
H1091 H 0.49757 0.1876 0.95104 0.0
H1092 H 0.58348 0.2438 0.95124 0.0
H1093 H 0.55136 0.29267 0.95008 0.0
C1094 C 0.48728 0.29601 0.94891 0.0
C1095 C 0.45366 0.29444 0.94923 0.0
C1096 C 0.50591 0.26824 0.94985 0.0
C1097 C 0.43894 0.26453 0.95078 0.0
C1098 C 0.45735 0.23669 0.95108 0.0
C1099 C 0.5094 0.21053 0.9506 0.0
C1100 C 0.54301 0.21205 0.95065 0.0
C1101 C 0.4908 0.23831 0.95048 0.0
C1102 C 0.55778 0.24196 0.95101 0.0
C1103 C 0.53939 0.26984 0.95029 0.0
loop_
_geom_bond_atom_site_label_1
_geom_bond_atom_site_label_2
_geom_bond_distance
_geom_bond_site_symmetry_2
_ccdc_geom_bond_type
Co0 O1 2.216 1_655 S
Co0 O2 2.091 . S
Co0 O4 2.004 . S
Co0 O10 2.021 . S
Co0 O12 2.137 1_655 S
Co0 O13 2.244 1_655 S
O1 Co0 2.216 1_455 S
O1 C8 1.247 1_455 S
O2 Co0 2.091 . S
O2 C8 1.261 . S
C3 O12 1.247 . S
C3 O13 1.272 . S
O4 Co0 2.004 . S
O4 C9 1.259 . S
Co5 O6 2.061 1_455 S
Co5 O11 2.052 . S
Co5 O13 2.135 . S
O6 Co5 2.061 1_655 S
O6 C9 1.235 . S
C7 O10 1.238 1_455 S
C7 O11 1.241 . S
C8 O1 1.247 1_655 S
C8 O2 1.261 . S
C9 O4 1.259 . S
C9 O6 1.235 . S
O10 Co0 2.021 . S
O10 C7 1.238 1_655 S
O11 Co5 2.052 . S
O11 C7 1.241 . S
O12 Co0 2.137 1_455 S
O12 C3 1.247 . S
O13 Co0 2.244 1_455 S
O13 C3 1.272 . S
O13 Co5 2.135 . S
Co14 O15 2.216 1_455 S
Co14 O16 2.091 . S
Co14 O18 2.004 . S
Co14 O24 2.021 . S
Co14 O26 2.137 1_455 S
Co14 O27 2.244 1_455 S
O15 Co14 2.216 1_655 S
O15 C22 1.247 1_655 S
O16 Co14 2.091 . S
O16 C22 1.261 . S
C17 O26 1.247 . S
C17 O27 1.272 . S
O18 Co14 2.004 . S
O18 C23 1.259 . S
Co19 O20 2.061 1_655 S
Co19 O25 2.052 . S
Co19 O27 2.135 . S
O20 Co19 2.061 1_455 S
O20 C23 1.235 . S
C21 O24 1.238 1_655 S
C21 O25 1.241 . S
C22 O15 1.247 1_455 S
C22 O16 1.261 . S
C23 O18 1.259 . S
C23 O20 1.235 . S
O24 Co14 2.021 . S
O24 C21 1.238 1_455 S
O25 Co19 2.052 . S
O25 C21 1.241 . S
O26 Co14 2.137 1_655 S
O26 C17 1.247 . S
O27 Co14 2.244 1_655 S
O27 C17 1.272 . S
O27 Co19 2.135 . S
Co28 O29 2.216 1_655 S
Co28 O30 2.091 . S
Co28 O32 2.004 . S
Co28 O38 2.021 . S
Co28 O40 2.137 1_655 S
Co28 O41 2.244 1_655 S
O29 Co28 2.216 1_455 S
O29 C36 1.247 1_455 S
O30 Co28 2.091 . S
O30 C36 1.261 . S
C31 O40 1.247 . S
C31 O41 1.272 . S
O32 Co28 2.004 . S
O32 C37 1.259 . S
Co33 O34 2.061 1_455 S
Co33 O39 2.052 . S
Co33 O41 2.135 . S
O34 Co33 2.061 1_655 S
O34 C37 1.235 . S
C35 O38 1.238 1_455 S
C35 O39 1.241 . S
C36 O29 1.247 1_655 S
C36 O30 1.261 . S
C37 O32 1.259 . S
C37 O34 1.235 . S
O38 Co28 2.021 . S
O38 C35 1.238 1_655 S
O39 Co33 2.052 . S
O39 C35 1.241 . S
O40 Co28 2.137 1_455 S
O40 C31 1.247 . S
O41 Co28 2.244 1_455 S
O41 C31 1.272 . S
O41 Co33 2.135 . S
Co42 O43 2.216 1_455 S
Co42 O44 2.091 . S
Co42 O46 2.004 . S
Co42 O52 2.021 . S
Co42 O54 2.137 1_455 S
Co42 O55 2.244 1_455 S
O43 Co42 2.216 1_655 S
O43 C50 1.247 1_655 S
O44 Co42 2.091 . S
O44 C50 1.261 . S
C45 O54 1.247 . S
C45 O55 1.272 . S
O46 Co42 2.004 . S
O46 C51 1.259 . S
Co47 O48 2.061 1_655 S
Co47 O53 2.052 . S
Co47 O55 2.135 . S
O48 Co47 2.061 1_455 S
O48 C51 1.235 . S
C49 O52 1.238 1_655 S
C49 O53 1.241 . S
C50 O43 1.247 1_455 S
C50 O44 1.261 . S
C51 O46 1.259 . S
C51 O48 1.235 . S
O52 Co42 2.021 . S
O52 C49 1.238 1_455 S
O53 Co47 2.052 . S
O53 C49 1.241 . S
O54 Co42 2.137 1_655 S
O54 C45 1.247 . S
O55 Co42 2.244 1_655 S
O55 C45 1.272 . S
O55 Co47 2.135 . S
Co56 O57 2.216 1_565 S
Co56 O58 2.091 . S
Co56 O60 2.004 . S
Co56 O66 2.021 . S
Co56 O68 2.137 1_565 S
Co56 O69 2.244 1_565 S
O57 Co56 2.216 1_545 S
O57 C64 1.247 1_545 S
O58 Co56 2.091 . S
O58 C64 1.261 . S
C59 O68 1.247 . S
C59 O69 1.272 . S
O60 Co56 2.004 . S
O60 C65 1.259 . S
Co61 O62 2.061 1_545 S
Co61 O67 2.052 . S
Co61 O69 2.135 . S
O62 Co61 2.061 1_565 S
O62 C65 1.235 . S
C63 O66 1.238 1_545 S
C63 O67 1.241 . S
C64 O57 1.247 1_565 S
C64 O58 1.261 . S
C65 O60 1.259 . S
C65 O62 1.235 . S
O66 Co56 2.021 . S
O66 C63 1.238 1_565 S
O67 Co61 2.052 . S
O67 C63 1.241 . S
O68 Co56 2.137 1_545 S
O68 C59 1.247 . S
O69 Co56 2.244 1_545 S
O69 C59 1.272 . S
O69 Co61 2.135 . S
Co70 O71 2.216 . S
Co70 O72 2.091 . S
Co70 O74 2.004 . S
Co70 O80 2.021 . S
Co70 O82 2.137 . S
Co70 O83 2.244 . S
O71 Co70 2.216 . S
O71 C78 1.247 . S
O72 Co70 2.091 . S
O72 C78 1.261 . S
C73 O82 1.247 . S
C73 O83 1.272 . S
O74 Co70 2.004 . S
O74 C79 1.259 . S
Co75 O76 2.061 . S
Co75 O81 2.052 . S
Co75 O83 2.135 . S
O76 Co75 2.061 . S
O76 C79 1.235 . S
C77 O80 1.238 . S
C77 O81 1.241 . S
C78 O71 1.247 . S
C78 O72 1.261 . S
C79 O74 1.259 . S
C79 O76 1.235 . S
O80 Co70 2.021 . S
O80 C77 1.238 . S
O81 Co75 2.052 . S
O81 C77 1.241 . S
O82 Co70 2.137 . S
O82 C73 1.247 . S
O83 Co70 2.244 . S
O83 C73 1.272 . S
O83 Co75 2.135 . S
Co84 O85 2.216 1_545 S
Co84 O86 2.091 . S
Co84 O88 2.004 . S
Co84 O94 2.021 . S
Co84 O96 2.137 1_545 S
Co84 O97 2.244 1_545 S
O85 Co84 2.216 1_565 S
O85 C92 1.247 1_565 S
O86 Co84 2.091 . S
O86 C92 1.261 . S
C87 O96 1.247 . S
C87 O97 1.272 . S
O88 Co84 2.004 . S
O88 C93 1.259 . S
Co89 O90 2.061 1_565 S
Co89 O95 2.052 . S
Co89 O97 2.135 . S
O90 Co89 2.061 1_545 S
O90 C93 1.235 . S
C91 O94 1.238 1_565 S
C91 O95 1.241 . S
C92 O85 1.247 1_545 S
C92 O86 1.261 . S
C93 O88 1.259 . S
C93 O90 1.235 . S
O94 Co84 2.021 . S
O94 C91 1.238 1_545 S
O95 Co89 2.052 . S
O95 C91 1.241 . S
O96 Co84 2.137 1_565 S
O96 C87 1.247 . S
O97 Co84 2.244 1_565 S
O97 C87 1.272 . S
O97 Co89 2.135 . S
Co98 O99 2.216 . S
Co98 O100 2.091 . S
Co98 O102 2.004 . S
Co98 O108 2.021 . S
Co98 O110 2.137 . S
Co98 O111 2.244 . S
O99 Co98 2.216 . S
O99 C106 1.247 . S
O100 Co98 2.091 . S
O100 C106 1.261 . S
C101 O110 1.247 . S
C101 O111 1.272 . S
O102 Co98 2.004 . S
O102 C107 1.259 . S
Co103 O104 2.061 . S
Co103 O109 2.052 . S
Co103 O111 2.135 . S
O104 Co103 2.061 . S
O104 C107 1.235 . S
C105 O108 1.238 . S
C105 O109 1.241 . S
C106 O99 1.247 . S
C106 O100 1.261 . S
C107 O102 1.259 . S
C107 O104 1.235 . S
O108 Co98 2.021 . S
O108 C105 1.238 . S
O109 Co103 2.052 . S
O109 C105 1.241 . S
O110 Co98 2.137 . S
O110 C101 1.247 . S
O111 Co98 2.244 . S
O111 C101 1.272 . S
O111 Co103 2.135 . S
Co112 O113 2.216 1_556 S
Co112 O114 2.091 . S
Co112 O116 2.004 . S
Co112 O122 2.021 . S
Co112 O124 2.137 1_556 S
Co112 O125 2.244 1_556 S
O113 Co112 2.216 1_554 S
O113 C120 1.247 1_554 S
O114 Co112 2.091 . S
O114 C120 1.261 . S
C115 O124 1.247 . S
C115 O125 1.272 . S
O116 Co112 2.004 . S
O116 C121 1.259 . S
Co117 O118 2.061 1_554 S
Co117 O123 2.052 . S
Co117 O125 2.135 . S
O118 Co117 2.061 1_556 S
O118 C121 1.235 . S
C119 O122 1.238 1_554 S
C119 O123 1.241 . S
C120 O113 1.247 1_556 S
C120 O114 1.261 . S
C121 O116 1.259 . S
C121 O118 1.235 . S
O122 Co112 2.021 . S
O122 C119 1.238 1_556 S
O123 Co117 2.052 . S
O123 C119 1.241 . S
O124 Co112 2.137 1_554 S
O124 C115 1.247 . S
O125 Co112 2.244 1_554 S
O125 C115 1.272 . S
O125 Co117 2.135 . S
Co126 O127 2.216 . S
Co126 O128 2.091 . S
Co126 O130 2.004 . S
Co126 O136 2.021 . S
Co126 O138 2.137 . S
Co126 O139 2.244 . S
O127 Co126 2.216 . S
O127 C134 1.247 . S
O128 Co126 2.091 . S
O128 C134 1.261 . S
C129 O138 1.247 . S
C129 O139 1.272 . S
O130 Co126 2.004 . S
O130 C135 1.259 . S
Co131 O132 2.061 . S
Co131 O137 2.052 . S
Co131 O139 2.135 . S
O132 Co131 2.061 . S
O132 C135 1.235 . S
C133 O136 1.238 . S
C133 O137 1.241 . S
C134 O127 1.247 . S
C134 O128 1.261 . S
C135 O130 1.259 . S
C135 O132 1.235 . S
O136 Co126 2.021 . S
O136 C133 1.238 . S
O137 Co131 2.052 . S
O137 C133 1.241 . S
O138 Co126 2.137 . S
O138 C129 1.247 . S
O139 Co126 2.244 . S
O139 C129 1.272 . S
O139 Co131 2.135 . S
Co140 O141 2.216 . S
Co140 O142 2.091 . S
Co140 O144 2.004 . S
Co140 O150 2.021 . S
Co140 O152 2.137 . S
Co140 O153 2.244 . S
O141 Co140 2.216 . S
O141 C148 1.247 . S
O142 Co140 2.091 . S
O142 C148 1.261 . S
C143 O152 1.247 . S
C143 O153 1.272 . S
O144 Co140 2.004 . S
O144 C149 1.259 . S
Co145 O146 2.061 . S
Co145 O151 2.052 . S
Co145 O153 2.135 . S
O146 Co145 2.061 . S
O146 C149 1.235 . S
C147 O150 1.238 . S
C147 O151 1.241 . S
C148 O141 1.247 . S
C148 O142 1.261 . S
C149 O144 1.259 . S
C149 O146 1.235 . S
O150 Co140 2.021 . S
O150 C147 1.238 . S
O151 Co145 2.052 . S
O151 C147 1.241 . S
O152 Co140 2.137 . S
O152 C143 1.247 . S
O153 Co140 2.244 . S
O153 C143 1.272 . S
O153 Co145 2.135 . S
Co154 O155 2.216 . S
Co154 O156 2.091 . S
Co154 O158 2.004 . S
Co154 O164 2.021 . S
Co154 O166 2.137 . S
Co154 O167 2.244 . S
O155 Co154 2.216 . S
O155 C162 1.247 . S
O156 Co154 2.091 . S
O156 C162 1.261 . S
C157 O166 1.247 . S
C157 O167 1.272 . S
O158 Co154 2.004 . S
O158 C163 1.259 . S
Co159 O160 2.061 . S
Co159 O165 2.052 . S
Co159 O167 2.135 . S
O160 Co159 2.061 . S
O160 C163 1.235 . S
C161 O164 1.238 . S
C161 O165 1.241 . S
C162 O155 1.247 . S
C162 O156 1.261 . S
C163 O158 1.259 . S
C163 O160 1.235 . S
O164 Co154 2.021 . S
O164 C161 1.238 . S
O165 Co159 2.052 . S
O165 C161 1.241 . S
O166 Co154 2.137 . S
O166 C157 1.247 . S
O167 Co154 2.244 . S
O167 C157 1.272 . S
O167 Co159 2.135 . S
Co168 O169 2.216 . S
Co168 O170 2.091 . S
Co168 O172 2.004 . S
Co168 O178 2.021 . S
Co168 O180 2.137 . S
Co168 O181 2.244 . S
O169 Co168 2.216 . S
O169 C176 1.247 . S
O170 Co168 2.091 . S
O170 C176 1.261 . S
C171 O180 1.247 . S
C171 O181 1.272 . S
O172 Co168 2.004 . S
O172 C177 1.259 . S
Co173 O174 2.061 . S
Co173 O179 2.052 . S
Co173 O181 2.135 . S
O174 Co173 2.061 . S
O174 C177 1.235 . S
C175 O178 1.238 . S
C175 O179 1.241 . S
C176 O169 1.247 . S
C176 O170 1.261 . S
C177 O172 1.259 . S
C177 O174 1.235 . S
O178 Co168 2.021 . S
O178 C175 1.238 . S
O179 Co173 2.052 . S
O179 C175 1.241 . S
O180 Co168 2.137 . S
O180 C171 1.247 . S
O181 Co168 2.244 . S
O181 C171 1.272 . S
O181 Co173 2.135 . S
Co182 O183 2.216 . S
Co182 O184 2.091 . S
Co182 O186 2.004 . S
Co182 O192 2.021 . S
Co182 O194 2.137 . S
Co182 O195 2.244 . S
O183 Co182 2.216 . S
O183 C190 1.247 . S
O184 Co182 2.091 . S
O184 C190 1.261 . S
C185 O194 1.247 . S
C185 O195 1.272 . S
O186 Co182 2.004 . S
O186 C191 1.259 . S
Co187 O188 2.061 . S
Co187 O193 2.052 . S
Co187 O195 2.135 . S
O188 Co187 2.061 . S
O188 C191 1.235 . S
C189 O192 1.238 . S
C189 O193 1.241 . S
C190 O183 1.247 . S
C190 O184 1.261 . S
C191 O186 1.259 . S
C191 O188 1.235 . S
O192 Co182 2.021 . S
O192 C189 1.238 . S
O193 Co187 2.052 . S
O193 C189 1.241 . S
O194 Co182 2.137 . S
O194 C185 1.247 . S
O195 Co182 2.244 . S
O195 C185 1.272 . S
O195 Co187 2.135 . S
Co196 O197 2.216 . S
Co196 O198 2.091 . S
Co196 O200 2.004 . S
Co196 O206 2.021 . S
Co196 O208 2.137 . S
Co196 O209 2.244 . S
O197 Co196 2.216 . S
O197 C204 1.247 . S
O198 Co196 2.091 . S
O198 C204 1.261 . S
C199 O208 1.247 . S
C199 O209 1.272 . S
O200 Co196 2.004 . S
O200 C205 1.259 . S
Co201 O202 2.061 . S
Co201 O207 2.052 . S
Co201 O209 2.135 . S
O202 Co201 2.061 . S
O202 C205 1.235 . S
C203 O206 1.238 . S
C203 O207 1.241 . S
C204 O197 1.247 . S
C204 O198 1.261 . S
C205 O200 1.259 . S
C205 O202 1.235 . S
O206 Co196 2.021 . S
O206 C203 1.238 . S
O207 Co201 2.052 . S
O207 C203 1.241 . S
O208 Co196 2.137 . S
O208 C199 1.247 . S
O209 Co196 2.244 . S
O209 C199 1.272 . S
O209 Co201 2.135 . S
Co210 O211 2.216 . S
Co210 O212 2.091 . S
Co210 O214 2.004 . S
Co210 O220 2.021 . S
Co210 O222 2.137 . S
Co210 O223 2.244 . S
O211 Co210 2.216 . S
O211 C218 1.247 . S
O212 Co210 2.091 . S
O212 C218 1.261 . S
C213 O222 1.247 . S
C213 O223 1.272 . S
O214 Co210 2.004 . S
O214 C219 1.259 . S
Co215 O216 2.061 . S
Co215 O221 2.052 . S
Co215 O223 2.135 . S
O216 Co215 2.061 . S
O216 C219 1.235 . S
C217 O220 1.238 . S
C217 O221 1.241 . S
C218 O211 1.247 . S
C218 O212 1.261 . S
C219 O214 1.259 . S
C219 O216 1.235 . S
O220 Co210 2.021 . S
O220 C217 1.238 . S
O221 Co215 2.052 . S
O221 C217 1.241 . S
O222 Co210 2.137 . S
O222 C213 1.247 . S
O223 Co210 2.244 . S
O223 C213 1.272 . S
O223 Co215 2.135 . S
Co224 O225 2.216 . S
Co224 O226 2.091 . S
Co224 O228 2.004 . S
Co224 O234 2.021 . S
Co224 O236 2.137 . S
Co224 O237 2.244 . S
O225 Co224 2.216 . S
O225 C232 1.247 . S
O226 Co224 2.091 . S
O226 C232 1.261 . S
C227 O236 1.247 . S
C227 O237 1.272 . S
O228 Co224 2.004 . S
O228 C233 1.259 . S
Co229 O230 2.061 . S
Co229 O235 2.052 . S
Co229 O237 2.135 . S
O230 Co229 2.061 . S
O230 C233 1.235 . S
C231 O234 1.238 . S
C231 O235 1.241 . S
C232 O225 1.247 . S
C232 O226 1.261 . S
C233 O228 1.259 . S
C233 O230 1.235 . S
O234 Co224 2.021 . S
O234 C231 1.238 . S
O235 Co229 2.052 . S
O235 C231 1.241 . S
O236 Co224 2.137 . S
O236 C227 1.247 . S
O237 Co224 2.244 . S
O237 C227 1.272 . S
O237 Co229 2.135 . S
Co238 O239 2.216 1_545 S
Co238 O240 2.091 . S
Co238 O242 2.004 . S
Co238 O248 2.021 . S
Co238 O250 2.137 1_545 S
Co238 O251 2.244 1_545 S
O239 Co238 2.216 1_565 S
O239 C246 1.247 1_565 S
O240 Co238 2.091 . S
O240 C246 1.261 . S
C241 O250 1.247 . S
C241 O251 1.272 . S
O242 Co238 2.004 . S
O242 C247 1.259 . S
Co243 O244 2.061 1_565 S
Co243 O249 2.052 . S
Co243 O251 2.135 . S
O244 Co243 2.061 1_545 S
O244 C247 1.235 . S
C245 O248 1.238 1_565 S
C245 O249 1.241 . S
C246 O239 1.247 1_545 S
C246 O240 1.261 . S
C247 O242 1.259 . S
C247 O244 1.235 . S
O248 Co238 2.021 . S
O248 C245 1.238 1_545 S
O249 Co243 2.052 . S
O249 C245 1.241 . S
O250 Co238 2.137 1_565 S
O250 C241 1.247 . S
O251 Co238 2.244 1_565 S
O251 C241 1.272 . S
O251 Co243 2.135 . S
Co252 O253 2.216 . S
Co252 O254 2.091 . S
Co252 O256 2.004 . S
Co252 O262 2.021 . S
Co252 O264 2.137 . S
Co252 O265 2.244 . S
O253 Co252 2.216 . S
O253 C260 1.247 . S
O254 Co252 2.091 . S
O254 C260 1.261 . S
C255 O264 1.247 . S
C255 O265 1.272 . S
O256 Co252 2.004 . S
O256 C261 1.259 . S
Co257 O258 2.061 . S
Co257 O263 2.052 . S
Co257 O265 2.135 . S
O258 Co257 2.061 . S
O258 C261 1.235 . S
C259 O262 1.238 . S
C259 O263 1.241 . S
C260 O253 1.247 . S
C260 O254 1.261 . S
C261 O256 1.259 . S
C261 O258 1.235 . S
O262 Co252 2.021 . S
O262 C259 1.238 . S
O263 Co257 2.052 . S
O263 C259 1.241 . S
O264 Co252 2.137 . S
O264 C255 1.247 . S
O265 Co252 2.244 . S
O265 C255 1.272 . S
O265 Co257 2.135 . S
Co266 O267 2.216 1_565 S
Co266 O268 2.091 . S
Co266 O270 2.004 . S
Co266 O276 2.021 . S
Co266 O278 2.137 1_565 S
Co266 O279 2.244 1_565 S
O267 Co266 2.216 1_545 S
O267 C274 1.247 1_545 S
O268 Co266 2.091 . S
O268 C274 1.261 . S
C269 O278 1.247 . S
C269 O279 1.272 . S
O270 Co266 2.004 . S
O270 C275 1.259 . S
Co271 O272 2.061 1_545 S
Co271 O277 2.052 . S
Co271 O279 2.135 . S
O272 Co271 2.061 1_565 S
O272 C275 1.235 . S
C273 O276 1.238 1_545 S
C273 O277 1.241 . S
C274 O267 1.247 1_565 S
C274 O268 1.261 . S
C275 O270 1.259 . S
C275 O272 1.235 . S
O276 Co266 2.021 . S
O276 C273 1.238 1_565 S
O277 Co271 2.052 . S
O277 C273 1.241 . S
O278 Co266 2.137 1_545 S
O278 C269 1.247 . S
O279 Co266 2.244 1_545 S
O279 C269 1.272 . S
O279 Co271 2.135 . S
Co280 O281 2.216 . S
Co280 O282 2.091 . S
Co280 O284 2.004 . S
Co280 O290 2.021 . S
Co280 O292 2.137 . S
Co280 O293 2.244 . S
O281 Co280 2.216 . S
O281 C288 1.247 . S
O282 Co280 2.091 . S
O282 C288 1.261 . S
C283 O292 1.247 . S
C283 O293 1.272 . S
O284 Co280 2.004 . S
O284 C289 1.259 . S
Co285 O286 2.061 . S
Co285 O291 2.052 . S
Co285 O293 2.135 . S
O286 Co285 2.061 . S
O286 C289 1.235 . S
C287 O290 1.238 . S
C287 O291 1.241 . S
C288 O281 1.247 . S
C288 O282 1.261 . S
C289 O284 1.259 . S
C289 O286 1.235 . S
O290 Co280 2.021 . S
O290 C287 1.238 . S
O291 Co285 2.052 . S
O291 C287 1.241 . S
O292 Co280 2.137 . S
O292 C283 1.247 . S
O293 Co280 2.244 . S
O293 C283 1.272 . S
O293 Co285 2.135 . S
Co294 O295 2.216 1_554 S
Co294 O296 2.091 . S
Co294 O298 2.004 . S
Co294 O304 2.021 . S
Co294 O306 2.137 1_554 S
Co294 O307 2.244 1_554 S
O295 Co294 2.216 1_556 S
O295 C302 1.247 1_556 S
O296 Co294 2.091 . S
O296 C302 1.261 . S
C297 O306 1.247 . S
C297 O307 1.272 . S
O298 Co294 2.004 . S
O298 C303 1.259 . S
Co299 O300 2.061 1_556 S
Co299 O305 2.052 . S
Co299 O307 2.135 . S
O300 Co299 2.061 1_554 S
O300 C303 1.235 . S
C301 O304 1.238 1_556 S
C301 O305 1.241 . S
C302 O295 1.247 1_554 S
C302 O296 1.261 . S
C303 O298 1.259 . S
C303 O300 1.235 . S
O304 Co294 2.021 . S
O304 C301 1.238 1_554 S
O305 Co299 2.052 . S
O305 C301 1.241 . S
O306 Co294 2.137 1_556 S
O306 C297 1.247 . S
O307 Co294 2.244 1_556 S
O307 C297 1.272 . S
O307 Co299 2.135 . S
Co308 O309 2.216 1_554 S
Co308 O310 2.091 . S
Co308 O312 2.004 . S
Co308 O318 2.021 . S
Co308 O320 2.137 1_554 S
Co308 O321 2.244 1_554 S
O309 Co308 2.216 1_556 S
O309 C316 1.247 1_556 S
O310 Co308 2.091 . S
O310 C316 1.261 . S
C311 O320 1.247 . S
C311 O321 1.272 . S
O312 Co308 2.004 . S
O312 C317 1.259 . S
Co313 O314 2.061 1_556 S
Co313 O319 2.052 . S
Co313 O321 2.135 . S
O314 Co313 2.061 1_554 S
O314 C317 1.235 . S
C315 O318 1.238 1_556 S
C315 O319 1.241 . S
C316 O309 1.247 1_554 S
C316 O310 1.261 . S
C317 O312 1.259 . S
C317 O314 1.235 . S
O318 Co308 2.021 . S
O318 C315 1.238 1_554 S
O319 Co313 2.052 . S
O319 C315 1.241 . S
O320 Co308 2.137 1_556 S
O320 C311 1.247 . S
O321 Co308 2.244 1_556 S
O321 C311 1.272 . S
O321 Co313 2.135 . S
Co322 O323 2.216 1_556 S
Co322 O324 2.091 . S
Co322 O326 2.004 . S
Co322 O332 2.021 . S
Co322 O334 2.137 1_556 S
Co322 O335 2.244 1_556 S
O323 Co322 2.216 1_554 S
O323 C330 1.247 1_554 S
O324 Co322 2.091 . S
O324 C330 1.261 . S
C325 O334 1.247 . S
C325 O335 1.272 . S
O326 Co322 2.004 . S
O326 C331 1.259 . S
Co327 O328 2.061 1_554 S
Co327 O333 2.052 . S
Co327 O335 2.135 . S
O328 Co327 2.061 1_556 S
O328 C331 1.235 . S
C329 O332 1.238 1_554 S
C329 O333 1.241 . S
C330 O323 1.247 1_556 S
C330 O324 1.261 . S
C331 O326 1.259 . S
C331 O328 1.235 . S
O332 Co322 2.021 . S
O332 C329 1.238 1_556 S
O333 Co327 2.052 . S
O333 C329 1.241 . S
O334 Co322 2.137 1_554 S
O334 C325 1.247 . S
O335 Co322 2.244 1_554 S
O335 C325 1.272 . S
O335 Co327 2.135 . S
H336 C342 0.930 . S
H337 C345 0.930 . S
H338 C346 0.930 . S
H339 C347 0.930 . S
H340 C350 0.930 . S
H341 C351 0.930 . S
C342 H336 0.930 . S
C342 C343 1.355 . S
C342 C344 1.415 . S
C343 C342 1.355 . S
C343 C345 1.419 . S
C344 C342 1.415 . S
C344 C349 1.425 . S
C344 C351 1.409 . S
C345 H337 0.930 . S
C345 C343 1.419 . S
C345 C346 1.362 . S
C346 H338 0.930 . S
C346 C345 1.362 . S
C346 C349 1.409 . S
C347 H339 0.930 . S
C347 C348 1.355 . S
C347 C349 1.415 . S
C348 C347 1.355 . S
C348 C350 1.419 . S
C349 C344 1.425 . S
C349 C346 1.409 . S
C349 C347 1.415 . S
C350 H340 0.930 . S
C350 C348 1.419 . S
C350 C351 1.362 . S
C351 H341 0.930 . S
C351 C344 1.409 . S
C351 C350 1.362 . S
H352 C358 0.930 . S
H353 C361 0.930 . S
H354 C362 0.930 . S
H355 C363 0.930 . S
H356 C366 0.930 . S
H357 C367 0.930 . S
C358 H352 0.930 . S
C358 C359 1.355 . S
C358 C360 1.415 . S
C359 C358 1.355 . S
C359 C361 1.419 . S
C360 C358 1.415 . S
C360 C365 1.425 . S
C360 C367 1.409 . S
C361 H353 0.930 . S
C361 C359 1.419 . S
C361 C362 1.362 . S
C362 H354 0.930 . S
C362 C361 1.362 . S
C362 C365 1.409 . S
C363 H355 0.930 . S
C363 C364 1.355 . S
C363 C365 1.415 . S
C364 C363 1.355 . S
C364 C366 1.419 . S
C365 C360 1.425 . S
C365 C362 1.409 . S
C365 C363 1.415 . S
C366 H356 0.930 . S
C366 C364 1.419 . S
C366 C367 1.362 . S
C367 H357 0.930 . S
C367 C360 1.409 . S
C367 C366 1.362 . S
H368 C374 0.930 . S
H369 C377 0.930 . S
H370 C378 0.930 . S
H371 C379 0.930 . S
H372 C382 0.930 1_556 S
H373 C383 0.930 . S
C374 H368 0.930 . S
C374 C375 1.355 . S
C374 C376 1.415 . S
C375 C374 1.355 . S
C375 C377 1.419 . S
C376 C374 1.415 . S
C376 C381 1.425 . S
C376 C383 1.409 . S
C377 H369 0.930 . S
C377 C375 1.419 . S
C377 C378 1.362 . S
C378 H370 0.930 . S
C378 C377 1.362 . S
C378 C381 1.409 . S
C379 H371 0.930 . S
C379 C380 1.355 . S
C379 C381 1.415 1_556 S
C380 C379 1.355 . S
C380 C382 1.419 1_556 S
C381 C376 1.425 . S
C381 C378 1.409 . S
C381 C379 1.415 1_554 S
C382 H372 0.930 1_554 S
C382 C380 1.419 1_554 S
C382 C383 1.362 . S
C383 H373 0.930 . S
C383 C376 1.409 . S
C383 C382 1.362 . S
H384 C390 0.930 . S
H385 C393 0.930 . S
H386 C394 0.930 . S
H387 C395 0.930 . S
H388 C398 0.930 . S
H389 C399 0.930 . S
C390 H384 0.930 . S
C390 C391 1.355 . S
C390 C392 1.415 . S
C391 C390 1.355 . S
C391 C393 1.419 . S
C392 C390 1.415 . S
C392 C397 1.425 . S
C392 C399 1.409 . S
C393 H385 0.930 . S
C393 C391 1.419 . S
C393 C394 1.362 . S
C394 H386 0.930 . S
C394 C393 1.362 . S
C394 C397 1.409 . S
C395 H387 0.930 . S
C395 C396 1.355 . S
C395 C397 1.415 1_556 S
C396 C395 1.355 . S
C396 C398 1.419 . S
C397 C392 1.425 . S
C397 C394 1.409 . S
C397 C395 1.415 1_554 S
C398 H388 0.930 . S
C398 C396 1.419 . S
C398 C399 1.362 1_556 S
C399 H389 0.930 . S
C399 C392 1.409 . S
C399 C398 1.362 1_554 S
H400 C406 0.930 . S
H401 C409 0.930 . S
H402 C410 0.930 . S
H403 C411 0.930 . S
H404 C414 0.930 . S
H405 C415 0.930 . S
C406 H400 0.930 . S
C406 C407 1.355 . S
C406 C408 1.415 . S
C407 C406 1.355 . S
C407 C409 1.419 . S
C408 C406 1.415 . S
C408 C413 1.425 . S
C408 C415 1.409 . S
C409 H401 0.930 . S
C409 C407 1.419 . S
C409 C410 1.362 . S
C410 H402 0.930 . S
C410 C409 1.362 . S
C410 C413 1.409 . S
C411 H403 0.930 . S
C411 C412 1.355 . S
C411 C413 1.415 . S
C412 C411 1.355 . S
C412 C414 1.419 . S
C413 C408 1.425 . S
C413 C410 1.409 . S
C413 C411 1.415 . S
C414 H404 0.930 . S
C414 C412 1.419 . S
C414 C415 1.362 . S
C415 H405 0.930 . S
C415 C408 1.409 . S
C415 C414 1.362 . S
H416 C422 0.930 . S
H417 C425 0.930 . S
H418 C426 0.930 . S
H419 C427 0.930 . S
H420 C430 0.930 . S
H421 C431 0.930 . S
C422 H416 0.930 . S
C422 C423 1.355 . S
C422 C424 1.415 . S
C423 C422 1.355 . S
C423 C425 1.419 . S
C424 C422 1.415 . S
C424 C429 1.425 . S
C424 C431 1.409 . S
C425 H417 0.930 . S
C425 C423 1.419 . S
C425 C426 1.362 . S
C426 H418 0.930 . S
C426 C425 1.362 . S
C426 C429 1.409 . S
C427 H419 0.930 . S
C427 C428 1.355 . S
C427 C429 1.415 . S
C428 C427 1.355 . S
C428 C430 1.419 . S
C429 C424 1.425 . S
C429 C426 1.409 . S
C429 C427 1.415 . S
C430 H420 0.930 . S
C430 C428 1.419 . S
C430 C431 1.362 . S
C431 H421 0.930 . S
C431 C424 1.409 . S
C431 C430 1.362 . S
H432 C438 0.930 . S
H433 C441 0.930 . S
H434 C442 0.930 . S
H435 C443 0.930 . S
H436 C446 0.930 . S
H437 C447 0.930 . S
C438 H432 0.930 . S
C438 C439 1.355 . S
C438 C440 1.415 . S
C439 C438 1.355 . S
C439 C441 1.419 . S
C440 C438 1.415 . S
C440 C445 1.425 . S
C440 C447 1.409 . S
C441 H433 0.930 . S
C441 C439 1.419 . S
C441 C442 1.362 . S
C442 H434 0.930 . S
C442 C441 1.362 . S
C442 C445 1.409 . S
C443 H435 0.930 . S
C443 C444 1.355 . S
C443 C445 1.415 . S
C444 C443 1.355 . S
C444 C446 1.419 . S
C445 C440 1.425 . S
C445 C442 1.409 . S
C445 C443 1.415 . S
C446 H436 0.930 . S
C446 C444 1.419 . S
C446 C447 1.362 . S
C447 H437 0.930 . S
C447 C440 1.409 . S
C447 C446 1.362 . S
H448 C454 0.930 . S
H449 C457 0.930 . S
H450 C458 0.930 . S
H451 C459 0.930 . S
H452 C462 0.930 . S
H453 C463 0.930 . S
C454 H448 0.930 . S
C454 C455 1.355 . S
C454 C456 1.415 . S
C455 C454 1.355 . S
C455 C457 1.419 . S
C456 C454 1.415 . S
C456 C461 1.425 . S
C456 C463 1.409 . S
C457 H449 0.930 . S
C457 C455 1.419 . S
C457 C458 1.362 . S
C458 H450 0.930 . S
C458 C457 1.362 . S
C458 C461 1.409 . S
C459 H451 0.930 . S
C459 C460 1.355 . S
C459 C461 1.415 . S
C460 C459 1.355 . S
C460 C462 1.419 . S
C461 C456 1.425 . S
C461 C458 1.409 . S
C461 C459 1.415 . S
C462 H452 0.930 . S
C462 C460 1.419 . S
C462 C463 1.362 . S
C463 H453 0.930 . S
C463 C456 1.409 . S
C463 C462 1.362 . S
H464 C470 0.930 . S
H465 C473 0.930 . S
H466 C474 0.930 . S
H467 C475 0.930 . S
H468 C478 0.930 . S
H469 C479 0.930 . S
C470 H464 0.930 . S
C470 C471 1.355 . S
C470 C472 1.415 . S
C471 C470 1.355 . S
C471 C473 1.419 . S
C472 C470 1.415 . S
C472 C477 1.425 . S
C472 C479 1.409 . S
C473 H465 0.930 . S
C473 C471 1.419 . S
C473 C474 1.362 . S
C474 H466 0.930 . S
C474 C473 1.362 . S
C474 C477 1.409 . S
C475 H467 0.930 . S
C475 C476 1.355 . S
C475 C477 1.415 . S
C476 C475 1.355 . S
C476 C478 1.419 . S
C477 C472 1.425 . S
C477 C474 1.409 . S
C477 C475 1.415 . S
C478 H468 0.930 . S
C478 C476 1.419 . S
C478 C479 1.362 . S
C479 H469 0.930 . S
C479 C472 1.409 . S
C479 C478 1.362 . S
H480 C486 0.930 . S
H481 C489 0.930 . S
H482 C490 0.930 . S
H483 C491 0.930 . S
H484 C494 0.930 . S
H485 C495 0.930 . S
C486 H480 0.930 . S
C486 C487 1.355 . S
C486 C488 1.415 . S
C487 C486 1.355 . S
C487 C489 1.419 . S
C488 C486 1.415 . S
C488 C493 1.425 . S
C488 C495 1.409 . S
C489 H481 0.930 . S
C489 C487 1.419 . S
C489 C490 1.362 . S
C490 H482 0.930 . S
C490 C489 1.362 . S
C490 C493 1.409 . S
C491 H483 0.930 . S
C491 C492 1.355 . S
C491 C493 1.415 . S
C492 C491 1.355 . S
C492 C494 1.419 . S
C493 C488 1.425 . S
C493 C490 1.409 . S
C493 C491 1.415 . S
C494 H484 0.930 . S
C494 C492 1.419 . S
C494 C495 1.362 . S
C495 H485 0.930 . S
C495 C488 1.409 . S
C495 C494 1.362 . S
H496 C502 0.930 . S
H497 C505 0.930 . S
H498 C506 0.930 . S
H499 C507 0.938 . S
H500 C510 0.955 . S
H501 C511 0.930 . S
C502 H496 0.930 . S
C502 C503 1.355 . S
C502 C504 1.415 . S
C503 C502 1.355 . S
C503 C505 1.419 . S
C504 C502 1.415 . S
C504 C509 1.425 . S
C504 C511 1.409 . S
C505 H497 0.930 . S
C505 C503 1.419 . S
C505 C506 1.362 . S
C506 H498 0.930 . S
C506 C505 1.362 . S
C506 C509 1.409 . S
C507 H499 0.938 . S
C507 C508 1.367 . S
C507 C509 1.394 1_545 S
C508 C507 1.367 . S
C508 C510 1.419 . S
C509 C504 1.425 . S
C509 C506 1.409 . S
C509 C507 1.394 1_565 S
C510 H500 0.955 . S
C510 C508 1.419 . S
C510 C511 1.362 1_545 S
C511 H501 0.930 . S
C511 C504 1.409 . S
C511 C510 1.362 1_565 S
H512 C518 0.930 . S
H513 C521 0.930 . S
H514 C522 0.930 . S
H515 C523 0.930 . S
H516 C526 0.930 . S
H517 C527 0.930 . S
C518 H512 0.930 . S
C518 C519 1.355 . S
C518 C520 1.415 . S
C519 C518 1.355 . S
C519 C521 1.419 . S
C520 C518 1.415 . S
C520 C525 1.425 . S
C520 C527 1.409 . S
C521 H513 0.930 . S
C521 C519 1.419 . S
C521 C522 1.362 . S
C522 H514 0.930 . S
C522 C521 1.362 . S
C522 C525 1.409 . S
C523 H515 0.930 . S
C523 C524 1.355 . S
C523 C525 1.415 . S
C524 C523 1.355 . S
C524 C526 1.419 . S
C525 C520 1.425 . S
C525 C522 1.409 . S
C525 C523 1.415 . S
C526 H516 0.930 . S
C526 C524 1.419 . S
C526 C527 1.362 . S
C527 H517 0.930 . S
C527 C520 1.409 . S
C527 C526 1.362 . S
H528 C534 0.930 . S
H529 C537 0.930 . S
H530 C538 0.930 . S
H531 C539 0.930 . S
H532 C542 0.930 . S
H533 C543 0.930 . S
C534 H528 0.930 . S
C534 C535 1.355 . S
C534 C536 1.415 1_554 S
C535 C534 1.355 . S
C535 C537 1.419 . S
C536 C534 1.415 1_556 S
C536 C541 1.425 . S
C536 C543 1.409 . S
C537 H529 0.930 . S
C537 C535 1.419 . S
C537 C538 1.362 1_554 S
C538 H530 0.930 . S
C538 C537 1.362 1_556 S
C538 C541 1.409 . S
C539 H531 0.930 . S
C539 C540 1.355 . S
C539 C541 1.415 . S
C540 C539 1.355 . S
C540 C542 1.419 . S
C541 C536 1.425 . S
C541 C538 1.409 . S
C541 C539 1.415 . S
C542 H532 0.930 . S
C542 C540 1.419 . S
C542 C543 1.362 . S
C543 H533 0.930 . S
C543 C536 1.409 . S
C543 C542 1.362 . S
H544 C550 0.930 . S
H545 C553 0.930 . S
H546 C554 0.930 . S
H547 C555 0.930 . S
H548 C558 0.930 . S
H549 C559 0.930 . S
C550 H544 0.930 . S
C550 C551 1.355 1_556 S
C550 C552 1.415 . S
C551 C550 1.355 1_554 S
C551 C553 1.419 . S
C552 C550 1.415 . S
C552 C557 1.425 . S
C552 C559 1.409 . S
C553 H545 0.930 . S
C553 C551 1.419 . S
C553 C554 1.362 . S
C554 H546 0.930 . S
C554 C553 1.362 . S
C554 C557 1.409 1_554 S
C555 H547 0.930 . S
C555 C556 1.355 . S
C555 C557 1.415 . S
C556 C555 1.355 . S
C556 C558 1.419 . S
C557 C552 1.425 . S
C557 C554 1.409 1_556 S
C557 C555 1.415 . S
C558 H548 0.930 . S
C558 C556 1.419 . S
C558 C559 1.362 . S
C559 H549 0.930 . S
C559 C552 1.409 . S
C559 C558 1.362 . S
H560 C566 0.930 . S
H561 C569 0.930 . S
H562 C570 0.930 . S
H563 C571 0.930 . S
H564 C574 0.930 . S
H565 C575 0.930 . S
C566 H560 0.930 . S
C566 C567 1.355 . S
C566 C568 1.415 . S
C567 C566 1.355 . S
C567 C569 1.419 . S
C568 C566 1.415 . S
C568 C573 1.425 . S
C568 C575 1.409 . S
C569 H561 0.930 . S
C569 C567 1.419 . S
C569 C570 1.362 . S
C570 H562 0.930 . S
C570 C569 1.362 . S
C570 C573 1.409 . S
C571 H563 0.930 . S
C571 C572 1.355 . S
C571 C573 1.415 . S
C572 C571 1.355 . S
C572 C574 1.419 . S
C573 C568 1.425 . S
C573 C570 1.409 . S
C573 C571 1.415 . S
C574 H564 0.930 . S
C574 C572 1.419 . S
C574 C575 1.362 . S
C575 H565 0.930 . S
C575 C568 1.409 . S
C575 C574 1.362 . S
H576 C582 0.930 . S
H577 C585 0.930 . S
H578 C586 0.930 . S
H579 C587 0.930 . S
H580 C590 0.930 . S
H581 C591 0.930 . S
C582 H576 0.930 . S
C582 C583 1.355 . S
C582 C584 1.415 . S
C583 C582 1.355 . S
C583 C585 1.419 . S
C584 C582 1.415 . S
C584 C589 1.425 . S
C584 C591 1.409 . S
C585 H577 0.930 . S
C585 C583 1.419 . S
C585 C586 1.362 . S
C586 H578 0.930 . S
C586 C585 1.362 . S
C586 C589 1.409 . S
C587 H579 0.930 . S
C587 C588 1.355 . S
C587 C589 1.415 . S
C588 C587 1.355 . S
C588 C590 1.419 . S
C589 C584 1.425 . S
C589 C586 1.409 . S
C589 C587 1.415 . S
C590 H580 0.930 . S
C590 C588 1.419 . S
C590 C591 1.362 . S
C591 H581 0.930 . S
C591 C584 1.409 . S
C591 C590 1.362 . S
H592 C598 0.930 . S
H593 C601 0.930 . S
H594 C602 0.931 . S
H595 C603 0.930 . S
H596 C606 0.930 . S
H597 C607 0.930 . S
C598 H592 0.930 . S
C598 C599 1.355 1_655 S
C598 C600 1.415 . S
C599 C598 1.355 1_455 S
C599 C601 1.419 . S
C600 C598 1.415 . S
C600 C605 1.425 . S
C600 C607 1.409 . S
C601 H593 0.930 . S
C601 C599 1.419 . S
C601 C602 1.362 1_455 S
C602 H594 0.931 . S
C602 C601 1.362 1_655 S
C602 C605 1.409 . S
C603 H595 0.930 . S
C603 C604 1.355 . S
C603 C605 1.415 . S
C604 C603 1.355 . S
C604 C606 1.419 . S
C605 C600 1.425 . S
C605 C602 1.409 . S
C605 C603 1.415 . S
C606 H596 0.930 . S
C606 C604 1.419 . S
C606 C607 1.362 . S
C607 H597 0.930 . S
C607 C600 1.409 . S
C607 C606 1.362 . S
H608 C614 0.930 . S
H609 C617 0.930 . S
H610 C618 0.930 . S
H611 C619 0.930 . S
H612 C622 0.930 . S
H613 C623 0.930 . S
C614 H608 0.930 . S
C614 C615 1.340 1_455 S
C614 C616 1.429 . S
C615 C614 1.340 1_655 S
C615 C617 1.419 . S
C616 C614 1.429 . S
C616 C621 1.425 . S
C616 C623 1.409 . S
C617 H609 0.930 . S
C617 C615 1.419 . S
C617 C618 1.362 . S
C618 H610 0.930 . S
C618 C617 1.362 . S
C618 C621 1.409 1_655 S
C619 H611 0.930 . S
C619 C620 1.355 . S
C619 C621 1.415 . S
C620 C619 1.355 . S
C620 C622 1.419 . S
C621 C616 1.425 . S
C621 C618 1.409 1_455 S
C621 C619 1.415 . S
C622 H612 0.930 . S
C622 C620 1.419 . S
C622 C623 1.362 . S
C623 H613 0.930 . S
C623 C616 1.409 . S
C623 C622 1.362 . S
H624 C630 0.929 1_455 S
H625 C633 0.930 . S
H626 C634 0.930 . S
H627 C635 0.930 . S
H628 C638 0.930 . S
H629 C639 0.930 . S
C630 H624 0.929 1_655 S
C630 C631 1.353 1_655 S
C630 C632 1.417 . S
C631 C630 1.353 1_455 S
C631 C633 1.419 . S
C632 C630 1.417 . S
C632 C637 1.425 . S
C632 C639 1.409 . S
C633 H625 0.930 . S
C633 C631 1.419 . S
C633 C634 1.362 1_455 S
C634 H626 0.930 . S
C634 C633 1.362 1_655 S
C634 C637 1.409 . S
C635 H627 0.930 . S
C635 C636 1.355 . S
C635 C637 1.415 . S
C636 C635 1.355 . S
C636 C638 1.419 . S
C637 C632 1.425 . S
C637 C634 1.409 . S
C637 C635 1.415 . S
C638 H628 0.930 . S
C638 C636 1.419 . S
C638 C639 1.362 . S
C639 H629 0.930 . S
C639 C632 1.409 . S
C639 C638 1.362 . S
H640 C646 0.930 . S
H641 C649 0.930 . S
H642 C650 0.930 . S
H643 C651 0.930 . S
H644 C654 0.922 1_655 S
H645 C655 0.930 . S
C646 H640 0.930 . S
C646 C647 1.355 . S
C646 C648 1.415 . S
C647 C646 1.355 . S
C647 C649 1.419 . S
C648 C646 1.415 . S
C648 C653 1.425 . S
C648 C655 1.409 . S
C649 H641 0.930 . S
C649 C647 1.419 . S
C649 C650 1.362 . S
C650 H642 0.930 . S
C650 C649 1.362 . S
C650 C653 1.409 . S
C651 H643 0.930 . S
C651 C652 1.355 . S
C651 C653 1.415 1_655 S
C652 C651 1.355 . S
C652 C654 1.402 1_655 S
C653 C648 1.425 . S
C653 C650 1.409 . S
C653 C651 1.415 1_455 S
C654 H644 0.922 1_455 S
C654 C652 1.402 1_455 S
C654 C655 1.388 . S
C655 H645 0.930 . S
C655 C648 1.409 . S
C655 C654 1.388 . S
H656 C662 0.930 . S
H657 C665 0.932 . S
H658 C666 0.930 . S
H659 C667 0.930 . S
H660 C670 0.930 . S
H661 C671 0.930 . S
C662 H656 0.930 . S
C662 C663 1.355 . S
C662 C664 1.415 1_545 S
C663 C662 1.355 . S
C663 C665 1.419 1_545 S
C664 C662 1.415 1_565 S
C664 C669 1.425 . S
C664 C671 1.409 . S
C665 H657 0.932 . S
C665 C663 1.419 1_565 S
C665 C666 1.362 . S
C666 H658 0.930 . S
C666 C665 1.362 . S
C666 C669 1.409 . S
C667 H659 0.930 . S
C667 C668 1.355 . S
C667 C669 1.415 . S
C668 C667 1.355 . S
C668 C670 1.419 . S
C669 C664 1.425 . S
C669 C666 1.409 . S
C669 C667 1.415 . S
C670 H660 0.930 . S
C670 C668 1.419 . S
C670 C671 1.362 . S
C671 H661 0.930 . S
C671 C664 1.409 . S
C671 C670 1.362 . S
H672 C678 0.930 . S
H673 C681 0.930 . S
H674 C682 0.930 . S
H675 C683 0.930 . S
H676 C686 0.930 . S
H677 C687 0.930 . S
C678 H672 0.930 . S
C678 C679 1.355 . S
C678 C680 1.415 . S
C679 C678 1.355 . S
C679 C681 1.419 . S
C680 C678 1.415 . S
C680 C685 1.425 . S
C680 C687 1.409 . S
C681 H673 0.930 . S
C681 C679 1.419 . S
C681 C682 1.362 . S
C682 H674 0.930 . S
C682 C681 1.362 . S
C682 C685 1.409 . S
C683 H675 0.930 . S
C683 C684 1.355 . S
C683 C685 1.415 1_565 S
C684 C683 1.355 . S
C684 C686 1.419 . S
C685 C680 1.425 . S
C685 C682 1.409 . S
C685 C683 1.415 1_545 S
C686 H676 0.930 . S
C686 C684 1.419 . S
C686 C687 1.362 1_565 S
C687 H677 0.930 . S
C687 C680 1.409 . S
C687 C686 1.362 1_545 S
H688 C694 0.930 . S
H689 C697 0.930 . S
H690 C698 0.930 . S
H691 C699 0.930 . S
H692 C702 0.930 . S
H693 C703 0.930 . S
C694 H688 0.930 . S
C694 C695 1.355 . S
C694 C696 1.415 . S
C695 C694 1.355 . S
C695 C697 1.419 . S
C696 C694 1.415 . S
C696 C701 1.425 . S
C696 C703 1.409 . S
C697 H689 0.930 . S
C697 C695 1.419 . S
C697 C698 1.362 . S
C698 H690 0.930 . S
C698 C697 1.362 . S
C698 C701 1.409 . S
C699 H691 0.930 . S
C699 C700 1.355 . S
C699 C701 1.415 . S
C700 C699 1.355 . S
C700 C702 1.419 . S
C701 C696 1.425 . S
C701 C698 1.409 . S
C701 C699 1.415 . S
C702 H692 0.930 . S
C702 C700 1.419 . S
C702 C703 1.362 . S
C703 H693 0.930 . S
C703 C696 1.409 . S
C703 C702 1.362 . S
H704 C710 0.930 . S
H705 C713 0.930 . S
H706 C714 0.930 . S
H707 C715 0.929 1_565 S
H708 C718 0.930 . S
H709 C719 0.930 . S
C710 H704 0.930 . S
C710 C711 1.355 . S
C710 C712 1.415 . S
C711 C710 1.355 . S
C711 C713 1.419 . S
C712 C710 1.415 . S
C712 C717 1.425 . S
C712 C719 1.409 . S
C713 H705 0.930 . S
C713 C711 1.419 . S
C713 C714 1.362 . S
C714 H706 0.930 . S
C714 C713 1.362 . S
C714 C717 1.409 . S
C715 H707 0.929 1_545 S
C715 C716 1.351 1_545 S
C715 C717 1.419 . S
C716 C715 1.351 1_565 S
C716 C718 1.419 . S
C717 C712 1.425 . S
C717 C714 1.409 . S
C717 C715 1.419 . S
C718 H708 0.930 . S
C718 C716 1.419 . S
C718 C719 1.362 1_565 S
C719 H709 0.930 . S
C719 C712 1.409 . S
C719 C718 1.362 1_545 S
H720 C726 0.930 . S
H721 C729 0.930 . S
H722 C730 0.930 . S
H723 C731 0.930 . S
H724 C734 0.930 . S
H725 C735 0.930 . S
C726 H720 0.930 . S
C726 C727 1.355 1_455 S
C726 C728 1.415 . S
C727 C726 1.355 1_655 S
C727 C729 1.419 . S
C728 C726 1.415 . S
C728 C733 1.425 1_455 S
C728 C735 1.409 . S
C729 H721 0.930 . S
C729 C727 1.419 . S
C729 C730 1.362 . S
C730 H722 0.930 . S
C730 C729 1.362 . S
C730 C733 1.409 . S
C731 H723 0.930 . S
C731 C732 1.355 1_655 S
C731 C733 1.415 . S
C732 C731 1.355 1_455 S
C732 C734 1.419 . S
C733 C728 1.425 1_655 S
C733 C730 1.409 . S
C733 C731 1.415 . S
C734 H724 0.930 . S
C734 C732 1.419 . S
C734 C735 1.362 . S
C735 H725 0.930 . S
C735 C728 1.409 . S
C735 C734 1.362 . S
H736 C742 0.930 . S
H737 C745 0.930 . S
H738 C746 0.930 . S
H739 C747 0.930 . S
H740 C750 0.930 . S
H741 C751 0.930 . S
C742 H736 0.930 . S
C742 C743 1.355 1_655 S
C742 C744 1.415 . S
C743 C742 1.355 1_455 S
C743 C745 1.419 . S
C744 C742 1.415 . S
C744 C749 1.425 1_655 S
C744 C751 1.409 . S
C745 H737 0.930 . S
C745 C743 1.419 . S
C745 C746 1.362 . S
C746 H738 0.930 . S
C746 C745 1.362 . S
C746 C749 1.409 . S
C747 H739 0.930 . S
C747 C748 1.355 1_455 S
C747 C749 1.415 . S
C748 C747 1.355 1_655 S
C748 C750 1.419 . S
C749 C744 1.425 1_455 S
C749 C746 1.409 . S
C749 C747 1.415 . S
C750 H740 0.930 . S
C750 C748 1.419 . S
C750 C751 1.362 . S
C751 H741 0.930 . S
C751 C744 1.409 . S
C751 C750 1.362 . S
H752 C758 0.930 . S
H753 C761 0.930 . S
H754 C762 0.930 . S
H755 C763 0.930 . S
H756 C766 0.930 . S
H757 C767 0.930 . S
C758 H752 0.930 . S
C758 C759 1.355 1_545 S
C758 C760 1.415 . S
C759 C758 1.355 1_565 S
C759 C761 1.419 . S
C760 C758 1.415 . S
C760 C765 1.425 1_545 S
C760 C767 1.409 . S
C761 H753 0.930 . S
C761 C759 1.419 . S
C761 C762 1.362 . S
C762 H754 0.930 . S
C762 C761 1.362 . S
C762 C765 1.409 . S
C763 H755 0.930 . S
C763 C764 1.355 1_565 S
C763 C765 1.415 . S
C764 C763 1.355 1_545 S
C764 C766 1.419 . S
C765 C760 1.425 1_565 S
C765 C762 1.409 . S
C765 C763 1.415 . S
C766 H756 0.930 . S
C766 C764 1.419 . S
C766 C767 1.362 . S
C767 H757 0.930 . S
C767 C760 1.409 . S
C767 C766 1.362 . S
H768 C774 0.930 . S
H769 C777 0.930 . S
H770 C778 0.930 . S
H771 C779 0.930 . S
H772 C782 0.930 . S
H773 C783 0.930 . S
C774 H768 0.930 . S
C774 C775 1.355 . S
C774 C776 1.415 . S
C775 C774 1.355 . S
C775 C777 1.419 . S
C776 C774 1.415 . S
C776 C781 1.425 . S
C776 C783 1.409 . S
C777 H769 0.930 . S
C777 C775 1.419 . S
C777 C778 1.362 . S
C778 H770 0.930 . S
C778 C777 1.362 . S
C778 C781 1.409 . S
C779 H771 0.930 . S
C779 C780 1.355 . S
C779 C781 1.415 . S
C780 C779 1.355 . S
C780 C782 1.419 . S
C781 C776 1.425 . S
C781 C778 1.409 . S
C781 C779 1.415 . S
C782 H772 0.930 . S
C782 C780 1.419 . S
C782 C783 1.362 . S
C783 H773 0.930 . S
C783 C776 1.409 . S
C783 C782 1.362 . S
H784 C790 0.930 . S
H785 C793 0.930 . S
H786 C794 0.930 . S
H787 C795 0.930 . S
H788 C798 0.930 . S
H789 C799 0.930 . S
C790 H784 0.930 . S
C790 C791 1.355 1_556 S
C790 C792 1.415 . S
C791 C790 1.355 1_554 S
C791 C793 1.419 . S
C792 C790 1.415 . S
C792 C797 1.425 1_556 S
C792 C799 1.409 . S
C793 H785 0.930 . S
C793 C791 1.419 . S
C793 C794 1.362 . S
C794 H786 0.930 . S
C794 C793 1.362 . S
C794 C797 1.409 . S
C795 H787 0.930 . S
C795 C796 1.355 1_554 S
C795 C797 1.415 . S
C796 C795 1.355 1_556 S
C796 C798 1.419 . S
C797 C792 1.425 1_554 S
C797 C794 1.409 . S
C797 C795 1.415 . S
C798 H788 0.930 . S
C798 C796 1.419 . S
C798 C799 1.362 . S
C799 H789 0.930 . S
C799 C792 1.409 . S
C799 C798 1.362 . S
H800 C806 0.930 . S
H801 C809 0.930 . S
H802 C810 0.930 . S
H803 C811 0.930 . S
H804 C814 0.930 . S
H805 C815 0.930 . S
C806 H800 0.930 . S
C806 C807 1.355 . S
C806 C808 1.415 . S
C807 C806 1.355 . S
C807 C809 1.419 . S
C808 C806 1.415 . S
C808 C813 1.425 . S
C808 C815 1.409 . S
C809 H801 0.930 . S
C809 C807 1.419 . S
C809 C810 1.362 . S
C810 H802 0.930 . S
C810 C809 1.362 . S
C810 C813 1.409 . S
C811 H803 0.930 . S
C811 C812 1.355 . S
C811 C813 1.415 . S
C812 C811 1.355 . S
C812 C814 1.419 . S
C813 C808 1.425 . S
C813 C810 1.409 . S
C813 C811 1.415 . S
C814 H804 0.930 . S
C814 C812 1.419 . S
C814 C815 1.362 . S
C815 H805 0.930 . S
C815 C808 1.409 . S
C815 C814 1.362 . S
H816 C822 0.930 . S
H817 C825 0.930 . S
H818 C826 0.930 . S
H819 C827 0.930 . S
H820 C830 0.930 . S
H821 C831 0.930 . S
C822 H816 0.930 . S
C822 C823 1.355 . S
C822 C824 1.415 . S
C823 C822 1.355 . S
C823 C825 1.419 . S
C824 C822 1.415 . S
C824 C829 1.425 . S
C824 C831 1.409 . S
C825 H817 0.930 . S
C825 C823 1.419 . S
C825 C826 1.362 . S
C826 H818 0.930 . S
C826 C825 1.362 . S
C826 C829 1.409 . S
C827 H819 0.930 . S
C827 C828 1.355 . S
C827 C829 1.415 . S
C828 C827 1.355 . S
C828 C830 1.419 . S
C829 C824 1.425 . S
C829 C826 1.409 . S
C829 C827 1.415 . S
C830 H820 0.930 . S
C830 C828 1.419 . S
C830 C831 1.362 . S
C831 H821 0.930 . S
C831 C824 1.409 . S
C831 C830 1.362 . S
H832 C838 0.930 . S
H833 C841 0.930 . S
H834 C842 0.930 . S
H835 C843 0.930 . S
H836 C846 0.930 . S
H837 C847 0.930 . S
C838 H832 0.930 . S
C838 C839 1.355 . S
C838 C840 1.415 . S
C839 C838 1.355 . S
C839 C841 1.419 . S
C840 C838 1.415 . S
C840 C845 1.425 . S
C840 C847 1.409 . S
C841 H833 0.930 . S
C841 C839 1.419 . S
C841 C842 1.362 . S
C842 H834 0.930 . S
C842 C841 1.362 . S
C842 C845 1.409 . S
C843 H835 0.930 . S
C843 C844 1.355 . S
C843 C845 1.415 . S
C844 C843 1.355 . S
C844 C846 1.419 . S
C845 C840 1.425 . S
C845 C842 1.409 . S
C845 C843 1.415 . S
C846 H836 0.930 . S
C846 C844 1.419 . S
C846 C847 1.362 . S
C847 H837 0.930 . S
C847 C840 1.409 . S
C847 C846 1.362 . S
H848 C854 0.930 . S
H849 C857 0.930 . S
H850 C858 0.930 . S
H851 C859 0.930 . S
H852 C862 0.930 . S
H853 C863 0.930 . S
C854 H848 0.930 . S
C854 C855 1.355 . S
C854 C856 1.415 . S
C855 C854 1.355 . S
C855 C857 1.419 . S
C856 C854 1.415 . S
C856 C861 1.425 . S
C856 C863 1.409 . S
C857 H849 0.930 . S
C857 C855 1.419 . S
C857 C858 1.362 . S
C858 H850 0.930 . S
C858 C857 1.362 . S
C858 C861 1.409 . S
C859 H851 0.930 . S
C859 C860 1.355 . S
C859 C861 1.415 . S
C860 C859 1.355 . S
C860 C862 1.419 . S
C861 C856 1.425 . S
C861 C858 1.409 . S
C861 C859 1.415 . S
C862 H852 0.930 . S
C862 C860 1.419 . S
C862 C863 1.362 . S
C863 H853 0.930 . S
C863 C856 1.409 . S
C863 C862 1.362 . S
H864 C870 0.930 . S
H865 C873 0.930 . S
H866 C874 0.930 . S
H867 C875 0.930 . S
H868 C878 0.930 . S
H869 C879 0.930 . S
C870 H864 0.930 . S
C870 C871 1.355 . S
C870 C872 1.415 . S
C871 C870 1.355 . S
C871 C873 1.419 . S
C872 C870 1.415 . S
C872 C877 1.425 . S
C872 C879 1.409 . S
C873 H865 0.930 . S
C873 C871 1.419 . S
C873 C874 1.362 . S
C874 H866 0.930 . S
C874 C873 1.362 . S
C874 C877 1.409 . S
C875 H867 0.930 . S
C875 C876 1.355 . S
C875 C877 1.415 . S
C876 C875 1.355 . S
C876 C878 1.419 . S
C877 C872 1.425 . S
C877 C874 1.409 . S
C877 C875 1.415 . S
C878 H868 0.930 . S
C878 C876 1.419 . S
C878 C879 1.362 . S
C879 H869 0.930 . S
C879 C872 1.409 . S
C879 C878 1.362 . S
H880 C886 0.930 . S
H881 C889 0.930 . S
H882 C890 0.930 . S
H883 C891 0.930 . S
H884 C894 0.930 . S
H885 C895 0.930 . S
C886 H880 0.930 . S
C886 C887 1.355 . S
C886 C888 1.415 . S
C887 C886 1.355 . S
C887 C889 1.419 1_545 S
C888 C886 1.415 . S
C888 C893 1.425 1_545 S
C888 C895 1.409 . S
C889 H881 0.930 . S
C889 C887 1.419 1_565 S
C889 C890 1.362 . S
C890 H882 0.930 . S
C890 C889 1.362 . S
C890 C893 1.409 . S
C891 H883 0.930 . S
C891 C892 1.355 . S
C891 C893 1.415 . S
C892 C891 1.355 . S
C892 C894 1.419 1_565 S
C893 C888 1.425 1_565 S
C893 C890 1.409 . S
C893 C891 1.415 . S
C894 H884 0.930 . S
C894 C892 1.419 1_545 S
C894 C895 1.362 . S
C895 H885 0.930 . S
C895 C888 1.409 . S
C895 C894 1.362 . S
H896 C902 0.930 . S
H897 C905 0.930 . S
H898 C906 0.930 . S
H899 C907 0.930 . S
H900 C910 0.930 . S
H901 C911 0.930 . S
C902 H896 0.930 . S
C902 C903 1.355 1_554 S
C902 C904 1.415 . S
C903 C902 1.355 1_556 S
C903 C905 1.419 . S
C904 C902 1.415 . S
C904 C909 1.425 1_554 S
C904 C911 1.409 . S
C905 H897 0.930 . S
C905 C903 1.419 . S
C905 C906 1.362 . S
C906 H898 0.930 . S
C906 C905 1.362 . S
C906 C909 1.409 . S
C907 H899 0.930 . S
C907 C908 1.355 1_556 S
C907 C909 1.415 . S
C908 C907 1.355 1_554 S
C908 C910 1.419 . S
C909 C904 1.425 1_556 S
C909 C906 1.409 . S
C909 C907 1.415 . S
C910 H900 0.930 . S
C910 C908 1.419 . S
C910 C911 1.362 . S
C911 H901 0.930 . S
C911 C904 1.409 . S
C911 C910 1.362 . S
H912 C918 0.930 . S
H913 C921 0.930 . S
H914 C922 0.930 1_545 S
H915 C923 0.930 . S
H916 C926 0.930 . S
H917 C927 0.930 . S
C918 H912 0.930 . S
C918 C919 1.345 1_455 S
C918 C920 1.415 . S
C919 C918 1.345 1_655 S
C919 C921 1.431 . S
C920 C918 1.415 . S
C920 C925 1.425 1_465 S
C920 C927 1.409 . S
C921 H913 0.930 . S
C921 C919 1.431 . S
C921 C922 1.362 . S
C922 H914 0.930 1_565 S
C922 C921 1.362 . S
C922 C925 1.409 1_565 S
C923 H915 0.930 . S
C923 C924 1.355 1_655 S
C923 C925 1.415 . S
C924 C923 1.355 1_455 S
C924 C926 1.419 . S
C925 C920 1.425 1_645 S
C925 C922 1.409 1_545 S
C925 C923 1.415 . S
C926 H916 0.930 . S
C926 C924 1.419 . S
C926 C927 1.362 1_545 S
C927 H917 0.930 . S
C927 C920 1.409 . S
C927 C926 1.362 1_565 S
H928 C934 0.930 . S
H929 C937 0.930 . S
H930 C938 0.930 . S
H931 C939 0.930 . S
H932 C942 0.930 . S
H933 C943 0.930 . S
C934 H928 0.930 . S
C934 C935 1.355 1_455 S
C934 C936 1.415 . S
C935 C934 1.355 1_655 S
C935 C937 1.419 . S
C936 C934 1.415 . S
C936 C941 1.425 1_455 S
C936 C943 1.409 . S
C937 H929 0.930 . S
C937 C935 1.419 . S
C937 C938 1.362 . S
C938 H930 0.930 . S
C938 C937 1.362 . S
C938 C941 1.409 . S
C939 H931 0.930 . S
C939 C940 1.355 . S
C939 C941 1.415 . S
C940 C939 1.355 . S
C940 C942 1.419 1_655 S
C941 C936 1.425 1_655 S
C941 C938 1.409 . S
C941 C939 1.415 . S
C942 H932 0.930 . S
C942 C940 1.419 1_455 S
C942 C943 1.362 . S
C943 H933 0.930 . S
C943 C936 1.409 . S
C943 C942 1.362 . S
H944 C950 0.930 . S
H945 C953 0.930 . S
H946 C954 0.930 . S
H947 C955 0.931 . S
H948 C958 0.930 . S
H949 C959 0.930 . S
C950 H944 0.930 . S
C950 C951 1.355 . S
C950 C952 1.415 . S
C951 C950 1.355 . S
C951 C953 1.419 1_545 S
C952 C950 1.415 . S
C952 C957 1.424 1_546 S
C952 C959 1.409 . S
C953 H945 0.930 . S
C953 C951 1.419 1_565 S
C953 C954 1.362 1_556 S
C954 H946 0.930 . S
C954 C953 1.362 1_554 S
C954 C957 1.410 . S
C955 H947 0.931 . S
C955 C956 1.354 1_565 S
C955 C957 1.415 . S
C956 C955 1.354 1_545 S
C956 C958 1.419 . S
C957 C952 1.424 1_564 S
C957 C954 1.410 . S
C957 C955 1.415 . S
C958 H948 0.930 . S
C958 C956 1.419 . S
C958 C959 1.362 1_554 S
C959 H949 0.930 . S
C959 C952 1.409 . S
C959 C958 1.362 1_556 S
H960 C966 0.930 . S
H961 C969 0.930 . S
H962 C970 0.930 . S
H963 C971 0.930 . S
H964 C974 0.930 . S
H965 C975 0.930 . S
C966 H960 0.930 . S
C966 C967 1.355 . S
C966 C968 1.415 1_554 S
C967 C966 1.355 . S
C967 C969 1.419 . S
C968 C966 1.415 1_556 S
C968 C973 1.425 1_556 S
C968 C975 1.409 . S
C969 H961 0.930 . S
C969 C967 1.419 . S
C969 C970 1.362 . S
C970 H962 0.930 . S
C970 C969 1.362 . S
C970 C973 1.409 . S
C971 H963 0.930 . S
C971 C972 1.355 . S
C971 C973 1.415 1_556 S
C972 C971 1.355 . S
C972 C974 1.419 . S
C973 C968 1.425 1_554 S
C973 C970 1.409 . S
C973 C971 1.415 1_554 S
C974 H964 0.930 . S
C974 C972 1.419 . S
C974 C975 1.362 . S
C975 H965 0.930 . S
C975 C968 1.409 . S
C975 C974 1.362 . S
H976 C982 0.930 . S
H977 C985 0.930 . S
H978 C986 0.930 . S
H979 C987 0.930 . S
H980 C990 0.930 . S
H981 C991 0.930 . S
C982 H976 0.930 . S
C982 C983 1.355 1_545 S
C982 C984 1.415 . S
C983 C982 1.355 1_565 S
C983 C985 1.419 . S
C984 C982 1.415 . S
C984 C989 1.425 1_545 S
C984 C991 1.409 . S
C985 H977 0.930 . S
C985 C983 1.419 . S
C985 C986 1.362 . S
C986 H978 0.930 . S
C986 C985 1.362 . S
C986 C989 1.409 . S
C987 H979 0.930 . S
C987 C988 1.355 . S
C987 C989 1.415 . S
C988 C987 1.355 . S
C988 C990 1.419 1_565 S
C989 C984 1.425 1_565 S
C989 C986 1.409 . S
C989 C987 1.415 . S
C990 H980 0.930 . S
C990 C988 1.419 1_545 S
C990 C991 1.362 . S
C991 H981 0.930 . S
C991 C984 1.409 . S
C991 C990 1.362 . S
H992 C998 0.930 . S
H993 C1001 0.930 . S
H994 C1002 0.930 . S
H995 C1003 0.930 . S
H996 C1006 0.930 . S
H997 C1007 0.930 . S
C998 H992 0.930 . S
C998 C999 1.355 . S
C998 C1000 1.415 . S
C999 C998 1.355 . S
C999 C1001 1.419 . S
C1000 C998 1.415 . S
C1000 C1005 1.425 . S
C1000 C1007 1.409 . S
C1001 H993 0.930 . S
C1001 C999 1.419 . S
C1001 C1002 1.362 . S
C1002 H994 0.930 . S
C1002 C1001 1.362 . S
C1002 C1005 1.409 . S
C1003 H995 0.930 . S
C1003 C1004 1.355 . S
C1003 C1005 1.415 . S
C1004 C1003 1.355 . S
C1004 C1006 1.419 . S
C1005 C1000 1.425 . S
C1005 C1002 1.409 . S
C1005 C1003 1.415 . S
C1006 H996 0.930 . S
C1006 C1004 1.419 . S
C1006 C1007 1.362 . S
C1007 H997 0.930 . S
C1007 C1000 1.409 . S
C1007 C1006 1.362 . S
H1008 C1014 0.930 . S
H1009 C1017 0.930 . S
H1010 C1018 0.930 . S
H1011 C1019 0.930 . S
H1012 C1022 0.930 . S
H1013 C1023 0.930 . S
C1014 H1008 0.930 . S
C1014 C1015 1.354 1_556 S
C1014 C1016 1.417 . S
C1015 C1014 1.354 1_554 S
C1015 C1017 1.420 . S
C1016 C1014 1.417 . S
C1016 C1021 1.421 1_456 S
C1016 C1023 1.412 . S
C1017 H1009 0.930 . S
C1017 C1015 1.420 . S
C1017 C1018 1.362 1_455 S
C1018 H1010 0.930 . S
C1018 C1017 1.362 1_655 S
C1018 C1021 1.409 . S
C1019 H1011 0.930 . S
C1019 C1020 1.355 . S
C1019 C1021 1.415 . S
C1020 C1019 1.355 . S
C1020 C1022 1.419 1_554 S
C1021 C1016 1.421 1_654 S
C1021 C1018 1.409 . S
C1021 C1019 1.415 . S
C1022 H1012 0.930 . S
C1022 C1020 1.419 1_556 S
C1022 C1023 1.362 1_655 S
C1023 H1013 0.930 . S
C1023 C1016 1.412 . S
C1023 C1022 1.362 1_455 S
H1024 C1030 0.930 . S
H1025 C1033 0.930 . S
H1026 C1034 0.932 . S
H1027 C1035 0.930 . S
H1028 C1038 0.930 . S
H1029 C1039 0.930 1_455 S
C1030 H1024 0.930 . S
C1030 C1031 1.355 . S
C1030 C1032 1.415 . S
C1031 C1030 1.355 . S
C1031 C1033 1.419 . S
C1032 C1030 1.415 . S
C1032 C1037 1.425 1_455 S
C1032 C1039 1.409 1_455 S
C1033 H1025 0.930 . S
C1033 C1031 1.419 . S
C1033 C1034 1.359 1_455 S
C1034 H1026 0.932 . S
C1034 C1033 1.359 1_655 S
C1034 C1037 1.410 . S
C1035 H1027 0.930 . S
C1035 C1036 1.355 . S
C1035 C1037 1.415 . S
C1036 C1035 1.355 . S
C1036 C1038 1.419 . S
C1037 C1032 1.425 1_655 S
C1037 C1034 1.410 . S
C1037 C1035 1.415 . S
C1038 H1028 0.930 . S
C1038 C1036 1.419 . S
C1038 C1039 1.362 . S
C1039 H1029 0.930 1_655 S
C1039 C1032 1.409 1_655 S
C1039 C1038 1.362 . S
H1040 C1046 0.930 . S
H1041 C1049 0.930 . S
H1042 C1050 0.930 . S
H1043 C1051 0.930 . S
H1044 C1054 0.930 . S
H1045 C1055 0.930 . S
C1046 H1040 0.930 . S
C1046 C1047 1.355 . S
C1046 C1048 1.415 . S
C1047 C1046 1.355 . S
C1047 C1049 1.419 . S
C1048 C1046 1.415 . S
C1048 C1053 1.425 . S
C1048 C1055 1.409 . S
C1049 H1041 0.930 . S
C1049 C1047 1.419 . S
C1049 C1050 1.362 . S
C1050 H1042 0.930 . S
C1050 C1049 1.362 . S
C1050 C1053 1.409 . S
C1051 H1043 0.930 . S
C1051 C1052 1.355 . S
C1051 C1053 1.415 . S
C1052 C1051 1.355 . S
C1052 C1054 1.419 . S
C1053 C1048 1.425 . S
C1053 C1050 1.409 . S
C1053 C1051 1.415 . S
C1054 H1044 0.930 . S
C1054 C1052 1.419 . S
C1054 C1055 1.362 . S
C1055 H1045 0.930 . S
C1055 C1048 1.409 . S
C1055 C1054 1.362 . S
H1056 C1062 0.930 . S
H1057 C1065 0.930 . S
H1058 C1066 0.930 . S
H1059 C1067 0.930 . S
H1060 C1070 0.930 . S
H1061 C1071 0.930 . S
C1062 H1056 0.930 . S
C1062 C1063 1.355 . S
C1062 C1064 1.415 . S
C1063 C1062 1.355 . S
C1063 C1065 1.419 . S
C1064 C1062 1.415 . S
C1064 C1069 1.425 . S
C1064 C1071 1.409 . S
C1065 H1057 0.930 . S
C1065 C1063 1.419 . S
C1065 C1066 1.362 . S
C1066 H1058 0.930 . S
C1066 C1065 1.362 . S
C1066 C1069 1.409 . S
C1067 H1059 0.930 . S
C1067 C1068 1.355 . S
C1067 C1069 1.415 . S
C1068 C1067 1.355 . S
C1068 C1070 1.419 . S
C1069 C1064 1.425 . S
C1069 C1066 1.409 . S
C1069 C1067 1.415 . S
C1070 H1060 0.930 . S
C1070 C1068 1.419 . S
C1070 C1071 1.362 . S
C1071 H1061 0.930 . S
C1071 C1064 1.409 . S
C1071 C1070 1.362 . S
H1072 C1078 0.930 . S
H1073 C1081 0.930 . S
H1074 C1082 0.930 1_545 S
H1075 C1083 0.930 . S
H1076 C1086 0.930 . S
H1077 C1087 0.930 1_565 S
C1078 H1072 0.930 . S
C1078 C1079 1.355 . S
C1078 C1080 1.415 . S
C1079 C1078 1.355 . S
C1079 C1081 1.419 . S
C1080 C1078 1.415 . S
C1080 C1085 1.425 1_565 S
C1080 C1087 1.409 1_565 S
C1081 H1073 0.930 . S
C1081 C1079 1.419 . S
C1081 C1082 1.362 . S
C1082 H1074 0.930 1_565 S
C1082 C1081 1.362 . S
C1082 C1085 1.409 1_565 S
C1083 H1075 0.930 . S
C1083 C1084 1.355 . S
C1083 C1085 1.415 . S
C1084 C1083 1.355 . S
C1084 C1086 1.419 . S
C1085 C1080 1.425 1_545 S
C1085 C1082 1.409 1_545 S
C1085 C1083 1.415 . S
C1086 H1076 0.930 . S
C1086 C1084 1.419 . S
C1086 C1087 1.362 . S
C1087 H1077 0.930 1_545 S
C1087 C1080 1.409 1_545 S
C1087 C1086 1.362 . S
H1088 C1094 0.930 . S
H1089 C1097 0.930 . S
H1090 C1098 0.930 . S
H1091 C1099 0.930 . S
H1092 C1102 0.930 . S
H1093 C1103 0.930 . S
C1094 H1088 0.930 . S
C1094 C1095 1.339 1_556 S
C1094 C1096 1.415 . S
C1095 C1094 1.339 1_554 S
C1095 C1097 1.438 . S
C1096 C1094 1.415 . S
C1096 C1101 1.425 1_556 S
C1096 C1103 1.409 . S
C1097 H1089 0.930 . S
C1097 C1095 1.438 . S
C1097 C1098 1.362 . S
C1098 H1090 0.930 . S
C1098 C1097 1.362 . S
C1098 C1101 1.409 . S
C1099 H1091 0.930 . S
C1099 C1100 1.355 1_554 S
C1099 C1101 1.415 . S
C1100 C1099 1.355 1_556 S
C1100 C1102 1.419 . S
C1101 C1096 1.425 1_554 S
C1101 C1098 1.409 . S
C1101 C1099 1.415 . S
C1102 H1092 0.930 . S
C1102 C1100 1.419 . S
C1102 C1103 1.362 . S
C1103 H1093 0.930 . S
C1103 C1096 1.409 . S
C1103 C1102 1.362 . S
C343 C247 0.738 . S
C348 C3 0.661 . S
C359 C17 0.841 . S
C364 C233 0.725 . S
C375 C31 0.820 . S
C380 C275 0.868 . S
C391 C45 0.905 . S
C396 C261 0.844 . S
C407 C59 0.669 . S
C412 C303 0.695 . S
C423 C73 0.813 . S
C428 C317 0.864 . S
C439 C289 0.767 . S
C444 C87 0.752 . S
C455 C163 0.820 . S
C460 C101 0.880 . S
C471 C115 0.780 . S
C476 C51 0.762 . S
C487 C23 0.865 . S
C492 C129 0.815 . S
C503 C143 0.994 . S
C508 C9 0.891 . S
C519 C157 0.928 . S
C524 C205 0.791 . S
C535 C79 1.043 . S
C540 C171 1.064 . S
C551 C65 1.009 . S
C556 C185 1.022 . S
C567 C199 0.903 . S
C572 C107 0.765 . S
C583 C213 0.825 . S
C588 C93 0.895 . S
C599 C135 0.949 . S
C604 C227 1.091 . S
C615 C149 0.910 . S
C620 C241 0.996 . S
C631 C121 0.913 . S
C636 C255 1.020 . S
C647 C269 0.845 . S
C652 C331 0.785 . S
C663 C219 0.934 . S
C668 C283 1.034 . S
C679 C297 0.961 . S
C684 C191 0.979 . S
C695 C177 0.829 . S
C700 C311 0.767 . S
C711 C325 0.895 . S
C716 C37 0.784 . S
C727 C8 1.752 . S
C732 C22 1.719 . S
C743 C50 1.629 . S
C748 C36 1.672 . S
C759 C64 1.730 . S
C764 C92 1.744 . S
C775 C78 1.908 . S
C780 C106 1.894 . S
C791 C316 1.738 . S
C796 C120 1.744 . S
C807 C134 1.940 . S
C812 C162 1.942 . S
C823 C288 1.868 . S
C828 C148 1.860 . S
C839 C190 1.858 . S
C844 C176 1.866 . S
C855 C204 1.888 . S
C860 C218 1.911 . S
C871 C260 1.854 . S
C876 C232 1.824 . S
C887 C246 1.660 . S
C892 C274 1.645 . S
C903 C330 1.654 . S
C908 C302 1.668 . S
C919 C35 1.187 1_655 S
C924 C7 1.173 . S
C935 C21 1.333 . S
C940 C49 1.340 . S
C951 C273 1.132 . S
C956 C63 1.126 . S
C967 C77 1.385 . S
C972 C259 1.381 . S
C983 C91 1.394 . S
C988 C245 1.404 . S
C999 C231 1.457 . S
C1004 C105 1.468 . S
C1015 C119 1.127 . S
C1020 C329 1.120 . S
C1031 C133 1.329 . S
C1036 C147 1.309 . S
C1047 C287 1.553 . S
C1052 C161 1.562 . S
C1063 C175 1.496 . S
C1068 C203 1.485 . S
C1079 C189 1.332 . S
C1084 C217 1.314 . S
C1095 C315 1.361 1_554 S
C1100 C301 1.348 . S
